# Generated by pormake.
# Topology bwt, (3,3)-cn, num edge types: 1
# Building blocks:
#     Node 0, Type 0, BuildingBlock: WUSLED_clean_sbu_0, # of connection points: 3
#     Node 1, Type 0, BuildingBlock: WUSLED_clean_sbu_0, # of connection points: 3
#     Node 2, Type 0, BuildingBlock: WUSLED_clean_sbu_0, # of connection points: 3
#     Node 3, Type 0, BuildingBlock: WUSLED_clean_sbu_0, # of connection points: 3
#     Node 4, Type 0, BuildingBlock: WUSLED_clean_sbu_0, # of connection points: 3
#     Node 5, Type 0, BuildingBlock: WUSLED_clean_sbu_0, # of connection points: 3
#     Node 6, Type 0, BuildingBlock: WUSLED_clean_sbu_0, # of connection points: 3
#     Node 7, Type 0, BuildingBlock: WUSLED_clean_sbu_0, # of connection points: 3
#     Node 8, Type 0, BuildingBlock: WUSLED_clean_sbu_0, # of connection points: 3
#     Node 9, Type 0, BuildingBlock: WUSLED_clean_sbu_0, # of connection points: 3
#     Node 10, Type 0, BuildingBlock: WUSLED_clean_sbu_0, # of connection points: 3
#     Node 11, Type 0, BuildingBlock: WUSLED_clean_sbu_0, # of connection points: 3
#     Node 12, Type 0, BuildingBlock: WUSLED_clean_sbu_0, # of connection points: 3
#     Node 13, Type 0, BuildingBlock: WUSLED_clean_sbu_0, # of connection points: 3
#     Node 14, Type 0, BuildingBlock: WUSLED_clean_sbu_0, # of connection points: 3
#     Node 15, Type 0, BuildingBlock: WUSLED_clean_sbu_0, # of connection points: 3
#     Node 16, Type 0, BuildingBlock: WUSLED_clean_sbu_0, # of connection points: 3
#     Node 17, Type 0, BuildingBlock: WUSLED_clean_sbu_0, # of connection points: 3
#     Node 18, Type 0, BuildingBlock: WUSLED_clean_sbu_0, # of connection points: 3
#     Node 19, Type 0, BuildingBlock: WUSLED_clean_sbu_0, # of connection points: 3
#     Node 20, Type 0, BuildingBlock: WUSLED_clean_sbu_0, # of connection points: 3
#     Node 21, Type 0, BuildingBlock: WUSLED_clean_sbu_0, # of connection points: 3
#     Node 22, Type 0, BuildingBlock: WUSLED_clean_sbu_0, # of connection points: 3
#     Node 23, Type 0, BuildingBlock: WUSLED_clean_sbu_0, # of connection points: 3
#     Node 24, Type 1, BuildingBlock: BETDAH_clean_linker_0, # of connection points: 3
#     Node 25, Type 1, BuildingBlock: BETDAH_clean_linker_0, # of connection points: 3
#     Node 26, Type 1, BuildingBlock: BETDAH_clean_linker_0, # of connection points: 3
#     Node 27, Type 1, BuildingBlock: BETDAH_clean_linker_0, # of connection points: 3
#     Node 28, Type 1, BuildingBlock: BETDAH_clean_linker_0, # of connection points: 3
#     Node 29, Type 1, BuildingBlock: BETDAH_clean_linker_0, # of connection points: 3
#     Node 30, Type 1, BuildingBlock: BETDAH_clean_linker_0, # of connection points: 3
#     Node 31, Type 1, BuildingBlock: BETDAH_clean_linker_0, # of connection points: 3
#     Node 32, Type 1, BuildingBlock: BETDAH_clean_linker_0, # of connection points: 3
#     Node 33, Type 1, BuildingBlock: BETDAH_clean_linker_0, # of connection points: 3
#     Node 34, Type 1, BuildingBlock: BETDAH_clean_linker_0, # of connection points: 3
#     Node 35, Type 1, BuildingBlock: BETDAH_clean_linker_0, # of connection points: 3
#     Node 36, Type 1, BuildingBlock: BETDAH_clean_linker_0, # of connection points: 3
#     Node 37, Type 1, BuildingBlock: BETDAH_clean_linker_0, # of connection points: 3
#     Node 38, Type 1, BuildingBlock: BETDAH_clean_linker_0, # of connection points: 3
#     Node 39, Type 1, BuildingBlock: BETDAH_clean_linker_0, # of connection points: 3
#     Node 40, Type 1, BuildingBlock: BETDAH_clean_linker_0, # of connection points: 3
#     Node 41, Type 1, BuildingBlock: BETDAH_clean_linker_0, # of connection points: 3
#     Node 42, Type 1, BuildingBlock: BETDAH_clean_linker_0, # of connection points: 3
#     Node 43, Type 1, BuildingBlock: BETDAH_clean_linker_0, # of connection points: 3
#     Node 44, Type 1, BuildingBlock: BETDAH_clean_linker_0, # of connection points: 3
#     Node 45, Type 1, BuildingBlock: BETDAH_clean_linker_0, # of connection points: 3
#     Node 46, Type 1, BuildingBlock: BETDAH_clean_linker_0, # of connection points: 3
#     Node 47, Type 1, BuildingBlock: BETDAH_clean_linker_0, # of connection points: 3
#     Edge 48, Type (0, 1), BuildingBlock: ZUJKAS_clean_linker_0, # of connection points: 2
#     Edge 49, Type (0, 1), BuildingBlock: ZUJKAS_clean_linker_0, # of connection points: 2
#     Edge 50, Type (0, 1), BuildingBlock: ZUJKAS_clean_linker_0, # of connection points: 2
#     Edge 51, Type (0, 1), BuildingBlock: ZUJKAS_clean_linker_0, # of connection points: 2
#     Edge 52, Type (0, 1), BuildingBlock: ZUJKAS_clean_linker_0, # of connection points: 2
#     Edge 53, Type (0, 1), BuildingBlock: ZUJKAS_clean_linker_0, # of connection points: 2
#     Edge 54, Type (0, 1), BuildingBlock: ZUJKAS_clean_linker_0, # of connection points: 2
#     Edge 55, Type (0, 1), BuildingBlock: ZUJKAS_clean_linker_0, # of connection points: 2
#     Edge 56, Type (0, 1), BuildingBlock: ZUJKAS_clean_linker_0, # of connection points: 2
#     Edge 57, Type (0, 1), BuildingBlock: ZUJKAS_clean_linker_0, # of connection points: 2
#     Edge 58, Type (0, 1), BuildingBlock: ZUJKAS_clean_linker_0, # of connection points: 2
#     Edge 59, Type (0, 1), BuildingBlock: ZUJKAS_clean_linker_0, # of connection points: 2
#     Edge 60, Type (0, 1), BuildingBlock: ZUJKAS_clean_linker_0, # of connection points: 2
#     Edge 61, Type (0, 1), BuildingBlock: ZUJKAS_clean_linker_0, # of connection points: 2
#     Edge 62, Type (0, 1), BuildingBlock: ZUJKAS_clean_linker_0, # of connection points: 2
#     Edge 63, Type (0, 1), BuildingBlock: ZUJKAS_clean_linker_0, # of connection points: 2
#     Edge 64, Type (0, 1), BuildingBlock: ZUJKAS_clean_linker_0, # of connection points: 2
#     Edge 65, Type (0, 1), BuildingBlock: ZUJKAS_clean_linker_0, # of connection points: 2
#     Edge 66, Type (0, 1), BuildingBlock: ZUJKAS_clean_linker_0, # of connection points: 2
#     Edge 67, Type (0, 1), BuildingBlock: ZUJKAS_clean_linker_0, # of connection points: 2
#     Edge 68, Type (0, 1), BuildingBlock: ZUJKAS_clean_linker_0, # of connection points: 2
#     Edge 69, Type (0, 1), BuildingBlock: ZUJKAS_clean_linker_0, # of connection points: 2
#     Edge 70, Type (0, 1), BuildingBlock: ZUJKAS_clean_linker_0, # of connection points: 2
#     Edge 71, Type (0, 1), BuildingBlock: ZUJKAS_clean_linker_0, # of connection points: 2
#     Edge 72, Type (0, 1), BuildingBlock: ZUJKAS_clean_linker_0, # of connection points: 2
#     Edge 73, Type (0, 1), BuildingBlock: ZUJKAS_clean_linker_0, # of connection points: 2
#     Edge 74, Type (0, 1), BuildingBlock: ZUJKAS_clean_linker_0, # of connection points: 2
#     Edge 75, Type (0, 1), BuildingBlock: ZUJKAS_clean_linker_0, # of connection points: 2
#     Edge 76, Type (0, 1), BuildingBlock: ZUJKAS_clean_linker_0, # of connection points: 2
#     Edge 77, Type (0, 1), BuildingBlock: ZUJKAS_clean_linker_0, # of connection points: 2
#     Edge 78, Type (0, 1), BuildingBlock: ZUJKAS_clean_linker_0, # of connection points: 2
#     Edge 79, Type (0, 1), BuildingBlock: ZUJKAS_clean_linker_0, # of connection points: 2
#     Edge 80, Type (0, 1), BuildingBlock: ZUJKAS_clean_linker_0, # of connection points: 2
#     Edge 81, Type (0, 1), BuildingBlock: ZUJKAS_clean_linker_0, # of connection points: 2
#     Edge 82, Type (0, 1), BuildingBlock: ZUJKAS_clean_linker_0, # of connection points: 2
#     Edge 83, Type (0, 1), BuildingBlock: ZUJKAS_clean_linker_0, # of connection points: 2
#     Edge 84, Type (0, 1), BuildingBlock: ZUJKAS_clean_linker_0, # of connection points: 2
#     Edge 85, Type (0, 1), BuildingBlock: ZUJKAS_clean_linker_0, # of connection points: 2
#     Edge 86, Type (0, 1), BuildingBlock: ZUJKAS_clean_linker_0, # of connection points: 2
#     Edge 87, Type (0, 1), BuildingBlock: ZUJKAS_clean_linker_0, # of connection points: 2
#     Edge 88, Type (0, 1), BuildingBlock: ZUJKAS_clean_linker_0, # of connection points: 2
#     Edge 89, Type (0, 1), BuildingBlock: ZUJKAS_clean_linker_0, # of connection points: 2
#     Edge 90, Type (0, 1), BuildingBlock: ZUJKAS_clean_linker_0, # of connection points: 2
#     Edge 91, Type (0, 1), BuildingBlock: ZUJKAS_clean_linker_0, # of connection points: 2
#     Edge 92, Type (0, 1), BuildingBlock: ZUJKAS_clean_linker_0, # of connection points: 2
#     Edge 93, Type (0, 1), BuildingBlock: ZUJKAS_clean_linker_0, # of connection points: 2
#     Edge 94, Type (0, 1), BuildingBlock: ZUJKAS_clean_linker_0, # of connection points: 2
#     Edge 95, Type (0, 1), BuildingBlock: ZUJKAS_clean_linker_0, # of connection points: 2
#     Edge 96, Type (0, 1), BuildingBlock: ZUJKAS_clean_linker_0, # of connection points: 2
#     Edge 97, Type (0, 1), BuildingBlock: ZUJKAS_clean_linker_0, # of connection points: 2
#     Edge 98, Type (0, 1), BuildingBlock: ZUJKAS_clean_linker_0, # of connection points: 2
#     Edge 99, Type (0, 1), BuildingBlock: ZUJKAS_clean_linker_0, # of connection points: 2
#     Edge 100, Type (0, 1), BuildingBlock: ZUJKAS_clean_linker_0, # of connection points: 2
#     Edge 101, Type (0, 1), BuildingBlock: ZUJKAS_clean_linker_0, # of connection points: 2
#     Edge 102, Type (0, 1), BuildingBlock: ZUJKAS_clean_linker_0, # of connection points: 2
#     Edge 103, Type (0, 1), BuildingBlock: ZUJKAS_clean_linker_0, # of connection points: 2
#     Edge 104, Type (0, 1), BuildingBlock: ZUJKAS_clean_linker_0, # of connection points: 2
#     Edge 105, Type (0, 1), BuildingBlock: ZUJKAS_clean_linker_0, # of connection points: 2
#     Edge 106, Type (0, 1), BuildingBlock: ZUJKAS_clean_linker_0, # of connection points: 2
#     Edge 107, Type (0, 1), BuildingBlock: ZUJKAS_clean_linker_0, # of connection points: 2
#     Edge 108, Type (0, 1), BuildingBlock: ZUJKAS_clean_linker_0, # of connection points: 2
#     Edge 109, Type (0, 1), BuildingBlock: ZUJKAS_clean_linker_0, # of connection points: 2
#     Edge 110, Type (0, 1), BuildingBlock: ZUJKAS_clean_linker_0, # of connection points: 2
#     Edge 111, Type (0, 1), BuildingBlock: ZUJKAS_clean_linker_0, # of connection points: 2
#     Edge 112, Type (0, 1), BuildingBlock: ZUJKAS_clean_linker_0, # of connection points: 2
#     Edge 113, Type (0, 1), BuildingBlock: ZUJKAS_clean_linker_0, # of connection points: 2
#     Edge 114, Type (0, 1), BuildingBlock: ZUJKAS_clean_linker_0, # of connection points: 2
#     Edge 115, Type (0, 1), BuildingBlock: ZUJKAS_clean_linker_0, # of connection points: 2
#     Edge 116, Type (0, 1), BuildingBlock: ZUJKAS_clean_linker_0, # of connection points: 2
#     Edge 117, Type (0, 1), BuildingBlock: ZUJKAS_clean_linker_0, # of connection points: 2
#     Edge 118, Type (0, 1), BuildingBlock: ZUJKAS_clean_linker_0, # of connection points: 2
#     Edge 119, Type (0, 1), BuildingBlock: ZUJKAS_clean_linker_0, # of connection points: 2
# Relax obj value: 0.121
# Max RMSD: 0.171
# Mean RMSD: 0.084
data_MOF--net-bwt--node1-WUSLED_clean_sbu_0--node2-BETDAH_clean_linker_0--edge1-ZUJKAS_clean_linker_0
_symmetry_space_group_name_H-M    P1
_symmetry_Int_Tables_number       1
_symmetry_cell_setting            triclinic
loop_
_symmetry_equiv_pos_as_xyz
'x, y, z'
_cell_length_a     84.61871
_cell_length_b     84.588456
_cell_length_c     84.654515
_cell_angle_alpha  95.068255
_cell_angle_beta   95.03322
_cell_angle_gamma 94.999692
loop_
_atom_site_label
_atom_site_type_symbol
_atom_site_fract_x
_atom_site_fract_y
_atom_site_fract_z
_atom_type_partial_charge
C0 C 0.30561 0.65603 0.37755 0.0
C1 C 0.31868 0.65421 0.38851 0.0
C2 C 0.33713 0.65588 0.36756 0.0
C3 C 0.33423 0.65413 0.38358 0.0
C4 C 0.32389 0.65767 0.35675 0.0
C5 C 0.30847 0.65777 0.36168 0.0
U6 U 0.26983 0.64933 0.40414 0.0
O7 O 0.24969 0.66413 0.40689 0.0
O8 O 0.24505 0.63942 0.39613 0.0
C9 C 0.23889 0.65263 0.40066 0.0
C10 C 0.28886 0.65625 0.38194 0.0
C11 C 0.22413 0.65669 0.3914 0.0
C12 C 0.20957 0.66977 0.37067 0.0
C13 C 0.22413 0.66616 0.37851 0.0
C14 C 0.19496 0.65441 0.38831 0.0
C15 C 0.1948 0.66384 0.37547 0.0
C16 C 0.20937 0.65098 0.39618 0.0
C17 C 0.28095 0.63121 0.44551 0.0
C18 C 0.26674 0.62432 0.46831 0.0
C19 C 0.29389 0.61794 0.46687 0.0
C20 C 0.29424 0.62462 0.45235 0.0
C21 C 0.28019 0.61768 0.47521 0.0
C22 C 0.26711 0.63104 0.4536 0.0
C23 C 0.28243 0.63789 0.42995 0.0
O24 O 0.28048 0.64242 0.38191 0.0
O25 O 0.2861 0.66658 0.39368 0.0
O26 O 0.28104 0.65314 0.42899 0.0
O27 O 0.27675 0.62892 0.41688 0.0
H28 H 0.31688 0.65288 0.40085 0.0
H29 H 0.34399 0.65289 0.39239 0.0
H30 H 0.32532 0.65873 0.3443 0.0
H31 H 0.29866 0.65915 0.35294 0.0
H32 H 0.20985 0.677 0.36074 0.0
H33 H 0.2353 0.67075 0.37453 0.0
H34 H 0.18385 0.64977 0.3924 0.0
H35 H 0.20896 0.64381 0.40616 0.0
H36 H 0.25597 0.62448 0.47433 0.0
H37 H 0.30438 0.61268 0.47137 0.0
H38 H 0.30503 0.62452 0.44634 0.0
H39 H 0.25666 0.63605 0.4486 0.0
C40 C 0.21917 0.31146 0.811 0.0
C41 C 0.20935 0.32144 0.81895 0.0
C42 C 0.18631 0.31053 0.80052 0.0
C43 C 0.19307 0.32102 0.8137 0.0
C44 C 0.19601 0.29997 0.79319 0.0
C45 C 0.21228 0.3005 0.79833 0.0
U46 U 0.25884 0.32801 0.83597 0.0
O47 O 0.28174 0.31736 0.83885 0.0
O48 O 0.28035 0.33966 0.82751 0.0
C49 C 0.28943 0.32879 0.83215 0.0
C50 C 0.23675 0.3134 0.81442 0.0
C51 C 0.30205 0.32462 0.82199 0.0
C52 C 0.31184 0.31186 0.79826 0.0
C53 C 0.29923 0.31458 0.80769 0.0
C54 C 0.32997 0.32907 0.81741 0.0
C55 C 0.3274 0.31915 0.80301 0.0
C56 C 0.3175 0.3317 0.82675 0.0
C57 C 0.25917 0.35497 0.87498 0.0
C58 C 0.28244 0.37248 0.88657 0.0
C59 C 0.25743 0.37344 0.89835 0.0
C60 C 0.25036 0.36137 0.88687 0.0
C61 C 0.27339 0.37939 0.89802 0.0
C62 C 0.27541 0.36026 0.87518 0.0
C63 C 0.25084 0.34419 0.86158 0.0
O64 O 0.24357 0.32782 0.81359 0.0
O65 O 0.24296 0.30644 0.82649 0.0
O66 O 0.25349 0.32908 0.86111 0.0
O67 O 0.25096 0.34979 0.8476 0.0
H68 H 0.21438 0.32995 0.82881 0.0
H69 H 0.18584 0.32918 0.81969 0.0
H70 H 0.19121 0.29184 0.78295 0.0
H71 H 0.21963 0.29277 0.79196 0.0
H72 H 0.3094 0.3041 0.78728 0.0
H73 H 0.28735 0.30902 0.80378 0.0
H74 H 0.34158 0.33526 0.82134 0.0
H75 H 0.31991 0.33959 0.83766 0.0
H76 H 0.29478 0.37692 0.88611 0.0
H77 H 0.25018 0.37874 0.90694 0.0
H78 H 0.2378 0.35754 0.88684 0.0
H79 H 0.28243 0.35545 0.86612 0.0
C80 C 0.71187 0.99775 0.61753 0.0
C81 C 0.72348 0.99516 0.60694 0.0
C82 C 0.74409 0.99809 0.62918 0.0
C83 C 0.7395 0.99535 0.61272 0.0
C84 C 0.7324 1.00091 0.63966 0.0
C85 C 0.71643 1.00073 0.63387 0.0
U86 U 0.68073 0.9976 0.58295 0.0
O87 O 0.65636 0.98586 0.57794 0.0
O88 O 0.66057 0.012 0.57951 0.0
C89 C 0.65 0.99951 0.578 0.0
C90 C 0.69509 0.99787 0.61162 0.0
C91 C 0.63647 1.00103 0.58748 0.0
C92 C 0.62451 1.00071 0.6125 0.0
C93 C 0.63777 0.99927 0.60386 0.0
C94 C 0.60884 0.00598 0.58847 0.0
C95 C 0.6099 0.00405 0.60484 0.0
C96 C 0.62202 0.00447 0.57988 0.0
C97 C 0.69392 0.99716 0.54143 0.0
C98 C 0.67486 0.99512 0.51802 0.0
C99 C 0.703 1.00183 0.51581 0.0
C100 C 0.70627 1.00109 0.53212 0.0
C101 C 0.68731 0.99874 0.50863 0.0
C102 C 0.67816 0.99429 0.53438 0.0
C103 C 0.69765 0.99665 0.55855 0.0
O104 O 0.69166 0.0109 0.60524 0.0
O105 O 0.68858 0.98471 0.60323 0.0
O106 O 0.6918 0.98375 0.56445 0.0
O107 O 0.6959 0.00992 0.56724 0.0
H108 H 0.72012 0.99296 0.59423 0.0
H109 H 0.74823 0.99304 0.60439 0.0
H110 H 0.73563 0.00332 0.65236 0.0
H111 H 0.70763 0.00295 0.64215 0.0
H112 H 0.62565 0.99919 0.6251 0.0
H113 H 0.64895 0.99669 0.60989 0.0
H114 H 0.59768 0.0082 0.58215 0.0
H115 H 0.62087 0.00585 0.56724 0.0
H116 H 0.66268 0.99267 0.51266 0.0
H117 H 0.71273 0.00488 0.50877 0.0
H118 H 0.71844 0.00358 0.53747 0.0
H119 H 0.66846 0.99139 0.5415 0.0
C120 C 0.77082 0.01796 0.27258 0.0
C121 C 0.76013 0.02015 0.25945 0.0
C122 C 0.73787 0.01223 0.27428 0.0
C123 C 0.74368 0.01747 0.26037 0.0
C124 C 0.74879 0.00959 0.28703 0.0
C125 C 0.76505 0.01252 0.28621 0.0
U126 U 0.80655 0.01344 0.24954 0.0
O127 O 0.8268 1.0001 0.2567 0.0
O128 O 0.8308 0.02575 0.25214 0.0
C129 C 0.83686 0.01281 0.25649 0.0
C130 C 0.78805 0.01934 0.27194 0.0
C131 C 0.85388 0.01245 0.26039 0.0
C132 C 0.87632 0.01 0.27949 0.0
C133 C 0.86005 0.01112 0.27606 0.0
C134 C 0.88016 0.01147 0.25155 0.0
C135 C 0.88652 0.01012 0.26724 0.0
C136 C 0.86393 0.01265 0.24818 0.0
C137 C 0.79116 0.99998 0.20411 0.0
C138 C 0.80245 0.99382 0.17916 0.0
C139 C 0.77393 0.98918 0.18062 0.0
C140 C 0.77594 0.99492 0.19661 0.0
C141 C 0.78713 0.98849 0.17182 0.0
C142 C 0.8045 0.99953 0.19537 0.0
C143 C 0.79206 0.00549 0.22105 0.0
O144 O 0.79373 0.00555 0.26914 0.0
O145 O 0.79423 0.03062 0.26394 0.0
O146 O 0.79815 0.02013 0.22589 0.0
O147 O 0.79465 0.99508 0.23138 0.0
H148 H 0.76448 0.02376 0.24852 0.0
H149 H 0.73555 0.01928 0.25022 0.0
H150 H 0.74486 0.00551 0.29787 0.0
H151 H 0.77316 0.01041 0.29628 0.0
H152 H 0.88088 0.00888 0.29166 0.0
H153 H 0.85231 0.01089 0.2856 0.0
H154 H 0.88774 0.01186 0.2419 0.0
H155 H 0.85919 0.01355 0.23601 0.0
H156 H 0.81276 0.99328 0.17245 0.0
H157 H 0.76205 0.98516 0.17511 0.0
H158 H 0.76554 0.99528 0.20321 0.0
H159 H 0.81634 0.00342 0.20105 0.0
C160 C 0.37889 0.30558 0.65568 0.0
C161 C 0.38882 0.31798 0.65059 0.0
C162 C 0.36903 0.33714 0.65554 0.0
C163 C 0.38395 0.33356 0.65051 0.0
C164 C 0.35929 0.32462 0.66074 0.0
C165 C 0.36415 0.30917 0.6608 0.0
U166 U 0.40489 0.26941 0.64813 0.0
O167 O 0.40718 0.24884 0.66242 0.0
O168 O 0.39641 0.24487 0.63769 0.0
C169 C 0.40082 0.23834 0.65069 0.0
C170 C 0.383 0.28871 0.65546 0.0
C171 C 0.39162 0.22338 0.65435 0.0
C172 C 0.37096 0.20822 0.66701 0.0
C173 C 0.3786 0.22298 0.66365 0.0
C174 C 0.38912 0.1942 0.65178 0.0
C175 C 0.37623 0.19353 0.66125 0.0
C176 C 0.39664 0.2088 0.64845 0.0
C177 C 0.44649 0.28025 0.63025 0.0
C178 C 0.46904 0.26578 0.62296 0.0
C179 C 0.46786 0.29306 0.6169 0.0
C180 C 0.45343 0.29355 0.62375 0.0
C181 C 0.47601 0.27923 0.61637 0.0
C182 C 0.45442 0.26629 0.62985 0.0
C183 C 0.43096 0.28184 0.63701 0.0
O184 O 0.38299 0.28067 0.64145 0.0
O185 O 0.3946 0.28552 0.66572 0.0
O186 O 0.42993 0.28012 0.65218 0.0
O187 O 0.41783 0.27658 0.62796 0.0
H188 H 0.40028 0.31561 0.64659 0.0
H189 H 0.39193 0.34281 0.64658 0.0
H190 H 0.34765 0.32663 0.66444 0.0
H191 H 0.3562 0.29986 0.6647 0.0
H192 H 0.36115 0.20835 0.67439 0.0
H193 H 0.37444 0.23401 0.66842 0.0
H194 H 0.39343 0.18336 0.64674 0.0
H195 H 0.4066 0.20868 0.64123 0.0
H196 H 0.47492 0.25492 0.62292 0.0
H197 H 0.47242 0.30357 0.6117 0.0
H198 H 0.44756 0.30444 0.62383 0.0
H199 H 0.44934 0.25583 0.63479 0.0
C200 C 0.27536 0.77552 0.01424 0.0
C201 C 0.26183 0.76493 0.01558 0.0
C202 C 0.27764 0.74246 0.01304 0.0
C203 C 0.26298 0.74847 0.01503 0.0
C204 C 0.29091 0.75305 0.01105 0.0
C205 C 0.28983 0.76945 0.01173 0.0
U206 U 0.2476 0.80607 0.01019 0.0
O207 O 0.2451 0.82976 0.02217 0.0
O208 O 0.24626 0.82665 0.99619 0.0
C209 C 0.24504 0.83656 0.00879 0.0
C210 C 0.27399 0.79272 0.01438 0.0
C211 C 0.25356 0.85248 0.00932 0.0
C212 C 0.27732 0.87129 0.01375 0.0
C213 C 0.27004 0.85567 0.01351 0.0
C214 C 0.25171 0.88031 0.00556 0.0
C215 C 0.26817 0.88372 0.00963 0.0
C216 C 0.24452 0.86489 0.00541 0.0
C217 C 0.20483 0.78546 1.00167 0.0
C218 C 0.18092 0.79827 0.99486 0.0
C219 C 0.18043 0.76942 0.9916 0.0
C220 C 0.19639 0.77053 0.99743 0.0
C221 C 0.17267 0.78325 0.99 0.0
C222 C 0.19706 0.79939 1.00057 0.0
C223 C 0.22196 0.78594 0.00576 0.0
O224 O 0.26879 0.79718 1.00053 0.0
O225 O 0.26697 0.79903 0.02637 0.0
O226 O 0.22764 0.79286 0.01987 0.0
O227 O 0.2307 0.78957 0.99429 0.0
H228 H 0.25042 0.7694 0.01717 0.0
H229 H 0.25257 0.74053 0.01652 0.0
H230 H 0.30217 0.74871 0.00898 0.0
H231 H 0.30027 0.77735 0.01027 0.0
H232 H 0.29003 0.87363 0.01699 0.0
H233 H 0.27719 0.84617 0.01658 0.0
H234 H 0.24427 0.88968 0.00274 0.0
H235 H 0.23177 0.86264 0.00228 0.0
H236 H 0.17508 0.80905 0.99364 0.0
H237 H 0.1742 0.75773 0.98802 0.0
H238 H 0.2023 0.75971 0.99817 0.0
H239 H 0.20356 0.81102 0.0037 0.0
C240 C 0.80967 0.21832 0.31072 0.0
C241 C 0.81959 0.20723 0.31664 0.0
C242 C 0.79829 0.18553 0.30936 0.0
C243 C 0.81398 0.19094 0.31585 0.0
C244 C 0.78874 0.19666 0.30297 0.0
C245 C 0.79437 0.21278 0.30363 0.0
U246 U 0.83594 0.25802 0.32678 0.0
O247 O 0.83908 0.2805 0.31536 0.0
O248 O 0.82755 0.27996 0.33757 0.0
C249 C 0.8322 0.2886 0.32637 0.0
C250 C 0.81415 0.23581 0.31267 0.0
C251 C 0.82166 0.30071 0.32141 0.0
C252 C 0.79547 0.30922 0.31384 0.0
C253 C 0.80545 0.29696 0.31608 0.0
C254 C 0.81797 0.32894 0.3214 0.0
C255 C 0.80165 0.32532 0.31673 0.0
C256 C 0.82784 0.31677 0.32377 0.0
C257 C 0.87497 0.25774 0.35433 0.0
C258 C 0.88883 0.28085 0.37067 0.0
C259 C 0.89605 0.25434 0.3748 0.0
C260 C 0.88476 0.2479 0.36235 0.0
C261 C 0.89788 0.2708 0.37938 0.0
C262 C 0.87733 0.27434 0.35826 0.0
C263 C 0.86129 0.25008 0.34346 0.0
O264 O 0.81342 0.24297 0.32696 0.0
O265 O 0.82647 0.24143 0.30571 0.0
O266 O 0.86107 0.2525 0.32831 0.0
O267 O 0.84732 0.2508 0.34897 0.0
H268 H 0.83146 0.21121 0.32219 0.0
H269 H 0.82167 0.18271 0.32089 0.0
H270 H 0.77674 0.19293 0.29763 0.0
H271 H 0.78652 0.22107 0.29893 0.0
H272 H 0.7829 0.30617 0.31025 0.0
H273 H 0.80042 0.28464 0.31421 0.0
H274 H 0.82295 0.34124 0.32396 0.0
H275 H 0.84025 0.31995 0.32808 0.0
H276 H 0.88998 0.29358 0.37408 0.0
H277 H 0.90291 0.24637 0.38133 0.0
H278 H 0.88313 0.23508 0.35953 0.0
H279 H 0.86984 0.28215 0.35224 0.0
C280 C 0.61636 0.7123 0.99603 0.0
C281 C 0.60572 0.72399 0.99413 0.0
C282 C 0.62791 0.74468 0.9979 0.0
C283 C 0.61146 0.74009 0.995 0.0
C284 C 0.63848 0.73285 0.9996 0.0
C285 C 0.63273 0.7168 0.99869 0.0
U286 U 0.58186 0.68077 0.99498 0.0
O287 O 0.57761 0.65612 0.98385 0.0
O288 O 0.57822 0.66102 0.00986 0.0
C289 C 0.57721 0.65013 0.99765 0.0
C290 C 0.61049 0.69551 0.99614 0.0
C291 C 0.58667 0.63668 0.99977 0.0
C292 C 0.61198 0.62521 0.00237 0.0
C293 C 0.60338 0.6385 1.00084 0.0
C294 C 0.58718 0.60842 1.00203 0.0
C295 C 0.60393 0.61 0.00289 0.0
C296 C 0.57866 0.62164 1.0005 0.0
C297 C 0.53993 0.69273 0.99233 0.0
C298 C 0.51807 0.67426 0.99811 0.0
C299 C 0.5132 0.70084 0.99145 0.0
C300 C 0.52932 0.70418 0.98961 0.0
C301 C 0.5075 0.686 0.99609 0.0
C302 C 0.53422 0.67763 0.99626 0.0
C303 C 0.55702 0.69701 0.99218 0.0
O304 O 0.60355 0.69224 0.00892 0.0
O305 O 0.60264 0.68874 0.98281 0.0
O306 O 0.5635 0.69076 0.97982 0.0
O307 O 0.56541 0.69614 0.00583 0.0
H308 H 0.59298 0.72067 0.9922 0.0
H309 H 0.60306 0.74895 0.99371 0.0
H310 H 0.65123 0.73601 1.00156 0.0
H311 H 0.64107 0.70791 1.00021 0.0
H312 H 0.62487 0.62679 0.00306 0.0
H313 H 0.60972 0.65011 1.00033 0.0
H314 H 0.58059 0.59685 1.00202 0.0
H315 H 0.56575 0.62007 0.99962 0.0
H316 H 0.51397 0.66274 1.00169 0.0
H317 H 0.50522 0.70997 0.98948 0.0
H318 H 0.53356 0.71585 0.98647 0.0
H319 H 0.54234 0.66864 0.99837 0.0
C320 C 0.65631 0.37901 0.30502 0.0
C321 C 0.6496 0.38815 0.31696 0.0
C322 C 0.65604 0.36921 0.33654 0.0
C323 C 0.64944 0.38329 0.33251 0.0
C324 C 0.66293 0.3603 0.32453 0.0
C325 C 0.66303 0.36512 0.30907 0.0
U326 U 0.64897 0.40512 0.26904 0.0
O327 O 0.6636 0.40799 0.24879 0.0
O328 O 0.63905 0.39675 0.24435 0.0
C329 C 0.6521 0.40155 0.23808 0.0
C330 C 0.65611 0.38304 0.28815 0.0
C331 C 0.6562 0.39263 0.22315 0.0
C332 C 0.66408 0.36928 0.20748 0.0
C333 C 0.66097 0.37706 0.22227 0.0
C334 C 0.65789 0.39254 0.19443 0.0
C335 C 0.6624 0.37685 0.19322 0.0
C336 C 0.65483 0.40021 0.20907 0.0
C337 C 0.63178 0.44701 0.27998 0.0
C338 C 0.62141 0.46771 0.26464 0.0
C339 C 0.62204 0.47051 0.29335 0.0
C340 C 0.62875 0.45599 0.29393 0.0
C341 C 0.61816 0.47665 0.27872 0.0
C342 C 0.62815 0.45302 0.26526 0.0
C343 C 0.63801 0.43124 0.28167 0.0
O344 O 0.64211 0.38317 0.28013 0.0
O345 O 0.66647 0.39456 0.28498 0.0
O346 O 0.65322 0.42993 0.28039 0.0
O347 O 0.62883 0.41833 0.27591 0.0
H348 H 0.64436 0.39895 0.31423 0.0
H349 H 0.64419 0.39062 0.3414 0.0
H350 H 0.66792 0.3493 0.32693 0.0
H351 H 0.66822 0.35778 0.30013 0.0
H352 H 0.66748 0.35723 0.20719 0.0
H353 H 0.66216 0.37088 0.23291 0.0
H354 H 0.65682 0.39908 0.18403 0.0
H355 H 0.65126 0.41222 0.20935 0.0
H356 H 0.61876 0.47204 0.25313 0.0
H357 H 0.61948 0.47668 0.30445 0.0
H358 H 0.63131 0.45158 0.30543 0.0
H359 H 0.63038 0.44635 0.25429 0.0
C360 C 0.0068 0.27494 0.7726 0.0
C361 C 0.00842 0.26111 0.76256 0.0
C362 C 1.0027 0.27509 0.73927 0.0
C363 C 0.00652 0.26123 0.74601 0.0
C364 C 1.00056 0.28875 0.74928 0.0
C365 C 1.00263 0.2887 0.76586 0.0
U366 U 0.00759 0.24842 0.80436 0.0
O367 O 0.022 0.24722 0.82714 0.0
O368 O 0.99584 0.24676 0.82635 0.0
C369 C 0.00936 0.2463 0.83515 0.0
C370 C 0.00861 0.2744 0.78999 0.0
C371 C 0.01071 0.25436 0.85134 0.0
C372 C 0.01332 0.27779 0.87058 0.0
C373 C 0.01297 0.271 0.85475 0.0
C374 C 0.00932 0.25134 0.87936 0.0
C375 C 0.01121 0.26796 0.88297 0.0
C376 C 0.00908 0.24465 0.86374 0.0
C377 C 1.00006 0.20495 0.78502 0.0
C378 C 0.9925 0.18135 0.79796 0.0
C379 C 0.99449 0.17941 0.76945 0.0
C380 C 0.99896 0.1957 0.77039 0.0
C381 C 0.99105 0.17208 0.78317 0.0
C382 C 0.99703 0.19775 0.79889 0.0
C383 C 1.00291 0.22221 0.78498 0.0
O384 O 0.99568 0.26861 0.79585 0.0
O385 O 0.02159 0.26839 0.79554 0.0
O386 O 0.0172 0.22881 0.79046 0.0
O387 O 0.99133 0.23032 0.78963 0.0
H388 H 0.01141 0.25027 0.76752 0.0
H389 H 0.00846 0.25066 0.73849 0.0
H390 H 0.99765 0.29959 0.74429 0.0
H391 H 1.0011 0.29939 0.77339 0.0
H392 H 0.0149 0.29064 0.87309 0.0
H393 H 0.01427 0.27867 0.84526 0.0
H394 H 0.00806 0.24345 0.88868 0.0
H395 H 0.00744 0.23179 0.86132 0.0
H396 H 0.98996 0.17595 0.80871 0.0
H397 H 0.99315 0.17266 0.75785 0.0
H398 H 1.00106 0.20118 0.75956 0.0
H399 H 0.99776 0.20485 0.81028 0.0
C400 C 0.31089 0.80953 0.21714 0.0
C401 C 0.31889 0.81853 0.20654 0.0
C402 C 0.3094 0.79842 0.18425 0.0
C403 C 0.31808 0.81307 0.19023 0.0
C404 C 0.30086 0.78993 0.19486 0.0
C405 C 0.30161 0.79542 0.21104 0.0
U406 U 0.32728 0.83536 0.25678 0.0
O407 O 0.31651 0.8382 0.27961 0.0
O408 O 0.33898 0.82713 0.27841 0.0
C409 C 0.32806 0.83177 0.28742 0.0
C410 C 0.31305 0.81352 0.23469 0.0
C411 C 0.32416 0.82195 0.30041 0.0
C412 C 0.31135 0.79878 0.31111 0.0
C413 C 0.31391 0.80779 0.29816 0.0
C414 C 0.32914 0.8181 0.32847 0.0
C415 C 0.319 0.80383 0.32647 0.0
C416 C 0.33161 0.82701 0.31566 0.0
C417 C 0.35394 0.87475 0.25617 0.0
C418 C 0.3706 0.88843 0.27914 0.0
C419 C 0.37408 0.89607 0.25266 0.0
C420 C 0.36163 0.88476 0.24632 0.0
C421 C 0.37901 0.89768 0.26904 0.0
C422 C 0.35817 0.87692 0.27273 0.0
C423 C 0.34314 0.86103 0.24856 0.0
O424 O 0.32753 0.81299 0.24151 0.0
O425 O 0.30592 0.82555 0.24075 0.0
O426 O 0.32808 0.86051 0.2514 0.0
O427 O 0.34895 0.84716 0.24893 0.0
H428 H 0.32614 0.82948 0.21096 0.0
H429 H 0.32481 0.81997 0.18247 0.0
H430 H 0.29377 0.77882 0.19072 0.0
H431 H 0.29528 0.7883 0.21894 0.0
H432 H 0.30339 0.78791 0.30908 0.0
H433 H 0.30804 0.80365 0.28645 0.0
H434 H 0.33562 0.82226 0.33989 0.0
H435 H 0.33965 0.83785 0.31765 0.0
H436 H 0.37426 0.88943 0.29181 0.0
H437 H 0.38035 0.90311 0.24467 0.0
H438 H 0.35855 0.88328 0.23354 0.0
H439 H 0.35241 0.86925 0.28054 0.0
C440 C 0.9953 0.61834 0.71072 0.0
C441 C 0.99718 0.60738 0.72213 0.0
C442 C 0.99698 0.62859 0.74339 0.0
C443 C 0.99803 0.61247 0.73836 0.0
C444 C 0.9945 0.63937 0.73185 0.0
C445 C 0.99372 0.63428 0.71564 0.0
U446 U 0.99699 0.58486 0.67943 0.0
O447 O 0.98628 0.5793 0.65477 0.0
O448 O 0.01236 0.58193 0.65999 0.0
C449 C 1.00023 0.57996 0.64898 0.0
C450 C 0.99587 0.61327 0.69381 0.0
C451 C 1.0018 0.58962 0.63562 0.0
C452 C 0.99829 0.61393 0.62308 0.0
C453 C 0.99757 0.60532 0.63639 0.0
C454 C 0.00827 0.59147 0.60852 0.0
C455 C 0.00347 0.60696 0.60899 0.0
C456 C 0.00737 0.58284 0.62174 0.0
C457 C 0.99678 0.54347 0.69244 0.0
C458 C 0.99387 0.52008 0.67329 0.0
C459 C 1.00278 0.51802 0.70102 0.0
C460 C 1.00187 0.53427 0.70448 0.0
C461 C 0.99859 0.51076 0.68547 0.0
C462 C 0.99297 0.53639 0.67677 0.0
C463 C 0.99595 0.5605 0.69633 0.0
O464 O 0.00927 0.60755 0.69048 0.0
O465 O 0.9831 0.60459 0.68683 0.0
O466 O 0.98308 0.56622 0.69015 0.0
O467 O 0.00919 0.56943 0.69506 0.0
H468 H 0.99838 0.59497 0.71847 0.0
H469 H 0.99997 0.6039 0.74694 0.0
H470 H 0.99327 0.65179 0.73535 0.0
H471 H 0.99216 0.64283 0.70696 0.0
H472 H 0.99456 0.62588 0.62366 0.0
H473 H 0.9934 0.61076 0.64714 0.0
H474 H 0.01208 0.58579 0.59771 0.0
H475 H 0.01071 0.57073 0.62102 0.0
H476 H 0.99057 0.51469 0.66123 0.0
H477 H 0.00676 0.51108 0.71052 0.0
H478 H 0.0051 0.53967 0.71655 0.0
H479 H 0.98921 0.54345 0.66729 0.0
C480 C 0.70225 0.35545 0.62949 0.0
C481 C 0.6897 0.3594 0.61893 0.0
C482 C 0.67039 0.3549 0.63866 0.0
C483 C 0.67395 0.35906 0.62344 0.0
C484 C 0.68305 0.35084 0.649 0.0
C485 C 0.69865 0.35111 0.64449 0.0
U486 U 0.73878 0.36242 0.60378 0.0
O487 O 0.76369 0.37153 0.61241 0.0
O488 O 0.75859 0.34717 0.60084 0.0
C489 C 0.76959 0.35831 0.60744 0.0
C490 C 0.71919 0.35555 0.62555 0.0
C491 C 0.78445 0.35365 0.61615 0.0
C492 C 0.79993 0.34493 0.63919 0.0
C493 C 0.78528 0.34873 0.63165 0.0
C494 C 0.81303 0.35086 0.61593 0.0
C495 C 0.81414 0.34611 0.6315 0.0
C496 C 0.7985 0.35454 0.60845 0.0
C497 C 0.72762 0.37963 0.56175 0.0
C498 C 0.74173 0.39262 0.54161 0.0
C499 C 0.71312 0.38674 0.53757 0.0
C500 C 0.71334 0.37997 0.55208 0.0
C501 C 0.72723 0.39348 0.53218 0.0
C502 C 0.74192 0.38585 0.55631 0.0
C503 C 0.72651 0.3736 0.57768 0.0
O504 O 0.72237 0.34516 0.61405 0.0
O505 O 0.72745 0.36946 0.6256 0.0
O506 O 0.73272 0.38275 0.59047 0.0
O507 O 0.72731 0.35833 0.57903 0.0
H508 H 0.69206 0.36279 0.60726 0.0
H509 H 0.66462 0.36238 0.61513 0.0
H510 H 0.68092 0.34728 0.66067 0.0
H511 H 0.708 0.34789 0.65284 0.0
H512 H 0.80018 0.34141 0.65119 0.0
H513 H 0.77469 0.34792 0.63796 0.0
H514 H 0.82344 0.35165 0.60935 0.0
H515 H 0.79828 0.35821 0.59649 0.0
H516 H 0.75286 0.39767 0.53791 0.0
H517 H 0.70177 0.38679 0.53061 0.0
H518 H 0.70215 0.37525 0.55595 0.0
H519 H 0.75313 0.38575 0.56352 0.0
C520 C 0.788 0.68715 0.1999 0.0
C521 C 0.79858 0.68028 0.19001 0.0
C522 C 0.82136 0.69027 0.2094 0.0
C523 C 0.8151 0.68183 0.19471 0.0
C524 C 0.81058 0.69717 0.2191 0.0
C525 C 0.7942 0.69566 0.21439 0.0
U526 U 0.74809 0.67164 0.17413 0.0
O527 O 0.72539 0.66245 0.18223 0.0
O528 O 0.72646 0.68421 0.16986 0.0
C529 C 0.71759 0.674 0.17695 0.0
C530 C 0.77047 0.68544 0.19589 0.0
C531 C 0.70563 0.68027 0.18698 0.0
C532 C 0.6957 0.68585 0.21284 0.0
C533 C 0.70833 0.68271 0.20367 0.0
C534 C 0.67787 0.68521 0.18876 0.0
C535 C 0.68027 0.68674 0.20546 0.0
C536 C 0.69041 0.68193 0.17963 0.0
C537 C 0.74748 0.64435 0.13493 0.0
C538 C 0.72626 0.62459 0.12264 0.0
C539 C 0.74909 0.63138 0.10839 0.0
C540 C 0.75543 0.64238 0.12116 0.0
C541 C 0.7347 0.62187 0.10916 0.0
C542 C 0.73257 0.63574 0.13539 0.0
C543 C 0.75563 0.65435 0.14902 0.0
O544 O 0.76488 0.69246 0.1836 0.0
O545 O 0.76306 0.67126 0.19673 0.0
O546 O 0.75408 0.64881 0.16288 0.0
O547 O 0.75461 0.66979 0.14937 0.0
H548 H 0.79408 0.67365 0.17875 0.0
H549 H 0.82293 0.67646 0.18679 0.0
H550 H 0.8147 0.70345 0.23062 0.0
H551 H 0.78629 0.70099 0.22226 0.0
H552 H 0.69784 0.68704 0.22572 0.0
H553 H 0.71997 0.68152 0.20961 0.0
H554 H 0.66607 0.68561 0.18278 0.0
H555 H 0.68802 0.67991 0.16679 0.0
H556 H 0.71519 0.61753 0.12379 0.0
H557 H 0.75575 0.63003 0.09808 0.0
H558 H 0.76687 0.64899 0.1205 0.0
H559 H 0.72612 0.63716 0.14584 0.0
C560 C 0.29135 0.9948 0.38594 0.0
C561 C 0.28027 0.99835 0.39684 0.0
C562 C 0.25976 0.99891 0.37496 0.0
C563 C 0.26458 1.00042 0.3914 0.0
C564 C 0.27083 0.99478 0.36418 0.0
C565 C 0.2865 0.99282 0.36963 0.0
U566 U 0.32249 0.99281 0.41986 0.0
O567 O 0.34423 0.98039 0.42225 0.0
O568 O 0.34567 0.00654 0.42643 0.0
C569 C 0.3535 0.99381 0.42544 0.0
C570 C 0.30811 0.99385 0.39145 0.0
C571 C 0.36776 0.9953 0.41695 0.0
C572 C 0.38087 0.9983 0.39286 0.0
C573 C 0.36688 0.99572 0.40035 0.0
C574 C 0.39647 0.99986 0.41851 0.0
C575 C 0.39574 1.00066 0.40197 0.0
C576 C 0.38258 0.99719 0.42592 0.0
C577 C 0.31092 0.99348 0.46134 0.0
C578 C 0.33219 0.99586 0.48284 0.0
C579 C 0.30499 0.9994 0.48846 0.0
C580 C 0.29989 0.99646 0.47231 0.0
C581 C 0.32119 0.99936 0.49378 0.0
C582 C 0.32708 0.99305 0.46663 0.0
C583 C 0.30584 0.99248 0.44436 0.0
O584 O 0.31491 0.00659 0.40028 0.0
O585 O 0.31137 0.98039 0.39713 0.0
O586 O 0.30873 0.97937 0.43599 0.0
O587 O 0.30987 0.00554 0.43779 0.0
H588 H 0.28386 0.99986 0.40954 0.0
H589 H 0.25638 0.00364 0.40001 0.0
H590 H 0.2674 0.99312 0.35147 0.0
H591 H 0.2949 0.98997 0.3611 0.0
H592 H 0.38006 0.99893 0.38009 0.0
H593 H 0.35544 0.99437 0.39331 0.0
H594 H 0.40781 1.00143 0.42574 0.0
H595 H 0.3834 0.9969 0.43874 0.0
H596 H 0.3447 0.99568 0.4868 0.0
H597 H 0.29629 1.00174 0.49682 0.0
H598 H 0.28742 0.99687 0.46835 0.0
H599 H 0.33576 0.99091 0.45819 0.0
C600 C 0.22999 1.0006 0.72677 0.0
C601 C 0.24059 0.00422 0.74064 0.0
C602 C 0.26275 0.99757 0.72593 0.0
C603 C 0.25685 1.00272 0.74023 0.0
C604 C 0.2522 0.99442 0.712 0.0
C605 C 0.23589 0.99579 0.7124 0.0
U606 U 0.2003 0.0072 0.75453 0.0
O607 O 0.17877 0.02 0.75512 0.0
O608 O 0.17769 0.99452 0.75907 0.0
C609 C 0.16989 0.00722 0.75801 0.0
C610 C 0.21285 1.00125 0.72792 0.0
C611 C 0.15368 0.00455 0.7501 0.0
C612 C 0.13436 0.99731 0.72705 0.0
C613 C 0.15027 1.00067 0.73359 0.0
C614 C 0.12554 1.00184 0.75344 0.0
C615 C 0.12192 0.9976 0.73704 0.0
C616 C 0.14125 0.00528 0.75987 0.0
C617 C 0.22038 0.0158 0.79716 0.0
C618 C 0.20723 0.02438 0.82031 0.0
C619 C 0.23445 0.0173 0.82345 0.0
C620 C 0.23411 0.01395 0.80702 0.0
C621 C 0.22109 0.02268 0.83017 0.0
C622 C 0.20682 0.0208 0.80383 0.0
C623 C 0.22066 0.01257 0.77998 0.0
O624 O 0.20643 0.98989 0.73564 0.0
O625 O 0.20876 0.01547 0.73253 0.0
O626 O 0.21628 0.0239 0.77134 0.0
O627 O 0.21479 0.99821 0.77398 0.0
H628 H 0.23623 0.00801 0.75185 0.0
H629 H 0.26478 0.0054 0.75109 0.0
H630 H 0.25656 0.9911 0.70076 0.0
H631 H 0.22794 0.99303 0.70157 0.0
H632 H 0.13179 0.99412 0.71435 0.0
H633 H 0.15982 1.00003 0.7259 0.0
H634 H 0.11617 1.00245 0.76135 0.0
H635 H 0.14372 0.0083 0.77262 0.0
H636 H 0.19685 0.02857 0.82536 0.0
H637 H 0.24532 0.01618 0.83088 0.0
H638 H 0.24465 0.01012 0.80199 0.0
H639 H 0.19609 0.02215 0.7963 0.0
C640 C 0.63082 0.70221 0.35557 0.0
C641 C 0.62013 0.68961 0.35919 0.0
C642 C 0.64015 0.6705 0.35552 0.0
C643 C 0.62472 0.6739 0.35906 0.0
C644 C 0.6507 0.68315 0.35187 0.0
C645 C 0.64607 0.6987 0.3518 0.0
U646 U 0.60468 0.73849 0.36191 0.0
O647 O 0.61298 0.76353 0.37082 0.0
O648 O 0.60173 0.75801 0.34636 0.0
C649 C 0.60809 0.76918 0.35745 0.0
C650 C 0.62674 0.71908 0.35543 0.0
C651 C 0.61671 0.78401 0.35273 0.0
C652 C 0.63889 0.79919 0.34227 0.0
C653 C 0.63151 0.78456 0.34626 0.0
C654 C 0.61681 0.81277 0.35105 0.0
C655 C 0.6317 0.8136 0.34476 0.0
C656 C 0.60951 0.79829 0.35495 0.0
C657 C 0.56243 0.72785 0.37876 0.0
C658 C 0.54293 0.74196 0.39285 0.0
C659 C 0.53721 0.71393 0.38404 0.0
C660 C 0.55187 0.71398 0.37756 0.0
C661 C 0.53255 0.72779 0.39214 0.0
C662 C 0.55775 0.74197 0.38629 0.0
C663 C 0.57847 0.72637 0.37304 0.0
O664 O 0.61524 0.72201 0.34493 0.0
O665 O 0.62661 0.72746 0.36924 0.0
O666 O 0.5912 0.7327 0.3822 0.0
O667 O 0.58002 0.72678 0.35776 0.0
H668 H 0.6083 0.69191 0.36217 0.0
H669 H 0.61633 0.66446 0.36203 0.0
H670 H 0.66258 0.68098 0.34896 0.0
H671 H 0.65452 0.70809 0.34882 0.0
H672 H 0.65037 0.79927 0.33753 0.0
H673 H 0.63738 0.77378 0.34438 0.0
H674 H 0.61065 0.82338 0.35289 0.0
H675 H 0.59807 0.79826 0.35979 0.0
H676 H 0.53987 0.75291 0.39894 0.0
H677 H 0.52956 0.70286 0.38277 0.0
H678 H 0.55515 0.70292 0.37184 0.0
H679 H 0.56565 0.75288 0.38741 0.0
C680 C 0.7288 0.23096 0.99953 0.0
C681 C 0.74311 0.24099 1.00081 0.0
C682 C 0.72842 0.26393 0.99763 0.0
C683 C 0.74294 0.25735 0.99979 0.0
C684 C 0.71409 0.25403 0.99704 0.0
C685 C 0.71425 0.23759 0.99781 0.0
U686 U 0.75584 0.20043 0.00507 0.0
O687 O 0.75636 0.17865 0.01743 0.0
O688 O 0.75987 0.17784 0.99188 0.0
C689 C 0.75888 0.16985 0.00445 0.0
C690 C 0.72953 0.2137 0.99983 0.0
C691 C 0.75049 0.15384 1.00169 0.0
C692 C 0.72658 0.13529 0.99803 0.0
C693 C 0.7338 0.151 1.00045 0.0
C694 C 0.75268 0.12546 0.99792 0.0
C695 C 0.73607 0.1225 0.99683 0.0
C696 C 0.75982 0.14102 1.00033 0.0
C697 C 0.79856 0.22073 0.01392 0.0
C698 C 0.82228 0.20764 0.02059 0.0
C699 C 0.82414 0.23623 0.01879 0.0
C700 C 0.80779 0.23536 0.01479 0.0
C701 C 0.83141 0.22243 0.02188 0.0
C702 C 0.80581 0.20678 0.01663 0.0
C703 C 0.78139 0.2206 0.01059 0.0
O704 O 0.7369 0.20719 0.98823 0.0
O705 O 0.73419 0.20928 0.01388 0.0
O706 O 0.77282 0.21605 0.02189 0.0
O707 O 0.77549 0.21472 0.9962 0.0
H708 H 0.75446 0.23613 0.00236 0.0
H709 H 0.7541 0.26482 1.00052 0.0
H710 H 0.70277 0.25896 0.996 0.0
H711 H 0.7031 0.2301 0.997 0.0
H712 H 0.71372 0.1331 0.99719 0.0
H713 H 0.72645 0.16084 1.00142 0.0
H714 H 0.76013 0.11568 0.99701 0.0
H715 H 0.77271 0.14304 1.00122 0.0
H716 H 0.8278 0.19694 0.02312 0.0
H717 H 0.83108 0.24772 0.01982 0.0
H718 H 0.80228 0.24618 0.01268 0.0
H719 H 0.79872 0.19539 0.01599 0.0
C720 C 0.20026 0.78684 0.6887 0.0
C721 C 0.19237 0.79736 0.67951 0.0
C722 C 0.21106 0.81982 0.69162 0.0
C723 C 0.19767 0.81374 0.68103 0.0
C724 C 0.21843 0.80927 0.70121 0.0
C725 C 0.21308 0.79303 0.69977 0.0
U726 U 0.1747 0.74736 0.67164 0.0
O727 O 0.18305 0.72528 0.66096 0.0
O728 O 0.17077 0.72485 0.68275 0.0
C729 C 0.17777 0.71666 0.6719 0.0
C730 C 0.19639 0.76929 0.6863 0.0
C731 C 0.18756 0.70408 0.67709 0.0
C732 C 0.212 0.69461 0.68866 0.0
C733 C 0.20293 0.70726 0.68509 0.0
C734 C 0.19033 0.67567 0.67647 0.0
C735 C 0.20585 0.6786 0.68425 0.0
C736 C 0.18135 0.68822 0.67301 0.0
C737 C 0.13546 0.74833 0.64477 0.0
C738 C 0.12133 0.72564 0.62802 0.0
C739 C 0.11248 0.752 0.62664 0.0
C740 C 0.12454 0.75819 0.63845 0.0
C741 C 0.11102 0.73578 0.62101 0.0
C742 C 0.13357 0.7319 0.63979 0.0
C743 C 0.14945 0.75582 0.65526 0.0
O744 O 0.18422 0.76321 0.69317 0.0
O745 O 0.19719 0.76254 0.67184 0.0
O746 O 0.16328 0.75473 0.64952 0.0
O747 O 0.14982 0.75354 0.67044 0.0
H748 H 0.18243 0.79286 0.67087 0.0
H749 H 0.19172 0.82151 0.67344 0.0
H750 H 0.22858 0.81355 0.70967 0.0
H751 H 0.21931 0.78517 0.70704 0.0
H752 H 0.22384 0.69735 0.69476 0.0
H753 H 0.20796 0.71945 0.68835 0.0
H754 H 0.18524 0.66364 0.6725 0.0
H755 H 0.16957 0.68549 0.66671 0.0
H756 H 0.12049 0.71311 0.62378 0.0
H757 H 0.10463 0.76002 0.62145 0.0
H758 H 0.12577 0.77086 0.64216 0.0
H759 H 0.14191 0.72409 0.64451 0.0
C760 C 0.3861 0.28976 0.99431 0.0
C761 C 0.39669 0.27801 0.99218 0.0
C762 C 0.37658 0.25783 0.99842 0.0
C763 C 0.39192 0.2621 0.99412 0.0
C764 C 0.36599 0.26963 1.00033 0.0
C765 C 0.37073 0.28547 0.99829 0.0
U766 U 0.41956 0.3213 0.992 0.0
O767 O 0.42157 0.34308 0.97962 0.0
O768 O 0.42601 0.34452 0.00573 0.0
C769 C 0.4249 0.35235 0.99301 0.0
C770 C 0.39134 0.30661 0.99346 0.0
C771 C 0.41652 0.36669 0.99453 0.0
C772 C 0.3931 0.38025 0.99965 0.0
C773 C 0.40033 0.36608 0.99713 0.0
C774 C 0.41814 0.39548 0.99668 0.0
C775 C 0.40207 0.39506 0.99971 0.0
C776 C 0.42529 0.38141 0.99412 0.0
C777 C 0.46122 0.3103 0.9917 0.0
C778 C 0.48257 0.33177 0.99615 0.0
C779 C 0.48857 0.30416 0.9947 0.0
C780 C 0.47238 0.29908 0.992 0.0
C781 C 0.49374 0.32051 0.99715 0.0
C782 C 0.46634 0.32667 0.99351 0.0
C783 C 0.44428 0.30497 0.991 0.0
O784 O 0.40036 0.31333 0.00612 0.0
O785 O 0.39671 0.31013 0.97995 0.0
O786 O 0.43561 0.30783 0.9781 0.0
O787 O 0.4379 0.3088 0.00423 0.0
H788 H 0.40871 0.2812 0.98928 0.0
H789 H 0.40031 0.25324 0.99267 0.0
H790 H 0.35403 0.2666 0.00343 0.0
H791 H 0.36247 0.29442 1.00004 0.0
H792 H 0.3807 0.37965 1.00201 0.0
H793 H 0.39344 0.35473 0.99752 0.0
H794 H 0.42524 0.40673 0.99641 0.0
H795 H 0.4378 0.38202 0.99211 0.0
H796 H 0.48636 0.34442 0.99792 0.0
H797 H 0.49706 0.29529 0.99506 0.0
H798 H 0.46856 0.28643 0.99057 0.0
H799 H 0.45776 0.33546 0.99336 0.0
C800 C 0.35559 0.6296 0.70143 0.0
C801 C 0.36382 0.62164 0.68986 0.0
C802 C 0.35515 0.63936 0.66984 0.0
C803 C 0.36356 0.62643 0.67425 0.0
C804 C 0.34672 0.647 0.68148 0.0
C805 C 0.34697 0.64221 0.69696 0.0
U806 U 0.36393 0.60396 0.73761 0.0
O807 O 0.3729 0.61275 0.76246 0.0
O808 O 0.34905 0.59997 0.75746 0.0
C809 C 0.3599 0.60721 0.7684 0.0
C810 C 0.35601 0.62565 0.71835 0.0
C811 C 0.35457 0.61621 0.78269 0.0
C812 C 0.35037 0.6407 0.79893 0.0
C813 C 0.35437 0.6329 0.78453 0.0
C814 C 0.34659 0.61531 0.80974 0.0
C815 C 0.34648 0.632 0.81183 0.0
C816 C 0.35055 0.6076 0.79545 0.0
C817 C 0.38239 0.56274 0.7269 0.0
C818 C 0.38922 0.5402 0.74157 0.0
C819 C 0.39388 0.5402 0.71381 0.0
C820 C 0.38787 0.55506 0.71337 0.0
C821 C 0.39458 0.53239 0.72784 0.0
C822 C 0.38312 0.55523 0.7411 0.0
C823 C 0.37591 0.57837 0.7252 0.0
O824 O 0.34602 0.61384 0.72156 0.0
O825 O 0.37005 0.62605 0.72643 0.0
O826 O 0.38471 0.59145 0.73121 0.0
O827 O 0.36059 0.57925 0.72612 0.0
H828 H 0.37059 0.61187 0.69293 0.0
H829 H 0.37031 0.62025 0.66578 0.0
H830 H 0.33981 0.65674 0.67866 0.0
H831 H 0.34046 0.64854 0.70558 0.0
H832 H 0.35029 0.65354 0.79994 0.0
H833 H 0.35744 0.63991 0.77495 0.0
H834 H 0.34401 0.60813 0.81934 0.0
H835 H 0.35081 0.59476 0.79451 0.0
H836 H 0.3895 0.53462 0.75261 0.0
H837 H 0.3982 0.53494 0.70309 0.0
H838 H 0.38751 0.5606 0.7023 0.0
H839 H 0.37895 0.56089 0.75173 0.0
C840 C 0.99866 0.7297 0.23257 0.0
C841 C 0.00511 0.74361 0.24217 0.0
C842 C 0.9967 0.73233 0.26573 0.0
C843 C 0.0042 0.74489 0.25863 0.0
C844 C 0.9901 0.7185 0.25615 0.0
C845 C 0.99102 0.7172 0.23965 0.0
U846 U 0.00533 0.75369 0.19967 0.0
O847 O 0.99299 0.75569 0.17611 0.0
O848 O 0.01867 0.75225 0.17839 0.0
C849 C 0.00607 0.75458 0.16893 0.0
C850 C 0.99923 0.72898 0.21517 0.0
C851 C 0.00452 0.74753 0.15234 0.0
C852 C 0.99454 0.72705 0.13096 0.0
C853 C 0.99717 0.73217 0.14732 0.0
C854 C 0.00698 0.75241 0.12486 0.0
C855 C 0.99909 0.73732 0.11956 0.0
C856 C 0.00961 0.75743 0.14103 0.0
C857 C 0.01398 0.79767 0.21829 0.0
C858 C 0.02059 0.82171 0.20562 0.0
C859 C 0.01888 0.82305 0.23418 0.0
C860 C 0.01489 0.8067 0.23303 0.0
C861 C 0.02196 0.83063 0.22057 0.0
C862 C 0.01666 0.80517 0.20448 0.0
C863 C 0.01052 0.78047 0.21814 0.0
O864 O 0.98791 0.73603 0.20774 0.0
O865 O 0.01343 0.73276 0.21058 0.0
O866 O 0.02194 0.77167 0.2144 0.0
O867 O 0.99625 0.77447 0.21197 0.0
H868 H 0.01096 0.75348 0.23694 0.0
H869 H 0.00957 0.75555 0.26584 0.0
H870 H 0.9845 0.70858 0.26143 0.0
H871 H 0.98584 0.70645 0.23248 0.0
H872 H 0.98848 0.71533 0.12723 0.0
H873 H 0.99315 0.72437 0.15594 0.0
H874 H 0.011 0.76048 0.11648 0.0
H875 H 0.01528 0.76933 0.14471 0.0
H876 H 0.02305 0.82743 0.19503 0.0
H877 H 0.01985 0.82979 0.24578 0.0
H878 H 0.01278 0.80104 0.24375 0.0
H879 H 0.01597 0.79825 0.193 0.0
C880 C 0.68896 0.20003 0.78647 0.0
C881 C 0.68059 0.1915 0.79716 0.0
C882 C 0.69209 0.21071 0.81949 0.0
C883 C 0.68223 0.19675 0.81356 0.0
C884 C 0.7008 0.2188 0.80873 0.0
C885 C 0.69926 0.2135 0.79248 0.0
U886 U 0.67205 0.1743 0.74689 0.0
O887 O 0.66204 0.18267 0.72461 0.0
O888 O 0.68368 0.17011 0.7247 0.0
C889 C 0.67321 0.17735 0.71629 0.0
C890 C 0.68661 0.19596 0.76895 0.0
C891 C 0.67907 0.18742 0.70422 0.0
C892 C 0.68666 0.21325 0.695 0.0
C893 C 0.68327 0.2039 0.70744 0.0
C894 C 0.68226 0.18967 0.67619 0.0
C895 C 0.68586 0.20628 0.67913 0.0
C896 C 0.67893 0.1804 0.68858 0.0
C897 C 0.64502 0.13506 0.74689 0.0
C898 C 0.62568 0.12253 0.72543 0.0
C899 C 0.63124 0.109 0.74904 0.0
C900 C 0.6424 0.12167 0.75528 0.0
C901 C 0.62231 0.10949 0.73428 0.0
C902 C 0.63693 0.13521 0.73168 0.0
C903 C 0.65521 0.1491 0.75484 0.0
O904 O 0.69341 0.18365 0.76303 0.0
O905 O 0.67221 0.19684 0.76207 0.0
O906 O 0.64958 0.16298 0.75361 0.0
O907 O 0.67055 0.14947 0.75323 0.0
H908 H 0.67256 0.18106 0.7928 0.0
H909 H 0.67531 0.19025 0.82148 0.0
H910 H 0.70869 0.22941 0.81287 0.0
H911 H 0.70589 0.22022 0.78449 0.0
H912 H 0.68959 0.22597 0.69774 0.0
H913 H 0.68347 0.20958 0.71945 0.0
H914 H 0.68125 0.18386 0.66418 0.0
H915 H 0.67559 0.16773 0.6858 0.0
H916 H 0.61903 0.12336 0.71405 0.0
H917 H 0.62926 0.09902 0.75604 0.0
H918 H 0.6486 0.12125 0.76697 0.0
H919 H 0.63886 0.14538 0.72492 0.0
C920 C 0.99691 0.38528 0.2905 0.0
C921 C 0.9923 0.39436 0.27807 0.0
C922 C 0.99999 0.37415 0.2587 0.0
C923 C 0.99377 0.38881 0.26227 0.0
C924 C 0.00493 0.36535 0.2713 0.0
C925 C 0.00335 0.37085 0.28705 0.0
U926 U 0.99316 0.41953 0.32084 0.0
O927 O 0.9806 0.42174 0.34244 0.0
O928 O 0.00665 0.42701 0.344 0.0
C929 C 0.9939 0.42559 0.35175 0.0
C930 C 0.99585 0.39114 0.30713 0.0
C931 C 0.99566 0.41728 0.36607 0.0
C932 C 0.99714 0.39312 0.37932 0.0
C933 C 0.99489 0.40059 0.36531 0.0
C934 C 1.00088 0.41901 0.3947 0.0
C935 C 1.00031 0.40232 0.39411 0.0
C936 C 0.99858 0.42641 0.38078 0.0
C937 C 0.99177 0.46064 0.30964 0.0
C938 C 0.99599 0.48145 0.33166 0.0
C939 C 0.99551 0.4882 0.30435 0.0
C940 C 0.99262 0.47212 0.29879 0.0
C941 C 0.99762 0.49293 0.32081 0.0
C942 C 0.99315 0.46534 0.32609 0.0
C943 C 0.99141 0.4438 0.30404 0.0
O944 O 0.00817 0.40081 0.31356 0.0
O945 O 0.98205 0.39606 0.31038 0.0
O946 O 0.97871 0.43478 0.30689 0.0
O947 O 0.00485 0.43775 0.30781 0.0
H948 H 0.98755 0.4057 0.2806 0.0
H949 H 0.9898 0.39585 0.25287 0.0
H950 H 0.01016 0.35424 0.26902 0.0
H951 H 0.00725 0.36389 0.29655 0.0
H952 H 0.99675 0.38024 0.37859 0.0
H953 H 0.99272 0.39342 0.35395 0.0
H954 H 0.00309 0.42635 0.40597 0.0
H955 H 0.99921 0.43931 0.38148 0.0
H956 H 0.99749 0.48488 0.34438 0.0
H957 H 0.99632 0.49697 0.29579 0.0
H958 H 0.99157 0.46864 0.28609 0.0
H959 H 0.99261 0.45652 0.3346 0.0
H960 H 0.27514 0.55286 0.62443 0.0
H961 H 0.30583 0.51563 0.61528 0.0
H962 H 0.29466 0.52888 0.6631 0.0
C963 C 0.28188 0.54341 0.62856 0.0
C964 C 0.28354 0.54158 0.64484 0.0
C965 C 0.28986 0.53428 0.61773 0.0
C966 C 0.29912 0.52237 0.62338 0.0
C967 C 0.30039 0.5199 0.63979 0.0
C968 C 0.29286 0.5299 0.65041 0.0
N969 N 0.31174 0.51014 0.64643 0.0
C970 C 0.31217 0.49363 0.6433 0.0
H971 H 0.34579 0.52235 0.98579 0.0
H972 H 0.30129 0.54284 0.9844 0.0
H973 H 0.33851 0.5602 0.02089 0.0
C974 C 0.33897 0.53207 0.98962 0.0
C975 C 0.34417 0.54144 0.00395 0.0
C976 C 0.32325 0.53188 0.98301 0.0
C977 C 0.31371 0.5433 0.98897 0.0
C978 C 0.31976 0.5545 1.00175 0.0
C979 C 0.33491 0.55333 0.00953 0.0
N980 N 0.30925 0.56453 0.00866 0.0
C981 C 0.3125 0.58095 0.01099 0.0
H982 H 0.6749 0.98037 0.34072 0.0
H983 H 0.70959 0.02037 0.3424 0.0
H984 H 0.71804 0.97565 0.31788 0.0
C985 C 0.68582 0.98557 0.33667 0.0
C986 C 0.69571 0.97568 0.32876 0.0
C987 C 0.69166 1.00095 0.34303 0.0
C988 C 0.70519 0.00838 0.33745 0.0
C989 C 0.71438 0.99958 0.32758 0.0
C990 C 0.71012 0.98289 0.32405 0.0
N991 N 0.72866 0.00688 0.32247 0.0
C992 C 0.73279 0.0234 0.32297 0.0
H993 H 0.74854 0.96056 0.00414 0.0
H994 H 0.72184 0.91598 0.00977 0.0
H995 H 0.7065 0.94479 0.97318 0.0
C996 C 0.73894 0.95133 1.0002 0.0
C997 C 0.72737 0.95453 0.98848 0.0
C998 C 0.73605 0.93853 0.00933 0.0
C999 C 0.72419 0.9262 0.0032 0.0
C1000 C 0.71437 0.92797 0.98916 0.0
C1001 C 0.71551 0.94251 0.98241 0.0
N1002 N 0.70205 0.91628 0.98246 0.0
C1003 C 0.70007 0.90074 0.98646 0.0
H1004 H 0.62166 0.27663 0.55226 0.0
H1005 H 0.61605 0.30285 0.51102 0.0
H1006 H 0.66278 0.29256 0.52975 0.0
C1007 C 0.6268 0.28242 0.54271 0.0
C1008 C 0.64332 0.28365 0.54226 0.0
C1009 C 0.6168 0.2892 0.53163 0.0
C1010 C 0.62356 0.29708 0.51931 0.0
C1011 C 0.64029 0.29797 0.51836 0.0
C1012 C 0.64995 0.29127 0.52997 0.0
N1013 N 0.64835 0.30723 0.50759 0.0
C1014 C 0.64363 0.30985 0.49182 0.0
H1015 H 0.01172 0.73741 0.96285 0.0
H1016 H 0.00777 0.72771 0.91179 0.0
H1017 H 0.96936 0.71182 0.93861 0.0
C1018 C 0.00488 0.7327 0.95174 0.0
C1019 C 0.98979 0.72482 0.95229 0.0
C1020 C 0.01146 0.73408 0.93724 0.0
C1021 C 1.00284 0.72682 0.9231 0.0
C1022 C 0.98755 0.71885 0.92362 0.0
C1023 C 0.98107 0.71801 0.93822 0.0
N1024 N 0.97824 0.71173 0.9097 0.0
C1025 C 0.98472 0.70495 0.89654 0.0
H1026 H 0.98736 0.34387 0.52216 0.0
H1027 H 0.98612 0.29919 0.5423 0.0
H1028 H 0.02436 0.33519 0.55739 0.0
C1029 C 0.9915 0.33692 0.53164 0.0
C1030 C 0.00667 0.34138 0.53972 0.0
C1031 C 0.98458 0.32128 0.53159 0.0
C1032 C 0.99091 0.31153 0.54261 0.0
C1033 C 0.00448 0.3172 0.55298 0.0
C1034 C 0.0125 0.33208 0.55138 0.0
N1035 N 0.01192 0.30656 0.56243 0.0
C1036 C 0.01353 0.30916 0.57887 0.0
H1037 H 0.3468 0.68099 0.97431 0.0
H1038 H 0.34082 0.7077 0.01852 0.0
H1039 H 0.31602 0.71879 0.97477 0.0
C1040 C 0.34075 0.68983 0.98093 0.0
C1041 C 0.33033 0.6988 0.97253 0.0
C1042 C 0.34489 0.69332 0.99735 0.0
C1043 C 0.33747 0.70504 0.00585 0.0
C1044 C 0.32722 0.71446 0.99788 0.0
C1045 C 0.3236 0.71129 0.98111 0.0
N1046 N 0.32161 0.72795 0.00622 0.0
C1047 C 0.32478 0.73274 0.02263 0.0
H1048 H 0.5497 0.6194 0.27187 0.0
H1049 H 0.51268 0.61717 0.30348 0.0
H1050 H 0.53003 0.66232 0.28847 0.0
C1051 C 0.54133 0.62545 0.27866 0.0
C1052 C 0.5415 0.64208 0.27925 0.0
C1053 C 0.53157 0.61645 0.28772 0.0
C1054 C 0.5201 0.62396 0.29619 0.0
C1055 C 0.51897 0.64055 0.29577 0.0
C1056 C 0.53005 0.64947 0.28767 0.0
N1057 N 0.50861 0.64927 0.30499 0.0
C1058 C 0.4931 0.64461 0.30854 0.0
H1059 H 0.96296 0.01512 0.73593 0.0
H1060 H 0.9126 0.0078 0.72207 0.0
H1061 H 0.94251 0.96979 0.71315 0.0
C1062 C 0.95249 0.00727 0.73107 0.0
C1063 C 0.95434 0.99178 0.72496 0.0
C1064 C 0.93755 0.01317 0.72988 0.0
C1065 C 0.92412 0.00314 0.72315 0.0
C1066 C 0.92588 0.98728 0.7173 0.0
C1067 C 0.94102 0.98169 0.71832 0.0
N1068 N 0.9129 0.97692 0.70957 0.0
C1069 C 0.89872 0.98213 0.70348 0.0
H1070 H 0.52201 0.98795 0.34663 0.0
H1071 H 0.54168 0.98222 0.30176 0.0
H1072 H 0.55999 0.02118 0.33605 0.0
C1073 C 0.53142 0.99105 0.33919 0.0
C1074 C 0.54103 0.00546 0.3432 0.0
C1075 C 0.53055 0.98346 0.32373 0.0
C1076 C 0.54223 0.98786 0.31383 0.0
C1077 C 0.55376 1.00062 0.31885 0.0
C1078 C 0.55285 0.00983 0.33337 0.0
N1079 N 0.56426 0.00559 0.30784 0.0
C1080 C 0.58003 0.0112 0.31216 0.0
H1081 H 0.97605 0.35368 0.68974 0.0
H1082 H 0.02048 0.34405 0.71299 0.0
H1083 H 0.97865 0.31087 0.71362 0.0
C1084 C 0.98275 0.34562 0.69634 0.0
C1085 C 0.97506 0.33146 0.70044 0.0
C1086 C 0.99891 0.34993 0.70076 0.0
C1087 C 0.00795 0.34034 0.7097 0.0
C1088 C 1.00086 0.32618 0.71444 0.0
C1089 C 0.9842 0.32187 0.71009 0.0
N1090 N 0.01029 0.31621 0.72341 0.0
C1091 C 0.02689 0.31887 0.72753 0.0
H1092 H 0.72744 0.45084 0.38337 0.0
H1093 H 0.70816 0.4963 0.38914 0.0
H1094 H 0.72007 0.47745 0.34298 0.0
C1095 C 0.7234 0.46127 0.37824 0.0
C1096 C 0.72416 0.46247 0.36196 0.0
C1097 C 0.71782 0.47326 0.38819 0.0
C1098 C 0.71252 0.48697 0.38157 0.0
C1099 C 0.71343 0.48856 0.36509 0.0
C1100 C 0.71939 0.47628 0.35556 0.0
N1101 N 0.709 0.50213 0.3573 0.0
C1102 C 0.70169 0.51555 0.36283 0.0
H1103 H 0.68158 0.48969 1.00186 0.0
H1104 H 0.68979 0.4529 0.03233 0.0
H1105 H 0.6572 0.44283 0.99006 0.0
C1106 C 0.68022 0.47713 0.00375 0.0
C1107 C 0.6689 0.46676 0.99394 0.0
C1108 C 0.6875 0.4724 0.01774 0.0
C1109 C 0.68476 0.45652 0.02115 0.0
C1110 C 0.67468 0.44551 0.01053 0.0
C1111 C 0.66642 0.45078 0.99713 0.0
N1112 N 0.67042 0.43015 0.01508 0.0
C1113 C 0.67579 0.41645 0.00797 0.0
H1114 H 0.3255 0.03103 0.65668 0.0
H1115 H 0.29615 0.98816 0.66107 0.0
H1116 H 0.29818 0.02801 0.69697 0.0
C1117 C 0.31795 0.02413 0.66383 0.0
C1118 C 0.31337 0.03135 0.67796 0.0
C1119 C 0.31122 0.00897 0.65753 0.0
C1120 C 0.30134 0.99984 0.66624 0.0
C1121 C 0.29672 0.00645 0.68066 0.0
C1122 C 0.30238 0.02248 0.6863 0.0
N1123 N 0.28551 0.99762 0.68893 0.0
C1124 C 0.28021 0.98138 0.68532 0.0
H1125 H 0.27437 0.04241 0.98776 0.0
H1126 H 0.27943 0.09325 0.9978 0.0
H1127 H 0.2915 0.06331 0.0349 0.0
C1128 C 0.27746 0.05285 0.99622 0.0
C1129 C 0.28262 0.05095 0.01201 0.0
C1130 C 0.27546 0.0679 0.99121 0.0
C1131 C 0.28074 0.08152 1.00165 0.0
C1132 C 0.28693 0.0798 0.0174 0.0
C1133 C 0.28741 0.06453 0.02261 0.0
N1134 N 0.29221 0.09317 0.02844 0.0
C1135 C 0.29882 0.10746 0.0239 0.0
H1136 H 0.37946 0.72585 0.4481 0.0
H1137 H 0.38975 0.70859 0.49412 0.0
H1138 H 0.34268 0.7214 0.47944 0.0
C1139 C 0.3756 0.72245 0.45934 0.0
C1140 C 0.35989 0.72404 0.46243 0.0
C1141 C 0.38661 0.71719 0.47062 0.0
C1142 C 0.38139 0.7126 0.48526 0.0
C1143 C 0.36529 0.71399 0.48844 0.0
C1144 C 0.35486 0.71993 0.47697 0.0
N1145 N 0.35875 0.71049 0.50294 0.0
C1146 C 0.36476 0.70306 0.51605 0.0
H1147 H 0.98918 0.26993 0.04245 0.0
H1148 H 0.9991 0.27916 0.09307 0.0
H1149 H 0.03532 0.29163 0.06227 0.0
C1150 C 0.99756 0.27421 0.05269 0.0
C1151 C 0.0129 0.28061 0.05043 0.0
C1152 C 0.99269 0.27329 0.06793 0.0
C1153 C 1.00295 0.27977 0.08125 0.0
C1154 C 0.01841 0.28647 0.07917 0.0
C1155 C 0.02337 0.28666 0.06378 0.0
N1156 N 0.02929 0.29291 0.0923 0.0
C1157 C 0.02438 0.29908 0.1066 0.0
H1158 H 0.99444 0.6806 0.48677 0.0
H1159 H 0.03231 0.69067 0.45744 0.0
H1160 H 0.99226 0.65769 0.43928 0.0
C1161 C 0.99911 0.67962 0.47522 0.0
C1162 C 0.99188 0.66787 0.46351 0.0
C1163 C 0.0145 0.6866 0.47388 0.0
C1164 C 0.02049 0.6853 0.45891 0.0
C1165 C 0.01159 0.67611 0.44596 0.0
C1166 C 0.9976 0.66682 0.44845 0.0
N1167 N 0.01804 0.67441 0.43114 0.0
C1168 C 0.00962 0.67796 0.41731 0.0
H1169 H 0.65297 0.31948 0.03104 0.0
H1170 H 0.6623 0.29403 0.98759 0.0
H1171 H 0.69898 0.3021 0.02717 0.0
C1172 C 0.66144 0.31362 0.02422 0.0
C1173 C 0.67687 0.3124 0.03114 0.0
C1174 C 0.6564 0.30713 0.00872 0.0
C1175 C 0.66657 0.29904 0.99958 0.0
C1176 C 0.68195 0.29699 0.00613 0.0
C1177 C 0.68711 0.30363 0.02204 0.0
N1178 N 0.69221 0.28812 0.99706 0.0
C1179 C 0.68893 0.28182 0.98105 0.0
H1180 H 0.44894 0.38087 0.72256 0.0
H1181 H 0.49634 0.38933 0.70795 0.0
H1182 H 0.47982 0.34335 0.72207 0.0
C1183 C 0.46025 0.37654 0.71998 0.0
C1184 C 0.4629 0.36091 0.7226 0.0
C1185 C 0.47214 0.38697 0.71491 0.0
C1186 C 0.48699 0.38131 0.71167 0.0
C1187 C 0.48972 0.3653 0.71399 0.0
C1188 C 0.47766 0.35542 0.71977 0.0
N1189 N 0.50455 0.35869 0.71212 0.0
C1190 C 0.51695 0.36309 0.70294 0.0
H1191 H 0.04276 0.99248 0.26927 0.0
H1192 H 0.09362 0.99719 0.27943 0.0
H1193 H 0.06681 0.03764 0.28874 0.0
C1194 C 0.05375 0.9998 0.27351 0.0
C1195 C 0.05318 0.01579 0.27884 0.0
C1196 C 0.06822 0.99308 0.27342 0.0
C1197 C 0.08236 1.00236 0.27953 0.0
C1198 C 0.08183 0.01857 0.28505 0.0
C1199 C 0.06721 0.02519 0.28461 0.0
N1200 N 0.09575 0.02867 0.29071 0.0
C1201 C 0.10963 0.02303 0.29687 0.0
H1202 H 0.48954 0.9996 0.67639 0.0
H1203 H 0.45569 0.03128 0.69099 0.0
H1204 H 0.44096 0.99199 0.65561 0.0
C1205 C 0.47719 1.00218 0.67649 0.0
C1206 C 0.4656 0.99376 0.6653 0.0
C1207 C 0.47391 0.01599 0.68534 0.0
C1208 C 0.45824 0.02022 0.68468 0.0
C1209 C 0.44605 0.01088 0.67479 0.0
C1210 C 0.44984 0.99786 0.66475 0.0
N1211 N 0.43098 0.0168 0.67256 0.0
C1212 C 0.41683 0.00851 0.67558 0.0
H1213 H 0.03407 0.64858 0.31121 0.0
H1214 H 0.98803 0.66125 0.29442 0.0
H1215 H 0.02855 0.69685 0.30168 0.0
C1216 C 0.02671 0.65758 0.30711 0.0
C1217 C 0.03342 0.67327 0.30722 0.0
C1218 C 0.01053 0.65332 0.30249 0.0
C1219 C 1.00059 0.66475 0.29777 0.0
C1220 C 0.00692 0.68057 0.29735 0.0
C1221 C 0.0234 0.6848 0.30221 0.0
N1222 N 0.99707 0.69236 0.29216 0.0
C1223 C 0.981 0.68981 0.28602 0.0
H1224 H 0.18209 0.69261 0.37321 0.0
H1225 H 0.15499 0.6971 0.36252 0.0
H1226 H 0.14511 0.64679 0.34809 0.0
H1227 H 0.17179 0.64227 0.35941 0.0
H1228 H 0.13801 0.69319 0.33439 0.0
H1229 H 0.10788 0.65279 0.37255 0.0
H1230 H 0.12902 0.65856 0.37556 0.0
H1231 H 0.12108 0.6425 0.36079 0.0
C1232 C 0.17414 0.68255 0.36766 0.0
C1233 C 0.1791 0.66706 0.36724 0.0
C1234 C 0.15858 0.6851 0.36157 0.0
C1235 C 0.14761 0.67225 0.35483 0.0
C1236 C 0.15294 0.6569 0.35372 0.0
H1237 H 0.05815 0.65767 0.29732 0.0
H1238 H 0.08551 0.65936 0.3098 0.0
C1239 C 0.16832 0.65432 0.36004 0.0
C1240 C 0.1307 0.67475 0.34896 0.0
H1241 H 0.09167 0.66028 0.35022 0.0
C1242 C 0.12792 0.68611 0.33805 0.0
C1243 C 0.11726 0.66578 0.35381 0.0
C1244 C 0.11893 0.65436 0.36645 0.0
C1245 C 0.11236 0.68809 0.33138 0.0
C1246 C 0.09914 0.67851 0.33559 0.0
C1247 C 0.10179 0.66758 0.34688 0.0
C1248 C 0.08269 0.6787 0.32744 0.0
C1249 C 0.11005 0.70015 0.31951 0.0
C1250 C 0.07194 0.68927 0.33295 0.0
C1251 C 0.05614 0.68838 0.32572 0.0
C1252 C 0.0508 0.67685 0.31289 0.0
C1253 C 0.06184 0.66674 0.30711 0.0
C1254 C 0.07751 0.66763 0.31429 0.0
H1255 H 0.12143 0.70698 0.31761 0.0
H1256 H 0.10462 0.694 0.30793 0.0
H1257 H 0.10166 0.70863 0.32373 0.0
H1258 H 0.07562 0.6979 0.34311 0.0
H1259 H 0.04791 0.69613 0.33067 0.0
H1260 H 0.32684 0.31759 0.77025 0.0
H1261 H 0.34969 0.31883 0.75441 0.0
H1262 H 0.38151 0.3191 0.79714 0.0
H1263 H 0.35883 0.31677 0.8128 0.0
H1264 H 0.37149 0.34283 0.75618 0.0
H1265 H 0.40312 0.29027 0.76872 0.0
H1266 H 0.38308 0.29218 0.77385 0.0
H1267 H 0.39993 0.30162 0.78684 0.0
C1268 C 0.33865 0.31736 0.77622 0.0
C1269 C 0.34092 0.31731 0.79289 0.0
C1270 C 0.35176 0.31821 0.76714 0.0
C1271 C 0.36743 0.31898 0.77449 0.0
C1272 C 0.36963 0.31818 0.79102 0.0
H1273 H 0.4614 0.35418 0.75331 0.0
H1274 H 0.43809 0.34234 0.76502 0.0
C1275 C 0.35658 0.31713 0.80005 0.0
C1276 C 0.38143 0.32249 0.76531 0.0
H1277 H 0.41876 0.31204 0.75908 0.0
C1278 C 0.38168 0.33589 0.7566 0.0
C1279 C 0.39488 0.31357 0.7659 0.0
C1280 C 0.39517 0.29852 0.77421 0.0
C1281 C 0.39509 0.34094 0.749 0.0
C1282 C 0.40866 0.33226 0.74993 0.0
C1283 C 0.40838 0.31871 0.7584 0.0
C1284 C 0.42338 0.33748 0.74258 0.0
C1285 C 0.39486 0.35593 0.74056 0.0
C1286 C 0.42306 0.3382 0.72604 0.0
C1287 C 0.43632 0.34499 0.71938 0.0
C1288 C 0.45024 0.3509 0.72912 0.0
C1289 C 0.45089 0.34943 0.74555 0.0
C1290 C 0.43757 0.34274 0.75223 0.0
H1291 H 0.3849 0.36296 0.74371 0.0
H1292 H 0.40626 0.3636 0.74352 0.0
H1293 H 0.39337 0.35267 0.7275 0.0
H1294 H 0.41235 0.334 0.71832 0.0
H1295 H 0.43552 0.34616 0.7067 0.0
H1296 H 0.58737 0.02525 0.60309 0.0
H1297 H 0.56085 0.02237 0.61256 0.0
H1298 H 0.57301 0.9807 0.6351 0.0
H1299 H 0.59943 0.98336 0.62551 0.0
H1300 H 0.54034 0.99421 0.60257 0.0
H1301 H 0.54929 0.00577 0.66844 0.0
H1302 H 0.56368 0.01298 0.65556 0.0
H1303 H 0.56263 0.9926 0.66011 0.0
C1304 C 0.58446 0.01563 0.61029 0.0
C1305 C 0.59536 0.00438 0.61337 0.0
C1306 C 0.56936 0.01404 0.61573 0.0
C1307 C 0.56501 1.00131 0.62447 0.0
C1308 C 0.57624 0.99072 0.62852 0.0
H1309 H 0.48108 0.96672 0.66427 0.0
H1310 H 0.505 0.9656 0.6502 0.0
C1311 C 0.59134 0.99227 0.62305 0.0
C1312 C 0.54824 0.99787 0.62763 0.0
H1313 H 0.52426 0.99274 0.65737 0.0
C1314 C 0.53675 0.99392 0.61455 0.0
C1315 C 0.54369 0.99759 0.64324 0.0
C1316 C 0.55542 1.0026 0.65767 0.0
C1317 C 0.52083 0.98917 0.61666 0.0
C1318 C 0.51632 0.98848 0.63228 0.0
C1319 C 0.5278 0.9928 0.64536 0.0
C1320 C 0.4996 0.98459 0.63565 0.0
C1321 C 0.50913 0.98472 0.60213 0.0
C1322 C 0.48785 0.99438 0.63088 0.0
C1323 C 0.47388 0.99455 0.6385 0.0
C1324 C 0.47192 0.98551 0.65147 0.0
C1325 C 0.48229 0.97376 0.65428 0.0
C1326 C 0.49615 0.97338 0.64647 0.0
H1327 H 0.51523 0.98072 0.5916 0.0
H1328 H 0.49994 0.97513 0.60421 0.0
H1329 H 0.50305 0.99535 0.59923 0.0
H1330 H 0.49024 0.00325 0.62272 0.0
H1331 H 0.46612 0.00379 0.63616 0.0
H1332 H 0.9065 0.99355 0.24985 0.0
H1333 H 0.93563 0.99559 0.25395 0.0
H1334 H 0.93469 0.02674 0.29692 0.0
H1335 H 0.90565 0.02532 0.29269 0.0
H1336 H 0.95272 0.03165 0.25949 0.0
H1337 H 0.96764 0.98882 0.3037 0.0
H1338 H 0.94992 0.98544 0.28982 0.0
H1339 H 0.95097 1.00042 0.3063 0.0
C1340 C 0.91249 1.00078 0.26022 0.0
C1341 C 0.90383 0.00947 0.27083 0.0
C1342 C 0.92906 1.00177 0.2626 0.0
C1343 C 0.93709 0.01126 0.27574 0.0
C1344 C 0.92852 0.01925 0.28682 0.0
H1345 H 0.03864 0.02878 0.30362 0.0
H1346 H 0.00989 0.03116 0.30349 0.0
C1347 C 0.91197 0.01838 0.28438 0.0
C1348 C 0.95443 0.01455 0.27679 0.0
H1349 H 0.98899 0.00503 0.2956 0.0
C1350 C 0.96072 0.02591 0.2674 0.0
C1351 C 0.96457 0.00707 0.28724 0.0
C1352 C 0.95805 0.99469 0.29735 0.0
C1353 C 0.97714 0.03006 0.26818 0.0
C1354 C 0.98741 0.02235 0.2784 0.0
C1355 C 0.98103 0.01108 0.28794 0.0
C1356 C 0.00483 0.02447 0.27813 0.0
C1357 C 0.98326 0.04267 0.25809 0.0
C1358 C 0.01142 0.02058 0.26385 0.0
C1359 C 0.0277 0.01958 0.26388 0.0
C1360 C 0.03756 0.02206 0.27825 0.0
C1361 C 0.03121 0.02706 0.2924 0.0
C1362 C 0.01485 0.02823 0.29234 0.0
H1363 H 0.97422 0.05113 0.25565 0.0
H1364 H 0.99436 0.04951 0.26389 0.0
H1365 H 0.98583 0.03685 0.24644 0.0
H1366 H 0.00388 0.01721 0.25285 0.0
H1367 H 0.03243 0.01554 0.25288 0.0
H1368 H 0.34442 0.18397 0.66454 0.0
H1369 H 0.3326 0.15762 0.66988 0.0
H1370 H 0.37894 0.14009 0.67117 0.0
H1371 H 0.39086 0.16631 0.66662 0.0
H1372 H 0.3312 0.12809 0.65319 0.0
H1373 H 0.36477 0.12542 0.71179 0.0
H1374 H 0.36441 0.14364 0.70224 0.0
H1375 H 0.37764 0.12903 0.6965 0.0
C1376 C 0.35217 0.17461 0.66623 0.0
C1377 C 0.36871 0.17753 0.66508 0.0
C1378 C 0.34534 0.15943 0.66916 0.0
C1379 C 0.35483 0.14672 0.67122 0.0
C1380 C 0.37128 0.14961 0.67002 0.0
H1381 H 0.34394 0.04529 0.68184 0.0
H1382 H 0.35288 0.07346 0.68086 0.0
C1383 C 0.37809 0.16472 0.66715 0.0
C1384 C 0.34766 0.13041 0.67431 0.0
H1385 H 0.35139 0.10091 0.69936 0.0
C1386 C 0.33549 0.12226 0.66341 0.0
C1387 C 0.35319 0.12255 0.68759 0.0
C1388 C 0.36561 0.13067 0.70028 0.0
C1389 C 0.3292 0.10648 0.66509 0.0
C1390 C 0.33491 0.09858 0.67827 0.0
C1391 C 0.3469 0.10682 0.68927 0.0
C1392 C 0.32929 0.08154 0.68043 0.0
C1393 C 0.31698 0.09816 0.65231 0.0
C1394 C 0.31307 0.07652 0.6813 0.0
C1395 C 0.30793 0.0603 0.68204 0.0
C1396 C 0.31889 0.0487 0.682 0.0
C1397 C 0.33519 0.0539 0.68209 0.0
C1398 C 0.34031 0.07005 0.68138 0.0
H1399 H 0.31673 0.10426 0.64121 0.0
H1400 H 0.31941 0.08559 0.64941 0.0
H1401 H 0.30498 0.09812 0.65664 0.0
H1402 H 0.30429 0.08508 0.681 0.0
H1403 H 0.29529 0.05671 0.68165 0.0
H1404 H 0.2886 0.9008 0.03321 0.0
H1405 H 0.29514 0.92986 0.03638 0.0
H1406 H 0.26967 0.93338 0.99066 0.0
H1407 H 0.26328 0.90446 0.98728 0.0
H1408 H 0.30718 0.95458 0.00954 0.0
H1409 H 0.24702 0.95629 0.03138 0.0
H1410 H 0.25813 0.93908 0.03284 0.0
H1411 H 0.24928 0.94333 0.01385 0.0
C1412 C 0.28487 0.90772 0.02362 0.0
C1413 C 0.27524 0.90043 0.01011 0.0
C1414 C 0.28856 0.92427 0.02547 0.0
C1415 C 0.28274 0.93363 0.01381 0.0
C1416 C 0.27422 0.92628 0.99977 0.0
H1417 H 0.25929 0.02684 0.0038 0.0
H1418 H 0.26084 0.99877 0.00647 0.0
C1419 C 0.27053 0.9098 0.99791 0.0
C1420 C 0.28364 0.9511 0.01707 0.0
H1421 H 0.26121 0.98081 0.02858 0.0
C1422 C 0.29727 0.96043 0.01387 0.0
C1423 C 0.27053 0.95849 0.02249 0.0
C1424 C 0.25538 0.94886 0.02542 0.0
C1425 C 0.29789 0.97716 0.01538 0.0
C1426 C 0.28475 0.98462 0.02088 0.0
C1427 C 0.27136 0.97514 0.02458 0.0
C1428 C 0.28361 1.00201 0.02082 0.0
C1429 C 0.31218 0.98655 0.01013 0.0
C1430 C 0.29559 0.01338 0.02851 0.0
C1431 C 0.29502 0.02958 0.02644 0.0
C1432 C 0.28227 0.03457 0.01696 0.0
C1433 C 0.26958 0.0233 0.01069 0.0
C1434 C 0.27037 0.00722 0.01235 0.0
H1435 H 0.31929 0.9789 0.00274 0.0
H1436 H 0.30849 0.99634 0.00314 0.0
H1437 H 0.32006 0.99186 0.02079 0.0
H1438 H 0.3056 0.0097 0.03567 0.0
H1439 H 0.30487 0.03803 0.03159 0.0
H1440 H 0.78065 0.33238 0.33806 0.0
H1441 H 0.76668 0.35655 0.3411 0.0
H1442 H 0.78545 0.37246 0.29887 0.0
H1443 H 0.79974 0.34835 0.29601 0.0
H1444 H 0.78458 0.38874 0.34396 0.0
H1445 H 0.7359 0.37922 0.29437 0.0
H1446 H 0.74522 0.3628 0.30232 0.0
H1447 H 0.75575 0.37539 0.28998 0.0
C1448 C 0.78145 0.34085 0.32921 0.0
C1449 C 0.79111 0.33846 0.31672 0.0
C1450 C 0.77355 0.35469 0.33099 0.0
C1451 C 0.77495 0.36629 0.32018 0.0
C1452 C 0.78408 0.36362 0.30728 0.0
H1453 H 0.74625 0.46412 0.33985 0.0
H1454 H 0.75907 0.4418 0.32727 0.0
C1455 C 0.79221 0.34986 0.30564 0.0
C1456 C 0.76794 0.3817 0.32332 0.0
H1457 H 0.73722 0.40305 0.3114 0.0
C1458 C 0.77435 0.39197 0.33672 0.0
C1459 C 0.75464 0.38592 0.31383 0.0
C1460 C 0.74734 0.37529 0.29933 0.0
C1461 C 0.76757 0.40611 0.34112 0.0
C1462 C 0.75393 0.41006 0.33198 0.0
C1463 C 0.74774 0.40004 0.31832 0.0
C1464 C 0.74502 0.42352 0.33765 0.0
C1465 C 0.77463 0.4165 0.35588 0.0
C1466 C 0.73265 0.4206 0.34728 0.0
C1467 C 0.72534 0.43323 0.3544 0.0
C1468 C 0.73025 0.44915 0.35213 0.0
C1469 C 0.74212 0.45202 0.34178 0.0
C1470 C 0.7495 0.4393 0.33465 0.0
H1471 H 0.78585 0.41234 0.36113 0.0
H1472 H 0.77712 0.42898 0.35302 0.0
H1473 H 0.7659 0.41653 0.36494 0.0
H1474 H 0.72902 0.40854 0.34976 0.0
H1475 H 0.71611 0.43055 0.36213 0.0
H1476 H 0.62888 0.6026 0.98603 0.0
H1477 H 0.63951 0.57663 0.98257 0.0
H1478 H 0.60886 0.55857 0.01626 0.0
H1479 H 0.59844 0.58458 0.02014 0.0
H1480 H 0.65131 0.55345 0.0092 0.0
H1481 H 0.59664 0.53368 0.96807 0.0
H1482 H 0.60436 0.55441 0.97172 0.0
H1483 H 0.59472 0.54484 0.98684 0.0
C1484 C 0.62476 0.59327 0.99308 0.0
C1485 C 0.61261 0.59553 0.00315 0.0
C1486 C 0.63078 0.57844 0.99102 0.0
C1487 C 0.62472 0.56574 0.99897 0.0
C1488 C 0.6135 0.56826 0.00991 0.0
H1489 H 0.63781 0.46717 0.99854 0.0
H1490 H 0.62452 0.49147 0.99664 0.0
C1491 C 0.60753 0.58307 0.01204 0.0
C1492 C 0.62892 0.54949 0.99467 0.0
H1493 H 0.615 0.51467 0.9723 0.0
C1494 C 0.64347 0.54497 1.00107 0.0
C1495 C 0.61848 0.53852 0.98423 0.0
C1496 C 0.60267 0.54301 0.97721 0.0
C1497 C 0.64785 0.52958 0.9973 0.0
C1498 C 0.63755 0.5187 0.98653 0.0
C1499 C 0.62293 0.52319 0.98029 0.0
C1500 C 0.64168 0.50236 0.98244 0.0
C1501 C 0.66325 0.52489 0.00518 0.0
C1502 C 0.65467 0.49988 0.97363 0.0
C1503 C 0.66215 0.48587 0.97448 0.0
C1504 C 0.65685 0.47447 0.98445 0.0
C1505 C 0.64214 0.47576 0.99077 0.0
C1506 C 0.63466 0.48977 0.98992 0.0
H1507 H 0.66858 0.53387 0.015 0.0
H1508 H 0.66122 0.51319 0.01006 0.0
H1509 H 0.67198 0.52365 0.99621 0.0
H1510 H 0.66008 0.50946 0.96762 0.0
H1511 H 0.67346 0.48513 0.96951 0.0
H1512 H 0.64663 0.37966 0.16375 0.0
H1513 H 0.65227 0.36843 0.13754 0.0
H1514 H 0.68966 0.34381 0.15925 0.0
H1515 H 0.68444 0.35542 0.1857 0.0
H1516 H 0.68257 0.37244 0.12385 0.0
H1517 H 0.66282 0.30859 0.12762 0.0
H1518 H 0.6565 0.32438 0.14071 0.0
H1519 H 0.67631 0.31849 0.1438 0.0
C1520 C 0.65619 0.37198 0.1631 0.0
C1521 C 0.66518 0.36874 0.17712 0.0
C1522 C 0.65931 0.36543 0.14797 0.0
C1523 C 0.67137 0.35517 0.14625 0.0
C1524 C 0.68015 0.35152 0.16016 0.0
H1525 H 0.69301 0.30091 0.05727 0.0
H1526 H 0.69442 0.31194 0.08533 0.0
C1527 C 0.67711 0.35819 0.17537 0.0
C1528 C 0.67507 0.34898 0.12986 0.0
H1529 H 0.67332 0.31518 0.10402 0.0
C1530 C 0.68063 0.35989 0.11955 0.0
C1531 C 0.67275 0.3326 0.12417 0.0
C1532 C 0.66667 0.32027 0.13455 0.0
C1533 C 0.68396 0.35499 0.10389 0.0
C1534 C 0.68099 0.33863 0.09786 0.0
C1535 C 0.67568 0.32768 0.10835 0.0
C1536 C 0.68224 0.3328 0.08059 0.0
C1537 C 0.691 0.36755 0.09425 0.0
C1538 C 0.67545 0.34086 0.06825 0.0
C1539 C 0.67536 0.33497 0.05226 0.0
C1540 C 0.68117 0.32022 0.04787 0.0
C1541 C 0.68849 0.3123 0.06008 0.0
C1542 C 0.68906 0.31854 0.07622 0.0
H1543 H 0.69846 0.37711 0.10208 0.0
H1544 H 0.69847 0.36247 0.0853 0.0
H1545 H 0.68123 0.37328 0.08806 0.0
H1546 H 0.66952 0.35146 0.07089 0.0
H1547 H 0.66983 0.34163 0.04328 0.0
H1548 H 0.03244 0.29075 0.90028 0.0
H1549 H 0.0349 0.29726 0.92935 0.0
H1550 H 0.99244 0.26609 0.93252 0.0
H1551 H 0.9898 0.25968 0.90363 0.0
H1552 H 0.00525 0.30472 0.95367 0.0
H1553 H 0.03745 0.25009 0.95616 0.0
H1554 H 0.03765 0.26167 0.93921 0.0
H1555 H 0.01989 0.2497 0.94242 0.0
C1556 C 0.02339 0.28569 0.90714 0.0
C1557 C 0.01107 0.27455 0.89977 0.0
C1558 C 0.02482 0.28938 0.9237 0.0
C1559 C 0.0139 0.28204 0.93296 0.0
C1560 C 1.00097 0.27184 0.92551 0.0
H1561 H 0.00666 0.25693 0.02628 0.0
H1562 H 0.00868 0.25903 0.99811 0.0
C1563 C 0.99954 0.26814 0.90904 0.0
C1564 C 0.01697 0.28329 0.95045 0.0
H1565 H 0.03184 0.26291 0.98047 0.0
C1566 C 0.01126 0.29577 0.95963 0.0
C1567 C 0.02456 0.27138 0.95801 0.0
C1568 C 0.03032 0.25742 0.94853 0.0
C1569 C 0.01248 0.29635 0.97634 0.0
C1570 C 0.02012 0.28439 0.98395 0.0
C1571 C 0.0262 0.27218 0.97466 0.0
C1572 C 0.02026 0.28313 1.00131 0.0
C1573 C 0.00478 0.30919 0.98558 0.0
C1574 C 0.02662 0.29576 0.01262 0.0
C1575 C 0.02508 0.29473 0.02884 0.0
C1576 C 0.0174 0.28094 0.03393 0.0
C1577 C 0.01227 0.26787 0.02268 0.0
C1578 C 0.01352 0.26902 0.00656 0.0
H1579 H 0.99635 0.3151 0.97777 0.0
H1580 H 0.99822 0.30421 0.9951 0.0
H1581 H 0.01414 0.31845 0.99127 0.0
H1582 H 0.03236 0.30656 0.00887 0.0
H1583 H 0.02921 0.30496 0.03727 0.0
H1584 H 0.31791 0.81453 0.35798 0.0
H1585 H 0.32033 0.79929 0.38101 0.0
H1586 H 0.31716 0.75573 0.34987 0.0
H1587 H 0.31601 0.77103 0.32667 0.0
H1588 H 0.30423 0.777 0.3939 0.0
H1589 H 0.35868 0.7523 0.37436 0.0
H1590 H 0.3493 0.7674 0.36427 0.0
H1591 H 0.34158 0.74675 0.3603 0.0
C1592 C 0.31788 0.80171 0.35595 0.0
C1593 C 0.31731 0.79413 0.34035 0.0
C1594 C 0.31909 0.79296 0.36921 0.0
C1595 C 0.31953 0.77636 0.36728 0.0
C1596 C 0.31748 0.76858 0.35174 0.0
H1597 H 0.34361 0.70858 0.43558 0.0
H1598 H 0.33109 0.72076 0.41296 0.0
C1599 C 0.31655 0.77737 0.33842 0.0
C1600 C 0.32304 0.76747 0.38151 0.0
H1601 H 0.34899 0.74295 0.39741 0.0
C1602 C 0.31399 0.76952 0.39462 0.0
C1603 C 0.33593 0.75784 0.38267 0.0
C1604 C 0.34703 0.75606 0.36973 0.0
C1605 C 0.31742 0.76217 0.40868 0.0
C1606 C 0.33017 0.75243 0.40967 0.0
C1607 C 0.33907 0.75024 0.39656 0.0
C1608 C 0.3351 0.74489 0.42436 0.0
C1609 C 0.30735 0.76482 0.42234 0.0
C1610 C 0.3412 0.75433 0.43844 0.0
C1611 C 0.34822 0.74734 0.45139 0.0
C1612 C 0.34929 0.73082 0.45046 0.0
C1613 C 0.34265 0.7213 0.43665 0.0
C1614 C 0.33558 0.72827 0.42373 0.0
H1615 H 0.29588 0.76942 0.41846 0.0
H1616 H 0.30483 0.7536 0.42794 0.0
H1617 H 0.31393 0.77374 0.43153 0.0
H1618 H 0.34136 0.76719 0.43909 0.0
H1619 H 0.35364 0.75493 0.46178 0.0
H1620 H 0.97762 0.61928 0.59558 0.0
H1621 H 0.97412 0.62821 0.56888 0.0
H1622 H 0.0232 0.62154 0.56245 0.0
H1623 H 0.02665 0.61222 0.58909 0.0
H1624 H 0.99072 0.65269 0.55373 0.0
H1625 H 0.99808 0.59192 0.52596 0.0
H1626 H 0.99493 0.59563 0.54674 0.0
H1627 H 0.01398 0.60129 0.54004 0.0
C1628 C 0.98774 0.62006 0.58858 0.0
C1629 C 1.00236 0.615 0.59425 0.0
C1630 C 0.98572 0.62507 0.57335 0.0
C1631 C 0.9983 0.62515 0.56363 0.0
C1632 C 0.01325 0.62114 0.56967 0.0
H1633 H 0.00605 0.6412 0.46658 0.0
H1634 H 0.00598 0.6289 0.49129 0.0
C1635 C 0.01523 0.61595 0.58486 0.0
C1636 C 0.99538 0.62861 0.5469 0.0
H1637 H 0.99233 0.61134 0.50869 0.0
C1638 C 0.99106 0.64371 0.54382 0.0
C1639 C 0.99605 0.61684 0.53411 0.0
C1640 C 1.00091 0.60046 0.53679 0.0
C1641 C 0.98762 0.64753 0.52819 0.0
C1642 C 0.98758 0.63554 0.51531 0.0
C1643 C 0.99198 0.62041 0.5185 0.0
C1644 C 0.98466 0.63892 0.49841 0.0
C1645 C 0.98479 0.66459 0.52578 0.0
C1646 C 0.97173 0.64715 0.49322 0.0
C1647 C 0.97204 0.65468 0.47916 0.0
C1648 C 0.98501 0.65349 0.46998 0.0
C1649 C 0.99589 0.64234 0.47344 0.0
C1650 C 0.99602 0.63548 0.4878 0.0
H1651 H 0.9898 0.67291 0.53627 0.0
H1652 H 0.99024 0.66851 0.51515 0.0
H1653 H 0.97179 0.66563 0.52417 0.0
H1654 H 0.96229 0.64916 0.50078 0.0
H1655 H 0.96345 0.66314 0.4767 0.0
H1656 H 0.84391 0.3617 0.6297 0.0
H1657 H 0.8698 0.35599 0.64182 0.0
H1658 H 0.84706 0.31736 0.66405 0.0
H1659 H 0.82101 0.3228 0.65163 0.0
H1660 H 0.88138 0.35688 0.67293 0.0
H1661 H 0.88278 0.29561 0.64416 0.0
H1662 H 0.86881 0.309 0.63718 0.0
H1663 H 0.8653 0.29847 0.65427 0.0
C1664 C 0.84431 0.35184 0.637 0.0
C1665 C 0.83012 0.34269 0.63949 0.0
C1666 C 0.85925 0.34863 0.64406 0.0
C1667 C 0.86066 0.33606 0.65378 0.0
C1668 C 0.84653 0.32695 0.65641 0.0
H1669 H 0.94855 0.3202 0.7153 0.0
H1670 H 0.92017 0.31951 0.70497 0.0
C1671 C 0.83152 0.33022 0.64942 0.0
C1672 C 0.87682 0.33297 0.66146 0.0
H1673 H 0.9038 0.30492 0.66405 0.0
C1674 C 0.88613 0.34543 0.67108 0.0
C1675 C 0.8834 0.31815 0.65894 0.0
C1676 C 0.87467 0.30456 0.64796 0.0
C1677 C 0.90151 0.34348 0.67822 0.0
C1678 C 0.90796 0.32865 0.67589 0.0
C1679 C 0.89876 0.31617 0.66625 0.0
C1680 C 0.92495 0.32674 0.68182 0.0
C1681 C 0.9111 0.35749 0.68784 0.0
C1682 C 0.93711 0.33048 0.67219 0.0
C1683 C 0.95316 0.33083 0.67801 0.0
C1684 C 0.9578 0.32748 0.69375 0.0
C1685 C 0.94558 0.32277 0.70315 0.0
C1686 C 0.92932 0.32248 0.69726 0.0
H1687 H 0.90405 0.36787 0.68968 0.0
H1688 H 0.91561 0.35402 0.69963 0.0
H1689 H 0.92162 0.36118 0.68158 0.0
H1690 H 0.93419 0.33379 0.66028 0.0
H1691 H 0.96206 0.33442 0.67024 0.0
H1692 H 0.65774 0.7083 0.20572 0.0
H1693 H 0.63342 0.70721 0.21977 0.0
H1694 H 0.64651 0.66425 0.2393 0.0
H1695 H 0.67092 0.6657 0.22588 0.0
H1696 H 0.60841 0.6841 0.21658 0.0
H1697 H 0.63576 0.68932 0.27871 0.0
H1698 H 0.64692 0.69456 0.26238 0.0
H1699 H 0.64378 0.67408 0.26664 0.0
C1700 C 0.6555 0.69883 0.21328 0.0
C1701 C 0.66633 0.68723 0.21496 0.0
C1702 C 0.6416 0.69817 0.22124 0.0
C1703 C 0.63824 0.68582 0.23088 0.0
C1704 C 0.64905 0.67421 0.23243 0.0
H1705 H 0.57244 0.63516 0.27846 0.0
H1706 H 0.59371 0.64854 0.26611 0.0
C1707 C 0.66301 0.67502 0.22472 0.0
C1708 C 0.62311 0.68433 0.2387 0.0
H1709 H 0.60893 0.67676 0.27406 0.0
C1710 C 0.60845 0.68277 0.22921 0.0
C1711 C 0.62311 0.6829 0.25522 0.0
C1712 C 0.63824 0.68548 0.26635 0.0
C1713 C 0.59399 0.67837 0.23552 0.0
C1714 C 0.5942 0.67567 0.25183 0.0
C1715 C 0.60872 0.67856 0.26152 0.0
C1716 C 0.58028 0.66768 0.25872 0.0
C1717 C 0.57882 0.67568 0.22447 0.0
C1718 C 0.56534 0.67385 0.25874 0.0
C1719 C 0.55265 0.66572 0.2654 0.0
C1720 C 0.55474 0.65138 0.27233 0.0
C1721 C 0.56994 0.64571 0.2727 0.0
C1722 C 0.58235 0.65356 0.26582 0.0
H1723 H 0.58114 0.67577 0.21176 0.0
H1724 H 0.57215 0.66412 0.22607 0.0
H1725 H 0.57113 0.68531 0.22728 0.0
H1726 H 0.5635 0.68496 0.25374 0.0
H1727 H 0.54122 0.67058 0.26495 0.0
H1728 H 0.41843 0.02496 0.41164 0.0
H1729 H 0.44436 0.03005 0.40147 0.0
H1730 H 0.43269 0.99022 0.3657 0.0
H1731 H 0.4065 0.98501 0.37588 0.0
H1732 H 0.46542 0.99641 0.39325 0.0
H1733 H 0.45179 0.03962 0.34934 0.0
H1734 H 0.44094 0.03952 0.36682 0.0
H1735 H 0.43813 0.02271 0.3521 0.0
C1736 C 0.42134 0.01735 0.40154 0.0
C1737 C 0.41059 0.00452 0.3946 0.0
C1738 C 0.43608 0.0203 0.39575 0.0
C1739 C 0.44031 0.01048 0.38294 0.0
C1740 C 0.42949 0.99791 0.37561 0.0
H1741 H 0.52045 0.02356 0.33032 0.0
H1742 H 0.4958 0.0265 0.34158 0.0
C1743 C 0.4146 0.995 0.38136 0.0
C1744 C 0.45645 0.01311 0.37794 0.0
H1745 H 0.47878 0.03741 0.35703 0.0
C1746 C 0.46851 0.00509 0.38505 0.0
C1747 C 0.46012 0.02436 0.36726 0.0
C1748 C 0.44712 0.03208 0.35831 0.0
C1749 C 0.48434 0.00774 0.38144 0.0
C1750 C 0.48843 0.01986 0.37136 0.0
C1751 C 0.47608 0.02814 0.36468 0.0
C1752 C 0.50471 0.02266 0.36577 0.0
C1753 C 0.49599 0.99686 0.38806 0.0
C1754 C 0.51882 0.02124 0.37552 0.0
C1755 C 0.53274 0.01788 0.36856 0.0
C1756 C 0.53307 0.01774 0.35203 0.0
C1757 C 0.52042 0.02349 0.34312 0.0
C1758 C 0.50608 0.02507 0.34968 0.0
H1759 H 0.48981 0.9858 0.39166 0.0
H1760 H 0.50422 0.99324 0.3792 0.0
H1761 H 0.50292 0.00303 0.39894 0.0
H1762 H 0.51874 0.02107 0.38825 0.0
H1763 H 0.54251 0.0138 0.37577 0.0
H1764 H 0.10498 0.00971 0.71252 0.0
H1765 H 0.07577 0.00668 0.70663 0.0
H1766 H 0.0719 0.97351 0.74227 0.0
H1767 H 0.10084 0.97638 0.7481 0.0
H1768 H 0.05111 0.97545 0.70063 0.0
H1769 H 0.04872 0.0158 0.75578 0.0
H1770 H 0.06618 0.01554 0.74495 0.0
H1771 H 0.06156 1.00003 0.75743 0.0
C1772 C 0.09787 1.00144 0.71872 0.0
C1773 C 0.10505 0.99343 0.73089 0.0
C1774 C 0.08126 0.99977 0.71541 0.0
C1775 C 0.07181 0.99005 0.72421 0.0
C1776 C 0.07906 0.98116 0.73548 0.0
H1777 H 0.97386 0.97703 0.74513 0.0
H1778 H 1.00267 0.97553 0.74386 0.0
C1779 C 0.09555 0.98282 0.73879 0.0
C1780 C 0.05436 0.99018 0.72293 0.0
H1781 H 0.02429 1.00227 0.74399 0.0
C1782 C 0.04518 0.9814 0.70999 0.0
C1783 C 0.0468 0.99798 0.73522 0.0
C1784 C 0.05627 0.00799 0.7491 0.0
C1785 C 0.02847 0.97979 0.70929 0.0
C1786 C 0.02091 0.98729 0.72179 0.0
C1787 C 0.03015 0.99634 0.73456 0.0
C1788 C 0.0034 0.98638 0.72166 0.0
C1789 C 0.01906 0.96973 0.69543 0.0
C1790 C 0.99437 0.9928 0.70954 0.0
C1791 C 0.97805 0.99338 0.71013 0.0
C1792 C 0.97056 0.98771 0.72293 0.0
C1793 C 0.97944 0.98104 0.73496 0.0
C1794 C 0.99582 0.98034 0.7343 0.0
H1795 H 0.02657 0.96158 0.68914 0.0
H1796 H 0.00882 0.96253 0.69945 0.0
H1797 H 0.0143 0.97764 0.68676 0.0
H1798 H 1.00006 0.99799 0.69998 0.0
H1799 H 0.97138 0.99903 0.70104 0.0
H1800 H 0.64883 0.8209 0.31934 0.0
H1801 H 0.66095 0.84714 0.31379 0.0
H1802 H 0.64424 0.86874 0.35641 0.0
H1803 H 0.63238 0.84277 0.36215 0.0
H1804 H 0.64572 0.87825 0.31097 0.0
H1805 H 0.69347 0.88165 0.36083 0.0
H1806 H 0.68256 0.86301 0.35256 0.0
H1807 H 0.67362 0.8765 0.36593 0.0
C1808 C 0.64782 0.8312 0.32761 0.0
C1809 C 0.63954 0.82952 0.34124 0.0
C1810 C 0.65466 0.84627 0.32433 0.0
C1811 C 0.65362 0.86002 0.3347 0.0
C1812 C 0.64534 0.85838 0.34823 0.0
H1813 H 0.68488 0.95902 0.35239 0.0
H1814 H 0.67497 0.93122 0.35142 0.0
C1815 C 0.63844 0.84343 0.35145 0.0
C1816 C 0.6615 0.87604 0.33184 0.0
H1817 H 0.6902 0.90526 0.34845 0.0
C1818 C 0.6556 0.88408 0.31901 0.0
C1819 C 0.67435 0.8838 0.34235 0.0
C1820 C 0.6815 0.8758 0.35614 0.0
C1821 C 0.66174 0.89981 0.31687 0.0
C1822 C 0.67443 0.90765 0.32761 0.0
C1823 C 0.68057 0.89937 0.34011 0.0
C1824 C 0.68043 0.92493 0.32733 0.0
C1825 C 0.65402 0.90825 0.30369 0.0
C1826 C 0.68716 0.93101 0.31413 0.0
C1827 C 0.69265 0.94735 0.3145 0.0
C1828 C 0.69157 0.95792 0.32811 0.0
C1829 C 0.68549 0.95151 0.34145 0.0
C1830 C 0.67988 0.93544 0.34099 0.0
H1831 H 0.64278 0.90155 0.29805 0.0
H1832 H 0.6514 0.92034 0.30835 0.0
H1833 H 0.66231 0.90966 0.29436 0.0
H1834 H 0.68823 0.92314 0.30356 0.0
H1835 H 0.6974 0.95177 0.30408 0.0
H1836 H 0.73039 0.10338 0.02002 0.0
H1837 H 0.7253 0.07419 0.01667 0.0
H1838 H 0.72225 0.07506 0.96561 0.0
H1839 H 0.72757 0.10424 0.969 0.0
H1840 H 0.70096 0.05237 0.99991 0.0
H1841 H 0.75962 0.04823 0.97589 0.0
H1842 H 0.75397 0.06643 0.98564 0.0
H1843 H 0.74667 0.06024 0.96525 0.0
C1844 C 0.72813 0.0973 0.00812 0.0
C1845 C 0.72914 0.10586 0.99474 0.0
C1846 C 0.72534 0.0807 0.00621 0.0
C1847 C 0.72369 0.07254 0.9909 0.0
C1848 C 0.72373 0.08119 0.97751 0.0
H1849 H 0.72589 0.9708 0.96157 0.0
H1850 H 0.72308 0.99957 0.96086 0.0
C1851 C 0.72656 0.09778 0.97942 0.0
C1852 C 0.72295 0.05497 0.989 0.0
H1853 H 0.74335 0.02412 0.97585 0.0
C1854 C 0.71014 0.04615 0.99454 0.0
C1855 C 0.73511 0.04698 0.98221 0.0
C1856 C 0.74971 0.05593 0.97704 0.0
C1857 C 0.709 0.02946 0.99324 0.0
C1858 C 0.72113 0.02145 0.98637 0.0
C1859 C 0.73391 0.03029 0.98079 0.0
C1860 C 0.72165 0.00404 0.98628 0.0
C1861 C 0.69483 0.02062 0.99931 0.0
C1862 C 0.72181 0.99719 1.00073 0.0
C1863 C 0.72309 0.98101 1.00105 0.0
C1864 C 0.72491 0.97138 0.98705 0.0
C1865 C 0.7246 0.97807 0.97249 0.0
C1866 C 0.72304 0.99441 0.97212 0.0
H1867 H 0.68434 0.02766 0.99884 0.0
H1868 H 0.69145 0.00887 0.99238 0.0
H1869 H 0.69784 0.01864 0.01197 0.0
H1870 H 0.72123 0.00441 0.01185 0.0
H1871 H 0.72284 0.97601 0.01237 0.0
H1872 H 0.238 0.67716 0.68167 0.0
H1873 H 0.25255 0.65332 0.68079 0.0
H1874 H 0.21043 0.625 0.69072 0.0
H1875 H 0.19593 0.64873 0.69219 0.0
H1876 H 0.25466 0.62469 0.70414 0.0
H1877 H 0.22394 0.611 0.64289 0.0
H1878 H 0.22683 0.631 0.65277 0.0
H1879 H 0.21205 0.61678 0.65869 0.0
C1880 C 0.23192 0.66598 0.68416 0.0
C1881 C 0.21562 0.6649 0.68665 0.0
C1882 C 0.24028 0.65234 0.6836 0.0
C1883 C 0.23251 0.63737 0.68551 0.0
C1884 C 0.21662 0.63642 0.68912 0.0
H1885 H 0.2529 0.54167 0.65236 0.0
H1886 H 0.24067 0.56424 0.66495 0.0
C1887 C 0.20831 0.65002 0.68979 0.0
C1888 C 0.24021 0.62254 0.68171 0.0
H1889 H 0.24039 0.59223 0.65229 0.0
C1890 C 0.25159 0.61756 0.69282 0.0
C1891 C 0.23611 0.61324 0.66697 0.0
C1892 C 0.22413 0.61822 0.65454 0.0
C1893 C 0.25889 0.6034 0.68957 0.0
C1894 C 0.25489 0.59416 0.67472 0.0
C1895 C 0.24343 0.5992 0.66371 0.0
C1896 C 0.26274 0.57957 0.66992 0.0
C1897 C 0.27058 0.59829 0.70218 0.0
C1898 C 0.27928 0.58044 0.66887 0.0
C1899 C 0.28627 0.56745 0.66191 0.0
C1900 C 0.27686 0.55338 0.65576 0.0
C1901 C 0.26044 0.55226 0.65734 0.0
C1902 C 0.25345 0.5652 0.66442 0.0
H1903 H 0.26893 0.6039 0.71422 0.0
H1904 H 0.26935 0.58513 0.70237 0.0
H1905 H 0.28289 0.60201 0.69954 0.0
H1906 H 0.28667 0.59148 0.67256 0.0
H1907 H 0.29889 0.56875 0.66039 0.0
H1908 H 0.41497 0.42005 0.02041 0.0
H1909 H 0.40488 0.44607 0.02512 0.0
H1910 H 0.36344 0.4304 0.99234 0.0
H1911 H 0.37354 0.40414 0.98744 0.0
H1912 H 0.38901 0.46319 0.99064 0.0
H1913 H 0.35669 0.45431 0.04408 0.0
H1914 H 0.3742 0.44391 0.04154 0.0
H1915 H 0.35673 0.43893 0.02788 0.0
C1916 C 0.40367 0.42211 0.01424 0.0
C1917 C 0.39508 0.41018 0.00346 0.0
C1918 C 0.39792 0.43691 0.017 0.0
C1919 C 0.3835 0.44001 0.00906 0.0
C1920 C 0.37461 0.42807 0.99857 0.0
H1921 H 0.3329 0.52169 0.02374 0.0
H1922 H 0.34408 0.49681 0.02677 0.0
C1923 C 0.38034 0.41314 0.99585 0.0
C1924 C 0.37836 0.45612 0.01132 0.0
H1925 H 0.36204 0.48072 0.03792 0.0
C1926 C 0.38289 0.46713 1.00081 0.0
C1927 C 0.37028 0.46091 0.02448 0.0
C1928 C 0.36406 0.44895 0.03518 0.0
C1929 C 0.37944 0.48304 0.00305 0.0
C1930 C 0.37225 0.4883 0.01696 0.0
C1931 C 0.36779 0.47701 0.02745 0.0
C1932 C 0.36736 0.50476 0.01976 0.0
C1933 C 0.38296 0.49357 0.99002 0.0
C1934 C 0.37703 0.5183 0.01653 0.0
C1935 C 0.37013 0.53235 0.01359 0.0
C1936 C 0.35392 0.53331 0.01531 0.0
C1937 C 0.34547 0.52119 0.02234 0.0
C1938 C 0.35189 0.50678 0.02392 0.0
H1939 H 0.38404 0.48645 0.97856 0.0
H1940 H 0.37347 0.50161 0.98793 0.0
H1941 H 0.39454 0.50081 0.99337 0.0
H1942 H 0.38941 0.51754 0.0146 0.0
H1943 H 0.37693 0.54164 0.00836 0.0
H1944 H 0.36027 0.6604 0.8281 0.0
H1945 H 0.35527 0.67233 0.85442 0.0
H1946 H 0.31881 0.63416 0.85754 0.0
H1947 H 0.32393 0.62206 0.83144 0.0
H1948 H 0.33098 0.68426 0.86698 0.0
H1949 H 0.34371 0.63181 0.89905 0.0
H1950 H 0.34771 0.63305 0.87861 0.0
H1951 H 0.32784 0.62722 0.88343 0.0
C1952 C 0.35111 0.65455 0.83431 0.0
C1953 C 0.34268 0.64007 0.82754 0.0
C1954 C 0.34829 0.66139 0.84949 0.0
C1955 C 0.33693 0.65402 0.8584 0.0
C1956 C 0.32806 0.6399 0.85137 0.0
H1957 H 0.30424 0.68529 0.95217 0.0
H1958 H 0.30452 0.67451 0.92419 0.0
C1959 C 0.33097 0.63299 0.83629 0.0
C1960 C 0.33432 0.66115 0.87487 0.0
H1961 H 0.33311 0.65291 0.91381 0.0
C1962 C 0.33148 0.67734 0.87716 0.0
C1963 C 0.33494 0.65229 0.88841 0.0
C1964 C 0.33887 0.63519 0.88732 0.0
C1965 C 0.32925 0.68475 0.89234 0.0
C1966 C 0.32982 0.67588 0.90574 0.0
C1967 C 0.33247 0.6597 0.90352 0.0
C1968 C 0.32894 0.6835 0.9223 0.0
C1969 C 0.32634 0.70212 0.89408 0.0
C1970 C 0.34241 0.69242 0.93052 0.0
C1971 C 0.34231 0.69843 0.9465 0.0
C1972 C 0.32868 0.69585 0.95471 0.0
C1973 C 0.3149 0.68758 0.94626 0.0
C1974 C 0.31508 0.68134 0.93025 0.0
H1975 H 0.32435 0.70696 0.88236 0.0
H1976 H 0.31583 0.70378 0.90081 0.0
H1977 H 0.33681 0.70911 0.90099 0.0
H1978 H 0.35325 0.69424 0.92474 0.0
H1979 H 0.35318 0.70451 0.95273 0.0
H1980 H 1.00126 0.70844 0.10246 0.0
H1981 H 0.99704 0.70233 0.07335 0.0
H1982 H 0.98471 0.75012 0.0684 0.0
H1983 H 0.98836 0.7562 0.09725 0.0
H1984 H 0.96502 0.71232 0.05036 0.0
H1985 H 0.02679 0.73667 0.04212 0.0
H1986 H 0.02192 0.72789 0.06 0.0
H1987 H 0.01624 0.74732 0.0566 0.0
C1988 C 0.99738 0.71754 0.09518 0.0
C1989 C 0.99536 0.73287 0.10217 0.0
C1990 C 0.99506 0.71405 0.0786 0.0
C1991 C 0.99069 0.72585 0.06887 0.0
C1992 C 0.98817 0.74093 0.07579 0.0
H1993 H 0.98379 0.74869 0.97364 0.0
H1994 H 0.98166 0.74693 1.00212 0.0
C1995 C 0.99039 0.74439 0.09227 0.0
C1996 C 0.98922 0.72285 0.05137 0.0
H1997 H 0.00851 0.73147 0.01904 0.0
C1998 C 0.97459 0.7162 0.04344 0.0
C1999 C 1.00172 0.72814 0.04254 0.0
C2000 C 0.01762 0.73535 0.05066 0.0
C2001 C 0.97196 0.71516 0.02676 0.0
C2002 C 0.9843 0.72087 0.01798 0.0
C2003 C 0.99909 0.72711 0.0259 0.0
C2004 C 0.98199 0.7213 1.00058 0.0
C2005 C 0.95588 0.70867 0.01857 0.0
C2006 C 0.98196 0.70734 0.99031 0.0
C2007 C 0.98284 0.70831 0.974 0.0
C2008 C 0.98396 0.72325 0.96797 0.0
C2009 C 0.98281 0.73706 0.97811 0.0
C2010 C 0.98174 0.73607 0.99432 0.0
H2011 H 0.94705 0.70608 0.02719 0.0
H2012 H 0.95127 0.71734 0.01061 0.0
H2013 H 0.95709 0.69751 0.01103 0.0
H2014 H 0.98225 0.69586 0.99502 0.0
H2015 H 0.98392 0.69757 0.96635 0.0
H2016 H 0.67447 0.23527 0.67531 0.0
H2017 H 0.67316 0.24934 0.6513 0.0
H2018 H 0.69903 0.21396 0.62775 0.0
H2019 H 0.70045 0.1998 0.65175 0.0
H2020 H 0.69485 0.2626 0.63231 0.0
H2021 H 0.65779 0.21085 0.59873 0.0
H2022 H 0.66242 0.21222 0.62003 0.0
H2023 H 0.67705 0.20657 0.60698 0.0
C2024 C 0.68019 0.23062 0.66517 0.0
C2025 C 0.68733 0.21621 0.66545 0.0
C2026 C 0.67935 0.23866 0.65138 0.0
C2027 C 0.6856 0.23249 0.63754 0.0
C2028 C 0.6937 0.21872 0.63811 0.0
H2029 H 0.66624 0.26247 0.54067 0.0
H2030 H 0.67961 0.25047 0.56312 0.0
C2031 C 0.69451 0.21064 0.65187 0.0
C2032 C 0.68276 0.23999 0.62236 0.0
H2033 H 0.66327 0.23327 0.58488 0.0
C2034 C 0.68806 0.25614 0.6219 0.0
C2035 C 0.67393 0.23157 0.60871 0.0
C2036 C 0.66733 0.21439 0.60859 0.0
C2037 C 0.68451 0.26415 0.60833 0.0
C2038 C 0.67522 0.25588 0.59491 0.0
C2039 C 0.67046 0.23959 0.59513 0.0
C2040 C 0.66879 0.26425 0.58132 0.0
C2041 C 0.69059 0.28147 0.60854 0.0
C2042 C 0.65838 0.27601 0.58408 0.0
C2043 C 0.65077 0.28277 0.57137 0.0
C2044 C 0.65332 0.27791 0.55555 0.0
C2045 C 0.66417 0.26653 0.55274 0.0
C2046 C 0.67173 0.25964 0.56554 0.0
H2047 H 0.70131 0.28462 0.61716 0.0
H2048 H 0.69359 0.28437 0.59654 0.0
H2049 H 0.68121 0.28901 0.61222 0.0
H2050 H 0.65563 0.27954 0.59606 0.0
H2051 H 0.64248 0.29151 0.57389 0.0
H2052 H 0.98333 0.3767 0.40424 0.0
H2053 H 0.9879 0.36556 0.42996 0.0
H2054 H 0.02859 0.40003 0.443 0.0
H2055 H 0.02431 0.41104 0.41742 0.0
H2056 H 0.02503 0.358 0.44454 0.0
H2057 H 0.99144 0.40151 0.47793 0.0
H2058 H 0.98619 0.39534 0.45698 0.0
H2059 H 0.004 0.4082 0.46327 0.0
C2060 C 0.99335 0.38173 0.41254 0.0
C2061 C 0.00341 0.39478 0.40897 0.0
C2062 C 0.99587 0.37544 0.42718 0.0
C2063 C 0.00848 0.38215 0.43824 0.0
C2064 C 0.01874 0.39487 0.43454 0.0
H2065 H 0.0163 0.37333 0.53832 0.0
H2066 H 0.02294 0.38379 0.51344 0.0
C2067 C 0.01624 0.40114 0.42001 0.0
C2068 C 0.01117 0.37607 0.45383 0.0
H2069 H 0.00463 0.38369 0.4925 0.0
C2070 C 0.02075 0.36356 0.4552 0.0
C2071 C 0.00578 0.38373 0.46747 0.0
C2072 C 0.99623 0.39794 0.46648 0.0
C2073 C 0.02568 0.35874 0.47012 0.0
C2074 C 0.01979 0.36594 0.48404 0.0
C2075 C 0.00969 0.37825 0.48229 0.0
C2076 C 0.02268 0.36039 0.50029 0.0
C2077 C 0.03769 0.34654 0.4704 0.0
C2078 C 0.02288 0.34407 0.50219 0.0
C2079 C 0.02195 0.33858 0.51705 0.0
C2080 C 0.01801 0.34879 0.52976 0.0
C2081 C 0.01923 0.36522 0.52861 0.0
C2082 C 0.02242 0.37104 0.51413 0.0
H2083 H 0.04565 0.34782 0.46073 0.0
H2084 H 0.04527 0.34759 0.48188 0.0
H2085 H 0.03132 0.3344 0.46805 0.0
H2086 H 0.02204 0.33515 0.49218 0.0
H2087 H 0.02108 0.3258 0.51778 0.0
H2088 H 0.30498 0.61792 0.49873 0.0
H2089 H 0.30613 0.60308 0.52211 0.0
H2090 H 0.2564 0.58649 0.51157 0.0
H2091 H 0.25538 0.60049 0.48745 0.0
H2092 H 0.29265 0.6035 0.54877 0.0
H2093 H 0.27387 0.54466 0.51521 0.0
H2094 H 0.27852 0.56229 0.50536 0.0
H2095 H 0.25935 0.55869 0.51277 0.0
C2096 C 0.29428 0.61093 0.50115 0.0
C2097 C 0.28018 0.61015 0.49074 0.0
C2098 C 0.29494 0.60254 0.51473 0.0
C2099 C 0.28151 0.59315 0.51849 0.0
C2100 C 0.26714 0.59311 0.50872 0.0
H2101 H 0.26381 0.53532 0.59665 0.0
H2102 H 0.2623 0.54929 0.57247 0.0
C2103 C 0.2665 0.6014 0.49499 0.0
C2104 C 0.28276 0.58335 0.53249 0.0
H2105 H 0.2764 0.54538 0.54336 0.0
C2106 C 0.28916 0.59078 0.54751 0.0
C2107 C 0.2783 0.56667 0.53103 0.0
C2108 C 0.27228 0.55756 0.5152 0.0
C2109 C 0.29096 0.58214 0.56099 0.0
C2110 C 0.2864 0.56551 0.55949 0.0
C2111 C 0.27995 0.55809 0.54454 0.0
C2112 C 0.28769 0.55572 0.5734 0.0
C2113 C 0.29738 0.59097 0.57684 0.0
C2114 C 0.30253 0.55402 0.58168 0.0
C2115 C 0.30343 0.54575 0.5954 0.0
C2116 C 0.28951 0.53904 0.60113 0.0
C2117 C 0.27476 0.54013 0.59239 0.0
C2118 C 0.27388 0.54825 0.57864 0.0
H2119 H 0.29717 0.60408 0.57674 0.0
H2120 H 0.2904 0.58694 0.5865 0.0
H2121 H 0.30992 0.58846 0.57966 0.0
H2122 H 0.3134 0.55943 0.57777 0.0
H2123 H 0.31491 0.54542 0.60206 0.0
H2124 H 0.27887 0.38393 0.93063 0.0
H2125 H 0.28722 0.40936 0.94704 0.0
H2126 H 0.28979 0.4334 0.90436 0.0
H2127 H 0.28181 0.40809 0.88805 0.0
H2128 H 0.31579 0.43301 0.94581 0.0
H2129 H 0.25745 0.45636 0.93177 0.0
H2130 H 0.2602 0.43538 0.92934 0.0
H2131 H 0.26613 0.44815 0.91459 0.0
C2132 C 0.28143 0.39465 0.92484 0.0
C2133 C 0.2798 0.39413 0.90812 0.0
C2134 C 0.28617 0.40912 0.93417 0.0
C2135 C 0.28895 0.42326 0.92688 0.0
C2136 C 0.28762 0.42263 0.9102 0.0
H2137 H 0.32229 0.52235 0.95111 0.0
H2138 H 0.31351 0.49537 0.93808 0.0
C2139 C 0.28316 0.40819 0.90091 0.0
C2140 C 0.29275 0.43887 0.93649 0.0
H2141 H 0.27879 0.47535 0.94312 0.0
C2142 C 0.30766 0.44222 0.94537 0.0
C2143 C 0.28203 0.4508 0.93605 0.0
C2144 C 0.26549 0.4475 0.92756 0.0
C2145 C 0.31237 0.45748 0.95325 0.0
C2146 C 0.30193 0.46957 0.95208 0.0
C2147 C 0.28685 0.46608 0.94369 0.0
C2148 C 0.30646 0.48595 0.95963 0.0
C2149 C 0.32856 0.46076 0.96253 0.0
C2150 C 0.30499 0.48952 0.97587 0.0
C2151 C 0.30964 0.50487 0.98315 0.0
C2152 C 0.31586 0.51684 0.9743 0.0
C2153 C 0.31717 0.51335 0.958 0.0
C2154 C 0.31232 0.49799 0.95066 0.0
H2155 H 0.33565 0.45032 0.96158 0.0
H2156 H 0.33531 0.47109 0.95816 0.0
H2157 H 0.32711 0.46397 0.97529 0.0
H2158 H 0.30053 0.48037 0.98296 0.0
H2159 H 0.30898 0.50726 0.99586 0.0
H2160 H 0.70138 0.98219 0.48589 0.0
H2161 H 0.69796 0.98388 0.4571 0.0
H2162 H 0.6629 0.0174 0.46358 0.0
H2163 H 0.66635 0.01578 0.49253 0.0
H2164 H 0.67065 0.97775 0.43531 0.0
H2165 H 0.69745 0.04055 0.43954 0.0
H2166 H 0.69901 0.02836 0.45594 0.0
H2167 H 0.6809 0.03729 0.45121 0.0
C2168 C 0.69292 0.98987 0.48112 0.0
C2169 C 0.6842 0.99895 0.49129 0.0
C2170 C 0.69093 0.99078 0.46475 0.0
C2171 C 0.68032 1.00089 0.45834 0.0
C2172 C 0.67125 0.00966 0.46842 0.0
H2173 H 0.66752 0.01601 0.35611 0.0
H2174 H 0.66201 0.0166 0.38441 0.0
C2175 C 0.67315 0.00865 0.48484 0.0
C2176 C 0.67918 1.00251 0.44113 0.0
H2177 H 0.68819 0.02849 0.4139 0.0
C2178 C 0.67421 0.9889 0.43059 0.0
C2179 C 0.6842 0.01701 0.43513 0.0
C2180 C 0.69084 0.03162 0.446 0.0
C2181 C 0.67434 0.98936 0.41413 0.0
C2182 C 0.67935 0.00387 0.40818 0.0
C2183 C 0.68392 0.01756 0.41863 0.0
C2184 C 0.68254 0.00437 0.39149 0.0
C2185 C 0.66988 0.97422 0.40325 0.0
C2186 C 0.69612 0.99786 0.3866 0.0
C2187 C 0.69949 0.99802 0.3709 0.0
C2188 C 0.68924 0.00454 0.35981 0.0
C2189 C 0.67571 0.01131 0.36466 0.0
C2190 C 0.67249 0.01144 0.38063 0.0
H2191 H 0.66286 0.96512 0.40913 0.0
H2192 H 0.66292 0.97666 0.39213 0.0
H2193 H 0.68093 0.96915 0.39989 0.0
H2194 H 0.70397 0.9924 0.39488 0.0
H2195 H 0.70972 0.99229 0.36719 0.0
H2196 H 0.78785 0.00406 0.14508 0.0
H2197 H 0.77959 0.99259 0.11755 0.0
H2198 H 0.77169 0.94598 0.13407 0.0
H2199 H 0.77956 0.95749 0.16152 0.0
H2200 H 0.79231 0.96892 0.0993 0.0
H2201 H 0.72941 0.95055 0.10844 0.0
H2202 H 0.74219 0.96453 0.12233 0.0
H2203 H 0.74375 0.94348 0.1224 0.0
C2204 C 0.78459 0.99134 0.14269 0.0
C2205 C 0.78451 0.98153 0.15519 0.0
C2206 C 0.77977 0.98484 0.12707 0.0
C2207 C 0.77482 0.96848 0.12386 0.0
C2208 C 0.77516 0.95866 0.13636 0.0
H2209 H 0.74384 0.91529 0.0294 0.0
H2210 H 0.75405 0.91982 0.05783 0.0
C2211 C 0.77985 0.96517 0.15194 0.0
C2212 C 0.76963 0.96158 0.10739 0.0
H2213 H 0.73803 0.94195 0.08355 0.0
C2214 C 0.78051 0.96288 0.09589 0.0
C2215 C 0.75415 0.95385 0.10299 0.0
C2216 C 0.74162 0.95312 0.11462 0.0
C2217 C 0.77628 0.95671 0.08005 0.0
C2218 C 0.76085 0.94896 0.07565 0.0
C2219 C 0.75003 0.94742 0.08716 0.0
C2220 C 0.75478 0.94552 0.05876 0.0
C2221 C 0.78811 0.95911 0.06794 0.0
C2222 C 0.75154 0.9584 0.05025 0.0
C2223 C 0.74554 0.95591 0.03442 0.0
C2224 C 0.74288 0.94042 0.02636 0.0
C2225 C 0.74592 0.92737 0.03505 0.0
C2226 C 0.75178 0.92992 0.05124 0.0
H2227 H 0.80052 0.96152 0.07367 0.0
H2228 H 0.78741 0.94851 0.05909 0.0
H2229 H 0.78529 0.96951 0.06144 0.0
H2230 H 0.75345 0.97048 0.05598 0.0
H2231 H 0.74272 0.96638 0.02873 0.0
H2232 H 0.48757 0.25443 0.59846 0.0
H2233 H 0.51144 0.2553 0.584 0.0
H2234 H 0.5228 0.30482 0.60127 0.0
H2235 H 0.49974 0.30379 0.61648 0.0
H2236 H 0.51838 0.27159 0.5601 0.0
H2237 H 0.5658 0.29053 0.6088 0.0
H2238 H 0.54578 0.2839 0.61262 0.0
H2239 H 0.55079 0.3042 0.60852 0.0
C2240 C 0.49534 0.26541 0.59954 0.0
C2241 C 0.49143 0.27907 0.60863 0.0
C2242 C 0.50898 0.26594 0.5911 0.0
C2243 C 0.51918 0.2801 0.59154 0.0
C2244 C 0.51548 0.29361 0.60089 0.0
H2245 H 0.60082 0.31394 0.54265 0.0
H2246 H 0.57629 0.31175 0.55622 0.0
C2247 C 0.50199 0.29306 0.60942 0.0
C2248 C 0.53301 0.28111 0.5815 0.0
H2249 H 0.57269 0.2939 0.58237 0.0
C2250 C 0.53027 0.27633 0.56506 0.0
C2251 C 0.54866 0.28729 0.5878 0.0
C2252 C 0.55297 0.2916 0.60542 0.0
C2253 C 0.54246 0.27797 0.55478 0.0
C2254 C 0.55797 0.28452 0.56102 0.0
C2255 C 0.56079 0.28912 0.57747 0.0
C2256 C 0.57157 0.2862 0.55085 0.0
C2257 C 0.53853 0.27301 0.53722 0.0
C2258 C 0.57693 0.27268 0.54287 0.0
C2259 C 0.59081 0.27398 0.53494 0.0
C2260 C 0.5997 0.28882 0.53475 0.0
C2261 C 0.59394 0.30245 0.54207 0.0
C2262 C 0.58006 0.30115 0.55008 0.0
H2263 H 0.5255 0.27227 0.53371 0.0
H2264 H 0.54471 0.28146 0.52995 0.0
H2265 H 0.54255 0.26103 0.53438 0.0
H2266 H 0.57091 0.26096 0.54353 0.0
H2267 H 0.59525 0.26319 0.52992 0.0
H2268 H 0.1462 0.79344 0.00241 0.0
H2269 H 0.11841 0.78727 0.99073 0.0
H2270 H 0.1348 0.76337 0.94892 0.0
H2271 H 0.16239 0.76925 0.96063 0.0
H2272 H 0.10299 0.79384 0.96008 0.0
H2273 H 0.10463 0.72905 0.966 0.0
H2274 H 0.11915 0.74399 0.97673 0.0
H2275 H 0.12049 0.73805 0.95603 0.0
C2276 C 0.14378 0.78709 0.99064 0.0
C2277 C 0.15625 0.78167 0.9824 0.0
C2278 C 0.128 0.78353 0.98403 0.0
C2279 C 0.12464 0.77461 0.96913 0.0
C2280 C 0.13718 0.76997 0.96058 0.0
H2281 H 0.03662 0.72587 0.92071 0.0
H2282 H 0.06436 0.73753 0.92588 0.0
C2283 C 0.15287 0.77339 0.96721 0.0
C2284 C 0.10806 0.76968 0.96261 0.0
H2285 H 0.08166 0.73689 0.95215 0.0
C2286 C 0.09826 0.78141 0.9583 0.0
C2287 C 0.10208 0.75343 0.96026 0.0
C2288 C 0.11206 0.74038 0.9651 0.0
C2289 C 0.08259 0.77731 0.95143 0.0
C2290 C 0.07645 0.76104 0.94926 0.0
C2291 C 0.08637 0.74933 0.95358 0.0
C2292 C 0.05949 0.75588 0.94386 0.0
C2293 C 0.07297 0.79052 0.94636 0.0
C2294 C 0.04747 0.76263 0.95178 0.0
C2295 C 0.03166 0.75642 0.94839 0.0
C2296 C 0.02753 0.74277 0.93758 0.0
C2297 C 0.0394 0.73643 0.92903 0.0
C2298 C 0.05527 0.74298 0.93212 0.0
H2299 H 0.08079 0.80061 0.94287 0.0
H2300 H 0.06394 0.78632 0.9362 0.0
H2301 H 0.06679 0.79521 0.95656 0.0
H2302 H 0.05035 0.7722 0.96122 0.0
H2303 H 0.02275 0.76177 0.95498 0.0
H2304 H 0.89258 0.26291 0.4087 0.0
H2305 H 0.90819 0.27185 0.43403 0.0
H2306 H 0.94106 0.30057 0.40961 0.0
H2307 H 0.92486 0.29207 0.38415 0.0
H2308 H 0.93773 0.26746 0.44387 0.0
H2309 H 0.933 0.3327 0.44482 0.0
H2310 H 0.92125 0.31851 0.43031 0.0
H2311 H 0.94187 0.3241 0.42801 0.0
C2312 C 0.90307 0.27125 0.40878 0.0
C2313 C 0.9075 0.27687 0.39454 0.0
C2314 C 0.91201 0.27632 0.42324 0.0
C2315 C 0.92573 0.28705 0.42385 0.0
C2316 C 0.93031 0.29262 0.40956 0.0
H2317 H 0.99672 0.3122 0.50441 0.0
H2318 H 0.98246 0.30347 0.47831 0.0
C2319 C 0.92113 0.28772 0.39502 0.0
C2320 C 0.93517 0.29189 0.4395 0.0
H2321 H 0.94867 0.32393 0.46628 0.0
C2322 C 0.94008 0.27982 0.44873 0.0
C2323 C 0.93834 0.30803 0.4459 0.0
C2324 C 0.93324 0.32159 0.43683 0.0
C2325 C 0.9478 0.28343 0.46417 0.0
C2326 C 0.95068 0.29949 0.47057 0.0
C2327 C 0.94615 0.3116 0.46134 0.0
C2328 C 0.95906 0.30395 0.48662 0.0
C2329 C 0.95278 0.27013 0.47367 0.0
C2330 C 0.95057 0.30695 0.49995 0.0
C2331 C 0.95874 0.31201 0.51496 0.0
C2332 C 0.97544 0.31402 0.51667 0.0
C2333 C 0.98384 0.31062 0.50336 0.0
C2334 C 0.97573 0.30568 0.48847 0.0
H2335 H 0.94922 0.25817 0.4672 0.0
H2336 H 0.96592 0.27151 0.47648 0.0
H2337 H 0.94736 0.27082 0.48517 0.0
H2338 H 0.93766 0.30564 0.49868 0.0
H2339 H 0.95208 0.31472 0.52505 0.0
H2340 H 0.48669 0.65948 0.98677 0.0
H2341 H 0.45822 0.65599 0.99075 0.0
H2342 H 0.46212 0.70254 0.01677 0.0
H2343 H 0.49049 0.70608 0.01305 0.0
H2344 H 0.44165 0.66676 0.02633 0.0
H2345 H 0.42914 0.69564 0.97031 0.0
H2346 H 0.44544 0.68334 0.9727 0.0
H2347 H 0.44668 0.70263 0.98358 0.0
C2348 C 0.48152 0.66882 0.99358 0.0
C2349 C 0.49069 0.68315 0.9994 0.0
C2350 C 0.46534 0.6668 0.99585 0.0
C2351 C 0.45827 0.67902 0.00405 0.0
C2352 C 0.46751 0.69301 0.01046 0.0
H2353 H 0.36925 0.71199 0.01409 0.0
H2354 H 0.3967 0.70575 0.01801 0.0
C2355 C 0.48361 0.69506 0.00816 0.0
C2356 C 0.44094 0.67808 0.00449 0.0
H2357 H 0.40766 0.6903 0.98551 0.0
C2358 C 0.43412 0.67165 0.01732 0.0
C2359 C 0.43137 0.68468 0.99277 0.0
C2360 C 0.43842 0.69197 0.979 0.0
C2361 C 0.41777 0.672 0.01885 0.0
C2362 C 0.4083 0.67881 0.00724 0.0
C2363 C 0.41509 0.68493 0.99427 0.0
C2364 C 0.39151 0.68101 0.00885 0.0
C2365 C 0.41071 0.66571 0.03306 0.0
C2366 C 0.37954 0.66887 0.00305 0.0
C2367 C 0.36371 0.67236 1.00086 0.0
C2368 C 0.35986 0.68803 0.00437 0.0
C2369 C 0.37177 0.69974 0.01155 0.0
C2370 C 0.3875 0.69625 0.01369 0.0
H2371 H 0.41981 0.66122 0.04137 0.0
H2372 H 0.40498 0.67528 0.0396 0.0
H2373 H 0.40128 0.65588 0.02894 0.0
H2374 H 0.38259 0.65706 0.99919 0.0
H2375 H 0.35471 0.66317 0.99532 0.0
H2376 H 0.62349 0.50369 0.30002 0.0
H2377 H 0.60825 0.52693 0.30154 0.0
H2378 H 0.57992 0.50827 0.25805 0.0
H2379 H 0.59467 0.48461 0.25676 0.0
H2380 H 0.60227 0.55067 0.28186 0.0
H2381 H 0.54589 0.5143 0.28857 0.0
H2382 H 0.56504 0.50644 0.29045 0.0
H2383 H 0.55522 0.50825 0.27106 0.0
C2384 C 0.61395 0.50439 0.29079 0.0
C2385 C 0.61018 0.49192 0.27844 0.0
C2386 C 0.6053 0.51784 0.29162 0.0
C2387 C 0.59259 0.51927 0.28016 0.0
C2388 C 0.58936 0.50732 0.26732 0.0
H2389 H 0.52454 0.59005 0.26646 0.0
H2390 H 0.53929 0.56627 0.26513 0.0
C2391 C 0.59799 0.49383 0.26648 0.0
C2392 C 0.58244 0.53292 0.28195 0.0
H2393 H 0.54409 0.54169 0.28586 0.0
C2394 C 0.58956 0.54868 0.28278 0.0
C2395 C 0.56583 0.53047 0.28327 0.0
C2396 C 0.55753 0.51397 0.28345 0.0
C2397 C 0.58052 0.5619 0.28453 0.0
C2398 C 0.56389 0.55939 0.28574 0.0
C2399 C 0.5568 0.54367 0.28493 0.0
C2400 C 0.55361 0.57289 0.28756 0.0
C2401 C 0.58878 0.57847 0.28466 0.0
C2402 C 0.55608 0.58418 0.30099 0.0
C2403 C 0.54733 0.59755 0.30195 0.0
C2404 C 0.53586 0.59995 0.28953 0.0
C2405 C 0.53284 0.58824 0.27649 0.0
C2406 C 0.54148 0.57478 0.2756 0.0
H2407 H 0.6007 0.57829 0.28012 0.0
H2408 H 0.58147 0.58591 0.27732 0.0
H2409 H 0.59043 0.58425 0.29706 0.0
H2410 H 0.56521 0.58295 0.31049 0.0
H2411 H 0.55036 0.60664 0.31185 0.0
H2412 H 0.96555 0.1581 0.7962 0.0
H2413 H 0.95345 0.13055 0.79015 0.0
H2414 H 0.99042 0.12047 0.7598 0.0
H2415 H 1.00276 0.14773 0.76608 0.0
H2416 H 0.94251 0.11698 0.75839 0.0
H2417 H 0.98828 0.08262 0.78689 0.0
H2418 H 0.98719 0.10359 0.79247 0.0
H2419 H 0.99609 0.09723 0.77475 0.0
C2420 C 0.97132 0.14986 0.7886 0.0
C2421 C 0.98508 0.15502 0.78158 0.0
C2422 C 0.96434 0.13421 0.78507 0.0
C2423 C 0.97112 0.12352 0.77463 0.0
C2424 C 0.98515 0.12849 0.76808 0.0
H2425 H 0.95302 0.03732 0.71714 0.0
H2426 H 0.95817 0.06499 0.7287 0.0
C2427 C 0.99212 0.14408 0.77158 0.0
C2428 C 0.96304 0.10749 0.76957 0.0
H2429 H 0.96918 0.0681 0.76713 0.0
C2430 C 0.94814 0.10624 0.76058 0.0
C2431 C 0.97053 0.09358 0.77237 0.0
C2432 C 0.98635 0.09426 0.78226 0.0
C2433 C 0.94088 0.0914 0.75367 0.0
C2434 C 0.94866 0.07762 0.75604 0.0
C2435 C 0.96325 0.07879 0.76549 0.0
C2436 C 0.94279 0.06203 0.74752 0.0
C2437 C 0.92537 0.09048 0.74327 0.0
C2438 C 0.93198 0.05148 0.75404 0.0
C2439 C 0.92899 0.03561 0.74742 0.0
C2440 C 0.9369 0.0303 0.73434 0.0
C2441 C 0.94677 0.04124 0.7272 0.0
C2442 C 0.94974 0.05698 0.73379 0.0
H2443 H 0.92075 0.10233 0.74266 0.0
H2444 H 0.92708 0.0855 0.73102 0.0
H2445 H 0.91632 0.08227 0.74792 0.0
H2446 H 0.92661 0.05528 0.76471 0.0
H2447 H 0.92147 0.02729 0.75315 0.0
H2448 H 0.40798 0.89384 0.2592 0.0
H2449 H 0.43332 0.90939 0.26822 0.0
H2450 H 0.40954 0.93946 0.30054 0.0
H2451 H 0.38411 0.92328 0.29196 0.0
H2452 H 0.44311 0.93944 0.26638 0.0
H2453 H 0.44525 0.92859 0.33028 0.0
H2454 H 0.43049 0.91804 0.31554 0.0
H2455 H 0.42817 0.93811 0.32341 0.0
C2456 C 0.40819 0.90373 0.2683 0.0
C2457 C 0.39416 0.90735 0.27494 0.0
C2458 C 0.42266 0.91263 0.27342 0.0
C2459 C 0.42343 0.92549 0.2852 0.0
C2460 C 0.40934 0.92934 0.29173 0.0
H2461 H 0.50121 0.99324 0.32584 0.0
H2462 H 0.47559 0.97945 0.31509 0.0
C2463 C 0.39482 0.92018 0.28679 0.0
C2464 C 0.43908 0.93472 0.29041 0.0
H2465 H 0.46584 0.94627 0.32283 0.0
C2466 C 0.44809 0.94085 0.27872 0.0
C2467 C 0.44561 0.93662 0.30653 0.0
C2468 C 0.43695 0.92988 0.31965 0.0
C2469 C 0.46341 0.94875 0.28272 0.0
C2470 C 0.46984 0.95052 0.29878 0.0
C2471 C 0.46083 0.94468 0.31049 0.0
C2472 C 0.48562 0.95914 0.30395 0.0
C2473 C 0.47254 0.95542 0.26989 0.0
C2474 C 0.49976 0.95227 0.30109 0.0
C2475 C 0.51456 0.96008 0.30742 0.0
C2476 C 0.51525 0.97471 0.31681 0.0
C2477 C 0.50103 0.98169 0.31914 0.0
C2478 C 0.48638 0.97395 0.31286 0.0
H2479 H 0.46528 0.9543 0.25818 0.0
H2480 H 0.47664 0.96819 0.27332 0.0
H2481 H 0.48329 0.94897 0.26855 0.0
H2482 H 0.49932 0.94076 0.29427 0.0
H2483 H 0.52537 0.95461 0.30526 0.0
H2484 H 0.98567 0.48811 0.70233 0.0
H2485 H 0.98804 0.45953 0.69891 0.0
H2486 H 0.01382 0.46559 0.65773 0.0
H2487 H 0.0118 0.49448 0.66135 0.0
H2488 H 0.97863 0.4365 0.6733 0.0
H2489 H 0.04444 0.44481 0.68875 0.0
H2490 H 0.03191 0.46078 0.69187 0.0
H2491 H 0.03669 0.45463 0.67215 0.0
C2492 C 0.99183 0.48334 0.69254 0.0
C2493 C 0.99878 0.49342 0.68225 0.0
C2494 C 0.99306 0.46705 0.69053 0.0
C2495 C 1.00127 0.4606 0.6782 0.0
C2496 C 0.00762 0.47049 0.66742 0.0
H2497 H 0.00497 0.35725 0.67139 0.0
H2498 H 0.00798 0.38437 0.66306 0.0
C2499 C 0.00637 0.48688 0.66943 0.0
C2500 C 0.00382 0.44363 0.6775 0.0
H2501 H 0.03221 0.41866 0.6863 0.0
C2502 C 0.99036 0.4325 0.67574 0.0
C2503 C 0.01916 0.43865 0.68101 0.0
C2504 C 0.03391 0.4503 0.68368 0.0
C2505 C 0.99178 0.41653 0.6781 0.0
C2506 C 0.00706 0.4117 0.68204 0.0
C2507 C 0.02059 0.4226 0.68308 0.0
C2508 C 0.00886 0.39582 0.68703 0.0
C2509 C 0.97692 0.40514 0.6775 0.0
C2510 C 0.00916 0.39364 0.70326 0.0
C2511 C 0.00764 0.3783 0.708 0.0
C2512 C 0.00575 0.36517 0.69649 0.0
C2513 C 0.00668 0.36737 0.68036 0.0
C2514 C 0.00828 0.38272 0.67563 0.0
H2515 H 0.96596 0.41072 0.67373 0.0
H2516 H 0.97781 0.39448 0.6691 0.0
H2517 H 0.97574 0.40099 0.68947 0.0
H2518 H 0.00946 0.40376 0.71211 0.0
H2519 H 0.00656 0.37671 0.72044 0.0
H2520 H 0.70474 0.4127 0.52187 0.0
H2521 H 0.7028 0.42621 0.49763 0.0
H2522 H 0.74615 0.40782 0.48425 0.0
H2523 H 0.74792 0.39372 0.50843 0.0
H2524 H 0.72273 0.44947 0.48873 0.0
H2525 H 0.71759 0.39779 0.44278 0.0
H2526 H 0.71524 0.39551 0.46347 0.0
H2527 H 0.73481 0.39877 0.45695 0.0
C2528 C 0.71378 0.41123 0.5137 0.0
C2529 C 0.72643 0.40191 0.5172 0.0
C2530 C 0.71269 0.41911 0.49982 0.0
C2531 C 0.72418 0.41796 0.48887 0.0
C2532 C 0.73692 0.40872 0.49228 0.0
H2533 H 0.74393 0.47135 0.40858 0.0
H2534 H 0.74495 0.45842 0.43339 0.0
C2535 C 0.73804 0.40081 0.50626 0.0
C2536 C 0.72307 0.42714 0.47446 0.0
H2537 H 0.72061 0.42356 0.43361 0.0
C2538 C 0.72221 0.44373 0.47671 0.0
C2539 C 0.72229 0.41977 0.45864 0.0
C2540 C 0.72238 0.40197 0.45524 0.0
C2541 C 0.72082 0.45307 0.46374 0.0
C2542 C 0.72022 0.44575 0.44804 0.0
C2543 C 0.72103 0.42918 0.44569 0.0
C2544 C 0.71941 0.45523 0.43396 0.0
C2545 C 0.72011 0.4708 0.46682 0.0
C2546 C 0.7047 0.4583 0.42629 0.0
C2547 C 0.70409 0.46588 0.4121 0.0
C2548 C 0.71819 0.47056 0.4054 0.0
C2549 C 0.73289 0.46825 0.41365 0.0
C2550 C 0.73348 0.46065 0.42772 0.0
H2551 H 0.72084 0.47481 0.47974 0.0
H2552 H 0.73006 0.4772 0.46154 0.0
H2553 H 0.70881 0.47417 0.46094 0.0
H2554 H 0.69368 0.45423 0.4309 0.0
H2555 H 0.69261 0.46706 0.40581 0.0
H2556 H 0.75349 0.60259 0.09292 0.0
H2557 H 0.74536 0.57849 0.07533 0.0
H2558 H 0.69602 0.58478 0.08054 0.0
H2559 H 0.70401 0.60964 0.09751 0.0
H2560 H 0.7307 0.55295 0.0855 0.0
H2561 H 0.69354 0.57 0.03357 0.0
H2562 H 0.70635 0.58445 0.04696 0.0
H2563 H 0.6872 0.57705 0.0524 0.0
C2564 C 0.74086 0.59929 0.08995 0.0
C2565 C 0.72944 0.60818 0.09681 0.0
C2566 C 0.73624 0.58533 0.07993 0.0
C2567 C 0.72009 0.57976 0.07656 0.0
C2568 C 0.70856 0.58891 0.08277 0.0
H2569 H 0.672 0.4874 0.0401 0.0
H2570 H 0.68027 0.5136 0.05468 0.0
C2571 C 0.71318 0.60303 0.09271 0.0
C2572 C 0.71564 0.5635 0.06827 0.0
H2573 H 0.69285 0.54221 0.03681 0.0
C2574 C 0.72253 0.55067 0.07477 0.0
C2575 C 0.70491 0.56046 0.0543 0.0
C2576 C 0.69768 0.57373 0.04629 0.0
C2577 C 0.7189 0.53495 0.06782 0.0
C2578 C 0.70808 0.53191 0.05402 0.0
C2579 C 0.70113 0.54464 0.04746 0.0
C2580 C 0.70374 0.5155 0.04636 0.0
C2581 C 0.72642 0.52159 0.07538 0.0
C2582 C 0.71437 0.50778 0.03719 0.0
C2583 C 0.70967 0.4928 0.02889 0.0
C2584 C 0.6944 0.48528 0.02991 0.0
C2585 C 0.68405 0.49274 0.03964 0.0
C2586 C 0.68866 0.50778 0.04773 0.0
H2587 H 0.73321 0.52571 0.08707 0.0
H2588 H 0.71711 0.51197 0.07711 0.0
H2589 H 0.73469 0.51639 0.06733 0.0
H2590 H 0.72603 0.51364 0.03593 0.0
H2591 H 0.71759 0.4875 0.02102 0.0
H2592 H 0.31589 0.02511 0.5132 0.0
H2593 H 0.31755 0.02696 0.54231 0.0
H2594 H 0.33878 0.98237 0.54175 0.0
H2595 H 0.33724 0.98054 0.51262 0.0
H2596 H 0.2994 1.00103 0.55354 0.0
H2597 H 0.3617 0.0099 0.58196 0.0
H2598 H 0.35603 0.01603 0.56252 0.0
H2599 H 0.3583 0.99543 0.56483 0.0
C2600 C 0.32141 0.01602 0.51938 0.0
C2601 C 0.3262 1.00256 0.51086 0.0
C2602 C 0.32241 0.01712 0.53592 0.0
C2603 C 0.32823 0.00477 0.54402 0.0
C2604 C 0.33447 0.99209 0.53562 0.0
H2605 H 0.3222 0.98287 0.64196 0.0
H2606 H 0.32402 0.97847 0.61301 0.0
C2607 C 0.33353 0.99102 0.51904 0.0
C2608 C 0.32471 0.00341 0.56049 0.0
H2609 H 0.34166 1.00158 0.59811 0.0
C2610 C 0.30862 1.00116 0.56333 0.0
C2611 C 0.33681 0.00345 0.57302 0.0
C2612 C 0.35419 0.00646 0.57053 0.0
C2613 C 0.30426 0.99896 0.57855 0.0
C2614 C 0.31638 0.99909 0.59114 0.0
C2615 C 0.33247 1.00112 0.58826 0.0
C2616 C 0.31276 0.99968 0.60773 0.0
C2617 C 0.28679 0.99668 0.58105 0.0
C2618 C 0.30563 0.01284 0.614 0.0
C2619 C 0.30469 0.01534 0.63022 0.0
C2620 C 0.31109 0.00485 0.64043 0.0
C2621 C 0.31744 0.99115 0.63418 0.0
C2622 C 0.31839 0.98863 0.61779 0.0
H2623 H 0.27945 0.9918 0.56987 0.0
H2624 H 0.28465 0.98858 0.59043 0.0
H2625 H 0.28265 0.00839 0.58485 0.0
H2626 H 0.30155 0.02166 0.60645 0.0
H2627 H 0.29946 0.02582 0.63491 0.0
H2628 H 0.21818 0.05216 0.84409 0.0
H2629 H 0.22528 0.06185 0.87217 0.0
H2630 H 0.2339 0.01417 0.88276 0.0
H2631 H 0.22739 0.0046 0.85451 0.0
H2632 H 0.21423 0.05431 0.90036 0.0
H2633 H 0.27657 0.03895 0.8973 0.0
H2634 H 0.26276 0.03855 0.87973 0.0
H2635 H 0.26156 0.02252 0.89231 0.0
C2636 C 0.22129 0.04375 0.85252 0.0
C2637 C 0.22234 0.02771 0.84731 0.0
C2638 C 0.2254 0.04927 0.86848 0.0
C2639 C 0.23047 0.03878 0.87941 0.0
C2640 C 0.23044 0.02251 0.8744 0.0
H2641 H 0.24746 0.05135 0.98009 0.0
H2642 H 0.23605 0.04656 0.95256 0.0
C2643 C 0.22659 0.01704 0.85837 0.0
C2644 C 0.23652 0.04512 0.89583 0.0
H2645 H 0.26964 0.04916 0.92245 0.0
C2646 C 0.22637 0.05327 0.90519 0.0
C2647 C 0.25241 0.04385 0.90197 0.0
C2648 C 0.26402 0.03562 0.89228 0.0
C2649 C 0.23161 0.05996 0.92069 0.0
C2650 C 0.24739 0.05844 0.92692 0.0
C2651 C 0.25761 0.05049 0.91749 0.0
C2652 C 0.25303 0.06343 0.94374 0.0
C2653 C 0.22025 0.06859 0.93033 0.0
C2654 C 0.26636 0.07462 0.94792 0.0
C2655 C 0.27315 0.07722 0.96375 0.0
C2656 C 0.2667 0.06851 0.97542 0.0
C2657 C 0.25272 0.05817 0.97128 0.0
C2658 C 0.24609 0.0555 0.95558 0.0
H2659 H 0.20992 0.07186 0.92269 0.0
H2660 H 0.21561 0.06073 0.93903 0.0
H2661 H 0.22646 0.07956 0.93709 0.0
H2662 H 0.27188 0.08079 0.93884 0.0
H2663 H 0.28394 0.0852 0.96666 0.0
H2664 H 0.51102 0.75067 0.39581 0.0
H2665 H 0.4866 0.74896 0.40956 0.0
H2666 H 0.49457 0.70116 0.41985 0.0
H2667 H 0.51918 0.70303 0.40709 0.0
H2668 H 0.45858 0.72932 0.4052 0.0
H2669 H 0.48969 0.72092 0.46364 0.0
H2670 H 0.50025 0.72694 0.44723 0.0
H2671 H 0.49379 0.70623 0.44833 0.0
C2672 C 0.50772 0.73986 0.40119 0.0
C2673 C 0.51732 0.72703 0.40027 0.0
C2674 C 0.49361 0.73884 0.40895 0.0
C2675 C 0.48878 0.72503 0.41611 0.0
C2676 C 0.49811 0.71212 0.41484 0.0
H2677 H 0.40503 0.69244 0.46409 0.0
H2678 H 0.42978 0.69398 0.45061 0.0
C2679 C 0.51219 0.71315 0.40724 0.0
C2680 C 0.4742 0.724 0.42511 0.0
H2681 H 0.46145 0.71547 0.46107 0.0
C2682 C 0.45926 0.7264 0.41744 0.0
C2683 C 0.47491 0.72022 0.44117 0.0
C2684 C 0.49054 0.7186 0.45063 0.0
C2685 C 0.44517 0.7248 0.42524 0.0
C2686 C 0.44593 0.7207 0.44115 0.0
C2687 C 0.4608 0.71838 0.44882 0.0
C2688 C 0.43156 0.71963 0.45031 0.0
C2689 C 0.42947 0.72728 0.41636 0.0
C2690 C 0.42471 0.73352 0.45524 0.0
C2691 C 0.4109 0.73268 0.46326 0.0
C2692 C 0.40349 0.71792 0.46655 0.0
C2693 C 0.41068 0.70401 0.46217 0.0
C2694 C 0.42468 0.70488 0.45423 0.0
H2695 H 0.43043 0.72785 0.40341 0.0
H2696 H 0.42028 0.71751 0.41797 0.0
H2697 H 0.42533 0.73864 0.42126 0.0
H2698 H 0.42983 0.74505 0.45253 0.0
H2699 H 0.40547 0.74358 0.46615 0.0
H2700 H 0.84384 0.23449 0.05111 0.0
H2701 H 0.87209 0.24075 0.06046 0.0
H2702 H 0.88501 0.22093 0.01516 0.0
H2703 H 0.85654 0.21464 0.00576 0.0
H2704 H 0.89747 0.21991 0.06195 0.0
H2705 H 0.9062 0.26798 0.02164 0.0
H2706 H 0.88663 0.26004 0.02576 0.0
H2707 H 0.89786 0.24865 0.01264 0.0
C2708 C 0.85277 0.23125 0.0433 0.0
C2709 C 0.84827 0.22404 0.02785 0.0
C2710 C 0.86881 0.23484 0.0486 0.0
C2711 C 0.88051 0.23141 0.03843 0.0
C2712 C 0.87605 0.22375 0.02308 0.0
H2713 H 0.98203 0.24316 0.05656 0.0
H2714 H 0.9542 0.23219 0.05131 0.0
C2715 C 0.85993 0.22007 0.01779 0.0
C2716 C 0.89731 0.23639 0.04397 0.0
H2717 H 0.92825 0.26365 0.03924 0.0
C2718 C 0.90426 0.22941 0.05696 0.0
C2719 C 0.90595 0.24891 0.03746 0.0
C2720 C 0.89882 0.25696 0.02366 0.0
C2721 C 0.91976 0.23463 0.06365 0.0
C2722 C 0.92833 0.24719 0.05724 0.0
C2723 C 0.92143 0.25414 0.0442 0.0
C2724 C 0.94492 0.2526 0.06316 0.0
C2725 C 0.92689 0.22689 0.07762 0.0
C2726 C 0.94879 0.26748 0.07201 0.0
C2727 C 0.96473 0.27375 0.07512 0.0
C2728 C 0.97679 0.26522 0.06921 0.0
C2729 C 0.97288 0.24985 0.06134 0.0
C2730 C 0.95704 0.24361 0.05829 0.0
H2731 H 0.91815 0.21819 0.08208 0.0
H2732 H 0.93716 0.22057 0.07402 0.0
H2733 H 0.93145 0.23615 0.08747 0.0
H2734 H 0.93946 0.27453 0.07578 0.0
H2735 H 0.96751 0.28568 0.08103 0.0
H2736 H 0.11144 0.7471 0.59225 0.0
H2737 H 0.09428 0.73806 0.56778 0.0
H2738 H 0.06896 0.7028 0.59238 0.0
H2739 H 0.08644 0.71171 0.61705 0.0
H2740 H 0.08969 0.70286 0.55343 0.0
H2741 H 0.03498 0.73106 0.56823 0.0
H2742 H 0.05446 0.73855 0.57776 0.0
H2743 H 0.04499 0.72015 0.58284 0.0
C2744 C 0.10216 0.73748 0.59247 0.0
C2745 C 0.10021 0.73012 0.6065 0.0
C2746 C 0.0924 0.73232 0.5785 0.0
C2747 C 0.08035 0.71985 0.57833 0.0
C2748 C 0.0782 0.7125 0.59234 0.0
H2749 H 0.01605 0.67203 0.50129 0.0
H2750 H 0.03208 0.68053 0.52626 0.0
C2751 C 0.08818 0.71753 0.60635 0.0
C2752 C 0.07051 0.71438 0.5632 0.0
H2753 H 0.03439 0.71718 0.54276 0.0
C2754 C 0.07759 0.70595 0.55109 0.0
C2755 C 0.05476 0.71846 0.56024 0.0
C2756 C 0.04675 0.72761 0.57287 0.0
C2757 C 0.06929 0.70155 0.53603 0.0
C2758 C 0.05369 0.70593 0.53299 0.0
C2759 C 0.0465 0.71414 0.54514 0.0
C2760 C 0.04422 0.70108 0.51758 0.0
C2761 C 0.07708 0.69206 0.52346 0.0
C2762 C 0.04584 0.70986 0.50438 0.0
C2763 C 0.03629 0.70527 0.49001 0.0
C2764 C 0.02504 0.69187 0.48877 0.0
C2765 C 0.02401 0.68286 0.50197 0.0
C2766 C 0.03332 0.68754 0.51624 0.0
H2767 H 0.08906 0.68898 0.52794 0.0
H2768 H 0.06944 0.68087 0.51926 0.0
H2769 H 0.07829 0.69902 0.51304 0.0
H2770 H 0.05435 0.7203 0.50525 0.0
H2771 H 0.03753 0.7123 0.48002 0.0
H2772 H 0.51208 0.34167 0.98233 0.0
H2773 H 0.54134 0.34482 0.98437 0.0
H2774 H 0.54287 0.31369 0.02205 0.0
H2775 H 0.51376 0.31046 0.02005 0.0
H2776 H 0.56995 0.34772 0.01678 0.0
H2777 H 0.55605 0.29282 0.97442 0.0
H2778 H 0.54242 0.30806 0.97586 0.0
H2779 H 0.54483 0.2952 0.99146 0.0
C2780 C 0.51871 0.33599 0.99141 0.0
C2781 C 0.51083 0.32554 1.00079 0.0
C2782 C 0.53533 0.33786 0.99261 0.0
C2783 C 0.54405 0.3294 0.00329 0.0
C2784 C 0.53621 0.32033 0.01381 0.0
H2785 H 0.63077 0.28857 0.01477 0.0
H2786 H 0.60309 0.29502 0.0114 0.0
C2787 C 0.51966 0.31837 0.01254 0.0
C2788 C 0.56065 0.32699 1.00108 0.0
H2789 H 0.58293 0.29996 0.98369 0.0
C2790 C 0.5729 0.33748 0.00936 0.0
C2791 C 0.5642 0.31345 0.99153 0.0
C2792 C 0.55123 0.3017 0.98273 0.0
C2793 C 0.58886 0.33445 0.00863 0.0
C2794 C 0.59236 0.32079 0.99918 0.0
C2795 C 0.58007 0.31053 0.99068 0.0
C2796 C 0.60858 0.31601 0.99923 0.0
C2797 C 0.60179 0.34535 0.01856 0.0
C2798 C 0.6205 0.32531 0.99282 0.0
C2799 C 0.63622 0.32155 0.99464 0.0
C2800 C 0.63996 0.30843 0.00273 0.0
C2801 C 0.6279 0.29856 0.00823 0.0
C2802 C 0.61223 0.30231 0.00644 0.0
H2803 H 0.59686 0.35405 0.02696 0.0
H2804 H 0.6099 0.33829 0.02548 0.0
H2805 H 0.60901 0.3521 0.0106 0.0
H2806 H 0.61773 0.3358 0.98704 0.0
H2807 H 0.64553 0.32938 0.99063 0.0
H2808 H 0.41344 0.52038 0.75161 0.0
H2809 H 0.42646 0.4955 0.74986 0.0
H2810 H 0.40378 0.48321 0.70228 0.0
H2811 H 0.39048 0.50767 0.704 0.0
H2812 H 0.41405 0.46117 0.74145 0.0
H2813 H 0.45272 0.48506 0.6976 0.0
H2814 H 0.4419 0.49771 0.71019 0.0
H2815 H 0.43168 0.48592 0.69303 0.0
C2816 C 0.41098 0.51228 0.74086 0.0
C2817 C 0.40112 0.51637 0.72782 0.0
C2818 C 0.41851 0.49805 0.73986 0.0
C2819 C 0.41642 0.48761 0.72579 0.0
C2820 C 0.4059 0.4912 0.71314 0.0
H2821 H 0.45615 0.40039 0.6909 0.0
H2822 H 0.44279 0.42505 0.69359 0.0
C2823 C 0.39834 0.50531 0.71414 0.0
C2824 C 0.42581 0.47344 0.72389 0.0
H2825 H 0.45453 0.45818 0.70253 0.0
C2826 C 0.42299 0.46057 0.73304 0.0
C2827 C 0.43738 0.47251 0.71278 0.0
C2828 C 0.44125 0.48606 0.70289 0.0
C2829 C 0.43125 0.44681 0.73121 0.0
C2830 C 0.44294 0.44598 0.7202 0.0
C2831 C 0.44567 0.4588 0.71102 0.0
C2832 C 0.45239 0.43189 0.71801 0.0
C2833 C 0.4271 0.43303 0.74073 0.0
C2834 C 0.46285 0.42786 0.73054 0.0
C2835 C 0.47079 0.41398 0.72886 0.0
C2836 C 0.46853 0.40386 0.71458 0.0
C2837 C 0.45861 0.40826 0.70182 0.0
C2838 C 0.45076 0.42222 0.70345 0.0
H2839 H 0.41563 0.43407 0.74603 0.0
H2840 H 0.42627 0.42154 0.73312 0.0
H2841 H 0.43661 0.43273 0.75056 0.0
H2842 H 0.46448 0.43517 0.74183 0.0
H2843 H 0.47789 0.41061 0.73908 0.0
H2844 H 0.00734 0.85567 0.20963 0.0
H2845 H 0.016 0.88425 0.21668 0.0
H2846 H 0.05796 0.87181 0.24376 0.0
H2847 H 0.04937 0.84352 0.23682 0.0
H2848 H 0.02327 0.89924 0.25027 0.0
H2849 H 0.07429 0.90493 0.21343 0.0
H2850 H 0.058 0.88943 0.209 0.0
H2851 H 0.07344 0.88778 0.22457 0.0
C2852 C 0.01855 0.85917 0.21679 0.0
C2853 C 0.02784 0.8476 0.22261 0.0
C2854 C 0.02341 0.87538 0.22089 0.0
C2855 C 0.03766 0.88002 0.23061 0.0
C2856 C 0.04704 0.86841 0.23608 0.0
H2857 H 0.07831 0.96716 0.28723 0.0
H2858 H 0.07131 0.93901 0.27681 0.0
C2859 C 0.04216 0.85233 0.23212 0.0
C2860 C 0.04272 0.89693 0.2357 0.0
H2861 H 0.07306 0.92584 0.2339 0.0
C2862 C 0.03407 0.90513 0.24663 0.0
C2863 C 0.05681 0.90448 0.23087 0.0
C2864 C 0.06614 0.89628 0.21872 0.0
C2865 C 0.03947 0.92068 0.2532 0.0
C2866 C 0.05382 0.92801 0.2487 0.0
C2867 C 0.06224 0.91995 0.23751 0.0
C2868 C 0.05955 0.94458 0.25452 0.0
C2869 C 0.02981 0.92929 0.26477 0.0
C2870 C 0.05577 0.95673 0.24509 0.0
C2871 C 0.0599 0.97258 0.25086 0.0
C2872 C 0.06782 0.97654 0.26619 0.0
C2873 C 0.07241 0.96434 0.27531 0.0
C2874 C 0.06826 0.94837 0.26947 0.0
H2875 H 0.01893 0.92187 0.2671 0.0
H2876 H 0.0372 0.93281 0.27624 0.0
H2877 H 0.02622 0.94039 0.25997 0.0
H2878 H 0.04908 0.95395 0.23352 0.0
H2879 H 0.05613 0.98183 0.2437 0.0
H2880 H 0.60102 0.09605 0.75282 0.0
H2881 H 0.57691 0.07846 0.74441 0.0
H2882 H 0.58728 0.0784 0.69546 0.0
H2883 H 0.61195 0.09568 0.70385 0.0
H2884 H 0.5525 0.08774 0.72486 0.0
H2885 H 0.57271 0.03122 0.69869 0.0
H2886 H 0.58588 0.04583 0.71155 0.0
H2887 H 0.58095 0.04898 0.69106 0.0
C2888 C 0.59852 0.09196 0.74029 0.0
C2889 C 0.60852 0.09735 0.72903 0.0
C2890 C 0.58461 0.08196 0.7355 0.0
C2891 C 0.58029 0.07705 0.71933 0.0
C2892 C 0.59047 0.08187 0.70803 0.0
H2893 H 0.49299 0.0324 0.66764 0.0
H2894 H 0.51869 0.0476 0.67634 0.0
C2895 C 0.60448 0.09191 0.71284 0.0
C2896 C 0.56433 0.06841 0.71439 0.0
H2897 H 0.54495 0.03386 0.69544 0.0
C2898 C 0.55088 0.0759 0.71853 0.0
C2899 C 0.56221 0.05302 0.70603 0.0
C2900 C 0.57618 0.04419 0.70166 0.0
C2901 C 0.53539 0.06848 0.71449 0.0
C2902 C 0.53329 0.05312 0.70622 0.0
C2903 C 0.54667 0.04562 0.70193 0.0
C2904 C 0.51721 0.04491 0.70135 0.0
C2905 C 0.52132 0.07724 0.71873 0.0
C2906 C 0.50774 0.03866 0.71261 0.0
C2907 C 0.49299 0.02997 0.70765 0.0
C2908 C 0.48761 0.02757 0.6914 0.0
C2909 C 0.49687 0.03433 0.68027 0.0
C2910 C 0.51157 0.04286 0.68519 0.0
H2911 H 0.52491 0.08986 0.72336 0.0
H2912 H 0.51256 0.07696 0.70812 0.0
H2913 H 0.51528 0.07121 0.72798 0.0
H2914 H 0.512 0.04006 0.72514 0.0
H2915 H 0.48615 0.02459 0.71635 0.0
H2916 H 0.98275 0.51102 0.34217 0.0
H2917 H 0.98491 0.54027 0.34564 0.0
H2918 H 0.02337 0.54197 0.31544 0.0
H2919 H 0.02125 0.51286 0.31187 0.0
H2920 H 0.01776 0.56991 0.34752 0.0
H2921 H 0.97417 0.55287 0.29402 0.0
H2922 H 0.97585 0.54036 0.31016 0.0
H2923 H 0.99119 0.54169 0.29688 0.0
C2924 C 0.99206 0.51768 0.33681 0.0
C2925 C 1.00154 0.50988 0.32639 0.0
C2926 C 0.99335 0.53431 0.3389 0.0
C2927 C 0.0042 0.54308 0.33068 0.0
C2928 C 0.01498 0.53528 0.32189 0.0
H2929 H 0.01873 0.6267 0.28652 0.0
H2930 H 0.01467 0.59962 0.29451 0.0
C2931 C 0.01362 0.51872 0.3197 0.0
C2932 C 1.00156 0.55943 0.3276 0.0
H2933 H 0.98371 0.57992 0.29923 0.0
C2934 C 0.01006 0.57223 0.33722 0.0
C2935 C 0.99166 0.56216 0.31397 0.0
C2936 C 0.98262 0.54859 0.30313 0.0
C2937 C 0.00922 0.58787 0.33318 0.0
C2938 C 0.99961 0.5905 0.3193 0.0
C2939 C 0.99083 0.57773 0.30997 0.0
C2940 C 0.99997 0.60619 0.31326 0.0
C2941 C 0.01922 0.60142 0.34316 0.0
C2942 C 0.99227 0.61841 0.32065 0.0
C2943 C 0.99436 0.63378 0.31594 0.0
C2944 C 0.00425 0.63691 0.30391 0.0
C2945 C 0.01096 0.62439 0.29575 0.0
C2946 C 0.00878 0.60906 0.30038 0.0
H2947 H 0.02658 0.59724 0.35321 0.0
H2948 H 0.02722 0.60783 0.33562 0.0
H2949 H 0.01137 0.61008 0.34809 0.0
H2950 H 0.98529 0.61621 0.33051 0.0
H2951 H 0.9893 0.6434 0.32247 0.0
H2952 H 0.35034 0.67245 0.34428 0.0
H2953 H 0.37617 0.67044 0.33384 0.0
H2954 H 0.3881 0.63756 0.36807 0.0
H2955 H 0.36196 0.63881 0.37804 0.0
H2956 H 0.40639 0.67731 0.34539 0.0
H2957 H 0.39751 0.61236 0.3284 0.0
H2958 H 0.38156 0.62365 0.33437 0.0
H2959 H 0.39553 0.6171 0.34915 0.0
C2960 C 0.35829 0.66455 0.3495 0.0
C2961 C 0.35366 0.65557 0.36193 0.0
C2962 C 0.37324 0.66354 0.34355 0.0
C2963 C 0.38416 0.65352 0.34979 0.0
C2964 C 0.37986 0.64503 0.36261 0.0
H2965 H 0.4813 0.63163 0.33398 0.0
H2966 H 0.45493 0.63433 0.34359 0.0
C2967 C 0.36487 0.64596 0.36852 0.0
C2968 C 0.39993 0.65196 0.34293 0.0
H2969 H 0.42391 0.6246 0.32818 0.0
C2970 C 0.41014 0.66576 0.34156 0.0
C2971 C 0.40496 0.63696 0.33763 0.0
C2972 C 0.39425 0.6217 0.33728 0.0
C2973 C 0.42523 0.66493 0.33565 0.0
C2974 C 0.43042 0.64988 0.33086 0.0
C2975 C 0.42015 0.63614 0.33201 0.0
C2976 C 0.44645 0.64807 0.32474 0.0
C2977 C 0.43566 0.6802 0.33493 0.0
C2978 C 0.45055 0.65458 0.31073 0.0
C2979 C 0.46557 0.65286 0.30515 0.0
C2980 C 0.47685 0.64451 0.31334 0.0
C2981 C 0.47275 0.63785 0.32723 0.0
C2982 C 0.45769 0.6395 0.33279 0.0
H2983 H 0.43156 0.69038 0.34218 0.0
H2984 H 0.44822 0.67885 0.33917 0.0
H2985 H 0.43534 0.68316 0.3224 0.0
H2986 H 0.44213 0.66101 0.30408 0.0
H2987 H 0.46848 0.65835 0.29455 0.0
H2988 H 0.17274 0.33698 0.79205 0.0
H2989 H 0.14609 0.33858 0.77866 0.0
H2990 H 0.13552 0.28791 0.77949 0.0
H2991 H 0.16237 0.2862 0.79266 0.0
H2992 H 0.13204 0.31812 0.74739 0.0
H2993 H 0.09805 0.31202 0.80029 0.0
H2994 H 0.11909 0.31862 0.80223 0.0
H2995 H 0.11248 0.29807 0.79634 0.0
C2996 C 0.16468 0.32621 0.78955 0.0
C2997 C 0.16963 0.31149 0.7935 0.0
C2998 C 0.14949 0.32712 0.78179 0.0
C2999 C 0.13879 0.31338 0.77807 0.0
C3000 C 0.14357 0.29867 0.78224 0.0
H3001 H 0.04922 0.2998 0.71712 0.0
H3002 H 0.0764 0.29907 0.72848 0.0
C3003 C 0.1589 0.29771 0.78977 0.0
C3004 C 0.12268 0.31455 0.76975 0.0
H3005 H 0.08328 0.31457 0.77591 0.0
C3006 C 0.12135 0.31733 0.75359 0.0
C3007 C 0.10877 0.31352 0.77785 0.0
C3008 C 0.10953 0.31047 0.79516 0.0
C3009 C 0.10648 0.31911 0.74533 0.0
C3010 C 0.09252 0.31824 0.7535 0.0
C3011 C 0.09393 0.31545 0.76967 0.0
C3012 C 0.07626 0.31967 0.7455 0.0
C3013 C 0.10587 0.32216 0.72801 0.0
C3014 C 0.06679 0.33142 0.75122 0.0
C3015 C 0.05084 0.33158 0.7449 0.0
C3016 C 0.04402 0.32001 0.73272 0.0
C3017 C 0.05376 0.30876 0.72657 0.0
C3018 C 0.06957 0.30846 0.73297 0.0
H3019 H 0.11788 0.32582 0.72444 0.0
H3020 H 0.10109 0.31107 0.72051 0.0
H3021 H 0.09788 0.33155 0.72549 0.0
H3022 H 0.07164 0.34026 0.76085 0.0
H3023 H 0.04373 0.3405 0.74983 0.0
H3024 H 0.75485 0.98326 0.65462 0.0
H3025 H 0.78231 0.98284 0.66593 0.0
H3026 H 0.79888 0.01073 0.62934 0.0
H3027 H 0.77122 0.01152 0.61809 0.0
H3028 H 0.80736 0.9707 0.65063 0.0
H3029 H 0.82046 0.03519 0.67143 0.0
H3030 H 0.80042 0.02601 0.66605 0.0
H3031 H 0.81312 0.03045 0.65081 0.0
C3032 C 0.76431 0.98947 0.64908 0.0
C3033 C 0.76088 0.99758 0.63559 0.0
C3034 C 0.77999 0.98915 0.6555 0.0
C3035 C 0.79257 0.99695 0.64861 0.0
C3036 C 0.78928 0.00487 0.63498 0.0
H3037 H 0.89456 0.99869 0.67791 0.0
H3038 H 0.86887 0.00344 0.66398 0.0
C3039 C 0.77352 0.00518 0.62849 0.0
C3040 C 0.80908 0.99623 0.6556 0.0
H3041 H 0.84117 0.01866 0.67606 0.0
C3042 C 0.81479 0.98119 0.65611 0.0
C3043 C 0.8187 0.00996 0.66272 0.0
C3044 C 0.81289 0.02634 0.66288 0.0
C3045 C 0.8298 0.97946 0.66377 0.0
C3046 C 0.83926 0.99312 0.67123 0.0
C3047 C 0.8338 0.00824 0.67034 0.0
C3048 C 0.85466 0.99174 0.68038 0.0
C3049 C 0.8354 0.96301 0.66391 0.0
C3050 C 0.85506 0.984 0.69439 0.0
C3051 C 0.86962 0.98131 0.70229 0.0
C3052 C 0.88388 0.98643 0.6963 0.0
C3053 C 0.88357 0.99471 0.68267 0.0
C3054 C 0.86899 0.99742 0.67475 0.0
H3055 H 0.82839 0.95435 0.65474 0.0
H3056 H 0.8482 0.96328 0.66183 0.0
H3057 H 0.83403 0.95867 0.67575 0.0
H3058 H 0.84409 0.97969 0.69898 0.0
H3059 H 0.86972 0.97489 0.71282 0.0
H3060 H 0.72191 0.98865 0.28824 0.0
H3061 H 0.69523 0.98852 0.29667 0.0
H3062 H 0.68772 0.03063 0.27304 0.0
H3063 H 0.71478 0.03118 0.26472 0.0
H3064 H 0.6818 0.03454 0.30415 0.0
H3065 H 0.65206 0.97595 0.27732 0.0
H3066 H 0.67073 0.97449 0.28849 0.0
H3067 H 0.67023 0.98464 0.27064 0.0
C3068 C 0.71457 0.99783 0.28467 0.0
C3069 C 0.72062 0.01018 0.27618 0.0
C3070 C 0.6993 0.99769 0.28949 0.0
C3071 C 0.68967 0.00971 0.28583 0.0
C3072 C 0.69514 0.02138 0.27625 0.0
H3073 H 0.5955 0.02399 0.28985 0.0
H3074 H 0.62418 0.02511 0.28774 0.0
C3075 C 0.71051 0.02158 0.27138 0.0
C3076 C 0.67451 0.01073 0.2931 0.0
H3077 H 0.63889 0.98995 0.29685 0.0
C3078 C 0.67239 0.02481 0.30249 0.0
C3079 C 0.66249 0.99781 0.29137 0.0
C3080 C 0.66392 0.98244 0.28131 0.0
C3081 C 0.65823 0.02653 0.30963 0.0
C3082 C 0.64603 0.0139 0.30725 0.0
C3083 C 0.64844 0.99955 0.29864 0.0
C3084 C 0.62966 0.01633 0.31063 0.0
C3085 C 0.65609 0.04186 0.31936 0.0
C3086 C 0.62348 0.01132 0.3244 0.0
C3087 C 0.60704 0.01074 0.32563 0.0
C3088 C 0.59691 0.01512 0.31307 0.0
C3089 C 0.60325 0.02089 0.29976 0.0
C3090 C 0.61955 0.02151 0.29855 0.0
H3091 H 0.66719 0.05011 0.32117 0.0
H3092 H 0.6465 0.04792 0.31328 0.0
H3093 H 0.65231 0.03921 0.33116 0.0
H3094 H 0.6312 0.00714 0.33372 0.0
H3095 H 0.6022 0.00606 0.33589 0.0
H3096 H 0.35126 0.35311 0.67665 0.0
H3097 H 0.34048 0.37888 0.67485 0.0
H3098 H 0.36329 0.38488 0.63197 0.0
H3099 H 0.37375 0.35891 0.63339 0.0
H3100 H 0.35462 0.40968 0.67474 0.0
H3101 H 0.31738 0.39213 0.6178 0.0
H3102 H 0.326 0.37778 0.62968 0.0
H3103 H 0.3379 0.38855 0.61682 0.0
C3104 C 0.35391 0.35978 0.66671 0.0
C3105 C 0.36332 0.3536 0.65506 0.0
C3106 C 0.34778 0.37467 0.66577 0.0
C3107 C 0.35073 0.38386 0.65309 0.0
C3108 C 0.36048 0.37798 0.6417 0.0
H3109 H 0.32919 0.47646 0.62332 0.0
H3110 H 0.33777 0.44973 0.62625 0.0
C3111 C 0.36666 0.36311 0.64265 0.0
C3112 C 0.34366 0.39953 0.65177 0.0
H3113 H 0.32056 0.41978 0.62665 0.0
C3114 C 0.3471 0.41183 0.66426 0.0
C3115 C 0.33362 0.40245 0.63822 0.0
C3116 C 0.32834 0.3895 0.62493 0.0
C3117 C 0.34137 0.42698 0.66328 0.0
C3118 C 0.33175 0.43004 0.64948 0.0
C3119 C 0.32805 0.41763 0.63716 0.0
C3120 C 0.32578 0.44609 0.64738 0.0
C3121 C 0.3461 0.43977 0.67686 0.0
C3122 C 0.31578 0.45298 0.65797 0.0
C3123 C 0.31076 0.46823 0.65619 0.0
C3124 C 0.31549 0.47693 0.64371 0.0
C3125 C 0.32514 0.46995 0.6329 0.0
C3126 C 0.33013 0.45468 0.63464 0.0
H3127 H 0.35629 0.43676 0.68487 0.0
H3128 H 0.34935 0.45142 0.67232 0.0
H3129 H 0.33586 0.44112 0.68405 0.0
H3130 H 0.31193 0.44661 0.66772 0.0
H3131 H 0.30348 0.47338 0.66483 0.0
H3132 H 0.29388 0.73018 0.03687 0.0
H3133 H 0.3038 0.70404 0.0362 0.0
H3134 H 0.27203 0.68886 0.99373 0.0
H3135 H 0.26495 0.71628 0.99277 0.0
H3136 H 0.29822 0.67828 0.03939 0.0
H3137 H 0.3059 0.67113 0.97523 0.0
H3138 H 0.29891 0.6891 0.98385 0.0
H3139 H 0.28517 0.67169 0.97743 0.0
C3140 C 0.28964 0.72133 0.02706 0.0
C3141 C 0.27974 0.72545 0.0143 0.0
C3142 C 0.29499 0.7062 0.0268 0.0
C3143 C 0.28961 0.69436 0.01428 0.0
C3144 C 0.27765 0.69792 0.00277 0.0
H3145 H 0.28692 0.59582 0.00434 0.0
H3146 H 0.28504 0.62455 0.00566 0.0
C3147 C 0.27317 0.7135 0.00244 0.0
C3148 C 0.2964 0.67849 0.0137 0.0
H3149 H 0.30616 0.64753 0.98867 0.0
C3150 C 0.30038 0.672 0.02819 0.0
C3151 C 0.29948 0.6698 0.99927 0.0
C3152 C 0.29729 0.67594 0.98313 0.0
C3153 C 0.30658 0.65717 0.02858 0.0
C3154 C 0.30809 0.6481 0.01414 0.0
C3155 C 0.30483 0.6546 0.99973 0.0
C3156 C 0.30997 0.6309 0.01358 0.0
C3157 C 0.31089 0.65093 0.04439 0.0
C3158 C 0.32469 0.62504 0.01762 0.0
C3159 C 0.32576 0.60852 0.01686 0.0
C3160 C 0.31212 0.59795 0.01208 0.0
C3161 C 0.29754 0.60387 0.00807 0.0
C3162 C 0.29647 0.62021 0.00879 0.0
H3163 H 0.30928 0.6596 0.05464 0.0
H3164 H 0.30345 0.63963 0.04532 0.0
H3165 H 0.32354 0.64826 0.04519 0.0
H3166 H 0.33524 0.63318 0.02125 0.0
H3167 H 0.33713 0.60405 0.01996 0.0
H3168 H 0.81175 0.15743 0.30205 0.0
H3169 H 0.79983 0.12999 0.30296 0.0
H3170 H 0.75756 0.14812 0.31961 0.0
H3171 H 0.76918 0.17534 0.31832 0.0
H3172 H 0.79096 0.1147 0.32704 0.0
H3173 H 0.73675 0.11555 0.2857 0.0
H3174 H 0.75312 0.13094 0.28726 0.0
H3175 H 0.73847 0.13139 0.30145 0.0
C3176 C 0.79989 0.15554 0.30584 0.0
C3177 C 0.79139 0.16865 0.30997 0.0
C3178 C 0.79303 0.13983 0.30631 0.0
C3179 C 0.77755 0.13681 0.31099 0.0
C3180 C 0.76923 0.14993 0.31538 0.0
H3181 H 0.7195 0.05074 0.33243 0.0
H3182 H 0.73004 0.07843 0.32959 0.0
C3183 C 0.77597 0.16558 0.31474 0.0
C3184 C 0.77049 0.12007 0.31227 0.0
H3185 H 0.73712 0.09386 0.30198 0.0
C3186 C 0.77924 0.11015 0.32142 0.0
C3187 C 0.75512 0.11397 0.30503 0.0
C3188 C 0.74539 0.12346 0.29418 0.0
C3189 C 0.77303 0.09462 0.32383 0.0
C3190 C 0.75763 0.08857 0.31675 0.0
C3191 C 0.74884 0.09845 0.30756 0.0
C3192 C 0.75084 0.07183 0.31831 0.0
C3193 C 0.78295 0.08494 0.33429 0.0
C3194 C 0.75887 0.05884 0.31293 0.0
C3195 C 0.75309 0.04318 0.31493 0.0
C3196 C 0.7388 0.03997 0.3218 0.0
C3197 C 0.73052 0.05286 0.32701 0.0
C3198 C 0.7365 0.06867 0.3253 0.0
H3199 H 0.7924 0.09258 0.34209 0.0
H3200 H 0.77539 0.07809 0.3419 0.0
H3201 H 0.78887 0.07637 0.32668 0.0
H3202 H 0.76974 0.06079 0.30722 0.0
H3203 H 0.7599 0.03357 0.31117 0.0
H3204 H 0.65081 0.76032 0.01979 0.0
H3205 H 0.66347 0.78745 0.01989 0.0
H3206 H 0.63207 0.79453 0.97869 0.0
H3207 H 0.61938 0.76735 0.97847 0.0
H3208 H 0.67923 0.7981 0.99435 0.0
H3209 H 0.63048 0.83528 0.00868 0.0
H3210 H 0.6302 0.81462 0.01261 0.0
H3211 H 0.62499 0.81974 0.99278 0.0
C3212 C 0.64655 0.76769 0.01081 0.0
C3213 C 0.63424 0.76167 0.99901 0.0
C3214 C 0.65373 0.78318 0.01093 0.0
C3215 C 0.64867 0.79296 0.99933 0.0
C3216 C 0.63598 0.78723 0.98789 0.0
H3217 H 0.68102 0.8809 0.96552 0.0
H3218 H 0.67021 0.85375 0.96908 0.0
C3219 C 0.62876 0.77171 0.98777 0.0
C3220 C 0.65749 0.80867 0.99847 0.0
H3221 H 0.65323 0.84842 0.99908 0.0
C3222 C 0.67362 0.80914 0.99557 0.0
C3223 C 0.6501 0.82299 1.00006 0.0
C3224 C 0.63303 0.82322 0.00385 0.0
C3225 C 0.68243 0.82359 0.99376 0.0
C3226 C 0.67491 0.83782 0.99498 0.0
C3227 C 0.65889 0.83739 0.99815 0.0
C3228 C 0.68311 0.85327 0.99222 0.0
C3229 C 0.69953 0.82357 0.99002 0.0
C3230 C 0.69412 0.86177 0.004 0.0
C3231 C 0.70024 0.87732 1.002 0.0
C3232 C 0.69539 0.88431 0.9882 0.0
C3233 C 0.68488 0.87559 0.97623 0.0
C3234 C 0.67873 0.86016 0.97824 0.0
H3235 H 0.70328 0.81131 0.98836 0.0
H3236 H 0.7012 0.82953 0.97903 0.0
H3237 H 0.70744 0.83043 0.9999 0.0
H3238 H 0.6975 0.85661 0.01492 0.0
H3239 H 0.70834 0.88399 0.01136 0.0
H3240 H 0.67893 0.35493 0.35422 0.0
H3241 H 0.67725 0.34423 0.38007 0.0
H3242 H 0.63031 0.3598 0.38228 0.0
H3243 H 0.63178 0.37033 0.35635 0.0
H3244 H 0.67223 0.35933 0.41065 0.0
H3245 H 0.62375 0.31192 0.38942 0.0
H3246 H 0.63584 0.32193 0.37609 0.0
H3247 H 0.61979 0.33145 0.38425 0.0
C3248 C 0.66817 0.35603 0.36011 0.0
C3249 C 0.65544 0.36347 0.35294 0.0
C3250 C 0.66728 0.34995 0.37502 0.0
C3251 C 0.65355 0.35092 0.38316 0.0
C3252 C 0.64096 0.35862 0.37622 0.0
H3253 H 0.62111 0.32329 0.47331 0.0
H3254 H 0.62401 0.33291 0.44694 0.0
C3255 C 0.64189 0.36482 0.36139 0.0
C3256 C 0.65233 0.34393 0.39884 0.0
H3257 H 0.63009 0.31655 0.41739 0.0
C3258 C 0.66306 0.34993 0.41209 0.0
C3259 C 0.64051 0.3315 0.40082 0.0
C3260 C 0.62939 0.32367 0.38689 0.0
C3261 C 0.66191 0.34429 0.42724 0.0
C3262 C 0.64978 0.33216 0.42932 0.0
C3263 C 0.63926 0.32597 0.41599 0.0
C3264 C 0.64779 0.32577 0.44518 0.0
C3265 C 0.67348 0.35169 0.44103 0.0
C3266 C 0.65997 0.31816 0.45295 0.0
C3267 C 0.65823 0.31254 0.46792 0.0
C3268 C 0.64426 0.31428 0.4755 0.0
C3269 C 0.63193 0.3216 0.46768 0.0
C3270 C 0.63363 0.32717 0.45263 0.0
H3271 H 0.67959 0.36321 0.43843 0.0
H3272 H 0.6673 0.35375 0.45197 0.0
H3273 H 0.68272 0.34346 0.44349 0.0
H3274 H 0.67089 0.31659 0.44747 0.0
H3275 H 0.668 0.30706 0.47372 0.0
H3276 H 0.02884 0.28344 0.72564 0.0
H3277 H 0.03054 0.29097 0.69862 0.0
H3278 H 0.98139 0.2728 0.68645 0.0
H3279 H 0.97908 0.26824 0.71441 0.0
H3280 H 0.03113 0.28239 0.67309 0.0
H3281 H 0.9709 0.28859 0.66764 0.0
H3282 H 0.97381 0.30969 0.66743 0.0
H3283 H 0.97964 0.30083 0.68521 0.0
C3284 C 0.01837 0.28152 0.71716 0.0
C3285 C 0.00373 0.27622 0.72213 0.0
C3286 C 0.01934 0.28558 0.70166 0.0
C3287 C 0.00591 0.28354 0.69043 0.0
C3288 C 0.99168 0.27598 0.69497 0.0
H3289 H 0.99409 0.2896 0.59232 0.0
H3290 H 0.9937 0.28649 0.62062 0.0
C3291 C 0.99041 0.27294 0.71088 0.0
C3292 C 0.00728 0.28962 0.67438 0.0
H3293 H 0.98844 0.30895 0.64537 0.0
C3294 C 0.02182 0.28859 0.66746 0.0
C3295 C 0.99519 0.29747 0.66633 0.0
C3296 C 0.97909 0.29931 0.67213 0.0
C3297 C 0.02457 0.29506 0.65315 0.0
C3298 C 0.01226 0.30224 0.64506 0.0
C3299 C 0.9979 0.30357 0.65184 0.0
C3300 C 0.01259 0.30526 0.6282 0.0
C3301 C 0.0404 0.29366 0.64645 0.0
C3302 C 0.02325 0.31705 0.62314 0.0
C3303 C 0.02352 0.31876 0.60683 0.0
C3304 C 0.01307 0.30876 0.59569 0.0
C3305 C 1.00221 0.29739 0.60082 0.0
C3306 C 1.00199 0.29564 0.61694 0.0
H3307 H 0.0484 0.28682 0.65375 0.0
H3308 H 0.03856 0.28778 0.63409 0.0
H3309 H 0.04648 0.30576 0.64601 0.0
H3310 H 0.03136 0.32475 0.63172 0.0
H3311 H 0.03194 0.32766 0.60293 0.0
H3312 H 0.30838 0.81359 0.15653 0.0
H3313 H 0.31012 0.80184 0.12922 0.0
H3314 H 0.31384 0.75573 0.14643 0.0
H3315 H 0.31202 0.76729 0.17356 0.0
H3316 H 0.33446 0.78705 0.11723 0.0
H3317 H 0.28052 0.74387 0.10924 0.0
H3318 H 0.2835 0.76009 0.1249 0.0
H3319 H 0.29331 0.74226 0.12697 0.0
C3320 C 0.30952 0.80093 0.1545 0.0
C3321 C 0.30995 0.79142 0.16735 0.0
C3322 C 0.31044 0.79419 0.13883 0.0
C3323 C 0.31183 0.77777 0.13557 0.0
C3324 C 0.31229 0.76829 0.1484 0.0
H3325 H 0.32931 0.71719 0.04949 0.0
H3326 H 0.32614 0.72765 0.07706 0.0
C3327 C 0.31129 0.77498 0.16401 0.0
C3328 C 0.31385 0.77075 0.119 0.0
H3329 H 0.29884 0.7414 0.08958 0.0
C3330 C 0.32657 0.77714 0.11118 0.0
C3331 C 0.30371 0.75768 0.11103 0.0
C3332 C 0.2894 0.75064 0.11837 0.0
C3333 C 0.32955 0.77079 0.09587 0.0
C3334 C 0.3194 0.7578 0.08785 0.0
C3335 C 0.3067 0.75131 0.09567 0.0
C3336 C 0.32152 0.75129 0.07114 0.0
C3337 C 0.34381 0.77786 0.08852 0.0
C3338 C 0.32002 0.761 0.05853 0.0
C3339 C 0.32191 0.75507 0.04286 0.0
C3340 C 0.32527 0.73925 0.03932 0.0
C3341 C 0.32692 0.7295 0.05188 0.0
C3342 C 0.32497 0.73544 0.06762 0.0
H3343 H 0.35256 0.78491 0.09758 0.0
H3344 H 0.34989 0.76837 0.08227 0.0
H3345 H 0.33981 0.78594 0.07965 0.0
H3346 H 0.3171 0.77316 0.06078 0.0
H3347 H 0.32034 0.76279 0.03341 0.0
H3348 H 0.98454 0.61423 0.76805 0.0
H3349 H 0.98572 0.62529 0.79598 0.0
H3350 H 0.01446 0.66691 0.78532 0.0
H3351 H 0.01368 0.6559 0.75758 0.0
H3352 H 0.01644 0.64155 0.81982 0.0
H3353 H 0.96841 0.67893 0.80093 0.0
H3354 H 0.97122 0.66019 0.79004 0.0
H3355 H 0.98468 0.67749 0.78866 0.0
C3356 C 0.99138 0.62559 0.77173 0.0
C3357 C 0.99877 0.63436 0.76056 0.0
C3358 C 0.99204 0.63185 0.78765 0.0
C3359 C 1.0001 0.64691 0.79254 0.0
C3360 C 0.00815 0.65529 0.78165 0.0
H3361 H 0.99918 0.71734 0.87261 0.0
H3362 H 0.00489 0.70251 0.84773 0.0
C3363 C 0.00753 0.64906 0.7658 0.0
C3364 C 0.99876 0.65476 0.80852 0.0
H3365 H 0.97998 0.68392 0.82743 0.0
C3366 C 0.00843 0.65075 0.82159 0.0
C3367 C 0.98832 0.66674 0.81061 0.0
C3368 C 0.97746 0.67111 0.79688 0.0
C3369 C 0.00809 0.65874 0.83681 0.0
C3370 C 0.99774 0.67086 0.83884 0.0
C3371 C 0.988 0.67472 0.82575 0.0
C3372 C 0.99633 0.67944 0.85453 0.0
C3373 C 0.019 0.65446 0.85051 0.0
C3374 C 0.98976 0.67131 0.86651 0.0
C3375 C 0.98651 0.67974 0.8806 0.0
C3376 C 0.98976 0.69634 0.88279 0.0
C3377 C 0.99671 0.70448 0.87106 0.0
C3378 C 0.99995 0.69605 0.85694 0.0
H3379 H 0.02855 0.64737 0.84635 0.0
H3380 H 0.02458 0.66538 0.85786 0.0
H3381 H 0.01196 0.64726 0.85825 0.0
H3382 H 0.98655 0.65855 0.8647 0.0
H3383 H 0.98099 0.67334 0.88954 0.0
H3384 H 0.64108 0.34487 0.62161 0.0
H3385 H 0.61433 0.34509 0.63098 0.0
H3386 H 0.63525 0.36528 0.67737 0.0
H3387 H 0.66181 0.36525 0.66816 0.0
H3388 H 0.60117 0.33076 0.6595 0.0
H3389 H 0.60221 0.39664 0.66272 0.0
H3390 H 0.61503 0.38563 0.65083 0.0
H3391 H 0.61967 0.38929 0.67202 0.0
C3392 C 0.64001 0.34946 0.63379 0.0
C3393 C 0.6538 0.35507 0.64406 0.0
C3394 C 0.62466 0.34944 0.63918 0.0
C3395 C 0.62264 0.35528 0.65492 0.0
C3396 C 0.63636 0.36078 0.66517 0.0
H3397 H 0.54667 0.37568 0.71473 0.0
H3398 H 0.57174 0.3727 0.70261 0.0
C3399 C 0.65164 0.36067 0.65986 0.0
C3400 C 0.60634 0.35621 0.66065 0.0
H3401 H 0.58148 0.383 0.67463 0.0
C3402 C 0.59679 0.34218 0.66265 0.0
C3403 C 0.6005 0.37106 0.66485 0.0
C3404 C 0.60978 0.38655 0.66241 0.0
C3405 C 0.58193 0.34265 0.66917 0.0
C3406 C 0.57624 0.35758 0.67361 0.0
C3407 C 0.58572 0.37154 0.67135 0.0
C3408 C 0.56074 0.35914 0.68095 0.0
C3409 C 0.57274 0.32717 0.67183 0.0
C3410 C 0.54599 0.35277 0.67285 0.0
C3411 C 0.5316 0.35466 0.67974 0.0
C3412 C 0.53157 0.36309 0.69483 0.0
C3413 C 0.54625 0.36951 0.7029 0.0
C3414 C 0.56062 0.36766 0.69602 0.0
H3415 H 0.58024 0.31703 0.67116 0.0
H3416 H 0.56791 0.32806 0.68363 0.0
H3417 H 0.56255 0.32448 0.66253 0.0
H3418 H 0.54556 0.34638 0.66114 0.0
H3419 H 0.5205 0.34926 0.67337 0.0
H3420 H 0.843 0.66794 0.20473 0.0
H3421 H 0.87058 0.66895 0.21658 0.0
H3422 H 0.86713 0.71602 0.23914 0.0
H3423 H 0.83979 0.71541 0.22699 0.0
H3424 H 0.89906 0.69264 0.2165 0.0
H3425 H 0.87797 0.68806 0.27649 0.0
H3426 H 0.86491 0.68307 0.25836 0.0
H3427 H 0.87063 0.70357 0.26546 0.0
C3428 C 0.84813 0.67867 0.21194 0.0
C3429 C 0.83886 0.69146 0.21509 0.0
C3430 C 0.86394 0.67918 0.2188 0.0
C3431 C 0.87086 0.69242 0.22906 0.0
C3432 C 0.86198 0.70553 0.23155 0.0
H3433 H 0.96159 0.71362 0.28801 0.0
H3434 H 0.93492 0.71418 0.27458 0.0
C3435 C 0.84624 0.70509 0.22463 0.0
C3436 C 0.88699 0.69219 0.23781 0.0
H3437 H 0.90584 0.69101 0.27515 0.0
C3438 C 0.90053 0.6922 0.2293 0.0
C3439 C 0.88899 0.6918 0.25457 0.0
C3440 C 0.87489 0.69151 0.26432 0.0
C3441 C 0.91593 0.69189 0.23711 0.0
C3442 C 0.91787 0.69116 0.2538 0.0
C3443 C 0.90437 0.69137 0.26233 0.0
C3444 C 0.93387 0.69041 0.2626 0.0
C3445 C 0.93015 0.69276 0.22755 0.0
C3446 C 0.94218 0.67675 0.26066 0.0
C3447 C 0.95741 0.67631 0.26868 0.0
C3448 C 0.96463 0.68953 0.27874 0.0
C3449 C 0.95626 0.70311 0.2807 0.0
C3450 C 0.94101 0.70349 0.27289 0.0
H3451 H 0.927 0.69593 0.21528 0.0
H3452 H 0.93966 0.70172 0.23356 0.0
H3453 H 0.93509 0.68102 0.22672 0.0
H3454 H 0.9369 0.66646 0.25285 0.0
H3455 H 0.96364 0.66575 0.2668 0.0
H3456 H 0.25106 0.01454 0.34923 0.0
H3457 H 0.22415 0.01759 0.33777 0.0
H3458 H 0.2045 0.99397 0.37572 0.0
H3459 H 0.23148 0.99033 0.3871 0.0
H3460 H 0.19881 0.98682 0.33107 0.0
H3461 H 0.18355 0.03974 0.3688 0.0
H3462 H 0.20393 0.03678 0.36548 0.0
H3463 H 0.19349 0.02439 0.37804 0.0
C3464 C 0.24105 0.00988 0.35512 0.0
C3465 C 0.24341 1.00192 0.36891 0.0
C3466 C 0.22571 0.01178 0.34863 0.0
C3467 C 0.21248 0.00595 0.35591 0.0
C3468 C 0.21468 0.99855 0.37001 0.0
H3469 H 0.1124 0.01171 0.3254 0.0
H3470 H 0.13716 0.00571 0.34011 0.0
C3471 C 0.23007 0.99654 0.37649 0.0
C3472 C 0.19642 0.00675 0.34805 0.0
H3473 H 0.16461 0.02883 0.34774 0.0
C3474 C 0.19123 0.9959 0.33475 0.0
C3475 C 0.18673 0.01864 0.35298 0.0
C3476 C 0.19211 0.03064 0.36708 0.0
C3477 C 0.17653 0.99676 0.32603 0.0
C3478 C 0.16699 0.00891 0.3307 0.0
C3479 C 0.17203 0.01954 0.34425 0.0
C3480 C 0.15198 0.01119 0.32136 0.0
C3481 C 0.1713 0.98472 0.31192 0.0
C3482 C 0.15223 0.01613 0.30597 0.0
C3483 C 0.13816 0.01955 0.29763 0.0
C3484 C 0.12381 0.01806 0.30465 0.0
C3485 C 0.12346 0.01281 0.31985 0.0
C3486 C 0.13751 0.00943 0.32821 0.0
H3487 H 0.17823 0.97415 0.31205 0.0
H3488 H 0.15843 0.98066 0.31168 0.0
H3489 H 0.17312 0.99033 0.30077 0.0
H3490 H 0.16336 0.01779 0.30063 0.0
H3491 H 0.13856 0.02374 0.28592 0.0
H3492 H 0.27691 0.96999 0.72219 0.0
H3493 H 0.30463 0.96718 0.71663 0.0
H3494 H 0.31449 0.01838 0.72215 0.0
H3495 H 0.28694 0.02113 0.72793 0.0
H3496 H 0.31724 0.97862 0.69056 0.0
H3497 H 0.35401 0.00474 0.7453 0.0
H3498 H 0.33295 0.99883 0.7451 0.0
H3499 H 0.33976 0.01788 0.73885 0.0
C3500 C 0.28519 0.98058 0.72264 0.0
C3501 C 0.2799 0.99577 0.72534 0.0
C3502 C 0.30097 0.97898 0.71942 0.0
C3503 C 0.31167 0.99256 0.71895 0.0
C3504 C 0.30657 0.00771 0.7227 0.0
H3505 H 0.39417 0.0276 0.68076 0.0
H3506 H 0.36829 0.02071 0.69046 0.0
C3507 C 0.29083 0.0093 0.72594 0.0
C3508 C 0.32751 0.99115 0.71288 0.0
H3509 H 0.36685 0.00467 0.72091 0.0
C3510 C 0.32815 0.98398 0.69733 0.0
C3511 C 0.34177 0.99811 0.72169 0.0
C3512 C 0.34212 0.00517 0.73872 0.0
C3513 C 0.34249 0.98451 0.69005 0.0
C3514 C 0.3565 0.99234 0.69858 0.0
C3515 C 0.35603 0.99874 0.71437 0.0
C3516 C 0.37139 0.99564 0.69096 0.0
C3517 C 0.34247 0.97753 0.67304 0.0
C3518 C 0.38161 0.98374 0.68782 0.0
C3519 C 0.39649 0.9877 0.68228 0.0
C3520 C 0.40115 0.00357 0.67985 0.0
C3521 C 0.39073 0.01529 0.68253 0.0
C3522 C 0.37599 0.01137 0.68806 0.0
H3523 H 0.3305 0.972 0.66799 0.0
H3524 H 0.34643 0.98701 0.66558 0.0
H3525 H 0.35103 0.96832 0.67238 0.0
H3526 H 0.37831 0.97155 0.69011 0.0
H3527 H 0.40445 0.97852 0.68028 0.0
H3528 H 0.66587 0.66154 0.37324 0.0
H3529 H 0.67542 0.63498 0.37382 0.0
H3530 H 0.63678 0.61564 0.33905 0.0
H3531 H 0.62695 0.64223 0.33874 0.0
H3532 H 0.65744 0.60553 0.38123 0.0
H3533 H 0.67847 0.60015 0.32077 0.0
H3534 H 0.67554 0.61915 0.33106 0.0
H3535 H 0.65867 0.60606 0.32219 0.0
C3536 C 0.65938 0.65163 0.36573 0.0
C3537 C 0.64559 0.65405 0.35601 0.0
C3538 C 0.66487 0.63641 0.36606 0.0
C3539 C 0.65698 0.6232 0.35638 0.0
C3540 C 0.64322 0.62558 0.34656 0.0
H3541 H 0.67628 0.52221 0.34383 0.0
H3542 H 0.66529 0.54803 0.34207 0.0
C3543 C 0.63752 0.64078 0.34647 0.0
C3544 C 0.66293 0.60695 0.35705 0.0
H3545 H 0.68026 0.57789 0.33564 0.0
C3546 C 0.66244 0.59953 0.37125 0.0
C3547 C 0.66942 0.59894 0.34405 0.0
C3548 C 0.67072 0.60645 0.32865 0.0
C3549 C 0.66809 0.58443 0.37277 0.0
C3550 C 0.67485 0.57651 0.35989 0.0
C3551 C 0.67519 0.58386 0.3456 0.0
C3552 C 0.68155 0.56065 0.36111 0.0
C3553 C 0.66641 0.57687 0.38808 0.0
C3554 C 0.69445 0.5589 0.37236 0.0
C3555 C 0.70071 0.54406 0.37342 0.0
C3556 C 0.69417 0.53057 0.36332 0.0
C3557 C 0.68133 0.53229 0.35205 0.0
C3558 C 0.67513 0.54712 0.35093 0.0
H3559 H 0.65766 0.58251 0.39526 0.0
H3560 H 0.66259 0.56392 0.38563 0.0
H3561 H 0.67811 0.57827 0.39533 0.0
H3562 H 0.69991 0.56912 0.38015 0.0
H3563 H 0.71089 0.54323 0.3819 0.0
H3564 H 0.72601 0.27798 0.97003 0.0
H3565 H 0.72076 0.30574 0.96692 0.0
H3566 H 0.72496 0.31584 0.01806 0.0
H3567 H 0.73006 0.28814 0.02111 0.0
H3568 H 0.69393 0.31799 0.97847 0.0
H3569 H 0.74863 0.35532 0.00383 0.0
H3570 H 0.74854 0.33429 0.99773 0.0
H3571 H 0.74251 0.34087 0.01691 0.0
C3572 C 0.72621 0.28631 0.98054 0.0
C3573 C 0.72817 0.28105 0.9958 0.0
C3574 C 0.72322 0.30211 0.97877 0.0
C3575 C 0.72244 0.31285 0.99225 0.0
C3576 C 0.72568 0.30782 0.00749 0.0
H3577 H 0.68465 0.39535 0.02768 0.0
H3578 H 0.69545 0.36996 0.02088 0.0
C3579 C 0.72851 0.29201 0.00926 0.0
C3580 C 0.71629 0.32857 0.99065 0.0
H3581 H 0.72409 0.36796 0.00396 0.0
C3582 C 0.70063 0.32899 0.98371 0.0
C3583 C 0.72506 0.3429 0.99742 0.0
C3584 C 0.74218 0.34337 0.00425 0.0
C3585 C 0.69316 0.34321 0.98437 0.0
C3586 C 0.70165 0.35733 0.99206 0.0
C3587 C 0.71757 0.35707 0.99816 0.0
C3588 C 0.69388 0.37211 0.99553 0.0
C3589 C 0.67604 0.34292 0.97761 0.0
C3590 C 0.68925 0.38165 0.98346 0.0
C3591 C 0.6831 0.39624 0.98738 0.0
C3592 C 0.68156 0.40132 0.00336 0.0
C3593 C 0.68585 0.39163 0.0153 0.0
C3594 C 0.69198 0.37716 0.01142 0.0
H3595 H 0.67053 0.3306 0.97385 0.0
H3596 H 0.66892 0.34862 0.98653 0.0
H3597 H 0.67546 0.34986 0.96708 0.0
H3598 H 0.69073 0.37799 0.97113 0.0
H3599 H 0.67977 0.40359 0.97801 0.0
H3600 H 0.24242 0.83063 0.69164 0.0
H3601 H 0.25426 0.85804 0.69162 0.0
H3602 H 0.20772 0.87496 0.69231 0.0
H3603 H 0.19571 0.84739 0.69233 0.0
H3604 H 0.24707 0.87901 0.668 0.0
H3605 H 0.236 0.90438 0.72835 0.0
H3606 H 0.23561 0.88319 0.72294 0.0
H3607 H 0.21896 0.89368 0.71668 0.0
C3608 C 0.23468 0.84018 0.69199 0.0
C3609 C 0.21809 0.83676 0.69203 0.0
C3610 C 0.24149 0.85587 0.69191 0.0
C3611 C 0.23195 0.86865 0.6921 0.0
C3612 C 0.21538 0.86535 0.69235 0.0
H3613 H 0.24901 0.96998 0.68146 0.0
H3614 H 0.23779 0.9426 0.68356 0.0
C3615 C 0.20851 0.84957 0.69222 0.0
C3616 C 0.23933 0.88522 0.69109 0.0
H3617 H 0.24599 0.9226 0.711 0.0
C3618 C 0.24687 0.88852 0.67744 0.0
C3619 C 0.23922 0.89764 0.70345 0.0
C3620 C 0.23215 0.89461 0.71877 0.0
C3621 C 0.25394 0.90389 0.67564 0.0
C3622 C 0.2536 0.91637 0.68785 0.0
C3623 C 0.24618 0.91307 0.70159 0.0
C3624 C 0.2606 0.93298 0.68637 0.0
C3625 C 0.26146 0.90679 0.66053 0.0
C3626 C 0.2772 0.93674 0.68712 0.0
C3627 C 0.28366 0.95249 0.68612 0.0
C3628 C 0.27364 0.96472 0.68425 0.0
C3629 C 0.25706 0.96085 0.68305 0.0
C3630 C 0.25061 0.94519 0.68426 0.0
H3631 H 0.25866 0.89656 0.65125 0.0
H3632 H 0.25734 0.91766 0.65569 0.0
H3633 H 0.2746 0.90878 0.66321 0.0
H3634 H 0.28518 0.92755 0.68879 0.0
H3635 H 0.29648 0.95513 0.68717 0.0
H3636 H 0.37959 0.23052 0.9794 0.0
H3637 H 0.36798 0.20344 0.98255 0.0
H3638 H 0.35088 0.22068 0.02679 0.0
H3639 H 0.36222 0.24766 0.02363 0.0
H3640 H 0.37082 0.18242 0.00723 0.0
H3641 H 0.31021 0.20239 0.9987 0.0
H3642 H 0.32775 0.21413 0.99407 0.0
H3643 H 0.32284 0.21419 0.01432 0.0
C3644 C 0.37352 0.22844 0.98988 0.0
C3645 C 0.37147 0.24119 1.00111 0.0
C3646 C 0.36691 0.21302 0.99165 0.0
C3647 C 0.35825 0.21021 0.00469 0.0
C3648 C 0.35717 0.22272 0.01644 0.0
H3649 H 0.303 0.13537 0.04211 0.0
H3650 H 0.31821 0.15993 0.03634 0.0
C3651 C 0.36363 0.2381 0.01462 0.0
C3652 C 0.34945 0.1945 0.00568 0.0
H3653 H 0.31205 0.17695 0.00838 0.0
C3654 C 0.35796 0.18113 0.00731 0.0
C3655 C 0.33266 0.19289 0.00561 0.0
C3656 C 0.3228 0.20663 0.00292 0.0
C3657 C 0.35011 0.16629 0.00961 0.0
C3658 C 0.3334 0.1649 0.01016 0.0
C3659 C 0.32488 0.17815 0.00806 0.0
C3660 C 0.32449 0.14997 0.01354 0.0
C3661 C 0.35975 0.15236 0.01202 0.0
C3662 C 0.32282 0.13641 0.00249 0.0
C3663 C 0.31408 0.12247 0.00575 0.0
C3664 C 0.30692 0.12203 0.02003 0.0
C3665 C 0.30842 0.13559 0.03099 0.0
C3666 C 0.31711 0.14953 0.02773 0.0
H3667 H 0.37277 0.15603 0.01369 0.0
H3668 H 0.35627 0.14641 0.02254 0.0
H3669 H 0.3573 0.14349 1.00143 0.0
H3670 H 0.32822 0.13665 0.99136 0.0
H3671 H 0.31302 0.11202 0.9972 0.0
H3672 H 0.35558 0.67029 0.66172 0.0
H3673 H 0.35584 0.67997 0.63546 0.0
H3674 H 0.35632 0.63187 0.61413 0.0
H3675 H 0.35542 0.62195 0.64042 0.0
H3676 H 0.37786 0.67905 0.61527 0.0
H3677 H 0.32246 0.647 0.58412 0.0
H3678 H 0.3269 0.64806 0.60545 0.0
H3679 H 0.33571 0.6339 0.59263 0.0
C3680 C 0.35543 0.66163 0.65148 0.0
C3681 C 0.35537 0.64522 0.65343 0.0
C3682 C 0.3557 0.66726 0.63635 0.0
C3683 C 0.35588 0.65674 0.62255 0.0
C3684 C 0.35584 0.64033 0.6244 0.0
H3685 H 0.3681 0.67222 0.52219 0.0
H3686 H 0.36565 0.66079 0.54779 0.0
C3687 C 0.35557 0.63466 0.63958 0.0
C3688 C 0.3571 0.66314 0.60654 0.0
H3689 H 0.33994 0.66039 0.56794 0.0
C3690 C 0.36949 0.67496 0.60498 0.0
C3691 C 0.3462 0.65798 0.59293 0.0
C3692 C 0.33197 0.64616 0.59384 0.0
C3693 C 0.37148 0.68148 0.59041 0.0
C3694 C 0.36075 0.67622 0.57677 0.0
C3695 C 0.34831 0.66439 0.57826 0.0
C3696 C 0.36219 0.6831 0.56105 0.0
C3697 C 0.38532 0.69382 0.58968 0.0
C3698 C 0.36101 0.69945 0.55975 0.0
C3699 C 0.36262 0.70598 0.54519 0.0
C3700 C 0.36543 0.69638 0.53149 0.0
C3701 C 0.36642 0.68001 0.53264 0.0
C3702 C 0.36482 0.67344 0.54726 0.0
H3703 H 0.39461 0.69369 0.59978 0.0
H3704 H 0.39086 0.69187 0.57834 0.0
H3705 H 0.38096 0.70584 0.5903 0.0
H3706 H 0.35858 0.70716 0.56998 0.0
H3707 H 0.36124 0.71853 0.54456 0.0
H3708 H 0.02027 0.72322 0.28514 0.0
H3709 H 0.01978 0.71879 0.31291 0.0
H3710 H 0.97506 0.73963 0.31412 0.0
H3711 H 0.97524 0.74319 0.28569 0.0
H3712 H 0.02049 0.72664 0.33861 0.0
H3713 H 0.95634 0.70308 0.33005 0.0
H3714 H 0.96671 0.70905 0.31372 0.0
H3715 H 0.95969 0.72381 0.32756 0.0
C3716 C 0.01034 0.72685 0.29139 0.0
C3717 C 0.99743 0.73276 0.28322 0.0
C3718 C 0.00997 0.7243 0.30739 0.0
C3719 C 0.99661 0.72739 0.31561 0.0
C3720 C 0.98477 0.73555 0.30791 0.0
H3721 H 0.00331 0.70797 0.41455 0.0
H3722 H 0.99705 0.71987 0.38966 0.0
C3723 C 0.98503 0.73795 0.29171 0.0
C3724 C 0.99522 0.72118 0.33163 0.0
H3725 H 0.97024 0.701 0.35457 0.0
C3726 C 0.00941 0.72077 0.34161 0.0
C3727 C 0.9808 0.71368 0.33637 0.0
C3728 C 0.96505 0.71231 0.32633 0.0
C3729 C 0.00987 0.71224 0.35504 0.0
C3730 C 0.99553 0.70539 0.35986 0.0
C3731 C 0.98117 0.7064 0.35071 0.0
C3732 C 0.99557 0.69759 0.37475 0.0
C3733 C 0.02577 0.70991 0.36364 0.0
C3734 C 0.99622 0.68104 0.37452 0.0
C3735 C 0.99985 0.67424 0.38874 0.0
C3736 C 1.00276 0.68398 0.40317 0.0
C3737 C 1.00101 0.7003 0.40349 0.0
C3738 C 0.99742 0.70708 0.38934 0.0
H3739 H 0.03595 0.71465 0.35744 0.0
H3740 H 0.02677 0.71591 0.37592 0.0
H3741 H 0.02669 0.69699 0.36457 0.0
H3742 H 0.99489 0.67358 0.36331 0.0
H3743 H 1.00122 0.6616 0.38835 0.0
H3744 H 0.69507 0.19521 0.8469 0.0
H3745 H 0.69549 0.20686 0.87469 0.0
H3746 H 0.6907 0.25316 0.85835 0.0
H3747 H 0.69033 0.24172 0.83074 0.0
H3748 H 0.71744 0.23784 0.89174 0.0
H3749 H 0.65175 0.24072 0.88664 0.0
H3750 H 0.66118 0.2265 0.8743 0.0
H3751 H 0.66242 0.24704 0.87043 0.0
C3752 C 0.69411 0.20787 0.84925 0.0
C3753 C 0.69266 0.21751 0.83654 0.0
C3754 C 0.69446 0.21453 0.86514 0.0
C3755 C 0.6931 0.2309 0.86864 0.0
C3756 C 0.69179 0.24052 0.85599 0.0
H3757 H 0.68939 0.29683 0.95391 0.0
H3758 H 0.69087 0.2845 0.92663 0.0
C3759 C 0.69163 0.23394 0.84018 0.0
C3760 C 0.69228 0.23797 0.88535 0.0
H3761 H 0.6663 0.25293 0.91034 0.0
C3762 C 0.70625 0.24104 0.89585 0.0
C3763 C 0.67771 0.24225 0.89072 0.0
C3764 C 0.66234 0.23892 0.88004 0.0
C3765 C 0.70601 0.24844 0.91145 0.0
C3766 C 0.69143 0.25281 0.91676 0.0
C3767 C 0.67748 0.24966 0.90628 0.0
C3768 C 0.6904 0.26037 0.93326 0.0
C3769 C 0.72133 0.25182 0.92219 0.0
C3770 C 0.68937 0.25092 0.94605 0.0
C3771 C 0.68825 0.25792 0.96155 0.0
C3772 C 0.68827 0.27452 0.96464 0.0
C3773 C 0.68917 0.28399 0.95185 0.0
C3774 C 0.69013 0.27696 0.93629 0.0
H3775 H 0.73183 0.24851 0.91607 0.0
H3776 H 0.72316 0.2647 0.9265 0.0
H3777 H 0.72056 0.24506 0.93279 0.0
H3778 H 0.68947 0.23811 0.94403 0.0
H3779 H 0.68757 0.2503 0.97113 0.0
H3780 H 0.99374 0.34332 0.24584 0.0
H3781 H 0.99685 0.33238 0.21887 0.0
H3782 H 0.01047 0.37961 0.20617 0.0
H3783 H 0.0084 0.3906 0.23357 0.0
H3784 H 0.98208 0.33691 0.19109 0.0
H3785 H 0.04659 0.35631 0.19148 0.0
H3786 H 0.03633 0.35789 0.20926 0.0
H3787 H 0.03444 0.37237 0.19503 0.0
C3788 C 0.99768 0.35139 0.23742 0.0
C3789 C 1.00109 0.3678 0.24196 0.0
C3790 C 0.99928 0.34513 0.22194 0.0
C3791 C 0.00417 0.35513 0.21058 0.0
C3792 C 0.00706 0.37162 0.21485 0.0
H3793 H 0.02112 0.33015 0.11195 0.0
H3794 H 0.01471 0.34431 0.13682 0.0
C3795 C 0.00566 0.3779 0.23046 0.0
C3796 C 0.00619 0.34805 0.19434 0.0
H3797 H 0.03361 0.34312 0.16748 0.0
C3798 C 0.99334 0.33829 0.18592 0.0
C3799 C 0.02092 0.34986 0.18763 0.0
C3800 C 0.03541 0.35955 0.19636 0.0
C3801 C 0.99488 0.33013 0.17107 0.0
C3802 C 0.00961 0.33184 0.16449 0.0
C3803 C 0.02233 0.34189 0.17265 0.0
C3804 C 0.01224 0.32308 0.14925 0.0
C3805 C 0.98079 0.31971 0.16252 0.0
C3806 C 0.0129 0.30649 0.1481 0.0
C3807 C 0.01662 0.29844 0.13395 0.0
C3808 C 0.0197 0.30696 0.12092 0.0
C3809 C 0.01876 0.32345 0.12196 0.0
C3810 C 0.01511 0.3315 0.13609 0.0
H3811 H 0.9695 0.32201 0.16773 0.0
H3812 H 0.97948 0.32164 0.14969 0.0
H3813 H 0.98275 0.307 0.16343 0.0
H3814 H 0.01093 0.29986 0.15824 0.0
H3815 H 0.01735 0.28568 0.13328 0.0
loop_
_geom_bond_atom_site_label_1
_geom_bond_atom_site_label_2
_geom_bond_distance
_geom_bond_site_symmetry_2
_ccdc_geom_bond_type
C0 C1 1.264 . S
C0 C5 1.479 . S
C0 C10 1.465 . S
C1 C0 1.264 . S
C1 C3 1.339 . S
C1 H28 0.931 . S
C2 C3 1.395 . S
C2 C4 1.320 . S
C3 C1 1.339 . S
C3 C2 1.395 . S
C3 H29 0.929 . S
C4 C2 1.320 . S
C4 C5 1.405 . S
C4 H30 0.930 . S
C5 C0 1.479 . S
C5 C4 1.405 . S
C5 H31 0.931 . S
U6 O7 2.454 . S
U6 O8 2.458 . S
U6 C9 2.984 . S
U6 C10 2.847 . S
U6 C23 2.882 . S
U6 O24 2.441 . S
U6 O25 2.420 . S
U6 O26 2.455 . S
U6 O27 2.449 . S
O7 U6 2.454 . S
O7 C9 1.353 . S
O8 U6 2.458 . S
O8 C9 1.286 . S
C9 U6 2.984 . S
C9 O7 1.353 . S
C9 O8 1.286 . S
C9 C11 1.363 . S
C10 C0 1.465 . S
C10 U6 2.847 . S
C10 O24 1.249 . S
C10 O25 1.202 . S
C11 C9 1.363 . S
C11 C13 1.408 . S
C11 C16 1.342 . S
C12 C13 1.310 . S
C12 C15 1.461 . S
C12 H32 0.932 . S
C13 C11 1.408 . S
C13 C12 1.310 . S
C13 H33 0.930 . S
C14 C15 1.474 . S
C14 C16 1.285 . S
C14 H34 0.929 . S
C15 C12 1.461 . S
C15 C14 1.474 . S
C16 C11 1.342 . S
C16 C14 1.285 . S
C16 H35 0.930 . S
C17 C20 1.424 . S
C17 C22 1.245 . S
C17 C23 1.428 . S
C18 C21 1.260 . S
C18 C22 1.477 . S
C18 H36 0.932 . S
C19 C20 1.384 . S
C19 C21 1.479 . S
C19 H37 0.929 . S
C20 C17 1.424 . S
C20 C19 1.384 . S
C20 H38 0.928 . S
C21 C18 1.260 . S
C21 C19 1.479 . S
C22 C17 1.245 . S
C22 C18 1.477 . S
C22 H39 0.932 . S
C23 U6 2.882 . S
C23 C17 1.428 . S
C23 O26 1.301 . S
C23 O27 1.282 . S
O24 U6 2.441 . S
O24 C10 1.249 . S
O25 U6 2.420 . S
O25 C10 1.202 . S
O26 U6 2.455 . S
O26 C23 1.301 . S
O27 U6 2.449 . S
O27 C23 1.282 . S
H28 C1 0.931 . S
H29 C3 0.929 . S
H30 C4 0.930 . S
H31 C5 0.931 . S
H32 C12 0.932 . S
H33 C13 0.930 . S
H34 C14 0.929 . S
H35 C16 0.930 . S
H36 C18 0.932 . S
H37 C19 0.929 . S
H38 C20 0.928 . S
H39 C22 0.932 . S
C40 C41 1.264 . S
C40 C45 1.479 . S
C40 C50 1.465 . S
C41 C40 1.264 . S
C41 C43 1.339 . S
C41 H68 0.931 . S
C42 C43 1.395 . S
C42 C44 1.320 . S
C43 C41 1.339 . S
C43 C42 1.395 . S
C43 H69 0.929 . S
C44 C42 1.320 . S
C44 C45 1.405 . S
C44 H70 0.930 . S
C45 C40 1.479 . S
C45 C44 1.405 . S
C45 H71 0.931 . S
U46 O47 2.454 . S
U46 O48 2.458 . S
U46 C49 2.984 . S
U46 C50 2.847 . S
U46 C63 2.882 . S
U46 O64 2.441 . S
U46 O65 2.420 . S
U46 O66 2.455 . S
U46 O67 2.449 . S
O47 U46 2.454 . S
O47 C49 1.353 . S
O48 U46 2.458 . S
O48 C49 1.286 . S
C49 U46 2.984 . S
C49 O47 1.353 . S
C49 O48 1.286 . S
C49 C51 1.363 . S
C50 C40 1.465 . S
C50 U46 2.847 . S
C50 O64 1.249 . S
C50 O65 1.202 . S
C51 C49 1.363 . S
C51 C53 1.408 . S
C51 C56 1.342 . S
C52 C53 1.310 . S
C52 C55 1.461 . S
C52 H72 0.932 . S
C53 C51 1.408 . S
C53 C52 1.310 . S
C53 H73 0.930 . S
C54 C55 1.474 . S
C54 C56 1.285 . S
C54 H74 0.929 . S
C55 C52 1.461 . S
C55 C54 1.474 . S
C56 C51 1.342 . S
C56 C54 1.285 . S
C56 H75 0.930 . S
C57 C60 1.424 . S
C57 C62 1.245 . S
C57 C63 1.428 . S
C58 C61 1.260 . S
C58 C62 1.477 . S
C58 H76 0.932 . S
C59 C60 1.384 . S
C59 C61 1.479 . S
C59 H77 0.929 . S
C60 C57 1.424 . S
C60 C59 1.384 . S
C60 H78 0.928 . S
C61 C58 1.260 . S
C61 C59 1.479 . S
C62 C57 1.245 . S
C62 C58 1.477 . S
C62 H79 0.932 . S
C63 U46 2.882 . S
C63 C57 1.428 . S
C63 O66 1.301 . S
C63 O67 1.282 . S
O64 U46 2.441 . S
O64 C50 1.249 . S
O65 U46 2.420 . S
O65 C50 1.202 . S
O66 U46 2.455 . S
O66 C63 1.301 . S
O67 U46 2.449 . S
O67 C63 1.282 . S
H68 C41 0.931 . S
H69 C43 0.929 . S
H70 C44 0.930 . S
H71 C45 0.931 . S
H72 C52 0.932 . S
H73 C53 0.930 . S
H74 C54 0.929 . S
H75 C56 0.930 . S
H76 C58 0.932 . S
H77 C59 0.929 . S
H78 C60 0.928 . S
H79 C62 0.932 . S
C80 C81 1.264 . S
C80 C85 1.479 . S
C80 C90 1.465 . S
C81 C80 1.264 . S
C81 C83 1.339 . S
C81 H108 0.931 . S
C82 C83 1.395 . S
C82 C84 1.320 . S
C83 C81 1.339 . S
C83 C82 1.395 . S
C83 H109 0.929 . S
C84 C82 1.320 . S
C84 C85 1.405 . S
C84 H110 0.925 1_565 S
C85 C80 1.479 . S
C85 C84 1.405 . S
C85 H111 0.931 . S
U86 O87 2.454 . S
U86 O88 2.458 . S
U86 C89 2.984 . S
U86 C90 2.847 . S
U86 C103 2.882 . S
U86 O104 2.441 . S
U86 O105 2.420 . S
U86 O106 2.455 . S
U86 O107 2.449 . S
O87 U86 2.454 . S
O87 C89 1.353 . S
O88 U86 2.458 . S
O88 C89 1.286 . S
C89 U86 2.984 . S
C89 O87 1.353 . S
C89 O88 1.286 . S
C89 C91 1.363 . S
C90 C80 1.465 . S
C90 U86 2.847 . S
C90 O104 1.249 . S
C90 O105 1.202 . S
C91 C89 1.363 . S
C91 C93 1.408 . S
C91 C96 1.362 . S
C92 C93 1.310 . S
C92 C95 1.461 . S
C92 H112 0.930 . S
C93 C91 1.408 . S
C93 C92 1.310 . S
C93 H113 0.930 . S
C94 C95 1.473 1_545 S
C94 C96 1.278 1_545 S
C94 H114 0.932 . S
C95 C92 1.461 . S
C95 C94 1.473 1_565 S
C96 C91 1.362 . S
C96 C94 1.278 1_565 S
C96 H115 0.926 . S
C97 C100 1.424 . S
C97 C102 1.245 . S
C97 C103 1.428 . S
C98 C101 1.260 . S
C98 C102 1.477 . S
C98 H116 0.932 . S
C99 C100 1.384 . S
C99 C101 1.479 . S
C99 H117 0.929 . S
C100 C97 1.424 . S
C100 C99 1.384 . S
C100 H118 0.928 . S
C101 C98 1.260 . S
C101 C99 1.479 . S
C102 C97 1.245 . S
C102 C98 1.477 . S
C102 H119 0.932 . S
C103 U86 2.882 . S
C103 C97 1.428 . S
C103 O106 1.301 . S
C103 O107 1.282 . S
O104 U86 2.441 . S
O104 C90 1.249 . S
O105 U86 2.420 . S
O105 C90 1.202 . S
O106 U86 2.455 . S
O106 C103 1.301 . S
O107 U86 2.449 . S
O107 C103 1.282 . S
H108 C81 0.931 . S
H109 C83 0.929 . S
H110 C84 0.925 1_545 S
H111 C85 0.931 . S
H112 C92 0.930 . S
H113 C93 0.930 . S
H114 C94 0.932 . S
H115 C96 0.926 . S
H116 C98 0.932 . S
H117 C99 0.929 . S
H118 C100 0.928 . S
H119 C102 0.932 . S
C120 C121 1.264 . S
C120 C125 1.479 . S
C120 C130 1.465 . S
C121 C120 1.264 . S
C121 C123 1.339 . S
C121 H148 0.931 . S
C122 C123 1.395 . S
C122 C124 1.320 . S
C123 C121 1.339 . S
C123 C122 1.395 . S
C123 H149 0.929 . S
C124 C122 1.320 . S
C124 C125 1.405 . S
C124 H150 0.930 . S
C125 C120 1.479 . S
C125 C124 1.405 . S
C125 H151 0.931 . S
U126 O127 2.454 . S
U126 O128 2.458 . S
U126 C129 2.984 . S
U126 C130 2.847 . S
U126 C143 2.882 . S
U126 O144 2.441 . S
U126 O145 2.420 . S
U126 O146 2.455 . S
U126 O147 2.449 . S
O127 U126 2.454 . S
O127 C129 1.353 . S
O128 U126 2.458 . S
O128 C129 1.286 . S
C129 U126 2.984 . S
C129 O127 1.353 . S
C129 O128 1.286 . S
C129 C131 1.363 . S
C130 C120 1.465 . S
C130 U126 2.847 . S
C130 O144 1.249 . S
C130 O145 1.202 . S
C131 C129 1.363 . S
C131 C133 1.408 . S
C131 C136 1.342 . S
C132 C133 1.310 . S
C132 C135 1.461 . S
C132 H152 0.932 . S
C133 C131 1.408 . S
C133 C132 1.310 . S
C133 H153 0.930 . S
C134 C135 1.474 . S
C134 C136 1.285 . S
C134 H154 0.929 . S
C135 C132 1.461 . S
C135 C134 1.474 . S
C136 C131 1.342 . S
C136 C134 1.285 . S
C136 H155 0.930 . S
C137 C140 1.424 . S
C137 C142 1.245 . S
C137 C143 1.428 1_565 S
C138 C141 1.260 . S
C138 C142 1.477 . S
C138 H156 0.932 . S
C139 C140 1.384 . S
C139 C141 1.479 . S
C139 H157 0.929 . S
C140 C137 1.424 . S
C140 C139 1.384 . S
C140 H158 0.928 . S
C141 C138 1.260 . S
C141 C139 1.479 . S
C142 C137 1.245 . S
C142 C138 1.477 . S
C142 H159 0.932 . S
C143 U126 2.882 . S
C143 C137 1.428 1_545 S
C143 O146 1.301 . S
C143 O147 1.282 . S
O144 U126 2.441 . S
O144 C130 1.249 . S
O145 U126 2.420 . S
O145 C130 1.202 . S
O146 U126 2.455 . S
O146 C143 1.301 . S
O147 U126 2.449 . S
O147 C143 1.282 . S
H148 C121 0.931 . S
H149 C123 0.929 . S
H150 C124 0.930 . S
H151 C125 0.931 . S
H152 C132 0.932 . S
H153 C133 0.930 . S
H154 C134 0.929 . S
H155 C136 0.930 . S
H156 C138 0.932 . S
H157 C139 0.929 . S
H158 C140 0.928 . S
H159 C142 0.932 . S
C160 C161 1.264 . S
C160 C165 1.479 . S
C160 C170 1.465 . S
C161 C160 1.264 . S
C161 C163 1.339 . S
C161 H188 0.931 . S
C162 C163 1.395 . S
C162 C164 1.320 . S
C163 C161 1.339 . S
C163 C162 1.395 . S
C163 H189 0.929 . S
C164 C162 1.320 . S
C164 C165 1.405 . S
C164 H190 0.930 . S
C165 C160 1.479 . S
C165 C164 1.405 . S
C165 H191 0.931 . S
U166 O167 2.454 . S
U166 O168 2.458 . S
U166 C169 2.984 . S
U166 C170 2.847 . S
U166 C183 2.882 . S
U166 O184 2.441 . S
U166 O185 2.420 . S
U166 O186 2.455 . S
U166 O187 2.449 . S
O167 U166 2.454 . S
O167 C169 1.353 . S
O168 U166 2.458 . S
O168 C169 1.286 . S
C169 U166 2.984 . S
C169 O167 1.353 . S
C169 O168 1.286 . S
C169 C171 1.363 . S
C170 C160 1.465 . S
C170 U166 2.847 . S
C170 O184 1.249 . S
C170 O185 1.202 . S
C171 C169 1.363 . S
C171 C173 1.408 . S
C171 C176 1.342 . S
C172 C173 1.310 . S
C172 C175 1.461 . S
C172 H192 0.932 . S
C173 C171 1.408 . S
C173 C172 1.310 . S
C173 H193 0.930 . S
C174 C175 1.474 . S
C174 C176 1.285 . S
C174 H194 0.929 . S
C175 C172 1.461 . S
C175 C174 1.474 . S
C176 C171 1.342 . S
C176 C174 1.285 . S
C176 H195 0.930 . S
C177 C180 1.424 . S
C177 C182 1.245 . S
C177 C183 1.428 . S
C178 C181 1.260 . S
C178 C182 1.477 . S
C178 H196 0.932 . S
C179 C180 1.384 . S
C179 C181 1.479 . S
C179 H197 0.929 . S
C180 C177 1.424 . S
C180 C179 1.384 . S
C180 H198 0.928 . S
C181 C178 1.260 . S
C181 C179 1.479 . S
C182 C177 1.245 . S
C182 C178 1.477 . S
C182 H199 0.932 . S
C183 U166 2.882 . S
C183 C177 1.428 . S
C183 O186 1.301 . S
C183 O187 1.282 . S
O184 U166 2.441 . S
O184 C170 1.249 . S
O185 U166 2.420 . S
O185 C170 1.202 . S
O186 U166 2.455 . S
O186 C183 1.301 . S
O187 U166 2.449 . S
O187 C183 1.282 . S
H188 C161 0.931 . S
H189 C163 0.929 . S
H190 C164 0.930 . S
H191 C165 0.931 . S
H192 C172 0.932 . S
H193 C173 0.930 . S
H194 C174 0.929 . S
H195 C176 0.930 . S
H196 C178 0.932 . S
H197 C179 0.929 . S
H198 C180 0.928 . S
H199 C182 0.932 . S
C200 C201 1.264 . S
C200 C205 1.479 . S
C200 C210 1.465 . S
C201 C200 1.264 . S
C201 C203 1.339 . S
C201 H228 0.931 . S
C202 C203 1.395 . S
C202 C204 1.320 . S
C203 C201 1.339 . S
C203 C202 1.395 . S
C203 H229 0.929 . S
C204 C202 1.320 . S
C204 C205 1.405 . S
C204 H230 0.930 . S
C205 C200 1.479 . S
C205 C204 1.405 . S
C205 H231 0.931 . S
U206 O207 2.454 . S
U206 O208 2.458 . S
U206 C209 2.984 . S
U206 C210 2.847 . S
U206 C223 2.882 . S
U206 O224 2.441 . S
U206 O225 2.420 . S
U206 O226 2.455 . S
U206 O227 2.449 . S
O207 U206 2.454 . S
O207 C209 1.353 . S
O208 U206 2.458 . S
O208 C209 1.286 . S
C209 U206 2.984 . S
C209 O207 1.353 . S
C209 O208 1.286 . S
C209 C211 1.363 . S
C210 C200 1.465 . S
C210 U206 2.847 . S
C210 O224 1.249 . S
C210 O225 1.202 . S
C211 C209 1.363 . S
C211 C213 1.408 . S
C211 C216 1.342 . S
C212 C213 1.310 . S
C212 C215 1.461 . S
C212 H232 0.932 . S
C213 C211 1.408 . S
C213 C212 1.310 . S
C213 H233 0.930 . S
C214 C215 1.474 . S
C214 C216 1.285 . S
C214 H234 0.929 . S
C215 C212 1.461 . S
C215 C214 1.474 . S
C216 C211 1.342 . S
C216 C214 1.285 . S
C216 H235 0.930 . S
C217 C220 1.424 . S
C217 C222 1.245 . S
C217 C223 1.428 1_556 S
C218 C221 1.260 . S
C218 C222 1.477 . S
C218 H236 0.932 . S
C219 C220 1.384 . S
C219 C221 1.479 . S
C219 H237 0.929 . S
C220 C217 1.424 . S
C220 C219 1.384 . S
C220 H238 0.928 . S
C221 C218 1.260 . S
C221 C219 1.479 . S
C222 C217 1.245 . S
C222 C218 1.477 . S
C222 H239 0.932 . S
C223 U206 2.882 . S
C223 C217 1.428 1_554 S
C223 O226 1.301 . S
C223 O227 1.282 . S
O224 U206 2.441 . S
O224 C210 1.249 . S
O225 U206 2.420 . S
O225 C210 1.202 . S
O226 U206 2.455 . S
O226 C223 1.301 . S
O227 U206 2.449 . S
O227 C223 1.282 . S
H228 C201 0.931 . S
H229 C203 0.929 . S
H230 C204 0.930 . S
H231 C205 0.931 . S
H232 C212 0.932 . S
H233 C213 0.930 . S
H234 C214 0.929 . S
H235 C216 0.930 . S
H236 C218 0.932 . S
H237 C219 0.929 . S
H238 C220 0.928 . S
H239 C222 0.932 . S
C240 C241 1.264 . S
C240 C245 1.479 . S
C240 C250 1.465 . S
C241 C240 1.264 . S
C241 C243 1.339 . S
C241 H268 0.931 . S
C242 C243 1.395 . S
C242 C244 1.320 . S
C243 C241 1.339 . S
C243 C242 1.395 . S
C243 H269 0.929 . S
C244 C242 1.320 . S
C244 C245 1.405 . S
C244 H270 0.930 . S
C245 C240 1.479 . S
C245 C244 1.405 . S
C245 H271 0.931 . S
U246 O247 2.454 . S
U246 O248 2.458 . S
U246 C249 2.984 . S
U246 C250 2.847 . S
U246 C263 2.882 . S
U246 O264 2.441 . S
U246 O265 2.420 . S
U246 O266 2.455 . S
U246 O267 2.449 . S
O247 U246 2.454 . S
O247 C249 1.353 . S
O248 U246 2.458 . S
O248 C249 1.286 . S
C249 U246 2.984 . S
C249 O247 1.353 . S
C249 O248 1.286 . S
C249 C251 1.363 . S
C250 C240 1.465 . S
C250 U246 2.847 . S
C250 O264 1.249 . S
C250 O265 1.202 . S
C251 C249 1.363 . S
C251 C253 1.408 . S
C251 C256 1.342 . S
C252 C253 1.310 . S
C252 C255 1.461 . S
C252 H272 0.932 . S
C253 C251 1.408 . S
C253 C252 1.310 . S
C253 H273 0.930 . S
C254 C255 1.474 . S
C254 C256 1.285 . S
C254 H274 0.929 . S
C255 C252 1.461 . S
C255 C254 1.474 . S
C256 C251 1.342 . S
C256 C254 1.285 . S
C256 H275 0.930 . S
C257 C260 1.424 . S
C257 C262 1.245 . S
C257 C263 1.428 . S
C258 C261 1.260 . S
C258 C262 1.477 . S
C258 H276 0.932 . S
C259 C260 1.384 . S
C259 C261 1.479 . S
C259 H277 0.929 . S
C260 C257 1.424 . S
C260 C259 1.384 . S
C260 H278 0.928 . S
C261 C258 1.260 . S
C261 C259 1.479 . S
C262 C257 1.245 . S
C262 C258 1.477 . S
C262 H279 0.932 . S
C263 U246 2.882 . S
C263 C257 1.428 . S
C263 O266 1.301 . S
C263 O267 1.282 . S
O264 U246 2.441 . S
O264 C250 1.249 . S
O265 U246 2.420 . S
O265 C250 1.202 . S
O266 U246 2.455 . S
O266 C263 1.301 . S
O267 U246 2.449 . S
O267 C263 1.282 . S
H268 C241 0.931 . S
H269 C243 0.929 . S
H270 C244 0.930 . S
H271 C245 0.931 . S
H272 C252 0.932 . S
H273 C253 0.930 . S
H274 C254 0.929 . S
H275 C256 0.930 . S
H276 C258 0.932 . S
H277 C259 0.929 . S
H278 C260 0.928 . S
H279 C262 0.932 . S
C280 C281 1.264 . S
C280 C285 1.479 . S
C280 C290 1.465 . S
C281 C280 1.264 . S
C281 C283 1.339 . S
C281 H308 0.931 . S
C282 C283 1.395 . S
C282 C284 1.320 . S
C283 C281 1.339 . S
C283 C282 1.395 . S
C283 H309 0.929 . S
C284 C282 1.320 . S
C284 C285 1.405 . S
C284 H310 0.925 1_556 S
C285 C280 1.479 . S
C285 C284 1.405 . S
C285 H311 0.931 . S
U286 O287 2.454 . S
U286 O288 2.458 . S
U286 C289 2.984 . S
U286 C290 2.847 . S
U286 C303 2.882 . S
U286 O304 2.441 . S
U286 O305 2.420 . S
U286 O306 2.455 . S
U286 O307 2.449 . S
O287 U286 2.454 . S
O287 C289 1.353 . S
O288 U286 2.458 . S
O288 C289 1.286 . S
C289 U286 2.984 . S
C289 O287 1.353 . S
C289 O288 1.286 . S
C289 C291 1.363 . S
C290 C280 1.465 . S
C290 U286 2.847 . S
C290 O304 1.249 . S
C290 O305 1.202 . S
C291 C289 1.363 . S
C291 C293 1.408 . S
C291 C296 1.362 . S
C292 C293 1.310 . S
C292 C295 1.461 . S
C292 H312 0.930 . S
C293 C291 1.408 . S
C293 C292 1.310 . S
C293 H313 0.930 . S
C294 C295 1.473 1_554 S
C294 C296 1.278 1_554 S
C294 H314 0.932 . S
C295 C292 1.461 . S
C295 C294 1.473 1_556 S
C296 C291 1.362 . S
C296 C294 1.278 1_556 S
C296 H315 0.926 . S
C297 C300 1.424 . S
C297 C302 1.245 . S
C297 C303 1.428 . S
C298 C301 1.260 . S
C298 C302 1.477 . S
C298 H316 0.932 . S
C299 C300 1.384 . S
C299 C301 1.479 . S
C299 H317 0.929 . S
C300 C297 1.424 . S
C300 C299 1.384 . S
C300 H318 0.928 . S
C301 C298 1.260 . S
C301 C299 1.479 . S
C302 C297 1.245 . S
C302 C298 1.477 . S
C302 H319 0.932 . S
C303 U286 2.882 . S
C303 C297 1.428 . S
C303 O306 1.301 . S
C303 O307 1.282 . S
O304 U286 2.441 . S
O304 C290 1.249 . S
O305 U286 2.420 . S
O305 C290 1.202 . S
O306 U286 2.455 . S
O306 C303 1.301 . S
O307 U286 2.449 . S
O307 C303 1.282 . S
H308 C281 0.931 . S
H309 C283 0.929 . S
H310 C284 0.925 1_554 S
H311 C285 0.931 . S
H312 C292 0.930 . S
H313 C293 0.930 . S
H314 C294 0.932 . S
H315 C296 0.926 . S
H316 C298 0.932 . S
H317 C299 0.929 . S
H318 C300 0.928 . S
H319 C302 0.932 . S
C320 C321 1.264 . S
C320 C325 1.479 . S
C320 C330 1.465 . S
C321 C320 1.264 . S
C321 C323 1.339 . S
C321 H348 0.931 . S
C322 C323 1.395 . S
C322 C324 1.320 . S
C323 C321 1.339 . S
C323 C322 1.395 . S
C323 H349 0.929 . S
C324 C322 1.320 . S
C324 C325 1.405 . S
C324 H350 0.930 . S
C325 C320 1.479 . S
C325 C324 1.405 . S
C325 H351 0.931 . S
U326 O327 2.454 . S
U326 O328 2.458 . S
U326 C329 2.984 . S
U326 C330 2.847 . S
U326 C343 2.882 . S
U326 O344 2.441 . S
U326 O345 2.420 . S
U326 O346 2.455 . S
U326 O347 2.449 . S
O327 U326 2.454 . S
O327 C329 1.353 . S
O328 U326 2.458 . S
O328 C329 1.286 . S
C329 U326 2.984 . S
C329 O327 1.353 . S
C329 O328 1.286 . S
C329 C331 1.363 . S
C330 C320 1.465 . S
C330 U326 2.847 . S
C330 O344 1.249 . S
C330 O345 1.202 . S
C331 C329 1.363 . S
C331 C333 1.408 . S
C331 C336 1.342 . S
C332 C333 1.310 . S
C332 C335 1.461 . S
C332 H352 0.932 . S
C333 C331 1.408 . S
C333 C332 1.310 . S
C333 H353 0.930 . S
C334 C335 1.474 . S
C334 C336 1.285 . S
C334 H354 0.929 . S
C335 C332 1.461 . S
C335 C334 1.474 . S
C336 C331 1.342 . S
C336 C334 1.285 . S
C336 H355 0.930 . S
C337 C340 1.424 . S
C337 C342 1.245 . S
C337 C343 1.428 . S
C338 C341 1.260 . S
C338 C342 1.477 . S
C338 H356 0.932 . S
C339 C340 1.384 . S
C339 C341 1.479 . S
C339 H357 0.929 . S
C340 C337 1.424 . S
C340 C339 1.384 . S
C340 H358 0.928 . S
C341 C338 1.260 . S
C341 C339 1.479 . S
C342 C337 1.245 . S
C342 C338 1.477 . S
C342 H359 0.932 . S
C343 U326 2.882 . S
C343 C337 1.428 . S
C343 O346 1.301 . S
C343 O347 1.282 . S
O344 U326 2.441 . S
O344 C330 1.249 . S
O345 U326 2.420 . S
O345 C330 1.202 . S
O346 U326 2.455 . S
O346 C343 1.301 . S
O347 U326 2.449 . S
O347 C343 1.282 . S
H348 C321 0.931 . S
H349 C323 0.929 . S
H350 C324 0.930 . S
H351 C325 0.931 . S
H352 C332 0.932 . S
H353 C333 0.930 . S
H354 C334 0.929 . S
H355 C336 0.930 . S
H356 C338 0.932 . S
H357 C339 0.929 . S
H358 C340 0.928 . S
H359 C342 0.932 . S
C360 C361 1.264 . S
C360 C365 1.479 . S
C360 C370 1.465 . S
C361 C360 1.264 . S
C361 C363 1.339 . S
C361 H388 0.931 . S
C362 C363 1.395 . S
C362 C364 1.320 . S
C363 C361 1.339 . S
C363 C362 1.395 . S
C363 H389 0.929 . S
C364 C362 1.320 . S
C364 C365 1.405 . S
C364 H390 0.930 . S
C365 C360 1.479 . S
C365 C364 1.405 . S
C365 H391 0.931 . S
U366 O367 2.454 . S
U366 O368 2.458 . S
U366 C369 2.984 . S
U366 C370 2.847 . S
U366 C383 2.882 . S
U366 O384 2.441 . S
U366 O385 2.420 . S
U366 O386 2.455 . S
U366 O387 2.449 . S
O367 U366 2.454 . S
O367 C369 1.353 . S
O368 U366 2.458 . S
O368 C369 1.286 . S
C369 U366 2.984 . S
C369 O367 1.353 . S
C369 O368 1.286 . S
C369 C371 1.363 . S
C370 C360 1.465 . S
C370 U366 2.847 . S
C370 O384 1.249 . S
C370 O385 1.202 . S
C371 C369 1.363 . S
C371 C373 1.408 . S
C371 C376 1.342 . S
C372 C373 1.310 . S
C372 C375 1.461 . S
C372 H392 0.932 . S
C373 C371 1.408 . S
C373 C372 1.310 . S
C373 H393 0.930 . S
C374 C375 1.474 . S
C374 C376 1.285 . S
C374 H394 0.929 . S
C375 C372 1.461 . S
C375 C374 1.474 . S
C376 C371 1.342 . S
C376 C374 1.285 . S
C376 H395 0.930 . S
C377 C380 1.424 . S
C377 C382 1.245 . S
C377 C383 1.428 1_655 S
C378 C381 1.260 . S
C378 C382 1.477 . S
C378 H396 0.932 . S
C379 C380 1.384 . S
C379 C381 1.479 . S
C379 H397 0.929 . S
C380 C377 1.424 . S
C380 C379 1.384 . S
C380 H398 0.928 . S
C381 C378 1.260 . S
C381 C379 1.479 . S
C382 C377 1.245 . S
C382 C378 1.477 . S
C382 H399 0.932 . S
C383 U366 2.882 . S
C383 C377 1.428 1_455 S
C383 O386 1.301 . S
C383 O387 1.282 . S
O384 U366 2.441 . S
O384 C370 1.249 . S
O385 U366 2.420 . S
O385 C370 1.202 . S
O386 U366 2.455 . S
O386 C383 1.301 . S
O387 U366 2.449 . S
O387 C383 1.282 . S
H388 C361 0.931 . S
H389 C363 0.929 . S
H390 C364 0.930 . S
H391 C365 0.931 . S
H392 C372 0.932 . S
H393 C373 0.930 . S
H394 C374 0.929 . S
H395 C376 0.930 . S
H396 C378 0.932 . S
H397 C379 0.929 . S
H398 C380 0.928 . S
H399 C382 0.932 . S
C400 C401 1.264 . S
C400 C405 1.479 . S
C400 C410 1.465 . S
C401 C400 1.264 . S
C401 C403 1.339 . S
C401 H428 0.931 . S
C402 C403 1.395 . S
C402 C404 1.320 . S
C403 C401 1.339 . S
C403 C402 1.395 . S
C403 H429 0.929 . S
C404 C402 1.320 . S
C404 C405 1.405 . S
C404 H430 0.930 . S
C405 C400 1.479 . S
C405 C404 1.405 . S
C405 H431 0.931 . S
U406 O407 2.454 . S
U406 O408 2.458 . S
U406 C409 2.984 . S
U406 C410 2.847 . S
U406 C423 2.882 . S
U406 O424 2.441 . S
U406 O425 2.420 . S
U406 O426 2.455 . S
U406 O427 2.449 . S
O407 U406 2.454 . S
O407 C409 1.353 . S
O408 U406 2.458 . S
O408 C409 1.286 . S
C409 U406 2.984 . S
C409 O407 1.353 . S
C409 O408 1.286 . S
C409 C411 1.363 . S
C410 C400 1.465 . S
C410 U406 2.847 . S
C410 O424 1.249 . S
C410 O425 1.202 . S
C411 C409 1.363 . S
C411 C413 1.408 . S
C411 C416 1.342 . S
C412 C413 1.310 . S
C412 C415 1.461 . S
C412 H432 0.932 . S
C413 C411 1.408 . S
C413 C412 1.310 . S
C413 H433 0.930 . S
C414 C415 1.474 . S
C414 C416 1.285 . S
C414 H434 0.929 . S
C415 C412 1.461 . S
C415 C414 1.474 . S
C416 C411 1.342 . S
C416 C414 1.285 . S
C416 H435 0.930 . S
C417 C420 1.424 . S
C417 C422 1.245 . S
C417 C423 1.428 . S
C418 C421 1.260 . S
C418 C422 1.477 . S
C418 H436 0.932 . S
C419 C420 1.384 . S
C419 C421 1.479 . S
C419 H437 0.929 . S
C420 C417 1.424 . S
C420 C419 1.384 . S
C420 H438 0.928 . S
C421 C418 1.260 . S
C421 C419 1.479 . S
C422 C417 1.245 . S
C422 C418 1.477 . S
C422 H439 0.932 . S
C423 U406 2.882 . S
C423 C417 1.428 . S
C423 O426 1.301 . S
C423 O427 1.282 . S
O424 U406 2.441 . S
O424 C410 1.249 . S
O425 U406 2.420 . S
O425 C410 1.202 . S
O426 U406 2.455 . S
O426 C423 1.301 . S
O427 U406 2.449 . S
O427 C423 1.282 . S
H428 C401 0.931 . S
H429 C403 0.929 . S
H430 C404 0.930 . S
H431 C405 0.931 . S
H432 C412 0.932 . S
H433 C413 0.930 . S
H434 C414 0.929 . S
H435 C416 0.930 . S
H436 C418 0.932 . S
H437 C419 0.929 . S
H438 C420 0.928 . S
H439 C422 0.932 . S
C440 C441 1.264 . S
C440 C445 1.479 . S
C440 C450 1.465 . S
C441 C440 1.264 . S
C441 C443 1.339 . S
C441 H468 0.931 . S
C442 C443 1.395 . S
C442 C444 1.320 . S
C443 C441 1.339 . S
C443 C442 1.395 . S
C443 H469 0.929 . S
C444 C442 1.320 . S
C444 C445 1.405 . S
C444 H470 0.925 1_655 S
C445 C440 1.479 . S
C445 C444 1.405 . S
C445 H471 0.931 . S
U446 O447 2.454 . S
U446 O448 2.458 . S
U446 C449 2.984 . S
U446 C450 2.847 . S
U446 C463 2.882 . S
U446 O464 2.441 . S
U446 O465 2.420 . S
U446 O466 2.455 . S
U446 O467 2.449 . S
O447 U446 2.454 . S
O447 C449 1.353 . S
O448 U446 2.458 . S
O448 C449 1.286 . S
C449 U446 2.984 . S
C449 O447 1.353 . S
C449 O448 1.286 . S
C449 C451 1.363 . S
C450 C440 1.465 . S
C450 U446 2.847 . S
C450 O464 1.249 . S
C450 O465 1.202 . S
C451 C449 1.363 . S
C451 C453 1.408 . S
C451 C456 1.362 . S
C452 C453 1.310 . S
C452 C455 1.461 . S
C452 H472 0.930 . S
C453 C451 1.408 . S
C453 C452 1.310 . S
C453 H473 0.930 . S
C454 C455 1.473 1_455 S
C454 C456 1.278 1_455 S
C454 H474 0.932 . S
C455 C452 1.461 . S
C455 C454 1.473 1_655 S
C456 C451 1.362 . S
C456 C454 1.278 1_655 S
C456 H475 0.926 . S
C457 C460 1.424 . S
C457 C462 1.245 . S
C457 C463 1.428 . S
C458 C461 1.260 . S
C458 C462 1.477 . S
C458 H476 0.932 . S
C459 C460 1.384 . S
C459 C461 1.479 . S
C459 H477 0.929 . S
C460 C457 1.424 . S
C460 C459 1.384 . S
C460 H478 0.928 . S
C461 C458 1.260 . S
C461 C459 1.479 . S
C462 C457 1.245 . S
C462 C458 1.477 . S
C462 H479 0.932 . S
C463 U446 2.882 . S
C463 C457 1.428 . S
C463 O466 1.301 . S
C463 O467 1.282 . S
O464 U446 2.441 . S
O464 C450 1.249 . S
O465 U446 2.420 . S
O465 C450 1.202 . S
O466 U446 2.455 . S
O466 C463 1.301 . S
O467 U446 2.449 . S
O467 C463 1.282 . S
H468 C441 0.931 . S
H469 C443 0.929 . S
H470 C444 0.925 1_455 S
H471 C445 0.931 . S
H472 C452 0.930 . S
H473 C453 0.930 . S
H474 C454 0.932 . S
H475 C456 0.926 . S
H476 C458 0.932 . S
H477 C459 0.929 . S
H478 C460 0.928 . S
H479 C462 0.932 . S
C480 C481 1.264 . S
C480 C485 1.479 . S
C480 C490 1.465 . S
C481 C480 1.264 . S
C481 C483 1.339 . S
C481 H508 0.931 . S
C482 C483 1.395 . S
C482 C484 1.320 . S
C483 C481 1.339 . S
C483 C482 1.395 . S
C483 H509 0.929 . S
C484 C482 1.320 . S
C484 C485 1.405 . S
C484 H510 0.930 . S
C485 C480 1.479 . S
C485 C484 1.405 . S
C485 H511 0.931 . S
U486 O487 2.454 . S
U486 O488 2.458 . S
U486 C489 2.984 . S
U486 C490 2.847 . S
U486 C503 2.882 . S
U486 O504 2.441 . S
U486 O505 2.420 . S
U486 O506 2.455 . S
U486 O507 2.449 . S
O487 U486 2.454 . S
O487 C489 1.353 . S
O488 U486 2.458 . S
O488 C489 1.286 . S
C489 U486 2.984 . S
C489 O487 1.353 . S
C489 O488 1.286 . S
C489 C491 1.363 . S
C490 C480 1.465 . S
C490 U486 2.847 . S
C490 O504 1.249 . S
C490 O505 1.202 . S
C491 C489 1.363 . S
C491 C493 1.408 . S
C491 C496 1.342 . S
C492 C493 1.310 . S
C492 C495 1.461 . S
C492 H512 0.932 . S
C493 C491 1.408 . S
C493 C492 1.310 . S
C493 H513 0.930 . S
C494 C495 1.474 . S
C494 C496 1.285 . S
C494 H514 0.929 . S
C495 C492 1.461 . S
C495 C494 1.474 . S
C496 C491 1.342 . S
C496 C494 1.285 . S
C496 H515 0.930 . S
C497 C500 1.424 . S
C497 C502 1.245 . S
C497 C503 1.428 . S
C498 C501 1.260 . S
C498 C502 1.477 . S
C498 H516 0.932 . S
C499 C500 1.384 . S
C499 C501 1.479 . S
C499 H517 0.929 . S
C500 C497 1.424 . S
C500 C499 1.384 . S
C500 H518 0.928 . S
C501 C498 1.260 . S
C501 C499 1.479 . S
C502 C497 1.245 . S
C502 C498 1.477 . S
C502 H519 0.932 . S
C503 U486 2.882 . S
C503 C497 1.428 . S
C503 O506 1.301 . S
C503 O507 1.282 . S
O504 U486 2.441 . S
O504 C490 1.249 . S
O505 U486 2.420 . S
O505 C490 1.202 . S
O506 U486 2.455 . S
O506 C503 1.301 . S
O507 U486 2.449 . S
O507 C503 1.282 . S
H508 C481 0.931 . S
H509 C483 0.929 . S
H510 C484 0.930 . S
H511 C485 0.931 . S
H512 C492 0.932 . S
H513 C493 0.930 . S
H514 C494 0.929 . S
H515 C496 0.930 . S
H516 C498 0.932 . S
H517 C499 0.929 . S
H518 C500 0.928 . S
H519 C502 0.932 . S
C520 C521 1.264 . S
C520 C525 1.479 . S
C520 C530 1.465 . S
C521 C520 1.264 . S
C521 C523 1.339 . S
C521 H548 0.931 . S
C522 C523 1.395 . S
C522 C524 1.320 . S
C523 C521 1.339 . S
C523 C522 1.395 . S
C523 H549 0.929 . S
C524 C522 1.320 . S
C524 C525 1.405 . S
C524 H550 0.930 . S
C525 C520 1.479 . S
C525 C524 1.405 . S
C525 H551 0.931 . S
U526 O527 2.454 . S
U526 O528 2.458 . S
U526 C529 2.984 . S
U526 C530 2.847 . S
U526 C543 2.882 . S
U526 O544 2.441 . S
U526 O545 2.420 . S
U526 O546 2.455 . S
U526 O547 2.449 . S
O527 U526 2.454 . S
O527 C529 1.353 . S
O528 U526 2.458 . S
O528 C529 1.286 . S
C529 U526 2.984 . S
C529 O527 1.353 . S
C529 O528 1.286 . S
C529 C531 1.363 . S
C530 C520 1.465 . S
C530 U526 2.847 . S
C530 O544 1.249 . S
C530 O545 1.202 . S
C531 C529 1.363 . S
C531 C533 1.408 . S
C531 C536 1.342 . S
C532 C533 1.310 . S
C532 C535 1.461 . S
C532 H552 0.932 . S
C533 C531 1.408 . S
C533 C532 1.310 . S
C533 H553 0.930 . S
C534 C535 1.474 . S
C534 C536 1.285 . S
C534 H554 0.929 . S
C535 C532 1.461 . S
C535 C534 1.474 . S
C536 C531 1.342 . S
C536 C534 1.285 . S
C536 H555 0.930 . S
C537 C540 1.424 . S
C537 C542 1.245 . S
C537 C543 1.428 . S
C538 C541 1.260 . S
C538 C542 1.477 . S
C538 H556 0.932 . S
C539 C540 1.384 . S
C539 C541 1.479 . S
C539 H557 0.929 . S
C540 C537 1.424 . S
C540 C539 1.384 . S
C540 H558 0.928 . S
C541 C538 1.260 . S
C541 C539 1.479 . S
C542 C537 1.245 . S
C542 C538 1.477 . S
C542 H559 0.932 . S
C543 U526 2.882 . S
C543 C537 1.428 . S
C543 O546 1.301 . S
C543 O547 1.282 . S
O544 U526 2.441 . S
O544 C530 1.249 . S
O545 U526 2.420 . S
O545 C530 1.202 . S
O546 U526 2.455 . S
O546 C543 1.301 . S
O547 U526 2.449 . S
O547 C543 1.282 . S
H548 C521 0.931 . S
H549 C523 0.929 . S
H550 C524 0.930 . S
H551 C525 0.931 . S
H552 C532 0.932 . S
H553 C533 0.930 . S
H554 C534 0.929 . S
H555 C536 0.930 . S
H556 C538 0.932 . S
H557 C539 0.929 . S
H558 C540 0.928 . S
H559 C542 0.932 . S
C560 C561 1.264 . S
C560 C565 1.479 . S
C560 C570 1.465 . S
C561 C560 1.264 . S
C561 C563 1.339 . S
C561 H588 0.931 . S
C562 C563 1.395 . S
C562 C564 1.320 . S
C563 C561 1.339 . S
C563 C562 1.395 . S
C563 H589 0.929 . S
C564 C562 1.320 . S
C564 C565 1.405 . S
C564 H590 0.921 1_565 S
C565 C560 1.479 . S
C565 C564 1.405 . S
C565 H591 0.931 . S
U566 O567 2.454 . S
U566 O568 2.458 . S
U566 C569 2.984 . S
U566 C570 2.847 . S
U566 C583 2.882 . S
U566 O584 2.441 . S
U566 O585 2.420 . S
U566 O586 2.455 . S
U566 O587 2.449 . S
O567 U566 2.454 . S
O567 C569 1.353 . S
O568 U566 2.458 . S
O568 C569 1.286 . S
C569 U566 2.984 . S
C569 O567 1.353 . S
C569 O568 1.286 . S
C569 C571 1.363 . S
C570 C560 1.465 . S
C570 U566 2.847 . S
C570 O584 1.249 . S
C570 O585 1.202 . S
C571 C569 1.363 . S
C571 C573 1.408 . S
C571 C576 1.342 . S
C572 C573 1.310 . S
C572 C575 1.460 . S
C572 H592 0.932 . S
C573 C571 1.408 . S
C573 C572 1.310 . S
C573 H593 0.930 . S
C574 C575 1.475 1_545 S
C574 C576 1.286 1_545 S
C574 H594 0.930 . S
C575 C572 1.460 . S
C575 C574 1.475 1_565 S
C576 C571 1.342 . S
C576 C574 1.286 1_565 S
C576 H595 0.929 . S
C577 C580 1.424 . S
C577 C582 1.245 . S
C577 C583 1.428 . S
C578 C581 1.260 . S
C578 C582 1.477 . S
C578 H596 0.932 . S
C579 C580 1.384 . S
C579 C581 1.479 . S
C579 H597 0.929 . S
C580 C577 1.424 . S
C580 C579 1.384 . S
C580 H598 0.928 . S
C581 C578 1.260 . S
C581 C579 1.479 . S
C582 C577 1.245 . S
C582 C578 1.477 . S
C582 H599 0.932 . S
C583 U566 2.882 . S
C583 C577 1.428 . S
C583 O586 1.301 . S
C583 O587 1.282 . S
O584 U566 2.441 . S
O584 C570 1.249 . S
O585 U566 2.420 . S
O585 C570 1.202 . S
O586 U566 2.455 . S
O586 C583 1.301 . S
O587 U566 2.449 . S
O587 C583 1.282 . S
H588 C561 0.931 . S
H589 C563 0.929 . S
H590 C564 0.921 1_545 S
H591 C565 0.931 . S
H592 C572 0.932 . S
H593 C573 0.930 . S
H594 C574 0.930 . S
H595 C576 0.929 . S
H596 C578 0.932 . S
H597 C579 0.929 . S
H598 C580 0.928 . S
H599 C582 0.932 . S
C600 C601 1.268 . S
C600 C605 1.465 1_545 S
C600 C610 1.483 . S
C601 C600 1.268 . S
C601 C603 1.321 1_545 S
C601 H628 0.931 . S
C602 C603 1.420 . S
C602 C604 1.320 . S
C603 C601 1.321 1_565 S
C603 C602 1.420 . S
C603 H629 0.926 1_565 S
C604 C602 1.320 . S
C604 C605 1.405 . S
C604 H630 0.930 . S
C605 C600 1.465 1_565 S
C605 C604 1.405 . S
C605 H631 0.931 . S
U606 O607 2.454 1_545 S
U606 O608 2.458 . S
U606 C609 2.988 . S
U606 C610 2.847 . S
U606 C623 2.882 . S
U606 O624 2.441 . S
U606 O625 2.420 . S
U606 O626 2.455 . S
U606 O627 2.449 . S
O607 U606 2.454 1_565 S
O607 C609 1.350 1_565 S
O608 U606 2.458 . S
O608 C609 1.291 . S
C609 U606 2.988 . S
C609 O607 1.350 1_545 S
C609 O608 1.291 . S
C609 C611 1.361 1_545 S
C610 C600 1.483 . S
C610 U606 2.847 . S
C610 O624 1.249 . S
C610 O625 1.202 . S
C611 C609 1.361 1_565 S
C611 C613 1.408 . S
C611 C616 1.342 . S
C612 C613 1.310 . S
C612 C615 1.461 . S
C612 H632 0.932 . S
C613 C611 1.408 . S
C613 C612 1.310 . S
C613 H633 0.930 . S
C614 C615 1.474 . S
C614 C616 1.285 . S
C614 H634 0.929 . S
C615 C612 1.461 . S
C615 C614 1.474 . S
C616 C611 1.342 . S
C616 C614 1.285 . S
C616 H635 0.932 . S
C617 C620 1.424 . S
C617 C622 1.245 . S
C617 C623 1.428 . S
C618 C621 1.260 . S
C618 C622 1.477 . S
C618 H636 0.932 . S
C619 C620 1.384 . S
C619 C621 1.479 . S
C619 H637 0.929 . S
C620 C617 1.424 . S
C620 C619 1.384 . S
C620 H638 0.928 . S
C621 C618 1.260 . S
C621 C619 1.479 . S
C622 C617 1.245 . S
C622 C618 1.477 . S
C622 H639 0.932 . S
C623 U606 2.882 . S
C623 C617 1.428 . S
C623 O626 1.301 . S
C623 O627 1.282 . S
O624 U606 2.441 . S
O624 C610 1.249 . S
O625 U606 2.420 . S
O625 C610 1.202 . S
O626 U606 2.455 . S
O626 C623 1.301 . S
O627 U606 2.449 . S
O627 C623 1.282 . S
H628 C601 0.931 . S
H629 C603 0.926 1_545 S
H630 C604 0.930 . S
H631 C605 0.931 . S
H632 C612 0.932 . S
H633 C613 0.930 . S
H634 C614 0.929 . S
H635 C616 0.932 . S
H636 C618 0.932 . S
H637 C619 0.929 . S
H638 C620 0.928 . S
H639 C622 0.932 . S
C640 C641 1.264 . S
C640 C645 1.479 . S
C640 C650 1.465 . S
C641 C640 1.264 . S
C641 C643 1.339 . S
C641 H668 0.931 . S
C642 C643 1.395 . S
C642 C644 1.320 . S
C643 C641 1.339 . S
C643 C642 1.395 . S
C643 H669 0.929 . S
C644 C642 1.320 . S
C644 C645 1.405 . S
C644 H670 0.930 . S
C645 C640 1.479 . S
C645 C644 1.405 . S
C645 H671 0.931 . S
U646 O647 2.454 . S
U646 O648 2.458 . S
U646 C649 2.984 . S
U646 C650 2.847 . S
U646 C663 2.882 . S
U646 O664 2.441 . S
U646 O665 2.420 . S
U646 O666 2.455 . S
U646 O667 2.449 . S
O647 U646 2.454 . S
O647 C649 1.353 . S
O648 U646 2.458 . S
O648 C649 1.286 . S
C649 U646 2.984 . S
C649 O647 1.353 . S
C649 O648 1.286 . S
C649 C651 1.363 . S
C650 C640 1.465 . S
C650 U646 2.847 . S
C650 O664 1.249 . S
C650 O665 1.202 . S
C651 C649 1.363 . S
C651 C653 1.408 . S
C651 C656 1.342 . S
C652 C653 1.310 . S
C652 C655 1.461 . S
C652 H672 0.932 . S
C653 C651 1.408 . S
C653 C652 1.310 . S
C653 H673 0.930 . S
C654 C655 1.474 . S
C654 C656 1.285 . S
C654 H674 0.929 . S
C655 C652 1.461 . S
C655 C654 1.474 . S
C656 C651 1.342 . S
C656 C654 1.285 . S
C656 H675 0.930 . S
C657 C660 1.424 . S
C657 C662 1.245 . S
C657 C663 1.428 . S
C658 C661 1.260 . S
C658 C662 1.477 . S
C658 H676 0.932 . S
C659 C660 1.384 . S
C659 C661 1.479 . S
C659 H677 0.929 . S
C660 C657 1.424 . S
C660 C659 1.384 . S
C660 H678 0.928 . S
C661 C658 1.260 . S
C661 C659 1.479 . S
C662 C657 1.245 . S
C662 C658 1.477 . S
C662 H679 0.932 . S
C663 U646 2.882 . S
C663 C657 1.428 . S
C663 O666 1.301 . S
C663 O667 1.282 . S
O664 U646 2.441 . S
O664 C650 1.249 . S
O665 U646 2.420 . S
O665 C650 1.202 . S
O666 U646 2.455 . S
O666 C663 1.301 . S
O667 U646 2.449 . S
O667 C663 1.282 . S
H668 C641 0.931 . S
H669 C643 0.929 . S
H670 C644 0.930 . S
H671 C645 0.931 . S
H672 C652 0.932 . S
H673 C653 0.930 . S
H674 C654 0.929 . S
H675 C656 0.930 . S
H676 C658 0.932 . S
H677 C659 0.929 . S
H678 C660 0.928 . S
H679 C662 0.932 . S
C680 C681 1.268 . S
C680 C685 1.465 1_554 S
C680 C690 1.483 . S
C681 C680 1.268 . S
C681 C683 1.321 1_554 S
C681 H708 0.931 . S
C682 C683 1.420 . S
C682 C684 1.320 . S
C683 C681 1.321 1_556 S
C683 C682 1.420 . S
C683 H709 0.926 1_556 S
C684 C682 1.320 . S
C684 C685 1.405 . S
C684 H710 0.930 . S
C685 C680 1.465 1_556 S
C685 C684 1.405 . S
C685 H711 0.931 . S
U686 O687 2.454 1_554 S
U686 O688 2.458 . S
U686 C689 2.988 . S
U686 C690 2.847 . S
U686 C703 2.882 . S
U686 O704 2.441 . S
U686 O705 2.420 . S
U686 O706 2.455 . S
U686 O707 2.449 . S
O687 U686 2.454 1_556 S
O687 C689 1.350 1_556 S
O688 U686 2.458 . S
O688 C689 1.291 . S
C689 U686 2.988 . S
C689 O687 1.350 1_554 S
C689 O688 1.291 . S
C689 C691 1.361 1_554 S
C690 C680 1.483 . S
C690 U686 2.847 . S
C690 O704 1.249 . S
C690 O705 1.202 . S
C691 C689 1.361 1_556 S
C691 C693 1.408 . S
C691 C696 1.342 . S
C692 C693 1.310 . S
C692 C695 1.461 . S
C692 H712 0.932 . S
C693 C691 1.408 . S
C693 C692 1.310 . S
C693 H713 0.930 . S
C694 C695 1.474 . S
C694 C696 1.285 . S
C694 H714 0.929 . S
C695 C692 1.461 . S
C695 C694 1.474 . S
C696 C691 1.342 . S
C696 C694 1.285 . S
C696 H715 0.932 . S
C697 C700 1.424 . S
C697 C702 1.245 . S
C697 C703 1.428 . S
C698 C701 1.260 . S
C698 C702 1.477 . S
C698 H716 0.932 . S
C699 C700 1.384 . S
C699 C701 1.479 . S
C699 H717 0.929 . S
C700 C697 1.424 . S
C700 C699 1.384 . S
C700 H718 0.928 . S
C701 C698 1.260 . S
C701 C699 1.479 . S
C702 C697 1.245 . S
C702 C698 1.477 . S
C702 H719 0.932 . S
C703 U686 2.882 . S
C703 C697 1.428 . S
C703 O706 1.301 . S
C703 O707 1.282 . S
O704 U686 2.441 . S
O704 C690 1.249 . S
O705 U686 2.420 . S
O705 C690 1.202 . S
O706 U686 2.455 . S
O706 C703 1.301 . S
O707 U686 2.449 . S
O707 C703 1.282 . S
H708 C681 0.931 . S
H709 C683 0.926 1_554 S
H710 C684 0.930 . S
H711 C685 0.931 . S
H712 C692 0.932 . S
H713 C693 0.930 . S
H714 C694 0.929 . S
H715 C696 0.932 . S
H716 C698 0.932 . S
H717 C699 0.929 . S
H718 C700 0.928 . S
H719 C702 0.932 . S
C720 C721 1.264 . S
C720 C725 1.479 . S
C720 C730 1.465 . S
C721 C720 1.264 . S
C721 C723 1.339 . S
C721 H748 0.931 . S
C722 C723 1.395 . S
C722 C724 1.320 . S
C723 C721 1.339 . S
C723 C722 1.395 . S
C723 H749 0.929 . S
C724 C722 1.320 . S
C724 C725 1.405 . S
C724 H750 0.930 . S
C725 C720 1.479 . S
C725 C724 1.405 . S
C725 H751 0.931 . S
U726 O727 2.454 . S
U726 O728 2.458 . S
U726 C729 2.984 . S
U726 C730 2.847 . S
U726 C743 2.882 . S
U726 O744 2.441 . S
U726 O745 2.420 . S
U726 O746 2.455 . S
U726 O747 2.449 . S
O727 U726 2.454 . S
O727 C729 1.353 . S
O728 U726 2.458 . S
O728 C729 1.286 . S
C729 U726 2.984 . S
C729 O727 1.353 . S
C729 O728 1.286 . S
C729 C731 1.363 . S
C730 C720 1.465 . S
C730 U726 2.847 . S
C730 O744 1.249 . S
C730 O745 1.202 . S
C731 C729 1.363 . S
C731 C733 1.408 . S
C731 C736 1.342 . S
C732 C733 1.310 . S
C732 C735 1.461 . S
C732 H752 0.932 . S
C733 C731 1.408 . S
C733 C732 1.310 . S
C733 H753 0.930 . S
C734 C735 1.474 . S
C734 C736 1.285 . S
C734 H754 0.929 . S
C735 C732 1.461 . S
C735 C734 1.474 . S
C736 C731 1.342 . S
C736 C734 1.285 . S
C736 H755 0.930 . S
C737 C740 1.424 . S
C737 C742 1.245 . S
C737 C743 1.428 . S
C738 C741 1.260 . S
C738 C742 1.477 . S
C738 H756 0.932 . S
C739 C740 1.384 . S
C739 C741 1.479 . S
C739 H757 0.929 . S
C740 C737 1.424 . S
C740 C739 1.384 . S
C740 H758 0.928 . S
C741 C738 1.260 . S
C741 C739 1.479 . S
C742 C737 1.245 . S
C742 C738 1.477 . S
C742 H759 0.932 . S
C743 U726 2.882 . S
C743 C737 1.428 . S
C743 O746 1.301 . S
C743 O747 1.282 . S
O744 U726 2.441 . S
O744 C730 1.249 . S
O745 U726 2.420 . S
O745 C730 1.202 . S
O746 U726 2.455 . S
O746 C743 1.301 . S
O747 U726 2.449 . S
O747 C743 1.282 . S
H748 C721 0.931 . S
H749 C723 0.929 . S
H750 C724 0.930 . S
H751 C725 0.931 . S
H752 C732 0.932 . S
H753 C733 0.930 . S
H754 C734 0.929 . S
H755 C736 0.930 . S
H756 C738 0.932 . S
H757 C739 0.929 . S
H758 C740 0.928 . S
H759 C742 0.932 . S
C760 C761 1.264 . S
C760 C765 1.479 . S
C760 C770 1.465 . S
C761 C760 1.264 . S
C761 C763 1.339 . S
C761 H788 0.931 . S
C762 C763 1.395 . S
C762 C764 1.320 . S
C763 C761 1.339 . S
C763 C762 1.395 . S
C763 H789 0.929 . S
C764 C762 1.320 . S
C764 C765 1.405 . S
C764 H790 0.921 1_556 S
C765 C760 1.479 . S
C765 C764 1.405 . S
C765 H791 0.931 . S
U766 O767 2.454 . S
U766 O768 2.458 . S
U766 C769 2.984 . S
U766 C770 2.847 . S
U766 C783 2.882 . S
U766 O784 2.441 . S
U766 O785 2.420 . S
U766 O786 2.455 . S
U766 O787 2.449 . S
O767 U766 2.454 . S
O767 C769 1.353 . S
O768 U766 2.458 . S
O768 C769 1.286 . S
C769 U766 2.984 . S
C769 O767 1.353 . S
C769 O768 1.286 . S
C769 C771 1.363 . S
C770 C760 1.465 . S
C770 U766 2.847 . S
C770 O784 1.249 . S
C770 O785 1.202 . S
C771 C769 1.363 . S
C771 C773 1.408 . S
C771 C776 1.342 . S
C772 C773 1.310 . S
C772 C775 1.460 . S
C772 H792 0.932 . S
C773 C771 1.408 . S
C773 C772 1.310 . S
C773 H793 0.930 . S
C774 C775 1.475 1_554 S
C774 C776 1.286 1_554 S
C774 H794 0.930 . S
C775 C772 1.460 . S
C775 C774 1.475 1_556 S
C776 C771 1.342 . S
C776 C774 1.286 1_556 S
C776 H795 0.929 . S
C777 C780 1.424 . S
C777 C782 1.245 . S
C777 C783 1.428 . S
C778 C781 1.260 . S
C778 C782 1.477 . S
C778 H796 0.932 . S
C779 C780 1.384 . S
C779 C781 1.479 . S
C779 H797 0.929 . S
C780 C777 1.424 . S
C780 C779 1.384 . S
C780 H798 0.928 . S
C781 C778 1.260 . S
C781 C779 1.479 . S
C782 C777 1.245 . S
C782 C778 1.477 . S
C782 H799 0.932 . S
C783 U766 2.882 . S
C783 C777 1.428 . S
C783 O786 1.301 . S
C783 O787 1.282 . S
O784 U766 2.441 . S
O784 C770 1.249 . S
O785 U766 2.420 . S
O785 C770 1.202 . S
O786 U766 2.455 . S
O786 C783 1.301 . S
O787 U766 2.449 . S
O787 C783 1.282 . S
H788 C761 0.931 . S
H789 C763 0.929 . S
H790 C764 0.921 1_554 S
H791 C765 0.931 . S
H792 C772 0.932 . S
H793 C773 0.930 . S
H794 C774 0.930 . S
H795 C776 0.929 . S
H796 C778 0.932 . S
H797 C779 0.929 . S
H798 C780 0.928 . S
H799 C782 0.932 . S
C800 C801 1.264 . S
C800 C805 1.479 . S
C800 C810 1.465 . S
C801 C800 1.264 . S
C801 C803 1.339 . S
C801 H828 0.931 . S
C802 C803 1.395 . S
C802 C804 1.320 . S
C803 C801 1.339 . S
C803 C802 1.395 . S
C803 H829 0.929 . S
C804 C802 1.320 . S
C804 C805 1.405 . S
C804 H830 0.930 . S
C805 C800 1.479 . S
C805 C804 1.405 . S
C805 H831 0.931 . S
U806 O807 2.454 . S
U806 O808 2.458 . S
U806 C809 2.984 . S
U806 C810 2.847 . S
U806 C823 2.882 . S
U806 O824 2.441 . S
U806 O825 2.420 . S
U806 O826 2.455 . S
U806 O827 2.449 . S
O807 U806 2.454 . S
O807 C809 1.353 . S
O808 U806 2.458 . S
O808 C809 1.286 . S
C809 U806 2.984 . S
C809 O807 1.353 . S
C809 O808 1.286 . S
C809 C811 1.363 . S
C810 C800 1.465 . S
C810 U806 2.847 . S
C810 O824 1.249 . S
C810 O825 1.202 . S
C811 C809 1.363 . S
C811 C813 1.408 . S
C811 C816 1.342 . S
C812 C813 1.310 . S
C812 C815 1.461 . S
C812 H832 0.932 . S
C813 C811 1.408 . S
C813 C812 1.310 . S
C813 H833 0.930 . S
C814 C815 1.474 . S
C814 C816 1.285 . S
C814 H834 0.929 . S
C815 C812 1.461 . S
C815 C814 1.474 . S
C816 C811 1.342 . S
C816 C814 1.285 . S
C816 H835 0.930 . S
C817 C820 1.424 . S
C817 C822 1.245 . S
C817 C823 1.428 . S
C818 C821 1.260 . S
C818 C822 1.477 . S
C818 H836 0.932 . S
C819 C820 1.384 . S
C819 C821 1.479 . S
C819 H837 0.929 . S
C820 C817 1.424 . S
C820 C819 1.384 . S
C820 H838 0.928 . S
C821 C818 1.260 . S
C821 C819 1.479 . S
C822 C817 1.245 . S
C822 C818 1.477 . S
C822 H839 0.932 . S
C823 U806 2.882 . S
C823 C817 1.428 . S
C823 O826 1.301 . S
C823 O827 1.282 . S
O824 U806 2.441 . S
O824 C810 1.249 . S
O825 U806 2.420 . S
O825 C810 1.202 . S
O826 U806 2.455 . S
O826 C823 1.301 . S
O827 U806 2.449 . S
O827 C823 1.282 . S
H828 C801 0.931 . S
H829 C803 0.929 . S
H830 C804 0.930 . S
H831 C805 0.931 . S
H832 C812 0.932 . S
H833 C813 0.930 . S
H834 C814 0.929 . S
H835 C816 0.930 . S
H836 C818 0.932 . S
H837 C819 0.929 . S
H838 C820 0.928 . S
H839 C822 0.932 . S
C840 C841 1.268 . S
C840 C845 1.465 1_455 S
C840 C850 1.483 . S
C841 C840 1.268 . S
C841 C843 1.321 1_455 S
C841 H868 0.931 . S
C842 C843 1.420 . S
C842 C844 1.320 . S
C843 C841 1.321 1_655 S
C843 C842 1.420 . S
C843 H869 0.926 1_655 S
C844 C842 1.320 . S
C844 C845 1.405 . S
C844 H870 0.930 . S
C845 C840 1.465 1_655 S
C845 C844 1.405 . S
C845 H871 0.931 . S
U846 O847 2.454 1_455 S
U846 O848 2.458 . S
U846 C849 2.988 . S
U846 C850 2.847 . S
U846 C863 2.882 . S
U846 O864 2.441 . S
U846 O865 2.420 . S
U846 O866 2.455 . S
U846 O867 2.449 . S
O847 U846 2.454 1_655 S
O847 C849 1.350 1_655 S
O848 U846 2.458 . S
O848 C849 1.291 . S
C849 U846 2.988 . S
C849 O847 1.350 1_455 S
C849 O848 1.291 . S
C849 C851 1.361 1_455 S
C850 C840 1.483 . S
C850 U846 2.847 . S
C850 O864 1.249 . S
C850 O865 1.202 . S
C851 C849 1.361 1_655 S
C851 C853 1.408 . S
C851 C856 1.342 . S
C852 C853 1.310 . S
C852 C855 1.461 . S
C852 H872 0.932 . S
C853 C851 1.408 . S
C853 C852 1.310 . S
C853 H873 0.930 . S
C854 C855 1.474 . S
C854 C856 1.285 . S
C854 H874 0.929 . S
C855 C852 1.461 . S
C855 C854 1.474 . S
C856 C851 1.342 . S
C856 C854 1.285 . S
C856 H875 0.932 . S
C857 C860 1.424 . S
C857 C862 1.245 . S
C857 C863 1.428 . S
C858 C861 1.260 . S
C858 C862 1.477 . S
C858 H876 0.932 . S
C859 C860 1.384 . S
C859 C861 1.479 . S
C859 H877 0.929 . S
C860 C857 1.424 . S
C860 C859 1.384 . S
C860 H878 0.928 . S
C861 C858 1.260 . S
C861 C859 1.479 . S
C862 C857 1.245 . S
C862 C858 1.477 . S
C862 H879 0.932 . S
C863 U846 2.882 . S
C863 C857 1.428 . S
C863 O866 1.301 . S
C863 O867 1.282 . S
O864 U846 2.441 . S
O864 C850 1.249 . S
O865 U846 2.420 . S
O865 C850 1.202 . S
O866 U846 2.455 . S
O866 C863 1.301 . S
O867 U846 2.449 . S
O867 C863 1.282 . S
H868 C841 0.931 . S
H869 C843 0.926 1_455 S
H870 C844 0.930 . S
H871 C845 0.931 . S
H872 C852 0.932 . S
H873 C853 0.930 . S
H874 C854 0.929 . S
H875 C856 0.932 . S
H876 C858 0.932 . S
H877 C859 0.929 . S
H878 C860 0.928 . S
H879 C862 0.932 . S
C880 C881 1.264 . S
C880 C885 1.479 . S
C880 C890 1.465 . S
C881 C880 1.264 . S
C881 C883 1.339 . S
C881 H908 0.931 . S
C882 C883 1.395 . S
C882 C884 1.320 . S
C883 C881 1.339 . S
C883 C882 1.395 . S
C883 H909 0.929 . S
C884 C882 1.320 . S
C884 C885 1.405 . S
C884 H910 0.930 . S
C885 C880 1.479 . S
C885 C884 1.405 . S
C885 H911 0.931 . S
U886 O887 2.454 . S
U886 O888 2.458 . S
U886 C889 2.984 . S
U886 C890 2.847 . S
U886 C903 2.882 . S
U886 O904 2.441 . S
U886 O905 2.420 . S
U886 O906 2.455 . S
U886 O907 2.449 . S
O887 U886 2.454 . S
O887 C889 1.353 . S
O888 U886 2.458 . S
O888 C889 1.286 . S
C889 U886 2.984 . S
C889 O887 1.353 . S
C889 O888 1.286 . S
C889 C891 1.363 . S
C890 C880 1.465 . S
C890 U886 2.847 . S
C890 O904 1.249 . S
C890 O905 1.202 . S
C891 C889 1.363 . S
C891 C893 1.408 . S
C891 C896 1.342 . S
C892 C893 1.310 . S
C892 C895 1.461 . S
C892 H912 0.932 . S
C893 C891 1.408 . S
C893 C892 1.310 . S
C893 H913 0.930 . S
C894 C895 1.474 . S
C894 C896 1.285 . S
C894 H914 0.929 . S
C895 C892 1.461 . S
C895 C894 1.474 . S
C896 C891 1.342 . S
C896 C894 1.285 . S
C896 H915 0.930 . S
C897 C900 1.424 . S
C897 C902 1.245 . S
C897 C903 1.428 . S
C898 C901 1.260 . S
C898 C902 1.477 . S
C898 H916 0.932 . S
C899 C900 1.384 . S
C899 C901 1.479 . S
C899 H917 0.929 . S
C900 C897 1.424 . S
C900 C899 1.384 . S
C900 H918 0.928 . S
C901 C898 1.260 . S
C901 C899 1.479 . S
C902 C897 1.245 . S
C902 C898 1.477 . S
C902 H919 0.932 . S
C903 U886 2.882 . S
C903 C897 1.428 . S
C903 O906 1.301 . S
C903 O907 1.282 . S
O904 U886 2.441 . S
O904 C890 1.249 . S
O905 U886 2.420 . S
O905 C890 1.202 . S
O906 U886 2.455 . S
O906 C903 1.301 . S
O907 U886 2.449 . S
O907 C903 1.282 . S
H908 C881 0.931 . S
H909 C883 0.929 . S
H910 C884 0.930 . S
H911 C885 0.931 . S
H912 C892 0.932 . S
H913 C893 0.930 . S
H914 C894 0.929 . S
H915 C896 0.930 . S
H916 C898 0.932 . S
H917 C899 0.929 . S
H918 C900 0.928 . S
H919 C902 0.932 . S
C920 C921 1.264 . S
C920 C925 1.479 . S
C920 C930 1.465 . S
C921 C920 1.264 . S
C921 C923 1.339 . S
C921 H948 0.931 . S
C922 C923 1.395 . S
C922 C924 1.320 . S
C923 C921 1.339 . S
C923 C922 1.395 . S
C923 H949 0.929 . S
C924 C922 1.320 . S
C924 C925 1.405 . S
C924 H950 0.921 1_655 S
C925 C920 1.479 . S
C925 C924 1.405 . S
C925 H951 0.931 . S
U926 O927 2.454 . S
U926 O928 2.458 . S
U926 C929 2.984 . S
U926 C930 2.847 . S
U926 C943 2.882 . S
U926 O944 2.441 . S
U926 O945 2.420 . S
U926 O946 2.455 . S
U926 O947 2.449 . S
O927 U926 2.454 . S
O927 C929 1.353 . S
O928 U926 2.458 . S
O928 C929 1.286 . S
C929 U926 2.984 . S
C929 O927 1.353 . S
C929 O928 1.286 . S
C929 C931 1.363 . S
C930 C920 1.465 . S
C930 U926 2.847 . S
C930 O944 1.249 . S
C930 O945 1.202 . S
C931 C929 1.363 . S
C931 C933 1.408 . S
C931 C936 1.342 . S
C932 C933 1.310 . S
C932 C935 1.460 . S
C932 H952 0.932 . S
C933 C931 1.408 . S
C933 C932 1.310 . S
C933 H953 0.930 . S
C934 C935 1.475 1_455 S
C934 C936 1.286 1_455 S
C934 H954 0.930 . S
C935 C932 1.460 . S
C935 C934 1.475 1_655 S
C936 C931 1.342 . S
C936 C934 1.286 1_655 S
C936 H955 0.929 . S
C937 C940 1.424 . S
C937 C942 1.245 . S
C937 C943 1.428 . S
C938 C941 1.260 . S
C938 C942 1.477 . S
C938 H956 0.932 . S
C939 C940 1.384 . S
C939 C941 1.479 . S
C939 H957 0.929 . S
C940 C937 1.424 . S
C940 C939 1.384 . S
C940 H958 0.928 . S
C941 C938 1.260 . S
C941 C939 1.479 . S
C942 C937 1.245 . S
C942 C938 1.477 . S
C942 H959 0.932 . S
C943 U926 2.882 . S
C943 C937 1.428 . S
C943 O946 1.301 . S
C943 O947 1.282 . S
O944 U926 2.441 . S
O944 C930 1.249 . S
O945 U926 2.420 . S
O945 C930 1.202 . S
O946 U926 2.455 . S
O946 C943 1.301 . S
O947 U926 2.449 . S
O947 C943 1.282 . S
H948 C921 0.931 . S
H949 C923 0.929 . S
H950 C924 0.921 1_455 S
H951 C925 0.931 . S
H952 C932 0.932 . S
H953 C933 0.930 . S
H954 C934 0.930 . S
H955 C936 0.929 . S
H956 C938 0.932 . S
H957 C939 0.929 . S
H958 C940 0.928 . S
H959 C942 0.932 . S
H960 C963 0.929 . S
H961 C966 0.929 . S
H962 C968 0.930 . S
C963 H960 0.929 . S
C963 C964 1.398 . S
C963 C965 1.396 . S
C964 C963 1.398 . S
C964 C968 1.407 . S
C965 C963 1.396 . S
C965 C966 1.394 . S
C966 H961 0.929 . S
C966 C965 1.394 . S
C966 C967 1.382 . S
C967 C966 1.382 . S
C967 C968 1.392 . S
C967 N969 1.420 . S
C968 H962 0.930 . S
C968 C964 1.407 . S
C968 C967 1.392 . S
N969 C967 1.420 . S
N969 C970 1.244 . S
C970 N969 1.244 . S
H971 C974 0.929 . S
H972 C977 0.929 . S
H973 C979 0.930 . S
C974 H971 0.929 . S
C974 C975 1.398 1_556 S
C974 C976 1.396 . S
C975 C974 1.398 1_554 S
C975 C979 1.407 . S
C976 C974 1.396 . S
C976 C977 1.394 . S
C977 H972 0.929 . S
C977 C976 1.394 . S
C977 C978 1.382 1_556 S
C978 C977 1.382 1_554 S
C978 C979 1.392 . S
C978 N980 1.420 . S
C979 H973 0.930 . S
C979 C975 1.407 . S
C979 C978 1.392 . S
N980 C978 1.420 . S
N980 C981 1.244 . S
C981 N980 1.244 . S
H982 C985 0.929 . S
H983 C988 0.929 . S
H984 C990 0.930 . S
C985 H982 0.929 . S
C985 C986 1.398 . S
C985 C987 1.396 . S
C986 C985 1.398 . S
C986 C990 1.407 . S
C987 C985 1.396 . S
C987 C988 1.394 1_565 S
C988 H983 0.929 . S
C988 C987 1.394 1_545 S
C988 C989 1.382 . S
C989 C988 1.382 . S
C989 C990 1.392 1_545 S
C989 N991 1.420 . S
C990 H984 0.930 . S
C990 C986 1.407 . S
C990 C989 1.392 1_565 S
N991 C989 1.420 . S
N991 C992 1.244 . S
C992 N991 1.244 . S
H993 C996 0.929 . S
H994 C999 0.929 . S
H995 C1001 0.930 . S
C996 H993 0.929 . S
C996 C997 1.398 1_554 S
C996 C998 1.396 . S
C997 C996 1.398 1_556 S
C997 C1001 1.407 . S
C998 C996 1.396 . S
C998 C999 1.394 . S
C999 H994 0.929 . S
C999 C998 1.394 . S
C999 C1000 1.382 1_554 S
C1000 C999 1.382 1_556 S
C1000 C1001 1.392 . S
C1000 N1002 1.420 . S
C1001 H995 0.930 . S
C1001 C997 1.407 . S
C1001 C1000 1.392 . S
N1002 C1000 1.420 . S
N1002 C1003 1.244 . S
C1003 N1002 1.244 . S
H1004 C1007 0.929 . S
H1005 C1010 0.929 . S
H1006 C1012 0.930 . S
C1007 H1004 0.929 . S
C1007 C1008 1.398 . S
C1007 C1009 1.396 . S
C1008 C1007 1.398 . S
C1008 C1012 1.407 . S
C1009 C1007 1.396 . S
C1009 C1010 1.394 . S
C1010 H1005 0.929 . S
C1010 C1009 1.394 . S
C1010 C1011 1.382 . S
C1011 C1010 1.382 . S
C1011 C1012 1.392 . S
C1011 N1013 1.420 . S
C1012 H1006 0.930 . S
C1012 C1008 1.407 . S
C1012 C1011 1.392 . S
N1013 C1011 1.420 . S
N1013 C1014 1.244 . S
C1014 N1013 1.244 . S
H1015 C1018 0.929 . S
H1016 C1021 0.929 . S
H1017 C1023 0.930 . S
C1018 H1015 0.929 . S
C1018 C1019 1.398 1_455 S
C1018 C1020 1.396 . S
C1019 C1018 1.398 1_655 S
C1019 C1023 1.407 . S
C1020 C1018 1.396 . S
C1020 C1021 1.394 . S
C1021 H1016 0.929 . S
C1021 C1020 1.394 . S
C1021 C1022 1.382 1_455 S
C1022 C1021 1.382 1_655 S
C1022 C1023 1.392 . S
C1022 N1024 1.420 . S
C1023 H1017 0.930 . S
C1023 C1019 1.407 . S
C1023 C1022 1.392 . S
N1024 C1022 1.420 . S
N1024 C1025 1.244 . S
C1025 N1024 1.244 . S
H1026 C1029 0.929 . S
H1027 C1032 0.929 . S
H1028 C1034 0.930 . S
C1029 H1026 0.929 . S
C1029 C1030 1.398 1_655 S
C1029 C1031 1.396 . S
C1030 C1029 1.398 1_455 S
C1030 C1034 1.407 . S
C1031 C1029 1.396 . S
C1031 C1032 1.394 . S
C1032 H1027 0.929 . S
C1032 C1031 1.394 . S
C1032 C1033 1.382 1_655 S
C1033 C1032 1.382 1_455 S
C1033 C1034 1.392 . S
C1033 N1035 1.420 . S
C1034 H1028 0.930 . S
C1034 C1030 1.407 . S
C1034 C1033 1.392 . S
N1035 C1033 1.420 . S
N1035 C1036 1.244 . S
C1036 N1035 1.244 . S
H1037 C1040 0.929 . S
H1038 C1043 0.929 . S
H1039 C1045 0.930 . S
C1040 H1037 0.929 . S
C1040 C1041 1.398 . S
C1040 C1042 1.396 . S
C1041 C1040 1.398 . S
C1041 C1045 1.407 . S
C1042 C1040 1.396 . S
C1042 C1043 1.394 1_556 S
C1043 H1038 0.929 . S
C1043 C1042 1.394 1_554 S
C1043 C1044 1.382 . S
C1044 C1043 1.382 . S
C1044 C1045 1.392 1_554 S
C1044 N1046 1.420 . S
C1045 H1039 0.930 . S
C1045 C1041 1.407 . S
C1045 C1044 1.392 1_556 S
N1046 C1044 1.420 . S
N1046 C1047 1.244 . S
C1047 N1046 1.244 . S
H1048 C1051 0.929 . S
H1049 C1054 0.929 . S
H1050 C1056 0.930 . S
C1051 H1048 0.929 . S
C1051 C1052 1.398 . S
C1051 C1053 1.396 . S
C1052 C1051 1.398 . S
C1052 C1056 1.407 . S
C1053 C1051 1.396 . S
C1053 C1054 1.394 . S
C1054 H1049 0.929 . S
C1054 C1053 1.394 . S
C1054 C1055 1.382 . S
C1055 C1054 1.382 . S
C1055 C1056 1.392 . S
C1055 N1057 1.420 . S
C1056 H1050 0.930 . S
C1056 C1052 1.407 . S
C1056 C1055 1.392 . S
N1057 C1055 1.420 . S
N1057 C1058 1.244 . S
C1058 N1057 1.244 . S
H1059 C1062 0.929 . S
H1060 C1065 0.929 . S
H1061 C1067 0.930 . S
C1062 H1059 0.929 . S
C1062 C1063 1.398 1_545 S
C1062 C1064 1.396 . S
C1063 C1062 1.398 1_565 S
C1063 C1067 1.407 . S
C1064 C1062 1.396 . S
C1064 C1065 1.394 . S
C1065 H1060 0.929 . S
C1065 C1064 1.394 . S
C1065 C1066 1.382 1_545 S
C1066 C1065 1.382 1_565 S
C1066 C1067 1.392 . S
C1066 N1068 1.420 . S
C1067 H1061 0.930 . S
C1067 C1063 1.407 . S
C1067 C1066 1.392 . S
N1068 C1066 1.420 . S
N1068 C1069 1.244 . S
C1069 N1068 1.244 . S
H1070 C1073 0.929 . S
H1071 C1076 0.929 . S
H1072 C1078 0.930 . S
C1073 H1070 0.929 . S
C1073 C1074 1.398 1_565 S
C1073 C1075 1.396 . S
C1074 C1073 1.398 1_545 S
C1074 C1078 1.407 . S
C1075 C1073 1.396 . S
C1075 C1076 1.394 . S
C1076 H1071 0.929 . S
C1076 C1075 1.394 . S
C1076 C1077 1.382 1_565 S
C1077 C1076 1.382 1_545 S
C1077 C1078 1.392 . S
C1077 N1079 1.420 . S
C1078 H1072 0.930 . S
C1078 C1074 1.407 . S
C1078 C1077 1.392 . S
N1079 C1077 1.420 . S
N1079 C1080 1.244 . S
C1080 N1079 1.244 . S
H1081 C1084 0.929 . S
H1082 C1087 0.929 . S
H1083 C1089 0.930 . S
C1084 H1081 0.929 . S
C1084 C1085 1.398 . S
C1084 C1086 1.396 . S
C1085 C1084 1.398 . S
C1085 C1089 1.407 . S
C1086 C1084 1.396 . S
C1086 C1087 1.394 1_655 S
C1087 H1082 0.929 . S
C1087 C1086 1.394 1_455 S
C1087 C1088 1.382 . S
C1088 C1087 1.382 . S
C1088 C1089 1.392 1_455 S
C1088 N1090 1.420 . S
C1089 H1083 0.930 . S
C1089 C1085 1.407 . S
C1089 C1088 1.392 1_655 S
N1090 C1088 1.420 . S
N1090 C1091 1.244 . S
C1091 N1090 1.244 . S
H1092 C1095 0.929 . S
H1093 C1098 0.929 . S
H1094 C1100 0.930 . S
C1095 H1092 0.929 . S
C1095 C1096 1.398 . S
C1095 C1097 1.396 . S
C1096 C1095 1.398 . S
C1096 C1100 1.407 . S
C1097 C1095 1.396 . S
C1097 C1098 1.394 . S
C1098 H1093 0.929 . S
C1098 C1097 1.394 . S
C1098 C1099 1.382 . S
C1099 C1098 1.382 . S
C1099 C1100 1.392 . S
C1099 N1101 1.420 . S
C1100 H1094 0.930 . S
C1100 C1096 1.407 . S
C1100 C1099 1.392 . S
N1101 C1099 1.420 . S
N1101 C1102 1.244 . S
C1102 N1101 1.244 . S
H1103 C1106 0.929 . S
H1104 C1109 0.929 . S
H1105 C1111 0.930 . S
C1106 H1103 0.929 . S
C1106 C1107 1.398 1_554 S
C1106 C1108 1.396 . S
C1107 C1106 1.398 1_556 S
C1107 C1111 1.407 . S
C1108 C1106 1.396 . S
C1108 C1109 1.394 . S
C1109 H1104 0.929 . S
C1109 C1108 1.394 . S
C1109 C1110 1.382 1_554 S
C1110 C1109 1.382 1_556 S
C1110 C1111 1.392 . S
C1110 N1112 1.420 . S
C1111 H1105 0.930 . S
C1111 C1107 1.407 . S
C1111 C1110 1.392 . S
N1112 C1110 1.420 . S
N1112 C1113 1.244 . S
C1113 N1112 1.244 . S
H1114 C1117 0.929 . S
H1115 C1120 0.929 . S
H1116 C1122 0.930 . S
C1117 H1114 0.929 . S
C1117 C1118 1.398 . S
C1117 C1119 1.396 . S
C1118 C1117 1.398 . S
C1118 C1122 1.407 . S
C1119 C1117 1.396 . S
C1119 C1120 1.394 1_545 S
C1120 H1115 0.929 . S
C1120 C1119 1.394 1_565 S
C1120 C1121 1.382 . S
C1121 C1120 1.382 . S
C1121 C1122 1.392 1_565 S
C1121 N1123 1.420 . S
C1122 H1116 0.930 . S
C1122 C1118 1.407 . S
C1122 C1121 1.392 1_545 S
N1123 C1121 1.420 . S
N1123 C1124 1.244 . S
C1124 N1123 1.244 . S
H1125 C1128 0.929 . S
H1126 C1131 0.929 . S
H1127 C1133 0.930 . S
C1128 H1125 0.929 . S
C1128 C1129 1.398 1_556 S
C1128 C1130 1.396 . S
C1129 C1128 1.398 1_554 S
C1129 C1133 1.407 . S
C1130 C1128 1.396 . S
C1130 C1131 1.394 . S
C1131 H1126 0.929 . S
C1131 C1130 1.394 . S
C1131 C1132 1.382 1_556 S
C1132 C1131 1.382 1_554 S
C1132 C1133 1.392 . S
C1132 N1134 1.420 . S
C1133 H1127 0.930 . S
C1133 C1129 1.407 . S
C1133 C1132 1.392 . S
N1134 C1132 1.420 . S
N1134 C1135 1.244 . S
C1135 N1134 1.244 . S
H1136 C1139 0.929 . S
H1137 C1142 0.929 . S
H1138 C1144 0.930 . S
C1139 H1136 0.929 . S
C1139 C1140 1.398 . S
C1139 C1141 1.396 . S
C1140 C1139 1.398 . S
C1140 C1144 1.407 . S
C1141 C1139 1.396 . S
C1141 C1142 1.394 . S
C1142 H1137 0.929 . S
C1142 C1141 1.394 . S
C1142 C1143 1.382 . S
C1143 C1142 1.382 . S
C1143 C1144 1.392 . S
C1143 N1145 1.420 . S
C1144 H1138 0.930 . S
C1144 C1140 1.407 . S
C1144 C1143 1.392 . S
N1145 C1143 1.420 . S
N1145 C1146 1.244 . S
C1146 N1145 1.244 . S
H1147 C1150 0.929 . S
H1148 C1153 0.929 . S
H1149 C1155 0.930 . S
C1150 H1147 0.929 . S
C1150 C1151 1.398 1_655 S
C1150 C1152 1.396 . S
C1151 C1150 1.398 1_455 S
C1151 C1155 1.407 . S
C1152 C1150 1.396 . S
C1152 C1153 1.394 . S
C1153 H1148 0.929 . S
C1153 C1152 1.394 . S
C1153 C1154 1.382 1_655 S
C1154 C1153 1.382 1_455 S
C1154 C1155 1.392 . S
C1154 N1156 1.420 . S
C1155 H1149 0.930 . S
C1155 C1151 1.407 . S
C1155 C1154 1.392 . S
N1156 C1154 1.420 . S
N1156 C1157 1.244 . S
C1157 N1156 1.244 . S
H1158 C1161 0.929 . S
H1159 C1164 0.929 . S
H1160 C1166 0.930 . S
C1161 H1158 0.929 . S
C1161 C1162 1.398 1_455 S
C1161 C1163 1.396 . S
C1162 C1161 1.398 1_655 S
C1162 C1166 1.407 . S
C1163 C1161 1.396 . S
C1163 C1164 1.394 . S
C1164 H1159 0.929 . S
C1164 C1163 1.394 . S
C1164 C1165 1.382 1_455 S
C1165 C1164 1.382 1_655 S
C1165 C1166 1.392 . S
C1165 N1167 1.420 . S
C1166 H1160 0.930 . S
C1166 C1162 1.407 . S
C1166 C1165 1.392 . S
N1167 C1165 1.420 . S
N1167 C1168 1.244 . S
C1168 N1167 1.244 . S
H1169 C1172 0.929 . S
H1170 C1175 0.929 . S
H1171 C1177 0.930 . S
C1172 H1169 0.929 . S
C1172 C1173 1.398 . S
C1172 C1174 1.396 . S
C1173 C1172 1.398 . S
C1173 C1177 1.407 . S
C1174 C1172 1.396 . S
C1174 C1175 1.394 1_554 S
C1175 H1170 0.929 . S
C1175 C1174 1.394 1_556 S
C1175 C1176 1.382 . S
C1176 C1175 1.382 . S
C1176 C1177 1.392 1_556 S
C1176 N1178 1.420 . S
C1177 H1171 0.930 . S
C1177 C1173 1.407 . S
C1177 C1176 1.392 1_554 S
N1178 C1176 1.420 . S
N1178 C1179 1.244 . S
C1179 N1178 1.244 . S
H1180 C1183 0.929 . S
H1181 C1186 0.929 . S
H1182 C1188 0.930 . S
C1183 H1180 0.929 . S
C1183 C1184 1.398 . S
C1183 C1185 1.396 . S
C1184 C1183 1.398 . S
C1184 C1188 1.407 . S
C1185 C1183 1.396 . S
C1185 C1186 1.394 . S
C1186 H1181 0.929 . S
C1186 C1185 1.394 . S
C1186 C1187 1.382 . S
C1187 C1186 1.382 . S
C1187 C1188 1.392 . S
C1187 N1189 1.420 . S
C1188 H1182 0.930 . S
C1188 C1184 1.407 . S
C1188 C1187 1.392 . S
N1189 C1187 1.420 . S
N1189 C1190 1.244 . S
C1190 N1189 1.244 . S
H1191 C1194 0.929 . S
H1192 C1197 0.929 . S
H1193 C1199 0.930 . S
C1194 H1191 0.929 . S
C1194 C1195 1.398 1_565 S
C1194 C1196 1.396 . S
C1195 C1194 1.398 1_545 S
C1195 C1199 1.407 . S
C1196 C1194 1.396 . S
C1196 C1197 1.394 . S
C1197 H1192 0.929 . S
C1197 C1196 1.394 . S
C1197 C1198 1.382 1_565 S
C1198 C1197 1.382 1_545 S
C1198 C1199 1.392 . S
C1198 N1200 1.420 . S
C1199 H1193 0.930 . S
C1199 C1195 1.407 . S
C1199 C1198 1.392 . S
N1200 C1198 1.420 . S
N1200 C1201 1.244 . S
C1201 N1200 1.244 . S
H1202 C1205 0.929 . S
H1203 C1208 0.929 . S
H1204 C1210 0.930 . S
C1205 H1202 0.929 . S
C1205 C1206 1.398 1_545 S
C1205 C1207 1.396 . S
C1206 C1205 1.398 1_565 S
C1206 C1210 1.407 . S
C1207 C1205 1.396 . S
C1207 C1208 1.394 . S
C1208 H1203 0.929 . S
C1208 C1207 1.394 . S
C1208 C1209 1.382 1_545 S
C1209 C1208 1.382 1_565 S
C1209 C1210 1.392 . S
C1209 N1211 1.420 . S
C1210 H1204 0.930 . S
C1210 C1206 1.407 . S
C1210 C1209 1.392 . S
N1211 C1209 1.420 . S
N1211 C1212 1.244 . S
C1212 N1211 1.244 . S
H1213 C1216 0.929 . S
H1214 C1219 0.929 . S
H1215 C1221 0.930 . S
C1216 H1213 0.929 . S
C1216 C1217 1.398 . S
C1216 C1218 1.396 . S
C1217 C1216 1.398 . S
C1217 C1221 1.407 . S
C1218 C1216 1.396 . S
C1218 C1219 1.394 1_455 S
C1219 H1214 0.929 . S
C1219 C1218 1.394 1_655 S
C1219 C1220 1.382 . S
C1220 C1219 1.382 . S
C1220 C1221 1.392 1_655 S
C1220 N1222 1.420 . S
C1221 H1215 0.930 . S
C1221 C1217 1.407 . S
C1221 C1220 1.392 1_455 S
N1222 C1220 1.420 . S
N1222 C1223 1.244 . S
C1223 N1222 1.244 . S
H1224 C1232 0.929 . S
H1225 C1234 0.930 . S
H1226 C1236 0.930 . S
H1227 C1239 0.929 . S
H1228 C1242 0.930 . S
H1229 C1244 0.960 . S
H1230 C1244 0.960 . S
H1231 C1244 0.960 . S
C1232 H1224 0.929 . S
C1232 C1233 1.377 . S
C1232 C1234 1.384 . S
C1233 C1232 1.377 . S
C1233 C1239 1.390 . S
C1234 H1225 0.930 . S
C1234 C1232 1.384 . S
C1234 C1235 1.372 . S
C1235 C1234 1.372 . S
C1235 C1236 1.400 . S
C1235 C1240 1.490 . S
C1236 H1226 0.930 . S
C1236 C1235 1.400 . S
C1236 C1239 1.386 . S
H1237 C1253 0.930 . S
H1238 C1254 0.931 . S
C1239 H1227 0.929 . S
C1239 C1233 1.390 . S
C1239 C1236 1.386 . S
C1240 C1235 1.490 . S
C1240 C1242 1.395 . S
C1240 C1243 1.403 . S
H1241 C1247 0.930 . S
C1242 H1228 0.930 . S
C1242 C1240 1.395 . S
C1242 C1245 1.403 . S
C1243 C1240 1.403 . S
C1243 C1244 1.524 . S
C1243 C1247 1.400 . S
C1244 H1229 0.960 . S
C1244 H1230 0.960 . S
C1244 H1231 0.960 . S
C1244 C1243 1.524 . S
C1245 C1242 1.403 . S
C1245 C1246 1.392 . S
C1245 C1249 1.495 . S
C1246 C1245 1.392 . S
C1246 C1247 1.385 . S
C1246 C1248 1.478 . S
C1247 H1241 0.930 . S
C1247 C1243 1.400 . S
C1247 C1246 1.385 . S
C1248 C1246 1.478 . S
C1248 C1250 1.381 . S
C1248 C1254 1.383 . S
C1249 C1245 1.495 . S
C1249 H1255 0.959 . S
C1249 H1256 0.961 . S
C1249 H1257 0.960 . S
C1250 C1248 1.381 . S
C1250 C1251 1.394 . S
C1250 H1258 0.930 . S
C1251 C1250 1.394 . S
C1251 C1252 1.383 . S
C1251 H1259 0.929 . S
C1252 C1251 1.383 . S
C1252 C1253 1.377 . S
C1253 H1237 0.930 . S
C1253 C1252 1.377 . S
C1253 C1254 1.379 . S
C1254 H1238 0.931 . S
C1254 C1248 1.383 . S
C1254 C1253 1.379 . S
H1255 C1249 0.959 . S
H1256 C1249 0.961 . S
H1257 C1249 0.960 . S
H1258 C1250 0.930 . S
H1259 C1251 0.929 . S
H1260 C1268 0.929 . S
H1261 C1270 0.930 . S
H1262 C1272 0.930 . S
H1263 C1275 0.929 . S
H1264 C1278 0.930 . S
H1265 C1280 0.960 . S
H1266 C1280 0.960 . S
H1267 C1280 0.960 . S
C1268 H1260 0.929 . S
C1268 C1269 1.377 . S
C1268 C1270 1.384 . S
C1269 C1268 1.377 . S
C1269 C1275 1.390 . S
C1270 H1261 0.930 . S
C1270 C1268 1.384 . S
C1270 C1271 1.372 . S
C1271 C1270 1.372 . S
C1271 C1272 1.400 . S
C1271 C1276 1.490 . S
C1272 H1262 0.930 . S
C1272 C1271 1.400 . S
C1272 C1275 1.386 . S
H1273 C1289 0.930 . S
H1274 C1290 0.931 . S
C1275 H1263 0.929 . S
C1275 C1269 1.390 . S
C1275 C1272 1.386 . S
C1276 C1271 1.490 . S
C1276 C1278 1.395 . S
C1276 C1279 1.403 . S
H1277 C1283 0.930 . S
C1278 H1264 0.930 . S
C1278 C1276 1.395 . S
C1278 C1281 1.403 . S
C1279 C1276 1.403 . S
C1279 C1280 1.524 . S
C1279 C1283 1.400 . S
C1280 H1265 0.960 . S
C1280 H1266 0.960 . S
C1280 H1267 0.960 . S
C1280 C1279 1.524 . S
C1281 C1278 1.403 . S
C1281 C1282 1.392 . S
C1281 C1285 1.495 . S
C1282 C1281 1.392 . S
C1282 C1283 1.385 . S
C1282 C1284 1.478 . S
C1283 H1277 0.930 . S
C1283 C1279 1.400 . S
C1283 C1282 1.385 . S
C1284 C1282 1.478 . S
C1284 C1286 1.381 . S
C1284 C1290 1.383 . S
C1285 C1281 1.495 . S
C1285 H1291 0.959 . S
C1285 H1292 0.961 . S
C1285 H1293 0.960 . S
C1286 C1284 1.381 . S
C1286 C1287 1.394 . S
C1286 H1294 0.930 . S
C1287 C1286 1.394 . S
C1287 C1288 1.383 . S
C1287 H1295 0.929 . S
C1288 C1287 1.383 . S
C1288 C1289 1.377 . S
C1289 H1273 0.930 . S
C1289 C1288 1.377 . S
C1289 C1290 1.379 . S
C1290 H1274 0.931 . S
C1290 C1284 1.383 . S
C1290 C1289 1.379 . S
H1291 C1285 0.959 . S
H1292 C1285 0.961 . S
H1293 C1285 0.960 . S
H1294 C1286 0.930 . S
H1295 C1287 0.929 . S
H1296 C1304 0.929 . S
H1297 C1306 0.930 . S
H1298 C1308 0.930 . S
H1299 C1311 0.929 . S
H1300 C1314 0.930 . S
H1301 C1316 0.960 . S
H1302 C1316 1.011 . S
H1303 C1316 0.918 1_565 S
C1304 H1296 0.929 . S
C1304 C1305 1.404 . S
C1304 C1306 1.384 . S
C1305 C1304 1.404 . S
C1305 C1311 1.362 1_545 S
C1306 H1297 0.930 . S
C1306 C1304 1.384 . S
C1306 C1307 1.372 1_545 S
C1307 C1306 1.372 1_565 S
C1307 C1308 1.400 . S
C1307 C1312 1.490 . S
C1308 H1298 0.930 . S
C1308 C1307 1.400 . S
C1308 C1311 1.386 . S
H1309 C1325 0.930 . S
H1310 C1326 0.931 . S
C1311 H1299 0.929 . S
C1311 C1305 1.362 1_565 S
C1311 C1308 1.386 . S
C1312 C1307 1.490 . S
C1312 C1314 1.395 . S
C1312 C1315 1.403 . S
H1313 C1319 0.930 . S
C1314 H1300 0.930 . S
C1314 C1312 1.395 . S
C1314 C1317 1.403 . S
C1315 C1312 1.403 . S
C1315 C1316 1.520 1_565 S
C1315 C1319 1.400 . S
C1316 H1301 0.960 . S
C1316 H1302 1.011 . S
C1316 H1303 0.918 1_545 S
C1316 C1315 1.520 1_545 S
C1317 C1314 1.403 . S
C1317 C1318 1.392 . S
C1317 C1321 1.495 . S
C1318 C1317 1.392 . S
C1318 C1319 1.385 . S
C1318 C1320 1.478 . S
C1319 H1313 0.930 . S
C1319 C1315 1.400 . S
C1319 C1318 1.385 . S
C1320 C1318 1.478 . S
C1320 C1322 1.339 1_565 S
C1320 C1326 1.383 . S
C1321 C1317 1.495 . S
C1321 H1327 0.959 . S
C1321 H1328 0.961 . S
C1321 H1329 0.960 . S
C1322 C1320 1.339 1_545 S
C1322 C1323 1.394 1_545 S
C1322 H1330 0.977 . S
C1323 C1322 1.394 1_565 S
C1323 C1324 1.424 . S
C1323 H1331 0.892 1_565 S
C1324 C1323 1.424 . S
C1324 C1325 1.377 . S
C1325 H1309 0.930 . S
C1325 C1324 1.377 . S
C1325 C1326 1.379 . S
C1326 H1310 0.931 . S
C1326 C1320 1.383 . S
C1326 C1325 1.379 . S
H1327 C1321 0.959 . S
H1328 C1321 0.961 . S
H1329 C1321 0.960 . S
H1330 C1322 0.977 . S
H1331 C1323 0.892 1_545 S
H1332 C1340 0.929 . S
H1333 C1342 0.930 . S
H1334 C1344 0.930 . S
H1335 C1347 0.929 . S
H1336 C1350 0.930 . S
H1337 C1352 0.960 . S
H1338 C1352 0.960 . S
H1339 C1352 0.960 . S
C1340 H1332 0.929 . S
C1340 C1341 1.377 . S
C1340 C1342 1.384 . S
C1341 C1340 1.377 . S
C1341 C1347 1.390 . S
C1342 H1333 0.930 . S
C1342 C1340 1.384 . S
C1342 C1343 1.372 . S
C1343 C1342 1.372 . S
C1343 C1344 1.400 . S
C1343 C1348 1.490 . S
C1344 H1334 0.930 . S
C1344 C1343 1.400 . S
C1344 C1347 1.386 . S
H1345 C1361 0.930 . S
H1346 C1362 0.931 . S
C1347 H1335 0.929 . S
C1347 C1341 1.390 . S
C1347 C1344 1.386 . S
C1348 C1343 1.490 . S
C1348 C1350 1.395 . S
C1348 C1351 1.430 . S
H1349 C1355 0.930 1_565 S
C1350 H1336 0.930 . S
C1350 C1348 1.395 . S
C1350 C1353 1.403 . S
C1351 C1348 1.430 . S
C1351 C1352 1.497 1_545 S
C1351 C1355 1.401 . S
C1352 H1337 0.960 . S
C1352 H1338 0.960 . S
C1352 H1339 0.960 . S
C1352 C1351 1.497 1_565 S
C1353 C1350 1.403 . S
C1353 C1354 1.392 . S
C1353 C1357 1.495 . S
C1354 C1353 1.392 . S
C1354 C1355 1.385 . S
C1354 C1356 1.478 1_655 S
C1355 H1349 0.930 1_545 S
C1355 C1351 1.401 . S
C1355 C1354 1.385 . S
C1356 C1354 1.478 1_455 S
C1356 C1358 1.381 . S
C1356 C1362 1.383 . S
C1357 C1353 1.495 . S
C1357 H1363 0.959 . S
C1357 H1364 0.961 . S
C1357 H1365 0.960 . S
C1358 C1356 1.381 . S
C1358 C1359 1.394 . S
C1358 H1366 0.930 . S
C1359 C1358 1.394 . S
C1359 C1360 1.383 . S
C1359 H1367 0.929 . S
C1360 C1359 1.383 . S
C1360 C1361 1.377 . S
C1361 H1345 0.930 . S
C1361 C1360 1.377 . S
C1361 C1362 1.379 . S
C1362 H1346 0.931 . S
C1362 C1356 1.383 . S
C1362 C1361 1.379 . S
H1363 C1357 0.959 . S
H1364 C1357 0.961 . S
H1365 C1357 0.960 . S
H1366 C1358 0.930 . S
H1367 C1359 0.929 . S
H1368 C1376 0.929 . S
H1369 C1378 0.930 . S
H1370 C1380 0.930 . S
H1371 C1383 0.929 . S
H1372 C1386 0.930 . S
H1373 C1388 0.960 . S
H1374 C1388 0.960 . S
H1375 C1388 0.960 . S
C1376 H1368 0.929 . S
C1376 C1377 1.377 . S
C1376 C1378 1.384 . S
C1377 C1376 1.377 . S
C1377 C1383 1.390 . S
C1378 H1369 0.930 . S
C1378 C1376 1.384 . S
C1378 C1379 1.372 . S
C1379 C1378 1.372 . S
C1379 C1380 1.400 . S
C1379 C1384 1.490 . S
C1380 H1370 0.930 . S
C1380 C1379 1.400 . S
C1380 C1383 1.386 . S
H1381 C1397 0.930 . S
H1382 C1398 0.931 . S
C1383 H1371 0.929 . S
C1383 C1377 1.390 . S
C1383 C1380 1.386 . S
C1384 C1379 1.490 . S
C1384 C1386 1.395 . S
C1384 C1387 1.403 . S
H1385 C1391 0.930 . S
C1386 H1372 0.930 . S
C1386 C1384 1.395 . S
C1386 C1389 1.403 . S
C1387 C1384 1.403 . S
C1387 C1388 1.524 . S
C1387 C1391 1.400 . S
C1388 H1373 0.960 . S
C1388 H1374 0.960 . S
C1388 H1375 0.960 . S
C1388 C1387 1.524 . S
C1389 C1386 1.403 . S
C1389 C1390 1.392 . S
C1389 C1393 1.495 . S
C1390 C1389 1.392 . S
C1390 C1391 1.385 . S
C1390 C1392 1.478 . S
C1391 H1385 0.930 . S
C1391 C1387 1.400 . S
C1391 C1390 1.385 . S
C1392 C1390 1.478 . S
C1392 C1394 1.381 . S
C1392 C1398 1.383 . S
C1393 C1389 1.495 . S
C1393 H1399 0.959 . S
C1393 H1400 0.961 . S
C1393 H1401 0.960 . S
C1394 C1392 1.381 . S
C1394 C1395 1.394 . S
C1394 H1402 0.930 . S
C1395 C1394 1.394 . S
C1395 C1396 1.383 . S
C1395 H1403 0.929 . S
C1396 C1395 1.383 . S
C1396 C1397 1.377 . S
C1397 H1381 0.930 . S
C1397 C1396 1.377 . S
C1397 C1398 1.379 . S
C1398 H1382 0.931 . S
C1398 C1392 1.383 . S
C1398 C1397 1.379 . S
H1399 C1393 0.959 . S
H1400 C1393 0.961 . S
H1401 C1393 0.960 . S
H1402 C1394 0.930 . S
H1403 C1395 0.929 . S
H1404 C1412 0.929 . S
H1405 C1414 0.930 . S
H1406 C1416 0.937 . S
H1407 C1419 0.959 . S
H1408 C1422 0.930 . S
H1409 C1424 0.960 . S
H1410 C1424 0.960 . S
H1411 C1424 0.960 . S
C1412 H1404 0.929 . S
C1412 C1413 1.377 . S
C1412 C1414 1.384 . S
C1413 C1412 1.377 . S
C1413 C1419 1.358 1_554 S
C1414 H1405 0.930 . S
C1414 C1412 1.384 . S
C1414 C1415 1.372 . S
C1415 C1414 1.372 . S
C1415 C1416 1.393 1_554 S
C1415 C1420 1.490 . S
C1416 H1406 0.937 . S
C1416 C1415 1.393 1_556 S
C1416 C1419 1.389 . S
H1417 C1433 0.930 . S
H1418 C1434 0.964 . S
C1419 H1407 0.959 . S
C1419 C1413 1.358 1_556 S
C1419 C1416 1.389 . S
C1420 C1415 1.490 . S
C1420 C1422 1.395 . S
C1420 C1423 1.403 . S
H1421 C1427 0.930 . S
C1422 H1408 0.930 . S
C1422 C1420 1.395 . S
C1422 C1425 1.403 . S
C1423 C1420 1.403 . S
C1423 C1424 1.524 . S
C1423 C1427 1.400 . S
C1424 H1409 0.960 . S
C1424 H1410 0.960 . S
C1424 H1411 0.960 . S
C1424 C1423 1.524 . S
C1425 C1422 1.403 . S
C1425 C1426 1.392 . S
C1425 C1429 1.495 . S
C1426 C1425 1.392 . S
C1426 C1427 1.385 . S
C1426 C1428 1.478 1_565 S
C1427 H1421 0.930 . S
C1427 C1423 1.400 . S
C1427 C1426 1.385 . S
C1428 C1426 1.478 1_545 S
C1428 C1430 1.381 . S
C1428 C1434 1.383 1_554 S
C1429 C1425 1.495 . S
C1429 H1435 0.959 . S
C1429 H1436 0.961 1_554 S
C1429 H1437 0.960 . S
C1430 C1428 1.381 . S
C1430 C1431 1.394 . S
C1430 H1438 0.930 . S
C1431 C1430 1.394 . S
C1431 C1432 1.383 . S
C1431 H1439 0.929 . S
C1432 C1431 1.383 . S
C1432 C1433 1.377 1_554 S
C1433 H1417 0.930 . S
C1433 C1432 1.377 1_556 S
C1433 C1434 1.379 . S
C1434 H1418 0.964 . S
C1434 C1428 1.383 1_556 S
C1434 C1433 1.379 . S
H1435 C1429 0.959 . S
H1436 C1429 0.961 1_556 S
H1437 C1429 0.960 . S
H1438 C1430 0.930 . S
H1439 C1431 0.929 . S
H1440 C1448 0.929 . S
H1441 C1450 0.930 . S
H1442 C1452 0.930 . S
H1443 C1455 0.929 . S
H1444 C1458 0.930 . S
H1445 C1460 0.960 . S
H1446 C1460 0.960 . S
H1447 C1460 0.960 . S
C1448 H1440 0.929 . S
C1448 C1449 1.377 . S
C1448 C1450 1.384 . S
C1449 C1448 1.377 . S
C1449 C1455 1.390 . S
C1450 H1441 0.930 . S
C1450 C1448 1.384 . S
C1450 C1451 1.372 . S
C1451 C1450 1.372 . S
C1451 C1452 1.400 . S
C1451 C1456 1.490 . S
C1452 H1442 0.930 . S
C1452 C1451 1.400 . S
C1452 C1455 1.386 . S
H1453 C1469 0.930 . S
H1454 C1470 0.931 . S
C1455 H1443 0.929 . S
C1455 C1449 1.390 . S
C1455 C1452 1.386 . S
C1456 C1451 1.490 . S
C1456 C1458 1.395 . S
C1456 C1459 1.403 . S
H1457 C1463 0.930 . S
C1458 H1444 0.930 . S
C1458 C1456 1.395 . S
C1458 C1461 1.403 . S
C1459 C1456 1.403 . S
C1459 C1460 1.524 . S
C1459 C1463 1.400 . S
C1460 H1445 0.960 . S
C1460 H1446 0.960 . S
C1460 H1447 0.960 . S
C1460 C1459 1.524 . S
C1461 C1458 1.403 . S
C1461 C1462 1.392 . S
C1461 C1465 1.495 . S
C1462 C1461 1.392 . S
C1462 C1463 1.385 . S
C1462 C1464 1.478 . S
C1463 H1457 0.930 . S
C1463 C1459 1.400 . S
C1463 C1462 1.385 . S
C1464 C1462 1.478 . S
C1464 C1466 1.381 . S
C1464 C1470 1.383 . S
C1465 C1461 1.495 . S
C1465 H1471 0.959 . S
C1465 H1472 0.961 . S
C1465 H1473 0.960 . S
C1466 C1464 1.381 . S
C1466 C1467 1.394 . S
C1466 H1474 0.930 . S
C1467 C1466 1.394 . S
C1467 C1468 1.383 . S
C1467 H1475 0.929 . S
C1468 C1467 1.383 . S
C1468 C1469 1.377 . S
C1469 H1453 0.930 . S
C1469 C1468 1.377 . S
C1469 C1470 1.379 . S
C1470 H1454 0.931 . S
C1470 C1464 1.383 . S
C1470 C1469 1.379 . S
H1471 C1465 0.959 . S
H1472 C1465 0.961 . S
H1473 C1465 0.960 . S
H1474 C1466 0.930 . S
H1475 C1467 0.929 . S
H1476 C1484 0.929 . S
H1477 C1486 0.930 . S
H1478 C1488 0.930 . S
H1479 C1491 0.929 . S
H1480 C1494 0.930 . S
H1481 C1496 0.960 . S
H1482 C1496 0.960 . S
H1483 C1496 0.960 . S
C1484 H1476 0.929 . S
C1484 C1485 1.379 1_556 S
C1484 C1486 1.384 . S
C1485 C1484 1.379 1_554 S
C1485 C1491 1.388 . S
C1486 H1477 0.930 . S
C1486 C1484 1.384 . S
C1486 C1487 1.372 . S
C1487 C1486 1.372 . S
C1487 C1488 1.400 1_556 S
C1487 C1492 1.490 . S
C1488 H1478 0.930 . S
C1488 C1487 1.400 1_554 S
C1488 C1491 1.386 . S
H1489 C1505 0.930 1_554 S
H1490 C1506 0.931 1_554 S
C1491 H1479 0.929 . S
C1491 C1485 1.388 . S
C1491 C1488 1.386 . S
C1492 C1487 1.490 . S
C1492 C1494 1.395 1_556 S
C1492 C1495 1.403 . S
H1493 C1499 0.930 . S
C1494 H1480 0.930 . S
C1494 C1492 1.395 1_554 S
C1494 C1497 1.403 . S
C1495 C1492 1.403 . S
C1495 C1496 1.524 . S
C1495 C1499 1.400 . S
C1496 H1481 0.960 . S
C1496 H1482 0.960 . S
C1496 H1483 0.960 . S
C1496 C1495 1.524 . S
C1497 C1494 1.403 . S
C1497 C1498 1.392 1_554 S
C1497 C1501 1.495 . S
C1498 C1497 1.392 1_556 S
C1498 C1499 1.385 . S
C1498 C1500 1.478 . S
C1499 H1493 0.930 . S
C1499 C1495 1.400 . S
C1499 C1498 1.385 . S
C1500 C1498 1.478 . S
C1500 C1502 1.381 . S
C1500 C1506 1.383 . S
C1501 C1497 1.495 . S
C1501 H1507 0.959 . S
C1501 H1508 0.961 . S
C1501 H1509 0.960 . S
C1502 C1500 1.381 . S
C1502 C1503 1.394 . S
C1502 H1510 0.930 . S
C1503 C1502 1.394 . S
C1503 C1504 1.383 . S
C1503 H1511 0.929 . S
C1504 C1503 1.383 . S
C1504 C1505 1.377 . S
C1505 H1489 0.930 1_556 S
C1505 C1504 1.377 . S
C1505 C1506 1.379 . S
C1506 H1490 0.931 1_556 S
C1506 C1500 1.383 . S
C1506 C1505 1.379 . S
H1507 C1501 0.959 . S
H1508 C1501 0.961 . S
H1509 C1501 0.960 . S
H1510 C1502 0.930 . S
H1511 C1503 0.929 . S
H1512 C1520 0.929 . S
H1513 C1522 0.930 . S
H1514 C1524 0.930 . S
H1515 C1527 0.929 . S
H1516 C1530 0.930 . S
H1517 C1532 0.960 . S
H1518 C1532 0.960 . S
H1519 C1532 0.960 . S
C1520 H1512 0.929 . S
C1520 C1521 1.377 . S
C1520 C1522 1.384 . S
C1521 C1520 1.377 . S
C1521 C1527 1.390 . S
C1522 H1513 0.930 . S
C1522 C1520 1.384 . S
C1522 C1523 1.372 . S
C1523 C1522 1.372 . S
C1523 C1524 1.400 . S
C1523 C1528 1.490 . S
C1524 H1514 0.930 . S
C1524 C1523 1.400 . S
C1524 C1527 1.386 . S
H1525 C1541 0.930 . S
H1526 C1542 0.931 . S
C1527 H1515 0.929 . S
C1527 C1521 1.390 . S
C1527 C1524 1.386 . S
C1528 C1523 1.490 . S
C1528 C1530 1.395 . S
C1528 C1531 1.403 . S
H1529 C1535 0.930 . S
C1530 H1516 0.930 . S
C1530 C1528 1.395 . S
C1530 C1533 1.403 . S
C1531 C1528 1.403 . S
C1531 C1532 1.524 . S
C1531 C1535 1.400 . S
C1532 H1517 0.960 . S
C1532 H1518 0.960 . S
C1532 H1519 0.960 . S
C1532 C1531 1.524 . S
C1533 C1530 1.403 . S
C1533 C1534 1.392 . S
C1533 C1537 1.495 . S
C1534 C1533 1.392 . S
C1534 C1535 1.385 . S
C1534 C1536 1.478 . S
C1535 H1529 0.930 . S
C1535 C1531 1.400 . S
C1535 C1534 1.385 . S
C1536 C1534 1.478 . S
C1536 C1538 1.381 . S
C1536 C1542 1.383 . S
C1537 C1533 1.495 . S
C1537 H1543 0.959 . S
C1537 H1544 0.961 . S
C1537 H1545 0.960 . S
C1538 C1536 1.381 . S
C1538 C1539 1.394 . S
C1538 H1546 0.930 . S
C1539 C1538 1.394 . S
C1539 C1540 1.383 . S
C1539 H1547 0.929 . S
C1540 C1539 1.383 . S
C1540 C1541 1.377 . S
C1541 H1525 0.930 . S
C1541 C1540 1.377 . S
C1541 C1542 1.379 . S
C1542 H1526 0.931 . S
C1542 C1536 1.383 . S
C1542 C1541 1.379 . S
H1543 C1537 0.959 . S
H1544 C1537 0.961 . S
H1545 C1537 0.960 . S
H1546 C1538 0.930 . S
H1547 C1539 0.929 . S
H1548 C1556 0.929 . S
H1549 C1558 0.930 . S
H1550 C1560 0.930 1_655 S
H1551 C1563 0.929 1_655 S
H1552 C1566 0.930 . S
H1553 C1568 0.960 . S
H1554 C1568 0.960 . S
H1555 C1568 0.960 . S
C1556 H1548 0.929 . S
C1556 C1557 1.377 . S
C1556 C1558 1.384 . S
C1557 C1556 1.377 . S
C1557 C1563 1.390 . S
C1558 H1549 0.930 . S
C1558 C1556 1.384 . S
C1558 C1559 1.372 . S
C1559 C1558 1.372 . S
C1559 C1560 1.400 . S
C1559 C1564 1.490 . S
C1560 H1550 0.930 1_455 S
C1560 C1559 1.400 . S
C1560 C1563 1.386 . S
H1561 C1577 0.931 . S
H1562 C1578 0.977 . S
C1563 H1551 0.929 1_455 S
C1563 C1557 1.390 . S
C1563 C1560 1.386 . S
C1564 C1559 1.490 . S
C1564 C1566 1.395 . S
C1564 C1567 1.403 . S
H1565 C1571 0.930 . S
C1566 H1552 0.930 . S
C1566 C1564 1.395 . S
C1566 C1569 1.403 . S
C1567 C1564 1.403 . S
C1567 C1568 1.524 . S
C1567 C1571 1.400 . S
C1568 H1553 0.960 . S
C1568 H1554 0.960 . S
C1568 H1555 0.960 . S
C1568 C1567 1.524 . S
C1569 C1566 1.403 . S
C1569 C1570 1.392 . S
C1569 C1573 1.495 1_455 S
C1570 C1569 1.392 . S
C1570 C1571 1.385 . S
C1570 C1572 1.478 1_556 S
C1571 H1565 0.930 . S
C1571 C1567 1.400 . S
C1571 C1570 1.385 . S
C1572 C1570 1.478 1_554 S
C1572 C1574 1.381 . S
C1572 C1578 1.360 1_455 S
C1573 C1569 1.495 1_655 S
C1573 H1579 0.959 . S
C1573 H1580 0.961 . S
C1573 H1581 0.960 1_655 S
C1574 C1572 1.381 . S
C1574 C1575 1.394 . S
C1574 H1582 0.930 . S
C1575 C1574 1.394 . S
C1575 C1576 1.383 . S
C1575 H1583 0.929 . S
C1576 C1575 1.383 . S
C1576 C1577 1.376 1_455 S
C1577 H1561 0.931 . S
C1577 C1576 1.376 1_655 S
C1577 C1578 1.382 . S
C1578 H1562 0.977 . S
C1578 C1572 1.360 1_655 S
C1578 C1577 1.382 . S
H1579 C1573 0.959 . S
H1580 C1573 0.961 . S
H1581 C1573 0.960 1_455 S
H1582 C1574 0.930 . S
H1583 C1575 0.929 . S
H1584 C1592 0.929 . S
H1585 C1594 0.930 . S
H1586 C1596 0.930 . S
H1587 C1599 0.929 . S
H1588 C1602 0.930 . S
H1589 C1604 0.960 . S
H1590 C1604 0.960 . S
H1591 C1604 0.960 . S
C1592 H1584 0.929 . S
C1592 C1593 1.377 . S
C1592 C1594 1.384 . S
C1593 C1592 1.377 . S
C1593 C1599 1.390 . S
C1594 H1585 0.930 . S
C1594 C1592 1.384 . S
C1594 C1595 1.372 . S
C1595 C1594 1.372 . S
C1595 C1596 1.400 . S
C1595 C1600 1.490 . S
C1596 H1586 0.930 . S
C1596 C1595 1.400 . S
C1596 C1599 1.386 . S
H1597 C1613 0.930 . S
H1598 C1614 0.931 . S
C1599 H1587 0.929 . S
C1599 C1593 1.390 . S
C1599 C1596 1.386 . S
C1600 C1595 1.490 . S
C1600 C1602 1.395 . S
C1600 C1603 1.403 . S
H1601 C1607 0.930 . S
C1602 H1588 0.930 . S
C1602 C1600 1.395 . S
C1602 C1605 1.403 . S
C1603 C1600 1.403 . S
C1603 C1604 1.524 . S
C1603 C1607 1.400 . S
C1604 H1589 0.960 . S
C1604 H1590 0.960 . S
C1604 H1591 0.960 . S
C1604 C1603 1.524 . S
C1605 C1602 1.403 . S
C1605 C1606 1.392 . S
C1605 C1609 1.495 . S
C1606 C1605 1.392 . S
C1606 C1607 1.385 . S
C1606 C1608 1.478 . S
C1607 H1601 0.930 . S
C1607 C1603 1.400 . S
C1607 C1606 1.385 . S
C1608 C1606 1.478 . S
C1608 C1610 1.381 . S
C1608 C1614 1.383 . S
C1609 C1605 1.495 . S
C1609 H1615 0.959 . S
C1609 H1616 0.961 . S
C1609 H1617 0.960 . S
C1610 C1608 1.381 . S
C1610 C1611 1.394 . S
C1610 H1618 0.930 . S
C1611 C1610 1.394 . S
C1611 C1612 1.383 . S
C1611 H1619 0.929 . S
C1612 C1611 1.383 . S
C1612 C1613 1.377 . S
C1613 H1597 0.930 . S
C1613 C1612 1.377 . S
C1613 C1614 1.379 . S
C1614 H1598 0.931 . S
C1614 C1608 1.383 . S
C1614 C1613 1.379 . S
H1615 C1609 0.959 . S
H1616 C1609 0.961 . S
H1617 C1609 0.960 . S
H1618 C1610 0.930 . S
H1619 C1611 0.929 . S
H1620 C1628 0.929 . S
H1621 C1630 0.930 . S
H1622 C1632 0.930 . S
H1623 C1635 0.929 . S
H1624 C1638 0.930 . S
H1625 C1640 0.960 . S
H1626 C1640 0.960 1_655 S
H1627 C1640 0.960 . S
C1628 H1620 0.929 . S
C1628 C1629 1.376 1_655 S
C1628 C1630 1.384 . S
C1629 C1628 1.376 1_455 S
C1629 C1635 1.391 . S
C1630 H1621 0.930 . S
C1630 C1628 1.384 . S
C1630 C1631 1.372 . S
C1631 C1630 1.372 . S
C1631 C1632 1.400 1_655 S
C1631 C1636 1.490 . S
C1632 H1622 0.930 . S
C1632 C1631 1.400 1_455 S
C1632 C1635 1.386 . S
H1633 C1649 0.930 . S
H1634 C1650 0.931 . S
C1635 H1623 0.929 . S
C1635 C1629 1.391 . S
C1635 C1632 1.386 . S
C1636 C1631 1.490 . S
C1636 C1638 1.395 . S
C1636 C1639 1.403 . S
H1637 C1643 0.930 . S
C1638 H1624 0.930 . S
C1638 C1636 1.395 . S
C1638 C1641 1.403 . S
C1639 C1636 1.403 . S
C1639 C1640 1.524 1_655 S
C1639 C1643 1.400 . S
C1640 H1625 0.960 . S
C1640 H1626 0.960 1_455 S
C1640 H1627 0.960 . S
C1640 C1639 1.524 1_455 S
C1641 C1638 1.403 . S
C1641 C1642 1.392 . S
C1641 C1645 1.495 . S
C1642 C1641 1.392 . S
C1642 C1643 1.385 . S
C1642 C1644 1.478 . S
C1643 H1637 0.930 . S
C1643 C1639 1.400 . S
C1643 C1642 1.385 . S
C1644 C1642 1.478 . S
C1644 C1646 1.381 . S
C1644 C1650 1.383 1_655 S
C1645 C1641 1.495 . S
C1645 H1651 0.959 . S
C1645 H1652 0.961 . S
C1645 H1653 0.960 . S
C1646 C1644 1.381 . S
C1646 C1647 1.394 . S
C1646 H1654 0.930 . S
C1647 C1646 1.394 . S
C1647 C1648 1.383 . S
C1647 H1655 0.929 . S
C1648 C1647 1.383 . S
C1648 C1649 1.377 1_655 S
C1649 H1633 0.930 . S
C1649 C1648 1.377 1_455 S
C1649 C1650 1.379 . S
C1650 H1634 0.931 . S
C1650 C1644 1.383 1_455 S
C1650 C1649 1.379 . S
H1651 C1645 0.959 . S
H1652 C1645 0.961 . S
H1653 C1645 0.960 . S
H1654 C1646 0.930 . S
H1655 C1647 0.929 . S
H1656 C1664 0.929 . S
H1657 C1666 0.930 . S
H1658 C1668 0.930 . S
H1659 C1671 0.929 . S
H1660 C1674 0.930 . S
H1661 C1676 0.960 . S
H1662 C1676 0.960 . S
H1663 C1676 0.960 . S
C1664 H1656 0.929 . S
C1664 C1665 1.377 . S
C1664 C1666 1.384 . S
C1665 C1664 1.377 . S
C1665 C1671 1.390 . S
C1666 H1657 0.930 . S
C1666 C1664 1.384 . S
C1666 C1667 1.372 . S
C1667 C1666 1.372 . S
C1667 C1668 1.400 . S
C1667 C1672 1.490 . S
C1668 H1658 0.930 . S
C1668 C1667 1.400 . S
C1668 C1671 1.386 . S
H1669 C1685 0.930 . S
H1670 C1686 0.931 . S
C1671 H1659 0.929 . S
C1671 C1665 1.390 . S
C1671 C1668 1.386 . S
C1672 C1667 1.490 . S
C1672 C1674 1.395 . S
C1672 C1675 1.403 . S
H1673 C1679 0.930 . S
C1674 H1660 0.930 . S
C1674 C1672 1.395 . S
C1674 C1677 1.403 . S
C1675 C1672 1.403 . S
C1675 C1676 1.524 . S
C1675 C1679 1.400 . S
C1676 H1661 0.960 . S
C1676 H1662 0.960 . S
C1676 H1663 0.960 . S
C1676 C1675 1.524 . S
C1677 C1674 1.403 . S
C1677 C1678 1.392 . S
C1677 C1681 1.495 . S
C1678 C1677 1.392 . S
C1678 C1679 1.385 . S
C1678 C1680 1.478 . S
C1679 H1673 0.930 . S
C1679 C1675 1.400 . S
C1679 C1678 1.385 . S
C1680 C1678 1.478 . S
C1680 C1682 1.381 . S
C1680 C1686 1.383 . S
C1681 C1677 1.495 . S
C1681 H1687 0.959 . S
C1681 H1688 0.961 . S
C1681 H1689 0.960 . S
C1682 C1680 1.381 . S
C1682 C1683 1.394 . S
C1682 H1690 0.930 . S
C1683 C1682 1.394 . S
C1683 C1684 1.383 . S
C1683 H1691 0.929 . S
C1684 C1683 1.383 . S
C1684 C1685 1.377 . S
C1685 H1669 0.930 . S
C1685 C1684 1.377 . S
C1685 C1686 1.379 . S
C1686 H1670 0.931 . S
C1686 C1680 1.383 . S
C1686 C1685 1.379 . S
H1687 C1681 0.959 . S
H1688 C1681 0.961 . S
H1689 C1681 0.960 . S
H1690 C1682 0.930 . S
H1691 C1683 0.929 . S
H1692 C1700 0.929 . S
H1693 C1702 0.930 . S
H1694 C1704 0.930 . S
H1695 C1707 0.929 . S
H1696 C1710 0.930 . S
H1697 C1712 0.960 . S
H1698 C1712 0.960 . S
H1699 C1712 0.960 . S
C1700 H1692 0.929 . S
C1700 C1701 1.377 . S
C1700 C1702 1.384 . S
C1701 C1700 1.377 . S
C1701 C1707 1.390 . S
C1702 H1693 0.930 . S
C1702 C1700 1.384 . S
C1702 C1703 1.372 . S
C1703 C1702 1.372 . S
C1703 C1704 1.400 . S
C1703 C1708 1.490 . S
C1704 H1694 0.930 . S
C1704 C1703 1.400 . S
C1704 C1707 1.386 . S
H1705 C1721 0.930 . S
H1706 C1722 0.931 . S
C1707 H1695 0.929 . S
C1707 C1701 1.390 . S
C1707 C1704 1.386 . S
C1708 C1703 1.490 . S
C1708 C1710 1.395 . S
C1708 C1711 1.403 . S
H1709 C1715 0.930 . S
C1710 H1696 0.930 . S
C1710 C1708 1.395 . S
C1710 C1713 1.403 . S
C1711 C1708 1.403 . S
C1711 C1712 1.524 . S
C1711 C1715 1.400 . S
C1712 H1697 0.960 . S
C1712 H1698 0.960 . S
C1712 H1699 0.960 . S
C1712 C1711 1.524 . S
C1713 C1710 1.403 . S
C1713 C1714 1.392 . S
C1713 C1717 1.495 . S
C1714 C1713 1.392 . S
C1714 C1715 1.385 . S
C1714 C1716 1.478 . S
C1715 H1709 0.930 . S
C1715 C1711 1.400 . S
C1715 C1714 1.385 . S
C1716 C1714 1.478 . S
C1716 C1718 1.381 . S
C1716 C1722 1.383 . S
C1717 C1713 1.495 . S
C1717 H1723 0.959 . S
C1717 H1724 0.961 . S
C1717 H1725 0.960 . S
C1718 C1716 1.381 . S
C1718 C1719 1.394 . S
C1718 H1726 0.930 . S
C1719 C1718 1.394 . S
C1719 C1720 1.383 . S
C1719 H1727 0.929 . S
C1720 C1719 1.383 . S
C1720 C1721 1.377 . S
C1721 H1705 0.930 . S
C1721 C1720 1.377 . S
C1721 C1722 1.379 . S
C1722 H1706 0.931 . S
C1722 C1716 1.383 . S
C1722 C1721 1.379 . S
H1723 C1717 0.959 . S
H1724 C1717 0.961 . S
H1725 C1717 0.960 . S
H1726 C1718 0.930 . S
H1727 C1719 0.929 . S
H1728 C1736 0.929 . S
H1729 C1738 0.930 . S
H1730 C1740 0.930 . S
H1731 C1743 0.929 . S
H1732 C1746 0.930 1_565 S
H1733 C1748 0.960 . S
H1734 C1748 0.960 . S
H1735 C1748 0.960 . S
C1736 H1728 0.929 . S
C1736 C1737 1.380 1_545 S
C1736 C1738 1.384 . S
C1737 C1736 1.380 1_565 S
C1737 C1743 1.388 . S
C1738 H1729 0.930 . S
C1738 C1736 1.384 . S
C1738 C1739 1.372 . S
C1739 C1738 1.372 . S
C1739 C1740 1.400 1_545 S
C1739 C1744 1.490 . S
C1740 H1730 0.930 . S
C1740 C1739 1.400 1_565 S
C1740 C1743 1.386 . S
H1741 C1757 0.930 1_565 S
H1742 C1758 0.958 . S
C1743 H1731 0.929 . S
C1743 C1737 1.388 . S
C1743 C1740 1.386 . S
C1744 C1739 1.490 . S
C1744 C1746 1.395 . S
C1744 C1747 1.403 . S
H1745 C1751 0.930 . S
C1746 H1732 0.930 1_545 S
C1746 C1744 1.395 . S
C1746 C1749 1.403 . S
C1747 C1744 1.403 . S
C1747 C1748 1.524 . S
C1747 C1751 1.400 . S
C1748 H1733 0.960 . S
C1748 H1734 0.960 . S
C1748 H1735 0.960 . S
C1748 C1747 1.524 . S
C1749 C1746 1.403 . S
C1749 C1750 1.392 . S
C1749 C1753 1.495 1_545 S
C1750 C1749 1.392 . S
C1750 C1751 1.385 . S
C1750 C1752 1.478 . S
C1751 H1745 0.930 . S
C1751 C1747 1.400 . S
C1751 C1750 1.385 . S
C1752 C1750 1.478 . S
C1752 C1754 1.381 . S
C1752 C1758 1.360 1_545 S
C1753 C1749 1.495 1_565 S
C1753 H1759 0.959 . S
C1753 H1760 0.961 . S
C1753 H1761 0.960 1_565 S
C1754 C1752 1.381 . S
C1754 C1755 1.394 . S
C1754 H1762 0.930 . S
C1755 C1754 1.394 . S
C1755 C1756 1.383 . S
C1755 H1763 0.929 . S
C1756 C1755 1.383 . S
C1756 C1757 1.377 . S
C1757 H1741 0.930 1_545 S
C1757 C1756 1.377 . S
C1757 C1758 1.377 1_545 S
C1758 H1742 0.958 . S
C1758 C1752 1.360 1_565 S
C1758 C1757 1.377 1_565 S
H1759 C1753 0.959 . S
H1760 C1753 0.961 . S
H1761 C1753 0.960 1_545 S
H1762 C1754 0.930 . S
H1763 C1755 0.929 . S
H1764 C1772 0.929 1_545 S
H1765 C1774 0.904 1_545 S
H1766 C1776 0.930 . S
H1767 C1779 0.929 . S
H1768 C1782 0.930 . S
H1769 C1784 0.960 . S
H1770 C1784 0.960 . S
H1771 C1784 0.960 . S
C1772 H1764 0.929 1_565 S
C1772 C1773 1.377 . S
C1772 C1774 1.384 . S
C1773 C1772 1.377 . S
C1773 C1779 1.390 . S
C1774 H1765 0.904 1_565 S
C1774 C1772 1.384 . S
C1774 C1775 1.372 . S
C1775 C1774 1.372 . S
C1775 C1776 1.400 . S
C1775 C1780 1.490 . S
C1776 H1766 0.930 . S
C1776 C1775 1.400 . S
C1776 C1779 1.386 . S
H1777 C1793 0.930 . S
H1778 C1794 0.931 . S
C1779 H1767 0.929 . S
C1779 C1773 1.390 . S
C1779 C1776 1.386 . S
C1780 C1775 1.490 . S
C1780 C1782 1.395 . S
C1780 C1783 1.403 . S
H1781 C1787 0.930 1_545 S
C1782 H1768 0.930 . S
C1782 C1780 1.395 . S
C1782 C1785 1.403 . S
C1783 C1780 1.403 . S
C1783 C1784 1.524 1_565 S
C1783 C1787 1.400 . S
C1784 H1769 0.960 . S
C1784 H1770 0.960 . S
C1784 H1771 0.960 . S
C1784 C1783 1.524 1_545 S
C1785 C1782 1.403 . S
C1785 C1786 1.392 . S
C1785 C1789 1.495 . S
C1786 C1785 1.392 . S
C1786 C1787 1.385 . S
C1786 C1788 1.478 1_455 S
C1787 H1781 0.930 1_565 S
C1787 C1783 1.400 . S
C1787 C1786 1.385 . S
C1788 C1786 1.478 1_655 S
C1788 C1790 1.381 . S
C1788 C1794 1.383 . S
C1789 C1785 1.495 . S
C1789 H1795 0.959 . S
C1789 H1796 0.961 . S
C1789 H1797 0.960 . S
C1790 C1788 1.381 . S
C1790 C1791 1.394 . S
C1790 H1798 0.920 1_565 S
C1791 C1790 1.394 . S
C1791 C1792 1.383 . S
C1791 H1799 0.929 1_565 S
C1792 C1791 1.383 . S
C1792 C1793 1.377 . S
C1793 H1777 0.930 . S
C1793 C1792 1.377 . S
C1793 C1794 1.379 . S
C1794 H1778 0.931 . S
C1794 C1788 1.383 . S
C1794 C1793 1.379 . S
H1795 C1789 0.959 . S
H1796 C1789 0.961 . S
H1797 C1789 0.960 . S
H1798 C1790 0.920 1_545 S
H1799 C1791 0.929 1_545 S
H1800 C1808 0.929 . S
H1801 C1810 0.930 . S
H1802 C1812 0.930 . S
H1803 C1815 0.929 . S
H1804 C1818 0.930 . S
H1805 C1820 0.960 . S
H1806 C1820 0.960 . S
H1807 C1820 0.960 . S
C1808 H1800 0.929 . S
C1808 C1809 1.377 . S
C1808 C1810 1.384 . S
C1809 C1808 1.377 . S
C1809 C1815 1.390 . S
C1810 H1801 0.930 . S
C1810 C1808 1.384 . S
C1810 C1811 1.372 . S
C1811 C1810 1.372 . S
C1811 C1812 1.400 . S
C1811 C1816 1.490 . S
C1812 H1802 0.930 . S
C1812 C1811 1.400 . S
C1812 C1815 1.386 . S
H1813 C1829 0.930 . S
H1814 C1830 0.931 . S
C1815 H1803 0.929 . S
C1815 C1809 1.390 . S
C1815 C1812 1.386 . S
C1816 C1811 1.490 . S
C1816 C1818 1.395 . S
C1816 C1819 1.403 . S
H1817 C1823 0.930 . S
C1818 H1804 0.930 . S
C1818 C1816 1.395 . S
C1818 C1821 1.403 . S
C1819 C1816 1.403 . S
C1819 C1820 1.524 . S
C1819 C1823 1.400 . S
C1820 H1805 0.960 . S
C1820 H1806 0.960 . S
C1820 H1807 0.960 . S
C1820 C1819 1.524 . S
C1821 C1818 1.403 . S
C1821 C1822 1.392 . S
C1821 C1825 1.495 . S
C1822 C1821 1.392 . S
C1822 C1823 1.385 . S
C1822 C1824 1.478 . S
C1823 H1817 0.930 . S
C1823 C1819 1.400 . S
C1823 C1822 1.385 . S
C1824 C1822 1.478 . S
C1824 C1826 1.381 . S
C1824 C1830 1.383 . S
C1825 C1821 1.495 . S
C1825 H1831 0.959 . S
C1825 H1832 0.961 . S
C1825 H1833 0.960 . S
C1826 C1824 1.381 . S
C1826 C1827 1.394 . S
C1826 H1834 0.930 . S
C1827 C1826 1.394 . S
C1827 C1828 1.383 . S
C1827 H1835 0.929 . S
C1828 C1827 1.383 . S
C1828 C1829 1.377 . S
C1829 H1813 0.930 . S
C1829 C1828 1.377 . S
C1829 C1830 1.379 . S
C1830 H1814 0.931 . S
C1830 C1824 1.383 . S
C1830 C1829 1.379 . S
H1831 C1825 0.959 . S
H1832 C1825 0.961 . S
H1833 C1825 0.960 . S
H1834 C1826 0.930 . S
H1835 C1827 0.929 . S
H1836 C1844 0.929 . S
H1837 C1846 0.930 . S
H1838 C1848 0.930 . S
H1839 C1851 0.929 . S
H1840 C1854 0.930 1_554 S
H1841 C1856 0.960 . S
H1842 C1856 0.960 . S
H1843 C1856 0.960 . S
C1844 H1836 0.929 . S
C1844 C1845 1.377 1_554 S
C1844 C1846 1.384 . S
C1845 C1844 1.377 1_556 S
C1845 C1851 1.390 . S
C1846 H1837 0.930 . S
C1846 C1844 1.384 . S
C1846 C1847 1.372 1_554 S
C1847 C1846 1.372 1_556 S
C1847 C1848 1.400 . S
C1847 C1852 1.490 . S
C1848 H1838 0.930 . S
C1848 C1847 1.400 . S
C1848 C1851 1.386 . S
H1849 C1865 0.930 . S
H1850 C1866 0.931 . S
C1851 H1839 0.929 . S
C1851 C1845 1.390 . S
C1851 C1848 1.386 . S
C1852 C1847 1.490 . S
C1852 C1854 1.395 . S
C1852 C1855 1.403 . S
H1853 C1859 0.930 . S
C1854 H1840 0.930 1_556 S
C1854 C1852 1.395 . S
C1854 C1857 1.403 . S
C1855 C1852 1.403 . S
C1855 C1856 1.524 . S
C1855 C1859 1.400 . S
C1856 H1841 0.960 . S
C1856 H1842 0.960 . S
C1856 H1843 0.960 . S
C1856 C1855 1.524 . S
C1857 C1854 1.403 . S
C1857 C1858 1.392 . S
C1857 C1861 1.495 1_556 S
C1858 C1857 1.392 . S
C1858 C1859 1.385 . S
C1858 C1860 1.478 1_545 S
C1859 H1853 0.930 . S
C1859 C1855 1.400 . S
C1859 C1858 1.385 . S
C1860 C1858 1.478 1_565 S
C1860 C1862 1.381 1_556 S
C1860 C1866 1.383 . S
C1861 C1857 1.495 1_554 S
C1861 H1867 0.959 . S
C1861 H1868 0.961 1_554 S
C1861 H1869 0.960 . S
C1862 C1860 1.381 1_554 S
C1862 C1863 1.394 . S
C1862 H1870 0.930 . S
C1863 C1862 1.394 . S
C1863 C1864 1.383 1_554 S
C1863 H1871 0.929 . S
C1864 C1863 1.383 1_556 S
C1864 C1865 1.377 . S
C1865 H1849 0.930 . S
C1865 C1864 1.377 . S
C1865 C1866 1.379 . S
C1866 H1850 0.931 . S
C1866 C1860 1.383 . S
C1866 C1865 1.379 . S
H1867 C1861 0.959 . S
H1868 C1861 0.961 1_556 S
H1869 C1861 0.960 . S
H1870 C1862 0.930 . S
H1871 C1863 0.929 . S
H1872 C1880 0.929 . S
H1873 C1882 0.930 . S
H1874 C1884 0.930 . S
H1875 C1887 0.929 . S
H1876 C1890 0.930 . S
H1877 C1892 0.960 . S
H1878 C1892 0.960 . S
H1879 C1892 0.960 . S
C1880 H1872 0.929 . S
C1880 C1881 1.377 . S
C1880 C1882 1.384 . S
C1881 C1880 1.377 . S
C1881 C1887 1.390 . S
C1882 H1873 0.930 . S
C1882 C1880 1.384 . S
C1882 C1883 1.372 . S
C1883 C1882 1.372 . S
C1883 C1884 1.400 . S
C1883 C1888 1.490 . S
C1884 H1874 0.930 . S
C1884 C1883 1.400 . S
C1884 C1887 1.386 . S
H1885 C1901 0.930 . S
H1886 C1902 0.931 . S
C1887 H1875 0.929 . S
C1887 C1881 1.390 . S
C1887 C1884 1.386 . S
C1888 C1883 1.490 . S
C1888 C1890 1.395 . S
C1888 C1891 1.403 . S
H1889 C1895 0.930 . S
C1890 H1876 0.930 . S
C1890 C1888 1.395 . S
C1890 C1893 1.403 . S
C1891 C1888 1.403 . S
C1891 C1892 1.524 . S
C1891 C1895 1.400 . S
C1892 H1877 0.960 . S
C1892 H1878 0.960 . S
C1892 H1879 0.960 . S
C1892 C1891 1.524 . S
C1893 C1890 1.403 . S
C1893 C1894 1.392 . S
C1893 C1897 1.495 . S
C1894 C1893 1.392 . S
C1894 C1895 1.385 . S
C1894 C1896 1.478 . S
C1895 H1889 0.930 . S
C1895 C1891 1.400 . S
C1895 C1894 1.385 . S
C1896 C1894 1.478 . S
C1896 C1898 1.381 . S
C1896 C1902 1.383 . S
C1897 C1893 1.495 . S
C1897 H1903 0.959 . S
C1897 H1904 0.961 . S
C1897 H1905 0.960 . S
C1898 C1896 1.381 . S
C1898 C1899 1.394 . S
C1898 H1906 0.930 . S
C1899 C1898 1.394 . S
C1899 C1900 1.383 . S
C1899 H1907 0.929 . S
C1900 C1899 1.383 . S
C1900 C1901 1.377 . S
C1901 H1885 0.930 . S
C1901 C1900 1.377 . S
C1901 C1902 1.379 . S
C1902 H1886 0.931 . S
C1902 C1896 1.383 . S
C1902 C1901 1.379 . S
H1903 C1897 0.959 . S
H1904 C1897 0.961 . S
H1905 C1897 0.960 . S
H1906 C1898 0.930 . S
H1907 C1899 0.929 . S
H1908 C1916 0.929 . S
H1909 C1918 0.930 . S
H1910 C1920 0.930 . S
H1911 C1923 0.929 . S
H1912 C1926 0.930 . S
H1913 C1928 0.960 . S
H1914 C1928 0.960 . S
H1915 C1928 0.960 . S
C1916 H1908 0.929 . S
C1916 C1917 1.378 1_554 S
C1916 C1918 1.384 . S
C1917 C1916 1.378 1_556 S
C1917 C1923 1.389 . S
C1918 H1909 0.930 . S
C1918 C1916 1.384 . S
C1918 C1919 1.372 . S
C1919 C1918 1.372 . S
C1919 C1920 1.400 1_554 S
C1919 C1924 1.490 . S
C1920 H1910 0.930 . S
C1920 C1919 1.400 1_556 S
C1920 C1923 1.386 . S
H1921 C1937 0.944 . S
H1922 C1938 0.931 1_556 S
C1923 H1911 0.929 . S
C1923 C1917 1.389 . S
C1923 C1920 1.386 . S
C1924 C1919 1.490 . S
C1924 C1926 1.395 1_554 S
C1924 C1927 1.403 . S
H1925 C1931 0.930 . S
C1926 H1912 0.930 . S
C1926 C1924 1.395 1_556 S
C1926 C1929 1.403 . S
C1927 C1924 1.403 . S
C1927 C1928 1.524 . S
C1927 C1931 1.400 . S
C1928 H1913 0.960 . S
C1928 H1914 0.960 . S
C1928 H1915 0.960 . S
C1928 C1927 1.524 . S
C1929 C1926 1.403 . S
C1929 C1930 1.392 1_556 S
C1929 C1933 1.495 . S
C1930 C1929 1.392 1_554 S
C1930 C1931 1.385 . S
C1930 C1932 1.478 . S
C1931 H1925 0.930 . S
C1931 C1927 1.400 . S
C1931 C1930 1.385 . S
C1932 C1930 1.478 . S
C1932 C1934 1.381 . S
C1932 C1938 1.383 . S
C1933 C1929 1.495 . S
C1933 H1939 0.959 . S
C1933 H1940 0.961 . S
C1933 H1941 0.960 . S
C1934 C1932 1.381 . S
C1934 C1935 1.394 . S
C1934 H1942 0.930 . S
C1935 C1934 1.394 . S
C1935 C1936 1.383 . S
C1935 H1943 0.929 . S
C1936 C1935 1.383 . S
C1936 C1937 1.377 . S
C1937 H1921 0.944 . S
C1937 C1936 1.377 . S
C1937 C1938 1.379 . S
C1938 H1922 0.931 1_554 S
C1938 C1932 1.383 . S
C1938 C1937 1.379 . S
H1939 C1933 0.959 . S
H1940 C1933 0.961 . S
H1941 C1933 0.960 . S
H1942 C1934 0.930 . S
H1943 C1935 0.929 . S
H1944 C1952 0.929 . S
H1945 C1954 0.930 . S
H1946 C1956 0.930 . S
H1947 C1959 0.929 . S
H1948 C1962 0.930 . S
H1949 C1964 0.960 . S
H1950 C1964 0.960 . S
H1951 C1964 0.960 . S
C1952 H1944 0.929 . S
C1952 C1953 1.377 . S
C1952 C1954 1.384 . S
C1953 C1952 1.377 . S
C1953 C1959 1.390 . S
C1954 H1945 0.930 . S
C1954 C1952 1.384 . S
C1954 C1955 1.372 . S
C1955 C1954 1.372 . S
C1955 C1956 1.400 . S
C1955 C1960 1.490 . S
C1956 H1946 0.930 . S
C1956 C1955 1.400 . S
C1956 C1959 1.386 . S
H1957 C1973 0.930 . S
H1958 C1974 0.931 . S
C1959 H1947 0.929 . S
C1959 C1953 1.390 . S
C1959 C1956 1.386 . S
C1960 C1955 1.490 . S
C1960 C1962 1.395 . S
C1960 C1963 1.403 . S
H1961 C1967 0.930 . S
C1962 H1948 0.930 . S
C1962 C1960 1.395 . S
C1962 C1965 1.403 . S
C1963 C1960 1.403 . S
C1963 C1964 1.524 . S
C1963 C1967 1.400 . S
C1964 H1949 0.960 . S
C1964 H1950 0.960 . S
C1964 H1951 0.960 . S
C1964 C1963 1.524 . S
C1965 C1962 1.403 . S
C1965 C1966 1.392 . S
C1965 C1969 1.495 . S
C1966 C1965 1.392 . S
C1966 C1967 1.385 . S
C1966 C1968 1.478 . S
C1967 H1961 0.930 . S
C1967 C1963 1.400 . S
C1967 C1966 1.385 . S
C1968 C1966 1.478 . S
C1968 C1970 1.381 . S
C1968 C1974 1.383 . S
C1969 C1965 1.495 . S
C1969 H1975 0.959 . S
C1969 H1976 0.961 . S
C1969 H1977 0.960 . S
C1970 C1968 1.381 . S
C1970 C1971 1.394 . S
C1970 H1978 0.930 . S
C1971 C1970 1.394 . S
C1971 C1972 1.383 . S
C1971 H1979 0.929 . S
C1972 C1971 1.383 . S
C1972 C1973 1.377 . S
C1973 H1957 0.930 . S
C1973 C1972 1.377 . S
C1973 C1974 1.379 . S
C1974 H1958 0.931 . S
C1974 C1968 1.383 . S
C1974 C1973 1.379 . S
H1975 C1969 0.959 . S
H1976 C1969 0.961 . S
H1977 C1969 0.960 . S
H1978 C1970 0.930 . S
H1979 C1971 0.929 . S
H1980 C1988 0.929 . S
H1981 C1990 0.930 . S
H1982 C1992 0.930 . S
H1983 C1995 0.929 . S
H1984 C1998 0.930 . S
H1985 C2000 0.960 . S
H1986 C2000 0.960 . S
H1987 C2000 0.960 . S
C1988 H1980 0.929 . S
C1988 C1989 1.377 . S
C1988 C1990 1.384 . S
C1989 C1988 1.377 . S
C1989 C1995 1.390 . S
C1990 H1981 0.930 . S
C1990 C1988 1.384 . S
C1990 C1991 1.372 . S
C1991 C1990 1.372 . S
C1991 C1992 1.400 . S
C1991 C1996 1.490 . S
C1992 H1982 0.930 . S
C1992 C1991 1.400 . S
C1992 C1995 1.386 . S
H1993 C2009 0.930 . S
H1994 C2010 0.931 . S
C1995 H1983 0.929 . S
C1995 C1989 1.390 . S
C1995 C1992 1.386 . S
C1996 C1991 1.490 . S
C1996 C1998 1.395 . S
C1996 C1999 1.403 1_655 S
H1997 C2003 0.969 . S
C1998 H1984 0.930 . S
C1998 C1996 1.395 . S
C1998 C2001 1.403 . S
C1999 C1996 1.403 1_455 S
C1999 C2000 1.524 . S
C1999 C2003 1.402 . S
C2000 H1985 0.960 . S
C2000 H1986 0.960 . S
C2000 H1987 0.960 . S
C2000 C1999 1.524 . S
C2001 C1998 1.403 . S
C2001 C2002 1.392 . S
C2001 C2005 1.495 . S
C2002 C2001 1.392 . S
C2002 C2003 1.349 1_655 S
C2002 C2004 1.478 1_554 S
C2003 H1997 0.969 . S
C2003 C1999 1.402 . S
C2003 C2002 1.349 1_455 S
C2004 C2002 1.478 1_556 S
C2004 C2006 1.381 . S
C2004 C2010 1.383 . S
C2005 C2001 1.495 . S
C2005 H2011 0.959 . S
C2005 H2012 0.961 . S
C2005 H2013 0.960 . S
C2006 C2004 1.381 . S
C2006 C2007 1.394 . S
C2006 H2014 0.930 . S
C2007 C2006 1.394 . S
C2007 C2008 1.383 . S
C2007 H2015 0.929 . S
C2008 C2007 1.383 . S
C2008 C2009 1.377 . S
C2009 H1993 0.930 . S
C2009 C2008 1.377 . S
C2009 C2010 1.379 . S
C2010 H1994 0.931 . S
C2010 C2004 1.383 . S
C2010 C2009 1.379 . S
H2011 C2005 0.959 . S
H2012 C2005 0.961 . S
H2013 C2005 0.960 . S
H2014 C2006 0.930 . S
H2015 C2007 0.929 . S
H2016 C2024 0.929 . S
H2017 C2026 0.930 . S
H2018 C2028 0.930 . S
H2019 C2031 0.929 . S
H2020 C2034 0.930 . S
H2021 C2036 0.960 . S
H2022 C2036 0.960 . S
H2023 C2036 0.960 . S
C2024 H2016 0.929 . S
C2024 C2025 1.377 . S
C2024 C2026 1.384 . S
C2025 C2024 1.377 . S
C2025 C2031 1.390 . S
C2026 H2017 0.930 . S
C2026 C2024 1.384 . S
C2026 C2027 1.372 . S
C2027 C2026 1.372 . S
C2027 C2028 1.400 . S
C2027 C2032 1.490 . S
C2028 H2018 0.930 . S
C2028 C2027 1.400 . S
C2028 C2031 1.386 . S
H2029 C2045 0.930 . S
H2030 C2046 0.931 . S
C2031 H2019 0.929 . S
C2031 C2025 1.390 . S
C2031 C2028 1.386 . S
C2032 C2027 1.490 . S
C2032 C2034 1.395 . S
C2032 C2035 1.403 . S
H2033 C2039 0.930 . S
C2034 H2020 0.930 . S
C2034 C2032 1.395 . S
C2034 C2037 1.403 . S
C2035 C2032 1.403 . S
C2035 C2036 1.524 . S
C2035 C2039 1.400 . S
C2036 H2021 0.960 . S
C2036 H2022 0.960 . S
C2036 H2023 0.960 . S
C2036 C2035 1.524 . S
C2037 C2034 1.403 . S
C2037 C2038 1.392 . S
C2037 C2041 1.495 . S
C2038 C2037 1.392 . S
C2038 C2039 1.385 . S
C2038 C2040 1.478 . S
C2039 H2033 0.930 . S
C2039 C2035 1.400 . S
C2039 C2038 1.385 . S
C2040 C2038 1.478 . S
C2040 C2042 1.381 . S
C2040 C2046 1.383 . S
C2041 C2037 1.495 . S
C2041 H2047 0.959 . S
C2041 H2048 0.961 . S
C2041 H2049 0.960 . S
C2042 C2040 1.381 . S
C2042 C2043 1.394 . S
C2042 H2050 0.930 . S
C2043 C2042 1.394 . S
C2043 C2044 1.383 . S
C2043 H2051 0.929 . S
C2044 C2043 1.383 . S
C2044 C2045 1.377 . S
C2045 H2029 0.930 . S
C2045 C2044 1.377 . S
C2045 C2046 1.379 . S
C2046 H2030 0.931 . S
C2046 C2040 1.383 . S
C2046 C2045 1.379 . S
H2047 C2041 0.959 . S
H2048 C2041 0.961 . S
H2049 C2041 0.960 . S
H2050 C2042 0.930 . S
H2051 C2043 0.929 . S
H2052 C2060 0.929 . S
H2053 C2062 0.930 . S
H2054 C2064 0.930 . S
H2055 C2067 0.929 . S
H2056 C2070 0.930 . S
H2057 C2072 0.960 . S
H2058 C2072 0.960 . S
H2059 C2072 0.960 1_455 S
C2060 H2052 0.929 . S
C2060 C2061 1.399 . S
C2060 C2062 1.384 . S
C2061 C2060 1.399 . S
C2061 C2067 1.367 1_655 S
C2062 H2053 0.930 . S
C2062 C2060 1.384 . S
C2062 C2063 1.372 1_655 S
C2063 C2062 1.372 1_455 S
C2063 C2064 1.400 . S
C2063 C2068 1.490 . S
C2064 H2054 0.930 . S
C2064 C2063 1.400 . S
C2064 C2067 1.386 . S
H2065 C2081 0.930 . S
H2066 C2082 0.931 . S
C2067 H2055 0.929 . S
C2067 C2061 1.367 1_455 S
C2067 C2064 1.386 . S
C2068 C2063 1.490 . S
C2068 C2070 1.395 . S
C2068 C2071 1.403 . S
H2069 C2075 0.930 . S
C2070 H2056 0.930 . S
C2070 C2068 1.395 . S
C2070 C2073 1.403 . S
C2071 C2068 1.403 . S
C2071 C2072 1.524 1_455 S
C2071 C2075 1.400 . S
C2072 H2057 0.960 . S
C2072 H2058 0.960 . S
C2072 H2059 0.960 1_655 S
C2072 C2071 1.524 1_655 S
C2073 C2070 1.403 . S
C2073 C2074 1.392 . S
C2073 C2077 1.495 . S
C2074 C2073 1.392 . S
C2074 C2075 1.385 . S
C2074 C2076 1.478 . S
C2075 H2069 0.930 . S
C2075 C2071 1.400 . S
C2075 C2074 1.385 . S
C2076 C2074 1.478 . S
C2076 C2078 1.360 1_455 S
C2076 C2082 1.383 . S
C2077 C2073 1.495 . S
C2077 H2083 0.959 . S
C2077 H2084 0.961 . S
C2077 H2085 0.960 . S
C2078 C2076 1.360 1_655 S
C2078 C2079 1.396 1_655 S
C2078 H2086 0.953 . S
C2079 C2078 1.396 1_455 S
C2079 C2080 1.432 . S
C2079 H2087 0.884 1_455 S
C2080 C2079 1.432 . S
C2080 C2081 1.377 . S
C2081 H2065 0.930 . S
C2081 C2080 1.377 . S
C2081 C2082 1.379 . S
C2082 H2066 0.931 . S
C2082 C2076 1.383 . S
C2082 C2081 1.379 . S
H2083 C2077 0.959 . S
H2084 C2077 0.961 . S
H2085 C2077 0.960 . S
H2086 C2078 0.953 . S
H2087 C2079 0.884 1_655 S
H2088 C2096 0.929 . S
H2089 C2098 0.930 . S
H2090 C2100 0.930 . S
H2091 C2103 0.929 . S
H2092 C2106 0.930 . S
H2093 C2108 0.960 . S
H2094 C2108 0.960 . S
H2095 C2108 0.960 . S
C2096 H2088 0.929 . S
C2096 C2097 1.377 . S
C2096 C2098 1.384 . S
C2097 C2096 1.377 . S
C2097 C2103 1.390 . S
C2098 H2089 0.930 . S
C2098 C2096 1.384 . S
C2098 C2099 1.372 . S
C2099 C2098 1.372 . S
C2099 C2100 1.400 . S
C2099 C2104 1.490 . S
C2100 H2090 0.930 . S
C2100 C2099 1.400 . S
C2100 C2103 1.386 . S
H2101 C2117 0.930 . S
H2102 C2118 0.931 . S
C2103 H2091 0.929 . S
C2103 C2097 1.390 . S
C2103 C2100 1.386 . S
C2104 C2099 1.490 . S
C2104 C2106 1.395 . S
C2104 C2107 1.403 . S
H2105 C2111 0.930 . S
C2106 H2092 0.930 . S
C2106 C2104 1.395 . S
C2106 C2109 1.403 . S
C2107 C2104 1.403 . S
C2107 C2108 1.524 . S
C2107 C2111 1.400 . S
C2108 H2093 0.960 . S
C2108 H2094 0.960 . S
C2108 H2095 0.960 . S
C2108 C2107 1.524 . S
C2109 C2106 1.403 . S
C2109 C2110 1.392 . S
C2109 C2113 1.495 . S
C2110 C2109 1.392 . S
C2110 C2111 1.385 . S
C2110 C2112 1.478 . S
C2111 H2105 0.930 . S
C2111 C2107 1.400 . S
C2111 C2110 1.385 . S
C2112 C2110 1.478 . S
C2112 C2114 1.381 . S
C2112 C2118 1.383 . S
C2113 C2109 1.495 . S
C2113 H2119 0.959 . S
C2113 H2120 0.961 . S
C2113 H2121 0.960 . S
C2114 C2112 1.381 . S
C2114 C2115 1.394 . S
C2114 H2122 0.930 . S
C2115 C2114 1.394 . S
C2115 C2116 1.383 . S
C2115 H2123 0.929 . S
C2116 C2115 1.383 . S
C2116 C2117 1.377 . S
C2117 H2101 0.930 . S
C2117 C2116 1.377 . S
C2117 C2118 1.379 . S
C2118 H2102 0.931 . S
C2118 C2112 1.383 . S
C2118 C2117 1.379 . S
H2119 C2113 0.959 . S
H2120 C2113 0.961 . S
H2121 C2113 0.960 . S
H2122 C2114 0.930 . S
H2123 C2115 0.929 . S
H2124 C2132 0.929 . S
H2125 C2134 0.930 . S
H2126 C2136 0.930 . S
H2127 C2139 0.929 . S
H2128 C2142 0.930 . S
H2129 C2144 0.960 . S
H2130 C2144 0.960 . S
H2131 C2144 0.960 . S
C2132 H2124 0.929 . S
C2132 C2133 1.377 . S
C2132 C2134 1.384 . S
C2133 C2132 1.377 . S
C2133 C2139 1.390 . S
C2134 H2125 0.930 . S
C2134 C2132 1.384 . S
C2134 C2135 1.372 . S
C2135 C2134 1.372 . S
C2135 C2136 1.400 . S
C2135 C2140 1.490 . S
C2136 H2126 0.930 . S
C2136 C2135 1.400 . S
C2136 C2139 1.386 . S
H2137 C2153 0.930 . S
H2138 C2154 0.931 . S
C2139 H2127 0.929 . S
C2139 C2133 1.390 . S
C2139 C2136 1.386 . S
C2140 C2135 1.490 . S
C2140 C2142 1.395 . S
C2140 C2143 1.403 . S
H2141 C2147 0.930 . S
C2142 H2128 0.930 . S
C2142 C2140 1.395 . S
C2142 C2145 1.403 . S
C2143 C2140 1.403 . S
C2143 C2144 1.524 . S
C2143 C2147 1.400 . S
C2144 H2129 0.960 . S
C2144 H2130 0.960 . S
C2144 H2131 0.960 . S
C2144 C2143 1.524 . S
C2145 C2142 1.403 . S
C2145 C2146 1.392 . S
C2145 C2149 1.495 . S
C2146 C2145 1.392 . S
C2146 C2147 1.385 . S
C2146 C2148 1.478 . S
C2147 H2141 0.930 . S
C2147 C2143 1.400 . S
C2147 C2146 1.385 . S
C2148 C2146 1.478 . S
C2148 C2150 1.381 . S
C2148 C2154 1.383 . S
C2149 C2145 1.495 . S
C2149 H2155 0.959 . S
C2149 H2156 0.961 . S
C2149 H2157 0.960 . S
C2150 C2148 1.381 . S
C2150 C2151 1.394 . S
C2150 H2158 0.930 . S
C2151 C2150 1.394 . S
C2151 C2152 1.383 . S
C2151 H2159 0.929 . S
C2152 C2151 1.383 . S
C2152 C2153 1.377 . S
C2153 H2137 0.930 . S
C2153 C2152 1.377 . S
C2153 C2154 1.379 . S
C2154 H2138 0.931 . S
C2154 C2148 1.383 . S
C2154 C2153 1.379 . S
H2155 C2149 0.959 . S
H2156 C2149 0.961 . S
H2157 C2149 0.960 . S
H2158 C2150 0.930 . S
H2159 C2151 0.929 . S
H2160 C2168 0.929 . S
H2161 C2170 0.930 . S
H2162 C2172 0.930 . S
H2163 C2175 0.929 . S
H2164 C2178 0.930 . S
H2165 C2180 0.960 . S
H2166 C2180 0.960 . S
H2167 C2180 0.960 . S
C2168 H2160 0.929 . S
C2168 C2169 1.374 1_565 S
C2168 C2170 1.384 . S
C2169 C2168 1.374 1_545 S
C2169 C2175 1.393 . S
C2170 H2161 0.930 . S
C2170 C2168 1.384 . S
C2170 C2171 1.413 . S
C2171 C2170 1.413 . S
C2171 C2172 1.363 1_565 S
C2171 C2176 1.489 . S
C2172 H2162 0.930 . S
C2172 C2171 1.363 1_545 S
C2172 C2175 1.386 . S
H2173 C2189 0.930 . S
H2174 C2190 0.931 . S
C2175 H2163 0.929 . S
C2175 C2169 1.393 . S
C2175 C2172 1.386 . S
C2176 C2171 1.489 . S
C2176 C2178 1.395 . S
C2176 C2179 1.403 1_565 S
H2177 C2183 0.930 . S
C2178 H2164 0.930 . S
C2178 C2176 1.395 . S
C2178 C2181 1.403 . S
C2179 C2176 1.403 1_545 S
C2179 C2180 1.524 . S
C2179 C2183 1.400 . S
C2180 H2165 0.960 . S
C2180 H2166 0.960 . S
C2180 H2167 0.960 . S
C2180 C2179 1.524 . S
C2181 C2178 1.403 . S
C2181 C2182 1.392 . S
C2181 C2185 1.495 . S
C2182 C2181 1.392 . S
C2182 C2183 1.385 1_565 S
C2182 C2184 1.478 . S
C2183 H2177 0.930 . S
C2183 C2179 1.400 . S
C2183 C2182 1.385 1_545 S
C2184 C2182 1.478 . S
C2184 C2186 1.381 . S
C2184 C2190 1.383 1_565 S
C2185 C2181 1.495 . S
C2185 H2191 0.959 . S
C2185 H2192 0.961 . S
C2185 H2193 0.960 . S
C2186 C2184 1.381 . S
C2186 C2187 1.394 . S
C2186 H2194 0.930 . S
C2187 C2186 1.394 . S
C2187 C2188 1.383 . S
C2187 H2195 0.929 . S
C2188 C2187 1.383 . S
C2188 C2189 1.377 1_565 S
C2189 H2173 0.930 . S
C2189 C2188 1.377 1_545 S
C2189 C2190 1.379 . S
C2190 H2174 0.931 . S
C2190 C2184 1.383 1_545 S
C2190 C2189 1.379 . S
H2191 C2185 0.959 . S
H2192 C2185 0.961 . S
H2193 C2185 0.960 . S
H2194 C2186 0.930 . S
H2195 C2187 0.929 . S
H2196 C2204 0.897 1_545 S
H2197 C2206 0.930 . S
H2198 C2208 0.930 . S
H2199 C2211 0.929 . S
H2200 C2214 0.930 . S
H2201 C2216 0.960 . S
H2202 C2216 0.960 . S
H2203 C2216 0.960 . S
C2204 H2196 0.897 1_565 S
C2204 C2205 1.377 . S
C2204 C2206 1.384 . S
C2205 C2204 1.377 . S
C2205 C2211 1.390 . S
C2206 H2197 0.930 . S
C2206 C2204 1.384 . S
C2206 C2207 1.372 . S
C2207 C2206 1.372 . S
C2207 C2208 1.400 . S
C2207 C2212 1.490 . S
C2208 H2198 0.930 . S
C2208 C2207 1.400 . S
C2208 C2211 1.386 . S
H2209 C2225 0.930 . S
H2210 C2226 0.931 . S
C2211 H2199 0.929 . S
C2211 C2205 1.390 . S
C2211 C2208 1.386 . S
C2212 C2207 1.490 . S
C2212 C2214 1.395 . S
C2212 C2215 1.403 . S
H2213 C2219 0.930 . S
C2214 H2200 0.930 . S
C2214 C2212 1.395 . S
C2214 C2217 1.403 . S
C2215 C2212 1.403 . S
C2215 C2216 1.524 . S
C2215 C2219 1.400 . S
C2216 H2201 0.960 . S
C2216 H2202 0.960 . S
C2216 H2203 0.960 . S
C2216 C2215 1.524 . S
C2217 C2214 1.403 . S
C2217 C2218 1.392 . S
C2217 C2221 1.495 . S
C2218 C2217 1.392 . S
C2218 C2219 1.385 . S
C2218 C2220 1.478 . S
C2219 H2213 0.930 . S
C2219 C2215 1.400 . S
C2219 C2218 1.385 . S
C2220 C2218 1.478 . S
C2220 C2222 1.381 . S
C2220 C2226 1.383 . S
C2221 C2217 1.495 . S
C2221 H2227 0.959 . S
C2221 H2228 0.961 . S
C2221 H2229 0.960 . S
C2222 C2220 1.381 . S
C2222 C2223 1.394 . S
C2222 H2230 0.930 . S
C2223 C2222 1.394 . S
C2223 C2224 1.383 . S
C2223 H2231 0.929 . S
C2224 C2223 1.383 . S
C2224 C2225 1.377 . S
C2225 H2209 0.930 . S
C2225 C2224 1.377 . S
C2225 C2226 1.379 . S
C2226 H2210 0.931 . S
C2226 C2220 1.383 . S
C2226 C2225 1.379 . S
H2227 C2221 0.959 . S
H2228 C2221 0.961 . S
H2229 C2221 0.960 . S
H2230 C2222 0.930 . S
H2231 C2223 0.929 . S
H2232 C2240 0.929 . S
H2233 C2242 0.930 . S
H2234 C2244 0.930 . S
H2235 C2247 0.929 . S
H2236 C2250 0.930 . S
H2237 C2252 0.960 . S
H2238 C2252 0.960 . S
H2239 C2252 0.960 . S
C2240 H2232 0.929 . S
C2240 C2241 1.377 . S
C2240 C2242 1.384 . S
C2241 C2240 1.377 . S
C2241 C2247 1.390 . S
C2242 H2233 0.930 . S
C2242 C2240 1.384 . S
C2242 C2243 1.372 . S
C2243 C2242 1.372 . S
C2243 C2244 1.400 . S
C2243 C2248 1.490 . S
C2244 H2234 0.930 . S
C2244 C2243 1.400 . S
C2244 C2247 1.386 . S
H2245 C2261 0.930 . S
H2246 C2262 0.931 . S
C2247 H2235 0.929 . S
C2247 C2241 1.390 . S
C2247 C2244 1.386 . S
C2248 C2243 1.490 . S
C2248 C2250 1.395 . S
C2248 C2251 1.403 . S
H2249 C2255 0.930 . S
C2250 H2236 0.930 . S
C2250 C2248 1.395 . S
C2250 C2253 1.403 . S
C2251 C2248 1.403 . S
C2251 C2252 1.524 . S
C2251 C2255 1.400 . S
C2252 H2237 0.960 . S
C2252 H2238 0.960 . S
C2252 H2239 0.960 . S
C2252 C2251 1.524 . S
C2253 C2250 1.403 . S
C2253 C2254 1.392 . S
C2253 C2257 1.495 . S
C2254 C2253 1.392 . S
C2254 C2255 1.385 . S
C2254 C2256 1.478 . S
C2255 H2249 0.930 . S
C2255 C2251 1.400 . S
C2255 C2254 1.385 . S
C2256 C2254 1.478 . S
C2256 C2258 1.381 . S
C2256 C2262 1.383 . S
C2257 C2253 1.495 . S
C2257 H2263 0.959 . S
C2257 H2264 0.961 . S
C2257 H2265 0.960 . S
C2258 C2256 1.381 . S
C2258 C2259 1.394 . S
C2258 H2266 0.930 . S
C2259 C2258 1.394 . S
C2259 C2260 1.383 . S
C2259 H2267 0.929 . S
C2260 C2259 1.383 . S
C2260 C2261 1.377 . S
C2261 H2245 0.930 . S
C2261 C2260 1.377 . S
C2261 C2262 1.379 . S
C2262 H2246 0.931 . S
C2262 C2256 1.383 . S
C2262 C2261 1.379 . S
H2263 C2257 0.959 . S
H2264 C2257 0.961 . S
H2265 C2257 0.960 . S
H2266 C2258 0.930 . S
H2267 C2259 0.929 . S
H2268 C2276 0.929 . S
H2269 C2278 0.930 . S
H2270 C2280 0.930 . S
H2271 C2283 0.929 . S
H2272 C2286 0.930 . S
H2273 C2288 0.960 . S
H2274 C2288 0.960 . S
H2275 C2288 0.960 . S
C2276 H2268 0.929 . S
C2276 C2277 1.377 . S
C2276 C2278 1.384 . S
C2277 C2276 1.377 . S
C2277 C2283 1.390 . S
C2278 H2269 0.930 . S
C2278 C2276 1.384 . S
C2278 C2279 1.372 . S
C2279 C2278 1.372 . S
C2279 C2280 1.400 . S
C2279 C2284 1.490 . S
C2280 H2270 0.930 . S
C2280 C2279 1.400 . S
C2280 C2283 1.386 . S
H2281 C2297 0.930 . S
H2282 C2298 0.931 . S
C2283 H2271 0.929 . S
C2283 C2277 1.390 . S
C2283 C2280 1.386 . S
C2284 C2279 1.490 . S
C2284 C2286 1.395 . S
C2284 C2287 1.403 . S
H2285 C2291 0.930 . S
C2286 H2272 0.930 . S
C2286 C2284 1.395 . S
C2286 C2289 1.403 . S
C2287 C2284 1.403 . S
C2287 C2288 1.524 . S
C2287 C2291 1.400 . S
C2288 H2273 0.960 . S
C2288 H2274 0.960 . S
C2288 H2275 0.960 . S
C2288 C2287 1.524 . S
C2289 C2286 1.403 . S
C2289 C2290 1.392 . S
C2289 C2293 1.495 . S
C2290 C2289 1.392 . S
C2290 C2291 1.385 . S
C2290 C2292 1.478 . S
C2291 H2285 0.930 . S
C2291 C2287 1.400 . S
C2291 C2290 1.385 . S
C2292 C2290 1.478 . S
C2292 C2294 1.381 . S
C2292 C2298 1.383 . S
C2293 C2289 1.495 . S
C2293 H2299 0.959 . S
C2293 H2300 0.961 . S
C2293 H2301 0.960 . S
C2294 C2292 1.381 . S
C2294 C2295 1.394 . S
C2294 H2302 0.930 . S
C2295 C2294 1.394 . S
C2295 C2296 1.383 . S
C2295 H2303 0.929 . S
C2296 C2295 1.383 . S
C2296 C2297 1.377 . S
C2297 H2281 0.930 . S
C2297 C2296 1.377 . S
C2297 C2298 1.379 . S
C2298 H2282 0.931 . S
C2298 C2292 1.383 . S
C2298 C2297 1.379 . S
H2299 C2293 0.959 . S
H2300 C2293 0.961 . S
H2301 C2293 0.960 . S
H2302 C2294 0.930 . S
H2303 C2295 0.929 . S
H2304 C2312 0.929 . S
H2305 C2314 0.930 . S
H2306 C2316 0.930 . S
H2307 C2319 0.929 . S
H2308 C2322 0.930 . S
H2309 C2324 0.960 . S
H2310 C2324 0.960 . S
H2311 C2324 0.960 . S
C2312 H2304 0.929 . S
C2312 C2313 1.377 . S
C2312 C2314 1.384 . S
C2313 C2312 1.377 . S
C2313 C2319 1.390 . S
C2314 H2305 0.930 . S
C2314 C2312 1.384 . S
C2314 C2315 1.372 . S
C2315 C2314 1.372 . S
C2315 C2316 1.400 . S
C2315 C2320 1.490 . S
C2316 H2306 0.930 . S
C2316 C2315 1.400 . S
C2316 C2319 1.386 . S
H2317 C2333 0.930 . S
H2318 C2334 0.931 . S
C2319 H2307 0.929 . S
C2319 C2313 1.390 . S
C2319 C2316 1.386 . S
C2320 C2315 1.490 . S
C2320 C2322 1.395 . S
C2320 C2323 1.403 . S
H2321 C2327 0.930 . S
C2322 H2308 0.930 . S
C2322 C2320 1.395 . S
C2322 C2325 1.403 . S
C2323 C2320 1.403 . S
C2323 C2324 1.524 . S
C2323 C2327 1.400 . S
C2324 H2309 0.960 . S
C2324 H2310 0.960 . S
C2324 H2311 0.960 . S
C2324 C2323 1.524 . S
C2325 C2322 1.403 . S
C2325 C2326 1.392 . S
C2325 C2329 1.495 . S
C2326 C2325 1.392 . S
C2326 C2327 1.385 . S
C2326 C2328 1.478 . S
C2327 H2321 0.930 . S
C2327 C2323 1.400 . S
C2327 C2326 1.385 . S
C2328 C2326 1.478 . S
C2328 C2330 1.381 . S
C2328 C2334 1.383 . S
C2329 C2325 1.495 . S
C2329 H2335 0.959 . S
C2329 H2336 0.961 . S
C2329 H2337 0.960 . S
C2330 C2328 1.381 . S
C2330 C2331 1.394 . S
C2330 H2338 0.930 . S
C2331 C2330 1.394 . S
C2331 C2332 1.383 . S
C2331 H2339 0.929 . S
C2332 C2331 1.383 . S
C2332 C2333 1.377 . S
C2333 H2317 0.930 . S
C2333 C2332 1.377 . S
C2333 C2334 1.379 . S
C2334 H2318 0.931 . S
C2334 C2328 1.383 . S
C2334 C2333 1.379 . S
H2335 C2329 0.959 . S
H2336 C2329 0.961 . S
H2337 C2329 0.960 . S
H2338 C2330 0.930 . S
H2339 C2331 0.929 . S
H2340 C2348 0.929 . S
H2341 C2350 0.930 . S
H2342 C2352 0.932 . S
H2343 C2355 0.929 . S
H2344 C2358 0.930 . S
H2345 C2360 0.960 . S
H2346 C2360 0.960 . S
H2347 C2360 0.960 . S
C2348 H2340 0.929 . S
C2348 C2349 1.377 . S
C2348 C2350 1.384 . S
C2349 C2348 1.377 . S
C2349 C2355 1.390 1_556 S
C2350 H2341 0.930 . S
C2350 C2348 1.384 . S
C2350 C2351 1.374 . S
C2351 C2350 1.374 . S
C2351 C2352 1.408 1_556 S
C2351 C2356 1.488 . S
C2352 H2342 0.932 . S
C2352 C2351 1.408 1_554 S
C2352 C2355 1.384 . S
H2353 C2369 0.930 . S
H2354 C2370 0.931 . S
C2355 H2343 0.929 . S
C2355 C2349 1.390 1_554 S
C2355 C2352 1.384 . S
C2356 C2351 1.488 . S
C2356 C2358 1.378 1_556 S
C2356 C2359 1.417 . S
H2357 C2363 0.930 . S
C2358 H2344 0.930 . S
C2358 C2356 1.378 1_554 S
C2358 C2361 1.403 . S
C2359 C2356 1.417 . S
C2359 C2360 1.524 . S
C2359 C2363 1.400 . S
C2360 H2345 0.960 . S
C2360 H2346 0.960 . S
C2360 H2347 0.960 . S
C2360 C2359 1.524 . S
C2361 C2358 1.403 . S
C2361 C2362 1.392 . S
C2361 C2365 1.495 . S
C2362 C2361 1.392 . S
C2362 C2363 1.385 1_554 S
C2362 C2364 1.478 . S
C2363 H2357 0.930 . S
C2363 C2359 1.400 . S
C2363 C2362 1.385 1_556 S
C2364 C2362 1.478 . S
C2364 C2366 1.381 1_554 S
C2364 C2370 1.383 . S
C2365 C2361 1.495 . S
C2365 H2371 0.959 . S
C2365 H2372 0.961 . S
C2365 H2373 0.960 . S
C2366 C2364 1.381 1_556 S
C2366 C2367 1.394 . S
C2366 H2374 0.930 . S
C2367 C2366 1.394 . S
C2367 C2368 1.389 . S
C2367 H2375 0.929 . S
C2368 C2367 1.389 . S
C2368 C2369 1.374 1_556 S
C2369 H2353 0.930 . S
C2369 C2368 1.374 1_554 S
C2369 C2370 1.379 . S
C2370 H2354 0.931 . S
C2370 C2364 1.383 . S
C2370 C2369 1.379 . S
H2371 C2365 0.959 . S
H2372 C2365 0.961 . S
H2373 C2365 0.960 . S
H2374 C2366 0.930 . S
H2375 C2367 0.929 . S
H2376 C2384 0.929 . S
H2377 C2386 0.930 . S
H2378 C2388 0.930 . S
H2379 C2391 0.929 . S
H2380 C2394 0.930 . S
H2381 C2396 0.960 . S
H2382 C2396 0.960 . S
H2383 C2396 0.960 . S
C2384 H2376 0.929 . S
C2384 C2385 1.377 . S
C2384 C2386 1.384 . S
C2385 C2384 1.377 . S
C2385 C2391 1.390 . S
C2386 H2377 0.930 . S
C2386 C2384 1.384 . S
C2386 C2387 1.372 . S
C2387 C2386 1.372 . S
C2387 C2388 1.400 . S
C2387 C2392 1.490 . S
C2388 H2378 0.930 . S
C2388 C2387 1.400 . S
C2388 C2391 1.386 . S
H2389 C2405 0.930 . S
H2390 C2406 0.931 . S
C2391 H2379 0.929 . S
C2391 C2385 1.390 . S
C2391 C2388 1.386 . S
C2392 C2387 1.490 . S
C2392 C2394 1.395 . S
C2392 C2395 1.403 . S
H2393 C2399 0.930 . S
C2394 H2380 0.930 . S
C2394 C2392 1.395 . S
C2394 C2397 1.403 . S
C2395 C2392 1.403 . S
C2395 C2396 1.524 . S
C2395 C2399 1.400 . S
C2396 H2381 0.960 . S
C2396 H2382 0.960 . S
C2396 H2383 0.960 . S
C2396 C2395 1.524 . S
C2397 C2394 1.403 . S
C2397 C2398 1.392 . S
C2397 C2401 1.495 . S
C2398 C2397 1.392 . S
C2398 C2399 1.385 . S
C2398 C2400 1.478 . S
C2399 H2393 0.930 . S
C2399 C2395 1.400 . S
C2399 C2398 1.385 . S
C2400 C2398 1.478 . S
C2400 C2402 1.381 . S
C2400 C2406 1.383 . S
C2401 C2397 1.495 . S
C2401 H2407 0.959 . S
C2401 H2408 0.961 . S
C2401 H2409 0.960 . S
C2402 C2400 1.381 . S
C2402 C2403 1.394 . S
C2402 H2410 0.930 . S
C2403 C2402 1.394 . S
C2403 C2404 1.383 . S
C2403 H2411 0.929 . S
C2404 C2403 1.383 . S
C2404 C2405 1.377 . S
C2405 H2389 0.930 . S
C2405 C2404 1.377 . S
C2405 C2406 1.379 . S
C2406 H2390 0.931 . S
C2406 C2400 1.383 . S
C2406 C2405 1.379 . S
H2407 C2401 0.959 . S
H2408 C2401 0.961 . S
H2409 C2401 0.960 . S
H2410 C2402 0.930 . S
H2411 C2403 0.929 . S
H2412 C2420 0.929 . S
H2413 C2422 0.930 . S
H2414 C2424 0.930 . S
H2415 C2427 0.929 . S
H2416 C2430 0.930 . S
H2417 C2432 0.960 . S
H2418 C2432 0.960 . S
H2419 C2432 0.960 . S
C2420 H2412 0.929 . S
C2420 C2421 1.377 . S
C2420 C2422 1.384 . S
C2421 C2420 1.377 . S
C2421 C2427 1.390 . S
C2422 H2413 0.930 . S
C2422 C2420 1.384 . S
C2422 C2423 1.372 . S
C2423 C2422 1.372 . S
C2423 C2424 1.400 . S
C2423 C2428 1.490 . S
C2424 H2414 0.930 . S
C2424 C2423 1.400 . S
C2424 C2427 1.386 . S
H2425 C2441 0.930 . S
H2426 C2442 0.931 . S
C2427 H2415 0.929 . S
C2427 C2421 1.390 . S
C2427 C2424 1.386 . S
C2428 C2423 1.490 . S
C2428 C2430 1.395 . S
C2428 C2431 1.403 . S
H2429 C2435 0.930 . S
C2430 H2416 0.930 . S
C2430 C2428 1.395 . S
C2430 C2433 1.403 . S
C2431 C2428 1.403 . S
C2431 C2432 1.524 . S
C2431 C2435 1.400 . S
C2432 H2417 0.960 . S
C2432 H2418 0.960 . S
C2432 H2419 0.960 . S
C2432 C2431 1.524 . S
C2433 C2430 1.403 . S
C2433 C2434 1.392 . S
C2433 C2437 1.495 . S
C2434 C2433 1.392 . S
C2434 C2435 1.385 . S
C2434 C2436 1.478 . S
C2435 H2429 0.930 . S
C2435 C2431 1.400 . S
C2435 C2434 1.385 . S
C2436 C2434 1.478 . S
C2436 C2438 1.381 . S
C2436 C2442 1.383 . S
C2437 C2433 1.495 . S
C2437 H2443 0.959 . S
C2437 H2444 0.961 . S
C2437 H2445 0.960 . S
C2438 C2436 1.381 . S
C2438 C2439 1.394 . S
C2438 H2446 0.930 . S
C2439 C2438 1.394 . S
C2439 C2440 1.383 . S
C2439 H2447 0.929 . S
C2440 C2439 1.383 . S
C2440 C2441 1.377 . S
C2441 H2425 0.930 . S
C2441 C2440 1.377 . S
C2441 C2442 1.379 . S
C2442 H2426 0.931 . S
C2442 C2436 1.383 . S
C2442 C2441 1.379 . S
H2443 C2437 0.959 . S
H2444 C2437 0.961 . S
H2445 C2437 0.960 . S
H2446 C2438 0.930 . S
H2447 C2439 0.929 . S
H2448 C2456 0.929 . S
H2449 C2458 0.930 . S
H2450 C2460 0.930 . S
H2451 C2463 0.929 . S
H2452 C2466 0.930 . S
H2453 C2468 0.960 . S
H2454 C2468 0.960 . S
H2455 C2468 0.960 . S
C2456 H2448 0.929 . S
C2456 C2457 1.377 . S
C2456 C2458 1.384 . S
C2457 C2456 1.377 . S
C2457 C2463 1.390 . S
C2458 H2449 0.930 . S
C2458 C2456 1.384 . S
C2458 C2459 1.372 . S
C2459 C2458 1.372 . S
C2459 C2460 1.400 . S
C2459 C2464 1.490 . S
C2460 H2450 0.930 . S
C2460 C2459 1.400 . S
C2460 C2463 1.386 . S
H2461 C2477 0.930 . S
H2462 C2478 0.931 . S
C2463 H2451 0.929 . S
C2463 C2457 1.390 . S
C2463 C2460 1.386 . S
C2464 C2459 1.490 . S
C2464 C2466 1.395 . S
C2464 C2467 1.403 . S
H2465 C2471 0.930 . S
C2466 H2452 0.930 . S
C2466 C2464 1.395 . S
C2466 C2469 1.403 . S
C2467 C2464 1.403 . S
C2467 C2468 1.524 . S
C2467 C2471 1.400 . S
C2468 H2453 0.960 . S
C2468 H2454 0.960 . S
C2468 H2455 0.960 . S
C2468 C2467 1.524 . S
C2469 C2466 1.403 . S
C2469 C2470 1.392 . S
C2469 C2473 1.495 . S
C2470 C2469 1.392 . S
C2470 C2471 1.385 . S
C2470 C2472 1.478 . S
C2471 H2465 0.930 . S
C2471 C2467 1.400 . S
C2471 C2470 1.385 . S
C2472 C2470 1.478 . S
C2472 C2474 1.381 . S
C2472 C2478 1.383 . S
C2473 C2469 1.495 . S
C2473 H2479 0.959 . S
C2473 H2480 0.961 . S
C2473 H2481 0.960 . S
C2474 C2472 1.381 . S
C2474 C2475 1.394 . S
C2474 H2482 0.930 . S
C2475 C2474 1.394 . S
C2475 C2476 1.383 . S
C2475 H2483 0.929 . S
C2476 C2475 1.383 . S
C2476 C2477 1.377 . S
C2477 H2461 0.930 . S
C2477 C2476 1.377 . S
C2477 C2478 1.379 . S
C2478 H2462 0.931 . S
C2478 C2472 1.383 . S
C2478 C2477 1.379 . S
H2479 C2473 0.959 . S
H2480 C2473 0.961 . S
H2481 C2473 0.960 . S
H2482 C2474 0.930 . S
H2483 C2475 0.929 . S
H2484 C2492 0.929 . S
H2485 C2494 0.930 . S
H2486 C2496 0.930 . S
H2487 C2499 0.929 . S
H2488 C2502 0.930 . S
H2489 C2504 0.960 . S
H2490 C2504 0.960 . S
H2491 C2504 0.960 . S
C2492 H2484 0.929 . S
C2492 C2493 1.373 1_655 S
C2492 C2494 1.384 . S
C2493 C2492 1.373 1_455 S
C2493 C2499 1.395 . S
C2494 H2485 0.930 . S
C2494 C2492 1.384 . S
C2494 C2495 1.398 . S
C2495 C2494 1.398 . S
C2495 C2496 1.377 1_655 S
C2495 C2500 1.489 . S
C2496 H2486 0.930 . S
C2496 C2495 1.377 1_455 S
C2496 C2499 1.386 . S
H2497 C2513 0.930 . S
H2498 C2514 0.931 . S
C2499 H2487 0.929 . S
C2499 C2493 1.395 . S
C2499 C2496 1.386 . S
C2500 C2495 1.489 . S
C2500 C2502 1.395 . S
C2500 C2503 1.403 1_655 S
H2501 C2507 0.930 . S
C2502 H2488 0.930 . S
C2502 C2500 1.395 . S
C2502 C2505 1.403 . S
C2503 C2500 1.403 1_455 S
C2503 C2504 1.524 . S
C2503 C2507 1.400 . S
C2504 H2489 0.960 . S
C2504 H2490 0.960 . S
C2504 H2491 0.960 . S
C2504 C2503 1.524 . S
C2505 C2502 1.403 . S
C2505 C2506 1.392 . S
C2505 C2509 1.495 . S
C2506 C2505 1.392 . S
C2506 C2507 1.385 1_655 S
C2506 C2508 1.478 . S
C2507 H2501 0.930 . S
C2507 C2503 1.400 . S
C2507 C2506 1.385 1_455 S
C2508 C2506 1.478 . S
C2508 C2510 1.381 . S
C2508 C2514 1.383 1_655 S
C2509 C2505 1.495 . S
C2509 H2515 0.959 . S
C2509 H2516 0.961 . S
C2509 H2517 0.960 . S
C2510 C2508 1.381 . S
C2510 C2511 1.394 . S
C2510 H2518 0.930 . S
C2511 C2510 1.394 . S
C2511 C2512 1.383 . S
C2511 H2519 0.929 . S
C2512 C2511 1.383 . S
C2512 C2513 1.377 1_655 S
C2513 H2497 0.930 . S
C2513 C2512 1.377 1_455 S
C2513 C2514 1.379 . S
C2514 H2498 0.931 . S
C2514 C2508 1.383 1_455 S
C2514 C2513 1.379 . S
H2515 C2509 0.959 . S
H2516 C2509 0.961 . S
H2517 C2509 0.960 . S
H2518 C2510 0.930 . S
H2519 C2511 0.929 . S
H2520 C2528 0.929 . S
H2521 C2530 0.930 . S
H2522 C2532 0.930 . S
H2523 C2535 0.929 . S
H2524 C2538 0.930 . S
H2525 C2540 0.960 . S
H2526 C2540 0.960 . S
H2527 C2540 0.960 . S
C2528 H2520 0.929 . S
C2528 C2529 1.377 . S
C2528 C2530 1.384 . S
C2529 C2528 1.377 . S
C2529 C2535 1.390 . S
C2530 H2521 0.930 . S
C2530 C2528 1.384 . S
C2530 C2531 1.372 . S
C2531 C2530 1.372 . S
C2531 C2532 1.400 . S
C2531 C2536 1.490 . S
C2532 H2522 0.930 . S
C2532 C2531 1.400 . S
C2532 C2535 1.386 . S
H2533 C2549 0.930 . S
H2534 C2550 0.931 . S
C2535 H2523 0.929 . S
C2535 C2529 1.390 . S
C2535 C2532 1.386 . S
C2536 C2531 1.490 . S
C2536 C2538 1.395 . S
C2536 C2539 1.403 . S
H2537 C2543 0.930 . S
C2538 H2524 0.930 . S
C2538 C2536 1.395 . S
C2538 C2541 1.403 . S
C2539 C2536 1.403 . S
C2539 C2540 1.524 . S
C2539 C2543 1.400 . S
C2540 H2525 0.960 . S
C2540 H2526 0.960 . S
C2540 H2527 0.960 . S
C2540 C2539 1.524 . S
C2541 C2538 1.403 . S
C2541 C2542 1.392 . S
C2541 C2545 1.495 . S
C2542 C2541 1.392 . S
C2542 C2543 1.385 . S
C2542 C2544 1.478 . S
C2543 H2537 0.930 . S
C2543 C2539 1.400 . S
C2543 C2542 1.385 . S
C2544 C2542 1.478 . S
C2544 C2546 1.381 . S
C2544 C2550 1.383 . S
C2545 C2541 1.495 . S
C2545 H2551 0.959 . S
C2545 H2552 0.961 . S
C2545 H2553 0.960 . S
C2546 C2544 1.381 . S
C2546 C2547 1.394 . S
C2546 H2554 0.930 . S
C2547 C2546 1.394 . S
C2547 C2548 1.383 . S
C2547 H2555 0.929 . S
C2548 C2547 1.383 . S
C2548 C2549 1.377 . S
C2549 H2533 0.930 . S
C2549 C2548 1.377 . S
C2549 C2550 1.379 . S
C2550 H2534 0.931 . S
C2550 C2544 1.383 . S
C2550 C2549 1.379 . S
H2551 C2545 0.959 . S
H2552 C2545 0.961 . S
H2553 C2545 0.960 . S
H2554 C2546 0.930 . S
H2555 C2547 0.929 . S
H2556 C2564 0.929 . S
H2557 C2566 0.930 . S
H2558 C2568 0.930 . S
H2559 C2571 0.929 . S
H2560 C2574 0.930 . S
H2561 C2576 0.960 . S
H2562 C2576 0.960 . S
H2563 C2576 0.960 . S
C2564 H2556 0.929 . S
C2564 C2565 1.377 . S
C2564 C2566 1.384 . S
C2565 C2564 1.377 . S
C2565 C2571 1.390 . S
C2566 H2557 0.930 . S
C2566 C2564 1.384 . S
C2566 C2567 1.372 . S
C2567 C2566 1.372 . S
C2567 C2568 1.400 . S
C2567 C2572 1.490 . S
C2568 H2558 0.930 . S
C2568 C2567 1.400 . S
C2568 C2571 1.386 . S
H2569 C2585 0.930 . S
H2570 C2586 0.931 . S
C2571 H2559 0.929 . S
C2571 C2565 1.390 . S
C2571 C2568 1.386 . S
C2572 C2567 1.490 . S
C2572 C2574 1.395 . S
C2572 C2575 1.403 . S
H2573 C2579 0.930 . S
C2574 H2560 0.930 . S
C2574 C2572 1.395 . S
C2574 C2577 1.403 . S
C2575 C2572 1.403 . S
C2575 C2576 1.524 . S
C2575 C2579 1.400 . S
C2576 H2561 0.960 . S
C2576 H2562 0.960 . S
C2576 H2563 0.960 . S
C2576 C2575 1.524 . S
C2577 C2574 1.403 . S
C2577 C2578 1.392 . S
C2577 C2581 1.495 . S
C2578 C2577 1.392 . S
C2578 C2579 1.385 . S
C2578 C2580 1.478 . S
C2579 H2573 0.930 . S
C2579 C2575 1.400 . S
C2579 C2578 1.385 . S
C2580 C2578 1.478 . S
C2580 C2582 1.381 . S
C2580 C2586 1.383 . S
C2581 C2577 1.495 . S
C2581 H2587 0.959 . S
C2581 H2588 0.961 . S
C2581 H2589 0.960 . S
C2582 C2580 1.381 . S
C2582 C2583 1.394 . S
C2582 H2590 0.930 . S
C2583 C2582 1.394 . S
C2583 C2584 1.383 . S
C2583 H2591 0.929 . S
C2584 C2583 1.383 . S
C2584 C2585 1.377 . S
C2585 H2569 0.930 . S
C2585 C2584 1.377 . S
C2585 C2586 1.379 . S
C2586 H2570 0.931 . S
C2586 C2580 1.383 . S
C2586 C2585 1.379 . S
H2587 C2581 0.959 . S
H2588 C2581 0.961 . S
H2589 C2581 0.960 . S
H2590 C2582 0.930 . S
H2591 C2583 0.929 . S
H2592 C2600 0.929 . S
H2593 C2602 0.930 . S
H2594 C2604 0.930 . S
H2595 C2607 0.929 . S
H2596 C2610 0.934 . S
H2597 C2612 0.960 . S
H2598 C2612 0.960 . S
H2599 C2612 0.960 1_565 S
C2600 H2592 0.929 . S
C2600 C2601 1.378 . S
C2600 C2602 1.384 . S
C2601 C2600 1.378 . S
C2601 C2607 1.389 1_545 S
C2602 H2593 0.930 . S
C2602 C2600 1.384 . S
C2602 C2603 1.372 . S
C2603 C2602 1.372 . S
C2603 C2604 1.400 1_545 S
C2603 C2608 1.490 . S
C2604 H2594 0.930 . S
C2604 C2603 1.400 1_565 S
C2604 C2607 1.386 . S
H2605 C2621 0.930 . S
H2606 C2622 0.931 . S
C2607 H2595 0.929 . S
C2607 C2601 1.389 1_565 S
C2607 C2604 1.386 . S
C2608 C2603 1.490 . S
C2608 C2610 1.394 . S
C2608 C2611 1.403 . S
H2609 C2615 0.930 . S
C2610 H2596 0.934 . S
C2610 C2608 1.394 . S
C2610 C2613 1.403 . S
C2611 C2608 1.403 . S
C2611 C2612 1.524 . S
C2611 C2615 1.400 . S
C2612 H2597 0.960 . S
C2612 H2598 0.960 . S
C2612 H2599 0.960 1_545 S
C2612 C2611 1.524 . S
C2613 C2610 1.403 . S
C2613 C2614 1.389 . S
C2613 C2617 1.498 1_545 S
C2614 C2613 1.389 . S
C2614 C2615 1.385 . S
C2614 C2616 1.478 . S
C2615 H2609 0.930 . S
C2615 C2611 1.400 . S
C2615 C2614 1.385 . S
C2616 C2614 1.478 . S
C2616 C2618 1.381 . S
C2616 C2622 1.383 1_545 S
C2617 C2613 1.498 1_565 S
C2617 H2623 0.963 . S
C2617 H2624 0.988 . S
C2617 H2625 0.936 1_565 S
C2618 C2616 1.381 . S
C2618 C2619 1.394 . S
C2618 H2626 0.930 . S
C2619 C2618 1.394 . S
C2619 C2620 1.383 . S
C2619 H2627 0.929 . S
C2620 C2619 1.383 . S
C2620 C2621 1.377 1_545 S
C2621 H2605 0.930 . S
C2621 C2620 1.377 1_565 S
C2621 C2622 1.379 . S
C2622 H2606 0.931 . S
C2622 C2616 1.383 1_565 S
C2622 C2621 1.379 . S
H2623 C2617 0.963 . S
H2624 C2617 0.988 . S
H2625 C2617 0.936 1_545 S
H2626 C2618 0.930 . S
H2627 C2619 0.929 . S
H2628 C2636 0.929 . S
H2629 C2638 0.930 . S
H2630 C2640 0.930 . S
H2631 C2643 0.917 1_565 S
H2632 C2646 0.930 . S
H2633 C2648 0.960 . S
H2634 C2648 0.960 . S
H2635 C2648 0.960 . S
C2636 H2628 0.929 . S
C2636 C2637 1.377 . S
C2636 C2638 1.384 . S
C2637 C2636 1.377 . S
C2637 C2643 1.390 . S
C2638 H2629 0.930 . S
C2638 C2636 1.384 . S
C2638 C2639 1.372 . S
C2639 C2638 1.372 . S
C2639 C2640 1.400 . S
C2639 C2644 1.490 . S
C2640 H2630 0.930 . S
C2640 C2639 1.400 . S
C2640 C2643 1.386 . S
H2641 C2657 0.930 . S
H2642 C2658 0.931 . S
C2643 H2631 0.917 1_545 S
C2643 C2637 1.390 . S
C2643 C2640 1.386 . S
C2644 C2639 1.490 . S
C2644 C2646 1.395 . S
C2644 C2647 1.403 . S
H2645 C2651 0.930 . S
C2646 H2632 0.930 . S
C2646 C2644 1.395 . S
C2646 C2649 1.403 . S
C2647 C2644 1.403 . S
C2647 C2648 1.524 . S
C2647 C2651 1.400 . S
C2648 H2633 0.960 . S
C2648 H2634 0.960 . S
C2648 H2635 0.960 . S
C2648 C2647 1.524 . S
C2649 C2646 1.403 . S
C2649 C2650 1.392 . S
C2649 C2653 1.495 . S
C2650 C2649 1.392 . S
C2650 C2651 1.385 . S
C2650 C2652 1.478 . S
C2651 H2645 0.930 . S
C2651 C2647 1.400 . S
C2651 C2650 1.385 . S
C2652 C2650 1.478 . S
C2652 C2654 1.381 . S
C2652 C2658 1.383 . S
C2653 C2649 1.495 . S
C2653 H2659 0.959 . S
C2653 H2660 0.961 . S
C2653 H2661 0.960 . S
C2654 C2652 1.381 . S
C2654 C2655 1.394 . S
C2654 H2662 0.930 . S
C2655 C2654 1.394 . S
C2655 C2656 1.383 . S
C2655 H2663 0.929 . S
C2656 C2655 1.383 . S
C2656 C2657 1.377 . S
C2657 H2641 0.930 . S
C2657 C2656 1.377 . S
C2657 C2658 1.379 . S
C2658 H2642 0.931 . S
C2658 C2652 1.383 . S
C2658 C2657 1.379 . S
H2659 C2653 0.959 . S
H2660 C2653 0.961 . S
H2661 C2653 0.960 . S
H2662 C2654 0.930 . S
H2663 C2655 0.929 . S
H2664 C2672 0.929 . S
H2665 C2674 0.930 . S
H2666 C2676 0.930 . S
H2667 C2679 0.929 . S
H2668 C2682 0.930 . S
H2669 C2684 0.960 . S
H2670 C2684 0.960 . S
H2671 C2684 0.960 . S
C2672 H2664 0.929 . S
C2672 C2673 1.377 . S
C2672 C2674 1.384 . S
C2673 C2672 1.377 . S
C2673 C2679 1.390 . S
C2674 H2665 0.930 . S
C2674 C2672 1.384 . S
C2674 C2675 1.372 . S
C2675 C2674 1.372 . S
C2675 C2676 1.400 . S
C2675 C2680 1.490 . S
C2676 H2666 0.930 . S
C2676 C2675 1.400 . S
C2676 C2679 1.386 . S
H2677 C2693 0.930 . S
H2678 C2694 0.931 . S
C2679 H2667 0.929 . S
C2679 C2673 1.390 . S
C2679 C2676 1.386 . S
C2680 C2675 1.490 . S
C2680 C2682 1.395 . S
C2680 C2683 1.403 . S
H2681 C2687 0.930 . S
C2682 H2668 0.930 . S
C2682 C2680 1.395 . S
C2682 C2685 1.403 . S
C2683 C2680 1.403 . S
C2683 C2684 1.524 . S
C2683 C2687 1.400 . S
C2684 H2669 0.960 . S
C2684 H2670 0.960 . S
C2684 H2671 0.960 . S
C2684 C2683 1.524 . S
C2685 C2682 1.403 . S
C2685 C2686 1.392 . S
C2685 C2689 1.495 . S
C2686 C2685 1.392 . S
C2686 C2687 1.385 . S
C2686 C2688 1.478 . S
C2687 H2681 0.930 . S
C2687 C2683 1.400 . S
C2687 C2686 1.385 . S
C2688 C2686 1.478 . S
C2688 C2690 1.381 . S
C2688 C2694 1.383 . S
C2689 C2685 1.495 . S
C2689 H2695 0.959 . S
C2689 H2696 0.961 . S
C2689 H2697 0.960 . S
C2690 C2688 1.381 . S
C2690 C2691 1.394 . S
C2690 H2698 0.930 . S
C2691 C2690 1.394 . S
C2691 C2692 1.383 . S
C2691 H2699 0.929 . S
C2692 C2691 1.383 . S
C2692 C2693 1.377 . S
C2693 H2677 0.930 . S
C2693 C2692 1.377 . S
C2693 C2694 1.379 . S
C2694 H2678 0.931 . S
C2694 C2688 1.383 . S
C2694 C2693 1.379 . S
H2695 C2689 0.959 . S
H2696 C2689 0.961 . S
H2697 C2689 0.960 . S
H2698 C2690 0.930 . S
H2699 C2691 0.929 . S
H2700 C2708 0.929 . S
H2701 C2710 0.930 . S
H2702 C2712 0.930 . S
H2703 C2715 0.995 . S
H2704 C2718 0.930 . S
H2705 C2720 0.960 . S
H2706 C2720 0.960 . S
H2707 C2720 0.960 . S
C2708 H2700 0.929 . S
C2708 C2709 1.377 . S
C2708 C2710 1.384 . S
C2709 C2708 1.377 . S
C2709 C2715 1.390 . S
C2710 H2701 0.930 . S
C2710 C2708 1.384 . S
C2710 C2711 1.372 . S
C2711 C2710 1.372 . S
C2711 C2712 1.400 . S
C2711 C2716 1.490 . S
C2712 H2702 0.930 . S
C2712 C2711 1.400 . S
C2712 C2715 1.386 . S
H2713 C2729 0.930 . S
H2714 C2730 0.931 . S
C2715 H2703 0.995 . S
C2715 C2709 1.390 . S
C2715 C2712 1.386 . S
C2716 C2711 1.490 . S
C2716 C2718 1.395 . S
C2716 C2719 1.403 . S
H2717 C2723 0.930 . S
C2718 H2704 0.930 . S
C2718 C2716 1.395 . S
C2718 C2721 1.403 . S
C2719 C2716 1.403 . S
C2719 C2720 1.524 . S
C2719 C2723 1.400 . S
C2720 H2705 0.960 . S
C2720 H2706 0.960 . S
C2720 H2707 0.960 . S
C2720 C2719 1.524 . S
C2721 C2718 1.403 . S
C2721 C2722 1.392 . S
C2721 C2725 1.495 . S
C2722 C2721 1.392 . S
C2722 C2723 1.385 . S
C2722 C2724 1.478 . S
C2723 H2717 0.930 . S
C2723 C2719 1.400 . S
C2723 C2722 1.385 . S
C2724 C2722 1.478 . S
C2724 C2726 1.381 . S
C2724 C2730 1.383 . S
C2725 C2721 1.495 . S
C2725 H2731 0.959 . S
C2725 H2732 0.961 . S
C2725 H2733 0.960 . S
C2726 C2724 1.381 . S
C2726 C2727 1.394 . S
C2726 H2734 0.930 . S
C2727 C2726 1.394 . S
C2727 C2728 1.383 . S
C2727 H2735 0.929 . S
C2728 C2727 1.383 . S
C2728 C2729 1.377 . S
C2729 H2713 0.930 . S
C2729 C2728 1.377 . S
C2729 C2730 1.379 . S
C2730 H2714 0.931 . S
C2730 C2724 1.383 . S
C2730 C2729 1.379 . S
H2731 C2725 0.959 . S
H2732 C2725 0.961 . S
H2733 C2725 0.960 . S
H2734 C2726 0.930 . S
H2735 C2727 0.929 . S
H2736 C2744 0.929 . S
H2737 C2746 0.930 . S
H2738 C2748 0.930 . S
H2739 C2751 0.929 . S
H2740 C2754 0.930 . S
H2741 C2756 0.960 . S
H2742 C2756 0.960 . S
H2743 C2756 0.960 . S
C2744 H2736 0.929 . S
C2744 C2745 1.377 . S
C2744 C2746 1.384 . S
C2745 C2744 1.377 . S
C2745 C2751 1.390 . S
C2746 H2737 0.930 . S
C2746 C2744 1.384 . S
C2746 C2747 1.372 . S
C2747 C2746 1.372 . S
C2747 C2748 1.400 . S
C2747 C2752 1.490 . S
C2748 H2738 0.930 . S
C2748 C2747 1.400 . S
C2748 C2751 1.386 . S
H2749 C2765 0.930 . S
H2750 C2766 0.931 . S
C2751 H2739 0.929 . S
C2751 C2745 1.390 . S
C2751 C2748 1.386 . S
C2752 C2747 1.490 . S
C2752 C2754 1.395 . S
C2752 C2755 1.403 . S
H2753 C2759 0.930 . S
C2754 H2740 0.930 . S
C2754 C2752 1.395 . S
C2754 C2757 1.403 . S
C2755 C2752 1.403 . S
C2755 C2756 1.524 . S
C2755 C2759 1.400 . S
C2756 H2741 0.960 . S
C2756 H2742 0.960 . S
C2756 H2743 0.960 . S
C2756 C2755 1.524 . S
C2757 C2754 1.403 . S
C2757 C2758 1.392 . S
C2757 C2761 1.495 . S
C2758 C2757 1.392 . S
C2758 C2759 1.385 . S
C2758 C2760 1.478 . S
C2759 H2753 0.930 . S
C2759 C2755 1.400 . S
C2759 C2758 1.385 . S
C2760 C2758 1.478 . S
C2760 C2762 1.381 . S
C2760 C2766 1.383 . S
C2761 C2757 1.495 . S
C2761 H2767 0.959 . S
C2761 H2768 0.961 . S
C2761 H2769 0.960 . S
C2762 C2760 1.381 . S
C2762 C2763 1.394 . S
C2762 H2770 0.930 . S
C2763 C2762 1.394 . S
C2763 C2764 1.383 . S
C2763 H2771 0.929 . S
C2764 C2763 1.383 . S
C2764 C2765 1.377 . S
C2765 H2749 0.930 . S
C2765 C2764 1.377 . S
C2765 C2766 1.379 . S
C2766 H2750 0.931 . S
C2766 C2760 1.383 . S
C2766 C2765 1.379 . S
H2767 C2761 0.959 . S
H2768 C2761 0.961 . S
H2769 C2761 0.960 . S
H2770 C2762 0.930 . S
H2771 C2763 0.929 . S
H2772 C2780 0.929 . S
H2773 C2782 0.930 . S
H2774 C2784 0.930 . S
H2775 C2787 0.929 . S
H2776 C2790 0.930 . S
H2777 C2792 0.960 . S
H2778 C2792 0.960 . S
H2779 C2792 0.960 . S
C2780 H2772 0.929 . S
C2780 C2781 1.389 . S
C2780 C2782 1.384 . S
C2781 C2780 1.389 . S
C2781 C2787 1.380 1_556 S
C2782 H2773 0.930 . S
C2782 C2780 1.384 . S
C2782 C2783 1.376 . S
C2783 C2782 1.376 . S
C2783 C2784 1.395 1_556 S
C2783 C2788 1.492 1_556 S
C2784 H2774 0.930 . S
C2784 C2783 1.395 1_554 S
C2784 C2787 1.386 . S
H2785 C2801 0.930 . S
H2786 C2802 0.931 . S
C2787 H2775 0.929 . S
C2787 C2781 1.380 1_554 S
C2787 C2784 1.386 . S
C2788 C2783 1.492 1_554 S
C2788 C2790 1.403 . S
C2788 C2791 1.394 1_554 S
H2789 C2795 0.930 . S
C2790 H2776 0.930 . S
C2790 C2788 1.403 . S
C2790 C2793 1.403 . S
C2791 C2788 1.394 1_556 S
C2791 C2792 1.524 . S
C2791 C2795 1.400 . S
C2792 H2777 0.960 . S
C2792 H2778 0.960 . S
C2792 H2779 0.960 . S
C2792 C2791 1.524 . S
C2793 C2790 1.403 . S
C2793 C2794 1.392 . S
C2793 C2797 1.495 . S
C2794 C2793 1.392 . S
C2794 C2795 1.385 1_554 S
C2794 C2796 1.478 . S
C2795 H2789 0.930 . S
C2795 C2791 1.400 . S
C2795 C2794 1.385 1_556 S
C2796 C2794 1.478 . S
C2796 C2798 1.381 1_554 S
C2796 C2802 1.383 . S
C2797 C2793 1.495 . S
C2797 H2803 0.959 . S
C2797 H2804 0.961 . S
C2797 H2805 0.960 . S
C2798 C2796 1.381 1_556 S
C2798 C2799 1.394 . S
C2798 H2806 0.930 . S
C2799 C2798 1.394 . S
C2799 C2800 1.383 1_556 S
C2799 H2807 0.929 . S
C2800 C2799 1.383 1_554 S
C2800 C2801 1.377 . S
C2801 H2785 0.930 . S
C2801 C2800 1.377 . S
C2801 C2802 1.379 . S
C2802 H2786 0.931 . S
C2802 C2796 1.383 . S
C2802 C2801 1.379 . S
H2803 C2797 0.959 . S
H2804 C2797 0.961 . S
H2805 C2797 0.960 . S
H2806 C2798 0.930 . S
H2807 C2799 0.929 . S
H2808 C2816 0.929 . S
H2809 C2818 0.930 . S
H2810 C2820 0.930 . S
H2811 C2823 0.929 . S
H2812 C2826 0.930 . S
H2813 C2828 0.960 . S
H2814 C2828 0.960 . S
H2815 C2828 0.960 . S
C2816 H2808 0.929 . S
C2816 C2817 1.377 . S
C2816 C2818 1.384 . S
C2817 C2816 1.377 . S
C2817 C2823 1.390 . S
C2818 H2809 0.930 . S
C2818 C2816 1.384 . S
C2818 C2819 1.372 . S
C2819 C2818 1.372 . S
C2819 C2820 1.400 . S
C2819 C2824 1.490 . S
C2820 H2810 0.930 . S
C2820 C2819 1.400 . S
C2820 C2823 1.386 . S
H2821 C2837 0.930 . S
H2822 C2838 0.931 . S
C2823 H2811 0.929 . S
C2823 C2817 1.390 . S
C2823 C2820 1.386 . S
C2824 C2819 1.490 . S
C2824 C2826 1.395 . S
C2824 C2827 1.403 . S
H2825 C2831 0.930 . S
C2826 H2812 0.930 . S
C2826 C2824 1.395 . S
C2826 C2829 1.403 . S
C2827 C2824 1.403 . S
C2827 C2828 1.524 . S
C2827 C2831 1.400 . S
C2828 H2813 0.960 . S
C2828 H2814 0.960 . S
C2828 H2815 0.960 . S
C2828 C2827 1.524 . S
C2829 C2826 1.403 . S
C2829 C2830 1.392 . S
C2829 C2833 1.495 . S
C2830 C2829 1.392 . S
C2830 C2831 1.385 . S
C2830 C2832 1.478 . S
C2831 H2825 0.930 . S
C2831 C2827 1.400 . S
C2831 C2830 1.385 . S
C2832 C2830 1.478 . S
C2832 C2834 1.381 . S
C2832 C2838 1.383 . S
C2833 C2829 1.495 . S
C2833 H2839 0.959 . S
C2833 H2840 0.961 . S
C2833 H2841 0.960 . S
C2834 C2832 1.381 . S
C2834 C2835 1.394 . S
C2834 H2842 0.930 . S
C2835 C2834 1.394 . S
C2835 C2836 1.383 . S
C2835 H2843 0.929 . S
C2836 C2835 1.383 . S
C2836 C2837 1.377 . S
C2837 H2821 0.930 . S
C2837 C2836 1.377 . S
C2837 C2838 1.379 . S
C2838 H2822 0.931 . S
C2838 C2832 1.383 . S
C2838 C2837 1.379 . S
H2839 C2833 0.959 . S
H2840 C2833 0.961 . S
H2841 C2833 0.960 . S
H2842 C2834 0.930 . S
H2843 C2835 0.929 . S
H2844 C2852 0.929 . S
H2845 C2854 0.930 . S
H2846 C2856 0.930 . S
H2847 C2859 0.929 . S
H2848 C2862 0.930 . S
H2849 C2864 0.960 . S
H2850 C2864 0.960 . S
H2851 C2864 0.960 . S
C2852 H2844 0.929 . S
C2852 C2853 1.377 . S
C2852 C2854 1.384 . S
C2853 C2852 1.377 . S
C2853 C2859 1.390 . S
C2854 H2845 0.930 . S
C2854 C2852 1.384 . S
C2854 C2855 1.372 . S
C2855 C2854 1.372 . S
C2855 C2856 1.400 . S
C2855 C2860 1.490 . S
C2856 H2846 0.930 . S
C2856 C2855 1.400 . S
C2856 C2859 1.386 . S
H2857 C2873 0.930 . S
H2858 C2874 0.931 . S
C2859 H2847 0.929 . S
C2859 C2853 1.390 . S
C2859 C2856 1.386 . S
C2860 C2855 1.490 . S
C2860 C2862 1.395 . S
C2860 C2863 1.403 . S
H2861 C2867 0.930 . S
C2862 H2848 0.930 . S
C2862 C2860 1.395 . S
C2862 C2865 1.403 . S
C2863 C2860 1.403 . S
C2863 C2864 1.524 . S
C2863 C2867 1.400 . S
C2864 H2849 0.960 . S
C2864 H2850 0.960 . S
C2864 H2851 0.960 . S
C2864 C2863 1.524 . S
C2865 C2862 1.403 . S
C2865 C2866 1.392 . S
C2865 C2869 1.495 . S
C2866 C2865 1.392 . S
C2866 C2867 1.385 . S
C2866 C2868 1.478 . S
C2867 H2861 0.930 . S
C2867 C2863 1.400 . S
C2867 C2866 1.385 . S
C2868 C2866 1.478 . S
C2868 C2870 1.381 . S
C2868 C2874 1.383 . S
C2869 C2865 1.495 . S
C2869 H2875 0.959 . S
C2869 H2876 0.961 . S
C2869 H2877 0.960 . S
C2870 C2868 1.381 . S
C2870 C2871 1.394 . S
C2870 H2878 0.930 . S
C2871 C2870 1.394 . S
C2871 C2872 1.383 . S
C2871 H2879 0.929 . S
C2872 C2871 1.383 . S
C2872 C2873 1.377 . S
C2873 H2857 0.930 . S
C2873 C2872 1.377 . S
C2873 C2874 1.379 . S
C2874 H2858 0.931 . S
C2874 C2868 1.383 . S
C2874 C2873 1.379 . S
H2875 C2869 0.959 . S
H2876 C2869 0.961 . S
H2877 C2869 0.960 . S
H2878 C2870 0.930 . S
H2879 C2871 0.929 . S
H2880 C2888 0.929 . S
H2881 C2890 0.930 . S
H2882 C2892 0.930 . S
H2883 C2895 0.929 . S
H2884 C2898 0.930 . S
H2885 C2900 0.960 . S
H2886 C2900 0.960 . S
H2887 C2900 0.960 . S
C2888 H2880 0.929 . S
C2888 C2889 1.377 . S
C2888 C2890 1.384 . S
C2889 C2888 1.377 . S
C2889 C2895 1.390 . S
C2890 H2881 0.930 . S
C2890 C2888 1.384 . S
C2890 C2891 1.372 . S
C2891 C2890 1.372 . S
C2891 C2892 1.400 . S
C2891 C2896 1.490 . S
C2892 H2882 0.930 . S
C2892 C2891 1.400 . S
C2892 C2895 1.386 . S
H2893 C2909 0.930 . S
H2894 C2910 0.931 . S
C2895 H2883 0.929 . S
C2895 C2889 1.390 . S
C2895 C2892 1.386 . S
C2896 C2891 1.490 . S
C2896 C2898 1.395 . S
C2896 C2899 1.403 . S
H2897 C2903 0.930 . S
C2898 H2884 0.930 . S
C2898 C2896 1.395 . S
C2898 C2901 1.403 . S
C2899 C2896 1.403 . S
C2899 C2900 1.524 . S
C2899 C2903 1.400 . S
C2900 H2885 0.960 . S
C2900 H2886 0.960 . S
C2900 H2887 0.960 . S
C2900 C2899 1.524 . S
C2901 C2898 1.403 . S
C2901 C2902 1.392 . S
C2901 C2905 1.495 . S
C2902 C2901 1.392 . S
C2902 C2903 1.385 . S
C2902 C2904 1.478 . S
C2903 H2897 0.930 . S
C2903 C2899 1.400 . S
C2903 C2902 1.385 . S
C2904 C2902 1.478 . S
C2904 C2906 1.381 . S
C2904 C2910 1.383 . S
C2905 C2901 1.495 . S
C2905 H2911 0.959 . S
C2905 H2912 0.961 . S
C2905 H2913 0.960 . S
C2906 C2904 1.381 . S
C2906 C2907 1.394 . S
C2906 H2914 0.930 . S
C2907 C2906 1.394 . S
C2907 C2908 1.383 . S
C2907 H2915 0.929 . S
C2908 C2907 1.383 . S
C2908 C2909 1.377 . S
C2909 H2893 0.930 . S
C2909 C2908 1.377 . S
C2909 C2910 1.379 . S
C2910 H2894 0.931 . S
C2910 C2904 1.383 . S
C2910 C2909 1.379 . S
H2911 C2905 0.959 . S
H2912 C2905 0.961 . S
H2913 C2905 0.960 . S
H2914 C2906 0.930 . S
H2915 C2907 0.929 . S
H2916 C2924 0.929 . S
H2917 C2926 0.930 . S
H2918 C2928 0.930 . S
H2919 C2931 0.929 . S
H2920 C2934 0.930 . S
H2921 C2936 0.960 . S
H2922 C2936 0.960 . S
H2923 C2936 0.960 . S
C2924 H2916 0.929 . S
C2924 C2925 1.389 . S
C2924 C2926 1.384 . S
C2925 C2924 1.389 . S
C2925 C2931 1.380 1_655 S
C2926 H2917 0.930 . S
C2926 C2924 1.384 . S
C2926 C2927 1.377 . S
C2927 C2926 1.377 . S
C2927 C2928 1.394 1_655 S
C2927 C2932 1.492 1_655 S
C2928 H2918 0.930 . S
C2928 C2927 1.394 1_455 S
C2928 C2931 1.386 . S
H2929 C2945 0.930 . S
H2930 C2946 0.931 . S
C2931 H2919 0.929 . S
C2931 C2925 1.380 1_455 S
C2931 C2928 1.386 . S
C2932 C2927 1.492 1_455 S
C2932 C2934 1.402 . S
C2932 C2935 1.395 1_455 S
H2933 C2939 0.930 . S
C2934 H2920 0.930 . S
C2934 C2932 1.402 . S
C2934 C2937 1.403 . S
C2935 C2932 1.395 1_655 S
C2935 C2936 1.524 . S
C2935 C2939 1.400 . S
C2936 H2921 0.960 . S
C2936 H2922 0.960 . S
C2936 H2923 0.960 . S
C2936 C2935 1.524 . S
C2937 C2934 1.403 . S
C2937 C2938 1.392 . S
C2937 C2941 1.495 . S
C2938 C2937 1.392 . S
C2938 C2939 1.385 1_455 S
C2938 C2940 1.478 . S
C2939 H2933 0.930 . S
C2939 C2935 1.400 . S
C2939 C2938 1.385 1_655 S
C2940 C2938 1.478 . S
C2940 C2942 1.381 1_455 S
C2940 C2946 1.383 . S
C2941 C2937 1.495 . S
C2941 H2947 0.959 . S
C2941 H2948 0.961 . S
C2941 H2949 0.960 . S
C2942 C2940 1.381 1_655 S
C2942 C2943 1.394 . S
C2942 H2950 0.930 . S
C2943 C2942 1.394 . S
C2943 C2944 1.383 1_655 S
C2943 H2951 0.929 . S
C2944 C2943 1.383 1_455 S
C2944 C2945 1.377 . S
C2945 H2929 0.930 . S
C2945 C2944 1.377 . S
C2945 C2946 1.379 . S
C2946 H2930 0.931 . S
C2946 C2940 1.383 . S
C2946 C2945 1.379 . S
H2947 C2941 0.959 . S
H2948 C2941 0.961 . S
H2949 C2941 0.960 . S
H2950 C2942 0.930 . S
H2951 C2943 0.929 . S
H2952 C2960 0.929 . S
H2953 C2962 0.930 . S
H2954 C2964 0.930 . S
H2955 C2967 0.929 . S
H2956 C2970 0.930 . S
H2957 C2972 0.960 . S
H2958 C2972 0.960 . S
H2959 C2972 0.960 . S
C2960 H2952 0.929 . S
C2960 C2961 1.377 . S
C2960 C2962 1.384 . S
C2961 C2960 1.377 . S
C2961 C2967 1.390 . S
C2962 H2953 0.930 . S
C2962 C2960 1.384 . S
C2962 C2963 1.372 . S
C2963 C2962 1.372 . S
C2963 C2964 1.400 . S
C2963 C2968 1.490 . S
C2964 H2954 0.930 . S
C2964 C2963 1.400 . S
C2964 C2967 1.386 . S
H2965 C2981 0.930 . S
H2966 C2982 0.931 . S
C2967 H2955 0.929 . S
C2967 C2961 1.390 . S
C2967 C2964 1.386 . S
C2968 C2963 1.490 . S
C2968 C2970 1.395 . S
C2968 C2971 1.403 . S
H2969 C2975 0.930 . S
C2970 H2956 0.930 . S
C2970 C2968 1.395 . S
C2970 C2973 1.403 . S
C2971 C2968 1.403 . S
C2971 C2972 1.524 . S
C2971 C2975 1.400 . S
C2972 H2957 0.960 . S
C2972 H2958 0.960 . S
C2972 H2959 0.960 . S
C2972 C2971 1.524 . S
C2973 C2970 1.403 . S
C2973 C2974 1.392 . S
C2973 C2977 1.495 . S
C2974 C2973 1.392 . S
C2974 C2975 1.385 . S
C2974 C2976 1.478 . S
C2975 H2969 0.930 . S
C2975 C2971 1.400 . S
C2975 C2974 1.385 . S
C2976 C2974 1.478 . S
C2976 C2978 1.381 . S
C2976 C2982 1.383 . S
C2977 C2973 1.495 . S
C2977 H2983 0.959 . S
C2977 H2984 0.961 . S
C2977 H2985 0.960 . S
C2978 C2976 1.381 . S
C2978 C2979 1.394 . S
C2978 H2986 0.930 . S
C2979 C2978 1.394 . S
C2979 C2980 1.383 . S
C2979 H2987 0.929 . S
C2980 C2979 1.383 . S
C2980 C2981 1.377 . S
C2981 H2965 0.930 . S
C2981 C2980 1.377 . S
C2981 C2982 1.379 . S
C2982 H2966 0.931 . S
C2982 C2976 1.383 . S
C2982 C2981 1.379 . S
H2983 C2977 0.959 . S
H2984 C2977 0.961 . S
H2985 C2977 0.960 . S
H2986 C2978 0.930 . S
H2987 C2979 0.929 . S
H2988 C2996 0.929 . S
H2989 C2998 0.930 . S
H2990 C3000 0.930 . S
H2991 C3003 0.929 . S
H2992 C3006 0.930 . S
H2993 C3008 0.960 . S
H2994 C3008 0.960 . S
H2995 C3008 0.960 . S
C2996 H2988 0.929 . S
C2996 C2997 1.377 . S
C2996 C2998 1.384 . S
C2997 C2996 1.377 . S
C2997 C3003 1.390 . S
C2998 H2989 0.930 . S
C2998 C2996 1.384 . S
C2998 C2999 1.372 . S
C2999 C2998 1.372 . S
C2999 C3000 1.400 . S
C2999 C3004 1.490 . S
C3000 H2990 0.930 . S
C3000 C2999 1.400 . S
C3000 C3003 1.386 . S
H3001 C3017 0.930 . S
H3002 C3018 0.931 . S
C3003 H2991 0.929 . S
C3003 C2997 1.390 . S
C3003 C3000 1.386 . S
C3004 C2999 1.490 . S
C3004 C3006 1.395 . S
C3004 C3007 1.403 . S
H3005 C3011 0.930 . S
C3006 H2992 0.930 . S
C3006 C3004 1.395 . S
C3006 C3009 1.403 . S
C3007 C3004 1.403 . S
C3007 C3008 1.524 . S
C3007 C3011 1.400 . S
C3008 H2993 0.960 . S
C3008 H2994 0.960 . S
C3008 H2995 0.960 . S
C3008 C3007 1.524 . S
C3009 C3006 1.403 . S
C3009 C3010 1.392 . S
C3009 C3013 1.495 . S
C3010 C3009 1.392 . S
C3010 C3011 1.385 . S
C3010 C3012 1.478 . S
C3011 H3005 0.930 . S
C3011 C3007 1.400 . S
C3011 C3010 1.385 . S
C3012 C3010 1.478 . S
C3012 C3014 1.381 . S
C3012 C3018 1.383 . S
C3013 C3009 1.495 . S
C3013 H3019 0.959 . S
C3013 H3020 0.961 . S
C3013 H3021 0.960 . S
C3014 C3012 1.381 . S
C3014 C3015 1.394 . S
C3014 H3022 0.930 . S
C3015 C3014 1.394 . S
C3015 C3016 1.383 . S
C3015 H3023 0.929 . S
C3016 C3015 1.383 . S
C3016 C3017 1.377 . S
C3017 H3001 0.930 . S
C3017 C3016 1.377 . S
C3017 C3018 1.379 . S
C3018 H3002 0.931 . S
C3018 C3012 1.383 . S
C3018 C3017 1.379 . S
H3019 C3013 0.959 . S
H3020 C3013 0.961 . S
H3021 C3013 0.960 . S
H3022 C3014 0.930 . S
H3023 C3015 0.929 . S
H3024 C3032 0.929 . S
H3025 C3034 0.930 . S
H3026 C3036 0.930 . S
H3027 C3039 0.929 . S
H3028 C3042 0.930 . S
H3029 C3044 0.960 . S
H3030 C3044 0.960 . S
H3031 C3044 0.960 . S
C3032 H3024 0.929 . S
C3032 C3033 1.408 . S
C3032 C3034 1.384 . S
C3033 C3032 1.408 . S
C3033 C3039 1.371 1_565 S
C3034 H3025 0.930 . S
C3034 C3032 1.384 . S
C3034 C3035 1.372 . S
C3035 C3034 1.372 . S
C3035 C3036 1.400 1_565 S
C3035 C3040 1.490 . S
C3036 H3026 0.930 . S
C3036 C3035 1.400 1_545 S
C3036 C3039 1.386 . S
H3037 C3053 0.930 . S
H3038 C3054 0.931 . S
C3039 H3027 0.929 . S
C3039 C3033 1.371 1_545 S
C3039 C3036 1.386 . S
C3040 C3035 1.490 . S
C3040 C3042 1.395 . S
C3040 C3043 1.403 1_565 S
H3041 C3047 0.930 . S
C3042 H3028 0.930 . S
C3042 C3040 1.395 . S
C3042 C3045 1.403 . S
C3043 C3040 1.403 1_545 S
C3043 C3044 1.524 . S
C3043 C3047 1.400 . S
C3044 H3029 0.960 . S
C3044 H3030 0.960 . S
C3044 H3031 0.960 . S
C3044 C3043 1.524 . S
C3045 C3042 1.403 . S
C3045 C3046 1.392 . S
C3045 C3049 1.495 . S
C3046 C3045 1.392 . S
C3046 C3047 1.385 1_565 S
C3046 C3048 1.478 . S
C3047 H3041 0.930 . S
C3047 C3043 1.400 . S
C3047 C3046 1.385 1_545 S
C3048 C3046 1.478 . S
C3048 C3050 1.381 . S
C3048 C3054 1.383 . S
C3049 C3045 1.495 . S
C3049 H3055 0.959 . S
C3049 H3056 0.961 . S
C3049 H3057 0.960 . S
C3050 C3048 1.381 . S
C3050 C3051 1.394 . S
C3050 H3058 0.930 . S
C3051 C3050 1.394 . S
C3051 C3052 1.383 . S
C3051 H3059 0.929 . S
C3052 C3051 1.383 . S
C3052 C3053 1.377 . S
C3053 H3037 0.930 . S
C3053 C3052 1.377 . S
C3053 C3054 1.379 . S
C3054 H3038 0.931 . S
C3054 C3048 1.383 . S
C3054 C3053 1.379 . S
H3055 C3049 0.959 . S
H3056 C3049 0.961 . S
H3057 C3049 0.960 . S
H3058 C3050 0.930 . S
H3059 C3051 0.929 . S
H3060 C3068 0.929 . S
H3061 C3070 0.930 . S
H3062 C3072 0.930 . S
H3063 C3075 0.929 . S
H3064 C3078 0.930 . S
H3065 C3080 0.960 . S
H3066 C3080 0.960 . S
H3067 C3080 0.960 . S
C3068 H3060 0.929 . S
C3068 C3069 1.377 . S
C3068 C3070 1.384 . S
C3069 C3068 1.377 . S
C3069 C3075 1.390 . S
C3070 H3061 0.930 . S
C3070 C3068 1.384 . S
C3070 C3071 1.372 . S
C3071 C3070 1.372 . S
C3071 C3072 1.400 . S
C3071 C3076 1.490 . S
C3072 H3062 0.930 . S
C3072 C3071 1.400 . S
C3072 C3075 1.386 . S
H3073 C3089 0.930 . S
H3074 C3090 0.931 . S
C3075 H3063 0.929 . S
C3075 C3069 1.390 . S
C3075 C3072 1.386 . S
C3076 C3071 1.490 . S
C3076 C3078 1.395 . S
C3076 C3079 1.403 1_545 S
H3077 C3083 0.930 . S
C3078 H3064 0.930 . S
C3078 C3076 1.395 . S
C3078 C3081 1.403 . S
C3079 C3076 1.403 1_565 S
C3079 C3080 1.524 . S
C3079 C3083 1.400 . S
C3080 H3065 0.960 . S
C3080 H3066 0.960 . S
C3080 H3067 0.960 . S
C3080 C3079 1.524 . S
C3081 C3078 1.403 . S
C3081 C3082 1.392 . S
C3081 C3085 1.495 . S
C3082 C3081 1.392 . S
C3082 C3083 1.385 1_545 S
C3082 C3084 1.478 . S
C3083 H3077 0.930 . S
C3083 C3079 1.400 . S
C3083 C3082 1.385 1_565 S
C3084 C3082 1.478 . S
C3084 C3086 1.381 . S
C3084 C3090 1.383 . S
C3085 C3081 1.495 . S
C3085 H3091 0.959 . S
C3085 H3092 0.961 . S
C3085 H3093 0.960 . S
C3086 C3084 1.381 . S
C3086 C3087 1.394 . S
C3086 H3094 0.930 . S
C3087 C3086 1.394 . S
C3087 C3088 1.383 . S
C3087 H3095 0.929 . S
C3088 C3087 1.383 . S
C3088 C3089 1.377 . S
C3089 H3073 0.930 . S
C3089 C3088 1.377 . S
C3089 C3090 1.379 . S
C3090 H3074 0.931 . S
C3090 C3084 1.383 . S
C3090 C3089 1.379 . S
H3091 C3085 0.959 . S
H3092 C3085 0.961 . S
H3093 C3085 0.960 . S
H3094 C3086 0.930 . S
H3095 C3087 0.929 . S
H3096 C3104 0.929 . S
H3097 C3106 0.930 . S
H3098 C3108 0.930 . S
H3099 C3111 0.929 . S
H3100 C3114 0.930 . S
H3101 C3116 0.960 . S
H3102 C3116 0.960 . S
H3103 C3116 0.960 . S
C3104 H3096 0.929 . S
C3104 C3105 1.377 . S
C3104 C3106 1.384 . S
C3105 C3104 1.377 . S
C3105 C3111 1.390 . S
C3106 H3097 0.930 . S
C3106 C3104 1.384 . S
C3106 C3107 1.372 . S
C3107 C3106 1.372 . S
C3107 C3108 1.400 . S
C3107 C3112 1.490 . S
C3108 H3098 0.930 . S
C3108 C3107 1.400 . S
C3108 C3111 1.386 . S
H3109 C3125 0.930 . S
H3110 C3126 0.931 . S
C3111 H3099 0.929 . S
C3111 C3105 1.390 . S
C3111 C3108 1.386 . S
C3112 C3107 1.490 . S
C3112 C3114 1.395 . S
C3112 C3115 1.403 . S
H3113 C3119 0.930 . S
C3114 H3100 0.930 . S
C3114 C3112 1.395 . S
C3114 C3117 1.403 . S
C3115 C3112 1.403 . S
C3115 C3116 1.524 . S
C3115 C3119 1.400 . S
C3116 H3101 0.960 . S
C3116 H3102 0.960 . S
C3116 H3103 0.960 . S
C3116 C3115 1.524 . S
C3117 C3114 1.403 . S
C3117 C3118 1.392 . S
C3117 C3121 1.495 . S
C3118 C3117 1.392 . S
C3118 C3119 1.385 . S
C3118 C3120 1.478 . S
C3119 H3113 0.930 . S
C3119 C3115 1.400 . S
C3119 C3118 1.385 . S
C3120 C3118 1.478 . S
C3120 C3122 1.381 . S
C3120 C3126 1.383 . S
C3121 C3117 1.495 . S
C3121 H3127 0.959 . S
C3121 H3128 0.961 . S
C3121 H3129 0.960 . S
C3122 C3120 1.381 . S
C3122 C3123 1.394 . S
C3122 H3130 0.930 . S
C3123 C3122 1.394 . S
C3123 C3124 1.383 . S
C3123 H3131 0.929 . S
C3124 C3123 1.383 . S
C3124 C3125 1.377 . S
C3125 H3109 0.930 . S
C3125 C3124 1.377 . S
C3125 C3126 1.379 . S
C3126 H3110 0.931 . S
C3126 C3120 1.383 . S
C3126 C3125 1.379 . S
H3127 C3121 0.959 . S
H3128 C3121 0.961 . S
H3129 C3121 0.960 . S
H3130 C3122 0.930 . S
H3131 C3123 0.929 . S
H3132 C3140 0.929 . S
H3133 C3142 0.930 . S
H3134 C3144 0.913 1_556 S
H3135 C3147 0.932 1_556 S
H3136 C3150 0.930 . S
H3137 C3152 0.960 . S
H3138 C3152 0.960 . S
H3139 C3152 0.960 . S
C3140 H3132 0.929 . S
C3140 C3141 1.377 . S
C3140 C3142 1.384 . S
C3141 C3140 1.377 . S
C3141 C3147 1.390 . S
C3142 H3133 0.930 . S
C3142 C3140 1.384 . S
C3142 C3143 1.372 . S
C3143 C3142 1.372 . S
C3143 C3144 1.400 . S
C3143 C3148 1.490 . S
C3144 H3134 0.913 1_554 S
C3144 C3143 1.400 . S
C3144 C3147 1.386 . S
H3145 C3161 0.931 . S
H3146 C3162 0.931 . S
C3147 H3135 0.932 1_554 S
C3147 C3141 1.390 . S
C3147 C3144 1.386 . S
C3148 C3143 1.490 . S
C3148 C3150 1.395 . S
C3148 C3151 1.403 1_554 S
H3149 C3155 0.930 . S
C3150 H3136 0.930 . S
C3150 C3148 1.395 . S
C3150 C3153 1.403 . S
C3151 C3148 1.403 1_556 S
C3151 C3152 1.524 . S
C3151 C3155 1.400 . S
C3152 H3137 0.960 . S
C3152 H3138 0.960 . S
C3152 H3139 0.960 . S
C3152 C3151 1.524 . S
C3153 C3150 1.403 . S
C3153 C3154 1.392 . S
C3153 C3157 1.495 . S
C3154 C3153 1.392 . S
C3154 C3155 1.385 1_554 S
C3154 C3156 1.478 . S
C3155 H3149 0.930 . S
C3155 C3151 1.400 . S
C3155 C3154 1.385 1_556 S
C3156 C3154 1.478 . S
C3156 C3158 1.381 . S
C3156 C3162 1.383 . S
C3157 C3153 1.495 . S
C3157 H3163 0.959 . S
C3157 H3164 0.961 . S
C3157 H3165 0.960 . S
C3158 C3156 1.381 . S
C3158 C3159 1.394 . S
C3158 H3166 0.930 . S
C3159 C3158 1.394 . S
C3159 C3160 1.383 . S
C3159 H3167 0.929 . S
C3160 C3159 1.383 . S
C3160 C3161 1.377 . S
C3161 H3145 0.931 . S
C3161 C3160 1.377 . S
C3161 C3162 1.379 . S
C3162 H3146 0.931 . S
C3162 C3156 1.383 . S
C3162 C3161 1.379 . S
H3163 C3157 0.959 . S
H3164 C3157 0.961 . S
H3165 C3157 0.960 . S
H3166 C3158 0.930 . S
H3167 C3159 0.929 . S
H3168 C3176 0.929 . S
H3169 C3178 0.930 . S
H3170 C3180 0.930 . S
H3171 C3183 0.929 . S
H3172 C3186 0.930 . S
H3173 C3188 0.960 . S
H3174 C3188 0.960 . S
H3175 C3188 0.960 . S
C3176 H3168 0.929 . S
C3176 C3177 1.377 . S
C3176 C3178 1.384 . S
C3177 C3176 1.377 . S
C3177 C3183 1.390 . S
C3178 H3169 0.930 . S
C3178 C3176 1.384 . S
C3178 C3179 1.372 . S
C3179 C3178 1.372 . S
C3179 C3180 1.400 . S
C3179 C3184 1.490 . S
C3180 H3170 0.930 . S
C3180 C3179 1.400 . S
C3180 C3183 1.386 . S
H3181 C3197 0.930 . S
H3182 C3198 0.931 . S
C3183 H3171 0.929 . S
C3183 C3177 1.390 . S
C3183 C3180 1.386 . S
C3184 C3179 1.490 . S
C3184 C3186 1.395 . S
C3184 C3187 1.403 . S
H3185 C3191 0.930 . S
C3186 H3172 0.930 . S
C3186 C3184 1.395 . S
C3186 C3189 1.403 . S
C3187 C3184 1.403 . S
C3187 C3188 1.524 . S
C3187 C3191 1.400 . S
C3188 H3173 0.960 . S
C3188 H3174 0.960 . S
C3188 H3175 0.960 . S
C3188 C3187 1.524 . S
C3189 C3186 1.403 . S
C3189 C3190 1.392 . S
C3189 C3193 1.495 . S
C3190 C3189 1.392 . S
C3190 C3191 1.385 . S
C3190 C3192 1.478 . S
C3191 H3185 0.930 . S
C3191 C3187 1.400 . S
C3191 C3190 1.385 . S
C3192 C3190 1.478 . S
C3192 C3194 1.381 . S
C3192 C3198 1.383 . S
C3193 C3189 1.495 . S
C3193 H3199 0.959 . S
C3193 H3200 0.961 . S
C3193 H3201 0.960 . S
C3194 C3192 1.381 . S
C3194 C3195 1.394 . S
C3194 H3202 0.930 . S
C3195 C3194 1.394 . S
C3195 C3196 1.383 . S
C3195 H3203 0.929 . S
C3196 C3195 1.383 . S
C3196 C3197 1.377 . S
C3197 H3181 0.930 . S
C3197 C3196 1.377 . S
C3197 C3198 1.379 . S
C3198 H3182 0.931 . S
C3198 C3192 1.383 . S
C3198 C3197 1.379 . S
H3199 C3193 0.959 . S
H3200 C3193 0.961 . S
H3201 C3193 0.960 . S
H3202 C3194 0.930 . S
H3203 C3195 0.929 . S
H3204 C3212 0.929 . S
H3205 C3214 0.930 . S
H3206 C3216 0.930 . S
H3207 C3219 0.929 . S
H3208 C3222 0.930 . S
H3209 C3224 0.959 . S
H3210 C3224 1.013 . S
H3211 C3224 0.928 1_556 S
C3212 H3204 0.929 . S
C3212 C3213 1.359 1_554 S
C3212 C3214 1.384 . S
C3213 C3212 1.359 1_556 S
C3213 C3219 1.416 . S
C3214 H3205 0.930 . S
C3214 C3212 1.384 . S
C3214 C3215 1.372 1_554 S
C3215 C3214 1.372 1_556 S
C3215 C3216 1.400 . S
C3215 C3220 1.490 . S
C3216 H3206 0.930 . S
C3216 C3215 1.400 . S
C3216 C3219 1.386 . S
H3217 C3233 0.930 . S
H3218 C3234 0.931 . S
C3219 H3207 0.929 . S
C3219 C3213 1.416 . S
C3219 C3216 1.386 . S
C3220 C3215 1.490 . S
C3220 C3222 1.395 . S
C3220 C3223 1.403 . S
H3221 C3227 0.930 . S
C3222 H3208 0.930 . S
C3222 C3220 1.395 . S
C3222 C3225 1.403 . S
C3223 C3220 1.403 . S
C3223 C3224 1.507 1_556 S
C3223 C3227 1.400 . S
C3224 H3209 0.959 . S
C3224 H3210 1.013 . S
C3224 H3211 0.928 1_554 S
C3224 C3223 1.507 1_554 S
C3225 C3222 1.403 . S
C3225 C3226 1.392 . S
C3225 C3229 1.495 . S
C3226 C3225 1.392 . S
C3226 C3227 1.385 . S
C3226 C3228 1.478 . S
C3227 H3221 0.930 . S
C3227 C3223 1.400 . S
C3227 C3226 1.385 . S
C3228 C3226 1.478 . S
C3228 C3230 1.369 1_556 S
C3228 C3234 1.383 . S
C3229 C3225 1.495 . S
C3229 H3235 0.959 . S
C3229 H3236 0.961 . S
C3229 H3237 0.960 . S
C3230 C3228 1.369 1_554 S
C3230 C3231 1.378 1_554 S
C3230 H3238 0.946 . S
C3231 C3230 1.378 1_556 S
C3231 C3232 1.442 . S
C3231 H3239 0.888 1_556 S
C3232 C3231 1.442 . S
C3232 C3233 1.377 . S
C3233 H3217 0.930 . S
C3233 C3232 1.377 . S
C3233 C3234 1.379 . S
C3234 H3218 0.931 . S
C3234 C3228 1.383 . S
C3234 C3233 1.379 . S
H3235 C3229 0.959 . S
H3236 C3229 0.961 . S
H3237 C3229 0.960 . S
H3238 C3230 0.946 . S
H3239 C3231 0.888 1_554 S
H3240 C3248 0.929 . S
H3241 C3250 0.930 . S
H3242 C3252 0.930 . S
H3243 C3255 0.929 . S
H3244 C3258 0.930 . S
H3245 C3260 0.960 . S
H3246 C3260 0.960 . S
H3247 C3260 0.960 . S
C3248 H3240 0.929 . S
C3248 C3249 1.377 . S
C3248 C3250 1.384 . S
C3249 C3248 1.377 . S
C3249 C3255 1.390 . S
C3250 H3241 0.930 . S
C3250 C3248 1.384 . S
C3250 C3251 1.372 . S
C3251 C3250 1.372 . S
C3251 C3252 1.400 . S
C3251 C3256 1.490 . S
C3252 H3242 0.930 . S
C3252 C3251 1.400 . S
C3252 C3255 1.386 . S
H3253 C3269 0.930 . S
H3254 C3270 0.931 . S
C3255 H3243 0.929 . S
C3255 C3249 1.390 . S
C3255 C3252 1.386 . S
C3256 C3251 1.490 . S
C3256 C3258 1.395 . S
C3256 C3259 1.403 . S
H3257 C3263 0.930 . S
C3258 H3244 0.930 . S
C3258 C3256 1.395 . S
C3258 C3261 1.403 . S
C3259 C3256 1.403 . S
C3259 C3260 1.524 . S
C3259 C3263 1.400 . S
C3260 H3245 0.960 . S
C3260 H3246 0.960 . S
C3260 H3247 0.960 . S
C3260 C3259 1.524 . S
C3261 C3258 1.403 . S
C3261 C3262 1.392 . S
C3261 C3265 1.495 . S
C3262 C3261 1.392 . S
C3262 C3263 1.385 . S
C3262 C3264 1.478 . S
C3263 H3257 0.930 . S
C3263 C3259 1.400 . S
C3263 C3262 1.385 . S
C3264 C3262 1.478 . S
C3264 C3266 1.381 . S
C3264 C3270 1.383 . S
C3265 C3261 1.495 . S
C3265 H3271 0.959 . S
C3265 H3272 0.961 . S
C3265 H3273 0.960 . S
C3266 C3264 1.381 . S
C3266 C3267 1.394 . S
C3266 H3274 0.930 . S
C3267 C3266 1.394 . S
C3267 C3268 1.383 . S
C3267 H3275 0.929 . S
C3268 C3267 1.383 . S
C3268 C3269 1.377 . S
C3269 H3253 0.930 . S
C3269 C3268 1.377 . S
C3269 C3270 1.379 . S
C3270 H3254 0.931 . S
C3270 C3264 1.383 . S
C3270 C3269 1.379 . S
H3271 C3265 0.959 . S
H3272 C3265 0.961 . S
H3273 C3265 0.960 . S
H3274 C3266 0.930 . S
H3275 C3267 0.929 . S
H3276 C3284 0.929 . S
H3277 C3286 0.930 . S
H3278 C3288 0.930 . S
H3279 C3291 0.981 . S
H3280 C3294 0.930 . S
H3281 C3296 0.960 . S
H3282 C3296 0.960 . S
H3283 C3296 0.960 . S
C3284 H3276 0.929 . S
C3284 C3285 1.377 . S
C3284 C3286 1.384 . S
C3285 C3284 1.377 . S
C3285 C3291 1.345 1_455 S
C3286 H3277 0.930 . S
C3286 C3284 1.384 . S
C3286 C3287 1.372 . S
C3287 C3286 1.372 . S
C3287 C3288 1.400 1_455 S
C3287 C3292 1.490 . S
C3288 H3278 0.930 . S
C3288 C3287 1.400 1_655 S
C3288 C3291 1.383 . S
H3289 C3305 0.930 . S
H3290 C3306 0.943 . S
C3291 H3279 0.981 . S
C3291 C3285 1.345 1_655 S
C3291 C3288 1.383 . S
C3292 C3287 1.490 . S
C3292 C3294 1.395 . S
C3292 C3295 1.403 1_455 S
H3293 C3299 0.930 . S
C3294 H3280 0.930 . S
C3294 C3292 1.395 . S
C3294 C3297 1.403 . S
C3295 C3292 1.403 1_655 S
C3295 C3296 1.524 . S
C3295 C3299 1.400 . S
C3296 H3281 0.960 . S
C3296 H3282 0.960 . S
C3296 H3283 0.960 . S
C3296 C3295 1.524 . S
C3297 C3294 1.403 . S
C3297 C3298 1.392 . S
C3297 C3301 1.495 . S
C3298 C3297 1.392 . S
C3298 C3299 1.385 1_455 S
C3298 C3300 1.478 . S
C3299 H3293 0.930 . S
C3299 C3295 1.400 . S
C3299 C3298 1.385 1_655 S
C3300 C3298 1.478 . S
C3300 C3302 1.381 . S
C3300 C3306 1.370 1_455 S
C3301 C3297 1.495 . S
C3301 H3307 0.959 . S
C3301 H3308 0.961 . S
C3301 H3309 0.960 . S
C3302 C3300 1.381 . S
C3302 C3303 1.394 . S
C3302 H3310 0.930 . S
C3303 C3302 1.394 . S
C3303 C3304 1.383 . S
C3303 H3311 0.929 . S
C3304 C3303 1.383 . S
C3304 C3305 1.377 1_455 S
C3305 H3289 0.930 . S
C3305 C3304 1.377 1_655 S
C3305 C3306 1.380 . S
C3306 H3290 0.943 . S
C3306 C3300 1.370 1_655 S
C3306 C3305 1.380 . S
H3307 C3301 0.959 . S
H3308 C3301 0.961 . S
H3309 C3301 0.960 . S
H3310 C3302 0.930 . S
H3311 C3303 0.929 . S
H3312 C3320 0.929 . S
H3313 C3322 0.930 . S
H3314 C3324 0.930 . S
H3315 C3327 0.929 . S
H3316 C3330 0.930 . S
H3317 C3332 0.960 . S
H3318 C3332 0.960 . S
H3319 C3332 0.960 . S
C3320 H3312 0.929 . S
C3320 C3321 1.377 . S
C3320 C3322 1.384 . S
C3321 C3320 1.377 . S
C3321 C3327 1.390 . S
C3322 H3313 0.930 . S
C3322 C3320 1.384 . S
C3322 C3323 1.372 . S
C3323 C3322 1.372 . S
C3323 C3324 1.400 . S
C3323 C3328 1.490 . S
C3324 H3314 0.930 . S
C3324 C3323 1.400 . S
C3324 C3327 1.386 . S
H3325 C3341 0.930 . S
H3326 C3342 0.931 . S
C3327 H3315 0.929 . S
C3327 C3321 1.390 . S
C3327 C3324 1.386 . S
C3328 C3323 1.490 . S
C3328 C3330 1.395 . S
C3328 C3331 1.403 . S
H3329 C3335 0.930 . S
C3330 H3316 0.930 . S
C3330 C3328 1.395 . S
C3330 C3333 1.403 . S
C3331 C3328 1.403 . S
C3331 C3332 1.524 . S
C3331 C3335 1.400 . S
C3332 H3317 0.960 . S
C3332 H3318 0.960 . S
C3332 H3319 0.960 . S
C3332 C3331 1.524 . S
C3333 C3330 1.403 . S
C3333 C3334 1.392 . S
C3333 C3337 1.495 . S
C3334 C3333 1.392 . S
C3334 C3335 1.385 . S
C3334 C3336 1.478 . S
C3335 H3329 0.930 . S
C3335 C3331 1.400 . S
C3335 C3334 1.385 . S
C3336 C3334 1.478 . S
C3336 C3338 1.381 . S
C3336 C3342 1.383 . S
C3337 C3333 1.495 . S
C3337 H3343 0.959 . S
C3337 H3344 0.961 . S
C3337 H3345 0.960 . S
C3338 C3336 1.381 . S
C3338 C3339 1.394 . S
C3338 H3346 0.930 . S
C3339 C3338 1.394 . S
C3339 C3340 1.383 . S
C3339 H3347 0.929 . S
C3340 C3339 1.383 . S
C3340 C3341 1.377 . S
C3341 H3325 0.930 . S
C3341 C3340 1.377 . S
C3341 C3342 1.379 . S
C3342 H3326 0.931 . S
C3342 C3336 1.383 . S
C3342 C3341 1.379 . S
H3343 C3337 0.959 . S
H3344 C3337 0.961 . S
H3345 C3337 0.960 . S
H3346 C3338 0.930 . S
H3347 C3339 0.929 . S
H3348 C3356 0.929 . S
H3349 C3358 0.930 . S
H3350 C3360 0.931 . S
H3351 C3363 0.929 . S
H3352 C3366 0.930 . S
H3353 C3368 0.960 . S
H3354 C3368 0.960 . S
H3355 C3368 0.960 . S
C3356 H3348 0.929 . S
C3356 C3357 1.403 . S
C3356 C3358 1.384 . S
C3357 C3356 1.403 . S
C3357 C3363 1.386 1_655 S
C3358 H3349 0.930 . S
C3358 C3356 1.384 . S
C3358 C3359 1.372 . S
C3359 C3358 1.372 . S
C3359 C3360 1.395 1_655 S
C3359 C3364 1.490 . S
C3360 H3350 0.931 . S
C3360 C3359 1.395 1_455 S
C3360 C3363 1.389 . S
H3361 C3377 0.930 . S
H3362 C3378 0.908 1_455 S
C3363 H3351 0.929 . S
C3363 C3357 1.386 1_455 S
C3363 C3360 1.389 . S
C3364 C3359 1.490 . S
C3364 C3366 1.395 1_655 S
C3364 C3367 1.403 . S
H3365 C3371 0.930 . S
C3366 H3352 0.930 . S
C3366 C3364 1.395 1_455 S
C3366 C3369 1.403 . S
C3367 C3364 1.403 . S
C3367 C3368 1.524 . S
C3367 C3371 1.400 . S
C3368 H3353 0.960 . S
C3368 H3354 0.960 . S
C3368 H3355 0.960 . S
C3368 C3367 1.524 . S
C3369 C3366 1.403 . S
C3369 C3370 1.392 1_455 S
C3369 C3373 1.495 . S
C3370 C3369 1.392 1_655 S
C3370 C3371 1.385 . S
C3370 C3372 1.478 . S
C3371 H3365 0.930 . S
C3371 C3367 1.400 . S
C3371 C3370 1.385 . S
C3372 C3370 1.478 . S
C3372 C3374 1.381 . S
C3372 C3378 1.383 . S
C3373 C3369 1.495 . S
C3373 H3379 0.959 . S
C3373 H3380 0.961 . S
C3373 H3381 0.960 . S
C3374 C3372 1.381 . S
C3374 C3375 1.394 . S
C3374 H3382 0.930 . S
C3375 C3374 1.394 . S
C3375 C3376 1.383 . S
C3375 H3383 0.929 . S
C3376 C3375 1.383 . S
C3376 C3377 1.377 . S
C3377 H3361 0.930 . S
C3377 C3376 1.377 . S
C3377 C3378 1.379 . S
C3378 H3362 0.908 1_655 S
C3378 C3372 1.383 . S
C3378 C3377 1.379 . S
H3379 C3373 0.959 . S
H3380 C3373 0.961 . S
H3381 C3373 0.960 . S
H3382 C3374 0.930 . S
H3383 C3375 0.929 . S
H3384 C3392 0.929 . S
H3385 C3394 0.930 . S
H3386 C3396 0.930 . S
H3387 C3399 0.929 . S
H3388 C3402 0.930 . S
H3389 C3404 0.960 . S
H3390 C3404 0.960 . S
H3391 C3404 0.960 . S
C3392 H3384 0.929 . S
C3392 C3393 1.377 . S
C3392 C3394 1.384 . S
C3393 C3392 1.377 . S
C3393 C3399 1.390 . S
C3394 H3385 0.930 . S
C3394 C3392 1.384 . S
C3394 C3395 1.372 . S
C3395 C3394 1.372 . S
C3395 C3396 1.400 . S
C3395 C3400 1.490 . S
C3396 H3386 0.930 . S
C3396 C3395 1.400 . S
C3396 C3399 1.386 . S
H3397 C3413 0.930 . S
H3398 C3414 0.931 . S
C3399 H3387 0.929 . S
C3399 C3393 1.390 . S
C3399 C3396 1.386 . S
C3400 C3395 1.490 . S
C3400 C3402 1.395 . S
C3400 C3403 1.403 . S
H3401 C3407 0.930 . S
C3402 H3388 0.930 . S
C3402 C3400 1.395 . S
C3402 C3405 1.403 . S
C3403 C3400 1.403 . S
C3403 C3404 1.524 . S
C3403 C3407 1.400 . S
C3404 H3389 0.960 . S
C3404 H3390 0.960 . S
C3404 H3391 0.960 . S
C3404 C3403 1.524 . S
C3405 C3402 1.403 . S
C3405 C3406 1.392 . S
C3405 C3409 1.495 . S
C3406 C3405 1.392 . S
C3406 C3407 1.385 . S
C3406 C3408 1.478 . S
C3407 H3401 0.930 . S
C3407 C3403 1.400 . S
C3407 C3406 1.385 . S
C3408 C3406 1.478 . S
C3408 C3410 1.381 . S
C3408 C3414 1.383 . S
C3409 C3405 1.495 . S
C3409 H3415 0.959 . S
C3409 H3416 0.961 . S
C3409 H3417 0.960 . S
C3410 C3408 1.381 . S
C3410 C3411 1.394 . S
C3410 H3418 0.930 . S
C3411 C3410 1.394 . S
C3411 C3412 1.383 . S
C3411 H3419 0.929 . S
C3412 C3411 1.383 . S
C3412 C3413 1.377 . S
C3413 H3397 0.930 . S
C3413 C3412 1.377 . S
C3413 C3414 1.379 . S
C3414 H3398 0.931 . S
C3414 C3408 1.383 . S
C3414 C3413 1.379 . S
H3415 C3409 0.959 . S
H3416 C3409 0.961 . S
H3417 C3409 0.960 . S
H3418 C3410 0.930 . S
H3419 C3411 0.929 . S
H3420 C3428 0.929 . S
H3421 C3430 0.930 . S
H3422 C3432 0.930 . S
H3423 C3435 0.929 . S
H3424 C3438 0.930 . S
H3425 C3440 0.960 . S
H3426 C3440 0.960 . S
H3427 C3440 0.960 . S
C3428 H3420 0.929 . S
C3428 C3429 1.377 . S
C3428 C3430 1.384 . S
C3429 C3428 1.377 . S
C3429 C3435 1.390 . S
C3430 H3421 0.930 . S
C3430 C3428 1.384 . S
C3430 C3431 1.372 . S
C3431 C3430 1.372 . S
C3431 C3432 1.400 . S
C3431 C3436 1.490 . S
C3432 H3422 0.930 . S
C3432 C3431 1.400 . S
C3432 C3435 1.386 . S
H3433 C3449 0.930 . S
H3434 C3450 0.931 . S
C3435 H3423 0.929 . S
C3435 C3429 1.390 . S
C3435 C3432 1.386 . S
C3436 C3431 1.490 . S
C3436 C3438 1.395 . S
C3436 C3439 1.403 . S
H3437 C3443 0.930 . S
C3438 H3424 0.930 . S
C3438 C3436 1.395 . S
C3438 C3441 1.403 . S
C3439 C3436 1.403 . S
C3439 C3440 1.524 . S
C3439 C3443 1.400 . S
C3440 H3425 0.960 . S
C3440 H3426 0.960 . S
C3440 H3427 0.960 . S
C3440 C3439 1.524 . S
C3441 C3438 1.403 . S
C3441 C3442 1.392 . S
C3441 C3445 1.495 . S
C3442 C3441 1.392 . S
C3442 C3443 1.385 . S
C3442 C3444 1.478 . S
C3443 H3437 0.930 . S
C3443 C3439 1.400 . S
C3443 C3442 1.385 . S
C3444 C3442 1.478 . S
C3444 C3446 1.381 . S
C3444 C3450 1.383 . S
C3445 C3441 1.495 . S
C3445 H3451 0.959 . S
C3445 H3452 0.961 . S
C3445 H3453 0.960 . S
C3446 C3444 1.381 . S
C3446 C3447 1.394 . S
C3446 H3454 0.930 . S
C3447 C3446 1.394 . S
C3447 C3448 1.383 . S
C3447 H3455 0.929 . S
C3448 C3447 1.383 . S
C3448 C3449 1.377 . S
C3449 H3433 0.930 . S
C3449 C3448 1.377 . S
C3449 C3450 1.379 . S
C3450 H3434 0.931 . S
C3450 C3444 1.383 . S
C3450 C3449 1.379 . S
H3451 C3445 0.959 . S
H3452 C3445 0.961 . S
H3453 C3445 0.960 . S
H3454 C3446 0.930 . S
H3455 C3447 0.929 . S
H3456 C3464 0.929 . S
H3457 C3466 0.930 . S
H3458 C3468 0.934 . S
H3459 C3471 0.932 . S
H3460 C3474 0.930 . S
H3461 C3476 0.960 . S
H3462 C3476 0.960 . S
H3463 C3476 0.960 . S
C3464 H3456 0.929 . S
C3464 C3465 1.399 . S
C3464 C3466 1.384 . S
C3465 C3464 1.399 . S
C3465 C3471 1.389 1_545 S
C3466 H3457 0.930 . S
C3466 C3464 1.384 . S
C3466 C3467 1.372 . S
C3467 C3466 1.372 . S
C3467 C3468 1.400 . S
C3467 C3472 1.490 . S
C3468 H3458 0.934 . S
C3468 C3467 1.400 . S
C3468 C3471 1.384 1_545 S
H3469 C3485 0.930 . S
H3470 C3486 0.931 . S
C3471 H3459 0.932 . S
C3471 C3465 1.389 1_565 S
C3471 C3468 1.384 1_565 S
C3472 C3467 1.490 . S
C3472 C3474 1.395 1_545 S
C3472 C3475 1.403 . S
H3473 C3479 0.930 . S
C3474 H3460 0.930 . S
C3474 C3472 1.395 1_565 S
C3474 C3477 1.403 . S
C3475 C3472 1.403 . S
C3475 C3476 1.524 . S
C3475 C3479 1.400 . S
C3476 H3461 0.960 . S
C3476 H3462 0.960 . S
C3476 H3463 0.960 . S
C3476 C3475 1.524 . S
C3477 C3474 1.403 . S
C3477 C3478 1.392 1_565 S
C3477 C3481 1.495 . S
C3478 C3477 1.392 1_545 S
C3478 C3479 1.385 . S
C3478 C3480 1.478 . S
C3479 H3473 0.930 . S
C3479 C3475 1.400 . S
C3479 C3478 1.385 . S
C3480 C3478 1.478 . S
C3480 C3482 1.381 . S
C3480 C3486 1.383 . S
C3481 C3477 1.495 . S
C3481 H3487 0.959 . S
C3481 H3488 0.961 . S
C3481 H3489 0.960 . S
C3482 C3480 1.381 . S
C3482 C3483 1.394 . S
C3482 H3490 0.930 . S
C3483 C3482 1.394 . S
C3483 C3484 1.383 . S
C3483 H3491 0.929 . S
C3484 C3483 1.383 . S
C3484 C3485 1.377 . S
C3485 H3469 0.930 . S
C3485 C3484 1.377 . S
C3485 C3486 1.379 . S
C3486 H3470 0.931 . S
C3486 C3480 1.383 . S
C3486 C3485 1.379 . S
H3487 C3481 0.959 . S
H3488 C3481 0.961 . S
H3489 C3481 0.960 . S
H3490 C3482 0.930 . S
H3491 C3483 0.929 . S
H3492 C3500 0.929 . S
H3493 C3502 0.930 . S
H3494 C3504 0.930 . S
H3495 C3507 0.929 . S
H3496 C3510 0.930 . S
H3497 C3512 0.960 . S
H3498 C3512 0.960 1_565 S
H3499 C3512 0.960 . S
C3500 H3492 0.929 . S
C3500 C3501 1.377 . S
C3500 C3502 1.384 . S
C3501 C3500 1.377 . S
C3501 C3507 1.390 1_565 S
C3502 H3493 0.930 . S
C3502 C3500 1.384 . S
C3502 C3503 1.372 . S
C3503 C3502 1.372 . S
C3503 C3504 1.400 1_565 S
C3503 C3508 1.490 . S
C3504 H3494 0.930 . S
C3504 C3503 1.400 1_545 S
C3504 C3507 1.386 . S
H3505 C3521 0.930 . S
H3506 C3522 0.931 . S
C3507 H3495 0.929 . S
C3507 C3501 1.390 1_545 S
C3507 C3504 1.386 . S
C3508 C3503 1.490 . S
C3508 C3510 1.395 . S
C3508 C3511 1.403 . S
H3509 C3515 0.921 1_545 S
C3510 H3496 0.930 . S
C3510 C3508 1.395 . S
C3510 C3513 1.403 . S
C3511 C3508 1.403 . S
C3511 C3512 1.524 1_565 S
C3511 C3515 1.400 . S
C3512 H3497 0.960 . S
C3512 H3498 0.960 1_545 S
C3512 H3499 0.960 . S
C3512 C3511 1.524 1_545 S
C3513 C3510 1.403 . S
C3513 C3514 1.392 . S
C3513 C3517 1.495 . S
C3514 C3513 1.392 . S
C3514 C3515 1.385 . S
C3514 C3516 1.478 . S
C3515 H3509 0.921 1_565 S
C3515 C3511 1.400 . S
C3515 C3514 1.385 . S
C3516 C3514 1.478 . S
C3516 C3518 1.381 . S
C3516 C3522 1.383 1_565 S
C3517 C3513 1.495 . S
C3517 H3523 0.959 . S
C3517 H3524 0.961 . S
C3517 H3525 0.960 . S
C3518 C3516 1.381 . S
C3518 C3519 1.394 . S
C3518 H3526 0.930 . S
C3519 C3518 1.394 . S
C3519 C3520 1.383 . S
C3519 H3527 0.929 . S
C3520 C3519 1.383 . S
C3520 C3521 1.377 1_565 S
C3521 H3505 0.930 . S
C3521 C3520 1.377 1_545 S
C3521 C3522 1.379 . S
C3522 H3506 0.931 . S
C3522 C3516 1.383 1_545 S
C3522 C3521 1.379 . S
H3523 C3517 0.959 . S
H3524 C3517 0.961 . S
H3525 C3517 0.960 . S
H3526 C3518 0.930 . S
H3527 C3519 0.929 . S
H3528 C3536 0.929 . S
H3529 C3538 0.930 . S
H3530 C3540 0.930 . S
H3531 C3543 0.929 . S
H3532 C3546 0.930 . S
H3533 C3548 0.960 . S
H3534 C3548 0.960 . S
H3535 C3548 0.960 . S
C3536 H3528 0.929 . S
C3536 C3537 1.377 . S
C3536 C3538 1.384 . S
C3537 C3536 1.377 . S
C3537 C3543 1.390 . S
C3538 H3529 0.930 . S
C3538 C3536 1.384 . S
C3538 C3539 1.372 . S
C3539 C3538 1.372 . S
C3539 C3540 1.400 . S
C3539 C3544 1.490 . S
C3540 H3530 0.930 . S
C3540 C3539 1.400 . S
C3540 C3543 1.386 . S
H3541 C3557 0.930 . S
H3542 C3558 0.931 . S
C3543 H3531 0.929 . S
C3543 C3537 1.390 . S
C3543 C3540 1.386 . S
C3544 C3539 1.490 . S
C3544 C3546 1.395 . S
C3544 C3547 1.403 . S
H3545 C3551 0.930 . S
C3546 H3532 0.930 . S
C3546 C3544 1.395 . S
C3546 C3549 1.403 . S
C3547 C3544 1.403 . S
C3547 C3548 1.524 . S
C3547 C3551 1.400 . S
C3548 H3533 0.960 . S
C3548 H3534 0.960 . S
C3548 H3535 0.960 . S
C3548 C3547 1.524 . S
C3549 C3546 1.403 . S
C3549 C3550 1.392 . S
C3549 C3553 1.495 . S
C3550 C3549 1.392 . S
C3550 C3551 1.385 . S
C3550 C3552 1.478 . S
C3551 H3545 0.930 . S
C3551 C3547 1.400 . S
C3551 C3550 1.385 . S
C3552 C3550 1.478 . S
C3552 C3554 1.381 . S
C3552 C3558 1.383 . S
C3553 C3549 1.495 . S
C3553 H3559 0.959 . S
C3553 H3560 0.961 . S
C3553 H3561 0.960 . S
C3554 C3552 1.381 . S
C3554 C3555 1.394 . S
C3554 H3562 0.930 . S
C3555 C3554 1.394 . S
C3555 C3556 1.383 . S
C3555 H3563 0.929 . S
C3556 C3555 1.383 . S
C3556 C3557 1.377 . S
C3557 H3541 0.930 . S
C3557 C3556 1.377 . S
C3557 C3558 1.379 . S
C3558 H3542 0.931 . S
C3558 C3552 1.383 . S
C3558 C3557 1.379 . S
H3559 C3553 0.959 . S
H3560 C3553 0.961 . S
H3561 C3553 0.960 . S
H3562 C3554 0.930 . S
H3563 C3555 0.929 . S
H3564 C3572 0.929 . S
H3565 C3574 0.930 . S
H3566 C3576 0.930 . S
H3567 C3579 0.929 . S
H3568 C3582 0.930 . S
H3569 C3584 0.960 . S
H3570 C3584 0.960 1_556 S
H3571 C3584 0.960 . S
C3572 H3564 0.929 . S
C3572 C3573 1.377 . S
C3572 C3574 1.384 . S
C3573 C3572 1.377 . S
C3573 C3579 1.390 1_556 S
C3574 H3565 0.930 . S
C3574 C3572 1.384 . S
C3574 C3575 1.372 . S
C3575 C3574 1.372 . S
C3575 C3576 1.400 1_556 S
C3575 C3580 1.490 . S
C3576 H3566 0.930 . S
C3576 C3575 1.400 1_554 S
C3576 C3579 1.386 . S
H3577 C3593 0.930 . S
H3578 C3594 0.931 . S
C3579 H3567 0.929 . S
C3579 C3573 1.390 1_554 S
C3579 C3576 1.386 . S
C3580 C3575 1.490 . S
C3580 C3582 1.395 . S
C3580 C3583 1.403 . S
H3581 C3587 0.935 . S
C3582 H3568 0.930 . S
C3582 C3580 1.395 . S
C3582 C3585 1.403 . S
C3583 C3580 1.403 . S
C3583 C3584 1.524 1_556 S
C3583 C3587 1.400 . S
C3584 H3569 0.960 . S
C3584 H3570 0.960 1_554 S
C3584 H3571 0.960 . S
C3584 C3583 1.524 1_554 S
C3585 C3582 1.403 . S
C3585 C3586 1.392 . S
C3585 C3589 1.495 . S
C3586 C3585 1.392 . S
C3586 C3587 1.385 . S
C3586 C3588 1.478 . S
C3587 H3581 0.935 . S
C3587 C3583 1.400 . S
C3587 C3586 1.385 . S
C3588 C3586 1.478 . S
C3588 C3590 1.381 . S
C3588 C3594 1.383 1_556 S
C3589 C3585 1.495 . S
C3589 H3595 0.959 . S
C3589 H3596 0.961 . S
C3589 H3597 0.960 . S
C3590 C3588 1.381 . S
C3590 C3591 1.394 . S
C3590 H3598 0.930 . S
C3591 C3590 1.394 . S
C3591 C3592 1.383 . S
C3591 H3599 0.929 . S
C3592 C3591 1.383 . S
C3592 C3593 1.377 1_556 S
C3593 H3577 0.930 . S
C3593 C3592 1.377 1_554 S
C3593 C3594 1.379 . S
C3594 H3578 0.931 . S
C3594 C3588 1.383 1_554 S
C3594 C3593 1.379 . S
H3595 C3589 0.959 . S
H3596 C3589 0.961 . S
H3597 C3589 0.960 . S
H3598 C3590 0.930 . S
H3599 C3591 0.929 . S
H3600 C3608 0.929 . S
H3601 C3610 0.930 . S
H3602 C3612 0.930 . S
H3603 C3615 0.929 . S
H3604 C3618 0.930 . S
H3605 C3620 0.960 . S
H3606 C3620 0.960 . S
H3607 C3620 0.960 . S
C3608 H3600 0.929 . S
C3608 C3609 1.377 . S
C3608 C3610 1.384 . S
C3609 C3608 1.377 . S
C3609 C3615 1.390 . S
C3610 H3601 0.930 . S
C3610 C3608 1.384 . S
C3610 C3611 1.372 . S
C3611 C3610 1.372 . S
C3611 C3612 1.400 . S
C3611 C3616 1.490 . S
C3612 H3602 0.930 . S
C3612 C3611 1.400 . S
C3612 C3615 1.386 . S
H3613 C3629 0.930 . S
H3614 C3630 0.931 . S
C3615 H3603 0.929 . S
C3615 C3609 1.390 . S
C3615 C3612 1.386 . S
C3616 C3611 1.490 . S
C3616 C3618 1.395 . S
C3616 C3619 1.403 . S
H3617 C3623 0.930 . S
C3618 H3604 0.930 . S
C3618 C3616 1.395 . S
C3618 C3621 1.403 . S
C3619 C3616 1.403 . S
C3619 C3620 1.524 . S
C3619 C3623 1.400 . S
C3620 H3605 0.960 . S
C3620 H3606 0.960 . S
C3620 H3607 0.960 . S
C3620 C3619 1.524 . S
C3621 C3618 1.403 . S
C3621 C3622 1.392 . S
C3621 C3625 1.495 . S
C3622 C3621 1.392 . S
C3622 C3623 1.385 . S
C3622 C3624 1.478 . S
C3623 H3617 0.930 . S
C3623 C3619 1.400 . S
C3623 C3622 1.385 . S
C3624 C3622 1.478 . S
C3624 C3626 1.381 . S
C3624 C3630 1.383 . S
C3625 C3621 1.495 . S
C3625 H3631 0.959 . S
C3625 H3632 0.961 . S
C3625 H3633 0.960 . S
C3626 C3624 1.381 . S
C3626 C3627 1.394 . S
C3626 H3634 0.930 . S
C3627 C3626 1.394 . S
C3627 C3628 1.383 . S
C3627 H3635 0.929 . S
C3628 C3627 1.383 . S
C3628 C3629 1.377 . S
C3629 H3613 0.930 . S
C3629 C3628 1.377 . S
C3629 C3630 1.379 . S
C3630 H3614 0.931 . S
C3630 C3624 1.383 . S
C3630 C3629 1.379 . S
H3631 C3625 0.959 . S
H3632 C3625 0.961 . S
H3633 C3625 0.960 . S
H3634 C3626 0.930 . S
H3635 C3627 0.929 . S
H3636 C3644 0.929 . S
H3637 C3646 0.930 . S
H3638 C3648 0.930 . S
H3639 C3651 0.929 . S
H3640 C3654 0.930 . S
H3641 C3656 0.960 . S
H3642 C3656 0.960 1_556 S
H3643 C3656 0.960 . S
C3644 H3636 0.929 . S
C3644 C3645 1.355 1_556 S
C3644 C3646 1.384 . S
C3645 C3644 1.355 1_554 S
C3645 C3651 1.420 . S
C3646 H3637 0.930 . S
C3646 C3644 1.384 . S
C3646 C3647 1.372 1_556 S
C3647 C3646 1.372 1_554 S
C3647 C3648 1.400 . S
C3647 C3652 1.490 . S
C3648 H3638 0.930 . S
C3648 C3647 1.400 . S
C3648 C3651 1.386 . S
H3649 C3665 0.930 . S
H3650 C3666 0.931 . S
C3651 H3639 0.929 . S
C3651 C3645 1.420 . S
C3651 C3648 1.386 . S
C3652 C3647 1.490 . S
C3652 C3654 1.395 . S
C3652 C3655 1.403 . S
H3653 C3659 0.930 . S
C3654 H3640 0.930 . S
C3654 C3652 1.395 . S
C3654 C3657 1.403 . S
C3655 C3652 1.403 . S
C3655 C3656 1.524 . S
C3655 C3659 1.400 . S
C3656 H3641 0.960 . S
C3656 H3642 0.960 1_554 S
C3656 H3643 0.960 . S
C3656 C3655 1.524 . S
C3657 C3654 1.403 . S
C3657 C3658 1.392 . S
C3657 C3661 1.495 . S
C3658 C3657 1.392 . S
C3658 C3659 1.385 . S
C3658 C3660 1.478 . S
C3659 H3653 0.930 . S
C3659 C3655 1.400 . S
C3659 C3658 1.385 . S
C3660 C3658 1.478 . S
C3660 C3662 1.381 1_554 S
C3660 C3666 1.383 . S
C3661 C3657 1.495 . S
C3661 H3667 0.959 . S
C3661 H3668 0.961 . S
C3661 H3669 0.960 . S
C3662 C3660 1.381 1_556 S
C3662 C3663 1.395 1_556 S
C3662 H3670 0.930 . S
C3663 C3662 1.395 1_554 S
C3663 C3664 1.380 . S
C3663 H3671 0.932 1_554 S
C3664 C3663 1.380 . S
C3664 C3665 1.377 . S
C3665 H3649 0.930 . S
C3665 C3664 1.377 . S
C3665 C3666 1.379 . S
C3666 H3650 0.931 . S
C3666 C3660 1.383 . S
C3666 C3665 1.379 . S
H3667 C3661 0.959 . S
H3668 C3661 0.961 . S
H3669 C3661 0.960 . S
H3670 C3662 0.930 . S
H3671 C3663 0.932 1_556 S
H3672 C3680 0.929 . S
H3673 C3682 0.930 . S
H3674 C3684 0.930 . S
H3675 C3687 0.929 . S
H3676 C3690 0.930 . S
H3677 C3692 0.960 . S
H3678 C3692 0.960 . S
H3679 C3692 0.960 . S
C3680 H3672 0.929 . S
C3680 C3681 1.377 . S
C3680 C3682 1.384 . S
C3681 C3680 1.377 . S
C3681 C3687 1.390 . S
C3682 H3673 0.930 . S
C3682 C3680 1.384 . S
C3682 C3683 1.372 . S
C3683 C3682 1.372 . S
C3683 C3684 1.400 . S
C3683 C3688 1.490 . S
C3684 H3674 0.930 . S
C3684 C3683 1.400 . S
C3684 C3687 1.386 . S
H3685 C3701 0.930 . S
H3686 C3702 0.931 . S
C3687 H3675 0.929 . S
C3687 C3681 1.390 . S
C3687 C3684 1.386 . S
C3688 C3683 1.490 . S
C3688 C3690 1.395 . S
C3688 C3691 1.403 . S
H3689 C3695 0.930 . S
C3690 H3676 0.930 . S
C3690 C3688 1.395 . S
C3690 C3693 1.403 . S
C3691 C3688 1.403 . S
C3691 C3692 1.524 . S
C3691 C3695 1.400 . S
C3692 H3677 0.960 . S
C3692 H3678 0.960 . S
C3692 H3679 0.960 . S
C3692 C3691 1.524 . S
C3693 C3690 1.403 . S
C3693 C3694 1.392 . S
C3693 C3697 1.495 . S
C3694 C3693 1.392 . S
C3694 C3695 1.385 . S
C3694 C3696 1.478 . S
C3695 H3689 0.930 . S
C3695 C3691 1.400 . S
C3695 C3694 1.385 . S
C3696 C3694 1.478 . S
C3696 C3698 1.381 . S
C3696 C3702 1.383 . S
C3697 C3693 1.495 . S
C3697 H3703 0.959 . S
C3697 H3704 0.961 . S
C3697 H3705 0.960 . S
C3698 C3696 1.381 . S
C3698 C3699 1.394 . S
C3698 H3706 0.930 . S
C3699 C3698 1.394 . S
C3699 C3700 1.383 . S
C3699 H3707 0.929 . S
C3700 C3699 1.383 . S
C3700 C3701 1.377 . S
C3701 H3685 0.930 . S
C3701 C3700 1.377 . S
C3701 C3702 1.379 . S
C3702 H3686 0.931 . S
C3702 C3696 1.383 . S
C3702 C3701 1.379 . S
H3703 C3697 0.959 . S
H3704 C3697 0.961 . S
H3705 C3697 0.960 . S
H3706 C3698 0.930 . S
H3707 C3699 0.929 . S
H3708 C3716 0.929 . S
H3709 C3718 0.930 . S
H3710 C3720 0.930 . S
H3711 C3723 0.929 . S
H3712 C3726 0.930 . S
H3713 C3728 0.960 . S
H3714 C3728 0.960 . S
H3715 C3728 0.960 . S
C3716 H3708 0.929 . S
C3716 C3717 1.377 . S
C3716 C3718 1.384 . S
C3717 C3716 1.377 . S
C3717 C3723 1.390 . S
C3718 H3709 0.930 . S
C3718 C3716 1.384 . S
C3718 C3719 1.372 . S
C3719 C3718 1.372 . S
C3719 C3720 1.400 . S
C3719 C3724 1.490 . S
C3720 H3710 0.930 . S
C3720 C3719 1.400 . S
C3720 C3723 1.386 . S
H3721 C3737 0.930 . S
H3722 C3738 0.931 . S
C3723 H3711 0.929 . S
C3723 C3717 1.390 . S
C3723 C3720 1.386 . S
C3724 C3719 1.490 . S
C3724 C3726 1.395 1_655 S
C3724 C3727 1.403 . S
H3725 C3731 0.930 . S
C3726 H3712 0.930 . S
C3726 C3724 1.395 1_455 S
C3726 C3729 1.403 . S
C3727 C3724 1.403 . S
C3727 C3728 1.524 . S
C3727 C3731 1.400 . S
C3728 H3713 0.960 . S
C3728 H3714 0.960 . S
C3728 H3715 0.960 . S
C3728 C3727 1.524 . S
C3729 C3726 1.403 . S
C3729 C3730 1.392 1_455 S
C3729 C3733 1.495 . S
C3730 C3729 1.392 1_655 S
C3730 C3731 1.385 . S
C3730 C3732 1.478 . S
C3731 H3725 0.930 . S
C3731 C3727 1.400 . S
C3731 C3730 1.385 . S
C3732 C3730 1.478 . S
C3732 C3734 1.381 . S
C3732 C3738 1.383 . S
C3733 C3729 1.495 . S
C3733 H3739 0.959 . S
C3733 H3740 0.961 . S
C3733 H3741 0.960 . S
C3734 C3732 1.381 . S
C3734 C3735 1.394 . S
C3734 H3742 0.930 . S
C3735 C3734 1.394 . S
C3735 C3736 1.383 . S
C3735 H3743 0.929 . S
C3736 C3735 1.383 . S
C3736 C3737 1.377 . S
C3737 H3721 0.930 . S
C3737 C3736 1.377 . S
C3737 C3738 1.379 . S
C3738 H3722 0.931 . S
C3738 C3732 1.383 . S
C3738 C3737 1.379 . S
H3739 C3733 0.959 . S
H3740 C3733 0.961 . S
H3741 C3733 0.960 . S
H3742 C3734 0.930 . S
H3743 C3735 0.929 . S
H3744 C3752 0.929 . S
H3745 C3754 0.930 . S
H3746 C3756 0.930 . S
H3747 C3759 0.929 . S
H3748 C3762 0.930 . S
H3749 C3764 0.960 . S
H3750 C3764 0.960 . S
H3751 C3764 0.960 . S
C3752 H3744 0.929 . S
C3752 C3753 1.377 . S
C3752 C3754 1.384 . S
C3753 C3752 1.377 . S
C3753 C3759 1.390 . S
C3754 H3745 0.930 . S
C3754 C3752 1.384 . S
C3754 C3755 1.372 . S
C3755 C3754 1.372 . S
C3755 C3756 1.400 . S
C3755 C3760 1.490 . S
C3756 H3746 0.930 . S
C3756 C3755 1.400 . S
C3756 C3759 1.386 . S
H3757 C3773 0.930 . S
H3758 C3774 0.931 . S
C3759 H3747 0.929 . S
C3759 C3753 1.390 . S
C3759 C3756 1.386 . S
C3760 C3755 1.490 . S
C3760 C3762 1.395 . S
C3760 C3763 1.403 . S
H3761 C3767 0.930 . S
C3762 H3748 0.930 . S
C3762 C3760 1.395 . S
C3762 C3765 1.403 . S
C3763 C3760 1.403 . S
C3763 C3764 1.524 . S
C3763 C3767 1.400 . S
C3764 H3749 0.960 . S
C3764 H3750 0.960 . S
C3764 H3751 0.960 . S
C3764 C3763 1.524 . S
C3765 C3762 1.403 . S
C3765 C3766 1.392 . S
C3765 C3769 1.495 . S
C3766 C3765 1.392 . S
C3766 C3767 1.385 . S
C3766 C3768 1.478 . S
C3767 H3761 0.930 . S
C3767 C3763 1.400 . S
C3767 C3766 1.385 . S
C3768 C3766 1.478 . S
C3768 C3770 1.381 . S
C3768 C3774 1.383 . S
C3769 C3765 1.495 . S
C3769 H3775 0.959 . S
C3769 H3776 0.961 . S
C3769 H3777 0.960 . S
C3770 C3768 1.381 . S
C3770 C3771 1.394 . S
C3770 H3778 0.930 . S
C3771 C3770 1.394 . S
C3771 C3772 1.383 . S
C3771 H3779 0.929 . S
C3772 C3771 1.383 . S
C3772 C3773 1.377 . S
C3773 H3757 0.930 . S
C3773 C3772 1.377 . S
C3773 C3774 1.379 . S
C3774 H3758 0.931 . S
C3774 C3768 1.383 . S
C3774 C3773 1.379 . S
H3775 C3769 0.959 . S
H3776 C3769 0.961 . S
H3777 C3769 0.960 . S
H3778 C3770 0.930 . S
H3779 C3771 0.929 . S
H3780 C3788 0.941 . S
H3781 C3790 0.933 1_655 S
H3782 C3792 0.930 . S
H3783 C3795 0.929 . S
H3784 C3798 0.930 . S
H3785 C3800 0.960 . S
H3786 C3800 0.960 . S
H3787 C3800 0.960 . S
C3788 H3780 0.941 . S
C3788 C3789 1.383 1_655 S
C3788 C3790 1.367 1_655 S
C3789 C3788 1.383 1_455 S
C3789 C3795 1.407 . S
C3790 H3781 0.933 1_455 S
C3790 C3788 1.367 1_455 S
C3790 C3791 1.384 . S
C3791 C3790 1.384 . S
C3791 C3792 1.400 . S
C3791 C3796 1.490 . S
C3792 H3782 0.930 . S
C3792 C3791 1.400 . S
C3792 C3795 1.386 . S
H3793 C3809 0.930 . S
H3794 C3810 0.931 . S
C3795 H3783 0.929 . S
C3795 C3789 1.407 . S
C3795 C3792 1.386 . S
C3796 C3791 1.490 . S
C3796 C3798 1.395 1_455 S
C3796 C3799 1.403 . S
H3797 C3803 0.930 . S
C3798 H3784 0.930 . S
C3798 C3796 1.395 1_655 S
C3798 C3801 1.403 . S
C3799 C3796 1.403 . S
C3799 C3800 1.524 . S
C3799 C3803 1.400 . S
C3800 H3785 0.960 . S
C3800 H3786 0.960 . S
C3800 H3787 0.960 . S
C3800 C3799 1.524 . S
C3801 C3798 1.403 . S
C3801 C3802 1.392 1_655 S
C3801 C3805 1.495 . S
C3802 C3801 1.392 1_455 S
C3802 C3803 1.385 . S
C3802 C3804 1.478 . S
C3803 H3797 0.930 . S
C3803 C3799 1.400 . S
C3803 C3802 1.385 . S
C3804 C3802 1.478 . S
C3804 C3806 1.381 . S
C3804 C3810 1.383 . S
C3805 C3801 1.495 . S
C3805 H3811 0.959 . S
C3805 H3812 0.961 . S
C3805 H3813 0.960 . S
C3806 C3804 1.381 . S
C3806 C3807 1.394 . S
C3806 H3814 0.930 . S
C3807 C3806 1.394 . S
C3807 C3808 1.383 . S
C3807 H3815 0.929 . S
C3808 C3807 1.383 . S
C3808 C3809 1.377 . S
C3809 H3793 0.930 . S
C3809 C3808 1.377 . S
C3809 C3810 1.379 . S
C3810 H3794 0.931 . S
C3810 C3804 1.383 . S
C3810 C3809 1.379 . S
H3811 C3805 0.959 . S
H3812 C3805 0.961 . S
H3813 C3805 0.960 . S
H3814 C3806 0.930 . S
H3815 C3807 0.929 . S
C1252 C1217 1.822 . S
C1233 C15 1.880 . S
C1288 C1184 1.335 . S
C1269 C55 1.336 . S
C1324 C1206 0.712 . S
C1305 C95 0.591 1_545 S
C1360 C1195 1.426 . S
C1341 C135 1.422 . S
C1396 C1118 1.788 . S
C1377 C175 1.882 . S
C1413 C215 1.424 . S
C1432 C1129 1.395 . S
C1468 C1096 1.341 . S
C1449 C255 1.329 . S
C1485 C295 0.589 1_554 S
C1504 C1107 0.569 . S
C1540 C1173 1.809 . S
C1521 C335 1.880 . S
C1557 C375 1.425 . S
C1576 C1151 1.390 . S
C1593 C415 1.325 . S
C1612 C1140 1.373 . S
C1648 C1162 0.632 . S
C1629 C455 0.587 1_455 S
C1684 C1085 1.778 . S
C1665 C495 1.878 . S
C1701 C535 1.329 . S
C1720 C1052 1.363 . S
C1756 C1074 0.677 . S
C1737 C575 0.589 . S
C1773 C615 1.424 . S
C1792 C1063 1.402 . S
C1828 C986 1.818 . S
C1809 C655 1.880 . S
C1864 C997 1.372 . S
C1845 C695 1.420 . S
C1881 C735 1.319 . S
C1900 C964 1.367 . S
C1917 C775 0.588 . S
C1936 C975 0.649 . S
C1953 C815 1.870 . S
C1972 C1041 1.812 . S
C1989 C855 1.426 . S
C2008 C1019 1.415 . S
C2044 C1008 1.354 . S
C2025 C895 1.317 . S
C2061 C935 0.590 . S
C2080 C1030 0.618 . S
C2116 C965 1.652 . S
C2097 C21 1.709 . S
C2152 C976 1.540 . S
C2133 C61 1.634 . S
C2169 C101 0.626 1_545 S
C2188 C987 0.603 . S
C2205 C141 0.761 . S
C2224 C998 0.765 . S
C2260 C1009 1.682 . S
C2241 C181 1.709 . S
C2277 C221 0.761 . S
C2296 C1020 0.777 . S
C2332 C1031 1.577 . S
C2313 C261 1.628 . S
C2368 C1042 0.674 . S
C2349 C301 0.626 . S
C2404 C1053 1.648 . S
C2385 C341 1.708 . S
C2421 C381 0.768 . S
C2440 C1064 0.778 . S
C2457 C421 1.632 . S
C2476 C1075 1.570 . S
C2493 C461 0.626 1_455 S
C2512 C1086 0.601 . S
C2529 C501 1.676 . S
C2548 C1097 1.682 . S
C2565 C541 1.529 . S
C2584 C1108 1.593 . S
C2601 C581 0.635 1_545 S
C2620 C1119 0.639 . S
C2637 C621 0.758 . S
C2656 C1130 0.778 . S
C2673 C661 1.672 . S
C2692 C1141 1.649 . S
C2728 C1152 0.793 . S
C2709 C701 0.753 . S
C2764 C1163 1.577 . S
C2745 C741 1.516 . S
C2800 C1174 0.608 . S
C2781 C781 0.628 . S
C2836 C1185 1.647 . S
C2817 C821 1.671 . S
C2853 C861 0.768 . S
C2872 C1196 0.726 . S
C2889 C901 1.528 . S
C2908 C1207 1.591 . S
C2925 C941 0.628 . S
C2944 C1218 0.608 . S
C2961 C2 1.675 . S
C2980 C1058 1.665 . S
C3016 C1091 1.712 . S
C2997 C42 1.761 . S
C3033 C82 1.499 . S
C3052 C1069 1.484 . S
C3088 C1080 1.486 . S
C3069 C122 1.466 . S
C3105 C162 1.674 . S
C3124 C970 1.663 . S
C3141 C202 1.467 . S
C3160 C981 1.487 . S
C3177 C242 1.770 . S
C3196 C992 1.697 . S
C3213 C282 1.503 . S
C3232 C1003 1.459 . S
C3268 C1014 1.660 . S
C3249 C322 1.674 . S
C3304 C1036 1.486 . S
C3285 C362 1.467 . S
C3321 C402 1.770 . S
C3340 C1047 1.692 . S
C3357 C442 1.494 . S
C3376 C1025 1.437 . S
C3412 C1190 1.666 . S
C3393 C482 1.653 . S
C3448 C1223 1.715 . S
C3429 C522 1.677 . S
C3465 C562 1.498 1_545 S
C3484 C1201 1.425 . S
C3520 C1212 1.484 . S
C3501 C602 1.456 . S
C3537 C642 1.653 . S
C3556 C1102 1.637 . S
C3573 C682 1.456 . S
C3592 C1113 1.484 . S
C3609 C722 1.690 . S
C3628 C1124 1.683 . S
C3664 C1135 1.454 . S
C3645 C762 1.506 1_554 S
C3700 C1146 1.641 . S
C3681 C802 1.656 . S
C3736 C1168 1.468 . S
C3717 C842 1.460 . S
C3753 C882 1.691 . S
C3772 C1179 1.727 . S
C3808 C1157 1.421 . S
C3789 C922 1.499 1_455 S
