# Generated by pormake.
# Topology pyr, (3,6)-cn, num edge types: 1
# Building blocks:
#     Node 0, Type 0, BuildingBlock: MIDCAF_clean_linker_0, # of connection points: 3
#     Node 1, Type 0, BuildingBlock: MIDCAF_clean_linker_0, # of connection points: 3
#     Node 2, Type 0, BuildingBlock: MIDCAF_clean_linker_0, # of connection points: 3
#     Node 3, Type 0, BuildingBlock: MIDCAF_clean_linker_0, # of connection points: 3
#     Node 4, Type 0, BuildingBlock: MIDCAF_clean_linker_0, # of connection points: 3
#     Node 5, Type 0, BuildingBlock: MIDCAF_clean_linker_0, # of connection points: 3
#     Node 6, Type 0, BuildingBlock: MIDCAF_clean_linker_0, # of connection points: 3
#     Node 7, Type 0, BuildingBlock: MIDCAF_clean_linker_0, # of connection points: 3
#     Node 8, Type 1, BuildingBlock: MIDCAF_clean_sbu_0, # of connection points: 6
#     Node 9, Type 1, BuildingBlock: MIDCAF_clean_sbu_0, # of connection points: 6
#     Node 10, Type 1, BuildingBlock: MIDCAF_clean_sbu_0, # of connection points: 6
#     Node 11, Type 1, BuildingBlock: MIDCAF_clean_sbu_0, # of connection points: 6
#     Edge 12, Type (0, 1), BuildingBlock: ZUJKAS_clean_linker_0, # of connection points: 2
#     Edge 13, Type (0, 1), BuildingBlock: ZUJKAS_clean_linker_0, # of connection points: 2
#     Edge 14, Type (0, 1), BuildingBlock: ZUJKAS_clean_linker_0, # of connection points: 2
#     Edge 15, Type (0, 1), BuildingBlock: ZUJKAS_clean_linker_0, # of connection points: 2
#     Edge 16, Type (0, 1), BuildingBlock: ZUJKAS_clean_linker_0, # of connection points: 2
#     Edge 17, Type (0, 1), BuildingBlock: ZUJKAS_clean_linker_0, # of connection points: 2
#     Edge 18, Type (0, 1), BuildingBlock: ZUJKAS_clean_linker_0, # of connection points: 2
#     Edge 19, Type (0, 1), BuildingBlock: ZUJKAS_clean_linker_0, # of connection points: 2
#     Edge 20, Type (0, 1), BuildingBlock: ZUJKAS_clean_linker_0, # of connection points: 2
#     Edge 21, Type (0, 1), BuildingBlock: ZUJKAS_clean_linker_0, # of connection points: 2
#     Edge 22, Type (0, 1), BuildingBlock: ZUJKAS_clean_linker_0, # of connection points: 2
#     Edge 23, Type (0, 1), BuildingBlock: ZUJKAS_clean_linker_0, # of connection points: 2
#     Edge 24, Type (0, 1), BuildingBlock: ZUJKAS_clean_linker_0, # of connection points: 2
#     Edge 25, Type (0, 1), BuildingBlock: ZUJKAS_clean_linker_0, # of connection points: 2
#     Edge 26, Type (0, 1), BuildingBlock: ZUJKAS_clean_linker_0, # of connection points: 2
#     Edge 27, Type (0, 1), BuildingBlock: ZUJKAS_clean_linker_0, # of connection points: 2
#     Edge 28, Type (0, 1), BuildingBlock: ZUJKAS_clean_linker_0, # of connection points: 2
#     Edge 29, Type (0, 1), BuildingBlock: ZUJKAS_clean_linker_0, # of connection points: 2
#     Edge 30, Type (0, 1), BuildingBlock: ZUJKAS_clean_linker_0, # of connection points: 2
#     Edge 31, Type (0, 1), BuildingBlock: ZUJKAS_clean_linker_0, # of connection points: 2
#     Edge 32, Type (0, 1), BuildingBlock: ZUJKAS_clean_linker_0, # of connection points: 2
#     Edge 33, Type (0, 1), BuildingBlock: ZUJKAS_clean_linker_0, # of connection points: 2
#     Edge 34, Type (0, 1), BuildingBlock: ZUJKAS_clean_linker_0, # of connection points: 2
#     Edge 35, Type (0, 1), BuildingBlock: ZUJKAS_clean_linker_0, # of connection points: 2
# Relax obj value: 0.019
# Max RMSD: 0.062
# Mean RMSD: 0.023
data_MOF--net-pyr--node1-MIDCAF_clean_sbu_0--node2-MIDCAF_clean_linker_0--edge1-ZUJKAS_clean_linker_0
_symmetry_space_group_name_H-M    P1
_symmetry_Int_Tables_number       1
_symmetry_cell_setting            triclinic
loop_
_symmetry_equiv_pos_as_xyz
'x, y, z'
_cell_length_a     54.220795
_cell_length_b     54.303232
_cell_length_c     54.276538
_cell_angle_alpha  89.848915
_cell_angle_beta   90.178777
_cell_angle_gamma 90.21227
loop_
_atom_site_label
_atom_site_type_symbol
_atom_site_fract_x
_atom_site_fract_y
_atom_site_fract_z
_atom_type_partial_charge
C0 C 0.18015 0.2205 0.30655 0.0
C1 C 0.18866 0.19942 0.31898 0.0
C2 C 0.21003 0.18773 0.31031 0.0
C3 C 0.22228 0.19657 0.28942 0.0
H4 H 0.28834 0.18991 0.245 0.0
H5 H 0.32076 0.16499 0.22593 0.0
H6 H 0.29703 0.18931 0.154 0.0
H7 H 0.26515 0.21476 0.17289 0.0
H8 H 0.24088 0.27074 0.17425 0.0
H9 H 0.22644 0.30771 0.1533 0.0
H10 H 0.18099 0.32531 0.21597 0.0
H11 H 0.19556 0.28847 0.23714 0.0
H12 H 0.18517 0.24553 0.27645 0.0
H13 H 0.1639 0.2301 0.3129 0.0
H14 H 0.21693 0.17128 0.31925 0.0
H15 H 0.23843 0.18679 0.2831 0.0
N16 N 0.24425 0.21248 0.24349 0.0
N17 N 0.24633 0.24001 0.21017 0.0
N18 N 0.21782 0.24657 0.24186 0.0
C19 C 0.25458 0.2194 0.22176 0.0
C20 C 0.2281 0.25384 0.22018 0.0
C21 C 0.22572 0.22588 0.25362 0.0
C22 C 0.27422 0.20432 0.21044 0.0
C23 C 0.29009 0.18997 0.22512 0.0
C24 C 0.30865 0.17581 0.21428 0.0
C25 C 0.31124 0.17526 0.18856 0.0
C26 C 0.29529 0.1894 0.17388 0.0
C27 C 0.27716 0.20402 0.18471 0.0
C28 C 0.21939 0.2765 0.20744 0.0
C29 C 0.22786 0.28248 0.18367 0.0
C30 C 0.2195 0.30365 0.17156 0.0
C31 C 0.20258 0.31948 0.18295 0.0
C32 C 0.19426 0.31366 0.20679 0.0
C33 C 0.2025 0.29241 0.21886 0.0
C34 C 0.21353 0.21738 0.27667 0.0
C35 C 0.19246 0.22942 0.2857 0.0
C36 C 0.22329 0.859 0.72256 0.0
C37 C 0.21113 0.85056 0.70125 0.0
C38 C 0.21973 0.82905 0.68981 0.0
C39 C 0.24022 0.81653 0.69915 0.0
H40 H 0.28415 0.75649 0.68635 0.0
H41 H 0.30128 0.7225 0.66289 0.0
H42 H 0.36784 0.72593 0.70676 0.0
H43 H 0.35047 0.75939 0.73069 0.0
H44 H 0.35282 0.7948 0.77663 0.0
H45 H 0.37491 0.81133 0.81207 0.0
H46 H 0.31516 0.86196 0.82534 0.0
H47 H 0.29331 0.84591 0.7896 0.0
H48 H 0.2528 0.85364 0.74826 0.0
H49 H 0.21699 0.87536 0.73198 0.0
H50 H 0.21105 0.82222 0.67317 0.0
H51 H 0.24647 0.80025 0.68956 0.0
N52 N 0.28456 0.79299 0.71689 0.0
N53 N 0.31731 0.79026 0.74507 0.0
N54 N 0.28713 0.82071 0.74985 0.0
C55 C 0.30558 0.78175 0.7246 0.0
C56 C 0.30817 0.80968 0.75788 0.0
C57 C 0.2752 0.8125 0.72937 0.0
C58 C 0.31589 0.76076 0.71047 0.0
C59 C 0.30242 0.74998 0.69107 0.0
C60 C 0.31231 0.73052 0.67749 0.0
C61 C 0.33598 0.72141 0.68286 0.0
C62 C 0.34939 0.73214 0.70233 0.0
C63 C 0.33946 0.75149 0.716 0.0
C64 C 0.32128 0.81908 0.78007 0.0
C65 C 0.34431 0.80941 0.78711 0.0
C66 C 0.35695 0.81879 0.80758 0.0
C67 C 0.34688 0.83804 0.82157 0.0
C68 C 0.32368 0.84741 0.81477 0.0
C69 C 0.31107 0.83809 0.79428 0.0
C70 C 0.25269 0.82518 0.72021 0.0
C71 C 0.24378 0.84644 0.73196 0.0
C72 C 0.72095 0.23717 0.86978 0.0
C73 C 0.69554 0.23207 0.87005 0.0
C74 C 0.67949 0.24743 0.85674 0.0
C75 C 0.68863 0.26746 0.84335 0.0
H76 H 0.67235 0.31084 0.78225 0.0
H77 H 0.64852 0.32858 0.74845 0.0
H78 H 0.70787 0.37965 0.73349 0.0
H79 H 0.73185 0.36185 0.76697 0.0
H80 H 0.77638 0.36584 0.80345 0.0
H81 H 0.81252 0.38792 0.81862 0.0
H82 H 0.82018 0.33499 0.87763 0.0
H83 H 0.78387 0.31304 0.86279 0.0
H84 H 0.74974 0.26114 0.85704 0.0
H85 H 0.73368 0.22561 0.87994 0.0
H86 H 0.65983 0.24376 0.85649 0.0
H87 H 0.67574 0.27893 0.83329 0.0
N88 N 0.71025 0.30424 0.81063 0.0
N89 N 0.74044 0.3347 0.80491 0.0
N90 N 0.74531 0.30512 0.83607 0.0
C91 C 0.71865 0.32426 0.79809 0.0
C92 C 0.75387 0.32531 0.8239 0.0
C93 C 0.72352 0.29448 0.82955 0.0
C94 C 0.70409 0.33487 0.77742 0.0
C95 C 0.68039 0.32581 0.77174 0.0
C96 C 0.66664 0.33605 0.75243 0.0
C97 C 0.6763 0.35549 0.73824 0.0
C98 C 0.70001 0.36447 0.74384 0.0
C99 C 0.71371 0.35433 0.76319 0.0
C100 C 0.77699 0.33772 0.83199 0.0
C101 C 0.78581 0.35876 0.81958 0.0
C102 C 0.80666 0.37138 0.82818 0.0
C103 C 0.81914 0.36331 0.84943 0.0
C104 C 0.81075 0.3419 0.86143 0.0
C105 C 0.78996 0.32924 0.85281 0.0
C106 C 0.71401 0.27286 0.84333 0.0
C107 C 0.73008 0.25754 0.85676 0.0
C108 C 0.73002 0.70184 0.35179 0.0
C109 C 0.71932 0.68227 0.33853 0.0
C110 C 0.72892 0.67649 0.31522 0.0
C111 C 0.74887 0.68971 0.30556 0.0
H112 H 0.7983 0.68899 0.24888 0.0
H113 H 0.82009 0.67204 0.21376 0.0
H114 H 0.87916 0.72449 0.22484 0.0
H115 H 0.85709 0.74194 0.25966 0.0
H116 H 0.84919 0.7848 0.29839 0.0
H117 H 0.86572 0.82036 0.32008 0.0
H118 H 0.80977 0.81209 0.37598 0.0
H119 H 0.79336 0.77619 0.35454 0.0
H120 H 0.75778 0.7299 0.35298 0.0
H121 H 0.72341 0.70659 0.36996 0.0
H122 H 0.72093 0.66179 0.30432 0.0
H123 H 0.75578 0.68463 0.28758 0.0
N124 N 0.79287 0.71457 0.28834 0.0
N125 N 0.82162 0.7468 0.29117 0.0
N126 N 0.79017 0.74311 0.32055 0.0
C127 C 0.81304 0.72645 0.27933 0.0
C128 C 0.81025 0.75532 0.31175 0.0
C129 C 0.78132 0.72274 0.30893 0.0
C130 C 0.82594 0.71679 0.25727 0.0
C131 C 0.81588 0.69703 0.24383 0.0
C132 C 0.82846 0.68719 0.22371 0.0
C133 C 0.85149 0.69676 0.21654 0.0
C134 C 0.86135 0.71683 0.22966 0.0
C135 C 0.84872 0.72675 0.24976 0.0
C136 C 0.81993 0.77747 0.32468 0.0
C137 C 0.8403 0.79052 0.31526 0.0
C138 C 0.84971 0.81108 0.32762 0.0
C139 C 0.83905 0.81914 0.34975 0.0
C140 C 0.81858 0.80623 0.35911 0.0
C141 C 0.8091 0.78568 0.34671 0.0
C142 C 0.75969 0.70915 0.31891 0.0
C143 C 0.74989 0.71515 0.34208 0.0
C144 C 0.84275 0.9737 0.91901 0.0
C145 C 0.82814 0.96524 0.93868 0.0
C146 C 0.83635 0.94489 0.95247 0.0
C147 C 0.8583 0.93296 0.94646 0.0
H148 H 0.90446 0.87713 0.96909 0.0
H149 H 0.91398 0.83858 0.99019 0.0
H150 H 0.96372 0.819 0.93153 0.0
H151 H 0.95421 0.8574 0.91029 0.0
H152 H 0.96098 0.89357 0.86459 0.0
H153 H 0.98067 0.90456 0.82577 0.0
H154 H 0.94532 0.97572 0.82775 0.0
H155 H 0.92505 0.96447 0.86604 0.0
H156 H 0.87533 0.9686 0.8975 0.0
H157 H 0.83715 0.98952 0.9082 0.0
H158 H 0.82542 0.93763 0.96752 0.0
H159 H 0.86371 0.91707 0.95728 0.0
N160 N 0.90201 0.90676 0.93169 0.0
N161 N 0.93435 0.90025 0.9039 0.0
N162 N 0.90806 0.9341 0.89877 0.0
C163 C 0.92166 0.8932 0.92433 0.0
C164 C 0.92777 0.92078 0.8911 0.0
C165 C 0.89505 0.92722 0.91903 0.0
C166 C 0.92844 0.87038 0.93786 0.0
C167 C 0.91751 0.86468 0.96069 0.0
C168 C 0.92306 0.84265 0.97289 0.0
C169 C 0.93947 0.8257 0.96245 0.0
C170 C 0.95074 0.83156 0.93988 0.0
C171 C 0.94538 0.85367 0.92778 0.0
C172 C 0.9412 0.92803 0.86838 0.0
C173 C 0.95751 0.91162 0.85683 0.0
C174 C 0.96893 0.91798 0.83459 0.0
C175 C 0.96446 0.94097 0.82344 0.0
C176 C 0.94878 0.95765 0.83546 0.0
C177 C 0.93723 0.95122 0.85755 0.0
C178 C 0.87264 0.94102 0.92643 0.0
C179 C 0.86474 0.96175 0.91297 0.0
C180 C 0.59656 0.09211 0.32341 0.0
C181 C 0.57784 0.1077 0.31454 0.0
C182 C 0.57177 0.12874 0.32819 0.0
C183 C 0.58432 0.13427 0.35001 0.0
H184 H 0.58987 0.18723 0.40054 0.0
H185 H 0.5807 0.2263 0.41994 0.0
H186 H 0.63442 0.2112 0.47682 0.0
H187 H 0.64368 0.17167 0.45747 0.0
H188 H 0.67171 0.11823 0.45528 0.0
H189 H 0.70828 0.09579 0.46812 0.0
H190 H 0.71257 0.06225 0.39612 0.0
H191 H 0.67535 0.08396 0.38363 0.0
H192 H 0.62371 0.08543 0.35134 0.0
H193 H 0.60187 0.07588 0.31318 0.0
H194 H 0.55724 0.14095 0.32203 0.0
H195 H 0.57915 0.15076 0.35989 0.0
N196 N 0.6112 0.14613 0.3941 0.0
N197 N 0.64282 0.13861 0.42258 0.0
N198 N 0.63632 0.11146 0.38953 0.0
C199 C 0.62385 0.15288 0.41463 0.0
C200 C 0.64918 0.11785 0.41014 0.0
C201 C 0.61717 0.12547 0.38148 0.0
C202 C 0.61765 0.17624 0.42732 0.0
C203 C 0.59976 0.19205 0.41721 0.0
C204 C 0.59459 0.2146 0.42824 0.0
C205 C 0.60704 0.22196 0.44974 0.0
C206 C 0.62451 0.20599 0.46027 0.0
C207 C 0.62984 0.18339 0.44912 0.0
C208 C 0.67065 0.10306 0.41836 0.0
C209 C 0.68035 0.10595 0.44222 0.0
C210 C 0.70146 0.09315 0.44954 0.0
C211 C 0.71367 0.07737 0.4331 0.0
C212 C 0.70358 0.074 0.40942 0.0
C213 C 0.68226 0.08659 0.40218 0.0
C214 C 0.60334 0.11894 0.35873 0.0
C215 C 0.60919 0.09768 0.34524 0.0
C216 C 0.34632 0.57097 0.11806 0.0
C217 C 0.33687 0.57279 0.09395 0.0
C218 C 0.35048 0.58609 0.0763 0.0
C219 C 0.37245 0.59799 0.08278 0.0
H220 H 0.40696 0.6665 0.07025 0.0
H221 H 0.41905 0.70343 0.04785 0.0
H222 H 0.48933 0.70341 0.08566 0.0
H223 H 0.47683 0.66704 0.10878 0.0
H224 H 0.47391 0.64385 0.165 0.0
H225 H 0.49329 0.63531 0.20472 0.0
H226 H 0.44648 0.57144 0.21376 0.0
H227 H 0.42728 0.57968 0.17406 0.0
H228 H 0.37492 0.58126 0.14333 0.0
H229 H 0.33625 0.56119 0.13226 0.0
H230 H 0.34413 0.58745 0.05742 0.0
H231 H 0.38222 0.60834 0.06876 0.0
N232 N 0.41245 0.62928 0.09987 0.0
N233 N 0.4445 0.63689 0.12799 0.0
N234 N 0.41614 0.60504 0.13549 0.0
C235 C 0.43262 0.64259 0.10663 0.0
C236 C 0.4364 0.61811 0.14252 0.0
C237 C 0.40413 0.61043 0.11415 0.0
C238 C 0.44082 0.6639 0.09152 0.0
C239 C 0.42507 0.67426 0.07368 0.0
C240 C 0.43208 0.69542 0.06068 0.0
C241 C 0.45513 0.70661 0.065 0.0
C242 C 0.47122 0.69567 0.08221 0.0
C243 C 0.4641 0.67469 0.09541 0.0
C244 C 0.44894 0.6125 0.16626 0.0
C245 C 0.46782 0.62789 0.17535 0.0
C246 C 0.47887 0.62309 0.1982 0.0
C247 C 0.47144 0.60271 0.2124 0.0
C248 C 0.45286 0.58712 0.20314 0.0
C249 C 0.44172 0.59197 0.1804 0.0
C250 C 0.38157 0.59664 0.107 0.0
C251 C 0.36848 0.58264 0.12447 0.0
C252 C 0.11821 0.33656 0.56817 0.0
C253 C 0.09499 0.32567 0.57222 0.0
C254 C 0.07887 0.33685 0.58908 0.0
C255 C 0.08623 0.35758 0.60243 0.0
H256 H 0.0684 0.39898 0.66655 0.0
H257 H 0.05005 0.40503 0.70737 0.0
H258 H 0.11812 0.43755 0.73306 0.0
H259 H 0.13633 0.43196 0.69255 0.0
H260 H 0.17 0.45631 0.6505 0.0
H261 H 0.20799 0.47825 0.64099 0.0
H262 H 0.21561 0.43586 0.57425 0.0
H263 H 0.17735 0.41414 0.58343 0.0
H264 H 0.14378 0.36492 0.57829 0.0
H265 H 0.13122 0.32838 0.55553 0.0
H266 H 0.06061 0.32936 0.59226 0.0
H267 H 0.07352 0.36532 0.61566 0.0
N268 N 0.10673 0.39327 0.63651 0.0
N269 N 0.13602 0.42377 0.64565 0.0
N270 N 0.139 0.40149 0.60888 0.0
C271 C 0.11549 0.41088 0.652 0.0
C272 C 0.14781 0.41937 0.62408 0.0
C273 C 0.11842 0.38842 0.61492 0.0
C274 C 0.10383 0.41499 0.67629 0.0
C275 C 0.07941 0.40746 0.68092 0.0
C276 C 0.06888 0.41095 0.70419 0.0
C277 C 0.08278 0.42152 0.72334 0.0
C278 C 0.10711 0.42907 0.71868 0.0
C279 C 0.11746 0.42603 0.6954 0.0
C280 C 0.17056 0.43332 0.61779 0.0
C281 C 0.17966 0.45167 0.63372 0.0
C282 C 0.20154 0.46423 0.62834 0.0
C283 C 0.21489 0.45878 0.60691 0.0
C284 C 0.20563 0.44073 0.59077 0.0
C285 C 0.18373 0.42815 0.59614 0.0
C286 C 0.10979 0.3679 0.59906 0.0
C287 C 0.12548 0.3575 0.58135 0.0
Zn288 Zn 0.98323 0.0533 0.54911 0.0
Zn289 Zn 0.04031 0.99844 0.49529 0.0
Zn290 Zn 0.01187 0.02609 0.52203 0.0
C291 C 0.05089 0.04667 0.48183 0.0
C292 C 0.99232 0.98473 0.48376 0.0
O293 O 0.01576 0.01422 0.56119 0.0
O294 O 0.98475 0.03311 0.57955 0.0
C295 C 0.01915 0.08445 0.53021 0.0
O296 O 0.03716 0.05066 0.50077 0.0
O297 O 0.05369 0.02502 0.47391 0.0
O298 O 0.01404 0.97668 0.48179 0.0
O299 O 0.98803 0.00409 0.49677 0.0
O300 O 0.00348 0.08372 0.54734 0.0
O301 O 0.02375 0.06503 0.51742 0.0
O302 O 0.97321 0.02115 0.509 0.0
O303 O 0.95332 0.05102 0.52817 0.0
C304 C 0.95343 0.03369 0.51273 0.0
O305 O 0.03311 0.00152 0.54715 0.0
O306 O 0.06134 0.98572 0.5225 0.0
C307 C 0.00244 0.01811 0.58044 0.0
C308 C 0.05257 0.98835 0.54385 0.0
Zn309 Zn 0.5005 0.03636 0.98945 0.0
Zn310 Zn 0.5524 0.97974 0.05397 0.0
Zn311 Zn 0.5265 0.00807 0.02218 0.0
C312 C 0.58607 0.00299 0.02181 0.0
C313 C 0.5211 0.94859 0.02736 0.0
O314 O 0.50317 0.033 0.04392 0.0
O315 O 0.48314 0.05518 0.016 0.0
C316 C 0.5506 0.04506 0.98109 0.0
O317 O 0.566 0.01224 0.01303 0.0
O318 O 0.58535 0.98836 0.03995 0.0
O319 O 0.5363 0.9481 0.04501 0.0
O320 O 0.51568 0.96905 0.01659 0.0
O321 O 0.52963 0.05116 0.97302 0.0
O322 O 0.55265 0.0294 0.99888 0.0
O323 O 0.50197 0.98371 1.00034 0.0
O324 O 0.48376 0.00805 0.97299 0.0
C325 C 0.48722 0.98683 0.98193 0.0
O326 O 0.51947 0.0211 0.06034 0.0
O327 O 0.54145 0.99643 0.08431 0.0
C328 C 0.4874 0.04983 0.0383 0.0
C329 C 0.52701 0.01447 0.08191 0.0
Zn330 Zn 0.53891 0.54639 0.54162 0.0
Zn331 Zn 0.48286 0.48617 0.48655 0.0
Zn332 Zn 0.51118 0.51531 0.51436 0.0
C333 C 0.51587 0.45594 0.51239 0.0
C334 C 0.50687 0.51809 0.45438 0.0
O335 O 0.48645 0.53758 0.53797 0.0
O336 O 0.51115 0.5619 0.55966 0.0
C337 C 0.55294 0.49763 0.55341 0.0
O338 O 0.52362 0.47689 0.5205 0.0
O339 O 0.49773 0.45482 0.49781 0.0
O340 O 0.49244 0.4998 0.45402 0.0
O341 O 0.5156 0.52608 0.47503 0.0
O342 O 0.55793 0.51985 0.55826 0.0
O343 O 0.5362 0.49233 0.53731 0.0
O344 O 0.53299 0.53922 0.4893 0.0
O345 O 0.55429 0.5643 0.51354 0.0
C346 C 0.54875 0.55684 0.4922 0.0
O347 O 0.4721 0.5195 0.52598 0.0
O348 O 0.45068 0.49576 0.50056 0.0
C349 C 0.48966 0.55472 0.5541 0.0
C350 C 0.45134 0.51045 0.51854 0.0
Zn351 Zn 0.06007 0.56128 0.98733 0.0
Zn352 Zn 0.00636 0.50052 0.0436 0.0
Zn353 Zn 0.03346 0.53106 0.01566 0.0
C354 C 0.05565 0.49131 0.05488 0.0
C355 C 0.99477 0.49046 0.99434 0.0
O356 O 0.02008 0.56961 0.02072 0.0
O357 O 0.04037 0.5912 0.99259 0.0
C358 C 0.09203 0.53986 0.02191 0.0
O359 O 0.05867 0.5102 0.04072 0.0
O360 O 0.03441 0.48233 0.05819 0.0
O361 O 0.98814 0.48474 0.01591 0.0
O362 O 0.01196 0.50658 0.99094 0.0
O363 O 0.09134 0.55699 0.00615 0.0
O364 O 0.07245 0.5274 0.02713 0.0
O365 O 0.03008 0.51851 0.97695 0.0
O366 O 0.05501 0.54317 0.95601 0.0
C367 C 0.04038 0.52504 0.95656 0.0
O368 O 0.00741 0.55385 0.03687 0.0
O369 O 0.99042 0.52735 0.06297 0.0
C370 C 0.02437 0.59008 0.00936 0.0
C371 C 0.99297 0.54914 0.05512 0.0
H372 H 0.13866 0.19411 0.32381 0.0
H373 H 0.11614 0.17366 0.35702 0.0
H374 H 0.18458 0.1602 0.39537 0.0
H375 H 0.20727 0.18064 0.36214 0.0
H376 H 0.15765 0.11892 0.39048 0.0
H377 H 0.09779 0.1926 0.42677 0.0
H378 H 0.09502 0.18937 0.39399 0.0
H379 H 0.12398 0.19894 0.40723 0.0
C380 C 0.14889 0.18732 0.33957 0.0
C381 C 0.17479 0.18898 0.34027 0.0
C382 C 0.13596 0.17569 0.35863 0.0
C383 C 0.1486 0.1657 0.37892 0.0
C384 C 0.1744 0.16788 0.37997 0.0
H385 H 0.07537 0.08647 0.50134 0.0
H386 H 0.09938 0.11769 0.47861 0.0
C387 C 0.18736 0.17943 0.36089 0.0
C388 C 0.1352 0.15075 0.39761 0.0
H389 H 0.08567 0.15091 0.43652 0.0
C390 C 0.14216 0.12607 0.40079 0.0
C391 C 0.11512 0.16008 0.41133 0.0
C392 C 0.10768 0.18678 0.40987 0.0
C393 C 0.12892 0.11021 0.41636 0.0
C394 C 0.10792 0.11912 0.42883 0.0
C395 C 0.10161 0.14407 0.42668 0.0
C396 C 0.09153 0.10219 0.44271 0.0
C397 C 0.13727 0.08385 0.419 0.0
C398 C 0.07867 0.0837 0.43001 0.0
C399 C 0.06488 0.06618 0.44286 0.0
C400 C 0.06342 0.06696 0.46867 0.0
C401 C 0.07572 0.08587 0.48141 0.0
C402 C 0.08955 0.10354 0.46848 0.0
H403 H 0.15693 0.08165 0.41373 0.0
H404 H 0.13486 0.07721 0.43822 0.0
H405 H 0.12597 0.07198 0.40673 0.0
H406 H 0.07976 0.0825 0.41012 0.0
H407 H 0.05562 0.05175 0.4326 0.0
H408 H 0.3748 0.81401 0.85652 0.0
H409 H 0.39857 0.83228 0.89039 0.0
H410 H 0.37435 0.90457 0.8682 0.0
H411 H 0.35091 0.88662 0.83426 0.0
H412 H 0.43677 0.86617 0.8876 0.0
H413 H 0.35991 0.90435 0.94199 0.0
H414 H 0.35526 0.88141 0.91836 0.0
H415 H 0.35816 0.91346 0.91023 0.0
C416 C 0.37455 0.8338 0.85884 0.0
C417 C 0.36079 0.84882 0.84271 0.0
C418 C 0.38802 0.84419 0.8783 0.0
C419 C 0.38783 0.86974 0.88214 0.0
C420 C 0.3742 0.88474 0.86604 0.0
H421 H 0.48358 0.97793 0.93319 0.0
H422 H 0.46102 0.94465 0.91277 0.0
C423 C 0.3608 0.87443 0.84661 0.0
C424 C 0.40298 0.88112 0.90193 0.0
H425 H 0.39996 0.92298 0.94866 0.0
C426 C 0.42869 0.8782 0.90127 0.0
C427 C 0.39245 0.89641 0.92014 0.0
C428 C 0.3649 0.8989 0.92293 0.0
C429 C 0.44419 0.89168 0.91708 0.0
C430 C 0.43371 0.90868 0.93369 0.0
C431 C 0.40798 0.91015 0.93569 0.0
C432 C 0.44901 0.92728 0.94662 0.0
C433 C 0.47172 0.88826 0.91537 0.0
C434 C 0.44951 0.92871 0.97246 0.0
C435 C 0.46259 0.94769 0.98419 0.0
C436 C 0.47492 0.96566 0.97017 0.0
C437 C 0.47433 0.96417 0.94437 0.0
C438 C 0.46162 0.9451 0.93272 0.0
H439 H 0.47641 0.86993 0.90768 0.0
H440 H 0.47952 0.90255 0.90295 0.0
H441 H 0.48062 0.89022 0.93373 0.0
H442 H 0.43951 0.91541 0.98351 0.0
H443 H 0.46241 0.9488 0.0041 0.0
H444 H 0.69234 0.36892 0.69236 0.0
H445 H 0.66889 0.38951 0.65973 0.0
H446 H 0.60374 0.38748 0.70503 0.0
H447 H 0.62719 0.3673 0.73801 0.0
H448 H 0.62402 0.37435 0.6347 0.0
H449 H 0.61375 0.46147 0.68738 0.0
H450 H 0.63595 0.4382 0.69579 0.0
H451 H 0.60389 0.43377 0.70274 0.0
C452 C 0.67304 0.37293 0.69543 0.0
C453 C 0.66169 0.36667 0.71787 0.0
C454 C 0.65964 0.38452 0.6767 0.0
C455 C 0.63467 0.39023 0.68009 0.0
C456 C 0.62307 0.38345 0.70218 0.0
H457 H 0.5357 0.45183 0.56686 0.0
H458 H 0.55484 0.42327 0.59633 0.0
C459 C 0.63645 0.37176 0.72091 0.0
C460 C 0.62112 0.40399 0.66074 0.0
H461 H 0.59523 0.45984 0.64813 0.0
C462 C 0.61758 0.393 0.63762 0.0
C463 C 0.6129 0.42835 0.66463 0.0
C464 C 0.61691 0.44132 0.68889 0.0
C465 C 0.60622 0.40585 0.61817 0.0
C466 C 0.59812 0.43024 0.622 0.0
C467 C 0.6014 0.44109 0.64525 0.0
C468 C 0.58758 0.44555 0.60189 0.0
C469 C 0.60349 0.39349 0.59352 0.0
C470 C 0.59979 0.46725 0.5949 0.0
C471 C 0.589 0.48341 0.57805 0.0
C472 C 0.56572 0.47826 0.56778 0.0
C473 C 0.5539 0.45601 0.57397 0.0
C474 C 0.56475 0.43976 0.59094 0.0
H475 H 0.61497 0.37665 0.59216 0.0
H476 H 0.5839 0.38811 0.59089 0.0
H477 H 0.60865 0.40629 0.57838 0.0
H478 H 0.61743 0.47205 0.60305 0.0
H479 H 0.59859 0.50039 0.57364 0.0
H480 H 0.879 0.71971 0.18059 0.0
H481 H 0.90274 0.70034 0.14756 0.0
H482 H 0.87944 0.62869 0.17299 0.0
H483 H 0.85607 0.64773 0.20614 0.0
H484 H 0.94135 0.6666 0.15204 0.0
H485 H 0.86382 0.62624 0.0991 0.0
H486 H 0.85951 0.65012 0.12177 0.0
H487 H 0.86256 0.61849 0.13124 0.0
C488 C 0.87896 0.69982 0.17918 0.0
C489 C 0.86546 0.68529 0.19596 0.0
C490 C 0.89242 0.68881 0.1602 0.0
C491 C 0.89246 0.66311 0.15753 0.0
C492 C 0.87913 0.64859 0.17429 0.0
H493 H 0.9898 0.55615 0.10422 0.0
H494 H 0.96645 0.58777 0.12601 0.0
C495 C 0.86575 0.65953 0.19325 0.0
C496 C 0.90742 0.65115 0.13813 0.0
H497 H 0.90388 0.60859 0.09203 0.0
C498 C 0.93314 0.65425 0.13863 0.0
C499 C 0.89668 0.63539 0.12033 0.0
C500 C 0.8691 0.63253 0.11786 0.0
C501 C 0.94846 0.64073 0.12289 0.0
C502 C 0.93779 0.62351 0.10649 0.0
C503 C 0.91204 0.62162 0.10483 0.0
C504 C 0.95302 0.60554 0.09287 0.0
C505 C 0.97601 0.64448 0.12434 0.0
C506 C 0.95286 0.60481 0.067 0.0
C507 C 0.96627 0.58671 0.05452 0.0
C508 C 0.9798 0.56908 0.06779 0.0
C509 C 0.9797 0.56973 0.09362 0.0
C510 C 0.96653 0.58786 0.10605 0.0
H511 H 0.98076 0.66278 0.13217 0.0
H512 H 0.9841 0.63015 0.13649 0.0
H513 H 0.98458 0.64284 0.10586 0.0
H514 H 0.94229 0.61812 0.05652 0.0
H515 H 0.96567 0.58618 0.03458 0.0
H516 H 0.30443 0.13827 0.15565 0.0
H517 H 0.33603 0.11428 0.13446 0.0
H518 H 0.39284 0.15523 0.17258 0.0
H519 H 0.36108 0.17819 0.19482 0.0
H520 H 0.36738 0.12889 0.10318 0.0
H521 H 0.421 0.08858 0.18 0.0
H522 H 0.39178 0.10357 0.18476 0.0
H523 H 0.41973 0.12146 0.18225 0.0
C524 C 0.32369 0.14178 0.15975 0.0
C525 C 0.33041 0.15993 0.17687 0.0
C526 C 0.34176 0.12812 0.14765 0.0
C527 C 0.36695 0.13261 0.15209 0.0
C528 C 0.37363 0.15077 0.16934 0.0
H529 H 0.47505 0.09815 0.03981 0.0
H530 H 0.44772 0.11844 0.06916 0.0
C531 C 0.35551 0.16406 0.18188 0.0
C532 C 0.38596 0.11973 0.13713 0.0
H533 H 0.44018 0.08781 0.14022 0.0
C534 C 0.38315 0.11973 0.11139 0.0
C535 C 0.40649 0.10745 0.14769 0.0
C536 C 0.4098 0.10501 0.1752 0.0
C537 C 0.40021 0.10811 0.09598 0.0
C538 C 0.42146 0.09707 0.10642 0.0
C539 C 0.42415 0.09666 0.13217 0.0
C540 C 0.44074 0.08559 0.09078 0.0
C541 C 0.39483 0.1073 0.06866 0.0
C542 C 0.44732 0.06078 0.09416 0.0
C543 C 0.46349 0.04932 0.07771 0.0
C544 C 0.4732 0.06248 0.05763 0.0
C545 C 0.46755 0.08755 0.055 0.0
C546 C 0.45181 0.09909 0.07165 0.0
H547 H 0.37479 0.10928 0.06482 0.0
H548 H 0.40448 0.12282 0.05943 0.0
H549 H 0.40121 0.08978 0.06037 0.0
H550 H 0.43922 0.05003 0.10891 0.0
H551 H 0.46752 0.02993 0.08008 0.0
H552 H 0.16822 0.83248 0.68127 0.0
H553 H 0.13623 0.85547 0.65921 0.0
H554 H 0.17472 0.9234 0.67428 0.0
H555 H 0.20691 0.90059 0.69616 0.0
H556 H 0.12092 0.92566 0.67883 0.0
H557 H 0.15316 0.88509 0.59058 0.0
H558 H 0.14515 0.86351 0.61444 0.0
H559 H 0.17121 0.88362 0.61852 0.0
C560 C 0.16985 0.85232 0.67997 0.0
C561 C 0.1903 0.86466 0.69024 0.0
C562 C 0.15149 0.86542 0.66747 0.0
C563 C 0.15326 0.89109 0.6649 0.0
C564 C 0.17298 0.90359 0.67612 0.0
H565 H 0.10168 0.98631 0.55149 0.0
H566 H 0.12381 0.96314 0.58319 0.0
C567 C 0.19135 0.89052 0.68865 0.0
C568 C 0.13584 0.90468 0.64879 0.0
H569 H 0.1198 0.91243 0.58844 0.0
C570 C 0.12048 0.9227 0.65908 0.0
C571 C 0.13551 0.90086 0.62303 0.0
C572 C 0.15223 0.88238 0.61085 0.0
C573 C 0.10496 0.93722 0.64416 0.0
C574 C 0.10487 0.93351 0.61837 0.0
C575 C 0.1199 0.91518 0.60823 0.0
C576 C 0.09088 0.94951 0.60114 0.0
C577 C 0.08948 0.95697 0.6559 0.0
C578 C 0.06495 0.94978 0.60087 0.0
C579 C 0.05225 0.96312 0.58269 0.0
C580 C 0.06532 0.97635 0.56467 0.0
C581 C 0.09119 0.97636 0.56529 0.0
C582 C 0.10383 0.96316 0.58338 0.0
H583 H 0.09478 0.96027 0.6754 0.0
H584 H 0.09121 0.97453 0.6455 0.0
H585 H 0.06979 0.9513 0.65543 0.0
H586 H 0.05458 0.939 0.6141 0.0
H587 H 0.03229 0.96233 0.58215 0.0
H588 H 0.85758 0.38508 0.82451 0.0
H589 H 0.89144 0.40973 0.84192 0.0
H590 H 0.8619 0.39871 0.91479 0.0
H591 H 0.8279 0.37458 0.89762 0.0
H592 H 0.8744 0.44915 0.90185 0.0
H593 H 0.95045 0.38279 0.88413 0.0
H594 H 0.93048 0.39086 0.85883 0.0
H595 H 0.91846 0.3734 0.8842 0.0
C596 C 0.8583 0.38798 0.84424 0.0
C597 C 0.84013 0.37774 0.85971 0.0
C598 C 0.87773 0.4019 0.85414 0.0
C599 C 0.87925 0.40584 0.87964 0.0
C600 C 0.86109 0.39578 0.89506 0.0
H601 H 0.97669 0.44396 0.99237 0.0
H602 H 0.95156 0.42548 0.95981 0.0
C603 C 0.84179 0.38182 0.88523 0.0
C604 C 0.89943 0.4207 0.8906 0.0
H605 H 0.96033 0.41838 0.90671 0.0
C606 C 0.8933 0.4427 0.90257 0.0
C607 C 0.92401 0.41213 0.89147 0.0
C608 C 0.93141 0.38845 0.87911 0.0
C609 C 0.91088 0.45584 0.91634 0.0
C610 C 0.93525 0.44677 0.91803 0.0
C611 C 0.94165 0.42533 0.90519 0.0
C612 C 0.95312 0.45731 0.93582 0.0
C613 C 0.90296 0.47854 0.93016 0.0
C614 C 0.96277 0.48116 0.93283 0.0
C615 C 0.97715 0.49181 0.9515 0.0
C616 C 0.9821 0.47868 0.97331 0.0
C617 C 0.97312 0.4545 0.97577 0.0
C618 C 0.95889 0.44389 0.95715 0.0
H619 H 0.88272 0.48154 0.92908 0.0
H620 H 0.90839 0.47709 0.94986 0.0
H621 H 0.91235 0.49494 0.92229 0.0
H622 H 0.95858 0.49177 0.91642 0.0
H623 H 0.98358 0.51059 0.9493 0.0
H624 H 0.71155 0.63236 0.3359 0.0
H625 H 0.67843 0.60832 0.35485 0.0
H626 H 0.64796 0.6747 0.38556 0.0
H627 H 0.68024 0.699 0.36572 0.0
H628 H 0.66961 0.60313 0.40283 0.0
H629 H 0.58659 0.64254 0.35879 0.0
H630 H 0.61725 0.64805 0.34709 0.0
H631 H 0.60556 0.66604 0.3723 0.0
C632 C 0.69747 0.64195 0.34618 0.0
C633 C 0.6986 0.66768 0.34922 0.0
C634 C 0.67862 0.62813 0.35713 0.0
C635 C 0.66043 0.63971 0.3713 0.0
C636 C 0.66139 0.66538 0.37422 0.0
H637 H 0.56202 0.6047 0.48647 0.0
H638 H 0.58717 0.62266 0.45356 0.0
C639 C 0.68014 0.67923 0.36318 0.0
C640 C 0.64171 0.62485 0.38474 0.0
H641 H 0.58004 0.62076 0.39713 0.0
C642 C 0.64999 0.60666 0.40122 0.0
C643 C 0.61608 0.62935 0.38256 0.0
C644 C 0.60583 0.64738 0.36402 0.0
C645 C 0.6335 0.59384 0.4165 0.0
C646 C 0.60806 0.59928 0.4152 0.0
C647 C 0.5996 0.61674 0.3981 0.0
C648 C 0.59048 0.5887 0.43316 0.0
C649 C 0.64343 0.57537 0.43479 0.0
C650 C 0.58364 0.56376 0.43223 0.0
C651 C 0.56923 0.55346 0.45101 0.0
C652 C 0.56144 0.56801 0.47088 0.0
C653 C 0.56774 0.59311 0.47132 0.0
C654 C 0.58199 0.6034 0.45252 0.0
H655 H 0.66391 0.57493 0.43504 0.0
H656 H 0.63678 0.57974 0.45361 0.0
H657 H 0.63653 0.55671 0.43001 0.0
H658 H 0.59004 0.55215 0.41738 0.0
H659 H 0.56489 0.53398 0.45044 0.0
H660 H 0.18779 0.32306 0.13486 0.0
H661 H 0.17016 0.35871 0.11383 0.0
H662 H 0.17814 0.4017 0.18011 0.0
H663 H 0.19564 0.36592 0.20138 0.0
H664 H 0.13294 0.40586 0.16137 0.0
H665 H 0.19966 0.4209 0.08609 0.0
H666 H 0.18891 0.38964 0.0866 0.0
H667 H 0.20643 0.40145 0.11228 0.0
C668 C 0.18625 0.34023 0.14484 0.0
C669 C 0.19316 0.34164 0.1698 0.0
C670 C 0.17627 0.36067 0.13274 0.0
C671 C 0.17327 0.3831 0.1452 0.0
C672 C 0.18044 0.38466 0.17005 0.0
H673 H 0.09474 0.51163 0.08016 0.0
H674 H 0.12721 0.48909 0.10278 0.0
C675 C 0.1903 0.36416 0.18222 0.0
C676 C 0.16053 0.40404 0.13294 0.0
H677 H 0.15862 0.43751 0.07948 0.0
C678 C 0.13892 0.41318 0.14375 0.0
C679 C 0.16837 0.41381 0.11 0.0
C680 C 0.19227 0.40611 0.09822 0.0
C681 C 0.12416 0.43054 0.13153 0.0
C682 C 0.1311 0.4389 0.10789 0.0
C683 C 0.15335 0.43093 0.09762 0.0
C684 C 0.11364 0.45304 0.09246 0.0
C685 C 0.10049 0.43894 0.14331 0.0
C686 C 0.09568 0.44017 0.07905 0.0
C687 C 0.07736 0.45286 0.06629 0.0
C688 C 0.07677 0.47871 0.06648 0.0
C689 C 0.09513 0.49171 0.07939 0.0
C690 C 0.11354 0.47891 0.09233 0.0
H691 H 0.09914 0.43309 0.16289 0.0
H692 H 0.09906 0.45932 0.14231 0.0
H693 H 0.08457 0.4311 0.13304 0.0
H694 H 0.09544 0.42021 0.07906 0.0
H695 H 0.06334 0.44243 0.05654 0.0
H696 H 0.71021 0.18399 0.86793 0.0
H697 H 0.69055 0.14831 0.88783 0.0
H698 H 0.63952 0.19683 0.92423 0.0
H699 H 0.6585 0.23228 0.90371 0.0
H700 H 0.68145 0.13303 0.93492 0.0
H701 H 0.59344 0.15234 0.88682 0.0
H702 H 0.62169 0.16817 0.87922 0.0
H703 H 0.60347 0.17795 0.90509 0.0
C704 C 0.69492 0.18696 0.88035 0.0
C705 C 0.68557 0.21078 0.88401 0.0
C706 C 0.68373 0.16662 0.89172 0.0
C707 C 0.66317 0.16984 0.90705 0.0
C708 C 0.65488 0.19381 0.9119 0.0
H709 H 0.58893 0.06737 0.00503 0.0
H710 H 0.61983 0.09483 0.98655 0.0
C711 C 0.66576 0.21405 0.90025 0.0
C712 C 0.64945 0.14822 0.91689 0.0
H713 H 0.59179 0.12318 0.91947 0.0
C714 C 0.66188 0.1307 0.9314 0.0
C715 C 0.62405 0.14485 0.91182 0.0
C716 C 0.60995 0.16167 0.89467 0.0
C717 C 0.64936 0.11031 0.94159 0.0
C718 C 0.62364 0.10779 0.93765 0.0
C719 C 0.61146 0.12507 0.92267 0.0
C720 C 0.60851 0.08778 0.94886 0.0
C721 C 0.66388 0.09161 0.95617 0.0
C722 C 0.59204 0.07439 0.93396 0.0
C723 C 0.574 0.0594 0.94454 0.0
C724 C 0.57243 0.057 0.97021 0.0
C725 C 0.58999 0.06883 0.98515 0.0
C726 C 0.60775 0.08437 0.97456 0.0
H727 H 0.68354 0.09137 0.95046 0.0
H728 H 0.66333 0.09659 0.97597 0.0
H729 H 0.65611 0.07278 0.95402 0.0
H730 H 0.59228 0.07657 0.91411 0.0
H731 H 0.56065 0.05037 0.93268 0.0
H732 H 0.84658 0.82366 0.39947 0.0
H733 H 0.8671 0.85731 0.42132 0.0
H734 H 0.87671 0.89636 0.35272 0.0
H735 H 0.85611 0.86278 0.33071 0.0
H736 H 0.91943 0.89207 0.37828 0.0
H737 H 0.84661 0.92673 0.4403 0.0
H738 H 0.8506 0.89401 0.44265 0.0
H739 H 0.83993 0.90727 0.41415 0.0
C740 C 0.85255 0.83965 0.38908 0.0
C741 C 0.84975 0.84048 0.36331 0.0
C742 C 0.86421 0.85894 0.40163 0.0
C743 C 0.87313 0.87955 0.38873 0.0
C744 C 0.86987 0.88069 0.36308 0.0
H745 H 0.95239 0.0036 0.45903 0.0
H746 H 0.92104 0.98037 0.43569 0.0
C747 C 0.85824 0.86141 0.35051 0.0
C748 C 0.88806 0.89859 0.40161 0.0
H749 H 0.88844 0.93762 0.45096 0.0
C750 C 0.9125 0.90228 0.39393 0.0
C751 C 0.87898 0.91215 0.42188 0.0
C752 C 0.85251 0.91006 0.43009 0.0
C753 C 0.92841 0.9182 0.40668 0.0
C754 C 0.91979 0.93054 0.42785 0.0
C755 C 0.89505 0.92789 0.43487 0.0
C756 C 0.93689 0.94473 0.44377 0.0
C757 C 0.95455 0.92133 0.39767 0.0
C758 C 0.95567 0.93232 0.45647 0.0
C759 C 0.97323 0.94545 0.46995 0.0
C760 C 0.97223 0.97125 0.47121 0.0
C761 C 0.95309 0.98369 0.45896 0.0
C762 C 0.93537 0.97048 0.44546 0.0
H763 H 0.95643 0.91585 0.37806 0.0
H764 H 0.9608 0.94072 0.39969 0.0
H765 H 0.96696 0.90951 0.40885 0.0
H766 H 0.95702 0.91244 0.45555 0.0
H767 H 0.98782 0.93541 0.4792 0.0
H768 H 0.33232 0.7139 0.63294 0.0
H769 H 0.35136 0.68138 0.60854 0.0
H770 H 0.38449 0.65131 0.67434 0.0
H771 H 0.36455 0.68294 0.69902 0.0
H772 H 0.39922 0.67341 0.60211 0.0
H773 H 0.35812 0.58962 0.64311 0.0
H774 H 0.346 0.61999 0.64884 0.0
H775 H 0.37203 0.60875 0.6662 0.0
C776 C 0.34316 0.70004 0.64234 0.0
C777 C 0.34683 0.70108 0.66802 0.0
C778 C 0.35417 0.68153 0.62831 0.0
C779 C 0.36903 0.66361 0.63961 0.0
C780 C 0.37261 0.66452 0.66523 0.0
H781 H 0.48631 0.56962 0.60154 0.0
H782 H 0.45347 0.59401 0.6203 0.0
C783 C 0.36151 0.68291 0.67929 0.0
C784 C 0.38241 0.6452 0.6245 0.0
H785 H 0.39601 0.5839 0.62048 0.0
C786 C 0.39813 0.65381 0.60581 0.0
C787 C 0.38091 0.61956 0.6292 0.0
C788 C 0.36314 0.60892 0.64776 0.0
C789 C 0.41334 0.63765 0.59267 0.0
C790 C 0.41278 0.61225 0.59834 0.0
C791 C 0.39642 0.60344 0.61629 0.0
C792 C 0.43085 0.59512 0.58744 0.0
C793 C 0.43079 0.64789 0.57359 0.0
C794 C 0.42869 0.58732 0.56289 0.0
C795 C 0.44742 0.5733 0.55215 0.0
C796 C 0.46849 0.56692 0.56587 0.0
C797 C 0.47021 0.57423 0.59061 0.0
C798 C 0.45147 0.58806 0.60135 0.0
H799 H 0.43004 0.6683 0.57242 0.0
H800 H 0.44999 0.6423 0.57797 0.0
H801 H 0.42604 0.64018 0.55525 0.0
H802 H 0.41288 0.59267 0.55188 0.0
H803 H 0.44587 0.56822 0.53292 0.0
H804 H 0.94237 0.96573 0.78541 0.0
H805 H 0.9595 0.97583 0.74516 0.0
H806 H 0.02751 0.93984 0.76476 0.0
H807 H 0.01077 0.93015 0.80565 0.0
H808 H 0.00739 0.00296 0.73544 0.0
H809 H 0.00151 0.9078 0.69742 0.0
H810 H 0.98266 0.91726 0.72307 0.0
H811 H 0.0151 0.91264 0.72739 0.0
C812 C 0.96113 0.96025 0.78144 0.0
C813 C 0.97521 0.94721 0.79893 0.0
C814 C 0.97082 0.96592 0.75832 0.0
C815 C 0.9947 0.95851 0.752 0.0
C816 C 0.00895 0.94555 0.76927 0.0
H817 H 0.04528 0.01562 0.60714 0.0
H818 H 0.05007 0.99873 0.64911 0.0
C819 C 0.99929 0.93995 0.79257 0.0
C820 C 0.0042 0.96439 0.72711 0.0
H821 H 0.01035 0.93985 0.6696 0.0
C822 C 0.00866 0.98914 0.72111 0.0
C823 C 0.00576 0.94624 0.70856 0.0
C824 C 0.00098 0.91945 0.7142 0.0
C825 C 0.01329 0.99643 0.69671 0.0
C826 C 0.01346 0.97845 0.67791 0.0
C827 C 0.01037 0.95353 0.68413 0.0
C828 C 0.01239 0.98567 0.6516 0.0
C829 C 0.01625 0.02347 0.69092 0.0
C830 C 0.98987 0.9834 0.63904 0.0
C831 C 0.98709 0.99314 0.61541 0.0
C832 C 0.00693 0.00493 0.60372 0.0
C833 C 0.02984 0.00632 0.61578 0.0
C834 C 0.03256 0.99676 0.63967 0.0
H835 H 0.01384 0.03523 0.70745 0.0
H836 H 0.03493 0.02688 0.68332 0.0
H837 H 0.00259 0.02914 0.67672 0.0
H838 H 0.97406 0.97506 0.64798 0.0
H839 H 0.96922 0.99205 0.60649 0.0
H840 H 0.56609 0.1402 0.27776 0.0
H841 H 0.5472 0.13114 0.23777 0.0
H842 H 0.54289 0.05421 0.25726 0.0
H843 H 0.56123 0.06319 0.29748 0.0
H844 H 0.56771 0.10037 0.20314 0.0
H845 H 0.47442 0.06731 0.22803 0.0
H846 H 0.49359 0.0848 0.24898 0.0
H847 H 0.49831 0.05223 0.24528 0.0
C848 C 0.56064 0.12143 0.27374 0.0
C849 C 0.56516 0.1024 0.29081 0.0
C850 C 0.54991 0.11629 0.25086 0.0
C851 C 0.54326 0.09208 0.24469 0.0
C852 C 0.54736 0.07311 0.26184 0.0
H853 H 0.5214 0.99644 0.12806 0.0
H854 H 0.51993 0.01982 0.16631 0.0
C855 C 0.55817 0.07821 0.28468 0.0
C856 C 0.53448 0.08614 0.2195 0.0
H857 H 0.48947 0.05514 0.18808 0.0
C858 C 0.55035 0.09097 0.1997 0.0
C859 C 0.51179 0.07399 0.21511 0.0
C860 C 0.49343 0.06949 0.23545 0.0
C861 C 0.54503 0.08236 0.17591 0.0
C862 C 0.52293 0.069 0.17175 0.0
C863 C 0.50636 0.06542 0.19129 0.0
C864 C 0.51872 0.05546 0.14842 0.0
C865 C 0.56394 0.08613 0.15587 0.0
C866 C 0.51739 0.0677 0.1256 0.0
C867 C 0.51847 0.0543 0.1036 0.0
C868 C 0.52055 0.02851 0.10422 0.0
C869 C 0.51992 0.01632 0.12706 0.0
C870 C 0.51896 0.02965 0.14893 0.0
H871 H 0.5817 0.09337 0.16318 0.0
H872 H 0.56759 0.06856 0.14615 0.0
H873 H 0.55678 0.09954 0.14218 0.0
H874 H 0.51682 0.08761 0.12482 0.0
H875 H 0.51923 0.06418 0.08626 0.0
H876 H 0.48154 0.63615 0.24879 0.0
H877 H 0.49653 0.6278 0.29061 0.0
H878 H 0.50017 0.5503 0.27394 0.0
H879 H 0.48577 0.55855 0.23203 0.0
H880 H 0.47203 0.59849 0.32428 0.0
H881 H 0.56595 0.56239 0.30884 0.0
H882 H 0.54932 0.57966 0.28568 0.0
H883 H 0.5432 0.54735 0.29003 0.0
C884 C 0.48608 0.6174 0.25387 0.0
C885 C 0.48242 0.598 0.2371 0.0
C886 C 0.49455 0.61266 0.27779 0.0
C887 C 0.49981 0.58848 0.2853 0.0
C888 C 0.49674 0.56917 0.26842 0.0
H889 H 0.51142 0.49723 0.40935 0.0
H890 H 0.51379 0.51813 0.36951 0.0
C891 C 0.48819 0.57387 0.24456 0.0
C892 C 0.50607 0.58298 0.31136 0.0
H893 H 0.54705 0.5518 0.34763 0.0
C894 C 0.48867 0.58875 0.32953 0.0
C895 C 0.52781 0.57031 0.31813 0.0
C896 C 0.54776 0.56478 0.29967 0.0
C897 C 0.49163 0.58074 0.35397 0.0
C898 C 0.51281 0.567 0.3605 0.0
C899 C 0.53082 0.56232 0.34259 0.0
C900 C 0.515 0.55484 0.3849 0.0
C901 C 0.47129 0.58573 0.37222 0.0
C902 C 0.51567 0.56852 0.40683 0.0
C903 C 0.51408 0.55656 0.42968 0.0
C904 C 0.51225 0.53076 0.43088 0.0
C905 C 0.51285 0.51713 0.40894 0.0
C906 C 0.51432 0.52905 0.38619 0.0
H907 H 0.45434 0.59282 0.36314 0.0
H908 H 0.46648 0.56871 0.38256 0.0
H909 H 0.47769 0.59971 0.38568 0.0
H910 H 0.51651 0.58844 0.40625 0.0
H911 H 0.51322 0.56753 0.44629 0.0
H912 H 0.10247 0.40692 0.76704 0.0
H913 H 0.08845 0.41766 0.8084 0.0
H914 H 0.02608 0.45584 0.77706 0.0
H915 H 0.03975 0.44443 0.73561 0.0
H916 H 0.08699 0.46375 0.8232 0.0
H917 H 0.99412 0.42288 0.83578 0.0
H918 H 0.01476 0.41317 0.81164 0.0
H919 H 0.99664 0.44064 0.80796 0.0
C920 C 0.08547 0.41714 0.76905 0.0
C921 C 0.07224 0.42499 0.74821 0.0
C922 C 0.07743 0.4232 0.79266 0.0
C923 C 0.05611 0.43742 0.79591 0.0
C924 C 0.04224 0.44437 0.77511 0.0
H925 H 0.03831 0.54344 0.91023 0.0
H926 H 0.03854 0.52037 0.87164 0.0
C927 C 0.05014 0.438 0.75143 0.0
C928 C 0.05061 0.44782 0.82056 0.0
H929 H 0.0056 0.45515 0.86395 0.0
C930 C 0.06926 0.46156 0.83218 0.0
C931 C 0.02752 0.44494 0.83238 0.0
C932 C 0.00719 0.4294 0.82142 0.0
C933 C 0.06536 0.47295 0.85491 0.0
C934 C 0.04196 0.47106 0.86618 0.0
C935 C 0.02342 0.45677 0.85506 0.0
C936 C 0.0367 0.4846 0.88916 0.0
C937 C 0.08634 0.48708 0.86666 0.0
C938 C 0.03442 0.47208 0.91171 0.0
C939 C 0.03423 0.48528 0.93387 0.0
C940 C 0.03623 0.51109 0.93362 0.0
C941 C 0.03693 0.52354 0.91092 0.0
C942 C 0.03698 0.51041 0.88889 0.0
H943 H 0.10447 0.4818 0.85883 0.0
H944 H 0.08368 0.50707 0.86331 0.0
H945 H 0.08684 0.48399 0.88689 0.0
H946 H 0.03422 0.45214 0.91223 0.0
H947 H 0.03388 0.47526 0.95114 0.0
H948 H 0.80811 0.97488 0.98395 0.0
H949 H 0.76654 0.98954 0.99291 0.0
H950 H 0.75198 0.99731 0.91515 0.0
H951 H 0.79321 0.98175 0.90594 0.0
H952 H 0.74069 0.03307 0.98062 0.0
H953 H 0.69783 0.94992 0.93828 0.0
H954 H 0.73038 0.95182 0.94499 0.0
H955 H 0.71787 0.96757 0.91866 0.0
C956 C 0.79607 0.97965 0.96872 0.0
C957 C 0.80391 0.97679 0.94421 0.0
C958 C 0.77239 0.98825 0.97389 0.0
C959 C 0.75604 0.99415 0.95469 0.0
C960 C 0.76417 0.99249 0.93024 0.0
H961 H 0.5962 0.01061 0.97301 0.0
H962 H 0.63698 0.01471 0.95397 0.0
C963 C 0.78785 0.98381 0.92503 0.0
C964 C 0.73012 1.00057 0.96045 0.0
H965 H 0.67125 0.9784 0.95651 0.0
C966 C 0.72545 0.02129 0.97512 0.0
C967 C 0.71024 0.98523 0.95317 0.0
C968 C 0.71421 0.96228 0.93807 0.0
C969 C 0.70151 0.02668 0.98328 0.0
C970 C 0.68183 0.01072 0.97691 0.0
C971 C 0.68634 0.99068 0.9613 0.0
C972 C 0.65711 0.01258 0.98841 0.0
C973 C 0.69767 0.04917 0.99904 0.0
C974 C 0.65485 0.01038 0.01408 0.0
C975 C 0.63164 0.00832 0.02494 0.0
C976 C 0.61019 0.00839 0.01037 0.0
C977 C 0.61237 0.01125 0.98474 0.0
C978 C 0.63566 0.01335 0.97384 0.0
H979 H 0.71088 0.06403 0.99401 0.0
H980 H 0.67862 0.0564 0.99732 0.0
H981 H 0.70105 0.04425 0.01861 0.0
H982 H 0.6711 0.00912 0.02566 0.0
H983 H 0.6305 0.00595 0.04473 0.0
H984 H 0.73052 0.03105 0.42098 0.0
H985 H 0.77041 0.01264 0.43166 0.0
H986 H 0.79014 0.07788 0.47233 0.0
H987 H 0.751 0.09677 0.46113 0.0
H988 H 0.81952 0.03449 0.42139 0.0
H989 H 0.80237 0.01865 0.52081 0.0
H990 H 0.77774 0.0222 0.49856 0.0
H991 H 0.79368 0.04881 0.51028 0.0
C992 C 0.74338 0.04156 0.4321 0.0
C993 C 0.73737 0.06541 0.44029 0.0
C994 C 0.76608 0.03091 0.4383 0.0
C995 C 0.78301 0.04378 0.45307 0.0
C996 C 0.77709 0.06746 0.46132 0.0
H997 H 0.92985 0.06543 0.48285 0.0
H998 H 0.88874 0.06071 0.46477 0.0
C999 C 0.75459 0.07819 0.45497 0.0
C1000 C 0.80746 0.03328 0.45915 0.0
H1001 H 0.84483 0.02083 0.50828 0.0
C1002 C 0.82495 0.03092 0.44031 0.0
C1003 C 0.8144 0.02826 0.48378 0.0
C1004 C 0.79601 0.02936 0.50453 0.0
C1005 C 0.84973 0.02562 0.44576 0.0
C1006 C 0.85708 0.0228 0.47061 0.0
C1007 C 0.83918 0.02314 0.48922 0.0
C1008 C 0.88337 0.02346 0.47804 0.0
C1009 C 0.86809 0.02412 0.42502 0.0
C1010 C 0.89407 0.00397 0.49135 0.0
C1011 C 0.91774 0.00662 0.50153 0.0
C1012 C 0.9307 0.02887 0.49875 0.0
C1013 C 0.92024 0.04801 0.48491 0.0
C1014 C 0.89685 0.04527 0.47451 0.0
H1015 H 0.85894 0.01931 0.40733 0.0
H1016 H 0.87721 0.04231 0.4227 0.0
H1017 H 0.88256 0.01026 0.4291 0.0
H1018 H 0.88382 0.9871 0.4945 0.0
H1019 H 0.92543 0.99177 0.51245 0.0
H1020 H 0.31635 0.52912 0.11019 0.0
H1021 H 0.27513 0.51279 0.10091 0.0
H1022 H 0.261 0.57512 0.0537 0.0
H1023 H 0.3015 0.59203 0.06344 0.0
H1024 H 0.22849 0.53921 0.1089 0.0
H1025 H 0.24292 0.51305 0.01138 0.0
H1026 H 0.26806 0.5167 0.03305 0.0
H1027 H 0.25428 0.54326 0.01884 0.0
C1028 C 0.30446 0.53942 0.0979 0.0
C1029 C 0.3124 0.56189 0.08749 0.0
C1030 C 0.28099 0.52994 0.0925 0.0
C1031 C 0.26523 0.54257 0.07634 0.0
C1032 C 0.27312 0.56483 0.06581 0.0
H1033 H 0.12001 0.57293 0.04613 0.0
H1034 H 0.16144 0.56704 0.06302 0.0
C1035 C 0.29638 0.57442 0.07135 0.0
C1036 C 0.2399 0.53359 0.07136 0.0
H1037 H 0.20093 0.51986 0.02384 0.0
C1038 C 0.22252 0.53438 0.09044 0.0
C1039 C 0.23223 0.52697 0.04735 0.0
C1040 C 0.25038 0.52468 0.0265 0.0
C1041 C 0.19731 0.53069 0.08565 0.0
C1042 C 0.18942 0.52623 0.06122 0.0
C1043 C 0.20702 0.52342 0.04255 0.0
C1044 C 0.16318 0.5283 0.05396 0.0
C1045 C 0.17915 0.53269 0.10652 0.0
C1046 C 0.15044 0.50842 0.04329 0.0
C1047 C 0.12661 0.51176 0.03377 0.0
C1048 C 0.11552 0.53507 0.03458 0.0
C1049 C 0.12817 0.55475 0.04557 0.0
C1050 C 0.15172 0.55136 0.05532 0.0
H1051 H 0.18807 0.52888 0.12458 0.0
H1052 H 0.1717 0.55169 0.10701 0.0
H1053 H 0.16347 0.51974 0.10393 0.0
H1054 H 0.15912 0.49055 0.04185 0.0
H1055 H 0.11722 0.49643 0.02504 0.0
H1056 H 0.25199 0.46962 0.63953 0.0
H1057 H 0.29226 0.48798 0.63062 0.0
H1058 H 0.27261 0.49357 0.55376 0.0
H1059 H 0.23204 0.47597 0.56262 0.0
H1060 H 0.32655 0.46762 0.60032 0.0
H1061 H 0.30316 0.56089 0.56673 0.0
H1062 H 0.28161 0.54197 0.58373 0.0
H1063 H 0.28589 0.53731 0.5512 0.0
C1064 C 0.256 0.4753 0.62082 0.0
C1065 C 0.23878 0.47132 0.60177 0.0
C1066 C 0.27907 0.4857 0.61576 0.0
C1067 C 0.28531 0.49251 0.59161 0.0
C1068 C 0.26801 0.48898 0.57263 0.0
H1069 H 0.40567 0.51369 0.49853 0.0
H1070 H 0.36634 0.51414 0.52029 0.0
C1071 C 0.24495 0.47857 0.57766 0.0
C1072 C 0.3107 0.50089 0.58574 0.0
H1073 H 0.34308 0.54534 0.55497 0.0
C1074 C 0.33029 0.48485 0.59088 0.0
C1075 C 0.3155 0.52342 0.57349 0.0
C1076 C 0.29544 0.542 0.56868 0.0
C1077 C 0.35428 0.48993 0.58265 0.0
C1078 C 0.35887 0.51189 0.5693 0.0
C1079 C 0.33952 0.52854 0.56524 0.0
C1080 C 0.3827 0.5161 0.55665 0.0
C1081 C 0.37416 0.47098 0.58694 0.0
C1082 C 0.40495 0.51801 0.56985 0.0
C1083 C 0.42754 0.51756 0.55741 0.0
C1084 C 0.42809 0.51554 0.53161 0.0
C1085 C 0.40576 0.51523 0.51843 0.0
C1086 C 0.38328 0.5156 0.53083 0.0
H1087 H 0.36659 0.4533 0.59403 0.0
H1088 H 0.38431 0.46727 0.56961 0.0
H1089 H 0.38757 0.47812 0.60068 0.0
H1090 H 0.40487 0.51874 0.58979 0.0
H1091 H 0.44449 0.51751 0.56801 0.0
H1092 H 0.94062 0.78045 0.94092 0.0
H1093 H 0.94922 0.74078 0.96036 0.0
H1094 H 0.95753 0.77646 0.03079 0.0
H1095 H 0.9491 0.8165 0.01132 0.0
H1096 H 0.99659 0.7434 0.01771 0.0
H1097 H 0.90499 0.69956 0.00705 0.0
H1098 H 0.91568 0.71365 0.97907 0.0
H1099 H 0.9095 0.73253 0.00553 0.0
C1100 C 0.94429 0.7799 0.96055 0.0
C1101 C 0.94425 0.80161 0.97458 0.0
C1102 C 0.94891 0.75718 0.97168 0.0
C1103 C 0.95359 0.75564 0.99708 0.0
C1104 C 0.95367 0.77724 0.01121 0.0
H1105 H 0.01735 0.61523 0.05269 0.0
H1106 H 0.99676 0.65546 0.05721 0.0
C1107 C 0.94881 0.80005 1.00008 0.0
C1108 C 0.95992 0.73149 0.00818 0.0
H1109 H 0.93973 0.67196 0.0108 0.0
C1110 C 0.98402 0.72785 0.0169 0.0
C1111 C 0.94336 0.71134 0.00732 0.0
C1112 C 0.91685 0.71448 0.99947 0.0
C1113 C 0.9927 0.70412 0.02253 0.0
C1114 C 0.97668 0.68367 0.01966 0.0
C1115 C 0.952 0.68765 0.01293 0.0
C1116 C 0.98631 0.65818 0.01874 0.0
C1117 C 0.01944 0.70087 0.02954 0.0
C1118 C 0.98643 0.6461 0.99595 0.0
C1119 C 0.99797 0.62341 0.99343 0.0
C1120 C 0.00936 0.61213 0.01372 0.0
C1121 C 0.00847 0.62359 0.03686 0.0
C1122 C 0.99689 0.64654 0.03939 0.0
H1123 H 0.02994 0.71846 0.02876 0.0
H1124 H 0.02068 0.69348 0.04858 0.0
H1125 H 0.02836 0.68742 0.01706 0.0
H1126 H 0.97846 0.65476 0.97978 0.0
H1127 H 0.99859 0.61493 0.97539 0.0
H1128 H 0.44479 0.72145 0.01742 0.0
H1129 H 0.45406 0.76141 0.99835 0.0
H1130 H 0.49004 0.785 0.0652 0.0
H1131 H 0.48023 0.74575 0.08465 0.0
H1132 H 0.43926 0.80936 0.01714 0.0
H1133 H 0.54062 0.8005 0.00952 0.0
H1134 H 0.52032 0.77419 0.01265 0.0
H1135 H 0.52916 0.79177 0.03932 0.0
C1136 C 0.45463 0.73515 0.02811 0.0
C1137 C 0.46186 0.73023 0.0526 0.0
C1138 C 0.46003 0.7579 0.01709 0.0
C1139 C 0.47307 0.77596 0.03024 0.0
C1140 C 0.48044 0.77108 0.05455 0.0
H1141 H 0.49215 0.92105 0.05657 0.0
H1142 H 0.47679 0.87941 0.04871 0.0
C1143 C 0.47488 0.74853 0.06562 0.0
C1144 C 0.47792 0.8006 0.01948 0.0
H1145 H 0.52463 0.84195 0.01096 0.0
C1146 C 0.45791 0.81637 0.01514 0.0
C1147 C 0.50223 0.80957 0.01642 0.0
C1148 C 0.52433 0.79305 0.01947 0.0
C1149 C 0.46169 0.84149 0.01008 0.0
C1150 C 0.486 0.85091 0.00949 0.0
C1151 C 0.50598 0.83469 0.01155 0.0
C1152 C 0.49109 0.8776 0.01159 0.0
C1153 C 0.43978 0.8581 0.00644 0.0
C1154 C 0.50391 0.8905 0.99313 0.0
C1155 C 0.51243 0.91453 0.99753 0.0
C1156 C 0.50863 0.92552 0.02059 0.0
C1157 C 0.49511 0.9129 0.03862 0.0
C1158 C 0.48624 0.88922 0.03409 0.0
H1159 H 0.42266 0.84747 0.00256 0.0
H1160 H 0.43683 0.86913 0.02336 0.0
H1161 H 0.44323 0.87106 0.99097 0.0
H1162 H 0.50807 0.88168 0.97577 0.0
H1163 H 0.52303 0.92398 0.98348 0.0
H1164 H 0.0698 0.28691 0.59241 0.0
H1165 H 0.05983 0.24742 0.57359 0.0
H1166 H 0.09561 0.27012 0.50645 0.0
H1167 H 0.10509 0.31033 0.52488 0.0
H1168 H 0.03334 0.23923 0.52354 0.0
H1169 H 0.12878 0.20227 0.53279 0.0
H1170 H 0.11808 0.22673 0.55251 0.0
H1171 H 0.12383 0.2328 0.52057 0.0
C1172 C 0.07515 0.28385 0.57346 0.0
C1173 C 0.08817 0.30196 0.56016 0.0
C1174 C 0.06958 0.26116 0.56281 0.0
C1175 C 0.07705 0.25591 0.53871 0.0
C1176 C 0.08981 0.27386 0.52515 0.0
H1177 H 0.02395 0.10996 0.48688 0.0
H1178 H 0.04096 0.15189 0.48187 0.0
C1179 C 0.0953 0.29675 0.53577 0.0
C1180 C 0.07184 0.23122 0.52846 0.0
H1181 H 0.09712 0.17395 0.52377 0.0
C1182 C 0.04734 0.22504 0.52285 0.0
C1183 C 0.09022 0.21286 0.52773 0.0
C1184 C 0.11677 0.21878 0.53372 0.0
C1185 C 0.04045 0.20057 0.518 0.0
C1186 C 0.05858 0.18193 0.51884 0.0
C1187 C 0.08334 0.18837 0.52296 0.0
C1188 C 0.05146 0.15564 0.52019 0.0
C1189 C 0.01358 0.1945 0.51386 0.0
C1190 C 0.05239 0.1438 0.54315 0.0
C1191 C 0.04272 0.12017 0.546 0.0
C1192 C 0.0323 0.10777 0.52585 0.0
C1193 C 0.03221 0.11915 0.50258 0.0
C1194 C 0.04179 0.14302 0.49974 0.0
H1195 H 0.00163 0.21104 0.51497 0.0
H1196 H 0.01116 0.18608 0.4954 0.0
H1197 H 0.00725 0.18086 0.52778 0.0
H1198 H 0.05965 0.1533 0.55916 0.0
H1199 H 0.04279 0.11178 0.56414 0.0
H1200 H 0.59965 0.2331 0.49846 0.0
H1201 H 0.58715 0.27291 0.51572 0.0
H1202 H 0.59023 0.30549 0.44326 0.0
H1203 H 0.60261 0.26596 0.42594 0.0
H1204 H 0.60864 0.32148 0.51423 0.0
H1205 H 0.51859 0.31653 0.46571 0.0
H1206 H 0.53864 0.29026 0.46889 0.0
H1207 H 0.54465 0.31319 0.44568 0.0
C1208 C 0.59796 0.24885 0.48629 0.0
C1209 C 0.60172 0.24634 0.46079 0.0
C1210 C 0.59081 0.27153 0.49616 0.0
C1211 C 0.58735 0.29198 0.48067 0.0
C1212 C 0.5923 0.28979 0.45544 0.0
H1213 H 0.56508 0.44695 0.50843 0.0
H1214 H 0.58403 0.40619 0.50506 0.0
C1215 C 0.59932 0.26719 0.44557 0.0
C1216 C 0.57736 0.31534 0.49047 0.0
H1217 H 0.52915 0.35488 0.48377 0.0
C1218 C 0.59115 0.32875 0.5078 0.0
C1219 C 0.55439 0.32455 0.48233 0.0
C1220 C 0.53806 0.3103 0.46481 0.0
C1221 C 0.58286 0.35159 0.51665 0.0
C1222 C 0.56036 0.36136 0.50767 0.0
C1223 C 0.5464 0.34753 0.49075 0.0
C1224 C 0.55086 0.38602 0.51481 0.0
C1225 C 0.59814 0.3648 0.53571 0.0
C1226 C 0.52613 0.38843 0.52202 0.0
C1227 C 0.51521 0.41161 0.52327 0.0
C1228 C 0.52896 0.43288 0.51792 0.0
C1229 C 0.55424 0.43077 0.51297 0.0
C1230 C 0.56507 0.40745 0.51109 0.0
H1231 H 0.60889 0.35163 0.54713 0.0
H1232 H 0.61145 0.37721 0.52631 0.0
H1233 H 0.58637 0.37601 0.54794 0.0
H1234 H 0.5148 0.37225 0.52515 0.0
H1235 H 0.49565 0.41284 0.52707 0.0
loop_
_geom_bond_atom_site_label_1
_geom_bond_atom_site_label_2
_geom_bond_distance
_geom_bond_site_symmetry_2
_ccdc_geom_bond_type
C0 C1 1.384 . S
C0 H13 0.947 . S
C0 C35 1.382 . S
C1 C0 1.384 . S
C1 C2 1.378 . S
C2 C1 1.378 . S
C2 C3 1.378 . S
C2 H14 0.952 . S
C3 C2 1.378 . S
C3 H15 0.950 . S
C3 C34 1.383 . S
H4 C23 0.947 . S
H5 C24 0.946 . S
H6 C26 0.953 . S
H7 C27 0.945 . S
H8 C29 0.952 . S
H9 C30 0.949 . S
H10 C32 0.950 . S
H11 C33 0.948 . S
H12 C35 0.951 . S
H13 C0 0.947 . S
H14 C2 0.952 . S
H15 C3 0.950 . S
N16 C19 1.382 . S
N16 C21 1.363 . S
N17 C19 1.371 . S
N17 C20 1.372 . S
N18 C20 1.361 . S
N18 C21 1.377 . S
C19 N16 1.382 . S
C19 N17 1.371 . S
C19 C22 1.480 . S
C20 N17 1.372 . S
C20 N18 1.361 . S
C20 C28 1.457 . S
C21 N16 1.363 . S
C21 N18 1.377 . S
C21 C34 1.479 . S
C22 C19 1.480 . S
C22 C23 1.383 . S
C22 C27 1.385 . S
C23 H4 0.947 . S
C23 C22 1.383 . S
C23 C24 1.388 . S
C24 H5 0.946 . S
C24 C23 1.388 . S
C24 C25 1.384 . S
C25 C24 1.384 . S
C25 C26 1.377 . S
C26 H6 0.953 . S
C26 C25 1.377 . S
C26 C27 1.369 . S
C27 H7 0.945 . S
C27 C22 1.385 . S
C27 C26 1.369 . S
C28 C20 1.457 . S
C28 C29 1.372 . S
C28 C33 1.364 . S
C29 H8 0.952 . S
C29 C28 1.372 . S
C29 C30 1.389 . S
C30 H9 0.949 . S
C30 C29 1.389 . S
C30 C31 1.387 . S
C31 C30 1.387 . S
C31 C32 1.372 . S
C32 H10 0.950 . S
C32 C31 1.372 . S
C32 C33 1.379 . S
C33 H11 0.948 . S
C33 C28 1.364 . S
C33 C32 1.379 . S
C34 C3 1.383 . S
C34 C21 1.479 . S
C34 C35 1.398 . S
C35 C0 1.382 . S
C35 H12 0.951 . S
C35 C34 1.398 . S
C36 C37 1.384 . S
C36 H49 0.947 . S
C36 C71 1.382 . S
C37 C36 1.384 . S
C37 C38 1.378 . S
C38 C37 1.378 . S
C38 C39 1.378 . S
C38 H50 0.952 . S
C39 C38 1.378 . S
C39 H51 0.950 . S
C39 C70 1.383 . S
H40 C59 0.947 . S
H41 C60 0.946 . S
H42 C62 0.953 . S
H43 C63 0.945 . S
H44 C65 0.952 . S
H45 C66 0.949 . S
H46 C68 0.950 . S
H47 C69 0.948 . S
H48 C71 0.951 . S
H49 C36 0.947 . S
H50 C38 0.952 . S
H51 C39 0.950 . S
N52 C55 1.382 . S
N52 C57 1.363 . S
N53 C55 1.371 . S
N53 C56 1.372 . S
N54 C56 1.361 . S
N54 C57 1.377 . S
C55 N52 1.382 . S
C55 N53 1.371 . S
C55 C58 1.480 . S
C56 N53 1.372 . S
C56 N54 1.361 . S
C56 C64 1.457 . S
C57 N52 1.363 . S
C57 N54 1.377 . S
C57 C70 1.479 . S
C58 C55 1.480 . S
C58 C59 1.383 . S
C58 C63 1.385 . S
C59 H40 0.947 . S
C59 C58 1.383 . S
C59 C60 1.388 . S
C60 H41 0.946 . S
C60 C59 1.388 . S
C60 C61 1.384 . S
C61 C60 1.384 . S
C61 C62 1.377 . S
C62 H42 0.953 . S
C62 C61 1.377 . S
C62 C63 1.369 . S
C63 H43 0.945 . S
C63 C58 1.385 . S
C63 C62 1.369 . S
C64 C56 1.457 . S
C64 C65 1.372 . S
C64 C69 1.364 . S
C65 H44 0.952 . S
C65 C64 1.372 . S
C65 C66 1.389 . S
C66 H45 0.949 . S
C66 C65 1.389 . S
C66 C67 1.387 . S
C67 C66 1.387 . S
C67 C68 1.372 . S
C68 H46 0.950 . S
C68 C67 1.372 . S
C68 C69 1.379 . S
C69 H47 0.948 . S
C69 C64 1.364 . S
C69 C68 1.379 . S
C70 C39 1.383 . S
C70 C57 1.479 . S
C70 C71 1.398 . S
C71 C36 1.382 . S
C71 H48 0.951 . S
C71 C70 1.398 . S
C72 C73 1.384 . S
C72 H85 0.947 . S
C72 C107 1.382 . S
C73 C72 1.384 . S
C73 C74 1.378 . S
C74 C73 1.378 . S
C74 C75 1.378 . S
C74 H86 0.952 . S
C75 C74 1.378 . S
C75 H87 0.950 . S
C75 C106 1.383 . S
H76 C95 0.947 . S
H77 C96 0.946 . S
H78 C98 0.953 . S
H79 C99 0.945 . S
H80 C101 0.952 . S
H81 C102 0.949 . S
H82 C104 0.950 . S
H83 C105 0.948 . S
H84 C107 0.951 . S
H85 C72 0.947 . S
H86 C74 0.952 . S
H87 C75 0.950 . S
N88 C91 1.382 . S
N88 C93 1.363 . S
N89 C91 1.371 . S
N89 C92 1.372 . S
N90 C92 1.361 . S
N90 C93 1.377 . S
C91 N88 1.382 . S
C91 N89 1.371 . S
C91 C94 1.480 . S
C92 N89 1.372 . S
C92 N90 1.361 . S
C92 C100 1.457 . S
C93 N88 1.363 . S
C93 N90 1.377 . S
C93 C106 1.479 . S
C94 C91 1.480 . S
C94 C95 1.383 . S
C94 C99 1.385 . S
C95 H76 0.947 . S
C95 C94 1.383 . S
C95 C96 1.388 . S
C96 H77 0.946 . S
C96 C95 1.388 . S
C96 C97 1.384 . S
C97 C96 1.384 . S
C97 C98 1.377 . S
C98 H78 0.953 . S
C98 C97 1.377 . S
C98 C99 1.369 . S
C99 H79 0.945 . S
C99 C94 1.385 . S
C99 C98 1.369 . S
C100 C92 1.457 . S
C100 C101 1.372 . S
C100 C105 1.364 . S
C101 H80 0.952 . S
C101 C100 1.372 . S
C101 C102 1.389 . S
C102 H81 0.949 . S
C102 C101 1.389 . S
C102 C103 1.387 . S
C103 C102 1.387 . S
C103 C104 1.372 . S
C104 H82 0.950 . S
C104 C103 1.372 . S
C104 C105 1.379 . S
C105 H83 0.948 . S
C105 C100 1.364 . S
C105 C104 1.379 . S
C106 C75 1.383 . S
C106 C93 1.479 . S
C106 C107 1.398 . S
C107 C72 1.382 . S
C107 H84 0.951 . S
C107 C106 1.398 . S
C108 C109 1.384 . S
C108 H121 0.947 . S
C108 C143 1.382 . S
C109 C108 1.384 . S
C109 C110 1.378 . S
C110 C109 1.378 . S
C110 C111 1.378 . S
C110 H122 0.952 . S
C111 C110 1.378 . S
C111 H123 0.950 . S
C111 C142 1.383 . S
H112 C131 0.947 . S
H113 C132 0.946 . S
H114 C134 0.953 . S
H115 C135 0.945 . S
H116 C137 0.952 . S
H117 C138 0.949 . S
H118 C140 0.950 . S
H119 C141 0.948 . S
H120 C143 0.951 . S
H121 C108 0.947 . S
H122 C110 0.952 . S
H123 C111 0.950 . S
N124 C127 1.382 . S
N124 C129 1.363 . S
N125 C127 1.371 . S
N125 C128 1.372 . S
N126 C128 1.361 . S
N126 C129 1.377 . S
C127 N124 1.382 . S
C127 N125 1.371 . S
C127 C130 1.480 . S
C128 N125 1.372 . S
C128 N126 1.361 . S
C128 C136 1.457 . S
C129 N124 1.363 . S
C129 N126 1.377 . S
C129 C142 1.479 . S
C130 C127 1.480 . S
C130 C131 1.383 . S
C130 C135 1.385 . S
C131 H112 0.947 . S
C131 C130 1.383 . S
C131 C132 1.388 . S
C132 H113 0.946 . S
C132 C131 1.388 . S
C132 C133 1.384 . S
C133 C132 1.384 . S
C133 C134 1.377 . S
C134 H114 0.953 . S
C134 C133 1.377 . S
C134 C135 1.369 . S
C135 H115 0.945 . S
C135 C130 1.385 . S
C135 C134 1.369 . S
C136 C128 1.457 . S
C136 C137 1.372 . S
C136 C141 1.364 . S
C137 H116 0.952 . S
C137 C136 1.372 . S
C137 C138 1.389 . S
C138 H117 0.949 . S
C138 C137 1.389 . S
C138 C139 1.387 . S
C139 C138 1.387 . S
C139 C140 1.372 . S
C140 H118 0.950 . S
C140 C139 1.372 . S
C140 C141 1.379 . S
C141 H119 0.948 . S
C141 C136 1.364 . S
C141 C140 1.379 . S
C142 C111 1.383 . S
C142 C129 1.479 . S
C142 C143 1.398 . S
C143 C108 1.382 . S
C143 H120 0.951 . S
C143 C142 1.398 . S
C144 C145 1.384 . S
C144 H157 0.947 . S
C144 C179 1.382 . S
C145 C144 1.384 . S
C145 C146 1.378 . S
C146 C145 1.378 . S
C146 C147 1.378 . S
C146 H158 0.952 1_556 S
C147 C146 1.378 . S
C147 H159 0.950 . S
C147 C178 1.383 . S
H148 C167 0.947 . S
H149 C168 0.946 . S
H150 C170 0.953 1_455 S
H151 C171 0.945 . S
H152 C173 0.952 . S
H153 C174 0.949 . S
H154 C176 0.950 1_545 S
H155 C177 0.948 . S
H156 C179 0.951 . S
H157 C144 0.947 . S
H158 C146 0.952 1_554 S
H159 C147 0.950 . S
N160 C163 1.382 . S
N160 C165 1.363 . S
N161 C163 1.371 . S
N161 C164 1.372 . S
N162 C164 1.361 . S
N162 C165 1.377 . S
C163 N160 1.382 . S
C163 N161 1.371 . S
C163 C166 1.480 . S
C164 N161 1.372 . S
C164 N162 1.361 . S
C164 C172 1.457 . S
C165 N160 1.363 . S
C165 N162 1.377 . S
C165 C178 1.479 . S
C166 C163 1.480 . S
C166 C167 1.383 . S
C166 C171 1.385 . S
C167 H148 0.947 . S
C167 C166 1.383 . S
C167 C168 1.388 . S
C168 H149 0.946 . S
C168 C167 1.388 . S
C168 C169 1.384 . S
C169 C168 1.384 . S
C169 C170 1.377 . S
C170 H150 0.953 1_655 S
C170 C169 1.377 . S
C170 C171 1.369 . S
C171 H151 0.945 . S
C171 C166 1.385 . S
C171 C170 1.369 . S
C172 C164 1.457 . S
C172 C173 1.372 . S
C172 C177 1.364 . S
C173 H152 0.952 . S
C173 C172 1.372 . S
C173 C174 1.389 . S
C174 H153 0.949 . S
C174 C173 1.389 . S
C174 C175 1.387 . S
C175 C174 1.387 . S
C175 C176 1.372 . S
C176 H154 0.950 1_565 S
C176 C175 1.372 . S
C176 C177 1.379 . S
C177 H155 0.948 . S
C177 C172 1.364 . S
C177 C176 1.379 . S
C178 C147 1.383 . S
C178 C165 1.479 . S
C178 C179 1.398 . S
C179 C144 1.382 . S
C179 H156 0.951 . S
C179 C178 1.398 . S
C180 C181 1.384 . S
C180 H193 0.947 . S
C180 C215 1.382 . S
C181 C180 1.384 . S
C181 C182 1.378 . S
C182 C181 1.378 . S
C182 C183 1.378 . S
C182 H194 0.952 . S
C183 C182 1.378 . S
C183 H195 0.950 . S
C183 C214 1.383 . S
H184 C203 0.947 . S
H185 C204 0.946 . S
H186 C206 0.953 . S
H187 C207 0.945 . S
H188 C209 0.952 . S
H189 C210 0.949 . S
H190 C212 0.950 . S
H191 C213 0.948 . S
H192 C215 0.951 . S
H193 C180 0.947 . S
H194 C182 0.952 . S
H195 C183 0.950 . S
N196 C199 1.382 . S
N196 C201 1.363 . S
N197 C199 1.371 . S
N197 C200 1.372 . S
N198 C200 1.361 . S
N198 C201 1.377 . S
C199 N196 1.382 . S
C199 N197 1.371 . S
C199 C202 1.480 . S
C200 N197 1.372 . S
C200 N198 1.361 . S
C200 C208 1.457 . S
C201 N196 1.363 . S
C201 N198 1.377 . S
C201 C214 1.479 . S
C202 C199 1.480 . S
C202 C203 1.383 . S
C202 C207 1.385 . S
C203 H184 0.947 . S
C203 C202 1.383 . S
C203 C204 1.388 . S
C204 H185 0.946 . S
C204 C203 1.388 . S
C204 C205 1.384 . S
C205 C204 1.384 . S
C205 C206 1.377 . S
C206 H186 0.953 . S
C206 C205 1.377 . S
C206 C207 1.369 . S
C207 H187 0.945 . S
C207 C202 1.385 . S
C207 C206 1.369 . S
C208 C200 1.457 . S
C208 C209 1.372 . S
C208 C213 1.364 . S
C209 H188 0.952 . S
C209 C208 1.372 . S
C209 C210 1.389 . S
C210 H189 0.949 . S
C210 C209 1.389 . S
C210 C211 1.387 . S
C211 C210 1.387 . S
C211 C212 1.372 . S
C212 H190 0.950 . S
C212 C211 1.372 . S
C212 C213 1.379 . S
C213 H191 0.948 . S
C213 C208 1.364 . S
C213 C212 1.379 . S
C214 C183 1.383 . S
C214 C201 1.479 . S
C214 C215 1.398 . S
C215 C180 1.382 . S
C215 H192 0.951 . S
C215 C214 1.398 . S
C216 C217 1.384 . S
C216 H229 0.947 . S
C216 C251 1.382 . S
C217 C216 1.384 . S
C217 C218 1.378 . S
C218 C217 1.378 . S
C218 C219 1.378 . S
C218 H230 0.952 . S
C219 C218 1.378 . S
C219 H231 0.950 . S
C219 C250 1.383 . S
H220 C239 0.947 . S
H221 C240 0.946 . S
H222 C242 0.953 . S
H223 C243 0.945 . S
H224 C245 0.952 . S
H225 C246 0.949 . S
H226 C248 0.950 . S
H227 C249 0.948 . S
H228 C251 0.951 . S
H229 C216 0.947 . S
H230 C218 0.952 . S
H231 C219 0.950 . S
N232 C235 1.382 . S
N232 C237 1.363 . S
N233 C235 1.371 . S
N233 C236 1.372 . S
N234 C236 1.361 . S
N234 C237 1.377 . S
C235 N232 1.382 . S
C235 N233 1.371 . S
C235 C238 1.480 . S
C236 N233 1.372 . S
C236 N234 1.361 . S
C236 C244 1.457 . S
C237 N232 1.363 . S
C237 N234 1.377 . S
C237 C250 1.479 . S
C238 C235 1.480 . S
C238 C239 1.383 . S
C238 C243 1.385 . S
C239 H220 0.947 . S
C239 C238 1.383 . S
C239 C240 1.388 . S
C240 H221 0.946 . S
C240 C239 1.388 . S
C240 C241 1.384 . S
C241 C240 1.384 . S
C241 C242 1.377 . S
C242 H222 0.953 . S
C242 C241 1.377 . S
C242 C243 1.369 . S
C243 H223 0.945 . S
C243 C238 1.385 . S
C243 C242 1.369 . S
C244 C236 1.457 . S
C244 C245 1.372 . S
C244 C249 1.364 . S
C245 H224 0.952 . S
C245 C244 1.372 . S
C245 C246 1.389 . S
C246 H225 0.949 . S
C246 C245 1.389 . S
C246 C247 1.387 . S
C247 C246 1.387 . S
C247 C248 1.372 . S
C248 H226 0.950 . S
C248 C247 1.372 . S
C248 C249 1.379 . S
C249 H227 0.948 . S
C249 C244 1.364 . S
C249 C248 1.379 . S
C250 C219 1.383 . S
C250 C237 1.479 . S
C250 C251 1.398 . S
C251 C216 1.382 . S
C251 H228 0.951 . S
C251 C250 1.398 . S
C252 C253 1.384 . S
C252 H265 0.947 . S
C252 C287 1.382 . S
C253 C252 1.384 . S
C253 C254 1.378 . S
C254 C253 1.378 . S
C254 C255 1.378 . S
C254 H266 0.952 . S
C255 C254 1.378 . S
C255 H267 0.950 . S
C255 C286 1.383 . S
H256 C275 0.947 . S
H257 C276 0.946 . S
H258 C278 0.953 . S
H259 C279 0.945 . S
H260 C281 0.952 . S
H261 C282 0.949 . S
H262 C284 0.950 . S
H263 C285 0.948 . S
H264 C287 0.951 . S
H265 C252 0.947 . S
H266 C254 0.952 . S
H267 C255 0.950 . S
N268 C271 1.382 . S
N268 C273 1.363 . S
N269 C271 1.371 . S
N269 C272 1.372 . S
N270 C272 1.361 . S
N270 C273 1.377 . S
C271 N268 1.382 . S
C271 N269 1.371 . S
C271 C274 1.480 . S
C272 N269 1.372 . S
C272 N270 1.361 . S
C272 C280 1.457 . S
C273 N268 1.363 . S
C273 N270 1.377 . S
C273 C286 1.479 . S
C274 C271 1.480 . S
C274 C275 1.383 . S
C274 C279 1.385 . S
C275 H256 0.947 . S
C275 C274 1.383 . S
C275 C276 1.388 . S
C276 H257 0.946 . S
C276 C275 1.388 . S
C276 C277 1.384 . S
C277 C276 1.384 . S
C277 C278 1.377 . S
C278 H258 0.953 . S
C278 C277 1.377 . S
C278 C279 1.369 . S
C279 H259 0.945 . S
C279 C274 1.385 . S
C279 C278 1.369 . S
C280 C272 1.457 . S
C280 C281 1.372 . S
C280 C285 1.364 . S
C281 H260 0.952 . S
C281 C280 1.372 . S
C281 C282 1.389 . S
C282 H261 0.949 . S
C282 C281 1.389 . S
C282 C283 1.387 . S
C283 C282 1.387 . S
C283 C284 1.372 . S
C284 H262 0.950 . S
C284 C283 1.372 . S
C284 C285 1.379 . S
C285 H263 0.948 . S
C285 C280 1.364 . S
C285 C284 1.379 . S
C286 C255 1.383 . S
C286 C273 1.479 . S
C286 C287 1.398 . S
C287 C252 1.382 . S
C287 H264 0.951 . S
C287 C286 1.398 . S
Zn288 O294 1.920 . S
Zn288 O300 1.898 . S
Zn288 O303 1.905 . S
Zn289 O297 1.905 1_565 S
Zn289 O298 1.898 . S
Zn289 O306 1.920 . S
Zn290 O293 2.080 1_455 S
Zn290 O296 2.114 . S
Zn290 O299 2.120 1_445 S
Zn290 O301 2.120 . S
Zn290 O302 2.114 1_455 S
Zn290 O305 2.080 . S
C291 O296 1.166 . S
C291 O297 1.182 . S
C292 O298 1.167 1_655 S
C292 O299 1.299 . S
O293 Zn290 2.080 1_655 S
O293 C307 1.305 . S
O294 Zn288 1.920 . S
O294 C307 1.234 . S
C295 O300 1.167 1_455 S
C295 O301 1.299 . S
O296 Zn290 2.114 . S
O296 C291 1.166 . S
O297 Zn289 1.905 1_545 S
O297 C291 1.182 . S
O298 Zn289 1.898 . S
O298 C292 1.167 1_455 S
O299 Zn290 2.120 1_665 S
O299 C292 1.299 . S
O300 Zn288 1.898 . S
O300 C295 1.167 1_655 S
O301 Zn290 2.120 . S
O301 C295 1.299 . S
O302 Zn290 2.114 1_655 S
O302 C304 1.166 . S
O303 Zn288 1.905 . S
O303 C304 1.182 . S
C304 O302 1.166 . S
C304 O303 1.182 . S
O305 Zn290 2.080 . S
O305 C308 1.318 . S
O306 Zn289 1.920 . S
O306 C308 1.225 1_565 S
C307 O293 1.305 . S
C307 O294 1.234 . S
C308 O305 1.318 . S
C308 O306 1.225 1_545 S
Zn309 O315 1.920 1_556 S
Zn309 O321 1.898 . S
Zn309 O324 1.905 . S
Zn310 O318 1.905 . S
Zn310 O319 1.898 . S
Zn310 O327 1.920 . S
Zn311 O314 2.080 . S
Zn311 O317 2.114 1_545 S
Zn311 O320 2.120 1_545 S
Zn311 O322 2.120 . S
Zn311 O323 2.114 1_544 S
Zn311 O326 2.080 . S
C312 O317 1.166 . S
C312 O318 1.182 . S
C313 O319 1.167 . S
C313 O320 1.299 . S
O314 Zn311 2.080 . S
O314 C328 1.305 . S
O315 Zn309 1.920 1_554 S
O315 C328 1.234 . S
C316 O321 1.167 . S
C316 O322 1.299 1_556 S
O317 Zn311 2.114 1_565 S
O317 C312 1.166 . S
O318 Zn310 1.905 . S
O318 C312 1.182 . S
O319 Zn310 1.898 . S
O319 C313 1.167 . S
O320 Zn311 2.120 1_565 S
O320 C313 1.299 . S
O321 Zn309 1.898 . S
O321 C316 1.167 . S
O322 Zn311 2.120 . S
O322 C316 1.299 1_554 S
O323 Zn311 2.114 1_566 S
O323 C325 1.166 . S
O324 Zn309 1.905 . S
O324 C325 1.182 1_545 S
C325 O323 1.166 . S
C325 O324 1.182 1_565 S
O326 Zn311 2.080 . S
O326 C329 1.305 . S
O327 Zn310 1.920 . S
O327 C329 1.234 1_565 S
C328 O314 1.305 . S
C328 O315 1.234 . S
C329 O326 1.305 . S
C329 O327 1.234 1_545 S
Zn330 O336 1.920 . S
Zn330 O342 1.898 . S
Zn330 O345 1.905 . S
Zn331 O339 1.905 . S
Zn331 O340 1.898 . S
Zn331 O348 1.920 . S
Zn332 O335 2.080 . S
Zn332 O338 2.114 . S
Zn332 O341 2.120 . S
Zn332 O343 2.120 . S
Zn332 O344 2.114 . S
Zn332 O347 2.080 . S
C333 O338 1.166 . S
C333 O339 1.182 . S
C334 O340 1.167 . S
C334 O341 1.299 . S
O335 Zn332 2.080 . S
O335 C349 1.305 . S
O336 Zn330 1.920 . S
O336 C349 1.234 . S
C337 O342 1.167 . S
C337 O343 1.299 . S
O338 Zn332 2.114 . S
O338 C333 1.166 . S
O339 Zn331 1.905 . S
O339 C333 1.182 . S
O340 Zn331 1.898 . S
O340 C334 1.167 . S
O341 Zn332 2.120 . S
O341 C334 1.299 . S
O342 Zn330 1.898 . S
O342 C337 1.167 . S
O343 Zn332 2.120 . S
O343 C337 1.299 . S
O344 Zn332 2.114 . S
O344 C346 1.166 . S
O345 Zn330 1.905 . S
O345 C346 1.182 . S
C346 O344 1.166 . S
C346 O345 1.182 . S
O347 Zn332 2.080 . S
O347 C350 1.305 . S
O348 Zn331 1.920 . S
O348 C350 1.234 . S
C349 O335 1.305 . S
C349 O336 1.234 . S
C350 O347 1.305 . S
C350 O348 1.234 . S
Zn351 O357 1.920 . S
Zn351 O363 1.898 . S
Zn351 O366 1.905 . S
Zn352 O360 1.905 1_655 S
Zn352 O361 1.898 . S
Zn352 O369 1.920 . S
Zn353 O356 2.080 1_554 S
Zn353 O359 2.114 . S
Zn353 O362 2.120 1_454 S
Zn353 O364 2.120 . S
Zn353 O365 2.114 1_554 S
Zn353 O368 2.080 . S
C354 O359 1.166 . S
C354 O360 1.182 . S
C355 O361 1.167 1_556 S
C355 O362 1.299 . S
O356 Zn353 2.080 1_556 S
O356 C370 1.305 . S
O357 Zn351 1.920 . S
O357 C370 1.234 . S
C358 O363 1.167 1_554 S
C358 O364 1.299 . S
O359 Zn353 2.114 . S
O359 C354 1.166 . S
O360 Zn352 1.905 1_455 S
O360 C354 1.182 . S
O361 Zn352 1.898 . S
O361 C355 1.167 1_554 S
O362 Zn353 2.120 1_656 S
O362 C355 1.299 . S
O363 Zn351 1.898 . S
O363 C358 1.167 1_556 S
O364 Zn353 2.120 . S
O364 C358 1.299 . S
O365 Zn353 2.114 1_556 S
O365 C367 1.166 . S
O366 Zn351 1.905 . S
O366 C367 1.182 . S
C367 O365 1.166 . S
C367 O366 1.182 . S
O368 Zn353 2.080 . S
O368 C371 1.300 1_455 S
O369 Zn352 1.920 . S
O369 C371 1.238 . S
C370 O356 1.305 . S
C370 O357 1.234 . S
C371 O368 1.300 1_655 S
C371 O369 1.238 . S
H372 C380 0.929 . S
H373 C382 0.930 . S
H374 C384 0.930 . S
H375 C387 0.929 . S
H376 C390 0.930 . S
H377 C392 0.960 . S
H378 C392 0.960 . S
H379 C392 0.960 . S
C380 H372 0.929 . S
C380 C381 1.377 . S
C380 C382 1.384 . S
C381 C380 1.377 . S
C381 C387 1.390 . S
C382 H373 0.930 . S
C382 C380 1.384 . S
C382 C383 1.372 . S
C383 C382 1.372 . S
C383 C384 1.400 . S
C383 C388 1.490 . S
C384 H374 0.930 . S
C384 C383 1.400 . S
C384 C387 1.386 . S
H385 C401 0.930 . S
H386 C402 0.931 . S
C387 H375 0.929 . S
C387 C381 1.390 . S
C387 C384 1.386 . S
C388 C383 1.490 . S
C388 C390 1.395 . S
C388 C391 1.403 . S
H389 C395 0.930 . S
C390 H376 0.930 . S
C390 C388 1.395 . S
C390 C393 1.403 . S
C391 C388 1.403 . S
C391 C392 1.524 . S
C391 C395 1.400 . S
C392 H377 0.960 . S
C392 H378 0.960 . S
C392 H379 0.960 . S
C392 C391 1.524 . S
C393 C390 1.403 . S
C393 C394 1.392 . S
C393 C397 1.495 . S
C394 C393 1.392 . S
C394 C395 1.385 . S
C394 C396 1.478 . S
C395 H389 0.930 . S
C395 C391 1.400 . S
C395 C394 1.385 . S
C396 C394 1.478 . S
C396 C398 1.381 . S
C396 C402 1.383 . S
C397 C393 1.495 . S
C397 H403 0.959 . S
C397 H404 0.961 . S
C397 H405 0.960 . S
C398 C396 1.381 . S
C398 C399 1.394 . S
C398 H406 0.930 . S
C399 C398 1.394 . S
C399 C400 1.383 . S
C399 H407 0.929 . S
C400 C399 1.383 . S
C400 C401 1.377 . S
C401 H385 0.930 . S
C401 C400 1.377 . S
C401 C402 1.379 . S
C402 H386 0.931 . S
C402 C396 1.383 . S
C402 C401 1.379 . S
H403 C397 0.959 . S
H404 C397 0.961 . S
H405 C397 0.960 . S
H406 C398 0.930 . S
H407 C399 0.929 . S
H408 C416 0.929 . S
H409 C418 0.930 . S
H410 C420 0.930 . S
H411 C423 0.929 . S
H412 C426 0.930 . S
H413 C428 0.960 . S
H414 C428 0.960 . S
H415 C428 0.960 . S
C416 H408 0.929 . S
C416 C417 1.377 . S
C416 C418 1.384 . S
C417 C416 1.377 . S
C417 C423 1.390 . S
C418 H409 0.930 . S
C418 C416 1.384 . S
C418 C419 1.372 . S
C419 C418 1.372 . S
C419 C420 1.400 . S
C419 C424 1.490 . S
C420 H410 0.930 . S
C420 C419 1.400 . S
C420 C423 1.386 . S
H421 C437 0.930 1_545 S
H422 C438 0.931 . S
C423 H411 0.929 . S
C423 C417 1.390 . S
C423 C420 1.386 . S
C424 C419 1.490 . S
C424 C426 1.395 . S
C424 C427 1.403 . S
H425 C431 0.930 . S
C426 H412 0.930 . S
C426 C424 1.395 . S
C426 C429 1.403 . S
C427 C424 1.403 . S
C427 C428 1.524 . S
C427 C431 1.400 . S
C428 H413 0.960 . S
C428 H414 0.960 . S
C428 H415 0.960 . S
C428 C427 1.524 . S
C429 C426 1.403 . S
C429 C430 1.392 . S
C429 C433 1.495 . S
C430 C429 1.392 . S
C430 C431 1.385 . S
C430 C432 1.478 . S
C431 H425 0.930 . S
C431 C427 1.400 . S
C431 C430 1.385 . S
C432 C430 1.478 . S
C432 C434 1.381 . S
C432 C438 1.383 . S
C433 C429 1.495 . S
C433 H439 0.959 . S
C433 H440 0.961 . S
C433 H441 0.960 . S
C434 C432 1.381 . S
C434 C435 1.394 . S
C434 H442 0.930 . S
C435 C434 1.394 . S
C435 C436 1.383 . S
C435 H443 0.929 . S
C436 C435 1.383 . S
C436 C437 1.377 . S
C437 H421 0.930 1_565 S
C437 C436 1.377 . S
C437 C438 1.379 . S
C438 H422 0.931 . S
C438 C432 1.383 . S
C438 C437 1.379 . S
H439 C433 0.959 . S
H440 C433 0.961 . S
H441 C433 0.960 . S
H442 C434 0.930 . S
H443 C435 0.929 . S
H444 C452 0.929 . S
H445 C454 0.930 . S
H446 C456 0.930 . S
H447 C459 0.929 . S
H448 C462 0.930 . S
H449 C464 0.960 . S
H450 C464 0.960 . S
H451 C464 0.960 . S
C452 H444 0.929 . S
C452 C453 1.377 . S
C452 C454 1.384 . S
C453 C452 1.377 . S
C453 C459 1.390 . S
C454 H445 0.930 . S
C454 C452 1.384 . S
C454 C455 1.372 . S
C455 C454 1.372 . S
C455 C456 1.400 . S
C455 C460 1.490 . S
C456 H446 0.930 . S
C456 C455 1.400 . S
C456 C459 1.386 . S
H457 C473 0.930 . S
H458 C474 0.931 . S
C459 H447 0.929 . S
C459 C453 1.390 . S
C459 C456 1.386 . S
C460 C455 1.490 . S
C460 C462 1.395 . S
C460 C463 1.403 . S
H461 C467 0.930 . S
C462 H448 0.930 . S
C462 C460 1.395 . S
C462 C465 1.403 . S
C463 C460 1.403 . S
C463 C464 1.524 . S
C463 C467 1.400 . S
C464 H449 0.960 . S
C464 H450 0.960 . S
C464 H451 0.960 . S
C464 C463 1.524 . S
C465 C462 1.403 . S
C465 C466 1.392 . S
C465 C469 1.495 . S
C466 C465 1.392 . S
C466 C467 1.385 . S
C466 C468 1.478 . S
C467 H461 0.930 . S
C467 C463 1.400 . S
C467 C466 1.385 . S
C468 C466 1.478 . S
C468 C470 1.381 . S
C468 C474 1.383 . S
C469 C465 1.495 . S
C469 H475 0.959 . S
C469 H476 0.961 . S
C469 H477 0.960 . S
C470 C468 1.381 . S
C470 C471 1.394 . S
C470 H478 0.930 . S
C471 C470 1.394 . S
C471 C472 1.383 . S
C471 H479 0.929 . S
C472 C471 1.383 . S
C472 C473 1.377 . S
C473 H457 0.930 . S
C473 C472 1.377 . S
C473 C474 1.379 . S
C474 H458 0.931 . S
C474 C468 1.383 . S
C474 C473 1.379 . S
H475 C469 0.959 . S
H476 C469 0.961 . S
H477 C469 0.960 . S
H478 C470 0.930 . S
H479 C471 0.929 . S
H480 C488 0.929 . S
H481 C490 0.930 . S
H482 C492 0.930 . S
H483 C495 0.929 . S
H484 C498 0.930 . S
H485 C500 0.960 . S
H486 C500 0.960 . S
H487 C500 0.960 . S
C488 H480 0.929 . S
C488 C489 1.377 . S
C488 C490 1.384 . S
C489 C488 1.377 . S
C489 C495 1.390 . S
C490 H481 0.930 . S
C490 C488 1.384 . S
C490 C491 1.372 . S
C491 C490 1.372 . S
C491 C492 1.400 . S
C491 C496 1.490 . S
C492 H482 0.930 . S
C492 C491 1.400 . S
C492 C495 1.386 . S
H493 C509 0.930 1_455 S
H494 C510 0.931 . S
C495 H483 0.929 . S
C495 C489 1.390 . S
C495 C492 1.386 . S
C496 C491 1.490 . S
C496 C498 1.395 . S
C496 C499 1.403 . S
H497 C503 0.930 . S
C498 H484 0.930 . S
C498 C496 1.395 . S
C498 C501 1.403 . S
C499 C496 1.403 . S
C499 C500 1.524 . S
C499 C503 1.400 . S
C500 H485 0.960 . S
C500 H486 0.960 . S
C500 H487 0.960 . S
C500 C499 1.524 . S
C501 C498 1.403 . S
C501 C502 1.392 . S
C501 C505 1.495 . S
C502 C501 1.392 . S
C502 C503 1.385 . S
C502 C504 1.478 . S
C503 H497 0.930 . S
C503 C499 1.400 . S
C503 C502 1.385 . S
C504 C502 1.478 . S
C504 C506 1.381 . S
C504 C510 1.383 . S
C505 C501 1.495 . S
C505 H511 0.959 . S
C505 H512 0.928 1_655 S
C505 H513 0.960 . S
C506 C504 1.381 . S
C506 C507 1.394 . S
C506 H514 0.930 . S
C507 C506 1.394 . S
C507 C508 1.383 . S
C507 H515 0.929 . S
C508 C507 1.383 . S
C508 C509 1.377 . S
C509 H493 0.930 1_655 S
C509 C508 1.377 . S
C509 C510 1.379 . S
C510 H494 0.931 . S
C510 C504 1.383 . S
C510 C509 1.379 . S
H511 C505 0.959 . S
H512 C505 0.928 1_455 S
H513 C505 0.960 . S
H514 C506 0.930 . S
H515 C507 0.929 . S
H516 C524 0.929 . S
H517 C526 0.930 . S
H518 C528 0.930 . S
H519 C531 0.929 . S
H520 C534 0.930 . S
H521 C536 0.960 . S
H522 C536 0.960 . S
H523 C536 0.960 . S
C524 H516 0.929 . S
C524 C525 1.377 . S
C524 C526 1.384 . S
C525 C524 1.377 . S
C525 C531 1.390 . S
C526 H517 0.930 . S
C526 C524 1.384 . S
C526 C527 1.372 . S
C527 C526 1.372 . S
C527 C528 1.400 . S
C527 C532 1.490 . S
C528 H518 0.930 . S
C528 C527 1.400 . S
C528 C531 1.386 . S
H529 C545 0.930 . S
H530 C546 0.931 . S
C531 H519 0.929 . S
C531 C525 1.390 . S
C531 C528 1.386 . S
C532 C527 1.490 . S
C532 C534 1.395 . S
C532 C535 1.403 . S
H533 C539 0.930 . S
C534 H520 0.930 . S
C534 C532 1.395 . S
C534 C537 1.403 . S
C535 C532 1.403 . S
C535 C536 1.524 . S
C535 C539 1.400 . S
C536 H521 0.960 . S
C536 H522 0.960 . S
C536 H523 0.960 . S
C536 C535 1.524 . S
C537 C534 1.403 . S
C537 C538 1.392 . S
C537 C541 1.495 . S
C538 C537 1.392 . S
C538 C539 1.385 . S
C538 C540 1.478 . S
C539 H533 0.930 . S
C539 C535 1.400 . S
C539 C538 1.385 . S
C540 C538 1.478 . S
C540 C542 1.381 . S
C540 C546 1.383 . S
C541 C537 1.495 . S
C541 H547 0.959 . S
C541 H548 0.961 . S
C541 H549 0.960 . S
C542 C540 1.381 . S
C542 C543 1.394 . S
C542 H550 0.930 . S
C543 C542 1.394 . S
C543 C544 1.383 . S
C543 H551 0.929 . S
C544 C543 1.383 . S
C544 C545 1.377 . S
C545 H529 0.930 . S
C545 C544 1.377 . S
C545 C546 1.379 . S
C546 H530 0.931 . S
C546 C540 1.383 . S
C546 C545 1.379 . S
H547 C541 0.959 . S
H548 C541 0.961 . S
H549 C541 0.960 . S
H550 C542 0.930 . S
H551 C543 0.929 . S
H552 C560 0.929 . S
H553 C562 0.930 . S
H554 C564 0.930 . S
H555 C567 0.929 . S
H556 C570 0.930 . S
H557 C572 0.960 . S
H558 C572 0.960 . S
H559 C572 0.960 . S
C560 H552 0.929 . S
C560 C561 1.377 . S
C560 C562 1.384 . S
C561 C560 1.377 . S
C561 C567 1.390 . S
C562 H553 0.930 . S
C562 C560 1.384 . S
C562 C563 1.372 . S
C563 C562 1.372 . S
C563 C564 1.400 . S
C563 C568 1.490 . S
C564 H554 0.930 . S
C564 C563 1.400 . S
C564 C567 1.386 . S
H565 C581 0.930 . S
H566 C582 0.931 . S
C567 H555 0.929 . S
C567 C561 1.390 . S
C567 C564 1.386 . S
C568 C563 1.490 . S
C568 C570 1.395 . S
C568 C571 1.403 . S
H569 C575 0.930 . S
C570 H556 0.930 . S
C570 C568 1.395 . S
C570 C573 1.403 . S
C571 C568 1.403 . S
C571 C572 1.524 . S
C571 C575 1.400 . S
C572 H557 0.960 . S
C572 H558 0.960 . S
C572 H559 0.960 . S
C572 C571 1.524 . S
C573 C570 1.403 . S
C573 C574 1.392 . S
C573 C577 1.495 . S
C574 C573 1.392 . S
C574 C575 1.385 . S
C574 C576 1.478 . S
C575 H569 0.930 . S
C575 C571 1.400 . S
C575 C574 1.385 . S
C576 C574 1.478 . S
C576 C578 1.381 . S
C576 C582 1.383 . S
C577 C573 1.495 . S
C577 H583 0.959 . S
C577 H584 0.961 . S
C577 H585 0.960 . S
C578 C576 1.381 . S
C578 C579 1.394 . S
C578 H586 0.930 . S
C579 C578 1.394 . S
C579 C580 1.383 . S
C579 H587 0.929 . S
C580 C579 1.383 . S
C580 C581 1.377 1_565 S
C581 H565 0.930 . S
C581 C580 1.377 1_545 S
C581 C582 1.379 1_545 S
C582 H566 0.931 . S
C582 C576 1.383 . S
C582 C581 1.379 1_565 S
H583 C577 0.959 . S
H584 C577 0.961 . S
H585 C577 0.960 . S
H586 C578 0.930 . S
H587 C579 0.929 . S
H588 C596 0.929 . S
H589 C598 0.930 . S
H590 C600 0.930 . S
H591 C603 0.929 . S
H592 C606 0.930 . S
H593 C608 0.960 . S
H594 C608 0.960 . S
H595 C608 0.960 . S
C596 H588 0.929 . S
C596 C597 1.377 . S
C596 C598 1.384 . S
C597 C596 1.377 . S
C597 C603 1.390 . S
C598 H589 0.930 . S
C598 C596 1.384 . S
C598 C599 1.372 . S
C599 C598 1.372 . S
C599 C600 1.400 . S
C599 C604 1.490 . S
C600 H590 0.930 . S
C600 C599 1.400 . S
C600 C603 1.386 . S
H601 C617 0.930 1_554 S
H602 C618 0.931 . S
C603 H591 0.929 . S
C603 C597 1.390 . S
C603 C600 1.386 . S
C604 C599 1.490 . S
C604 C606 1.395 . S
C604 C607 1.403 . S
H605 C611 0.930 . S
C606 H592 0.930 . S
C606 C604 1.395 . S
C606 C609 1.403 . S
C607 C604 1.403 . S
C607 C608 1.524 . S
C607 C611 1.400 . S
C608 H593 0.960 . S
C608 H594 0.960 . S
C608 H595 0.960 . S
C608 C607 1.524 . S
C609 C606 1.403 . S
C609 C610 1.392 . S
C609 C613 1.495 . S
C610 C609 1.392 . S
C610 C611 1.385 . S
C610 C612 1.478 . S
C611 H605 0.930 . S
C611 C607 1.400 . S
C611 C610 1.385 . S
C612 C610 1.478 . S
C612 C614 1.381 . S
C612 C618 1.383 . S
C613 C609 1.495 . S
C613 H619 0.959 . S
C613 H620 0.961 . S
C613 H621 0.960 . S
C614 C612 1.381 . S
C614 C615 1.394 . S
C614 H622 0.930 . S
C615 C614 1.394 . S
C615 C616 1.383 . S
C615 H623 0.929 . S
C616 C615 1.383 . S
C616 C617 1.377 . S
C617 H601 0.930 1_556 S
C617 C616 1.377 . S
C617 C618 1.379 . S
C618 H602 0.931 . S
C618 C612 1.383 . S
C618 C617 1.379 . S
H619 C613 0.959 . S
H620 C613 0.961 . S
H621 C613 0.960 . S
H622 C614 0.930 . S
H623 C615 0.929 . S
H624 C632 0.929 . S
H625 C634 0.930 . S
H626 C636 0.930 . S
H627 C639 0.929 . S
H628 C642 0.930 . S
H629 C644 0.960 . S
H630 C644 0.960 . S
H631 C644 0.960 . S
C632 H624 0.929 . S
C632 C633 1.377 . S
C632 C634 1.384 . S
C633 C632 1.377 . S
C633 C639 1.390 . S
C634 H625 0.930 . S
C634 C632 1.384 . S
C634 C635 1.372 . S
C635 C634 1.372 . S
C635 C636 1.400 . S
C635 C640 1.490 . S
C636 H626 0.930 . S
C636 C635 1.400 . S
C636 C639 1.386 . S
H637 C653 0.930 . S
H638 C654 0.931 . S
C639 H627 0.929 . S
C639 C633 1.390 . S
C639 C636 1.386 . S
C640 C635 1.490 . S
C640 C642 1.395 . S
C640 C643 1.403 . S
H641 C647 0.930 . S
C642 H628 0.930 . S
C642 C640 1.395 . S
C642 C645 1.403 . S
C643 C640 1.403 . S
C643 C644 1.524 . S
C643 C647 1.400 . S
C644 H629 0.960 . S
C644 H630 0.960 . S
C644 H631 0.960 . S
C644 C643 1.524 . S
C645 C642 1.403 . S
C645 C646 1.392 . S
C645 C649 1.495 . S
C646 C645 1.392 . S
C646 C647 1.385 . S
C646 C648 1.478 . S
C647 H641 0.930 . S
C647 C643 1.400 . S
C647 C646 1.385 . S
C648 C646 1.478 . S
C648 C650 1.381 . S
C648 C654 1.383 . S
C649 C645 1.495 . S
C649 H655 0.959 . S
C649 H656 0.961 . S
C649 H657 0.960 . S
C650 C648 1.381 . S
C650 C651 1.394 . S
C650 H658 0.930 . S
C651 C650 1.394 . S
C651 C652 1.383 . S
C651 H659 0.929 . S
C652 C651 1.383 . S
C652 C653 1.377 . S
C653 H637 0.930 . S
C653 C652 1.377 . S
C653 C654 1.379 . S
C654 H638 0.931 . S
C654 C648 1.383 . S
C654 C653 1.379 . S
H655 C649 0.959 . S
H656 C649 0.961 . S
H657 C649 0.960 . S
H658 C650 0.930 . S
H659 C651 0.929 . S
H660 C668 0.929 . S
H661 C670 0.930 . S
H662 C672 0.930 . S
H663 C675 0.929 . S
H664 C678 0.930 . S
H665 C680 0.960 . S
H666 C680 0.960 . S
H667 C680 0.960 . S
C668 H660 0.929 . S
C668 C669 1.377 . S
C668 C670 1.384 . S
C669 C668 1.377 . S
C669 C675 1.390 . S
C670 H661 0.930 . S
C670 C668 1.384 . S
C670 C671 1.372 . S
C671 C670 1.372 . S
C671 C672 1.400 . S
C671 C676 1.490 . S
C672 H662 0.930 . S
C672 C671 1.400 . S
C672 C675 1.386 . S
H673 C689 0.930 . S
H674 C690 0.931 . S
C675 H663 0.929 . S
C675 C669 1.390 . S
C675 C672 1.386 . S
C676 C671 1.490 . S
C676 C678 1.395 . S
C676 C679 1.403 . S
H677 C683 0.930 . S
C678 H664 0.930 . S
C678 C676 1.395 . S
C678 C681 1.403 . S
C679 C676 1.403 . S
C679 C680 1.524 . S
C679 C683 1.400 . S
C680 H665 0.960 . S
C680 H666 0.960 . S
C680 H667 0.960 . S
C680 C679 1.524 . S
C681 C678 1.403 . S
C681 C682 1.392 . S
C681 C685 1.495 . S
C682 C681 1.392 . S
C682 C683 1.385 . S
C682 C684 1.478 . S
C683 H677 0.930 . S
C683 C679 1.400 . S
C683 C682 1.385 . S
C684 C682 1.478 . S
C684 C686 1.381 . S
C684 C690 1.383 . S
C685 C681 1.495 . S
C685 H691 0.959 . S
C685 H692 0.961 . S
C685 H693 0.960 . S
C686 C684 1.381 . S
C686 C687 1.394 . S
C686 H694 0.930 . S
C687 C686 1.394 . S
C687 C688 1.383 . S
C687 H695 0.929 . S
C688 C687 1.383 . S
C688 C689 1.377 . S
C689 H673 0.930 . S
C689 C688 1.377 . S
C689 C690 1.379 . S
C690 H674 0.931 . S
C690 C684 1.383 . S
C690 C689 1.379 . S
H691 C685 0.959 . S
H692 C685 0.961 . S
H693 C685 0.960 . S
H694 C686 0.930 . S
H695 C687 0.929 . S
H696 C704 0.929 . S
H697 C706 0.930 . S
H698 C708 0.930 . S
H699 C711 0.929 . S
H700 C714 0.930 . S
H701 C716 0.960 . S
H702 C716 0.960 . S
H703 C716 0.960 . S
C704 H696 0.929 . S
C704 C705 1.377 . S
C704 C706 1.384 . S
C705 C704 1.377 . S
C705 C711 1.390 . S
C706 H697 0.930 . S
C706 C704 1.384 . S
C706 C707 1.372 . S
C707 C706 1.372 . S
C707 C708 1.400 . S
C707 C712 1.490 . S
C708 H698 0.930 . S
C708 C707 1.400 . S
C708 C711 1.386 . S
H709 C725 0.930 1_554 S
H710 C726 0.931 . S
C711 H699 0.929 . S
C711 C705 1.390 . S
C711 C708 1.386 . S
C712 C707 1.490 . S
C712 C714 1.395 . S
C712 C715 1.403 . S
H713 C719 0.930 . S
C714 H700 0.930 . S
C714 C712 1.395 . S
C714 C717 1.403 . S
C715 C712 1.403 . S
C715 C716 1.524 . S
C715 C719 1.400 . S
C716 H701 0.960 . S
C716 H702 0.960 . S
C716 H703 0.960 . S
C716 C715 1.524 . S
C717 C714 1.403 . S
C717 C718 1.392 . S
C717 C721 1.495 . S
C718 C717 1.392 . S
C718 C719 1.385 . S
C718 C720 1.478 . S
C719 H713 0.930 . S
C719 C715 1.400 . S
C719 C718 1.385 . S
C720 C718 1.478 . S
C720 C722 1.381 . S
C720 C726 1.383 . S
C721 C717 1.495 . S
C721 H727 0.959 . S
C721 H728 0.961 . S
C721 H729 0.960 . S
C722 C720 1.381 . S
C722 C723 1.394 . S
C722 H730 0.930 . S
C723 C722 1.394 . S
C723 C724 1.383 . S
C723 H731 0.929 . S
C724 C723 1.383 . S
C724 C725 1.377 . S
C725 H709 0.930 1_556 S
C725 C724 1.377 . S
C725 C726 1.379 . S
C726 H710 0.931 . S
C726 C720 1.383 . S
C726 C725 1.379 . S
H727 C721 0.959 . S
H728 C721 0.961 . S
H729 C721 0.960 . S
H730 C722 0.930 . S
H731 C723 0.929 . S
H732 C740 0.929 . S
H733 C742 0.930 . S
H734 C744 0.930 . S
H735 C747 0.929 . S
H736 C750 0.930 . S
H737 C752 0.960 . S
H738 C752 0.960 . S
H739 C752 0.960 . S
C740 H732 0.929 . S
C740 C741 1.377 . S
C740 C742 1.384 . S
C741 C740 1.377 . S
C741 C747 1.390 . S
C742 H733 0.930 . S
C742 C740 1.384 . S
C742 C743 1.372 . S
C743 C742 1.372 . S
C743 C744 1.400 . S
C743 C748 1.490 . S
C744 H734 0.930 . S
C744 C743 1.400 . S
C744 C747 1.386 . S
H745 C761 0.930 . S
H746 C762 0.931 . S
C747 H735 0.929 . S
C747 C741 1.390 . S
C747 C744 1.386 . S
C748 C743 1.490 . S
C748 C750 1.395 . S
C748 C751 1.403 . S
H749 C755 0.930 . S
C750 H736 0.930 . S
C750 C748 1.395 . S
C750 C753 1.403 . S
C751 C748 1.403 . S
C751 C752 1.524 . S
C751 C755 1.400 . S
C752 H737 0.960 . S
C752 H738 0.960 . S
C752 H739 0.960 . S
C752 C751 1.524 . S
C753 C750 1.403 . S
C753 C754 1.392 . S
C753 C757 1.495 . S
C754 C753 1.392 . S
C754 C755 1.385 . S
C754 C756 1.478 . S
C755 H749 0.930 . S
C755 C751 1.400 . S
C755 C754 1.385 . S
C756 C754 1.478 . S
C756 C758 1.381 . S
C756 C762 1.383 . S
C757 C753 1.495 . S
C757 H763 0.959 . S
C757 H764 0.961 . S
C757 H765 0.957 1_655 S
C758 C756 1.381 . S
C758 C759 1.394 . S
C758 H766 0.930 . S
C759 C758 1.394 . S
C759 C760 1.383 . S
C759 H767 0.929 . S
C760 C759 1.383 . S
C760 C761 1.377 . S
C761 H745 0.930 . S
C761 C760 1.377 . S
C761 C762 1.379 . S
C762 H746 0.931 . S
C762 C756 1.383 . S
C762 C761 1.379 . S
H763 C757 0.959 . S
H764 C757 0.961 . S
H765 C757 0.957 1_455 S
H766 C758 0.930 . S
H767 C759 0.929 . S
H768 C776 0.929 . S
H769 C778 0.930 . S
H770 C780 0.930 . S
H771 C783 0.929 . S
H772 C786 0.930 . S
H773 C788 0.960 . S
H774 C788 0.960 . S
H775 C788 0.960 . S
C776 H768 0.929 . S
C776 C777 1.377 . S
C776 C778 1.384 . S
C777 C776 1.377 . S
C777 C783 1.390 . S
C778 H769 0.930 . S
C778 C776 1.384 . S
C778 C779 1.372 . S
C779 C778 1.372 . S
C779 C780 1.400 . S
C779 C784 1.490 . S
C780 H770 0.930 . S
C780 C779 1.400 . S
C780 C783 1.386 . S
H781 C797 0.930 . S
H782 C798 0.931 . S
C783 H771 0.929 . S
C783 C777 1.390 . S
C783 C780 1.386 . S
C784 C779 1.490 . S
C784 C786 1.395 . S
C784 C787 1.403 . S
H785 C791 0.930 . S
C786 H772 0.930 . S
C786 C784 1.395 . S
C786 C789 1.403 . S
C787 C784 1.403 . S
C787 C788 1.524 . S
C787 C791 1.400 . S
C788 H773 0.960 . S
C788 H774 0.960 . S
C788 H775 0.960 . S
C788 C787 1.524 . S
C789 C786 1.403 . S
C789 C790 1.392 . S
C789 C793 1.495 . S
C790 C789 1.392 . S
C790 C791 1.385 . S
C790 C792 1.478 . S
C791 H785 0.930 . S
C791 C787 1.400 . S
C791 C790 1.385 . S
C792 C790 1.478 . S
C792 C794 1.381 . S
C792 C798 1.383 . S
C793 C789 1.495 . S
C793 H799 0.959 . S
C793 H800 0.961 . S
C793 H801 0.960 . S
C794 C792 1.381 . S
C794 C795 1.394 . S
C794 H802 0.930 . S
C795 C794 1.394 . S
C795 C796 1.383 . S
C795 H803 0.929 . S
C796 C795 1.383 . S
C796 C797 1.377 . S
C797 H781 0.930 . S
C797 C796 1.377 . S
C797 C798 1.379 . S
C798 H782 0.931 . S
C798 C792 1.383 . S
C798 C797 1.379 . S
H799 C793 0.959 . S
H800 C793 0.961 . S
H801 C793 0.960 . S
H802 C794 0.930 . S
H803 C795 0.929 . S
H804 C812 0.929 . S
H805 C814 0.930 . S
H806 C816 0.932 1_445 S
H807 C819 0.929 1_445 S
H808 C822 0.930 . S
H809 C824 0.960 . S
H810 C824 0.960 . S
H811 C824 0.960 . S
C812 H804 0.929 . S
C812 C813 1.377 . S
C812 C814 1.384 . S
C813 C812 1.377 . S
C813 C819 1.390 . S
C814 H805 0.930 . S
C814 C812 1.384 . S
C814 C815 1.372 . S
C815 C814 1.372 . S
C815 C816 1.398 . S
C815 C820 1.490 . S
C816 H806 0.932 1_665 S
C816 C815 1.398 . S
C816 C819 1.385 . S
H817 C833 0.930 . S
H818 C834 0.931 . S
C819 H807 0.929 1_665 S
C819 C813 1.390 . S
C819 C816 1.385 . S
C820 C815 1.490 . S
C820 C822 1.395 1_565 S
C820 C823 1.405 . S
H821 C827 0.928 . S
C822 H808 0.930 . S
C822 C820 1.395 1_545 S
C822 C825 1.403 . S
C823 C820 1.405 . S
C823 C824 1.522 1_655 S
C823 C827 1.400 1_655 S
C824 H809 0.960 . S
C824 H810 0.960 . S
C824 H811 0.960 . S
C824 C823 1.522 1_455 S
C825 C822 1.403 . S
C825 C826 1.392 . S
C825 C829 1.495 . S
C826 C825 1.392 . S
C826 C827 1.387 1_645 S
C826 C828 1.478 . S
C827 H821 0.928 . S
C827 C823 1.400 1_455 S
C827 C826 1.387 1_465 S
C828 C826 1.478 . S
C828 C830 1.388 . S
C828 C834 1.383 1_655 S
C829 C825 1.495 . S
C829 H835 0.959 . S
C829 H836 0.961 . S
C829 H837 0.960 . S
C830 C828 1.388 . S
C830 C831 1.396 . S
C830 H838 0.921 1_545 S
C831 C830 1.396 . S
C831 C832 1.383 . S
C831 H839 0.929 1_545 S
C832 C831 1.383 . S
C832 C833 1.377 1_655 S
C833 H817 0.930 . S
C833 C832 1.377 1_455 S
C833 C834 1.379 . S
C834 H818 0.931 . S
C834 C828 1.383 1_455 S
C834 C833 1.379 . S
H835 C829 0.959 . S
H836 C829 0.961 . S
H837 C829 0.960 . S
H838 C830 0.921 1_565 S
H839 C831 0.929 1_565 S
H840 C848 0.929 . S
H841 C850 0.930 . S
H842 C852 0.930 . S
H843 C855 0.929 . S
H844 C858 0.930 . S
H845 C860 0.960 1_565 S
H846 C860 0.960 . S
H847 C860 0.939 1_565 S
C848 H840 0.929 . S
C848 C849 1.377 . S
C848 C850 1.384 . S
C849 C848 1.377 . S
C849 C855 1.390 . S
C850 H841 0.930 . S
C850 C848 1.384 . S
C850 C851 1.372 . S
C851 C850 1.372 . S
C851 C852 1.400 . S
C851 C856 1.490 . S
C852 H842 0.930 . S
C852 C851 1.400 . S
C852 C855 1.386 . S
H853 C869 0.930 1_565 S
H854 C870 0.931 . S
C855 H843 0.929 . S
C855 C849 1.390 . S
C855 C852 1.386 . S
C856 C851 1.490 . S
C856 C858 1.395 . S
C856 C859 1.403 . S
H857 C863 0.930 . S
C858 H844 0.930 . S
C858 C856 1.395 . S
C858 C861 1.403 . S
C859 C856 1.403 . S
C859 C860 1.524 . S
C859 C863 1.400 . S
C860 H845 0.960 1_545 S
C860 H846 0.960 . S
C860 H847 0.939 1_545 S
C860 C859 1.524 . S
C861 C858 1.403 . S
C861 C862 1.392 . S
C861 C865 1.495 . S
C862 C861 1.392 . S
C862 C863 1.385 . S
C862 C864 1.478 . S
C863 H857 0.930 . S
C863 C859 1.400 . S
C863 C862 1.385 . S
C864 C862 1.478 . S
C864 C866 1.381 . S
C864 C870 1.383 . S
C865 C861 1.495 . S
C865 H871 0.959 . S
C865 H872 0.961 . S
C865 H873 0.960 . S
C866 C864 1.381 . S
C866 C867 1.394 . S
C866 H874 0.930 . S
C867 C866 1.394 . S
C867 C868 1.383 . S
C867 H875 0.929 . S
C868 C867 1.383 . S
C868 C869 1.377 . S
C869 H853 0.930 1_545 S
C869 C868 1.377 . S
C869 C870 1.379 . S
C870 H854 0.931 . S
C870 C864 1.383 . S
C870 C869 1.379 . S
H871 C865 0.959 . S
H872 C865 0.961 . S
H873 C865 0.960 . S
H874 C866 0.930 . S
H875 C867 0.929 . S
H876 C884 0.929 . S
H877 C886 0.930 . S
H878 C888 0.930 . S
H879 C891 0.929 . S
H880 C894 0.930 . S
H881 C896 0.960 . S
H882 C896 0.960 . S
H883 C896 0.960 . S
C884 H876 0.929 . S
C884 C885 1.377 . S
C884 C886 1.384 . S
C885 C884 1.377 . S
C885 C891 1.390 . S
C886 H877 0.930 . S
C886 C884 1.384 . S
C886 C887 1.372 . S
C887 C886 1.372 . S
C887 C888 1.400 . S
C887 C892 1.490 . S
C888 H878 0.930 . S
C888 C887 1.400 . S
C888 C891 1.386 . S
H889 C905 0.930 . S
H890 C906 0.931 . S
C891 H879 0.929 . S
C891 C885 1.390 . S
C891 C888 1.386 . S
C892 C887 1.490 . S
C892 C894 1.395 . S
C892 C895 1.403 . S
H893 C899 0.930 . S
C894 H880 0.930 . S
C894 C892 1.395 . S
C894 C897 1.403 . S
C895 C892 1.403 . S
C895 C896 1.524 . S
C895 C899 1.400 . S
C896 H881 0.960 . S
C896 H882 0.960 . S
C896 H883 0.960 . S
C896 C895 1.524 . S
C897 C894 1.403 . S
C897 C898 1.392 . S
C897 C901 1.495 . S
C898 C897 1.392 . S
C898 C899 1.385 . S
C898 C900 1.478 . S
C899 H893 0.930 . S
C899 C895 1.400 . S
C899 C898 1.385 . S
C900 C898 1.478 . S
C900 C902 1.381 . S
C900 C906 1.383 . S
C901 C897 1.495 . S
C901 H907 0.959 . S
C901 H908 0.961 . S
C901 H909 0.960 . S
C902 C900 1.381 . S
C902 C903 1.394 . S
C902 H910 0.930 . S
C903 C902 1.394 . S
C903 C904 1.383 . S
C903 H911 0.929 . S
C904 C903 1.383 . S
C904 C905 1.377 . S
C905 H889 0.930 . S
C905 C904 1.377 . S
C905 C906 1.379 . S
C906 H890 0.931 . S
C906 C900 1.383 . S
C906 C905 1.379 . S
H907 C901 0.959 . S
H908 C901 0.961 . S
H909 C901 0.960 . S
H910 C902 0.930 . S
H911 C903 0.929 . S
H912 C920 0.929 . S
H913 C922 0.930 . S
H914 C924 0.930 . S
H915 C927 0.929 . S
H916 C930 0.930 . S
H917 C932 0.960 . S
H918 C932 0.960 . S
H919 C932 0.960 . S
C920 H912 0.929 . S
C920 C921 1.377 . S
C920 C922 1.384 . S
C921 C920 1.377 . S
C921 C927 1.390 . S
C922 H913 0.930 . S
C922 C920 1.384 . S
C922 C923 1.372 . S
C923 C922 1.372 . S
C923 C924 1.400 . S
C923 C928 1.490 . S
C924 H914 0.930 . S
C924 C923 1.400 . S
C924 C927 1.386 . S
H925 C941 0.930 . S
H926 C942 0.931 . S
C927 H915 0.929 . S
C927 C921 1.390 . S
C927 C924 1.386 . S
C928 C923 1.490 . S
C928 C930 1.395 . S
C928 C931 1.403 . S
H929 C935 0.930 . S
C930 H916 0.930 . S
C930 C928 1.395 . S
C930 C933 1.403 . S
C931 C928 1.403 . S
C931 C932 1.524 . S
C931 C935 1.400 . S
C932 H917 0.960 . S
C932 H918 0.960 . S
C932 H919 0.960 . S
C932 C931 1.524 . S
C933 C930 1.403 . S
C933 C934 1.392 . S
C933 C937 1.495 . S
C934 C933 1.392 . S
C934 C935 1.385 . S
C934 C936 1.478 . S
C935 H929 0.930 . S
C935 C931 1.400 . S
C935 C934 1.385 . S
C936 C934 1.478 . S
C936 C938 1.381 . S
C936 C942 1.383 . S
C937 C933 1.495 . S
C937 H943 0.959 . S
C937 H944 0.961 . S
C937 H945 0.960 . S
C938 C936 1.381 . S
C938 C939 1.394 . S
C938 H946 0.930 . S
C939 C938 1.394 . S
C939 C940 1.383 . S
C939 H947 0.929 . S
C940 C939 1.383 . S
C940 C941 1.377 . S
C941 H925 0.930 . S
C941 C940 1.377 . S
C941 C942 1.379 . S
C942 H926 0.931 . S
C942 C936 1.383 . S
C942 C941 1.379 . S
H943 C937 0.959 . S
H944 C937 0.961 . S
H945 C937 0.960 . S
H946 C938 0.930 . S
H947 C939 0.929 . S
H948 C956 0.929 . S
H949 C958 0.930 . S
H950 C960 0.930 1_545 S
H951 C963 0.929 . S
H952 C966 0.930 . S
H953 C968 0.960 . S
H954 C968 0.960 . S
H955 C968 0.960 . S
C956 H948 0.929 . S
C956 C957 1.377 1_554 S
C956 C958 1.384 . S
C957 C956 1.377 1_556 S
C957 C963 1.390 . S
C958 H949 0.930 . S
C958 C956 1.384 . S
C958 C959 1.372 1_554 S
C959 C958 1.372 1_556 S
C959 C960 1.400 . S
C959 C964 1.490 . S
C960 H950 0.930 1_565 S
C960 C959 1.400 . S
C960 C963 1.386 . S
H961 C977 0.933 1_556 S
H962 C978 0.931 . S
C963 H951 0.929 . S
C963 C957 1.390 . S
C963 C960 1.386 . S
C964 C959 1.490 . S
C964 C966 1.395 1_556 S
C964 C967 1.403 . S
H965 C971 0.930 . S
C966 H952 0.930 . S
C966 C964 1.395 1_554 S
C966 C969 1.403 . S
C967 C964 1.403 . S
C967 C968 1.524 . S
C967 C971 1.400 . S
C968 H953 0.960 . S
C968 H954 0.960 . S
C968 H955 0.960 . S
C968 C967 1.524 . S
C969 C966 1.403 . S
C969 C970 1.392 . S
C969 C973 1.495 1_565 S
C970 C969 1.392 . S
C970 C971 1.385 1_554 S
C970 C972 1.478 . S
C971 H965 0.930 . S
C971 C967 1.400 . S
C971 C970 1.385 1_556 S
C972 C970 1.478 . S
C972 C974 1.381 . S
C972 C978 1.383 1_564 S
C973 C969 1.495 1_545 S
C973 H979 0.959 . S
C973 H980 0.961 . S
C973 H981 0.960 1_545 S
C974 C972 1.381 . S
C974 C975 1.394 . S
C974 H982 0.930 . S
C975 C974 1.394 . S
C975 C976 1.383 . S
C975 H983 0.929 . S
C976 C975 1.383 . S
C976 C977 1.373 1_565 S
C977 H961 0.933 1_554 S
C977 C976 1.373 1_545 S
C977 C978 1.380 1_554 S
C978 H962 0.931 . S
C978 C972 1.383 1_546 S
C978 C977 1.380 1_556 S
H979 C973 0.959 . S
H980 C973 0.961 . S
H981 C973 0.960 1_565 S
H982 C974 0.930 . S
H983 C975 0.929 . S
H984 C992 0.929 . S
H985 C994 0.930 . S
H986 C996 0.930 . S
H987 C999 0.929 . S
H988 C1002 0.930 . S
H989 C1004 0.960 . S
H990 C1004 0.960 . S
H991 C1004 0.960 . S
C992 H984 0.929 . S
C992 C993 1.377 . S
C992 C994 1.384 . S
C993 C992 1.377 . S
C993 C999 1.390 . S
C994 H985 0.930 . S
C994 C992 1.384 . S
C994 C995 1.372 . S
C995 C994 1.372 . S
C995 C996 1.400 . S
C995 C1000 1.490 . S
C996 H986 0.930 . S
C996 C995 1.400 . S
C996 C999 1.386 . S
H997 C1013 0.930 . S
H998 C1014 0.931 . S
C999 H987 0.929 . S
C999 C993 1.390 . S
C999 C996 1.386 . S
C1000 C995 1.490 . S
C1000 C1002 1.395 . S
C1000 C1003 1.403 . S
H1001 C1007 0.930 . S
C1002 H988 0.930 . S
C1002 C1000 1.395 . S
C1002 C1005 1.403 . S
C1003 C1000 1.403 . S
C1003 C1004 1.524 . S
C1003 C1007 1.400 . S
C1004 H989 0.960 . S
C1004 H990 0.960 . S
C1004 H991 0.960 . S
C1004 C1003 1.524 . S
C1005 C1002 1.403 . S
C1005 C1006 1.392 . S
C1005 C1009 1.495 . S
C1006 C1005 1.392 . S
C1006 C1007 1.385 . S
C1006 C1008 1.478 . S
C1007 H1001 0.930 . S
C1007 C1003 1.400 . S
C1007 C1006 1.385 . S
C1008 C1006 1.478 . S
C1008 C1010 1.381 . S
C1008 C1014 1.383 . S
C1009 C1005 1.495 . S
C1009 H1015 0.959 . S
C1009 H1016 0.961 . S
C1009 H1017 0.960 . S
C1010 C1008 1.381 . S
C1010 C1011 1.394 . S
C1010 H1018 0.930 . S
C1011 C1010 1.394 . S
C1011 C1012 1.383 . S
C1011 H1019 0.929 . S
C1012 C1011 1.383 . S
C1012 C1013 1.377 . S
C1013 H997 0.930 . S
C1013 C1012 1.377 . S
C1013 C1014 1.379 . S
C1014 H998 0.931 . S
C1014 C1008 1.383 . S
C1014 C1013 1.379 . S
H1015 C1009 0.959 . S
H1016 C1009 0.961 . S
H1017 C1009 0.960 . S
H1018 C1010 0.930 . S
H1019 C1011 0.929 . S
H1020 C1028 0.929 . S
H1021 C1030 0.930 . S
H1022 C1032 0.930 . S
H1023 C1035 0.929 . S
H1024 C1038 0.930 . S
H1025 C1040 0.960 . S
H1026 C1040 0.960 . S
H1027 C1040 0.960 . S
C1028 H1020 0.929 . S
C1028 C1029 1.377 . S
C1028 C1030 1.384 . S
C1029 C1028 1.377 . S
C1029 C1035 1.390 . S
C1030 H1021 0.930 . S
C1030 C1028 1.384 . S
C1030 C1031 1.372 . S
C1031 C1030 1.372 . S
C1031 C1032 1.400 . S
C1031 C1036 1.490 . S
C1032 H1022 0.930 . S
C1032 C1031 1.400 . S
C1032 C1035 1.386 . S
H1033 C1049 0.930 . S
H1034 C1050 0.931 . S
C1035 H1023 0.929 . S
C1035 C1029 1.390 . S
C1035 C1032 1.386 . S
C1036 C1031 1.490 . S
C1036 C1038 1.395 . S
C1036 C1039 1.403 . S
H1037 C1043 0.962 . S
C1038 H1024 0.930 . S
C1038 C1036 1.395 . S
C1038 C1041 1.403 . S
C1039 C1036 1.403 . S
C1039 C1040 1.524 1_554 S
C1039 C1043 1.400 . S
C1040 H1025 0.960 . S
C1040 H1026 0.960 . S
C1040 H1027 0.960 . S
C1040 C1039 1.524 1_556 S
C1041 C1038 1.403 . S
C1041 C1042 1.392 . S
C1041 C1045 1.495 . S
C1042 C1041 1.392 . S
C1042 C1043 1.385 . S
C1042 C1044 1.478 . S
C1043 H1037 0.962 . S
C1043 C1039 1.400 . S
C1043 C1042 1.385 . S
C1044 C1042 1.478 . S
C1044 C1046 1.381 . S
C1044 C1050 1.383 . S
C1045 C1041 1.495 . S
C1045 H1051 0.959 . S
C1045 H1052 0.961 . S
C1045 H1053 0.960 . S
C1046 C1044 1.381 . S
C1046 C1047 1.394 . S
C1046 H1054 0.930 . S
C1047 C1046 1.394 . S
C1047 C1048 1.383 . S
C1047 H1055 0.929 . S
C1048 C1047 1.383 . S
C1048 C1049 1.377 . S
C1049 H1033 0.930 . S
C1049 C1048 1.377 . S
C1049 C1050 1.379 . S
C1050 H1034 0.931 . S
C1050 C1044 1.383 . S
C1050 C1049 1.379 . S
H1051 C1045 0.959 . S
H1052 C1045 0.961 . S
H1053 C1045 0.960 . S
H1054 C1046 0.930 . S
H1055 C1047 0.929 . S
H1056 C1064 0.929 . S
H1057 C1066 0.930 . S
H1058 C1068 0.930 . S
H1059 C1071 0.929 . S
H1060 C1074 0.930 . S
H1061 C1076 0.960 . S
H1062 C1076 0.960 . S
H1063 C1076 0.960 . S
C1064 H1056 0.929 . S
C1064 C1065 1.377 . S
C1064 C1066 1.384 . S
C1065 C1064 1.377 . S
C1065 C1071 1.390 . S
C1066 H1057 0.930 . S
C1066 C1064 1.384 . S
C1066 C1067 1.372 . S
C1067 C1066 1.372 . S
C1067 C1068 1.400 . S
C1067 C1072 1.490 . S
C1068 H1058 0.930 . S
C1068 C1067 1.400 . S
C1068 C1071 1.386 . S
H1069 C1085 0.930 . S
H1070 C1086 0.931 . S
C1071 H1059 0.929 . S
C1071 C1065 1.390 . S
C1071 C1068 1.386 . S
C1072 C1067 1.490 . S
C1072 C1074 1.395 . S
C1072 C1075 1.403 . S
H1073 C1079 0.930 . S
C1074 H1060 0.930 . S
C1074 C1072 1.395 . S
C1074 C1077 1.403 . S
C1075 C1072 1.403 . S
C1075 C1076 1.524 . S
C1075 C1079 1.400 . S
C1076 H1061 0.960 . S
C1076 H1062 0.960 . S
C1076 H1063 0.960 . S
C1076 C1075 1.524 . S
C1077 C1074 1.403 . S
C1077 C1078 1.392 . S
C1077 C1081 1.495 . S
C1078 C1077 1.392 . S
C1078 C1079 1.385 . S
C1078 C1080 1.478 . S
C1079 H1073 0.930 . S
C1079 C1075 1.400 . S
C1079 C1078 1.385 . S
C1080 C1078 1.478 . S
C1080 C1082 1.381 . S
C1080 C1086 1.383 . S
C1081 C1077 1.495 . S
C1081 H1087 0.959 . S
C1081 H1088 0.961 . S
C1081 H1089 0.960 . S
C1082 C1080 1.381 . S
C1082 C1083 1.394 . S
C1082 H1090 0.930 . S
C1083 C1082 1.394 . S
C1083 C1084 1.383 . S
C1083 H1091 0.929 . S
C1084 C1083 1.383 . S
C1084 C1085 1.377 . S
C1085 H1069 0.930 . S
C1085 C1084 1.377 . S
C1085 C1086 1.379 . S
C1086 H1070 0.931 . S
C1086 C1080 1.383 . S
C1086 C1085 1.379 . S
H1087 C1081 0.959 . S
H1088 C1081 0.961 . S
H1089 C1081 0.960 . S
H1090 C1082 0.930 . S
H1091 C1083 0.929 . S
H1092 C1100 0.929 . S
H1093 C1102 0.930 . S
H1094 C1104 0.930 1_554 S
H1095 C1107 0.929 1_554 S
H1096 C1110 0.930 . S
H1097 C1112 0.960 . S
H1098 C1112 0.960 . S
H1099 C1112 0.960 . S
C1100 H1092 0.929 . S
C1100 C1101 1.377 1_455 S
C1100 C1102 1.384 . S
C1101 C1100 1.377 1_655 S
C1101 C1107 1.390 . S
C1102 H1093 0.930 . S
C1102 C1100 1.384 . S
C1102 C1103 1.372 1_455 S
C1103 C1102 1.372 1_655 S
C1103 C1104 1.400 . S
C1103 C1108 1.490 . S
C1104 H1094 0.930 1_556 S
C1104 C1103 1.400 . S
C1104 C1107 1.386 . S
H1105 C1121 0.930 1_655 S
H1106 C1122 0.931 1_655 S
C1107 H1095 0.929 1_556 S
C1107 C1101 1.390 . S
C1107 C1104 1.386 . S
C1108 C1103 1.490 . S
C1108 C1110 1.395 1_655 S
C1108 C1111 1.403 . S
H1109 C1115 0.930 . S
C1110 H1096 0.930 . S
C1110 C1108 1.395 1_455 S
C1110 C1113 1.403 . S
C1111 C1108 1.403 . S
C1111 C1112 1.524 . S
C1111 C1115 1.400 . S
C1112 H1097 0.960 . S
C1112 H1098 0.960 . S
C1112 H1099 0.960 . S
C1112 C1111 1.524 . S
C1113 C1110 1.403 . S
C1113 C1114 1.392 . S
C1113 C1117 1.495 . S
C1114 C1113 1.392 . S
C1114 C1115 1.385 1_455 S
C1114 C1116 1.478 . S
C1115 H1109 0.930 . S
C1115 C1111 1.400 . S
C1115 C1114 1.385 1_655 S
C1116 C1114 1.478 . S
C1116 C1118 1.381 . S
C1116 C1122 1.383 1_556 S
C1117 C1113 1.495 . S
C1117 H1123 0.961 . S
C1117 H1124 0.961 1_556 S
C1117 H1125 0.960 . S
C1118 C1116 1.381 . S
C1118 C1119 1.394 . S
C1118 H1126 0.930 . S
C1119 C1118 1.394 . S
C1119 C1120 1.383 . S
C1119 H1127 0.929 . S
C1120 C1119 1.383 . S
C1120 C1121 1.377 1_556 S
C1121 H1105 0.930 1_455 S
C1121 C1120 1.377 1_554 S
C1121 C1122 1.379 . S
C1122 H1106 0.931 1_455 S
C1122 C1116 1.383 1_554 S
C1122 C1121 1.379 . S
H1123 C1117 0.961 . S
H1124 C1117 0.961 1_554 S
H1125 C1117 0.960 . S
H1126 C1118 0.930 . S
H1127 C1119 0.929 . S
H1128 C1136 0.929 . S
H1129 C1138 0.930 . S
H1130 C1140 0.930 . S
H1131 C1143 0.929 . S
H1132 C1146 0.930 . S
H1133 C1148 0.960 . S
H1134 C1148 0.960 . S
H1135 C1148 0.960 . S
C1136 H1128 0.929 . S
C1136 C1137 1.377 . S
C1136 C1138 1.384 . S
C1137 C1136 1.377 . S
C1137 C1143 1.390 . S
C1138 H1129 0.930 . S
C1138 C1136 1.384 . S
C1138 C1139 1.372 . S
C1139 C1138 1.372 . S
C1139 C1140 1.400 . S
C1139 C1144 1.490 . S
C1140 H1130 0.930 . S
C1140 C1139 1.400 . S
C1140 C1143 1.386 . S
H1141 C1157 0.930 . S
H1142 C1158 0.931 . S
C1143 H1131 0.929 . S
C1143 C1137 1.390 . S
C1143 C1140 1.386 . S
C1144 C1139 1.490 . S
C1144 C1146 1.395 . S
C1144 C1147 1.403 . S
H1145 C1151 0.930 . S
C1146 H1132 0.930 . S
C1146 C1144 1.395 . S
C1146 C1149 1.403 . S
C1147 C1144 1.403 . S
C1147 C1148 1.524 . S
C1147 C1151 1.400 . S
C1148 H1133 0.960 . S
C1148 H1134 0.960 . S
C1148 H1135 0.960 . S
C1148 C1147 1.524 . S
C1149 C1146 1.403 . S
C1149 C1150 1.392 . S
C1149 C1153 1.495 . S
C1150 C1149 1.392 . S
C1150 C1151 1.385 . S
C1150 C1152 1.478 . S
C1151 H1145 0.930 . S
C1151 C1147 1.400 . S
C1151 C1150 1.385 . S
C1152 C1150 1.478 . S
C1152 C1154 1.381 . S
C1152 C1158 1.383 . S
C1153 C1149 1.495 . S
C1153 H1159 0.959 . S
C1153 H1160 0.961 . S
C1153 H1161 0.960 . S
C1154 C1152 1.381 . S
C1154 C1155 1.394 . S
C1154 H1162 0.930 . S
C1155 C1154 1.394 . S
C1155 C1156 1.383 . S
C1155 H1163 0.929 . S
C1156 C1155 1.383 . S
C1156 C1157 1.377 . S
C1157 H1141 0.930 . S
C1157 C1156 1.377 . S
C1157 C1158 1.379 . S
C1158 H1142 0.931 . S
C1158 C1152 1.383 . S
C1158 C1157 1.379 . S
H1159 C1153 0.959 . S
H1160 C1153 0.961 . S
H1161 C1153 0.960 . S
H1162 C1154 0.930 . S
H1163 C1155 0.929 . S
H1164 C1172 0.929 . S
H1165 C1174 0.930 . S
H1166 C1176 0.930 . S
H1167 C1179 0.929 . S
H1168 C1182 0.930 . S
H1169 C1184 0.960 . S
H1170 C1184 0.960 . S
H1171 C1184 0.960 . S
C1172 H1164 0.929 . S
C1172 C1173 1.377 . S
C1172 C1174 1.384 . S
C1173 C1172 1.377 . S
C1173 C1179 1.390 . S
C1174 H1165 0.930 . S
C1174 C1172 1.384 . S
C1174 C1175 1.372 . S
C1175 C1174 1.372 . S
C1175 C1176 1.400 . S
C1175 C1180 1.490 . S
C1176 H1166 0.930 . S
C1176 C1175 1.400 . S
C1176 C1179 1.386 . S
H1177 C1193 0.930 1_655 S
H1178 C1194 0.926 1_655 S
C1179 H1167 0.929 . S
C1179 C1173 1.390 . S
C1179 C1176 1.386 . S
C1180 C1175 1.490 . S
C1180 C1182 1.395 . S
C1180 C1183 1.403 . S
H1181 C1187 0.930 . S
C1182 H1168 0.930 . S
C1182 C1180 1.395 . S
C1182 C1185 1.403 . S
C1183 C1180 1.403 . S
C1183 C1184 1.524 . S
C1183 C1187 1.400 . S
C1184 H1169 0.960 . S
C1184 H1170 0.960 . S
C1184 H1171 0.960 . S
C1184 C1183 1.524 . S
C1185 C1182 1.403 . S
C1185 C1186 1.392 . S
C1185 C1189 1.495 . S
C1186 C1185 1.392 . S
C1186 C1187 1.385 . S
C1186 C1188 1.478 . S
C1187 H1181 0.930 . S
C1187 C1183 1.400 . S
C1187 C1186 1.385 . S
C1188 C1186 1.478 . S
C1188 C1190 1.381 . S
C1188 C1194 1.383 . S
C1189 C1185 1.495 . S
C1189 H1195 0.959 . S
C1189 H1196 0.926 1_455 S
C1189 H1197 0.960 . S
C1190 C1188 1.381 . S
C1190 C1191 1.394 . S
C1190 H1198 0.930 . S
C1191 C1190 1.394 . S
C1191 C1192 1.383 . S
C1191 H1199 0.929 . S
C1192 C1191 1.383 . S
C1192 C1193 1.377 . S
C1193 H1177 0.930 1_455 S
C1193 C1192 1.377 . S
C1193 C1194 1.379 . S
C1194 H1178 0.926 1_455 S
C1194 C1188 1.383 . S
C1194 C1193 1.379 . S
H1195 C1189 0.959 . S
H1196 C1189 0.926 1_655 S
H1197 C1189 0.960 . S
H1198 C1190 0.930 . S
H1199 C1191 0.929 . S
H1200 C1208 0.929 . S
H1201 C1210 0.930 . S
H1202 C1212 0.930 . S
H1203 C1215 0.929 . S
H1204 C1218 0.930 . S
H1205 C1220 0.960 . S
H1206 C1220 0.960 . S
H1207 C1220 0.960 . S
C1208 H1200 0.929 . S
C1208 C1209 1.377 . S
C1208 C1210 1.384 . S
C1209 C1208 1.377 . S
C1209 C1215 1.390 . S
C1210 H1201 0.930 . S
C1210 C1208 1.384 . S
C1210 C1211 1.372 . S
C1211 C1210 1.372 . S
C1211 C1212 1.400 . S
C1211 C1216 1.490 . S
C1212 H1202 0.930 . S
C1212 C1211 1.400 . S
C1212 C1215 1.386 . S
H1213 C1229 0.930 . S
H1214 C1230 0.931 . S
C1215 H1203 0.929 . S
C1215 C1209 1.390 . S
C1215 C1212 1.386 . S
C1216 C1211 1.490 . S
C1216 C1218 1.395 . S
C1216 C1219 1.403 . S
H1217 C1223 0.930 . S
C1218 H1204 0.930 . S
C1218 C1216 1.395 . S
C1218 C1221 1.403 . S
C1219 C1216 1.403 . S
C1219 C1220 1.524 . S
C1219 C1223 1.400 . S
C1220 H1205 0.960 . S
C1220 H1206 0.960 . S
C1220 H1207 0.960 . S
C1220 C1219 1.524 . S
C1221 C1218 1.403 . S
C1221 C1222 1.392 . S
C1221 C1225 1.495 . S
C1222 C1221 1.392 . S
C1222 C1223 1.385 . S
C1222 C1224 1.478 . S
C1223 H1217 0.930 . S
C1223 C1219 1.400 . S
C1223 C1222 1.385 . S
C1224 C1222 1.478 . S
C1224 C1226 1.381 . S
C1224 C1230 1.383 . S
C1225 C1221 1.495 . S
C1225 H1231 0.959 . S
C1225 H1232 0.961 . S
C1225 H1233 0.960 . S
C1226 C1224 1.381 . S
C1226 C1227 1.394 . S
C1226 H1234 0.930 . S
C1227 C1226 1.394 . S
C1227 C1228 1.383 . S
C1227 H1235 0.929 . S
C1228 C1227 1.383 . S
C1228 C1229 1.377 . S
C1229 H1213 0.930 . S
C1229 C1228 1.377 . S
C1229 C1230 1.379 . S
C1230 H1214 0.931 . S
C1230 C1224 1.383 . S
C1230 C1229 1.379 . S
H1231 C1225 0.959 . S
H1232 C1225 0.961 . S
H1233 C1225 0.960 . S
H1234 C1226 0.930 . S
H1235 C1227 0.929 . S
C381 C1 1.537 . S
C400 C291 1.393 . S
C417 C67 1.517 . S
C436 C325 1.442 . S
C472 C337 1.417 . S
C453 C97 1.486 . S
C489 C133 1.518 . S
C508 C371 1.447 . S
C544 C328 1.395 . S
C525 C25 1.533 . S
C580 C308 1.432 1_565 S
C561 C37 1.507 . S
C616 C355 1.377 . S
C597 C103 1.495 . S
C652 C346 1.372 . S
C633 C109 1.509 . S
C669 C31 1.539 . S
C688 C354 1.394 . S
C724 C316 1.420 . S
C705 C73 1.493 . S
C741 C139 1.520 . S
C760 C292 1.367 . S
C777 C61 1.511 . S
C796 C349 1.382 . S
C832 C307 1.578 . S
C813 C175 1.729 . S
C849 C181 1.666 . S
C868 C329 1.597 . S
C885 C247 1.749 . S
C904 C334 1.619 . S
C921 C277 1.742 . S
C940 C367 1.596 . S
C957 C145 1.721 . S
C976 C312 1.599 . S
C1012 C304 1.653 . S
C993 C211 1.700 . S
C1048 C358 1.631 . S
C1029 C217 1.732 . S
C1084 C350 1.624 . S
C1065 C283 1.734 . S
C1101 C169 1.701 . S
C1120 C370 1.564 . S
C1156 C313 1.646 . S
C1137 C241 1.742 . S
C1192 C295 1.564 . S
C1173 C253 1.713 . S
C1209 C205 1.677 . S
C1228 C333 1.630 . S
