# Generated by pormake.
# Topology nom, (4,4)-cn, num edge types: 1
# Building blocks:
#     Node 0, Type 0, BuildingBlock: AZAVOO_clean_linker_0, # of connection points: 4
#     Node 1, Type 0, BuildingBlock: AZAVOO_clean_linker_0, # of connection points: 4
#     Node 2, Type 0, BuildingBlock: AZAVOO_clean_linker_0, # of connection points: 4
#     Node 3, Type 0, BuildingBlock: AZAVOO_clean_linker_0, # of connection points: 4
#     Node 4, Type 0, BuildingBlock: AZAVOO_clean_linker_0, # of connection points: 4
#     Node 5, Type 0, BuildingBlock: AZAVOO_clean_linker_0, # of connection points: 4
#     Node 6, Type 1, BuildingBlock: QUQFOY_clean_sbu_3, # of connection points: 4
#     Node 7, Type 1, BuildingBlock: QUQFOY_clean_sbu_3, # of connection points: 4
#     Node 8, Type 1, BuildingBlock: QUQFOY_clean_sbu_3, # of connection points: 4
#     Node 9, Type 1, BuildingBlock: QUQFOY_clean_sbu_3, # of connection points: 4
#     Node 10, Type 1, BuildingBlock: QUQFOY_clean_sbu_3, # of connection points: 4
#     Node 11, Type 1, BuildingBlock: QUQFOY_clean_sbu_3, # of connection points: 4
#     Edge 12, Type (0, 1), BuildingBlock: OJICUG_clean_linker_0, # of connection points: 2
#     Edge 13, Type (0, 1), BuildingBlock: OJICUG_clean_linker_0, # of connection points: 2
#     Edge 14, Type (0, 1), BuildingBlock: OJICUG_clean_linker_0, # of connection points: 2
#     Edge 15, Type (0, 1), BuildingBlock: OJICUG_clean_linker_0, # of connection points: 2
#     Edge 16, Type (0, 1), BuildingBlock: OJICUG_clean_linker_0, # of connection points: 2
#     Edge 17, Type (0, 1), BuildingBlock: OJICUG_clean_linker_0, # of connection points: 2
#     Edge 18, Type (0, 1), BuildingBlock: OJICUG_clean_linker_0, # of connection points: 2
#     Edge 19, Type (0, 1), BuildingBlock: OJICUG_clean_linker_0, # of connection points: 2
#     Edge 20, Type (0, 1), BuildingBlock: OJICUG_clean_linker_0, # of connection points: 2
#     Edge 21, Type (0, 1), BuildingBlock: OJICUG_clean_linker_0, # of connection points: 2
#     Edge 22, Type (0, 1), BuildingBlock: OJICUG_clean_linker_0, # of connection points: 2
#     Edge 23, Type (0, 1), BuildingBlock: OJICUG_clean_linker_0, # of connection points: 2
#     Edge 24, Type (0, 1), BuildingBlock: OJICUG_clean_linker_0, # of connection points: 2
#     Edge 25, Type (0, 1), BuildingBlock: OJICUG_clean_linker_0, # of connection points: 2
#     Edge 26, Type (0, 1), BuildingBlock: OJICUG_clean_linker_0, # of connection points: 2
#     Edge 27, Type (0, 1), BuildingBlock: OJICUG_clean_linker_0, # of connection points: 2
#     Edge 28, Type (0, 1), BuildingBlock: OJICUG_clean_linker_0, # of connection points: 2
#     Edge 29, Type (0, 1), BuildingBlock: OJICUG_clean_linker_0, # of connection points: 2
#     Edge 30, Type (0, 1), BuildingBlock: OJICUG_clean_linker_0, # of connection points: 2
#     Edge 31, Type (0, 1), BuildingBlock: OJICUG_clean_linker_0, # of connection points: 2
#     Edge 32, Type (0, 1), BuildingBlock: OJICUG_clean_linker_0, # of connection points: 2
#     Edge 33, Type (0, 1), BuildingBlock: OJICUG_clean_linker_0, # of connection points: 2
#     Edge 34, Type (0, 1), BuildingBlock: OJICUG_clean_linker_0, # of connection points: 2
#     Edge 35, Type (0, 1), BuildingBlock: OJICUG_clean_linker_0, # of connection points: 2
# Relax obj value: 0.155
# Max RMSD: 0.231
# Mean RMSD: 0.148
data_MOF--net-nom--node1-QUQFOY_clean_sbu_3--node2-AZAVOO_clean_linker_0--edge1-OJICUG_clean_linker_0
_symmetry_space_group_name_H-M    P1
_symmetry_Int_Tables_number       1
_symmetry_cell_setting            triclinic
loop_
_symmetry_equiv_pos_as_xyz
'x, y, z'
_cell_length_a     37.001774
_cell_length_b     39.595782
_cell_length_c     46.120278
_cell_angle_alpha  90.178401
_cell_angle_beta   89.738927
_cell_angle_gamma 121.51882
loop_
_atom_site_label
_atom_site_type_symbol
_atom_site_fract_x
_atom_site_fract_y
_atom_site_fract_z
_atom_type_partial_charge
H0 H 0.05859 0.39494 0.11693 0.0
H1 H 0.30297 0.64984 0.38236 0.0
H2 H 0.97321 0.38898 0.26003 0.0
H3 H 0.92651 0.36705 0.21775 0.0
H4 H 0.93071 0.47808 0.21783 0.0
H5 H 0.97755 0.49993 0.25994 0.0
H6 H 0.07326 0.42108 0.2424 0.0
H7 H 0.0706 0.40207 0.19153 0.0
H8 H 0.03712 0.48751 0.16682 0.0
H9 H 0.04021 0.50643 0.21764 0.0
H10 H 0.17057 0.49711 0.27744 0.0
H11 H 0.23852 0.54909 0.25658 0.0
H12 H 0.17587 0.60659 0.22176 0.0
H13 H 0.10965 0.55582 0.24265 0.0
H14 H 0.13204 0.47682 0.34537 0.0
H15 H 0.19734 0.51413 0.37353 0.0
H16 H 0.21989 0.62302 0.33505 0.0
H17 H 0.15414 0.5854 0.30744 0.0
H18 H 0.0448 0.44776 0.36995 0.0
H19 H 0.07107 0.46996 0.41935 0.0
H20 H 0.10963 0.58967 0.39573 0.0
H21 H 0.0845 0.56762 0.34643 0.0
H22 H 0.94101 0.41309 0.32105 0.0
H23 H 0.88045 0.41457 0.34097 0.0
H24 H 0.95893 0.54238 0.34787 0.0
H25 H 0.01642 0.54054 0.32463 0.0
O26 O 0.05984 0.40313 0.13688 0.0
O27 O 0.0414 0.44663 0.12548 0.0
O28 O 0.26377 0.57758 0.39081 0.0
O29 O 0.27729 0.63431 0.37122 0.0
C30 C 0.0189 0.46485 0.27968 0.0
C31 C 0.05699 0.47519 0.26484 0.0
C32 C 0.09632 0.49803 0.27889 0.0
C33 C 0.09741 0.50581 0.30879 0.0
C34 C 0.05951 0.4953 0.3237 0.0
C35 C 0.02049 0.47712 0.30873 0.0
C36 C 0.97899 0.44614 0.26286 0.0
C37 C 0.96229 0.40772 0.25182 0.0
C38 C 0.9358 0.39531 0.22761 0.0
C39 C 0.92586 0.42127 0.21429 0.0
C40 C 0.93845 0.45778 0.22757 0.0
C41 C 0.96474 0.47009 0.25183 0.0
C42 C 0.05633 0.46469 0.23376 0.0
C43 C 0.06541 0.43567 0.22594 0.0
C44 C 0.0638 0.42484 0.19688 0.0
C45 C 0.05331 0.44305 0.17512 0.0
C46 C 0.04494 0.47265 0.18305 0.0
C47 C 0.04658 0.48343 0.21208 0.0
C48 C 0.13507 0.52246 0.26127 0.0
C49 C 0.17155 0.52034 0.26448 0.0
C50 C 0.21024 0.55009 0.25272 0.0
C51 C 0.21259 0.5819 0.23741 0.0
C52 C 0.17524 0.58216 0.23276 0.0
C53 C 0.13709 0.55295 0.24467 0.0
C54 C 0.13862 0.52838 0.32421 0.0
C55 C 0.15132 0.50869 0.34292 0.0
C56 C 0.18856 0.53009 0.35901 0.0
C57 C 0.21386 0.57158 0.35653 0.0
C58 C 0.2012 0.59112 0.33746 0.0
C59 C 0.1638 0.56971 0.32154 0.0
C60 C 0.06225 0.50597 0.35475 0.0
C61 C 0.05725 0.47842 0.37582 0.0
C62 C 0.0726 0.49117 0.40385 0.0
C63 C 0.09248 0.5315 0.41114 0.0
C64 C 0.09397 0.55837 0.39071 0.0
C65 C 0.0793 0.54575 0.36262 0.0
C66 C 0.98357 0.47666 0.322 0.0
C67 C 0.94476 0.44132 0.32671 0.0
C68 C 0.91029 0.4423 0.33845 0.0
C69 C 0.91434 0.47865 0.34627 0.0
C70 C 0.95368 0.51378 0.34168 0.0
C71 C 0.98731 0.5128 0.32905 0.0
C72 C 0.05113 0.43118 0.14432 0.0
C73 C 0.25311 0.59451 0.37391 0.0
H74 H 0.52096 0.05164 0.28716 0.0
H75 H 0.52125 0.248 0.5776 0.0
H76 H 0.50211 0.98148 0.43898 0.0
H77 H 0.49369 0.93774 0.39884 0.0
H78 H 0.35909 0.89267 0.39775 0.0
H79 H 0.3683 0.93771 0.43751 0.0
H80 H 0.53298 0.06148 0.41367 0.0
H81 H 0.54088 0.06278 0.3609 0.0
H82 H 0.40599 0.01298 0.35154 0.0
H83 H 0.39869 0.0123 0.40436 0.0
H84 H 0.55732 0.119 0.4554 0.0
H85 H 0.5942 0.18718 0.43773 0.0
H86 H 0.47351 0.17545 0.41981 0.0
H87 H 0.43698 0.10651 0.4366 0.0
H88 H 0.54011 0.1011 0.5241 0.0
H89 H 0.56689 0.15948 0.55524 0.0
H90 H 0.46218 0.17176 0.52916 0.0
H91 H 0.4353 0.11283 0.49854 0.0
H92 H 0.4955 0.01078 0.5413 0.0
H93 H 0.51527 0.03454 0.59081 0.0
H94 H 0.42514 0.0728 0.59053 0.0
H95 H 0.40307 0.04578 0.54187 0.0
H96 H 0.47703 0.95383 0.50006 0.0
H97 H 0.44644 0.88798 0.52144 0.0
H98 H 0.32585 0.88023 0.53014 0.0
H99 H 0.35753 0.94694 0.50985 0.0
O100 O 0.51723 0.05145 0.30796 0.0
O101 O 0.44768 0.02558 0.30435 0.0
O102 O 0.56403 0.21665 0.57863 0.0
O103 O 0.51158 0.22506 0.56524 0.0
C104 C 0.44367 -0.00275 0.45865 0.0
C105 C 0.46022 0.03429 0.44474 0.0
C106 C 0.47292 0.06858 0.46129 0.0
C107 C 0.46829 0.06584 0.49168 0.0
C108 C 0.44967 0.02844 0.50558 0.0
C109 C 0.43756 0.99407 0.48901 0.0
C110 C 0.43584 0.96281 0.44096 0.0
C111 C 0.4706 0.96114 0.43071 0.0
C112 C 0.46568 0.93607 0.40775 0.0
C113 C 0.42581 0.91215 0.39476 0.0
C114 C 0.39036 0.91132 0.40694 0.0
C115 C 0.39539 0.9366 0.42986 0.0
C116 C 0.46534 0.03714 0.41274 0.0
C117 C 0.50531 0.05139 0.40015 0.0
C118 C 0.50966 0.05186 0.37002 0.0
C119 C 0.47406 0.03797 0.35199 0.0
C120 C 0.43407 0.02394 0.36478 0.0
C121 C 0.4298 0.0236 0.39491 0.0
C122 C 0.49461 0.10804 0.44728 0.0
C123 C 0.53896 0.13098 0.44711 0.0
C124 C 0.55988 0.17 0.43725 0.0
C125 C 0.53679 0.18698 0.42773 0.0
C126 C 0.49225 0.16322 0.42677 0.0
C127 C 0.47131 0.12395 0.43644 0.0
C128 C 0.48571 0.10271 0.50918 0.0
C129 C 0.52307 0.11652 0.52512 0.0
C130 C 0.53829 0.14986 0.54287 0.0
C131 C 0.51661 0.17026 0.54474 0.0
C132 C 0.4796 0.15673 0.52826 0.0
C133 C 0.46427 0.1232 0.51065 0.0
C134 C 0.44835 0.02715 0.53776 0.0
C135 C 0.47812 0.02199 0.55253 0.0
C136 C 0.49007 0.03648 0.58067 0.0
C137 C 0.47318 0.05723 0.59416 0.0
C138 C 0.43912 0.05732 0.58081 0.0
C139 C 0.42638 0.04181 0.55291 0.0
C140 C 0.41942 0.95499 0.50332 0.0
C141 C 0.44412 0.93797 0.50687 0.0
C142 C 0.42645 0.90023 0.51894 0.0
C143 C 0.38346 0.87846 0.52733 0.0
C144 C 0.35912 0.89618 0.52432 0.0
C145 C 0.37704 0.93418 0.51252 0.0
C146 C 0.47868 0.03791 0.32001 0.0
C147 C 0.53231 0.20536 0.5639 0.0
H148 H 0.66753 0.602 0.84053 0.0
H149 H 0.63563 0.40614 0.53931 0.0
H150 H 0.61592 0.64905 0.69632 0.0
H151 H 0.6 0.67208 0.74126 0.0
H152 H 0.47504 0.56668 0.74284 0.0
H153 H 0.49087 0.54406 0.6977 0.0
H154 H 0.66597 0.60516 0.71368 0.0
H155 H 0.67939 0.61187 0.76596 0.0
H156 H 0.54779 0.52282 0.78174 0.0
H157 H 0.5349 0.51641 0.72949 0.0
H158 H 0.67895 0.53873 0.66822 0.0
H159 H 0.68974 0.48528 0.68386 0.0
H160 H 0.55906 0.4171 0.7122 0.0
H161 H 0.54876 0.47003 0.69662 0.0
H162 H 0.67096 0.57007 0.60673 0.0
H163 H 0.69413 0.53765 0.57256 0.0
H164 H 0.58191 0.42454 0.59262 0.0
H165 H 0.55927 0.45736 0.62684 0.0
H166 H 0.62274 0.60886 0.58647 0.0
H167 H 0.63313 0.59491 0.53641 0.0
H168 H 0.52706 0.4749 0.54565 0.0
H169 H 0.51713 0.48898 0.59533 0.0
H170 H 0.55621 0.63829 0.64092 0.0
H171 H 0.49567 0.64364 0.62635 0.0
H172 H 0.42422 0.51791 0.60772 0.0
H173 H 0.48245 0.51251 0.6251 0.0
O174 O 0.66171 0.59848 0.81995 0.0
O175 O 0.5935 0.55335 0.82685 0.0
O176 O 0.68587 0.47814 0.54465 0.0
O177 O 0.62785 0.41951 0.55333 0.0
C178 C 0.56917 0.57501 0.67416 0.0
C179 C 0.5912 0.55802 0.68622 0.0
C180 C 0.60344 0.53672 0.66848 0.0
C181 C 0.59818 0.5363 0.63828 0.0
C182 C 0.57552 0.55261 0.62625 0.0
C183 C 0.55858 0.56979 0.64442 0.0
C184 C 0.55453 0.59491 0.69391 0.0
C185 C 0.58438 0.63197 0.70558 0.0
C186 C 0.57538 0.64497 0.73125 0.0
C187 C 0.53661 0.62077 0.74549 0.0
C188 C 0.50523 0.58562 0.73217 0.0
C189 C 0.51404 0.5729 0.70633 0.0
C190 C 0.59944 0.56059 0.71788 0.0
C191 C 0.64018 0.58704 0.7285 0.0
C192 C 0.6477 0.59086 0.75835 0.0
C193 C 0.61459 0.56808 0.77805 0.0
C194 C 0.57394 0.541 0.7672 0.0
C195 C 0.56648 0.53729 0.73737 0.0
C196 C 0.61324 0.50839 0.68167 0.0
C197 C 0.65308 0.51255 0.67839 0.0
C198 C 0.65904 0.48196 0.68712 0.0
C199 C 0.62528 0.44707 0.69936 0.0
C200 C 0.58595 0.44386 0.70343 0.0
C201 C 0.58 0.47413 0.69459 0.0
C202 C 0.61352 0.51603 0.61921 0.0
C203 C 0.65167 0.53825 0.60389 0.0
C204 C 0.66474 0.51967 0.58434 0.0
C205 C 0.63972 0.47851 0.57971 0.0
C206 C 0.60185 0.45628 0.59557 0.0
C207 C 0.58892 0.47488 0.61522 0.0
C208 C 0.56916 0.54999 0.5945 0.0
C209 C 0.60024 0.58031 0.57709 0.0
C210 C 0.60649 0.57213 0.54867 0.0
C211 C 0.58144 0.5336 0.53741 0.0
C212 C 0.54671 0.50492 0.55364 0.0
C213 C 0.54068 0.51305 0.58206 0.0
C214 C 0.52413 0.5751 0.63356 0.0
C215 C 0.52731 0.61201 0.63375 0.0
C216 C 0.49273 0.615 0.6252 0.0
C217 C 0.45461 0.58115 0.61599 0.0
C218 C 0.45231 0.54455 0.61533 0.0
C219 C 0.4862 0.5415 0.62456 0.0
C220 C 0.62246 0.57271 0.80975 0.0
C221 C 0.65272 0.45886 0.5582 0.0
H222 H 0.05435 0.38917 0.00781 0.0
H223 H 0.27857 0.52976 0.69889 0.0
H224 H 0.9648 0.40599 0.83811 0.0
H225 H 0.9127 0.38975 0.87593 0.0
H226 H 0.93038 0.29588 0.90557 0.0
H227 H 0.97953 0.30971 0.86518 0.0
H228 H 0.03557 0.42676 0.88842 0.0
H229 H 0.03912 0.41829 0.94062 0.0
H230 H 0.08484 0.33941 0.9239 0.0
H231 H 0.08057 0.34775 0.87169 0.0
H232 H 0.12146 0.47661 0.86592 0.0
H233 H 0.19047 0.5125 0.88958 0.0
H234 H 0.226 0.43644 0.84717 0.0
H235 H 0.15584 0.3996 0.82435 0.0
H236 H 0.13731 0.50386 0.8006 0.0
H237 H 0.19976 0.54843 0.77134 0.0
H238 H 0.19444 0.44704 0.73125 0.0
H239 H 0.13212 0.40288 0.76074 0.0
H240 H 0.05059 0.47413 0.77291 0.0
H241 H 0.07189 0.5104 0.72699 0.0
H242 H 0.07536 0.41326 0.68701 0.0
H243 H 0.05362 0.37715 0.73297 0.0
H244 H 0.96519 0.41328 0.78429 0.0
H245 H 0.89169 0.37572 0.76797 0.0
H246 H 0.8972 0.26915 0.76566 0.0
H247 H 0.96948 0.30664 0.78412 0.0
O248 O 0.05308 0.392 0.98707 0.0
O249 O 0.07677 0.35186 0.97733 0.0
O250 O 0.25604 0.56399 0.7326 0.0
O251 O 0.25447 0.51286 0.71115 0.0
C252 C 0.01517 0.37636 0.8307 0.0
C253 C 0.0549 0.3925 0.84457 0.0
C254 C 0.0926 0.41539 0.82855 0.0
C255 C 0.09082 0.4234 0.79904 0.0
C256 C 0.05123 0.40802 0.78531 0.0
C257 C 0.01355 0.38307 0.80074 0.0
C258 C 0.97604 0.35904 0.8487 0.0
C259 C 0.9557 0.38039 0.85157 0.0
C260 C 0.92666 0.37169 0.8738 0.0
C261 C 0.91865 0.34255 0.89449 0.0
C262 C 0.93603 0.31868 0.89012 0.0
C263 C 0.9642 0.3266 0.86709 0.0
C264 C 0.05738 0.38752 0.87631 0.0
C265 C 0.04609 0.40748 0.89609 0.0
C266 C 0.04827 0.40267 0.92589 0.0
C267 C 0.06219 0.3781 0.93645 0.0
C268 C 0.0739 0.35847 0.9165 0.0
C269 C 0.07153 0.36319 0.88669 0.0
C270 C 0.13384 0.43556 0.84358 0.0
C271 C 0.14393 0.46734 0.86212 0.0
C272 C 0.18338 0.48791 0.87542 0.0
C273 C 0.21363 0.47737 0.87005 0.0
C274 C 0.20309 0.44489 0.85191 0.0
C275 C 0.16334 0.4241 0.83871 0.0
C276 C 0.13041 0.45025 0.7828 0.0
C277 C 0.15002 0.49141 0.7857 0.0
C278 C 0.18553 0.51675 0.76888 0.0
C279 C 0.20202 0.50128 0.74887 0.0
C280 C 0.18255 0.45993 0.74639 0.0
C281 C 0.14705 0.43465 0.76325 0.0
C282 C 0.0503 0.42294 0.75612 0.0
C283 C 0.05422 0.46004 0.75387 0.0
C284 C 0.06701 0.48096 0.72778 0.0
C285 C 0.07586 0.46495 0.70351 0.0
C286 C 0.06845 0.4263 0.70525 0.0
C287 C 0.05579 0.40545 0.73142 0.0
C288 C 0.97228 0.36249 0.7857 0.0
C289 C 0.95051 0.3819 0.77992 0.0
C290 C 0.90851 0.36031 0.77042 0.0
C291 C 0.888 0.31908 0.76589 0.0
C292 C 0.9113 0.3005 0.76979 0.0
C293 C 0.95285 0.32194 0.77994 0.0
C294 C 0.06451 0.3731 0.96814 0.0
C295 C 0.23915 0.52805 0.73047 0.0
H296 H 0.34854 0.97744 0.79409 0.0
H297 H 0.3906 0.76455 0.05156 0.0
H298 H 0.40598 0.058 0.93562 0.0
H299 H 0.43409 0.10433 0.89472 0.0
H300 H 0.55933 0.12685 0.91209 0.0
H301 H 0.53098 0.0792 0.9516 0.0
H302 H 0.34998 0.96407 0.92038 0.0
H303 H 0.3365 0.96432 0.86846 0.0
H304 H 0.47043 0.0175 0.85098 0.0
H305 H 0.48342 0.01712 0.90285 0.0
H306 H 0.33978 0.8821 0.95843 0.0
H307 H 0.33184 0.82117 0.93802 0.0
H308 H 0.45934 0.88945 0.90359 0.0
H309 H 0.46687 0.94908 0.92398 0.0
H310 H 0.35653 0.91194 0.02786 0.0
H311 H 0.33679 0.84975 0.0523 0.0
H312 H 0.44098 0.84945 0.00966 0.0
H313 H 0.46079 0.91194 0.98583 0.0
H314 H 0.40884 0.99392 0.05685 0.0
H315 H 0.42135 0.97615 0.10517 0.0
H316 H 0.5218 0.96319 0.06982 0.0
H317 H 0.50899 0.98071 0.0219 0.0
H318 H 0.44558 0.08656 0.00778 0.0
H319 H 0.49837 0.15126 0.02859 0.0
H320 H 0.59003 0.11501 0.0299 0.0
H321 H 0.53832 0.05186 0.00839 0.0
O322 O 0.35449 0.97728 0.81449 0.0
O323 O 0.42378 0.0055 0.80679 0.0
O324 O 0.34536 0.79127 0.06427 0.0
O325 O 0.39778 0.78919 0.04228 0.0
C326 C 0.44779 0.02706 0.96275 0.0
C327 C 0.4256 0.99104 0.94699 0.0
C328 C 0.41404 0.95491 0.96057 0.0
C329 C 0.42182 0.95418 0.9904 0.0
C330 C 0.44446 0.98999 0.00608 0.0
C331 C 0.4581 0.02653 0.99221 0.0
C332 C 0.46632 0.06496 0.94652 0.0
C333 C 0.43978 0.07426 0.93139 0.0
C334 C 0.45579 0.1006 0.90805 0.0
C335 C 0.49874 0.11881 0.90026 0.0
C336 C 0.52618 0.11346 0.91787 0.0
C337 C 0.51001 0.08638 0.94065 0.0
C338 C 0.41769 0.99107 0.91539 0.0
C339 C 0.37632 0.9758 0.90527 0.0
C340 C 0.36875 0.97598 0.87562 0.0
C341 C 0.40243 0.99115 0.85558 0.0
C342 C 0.44379 0.00578 0.86582 0.0
C343 C 0.45133 0.00576 0.89545 0.0
C344 C 0.40382 0.91999 0.94254 0.0
C345 C 0.36526 0.88385 0.94555 0.0
C346 C 0.36092 0.84917 0.93404 0.0
C347 C 0.39503 0.85045 0.91929 0.0
C348 C 0.43212 0.88733 0.91431 0.0
C349 C 0.43651 0.92165 0.92595 0.0
C350 C 0.40973 0.91614 0.00485 0.0
C351 C 0.37497 0.89833 0.02383 0.0
C352 C 0.3638 0.86284 0.03774 0.0
C353 C 0.38723 0.84454 0.03284 0.0
C354 C 0.42219 0.86265 0.01386 0.0
C355 C 0.43347 0.89825 0.00012 0.0
C356 C 0.45807 0.98865 0.03601 0.0
C357 C 0.43445 0.98856 0.05984 0.0
C358 C 0.44153 0.97827 0.08729 0.0
C359 C 0.47247 0.96819 0.09117 0.0
C360 C 0.49819 0.97135 0.0676 0.0
C361 C 0.49084 0.98124 0.04021 0.0
C362 C 0.48779 0.06412 0.00728 0.0
C363 C 0.47689 0.09252 0.01305 0.0
C364 C 0.50692 0.12929 0.02486 0.0
C365 C 0.54795 0.13775 0.03132 0.0
C366 C 0.55831 0.10888 0.02596 0.0
C367 C 0.5287 0.07266 0.01379 0.0
C368 C 0.39439 0.99179 0.82414 0.0
C369 C 0.3754 0.80676 0.04746 0.0
H370 H 0.64791 0.63182 0.94482 0.0
H371 H 0.78827 0.5091 0.23248 0.0
H372 H 0.58813 0.63456 0.12389 0.0
H373 H 0.55061 0.65163 0.0897 0.0
H374 H 0.66984 0.73802 0.05005 0.0
H375 H 0.70761 0.72358 0.08658 0.0
H376 H 0.61974 0.60417 0.06956 0.0
H377 H 0.61872 0.60847 0.01673 0.0
H378 H 0.75541 0.68397 0.01608 0.0
H379 H 0.75589 0.67994 0.06905 0.0
H380 H 0.65612 0.5534 0.08454 0.0
H381 H 0.6798 0.51324 0.06019 0.0
H382 H 0.80725 0.59344 0.09085 0.0
H383 H 0.78342 0.6339 0.11444 0.0
H384 H 0.65695 0.53155 0.14725 0.0
H385 H 0.67609 0.48807 0.17132 0.0
H386 H 0.78772 0.59078 0.20662 0.0
H387 H 0.76838 0.6339 0.18217 0.0
H388 H 0.61341 0.56163 0.1861 0.0
H389 H 0.60505 0.53304 0.23433 0.0
H390 H 0.71981 0.63945 0.26183 0.0
H391 H 0.72716 0.66813 0.21361 0.0
H392 H 0.59318 0.61716 0.18231 0.0
H393 H 0.5579 0.64819 0.20483 0.0
H394 H 0.66523 0.76372 0.18344 0.0
H395 H 0.70108 0.73234 0.16177 0.0
O396 O 0.64908 0.63046 0.96572 0.0
O397 O 0.71942 0.66857 0.96649 0.0
O398 O 0.72262 0.4738 0.20354 0.0
O399 O 0.7802 0.52561 0.22247 0.0
C400 C 0.67131 0.65869 0.12239 0.0
C401 C 0.68814 0.64022 0.10531 0.0
C402 C 0.7027 0.61766 0.11875 0.0
C403 C 0.69893 0.61203 0.14899 0.0
C404 C 0.6807 0.62912 0.16592 0.0
C405 C 0.66826 0.65365 0.15289 0.0
C406 C 0.65066 0.67751 0.1076 0.0
C407 C 0.60643 0.65881 0.109 0.0
C408 C 0.58494 0.66805 0.08896 0.0
C409 C 0.60715 0.695 0.06642 0.0
C410 C 0.65173 0.71692 0.06701 0.0
C411 C 0.67338 0.70858 0.08779 0.0
C412 C 0.68786 0.64205 0.07312 0.0
C413 C 0.64941 0.62173 0.05796 0.0
C414 C 0.64893 0.62418 0.02778 0.0
C415 C 0.68699 0.64664 0.01217 0.0
C416 C 0.72554 0.66649 0.02745 0.0
C417 C 0.72594 0.66419 0.05767 0.0
C418 C 0.71818 0.59653 0.10108 0.0
C419 C 0.68933 0.56272 0.08535 0.0
C420 C 0.70281 0.53969 0.07172 0.0
C421 C 0.74531 0.55012 0.07375 0.0
C422 C 0.77443 0.58494 0.0886 0.0
C423 C 0.76092 0.60797 0.10218 0.0
C424 C 0.71141 0.58581 0.16289 0.0
C425 C 0.68571 0.54456 0.16 0.0
C426 C 0.69663 0.51983 0.17385 0.0
C427 C 0.73344 0.53597 0.19093 0.0
C428 C 0.75918 0.57738 0.19365 0.0
C429 C 0.74825 0.60208 0.17972 0.0
C430 C 0.67068 0.61701 0.19658 0.0
C431 C 0.63585 0.57925 0.20291 0.0
C432 C 0.63147 0.56278 0.23029 0.0
C433 C 0.66207 0.58375 0.25173 0.0
C434 C 0.69549 0.62268 0.24584 0.0
C435 C 0.69974 0.63922 0.21839 0.0
C436 C 0.6499 0.67246 0.17061 0.0
C437 C 0.60982 0.64916 0.18346 0.0
C438 C 0.58946 0.66695 0.19597 0.0
C439 C 0.60865 0.70838 0.19566 0.0
C440 C 0.64981 0.73176 0.18424 0.0
C441 C 0.67023 0.7139 0.17175 0.0
C442 C 0.68633 0.64931 0.9801 0.0
C443 C 0.74495 0.5098 0.20596 0.0
C444 C 0.77473 0.48745 0.39472 0.0
O445 O 0.78129 0.5198 0.40535 0.0
Cd446 Cd 0.72636 0.53068 0.42196 0.0
O447 O 0.73731 0.45764 0.39213 0.0
Cd448 Cd 0.66368 0.43966 0.40162 0.0
C449 C 0.67477 0.51226 0.35689 0.0
O450 O 0.67226 0.47424 0.447 0.0
O451 O 0.61219 0.45115 0.4252 0.0
O452 O 0.65254 0.37934 0.42239 0.0
C453 C 0.63551 0.4694 0.44677 0.0
O454 O 0.6956 0.536 0.37746 0.0
C455 C 0.62207 0.35566 0.40615 0.0
O456 O 0.66192 0.47544 0.35853 0.0
O457 O 0.61064 0.37105 0.38681 0.0
C458 C 0.30772 0.58147 0.57407 0.0
O459 O 0.2794 0.54942 0.56232 0.0
Cd460 Cd 0.21466 0.53721 0.54107 0.0
O461 O 0.30349 0.61134 0.57587 0.0
Cd462 Cd 0.24929 0.62781 0.56261 0.0
C463 C 0.17341 0.55187 0.60345 0.0
O464 O 0.22952 0.59505 0.51595 0.0
O465 O 0.18928 0.6153 0.53211 0.0
O466 O 0.30816 0.69005 0.54552 0.0
C467 C 0.198 0.59887 0.51191 0.0
O468 O 0.17134 0.52959 0.58274 0.0
C469 C 0.29856 0.71242 0.55878 0.0
O470 O 0.20132 0.58895 0.60347 0.0
O471 O 0.26627 0.69554 0.5754 0.0
C472 C 0.708 0.22767 0.74213 0.0
O473 O 0.68801 0.19007 0.74255 0.0
Cd474 Cd 0.61434 0.149 0.72988 0.0
O475 O 0.68871 0.24583 0.73706 0.0
Cd476 Cd 0.61495 0.22777 0.72893 0.0
C477 C 0.57089 0.16847 0.78711 0.0
O478 O 0.60304 0.1815 0.69035 0.0
O479 O 0.54745 0.18205 0.70361 0.0
O480 O 0.64292 0.29116 0.70373 0.0
C481 C 0.56444 0.16962 0.68607 0.0
O482 O 0.57118 0.14141 0.77236 0.0
C483 C 0.62294 0.30242 0.71951 0.0
O484 O 0.58922 0.20385 0.77784 0.0
O485 O 0.59887 0.27861 0.73899 0.0
C486 C 0.38456 0.57622 0.91185 0.0
O487 O 0.40481 0.56166 0.92299 0.0
Cd488 Cd 0.47886 0.60424 0.93336 0.0
O489 O 0.40243 0.6134 0.90784 0.0
Cd490 Cd 0.46667 0.67873 0.9136 0.0
C491 C 0.50922 0.64558 0.86454 0.0
O492 O 0.4816 0.65887 0.95779 0.0
O493 O 0.53026 0.71773 0.94474 0.0
O494 O 0.41818 0.69948 0.92791 0.0
C495 C 0.5167 0.69001 0.96326 0.0
O496 O 0.50658 0.62136 0.88381 0.0
C497 C 0.43279 0.72831 0.91031 0.0
O498 O 0.49731 0.66986 0.86984 0.0
O499 O 0.46375 0.73441 0.89435 0.0
C500 C 0.8053 0.44721 0.04126 0.0
O501 O 0.84302 0.46259 0.0318 0.0
Cd502 Cd 0.87884 0.42756 0.02592 0.0
O503 O 0.78295 0.41035 0.04736 0.0
Cd504 Cd 0.78635 0.34931 0.04628 0.0
C505 C 0.86508 0.39262 0.09636 0.0
O506 O 0.82517 0.36966 0.00227 0.0
O507 O 0.81474 0.31406 0.01764 0.0
O508 O 0.71173 0.3147 0.03297 0.0
C509 C 0.83009 0.34076 -0.00166 0.0
O510 O 0.88896 0.41626 0.07656 0.0
C511 C 0.70061 0.28602 0.05033 0.0
O512 O 0.82682 0.3659 0.09107 0.0
O513 O 0.72934 0.28748 0.06624 0.0
C514 C 0.3525 0.73865 0.22048 0.0
O515 O 0.33972 0.76112 0.21189 0.0
Cd516 Cd 0.38141 0.83145 0.21084 0.0
O517 O 0.39097 0.7525 0.22776 0.0
Cd518 Cd 0.46104 0.81585 0.22754 0.0
C519 C 0.42374 0.84934 0.28088 0.0
O520 O 0.44091 0.83827 0.18698 0.0
O521 O 0.50354 0.88128 0.20157 0.0
O522 O 0.47801 0.77013 0.20702 0.0
C523 C 0.47346 0.8723 0.18407 0.0
O524 O 0.39967 0.85042 0.26167 0.0
C525 C 0.51236 0.78224 0.22061 0.0
O526 O 0.44864 0.83707 0.27473 0.0
O527 O 0.52399 0.81119 0.23797 0.0
C528 C 0.28713 0.63476 0.24974 0.0
C529 C 0.25374 0.61765 0.22959 0.0
H530 H 0.34534 0.68705 0.26243 0.0
C531 C 0.25703 0.63875 0.20425 0.0
H532 H 0.28542 0.61943 0.26959 0.0
C533 C 0.29038 0.67771 0.20075 0.0
C534 C 0.32179 0.69585 0.22204 0.0
H535 H 0.23233 0.62602 0.188 0.0
H536 H 0.29077 0.69416 0.1819 0.0
C537 C 0.32121 0.67357 0.24582 0.0
C538 C 0.59295 0.25711 0.43862 0.0
C539 C 0.5591 0.23002 0.42107 0.0
H540 H 0.63921 0.31755 0.44757 0.0
C541 C 0.54629 0.2446 0.39803 0.0
H542 H 0.60308 0.24709 0.45695 0.0
C543 C 0.5669 0.28543 0.39279 0.0
C544 C 0.60065 0.31235 0.41051 0.0
H545 H 0.52046 0.22447 0.384 0.0
H546 H 0.55629 0.29589 0.37501 0.0
C547 C 0.61351 0.29766 0.43336 0.0
C548 C 0.37575 0.55062 0.61205 0.0
C549 C 0.41702 0.58323 0.60721 0.0
H550 H 0.30926 0.5244 0.60483 0.0
C551 C 0.42164 0.61672 0.59295 0.0
H552 H 0.37048 0.52487 0.62392 0.0
C553 C 0.38599 0.6169 0.58301 0.0
C554 C 0.34528 0.58328 0.5865 0.0
H555 H 0.45275 0.64231 0.58861 0.0
H556 H 0.39037 0.64265 0.57158 0.0
C557 C 0.34047 0.55038 0.60136 0.0
C558 C 0.81637 0.25654 0.76986 0.0
C559 C 0.842 0.2952 0.75879 0.0
H560 H 0.75416 0.20486 0.77302 0.0
C561 C 0.82292 0.3111 0.74182 0.0
H562 H 0.82949 0.24352 0.78364 0.0
C563 C 0.77934 0.28922 0.73654 0.0
C564 C 0.75403 0.25067 0.74758 0.0
H565 H 0.84158 0.34041 0.73248 0.0
H566 H 0.76553 0.30235 0.72353 0.0
C567 C 0.77301 0.23439 0.76403 0.0
C568 C 0.41689 0.81148 0.88892 0.0
C569 C 0.39558 0.81391 0.91342 0.0
H570 H 0.44585 0.78257 0.86886 0.0
C571 C 0.38156 0.78449 0.93487 0.0
H572 H 0.42745 0.83335 0.8718 0.0
C573 C 0.39161 0.75516 0.93298 0.0
C574 C 0.41629 0.75503 0.90981 0.0
H575 H 0.36556 0.78574 0.95421 0.0
H576 H 0.3823 0.73413 0.95059 0.0
C577 C 0.4275 0.78251 0.88726 0.0
C578 C 0.73345 0.48232 0.06748 0.0
C579 C 0.75869 0.5233 0.06247 0.0
H580 H 0.72826 0.42607 0.06464 0.0
C581 C 0.79801 0.53862 0.04851 0.0
H582 H 0.7032 0.46971 0.07852 0.0
C583 C 0.81255 0.51367 0.04072 0.0
C584 C 0.78806 0.47289 0.04679 0.0
H585 H 0.81787 0.57003 0.04404 0.0
H586 H 0.84346 0.52657 0.03059 0.0
C587 C 0.74796 0.45735 0.05969 0.0
C588 C 0.3752 0.81146 0.52448 0.0
C589 C 0.36356 0.83663 0.53738 0.0
H590 H 0.36437 0.75309 0.52136 0.0
C591 C 0.33167 0.82093 0.55886 0.0
H592 H 0.39897 0.82209 0.5075 0.0
C593 C 0.31122 0.78081 0.5666 0.0
C594 C 0.32237 0.75564 0.55311 0.0
H595 H 0.32226 0.83954 0.56957 0.0
H596 H 0.28619 0.7694 0.58273 0.0
C597 C 0.35506 0.77163 0.53232 0.0
C598 C 0.61007 0.38997 0.73111 0.0
C599 C 0.62945 0.41271 0.70615 0.0
H600 H 0.59268 0.33729 0.75478 0.0
C601 C 0.64924 0.40019 0.68647 0.0
H602 H 0.59514 0.39918 0.7469 0.0
C603 C 0.64809 0.36475 0.69109 0.0
C604 C 0.62694 0.34117 0.71539 0.0
H605 H 0.66403 0.41687 0.66688 0.0
H606 H 0.6626 0.35525 0.6752 0.0
C607 C 0.60867 0.35452 0.73562 0.0
C608 C 0.27717 0.54345 0.88068 0.0
C609 C 0.2569 0.50204 0.8818 0.0
H610 H 0.33295 0.59911 0.88943 0.0
C611 C 0.27855 0.48484 0.89353 0.0
H612 H 0.26157 0.55755 0.87128 0.0
C613 C 0.31991 0.5088 0.90387 0.0
C614 C 0.34022 0.55028 0.90248 0.0
H615 H 0.26347 0.45294 0.89479 0.0
H616 H 0.33607 0.49487 0.91262 0.0
C617 C 0.31826 0.56727 0.89094 0.0
C618 C 0.5899 0.21121 0.02514 0.0
C619 C 0.58172 0.17759 0.04084 0.0
H620 H 0.63426 0.27235 0.01595 0.0
C621 C 0.60992 0.18158 0.06276 0.0
H622 H 0.56875 0.20886 0.00802 0.0
C623 C 0.64743 0.21777 0.06724 0.0
C624 C 0.65745 0.25058 0.0498 0.0
H625 H 0.60401 0.15613 0.07538 0.0
H626 H 0.66962 0.21937 0.08324 0.0
C627 C 0.62754 0.24746 0.02957 0.0
C628 C 0.54207 0.70967 0.1941 0.0
C629 C 0.58386 0.72663 0.20403 0.0
H630 H 0.48707 0.7139 0.19156 0.0
C631 C 0.60197 0.76185 0.22033 0.0
H632 H 0.52747 0.68299 0.18103 0.0
C633 C 0.57864 0.77981 0.2264 0.0
C634 C 0.53709 0.76305 0.21592 0.0
H635 H 0.63413 0.77553 0.22828 0.0
H636 H 0.59335 0.80708 0.23878 0.0
C637 C 0.51904 0.72765 0.19993 0.0
C638 C 0.84644 0.44907 0.37561 0.0
C639 C 0.878 0.48042 0.35879 0.0
H640 H 0.78863 0.42655 0.39989 0.0
C641 C 0.87478 0.51397 0.35425 0.0
H642 H 0.84787 0.423 0.38013 0.0
C643 C 0.84197 0.51662 0.36677 0.0
C644 C 0.81056 0.48521 0.3832 0.0
H645 H 0.89721 0.53823 0.34065 0.0
H646 H 0.84043 0.54281 0.36283 0.0
C647 C 0.81269 0.4512 0.38727 0.0
C648 C 0.11273 0.5731 0.45607 0.0
C649 C 0.11692 0.54655 0.43823 0.0
H650 H 0.13506 0.61035 0.49369 0.0
C651 C 0.14753 0.53703 0.44492 0.0
H652 H 0.08951 0.58105 0.45115 0.0
C653 C 0.17395 0.55418 0.46883 0.0
C654 C 0.16996 0.58086 0.48667 0.0
H655 H 0.15192 0.51725 0.43111 0.0
H656 H 0.19758 0.54658 0.47327 0.0
C657 C 0.13881 0.58987 0.48028 0.0
C658 C 0.47353 0.09097 0.64092 0.0
C659 C 0.49557 0.08393 0.61912 0.0
H660 H 0.47802 0.1239 0.67924 0.0
C661 C 0.54016 0.10551 0.61973 0.0
H662 H 0.43922 0.07491 0.64112 0.0
C663 C 0.56214 0.13303 0.64156 0.0
C664 C 0.54025 0.14028 0.66317 0.0
H665 H 0.55841 0.10209 0.60281 0.0
H666 H 0.59648 0.14919 0.64116 0.0
C667 C 0.49571 0.11903 0.66271 0.0
C668 C 0.53547 0.66448 0.78447 0.0
C669 C 0.53147 0.62864 0.77598 0.0
H670 H 0.53144 0.69809 0.8195 0.0
C671 C 0.52366 0.60006 0.797 0.0
H672 H 0.54201 0.68705 0.76854 0.0
C673 C 0.51872 0.60662 0.82602 0.0
C674 C 0.52075 0.64166 0.83455 0.0
H675 H 0.52123 0.5725 0.79092 0.0
H676 H 0.51177 0.58352 0.84156 0.0
C677 C 0.52966 0.67078 0.81355 0.0
C678 C 0.86836 0.30478 0.93584 0.0
C679 C 0.8966 0.34086 0.92194 0.0
H680 H 0.82506 0.27633 0.97143 0.0
C681 C 0.90466 0.37642 0.93474 0.0
H682 H 0.86167 0.27691 0.92663 0.0
C683 C 0.88346 0.37599 0.95979 0.0
C684 C 0.85431 0.34008 0.97318 0.0
H685 H 0.92749 0.40487 0.9254 0.0
H686 H 0.88992 0.40399 0.96867 0.0
C687 C 0.84747 0.30442 0.96142 0.0
C688 C 0.43519 0.91624 0.12874 0.0
C689 C 0.47332 0.94816 0.11798 0.0
H690 H 0.40558 0.86733 0.15789 0.0
C691 C 0.51182 0.95702 0.1307 0.0
H692 H 0.4051 0.90823 0.11906 0.0
C693 C 0.51214 0.93344 0.15318 0.0
C694 C 0.47401 0.90032 0.16281 0.0
H695 H 0.54167 0.98148 0.12271 0.0
H696 H 0.54219 0.94011 0.16214 0.0
C697 C 0.43555 0.89251 0.15079 0.0
C698 C 0.67197 0.58493 0.30545 0.0
C699 C 0.6612 0.564 0.27918 0.0
H700 H 0.68426 0.58483 0.35059 0.0
C701 C 0.65213 0.52475 0.27898 0.0
H702 H 0.67854 0.61497 0.30636 0.0
C703 C 0.65503 0.50723 0.30442 0.0
C704 C 0.66742 0.52878 0.33045 0.0
H705 H 0.64434 0.50803 0.25896 0.0
H706 H 0.64905 0.47739 0.30345 0.0
C707 C 0.67511 0.56754 0.33079 0.0
C708 C 0.44641 0.87486 0.36085 0.0
C709 C 0.42242 0.89238 0.36659 0.0
H710 H 0.46576 0.84748 0.32931 0.0
C711 C 0.39788 0.89424 0.34421 0.0
H712 H 0.46547 0.87278 0.37768 0.0
C713 C 0.39789 0.87966 0.31666 0.0
C714 C 0.42266 0.86304 0.31064 0.0
H715 H 0.3798 0.90834 0.34762 0.0
H716 H 0.37912 0.88232 0.29989 0.0
C717 C 0.44656 0.86036 0.33314 0.0
C718 C 0.56684 0.49479 0.49135 0.0
C719 C 0.59593 0.52107 0.51189 0.0
H720 H 0.55664 0.45778 0.45456 0.0
C721 C 0.63845 0.53135 0.51014 0.0
H722 H 0.53389 0.48633 0.49225 0.0
C723 C 0.65133 0.51462 0.48895 0.0
C724 C 0.62204 0.48759 0.46887 0.0
H725 H 0.66147 0.55104 0.52595 0.0
H726 H 0.68412 0.52252 0.48854 0.0
C727 C 0.57985 0.47836 0.46991 0.0
C728 C 0.08525 0.47308 0.64967 0.0
C729 C 0.09679 0.48967 0.67749 0.0
H730 H 0.09995 0.48007 0.60447 0.0
C731 C 0.13113 0.52895 0.68042 0.0
H732 H 0.0586 0.44316 0.64667 0.0
C733 C 0.15482 0.55037 0.65613 0.0
C734 C 0.14475 0.53276 0.62855 0.0
H735 H 0.14112 0.54241 0.70165 0.0
H736 H 0.1823 0.5798 0.6592 0.0
C737 C 0.10893 0.49435 0.6255 0.0
C738 C 0.49264 0.11176 0.84678 0.0
C739 C 0.51319 0.13568 0.87101 0.0
H740 H 0.49564 0.10305 0.80118 0.0
C741 C 0.55104 0.17226 0.86706 0.0
H742 H 0.46356 0.08334 0.8493 0.0
C743 C 0.56881 0.18403 0.83936 0.0
C744 C 0.5497 0.15869 0.81553 0.0
H745 H 0.56755 0.19098 0.8855 0.0
H746 H 0.59863 0.21186 0.83683 0.0
C747 C 0.51111 0.12284 0.81934 0.0
C748 C 0.59634 0.73008 0.02474 0.0
C749 C 0.58388 0.69517 0.04037 0.0
H750 H 0.58482 0.75595 0.98773 0.0
C751 C 0.55004 0.65902 0.02993 0.0
H752 H 0.6224 0.75835 0.03217 0.0
C753 C 0.52856 0.65775 0.00495 0.0
C754 C 0.54069 0.69248 0.9894 0.0
H755 H 0.54051 0.6313 0.04071 0.0
H756 H 0.50265 0.62927 -0.00235 0.0
C757 C 0.57492 0.72872 -0.00065 0.0
C758 C 0.87333 0.37689 0.17665 0.0
C759 C 0.90907 0.41341 0.18442 0.0
H760 H 0.83104 0.3416 0.14253 0.0
C761 C 0.93095 0.44221 0.16295 0.0
H762 H 0.85623 0.35412 0.19283 0.0
C763 C 0.91729 0.43487 0.13427 0.0
C764 C 0.88102 0.39873 0.12644 0.0
H765 H 0.95911 0.47033 0.16828 0.0
H766 H 0.9348 0.45791 0.11834 0.0
C767 C 0.85911 0.36975 0.14792 0.0
loop_
_geom_bond_atom_site_label_1
_geom_bond_atom_site_label_2
_geom_bond_distance
_geom_bond_site_symmetry_2
_ccdc_geom_bond_type
H0 O26 0.856 . S
H1 O29 0.854 . S
H2 C37 0.930 1_455 S
H3 C38 0.930 . S
H4 C40 0.930 . S
H5 C41 0.930 . S
H6 C43 0.931 . S
H7 C44 0.930 . S
H8 C46 0.930 . S
H9 C47 0.929 . S
H10 C49 0.930 . S
H11 C50 0.931 . S
H12 C52 0.930 . S
H13 C53 0.929 . S
H14 C55 0.931 . S
H15 C56 0.930 . S
H16 C58 0.930 . S
H17 C59 0.932 . S
H18 C61 0.930 . S
H19 C62 0.929 . S
H20 C64 0.931 . S
H21 C65 0.930 . S
H22 C67 0.929 . S
H23 C68 0.931 . S
H24 C70 0.930 . S
H25 C71 0.929 . S
O26 H0 0.856 . S
O26 C72 1.300 . S
O27 C72 1.209 . S
O28 C73 1.199 . S
O29 H1 0.854 . S
O29 C73 1.297 . S
C30 C31 1.404 . S
C30 C35 1.397 . S
C30 C36 1.492 . S
C31 C30 1.404 . S
C31 C32 1.396 . S
C31 C42 1.492 . S
C32 C31 1.396 . S
C32 C33 1.397 . S
C32 C48 1.509 . S
C33 C32 1.397 . S
C33 C34 1.412 . S
C33 C54 1.485 . S
C34 C33 1.412 . S
C34 C35 1.388 . S
C34 C60 1.490 . S
C35 C30 1.397 . S
C35 C34 1.388 . S
C35 C66 1.519 1_455 S
C36 C30 1.492 . S
C36 C37 1.363 1_455 S
C36 C41 1.390 1_455 S
C37 H2 0.930 1_655 S
C37 C36 1.363 1_655 S
C37 C38 1.372 . S
C38 H3 0.930 . S
C38 C37 1.372 . S
C38 C39 1.383 . S
C39 C38 1.383 . S
C39 C40 1.395 . S
C40 H4 0.930 . S
C40 C39 1.395 . S
C40 C41 1.362 . S
C41 H5 0.930 . S
C41 C36 1.390 1_655 S
C41 C40 1.362 . S
C42 C31 1.492 . S
C42 C43 1.377 . S
C42 C47 1.397 . S
C43 H6 0.931 . S
C43 C42 1.377 . S
C43 C44 1.376 . S
C44 H7 0.930 . S
C44 C43 1.376 . S
C44 C45 1.376 . S
C45 C44 1.376 . S
C45 C46 1.378 . S
C45 C72 1.486 . S
C46 H8 0.930 . S
C46 C45 1.378 . S
C46 C47 1.376 . S
C47 H9 0.929 . S
C47 C42 1.397 . S
C47 C46 1.376 . S
C48 C32 1.509 . S
C48 C49 1.391 . S
C48 C53 1.386 . S
C49 H10 0.930 . S
C49 C48 1.391 . S
C49 C50 1.375 . S
C50 H11 0.931 . S
C50 C49 1.375 . S
C50 C51 1.375 . S
C51 C50 1.375 . S
C51 C52 1.361 . S
C52 H12 0.930 . S
C52 C51 1.361 . S
C52 C53 1.399 . S
C53 H13 0.929 . S
C53 C48 1.386 . S
C53 C52 1.399 . S
C54 C33 1.485 . S
C54 C55 1.394 . S
C54 C59 1.360 . S
C55 H14 0.931 . S
C55 C54 1.394 . S
C55 C56 1.372 . S
C56 H15 0.930 . S
C56 C55 1.372 . S
C56 C57 1.397 . S
C57 C56 1.397 . S
C57 C58 1.390 . S
C57 C73 1.476 . S
C58 H16 0.930 . S
C58 C57 1.390 . S
C58 C59 1.366 . S
C59 H17 0.932 . S
C59 C54 1.360 . S
C59 C58 1.366 . S
C60 C34 1.490 . S
C60 C61 1.380 . S
C60 C65 1.386 . S
C61 H18 0.930 . S
C61 C60 1.380 . S
C61 C62 1.381 . S
C62 H19 0.929 . S
C62 C61 1.381 . S
C62 C63 1.371 . S
C63 C62 1.371 . S
C63 C64 1.380 . S
C64 H20 0.931 . S
C64 C63 1.380 . S
C64 C65 1.387 . S
C65 H21 0.930 . S
C65 C60 1.386 . S
C65 C64 1.387 . S
C66 C35 1.519 1_655 S
C66 C67 1.377 . S
C66 C71 1.361 . S
C67 H22 0.929 . S
C67 C66 1.377 . S
C67 C68 1.386 . S
C68 H23 0.931 . S
C68 C67 1.386 . S
C68 C69 1.363 . S
C69 C68 1.363 . S
C69 C70 1.385 . S
C70 H24 0.930 . S
C70 C69 1.385 . S
C70 C71 1.396 . S
C71 H25 0.929 . S
C71 C66 1.361 . S
C71 C70 1.396 . S
C72 O26 1.300 . S
C72 O27 1.209 . S
C72 C45 1.486 . S
C73 O28 1.199 . S
C73 O29 1.297 . S
C73 C57 1.476 . S
H74 O100 0.856 . S
H75 O103 0.854 . S
H76 C111 0.930 1_545 S
H77 C112 0.930 . S
H78 C114 0.930 . S
H79 C115 0.930 . S
H80 C117 0.931 . S
H81 C118 0.930 . S
H82 C120 0.930 . S
H83 C121 0.929 . S
H84 C123 0.930 . S
H85 C124 0.931 . S
H86 C126 0.930 . S
H87 C127 0.929 . S
H88 C129 0.931 . S
H89 C130 0.930 . S
H90 C132 0.930 . S
H91 C133 0.932 . S
H92 C135 0.930 . S
H93 C136 0.929 . S
H94 C138 0.931 . S
H95 C139 0.930 . S
H96 C141 0.929 . S
H97 C142 0.931 . S
H98 C144 0.930 . S
H99 C145 0.929 . S
O100 H74 0.856 . S
O100 C146 1.300 . S
O101 C146 1.209 . S
O102 C147 1.199 . S
O103 H75 0.854 . S
O103 C147 1.297 . S
C104 C105 1.404 . S
C104 C109 1.397 . S
C104 C110 1.492 . S
C105 C104 1.404 . S
C105 C106 1.396 . S
C105 C116 1.492 . S
C106 C105 1.396 . S
C106 C107 1.397 . S
C106 C122 1.509 . S
C107 C106 1.397 . S
C107 C108 1.412 . S
C107 C128 1.485 . S
C108 C107 1.412 . S
C108 C109 1.388 . S
C108 C134 1.490 . S
C109 C104 1.397 . S
C109 C108 1.388 . S
C109 C140 1.519 1_545 S
C110 C104 1.492 . S
C110 C111 1.363 1_545 S
C110 C115 1.390 1_545 S
C111 H76 0.930 1_565 S
C111 C110 1.363 1_565 S
C111 C112 1.372 . S
C112 H77 0.930 . S
C112 C111 1.372 . S
C112 C113 1.383 . S
C113 C112 1.383 . S
C113 C114 1.395 . S
C114 H78 0.930 . S
C114 C113 1.395 . S
C114 C115 1.362 . S
C115 H79 0.930 . S
C115 C110 1.390 1_565 S
C115 C114 1.362 . S
C116 C105 1.492 . S
C116 C117 1.377 . S
C116 C121 1.397 . S
C117 H80 0.931 . S
C117 C116 1.377 . S
C117 C118 1.376 . S
C118 H81 0.930 . S
C118 C117 1.376 . S
C118 C119 1.376 . S
C119 C118 1.376 . S
C119 C120 1.378 . S
C119 C146 1.486 . S
C120 H82 0.930 . S
C120 C119 1.378 . S
C120 C121 1.376 . S
C121 H83 0.929 . S
C121 C116 1.397 . S
C121 C120 1.376 . S
C122 C106 1.509 . S
C122 C123 1.391 . S
C122 C127 1.386 . S
C123 H84 0.930 . S
C123 C122 1.391 . S
C123 C124 1.375 . S
C124 H85 0.931 . S
C124 C123 1.375 . S
C124 C125 1.375 . S
C125 C124 1.375 . S
C125 C126 1.361 . S
C126 H86 0.930 . S
C126 C125 1.361 . S
C126 C127 1.399 . S
C127 H87 0.929 . S
C127 C122 1.386 . S
C127 C126 1.399 . S
C128 C107 1.485 . S
C128 C129 1.394 . S
C128 C133 1.360 . S
C129 H88 0.931 . S
C129 C128 1.394 . S
C129 C130 1.372 . S
C130 H89 0.930 . S
C130 C129 1.372 . S
C130 C131 1.397 . S
C131 C130 1.397 . S
C131 C132 1.390 . S
C131 C147 1.476 . S
C132 H90 0.930 . S
C132 C131 1.390 . S
C132 C133 1.366 . S
C133 H91 0.932 . S
C133 C128 1.360 . S
C133 C132 1.366 . S
C134 C108 1.490 . S
C134 C135 1.380 . S
C134 C139 1.386 . S
C135 H92 0.930 . S
C135 C134 1.380 . S
C135 C136 1.381 . S
C136 H93 0.929 . S
C136 C135 1.381 . S
C136 C137 1.371 . S
C137 C136 1.371 . S
C137 C138 1.380 . S
C138 H94 0.931 . S
C138 C137 1.380 . S
C138 C139 1.387 . S
C139 H95 0.930 . S
C139 C134 1.386 . S
C139 C138 1.387 . S
C140 C109 1.519 1_565 S
C140 C141 1.377 . S
C140 C145 1.361 . S
C141 H96 0.929 . S
C141 C140 1.377 . S
C141 C142 1.386 . S
C142 H97 0.931 . S
C142 C141 1.386 . S
C142 C143 1.363 . S
C143 C142 1.363 . S
C143 C144 1.385 . S
C144 H98 0.930 . S
C144 C143 1.385 . S
C144 C145 1.396 . S
C145 H99 0.929 . S
C145 C140 1.361 . S
C145 C144 1.396 . S
C146 O100 1.300 . S
C146 O101 1.209 . S
C146 C119 1.486 . S
C147 O102 1.199 . S
C147 O103 1.297 . S
C147 C131 1.476 . S
H148 O174 0.856 . S
H149 O177 0.854 . S
H150 C185 0.930 . S
H151 C186 0.930 . S
H152 C188 0.930 . S
H153 C189 0.930 . S
H154 C191 0.931 . S
H155 C192 0.930 . S
H156 C194 0.930 . S
H157 C195 0.929 . S
H158 C197 0.930 . S
H159 C198 0.931 . S
H160 C200 0.930 . S
H161 C201 0.929 . S
H162 C203 0.931 . S
H163 C204 0.930 . S
H164 C206 0.930 . S
H165 C207 0.932 . S
H166 C209 0.930 . S
H167 C210 0.929 . S
H168 C212 0.931 . S
H169 C213 0.930 . S
H170 C215 0.929 . S
H171 C216 0.931 . S
H172 C218 0.930 . S
H173 C219 0.929 . S
O174 H148 0.856 . S
O174 C220 1.300 . S
O175 C220 1.209 . S
O176 C221 1.199 . S
O177 H149 0.854 . S
O177 C221 1.297 . S
C178 C179 1.404 . S
C178 C183 1.397 . S
C178 C184 1.492 . S
C179 C178 1.404 . S
C179 C180 1.396 . S
C179 C190 1.492 . S
C180 C179 1.396 . S
C180 C181 1.397 . S
C180 C196 1.509 . S
C181 C180 1.397 . S
C181 C182 1.412 . S
C181 C202 1.485 . S
C182 C181 1.412 . S
C182 C183 1.388 . S
C182 C208 1.490 . S
C183 C178 1.397 . S
C183 C182 1.388 . S
C183 C214 1.519 . S
C184 C178 1.492 . S
C184 C185 1.363 . S
C184 C189 1.390 . S
C185 H150 0.930 . S
C185 C184 1.363 . S
C185 C186 1.372 . S
C186 H151 0.930 . S
C186 C185 1.372 . S
C186 C187 1.383 . S
C187 C186 1.383 . S
C187 C188 1.395 . S
C188 H152 0.930 . S
C188 C187 1.395 . S
C188 C189 1.362 . S
C189 H153 0.930 . S
C189 C184 1.390 . S
C189 C188 1.362 . S
C190 C179 1.492 . S
C190 C191 1.377 . S
C190 C195 1.397 . S
C191 H154 0.931 . S
C191 C190 1.377 . S
C191 C192 1.376 . S
C192 H155 0.930 . S
C192 C191 1.376 . S
C192 C193 1.376 . S
C193 C192 1.376 . S
C193 C194 1.378 . S
C193 C220 1.486 . S
C194 H156 0.930 . S
C194 C193 1.378 . S
C194 C195 1.376 . S
C195 H157 0.929 . S
C195 C190 1.397 . S
C195 C194 1.376 . S
C196 C180 1.509 . S
C196 C197 1.391 . S
C196 C201 1.386 . S
C197 H158 0.930 . S
C197 C196 1.391 . S
C197 C198 1.375 . S
C198 H159 0.931 . S
C198 C197 1.375 . S
C198 C199 1.375 . S
C199 C198 1.375 . S
C199 C200 1.361 . S
C200 H160 0.930 . S
C200 C199 1.361 . S
C200 C201 1.399 . S
C201 H161 0.929 . S
C201 C196 1.386 . S
C201 C200 1.399 . S
C202 C181 1.485 . S
C202 C203 1.394 . S
C202 C207 1.360 . S
C203 H162 0.931 . S
C203 C202 1.394 . S
C203 C204 1.372 . S
C204 H163 0.930 . S
C204 C203 1.372 . S
C204 C205 1.397 . S
C205 C204 1.397 . S
C205 C206 1.390 . S
C205 C221 1.476 . S
C206 H164 0.930 . S
C206 C205 1.390 . S
C206 C207 1.366 . S
C207 H165 0.932 . S
C207 C202 1.360 . S
C207 C206 1.366 . S
C208 C182 1.490 . S
C208 C209 1.380 . S
C208 C213 1.386 . S
C209 H166 0.930 . S
C209 C208 1.380 . S
C209 C210 1.381 . S
C210 H167 0.929 . S
C210 C209 1.381 . S
C210 C211 1.371 . S
C211 C210 1.371 . S
C211 C212 1.380 . S
C212 H168 0.931 . S
C212 C211 1.380 . S
C212 C213 1.387 . S
C213 H169 0.930 . S
C213 C208 1.386 . S
C213 C212 1.387 . S
C214 C183 1.519 . S
C214 C215 1.377 . S
C214 C219 1.361 . S
C215 H170 0.929 . S
C215 C214 1.377 . S
C215 C216 1.386 . S
C216 H171 0.931 . S
C216 C215 1.386 . S
C216 C217 1.363 . S
C217 C216 1.363 . S
C217 C218 1.385 . S
C218 H172 0.930 . S
C218 C217 1.385 . S
C218 C219 1.396 . S
C219 H173 0.929 . S
C219 C214 1.361 . S
C219 C218 1.396 . S
C220 O174 1.300 . S
C220 O175 1.209 . S
C220 C193 1.486 . S
C221 O176 1.199 . S
C221 O177 1.297 . S
C221 C205 1.476 . S
H222 O248 0.856 1_554 S
H223 O251 0.854 . S
H224 C259 0.930 1_455 S
H225 C260 0.930 . S
H226 C262 0.930 . S
H227 C263 0.930 . S
H228 C265 0.931 . S
H229 C266 0.930 . S
H230 C268 0.930 . S
H231 C269 0.929 . S
H232 C271 0.930 . S
H233 C272 0.931 . S
H234 C274 0.930 . S
H235 C275 0.929 . S
H236 C277 0.931 . S
H237 C278 0.930 . S
H238 C280 0.930 . S
H239 C281 0.932 . S
H240 C283 0.930 . S
H241 C284 0.929 . S
H242 C286 0.931 . S
H243 C287 0.930 . S
H244 C289 0.929 . S
H245 C290 0.931 . S
H246 C292 0.930 . S
H247 C293 0.929 . S
O248 H222 0.856 1_556 S
O248 C294 1.300 . S
O249 C294 1.209 . S
O250 C295 1.199 . S
O251 H223 0.854 . S
O251 C295 1.297 . S
C252 C253 1.404 . S
C252 C257 1.397 . S
C252 C258 1.492 1_455 S
C253 C252 1.404 . S
C253 C254 1.396 . S
C253 C264 1.492 . S
C254 C253 1.396 . S
C254 C255 1.397 . S
C254 C270 1.509 . S
C255 C254 1.397 . S
C255 C256 1.412 . S
C255 C276 1.485 . S
C256 C255 1.412 . S
C256 C257 1.388 . S
C256 C282 1.490 . S
C257 C252 1.397 . S
C257 C256 1.388 . S
C257 C288 1.519 1_455 S
C258 C252 1.492 1_655 S
C258 C259 1.363 . S
C258 C263 1.390 . S
C259 H224 0.930 1_655 S
C259 C258 1.363 . S
C259 C260 1.372 . S
C260 H225 0.930 . S
C260 C259 1.372 . S
C260 C261 1.383 . S
C261 C260 1.383 . S
C261 C262 1.395 . S
C262 H226 0.930 . S
C262 C261 1.395 . S
C262 C263 1.362 . S
C263 H227 0.930 . S
C263 C258 1.390 . S
C263 C262 1.362 . S
C264 C253 1.492 . S
C264 C265 1.377 . S
C264 C269 1.397 . S
C265 H228 0.931 . S
C265 C264 1.377 . S
C265 C266 1.376 . S
C266 H229 0.930 . S
C266 C265 1.376 . S
C266 C267 1.376 . S
C267 C266 1.376 . S
C267 C268 1.378 . S
C267 C294 1.486 . S
C268 H230 0.930 . S
C268 C267 1.378 . S
C268 C269 1.376 . S
C269 H231 0.929 . S
C269 C264 1.397 . S
C269 C268 1.376 . S
C270 C254 1.509 . S
C270 C271 1.391 . S
C270 C275 1.386 . S
C271 H232 0.930 . S
C271 C270 1.391 . S
C271 C272 1.375 . S
C272 H233 0.931 . S
C272 C271 1.375 . S
C272 C273 1.375 . S
C273 C272 1.375 . S
C273 C274 1.361 . S
C274 H234 0.930 . S
C274 C273 1.361 . S
C274 C275 1.399 . S
C275 H235 0.929 . S
C275 C270 1.386 . S
C275 C274 1.399 . S
C276 C255 1.485 . S
C276 C277 1.394 . S
C276 C281 1.360 . S
C277 H236 0.931 . S
C277 C276 1.394 . S
C277 C278 1.372 . S
C278 H237 0.930 . S
C278 C277 1.372 . S
C278 C279 1.397 . S
C279 C278 1.397 . S
C279 C280 1.390 . S
C279 C295 1.476 . S
C280 H238 0.930 . S
C280 C279 1.390 . S
C280 C281 1.366 . S
C281 H239 0.932 . S
C281 C276 1.360 . S
C281 C280 1.366 . S
C282 C256 1.490 . S
C282 C283 1.380 . S
C282 C287 1.386 . S
C283 H240 0.930 . S
C283 C282 1.380 . S
C283 C284 1.381 . S
C284 H241 0.929 . S
C284 C283 1.381 . S
C284 C285 1.371 . S
C285 C284 1.371 . S
C285 C286 1.380 . S
C286 H242 0.931 . S
C286 C285 1.380 . S
C286 C287 1.387 . S
C287 H243 0.930 . S
C287 C282 1.386 . S
C287 C286 1.387 . S
C288 C257 1.519 1_655 S
C288 C289 1.377 . S
C288 C293 1.361 . S
C289 H244 0.929 . S
C289 C288 1.377 . S
C289 C290 1.386 . S
C290 H245 0.931 . S
C290 C289 1.386 . S
C290 C291 1.363 . S
C291 C290 1.363 . S
C291 C292 1.385 . S
C292 H246 0.930 . S
C292 C291 1.385 . S
C292 C293 1.396 . S
C293 H247 0.929 . S
C293 C288 1.361 . S
C293 C292 1.396 . S
C294 O248 1.300 . S
C294 O249 1.209 . S
C294 C267 1.486 . S
C295 O250 1.199 . S
C295 O251 1.297 . S
C295 C279 1.476 . S
H296 O322 0.856 . S
H297 O325 0.854 . S
H298 C333 0.930 . S
H299 C334 0.930 . S
H300 C336 0.930 . S
H301 C337 0.930 . S
H302 C339 0.931 . S
H303 C340 0.930 . S
H304 C342 0.930 . S
H305 C343 0.929 . S
H306 C345 0.930 . S
H307 C346 0.931 . S
H308 C348 0.930 . S
H309 C349 0.929 . S
H310 C351 0.931 . S
H311 C352 0.930 . S
H312 C354 0.930 . S
H313 C355 0.932 . S
H314 C357 0.930 . S
H315 C358 0.929 1_545 S
H316 C360 0.931 . S
H317 C361 0.930 . S
H318 C363 0.929 1_556 S
H319 C364 0.931 . S
H320 C366 0.930 . S
H321 C367 0.929 . S
O322 H296 0.856 . S
O322 C368 1.300 . S
O323 C368 1.209 . S
O324 C369 1.199 . S
O325 H297 0.854 . S
O325 C369 1.297 . S
C326 C327 1.404 1_545 S
C326 C331 1.397 . S
C326 C332 1.492 . S
C327 C326 1.404 1_565 S
C327 C328 1.396 . S
C327 C338 1.492 . S
C328 C327 1.396 . S
C328 C329 1.397 . S
C328 C344 1.509 . S
C329 C328 1.397 . S
C329 C330 1.412 1_556 S
C329 C350 1.485 1_556 S
C330 C329 1.412 1_554 S
C330 C331 1.388 1_564 S
C330 C356 1.490 . S
C331 C326 1.397 . S
C331 C330 1.388 1_546 S
C331 C362 1.519 1_556 S
C332 C326 1.492 . S
C332 C333 1.363 . S
C332 C337 1.390 . S
C333 H298 0.930 . S
C333 C332 1.363 . S
C333 C334 1.372 . S
C334 H299 0.930 . S
C334 C333 1.372 . S
C334 C335 1.383 . S
C335 C334 1.383 . S
C335 C336 1.395 . S
C336 H300 0.930 . S
C336 C335 1.395 . S
C336 C337 1.362 . S
C337 H301 0.930 . S
C337 C332 1.390 . S
C337 C336 1.362 . S
C338 C327 1.492 . S
C338 C339 1.377 . S
C338 C343 1.397 . S
C339 H302 0.931 . S
C339 C338 1.377 . S
C339 C340 1.376 . S
C340 H303 0.930 . S
C340 C339 1.376 . S
C340 C341 1.376 . S
C341 C340 1.376 . S
C341 C342 1.378 . S
C341 C368 1.486 . S
C342 H304 0.930 . S
C342 C341 1.378 . S
C342 C343 1.376 . S
C343 H305 0.929 . S
C343 C338 1.397 . S
C343 C342 1.376 . S
C344 C328 1.509 . S
C344 C345 1.391 . S
C344 C349 1.386 . S
C345 H306 0.930 . S
C345 C344 1.391 . S
C345 C346 1.375 . S
C346 H307 0.931 . S
C346 C345 1.375 . S
C346 C347 1.375 . S
C347 C346 1.375 . S
C347 C348 1.361 . S
C348 H308 0.930 . S
C348 C347 1.361 . S
C348 C349 1.399 . S
C349 H309 0.929 . S
C349 C344 1.386 . S
C349 C348 1.399 . S
C350 C329 1.485 1_554 S
C350 C351 1.394 . S
C350 C355 1.360 . S
C351 H310 0.931 . S
C351 C350 1.394 . S
C351 C352 1.372 . S
C352 H311 0.930 . S
C352 C351 1.372 . S
C352 C353 1.397 . S
C353 C352 1.397 . S
C353 C354 1.390 . S
C353 C369 1.476 . S
C354 H312 0.930 . S
C354 C353 1.390 . S
C354 C355 1.366 . S
C355 H313 0.932 . S
C355 C350 1.360 . S
C355 C354 1.366 . S
C356 C330 1.490 . S
C356 C357 1.380 . S
C356 C361 1.386 . S
C357 H314 0.930 . S
C357 C356 1.380 . S
C357 C358 1.381 . S
C358 H315 0.929 1_565 S
C358 C357 1.381 . S
C358 C359 1.371 . S
C359 C358 1.371 . S
C359 C360 1.380 . S
C360 H316 0.931 . S
C360 C359 1.380 . S
C360 C361 1.387 . S
C361 H317 0.930 . S
C361 C356 1.386 . S
C361 C360 1.387 . S
C362 C331 1.519 1_554 S
C362 C363 1.377 . S
C362 C367 1.361 . S
C363 H318 0.929 1_554 S
C363 C362 1.377 . S
C363 C364 1.386 . S
C364 H319 0.931 . S
C364 C363 1.386 . S
C364 C365 1.363 . S
C365 C364 1.363 . S
C365 C366 1.385 . S
C366 H320 0.930 . S
C366 C365 1.385 . S
C366 C367 1.396 . S
C367 H321 0.929 . S
C367 C362 1.361 . S
C367 C366 1.396 . S
C368 O322 1.300 . S
C368 O323 1.209 . S
C368 C341 1.486 . S
C369 O324 1.199 . S
C369 O325 1.297 . S
C369 C353 1.476 . S
H370 O396 0.856 . S
H371 O399 0.854 . S
H372 C407 0.930 . S
H373 C408 0.930 . S
H374 C410 0.930 . S
H375 C411 0.930 . S
H376 C413 0.931 . S
H377 C414 0.930 . S
H378 C416 0.930 . S
H379 C417 0.929 . S
H380 C419 0.930 . S
H381 C420 0.931 . S
H382 C422 0.930 . S
H383 C423 0.929 . S
H384 C425 0.931 . S
H385 C426 0.930 . S
H386 C428 0.930 . S
H387 C429 0.932 . S
H388 C431 0.930 . S
H389 C432 0.929 . S
H390 C434 0.931 . S
H391 C435 0.930 . S
H392 C437 0.929 . S
H393 C438 0.931 . S
H394 C440 0.930 . S
H395 C441 0.929 . S
O396 H370 0.856 . S
O396 C442 1.300 . S
O397 C442 1.209 . S
O398 C443 1.199 . S
O399 H371 0.854 . S
O399 C443 1.297 . S
C400 C401 1.404 . S
C400 C405 1.397 . S
C400 C406 1.492 . S
C401 C400 1.404 . S
C401 C402 1.396 . S
C401 C412 1.492 . S
C402 C401 1.396 . S
C402 C403 1.397 . S
C402 C418 1.509 . S
C403 C402 1.397 . S
C403 C404 1.412 . S
C403 C424 1.485 . S
C404 C403 1.412 . S
C404 C405 1.388 . S
C404 C430 1.490 . S
C405 C400 1.397 . S
C405 C404 1.388 . S
C405 C436 1.519 . S
C406 C400 1.492 . S
C406 C407 1.363 . S
C406 C411 1.390 . S
C407 H372 0.930 . S
C407 C406 1.363 . S
C407 C408 1.372 . S
C408 H373 0.930 . S
C408 C407 1.372 . S
C408 C409 1.383 . S
C409 C408 1.383 . S
C409 C410 1.395 . S
C410 H374 0.930 . S
C410 C409 1.395 . S
C410 C411 1.362 . S
C411 H375 0.930 . S
C411 C406 1.390 . S
C411 C410 1.362 . S
C412 C401 1.492 . S
C412 C413 1.377 . S
C412 C417 1.397 . S
C413 H376 0.931 . S
C413 C412 1.377 . S
C413 C414 1.376 . S
C414 H377 0.930 . S
C414 C413 1.376 . S
C414 C415 1.376 . S
C415 C414 1.376 . S
C415 C416 1.378 . S
C415 C442 1.486 1_554 S
C416 H378 0.930 . S
C416 C415 1.378 . S
C416 C417 1.376 . S
C417 H379 0.929 . S
C417 C412 1.397 . S
C417 C416 1.376 . S
C418 C402 1.509 . S
C418 C419 1.391 . S
C418 C423 1.386 . S
C419 H380 0.930 . S
C419 C418 1.391 . S
C419 C420 1.375 . S
C420 H381 0.931 . S
C420 C419 1.375 . S
C420 C421 1.375 . S
C421 C420 1.375 . S
C421 C422 1.361 . S
C422 H382 0.930 . S
C422 C421 1.361 . S
C422 C423 1.399 . S
C423 H383 0.929 . S
C423 C418 1.386 . S
C423 C422 1.399 . S
C424 C403 1.485 . S
C424 C425 1.394 . S
C424 C429 1.360 . S
C425 H384 0.931 . S
C425 C424 1.394 . S
C425 C426 1.372 . S
C426 H385 0.930 . S
C426 C425 1.372 . S
C426 C427 1.397 . S
C427 C426 1.397 . S
C427 C428 1.390 . S
C427 C443 1.476 . S
C428 H386 0.930 . S
C428 C427 1.390 . S
C428 C429 1.366 . S
C429 H387 0.932 . S
C429 C424 1.360 . S
C429 C428 1.366 . S
C430 C404 1.490 . S
C430 C431 1.380 . S
C430 C435 1.386 . S
C431 H388 0.930 . S
C431 C430 1.380 . S
C431 C432 1.381 . S
C432 H389 0.929 . S
C432 C431 1.381 . S
C432 C433 1.371 . S
C433 C432 1.371 . S
C433 C434 1.380 . S
C434 H390 0.931 . S
C434 C433 1.380 . S
C434 C435 1.387 . S
C435 H391 0.930 . S
C435 C430 1.386 . S
C435 C434 1.387 . S
C436 C405 1.519 . S
C436 C437 1.377 . S
C436 C441 1.361 . S
C437 H392 0.929 . S
C437 C436 1.377 . S
C437 C438 1.386 . S
C438 H393 0.931 . S
C438 C437 1.386 . S
C438 C439 1.363 . S
C439 C438 1.363 . S
C439 C440 1.385 . S
C440 H394 0.930 . S
C440 C439 1.385 . S
C440 C441 1.396 . S
C441 H395 0.929 . S
C441 C436 1.361 . S
C441 C440 1.396 . S
C442 O396 1.300 . S
C442 O397 1.209 . S
C442 C415 1.486 1_556 S
C443 O398 1.199 . S
C443 O399 1.297 . S
C443 C427 1.476 . S
C444 O445 1.306 . S
C444 O447 1.160 . S
O445 C444 1.306 . S
O445 Cd446 2.228 . S
Cd446 O445 2.228 . S
Cd446 O450 2.273 . S
Cd446 O454 2.277 . S
O447 C444 1.160 . S
O447 Cd448 2.203 . S
Cd448 O447 2.203 . S
Cd448 O450 2.411 . S
Cd448 O451 2.333 . S
Cd448 O452 2.352 . S
Cd448 O456 2.277 . S
Cd448 O457 2.356 . S
C449 O454 1.209 . S
C449 O456 1.226 . S
O450 Cd446 2.273 . S
O450 Cd448 2.411 . S
O450 C453 1.320 . S
O451 Cd448 2.333 . S
O451 C453 1.214 . S
O452 Cd448 2.352 . S
O452 C455 1.258 . S
C453 O450 1.320 . S
C453 O451 1.214 . S
O454 Cd446 2.277 . S
O454 C449 1.209 . S
C455 O452 1.258 . S
C455 O457 1.282 . S
O456 Cd448 2.277 . S
O456 C449 1.226 . S
O457 Cd448 2.356 . S
O457 C455 1.282 . S
C458 O459 1.306 . S
C458 O461 1.160 . S
O459 C458 1.306 . S
O459 Cd460 2.228 . S
Cd460 O459 2.228 . S
Cd460 O464 2.273 . S
Cd460 O468 2.277 . S
O461 C458 1.160 . S
O461 Cd462 2.203 . S
Cd462 O461 2.203 . S
Cd462 O464 2.411 . S
Cd462 O465 2.333 . S
Cd462 O466 2.352 . S
Cd462 O470 2.277 . S
Cd462 O471 2.356 . S
C463 O468 1.209 . S
C463 O470 1.226 . S
O464 Cd460 2.273 . S
O464 Cd462 2.411 . S
O464 C467 1.320 . S
O465 Cd462 2.333 . S
O465 C467 1.214 . S
O466 Cd462 2.352 . S
O466 C469 1.258 . S
C467 O464 1.320 . S
C467 O465 1.214 . S
O468 Cd460 2.277 . S
O468 C463 1.209 . S
C469 O466 1.258 . S
C469 O471 1.282 . S
O470 Cd462 2.277 . S
O470 C463 1.226 . S
O471 Cd462 2.356 . S
O471 C469 1.282 . S
C472 O473 1.306 . S
C472 O475 1.160 . S
O473 C472 1.306 . S
O473 Cd474 2.228 . S
Cd474 O473 2.228 . S
Cd474 O478 2.273 . S
Cd474 O482 2.277 . S
O475 C472 1.160 . S
O475 Cd476 2.203 . S
Cd476 O475 2.203 . S
Cd476 O478 2.411 . S
Cd476 O479 2.333 . S
Cd476 O480 2.352 . S
Cd476 O484 2.277 . S
Cd476 O485 2.356 . S
C477 O482 1.209 . S
C477 O484 1.226 . S
O478 Cd474 2.273 . S
O478 Cd476 2.411 . S
O478 C481 1.320 . S
O479 Cd476 2.333 . S
O479 C481 1.214 . S
O480 Cd476 2.352 . S
O480 C483 1.258 . S
C481 O478 1.320 . S
C481 O479 1.214 . S
O482 Cd474 2.277 . S
O482 C477 1.209 . S
C483 O480 1.258 . S
C483 O485 1.282 . S
O484 Cd476 2.277 . S
O484 C477 1.226 . S
O485 Cd476 2.356 . S
O485 C483 1.282 . S
C486 O487 1.306 . S
C486 O489 1.160 . S
O487 C486 1.306 . S
O487 Cd488 2.228 . S
Cd488 O487 2.228 . S
Cd488 O492 2.273 . S
Cd488 O496 2.277 . S
O489 C486 1.160 . S
O489 Cd490 2.203 . S
Cd490 O489 2.203 . S
Cd490 O492 2.411 . S
Cd490 O493 2.333 . S
Cd490 O494 2.352 . S
Cd490 O498 2.277 . S
Cd490 O499 2.356 . S
C491 O496 1.209 . S
C491 O498 1.226 . S
O492 Cd488 2.273 . S
O492 Cd490 2.411 . S
O492 C495 1.320 . S
O493 Cd490 2.333 . S
O493 C495 1.214 . S
O494 Cd490 2.352 . S
O494 C497 1.258 . S
C495 O492 1.320 . S
C495 O493 1.214 . S
O496 Cd488 2.277 . S
O496 C491 1.209 . S
C497 O494 1.258 . S
C497 O499 1.282 . S
O498 Cd490 2.277 . S
O498 C491 1.226 . S
O499 Cd490 2.356 . S
O499 C497 1.282 . S
C500 O501 1.306 . S
C500 O503 1.160 . S
O501 C500 1.306 . S
O501 Cd502 2.228 . S
Cd502 O501 2.228 . S
Cd502 O506 2.273 . S
Cd502 O510 2.277 . S
O503 C500 1.160 . S
O503 Cd504 2.203 . S
Cd504 O503 2.203 . S
Cd504 O506 2.411 . S
Cd504 O507 2.333 . S
Cd504 O508 2.352 . S
Cd504 O512 2.277 . S
Cd504 O513 2.356 . S
C505 O510 1.209 . S
C505 O512 1.226 . S
O506 Cd502 2.273 . S
O506 Cd504 2.411 . S
O506 C509 1.320 . S
O507 Cd504 2.333 . S
O507 C509 1.214 . S
O508 Cd504 2.352 . S
O508 C511 1.258 . S
C509 O506 1.320 . S
C509 O507 1.214 . S
O510 Cd502 2.277 . S
O510 C505 1.209 . S
C511 O508 1.258 . S
C511 O513 1.282 . S
O512 Cd504 2.277 . S
O512 C505 1.226 . S
O513 Cd504 2.356 . S
O513 C511 1.282 . S
C514 O515 1.306 . S
C514 O517 1.160 . S
O515 C514 1.306 . S
O515 Cd516 2.228 . S
Cd516 O515 2.228 . S
Cd516 O520 2.273 . S
Cd516 O524 2.277 . S
O517 C514 1.160 . S
O517 Cd518 2.203 . S
Cd518 O517 2.203 . S
Cd518 O520 2.411 . S
Cd518 O521 2.333 . S
Cd518 O522 2.352 . S
Cd518 O526 2.277 . S
Cd518 O527 2.356 . S
C519 O524 1.209 . S
C519 O526 1.226 . S
O520 Cd516 2.273 . S
O520 Cd518 2.411 . S
O520 C523 1.320 . S
O521 Cd518 2.333 . S
O521 C523 1.214 . S
O522 Cd518 2.352 . S
O522 C525 1.258 . S
C523 O520 1.320 . S
C523 O521 1.214 . S
O524 Cd516 2.277 . S
O524 C519 1.209 . S
C525 O522 1.258 . S
C525 O527 1.282 . S
O526 Cd518 2.277 . S
O526 C519 1.226 . S
O527 Cd518 2.356 . S
O527 C525 1.282 . S
C528 C529 1.387 . S
C528 H532 0.950 . S
C528 C537 1.390 . S
C529 C528 1.387 . S
C529 C531 1.387 . S
H530 C537 0.950 . S
C531 C529 1.387 . S
C531 C533 1.390 . S
C531 H535 0.950 . S
H532 C528 0.950 . S
C533 C531 1.390 . S
C533 C534 1.387 . S
C533 H536 0.950 . S
C534 C533 1.387 . S
C534 C537 1.387 . S
H535 C531 0.950 . S
H536 C533 0.950 . S
C537 C528 1.390 . S
C537 H530 0.950 . S
C537 C534 1.387 . S
C538 C539 1.387 . S
C538 H542 0.950 . S
C538 C547 1.390 . S
C539 C538 1.387 . S
C539 C541 1.387 . S
H540 C547 0.950 . S
C541 C539 1.387 . S
C541 C543 1.390 . S
C541 H545 0.950 . S
H542 C538 0.950 . S
C543 C541 1.390 . S
C543 C544 1.387 . S
C543 H546 0.950 . S
C544 C543 1.387 . S
C544 C547 1.387 . S
H545 C541 0.950 . S
H546 C543 0.950 . S
C547 C538 1.390 . S
C547 H540 0.950 . S
C547 C544 1.387 . S
C548 C549 1.387 . S
C548 H552 0.950 . S
C548 C557 1.390 . S
C549 C548 1.387 . S
C549 C551 1.387 . S
H550 C557 0.950 . S
C551 C549 1.387 . S
C551 C553 1.390 . S
C551 H555 0.950 . S
H552 C548 0.950 . S
C553 C551 1.390 . S
C553 C554 1.387 . S
C553 H556 0.950 . S
C554 C553 1.387 . S
C554 C557 1.387 . S
H555 C551 0.950 . S
H556 C553 0.950 . S
C557 C548 1.390 . S
C557 H550 0.950 . S
C557 C554 1.387 . S
C558 C559 1.387 . S
C558 H562 0.950 . S
C558 C567 1.390 . S
C559 C558 1.387 . S
C559 C561 1.387 . S
H560 C567 0.950 . S
C561 C559 1.387 . S
C561 C563 1.390 . S
C561 H565 0.950 . S
H562 C558 0.950 . S
C563 C561 1.390 . S
C563 C564 1.387 . S
C563 H566 0.950 . S
C564 C563 1.387 . S
C564 C567 1.387 . S
H565 C561 0.950 . S
H566 C563 0.950 . S
C567 C558 1.390 . S
C567 H560 0.950 . S
C567 C564 1.387 . S
C568 C569 1.387 . S
C568 H572 0.950 . S
C568 C577 1.390 . S
C569 C568 1.387 . S
C569 C571 1.387 . S
H570 C577 0.950 . S
C571 C569 1.387 . S
C571 C573 1.390 . S
C571 H575 0.950 . S
H572 C568 0.950 . S
C573 C571 1.390 . S
C573 C574 1.387 . S
C573 H576 0.950 . S
C574 C573 1.387 . S
C574 C577 1.387 . S
H575 C571 0.950 . S
H576 C573 0.950 . S
C577 C568 1.390 . S
C577 H570 0.950 . S
C577 C574 1.387 . S
C578 C579 1.387 . S
C578 H582 0.950 . S
C578 C587 1.390 . S
C579 C578 1.387 . S
C579 C581 1.387 . S
H580 C587 0.950 . S
C581 C579 1.387 . S
C581 C583 1.390 . S
C581 H585 0.950 . S
H582 C578 0.950 . S
C583 C581 1.390 . S
C583 C584 1.387 . S
C583 H586 0.950 . S
C584 C583 1.387 . S
C584 C587 1.387 . S
H585 C581 0.950 . S
H586 C583 0.950 . S
C587 C578 1.390 . S
C587 H580 0.950 . S
C587 C584 1.387 . S
C588 C589 1.387 . S
C588 H592 0.950 . S
C588 C597 1.390 . S
C589 C588 1.387 . S
C589 C591 1.387 . S
H590 C597 0.950 . S
C591 C589 1.387 . S
C591 C593 1.390 . S
C591 H595 0.950 . S
H592 C588 0.950 . S
C593 C591 1.390 . S
C593 C594 1.387 . S
C593 H596 0.950 . S
C594 C593 1.387 . S
C594 C597 1.387 . S
H595 C591 0.950 . S
H596 C593 0.950 . S
C597 C588 1.390 . S
C597 H590 0.950 . S
C597 C594 1.387 . S
C598 C599 1.387 . S
C598 H602 0.950 . S
C598 C607 1.390 . S
C599 C598 1.387 . S
C599 C601 1.387 . S
H600 C607 0.950 . S
C601 C599 1.387 . S
C601 C603 1.390 . S
C601 H605 0.950 . S
H602 C598 0.950 . S
C603 C601 1.390 . S
C603 C604 1.387 . S
C603 H606 0.950 . S
C604 C603 1.387 . S
C604 C607 1.387 . S
H605 C601 0.950 . S
H606 C603 0.950 . S
C607 C598 1.390 . S
C607 H600 0.950 . S
C607 C604 1.387 . S
C608 C609 1.387 . S
C608 H612 0.950 . S
C608 C617 1.390 . S
C609 C608 1.387 . S
C609 C611 1.387 . S
H610 C617 0.950 . S
C611 C609 1.387 . S
C611 C613 1.390 . S
C611 H615 0.950 . S
H612 C608 0.950 . S
C613 C611 1.390 . S
C613 C614 1.387 . S
C613 H616 0.950 . S
C614 C613 1.387 . S
C614 C617 1.387 . S
H615 C611 0.950 . S
H616 C613 0.950 . S
C617 C608 1.390 . S
C617 H610 0.950 . S
C617 C614 1.387 . S
C618 C619 1.387 . S
C618 H622 0.950 1_554 S
C618 C627 1.390 . S
C619 C618 1.387 . S
C619 C621 1.387 . S
H620 C627 0.922 1_556 S
C621 C619 1.387 . S
C621 C623 1.390 . S
C621 H625 0.950 . S
H622 C618 0.950 1_556 S
C623 C621 1.390 . S
C623 C624 1.387 . S
C623 H626 0.950 . S
C624 C623 1.387 . S
C624 C627 1.387 . S
H625 C621 0.950 . S
H626 C623 0.950 . S
C627 C618 1.390 . S
C627 H620 0.922 1_554 S
C627 C624 1.387 . S
C628 C629 1.387 . S
C628 H632 0.950 . S
C628 C637 1.390 . S
C629 C628 1.387 . S
C629 C631 1.387 . S
H630 C637 0.950 . S
C631 C629 1.387 . S
C631 C633 1.390 . S
C631 H635 0.950 . S
H632 C628 0.950 . S
C633 C631 1.390 . S
C633 C634 1.387 . S
C633 H636 0.950 . S
C634 C633 1.387 . S
C634 C637 1.387 . S
H635 C631 0.950 . S
H636 C633 0.950 . S
C637 C628 1.390 . S
C637 H630 0.950 . S
C637 C634 1.387 . S
C638 C639 1.387 . S
C638 H642 0.950 . S
C638 C647 1.390 . S
C639 C638 1.387 . S
C639 C641 1.387 . S
H640 C647 0.950 . S
C641 C639 1.387 . S
C641 C643 1.390 . S
C641 H645 0.950 . S
H642 C638 0.950 . S
C643 C641 1.390 . S
C643 C644 1.387 . S
C643 H646 0.950 . S
C644 C643 1.387 . S
C644 C647 1.387 . S
H645 C641 0.950 . S
H646 C643 0.950 . S
C647 C638 1.390 . S
C647 H640 0.950 . S
C647 C644 1.387 . S
C648 C649 1.387 . S
C648 H652 0.950 . S
C648 C657 1.390 . S
C649 C648 1.387 . S
C649 C651 1.387 . S
H650 C657 0.950 . S
C651 C649 1.387 . S
C651 C653 1.390 . S
C651 H655 0.950 . S
H652 C648 0.950 . S
C653 C651 1.390 . S
C653 C654 1.387 . S
C653 H656 0.950 . S
C654 C653 1.387 . S
C654 C657 1.387 . S
H655 C651 0.950 . S
H656 C653 0.950 . S
C657 C648 1.390 . S
C657 H650 0.950 . S
C657 C654 1.387 . S
C658 C659 1.387 . S
C658 H662 0.950 . S
C658 C667 1.390 . S
C659 C658 1.387 . S
C659 C661 1.387 . S
H660 C667 0.950 . S
C661 C659 1.387 . S
C661 C663 1.390 . S
C661 H665 0.950 . S
H662 C658 0.950 . S
C663 C661 1.390 . S
C663 C664 1.387 . S
C663 H666 0.950 . S
C664 C663 1.387 . S
C664 C667 1.387 . S
H665 C661 0.950 . S
H666 C663 0.950 . S
C667 C658 1.390 . S
C667 H660 0.950 . S
C667 C664 1.387 . S
C668 C669 1.387 . S
C668 H672 0.950 . S
C668 C677 1.390 . S
C669 C668 1.387 . S
C669 C671 1.387 . S
H670 C677 0.950 . S
C671 C669 1.387 . S
C671 C673 1.390 . S
C671 H675 0.950 . S
H672 C668 0.950 . S
C673 C671 1.390 . S
C673 C674 1.387 . S
C673 H676 0.950 . S
C674 C673 1.387 . S
C674 C677 1.387 . S
H675 C671 0.950 . S
H676 C673 0.950 . S
C677 C668 1.390 . S
C677 H670 0.950 . S
C677 C674 1.387 . S
C678 C679 1.387 . S
C678 H682 0.950 . S
C678 C687 1.390 . S
C679 C678 1.387 . S
C679 C681 1.387 . S
H680 C687 0.950 . S
C681 C679 1.387 . S
C681 C683 1.390 . S
C681 H685 0.950 . S
H682 C678 0.950 . S
C683 C681 1.390 . S
C683 C684 1.387 . S
C683 H686 0.950 . S
C684 C683 1.387 . S
C684 C687 1.387 . S
H685 C681 0.950 . S
H686 C683 0.950 . S
C687 C678 1.390 . S
C687 H680 0.950 . S
C687 C684 1.387 . S
C688 C689 1.387 . S
C688 H692 0.950 . S
C688 C697 1.390 . S
C689 C688 1.387 . S
C689 C691 1.387 . S
H690 C697 0.950 . S
C691 C689 1.387 . S
C691 C693 1.390 . S
C691 H695 0.950 1_565 S
H692 C688 0.950 . S
C693 C691 1.390 . S
C693 C694 1.387 . S
C693 H696 0.950 . S
C694 C693 1.387 . S
C694 C697 1.387 . S
H695 C691 0.950 1_545 S
H696 C693 0.950 . S
C697 C688 1.390 . S
C697 H690 0.950 . S
C697 C694 1.387 . S
C698 C699 1.387 . S
C698 H702 0.950 . S
C698 C707 1.390 . S
C699 C698 1.387 . S
C699 C701 1.387 . S
H700 C707 0.950 . S
C701 C699 1.387 . S
C701 C703 1.390 . S
C701 H705 0.950 . S
H702 C698 0.950 . S
C703 C701 1.390 . S
C703 C704 1.387 . S
C703 H706 0.950 . S
C704 C703 1.387 . S
C704 C707 1.387 . S
H705 C701 0.950 . S
H706 C703 0.950 . S
C707 C698 1.390 . S
C707 H700 0.950 . S
C707 C704 1.387 . S
C708 C709 1.387 . S
C708 H712 0.950 . S
C708 C717 1.390 . S
C709 C708 1.387 . S
C709 C711 1.387 . S
H710 C717 0.950 . S
C711 C709 1.387 . S
C711 C713 1.390 . S
C711 H715 0.950 . S
H712 C708 0.950 . S
C713 C711 1.390 . S
C713 C714 1.387 . S
C713 H716 0.950 . S
C714 C713 1.387 . S
C714 C717 1.387 . S
H715 C711 0.950 . S
H716 C713 0.950 . S
C717 C708 1.390 . S
C717 H710 0.950 . S
C717 C714 1.387 . S
C718 C719 1.387 . S
C718 H722 0.950 . S
C718 C727 1.390 . S
C719 C718 1.387 . S
C719 C721 1.387 . S
H720 C727 0.950 . S
C721 C719 1.387 . S
C721 C723 1.390 . S
C721 H725 0.950 . S
H722 C718 0.950 . S
C723 C721 1.390 . S
C723 C724 1.387 . S
C723 H726 0.950 . S
C724 C723 1.387 . S
C724 C727 1.387 . S
H725 C721 0.950 . S
H726 C723 0.950 . S
C727 C718 1.390 . S
C727 H720 0.950 . S
C727 C724 1.387 . S
C728 C729 1.387 . S
C728 H732 0.950 . S
C728 C737 1.390 . S
C729 C728 1.387 . S
C729 C731 1.387 . S
H730 C737 0.950 . S
C731 C729 1.387 . S
C731 C733 1.390 . S
C731 H735 0.950 . S
H732 C728 0.950 . S
C733 C731 1.390 . S
C733 C734 1.387 . S
C733 H736 0.950 . S
C734 C733 1.387 . S
C734 C737 1.387 . S
H735 C731 0.950 . S
H736 C733 0.950 . S
C737 C728 1.390 . S
C737 H730 0.950 . S
C737 C734 1.387 . S
C738 C739 1.387 . S
C738 H742 0.950 . S
C738 C747 1.390 . S
C739 C738 1.387 . S
C739 C741 1.387 . S
H740 C747 0.950 . S
C741 C739 1.387 . S
C741 C743 1.390 . S
C741 H745 0.950 . S
H742 C738 0.950 . S
C743 C741 1.390 . S
C743 C744 1.387 . S
C743 H746 0.950 . S
C744 C743 1.387 . S
C744 C747 1.387 . S
H745 C741 0.950 . S
H746 C743 0.950 . S
C747 C738 1.390 . S
C747 H740 0.950 . S
C747 C744 1.387 . S
C748 C749 1.387 . S
C748 H752 0.950 . S
C748 C757 1.390 1_554 S
C749 C748 1.387 . S
C749 C751 1.387 . S
H750 C757 0.950 . S
C751 C749 1.387 . S
C751 C753 1.390 1_554 S
C751 H755 0.950 . S
H752 C748 0.950 . S
C753 C751 1.390 1_556 S
C753 C754 1.387 . S
C753 H756 0.950 . S
C754 C753 1.387 . S
C754 C757 1.387 . S
H755 C751 0.950 . S
H756 C753 0.950 . S
C757 C748 1.390 1_556 S
C757 H750 0.950 . S
C757 C754 1.387 . S
C758 C759 1.387 . S
C758 H762 0.950 . S
C758 C767 1.390 . S
C759 C758 1.387 . S
C759 C761 1.387 . S
H760 C767 0.950 . S
C761 C759 1.387 . S
C761 C763 1.390 . S
C761 H765 0.950 . S
H762 C758 0.950 . S
C763 C761 1.390 . S
C763 C764 1.387 . S
C763 H766 0.950 . S
C764 C763 1.387 . S
C764 C767 1.387 . S
H765 C761 0.950 . S
H766 C763 0.950 . S
C767 C758 1.390 . S
C767 H760 0.950 . S
C767 C764 1.387 . S
C534 C514 1.569 . S
C529 C51 1.490 . S
C539 C125 1.473 . S
C544 C455 1.481 . S
C549 C217 2.519 . S
C554 C458 2.585 . S
C559 C291 1.583 . S
C564 C472 1.590 . S
C574 C497 1.216 . S
C569 C347 1.162 . S
C579 C421 1.088 . S
C584 C500 1.093 . S
C589 C143 2.163 . S
C594 C469 2.172 . S
C599 C199 1.569 . S
C604 C483 1.609 . S
C609 C273 0.766 . S
C614 C486 0.767 . S
C624 C511 1.770 . S
C619 C365 1.703 . S
C634 C525 1.800 . S
C629 C439 1.804 . S
C644 C444 2.479 . S
C639 C69 2.402 . S
C649 C63 1.500 . S
C654 C467 1.668 . S
C659 C137 1.629 . S
C664 C481 1.760 . S
C674 C491 1.513 . S
C669 C187 1.430 . S
C679 C261 1.556 . S
C684 C509 1.592 1_556 S
C694 C523 1.824 . S
C689 C359 1.588 . S
C704 C449 1.408 . S
C699 C433 1.295 . S
C714 C519 1.755 . S
C709 C113 1.721 . S
C719 C211 1.422 . S
C724 C453 1.567 . S
C734 C463 1.808 . S
C729 C285 1.641 . S
C739 C335 1.510 . S
C744 C477 1.630 . S
C749 C409 1.437 . S
C754 C495 1.462 . S
C759 C39 1.629 . S
C764 C505 1.677 . S
