# Generated by pormake.
# Topology pto, (3,4)-cn, num edge types: 1
# Building blocks:
#     Node 0, Type 0, BuildingBlock: BETDAH_clean_linker_0, # of connection points: 3
#     Node 1, Type 0, BuildingBlock: BETDAH_clean_linker_0, # of connection points: 3
#     Node 2, Type 0, BuildingBlock: BETDAH_clean_linker_0, # of connection points: 3
#     Node 3, Type 0, BuildingBlock: BETDAH_clean_linker_0, # of connection points: 3
#     Node 4, Type 0, BuildingBlock: BETDAH_clean_linker_0, # of connection points: 3
#     Node 5, Type 0, BuildingBlock: BETDAH_clean_linker_0, # of connection points: 3
#     Node 6, Type 0, BuildingBlock: BETDAH_clean_linker_0, # of connection points: 3
#     Node 7, Type 0, BuildingBlock: BETDAH_clean_linker_0, # of connection points: 3
#     Node 8, Type 1, BuildingBlock: KOZSID_clean_sbu_0, # of connection points: 4
#     Node 9, Type 1, BuildingBlock: KOZSID_clean_sbu_0, # of connection points: 4
#     Node 10, Type 1, BuildingBlock: KOZSID_clean_sbu_0, # of connection points: 4
#     Node 11, Type 1, BuildingBlock: KOZSID_clean_sbu_0, # of connection points: 4
#     Node 12, Type 1, BuildingBlock: KOZSID_clean_sbu_0, # of connection points: 4
#     Node 13, Type 1, BuildingBlock: KOZSID_clean_sbu_0, # of connection points: 4
#     Edge 14, Type (0, 1), BuildingBlock: AJUNOK_clean_linker_0, # of connection points: 2
#     Edge 15, Type (0, 1), BuildingBlock: AJUNOK_clean_linker_0, # of connection points: 2
#     Edge 16, Type (0, 1), BuildingBlock: AJUNOK_clean_linker_0, # of connection points: 2
#     Edge 17, Type (0, 1), BuildingBlock: AJUNOK_clean_linker_0, # of connection points: 2
#     Edge 18, Type (0, 1), BuildingBlock: AJUNOK_clean_linker_0, # of connection points: 2
#     Edge 19, Type (0, 1), BuildingBlock: AJUNOK_clean_linker_0, # of connection points: 2
#     Edge 20, Type (0, 1), BuildingBlock: AJUNOK_clean_linker_0, # of connection points: 2
#     Edge 21, Type (0, 1), BuildingBlock: AJUNOK_clean_linker_0, # of connection points: 2
#     Edge 22, Type (0, 1), BuildingBlock: AJUNOK_clean_linker_0, # of connection points: 2
#     Edge 23, Type (0, 1), BuildingBlock: AJUNOK_clean_linker_0, # of connection points: 2
#     Edge 24, Type (0, 1), BuildingBlock: AJUNOK_clean_linker_0, # of connection points: 2
#     Edge 25, Type (0, 1), BuildingBlock: AJUNOK_clean_linker_0, # of connection points: 2
#     Edge 26, Type (0, 1), BuildingBlock: AJUNOK_clean_linker_0, # of connection points: 2
#     Edge 27, Type (0, 1), BuildingBlock: AJUNOK_clean_linker_0, # of connection points: 2
#     Edge 28, Type (0, 1), BuildingBlock: AJUNOK_clean_linker_0, # of connection points: 2
#     Edge 29, Type (0, 1), BuildingBlock: AJUNOK_clean_linker_0, # of connection points: 2
#     Edge 30, Type (0, 1), BuildingBlock: AJUNOK_clean_linker_0, # of connection points: 2
#     Edge 31, Type (0, 1), BuildingBlock: AJUNOK_clean_linker_0, # of connection points: 2
#     Edge 32, Type (0, 1), BuildingBlock: AJUNOK_clean_linker_0, # of connection points: 2
#     Edge 33, Type (0, 1), BuildingBlock: AJUNOK_clean_linker_0, # of connection points: 2
#     Edge 34, Type (0, 1), BuildingBlock: AJUNOK_clean_linker_0, # of connection points: 2
#     Edge 35, Type (0, 1), BuildingBlock: AJUNOK_clean_linker_0, # of connection points: 2
#     Edge 36, Type (0, 1), BuildingBlock: AJUNOK_clean_linker_0, # of connection points: 2
#     Edge 37, Type (0, 1), BuildingBlock: AJUNOK_clean_linker_0, # of connection points: 2
# Relax obj value: 0.011
# Max RMSD: 0.122
# Mean RMSD: 0.062
data_MOF--net-pto--node1-KOZSID_clean_sbu_0--node2-BETDAH_clean_linker_0--edge1-AJUNOK_clean_linker_0
_symmetry_space_group_name_H-M    P1
_symmetry_Int_Tables_number       1
_symmetry_cell_setting            triclinic
loop_
_symmetry_equiv_pos_as_xyz
'x, y, z'
_cell_length_a     29.171393
_cell_length_b     37.698932
_cell_length_c     33.884615
_cell_angle_alpha  102.10416
_cell_angle_beta   92.633982
_cell_angle_gamma 105.0045
loop_
_atom_site_label
_atom_site_type_symbol
_atom_site_fract_x
_atom_site_fract_y
_atom_site_fract_z
_atom_type_partial_charge
H0 H 0.36703 0.20119 0.38572 0.0
H1 H 0.3051 0.29179 0.3769 0.0
H2 H 0.27122 0.23153 0.47098 0.0
C3 C 0.34426 0.21884 0.39692 0.0
C4 C 0.31983 0.21286 0.43076 0.0
C5 C 0.3394 0.24738 0.37736 0.0
C6 C 0.30911 0.26984 0.3918 0.0
C7 C 0.28475 0.26418 0.42586 0.0
C8 C 0.29052 0.23592 0.44503 0.0
N9 N 0.25407 0.28603 0.44213 0.0
C10 C 0.24243 0.31443 0.42684 0.0
H11 H 0.32938 0.7337 0.8107 0.0
H12 H 0.34993 0.84821 0.8011 0.0
H13 H 0.2099 0.77318 0.77741 0.0
C14 C 0.31434 0.75508 0.80316 0.0
C15 C 0.26494 0.74676 0.79154 0.0
C16 C 0.34448 0.79193 0.80906 0.0
C17 C 0.32691 0.8198 0.79701 0.0
C18 C 0.2785 0.81171 0.78299 0.0
C19 C 0.2476 0.77638 0.78305 0.0
N20 N 0.25869 0.83964 0.77267 0.0
C21 C 0.28094 0.86593 0.7513 0.0
H22 H 0.90001 0.77132 0.46148 0.0
H23 H 0.8245 0.80153 0.36655 0.0
H24 H 0.87877 0.70473 0.33898 0.0
C25 C 0.88542 0.76576 0.4301 0.0
C26 C 0.89283 0.73527 0.4016 0.0
C27 C 0.86097 0.79007 0.41758 0.0
C28 C 0.84322 0.78303 0.37639 0.0
C29 C 0.84952 0.75198 0.34819 0.0
C30 C 0.87408 0.72856 0.36108 0.0
N31 N 0.83261 0.74308 0.30638 0.0
C32 C 0.8063 0.76162 0.28705 0.0
H33 H 0.85386 0.28028 0.84932 0.0
H34 H 0.70979 0.23244 0.87049 0.0
H35 H 0.76156 0.3516 0.88718 0.0
C36 C 0.82028 0.28463 0.85786 0.0
C37 C 0.81411 0.32132 0.86819 0.0
C38 C 0.78206 0.25249 0.85618 0.0
C39 C 0.73934 0.25696 0.87117 0.0
C40 C 0.73348 0.2931 0.88431 0.0
C41 C 0.76943 0.32461 0.88055 0.0
N42 N 0.68973 0.29817 0.89746 0.0
C43 C 0.67125 0.28607 0.93097 0.0
H44 H 0.80203 0.73497 0.87726 0.0
H45 H 0.83864 0.72791 0.75519 0.0
H46 H 0.76382 0.80804 0.8068 0.0
C47 C 0.8023 0.74507 0.84955 0.0
C48 C 0.77985 0.77331 0.84606 0.0
C49 C 0.82327 0.72846 0.81687 0.0
C50 C 0.82233 0.74054 0.78057 0.0
C51 C 0.80204 0.76965 0.77693 0.0
C52 C 0.78059 0.78609 0.80974 0.0
N53 N 0.80262 0.7804 0.73919 0.0
C54 C 0.80057 0.81544 0.73353 0.0
H55 H 0.80736 0.31999 0.39428 0.0
H56 H 0.895 0.26433 0.45031 0.0
H57 H 0.7714 0.19901 0.36775 0.0
C58 C 0.81381 0.29435 0.39999 0.0
C59 C 0.78402 0.2594 0.37865 0.0
C60 C 0.85395 0.29669 0.42595 0.0
C61 C 0.863 0.26309 0.43191 0.0
C62 C 0.83226 0.22776 0.41185 0.0
C63 C 0.79317 0.22619 0.38511 0.0
N64 N 0.84535 0.19402 0.41171 0.0
C65 C 0.84401 0.17712 0.4446 0.0
H66 H 0.32158 0.22713 0.86272 0.0
H67 H 0.33597 0.34474 0.91266 0.0
H68 H 0.28733 0.29684 0.78658 0.0
C69 C 0.31722 0.25404 0.85922 0.0
C70 C 0.30185 0.25781 0.8208 0.0
C71 C 0.32994 0.28519 0.89261 0.0
C72 C 0.32486 0.32012 0.88762 0.0
C73 C 0.30846 0.32412 0.84966 0.0
C74 C 0.29749 0.29309 0.81628 0.0
N75 N 0.31162 0.36065 0.84356 0.0
C76 C 0.27297 0.37585 0.844 0.0
H77 H 0.28225 0.76206 0.40436 0.0
H78 H 0.35783 0.80615 0.31108 0.0
H79 H 0.283 0.68823 0.28919 0.0
C80 C 0.29365 0.75759 0.37414 0.0
C81 C 0.27919 0.72141 0.3485 0.0
C82 C 0.32194 0.78828 0.36094 0.0
C83 C 0.33653 0.7825 0.32156 0.0
C84 C 0.3229 0.74609 0.29582 0.0
C85 C 0.2942 0.716 0.30948 0.0
N86 N 0.33556 0.73836 0.25554 0.0
C87 C 0.37041 0.76179 0.23873 0.0
C88 C 0.15016 0.58992 0.43706 0.0
C89 C 0.17997 0.61551 0.46947 0.0
C90 C 0.16407 0.60553 0.50391 0.0
C91 C 0.12567 0.57451 0.49065 0.0
N92 N 0.11647 0.56372 0.44976 0.0
Co93 Co 0.06235 0.52141 0.41779 0.0
N94 N 0.03859 0.50681 0.46847 0.0
C95 C 0.05696 0.52406 0.5072 0.0
C96 C 0.03587 0.50561 0.53533 0.0
C97 C 0.00279 0.47419 0.51322 0.0
C98 C 0.0055 0.47544 0.47276 0.0
N99 N 0.00781 0.47949 0.38589 0.0
C100 C 0.97656 0.45161 0.39827 0.0
C101 C 0.94469 0.42743 0.36622 0.0
C102 C 0.95729 0.43977 0.33214 0.0
C103 C 0.99576 0.47074 0.3453 0.0
N104 N 0.08657 0.53508 0.36693 0.0
C105 C 0.06758 0.51795 0.32827 0.0
C106 C 0.09148 0.53391 0.29969 0.0
C107 C 0.12772 0.5632 0.3213 0.0
C108 C 0.12385 0.56339 0.36205 0.0
N109 N 0.10246 0.48578 0.41484 0.0
C110 C 0.1558 0.43276 0.41198 0.0
C111 C 0.12716 0.43278 0.37779 0.0
C112 C 0.1012 0.45943 0.37979 0.0
C113 C 0.15769 0.46004 0.44747 0.0
C114 C 0.13109 0.48611 0.44821 0.0
N115 N 0.02249 0.55764 0.42071 0.0
C116 C 0.97929 0.59106 0.386 0.0
C117 C 0.98004 0.61729 0.42201 0.0
C118 C 0.99919 0.6116 0.45792 0.0
C119 C 0.02002 0.58176 0.4566 0.0
C120 C 1.00011 0.56161 0.38608 0.0
H121 H 0.03497 0.57948 0.48488 0.0
H122 H 0.99867 0.54306 0.35748 0.0
H123 H 0.07985 0.45788 0.35277 0.0
H124 H 0.13356 0.50586 0.47633 0.0
C125 C 0.09718 0.55524 0.51577 0.0
C126 C 0.15458 0.59235 0.39492 0.0
C127 C 0.97802 0.44525 0.43927 0.0
C128 C 0.02516 0.4888 0.31992 0.0
H129 H 0.20971 0.63926 0.46828 0.0
H130 H 0.17838 0.61954 0.53495 0.0
H131 H 0.04507 0.51312 0.56789 0.0
H132 H 0.98039 0.45221 0.52538 0.0
H133 H 0.91653 0.40254 0.36714 0.0
H134 H 0.94191 0.4265 0.30119 0.0
H135 H 0.08269 0.52595 0.26708 0.0
H136 H 0.15329 0.58281 0.30848 0.0
H137 H 0.1246 0.41217 0.3496 0.0
H138 H 0.1785 0.46065 0.47504 0.0
H139 H 0.96338 0.59364 0.35757 0.0
H140 H 0.99974 0.63088 0.48667 0.0
C141 C 0.11907 0.60874 0.85372 0.0
C142 C 0.1399 0.63915 0.88616 0.0
C143 C 0.11422 0.63402 0.91815 0.0
C144 C 0.0789 0.60122 0.90369 0.0
N145 N 0.08098 0.58478 0.86468 0.0
Co146 Co 0.03172 0.54002 0.83146 0.0
N147 N 0.0034 0.52644 0.88049 0.0
C148 C 0.01194 0.54854 0.91827 0.0
C149 C 0.99279 0.52991 0.94688 0.0
C150 C 0.97041 0.49389 0.92581 0.0
C151 C 0.97598 0.49278 0.88508 0.0
N152 N 0.98175 0.49611 0.79842 0.0
C153 C 0.95144 0.46718 0.80992 0.0
C154 C 0.91818 0.44504 0.77764 0.0
C155 C 0.92923 0.45999 0.74466 0.0
C156 C 0.96782 0.49071 0.75868 0.0
N157 N 0.06034 0.55279 0.78226 0.0
C158 C 0.04099 0.53781 0.74353 0.0
C159 C 0.07114 0.54863 0.71572 0.0
C160 C 0.11162 0.57265 0.7383 0.0
C161 C 0.10328 0.57605 0.77879 0.0
N162 N 0.07432 0.50795 0.83491 0.0
C163 C 0.13677 0.46318 0.83993 0.0
C164 C 0.10971 0.45946 0.8033 0.0
C165 C 0.07881 0.48208 0.80142 0.0
C166 C 0.1309 0.48912 0.8742 0.0
C167 C 0.09975 0.51122 0.87103 0.0
N168 N 0.98913 0.57217 0.82813 0.0
C169 C 0.91197 0.58386 0.83383 0.0
C170 C 0.9299 0.61963 0.82604 0.0
C171 C 0.97762 0.63097 0.81881 0.0
C172 C 0.00639 0.60677 0.81956 0.0
C173 C 0.94228 0.56064 0.83502 0.0
H174 H 0.04272 0.61641 0.81341 0.0
H175 H 0.92784 0.53349 0.84179 0.0
H176 H 0.05887 0.47879 0.77273 0.0
H177 H 0.09637 0.53103 0.89791 0.0
C178 C 0.04583 0.58352 0.92676 0.0
C179 C 0.1327 0.60625 0.81205 0.0
C180 C 0.95228 0.4606 0.85121 0.0
C181 C 0.99672 0.51077 0.7345 0.0
H182 H 0.16943 0.66349 0.88675 0.0
H183 H 0.12047 0.65216 0.94834 0.0
H184 H 0.99716 0.54051 0.97948 0.0
H185 H 0.95282 0.47118 0.93937 0.0
H186 H 0.88912 0.42049 0.77771 0.0
H187 H 0.91225 0.4489 0.71386 0.0
H188 H 0.06473 0.53979 0.68296 0.0
H189 H 0.1427 0.58761 0.72628 0.0
H190 H 0.11311 0.43975 0.77604 0.0
H191 H 0.15021 0.49232 0.90338 0.0
H192 H 0.87511 0.57422 0.83962 0.0
H193 H 0.99255 0.65833 0.81226 0.0
C194 C 0.3595 0.99614 0.64291 0.0
C195 C 0.40207 0.99697 0.6636 0.0
C196 C 0.4373 0.02238 0.65092 0.0
C197 C 0.41434 0.03558 0.62337 0.0
N198 N 0.3665 0.02017 0.61759 0.0
Co199 Co 0.31947 0.03179 0.58044 0.0
N200 N 0.37154 0.06851 0.56116 0.0
C201 C 0.41904 0.07643 0.57158 0.0
C202 C 0.44609 0.10262 0.55331 0.0
C203 C 0.41399 0.11219 0.52993 0.0
C204 C 0.36902 0.09132 0.53549 0.0
N205 N 0.2723 0.04418 0.54419 0.0
C206 C 0.27905 0.0699 0.52084 0.0
C207 C 0.2361 0.07081 0.50217 0.0
C208 C 0.20099 0.04479 0.51409 0.0
C209 C 0.22429 0.02969 0.53943 0.0
N210 N 0.26752 0.99435 0.59896 0.0
C211 C 0.22031 0.98446 0.58637 0.0
C212 C 0.19338 0.95744 0.60367 0.0
C213 C 0.22525 0.94934 0.62868 0.0
C214 C 0.27001 0.97201 0.62517 0.0
N215 N 0.31262 0.073 0.6252 0.0
C216 C 0.30306 0.13278 0.68721 0.0
C217 C 0.26295 0.10506 0.66609 0.0
C218 C 0.26849 0.07564 0.6355 0.0
C219 C 0.348 0.13003 0.67682 0.0
C220 C 0.35195 0.10012 0.64614 0.0
N221 N 0.32627 0.99051 0.53553 0.0
C222 C 0.29083 0.93741 0.4792 0.0
C223 C 0.3347 0.92958 0.47446 0.0
C224 C 0.3746 0.95336 0.49994 0.0
C225 C 0.36968 0.98353 0.52988 0.0
C226 C 0.2874 0.96763 0.50972 0.0
H227 H 0.40147 1.00052 0.5483 0.0
H228 H 0.25272 0.97149 0.51215 0.0
H229 H 0.23652 0.0555 0.62046 0.0
H230 H 0.38722 0.09958 0.63985 0.0
C231 C 0.43688 0.06094 0.6009 0.0
C232 C 0.31361 0.97129 0.64757 0.0
C233 C 0.32507 0.09472 0.51625 0.0
C234 C 0.20215 1.0019 0.55922 0.0
H235 H 0.40716 0.98054 0.68524 0.0
H236 H 0.47523 0.02988 0.6602 0.0
H237 H 0.48452 0.11403 0.55724 0.0
H238 H 0.42262 0.1326 0.51131 0.0
H239 H 0.23059 0.08871 0.48231 0.0
H240 H 0.16295 0.03798 0.50563 0.0
H241 H 0.15509 0.94523 0.59883 0.0
H242 H 0.21651 0.92908 0.64746 0.0
H243 H 0.22735 0.10631 0.67271 0.0
H244 H 0.38013 0.15073 0.69262 0.0
H245 H 0.25889 0.91958 0.46017 0.0
H246 H 0.40948 0.94862 0.49693 0.0
C247 C 0.52808 0.8332 0.11517 0.0
C248 C 0.52477 0.86766 0.13733 0.0
C249 C 0.55882 0.89481 0.1258 0.0
C250 C 0.58092 0.87546 0.09739 0.0
N251 N 0.56262 0.83756 0.08964 0.0
Co252 Co 0.58563 0.79869 0.05186 0.0
N253 N 0.63892 0.83842 0.03806 0.0
C254 C 0.64996 0.87608 0.05351 0.0
C255 C 0.68715 0.89634 0.03698 0.0
C256 C 0.70025 0.87013 0.00887 0.0
C257 C 0.67018 0.83526 0.00993 0.0
N258 N 0.60809 0.75975 0.01378 0.0
C259 C 0.64223 0.76413 0.98802 0.0
C260 C 0.6455 0.72962 0.96578 0.0
C261 C 0.61139 0.70247 0.97712 0.0
C262 C 0.58947 0.72183 0.0056 0.0
N263 N 0.53271 0.75886 0.06592 0.0
C264 C 0.52219 0.7211 0.05108 0.0
C265 C 0.48472 0.70083 0.06724 0.0
C266 C 0.47094 0.72709 0.09463 0.0
C267 C 0.50107 0.76202 0.09366 0.0
N268 N 0.54351 0.80213 0.00574 0.0
C269 C 0.49034 0.80625 0.93591 0.0
C270 C 0.48923 0.77155 0.94485 0.0
C271 C 0.51575 0.77015 0.97954 0.0
C272 C 0.51736 0.83898 0.96322 0.0
C273 C 0.54346 0.83631 0.99769 0.0
N274 N 0.62811 0.79528 0.0978 0.0
C275 C 0.66114 0.75757 0.13462 0.0
C276 C 0.68754 0.78971 0.16299 0.0
C277 C 0.68357 0.82477 0.15846 0.0
C278 C 0.65402 0.82692 0.12576 0.0
C279 C 0.63177 0.76093 0.10274 0.0
H280 H 0.65286 0.85447 0.1237 0.0
H281 H 0.61237 0.73526 0.08255 0.0
H282 H 0.51334 0.74279 0.98435 0.0
H283 H 0.56362 0.86225 0.01717 0.0
C284 C 0.62164 0.89175 0.08036 0.0
C285 C 0.49946 0.79709 0.12097 0.0
C286 C 0.67073 0.80022 0.98206 0.0
C287 C 0.54962 0.70537 0.02345 0.0
H288 H 0.50107 0.87259 0.16026 0.0
H289 H 0.56762 0.925 0.13782 0.0
H290 H 0.7017 0.92668 0.0434 0.0
H291 H 0.72781 0.87607 0.98897 0.0
H292 H 0.66929 0.72462 0.94294 0.0
H293 H 0.60268 0.67228 0.96516 0.0
H294 H 0.46999 0.6705 0.06066 0.0
H295 H 0.44259 0.72114 0.11382 0.0
H296 H 0.46732 0.74543 0.92547 0.0
H297 H 0.51869 0.86656 0.95788 0.0
H298 H 0.66296 0.72976 0.13712 0.0
H299 H 0.7039 0.85047 0.17953 0.0
C300 C 0.8586 0.98172 0.68311 0.0
C301 C 0.89964 0.98305 0.70642 0.0
C302 C 0.93258 0.01611 0.70516 0.0
C303 C 0.90992 0.03294 0.68113 0.0
N304 N 0.86491 0.01249 0.66714 0.0
Co305 Co 0.81978 0.02575 0.63088 0.0
N306 N 0.87228 0.06316 0.6141 0.0
C307 C 0.91651 0.0783 0.63385 0.0
C308 C 0.94484 0.10462 0.61643 0.0
C309 C 0.91654 0.10662 0.58402 0.0
C310 C 0.87232 0.08125 0.58344 0.0
N311 N 0.77437 0.03883 0.59452 0.0
C312 C 0.78268 0.05856 0.56515 0.0
C313 C 0.74023 0.06133 0.54743 0.0
C314 C 0.70439 0.0437 0.56721 0.0
C315 C 0.72672 0.03089 0.59557 0.0
N316 N 0.76737 0.98895 0.64831 0.0
C317 C 0.72072 0.98736 0.64473 0.0
C318 C 0.69299 0.95884 0.65977 0.0
C319 C 0.72424 0.9415 0.67374 0.0
C320 C 0.76933 0.96049 0.6663 0.0
N321 N 0.81253 0.06551 0.67587 0.0
C322 C 0.80119 0.122 0.73991 0.0
C323 C 0.80338 0.08708 0.74655 0.0
C324 C 0.80869 0.05912 0.71408 0.0
C325 C 0.80504 0.1282 0.70077 0.0
C326 C 0.81109 0.09982 0.66934 0.0
N327 N 0.82711 0.98565 0.58633 0.0
C328 C 0.79226 0.92733 0.53693 0.0
C329 C 0.83763 0.92314 0.52969 0.0
C330 C 0.87764 0.95154 0.55014 0.0
C331 C 0.87164 0.98237 0.57855 0.0
C332 C 0.78778 0.95901 0.56493 0.0
H333 H 0.9031 1.00298 0.59506 0.0
H334 H 0.75241 0.96139 0.57007 0.0
H335 H 0.80941 0.03224 0.71994 0.0
H336 H 0.81445 0.10574 0.63973 0.0
C337 C 0.93171 0.06392 0.66545 0.0
C338 C 0.81344 0.9522 0.67852 0.0
C339 C 0.83013 0.07836 0.55628 0.0
C340 C 0.70387 0.00804 0.62049 0.0
H341 H 0.90516 0.9624 0.72265 0.0
H342 H 0.96926 0.02585 0.71874 0.0
H343 H 0.98185 0.12011 0.62576 0.0
H344 H 0.92694 0.1253 0.56375 0.0
H345 H 0.73567 0.07535 0.52334 0.0
H346 H 0.66652 0.04014 0.56115 0.0
H347 H 0.6545 0.95053 0.65899 0.0
H348 H 0.71496 0.91762 0.68771 0.0
H349 H 0.80015 0.0812 0.77641 0.0
H350 H 0.80374 0.155 0.69455 0.0
H351 H 0.76048 0.90614 0.52124 0.0
H352 H 0.91332 0.9493 0.54521 0.0
C353 C 0.46382 0.29799 0.22676 0.0
C354 C 0.46151 0.33205 0.25073 0.0
C355 C 0.49321 0.35978 0.23795 0.0
C356 C 0.51298 0.34114 0.20706 0.0
N357 N 0.49531 0.30315 0.19885 0.0
Co358 Co 0.51599 0.26511 0.15794 0.0
N359 N 0.56448 0.30581 0.14059 0.0
C360 C 0.574 0.34349 0.15538 0.0
C361 C 0.60704 0.36444 0.13577 0.0
C362 C 0.61861 0.33866 0.10607 0.0
C363 C 0.59187 0.30335 0.10938 0.0
N364 N 0.5373 0.22707 0.11755 0.0
C365 C 0.5678 0.23222 0.08892 0.0
C366 C 0.57164 0.19818 0.0661 0.0
C367 C 0.54173 0.17043 0.08028 0.0
C368 C 0.52152 0.18906 0.11087 0.0
N369 N 0.46679 0.22442 0.17458 0.0
C370 C 0.45667 0.1868 0.15912 0.0
C371 C 0.42177 0.16584 0.17717 0.0
C372 C 0.40916 0.19156 0.20624 0.0
C373 C 0.43729 0.22685 0.20423 0.0
N374 N 0.46852 0.2674 0.1152 0.0
C375 C 0.41514 0.27203 0.04607 0.0
C376 C 0.41821 0.23719 0.05212 0.0
C377 C 0.44441 0.23548 0.08688 0.0
C378 C 0.436 0.30419 0.0766 0.0
C379 C 0.46236 0.30126 0.11073 0.0
N380 N 0.564 0.26286 0.20044 0.0
C381 C 0.60199 0.22702 0.2364 0.0
C382 C 0.63424 0.26003 0.25896 0.0
C383 C 0.62977 0.29447 0.25272 0.0
C384 C 0.59477 0.29524 0.22363 0.0
C385 C 0.56749 0.22906 0.20747 0.0
H386 H 0.59348 0.32242 0.22042 0.0
H387 H 0.54433 0.20286 0.19102 0.0
H388 H 0.446 0.20816 0.0895 0.0
H389 H 0.47882 0.32695 0.13233 0.0
C390 C 0.5492 0.35838 0.18604 0.0
C391 C 0.4367 0.26153 0.23272 0.0
C392 C 0.59153 0.26854 0.08068 0.0
C393 C 0.48357 0.17187 0.1303 0.0
H394 H 0.43974 0.33631 0.27537 0.0
H395 H 0.50157 0.3899 0.25026 0.0
H396 H 0.61995 0.39487 0.14148 0.0
H397 H 0.64293 0.34512 0.08375 0.0
H398 H 0.59272 0.19392 0.04095 0.0
H399 H 0.53396 0.14027 0.06843 0.0
H400 H 0.4083 0.13542 0.17094 0.0
H401 H 0.38318 0.18503 0.2273 0.0
H402 H 0.40146 0.21144 0.02956 0.0
H403 H 0.43394 0.33171 0.07326 0.0
H404 H 0.60401 0.19967 0.24038 0.0
H405 H 0.65326 0.32086 0.27026 0.0
C406 C 0.17726 0.33588 0.39971 0.0
C407 C 0.22433 0.34433 0.41756 0.0
C408 C 0.156 0.36474 0.39653 0.0
C409 C 0.18103 0.40302 0.41148 0.0
H410 H 0.15611 0.30677 0.38955 0.0
H411 H 0.11902 0.35695 0.38392 0.0
S412 S 0.30684 0.43948 0.45782 0.0
N413 N 0.29639 0.39311 0.44822 0.0
N414 N 0.25687 0.44756 0.44202 0.0
C415 C 0.2289 0.41167 0.42793 0.0
C416 C 0.25047 0.38223 0.43102 0.0
C417 C 0.24466 0.68688 0.81821 0.0
C418 C 0.23174 0.70873 0.7925 0.0
C419 C 0.21379 0.65271 0.82191 0.0
C420 C 0.16705 0.63987 0.80267 0.0
H421 H 0.27826 0.69637 0.83716 0.0
H422 H 0.22574 0.6372 0.84195 0.0
S423 S 0.11447 0.68338 0.7299 0.0
N424 N 0.16969 0.71043 0.74244 0.0
N425 N 0.10868 0.65097 0.75668 0.0
C426 C 0.15312 0.66087 0.77686 0.0
C427 C 0.18595 0.69409 0.77025 0.0
C428 C 0.90576 0.68799 0.44071 0.0
C429 C 0.92076 0.71011 0.41252 0.0
C430 C 0.92639 0.65888 0.44511 0.0
C431 C 0.96239 0.65088 0.42125 0.0
H432 H 0.87633 0.69192 0.45789 0.0
H433 H 0.91258 0.64142 0.46587 0.0
S434 S 0.01893 0.7044 0.34776 0.0
N435 N 0.97745 0.72482 0.36402 0.0
N436 N 0.01563 0.67023 0.37195 0.0
C437 C 0.97952 0.67437 0.39489 0.0
C438 C 0.95889 0.70395 0.39065 0.0
C439 C 0.85276 0.39182 0.88857 0.0
C440 C 0.85258 0.35605 0.86498 0.0
C441 C 0.88441 0.42519 0.8838 0.0
C442 C 0.92087 0.42461 0.85824 0.0
H443 H 0.82771 0.39472 0.91074 0.0
H444 H 0.87952 0.45172 0.89993 0.0
S445 S 0.93884 0.34013 0.78951 0.0
N446 N 0.89142 0.32361 0.81182 0.0
N447 N 0.95649 0.38586 0.80962 0.0
C448 C 0.92322 0.38939 0.8359 0.0
C449 C 0.88827 0.35537 0.83792 0.0
C450 C 0.33321 0.19075 0.49415 0.0
C451 C 0.32434 0.18258 0.45151 0.0
C452 C 0.33452 0.16234 0.51478 0.0
C453 C 0.32686 0.12475 0.49352 0.0
H454 H 0.33882 0.21933 0.51176 0.0
H455 H 0.3407 0.16965 0.54762 0.0
S456 S 0.30264 0.08818 0.38217 0.0
N457 N 0.30799 0.13383 0.38892 0.0
N458 N 0.31112 0.08066 0.42791 0.0
C459 C 0.31892 0.11619 0.45102 0.0
C460 C 0.31756 0.14506 0.42995 0.0
C461 C 0.39527 0.82876 0.873 0.0
C462 C 0.38987 0.80219 0.83589 0.0
C463 C 0.42996 0.8316 0.90444 0.0
C464 C 0.46054 0.80797 0.89989 0.0
H465 H 0.37012 0.84544 0.879 0.0
H466 H 0.43061 0.85064 0.93339 0.0
S467 S 0.46724 0.73924 0.80581 0.0
N468 N 0.42228 0.75568 0.79434 0.0
N469 N 0.48807 0.76136 0.8532 0.0
C470 C 0.4583 0.78371 0.86167 0.0
C471 C 0.42286 0.78075 0.82973 0.0
C472 C 0.87162 0.85986 0.43933 0.0
C473 C 0.85517 0.82362 0.44699 0.0
C474 C 0.86625 0.89199 0.46637 0.0
C475 C 0.84329 0.88892 0.50158 0.0
H476 H 0.88917 0.86343 0.41236 0.0
H477 H 0.87964 0.91937 0.45947 0.0
S478 S 0.79372 0.80075 0.5356 0.0
N479 N 0.81533 0.78675 0.49262 0.0
N480 N 0.80436 0.847 0.54292 0.0
C481 C 0.82653 0.85292 0.50954 0.0
C482 C 0.83274 0.82031 0.48241 0.0
C483 C 0.60241 0.27387 0.97067 0.0
C484 C 0.65129 0.2781 0.96748 0.0
C485 C 0.58311 0.26994 0.00726 0.0
C486 C 0.61221 0.27024 0.04161 0.0
H487 H 0.57917 0.27445 0.94507 0.0
H488 H 0.54545 0.26743 0.00901 0.0
S489 S 0.742 0.27968 0.04839 0.0
N490 N 0.72811 0.28168 1.0012 0.0
N491 N 0.69175 0.27422 0.07 0.0
C492 C 0.66088 0.27372 0.03851 0.0
C493 C 0.68049 0.2777 1.00133 0.0
C494 C 0.3012 0.93127 0.74195 0.0
C495 C 0.29584 0.89268 0.72618 0.0
C496 C 0.30874 0.95692 0.71658 0.0
C497 C 0.31091 0.94462 0.67474 0.0
H498 H 0.29798 0.94148 0.77378 0.0
H499 H 0.31139 0.98631 0.72945 0.0
S500 S 0.30054 0.84677 0.61908 0.0
N501 N 0.29451 0.84358 0.6666 0.0
N502 N 0.30871 0.8918 0.61898 0.0
C503 C 0.30694 0.90632 0.65893 0.0
C504 C 0.29935 0.88029 0.68469 0.0
C505 C 0.78214 0.75856 0.21621 0.0
C506 C 0.77916 0.77273 0.25743 0.0
C507 C 0.75314 0.76506 0.18597 0.0
C508 C 0.72023 0.78612 0.19591 0.0
H509 H 0.8063 0.7415 0.20723 0.0
H510 H 0.75607 0.75308 0.1545 0.0
S511 S 0.6996 0.82986 0.29989 0.0
N512 N 0.74171 0.80908 0.30713 0.0
N513 N 0.68702 0.8217 0.25018 0.0
C514 C 0.71784 0.80132 0.2372 0.0
C515 C 0.74732 0.79443 0.26806 0.0
C516 C 0.75002 0.19787 0.7974 0.0
C517 C 0.78387 0.21542 0.83146 0.0
C518 C 0.75518 0.16691 0.76864 0.0
C519 C 0.794 0.15196 0.77313 0.0
H520 H 0.72064 0.20942 0.79173 0.0
H521 H 0.72924 0.15515 0.7421 0.0
S522 S 0.89044 0.18559 0.85839 0.0
N523 N 0.85613 0.21425 0.86919 0.0
N524 N 0.86546 0.15553 0.81525 0.0
C525 C 0.82684 0.16796 0.808 0.0
C526 C 0.82192 0.19987 0.8371 0.0
C527 C 0.34051 0.25406 0.30511 0.0
C528 C 0.36534 0.25304 0.34135 0.0
C529 C 0.36377 0.2571 0.27006 0.0
C530 C 0.41262 0.25946 0.27022 0.0
H531 H 0.3026 0.25159 0.30358 0.0
H532 H 0.34343 0.25722 0.24255 0.0
S533 S 0.49462 0.26064 0.3574 0.0
N534 N 0.44228 0.25663 0.3754 0.0
N535 N 0.48555 0.2621 0.30936 0.0
C536 C 0.43809 0.25934 0.30624 0.0
C537 C 0.41455 0.25616 0.34185 0.0
C538 C 0.88668 0.7076 0.85008 0.0
C539 C 0.84732 0.69906 0.82081 0.0
C540 C 0.91265 0.68139 0.8521 0.0
C541 C 0.89952 0.6455 0.82547 0.0
H542 H 0.89836 0.73518 0.87067 0.0
H543 H 0.94359 0.68936 0.87433 0.0
S544 S 0.79784 0.60875 0.74484 0.0
N545 N 0.79553 0.65196 0.7655 0.0
N546 N 0.84388 0.60236 0.76987 0.0
C547 C 0.85935 0.63619 0.79697 0.0
C548 C 0.83338 0.66309 0.79446 0.0
C549 C 0.93601 0.33944 0.42854 0.0
C550 C 0.88954 0.33417 0.4404 0.0
C551 C 0.966 0.37581 0.4311 0.0
C552 C 0.95068 0.40808 0.4459 0.0
H553 H 0.9479 0.31535 0.41424 0.0
H554 H 1.00027 0.3787 0.41915 0.0
S555 S 0.8349 0.40987 0.4854 0.0
N556 N 0.83175 0.36453 0.47137 0.0
N557 N 0.88801 0.43275 0.47561 0.0
C558 C 0.90584 0.40335 0.46054 0.0
C559 C 0.87533 0.36641 0.458 0.0
C560 C 0.19127 0.3801 0.82663 0.0
C561 C 0.23828 0.39728 0.84463 0.0
C562 C 0.15845 0.40152 0.82535 0.0
C563 C 0.17166 0.44074 0.84215 0.0
H564 H 0.17994 0.35008 0.81315 0.0
H565 H 0.12245 0.38728 0.81125 0.0
S566 S 0.29174 0.49875 0.89116 0.0
N567 N 0.297 0.45532 0.87874 0.0
N568 N 0.23591 0.49571 0.87611 0.0
C569 C 0.21884 0.458 0.86016 0.0
C570 C 0.25202 0.43621 0.86141 0.0
C571 C 0.25958 0.65475 0.35711 0.0
C572 C 0.24782 0.68928 0.36211 0.0
C573 C 0.22989 0.62373 0.36869 0.0
C574 C 0.18735 0.62615 0.38542 0.0
H575 H 0.292 0.6517 0.34415 0.0
H576 H 0.23984 0.59751 0.36402 0.0
S577 S 0.13956 0.70935 0.40426 0.0
N578 N 0.19005 0.72358 0.38465 0.0
N579 N 0.13455 0.66516 0.4064 0.0
C580 C 0.17525 0.66037 0.39091 0.0
C581 C 0.20542 0.69198 0.37926 0.0
C582 C 0.80225 0.84991 0.67935 0.0
C583 C 0.8024 0.85001 0.72086 0.0
C584 C 0.8062 0.88324 0.66592 0.0
C585 C 0.81076 0.91762 0.69367 0.0
H586 H 0.79932 0.82394 0.65713 0.0
H587 H 0.8058 0.88219 0.6337 0.0
S588 S 0.81186 0.93249 0.80535 0.0
N589 N 0.80676 0.88693 0.7895 0.0
N590 N 0.81391 0.94971 0.76424 0.0
C591 C 0.8105 0.91798 0.7352 0.0
C592 C 0.80645 0.88406 0.74885 0.0
C593 C 0.69886 0.23706 0.3467 0.0
C594 C 0.74638 0.2581 0.34682 0.0
C595 C 0.66273 0.23737 0.3179 0.0
C596 C 0.67296 0.2587 0.28828 0.0
H597 H 0.6894 0.22098 0.36955 0.0
H598 H 0.62639 0.22147 0.31937 0.0
S599 S 0.7927 0.31463 0.27252 0.0
N600 N 0.80235 0.29804 0.31258 0.0
N601 N 0.73469 0.29867 0.25877 0.0
C602 C 0.72061 0.27875 0.2873 0.0
C603 C 0.75724 0.2784 0.31645 0.0
C604 C 0.32274 0.23205 0.75181 0.0
C605 C 0.2966 0.22612 0.78486 0.0
C606 C 0.32384 0.20181 0.72003 0.0
C607 C 0.29853 0.16451 0.71987 0.0
H608 H 0.34406 0.2601 0.75129 0.0
H609 H 0.34522 0.20762 0.69561 0.0
S610 S 0.22255 0.13417 0.7982 0.0
N611 N 0.24299 0.18041 0.81456 0.0
N612 N 0.24537 0.12351 0.75501 0.0
C613 C 0.27097 0.15834 0.75204 0.0
C614 C 0.27001 0.18913 0.7845 0.0
C615 C 0.45184 0.77471 0.21792 0.0
C616 C 0.40521 0.7783 0.21393 0.0
C617 C 0.4833 0.78308 0.18886 0.0
C618 C 0.46898 0.79523 0.15498 0.0
H619 H 0.46326 0.76356 0.24249 0.0
H620 H 0.51826 0.77835 0.19184 0.0
S621 S 0.35125 0.81041 0.13166 0.0
N622 N 0.34676 0.796 0.17452 0.0
N623 N 0.40592 0.81171 0.11988 0.0
C624 C 0.42315 0.80039 0.15162 0.0
C625 C 0.39118 0.79189 0.18116 0.0
C626 C 0.8233 0.16141 0.51038 0.0
C627 C 0.84239 0.15329 0.47333 0.0
C628 C 0.81956 0.13712 0.5372 0.0
C629 C 0.83434 0.10384 0.52751 0.0
H630 H 0.81092 0.18644 0.51855 0.0
H631 H 0.80479 0.14422 0.56561 0.0
S632 S 0.88762 0.07069 0.43459 0.0
N633 N 0.87701 0.11034 0.42863 0.0
N634 N 0.86969 0.06473 0.4789 0.0
C635 C 0.85398 0.09584 0.49081 0.0
C636 C 0.85796 0.12055 0.46367 0.0
C637 C 0.33601 0.29592 0.96878 0.0
C638 C 0.35203 0.28182 0.93167 0.0
C639 C 0.35643 0.29269 0.00582 0.0
C640 C 0.3933 0.27504 0.00694 0.0
H641 H 0.3072 0.3092 0.96914 0.0
H642 H 0.34299 0.30372 0.03372 0.0
S643 S 0.45184 0.23744 0.91908 0.0
N644 N 0.40993 0.25251 0.89899 0.0
N645 N 0.44731 0.2458 0.96834 0.0
C646 C 0.41024 0.26154 0.97024 0.0
C647 C 0.38987 0.26509 0.93268 0.0
C648 C 0.31632 0.8548 0.37602 0.0
C649 C 0.33302 0.82649 0.38807 0.0
C650 C 0.3184 0.88871 0.4038 0.0
C651 C 0.33786 0.89564 0.44439 0.0
H652 H 0.29933 0.84992 0.34552 0.0
H653 H 0.30362 0.90927 0.39374 0.0
S654 S 0.38912 0.83138 0.49021 0.0
N655 N 0.37181 0.8083 0.44255 0.0
N656 N 0.37587 0.87196 0.49469 0.0
C657 C 0.35665 0.86823 0.45624 0.0
C658 C 0.35416 0.83367 0.4281 0.0
C659 C 0.77535 0.79755 0.92021 0.0
C660 C 0.75353 0.78716 0.87993 0.0
C661 C 0.74897 0.8041 0.95329 0.0
C662 C 0.69992 0.80052 0.94719 0.0
H663 H 0.81272 0.79916 0.92621 0.0
H664 H 0.7665 0.81027 0.9838 0.0
S665 S 0.62605 0.77587 0.84842 0.0
N666 N 0.68004 0.77514 0.83618 0.0
N667 N 0.63081 0.78778 0.89852 0.0
C668 C 0.67809 0.79195 0.90731 0.0
C669 C 0.70485 0.78529 0.8736 0.0
loop_
_geom_bond_atom_site_label_1
_geom_bond_atom_site_label_2
_geom_bond_distance
_geom_bond_site_symmetry_2
_ccdc_geom_bond_type
H0 C3 0.929 . S
H1 C6 0.929 . S
H2 C8 0.930 . S
C3 H0 0.929 . S
C3 C4 1.398 . S
C3 C5 1.396 . S
C4 C3 1.398 . S
C4 C8 1.407 . S
C5 C3 1.396 . S
C5 C6 1.394 . S
C6 H1 0.929 . S
C6 C5 1.394 . S
C6 C7 1.382 . S
C7 C6 1.382 . S
C7 C8 1.392 . S
C7 N9 1.420 . S
C8 H2 0.930 . S
C8 C4 1.407 . S
C8 C7 1.392 . S
N9 C7 1.420 . S
N9 C10 1.244 . S
C10 N9 1.244 . S
H11 C14 0.929 . S
H12 C17 0.929 . S
H13 C19 0.930 . S
C14 H11 0.929 . S
C14 C15 1.398 . S
C14 C16 1.396 . S
C15 C14 1.398 . S
C15 C19 1.407 . S
C16 C14 1.396 . S
C16 C17 1.394 . S
C17 H12 0.929 . S
C17 C16 1.394 . S
C17 C18 1.382 . S
C18 C17 1.382 . S
C18 C19 1.392 . S
C18 N20 1.420 . S
C19 H13 0.930 . S
C19 C15 1.407 . S
C19 C18 1.392 . S
N20 C18 1.420 . S
N20 C21 1.244 . S
C21 N20 1.244 . S
H22 C25 0.929 . S
H23 C28 0.929 . S
H24 C30 0.930 . S
C25 H22 0.929 . S
C25 C26 1.398 . S
C25 C27 1.396 . S
C26 C25 1.398 . S
C26 C30 1.407 . S
C27 C25 1.396 . S
C27 C28 1.394 . S
C28 H23 0.929 . S
C28 C27 1.394 . S
C28 C29 1.382 . S
C29 C28 1.382 . S
C29 C30 1.392 . S
C29 N31 1.420 . S
C30 H24 0.930 . S
C30 C26 1.407 . S
C30 C29 1.392 . S
N31 C29 1.420 . S
N31 C32 1.244 . S
C32 N31 1.244 . S
H33 C36 0.929 . S
H34 C39 0.929 . S
H35 C41 0.930 . S
C36 H33 0.929 . S
C36 C37 1.398 . S
C36 C38 1.396 . S
C37 C36 1.398 . S
C37 C41 1.407 . S
C38 C36 1.396 . S
C38 C39 1.394 . S
C39 H34 0.929 . S
C39 C38 1.394 . S
C39 C40 1.382 . S
C40 C39 1.382 . S
C40 C41 1.392 . S
C40 N42 1.420 . S
C41 H35 0.930 . S
C41 C37 1.407 . S
C41 C40 1.392 . S
N42 C40 1.420 . S
N42 C43 1.244 . S
C43 N42 1.244 . S
H44 C47 0.929 . S
H45 C50 0.929 . S
H46 C52 0.930 . S
C47 H44 0.929 . S
C47 C48 1.398 . S
C47 C49 1.396 . S
C48 C47 1.398 . S
C48 C52 1.407 . S
C49 C47 1.396 . S
C49 C50 1.394 . S
C50 H45 0.929 . S
C50 C49 1.394 . S
C50 C51 1.382 . S
C51 C50 1.382 . S
C51 C52 1.392 . S
C51 N53 1.420 . S
C52 H46 0.930 . S
C52 C48 1.407 . S
C52 C51 1.392 . S
N53 C51 1.420 . S
N53 C54 1.244 . S
C54 N53 1.244 . S
H55 C58 0.929 . S
H56 C61 0.929 . S
H57 C63 0.930 . S
C58 H55 0.929 . S
C58 C59 1.398 . S
C58 C60 1.396 . S
C59 C58 1.398 . S
C59 C63 1.407 . S
C60 C58 1.396 . S
C60 C61 1.394 . S
C61 H56 0.929 . S
C61 C60 1.394 . S
C61 C62 1.382 . S
C62 C61 1.382 . S
C62 C63 1.392 . S
C62 N64 1.420 . S
C63 H57 0.930 . S
C63 C59 1.407 . S
C63 C62 1.392 . S
N64 C62 1.420 . S
N64 C65 1.244 . S
C65 N64 1.244 . S
H66 C69 0.929 . S
H67 C72 0.929 . S
H68 C74 0.930 . S
C69 H66 0.929 . S
C69 C70 1.398 . S
C69 C71 1.396 . S
C70 C69 1.398 . S
C70 C74 1.407 . S
C71 C69 1.396 . S
C71 C72 1.394 . S
C72 H67 0.929 . S
C72 C71 1.394 . S
C72 C73 1.382 . S
C73 C72 1.382 . S
C73 C74 1.392 . S
C73 N75 1.420 . S
C74 H68 0.930 . S
C74 C70 1.407 . S
C74 C73 1.392 . S
N75 C73 1.420 . S
N75 C76 1.244 . S
C76 N75 1.244 . S
H77 C80 0.929 . S
H78 C83 0.929 . S
H79 C85 0.930 . S
C80 H77 0.929 . S
C80 C81 1.398 . S
C80 C82 1.396 . S
C81 C80 1.398 . S
C81 C85 1.407 . S
C82 C80 1.396 . S
C82 C83 1.394 . S
C83 H78 0.929 . S
C83 C82 1.394 . S
C83 C84 1.382 . S
C84 C83 1.382 . S
C84 C85 1.392 . S
C84 N86 1.420 . S
C85 H79 0.930 . S
C85 C81 1.407 . S
C85 C84 1.392 . S
N86 C84 1.420 . S
N86 C87 1.244 . S
C87 N86 1.244 . S
C88 C89 1.443 . S
C88 N92 1.376 . S
C88 C126 1.389 . S
C89 C88 1.443 . S
C89 C90 1.340 . S
C89 H129 0.951 . S
C90 C89 1.340 . S
C90 C91 1.439 . S
C90 H130 0.950 . S
C91 C90 1.439 . S
C91 N92 1.374 . S
C91 C125 1.395 . S
N92 C88 1.376 . S
N92 C91 1.374 . S
N92 Co93 2.008 . S
Co93 N92 2.008 . S
Co93 N94 1.995 . S
Co93 N99 2.008 . S
Co93 N104 1.995 . S
Co93 N109 2.282 . S
Co93 N115 2.282 . S
N94 Co93 1.995 . S
N94 C95 1.376 . S
N94 C98 1.383 . S
C95 N94 1.376 . S
C95 C96 1.446 . S
C95 C125 1.391 . S
C96 C95 1.446 . S
C96 C97 1.339 . S
C96 H131 0.949 . S
C97 C96 1.339 . S
C97 C98 1.439 . S
C97 H132 0.950 1_455 S
C98 N94 1.383 . S
C98 C97 1.439 . S
C98 C127 1.392 1_455 S
N99 Co93 2.008 . S
N99 C100 1.376 1_455 S
N99 C103 1.374 . S
C100 N99 1.376 1_655 S
C100 C101 1.443 . S
C100 C127 1.389 . S
C101 C100 1.443 . S
C101 C102 1.340 . S
C101 H133 0.951 . S
C102 C101 1.340 . S
C102 C103 1.439 1_655 S
C102 H134 0.950 . S
C103 N99 1.374 . S
C103 C102 1.439 1_455 S
C103 C128 1.395 . S
N104 Co93 1.995 . S
N104 C105 1.376 . S
N104 C108 1.383 . S
C105 N104 1.376 . S
C105 C106 1.446 . S
C105 C128 1.391 . S
C106 C105 1.446 . S
C106 C107 1.339 . S
C106 H135 0.949 . S
C107 C106 1.339 . S
C107 C108 1.439 . S
C107 H136 0.950 . S
C108 N104 1.383 . S
C108 C107 1.439 . S
C108 C126 1.392 . S
N109 Co93 2.282 . S
N109 C112 1.332 . S
N109 C114 1.332 . S
C110 C111 1.386 . S
C110 C113 1.388 . S
C111 C110 1.386 . S
C111 C112 1.382 . S
C111 H137 0.950 . S
C112 N109 1.332 . S
C112 C111 1.382 . S
C112 H123 0.952 . S
C113 C110 1.388 . S
C113 C114 1.382 . S
C113 H138 0.950 . S
C114 N109 1.332 . S
C114 C113 1.382 . S
C114 H124 0.948 . S
N115 Co93 2.282 . S
N115 C119 1.332 . S
N115 C120 1.332 . S
C116 C117 1.388 . S
C116 C120 1.382 1_655 S
C116 H139 0.950 . S
C117 C116 1.388 . S
C117 C118 1.386 . S
C118 C117 1.386 . S
C118 C119 1.382 1_655 S
C118 H140 0.950 . S
C119 N115 1.332 . S
C119 C118 1.382 1_455 S
C119 H121 0.952 . S
C120 N115 1.332 . S
C120 C116 1.382 1_455 S
C120 H122 0.948 . S
H121 C119 0.952 . S
H122 C120 0.948 . S
H123 C112 0.952 . S
H124 C114 0.948 . S
C125 C91 1.395 . S
C125 C95 1.391 . S
C126 C88 1.389 . S
C126 C108 1.392 . S
C127 C98 1.392 1_655 S
C127 C100 1.389 . S
C128 C103 1.395 . S
C128 C105 1.391 . S
H129 C89 0.951 . S
H130 C90 0.950 . S
H131 C96 0.949 . S
H132 C97 0.950 1_655 S
H133 C101 0.951 . S
H134 C102 0.950 . S
H135 C106 0.949 . S
H136 C107 0.950 . S
H137 C111 0.950 . S
H138 C113 0.950 . S
H139 C116 0.950 . S
H140 C118 0.950 . S
C141 C142 1.443 . S
C141 N145 1.376 . S
C141 C179 1.389 . S
C142 C141 1.443 . S
C142 C143 1.340 . S
C142 H182 0.951 . S
C143 C142 1.340 . S
C143 C144 1.439 . S
C143 H183 0.950 . S
C144 C143 1.439 . S
C144 N145 1.374 . S
C144 C178 1.395 . S
N145 C141 1.376 . S
N145 C144 1.374 . S
N145 Co146 2.008 . S
Co146 N145 2.008 . S
Co146 N147 1.995 1_455 S
Co146 N152 2.008 1_455 S
Co146 N157 1.995 . S
Co146 N162 2.282 . S
Co146 N168 2.282 1_455 S
N147 Co146 1.995 1_655 S
N147 C148 1.376 1_655 S
N147 C151 1.383 . S
C148 N147 1.376 1_455 S
C148 C149 1.446 1_455 S
C148 C178 1.391 . S
C149 C148 1.446 1_655 S
C149 C150 1.339 . S
C149 H184 0.949 . S
C150 C149 1.339 . S
C150 C151 1.439 . S
C150 H185 0.950 . S
C151 N147 1.383 . S
C151 C150 1.439 . S
C151 C180 1.392 . S
N152 Co146 2.008 1_655 S
N152 C153 1.376 . S
N152 C156 1.374 . S
C153 N152 1.376 . S
C153 C154 1.443 . S
C153 C180 1.389 . S
C154 C153 1.443 . S
C154 C155 1.340 . S
C154 H186 0.951 . S
C155 C154 1.340 . S
C155 C156 1.439 . S
C155 H187 0.950 . S
C156 N152 1.374 . S
C156 C155 1.439 . S
C156 C181 1.395 . S
N157 Co146 1.995 . S
N157 C158 1.376 . S
N157 C161 1.383 . S
C158 N157 1.376 . S
C158 C159 1.446 . S
C158 C181 1.391 1_455 S
C159 C158 1.446 . S
C159 C160 1.339 . S
C159 H188 0.949 . S
C160 C159 1.339 . S
C160 C161 1.439 . S
C160 H189 0.950 . S
C161 N157 1.383 . S
C161 C160 1.439 . S
C161 C179 1.392 . S
N162 Co146 2.282 . S
N162 C165 1.332 . S
N162 C167 1.332 . S
C163 C164 1.386 . S
C163 C166 1.388 . S
C164 C163 1.386 . S
C164 C165 1.382 . S
C164 H190 0.950 . S
C165 N162 1.332 . S
C165 C164 1.382 . S
C165 H176 0.952 . S
C166 C163 1.388 . S
C166 C167 1.382 . S
C166 H191 0.950 . S
C167 N162 1.332 . S
C167 C166 1.382 . S
C167 H177 0.948 . S
N168 Co146 2.282 1_655 S
N168 C172 1.332 . S
N168 C173 1.332 . S
C169 C170 1.388 . S
C169 C173 1.382 . S
C169 H192 0.950 . S
C170 C169 1.388 . S
C170 C171 1.386 . S
C171 C170 1.386 . S
C171 C172 1.382 . S
C171 H193 0.950 . S
C172 N168 1.332 . S
C172 C171 1.382 . S
C172 H174 0.952 . S
C173 N168 1.332 . S
C173 C169 1.382 . S
C173 H175 0.948 . S
H174 C172 0.952 . S
H175 C173 0.948 . S
H176 C165 0.952 . S
H177 C167 0.948 . S
C178 C144 1.395 . S
C178 C148 1.391 . S
C179 C141 1.389 . S
C179 C161 1.392 . S
C180 C151 1.392 . S
C180 C153 1.389 . S
C181 C156 1.395 . S
C181 C158 1.391 1_655 S
H182 C142 0.951 . S
H183 C143 0.950 . S
H184 C149 0.949 . S
H185 C150 0.950 . S
H186 C154 0.951 . S
H187 C155 0.950 . S
H188 C159 0.949 . S
H189 C160 0.950 . S
H190 C164 0.950 . S
H191 C166 0.950 . S
H192 C169 0.950 . S
H193 C171 0.950 . S
C194 C195 1.443 . S
C194 N198 1.376 1_565 S
C194 C232 1.389 . S
C195 C194 1.443 . S
C195 C196 1.340 1_565 S
C195 H235 0.951 . S
C196 C195 1.340 1_545 S
C196 C197 1.439 . S
C196 H236 0.950 . S
C197 C196 1.439 . S
C197 N198 1.374 . S
C197 C231 1.395 . S
N198 C194 1.376 1_545 S
N198 C197 1.374 . S
N198 Co199 2.008 . S
Co199 N198 2.008 . S
Co199 N200 1.995 . S
Co199 N205 2.008 . S
Co199 N210 1.995 . S
Co199 N215 2.282 . S
Co199 N221 2.282 1_545 S
N200 Co199 1.995 . S
N200 C201 1.376 . S
N200 C204 1.383 . S
C201 N200 1.376 . S
C201 C202 1.446 . S
C201 C231 1.391 . S
C202 C201 1.446 . S
C202 C203 1.339 . S
C202 H237 0.949 . S
C203 C202 1.339 . S
C203 C204 1.439 . S
C203 H238 0.950 . S
C204 N200 1.383 . S
C204 C203 1.439 . S
C204 C233 1.392 . S
N205 Co199 2.008 . S
N205 C206 1.376 . S
N205 C209 1.374 . S
C206 N205 1.376 . S
C206 C207 1.443 . S
C206 C233 1.389 . S
C207 C206 1.443 . S
C207 C208 1.340 . S
C207 H239 0.951 . S
C208 C207 1.340 . S
C208 C209 1.439 . S
C208 H240 0.950 . S
C209 N205 1.374 . S
C209 C208 1.439 . S
C209 C234 1.395 . S
N210 Co199 1.995 . S
N210 C211 1.376 1_545 S
N210 C214 1.383 1_545 S
C211 N210 1.376 1_565 S
C211 C212 1.446 . S
C211 C234 1.391 1_565 S
C212 C211 1.446 . S
C212 C213 1.339 . S
C212 H241 0.949 . S
C213 C212 1.339 . S
C213 C214 1.439 . S
C213 H242 0.950 . S
C214 N210 1.383 1_565 S
C214 C213 1.439 . S
C214 C232 1.392 . S
N215 Co199 2.282 . S
N215 C218 1.332 . S
N215 C220 1.332 . S
C216 C217 1.386 . S
C216 C219 1.388 . S
C217 C216 1.386 . S
C217 C218 1.382 . S
C217 H243 0.950 . S
C218 N215 1.332 . S
C218 C217 1.382 . S
C218 H229 0.952 . S
C219 C216 1.388 . S
C219 C220 1.382 . S
C219 H244 0.950 . S
C220 N215 1.332 . S
C220 C219 1.382 . S
C220 H230 0.948 . S
N221 Co199 2.282 1_565 S
N221 C225 1.332 . S
N221 C226 1.332 . S
C222 C223 1.388 . S
C222 C226 1.382 . S
C222 H245 0.950 . S
C223 C222 1.388 . S
C223 C224 1.386 . S
C224 C223 1.386 . S
C224 C225 1.382 . S
C224 H246 0.950 . S
C225 N221 1.332 . S
C225 C224 1.382 . S
C225 H227 0.952 1_565 S
C226 N221 1.332 . S
C226 C222 1.382 . S
C226 H228 0.948 . S
H227 C225 0.952 1_545 S
H228 C226 0.948 . S
H229 C218 0.952 . S
H230 C220 0.948 . S
C231 C197 1.395 . S
C231 C201 1.391 . S
C232 C194 1.389 . S
C232 C214 1.392 . S
C233 C204 1.392 . S
C233 C206 1.389 . S
C234 C209 1.395 . S
C234 C211 1.391 1_545 S
H235 C195 0.951 . S
H236 C196 0.950 . S
H237 C202 0.949 . S
H238 C203 0.950 . S
H239 C207 0.951 . S
H240 C208 0.950 . S
H241 C212 0.949 . S
H242 C213 0.950 . S
H243 C217 0.950 . S
H244 C219 0.950 . S
H245 C222 0.950 . S
H246 C224 0.950 . S
C247 C248 1.443 . S
C247 N251 1.376 . S
C247 C285 1.389 . S
C248 C247 1.443 . S
C248 C249 1.340 . S
C248 H288 0.951 . S
C249 C248 1.340 . S
C249 C250 1.439 . S
C249 H289 0.950 . S
C250 C249 1.439 . S
C250 N251 1.374 . S
C250 C284 1.395 . S
N251 C247 1.376 . S
N251 C250 1.374 . S
N251 Co252 2.008 . S
Co252 N251 2.008 . S
Co252 N253 1.995 1_554 S
Co252 N258 2.008 1_554 S
Co252 N263 1.995 . S
Co252 N268 2.282 1_554 S
Co252 N274 2.282 . S
N253 Co252 1.995 1_556 S
N253 C254 1.373 1_556 S
N253 C257 1.383 . S
C254 N253 1.373 1_554 S
C254 C255 1.432 1_554 S
C254 C284 1.405 . S
C255 C254 1.432 1_556 S
C255 C256 1.339 . S
C255 H290 0.949 . S
C256 C255 1.339 . S
C256 C257 1.439 . S
C256 H291 0.950 . S
C257 N253 1.383 . S
C257 C256 1.439 . S
C257 C286 1.392 . S
N258 Co252 2.008 1_556 S
N258 C259 1.376 . S
N258 C262 1.374 . S
C259 N258 1.376 . S
C259 C260 1.443 . S
C259 C286 1.389 . S
C260 C259 1.443 . S
C260 C261 1.340 . S
C260 H292 0.951 . S
C261 C260 1.340 . S
C261 C262 1.439 . S
C261 H293 0.950 . S
C262 N258 1.374 . S
C262 C261 1.439 . S
C262 C287 1.395 . S
N263 Co252 1.995 . S
N263 C264 1.376 . S
N263 C267 1.383 . S
C264 N263 1.376 . S
C264 C265 1.446 . S
C264 C287 1.391 1_554 S
C265 C264 1.446 . S
C265 C266 1.339 . S
C265 H294 0.949 . S
C266 C265 1.339 . S
C266 C267 1.439 . S
C266 H295 0.950 . S
C267 N263 1.383 . S
C267 C266 1.439 . S
C267 C285 1.392 . S
N268 Co252 2.282 1_556 S
N268 C271 1.332 . S
N268 C273 1.332 . S
C269 C270 1.386 . S
C269 C272 1.388 . S
C270 C269 1.386 . S
C270 C271 1.382 . S
C270 H296 0.950 . S
C271 N268 1.332 . S
C271 C270 1.382 . S
C271 H282 0.952 . S
C272 C269 1.388 . S
C272 C273 1.382 . S
C272 H297 0.950 . S
C273 N268 1.332 . S
C273 C272 1.382 . S
C273 H283 0.948 . S
N274 Co252 2.282 . S
N274 C278 1.332 . S
N274 C279 1.332 . S
C275 C276 1.388 . S
C275 C279 1.382 . S
C275 H298 0.950 . S
C276 C275 1.388 . S
C276 C277 1.386 . S
C277 C276 1.386 . S
C277 C278 1.382 . S
C277 H299 0.950 . S
C278 N274 1.332 . S
C278 C277 1.382 . S
C278 H280 0.952 . S
C279 N274 1.332 . S
C279 C275 1.382 . S
C279 H281 0.948 . S
H280 C278 0.952 . S
H281 C279 0.948 . S
H282 C271 0.952 . S
H283 C273 0.948 . S
C284 C250 1.395 . S
C284 C254 1.405 . S
C285 C247 1.389 . S
C285 C267 1.392 . S
C286 C257 1.392 . S
C286 C259 1.389 . S
C287 C262 1.395 . S
C287 C264 1.391 1_556 S
H288 C248 0.951 . S
H289 C249 0.950 . S
H290 C255 0.949 . S
H291 C256 0.950 . S
H292 C260 0.951 . S
H293 C261 0.950 . S
H294 C265 0.949 . S
H295 C266 0.950 . S
H296 C270 0.950 . S
H297 C272 0.950 . S
H298 C275 0.950 . S
H299 C277 0.950 . S
C300 C301 1.443 . S
C300 N304 1.376 1_565 S
C300 C338 1.389 . S
C301 C300 1.443 . S
C301 C302 1.340 1_665 S
C301 H341 0.951 . S
C302 C301 1.340 1_445 S
C302 C303 1.448 . S
C302 H342 0.950 . S
C303 C302 1.448 . S
C303 N304 1.360 1_455 S
C303 C337 1.400 . S
N304 C300 1.376 1_545 S
N304 C303 1.360 1_655 S
N304 Co305 2.008 . S
Co305 N304 2.008 . S
Co305 N306 1.995 . S
Co305 N311 2.008 . S
Co305 N316 1.995 . S
Co305 N321 2.282 . S
Co305 N327 2.282 . S
N306 Co305 1.995 . S
N306 C307 1.376 1_655 S
N306 C310 1.383 . S
C307 N306 1.376 1_455 S
C307 C308 1.446 . S
C307 C337 1.391 . S
C308 C307 1.446 . S
C308 C309 1.339 1_455 S
C308 H343 0.949 . S
C309 C308 1.339 1_655 S
C309 C310 1.439 . S
C309 H344 0.950 1_655 S
C310 N306 1.383 . S
C310 C309 1.439 . S
C310 C339 1.392 . S
N311 Co305 2.008 . S
N311 C312 1.376 . S
N311 C315 1.374 . S
C312 N311 1.376 . S
C312 C313 1.443 . S
C312 C339 1.389 . S
C313 C312 1.443 . S
C313 C314 1.340 . S
C313 H345 0.951 . S
C314 C313 1.340 . S
C314 C315 1.439 . S
C314 H346 0.950 . S
C315 N311 1.374 . S
C315 C314 1.439 . S
C315 C340 1.395 . S
N316 Co305 1.995 . S
N316 C317 1.376 . S
N316 C320 1.383 1_545 S
C317 N316 1.376 . S
C317 C318 1.446 1_545 S
C317 C340 1.391 . S
C318 C317 1.446 1_565 S
C318 C319 1.339 . S
C318 H347 0.949 . S
C319 C318 1.339 . S
C319 C320 1.439 . S
C319 H348 0.950 . S
C320 N316 1.383 1_565 S
C320 C319 1.439 . S
C320 C338 1.392 . S
N321 Co305 2.282 . S
N321 C324 1.332 . S
N321 C326 1.332 . S
C322 C323 1.386 . S
C322 C325 1.388 . S
C323 C322 1.386 . S
C323 C324 1.382 . S
C323 H349 0.950 . S
C324 N321 1.332 . S
C324 C323 1.382 . S
C324 H335 0.952 . S
C325 C322 1.388 . S
C325 C326 1.382 . S
C325 H350 0.950 . S
C326 N321 1.332 . S
C326 C325 1.382 . S
C326 H336 0.948 . S
N327 Co305 2.282 . S
N327 C331 1.332 . S
N327 C332 1.332 1_545 S
C328 C329 1.388 . S
C328 C332 1.382 . S
C328 H351 0.950 . S
C329 C328 1.388 . S
C329 C330 1.386 . S
C330 C329 1.386 . S
C330 C331 1.382 1_565 S
C330 H352 0.950 . S
C331 N327 1.332 . S
C331 C330 1.382 1_545 S
C331 H333 0.952 . S
C332 N327 1.332 1_565 S
C332 C328 1.382 . S
C332 H334 0.948 . S
H333 C331 0.952 . S
H334 C332 0.948 . S
H335 C324 0.952 . S
H336 C326 0.948 . S
C337 C303 1.400 . S
C337 C307 1.391 . S
C338 C300 1.389 . S
C338 C320 1.392 . S
C339 C310 1.392 . S
C339 C312 1.389 . S
C340 C315 1.395 . S
C340 C317 1.391 . S
H341 C301 0.951 . S
H342 C302 0.950 . S
H343 C308 0.949 . S
H344 C309 0.950 1_455 S
H345 C313 0.951 . S
H346 C314 0.950 . S
H347 C318 0.949 . S
H348 C319 0.950 . S
H349 C323 0.950 . S
H350 C325 0.950 . S
H351 C328 0.950 . S
H352 C330 0.950 . S
C353 C354 1.443 . S
C353 N357 1.376 . S
C353 C391 1.389 . S
C354 C353 1.443 . S
C354 C355 1.340 . S
C354 H394 0.951 . S
C355 C354 1.340 . S
C355 C356 1.439 . S
C355 H395 0.950 . S
C356 C355 1.439 . S
C356 N357 1.374 . S
C356 C390 1.395 . S
N357 C353 1.376 . S
N357 C356 1.374 . S
N357 Co358 2.008 . S
Co358 N357 2.008 . S
Co358 N359 1.995 . S
Co358 N364 2.008 . S
Co358 N369 1.995 . S
Co358 N374 2.282 . S
Co358 N380 2.282 . S
N359 Co358 1.995 . S
N359 C360 1.376 . S
N359 C363 1.383 . S
C360 N359 1.376 . S
C360 C361 1.446 . S
C360 C390 1.391 . S
C361 C360 1.446 . S
C361 C362 1.339 . S
C361 H396 0.949 . S
C362 C361 1.339 . S
C362 C363 1.439 . S
C362 H397 0.950 . S
C363 N359 1.383 . S
C363 C362 1.439 . S
C363 C392 1.392 . S
N364 Co358 2.008 . S
N364 C365 1.376 . S
N364 C368 1.374 . S
C365 N364 1.376 . S
C365 C366 1.443 . S
C365 C392 1.389 . S
C366 C365 1.443 . S
C366 C367 1.340 . S
C366 H398 0.951 . S
C367 C366 1.340 . S
C367 C368 1.439 . S
C367 H399 0.950 . S
C368 N364 1.374 . S
C368 C367 1.439 . S
C368 C393 1.395 . S
N369 Co358 1.995 . S
N369 C370 1.376 . S
N369 C373 1.383 . S
C370 N369 1.376 . S
C370 C371 1.446 . S
C370 C393 1.391 . S
C371 C370 1.446 . S
C371 C372 1.339 . S
C371 H400 0.949 . S
C372 C371 1.339 . S
C372 C373 1.439 . S
C372 H401 0.950 . S
C373 N369 1.383 . S
C373 C372 1.439 . S
C373 C391 1.392 . S
N374 Co358 2.282 . S
N374 C377 1.332 . S
N374 C379 1.332 . S
C375 C376 1.386 . S
C375 C378 1.388 . S
C376 C375 1.386 . S
C376 C377 1.382 . S
C376 H402 0.950 . S
C377 N374 1.332 . S
C377 C376 1.382 . S
C377 H388 0.952 . S
C378 C375 1.388 . S
C378 C379 1.382 . S
C378 H403 0.950 . S
C379 N374 1.332 . S
C379 C378 1.382 . S
C379 H389 0.948 . S
N380 Co358 2.282 . S
N380 C384 1.332 . S
N380 C385 1.332 . S
C381 C382 1.388 . S
C381 C385 1.382 . S
C381 H404 0.950 . S
C382 C381 1.388 . S
C382 C383 1.386 . S
C383 C382 1.386 . S
C383 C384 1.382 . S
C383 H405 0.950 . S
C384 N380 1.332 . S
C384 C383 1.382 . S
C384 H386 0.952 . S
C385 N380 1.332 . S
C385 C381 1.382 . S
C385 H387 0.948 . S
H386 C384 0.952 . S
H387 C385 0.948 . S
H388 C377 0.952 . S
H389 C379 0.948 . S
C390 C356 1.395 . S
C390 C360 1.391 . S
C391 C353 1.389 . S
C391 C373 1.392 . S
C392 C363 1.392 . S
C392 C365 1.389 . S
C393 C368 1.395 . S
C393 C370 1.391 . S
H394 C354 0.951 . S
H395 C355 0.950 . S
H396 C361 0.949 . S
H397 C362 0.950 . S
H398 C366 0.951 . S
H399 C367 0.950 . S
H400 C371 0.949 . S
H401 C372 0.950 . S
H402 C376 0.950 . S
H403 C378 0.950 . S
H404 C381 0.950 . S
H405 C383 0.950 . S
C406 C407 1.369 . S
C406 C408 1.419 . S
C406 H410 0.930 . S
C407 C406 1.369 . S
C407 C416 1.429 . S
C408 C406 1.419 . S
C408 C409 1.363 . S
C408 H411 0.929 . S
C409 C408 1.363 . S
C409 C415 1.428 . S
H410 C406 0.930 . S
H411 C408 0.929 . S
S412 N413 1.613 . S
S412 N414 1.610 . S
N413 S412 1.613 . S
N413 C416 1.350 . S
N414 S412 1.610 . S
N414 C415 1.351 . S
C415 C409 1.428 . S
C415 N414 1.351 . S
C415 C416 1.434 . S
C416 C407 1.429 . S
C416 N413 1.350 . S
C416 C415 1.434 . S
C417 C418 1.369 . S
C417 C419 1.419 . S
C417 H421 0.930 . S
C418 C417 1.369 . S
C418 C427 1.429 . S
C419 C417 1.419 . S
C419 C420 1.363 . S
C419 H422 0.929 . S
C420 C419 1.363 . S
C420 C426 1.428 . S
H421 C417 0.930 . S
H422 C419 0.929 . S
S423 N424 1.613 . S
S423 N425 1.610 . S
N424 S423 1.613 . S
N424 C427 1.350 . S
N425 S423 1.610 . S
N425 C426 1.351 . S
C426 C420 1.428 . S
C426 N425 1.351 . S
C426 C427 1.434 . S
C427 C418 1.429 . S
C427 N424 1.350 . S
C427 C426 1.434 . S
C428 C429 1.369 . S
C428 C430 1.419 . S
C428 H432 0.930 . S
C429 C428 1.369 . S
C429 C438 1.429 . S
C430 C428 1.419 . S
C430 C431 1.363 . S
C430 H433 0.929 . S
C431 C430 1.363 . S
C431 C437 1.428 . S
H432 C428 0.930 . S
H433 C430 0.929 . S
S434 N435 1.613 1_455 S
S434 N436 1.610 . S
N435 S434 1.613 1_655 S
N435 C438 1.350 . S
N436 S434 1.610 . S
N436 C437 1.351 1_455 S
C437 C431 1.428 . S
C437 N436 1.351 1_655 S
C437 C438 1.434 . S
C438 C429 1.429 . S
C438 N435 1.350 . S
C438 C437 1.434 . S
C439 C440 1.369 . S
C439 C441 1.419 . S
C439 H443 0.930 . S
C440 C439 1.369 . S
C440 C449 1.429 . S
C441 C439 1.419 . S
C441 C442 1.363 . S
C441 H444 0.929 . S
C442 C441 1.363 . S
C442 C448 1.428 . S
H443 C439 0.930 . S
H444 C441 0.929 . S
S445 N446 1.613 . S
S445 N447 1.610 . S
N446 S445 1.613 . S
N446 C449 1.350 . S
N447 S445 1.610 . S
N447 C448 1.351 . S
C448 C442 1.428 . S
C448 N447 1.351 . S
C448 C449 1.434 . S
C449 C440 1.429 . S
C449 N446 1.350 . S
C449 C448 1.434 . S
C450 C451 1.369 . S
C450 C452 1.419 . S
C450 H454 0.930 . S
C451 C450 1.369 . S
C451 C460 1.429 . S
C452 C450 1.419 . S
C452 C453 1.363 . S
C452 H455 0.929 . S
C453 C452 1.363 . S
C453 C459 1.428 . S
H454 C450 0.930 . S
H455 C452 0.929 . S
S456 N457 1.613 . S
S456 N458 1.610 . S
N457 S456 1.613 . S
N457 C460 1.350 . S
N458 S456 1.610 . S
N458 C459 1.351 . S
C459 C453 1.428 . S
C459 N458 1.351 . S
C459 C460 1.434 . S
C460 C451 1.429 . S
C460 N457 1.350 . S
C460 C459 1.434 . S
C461 C462 1.369 . S
C461 C463 1.419 . S
C461 H465 0.930 . S
C462 C461 1.369 . S
C462 C471 1.429 . S
C463 C461 1.419 . S
C463 C464 1.363 . S
C463 H466 0.929 . S
C464 C463 1.363 . S
C464 C470 1.428 . S
H465 C461 0.930 . S
H466 C463 0.929 . S
S467 N468 1.613 . S
S467 N469 1.610 . S
N468 S467 1.613 . S
N468 C471 1.350 . S
N469 S467 1.610 . S
N469 C470 1.351 . S
C470 C464 1.428 . S
C470 N469 1.351 . S
C470 C471 1.434 . S
C471 C462 1.429 . S
C471 N468 1.350 . S
C471 C470 1.434 . S
C472 C473 1.369 . S
C472 C474 1.419 . S
C472 H476 0.930 . S
C473 C472 1.369 . S
C473 C482 1.429 . S
C474 C472 1.419 . S
C474 C475 1.363 . S
C474 H477 0.929 . S
C475 C474 1.363 . S
C475 C481 1.428 . S
H476 C472 0.930 . S
H477 C474 0.929 . S
S478 N479 1.613 . S
S478 N480 1.610 . S
N479 S478 1.613 . S
N479 C482 1.350 . S
N480 S478 1.610 . S
N480 C481 1.351 . S
C481 C475 1.428 . S
C481 N480 1.351 . S
C481 C482 1.434 . S
C482 C473 1.429 . S
C482 N479 1.350 . S
C482 C481 1.434 . S
C483 C484 1.369 . S
C483 C485 1.419 1_556 S
C483 H487 0.930 . S
C484 C483 1.369 . S
C484 C493 1.429 1_556 S
C485 C483 1.419 1_554 S
C485 C486 1.363 . S
C485 H488 0.929 . S
C486 C485 1.363 . S
C486 C492 1.428 . S
H487 C483 0.930 . S
H488 C485 0.929 . S
S489 N490 1.613 . S
S489 N491 1.610 . S
N490 S489 1.613 . S
N490 C493 1.350 . S
N491 S489 1.610 . S
N491 C492 1.351 . S
C492 C486 1.428 . S
C492 N491 1.351 . S
C492 C493 1.434 . S
C493 C484 1.429 1_554 S
C493 N490 1.350 . S
C493 C492 1.434 . S
C494 C495 1.369 . S
C494 C496 1.419 . S
C494 H498 0.930 . S
C495 C494 1.369 . S
C495 C504 1.429 . S
C496 C494 1.419 . S
C496 C497 1.363 . S
C496 H499 0.929 . S
C497 C496 1.363 . S
C497 C503 1.428 . S
H498 C494 0.930 . S
H499 C496 0.929 . S
S500 N501 1.613 . S
S500 N502 1.610 . S
N501 S500 1.613 . S
N501 C504 1.350 . S
N502 S500 1.610 . S
N502 C503 1.351 . S
C503 C497 1.428 . S
C503 N502 1.351 . S
C503 C504 1.434 . S
C504 C495 1.429 . S
C504 N501 1.350 . S
C504 C503 1.434 . S
C505 C506 1.369 . S
C505 C507 1.419 . S
C505 H509 0.930 . S
C506 C505 1.369 . S
C506 C515 1.429 . S
C507 C505 1.419 . S
C507 C508 1.363 . S
C507 H510 0.929 . S
C508 C507 1.363 . S
C508 C514 1.428 . S
H509 C505 0.930 . S
H510 C507 0.929 . S
S511 N512 1.613 . S
S511 N513 1.610 . S
N512 S511 1.613 . S
N512 C515 1.350 . S
N513 S511 1.610 . S
N513 C514 1.351 . S
C514 C508 1.428 . S
C514 N513 1.351 . S
C514 C515 1.434 . S
C515 C506 1.429 . S
C515 N512 1.350 . S
C515 C514 1.434 . S
C516 C517 1.369 . S
C516 C518 1.419 . S
C516 H520 0.930 . S
C517 C516 1.369 . S
C517 C526 1.429 . S
C518 C516 1.419 . S
C518 C519 1.363 . S
C518 H521 0.929 . S
C519 C518 1.363 . S
C519 C525 1.428 . S
H520 C516 0.930 . S
H521 C518 0.929 . S
S522 N523 1.613 . S
S522 N524 1.610 . S
N523 S522 1.613 . S
N523 C526 1.350 . S
N524 S522 1.610 . S
N524 C525 1.351 . S
C525 C519 1.428 . S
C525 N524 1.351 . S
C525 C526 1.434 . S
C526 C517 1.429 . S
C526 N523 1.350 . S
C526 C525 1.434 . S
C527 C528 1.369 . S
C527 C529 1.419 . S
C527 H531 0.930 . S
C528 C527 1.369 . S
C528 C537 1.429 . S
C529 C527 1.419 . S
C529 C530 1.363 . S
C529 H532 0.929 . S
C530 C529 1.363 . S
C530 C536 1.428 . S
H531 C527 0.930 . S
H532 C529 0.929 . S
S533 N534 1.613 . S
S533 N535 1.610 . S
N534 S533 1.613 . S
N534 C537 1.350 . S
N535 S533 1.610 . S
N535 C536 1.351 . S
C536 C530 1.428 . S
C536 N535 1.351 . S
C536 C537 1.434 . S
C537 C528 1.429 . S
C537 N534 1.350 . S
C537 C536 1.434 . S
C538 C539 1.369 . S
C538 C540 1.419 . S
C538 H542 0.930 . S
C539 C538 1.369 . S
C539 C548 1.429 . S
C540 C538 1.419 . S
C540 C541 1.363 . S
C540 H543 0.929 . S
C541 C540 1.363 . S
C541 C547 1.428 . S
H542 C538 0.930 . S
H543 C540 0.929 . S
S544 N545 1.613 . S
S544 N546 1.610 . S
N545 S544 1.613 . S
N545 C548 1.350 . S
N546 S544 1.610 . S
N546 C547 1.351 . S
C547 C541 1.428 . S
C547 N546 1.351 . S
C547 C548 1.434 . S
C548 C539 1.429 . S
C548 N545 1.350 . S
C548 C547 1.434 . S
C549 C550 1.369 . S
C549 C551 1.419 . S
C549 H553 0.930 . S
C550 C549 1.369 . S
C550 C559 1.429 . S
C551 C549 1.419 . S
C551 C552 1.363 . S
C551 H554 0.929 . S
C552 C551 1.363 . S
C552 C558 1.428 . S
H553 C549 0.930 . S
H554 C551 0.929 . S
S555 N556 1.613 . S
S555 N557 1.610 . S
N556 S555 1.613 . S
N556 C559 1.350 . S
N557 S555 1.610 . S
N557 C558 1.351 . S
C558 C552 1.428 . S
C558 N557 1.351 . S
C558 C559 1.434 . S
C559 C550 1.429 . S
C559 N556 1.350 . S
C559 C558 1.434 . S
C560 C561 1.369 . S
C560 C562 1.419 . S
C560 H564 0.930 . S
C561 C560 1.369 . S
C561 C570 1.429 . S
C562 C560 1.419 . S
C562 C563 1.363 . S
C562 H565 0.929 . S
C563 C562 1.363 . S
C563 C569 1.428 . S
H564 C560 0.930 . S
H565 C562 0.929 . S
S566 N567 1.613 . S
S566 N568 1.610 . S
N567 S566 1.613 . S
N567 C570 1.350 . S
N568 S566 1.610 . S
N568 C569 1.351 . S
C569 C563 1.428 . S
C569 N568 1.351 . S
C569 C570 1.434 . S
C570 C561 1.429 . S
C570 N567 1.350 . S
C570 C569 1.434 . S
C571 C572 1.369 . S
C571 C573 1.419 . S
C571 H575 0.930 . S
C572 C571 1.369 . S
C572 C581 1.429 . S
C573 C571 1.419 . S
C573 C574 1.363 . S
C573 H576 0.929 . S
C574 C573 1.363 . S
C574 C580 1.428 . S
H575 C571 0.930 . S
H576 C573 0.929 . S
S577 N578 1.613 . S
S577 N579 1.610 . S
N578 S577 1.613 . S
N578 C581 1.350 . S
N579 S577 1.610 . S
N579 C580 1.351 . S
C580 C574 1.428 . S
C580 N579 1.351 . S
C580 C581 1.434 . S
C581 C572 1.429 . S
C581 N578 1.350 . S
C581 C580 1.434 . S
C582 C583 1.369 . S
C582 C584 1.419 . S
C582 H586 0.930 . S
C583 C582 1.369 . S
C583 C592 1.429 . S
C584 C582 1.419 . S
C584 C585 1.363 . S
C584 H587 0.929 . S
C585 C584 1.363 . S
C585 C591 1.428 . S
H586 C582 0.930 . S
H587 C584 0.929 . S
S588 N589 1.613 . S
S588 N590 1.610 . S
N589 S588 1.613 . S
N589 C592 1.350 . S
N590 S588 1.610 . S
N590 C591 1.351 . S
C591 C585 1.428 . S
C591 N590 1.351 . S
C591 C592 1.434 . S
C592 C583 1.429 . S
C592 N589 1.350 . S
C592 C591 1.434 . S
C593 C594 1.369 . S
C593 C595 1.419 . S
C593 H597 0.930 . S
C594 C593 1.369 . S
C594 C603 1.429 . S
C595 C593 1.419 . S
C595 C596 1.363 . S
C595 H598 0.929 . S
C596 C595 1.363 . S
C596 C602 1.428 . S
H597 C593 0.930 . S
H598 C595 0.929 . S
S599 N600 1.613 . S
S599 N601 1.610 . S
N600 S599 1.613 . S
N600 C603 1.350 . S
N601 S599 1.610 . S
N601 C602 1.351 . S
C602 C596 1.428 . S
C602 N601 1.351 . S
C602 C603 1.434 . S
C603 C594 1.429 . S
C603 N600 1.350 . S
C603 C602 1.434 . S
C604 C605 1.369 . S
C604 C606 1.419 . S
C604 H608 0.930 . S
C605 C604 1.369 . S
C605 C614 1.429 . S
C606 C604 1.419 . S
C606 C607 1.363 . S
C606 H609 0.929 . S
C607 C606 1.363 . S
C607 C613 1.428 . S
H608 C604 0.930 . S
H609 C606 0.929 . S
S610 N611 1.613 . S
S610 N612 1.610 . S
N611 S610 1.613 . S
N611 C614 1.350 . S
N612 S610 1.610 . S
N612 C613 1.351 . S
C613 C607 1.428 . S
C613 N612 1.351 . S
C613 C614 1.434 . S
C614 C605 1.429 . S
C614 N611 1.350 . S
C614 C613 1.434 . S
C615 C616 1.369 . S
C615 C617 1.419 . S
C615 H619 0.930 . S
C616 C615 1.369 . S
C616 C625 1.429 . S
C617 C615 1.419 . S
C617 C618 1.363 . S
C617 H620 0.929 . S
C618 C617 1.363 . S
C618 C624 1.428 . S
H619 C615 0.930 . S
H620 C617 0.929 . S
S621 N622 1.613 . S
S621 N623 1.610 . S
N622 S621 1.613 . S
N622 C625 1.350 . S
N623 S621 1.610 . S
N623 C624 1.351 . S
C624 C618 1.428 . S
C624 N623 1.351 . S
C624 C625 1.434 . S
C625 C616 1.429 . S
C625 N622 1.350 . S
C625 C624 1.434 . S
C626 C627 1.369 . S
C626 C628 1.419 . S
C626 H630 0.930 . S
C627 C626 1.369 . S
C627 C636 1.429 . S
C628 C626 1.419 . S
C628 C629 1.363 . S
C628 H631 0.929 . S
C629 C628 1.363 . S
C629 C635 1.428 . S
H630 C626 0.930 . S
H631 C628 0.929 . S
S632 N633 1.613 . S
S632 N634 1.610 . S
N633 S632 1.613 . S
N633 C636 1.350 . S
N634 S632 1.610 . S
N634 C635 1.351 . S
C635 C629 1.428 . S
C635 N634 1.351 . S
C635 C636 1.434 . S
C636 C627 1.429 . S
C636 N633 1.350 . S
C636 C635 1.434 . S
C637 C638 1.369 . S
C637 C639 1.414 1_556 S
C637 H641 0.930 . S
C638 C637 1.369 . S
C638 C647 1.429 . S
C639 C637 1.414 1_554 S
C639 C640 1.363 . S
C639 H642 0.934 . S
C640 C639 1.363 . S
C640 C646 1.427 1_554 S
H641 C637 0.930 . S
H642 C639 0.934 . S
S643 N644 1.613 . S
S643 N645 1.610 . S
N644 S643 1.613 . S
N644 C647 1.350 . S
N645 S643 1.610 . S
N645 C646 1.351 . S
C646 C640 1.427 1_556 S
C646 N645 1.351 . S
C646 C647 1.434 . S
C647 C638 1.429 . S
C647 N644 1.350 . S
C647 C646 1.434 . S
C648 C649 1.369 . S
C648 C650 1.419 . S
C648 H652 0.930 . S
C649 C648 1.369 . S
C649 C658 1.429 . S
C650 C648 1.419 . S
C650 C651 1.363 . S
C650 H653 0.929 . S
C651 C650 1.363 . S
C651 C657 1.428 . S
H652 C648 0.930 . S
H653 C650 0.929 . S
S654 N655 1.613 . S
S654 N656 1.610 . S
N655 S654 1.613 . S
N655 C658 1.350 . S
N656 S654 1.610 . S
N656 C657 1.351 . S
C657 C651 1.428 . S
C657 N656 1.351 . S
C657 C658 1.434 . S
C658 C649 1.429 . S
C658 N655 1.350 . S
C658 C657 1.434 . S
C659 C660 1.369 . S
C659 C661 1.419 . S
C659 H663 0.930 . S
C660 C659 1.369 . S
C660 C669 1.429 . S
C661 C659 1.419 . S
C661 C662 1.363 . S
C661 H664 0.929 . S
C662 C661 1.363 . S
C662 C668 1.428 . S
H663 C659 0.930 . S
H664 C661 0.929 . S
S665 N666 1.613 . S
S665 N667 1.610 . S
N666 S665 1.613 . S
N666 C669 1.350 . S
N667 S665 1.610 . S
N667 C668 1.351 . S
C668 C662 1.428 . S
C668 N667 1.351 . S
C668 C669 1.434 . S
C669 C660 1.429 . S
C669 N666 1.350 . S
C669 C668 1.434 . S
C409 C110 1.639 . S
C407 C10 1.657 . S
C420 C179 1.502 . S
C418 C15 1.473 . S
C431 C117 1.639 . S
C429 C26 1.661 . S
C442 C180 1.484 . S
C440 C37 1.485 . S
C453 C233 1.730 . S
C451 C4 1.736 . S
C464 C269 1.510 . S
C462 C16 1.478 . S
C473 C27 1.754 . S
C475 C329 1.738 . S
C486 C392 1.491 . S
C484 C43 1.486 . S
C497 C232 1.581 . S
C495 C21 1.558 . S
C506 C32 1.474 . S
C508 C276 1.462 . S
C519 C322 1.762 . S
C517 C38 1.751 . S
C530 C391 1.676 . S
C528 C5 1.677 . S
C539 C49 1.516 . S
C541 C170 1.532 . S
C552 C127 1.717 . S
C550 C60 1.759 . S
C561 C76 1.489 . S
C563 C163 1.490 . S
C572 C81 1.698 . S
C574 C126 1.705 . S
C585 C338 1.582 . S
C583 C54 1.578 . S
C596 C382 1.689 . S
C594 C59 1.705 . S
C607 C216 1.603 . S
C605 C70 1.615 . S
C616 C87 1.634 . S
C618 C285 1.615 . S
C629 C339 1.670 . S
C627 C65 1.674 . S
C640 C375 1.703 . S
C638 C71 1.678 . S
C651 C223 1.605 . S
C649 C82 1.613 . S
C660 C48 1.567 . S
C662 C286 1.566 . S
