# Generated by pormake.
# Topology pth, (4,4)-cn, num edge types: 1
# Building blocks:
#     Node 0, Type 0, BuildingBlock: UXUYUI_clean_sbu_0, # of connection points: 4
#     Node 1, Type 0, BuildingBlock: UXUYUI_clean_sbu_0, # of connection points: 4
#     Node 2, Type 0, BuildingBlock: UXUYUI_clean_sbu_0, # of connection points: 4
#     Node 3, Type 1, BuildingBlock: AZAVOO_clean_linker_0, # of connection points: 4
#     Node 4, Type 1, BuildingBlock: AZAVOO_clean_linker_0, # of connection points: 4
#     Node 5, Type 1, BuildingBlock: AZAVOO_clean_linker_0, # of connection points: 4
#     Edge 6, Type (0, 1), BuildingBlock: TEMPAE_clean_linker_10, # of connection points: 2
#     Edge 7, Type (0, 1), BuildingBlock: TEMPAE_clean_linker_10, # of connection points: 2
#     Edge 8, Type (0, 1), BuildingBlock: TEMPAE_clean_linker_10, # of connection points: 2
#     Edge 9, Type (0, 1), BuildingBlock: TEMPAE_clean_linker_10, # of connection points: 2
#     Edge 10, Type (0, 1), BuildingBlock: TEMPAE_clean_linker_10, # of connection points: 2
#     Edge 11, Type (0, 1), BuildingBlock: TEMPAE_clean_linker_10, # of connection points: 2
#     Edge 12, Type (0, 1), BuildingBlock: TEMPAE_clean_linker_10, # of connection points: 2
#     Edge 13, Type (0, 1), BuildingBlock: TEMPAE_clean_linker_10, # of connection points: 2
#     Edge 14, Type (0, 1), BuildingBlock: TEMPAE_clean_linker_10, # of connection points: 2
#     Edge 15, Type (0, 1), BuildingBlock: TEMPAE_clean_linker_10, # of connection points: 2
#     Edge 16, Type (0, 1), BuildingBlock: TEMPAE_clean_linker_10, # of connection points: 2
#     Edge 17, Type (0, 1), BuildingBlock: TEMPAE_clean_linker_10, # of connection points: 2
# Relax obj value: 0.175
# Max RMSD: 0.231
# Mean RMSD: 0.228
data_MOF--net-pth--node1-UXUYUI_clean_sbu_0--node2-AZAVOO_clean_linker_0--edge1-TEMPAE_clean_linker_10
_symmetry_space_group_name_H-M    P1
_symmetry_Int_Tables_number       1
_symmetry_cell_setting            triclinic
loop_
_symmetry_equiv_pos_as_xyz
'x, y, z'
_cell_length_a     31.663113
_cell_length_b     31.651738
_cell_length_c     85.553818
_cell_angle_alpha  91.345124
_cell_angle_beta   89.093029
_cell_angle_gamma 119.96859
loop_
_atom_site_label
_atom_site_type_symbol
_atom_site_fract_x
_atom_site_fract_y
_atom_site_fract_z
_atom_type_partial_charge
Li0 Li 0.09943 0.07746 0.05336 0.0
Li1 Li 0.03936 0.06753 0.07284 0.0
Li2 Li 0.07148 0.01106 0.07196 0.0
Li3 Li 0.01653 0.00818 0.05246 0.0
C4 C 0.13548 0.12947 0.08216 0.0
N5 N 0.18949 0.22347 0.09408 0.0
C6 C 0.13901 0.16875 0.07395 0.0
C7 C 0.15961 0.13806 0.09643 0.0
C8 C 0.16642 0.21597 0.08016 0.0
C9 C 0.18669 0.18582 0.10226 0.0
C10 C 0.01972 0.10808 0.04803 0.0
C11 C 0.95428 0.12596 0.05079 0.0
N12 N 0.98298 0.17009 0.04418 0.0
C13 C 0.04846 0.15349 0.04117 0.0
C14 C 0.97215 0.09406 0.0528 0.0
C15 C 0.02926 0.18437 0.03936 0.0
C16 C 0.13879 0.11711 0.02503 0.0
N17 N 0.15125 0.11936 0.04025 0.0
C18 C 0.23366 0.17933 0.03468 0.0
C19 C 0.19775 0.1488 0.04521 0.0
C20 C 0.22157 0.17869 0.0189 0.0
C21 C 0.17353 0.14644 0.01409 0.0
H22 H 0.10163 0.09248 0.02143 0.0
H23 H 0.2069 0.14889 0.05734 0.0
C24 C -0.00039 0.07697 0.10094 0.0
N25 N 0.02012 0.10089 0.08748 0.0
C26 C 0.99082 0.10085 0.11339 0.0
C27 C 0.02321 0.17318 0.09772 0.0
C28 C 0.03136 0.14792 0.08559 0.0
C29 C 0.00371 0.14994 0.11196 0.0
H30 H 0.99192 0.03988 0.10223 0.0
H31 H 0.04838 0.16661 0.07493 0.0
C32 C 0.11849 0.00369 0.04536 0.0
N33 N 0.19974 0.99666 0.03747 0.0
C34 C 0.11784 0.97645 0.03218 0.0
C35 C 0.16053 0.02747 0.05451 0.0
C36 C 0.15926 0.97329 0.02839 0.0
C37 C 0.20121 0.02344 0.05033 0.0
C38 C 0.95736 0.95707 0.07432 0.0
C39 C 0.95019 0.91016 0.07183 0.0
C40 C 0.91712 0.96389 0.0757 0.0
C41 C 0.90273 0.87081 0.07046 0.0
C42 C 0.87024 0.9236 0.07428 0.0
N43 N 0.86407 0.8783 0.07169 0.0
C44 C 0.10413 0.98836 0.09885 0.0
C45 C 0.08177 0.92965 0.07825 0.0
C46 C 0.11343 0.95947 0.10866 0.0
N47 N 0.08838 0.97289 0.08403 0.0
C48 C 0.09019 0.89933 0.08772 0.0
C49 C 0.1057 0.91402 0.10318 0.0
H50 H 0.10793 0.02241 0.10317 0.0
H51 H 0.06874 0.91819 0.06644 0.0
C52 C 0.93548 0.97439 0.03172 0.0
N53 N 0.96887 0.96497 0.03812 0.0
C54 C 0.90585 0.94485 0.01953 0.0
C55 C 0.94476 0.89595 0.02113 0.0
C56 C 0.97338 0.92621 0.0333 0.0
C57 C 0.91128 0.90582 0.01387 0.0
H58 H 0.93305 0.00575 0.03564 0.0
H59 H 0.00032 0.91971 0.03862 0.0
O60 O 0.10832 0.08279 0.07638 0.0
O61 O 0.03804 0.07748 0.04992 0.0
O62 O 0.07819 0.00728 0.0491 0.0
O63 O 0.00356 0.99618 0.0753 0.0
H64 H 0.12065 0.16285 0.06292 0.0
H65 H 0.15752 0.10823 0.10295 0.0
H66 H 0.16928 0.24663 0.07392 0.0
H67 H 0.20549 0.19295 0.1133 0.0
H68 H 0.91764 0.11568 0.05453 0.0
H69 H 0.08525 0.16487 0.0373 0.0
H70 H 0.94948 0.05917 0.05816 0.0
H71 H 0.05116 0.21968 0.03412 0.0
H72 H 0.27016 0.20373 0.03892 0.0
H73 H 0.16282 0.14375 0.00198 0.0
H74 H 0.97626 0.08181 0.12424 0.0
H75 H 0.0332 0.21089 0.0961 0.0
H76 H 0.08566 0.95801 0.02493 0.0
H77 H 0.1619 0.04887 0.06472 0.0
H78 H 0.15925 0.95231 0.01823 0.0
H79 H 0.23397 0.04165 0.0573 0.0
H80 H 0.98097 0.90429 0.07075 0.0
H81 H 0.92203 -0.00014 0.07787 0.0
H82 H 0.89664 0.83434 0.06839 0.0
H83 H 0.83875 0.92836 0.07525 0.0
H84 H 0.1245 0.97159 0.12061 0.0
H85 H 0.08388 0.86449 0.08311 0.0
H86 H 0.88063 0.95376 0.01414 0.0
H87 H 0.94948 0.86576 0.01722 0.0
Li88 Li 0.03687 0.97728 0.38957 0.0
Li89 Li 0.08979 0.05147 0.40461 0.0
Li90 Li 0.00052 0.00686 0.40796 0.0
Li91 Li 0.03743 0.05305 0.38412 0.0
C92 C 0.05175 0.94534 0.41527 0.0
N93 N 0.06189 0.86452 0.41932 0.0
C94 C 0.09815 0.95044 0.4159 0.0
C95 C 0.0105 0.8992 0.4168 0.0
C96 C 0.10251 0.90912 0.41794 0.0
C97 C 0.01639 0.85877 0.41881 0.0
C98 C 0.12373 0.06769 0.37077 0.0
C99 C 0.18622 0.14601 0.36164 0.0
N100 N 0.1858 0.12538 0.34748 0.0
C101 C 0.1242 0.04713 0.35618 0.0
C102 C 0.15522 0.1174 0.37359 0.0
C103 C 0.15574 0.07696 0.34453 0.0
C104 C 0.99228 0.88036 0.3774 0.0
N105 N 0.03525 0.9219 0.3802 0.0
C106 C 0.08011 0.88625 0.3692 0.0
C107 C 0.0787 0.92548 0.37638 0.0
C108 C 0.03633 0.843 0.36597 0.0
C109 C 0.99198 0.84005 0.37031 0.0
H110 H 0.95832 0.8787 0.38055 0.0
H111 H 0.11226 0.959 0.37887 0.0
C112 C 0.14561 0.09579 0.43105 0.0
N113 N 0.14881 0.08458 0.41583 0.0
C114 C 0.18552 0.11198 0.44088 0.0
C115 C 0.23156 0.10468 0.41921 0.0
C116 C 0.19086 0.08952 0.40968 0.0
C117 C 0.22865 0.11474 0.43517 0.0
H118 H 0.11122 0.0894 0.43581 0.0
H119 H 0.19183 0.07864 0.39767 0.0
C120 C 0.93145 0.96877 0.38693 0.0
N121 N 0.83277 0.93525 0.39005 0.0
C122 C 0.91126 0.9952 0.38075 0.0
C123 C 0.90138 0.92505 0.39456 0.0
C124 C 0.86129 0.97768 0.38247 0.0
C125 C 0.85161 0.90881 0.39607 0.0
C126 C 0.06307 0.12015 0.41421 0.0
C127 C 0.04736 0.1198 0.4296 0.0
C128 C 0.09765 0.16423 0.40764 0.0
C129 C 0.06713 0.16349 0.43824 0.0
C130 C 0.11651 0.20715 0.41665 0.0
N131 N 0.10103 0.20589 0.43164 0.0
C132 C 0.95305 0.9694 0.43645 0.0
C133 C 0.9249 0.01479 0.42271 0.0
C134 C 0.92475 0.96679 0.44943 0.0
N135 N 0.95302 0.99364 0.42356 0.0
C136 C 0.89579 0.01278 0.43538 0.0
C137 C 0.89645 0.98954 0.44909 0.0
H138 H 0.97684 0.95416 0.43695 0.0
H139 H 0.92706 0.03534 0.41252 0.0
C140 C 0.0362 0.08349 0.35332 0.0
N141 N 0.03215 0.09212 0.36875 0.0
C142 C 0.03267 0.11276 0.34206 0.0
C143 C 0.01852 0.15761 0.36278 0.0
C144 C 0.02274 0.12778 0.37362 0.0
C145 C 0.02389 0.15048 0.34678 0.0
H146 H 0.04188 0.05374 0.34975 0.0
H147 H 0.01825 0.13289 0.38594 0.0
O148 O 0.04669 0.98513 0.41281 0.0
O149 O 0.09281 0.03908 0.38226 0.0
O150 O 0.98036 0.98555 0.38548 0.0
O151 O 0.0439 0.07772 0.40555 0.0
H152 H 0.13045 0.98582 0.41466 0.0
H153 H 0.97431 0.89457 0.41624 0.0
H154 H 0.1382 0.91249 0.41836 0.0
H155 H 0.98479 0.8228 0.41989 0.0
H156 H 0.2107 0.18459 0.36365 0.0
H157 H 0.10011 0.00863 0.35383 0.0
H158 H 0.15594 0.13364 0.3849 0.0
H159 H 0.15629 0.06163 0.33315 0.0
H160 H 0.11503 0.88972 0.36614 0.0
H161 H 0.95746 0.80748 0.36785 0.0
H162 H 0.18177 0.11989 0.45304 0.0
H163 H 0.26371 0.10545 0.41436 0.0
H164 H 0.93389 0.02896 0.37474 0.0
H165 H 0.91643 0.90426 0.39947 0.0
H166 H 0.84521 -0.00214 0.37781 0.0
H167 H 0.82799 0.87525 0.40206 0.0
H168 H 0.02068 0.0861 0.43492 0.0
H169 H 0.10948 0.16542 0.39566 0.0
H170 H 0.05555 0.16367 0.45019 0.0
H171 H 0.14334 0.2415 0.4117 0.0
H172 H 0.92608 0.94847 0.45979 0.0
H173 H 0.87511 0.03152 0.43478 0.0
H174 H 0.03619 0.10563 0.3298 0.0
H175 H 0.01186 0.18641 0.36688 0.0
Li176 Li 0.11363 0.05479 0.71821 0.0
Li177 Li 0.10984 0.11934 0.73349 0.0
Li178 Li 0.04648 0.03371 0.73612 0.0
Li179 Li 0.05315 0.079 0.71283 0.0
C180 C 0.15167 0.05641 0.74661 0.0
N181 N 0.22529 0.0409 0.75664 0.0
C182 C 0.19644 0.09585 0.7513 0.0
C183 C 0.14422 0.00907 0.74718 0.0
C184 C 0.23322 0.08725 0.7563 0.0
C185 C 0.18193 0.00199 0.75223 0.0
C186 C 0.12818 0.13822 0.69688 0.0
C187 C 0.12508 0.19773 0.68059 0.0
N188 N 0.12887 0.17392 0.66767 0.0
C189 C 0.13214 0.11437 0.68346 0.0
C190 C 0.12472 0.18029 0.69547 0.0
C191 C 0.13241 0.133 0.66879 0.0
C192 C 0.14162 -0.00084 0.69869 0.0
N193 N 0.15758 0.03714 0.70909 0.0
C194 C 0.24031 0.05767 0.70481 0.0
C195 C 0.20581 0.06647 0.71216 0.0
C196 C 0.22495 0.01945 0.69381 0.0
C197 C 0.17505 0.98978 0.69076 0.0
H198 H 0.10318 0.97741 0.6961 0.0
H199 H 0.21762 0.09776 0.71989 0.0
C200 C 0.14589 0.17823 0.76046 0.0
N201 N 0.15 0.17797 0.74464 0.0
C202 C 0.17912 0.21856 0.76925 0.0
C203 C 0.22003 0.25771 0.74528 0.0
C204 C 0.18569 0.21672 0.73693 0.0
C205 C 0.21756 0.25852 0.76168 0.0
H206 H 0.11785 0.14635 0.76628 0.0
H207 H 0.18879 0.21492 0.72437 0.0
C208 C 0.00964 0.96425 0.71388 0.0
N209 N 0.93898 0.86681 0.71484 0.0
C210 C 0.96194 0.94917 0.70926 0.0
C211 C 0.02149 0.92971 0.71883 0.0
C212 C 0.92672 0.89976 0.70987 0.0
C213 C 0.98523 0.88064 0.71928 0.0
C214 C 0.03312 0.12097 0.74506 0.0
C215 C 0.01407 0.10354 0.75989 0.0
C216 C 0.04839 0.16943 0.7415 0.0
C217 C 0.01088 0.13502 0.77096 0.0
C218 C 0.04468 0.19977 0.7529 0.0
N219 N 0.02616 0.18208 0.76726 0.0
C220 C 0.01897 0.97342 0.76253 0.0
C221 C 0.95364 0.96702 0.74749 0.0
C222 C 0.98625 0.93901 0.77297 0.0
N223 N 0.00215 0.98628 0.75004 0.0
C224 C 0.91967 0.93184 0.75745 0.0
C225 C 0.936 0.91763 0.77037 0.0
H226 H 0.05771 0.99024 0.76449 0.0
H227 H 0.9414 0.97932 0.73778 0.0
C228 C 0.00212 0.05434 0.68438 0.0
N229 N 0.0158 0.0853 0.69694 0.0
C230 C 0.97021 0.05456 0.67336 0.0
C231 C 0.96951 0.12054 0.68797 0.0
C232 C 0.00077 0.11846 0.69882 0.0
C233 C 0.95278 0.08747 0.67522 0.0
H234 H 0.01475 0.02834 0.68321 0.0
H235 H 0.01234 0.14271 0.70889 0.0
O236 O 0.11525 0.0641 0.74159 0.0
O237 O 0.12633 0.1197 0.71131 0.0
O238 O 0.0445 0.01257 0.71358 0.0
O239 O 0.03678 0.09077 0.73409 0.0
H240 H 0.20301 0.13276 0.75093 0.0
H241 H 0.10971 0.97811 0.74374 0.0
H242 H 0.26813 0.11745 0.75988 0.0
H243 H 0.17671 0.96555 0.75266 0.0
H244 H 0.12213 0.23008 0.67931 0.0
H245 H 0.13447 0.08156 0.68435 0.0
H246 H 0.12109 0.19886 0.70574 0.0
H247 H 0.13526 0.11483 0.6583 0.0
H248 H 0.27871 0.08196 0.70708 0.0
H249 H 0.16232 0.96058 0.68208 0.0
H250 H 0.17553 0.21787 0.78186 0.0
H251 H 0.2495 0.28735 0.73899 0.0
H252 H 0.95198 0.97541 0.70551 0.0
H253 H 0.05828 0.94065 0.72229 0.0
H254 H 0.88958 0.88763 0.70645 0.0
H255 H 0.99387 0.85356 0.72316 0.0
H256 H 0.00208 0.06622 0.76289 0.0
H257 H 0.06394 0.18379 0.73018 0.0
H258 H -0.00366 0.12205 0.78249 0.0
H259 H 0.05675 0.23744 0.75034 0.0
H260 H -2e-05 0.92893 0.78289 0.0
H261 H 0.8811 0.91664 0.75528 0.0
H262 H 0.95801 0.02803 0.66384 0.0
H263 H 0.95804 0.14731 0.68971 0.0
H264 H 0.00783 0.48206 0.12829 0.0
H265 H 0.14918 0.84299 0.2685 0.0
H266 H 0.95488 0.43112 0.21325 0.0
H267 H 0.93496 0.35728 0.19796 0.0
H268 H 0.07982 0.38136 0.20615 0.0
H269 H 0.09886 0.45455 0.22178 0.0
H270 H 0.98501 0.52551 0.19369 0.0
H271 H 0.98216 0.50798 0.16559 0.0
H272 H 0.11731 0.506 0.169 0.0
H273 H 0.11994 0.5241 0.19706 0.0
H274 H 0.00486 0.61614 0.21236 0.0
H275 H 0.02001 0.67696 0.19268 0.0
H276 H 0.16356 0.6961 0.18423 0.0
H277 H 0.14729 0.63406 0.20366 0.0
H278 H -0.00357 0.60931 0.25004 0.0
H279 H 0.01073 0.6863 0.26199 0.0
H280 H 0.16291 0.7537 0.24883 0.0
H281 H 0.14824 0.67616 0.23717 0.0
H282 H 0.97241 0.5114 0.26511 0.0
H283 H 0.96324 0.54008 0.29108 0.0
H284 H 0.11851 0.64051 0.29252 0.0
H285 H 0.12743 0.61079 0.26675 0.0
H286 H 0.9615 0.42022 0.24783 0.0
H287 H 0.95309 0.35725 0.26585 0.0
H288 H 0.10655 0.44345 0.27671 0.0
H289 H 0.11432 0.5062 0.25888 0.0
O290 O 0.00995 0.48953 0.13938 0.0
O291 O 0.07933 0.48863 0.14179 0.0
O292 O 0.06404 0.77557 0.27043 0.0
O293 O 0.14237 0.8123 0.26364 0.0
C294 C 0.04276 0.49711 0.22491 0.0
C295 C 0.05347 0.53516 0.2145 0.0
C296 C 0.06418 0.58142 0.22038 0.0
C297 C 0.06314 0.5894 0.23662 0.0
C298 C 0.0537 0.55155 0.24704 0.0
C299 C 0.0443 0.50568 0.24118 0.0
C300 C 0.0283 0.44801 0.21851 0.0
C301 C 0.98174 0.41956 0.21209 0.0
C302 C 0.97061 0.37771 0.20328 0.0
C303 C 0.00604 0.36393 0.20069 0.0
C304 C 0.05163 0.39081 0.20805 0.0
C305 C 0.06266 0.43263 0.21694 0.0
C306 C 0.05269 0.52611 0.19737 0.0
C307 C 0.01412 0.52163 0.18831 0.0
C308 C 0.01252 0.51145 0.17228 0.0
C309 C 0.04946 0.50548 0.16505 0.0
C310 C 0.08824 0.51033 0.1742 0.0
C311 C 0.08985 0.52064 0.19021 0.0
C312 C 0.07503 0.62095 0.20939 0.0
C313 C 0.03971 0.63391 0.20635 0.0
C314 C 0.04855 0.66876 0.19516 0.0
C315 C 0.09304 0.69138 0.18689 0.0
C316 C 0.12873 0.67889 0.19024 0.0
C317 C 0.1197 0.64381 0.20139 0.0
C318 C 0.07133 0.63718 0.24278 0.0
C319 C 0.03279 0.6408 0.24971 0.0
C320 C 0.04106 0.68481 0.25653 0.0
C321 C 0.08803 0.72615 0.2564 0.0
C322 C 0.12634 0.72257 0.24915 0.0
C323 C 0.11805 0.67843 0.24241 0.0
C324 C 0.05048 0.5595 0.26403 0.0
C325 C 0.00463 0.53822 0.27132 0.0
C326 C -0.00058 0.55488 0.28606 0.0
C327 C 0.04005 0.59299 0.29369 0.0
C328 C 0.08659 0.61089 0.28698 0.0
C329 C 0.09176 0.59415 0.27224 0.0
C330 C 0.03852 0.46757 0.25208 0.0
C331 C 0.99319 0.42529 0.25411 0.0
C332 C 0.98853 0.38942 0.26434 0.0
C333 C 0.02916 0.39548 0.27271 0.0
C334 C 0.07445 0.43806 0.27062 0.0
C335 C 0.07903 0.47379 0.2604 0.0
C336 C 0.04734 0.49407 0.14805 0.0
C337 C 0.09721 0.77273 0.26391 0.0
H338 H 0.61773 0.05468 0.45788 0.0
H339 H 0.32065 0.13114 0.58578 0.0
H340 H 0.59096 0.98918 0.54163 0.0
H341 H 0.65182 0.97382 0.52916 0.0
H342 H 0.76564 0.11651 0.54444 0.0
H343 H 0.70375 0.13192 0.55668 0.0
H344 H 0.53015 0.01555 0.52037 0.0
H345 H 0.55458 0.01925 0.49293 0.0
H346 H 0.68458 0.15765 0.50235 0.0
H347 H 0.65936 0.15374 0.52972 0.0
H348 H 0.44977 0.02242 0.5363 0.0
H349 H 0.40624 0.03619 0.51538 0.0
H350 H 0.52344 0.18538 0.51209 0.0
H351 H 0.56676 0.17125 0.53306 0.0
H352 H 0.4383 0.007 0.57464 0.0
H353 H 0.36508 0.00902 0.58302 0.0
H354 H 0.43535 0.1619 0.57166 0.0
H355 H 0.50861 0.15955 0.56354 0.0
H356 H 0.52224 0.99594 0.59379 0.0
H357 H 0.48238 0.98136 0.61934 0.0
H358 H 0.501 0.1265 0.6192 0.0
H359 H 0.54433 0.14183 0.59444 0.0
H360 H 0.61032 0.99686 0.57658 0.0
H361 H 0.67079 -0.00179 0.59428 0.0
H362 H 0.70448 0.14161 0.61112 0.0
H363 H 0.6464 0.14115 0.59261 0.0
O364 O 0.60851 0.05419 0.46874 0.0
O365 O 0.67488 0.12514 0.47422 0.0
O366 O 0.31485 0.05081 0.58832 0.0
O367 O 0.34901 0.12924 0.58243 0.0
C368 C 0.60485 0.07272 0.55512 0.0
C369 C 0.57859 0.08154 0.54373 0.0
C370 C 0.53847 0.0868 0.54822 0.0
C371 C 0.52377 0.08206 0.56403 0.0
C372 C 0.55141 0.07523 0.57555 0.0
C373 C 0.59255 0.07143 0.57109 0.0
C374 C 0.6431 0.06168 0.54993 0.0
C375 C 0.62915 0.0167 0.54254 0.0
C376 C 0.66402 0.0079 0.53554 0.0
C377 C 0.71354 0.044 0.53581 0.0
C378 C 0.72768 0.08821 0.54395 0.0
C379 C 0.69259 0.09699 0.55099 0.0
C380 C 0.59288 0.08448 0.52698 0.0
C381 C 0.56366 0.04682 0.51644 0.0
C382 C 0.57782 0.04895 0.50079 0.0
C383 C 0.62156 0.08874 0.49544 0.0
C384 C 0.65068 0.12649 0.50608 0.0
C385 C 0.63639 0.12437 0.52171 0.0
C386 C 0.51116 0.09591 0.53616 0.0
C387 C 0.4658 0.0581 0.53111 0.0
C388 C 0.44132 0.06591 0.51911 0.0
C389 C 0.46176 0.11177 0.51209 0.0
C390 C 0.50691 0.14981 0.51736 0.0
C391 C 0.53159 0.14182 0.52928 0.0
C392 C 0.47872 0.08311 0.56848 0.0
C393 C 0.43775 0.04086 0.57396 0.0
C394 C 0.396 0.04212 0.57873 0.0
C395 C 0.39438 0.08566 0.57802 0.0
C396 C 0.43536 0.12779 0.57236 0.0
C397 C 0.47719 0.12652 0.56765 0.0
C398 C 0.53547 0.06968 0.59215 0.0
C399 C 0.51913 0.02508 0.59958 0.0
C400 C 0.49574 0.01662 0.61409 0.0
C401 C 0.48741 0.0523 0.62127 0.0
C402 C 0.50698 0.09816 0.61422 0.0
C403 C 0.53136 0.10693 0.59992 0.0
C404 C 0.62456 0.06923 0.58313 0.0
C405 C 0.63092 0.02857 0.58407 0.0
C406 C 0.66516 0.02925 0.59432 0.0
C407 C 0.69298 0.07028 0.60402 0.0
C408 C 0.68464 0.10993 0.60355 0.0
C409 C 0.65101 0.10952 0.59312 0.0
C410 C 0.63674 0.09065 0.47885 0.0
C411 C 0.35027 0.08731 0.58324 0.0
H412 H 0.66857 0.64861 0.98844 0.0
H413 H 0.31776 0.25636 0.85982 0.0
H414 H 0.61776 0.67098 0.90344 0.0
H415 H 0.68042 0.73541 0.91981 0.0
H416 H 0.76295 0.66041 0.91821 0.0
H417 H 0.70029 0.59635 0.90156 0.0
H418 H 0.5676 0.60641 0.92854 0.0
H419 H 0.60111 0.63022 0.95494 0.0
H420 H 0.66528 0.5379 0.94975 0.0
H421 H 0.632 0.51491 0.92328 0.0
H422 H 0.47026 0.50885 0.92086 0.0
H423 H 0.42143 0.45238 0.94151 0.0
H424 H 0.4943 0.36946 0.93269 0.0
H425 H 0.54304 0.42629 0.91203 0.0
H426 H 0.43916 0.49237 0.88034 0.0
H427 H 0.36441 0.42102 0.87087 0.0
H428 H 0.43382 0.33351 0.87402 0.0
H429 H 0.50854 0.40535 0.88324 0.0
H430 H 0.51561 0.57986 0.86069 0.0
H431 H 0.47044 0.55459 0.83603 0.0
H432 H 0.5069 0.44049 0.83019 0.0
H433 H 0.55256 0.46658 0.85465 0.0
H434 H 0.61485 0.66743 0.87457 0.0
H435 H 0.67182 0.72472 0.85556 0.0
H436 H 0.70474 0.61435 0.83869 0.0
H437 H 0.65028 0.55872 0.85851 0.0
O438 O 0.65391 0.63712 0.97825 0.0
O439 O 0.68124 0.58479 0.97579 0.0
O440 O 0.31281 0.33172 0.86218 0.0
O441 O 0.34656 0.28495 0.86379 0.0
C442 C 0.6108 0.58422 0.89605 0.0
C443 C 0.58234 0.54955 0.90741 0.0
C444 C 0.54 0.50629 0.90293 0.0
C445 C 0.52532 0.49799 0.88717 0.0
C446 C 0.55398 0.53263 0.8758 0.0
C447 C 0.59709 0.57547 0.8802 0.0
C448 C 0.65486 0.6294 0.90121 0.0
C449 C 0.65062 0.66985 0.90591 0.0
C450 C 0.68623 0.70638 0.91536 0.0
C451 C 0.7261 0.70243 0.92037 0.0
C452 C 0.73229 0.66397 0.91455 0.0
C453 C 0.69692 0.62774 0.90494 0.0
C454 C 0.59742 0.55898 0.92406 0.0
C455 C 0.58843 0.59096 0.93322 0.0
C456 C 0.60779 0.60464 0.94826 0.0
C457 C 0.63612 0.58618 0.95443 0.0
C458 C 0.64368 0.55285 0.94535 0.0
C459 C 0.62451 0.53942 0.93027 0.0
C460 C 0.50965 0.47117 0.91496 0.0
C461 C 0.47544 0.47836 0.92339 0.0
C462 C 0.44798 0.44639 0.9352 0.0
C463 C 0.4543 0.40673 0.93869 0.0
C464 C 0.48851 0.39954 0.93013 0.0
C465 C 0.51624 0.43179 0.91838 0.0
C466 C 0.47903 0.45385 0.88257 0.0
C467 C 0.43795 0.45764 0.87908 0.0
C468 C 0.39539 0.41688 0.87365 0.0
C469 C 0.39315 0.37153 0.87168 0.0
C470 C 0.43428 0.36783 0.87541 0.0
C471 C 0.47689 0.4087 0.88078 0.0
C472 C 0.53687 0.52471 0.85944 0.0
C473 C 0.51513 0.55048 0.85379 0.0
C474 C 0.48915 0.53583 0.8398 0.0
C475 C 0.48478 0.49531 0.83129 0.0
C476 C 0.51 0.47213 0.8364 0.0
C477 C 0.53589 0.48677 0.85039 0.0
C478 C 0.62929 0.60939 0.86811 0.0
C479 C 0.63496 0.656 0.86691 0.0
C480 C 0.66698 0.68838 0.85587 0.0
C481 C 0.69316 0.67428 0.84562 0.0
C482 C 0.68607 0.62684 0.8466 0.0
C483 C 0.65465 0.59483 0.85781 0.0
C484 C 0.65838 0.6024 0.97014 0.0
C485 C 0.34834 0.32833 0.86561 0.0
C486 C 0.95876 0.15739 0.1353 0.0
C487 C 5e-05 0.17777 0.12556 0.0
C488 C 0.95562 0.18352 0.14832 0.0
C489 C 0.99475 0.23095 0.15165 0.0
C490 C 0.03667 0.25146 0.14194 0.0
C491 C 0.03881 0.2246 0.12903 0.0
C492 C 0.91031 0.16069 0.15841 0.0
C493 C 0.07925 0.30193 0.14515 0.0
C494 C 0.97699 0.32464 0.17447 0.0
C495 C -0.00239 0.32539 0.18894 0.0
C496 C 0.97368 0.29234 0.16246 0.0
C497 C 0.99168 0.26018 0.16496 0.0
C498 C 0.01073 0.25931 0.17973 0.0
C499 C 0.01353 0.29205 0.19157 0.0
C500 C 0.95328 0.29447 0.14684 0.0
C501 C 0.03014 0.22537 0.18281 0.0
H502 H 0.92865 0.12127 0.1326 0.0
H503 H 0.07123 0.24008 0.12173 0.0
H504 H 0.92018 0.16007 0.17075 0.0
H505 H 0.89219 0.18293 0.15809 0.0
H506 H 0.88384 0.12284 0.15453 0.0
H507 H 0.10947 0.31218 0.1366 0.0
H508 H 0.06711 0.32925 0.1447 0.0
H509 H 0.09352 0.30399 0.15707 0.0
H510 H 0.96542 0.35091 0.17226 0.0
H511 H 0.02908 0.29225 0.20279 0.0
H512 H 0.92534 0.25738 0.14286 0.0
H513 H 0.98288 0.30896 0.13796 0.0
H514 H 0.93661 0.31815 0.14728 0.0
H515 H 0.00299 0.18744 0.1793 0.0
H516 H 0.03943 0.22593 0.19531 0.0
H517 H 0.06343 0.2362 0.17566 0.0
C518 C 0.8234 0.98469 0.46236 0.0
C519 C 0.87095 0.99268 0.46331 0.0
C520 C 0.80045 0.99176 0.47548 0.0
C521 C 0.82589 0.00749 0.48983 0.0
C522 C 0.87344 0.01436 0.49097 0.0
C523 C 0.89541 0.00678 0.47767 0.0
C524 C 0.74947 0.98365 0.47387 0.0
C525 C 0.90172 0.03143 0.50606 0.0
C526 C 0.78118 0.07452 0.51624 0.0
C527 C 0.74886 0.03718 0.52609 0.0
C528 C 0.80863 0.06603 0.50491 0.0
C529 C 0.80333 0.01901 0.50336 0.0
C530 C 0.77306 0.98202 0.51388 0.0
C531 C 0.74624 0.99162 0.52517 0.0
C532 C 0.84091 0.10653 0.49397 0.0
C533 C 0.76675 0.93153 0.51262 0.0
H534 H 0.80434 0.97339 0.45129 0.0
H535 H 0.93249 0.01365 0.47838 0.0
H536 H 0.72505 0.95774 0.4828 0.0
H537 H 0.74983 0.01857 0.47594 0.0
H538 H 0.73389 0.9691 0.46212 0.0
H539 H 0.9368 0.03148 0.50531 0.0
H540 H 0.90957 0.06899 0.50901 0.0
H541 H 0.87979 0.00779 0.51581 0.0
H542 H 0.78295 0.10962 0.51676 0.0
H543 H 0.72178 0.96287 0.53292 0.0
H544 H 0.82499 0.09764 0.48206 0.0
H545 H 0.87759 0.11019 0.49313 0.0
H546 H 0.84508 0.1422 0.49779 0.0
H547 H 0.74674 0.91321 0.50174 0.0
H548 H 0.74614 0.90861 0.5227 0.0
H549 H 0.80274 0.93358 0.51189 0.0
C550 C 0.8637 0.83617 0.77556 0.0
C551 C 0.90061 0.88129 0.78125 0.0
C552 C 0.82967 0.8014 0.78576 0.0
C553 C 0.83224 0.8126 0.80195 0.0
C554 C 0.86932 0.85832 0.80773 0.0
C555 C 0.90343 0.89201 0.7973 0.0
C556 C 0.7912 0.75263 0.77923 0.0
C557 C 0.87264 0.87183 0.8249 0.0
C558 C 0.71811 0.74166 0.82647 0.0
C559 C 0.72834 0.70913 0.83416 0.0
C560 C 0.75168 0.77565 0.81598 0.0
C561 C 0.79612 0.7765 0.81288 0.0
C562 C 0.80639 0.74331 0.82038 0.0
C563 C 0.7726 0.71037 0.83104 0.0
C564 C 0.73978 0.81092 0.8083 0.0
C565 C 0.85321 0.74281 0.81722 0.0
H566 H 0.86191 0.82793 0.76313 0.0
H567 H 0.93181 0.92719 0.80163 0.0
H568 H 0.79373 0.72283 0.78492 0.0
H569 H 0.75436 0.74711 0.78184 0.0
H570 H 0.79481 0.74939 0.76639 0.0
H571 H 0.90328 0.90916 0.82744 0.0
H572 H 0.83814 0.86975 0.82889 0.0
H573 H 0.87764 0.84554 0.83186 0.0
H574 H 0.6837 0.74047 0.82859 0.0
H575 H 0.78128 0.68603 0.83712 0.0
H576 H 0.7394 0.80617 0.79541 0.0
H577 H 0.76836 0.84897 0.81111 0.0
H578 H 0.70389 0.80589 0.81213 0.0
H579 H 0.85728 0.73801 0.8045 0.0
H580 H 0.85467 0.71324 0.82349 0.0
H581 H 0.88484 0.77826 0.82088 0.0
C582 C 0.07197 0.83235 0.11516 0.0
C583 C 0.11002 0.88066 0.11401 0.0
C584 C 0.07265 0.80169 0.12658 0.0
C585 C 0.11257 0.81977 0.13696 0.0
C586 C 0.15213 0.86785 0.13539 0.0
C587 C 0.15022 0.89791 0.12398 0.0
C588 C 0.02958 0.75074 0.12799 0.0
C589 C 0.19564 0.88803 0.14611 0.0
C590 C 0.08543 0.76057 0.17656 0.0
C591 C 0.10131 0.72665 0.17446 0.0
C592 C 0.0898 0.79178 0.16453 0.0
C593 C 0.11111 0.78938 0.15011 0.0
C594 C 0.12875 0.75643 0.14807 0.0
C595 C 0.12338 0.72521 0.16026 0.0
C596 C 0.07043 0.82641 0.16711 0.0
C597 C 0.15203 0.75321 0.13289 0.0
H598 H 0.04059 0.81917 0.10758 0.0
H599 H 0.17984 0.93518 0.12297 0.0
H600 H 0.04202 0.72361 0.12783 0.0
H601 H 0.01077 0.74742 0.13933 0.0
H602 H 0.00283 0.74134 0.11842 0.0
H603 H 0.22521 0.92449 0.14245 0.0
H604 H 0.18431 0.89133 0.1582 0.0
H605 H 0.21039 0.86279 0.1464 0.0
H606 H 0.06916 0.76247 0.18761 0.0
H607 H 0.13522 0.69869 0.15848 0.0
H608 H 0.04069 0.81758 0.1587 0.0
H609 H 0.09962 0.86442 0.16493 0.0
H610 H 0.05608 0.82464 0.17916 0.0
H611 H 0.12455 0.7395 0.12342 0.0
H612 H 0.16739 0.72852 0.13364 0.0
H613 H 0.18161 0.78992 0.1295 0.0
C614 C 0.25521 0.09976 0.46075 0.0
C615 C 0.26777 0.12231 0.44615 0.0
C616 C 0.29088 0.1033 0.47097 0.0
C617 C 0.34047 0.1294 0.46642 0.0
C618 C 0.35372 0.15297 0.45184 0.0
C619 C 0.31714 0.14926 0.44187 0.0
C620 C 0.27526 0.07768 0.48646 0.0
C621 C 0.40631 0.18093 0.44662 0.0
C622 C 0.42828 0.15986 0.49995 0.0
C623 C 0.43556 0.11967 0.49937 0.0
C624 C 0.39937 0.16504 0.48876 0.0
C625 C 0.37769 0.12933 0.47671 0.0
C626 C 0.38719 0.09015 0.47561 0.0
C627 C 0.41587 0.08568 0.48702 0.0
C628 C 0.38975 0.2071 0.49036 0.0
C629 C 0.36508 0.05159 0.46284 0.0
H630 H 0.21718 0.07782 0.46404 0.0
H631 H 0.32715 0.16708 0.43066 0.0
H632 H 0.28436 0.04809 0.48671 0.0
H633 H 0.29524 0.10359 0.49618 0.0
H634 H 0.23551 0.06153 0.48863 0.0
H635 H 0.4108 0.19954 0.43536 0.0
H636 H 0.42873 0.20861 0.45564 0.0
H637 H 0.42086 0.15562 0.44522 0.0
H638 H 0.44341 0.18607 0.50955 0.0
H639 H 0.42223 0.05504 0.48644 0.0
H640 H 0.35126 0.19315 0.49395 0.0
H641 H 0.39509 0.22524 0.47898 0.0
H642 H 0.41378 0.23467 0.49918 0.0
H643 H 0.32506 0.02959 0.46462 0.0
H644 H 0.38024 0.0266 0.46265 0.0
H645 H 0.37141 0.06878 0.45124 0.0
C646 C 0.27498 0.28836 0.78423 0.0
C647 C 0.25691 0.29888 0.77091 0.0
C648 C 0.31309 0.32546 0.7929 0.0
C649 C 0.33406 0.37435 0.78806 0.0
C650 C 0.31617 0.3854 0.77463 0.0
C651 C 0.27765 0.34747 0.7662 0.0
C652 C 0.33112 0.3122 0.80721 0.0
C653 C 0.33775 0.43718 0.76917 0.0
C654 C 0.40125 0.4643 0.82082 0.0
C655 C 0.44879 0.47275 0.81853 0.0
C656 C 0.36396 0.43491 0.81034 0.0
C657 C 0.37456 0.4135 0.79727 0.0
C658 C 0.42315 0.42469 0.7943 0.0
C659 C 0.45975 0.45414 0.80501 0.0
C660 C 0.31258 0.42371 0.81395 0.0
C661 C 0.43589 0.40282 0.78041 0.0
H662 H 0.25993 0.25084 0.78775 0.0
H663 H 0.2636 0.35585 0.75598 0.0
H664 H 0.37023 0.32355 0.80575 0.0
H665 H 0.32797 0.3319 0.81766 0.0
H666 H 0.31044 0.27244 0.80948 0.0
H667 H 0.3199 0.43961 0.75842 0.0
H668 H 0.33409 0.4601 0.7785 0.0
H669 H 0.37728 0.45283 0.76678 0.0
H670 H 0.39241 0.47803 0.83136 0.0
H671 H 0.4966 0.46104 0.80315 0.0
H672 H 0.2908 0.38564 0.81803 0.0
H673 H 0.29475 0.42668 0.8033 0.0
H674 H 0.31157 0.44847 0.82318 0.0
H675 H 0.42116 0.36331 0.78227 0.0
H676 H 0.47592 0.42029 0.77858 0.0
H677 H 0.41907 0.40641 0.76961 0.0
C678 C 0.91693 0.07579 0.64838 0.0
C679 C 0.91564 0.08579 0.6644 0.0
C680 C 0.88095 0.07241 0.63823 0.0
C681 C 0.84328 0.08002 0.64419 0.0
C682 C 0.84204 0.09069 0.66027 0.0
C683 C 0.87791 0.09295 0.6702 0.0
C684 C 0.88309 0.06046 0.62114 0.0
C685 C 0.80272 0.09958 0.66702 0.0
C686 C 0.77583 0.11632 0.61618 0.0
C687 C 0.73156 0.07246 0.61426 0.0
C688 C 0.81251 0.11927 0.62587 0.0
C689 C 0.80518 0.07711 0.63361 0.0
C690 C 0.76102 0.03251 0.63154 0.0
C691 C 0.72457 0.03081 0.622 0.0
C692 C 0.85894 0.16761 0.62794 0.0
C693 C 0.75218 0.98667 0.63949 0.0
H694 H 0.94623 0.07083 0.64374 0.0
H695 H 0.87586 0.09962 0.68259 0.0
H696 H 0.84876 0.02711 0.61771 0.0
H697 H 0.88652 0.09054 0.61385 0.0
H698 H 0.91419 0.05452 0.61843 0.0
H699 H 0.80772 0.10876 0.67972 0.0
H700 H 0.80252 0.12993 0.66085 0.0
H701 H 0.76643 0.06668 0.66525 0.0
H702 H 0.78208 0.14845 0.61 0.0
H703 H 0.69032 0.99692 0.62075 0.0
H704 H 0.89077 0.16412 0.62419 0.0
H705 H 0.86407 0.1787 0.64048 0.0
H706 H 0.85882 0.19702 0.62114 0.0
H707 H 0.78185 0.97885 0.63649 0.0
H708 H 0.71677 0.95446 0.63612 0.0
H709 H 0.75255 0.99186 0.65237 0.0
C710 C 0.90939 0.8678 0.98785 0.0
C711 C 0.88445 0.87728 -0.00014 0.0
C712 C 0.88492 0.84084 0.97447 0.0
C713 C 0.83425 0.82275 0.97313 0.0
C714 C 0.80888 0.83252 0.98515 0.0
C715 C 0.83441 0.85994 -0.00162 0.0
C716 C 0.91318 0.83136 0.96184 0.0
C717 C 0.75472 0.81343 0.98414 0.0
C718 C 0.77624 0.78463 0.93302 0.0
C719 C 0.75675 0.73403 0.9333 0.0
C720 C 0.80197 0.81416 0.94588 0.0
C721 C 0.8076 0.79228 0.95935 0.0
C722 C 0.78804 0.74117 0.95965 0.0
C723 C 0.76296 0.71266 0.94658 0.0
C724 C 0.82272 0.86862 0.94513 0.0
C725 C 0.79274 0.71646 0.97387 0.0
H726 H 0.94828 0.88193 0.98886 0.0
H727 H 0.81509 0.86711 0.00769 0.0
H728 H 0.8988 0.79155 0.96044 0.0
H729 H 0.90854 0.8447 0.95048 0.0
H730 H 0.95274 0.84934 0.96447 0.0
H731 H 0.74068 0.82523 0.99432 0.0
H732 H 0.74626 0.82623 0.97329 0.0
H733 H 0.73489 0.77297 0.98353 0.0
H734 H 0.77117 0.80099 0.92274 0.0
H735 H 0.74684 0.67336 0.94694 0.0
H736 H 0.86264 0.88778 0.94714 0.0
H737 H 0.80646 0.88082 0.95452 0.0
H738 H 0.81582 0.87992 0.9337 0.0
H739 H 0.83164 0.73264 0.97712 0.0
H740 H 0.77713 0.67658 0.97195 0.0
H741 H 0.77365 0.72232 0.98395 0.0
C742 C 0.06575 0.81153 0.3439 0.0
C743 C 0.03685 0.80217 0.35736 0.0
C744 C 0.06484 0.77336 0.33503 0.0
C745 C 0.03451 0.72465 0.33981 0.0
C746 C 0.00616 0.71497 0.35361 0.0
C747 C 0.00746 0.75394 0.3622 0.0
C748 C 0.09518 0.78512 0.32026 0.0
C749 C 0.97373 0.66349 0.35909 0.0
C750 C -0.00195 0.63367 0.30627 0.0
C751 C 0.03332 0.61937 0.30714 0.0
C752 C 0.99625 0.66585 0.3174 0.0
C753 C 0.03053 0.6841 0.32971 0.0
C754 C 0.0643 0.66751 0.3312 0.0
C755 C 0.06547 0.63544 0.31982 0.0
C756 C 0.9599 0.68294 0.31532 0.0
C757 C 0.10104 0.68584 0.34428 0.0
H758 H 0.08801 0.84875 0.34003 0.0
H759 H 0.98543 0.74673 0.37269 0.0
H760 H 0.11924 0.76902 0.3206 0.0
H761 H 0.07097 0.76884 0.30998 0.0
H762 H 0.11817 0.82503 0.31851 0.0
H763 H 0.95672 0.6624 0.37064 0.0
H764 H 0.94433 0.64288 0.35045 0.0
H765 H 0.99496 0.64441 0.35993 0.0
H766 H 0.97368 0.62206 0.29634 0.0
H767 H 0.09257 0.62418 0.32055 0.0
H768 H 0.97942 0.7218 0.31192 0.0
H769 H 0.94048 0.68046 0.32647 0.0
H770 H 0.93251 0.6614 0.30618 0.0
H771 H 0.12858 0.72464 0.34234 0.0
H772 H 0.12026 0.66465 0.345 0.0
H773 H 0.08301 0.68401 0.35567 0.0
C774 C 0.2945 0.00371 0.6912 0.0
C775 C 0.2615 0.01476 0.68428 0.0
C776 C 0.33242 0.00405 0.68237 0.0
C777 C 0.33813 0.01749 0.66647 0.0
C778 C 0.30425 0.02797 0.65944 0.0
C779 C 0.26592 0.02585 0.66841 0.0
C780 C 0.36688 0.9911 0.69009 0.0
C781 C 0.30959 0.04336 0.6426 0.0
C782 C 0.46059 0.07659 0.64602 0.0
C783 C 0.45389 0.04034 0.63495 0.0
C784 C 0.42412 0.0688 0.65697 0.0
C785 C 0.3806 0.02306 0.65722 0.0
C786 C 0.37557 0.98482 0.64714 0.0
C787 C 0.4119 0.99409 0.63596 0.0
C788 C 0.43065 0.11075 0.66743 0.0
C789 C 0.33034 0.93505 0.6474 0.0
H790 H 0.29081 0.99526 0.70353 0.0
H791 H 0.24052 0.03495 0.66321 0.0
H792 H 0.3709 0.96376 0.68285 0.0
H793 H 0.40353 0.02398 0.69111 0.0
H794 H 0.35423 0.97628 0.70197 0.0
H795 H 0.28008 0.05023 0.63894 0.0
H796 H 0.34516 0.07716 0.64091 0.0
H797 H 0.30923 0.01477 0.63476 0.0
H798 H 0.49347 0.11196 0.64568 0.0
H799 H 0.40582 0.96574 0.62745 0.0
H800 H 0.42244 0.09921 0.67976 0.0
H801 H 0.40465 0.12263 0.66391 0.0
H802 H 0.4682 0.14253 0.66676 0.0
H803 H 0.3192 0.92304 0.6596 0.0
H804 H 0.33586 0.90721 0.641 0.0
H805 H 0.29985 0.93675 0.64181 0.0
C806 C 0.30679 0.22198 0.00804 0.0
C807 C 0.25837 0.21197 0.00751 0.0
C808 C 0.34165 0.25351 -0.0027 0.0
C809 C 0.3275 0.27495 0.98567 0.0
C810 C 0.27871 0.26485 0.98502 0.0
C811 C 0.24488 0.23386 -0.00398 0.0
C812 C 0.39354 0.26391 -0.00161 0.0
C813 C 0.26223 0.28689 0.97271 0.0
C814 C 0.41903 0.39091 0.96564 0.0
C815 C 0.42479 0.37276 0.95115 0.0
C816 C 0.38883 0.35928 0.97724 0.0
C817 C 0.36358 0.30839 0.97418 0.0
C818 C 0.37031 0.28978 0.95973 0.0
C819 C 0.40105 0.32227 0.94838 0.0
C820 C 0.38289 0.38038 0.99258 0.0
C821 C 0.34361 0.23572 0.95603 0.0
H822 H 0.31739 0.20477 0.01675 0.0
H823 H 0.20783 0.22718 0.99571 0.0
H824 H 0.4041 0.25233 0.98738 0.0
H825 H 0.41868 0.30371 -0.0001 0.0
H826 H 0.39876 0.24488 0.00829 0.0
H827 H 0.22263 0.27422 0.97356 0.0
H828 H 0.28275 0.32724 0.97388 0.0
H829 H 0.27007 0.27731 0.96087 0.0
H830 H 0.43798 0.42997 0.96785 0.0
H831 H 0.40524 0.30825 0.93713 0.0
H832 H 0.39 0.36285 0.00249 0.0
H833 H 0.3448 0.3728 0.99381 0.0
H834 H 0.40778 0.42044 0.99352 0.0
H835 H 0.34971 0.21569 0.96539 0.0
H836 H 0.3553 0.22702 0.94468 0.0
H837 H 0.30383 0.22202 0.95557 0.0
C838 C 0.05626 0.2029 0.32327 0.0
C839 C 0.02105 0.18282 0.33514 0.0
C840 C 0.05572 0.23585 0.31272 0.0
C841 C 0.0189 0.24869 0.31404 0.0
C842 C 0.98251 0.22755 0.32574 0.0
C843 C 0.98412 0.19494 0.3362 0.0
C844 C 0.09535 0.25798 0.30045 0.0
C845 C 0.94245 0.24007 0.3274 0.0
C846 C 0.04796 0.371 0.29808 0.0
C847 C 0.0247 0.35754 0.28352 0.0
C848 C 0.04597 0.33584 0.30818 0.0
C849 C 0.01985 0.28599 0.30363 0.0
C850 C 0.99553 0.27202 0.28908 0.0
C851 C -0.0017 0.30803 0.27917 0.0
C852 C 0.07229 0.3521 0.32363 0.0
C853 C 0.96725 0.21916 0.28388 0.0
H854 H 0.08511 0.19395 0.32254 0.0
H855 H 0.95649 0.17893 0.34525 0.0
H856 H 0.07903 0.25189 0.28866 0.0
H857 H 0.11738 0.298 0.30246 0.0
H858 H 0.12006 0.24254 0.30057 0.0
H859 H 0.91558 0.21861 0.33662 0.0
H860 H 0.95843 0.27942 0.33035 0.0
H861 H 0.92294 0.23331 0.31615 0.0
H862 H 0.06775 0.40916 0.30159 0.0
H863 H 0.9807 0.2975 0.26786 0.0
H864 H 0.10022 0.3408 0.3242 0.0
H865 H 0.04625 0.33426 0.33339 0.0
H866 H 0.09052 0.39226 0.32547 0.0
H867 H 0.99217 0.20408 0.2828 0.0
H868 H 0.9489 0.21425 0.27248 0.0
H869 H 0.93927 0.19745 0.29278 0.0
loop_
_geom_bond_atom_site_label_1
_geom_bond_atom_site_label_2
_geom_bond_distance
_geom_bond_site_symmetry_2
_ccdc_geom_bond_type
Li0 N17 1.990 . S
Li0 O60 1.956 . S
Li0 O61 1.970 . S
Li0 O62 1.961 . S
Li1 N25 1.990 . S
Li1 O60 1.970 . S
Li1 O61 1.956 . S
Li1 O63 1.961 . S
Li2 N47 1.990 1_545 S
Li2 O60 1.961 . S
Li2 O62 1.956 . S
Li2 O63 1.970 . S
Li3 N53 1.990 1_445 S
Li3 O61 1.961 . S
Li3 O62 1.970 . S
Li3 O63 1.956 . S
C4 C6 1.348 . S
C4 C7 1.356 . S
C4 O60 1.325 . S
N5 C8 1.314 . S
N5 C9 1.279 . S
C6 C4 1.348 . S
C6 C8 1.353 . S
C6 H64 0.929 . S
C7 C4 1.356 . S
C7 C9 1.358 . S
C7 H65 0.930 . S
C8 N5 1.314 . S
C8 C6 1.353 . S
C8 H66 0.930 . S
C9 N5 1.279 . S
C9 C7 1.358 . S
C9 H67 0.930 . S
C10 C13 1.348 . S
C10 C14 1.356 1_455 S
C10 O61 1.325 . S
C11 N12 1.279 1_655 S
C11 C14 1.358 . S
C11 H68 0.930 . S
N12 C11 1.279 1_455 S
N12 C15 1.314 . S
C13 C10 1.348 . S
C13 C15 1.353 . S
C13 H69 0.929 . S
C14 C10 1.356 1_655 S
C14 C11 1.358 . S
C14 H70 0.930 . S
C15 N12 1.314 . S
C15 C13 1.353 . S
C15 H71 0.930 . S
C16 N17 1.314 . S
C16 C21 1.353 . S
C16 H22 0.930 . S
N17 Li0 1.990 . S
N17 C16 1.314 . S
N17 C19 1.279 . S
C18 C19 1.358 . S
C18 C20 1.356 . S
C18 H72 0.930 . S
C19 N17 1.279 . S
C19 C18 1.358 . S
C19 H23 0.930 . S
C20 C18 1.356 . S
C20 C21 1.348 . S
C21 C16 1.353 . S
C21 C20 1.348 . S
C21 H73 0.929 . S
H22 C16 0.930 . S
H23 C19 0.930 . S
C24 N25 1.314 . S
C24 C26 1.353 . S
C24 H30 0.930 . S
N25 Li1 1.990 . S
N25 C24 1.314 . S
N25 C28 1.279 . S
C26 C24 1.353 . S
C26 C29 1.348 . S
C26 H74 0.929 1_455 S
C27 C28 1.358 . S
C27 C29 1.356 . S
C27 H75 0.930 . S
C28 N25 1.279 . S
C28 C27 1.358 . S
C28 H31 0.930 . S
C29 C26 1.348 . S
C29 C27 1.356 . S
H30 C24 0.930 . S
H31 C28 0.930 . S
C32 C34 1.348 . S
C32 C35 1.356 . S
C32 O62 1.325 1_565 S
N33 C36 1.314 . S
N33 C37 1.279 . S
C34 C32 1.348 . S
C34 C36 1.353 . S
C34 H76 0.929 . S
C35 C32 1.356 . S
C35 C37 1.358 . S
C35 H77 0.930 1_565 S
C36 N33 1.314 . S
C36 C34 1.353 . S
C36 H78 0.930 . S
C37 N33 1.279 . S
C37 C35 1.358 . S
C37 H79 0.930 . S
C38 C39 1.348 . S
C38 C40 1.356 . S
C38 O63 1.325 1_665 S
C39 C38 1.348 . S
C39 C41 1.353 . S
C39 H80 0.929 . S
C40 C38 1.356 . S
C40 C42 1.358 . S
C40 H81 0.930 1_565 S
C41 C39 1.353 . S
C41 N43 1.314 . S
C41 H82 0.930 . S
C42 C40 1.358 . S
C42 N43 1.279 . S
C42 H83 0.930 . S
N43 C41 1.314 . S
N43 C42 1.279 . S
C44 C46 1.353 . S
C44 N47 1.314 . S
C44 H50 0.930 1_565 S
C45 N47 1.279 . S
C45 C48 1.358 . S
C45 H51 0.930 . S
C46 C44 1.353 . S
C46 C49 1.348 . S
C46 H84 0.929 . S
N47 Li2 1.990 1_565 S
N47 C44 1.314 . S
N47 C45 1.279 . S
C48 C45 1.358 . S
C48 C49 1.356 . S
C48 H85 0.930 . S
C49 C46 1.348 . S
C49 C48 1.356 . S
H50 C44 0.930 1_545 S
H51 C45 0.930 . S
C52 N53 1.314 . S
C52 C54 1.353 . S
C52 H58 0.930 1_565 S
N53 Li3 1.990 1_665 S
N53 C52 1.314 . S
N53 C56 1.279 . S
C54 C52 1.353 . S
C54 C57 1.348 . S
C54 H86 0.929 . S
C55 C56 1.358 . S
C55 C57 1.356 . S
C55 H87 0.930 . S
C56 N53 1.279 . S
C56 C55 1.358 . S
C56 H59 0.930 . S
C57 C54 1.348 . S
C57 C55 1.356 . S
H58 C52 0.930 1_545 S
H59 C56 0.930 . S
O60 Li0 1.956 . S
O60 Li1 1.970 . S
O60 Li2 1.961 . S
O60 C4 1.325 . S
O61 Li0 1.970 . S
O61 Li1 1.956 . S
O61 Li3 1.961 . S
O61 C10 1.325 . S
O62 Li0 1.961 . S
O62 Li2 1.956 . S
O62 Li3 1.970 . S
O62 C32 1.325 1_545 S
O63 Li1 1.961 . S
O63 Li2 1.970 . S
O63 Li3 1.956 . S
O63 C38 1.325 1_445 S
H64 C6 0.929 . S
H65 C7 0.930 . S
H66 C8 0.930 . S
H67 C9 0.930 . S
H68 C11 0.930 . S
H69 C13 0.929 . S
H70 C14 0.930 . S
H71 C15 0.930 . S
H72 C18 0.930 . S
H73 C21 0.929 . S
H74 C26 0.929 1_655 S
H75 C27 0.930 . S
H76 C34 0.929 . S
H77 C35 0.930 1_545 S
H78 C36 0.930 . S
H79 C37 0.930 . S
H80 C39 0.929 . S
H81 C40 0.930 1_545 S
H82 C41 0.930 . S
H83 C42 0.930 . S
H84 C46 0.929 . S
H85 C48 0.930 . S
H86 C54 0.929 . S
H87 C55 0.930 . S
Li88 N105 1.990 . S
Li88 O148 1.956 . S
Li88 O149 1.970 1_565 S
Li88 O150 1.961 1_465 S
Li89 N113 1.990 . S
Li89 O148 1.970 1_545 S
Li89 O149 1.956 . S
Li89 O151 1.961 . S
Li90 N135 1.982 1_445 S
Li90 O148 1.970 1_545 S
Li90 O150 1.956 1_455 S
Li90 O151 1.976 . S
Li91 N141 1.990 . S
Li91 O149 1.961 . S
Li91 O150 1.970 1_455 S
Li91 O151 1.956 . S
C92 C94 1.348 . S
C92 C95 1.356 1_455 S
C92 O148 1.325 . S
N93 C96 1.314 . S
N93 C97 1.279 1_455 S
C94 C92 1.348 . S
C94 C96 1.353 . S
C94 H152 0.929 . S
C95 C92 1.356 1_655 S
C95 C97 1.358 . S
C95 H153 0.930 . S
C96 N93 1.314 . S
C96 C94 1.353 . S
C96 H154 0.930 . S
C97 N93 1.279 1_655 S
C97 C95 1.358 . S
C97 H155 0.930 . S
C98 C101 1.348 . S
C98 C102 1.356 . S
C98 O149 1.325 . S
C99 N100 1.279 . S
C99 C102 1.358 . S
C99 H156 0.930 . S
N100 C99 1.279 . S
N100 C103 1.314 . S
C101 C98 1.348 . S
C101 C103 1.353 . S
C101 H157 0.929 1_545 S
C102 C98 1.356 . S
C102 C99 1.358 . S
C102 H158 0.930 . S
C103 N100 1.314 . S
C103 C101 1.353 . S
C103 H159 0.930 1_545 S
C104 N105 1.314 . S
C104 C109 1.353 1_455 S
C104 H110 0.930 . S
N105 Li88 1.990 . S
N105 C104 1.314 . S
N105 C107 1.279 . S
C106 C107 1.358 . S
C106 C108 1.356 1_455 S
C106 H160 0.930 . S
C107 N105 1.279 . S
C107 C106 1.358 . S
C107 H111 0.930 . S
C108 C106 1.356 1_655 S
C108 C109 1.348 . S
C109 C104 1.353 1_655 S
C109 C108 1.348 . S
C109 H161 0.929 . S
H110 C104 0.930 . S
H111 C107 0.930 . S
C112 N113 1.314 . S
C112 C114 1.353 . S
C112 H118 0.930 . S
N113 Li89 1.990 . S
N113 C112 1.314 . S
N113 C116 1.279 . S
C114 C112 1.353 . S
C114 C117 1.348 . S
C114 H162 0.929 . S
C115 C116 1.358 . S
C115 C117 1.356 . S
C115 H163 0.930 . S
C116 N113 1.279 . S
C116 C115 1.358 . S
C116 H119 0.930 . S
C117 C114 1.348 . S
C117 C115 1.356 . S
H118 C112 0.930 . S
H119 C116 0.930 . S
C120 C122 1.348 1_565 S
C120 C123 1.356 . S
C120 O150 1.325 1_565 S
N121 C124 1.314 1_565 S
N121 C125 1.279 . S
C122 C120 1.348 1_545 S
C122 C124 1.353 . S
C122 H164 0.929 . S
C123 C120 1.356 . S
C123 C125 1.358 . S
C123 H165 0.930 . S
C124 N121 1.314 1_545 S
C124 C122 1.353 . S
C124 H166 0.930 . S
C125 N121 1.279 . S
C125 C123 1.358 . S
C125 H167 0.930 . S
C126 C127 1.348 . S
C126 C128 1.356 . S
C126 O151 1.325 . S
C127 C126 1.348 . S
C127 C129 1.353 . S
C127 H168 0.929 . S
C128 C126 1.356 . S
C128 C130 1.358 . S
C128 H169 0.930 . S
C129 C127 1.353 . S
C129 N131 1.314 . S
C129 H170 0.930 . S
C130 C128 1.358 . S
C130 N131 1.279 . S
C130 H171 0.930 . S
N131 C129 1.314 . S
N131 C130 1.279 . S
C132 C134 1.353 . S
C132 N135 1.314 . S
C132 H138 0.930 . S
C133 N135 1.279 . S
C133 C136 1.358 . S
C133 H139 0.930 . S
C134 C132 1.353 . S
C134 C137 1.348 . S
C134 H172 0.929 . S
N135 Li90 1.982 1_665 S
N135 C132 1.314 . S
N135 C133 1.279 . S
C136 C133 1.358 . S
C136 C137 1.356 . S
C136 H173 0.930 . S
C137 C134 1.348 . S
C137 C136 1.356 . S
H138 C132 0.930 . S
H139 C133 0.930 . S
C140 N141 1.314 . S
C140 C142 1.353 . S
C140 H146 0.930 . S
N141 Li91 1.990 . S
N141 C140 1.314 . S
N141 C144 1.279 . S
C142 C140 1.353 . S
C142 C145 1.348 . S
C142 H174 0.929 . S
C143 C144 1.358 . S
C143 C145 1.356 . S
C143 H175 0.930 . S
C144 N141 1.279 . S
C144 C143 1.358 . S
C144 H147 0.930 . S
C145 C142 1.348 . S
C145 C143 1.356 . S
H146 C140 0.930 . S
H147 C144 0.930 . S
O148 Li88 1.956 . S
O148 Li89 1.970 1_565 S
O148 Li90 1.970 1_565 S
O148 C92 1.325 . S
O149 Li88 1.970 1_545 S
O149 Li89 1.956 . S
O149 Li91 1.961 . S
O149 C98 1.325 . S
O150 Li88 1.961 1_645 S
O150 Li90 1.956 1_655 S
O150 Li91 1.970 1_655 S
O150 C120 1.325 1_545 S
O151 Li89 1.961 . S
O151 Li90 1.976 . S
O151 Li91 1.956 . S
O151 C126 1.325 . S
H152 C94 0.929 . S
H153 C95 0.930 . S
H154 C96 0.930 . S
H155 C97 0.930 . S
H156 C99 0.930 . S
H157 C101 0.929 1_565 S
H158 C102 0.930 . S
H159 C103 0.930 1_565 S
H160 C106 0.930 . S
H161 C109 0.929 . S
H162 C114 0.929 . S
H163 C115 0.930 . S
H164 C122 0.929 . S
H165 C123 0.930 . S
H166 C124 0.930 . S
H167 C125 0.930 . S
H168 C127 0.929 . S
H169 C128 0.930 . S
H170 C129 0.930 . S
H171 C130 0.930 . S
H172 C134 0.929 . S
H173 C136 0.930 . S
H174 C142 0.929 . S
H175 C143 0.930 . S
Li176 N193 1.990 . S
Li176 O236 1.956 . S
Li176 O237 1.970 . S
Li176 O238 1.961 . S
Li177 N201 1.990 . S
Li177 O236 1.970 . S
Li177 O237 1.956 . S
Li177 O239 1.961 . S
Li178 N223 1.990 1_545 S
Li178 O236 1.961 . S
Li178 O238 1.956 . S
Li178 O239 1.970 . S
Li179 N229 1.990 . S
Li179 O237 1.961 . S
Li179 O238 1.970 . S
Li179 O239 1.956 . S
C180 C182 1.348 . S
C180 C183 1.356 . S
C180 O236 1.325 . S
N181 C184 1.314 . S
N181 C185 1.279 . S
C182 C180 1.348 . S
C182 C184 1.353 . S
C182 H240 0.929 . S
C183 C180 1.356 . S
C183 C185 1.358 . S
C183 H241 0.930 1_545 S
C184 N181 1.314 . S
C184 C182 1.353 . S
C184 H242 0.930 . S
C185 N181 1.279 . S
C185 C183 1.358 . S
C185 H243 0.930 1_545 S
C186 C189 1.348 . S
C186 C190 1.356 . S
C186 O237 1.325 . S
C187 N188 1.279 . S
C187 C190 1.358 . S
C187 H244 0.930 . S
N188 C187 1.279 . S
N188 C191 1.314 . S
C189 C186 1.348 . S
C189 C191 1.353 . S
C189 H245 0.929 . S
C190 C186 1.356 . S
C190 C187 1.358 . S
C190 H246 0.930 . S
C191 N188 1.314 . S
C191 C189 1.353 . S
C191 H247 0.930 . S
C192 N193 1.314 . S
C192 C197 1.353 . S
C192 H198 0.930 . S
N193 Li176 1.990 . S
N193 C192 1.314 . S
N193 C195 1.279 . S
C194 C195 1.358 . S
C194 C196 1.356 . S
C194 H248 0.930 . S
C195 N193 1.279 . S
C195 C194 1.358 . S
C195 H199 0.930 . S
C196 C194 1.356 . S
C196 C197 1.348 . S
C197 C192 1.353 . S
C197 C196 1.348 . S
C197 H249 0.929 . S
H198 C192 0.930 . S
H199 C195 0.930 . S
C200 N201 1.314 . S
C200 C202 1.353 . S
C200 H206 0.930 . S
N201 Li177 1.990 . S
N201 C200 1.314 . S
N201 C204 1.279 . S
C202 C200 1.353 . S
C202 C205 1.348 . S
C202 H250 0.929 . S
C203 C204 1.358 . S
C203 C205 1.356 . S
C203 H251 0.930 . S
C204 N201 1.279 . S
C204 C203 1.358 . S
C204 H207 0.930 . S
C205 C202 1.348 . S
C205 C203 1.356 . S
H206 C200 0.930 . S
H207 C204 0.930 . S
C208 C210 1.348 . S
C208 C211 1.356 . S
C208 O238 1.325 1_565 S
N209 C212 1.314 . S
N209 C213 1.279 1_655 S
C210 C208 1.348 . S
C210 C212 1.353 1_455 S
C210 H252 0.929 1_465 S
C211 C208 1.356 . S
C211 C213 1.358 . S
C211 H253 0.930 . S
C212 N209 1.314 . S
C212 C210 1.353 1_655 S
C212 H254 0.930 . S
C213 N209 1.279 1_455 S
C213 C211 1.358 . S
C213 H255 0.930 . S
C214 C215 1.348 . S
C214 C216 1.356 . S
C214 O239 1.325 . S
C215 C214 1.348 . S
C215 C217 1.353 1_455 S
C215 H256 0.929 1_455 S
C216 C214 1.356 . S
C216 C218 1.358 . S
C216 H257 0.930 . S
C217 C215 1.353 1_655 S
C217 N219 1.314 . S
C217 H258 0.930 . S
C218 C216 1.358 . S
C218 N219 1.279 1_455 S
C218 H259 0.930 . S
N219 C217 1.314 . S
N219 C218 1.279 1_655 S
C220 C222 1.353 . S
C220 N223 1.314 . S
C220 H226 0.928 1_565 S
C221 N223 1.279 1_655 S
C221 C224 1.358 . S
C221 H227 0.930 . S
C222 C220 1.353 . S
C222 C225 1.348 1_455 S
C222 H260 0.929 . S
N223 Li178 1.990 1_565 S
N223 C220 1.314 . S
N223 C221 1.279 1_455 S
C224 C221 1.358 . S
C224 C225 1.356 . S
C224 H261 0.930 . S
C225 C222 1.348 1_655 S
C225 C224 1.356 . S
H226 C220 0.928 1_545 S
H227 C221 0.930 . S
C228 N229 1.314 . S
C228 C230 1.353 . S
C228 H234 0.930 . S
N229 Li179 1.990 . S
N229 C228 1.314 . S
N229 C232 1.279 1_455 S
C230 C228 1.353 . S
C230 C233 1.348 1_455 S
C230 H262 0.929 . S
C231 C232 1.358 . S
C231 C233 1.356 . S
C231 H263 0.930 . S
C232 N229 1.279 1_655 S
C232 C231 1.358 . S
C232 H235 0.930 . S
C233 C230 1.348 1_655 S
C233 C231 1.356 . S
H234 C228 0.930 . S
H235 C232 0.930 . S
O236 Li176 1.956 . S
O236 Li177 1.970 . S
O236 Li178 1.961 . S
O236 C180 1.325 . S
O237 Li176 1.970 . S
O237 Li177 1.956 . S
O237 Li179 1.961 . S
O237 C186 1.325 . S
O238 Li176 1.961 . S
O238 Li178 1.956 . S
O238 Li179 1.970 . S
O238 C208 1.325 1_545 S
O239 Li177 1.961 . S
O239 Li178 1.970 . S
O239 Li179 1.956 . S
O239 C214 1.325 . S
H240 C182 0.929 . S
H241 C183 0.930 1_565 S
H242 C184 0.930 . S
H243 C185 0.930 1_565 S
H244 C187 0.930 . S
H245 C189 0.929 . S
H246 C190 0.930 . S
H247 C191 0.930 . S
H248 C194 0.930 . S
H249 C197 0.929 . S
H250 C202 0.929 . S
H251 C203 0.930 . S
H252 C210 0.929 1_645 S
H253 C211 0.930 . S
H254 C212 0.930 . S
H255 C213 0.930 . S
H256 C215 0.929 1_655 S
H257 C216 0.930 . S
H258 C217 0.930 . S
H259 C218 0.930 . S
H260 C222 0.929 . S
H261 C224 0.930 . S
H262 C230 0.929 . S
H263 C231 0.930 . S
H264 O290 0.856 . S
H265 O293 0.854 . S
H266 C301 0.930 1_655 S
H267 C302 0.930 1_655 S
H268 C304 0.930 . S
H269 C305 0.930 . S
H270 C307 0.931 . S
H271 C308 0.930 . S
H272 C310 0.930 . S
H273 C311 0.929 . S
H274 C313 0.917 1_655 S
H275 C314 0.931 . S
H276 C316 0.930 . S
H277 C317 0.929 . S
H278 C319 0.931 1_655 S
H279 C320 0.930 1_655 S
H280 C322 0.930 . S
H281 C323 0.932 . S
H282 C325 0.930 1_655 S
H283 C326 0.943 . S
H284 C328 0.931 . S
H285 C329 0.930 . S
H286 C331 0.929 1_655 S
H287 C332 0.931 1_655 S
H288 C334 0.930 . S
H289 C335 0.929 . S
O290 H264 0.856 . S
O290 C336 1.300 . S
O291 C336 1.209 . S
O292 C337 1.199 . S
O293 H265 0.854 . S
O293 C337 1.297 . S
C294 C295 1.404 . S
C294 C299 1.397 . S
C294 C300 1.492 . S
C295 C294 1.404 . S
C295 C296 1.396 . S
C295 C306 1.492 . S
C296 C295 1.396 . S
C296 C297 1.397 . S
C296 C312 1.509 . S
C297 C296 1.397 . S
C297 C298 1.412 . S
C297 C318 1.485 . S
C298 C297 1.412 . S
C298 C299 1.388 . S
C298 C324 1.490 . S
C299 C294 1.397 . S
C299 C298 1.388 . S
C299 C330 1.519 . S
C300 C294 1.492 . S
C300 C301 1.363 . S
C300 C305 1.390 . S
C301 H266 0.930 1_455 S
C301 C300 1.363 . S
C301 C302 1.372 . S
C302 H267 0.930 1_455 S
C302 C301 1.372 . S
C302 C303 1.383 . S
C303 C302 1.383 . S
C303 C304 1.395 . S
C304 H268 0.930 . S
C304 C303 1.395 . S
C304 C305 1.362 . S
C305 H269 0.930 . S
C305 C300 1.390 . S
C305 C304 1.362 . S
C306 C295 1.492 . S
C306 C307 1.377 . S
C306 C311 1.397 . S
C307 H270 0.931 . S
C307 C306 1.377 . S
C307 C308 1.376 . S
C308 H271 0.930 . S
C308 C307 1.376 . S
C308 C309 1.376 . S
C309 C308 1.376 . S
C309 C310 1.378 . S
C309 C336 1.486 . S
C310 H272 0.930 . S
C310 C309 1.378 . S
C310 C311 1.376 . S
C311 H273 0.929 . S
C311 C306 1.397 . S
C311 C310 1.376 . S
C312 C296 1.509 . S
C312 C313 1.391 . S
C312 C317 1.386 . S
C313 H274 0.917 1_455 S
C313 C312 1.391 . S
C313 C314 1.375 . S
C314 H275 0.931 . S
C314 C313 1.375 . S
C314 C315 1.375 . S
C315 C314 1.375 . S
C315 C316 1.361 . S
C316 H276 0.930 . S
C316 C315 1.361 . S
C316 C317 1.399 . S
C317 H277 0.929 . S
C317 C312 1.386 . S
C317 C316 1.399 . S
C318 C297 1.485 . S
C318 C319 1.394 . S
C318 C323 1.360 . S
C319 H278 0.931 1_455 S
C319 C318 1.394 . S
C319 C320 1.372 . S
C320 H279 0.930 1_455 S
C320 C319 1.372 . S
C320 C321 1.397 . S
C321 C320 1.397 . S
C321 C322 1.390 . S
C321 C337 1.476 . S
C322 H280 0.930 . S
C322 C321 1.390 . S
C322 C323 1.366 . S
C323 H281 0.932 . S
C323 C318 1.360 . S
C323 C322 1.366 . S
C324 C298 1.490 . S
C324 C325 1.380 . S
C324 C329 1.386 . S
C325 H282 0.930 1_455 S
C325 C324 1.380 . S
C325 C326 1.376 1_455 S
C326 H283 0.943 . S
C326 C325 1.376 1_655 S
C326 C327 1.363 1_655 S
C327 C326 1.363 1_455 S
C327 C328 1.380 . S
C328 H284 0.931 . S
C328 C327 1.380 . S
C328 C329 1.387 . S
C329 H285 0.930 . S
C329 C324 1.386 . S
C329 C328 1.387 . S
C330 C299 1.519 . S
C330 C331 1.377 . S
C330 C335 1.361 . S
C331 H286 0.929 1_455 S
C331 C330 1.377 . S
C331 C332 1.386 . S
C332 H287 0.931 1_455 S
C332 C331 1.386 . S
C332 C333 1.363 . S
C333 C332 1.363 . S
C333 C334 1.385 . S
C334 H288 0.930 . S
C334 C333 1.385 . S
C334 C335 1.396 . S
C335 H289 0.929 . S
C335 C330 1.361 . S
C335 C334 1.396 . S
C336 O290 1.300 . S
C336 O291 1.209 . S
C336 C309 1.486 . S
C337 O292 1.199 . S
C337 O293 1.297 . S
C337 C321 1.476 . S
H338 O364 0.856 . S
H339 O367 0.854 . S
H340 C375 0.930 1_565 S
H341 C376 0.930 1_565 S
H342 C378 0.930 . S
H343 C379 0.930 . S
H344 C381 0.931 . S
H345 C382 0.942 . S
H346 C384 0.930 . S
H347 C385 0.929 . S
H348 C387 0.930 . S
H349 C388 0.931 . S
H350 C390 0.930 . S
H351 C391 0.929 . S
H352 C393 0.931 . S
H353 C394 0.930 . S
H354 C396 0.930 . S
H355 C397 0.932 . S
H356 C399 0.930 1_565 S
H357 C400 0.929 1_565 S
H358 C402 0.931 . S
H359 C403 0.930 . S
H360 C405 0.929 . S
H361 C406 0.931 . S
H362 C408 0.930 . S
H363 C409 0.929 . S
O364 H338 0.856 . S
O364 C410 1.300 . S
O365 C410 1.209 . S
O366 C411 1.199 . S
O367 H339 0.854 . S
O367 C411 1.297 . S
C368 C369 1.404 . S
C368 C373 1.397 . S
C368 C374 1.492 . S
C369 C368 1.404 . S
C369 C370 1.396 . S
C369 C380 1.492 . S
C370 C369 1.396 . S
C370 C371 1.397 . S
C370 C386 1.509 . S
C371 C370 1.397 . S
C371 C372 1.412 . S
C371 C392 1.485 . S
C372 C371 1.412 . S
C372 C373 1.388 . S
C372 C398 1.490 . S
C373 C368 1.397 . S
C373 C372 1.388 . S
C373 C404 1.519 . S
C374 C368 1.492 . S
C374 C375 1.363 . S
C374 C379 1.390 . S
C375 H340 0.930 1_545 S
C375 C374 1.363 . S
C375 C376 1.372 . S
C376 H341 0.930 1_545 S
C376 C375 1.372 . S
C376 C377 1.383 . S
C377 C376 1.383 . S
C377 C378 1.395 . S
C378 H342 0.930 . S
C378 C377 1.395 . S
C378 C379 1.362 . S
C379 H343 0.930 . S
C379 C374 1.390 . S
C379 C378 1.362 . S
C380 C369 1.492 . S
C380 C381 1.377 . S
C380 C385 1.397 . S
C381 H344 0.931 . S
C381 C380 1.377 . S
C381 C382 1.376 . S
C382 H345 0.942 . S
C382 C381 1.376 . S
C382 C383 1.376 . S
C383 C382 1.376 . S
C383 C384 1.378 . S
C383 C410 1.486 . S
C384 H346 0.930 . S
C384 C383 1.378 . S
C384 C385 1.376 . S
C385 H347 0.929 . S
C385 C380 1.397 . S
C385 C384 1.376 . S
C386 C370 1.509 . S
C386 C387 1.391 . S
C386 C391 1.386 . S
C387 H348 0.930 . S
C387 C386 1.391 . S
C387 C388 1.375 . S
C388 H349 0.931 . S
C388 C387 1.375 . S
C388 C389 1.375 . S
C389 C388 1.375 . S
C389 C390 1.361 . S
C390 H350 0.930 . S
C390 C389 1.361 . S
C390 C391 1.399 . S
C391 H351 0.929 . S
C391 C386 1.386 . S
C391 C390 1.399 . S
C392 C371 1.485 . S
C392 C393 1.394 . S
C392 C397 1.360 . S
C393 H352 0.931 . S
C393 C392 1.394 . S
C393 C394 1.372 . S
C394 H353 0.930 . S
C394 C393 1.372 . S
C394 C395 1.397 . S
C395 C394 1.397 . S
C395 C396 1.390 . S
C395 C411 1.476 . S
C396 H354 0.930 . S
C396 C395 1.390 . S
C396 C397 1.366 . S
C397 H355 0.932 . S
C397 C392 1.360 . S
C397 C396 1.366 . S
C398 C372 1.490 . S
C398 C399 1.380 . S
C398 C403 1.386 . S
C399 H356 0.930 1_545 S
C399 C398 1.380 . S
C399 C400 1.381 . S
C400 H357 0.929 1_545 S
C400 C399 1.381 . S
C400 C401 1.371 . S
C401 C400 1.371 . S
C401 C402 1.380 . S
C402 H358 0.931 . S
C402 C401 1.380 . S
C402 C403 1.387 . S
C403 H359 0.930 . S
C403 C398 1.386 . S
C403 C402 1.387 . S
C404 C373 1.519 . S
C404 C405 1.377 . S
C404 C409 1.361 . S
C405 H360 0.929 . S
C405 C404 1.377 . S
C405 C406 1.386 . S
C406 H361 0.931 . S
C406 C405 1.386 . S
C406 C407 1.363 . S
C407 C406 1.363 . S
C407 C408 1.385 . S
C408 H362 0.930 . S
C408 C407 1.385 . S
C408 C409 1.396 . S
C409 H363 0.929 . S
C409 C404 1.361 . S
C409 C408 1.396 . S
C410 O364 1.300 . S
C410 O365 1.209 . S
C410 C383 1.486 . S
C411 O366 1.199 . S
C411 O367 1.297 . S
C411 C395 1.476 . S
H412 O438 0.856 . S
H413 O441 0.854 . S
H414 C449 0.930 . S
H415 C450 0.930 . S
H416 C452 0.930 . S
H417 C453 0.930 . S
H418 C455 0.931 . S
H419 C456 0.930 . S
H420 C458 0.930 . S
H421 C459 0.929 . S
H422 C461 0.930 . S
H423 C462 0.931 . S
H424 C464 0.930 . S
H425 C465 0.929 . S
H426 C467 0.931 . S
H427 C468 0.930 . S
H428 C470 0.930 . S
H429 C471 0.932 . S
H430 C473 0.930 . S
H431 C474 0.929 . S
H432 C476 0.931 . S
H433 C477 0.930 . S
H434 C479 0.929 . S
H435 C480 0.931 . S
H436 C482 0.930 . S
H437 C483 0.929 . S
O438 H412 0.856 . S
O438 C484 1.300 1_554 S
O439 C484 1.209 . S
O440 C485 1.199 . S
O441 H413 0.854 . S
O441 C485 1.297 . S
C442 C443 1.404 . S
C442 C447 1.397 . S
C442 C448 1.492 . S
C443 C442 1.404 . S
C443 C444 1.396 . S
C443 C454 1.492 . S
C444 C443 1.396 . S
C444 C445 1.397 . S
C444 C460 1.509 . S
C445 C444 1.397 . S
C445 C446 1.412 . S
C445 C466 1.485 . S
C446 C445 1.412 . S
C446 C447 1.388 . S
C446 C472 1.490 . S
C447 C442 1.397 . S
C447 C446 1.388 . S
C447 C478 1.519 . S
C448 C442 1.492 . S
C448 C449 1.363 . S
C448 C453 1.390 . S
C449 H414 0.930 . S
C449 C448 1.363 . S
C449 C450 1.372 . S
C450 H415 0.930 . S
C450 C449 1.372 . S
C450 C451 1.383 . S
C451 C450 1.383 . S
C451 C452 1.395 . S
C452 H416 0.930 . S
C452 C451 1.395 . S
C452 C453 1.362 . S
C453 H417 0.930 . S
C453 C448 1.390 . S
C453 C452 1.362 . S
C454 C443 1.492 . S
C454 C455 1.377 . S
C454 C459 1.397 . S
C455 H418 0.931 . S
C455 C454 1.377 . S
C455 C456 1.376 . S
C456 H419 0.930 . S
C456 C455 1.376 . S
C456 C457 1.376 . S
C457 C456 1.376 . S
C457 C458 1.378 . S
C457 C484 1.486 . S
C458 H420 0.930 . S
C458 C457 1.378 . S
C458 C459 1.376 . S
C459 H421 0.929 . S
C459 C454 1.397 . S
C459 C458 1.376 . S
C460 C444 1.509 . S
C460 C461 1.391 . S
C460 C465 1.386 . S
C461 H422 0.930 . S
C461 C460 1.391 . S
C461 C462 1.375 . S
C462 H423 0.931 . S
C462 C461 1.375 . S
C462 C463 1.375 . S
C463 C462 1.375 . S
C463 C464 1.361 . S
C464 H424 0.930 . S
C464 C463 1.361 . S
C464 C465 1.399 . S
C465 H425 0.929 . S
C465 C460 1.386 . S
C465 C464 1.399 . S
C466 C445 1.485 . S
C466 C467 1.394 . S
C466 C471 1.360 . S
C467 H426 0.931 . S
C467 C466 1.394 . S
C467 C468 1.372 . S
C468 H427 0.930 . S
C468 C467 1.372 . S
C468 C469 1.397 . S
C469 C468 1.397 . S
C469 C470 1.390 . S
C469 C485 1.476 . S
C470 H428 0.930 . S
C470 C469 1.390 . S
C470 C471 1.366 . S
C471 H429 0.932 . S
C471 C466 1.360 . S
C471 C470 1.366 . S
C472 C446 1.490 . S
C472 C473 1.380 . S
C472 C477 1.386 . S
C473 H430 0.930 . S
C473 C472 1.380 . S
C473 C474 1.381 . S
C474 H431 0.929 . S
C474 C473 1.381 . S
C474 C475 1.371 . S
C475 C474 1.371 . S
C475 C476 1.380 . S
C476 H432 0.931 . S
C476 C475 1.380 . S
C476 C477 1.387 . S
C477 H433 0.930 . S
C477 C472 1.386 . S
C477 C476 1.387 . S
C478 C447 1.519 . S
C478 C479 1.377 . S
C478 C483 1.361 . S
C479 H434 0.929 . S
C479 C478 1.377 . S
C479 C480 1.386 . S
C480 H435 0.931 . S
C480 C479 1.386 . S
C480 C481 1.363 . S
C481 C480 1.363 . S
C481 C482 1.385 . S
C482 H436 0.930 . S
C482 C481 1.385 . S
C482 C483 1.396 . S
C483 H437 0.929 . S
C483 C478 1.361 . S
C483 C482 1.396 . S
C484 O438 1.300 1_556 S
C484 O439 1.209 . S
C484 C457 1.486 . S
C485 O440 1.199 . S
C485 O441 1.297 . S
C485 C469 1.476 . S
C486 C487 1.391 1_655 S
C486 C488 1.394 . S
C486 H502 0.931 . S
C487 C486 1.391 1_455 S
C487 C491 1.376 . S
C488 C486 1.394 . S
C488 C489 1.369 1_655 S
C488 C492 1.531 . S
C489 C488 1.369 1_455 S
C489 C490 1.410 . S
C489 C497 1.503 . S
C490 C489 1.410 . S
C490 C491 1.392 . S
C490 C493 1.511 . S
C491 C487 1.376 . S
C491 C490 1.392 . S
C491 H503 0.929 . S
C492 C488 1.531 . S
C492 H504 0.960 . S
C492 H505 0.962 . S
C492 H506 0.960 . S
C493 C490 1.511 . S
C493 H507 0.961 . S
C493 H508 0.961 . S
C493 H509 0.961 . S
C494 C495 1.370 . S
C494 C496 1.363 . S
C494 H510 0.931 . S
C495 C494 1.370 . S
C495 C499 1.408 . S
C496 C494 1.363 . S
C496 C497 1.370 . S
C496 C500 1.524 1_455 S
C497 C489 1.503 . S
C497 C496 1.370 . S
C497 C498 1.403 . S
C498 C497 1.403 . S
C498 C499 1.404 . S
C498 C501 1.539 . S
C499 C495 1.408 . S
C499 C498 1.404 . S
C499 H511 0.930 . S
C500 C496 1.524 1_655 S
C500 H512 0.956 . S
C500 H513 0.961 1_655 S
C500 H514 0.961 . S
C501 C498 1.539 . S
C501 H515 0.958 . S
C501 H516 0.961 . S
C501 H517 0.960 . S
H502 C486 0.931 . S
H503 C491 0.929 . S
H504 C492 0.960 . S
H505 C492 0.962 . S
H506 C492 0.960 . S
H507 C493 0.961 . S
H508 C493 0.961 . S
H509 C493 0.961 . S
H510 C494 0.931 . S
H511 C499 0.930 . S
H512 C500 0.956 . S
H513 C500 0.961 1_455 S
H514 C500 0.961 . S
H515 C501 0.958 . S
H516 C501 0.961 . S
H517 C501 0.960 . S
C518 C519 1.391 . S
C518 C520 1.394 . S
C518 H534 0.931 . S
C519 C518 1.391 . S
C519 C523 1.376 . S
C520 C518 1.394 . S
C520 C521 1.369 . S
C520 C524 1.531 . S
C521 C520 1.369 . S
C521 C522 1.410 . S
C521 C529 1.503 1_565 S
C522 C521 1.410 . S
C522 C523 1.392 . S
C522 C525 1.511 1_565 S
C523 C519 1.376 . S
C523 C522 1.392 . S
C523 H535 0.929 . S
C524 C520 1.531 . S
C524 H536 0.960 . S
C524 H537 0.962 . S
C524 H538 0.960 . S
C525 C522 1.511 1_545 S
C525 H539 0.961 . S
C525 H540 0.961 . S
C525 H541 0.961 1_545 S
C526 C527 1.370 . S
C526 C528 1.363 . S
C526 H542 0.931 . S
C527 C526 1.370 . S
C527 C531 1.408 1_545 S
C528 C526 1.363 . S
C528 C529 1.370 . S
C528 C532 1.524 . S
C529 C521 1.503 1_545 S
C529 C528 1.370 . S
C529 C530 1.403 1_545 S
C530 C529 1.403 1_565 S
C530 C531 1.404 . S
C530 C533 1.539 . S
C531 C527 1.408 1_565 S
C531 C530 1.404 . S
C531 H543 0.930 . S
C532 C528 1.524 . S
C532 H544 0.956 . S
C532 H545 0.961 . S
C532 H546 0.961 . S
C533 C530 1.539 . S
C533 H547 0.958 . S
C533 H548 0.961 . S
C533 H549 0.960 . S
H534 C518 0.931 . S
H535 C523 0.929 . S
H536 C524 0.960 . S
H537 C524 0.962 . S
H538 C524 0.960 . S
H539 C525 0.961 . S
H540 C525 0.961 . S
H541 C525 0.961 1_565 S
H542 C526 0.931 . S
H543 C531 0.930 . S
H544 C532 0.956 . S
H545 C532 0.961 . S
H546 C532 0.961 . S
H547 C533 0.958 . S
H548 C533 0.961 . S
H549 C533 0.960 . S
C550 C551 1.391 . S
C550 C552 1.394 . S
C550 H566 0.931 . S
C551 C550 1.391 . S
C551 C555 1.376 . S
C552 C550 1.394 . S
C552 C553 1.369 . S
C552 C556 1.531 . S
C553 C552 1.369 . S
C553 C554 1.410 . S
C553 C561 1.503 . S
C554 C553 1.410 . S
C554 C555 1.392 . S
C554 C557 1.511 . S
C555 C551 1.376 . S
C555 C554 1.392 . S
C555 H567 0.929 . S
C556 C552 1.531 . S
C556 H568 0.960 . S
C556 H569 0.962 . S
C556 H570 0.960 . S
C557 C554 1.511 . S
C557 H571 0.961 . S
C557 H572 0.961 . S
C557 H573 0.961 . S
C558 C559 1.370 . S
C558 C560 1.363 . S
C558 H574 0.931 . S
C559 C558 1.370 . S
C559 C563 1.408 . S
C560 C558 1.363 . S
C560 C561 1.370 . S
C560 C564 1.524 . S
C561 C553 1.503 . S
C561 C560 1.370 . S
C561 C562 1.403 . S
C562 C561 1.403 . S
C562 C563 1.404 . S
C562 C565 1.539 . S
C563 C559 1.408 . S
C563 C562 1.404 . S
C563 H575 0.930 . S
C564 C560 1.524 . S
C564 H576 0.956 . S
C564 H577 0.961 . S
C564 H578 0.961 . S
C565 C562 1.539 . S
C565 H579 0.958 . S
C565 H580 0.961 . S
C565 H581 0.960 . S
H566 C550 0.931 . S
H567 C555 0.929 . S
H568 C556 0.960 . S
H569 C556 0.962 . S
H570 C556 0.960 . S
H571 C557 0.961 . S
H572 C557 0.961 . S
H573 C557 0.961 . S
H574 C558 0.931 . S
H575 C563 0.930 . S
H576 C564 0.956 . S
H577 C564 0.961 . S
H578 C564 0.961 . S
H579 C565 0.958 . S
H580 C565 0.961 . S
H581 C565 0.960 . S
C582 C583 1.391 . S
C582 C584 1.394 . S
C582 H598 0.931 . S
C583 C582 1.391 . S
C583 C587 1.376 . S
C584 C582 1.394 . S
C584 C585 1.369 . S
C584 C588 1.531 . S
C585 C584 1.369 . S
C585 C586 1.410 . S
C585 C593 1.503 . S
C586 C585 1.410 . S
C586 C587 1.392 . S
C586 C589 1.511 . S
C587 C583 1.376 . S
C587 C586 1.392 . S
C587 H599 0.929 . S
C588 C584 1.531 . S
C588 H600 0.960 . S
C588 H601 0.962 1_455 S
C588 H602 0.960 1_455 S
C589 C586 1.511 . S
C589 H603 0.961 . S
C589 H604 0.961 . S
C589 H605 0.961 . S
C590 C591 1.370 . S
C590 C592 1.363 . S
C590 H606 0.931 . S
C591 C590 1.370 . S
C591 C595 1.408 . S
C592 C590 1.363 . S
C592 C593 1.370 . S
C592 C596 1.524 . S
C593 C585 1.503 . S
C593 C592 1.370 . S
C593 C594 1.403 . S
C594 C593 1.403 . S
C594 C595 1.404 . S
C594 C597 1.539 . S
C595 C591 1.408 . S
C595 C594 1.404 . S
C595 H607 0.930 . S
C596 C592 1.524 . S
C596 H608 0.956 . S
C596 H609 0.961 . S
C596 H610 0.961 . S
C597 C594 1.539 . S
C597 H611 0.958 . S
C597 H612 0.961 . S
C597 H613 0.960 . S
H598 C582 0.931 . S
H599 C587 0.929 . S
H600 C588 0.960 . S
H601 C588 0.962 1_655 S
H602 C588 0.960 1_655 S
H603 C589 0.961 . S
H604 C589 0.961 . S
H605 C589 0.961 . S
H606 C590 0.931 . S
H607 C595 0.930 . S
H608 C596 0.956 . S
H609 C596 0.961 . S
H610 C596 0.961 . S
H611 C597 0.958 . S
H612 C597 0.961 . S
H613 C597 0.960 . S
C614 C615 1.391 . S
C614 C616 1.394 . S
C614 H630 0.931 . S
C615 C614 1.391 . S
C615 C619 1.376 . S
C616 C614 1.394 . S
C616 C617 1.369 . S
C616 C620 1.531 . S
C617 C616 1.369 . S
C617 C618 1.410 . S
C617 C625 1.503 . S
C618 C617 1.410 . S
C618 C619 1.392 . S
C618 C621 1.511 . S
C619 C615 1.376 . S
C619 C618 1.392 . S
C619 H631 0.929 . S
C620 C616 1.531 . S
C620 H632 0.960 . S
C620 H633 0.962 . S
C620 H634 0.960 1_545 S
C621 C618 1.511 . S
C621 H635 0.961 . S
C621 H636 0.961 . S
C621 H637 0.961 . S
C622 C623 1.370 . S
C622 C624 1.363 . S
C622 H638 0.931 . S
C623 C622 1.370 . S
C623 C627 1.408 . S
C624 C622 1.363 . S
C624 C625 1.370 . S
C624 C628 1.524 . S
C625 C617 1.503 . S
C625 C624 1.370 . S
C625 C626 1.403 . S
C626 C625 1.403 . S
C626 C627 1.404 . S
C626 C629 1.539 1_545 S
C627 C623 1.408 . S
C627 C626 1.404 . S
C627 H639 0.930 . S
C628 C624 1.524 . S
C628 H640 0.956 . S
C628 H641 0.961 . S
C628 H642 0.961 . S
C629 C626 1.539 1_565 S
C629 H643 0.958 . S
C629 H644 0.961 . S
C629 H645 0.960 1_565 S
H630 C614 0.931 . S
H631 C619 0.929 . S
H632 C620 0.960 . S
H633 C620 0.962 . S
H634 C620 0.960 1_565 S
H635 C621 0.961 . S
H636 C621 0.961 . S
H637 C621 0.961 . S
H638 C622 0.931 . S
H639 C627 0.930 . S
H640 C628 0.956 . S
H641 C628 0.961 . S
H642 C628 0.961 . S
H643 C629 0.958 . S
H644 C629 0.961 . S
H645 C629 0.960 1_545 S
C646 C647 1.391 . S
C646 C648 1.394 . S
C646 H662 0.931 . S
C647 C646 1.391 . S
C647 C651 1.376 . S
C648 C646 1.394 . S
C648 C649 1.369 . S
C648 C652 1.531 . S
C649 C648 1.369 . S
C649 C650 1.410 . S
C649 C657 1.503 . S
C650 C649 1.410 . S
C650 C651 1.392 . S
C650 C653 1.511 . S
C651 C647 1.376 . S
C651 C650 1.392 . S
C651 H663 0.929 . S
C652 C648 1.531 . S
C652 H664 0.960 . S
C652 H665 0.962 . S
C652 H666 0.960 . S
C653 C650 1.511 . S
C653 H667 0.961 . S
C653 H668 0.961 . S
C653 H669 0.961 . S
C654 C655 1.370 . S
C654 C656 1.363 . S
C654 H670 0.931 . S
C655 C654 1.370 . S
C655 C659 1.408 . S
C656 C654 1.363 . S
C656 C657 1.370 . S
C656 C660 1.524 . S
C657 C649 1.503 . S
C657 C656 1.370 . S
C657 C658 1.403 . S
C658 C657 1.403 . S
C658 C659 1.404 . S
C658 C661 1.539 . S
C659 C655 1.408 . S
C659 C658 1.404 . S
C659 H671 0.930 . S
C660 C656 1.524 . S
C660 H672 0.956 . S
C660 H673 0.961 . S
C660 H674 0.961 . S
C661 C658 1.539 . S
C661 H675 0.958 . S
C661 H676 0.961 . S
C661 H677 0.960 . S
H662 C646 0.931 . S
H663 C651 0.929 . S
H664 C652 0.960 . S
H665 C652 0.962 . S
H666 C652 0.960 . S
H667 C653 0.961 . S
H668 C653 0.961 . S
H669 C653 0.961 . S
H670 C654 0.931 . S
H671 C659 0.930 . S
H672 C660 0.956 . S
H673 C660 0.961 . S
H674 C660 0.961 . S
H675 C661 0.958 . S
H676 C661 0.961 . S
H677 C661 0.960 . S
C678 C679 1.391 . S
C678 C680 1.394 . S
C678 H694 0.931 . S
C679 C678 1.391 . S
C679 C683 1.376 . S
C680 C678 1.394 . S
C680 C681 1.369 . S
C680 C684 1.531 . S
C681 C680 1.369 . S
C681 C682 1.410 . S
C681 C689 1.503 . S
C682 C681 1.410 . S
C682 C683 1.392 . S
C682 C685 1.511 . S
C683 C679 1.376 . S
C683 C682 1.392 . S
C683 H695 0.929 . S
C684 C680 1.531 . S
C684 H696 0.960 . S
C684 H697 0.962 . S
C684 H698 0.960 . S
C685 C682 1.511 . S
C685 H699 0.961 . S
C685 H700 0.961 . S
C685 H701 0.961 . S
C686 C687 1.370 . S
C686 C688 1.363 . S
C686 H702 0.931 . S
C687 C686 1.370 . S
C687 C691 1.408 . S
C688 C686 1.363 . S
C688 C689 1.370 . S
C688 C692 1.524 . S
C689 C681 1.503 . S
C689 C688 1.370 . S
C689 C690 1.403 . S
C690 C689 1.403 . S
C690 C691 1.404 . S
C690 C693 1.539 . S
C691 C687 1.408 . S
C691 C690 1.404 . S
C691 H703 0.930 . S
C692 C688 1.524 . S
C692 H704 0.956 . S
C692 H705 0.961 . S
C692 H706 0.961 . S
C693 C690 1.539 . S
C693 H707 0.959 . S
C693 H708 0.961 1_545 S
C693 H709 0.960 . S
H694 C678 0.931 . S
H695 C683 0.929 . S
H696 C684 0.960 . S
H697 C684 0.962 . S
H698 C684 0.960 . S
H699 C685 0.961 . S
H700 C685 0.961 . S
H701 C685 0.961 . S
H702 C686 0.931 . S
H703 C691 0.930 . S
H704 C692 0.956 . S
H705 C692 0.961 . S
H706 C692 0.961 . S
H707 C693 0.959 . S
H708 C693 0.961 1_565 S
H709 C693 0.960 . S
C710 C711 1.391 . S
C710 C712 1.394 1_554 S
C710 H726 0.931 . S
C711 C710 1.391 . S
C711 C715 1.376 . S
C712 C710 1.394 1_556 S
C712 C713 1.369 . S
C712 C716 1.531 . S
C713 C712 1.369 . S
C713 C714 1.410 . S
C713 C721 1.503 . S
C714 C713 1.410 . S
C714 C715 1.392 1_556 S
C714 C717 1.511 . S
C715 C711 1.376 . S
C715 C714 1.392 1_554 S
C715 H727 0.929 . S
C716 C712 1.531 . S
C716 H728 0.960 . S
C716 H729 0.962 . S
C716 H730 0.960 . S
C717 C714 1.511 . S
C717 H731 0.961 . S
C717 H732 0.961 . S
C717 H733 0.961 . S
C718 C719 1.370 . S
C718 C720 1.363 . S
C718 H734 0.931 . S
C719 C718 1.370 . S
C719 C723 1.408 . S
C720 C718 1.363 . S
C720 C721 1.370 . S
C720 C724 1.524 . S
C721 C713 1.503 . S
C721 C720 1.370 . S
C721 C722 1.403 . S
C722 C721 1.403 . S
C722 C723 1.404 . S
C722 C725 1.539 . S
C723 C719 1.408 . S
C723 C722 1.404 . S
C723 H735 0.930 . S
C724 C720 1.524 . S
C724 H736 0.956 . S
C724 H737 0.961 . S
C724 H738 0.961 . S
C725 C722 1.539 . S
C725 H739 0.958 . S
C725 H740 0.961 . S
C725 H741 0.960 . S
H726 C710 0.931 . S
H727 C715 0.929 . S
H728 C716 0.960 . S
H729 C716 0.962 . S
H730 C716 0.960 . S
H731 C717 0.961 . S
H732 C717 0.961 . S
H733 C717 0.961 . S
H734 C718 0.931 . S
H735 C723 0.930 . S
H736 C724 0.956 . S
H737 C724 0.961 . S
H738 C724 0.961 . S
H739 C725 0.958 . S
H740 C725 0.961 . S
H741 C725 0.960 . S
C742 C743 1.391 1_455 S
C742 C744 1.394 . S
C742 H758 0.931 . S
C743 C742 1.391 1_655 S
C743 C747 1.375 . S
C744 C742 1.394 . S
C744 C745 1.369 . S
C744 C748 1.531 . S
C745 C744 1.369 . S
C745 C746 1.410 . S
C745 C753 1.503 . S
C746 C745 1.410 . S
C746 C747 1.393 1_455 S
C746 C749 1.511 . S
C747 C743 1.375 . S
C747 C746 1.393 1_655 S
C747 H759 0.929 . S
C748 C744 1.531 . S
C748 H760 0.960 . S
C748 H761 0.962 1_455 S
C748 H762 0.960 . S
C749 C746 1.511 . S
C749 H763 0.961 1_455 S
C749 H764 0.961 . S
C749 H765 0.961 . S
C750 C751 1.370 1_655 S
C750 C752 1.363 . S
C750 H766 0.931 . S
C751 C750 1.370 1_455 S
C751 C755 1.408 . S
C752 C750 1.363 . S
C752 C753 1.370 1_655 S
C752 C756 1.524 . S
C753 C745 1.503 . S
C753 C752 1.370 1_455 S
C753 C754 1.403 . S
C754 C753 1.403 . S
C754 C755 1.404 . S
C754 C757 1.539 . S
C755 C751 1.408 . S
C755 C754 1.404 . S
C755 H767 0.930 . S
C756 C752 1.524 . S
C756 H768 0.956 . S
C756 H769 0.961 . S
C756 H770 0.961 . S
C757 C754 1.539 . S
C757 H771 0.958 . S
C757 H772 0.961 . S
C757 H773 0.960 . S
H758 C742 0.931 . S
H759 C747 0.929 . S
H760 C748 0.960 . S
H761 C748 0.962 1_655 S
H762 C748 0.960 . S
H763 C749 0.961 1_655 S
H764 C749 0.961 . S
H765 C749 0.961 . S
H766 C750 0.931 . S
H767 C755 0.930 . S
H768 C756 0.956 . S
H769 C756 0.961 . S
H770 C756 0.961 . S
H771 C757 0.958 . S
H772 C757 0.961 . S
H773 C757 0.960 . S
C774 C775 1.370 1_565 S
C774 C776 1.402 1_565 S
C774 H790 0.943 . S
C775 C774 1.370 1_545 S
C775 C779 1.376 . S
C776 C774 1.402 1_545 S
C776 C777 1.369 . S
C776 C780 1.531 1_545 S
C777 C776 1.369 . S
C777 C778 1.410 . S
C777 C785 1.503 . S
C778 C777 1.410 . S
C778 C779 1.392 . S
C778 C781 1.511 . S
C779 C775 1.376 . S
C779 C778 1.392 . S
C779 H791 0.929 . S
C780 C776 1.531 1_565 S
C780 H792 0.960 . S
C780 H793 0.962 . S
C780 H794 0.960 . S
C781 C778 1.511 . S
C781 H795 0.961 . S
C781 H796 0.961 . S
C781 H797 0.961 . S
C782 C783 1.370 . S
C782 C784 1.363 . S
C782 H798 0.931 . S
C783 C782 1.370 . S
C783 C787 1.408 . S
C784 C782 1.363 . S
C784 C785 1.370 . S
C784 C788 1.524 . S
C785 C777 1.503 . S
C785 C784 1.370 . S
C785 C786 1.403 . S
C786 C785 1.403 . S
C786 C787 1.404 . S
C786 C789 1.539 1_545 S
C787 C783 1.408 . S
C787 C786 1.404 . S
C787 H799 0.930 1_545 S
C788 C784 1.524 . S
C788 H800 0.956 . S
C788 H801 0.961 . S
C788 H802 0.961 . S
C789 C786 1.539 1_565 S
C789 H803 0.958 . S
C789 H804 0.961 . S
C789 H805 0.960 . S
H790 C774 0.943 . S
H791 C779 0.929 . S
H792 C780 0.960 . S
H793 C780 0.962 . S
H794 C780 0.960 . S
H795 C781 0.961 . S
H796 C781 0.961 . S
H797 C781 0.961 . S
H798 C782 0.931 . S
H799 C787 0.930 1_565 S
H800 C788 0.956 . S
H801 C788 0.961 . S
H802 C788 0.961 . S
H803 C789 0.958 . S
H804 C789 0.961 . S
H805 C789 0.960 . S
C806 C807 1.391 . S
C806 C808 1.394 . S
C806 H822 0.931 . S
C807 C806 1.391 . S
C807 C811 1.376 . S
C808 C806 1.394 . S
C808 C809 1.369 1_554 S
C808 C812 1.531 . S
C809 C808 1.369 1_556 S
C809 C810 1.410 . S
C809 C817 1.503 . S
C810 C809 1.410 . S
C810 C811 1.392 1_556 S
C810 C813 1.511 . S
C811 C807 1.376 . S
C811 C810 1.392 1_554 S
C811 H823 0.929 . S
C812 C808 1.531 . S
C812 H824 0.960 1_554 S
C812 H825 0.962 . S
C812 H826 0.960 . S
C813 C810 1.511 . S
C813 H827 0.961 . S
C813 H828 0.961 . S
C813 H829 0.961 . S
C814 C815 1.370 . S
C814 C816 1.363 . S
C814 H830 0.931 . S
C815 C814 1.370 . S
C815 C819 1.408 . S
C816 C814 1.363 . S
C816 C817 1.370 . S
C816 C820 1.524 1_556 S
C817 C809 1.503 . S
C817 C816 1.370 . S
C817 C818 1.403 . S
C818 C817 1.403 . S
C818 C819 1.404 . S
C818 C821 1.539 . S
C819 C815 1.408 . S
C819 C818 1.404 . S
C819 H831 0.930 . S
C820 C816 1.524 1_554 S
C820 H832 0.956 . S
C820 H833 0.961 . S
C820 H834 0.961 . S
C821 C818 1.539 . S
C821 H835 0.958 . S
C821 H836 0.961 . S
C821 H837 0.960 . S
H822 C806 0.931 . S
H823 C811 0.929 . S
H824 C812 0.960 1_556 S
H825 C812 0.962 . S
H826 C812 0.960 . S
H827 C813 0.961 . S
H828 C813 0.961 . S
H829 C813 0.961 . S
H830 C814 0.931 . S
H831 C819 0.930 . S
H832 C820 0.956 . S
H833 C820 0.961 . S
H834 C820 0.961 . S
H835 C821 0.958 . S
H836 C821 0.961 . S
H837 C821 0.960 . S
C838 C839 1.391 . S
C838 C840 1.394 . S
C838 H854 0.931 . S
C839 C838 1.391 . S
C839 C843 1.376 . S
C840 C838 1.394 . S
C840 C841 1.369 . S
C840 C844 1.531 . S
C841 C840 1.369 . S
C841 C842 1.410 . S
C841 C849 1.503 . S
C842 C841 1.410 . S
C842 C843 1.392 . S
C842 C845 1.511 1_455 S
C843 C839 1.376 . S
C843 C842 1.392 . S
C843 H855 0.929 . S
C844 C840 1.531 . S
C844 H856 0.960 . S
C844 H857 0.962 . S
C844 H858 0.960 . S
C845 C842 1.511 1_655 S
C845 H859 0.961 . S
C845 H860 0.961 . S
C845 H861 0.961 . S
C846 C847 1.370 . S
C846 C848 1.363 . S
C846 H862 0.931 . S
C847 C846 1.370 . S
C847 C851 1.408 . S
C848 C846 1.363 . S
C848 C849 1.370 . S
C848 C852 1.524 . S
C849 C841 1.503 . S
C849 C848 1.370 . S
C849 C850 1.403 . S
C850 C849 1.403 . S
C850 C851 1.404 . S
C850 C853 1.539 . S
C851 C847 1.408 . S
C851 C850 1.404 . S
C851 H863 0.930 . S
C852 C848 1.524 . S
C852 H864 0.956 . S
C852 H865 0.961 . S
C852 H866 0.961 . S
C853 C850 1.539 . S
C853 H867 0.958 . S
C853 H868 0.961 . S
C853 H869 0.960 . S
H854 C838 0.931 . S
H855 C843 0.929 . S
H856 C844 0.960 . S
H857 C844 0.962 . S
H858 C844 0.960 . S
H859 C845 0.961 . S
H860 C845 0.961 . S
H861 C845 0.961 . S
H862 C846 0.931 . S
H863 C851 0.930 . S
H864 C852 0.956 . S
H865 C852 0.961 . S
H866 C852 0.961 . S
H867 C853 0.958 . S
H868 C853 0.961 . S
H869 C853 0.960 . S
C495 C303 1.366 . S
C487 C29 1.379 . S
C519 C137 1.428 . S
C527 C377 1.378 . S
C551 C225 2.159 . S
C559 C481 2.176 . S
C583 C49 0.676 . S
C591 C315 0.659 . S
C623 C389 0.612 . S
C615 C117 0.601 . S
C647 C205 1.329 . S
C655 C475 1.286 . S
C687 C407 2.183 . S
C679 C233 2.141 . S
C711 C57 1.422 . S
C719 C451 1.340 . S
C751 C327 1.335 . S
C743 C108 1.364 . S
C783 C401 1.284 . S
C775 C196 1.374 . S
C815 C463 0.659 . S
C807 C20 0.673 . S
C839 C145 2.154 . S
C847 C333 2.183 . S
