# Generated by pormake.
# Topology ptr, (4,4)-cn, num edge types: 1
# Building blocks:
#     Node 0, Type 0, BuildingBlock: TATPOV_clean_sbu_0, # of connection points: 4
#     Node 1, Type 0, BuildingBlock: TATPOV_clean_sbu_0, # of connection points: 4
#     Node 2, Type 0, BuildingBlock: TATPOV_clean_sbu_0, # of connection points: 4
#     Node 3, Type 0, BuildingBlock: TATPOV_clean_sbu_0, # of connection points: 4
#     Node 4, Type 0, BuildingBlock: TATPOV_clean_sbu_0, # of connection points: 4
#     Node 5, Type 0, BuildingBlock: TATPOV_clean_sbu_0, # of connection points: 4
#     Node 6, Type 0, BuildingBlock: TATPOV_clean_sbu_0, # of connection points: 4
#     Node 7, Type 0, BuildingBlock: TATPOV_clean_sbu_0, # of connection points: 4
#     Node 8, Type 0, BuildingBlock: TATPOV_clean_sbu_0, # of connection points: 4
#     Node 9, Type 0, BuildingBlock: TATPOV_clean_sbu_0, # of connection points: 4
#     Node 10, Type 0, BuildingBlock: TATPOV_clean_sbu_0, # of connection points: 4
#     Node 11, Type 0, BuildingBlock: TATPOV_clean_sbu_0, # of connection points: 4
#     Node 12, Type 0, BuildingBlock: TATPOV_clean_sbu_0, # of connection points: 4
#     Node 13, Type 0, BuildingBlock: TATPOV_clean_sbu_0, # of connection points: 4
#     Node 14, Type 0, BuildingBlock: TATPOV_clean_sbu_0, # of connection points: 4
#     Node 15, Type 0, BuildingBlock: TATPOV_clean_sbu_0, # of connection points: 4
#     Node 16, Type 0, BuildingBlock: TATPOV_clean_sbu_0, # of connection points: 4
#     Node 17, Type 0, BuildingBlock: TATPOV_clean_sbu_0, # of connection points: 4
#     Node 18, Type 1, BuildingBlock: GIZVER_clean_linker_0, # of connection points: 4
#     Node 19, Type 1, BuildingBlock: GIZVER_clean_linker_0, # of connection points: 4
#     Node 20, Type 1, BuildingBlock: GIZVER_clean_linker_0, # of connection points: 4
#     Node 21, Type 1, BuildingBlock: GIZVER_clean_linker_0, # of connection points: 4
#     Node 22, Type 1, BuildingBlock: GIZVER_clean_linker_0, # of connection points: 4
#     Node 23, Type 1, BuildingBlock: GIZVER_clean_linker_0, # of connection points: 4
#     Node 24, Type 1, BuildingBlock: GIZVER_clean_linker_0, # of connection points: 4
#     Node 25, Type 1, BuildingBlock: GIZVER_clean_linker_0, # of connection points: 4
#     Node 26, Type 1, BuildingBlock: GIZVER_clean_linker_0, # of connection points: 4
#     Node 27, Type 1, BuildingBlock: GIZVER_clean_linker_0, # of connection points: 4
#     Node 28, Type 1, BuildingBlock: GIZVER_clean_linker_0, # of connection points: 4
#     Node 29, Type 1, BuildingBlock: GIZVER_clean_linker_0, # of connection points: 4
#     Node 30, Type 1, BuildingBlock: GIZVER_clean_linker_0, # of connection points: 4
#     Node 31, Type 1, BuildingBlock: GIZVER_clean_linker_0, # of connection points: 4
#     Node 32, Type 1, BuildingBlock: GIZVER_clean_linker_0, # of connection points: 4
#     Node 33, Type 1, BuildingBlock: GIZVER_clean_linker_0, # of connection points: 4
#     Node 34, Type 1, BuildingBlock: GIZVER_clean_linker_0, # of connection points: 4
#     Node 35, Type 1, BuildingBlock: GIZVER_clean_linker_0, # of connection points: 4
#     Edge 36, Type (0, 1), BuildingBlock: UVAHIK_clean_linker_0, # of connection points: 2
#     Edge 37, Type (0, 1), BuildingBlock: UVAHIK_clean_linker_0, # of connection points: 2
#     Edge 38, Type (0, 1), BuildingBlock: UVAHIK_clean_linker_0, # of connection points: 2
#     Edge 39, Type (0, 1), BuildingBlock: UVAHIK_clean_linker_0, # of connection points: 2
#     Edge 40, Type (0, 1), BuildingBlock: UVAHIK_clean_linker_0, # of connection points: 2
#     Edge 41, Type (0, 1), BuildingBlock: UVAHIK_clean_linker_0, # of connection points: 2
#     Edge 42, Type (0, 1), BuildingBlock: UVAHIK_clean_linker_0, # of connection points: 2
#     Edge 43, Type (0, 1), BuildingBlock: UVAHIK_clean_linker_0, # of connection points: 2
#     Edge 44, Type (0, 1), BuildingBlock: UVAHIK_clean_linker_0, # of connection points: 2
#     Edge 45, Type (0, 1), BuildingBlock: UVAHIK_clean_linker_0, # of connection points: 2
#     Edge 46, Type (0, 1), BuildingBlock: UVAHIK_clean_linker_0, # of connection points: 2
#     Edge 47, Type (0, 1), BuildingBlock: UVAHIK_clean_linker_0, # of connection points: 2
#     Edge 48, Type (0, 1), BuildingBlock: UVAHIK_clean_linker_0, # of connection points: 2
#     Edge 49, Type (0, 1), BuildingBlock: UVAHIK_clean_linker_0, # of connection points: 2
#     Edge 50, Type (0, 1), BuildingBlock: UVAHIK_clean_linker_0, # of connection points: 2
#     Edge 51, Type (0, 1), BuildingBlock: UVAHIK_clean_linker_0, # of connection points: 2
#     Edge 52, Type (0, 1), BuildingBlock: UVAHIK_clean_linker_0, # of connection points: 2
#     Edge 53, Type (0, 1), BuildingBlock: UVAHIK_clean_linker_0, # of connection points: 2
#     Edge 54, Type (0, 1), BuildingBlock: UVAHIK_clean_linker_0, # of connection points: 2
#     Edge 55, Type (0, 1), BuildingBlock: UVAHIK_clean_linker_0, # of connection points: 2
#     Edge 56, Type (0, 1), BuildingBlock: UVAHIK_clean_linker_0, # of connection points: 2
#     Edge 57, Type (0, 1), BuildingBlock: UVAHIK_clean_linker_0, # of connection points: 2
#     Edge 58, Type (0, 1), BuildingBlock: UVAHIK_clean_linker_0, # of connection points: 2
#     Edge 59, Type (0, 1), BuildingBlock: UVAHIK_clean_linker_0, # of connection points: 2
#     Edge 60, Type (0, 1), BuildingBlock: UVAHIK_clean_linker_0, # of connection points: 2
#     Edge 61, Type (0, 1), BuildingBlock: UVAHIK_clean_linker_0, # of connection points: 2
#     Edge 62, Type (0, 1), BuildingBlock: UVAHIK_clean_linker_0, # of connection points: 2
#     Edge 63, Type (0, 1), BuildingBlock: UVAHIK_clean_linker_0, # of connection points: 2
#     Edge 64, Type (0, 1), BuildingBlock: UVAHIK_clean_linker_0, # of connection points: 2
#     Edge 65, Type (0, 1), BuildingBlock: UVAHIK_clean_linker_0, # of connection points: 2
#     Edge 66, Type (0, 1), BuildingBlock: UVAHIK_clean_linker_0, # of connection points: 2
#     Edge 67, Type (0, 1), BuildingBlock: UVAHIK_clean_linker_0, # of connection points: 2
#     Edge 68, Type (0, 1), BuildingBlock: UVAHIK_clean_linker_0, # of connection points: 2
#     Edge 69, Type (0, 1), BuildingBlock: UVAHIK_clean_linker_0, # of connection points: 2
#     Edge 70, Type (0, 1), BuildingBlock: UVAHIK_clean_linker_0, # of connection points: 2
#     Edge 71, Type (0, 1), BuildingBlock: UVAHIK_clean_linker_0, # of connection points: 2
#     Edge 72, Type (0, 1), BuildingBlock: UVAHIK_clean_linker_0, # of connection points: 2
#     Edge 73, Type (0, 1), BuildingBlock: UVAHIK_clean_linker_0, # of connection points: 2
#     Edge 74, Type (0, 1), BuildingBlock: UVAHIK_clean_linker_0, # of connection points: 2
#     Edge 75, Type (0, 1), BuildingBlock: UVAHIK_clean_linker_0, # of connection points: 2
#     Edge 76, Type (0, 1), BuildingBlock: UVAHIK_clean_linker_0, # of connection points: 2
#     Edge 77, Type (0, 1), BuildingBlock: UVAHIK_clean_linker_0, # of connection points: 2
#     Edge 78, Type (0, 1), BuildingBlock: UVAHIK_clean_linker_0, # of connection points: 2
#     Edge 79, Type (0, 1), BuildingBlock: UVAHIK_clean_linker_0, # of connection points: 2
#     Edge 80, Type (0, 1), BuildingBlock: UVAHIK_clean_linker_0, # of connection points: 2
#     Edge 81, Type (0, 1), BuildingBlock: UVAHIK_clean_linker_0, # of connection points: 2
#     Edge 82, Type (0, 1), BuildingBlock: UVAHIK_clean_linker_0, # of connection points: 2
#     Edge 83, Type (0, 1), BuildingBlock: UVAHIK_clean_linker_0, # of connection points: 2
#     Edge 84, Type (0, 1), BuildingBlock: UVAHIK_clean_linker_0, # of connection points: 2
#     Edge 85, Type (0, 1), BuildingBlock: UVAHIK_clean_linker_0, # of connection points: 2
#     Edge 86, Type (0, 1), BuildingBlock: UVAHIK_clean_linker_0, # of connection points: 2
#     Edge 87, Type (0, 1), BuildingBlock: UVAHIK_clean_linker_0, # of connection points: 2
#     Edge 88, Type (0, 1), BuildingBlock: UVAHIK_clean_linker_0, # of connection points: 2
#     Edge 89, Type (0, 1), BuildingBlock: UVAHIK_clean_linker_0, # of connection points: 2
#     Edge 90, Type (0, 1), BuildingBlock: UVAHIK_clean_linker_0, # of connection points: 2
#     Edge 91, Type (0, 1), BuildingBlock: UVAHIK_clean_linker_0, # of connection points: 2
#     Edge 92, Type (0, 1), BuildingBlock: UVAHIK_clean_linker_0, # of connection points: 2
#     Edge 93, Type (0, 1), BuildingBlock: UVAHIK_clean_linker_0, # of connection points: 2
#     Edge 94, Type (0, 1), BuildingBlock: UVAHIK_clean_linker_0, # of connection points: 2
#     Edge 95, Type (0, 1), BuildingBlock: UVAHIK_clean_linker_0, # of connection points: 2
#     Edge 96, Type (0, 1), BuildingBlock: UVAHIK_clean_linker_0, # of connection points: 2
#     Edge 97, Type (0, 1), BuildingBlock: UVAHIK_clean_linker_0, # of connection points: 2
#     Edge 98, Type (0, 1), BuildingBlock: UVAHIK_clean_linker_0, # of connection points: 2
#     Edge 99, Type (0, 1), BuildingBlock: UVAHIK_clean_linker_0, # of connection points: 2
#     Edge 100, Type (0, 1), BuildingBlock: UVAHIK_clean_linker_0, # of connection points: 2
#     Edge 101, Type (0, 1), BuildingBlock: UVAHIK_clean_linker_0, # of connection points: 2
#     Edge 102, Type (0, 1), BuildingBlock: UVAHIK_clean_linker_0, # of connection points: 2
#     Edge 103, Type (0, 1), BuildingBlock: UVAHIK_clean_linker_0, # of connection points: 2
#     Edge 104, Type (0, 1), BuildingBlock: UVAHIK_clean_linker_0, # of connection points: 2
#     Edge 105, Type (0, 1), BuildingBlock: UVAHIK_clean_linker_0, # of connection points: 2
#     Edge 106, Type (0, 1), BuildingBlock: UVAHIK_clean_linker_0, # of connection points: 2
#     Edge 107, Type (0, 1), BuildingBlock: UVAHIK_clean_linker_0, # of connection points: 2
# Relax obj value: 0.071
# Max RMSD: 0.189
# Mean RMSD: 0.113
data_MOF--net-ptr--node1-TATPOV_clean_sbu_0--node2-GIZVER_clean_linker_0--edge1-UVAHIK_clean_linker_0
_symmetry_space_group_name_H-M    P1
_symmetry_Int_Tables_number       1
_symmetry_cell_setting            triclinic
loop_
_symmetry_equiv_pos_as_xyz
'x, y, z'
_cell_length_a     101.90352
_cell_length_b     103.29301
_cell_length_c     60.592554
_cell_angle_alpha  89.722904
_cell_angle_beta   91.220916
_cell_angle_gamma 121.21989
loop_
_atom_site_label
_atom_site_type_symbol
_atom_site_fract_x
_atom_site_fract_y
_atom_site_fract_z
_atom_type_partial_charge
Zn0 Zn 0.96447 0.36479 0.02254 0.0
Zn1 Zn 0.99178 0.36734 0.02109 0.0
O2 O 0.9756 0.34415 0.02003 0.0
O3 O 0.95317 0.34214 0.02356 0.0
O4 O 0.01177 0.36745 0.02273 0.0
O5 O 0.97021 0.37673 0.05076 0.0
O6 O 0.99307 0.37944 0.04924 0.0
C7 C 0.96103 0.33596 0.02159 0.0
C8 C 0.98227 0.38106 0.98415 0.0
O9 O 0.99252 0.37891 0.99276 0.0
O10 O 0.96944 0.37581 0.99336 0.0
C11 C 0.01633 0.36249 0.00733 0.0
O12 O 0.00823 0.35772 0.98882 0.0
C13 C 0.98363 0.38211 0.05873 0.0
Zn14 Zn 0.65507 0.61531 0.02346 0.0
Zn15 Zn 0.65058 0.6383 0.02694 0.0
O16 O 0.67432 0.64796 0.02738 0.0
O17 O 0.67777 0.62861 0.02816 0.0
O18 O 0.64853 0.65669 0.03038 0.0
O19 O 0.64179 0.60525 0.04931 0.0
O20 O 0.63846 0.62453 0.05324 0.0
C21 C 0.68323 0.64273 0.02859 0.0
C22 C 0.6387 0.61781 0.98599 0.0
O23 O 0.63963 0.62864 -0.00269 0.0
O24 O 0.64508 0.6108 0.99306 0.0
C25 C 0.64974 0.6651 0.01416 0.0
O26 O 0.65202 0.66158 0.99438 0.0
C27 C 0.63587 0.61159 0.05946 0.0
Zn28 Zn 0.35862 0.96943 0.01048 0.0
Zn29 Zn 0.36346 0.99714 0.01074 0.0
O30 O 0.33979 0.98237 0.00942 0.0
O31 O 0.3358 0.95933 0.00885 0.0
O32 O 0.36423 0.0171 0.0111 0.0
O33 O 0.37042 0.97433 0.98256 0.0
O34 O 0.37495 0.99763 0.98269 0.0
C35 C 0.33057 0.96807 0.00851 0.0
C36 C 0.37665 0.98675 0.04812 0.0
O37 O 0.37522 0.99717 0.03912 0.0
O38 O 0.37007 0.97367 0.03946 0.0
C39 C 0.37596 0.03042 0.01144 0.0
O40 O 0.38973 0.03228 0.01174 0.0
C41 C 0.37653 0.98732 0.97392 0.0
Zn42 Zn 0.04154 0.64571 0.00214 0.0
Zn43 Zn 0.01323 0.64075 0.00628 0.0
O44 O 0.02774 0.66393 0.00219 0.0
O45 O 0.05095 0.66804 -0.00208 0.0
O46 O 0.99239 0.63879 0.00825 0.0
O47 O 0.03419 0.63151 0.97616 0.0
O48 O 0.01076 0.62711 0.97969 0.0
C49 C 0.04199 0.67305 -0.001 0.0
C50 C 0.02752 0.6314 0.04325 0.0
O51 O 0.0161 0.63197 0.03545 0.0
O52 O 0.03978 0.63697 0.03248 0.0
C53 C 0.99122 0.64912 0.01773 0.0
O54 O 1.00345 0.66049 0.02728 0.0
C55 C 0.02023 0.62463 0.96993 0.0
Zn56 Zn 0.36147 0.39781 0.02207 0.0
Zn57 Zn 0.36329 0.37315 0.01701 0.0
O58 O 0.33978 0.36535 0.01675 0.0
O59 O 0.33863 0.38583 0.02169 0.0
O60 O 0.36424 0.35403 0.01382 0.0
O61 O 0.37236 0.40585 0.99351 0.0
O62 O 0.37486 0.386 0.98995 0.0
C63 C 0.3319 0.37168 0.01869 0.0
C64 C 0.37897 0.39472 0.05686 0.0
O65 O 0.37583 0.38292 0.04584 0.0
O66 O 0.37373 0.40289 0.05048 0.0
C67 C 0.35359 0.3411 0.0202 0.0
O68 O 0.34139 0.33988 0.02921 0.0
C69 C 0.37727 0.39871 0.98297 0.0
Zn70 Zn 0.64288 0.03535 0.00151 0.0
Zn71 Zn 0.63995 0.00822 0.00149 0.0
O72 O 0.66355 0.02391 -0.00023 0.0
O73 O 0.66572 0.04624 -0.00026 0.0
O74 O 0.63875 0.98791 0.0033 0.0
O75 O 0.6332 0.03159 0.03107 0.0
O76 O 0.62929 0.00854 0.03017 0.0
C77 C 0.67191 0.03834 -0.00064 0.0
C78 C 0.62335 0.01595 0.96581 0.0
O79 O 0.62669 0.00655 0.97396 0.0
O80 O 0.6291 0.02901 0.97434 0.0
C81 C 0.64845 0.9854 0.99442 0.0
O82 O 0.65949 0.99613 0.98277 0.0
C83 C 0.62774 0.01866 0.03966 0.0
Zn84 Zn 0.63795 0.7028 0.34407 0.0
Zn85 Zn 0.6652 0.70533 0.34385 0.0
O86 O 0.64887 0.68209 0.34378 0.0
O87 O 0.62638 0.6802 0.3437 0.0
O88 O 0.68523 0.70541 0.34493 0.0
O89 O 0.64336 0.71417 0.37289 0.0
O90 O 0.66648 0.71744 0.37192 0.0
C91 C 0.63424 0.67393 0.34368 0.0
C92 C 0.65607 0.71963 0.30675 0.0
O93 O 0.66604 0.71709 0.31546 0.0
O94 O 0.64316 0.71444 0.31562 0.0
C95 C 0.68669 0.69595 0.33346 0.0
O96 O 0.67539 0.68672 0.32004 0.0
C97 C 0.65673 0.71973 0.38121 0.0
Zn98 Zn 0.30974 0.94087 0.33189 0.0
Zn99 Zn 0.30776 0.96483 0.34204 0.0
O100 O 0.33101 0.97346 0.33736 0.0
O101 O 0.33219 0.95388 0.32599 0.0
O102 O 0.30738 0.9838 0.3489 0.0
O103 O 0.3022 0.93247 0.36216 0.0
O104 O 0.29878 0.95138 0.3695 0.0
C105 C 0.33877 0.96784 0.33053 0.0
C106 C 0.28871 0.94371 0.30328 0.0
O107 O 0.29307 0.95562 0.31482 0.0
O108 O 0.29423 0.93542 0.30731 0.0
C109 C 0.30896 0.99288 0.33348 0.0
O110 O 0.31048 0.98955 0.31315 0.0
C111 C 0.2976 0.93888 0.37499 0.0
Zn112 Zn 0.03481 0.31029 0.35063 0.0
Zn113 Zn 0.04003 0.33805 0.34867 0.0
O114 O 0.01619 0.32368 0.34859 0.0
O115 O 0.01209 0.3006 0.35012 0.0
O116 O 0.04242 0.35884 0.34738 0.0
O117 O 0.04569 0.31352 0.32226 0.0
O118 O 0.05046 0.33687 0.32034 0.0
C119 C 0.00692 0.30938 0.349 0.0
C120 C 0.05379 0.32852 0.38666 0.0
O121 O 0.05227 0.3387 0.37698 0.0
O122 O 0.0469 0.31517 0.37898 0.0
C123 C 0.03333 0.36138 0.35801 0.0
O124 O 0.02295 0.35064 0.37043 0.0
C125 C 0.05162 0.32609 0.31239 0.0
Zn126 Zn 0.71082 0.97541 0.34569 0.0
Zn127 Zn 0.68294 0.97223 0.34248 0.0
O128 O 0.69888 0.99516 0.3459 0.0
O129 O 0.72182 0.99809 0.34796 0.0
O130 O 0.66303 0.97219 0.33955 0.0
O131 O 0.70706 0.96535 0.31602 0.0
O132 O 0.68388 0.96199 0.31381 0.0
C133 C 0.71342 0.00378 0.34757 0.0
C134 C 0.6898 0.95624 0.37942 0.0
O135 O 0.68039 0.95915 0.36974 0.0
O136 O 0.70338 0.96211 0.37261 0.0
C137 C 0.66336 0.98273 0.32814 0.0
O138 O 0.67606 0.99232 0.31809 0.0
C139 C 0.69433 0.96022 0.30578 0.0
Zn140 Zn 0.03364 0.73504 0.34869 0.0
Zn141 Zn 0.03411 0.70993 0.34664 0.0
O142 O 0.01102 0.70305 0.35077 0.0
O143 O 0.01143 0.72435 0.35552 0.0
O144 O 0.03395 0.69015 0.34532 0.0
O145 O 0.03987 0.73962 0.31728 0.0
O146 O 0.04323 0.7202 0.31664 0.0
C147 C 1.00397 0.71005 0.35437 0.0
C148 C 0.0547 0.73497 0.38029 0.0
O149 O 0.04919 0.72154 0.37285 0.0
O150 O 0.04999 0.74325 0.37244 0.0
C151 C 0.02258 0.67803 0.33734 0.0
O152 O 0.0106 0.6783 0.32954 0.0
C153 C 0.04417 0.73176 0.30733 0.0
Zn154 Zn 0.30607 0.36527 0.33159 0.0
Zn155 Zn 0.30334 0.33827 0.33491 0.0
O156 O 0.327 0.35398 0.33442 0.0
O157 O 0.32891 0.37611 0.33125 0.0
O158 O 0.30216 0.31803 0.33779 0.0
O159 O 0.29561 0.36203 0.36055 0.0
O160 O 0.29248 0.3393 0.36283 0.0
C161 C 0.33526 0.36838 0.33299 0.0
C162 C 0.28796 0.34525 0.29607 0.0
O163 O 0.29064 0.33601 0.30632 0.0
O164 O 0.29361 0.35863 0.30329 0.0
C165 C 0.31184 0.31552 0.32883 0.0
O166 O 0.32273 0.32619 0.31691 0.0
C167 C 0.29057 0.34964 0.37066 0.0
Zn168 Zn 0.3032 0.03873 0.67962 0.0
Zn169 Zn 0.32989 0.04 0.67857 0.0
O170 O 0.31313 0.01695 0.67667 0.0
O171 O 0.29114 0.01615 0.67618 0.0
O172 O 0.34994 0.04006 0.67982 0.0
O173 O 0.30799 0.04813 0.7098 0.0
O174 O 0.33103 0.05132 0.70759 0.0
C175 C 0.29847 0.00934 0.67567 0.0
C176 C 0.32232 0.05682 0.64368 0.0
O177 O 0.33135 0.05256 0.65089 0.0
O178 O 0.30975 0.05248 0.65317 0.0
C179 C 0.3515 0.02992 0.67051 0.0
O180 O 0.33997 0.01926 0.65882 0.0
C181 C 0.32137 0.05329 0.71784 0.0
Zn182 Zn 0.9755 0.27733 0.65675 0.0
Zn183 Zn 0.97561 0.30112 0.67496 0.0
O184 O 0.9987 0.30885 0.6708 0.0
O185 O 0.99855 0.2894 0.65577 0.0
O186 O 0.97557 0.31963 0.68567 0.0
O187 O 0.96436 0.26538 0.68393 0.0
O188 O 0.96574 0.28532 0.6995 0.0
C189 C 0.00588 0.30289 0.66296 0.0
C190 C 0.95801 0.28618 0.63105 0.0
O191 O 0.96154 0.29539 0.64713 0.0
O192 O 0.9632 0.27741 0.63046 0.0
C193 C 0.98336 0.33202 0.67533 0.0
O194 O 0.99164 0.33253 0.65865 0.0
C195 C 0.96169 0.27139 0.70007 0.0
Zn196 Zn 0.69531 0.64023 0.68572 0.0
Zn197 Zn 0.69939 0.66756 0.68182 0.0
O198 O 0.67592 0.65255 0.68463 0.0
O199 O 0.6725 0.62978 0.68726 0.0
O200 O 0.69943 0.68708 0.67883 0.0
O201 O 0.705 0.6427 0.65639 0.0
O202 O 0.709 0.66572 0.65311 0.0
C203 C 0.66698 0.63827 0.6863 0.0
C204 C 0.71581 0.66104 0.71918 0.0
O205 O 0.71331 0.67044 0.70904 0.0
O206 O 0.70896 0.64734 0.7129 0.0
C207 C 0.71029 0.70061 0.68253 0.0
O208 O 0.72387 0.70321 0.68884 0.0
C209 C 0.71024 0.65488 0.64564 0.0
Zn210 Zn 0.37137 0.29527 0.67609 0.0
Zn211 Zn 0.34574 0.2963 0.6752 0.0
O212 O 0.36359 0.31865 0.67851 0.0
O213 O 0.38461 0.31766 0.68131 0.0
O214 O 0.32685 0.29818 0.67388 0.0
O215 O 0.36705 0.28721 0.64529 0.0
O216 O 0.34469 0.2857 0.64556 0.0
C217 C 0.37813 0.32532 0.68097 0.0
C218 C 0.35003 0.27691 0.70946 0.0
O219 O 0.34237 0.28268 0.70219 0.0
O220 O 0.36263 0.28027 0.70087 0.0
C221 C 0.3265 0.30859 0.68451 0.0
O222 O 0.33836 0.31789 0.69706 0.0
C223 C 0.35429 0.28332 0.63597 0.0
Zn224 Zn 0.69978 0.0696 0.68447 0.0
Zn225 Zn 0.7001 0.04434 0.67756 0.0
O226 O 0.67688 0.03739 0.67992 0.0
O227 O 0.67702 0.05847 0.68598 0.0
O228 O 0.69989 0.02472 0.67287 0.0
O229 O 0.70931 0.07735 0.65514 0.0
O230 O 0.71068 0.05699 0.64978 0.0
C231 C 0.66967 0.04429 0.68301 0.0
C232 C 0.71831 0.06569 0.71666 0.0
O233 O 0.71404 0.05368 0.7054 0.0
O234 O 0.71338 0.07432 0.71146 0.0
C235 C 0.68962 0.0122 0.68099 0.0
O236 O 0.6788 0.01189 0.6928 0.0
C237 C 0.71322 0.06987 0.64339 0.0
Zn238 Zn 0.9776 0.70188 0.67035 0.0
Zn239 Zn 0.97398 0.67438 0.67222 0.0
O240 O 0.99774 0.68957 0.67164 0.0
O241 O 1.00043 0.71214 0.67095 0.0
O242 O 0.97207 0.65378 0.67471 0.0
O243 O 0.96687 0.69835 0.69904 0.0
O244 O 0.96334 0.67543 0.70038 0.0
C245 C 0.00634 0.70398 0.67154 0.0
C246 C 0.9592 0.68258 0.63412 0.0
O247 O 0.96139 0.67287 0.64392 0.0
O248 O 0.96535 0.69592 0.64175 0.0
C249 C 0.98178 0.65097 0.66665 0.0
O250 O 0.99333 0.66159 0.65558 0.0
C251 C 0.96159 0.68576 0.70867 0.0
H252 H 0.13996 0.31311 0.13048 0.0
H253 H 0.13348 0.31616 0.06057 0.0
H254 H 0.1231 0.34105 0.10628 0.0
H255 H 0.13639 0.29287 0.10317 0.0
H256 H 0.13823 0.29696 0.07438 0.0
H257 H 0.15963 0.30798 0.12937 0.0
H258 H 0.20309 0.32325 0.09965 0.0
H259 H 0.16319 0.30937 0.05832 0.0
C260 C 0.13727 0.31815 0.11676 0.0
C261 C 0.13194 0.32798 0.12099 0.0
C262 C 0.13827 0.31409 0.09501 0.0
C263 C 0.13358 0.31982 0.07733 0.0
C264 C 0.12838 0.3298 0.08141 0.0
C265 C 0.12795 0.33405 0.10317 0.0
C266 C 0.14238 0.30216 0.09104 0.0
C267 C 0.15946 0.30846 0.09354 0.0
C268 C 0.16644 0.31069 0.11471 0.0
C269 C 0.18225 0.31633 0.11694 0.0
C270 C 0.19095 0.31932 0.09801 0.0
C271 C 0.18413 0.31664 0.07697 0.0
C272 C 0.16844 0.31143 0.07467 0.0
H273 H 0.68473 0.83437 0.12684 0.0
H274 H 0.67355 0.82143 0.05823 0.0
H275 H 0.65961 0.78748 0.10831 0.0
H276 H 0.69886 0.85247 0.09444 0.0
H277 H 0.69026 0.84761 0.06748 0.0
H278 H 0.68433 0.85606 0.12564 0.0
H279 H 0.65965 0.87731 0.1044 0.0
H280 H 0.67306 0.85599 0.05661 0.0
C281 C 0.67894 0.82577 0.11418 0.0
C282 C 0.67157 0.81047 0.12017 0.0
C283 C 0.67912 0.8299 0.09189 0.0
C284 C 0.67269 0.81845 0.07553 0.0
C285 C 0.66562 0.80313 0.08145 0.0
C286 C 0.66472 0.79928 0.10377 0.0
C287 C 0.68763 0.84645 0.08536 0.0
C288 C 0.67889 0.85424 0.09068 0.0
C289 C 0.67856 0.85853 0.1126 0.0
C290 C 0.67137 0.86659 0.11771 0.0
C291 C 0.66451 0.8704 0.10068 0.0
C292 C 0.66517 0.86678 0.07864 0.0
C293 C 0.67228 0.85858 0.07367 0.0
H294 H 0.15459 0.8302 0.13501 0.0
H295 H 0.14999 0.8275 0.06414 0.0
H296 H 0.1103 0.80202 0.10416 0.0
H297 H 0.17674 0.83699 0.1115 0.0
H298 H 0.1749 0.83678 0.08219 0.0
H299 H 0.17902 0.8581 0.13359 0.0
H300 H 0.19814 0.90039 0.09933 0.0
H301 H 0.17825 0.85863 0.06268 0.0
C302 C 0.14739 0.82615 0.1202 0.0
C303 C 0.13154 0.81608 0.12197 0.0
C304 C 0.15408 0.83048 0.09936 0.0
C305 C 0.14477 0.82463 0.08021 0.0
C306 C 0.1289 0.81441 0.08177 0.0
C307 C 0.12238 0.8105 0.10273 0.0
C308 C 0.17129 0.83975 0.09763 0.0
C309 C 0.17722 0.8565 0.0981 0.0
C310 C 0.18101 0.86434 0.11836 0.0
C311 C 0.18867 0.88023 0.11893 0.0
C312 C 0.19183 0.88813 0.09893 0.0
C313 C 0.18849 0.88054 0.07853 0.0
C314 C 0.18071 0.86464 0.07827 0.0
H315 H 0.35858 0.19471 0.8932 0.0
H316 H 0.3686 0.20557 0.96218 0.0
H317 H 0.33808 0.21595 0.92747 0.0
H318 H 0.38222 0.19737 0.91351 0.0
H319 H 0.3821 0.19615 0.94284 0.0
H320 H 0.36295 0.17487 0.89023 0.0
H321 H 0.34781 0.13165 0.91959 0.0
H322 H 0.36966 0.17171 0.96018 0.0
C323 C 0.35627 0.19855 0.90839 0.0
C324 C 0.34718 0.20516 0.90783 0.0
C325 C 0.36351 0.19801 0.92813 0.0
C326 C 0.36214 0.20484 0.94732 0.0
C327 C 0.35311 0.21151 0.94701 0.0
C328 C 0.34505 0.21083 0.92758 0.0
C329 C 0.37453 0.1923 0.92781 0.0
C330 C 0.36636 0.17522 0.92571 0.0
C331 C 0.36119 0.16814 0.90486 0.0
C332 C 0.35419 0.15238 0.9027 0.0
C333 C 0.35251 0.14373 0.92144 0.0
C334 C 0.35827 0.1506 0.9421 0.0
C335 C 0.36501 0.16634 0.94427 0.0
H336 H 0.87937 0.16312 0.88485 0.0
H337 H 0.87081 0.16982 0.95197 0.0
H338 H 0.89182 0.20746 0.90767 0.0
H339 H 0.8739 0.14393 0.91356 0.0
H340 H 0.86941 0.14642 0.94094 0.0
H341 H 0.85408 0.1404 0.88181 0.0
H342 H 0.80779 0.10971 0.90117 0.0
H343 H 0.84311 0.13284 0.951 0.0
C344 C 0.87947 0.17046 0.89764 0.0
C345 C 0.88627 0.18604 0.89364 0.0
C346 C 0.87355 0.16444 0.91853 0.0
C347 C 0.87474 0.17424 0.93561 0.0
C348 C 0.88137 0.18979 0.9317 0.0
C349 C 0.88668 0.19544 0.9106 0.0
C350 C 0.86746 0.1479 0.9232 0.0
C351 C 0.85059 0.138 0.91714 0.0
C352 C 0.84582 0.13505 0.89476 0.0
C353 C 0.83037 0.12493 0.88912 0.0
C354 C 0.81973 0.11758 0.9057 0.0
C355 C 0.82419 0.12032 0.928 0.0
C356 C 0.8396 0.13076 0.93374 0.0
H357 H 0.84913 0.66353 0.88228 0.0
H358 H 0.85045 0.65751 0.95257 0.0
H359 H 0.89131 0.67418 0.91486 0.0
H360 H 0.82518 0.64561 0.90518 0.0
H361 H 0.82623 0.64838 0.93429 0.0
H362 H 0.82846 0.66639 0.87948 0.0
H363 H 0.81194 0.69388 0.90469 0.0
H364 H 0.82084 0.66635 0.94882 0.0
C365 C 0.85552 0.66487 0.89744 0.0
C366 C 0.8712 0.66996 0.89642 0.0
C367 C 0.84801 0.66092 0.91777 0.0
C368 C 0.85628 0.66142 0.93703 0.0
C369 C 0.87195 0.66628 0.93605 0.0
C370 C 0.87938 0.67098 0.91583 0.0
C371 C 0.83086 0.65434 0.91842 0.0
C372 C 0.8265 0.66619 0.91488 0.0
C373 C 0.82566 0.67096 0.8934 0.0
C374 C 0.82021 0.68081 0.88959 0.0
C375 C 0.81609 0.68626 0.90767 0.0
C376 C 0.81558 0.68071 0.92909 0.0
C377 C 0.82135 0.67104 0.93262 0.0
H378 H 0.80649 0.64686 0.46935 0.0
H379 H 0.80515 0.65453 0.39958 0.0
H380 H 0.78867 0.67405 0.44575 0.0
H381 H 0.80707 0.62955 0.44102 0.0
H382 H 0.80941 0.63467 0.41259 0.0
H383 H 0.82922 0.64578 0.46884 0.0
H384 H 0.87399 0.66464 0.44152 0.0
H385 H 0.83469 0.64847 0.3981 0.0
C386 C 0.80429 0.65242 0.45582 0.0
C387 C 0.79785 0.66128 0.46015 0.0
C388 C 0.80726 0.65015 0.43406 0.0
C389 C 0.80346 0.6567 0.41645 0.0
C390 C 0.79694 0.66557 0.4206 0.0
C391 C 0.79447 0.66795 0.4425 0.0
C392 C 0.81278 0.63935 0.42965 0.0
C393 C 0.82996 0.64682 0.43307 0.0
C394 C 0.83648 0.64922 0.45458 0.0
C395 C 0.85241 0.65589 0.45765 0.0
C396 C 0.86173 0.65992 0.43922 0.0
C397 C 0.85541 0.6571 0.41784 0.0
C398 C 0.83955 0.6507 0.41471 0.0
H399 H 0.35226 0.16541 0.45409 0.0
H400 H 0.33777 0.1511 0.3865 0.0
H401 H 0.33313 0.1189 0.43548 0.0
H402 H 0.36232 0.18378 0.42175 0.0
H403 H 0.35351 0.17771 0.39508 0.0
H404 H 0.34448 0.18235 0.45384 0.0
H405 H 0.31831 0.20212 0.43322 0.0
H406 H 0.33617 0.18557 0.38455 0.0
C407 C 0.34685 0.15656 0.44168 0.0
C408 C 0.34258 0.14171 0.44742 0.0
C409 C 0.34492 0.16009 0.41975 0.0
C410 C 0.33882 0.14851 0.40357 0.0
C411 C 0.33458 0.13368 0.40932 0.0
C412 C 0.33635 0.13038 0.43118 0.0
C413 C 0.35113 0.1764 0.41305 0.0
C414 C 0.34056 0.18214 0.4186 0.0
C415 C 0.33881 0.1849 0.44076 0.0
C416 C 0.33059 0.19189 0.44614 0.0
C417 C 0.3239 0.19594 0.42916 0.0
C418 C 0.32593 0.19385 0.40694 0.0
C419 C 0.33419 0.18682 0.4017 0.0
H420 H 0.82463 0.16983 0.47166 0.0
H421 H 0.81973 0.1645 0.40101 0.0
H422 H 0.78048 0.13967 0.44208 0.0
H423 H 0.84673 0.17587 0.44761 0.0
H424 H 0.84472 0.17586 0.41837 0.0
H425 H 0.84408 0.19557 0.47017 0.0
H426 H 0.87019 0.23927 0.44025 0.0
H427 H 0.85246 0.19906 0.40057 0.0
C428 C 0.8174 0.16531 0.45697 0.0
C429 C 0.80165 0.15498 0.45914 0.0
C430 C 0.82395 0.16915 0.43599 0.0
C431 C 0.81459 0.16223 0.41713 0.0
C432 C 0.79886 0.15153 0.41917 0.0
C433 C 0.79243 0.14841 0.4402 0.0
C434 C 0.84115 0.17867 0.43398 0.0
C435 C 0.8471 0.19545 0.43511 0.0
C436 C 0.84853 0.20247 0.45559 0.0
C437 C 0.85661 0.21834 0.45758 0.0
C438 C 0.86291 0.22709 0.43858 0.0
C439 C 0.86154 0.22032 0.41794 0.0
C440 C 0.85328 0.20444 0.41628 0.0
H441 H 0.03519 0.53344 0.2206 0.0
H442 H 0.03537 0.54012 0.29078 0.0
H443 H 0.01519 0.55777 0.24617 0.0
H444 H 0.05379 0.53177 0.24663 0.0
H445 H 0.05149 0.53174 0.27571 0.0
H446 H 0.03113 0.50932 0.22357 0.0
H447 H 0.01529 0.46673 0.25546 0.0
H448 H 0.04025 0.50792 0.29315 0.0
C449 C 0.03161 0.53723 0.23461 0.0
C450 C 0.02402 0.54518 0.23094 0.0
C451 C 0.03534 0.53489 0.2562 0.0
C452 C 0.03179 0.5411 0.27419 0.0
C453 C 0.02436 0.54926 0.27066 0.0
C454 C 0.02018 0.55083 0.24907 0.0
C455 C 0.04504 0.52781 0.2597 0.0
C456 C 0.03573 0.51065 0.25883 0.0
C457 C 0.02956 0.503 0.23856 0.0
C458 C 0.02193 0.48714 0.23738 0.0
C459 C 0.02052 0.47893 0.25654 0.0
C460 C 0.02727 0.48634 0.27655 0.0
C461 C 0.03473 0.50219 0.27775 0.0
H462 H 0.53399 0.49784 0.22294 0.0
H463 H 0.53912 0.50396 0.29363 0.0
H464 H 0.55392 0.54231 0.25133 0.0
H465 H 0.53378 0.4782 0.24872 0.0
H466 H 0.53199 0.47968 0.27773 0.0
H467 H 0.51189 0.4737 0.22242 0.0
H468 H 0.46702 0.44935 0.25008 0.0
H469 H 0.50682 0.46913 0.29314 0.0
C470 C 0.53713 0.5051 0.23735 0.0
C471 C 0.54372 0.52076 0.23456 0.0
C472 C 0.53503 0.49883 0.25861 0.0
C473 C 0.54006 0.50853 0.2772 0.0
C474 C 0.54669 0.5242 0.2745 0.0
C475 C 0.54819 0.53013 0.25327 0.0
C476 C 0.52868 0.48204 0.26125 0.0
C477 C 0.51141 0.47297 0.25818 0.0
C478 C 0.50471 0.46981 0.23677 0.0
C479 C 0.4887 0.46154 0.23384 0.0
C480 C 0.47941 0.45615 0.25232 0.0
C481 C 0.48585 0.45863 0.27361 0.0
C482 C 0.50185 0.46719 0.27661 0.0
H483 H 0.5097 0.9871 0.21292 0.0
H484 H 0.5175 0.98602 0.283 0.0
H485 H 0.55528 0.0042 0.23866 0.0
H486 H 0.48861 0.96914 0.24001 0.0
H487 H 0.49173 0.97353 0.26876 0.0
H488 H 0.48687 0.98695 0.21334 0.0
H489 H 0.46863 0.01239 0.24068 0.0
H490 H 0.4872 0.9924 0.28382 0.0
C491 C 0.51746 0.98997 0.22699 0.0
C492 C 0.53321 0.99663 0.22347 0.0
C493 C 0.51171 0.9866 0.24854 0.0
C494 C 0.52188 0.98931 0.26648 0.0
C495 C 0.53765 0.99576 0.26299 0.0
C496 C 0.5432 0.99974 0.24154 0.0
C497 C 0.49462 0.97866 0.25205 0.0
C498 C 0.48853 0.98917 0.24889 0.0
C499 C 0.48492 0.99201 0.22754 0.0
C500 C 0.47806 1.00069 0.22446 0.0
C501 C 0.47489 0.0066 0.24298 0.0
C502 C 0.47794 0.00355 0.26446 0.0
C503 C 0.48506 0.99506 0.2673 0.0
H504 H 0.47552 0.98418 0.79953 0.0
H505 H 0.47266 0.99192 0.73017 0.0
H506 H 0.46096 0.01447 0.77826 0.0
H507 H 0.47084 0.96484 0.76904 0.0
H508 H 0.47548 0.97131 0.74146 0.0
H509 H 0.49229 0.97593 0.79934 0.0
H510 H 0.53514 0.98408 0.77525 0.0
H511 H 0.50139 0.9822 0.72951 0.0
C512 C 0.4739 0.99037 0.78639 0.0
C513 C 0.46877 1.00023 0.79155 0.0
C514 C 0.47574 0.98755 0.76431 0.0
C515 C 0.47218 0.99467 0.74726 0.0
C516 C 0.46707 0.00462 0.75224 0.0
C517 C 0.46582 0.00759 0.77441 0.0
C518 C 0.47861 0.97491 0.75902 0.0
C519 C 0.49496 0.9789 0.76387 0.0
C520 C 0.49986 0.97833 0.78566 0.0
C521 C 0.51434 0.98017 0.78974 0.0
C522 C 0.52386 0.98246 0.77203 0.0
C523 C 0.51932 0.98323 0.75035 0.0
C524 C 0.50498 0.98174 0.74632 0.0
H525 H 0.00917 0.49449 0.80265 0.0
H526 H 0.99801 0.48228 0.73379 0.0
H527 H 0.98476 0.44786 0.78308 0.0
H528 H 0.02265 0.51326 0.77138 0.0
H529 H 0.01503 0.5084 0.74387 0.0
H530 H 0.00466 0.51367 0.8014 0.0
H531 H 0.98174 0.53619 0.77799 0.0
H532 H 0.99942 0.5181 0.73146 0.0
C533 C 1.00348 0.48602 0.7898 0.0
C534 C 0.99624 0.47067 0.7954 0.0
C535 C 1.00358 0.49036 0.76763 0.0
C536 C 0.99727 0.47909 0.75099 0.0
C537 C 0.99047 0.46371 0.75649 0.0
C538 C 0.98965 0.45967 0.77873 0.0
C539 C 0.01177 0.50697 0.76151 0.0
C540 C 1.00229 0.51412 0.76591 0.0
C541 C 0.99999 0.51694 0.78778 0.0
C542 C 0.99235 0.52465 0.79225 0.0
C543 C 0.98691 0.52952 0.77461 0.0
C544 C 0.98949 0.52734 0.75268 0.0
C545 C 0.99712 0.51953 0.74836 0.0
H546 H 0.4955 0.49577 0.8151 0.0
H547 H 0.49253 0.48645 0.74544 0.0
H548 H 0.45236 0.46307 0.78519 0.0
H549 H 0.51806 0.49827 0.79136 0.0
H550 H 0.51701 0.50076 0.76247 0.0
H551 H 0.52266 0.51798 0.81753 0.0
H552 H 0.54191 0.56259 0.79082 0.0
H553 H 0.51835 0.52369 0.74795 0.0
C554 C 0.48867 0.49022 0.80037 0.0
C555 C 0.47291 0.47977 0.80215 0.0
C556 C 0.49578 0.4929 0.77985 0.0
C557 C 0.48695 0.48486 0.7611 0.0
C558 C 0.47124 0.47398 0.7628 0.0
C559 C 0.46427 0.47191 0.78331 0.0
C560 C 0.51302 0.50234 0.77864 0.0
C561 C 0.51918 0.51897 0.78246 0.0
C562 C 0.5242 0.52529 0.80369 0.0
C563 C 0.53221 0.54105 0.80686 0.0
C564 C 0.53474 0.55043 0.78863 0.0
C565 C 0.52997 0.54435 0.76725 0.0
C566 C 0.52177 0.52853 0.76441 0.0
H567 H 0.69002 0.85928 0.55408 0.0
H568 H 0.70115 0.87497 0.62147 0.0
H569 H 0.67334 0.88618 0.58126 0.0
H570 H 0.71523 0.86464 0.57677 0.0
H571 H 0.71341 0.863 0.60591 0.0
H572 H 0.69767 0.8425 0.55177 0.0
H573 H 0.68056 0.79885 0.58062 0.0
H574 H 0.69988 0.83831 0.62243 0.0
C575 C 0.68861 0.86478 0.56815 0.0
C576 C 0.68034 0.87216 0.56538 0.0
C577 C 0.69588 0.86536 0.58845 0.0
C578 C 0.6949 0.87364 0.60612 0.0
C579 C 0.68648 0.88089 0.60363 0.0
C580 C 0.67901 0.8798 0.58345 0.0
C581 C 0.7067 0.85939 0.59008 0.0
C582 C 0.69865 0.84233 0.58754 0.0
C583 C 0.69486 0.83556 0.56637 0.0
C584 C 0.6879 0.81983 0.56392 0.0
C585 C 0.68515 0.8109 0.58266 0.0
C586 C 0.68973 0.81747 0.60374 0.0
C587 C 0.6962 0.83317 0.60618 0.0
H588 H 0.20661 0.82971 0.55365 0.0
H589 H 0.20738 0.83775 0.62362 0.0
H590 H 0.22473 0.87486 0.5784 0.0
H591 H 0.20471 0.81088 0.58156 0.0
H592 H 0.20278 0.81354 0.61012 0.0
H593 H 0.18242 0.80817 0.55448 0.0
H594 H 0.13822 0.77763 0.5812 0.0
H595 H 0.1777 0.79958 0.62463 0.0
C596 C 0.20882 0.83733 0.56733 0.0
C597 C 0.21546 0.85287 0.56331 0.0
C598 C 0.20543 0.83165 0.58899 0.0
C599 C 0.20928 0.84184 0.6068 0.0
C600 C 0.21622 0.85742 0.60285 0.0
C601 C 0.21897 0.86276 0.58119 0.0
C602 C 0.19937 0.81504 0.59317 0.0
C603 C 0.18211 0.80532 0.58998 0.0
C604 C 0.17537 0.80271 0.56861 0.0
C605 C 0.15946 0.79303 0.56545 0.0
C606 C 0.15045 0.78545 0.5836 0.0
C607 C 0.15692 0.78766 0.60484 0.0
C608 C 0.1727 0.79786 0.60814 0.0
H609 H 0.1825 0.32568 0.55351 0.0
H610 H 0.18825 0.32165 0.62338 0.0
H611 H 0.22697 0.33927 0.5809 0.0
H612 H 0.16044 0.30742 0.57906 0.0
H613 H 0.16297 0.3108 0.60805 0.0
H614 H 0.16121 0.32743 0.55352 0.0
H615 H 0.14092 0.35077 0.58152 0.0
H616 H 0.15713 0.32831 0.624 0.0
C617 C 0.18985 0.32776 0.56786 0.0
C618 C 0.20555 0.33357 0.56492 0.0
C619 C 0.18355 0.324 0.58904 0.0
C620 C 0.19311 0.32544 0.60721 0.0
C621 C 0.20879 0.33102 0.6043 0.0
C622 C 0.21499 0.33552 0.58328 0.0
C623 C 0.1664 0.3165 0.59177 0.0
C624 C 0.16078 0.32744 0.58915 0.0
C625 C 0.15843 0.3316 0.56793 0.0
C626 C 0.15161 0.34034 0.56511 0.0
C627 C 0.14719 0.34497 0.58378 0.0
C628 C 0.14892 0.34056 0.60507 0.0
C629 C 0.15604 0.33205 0.60769 0.0
C630 C 1.00389 0.40337 0.08224 0.0
C631 C 0.9884 0.39226 0.07822 0.0
C632 C 0.00799 0.41409 0.09918 0.0
C633 C 0.99458 0.42106 0.15107 0.0
H634 H 0.02013 0.46363 0.13691 0.0
C635 C 1.00237 0.46623 0.21317 0.0
C636 C 0.01719 0.47893 0.21599 0.0
C637 C 0.99878 0.4565 0.19513 0.0
C638 C 0.01313 0.4518 0.14125 0.0
H639 H 0.96516 0.3833 0.08932 0.0
H640 H 0.97235 0.40171 0.11904 0.0
H641 H 0.01493 0.44445 0.10899 0.0
H642 H 0.03972 0.49179 0.20185 0.0
H643 H 0.03363 0.47467 0.17053 0.0
H644 H 0.99295 0.42821 0.18334 0.0
C645 C 0.98131 0.40224 0.10905 0.0
C646 C 0.01018 0.44083 0.12524 0.0
C647 C 0.9772 0.39172 0.09198 0.0
C648 C 0.02814 0.48218 0.19984 0.0
C649 C 0.02463 0.47232 0.18193 0.0
C650 C 0.99765 0.43199 0.16711 0.0
C651 C 0.9967 0.41369 0.11261 0.0
C652 C 1.00075 0.42535 0.12994 0.0
C653 C 0.01004 0.45908 0.17972 0.0
C654 C 0.00682 0.44753 0.16238 0.0
H655 H 0.01277 0.40412 0.07183 0.0
H656 H 0.01997 0.42274 0.10169 0.0
H657 H 0.98742 0.40921 0.15523 0.0
H658 H 0.99373 0.46351 0.22542 0.0
H659 H 0.9873 0.44668 0.19366 0.0
C660 C 0.62298 0.58919 0.08413 0.0
C661 C 0.6251 0.60319 0.07742 0.0
C662 C 0.61185 0.58029 0.09935 0.0
C663 C 0.58866 0.58109 0.14386 0.0
H664 H 0.56462 0.53782 0.1324 0.0
C665 C 0.54598 0.54014 0.20728 0.0
C666 C 0.54775 0.52783 0.21241 0.0
C667 C 0.55255 0.54875 0.18841 0.0
C668 C 0.57124 0.54986 0.13585 0.0
H669 H 0.61744 0.61903 0.08207 0.0
H670 H 0.59793 0.6034 0.10907 0.0
H671 H 0.58224 0.55473 0.10467 0.0
H672 H 0.55705 0.51438 0.20109 0.0
H673 H 0.56843 0.52931 0.16815 0.0
H674 H 0.57804 0.57618 0.17534 0.0
C675 C 0.60494 0.59937 0.10232 0.0
C676 C 0.58133 0.55955 0.11999 0.0
C677 C 0.61611 0.60832 0.08692 0.0
C678 C 0.55532 0.52368 0.19748 0.0
C679 C 0.56188 0.53228 0.1786 0.0
C680 C 0.57857 0.57138 0.15977 0.0
C681 C 0.60252 0.58513 0.10835 0.0
C682 C 0.59045 0.57521 0.12406 0.0
C683 C 0.561 0.5452 0.17423 0.0
C684 C 0.57003 0.55562 0.15616 0.0
H685 H 0.62976 0.5849 0.07734 0.0
H686 H 0.61054 0.56956 0.10407 0.0
H687 H 0.5956 0.59309 0.14751 0.0
H688 H 0.54001 0.54347 0.21834 0.0
H689 H 0.55142 0.55846 0.18527 0.0
C690 C 0.38833 0.97817 0.07686 0.0
C691 C 0.38722 0.99002 0.06731 0.0
C692 C 0.39968 0.98118 0.09271 0.0
C693 C 0.42626 0.00854 0.13371 0.0
H694 H 0.44826 0.98759 0.12523 0.0
C695 C 0.47316 0.01545 0.19583 0.0
C696 C 0.47199 1.00183 0.20249 0.0
C697 C 0.46498 0.01581 0.17726 0.0
C698 C 0.4422 0.99347 0.12792 0.0
H699 H 0.39674 0.01429 0.06784 0.0
H700 H 0.41658 0.01952 0.096 0.0
H701 H 0.42902 0.98473 0.09793 0.0
H702 H 0.46183 0.97807 0.19432 0.0
H703 H 0.4476 0.97866 0.162 0.0
H704 H 0.43906 0.01689 0.16409 0.0
C705 C 0.40865 0.00792 0.09094 0.0
C706 C 0.43118 0.99184 0.11227 0.0
C707 C 0.39728 0.00491 0.07487 0.0
C708 C 0.46317 0.98879 0.18945 0.0
C709 C 0.45497 0.98914 0.17092 0.0
C710 C 0.43724 0.0101 0.14948 0.0
C711 C 0.41019 0.99609 0.09955 0.0
C712 C 0.42286 0.99909 0.11523 0.0
C713 C 0.45543 0.00255 0.16494 0.0
C714 C 0.44512 1.00234 0.14699 0.0
H715 H 0.3807 0.96654 0.07163 0.0
H716 H 0.40036 0.9718 0.09944 0.0
H717 H 0.41998 0.0142 0.13645 0.0
H718 H 0.47999 0.02572 0.20547 0.0
H719 H 0.46583 0.02639 0.17287 0.0
C720 C 0.38572 0.9782 0.94339 0.0
C721 C 0.38605 0.99035 0.95425 0.0
C722 C 0.39545 0.98074 0.92599 0.0
C723 C 0.43204 0.00923 0.90231 0.0
H724 H 0.41672 0.98122 0.85272 0.0
C725 C 0.46594 0.01442 0.82287 0.0
C726 C 0.46359 1.00077 0.81408 0.0
C727 C 0.45797 0.01434 0.84144 0.0
C728 C 0.42121 0.98904 0.86658 0.0
H729 H 0.39672 0.01477 0.95505 0.0
H730 H 0.41378 0.01925 0.9242 0.0
H731 H 0.39905 0.97938 0.8806 0.0
H732 H 0.45189 0.97648 0.81885 0.0
H733 H 0.43831 0.9764 0.85143 0.0
H734 H 0.45427 0.01891 0.88795 0.0
C735 C 0.40601 0.00774 0.92945 0.0
C736 C 0.41108 0.98802 0.88251 0.0
C737 C 0.39616 0.00517 0.94695 0.0
C738 C 0.45407 0.98721 0.82526 0.0
C739 C 0.44611 0.98713 0.84375 0.0
C740 C 0.44221 0.01031 0.8862 0.0
C741 C 0.40578 0.99551 0.91888 0.0
C742 C 0.4164 0.99788 0.90081 0.0
C743 C 0.44749 1.0006 0.85147 0.0
C744 C 0.43692 1.0 0.86842 0.0
H745 H 0.3781 0.96663 0.94855 0.0
H746 H 0.39513 0.97108 0.91847 0.0
H747 H 0.43649 0.01693 0.9163 0.0
H748 H 0.4733 0.02506 0.81467 0.0
H749 H 0.45929 0.0249 0.84708 0.0
C750 C 0.97295 0.38992 0.95249 0.0
C751 C 0.98527 0.39027 0.96395 0.0
C752 C 0.97552 0.39932 0.93447 0.0
C753 C 1.0042 0.43517 0.90972 0.0
H754 H 0.9767 0.41905 0.8587 0.0
C755 C 0.01006 0.4689 0.82888 0.0
C756 C 0.99627 0.46559 0.81826 0.0
C757 C 0.00982 0.46097 0.84788 0.0
C758 C 0.98437 0.42381 0.87293 0.0
H759 H 0.01002 0.40071 0.96523 0.0
H760 H 0.01454 0.4173 0.93349 0.0
H761 H 0.97464 0.40215 0.88824 0.0
H762 H 0.97151 0.45235 0.81982 0.0
H763 H 0.97101 0.43889 0.85327 0.0
H764 H 0.01383 0.45692 0.89431 0.0
C765 C 1.00288 0.4097 0.93865 0.0
C766 C 0.98323 0.41408 0.88982 0.0
C767 C 1.00028 0.40013 0.95668 0.0
C768 C 0.98228 0.45508 0.82776 0.0
C769 C 0.98203 0.44726 0.84673 0.0
C770 C 0.00534 0.44496 0.89274 0.0
C771 C 0.9905 0.40941 0.92742 0.0
C772 C 0.99293 0.41966 0.9086 0.0
C773 C 0.99576 0.44963 0.85648 0.0
C774 C 0.99521 0.43941 0.87435 0.0
H775 H 0.96124 0.38248 0.9576 0.0
H776 H 0.96575 0.39894 0.92636 0.0
H777 H 0.01178 0.43982 0.92406 0.0
H778 H 0.02098 0.47684 0.82165 0.0
H779 H 0.02059 0.46306 0.85498 0.0
C780 C 0.62791 0.60019 0.9536 0.0
C781 C 0.629 0.61234 0.96561 0.0
C782 C 0.61749 0.59369 0.93595 0.0
C783 C 0.58117 0.58879 0.91398 0.0
H784 H 0.59087 0.57274 0.86329 0.0
C785 C 0.54113 0.561 0.8365 0.0
C786 C 0.54044 0.54799 0.82805 0.0
C787 C 0.5512 0.56915 0.85405 0.0
C788 C 0.58795 0.57705 0.87744 0.0
H789 H 0.62037 0.62757 0.96786 0.0
H790 H 0.60227 0.6163 0.93663 0.0
H791 H 0.61081 0.58771 0.89079 0.0
H792 H 0.5493 0.53301 0.83197 0.0
H793 H 0.56668 0.54709 0.86269 0.0
H794 H 0.55826 0.57814 0.90031 0.0
C795 C 0.60934 0.61168 0.94121 0.0
C796 C 0.59938 0.58565 0.89319 0.0
C797 C 0.6198 0.6182 0.95897 0.0
C798 C 0.54942 0.54287 0.83824 0.0
C799 C 0.55953 0.55106 0.85564 0.0
C800 C 0.56973 0.58027 0.89806 0.0
C801 C 0.6079 0.59918 0.92971 0.0
C802 C 0.59608 0.59139 0.91188 0.0
C803 C 0.56085 0.56451 0.8633 0.0
C804 C 0.57296 0.57408 0.87986 0.0
H805 H 0.63478 0.59537 0.95824 0.0
H806 H 0.61657 0.58396 0.92771 0.0
H807 H 0.57819 0.59291 0.92827 0.0
H808 H 0.53431 0.56518 0.82898 0.0
H809 H 0.55198 0.57948 0.85964 0.0
C810 C 0.99943 0.60423 0.9457 0.0
C811 C 0.01496 0.61287 0.95246 0.0
C812 C 0.99453 0.59235 0.93046 0.0
C813 C 0.00578 0.56634 0.90847 0.0
H814 H 0.98096 0.56299 0.85699 0.0
C815 C 0.00512 0.5366 0.82842 0.0
C816 C 0.99178 0.5296 0.81499 0.0
C817 C 0.00555 0.54395 0.84795 0.0
C818 C 0.98761 0.56353 0.87151 0.0
H819 H 0.03754 0.61601 0.94804 0.0
H820 H 0.02901 0.59548 0.92163 0.0
H821 H 0.98618 0.58177 0.88551 0.0
H822 H 0.96808 0.52375 0.81233 0.0
H823 H 0.96878 0.53647 0.84661 0.0
H824 H 0.00753 0.54836 0.89434 0.0
C825 C 0.02058 0.5977 0.9283 0.0
C826 C 0.99063 0.57432 0.8878 0.0
C827 C 0.02548 0.60957 0.94332 0.0
C828 C 0.97857 0.52922 0.82224 0.0
C829 C 0.979 0.53656 0.8418 0.0
C830 C 1.00272 0.55551 0.89226 0.0
C831 C 0.00505 0.58883 0.9219 0.0
C832 C 1.00011 0.57612 0.90612 0.0
C833 C 0.99264 0.54442 0.85451 0.0
C834 C 0.99395 0.55426 0.87329 0.0
H835 H 0.99104 0.60646 0.95245 0.0
H836 H 0.98249 0.5857 0.92574 0.0
H837 H 0.01289 0.56728 0.92266 0.0
H838 H 0.01555 0.53728 0.82315 0.0
H839 H 0.01631 0.55003 0.85718 0.0
C840 C 0.39846 0.40345 0.95773 0.0
C841 C 0.38661 0.40588 0.96335 0.0
C842 C 0.40863 0.41199 0.94105 0.0
C843 C 0.42225 0.44795 0.91024 0.0
H844 H 0.44012 0.43151 0.87187 0.0
C845 C 0.4519 0.47448 0.82788 0.0
C846 C 0.46571 0.47505 0.82393 0.0
C847 C 0.44357 0.4674 0.84674 0.0
C848 C 0.43534 0.43628 0.88267 0.0
H849 H 0.37546 0.41837 0.95512 0.0
H850 H 0.39258 0.43264 0.92542 0.0
H851 H 0.42213 0.41543 0.89989 0.0
H852 H 0.4819 0.4691 0.83667 0.0
H853 H 0.46718 0.45649 0.8696 0.0
H854 H 0.43502 0.46861 0.89223 0.0
C855 C 0.39456 0.4247 0.93441 0.0
C856 C 0.42505 0.42709 0.89876 0.0
C857 C 0.38462 0.41639 0.95129 0.0
C858 C 0.47138 0.46896 0.83954 0.0
C859 C 0.46291 0.46164 0.85821 0.0
C860 C 0.43234 0.45704 0.89392 0.0
C861 C 0.40697 0.42293 0.92946 0.0
C862 C 0.41826 0.43276 0.91265 0.0
C863 C 0.44878 0.46052 0.8617 0.0
C864 C 0.43891 0.45127 0.87994 0.0
H865 H 0.40032 0.39549 0.9669 0.0
H866 H 0.4181 0.41037 0.93784 0.0
H867 H 0.41761 0.45287 0.92098 0.0
H868 H 0.44728 0.47901 0.81594 0.0
H869 H 0.43266 0.46661 0.84902 0.0
C870 C 0.6065 0.02117 0.94155 0.0
C871 C 0.61176 0.01143 0.94762 0.0
C872 C 0.59474 0.01674 0.9258 0.0
C873 C 0.56283 0.98287 0.89724 0.0
H874 H 0.56397 0.01322 0.85805 0.0
C875 C 0.52556 0.97045 0.81742 0.0
C876 C 0.52025 0.98026 0.81229 0.0
C877 C 0.5347 0.9729 0.83629 0.0
C878 C 0.56335 0.00466 0.86911 0.0
H879 H 0.60887 0.98943 0.94146 0.0
H880 H 0.58859 0.98186 0.91324 0.0
H881 H 0.58489 0.02032 0.88452 0.0
H882 H 0.51952 0.99975 0.82335 0.0
H883 H 0.5356 0.00411 0.85647 0.0
H884 H 0.54146 0.96711 0.88098 0.0
C885 C 0.59337 0.99282 0.92114 0.0
C886 C 0.57537 0.00871 0.88432 0.0
C887 C 0.60511 0.99722 0.93716 0.0
C888 C 0.52336 0.99196 0.82711 0.0
C889 C 0.53269 0.99453 0.84587 0.0
C890 C 0.55086 0.97877 0.88178 0.0
C891 C 0.58796 0.00251 0.91536 0.0
C892 C 0.57528 0.99792 0.89869 0.0
C893 C 0.53889 0.98534 0.85022 0.0
C894 C 0.55098 0.98965 0.86762 0.0
H895 H 0.6112 0.03214 0.94937 0.0
H896 H 0.59073 0.02441 0.92221 0.0
H897 H 0.56222 0.97429 0.90822 0.0
H898 H 0.52337 0.96142 0.8061 0.0
H899 H 0.53935 0.96567 0.83912 0.0
C900 C 0.60671 1.00027 0.06425 0.0
C901 C 0.61835 0.01517 0.05956 0.0
C902 C 0.59629 0.99745 0.081 0.0
C903 C 0.58097 0.01729 0.11263 0.0
H904 H 0.56494 0.98247 0.15106 0.0
C905 C 0.55215 0.01289 0.19526 0.0
C906 C 0.53939 0.99888 0.20101 0.0
C907 C 0.55995 0.01434 0.17588 0.0
C908 C 0.56914 0.99212 0.1402 0.0
H909 H 0.62888 0.03866 0.06969 0.0
H910 H 0.61119 0.03372 0.09926 0.0
H911 H 0.58303 0.98585 0.12255 0.0
H912 H 0.52442 0.97553 0.19078 0.0
H913 H 0.53815 0.97804 0.15677 0.0
H914 H 0.56746 0.0238 0.13078 0.0
C915 C 0.60966 0.02424 0.08955 0.0
C916 C 0.57953 0.99407 0.12389 0.0
C917 C 0.61991 0.02706 0.07272 0.0
C918 C 0.53412 0.9865 0.18654 0.0
C919 C 0.54207 0.98789 0.16726 0.0
C920 C 0.57072 0.01541 0.12903 0.0
C921 C 0.59743 0.00947 0.09349 0.0
C922 C 0.58577 0.00683 0.11013 0.0
C923 C 0.55526 1.00175 0.16202 0.0
C924 C 0.56485 0.00291 0.14317 0.0
H925 H 0.60517 0.99088 0.05428 0.0
H926 H 0.58701 0.98593 0.08355 0.0
H927 H 0.5852 0.02703 0.10195 0.0
H928 H 0.55646 0.02257 0.20626 0.0
H929 H 0.57013 0.02513 0.17235 0.0
C930 C 0.01224 0.61455 0.07462 0.0
C931 C 0.02631 0.62317 0.06394 0.0
C932 C 0.01102 0.60555 0.09278 0.0
C933 C 0.0347 0.59984 0.13475 0.0
H934 H 0.99938 0.55906 0.13801 0.0
C935 C 0.03487 0.55702 0.19458 0.0
C936 C 0.0222 0.54988 0.20846 0.0
C937 C 0.03437 0.56462 0.17574 0.0
C938 C 0.00927 0.57044 0.13733 0.0
H939 H 0.05021 0.6294 0.0644 0.0
H940 H 0.04803 0.61372 0.09555 0.0
H941 H 1.00041 0.57598 0.10878 0.0
H942 H 0.99868 0.54404 0.21261 0.0
H943 H 0.99778 0.55726 0.17956 0.0
H944 H 0.04366 0.59429 0.16304 0.0
C945 C 0.03796 0.61398 0.09022 0.0
C946 C 0.00983 0.58018 0.12071 0.0
C947 C 0.03918 0.62294 0.07221 0.0
C948 C 0.00863 0.54951 0.20222 0.0
C949 C 0.0081 0.55704 0.18329 0.0
C950 C 0.03419 0.59011 0.15118 0.0
C951 C 0.02385 0.60503 0.10061 0.0
C952 C 0.02263 0.59496 0.11911 0.0
C953 C 0.02118 0.56516 0.17035 0.0
C954 C 0.02156 0.57526 0.15255 0.0
H955 H 1.0021 0.61446 0.06866 0.0
H956 H 1.00002 0.59893 0.10059 0.0
H957 H 0.04458 0.61125 0.13433 0.0
H958 H 0.04552 0.55761 0.19904 0.0
H959 H 0.04454 0.57059 0.16585 0.0
C960 C 0.39149 0.41152 0.0897 0.0
C961 C 0.39002 0.39998 0.07578 0.0
C962 C 0.40333 0.41822 0.10552 0.0
C963 C 0.43259 0.41394 0.13633 0.0
H964 H 0.45198 0.45747 0.14308 0.0
C965 C 0.48371 0.44855 0.19721 0.0
C966 C 0.48127 0.45763 0.21169 0.0
C967 C 0.47437 0.44232 0.17827 0.0
C968 C 0.44669 0.44532 0.14137 0.0
H969 H 0.39946 0.38596 0.0682 0.0
H970 H 0.42032 0.3978 0.0958 0.0
H971 H 0.43148 0.44412 0.11555 0.0
H972 H 0.46784 0.468 0.21738 0.0
H973 H 0.45176 0.45744 0.18418 0.0
H974 H 0.44781 0.41522 0.16237 0.0
C975 C 0.41221 0.40159 0.09454 0.0
C976 C 0.43488 0.43764 0.1257 0.0
C977 C 0.40025 0.39479 0.07874 0.0
C978 C 0.46998 0.4611 0.20634 0.0
C979 C 0.4608 0.45506 0.18734 0.0
C980 C 0.4445 0.42166 0.15196 0.0
C981 C 0.41411 0.41365 0.10772 0.0
C982 C 0.42743 0.42181 0.12333 0.0
C983 C 0.4626 0.44527 0.17342 0.0
C984 C 0.45144 0.43739 0.15495 0.0
H985 H 0.3837 0.41567 0.08803 0.0
H986 H 0.40416 0.42716 0.11582 0.0
H987 H 0.42707 0.40176 0.13501 0.0
H988 H 0.49226 0.4456 0.20117 0.0
H989 H 0.47608 0.43491 0.16773 0.0
C990 C 0.67644 0.74103 0.40527 0.0
C991 C 0.66107 0.72981 0.40074 0.0
C992 C 0.68011 0.75182 0.42196 0.0
C993 C 0.66192 0.7687 0.45437 0.0
H994 H 0.69841 0.78438 0.4918 0.0
C995 C 0.67026 0.79989 0.53685 0.0
C996 C 0.68478 0.81254 0.54189 0.0
C997 C 0.66788 0.79136 0.51776 0.0
C998 C 0.68828 0.78025 0.48125 0.0
H999 H 0.63761 0.72054 0.411 0.0
H1000 H 0.644 0.73885 0.44045 0.0
H1001 H 0.69342 0.7657 0.46316 0.0
H1002 H 0.70811 0.82645 0.5308 0.0
H1003 H 0.70399 0.81139 0.49733 0.0
H1004 H 0.65656 0.78288 0.47299 0.0
C1005 C 0.65322 0.73977 0.43067 0.0
C1006 C 0.68542 0.76954 0.46483 0.0
C1007 C 0.64956 0.72915 0.4139 0.0
C1008 C 0.69677 0.81684 0.5271 0.0
C1009 C 0.69445 0.80815 0.50813 0.0
C1010 C 0.66471 0.77926 0.4709 0.0
C1011 C 0.66849 0.7515 0.43457 0.0
C1012 C 0.67207 0.76346 0.45138 0.0
C1013 C 0.68005 0.79516 0.5035 0.0
C1014 C 0.67783 0.78502 0.48468 0.0
H1015 H 0.68556 0.74189 0.39532 0.0
H1016 H 0.69199 0.76071 0.42441 0.0
H1017 H 0.65175 0.76461 0.44396 0.0
H1018 H 0.66088 0.79632 0.5481 0.0
H1019 H 0.65669 0.78135 0.51471 0.0
C1020 C 0.28096 0.9355 0.40716 0.0
C1021 C 0.28967 0.93099 0.39538 0.0
C1022 C 0.27203 0.92684 0.4248 0.0
C1023 C 0.25358 0.8879 0.44683 0.0
H1024 H 0.25021 0.9063 0.50032 0.0
C1025 C 0.22867 0.85508 0.52782 0.0
C1026 C 0.22026 0.85929 0.54093 0.0
C1027 C 0.23556 0.86307 0.50859 0.0
C1028 C 0.25084 0.90098 0.48534 0.0
H1029 H 0.29643 0.91425 0.3936 0.0
H1030 H 0.28118 0.89942 0.42453 0.0
H1031 H 0.26611 0.92238 0.47057 0.0
H1032 H 0.21147 0.87436 0.54334 0.0
H1033 H 0.22342 0.88824 0.50971 0.0
H1034 H 0.23849 0.8665 0.46179 0.0
C1035 C 0.28089 0.90939 0.41981 0.0
C1036 C 0.25998 0.91021 0.46831 0.0
C1037 C 0.28975 0.91799 0.40218 0.0
C1038 C 0.21809 0.87102 0.53371 0.0
C1039 C 0.22498 0.879 0.51453 0.0
C1040 C 0.24447 0.87868 0.46389 0.0
C1041 C 0.27168 0.91353 0.43105 0.0
C1042 C 0.26158 0.90378 0.44893 0.0
C1043 C 0.23416 0.87541 0.50211 0.0
C1044 C 0.24308 0.88511 0.4834 0.0
H1045 H 0.2806 0.94542 0.40228 0.0
H1046 H 0.26501 0.93031 0.43307 0.0
H1047 H 0.25431 0.88258 0.43193 0.0
H1048 H 0.23068 0.8462 0.53307 0.0
H1049 H 0.24264 0.86008 0.49944 0.0
C1050 C 0.06657 0.32085 0.4149 0.0
C1051 C 0.06474 0.33231 0.40551 0.0
C1052 C 0.07813 0.32432 0.43059 0.0
C1053 C 0.10322 0.35132 0.47248 0.0
H1054 H 0.12733 0.33263 0.46314 0.0
C1055 C 0.14784 0.35647 0.53757 0.0
C1056 C 0.14672 0.34267 0.5429 0.0
C1057 C 0.14058 0.35772 0.51852 0.0
C1058 C 0.12069 0.33791 0.46604 0.0
H1059 H 0.07324 0.35639 0.40614 0.0
H1060 H 0.09342 0.36244 0.43419 0.0
H1061 H 0.10856 0.32999 0.43511 0.0
H1062 H 0.13765 0.31956 0.5319 0.0
H1063 H 0.12506 0.3217 0.49881 0.0
H1064 H 0.11483 0.35866 0.50387 0.0
C1065 C 0.0859 0.35077 0.42902 0.0
C1066 C 0.10998 0.33642 0.44997 0.0
C1067 C 0.07435 0.3473 0.41303 0.0
C1068 C 0.13896 0.33042 0.52811 0.0
C1069 C 0.13169 0.33166 0.50912 0.0
C1070 C 0.11389 0.35272 0.48869 0.0
C1071 C 0.08812 0.33933 0.43749 0.0
C1072 C 0.10084 0.34275 0.45329 0.0
C1073 C 0.13204 0.34519 0.5044 0.0
C1074 C 0.12245 0.34567 0.48591 0.0
H1075 H 0.05934 0.30915 0.4097 0.0
H1076 H 0.07935 0.31523 0.43722 0.0
H1077 H 0.09629 0.35627 0.47546 0.0
H1078 H 0.15387 0.36615 0.54857 0.0
H1079 H 0.1413 0.36838 0.51518 0.0
C1080 C 0.06937 0.34227 0.28229 0.0
C1081 C 0.06023 0.32802 0.29205 0.0
C1082 C 0.07809 0.34381 0.26377 0.0
C1083 C 0.08049 0.32121 0.21861 0.0
H1084 H 0.12333 0.35306 0.21602 0.0
C1085 C 0.11964 0.31729 0.15712 0.0
C1086 C 0.12798 0.33 0.14365 0.0
C1087 C 0.1129 0.31838 0.17626 0.0
C1088 C 0.11136 0.34418 0.21651 0.0
H1089 H 0.05294 0.30421 0.28978 0.0
H1090 H 0.06803 0.30692 0.25796 0.0
H1091 H 0.10767 0.35275 0.24645 0.0
H1092 H 0.13691 0.35407 0.14069 0.0
H1093 H 0.12503 0.35595 0.17424 0.0
H1094 H 0.08411 0.31248 0.189 0.0
C1095 C 0.06842 0.3169 0.26433 0.0
C1096 C 0.10238 0.34404 0.23381 0.0
C1097 C 0.05981 0.31537 0.28273 0.0
C1098 C 0.13041 0.34406 0.15065 0.0
C1099 C 0.12368 0.34516 0.16989 0.0
C1100 C 0.08943 0.3213 0.2015 0.0
C1101 C 0.07767 0.3311 0.25463 0.0
C1102 C 0.08691 0.33238 0.23523 0.0
C1103 C 0.11436 0.33219 0.18237 0.0
C1104 C 0.10502 0.3326 0.20046 0.0
H1105 H 0.06997 0.35223 0.28914 0.0
H1106 H 0.08507 0.3549 0.25654 0.0
H1107 H 0.06852 0.31227 0.21896 0.0
H1108 H 0.11743 0.30627 0.15214 0.0
H1109 H 0.10599 0.30825 0.18582 0.0
C1110 C 0.64765 0.72994 0.27593 0.0
C1111 C 0.65962 0.72954 0.28722 0.0
C1112 C 0.65076 0.74048 0.25933 0.0
C1113 C 0.67996 0.76663 0.22046 0.0
H1114 H 0.65471 0.78467 0.21969 0.0
C1115 C 0.68592 0.80979 0.1538 0.0
C1116 C 0.67191 0.80573 0.14317 0.0
C1117 C 0.68613 0.80279 0.17358 0.0
C1118 C 0.66187 0.77976 0.21969 0.0
H1119 H 0.6843 0.73955 0.28923 0.0
H1120 H 0.68978 0.75813 0.26005 0.0
H1121 H 0.65202 0.76747 0.24928 0.0
H1122 H 0.6472 0.79182 0.14516 0.0
H1123 H 0.64749 0.77986 0.17984 0.0
H1124 H 0.68962 0.77882 0.19058 0.0
C1125 C 0.67795 0.7502 0.26413 0.0
C1126 C 0.66029 0.76984 0.23658 0.0
C1127 C 0.67481 0.73955 0.28081 0.0
C1128 C 0.65813 0.79522 0.15319 0.0
C1129 C 0.65833 0.78839 0.17303 0.0
C1130 C 0.68159 0.77664 0.20355 0.0
C1131 C 0.66594 0.751 0.25357 0.0
C1132 C 0.66898 0.7628 0.23684 0.0
C1133 C 0.67232 0.79179 0.18316 0.0
C1134 C 0.67226 0.783 0.2027 0.0
H1135 H 0.63579 0.72228 0.28022 0.0
H1136 H 0.6412 0.74045 0.25112 0.0
H1137 H 0.68681 0.76139 0.22013 0.0
H1138 H 0.69669 0.81773 0.1462 0.0
H1139 H 0.69707 0.8057 0.18109 0.0
C1140 C 0.27125 0.92509 0.27467 0.0
C1141 C 0.27654 0.93885 0.28594 0.0
C1142 C 0.25926 0.91983 0.25916 0.0
C1143 C 0.22839 0.90695 0.23645 0.0
H1144 H 0.23037 0.93361 0.18974 0.0
C1145 C 0.18782 0.88388 0.15998 0.0
C1146 C 0.1956 0.88871 0.13994 0.0
C1147 C 0.19513 0.89125 0.17984 0.0
C1148 C 0.22958 0.92605 0.20278 0.0
H1149 H 0.27345 0.95798 0.28945 0.0
H1150 H 0.25246 0.94879 0.26193 0.0
H1151 H 0.24841 0.944 0.22109 0.0
H1152 H 0.21727 0.90507 0.12524 0.0
H1153 H 0.22977 0.91786 0.15945 0.0
H1154 H 0.2102 0.88886 0.2176 0.0
C1155 C 0.25765 0.94209 0.26532 0.0
C1156 C 0.23983 0.93203 0.22081 0.0
C1157 C 0.26966 0.94736 0.28104 0.0
C1158 C 0.2107 0.90127 0.14019 0.0
C1159 C 0.21793 0.90865 0.1599 0.0
C1160 C 0.21815 0.90098 0.21845 0.0
C1161 C 0.25223 0.92818 0.2544 0.0
C1162 C 0.23972 0.92244 0.23741 0.0
C1163 C 0.21035 0.90361 0.18001 0.0
C1164 C 0.21901 0.91038 0.20102 0.0
H1165 H 0.27628 0.91822 0.27793 0.0
H1166 H 0.25562 0.90925 0.25067 0.0
H1167 H 0.22785 0.89932 0.24922 0.0
H1168 H 0.17617 0.87429 0.16035 0.0
H1169 H 0.18897 0.88714 0.19509 0.0
C1170 C 0.7035 0.95029 0.27616 0.0
C1171 C 0.69147 0.95124 0.28535 0.0
C1172 C 0.70076 0.94073 0.25825 0.0
C1173 C 0.67005 0.90646 0.23038 0.0
H1174 H 0.69981 0.91894 0.18399 0.0
C1175 C 0.65989 0.87272 0.1492 0.0
C1176 C 0.67254 0.87282 0.14016 0.0
C1177 C 0.66169 0.88112 0.16823 0.0
C1178 C 0.6915 0.9152 0.19699 0.0
H1179 H 0.66716 0.94318 0.28248 0.0
H1180 H 0.66239 0.92653 0.25085 0.0
H1181 H 0.7037 0.93676 0.21318 0.0
H1182 H 0.6968 0.88109 0.14472 0.0
H1183 H 0.69988 0.8955 0.17822 0.0
H1184 H 0.65781 0.88489 0.21398 0.0
C1185 C 0.67392 0.93308 0.2578 0.0
C1186 C 0.6937 0.92544 0.21367 0.0
C1187 C 0.67668 0.94271 0.27577 0.0
C1188 C 0.68681 0.8807 0.15135 0.0
C1189 C 0.68862 0.88912 0.17036 0.0
C1190 C 0.66783 0.8962 0.21362 0.0
C1191 C 0.68592 0.93187 0.24901 0.0
C1192 C 0.68306 0.92118 0.23065 0.0
C1193 C 0.67619 0.88981 0.17859 0.0
C1194 C 0.6786 0.90044 0.19682 0.0
H1195 H 0.71504 0.95668 0.2831 0.0
H1196 H 0.71022 0.93995 0.25207 0.0
H1197 H 0.66175 0.90276 0.24339 0.0
H1198 H 0.64873 0.86665 0.141 0.0
H1199 H 0.6519 0.88143 0.17412 0.0
C1200 C 0.04755 0.74583 0.27253 0.0
C1201 C 0.05158 0.73722 0.28586 0.0
C1202 C 0.05639 0.75374 0.25453 0.0
C1203 C 0.08753 0.75888 0.2181 0.0
H1204 H 0.09422 0.79932 0.21266 0.0
C1205 C 0.13073 0.80294 0.15716 0.0
C1206 C 0.1246 0.80965 0.14353 0.0
C1207 C 0.12277 0.79461 0.17562 0.0
C1208 C 0.09242 0.78805 0.21393 0.0
H1209 H 0.06748 0.72937 0.29012 0.0
H1210 H 0.08322 0.74348 0.25871 0.0
H1211 H 0.07784 0.78268 0.24152 0.0
H1212 H 0.10579 0.81355 0.13896 0.0
H1213 H 0.09198 0.79921 0.1714 0.0
H1214 H 0.10231 0.76445 0.19049 0.0
C1215 C 0.0731 0.74398 0.26206 0.0
C1216 C 0.08295 0.77845 0.23036 0.0
C1217 C 0.06408 0.73587 0.28 0.0
C1218 C 0.11075 0.8085 0.14925 0.0
C1219 C 0.10289 0.80033 0.16782 0.0
C1220 C 0.09712 0.76856 0.20171 0.0
C1221 C 0.06964 0.75343 0.24961 0.0
C1222 C 0.08017 0.76366 0.23244 0.0
C1223 C 0.10864 0.793 0.18089 0.0
C1224 C 0.09949 0.78317 0.1993 0.0
H1225 H 0.03785 0.74692 0.27654 0.0
H1226 H 0.05309 0.76049 0.24486 0.0
H1227 H 0.08559 0.74755 0.21917 0.0
H1228 H 0.14129 0.80351 0.15295 0.0
H1229 H 0.12751 0.78919 0.18554 0.0
C1230 C 0.2662 0.32515 0.27273 0.0
C1231 C 0.27753 0.34043 0.27644 0.0
C1232 C 0.25525 0.32109 0.25557 0.0
C1233 C 0.24811 0.33499 0.20312 0.0
H1234 H 0.20491 0.30967 0.21626 0.0
C1235 C 0.20289 0.33293 0.14391 0.0
C1236 C 0.19006 0.31868 0.13869 0.0
C1237 C 0.21254 0.33468 0.16179 0.0
C1238 C 0.21692 0.31662 0.21226 0.0
H1239 H 0.28663 0.36332 0.26457 0.0
H1240 H 0.26783 0.35626 0.23468 0.0
H1241 H 0.22437 0.31366 0.24431 0.0
H1242 H 0.17677 0.29523 0.14855 0.0
H1243 H 0.19376 0.29822 0.17996 0.0
H1244 H 0.24085 0.33804 0.17122 0.0
C1245 C 0.2673 0.3474 0.24497 0.0
C1246 C 0.22806 0.31887 0.22829 0.0
C1247 C 0.27805 0.35145 0.26218 0.0
C1248 C 0.18651 0.30636 0.15246 0.0
C1249 C 0.19627 0.30809 0.17035 0.0
C1250 C 0.23704 0.33272 0.18714 0.0
C1251 C 0.25564 0.33222 0.24163 0.0
C1252 C 0.24377 0.32833 0.224 0.0
C1253 C 0.2097 0.32217 0.17472 0.0
C1254 C 0.2213 0.32379 0.19164 0.0
H1255 H 0.26545 0.31642 0.28353 0.0
H1256 H 0.24645 0.30929 0.25328 0.0
H1257 H 0.26012 0.34212 0.19918 0.0
H1258 H 0.20583 0.34259 0.13351 0.0
H1259 H 0.22253 0.34578 0.16504 0.0
C1260 C 0.2706 0.33269 0.39767 0.0
C1261 C 0.28197 0.34725 0.39111 0.0
C1262 C 0.26143 0.33079 0.41575 0.0
C1263 C 0.2496 0.35264 0.45048 0.0
H1264 H 0.23497 0.31824 0.48953 0.0
C1265 C 0.22542 0.34929 0.53726 0.0
C1266 C 0.21193 0.33575 0.54258 0.0
C1267 C 0.23269 0.35055 0.51738 0.0
C1268 C 0.23886 0.32782 0.47859 0.0
H1269 H 0.29327 0.37118 0.399 0.0
H1270 H 0.27791 0.36789 0.43096 0.0
H1271 H 0.25085 0.32056 0.4584 0.0
H1272 H 0.1953 0.31302 0.53131 0.0
H1273 H 0.20818 0.31517 0.49659 0.0
H1274 H 0.23809 0.36016 0.47136 0.0
C1275 C 0.27551 0.35792 0.42172 0.0
C1276 C 0.24792 0.32914 0.46071 0.0
C1277 C 0.28445 0.35981 0.40349 0.0
C1278 C 0.20559 0.32364 0.52743 0.0
C1279 C 0.21302 0.32481 0.50772 0.0
C1280 C 0.24076 0.35143 0.46855 0.0
C1281 C 0.26363 0.34343 0.42783 0.0
C1282 C 0.25354 0.34165 0.44651 0.0
C1283 C 0.22675 0.3382 0.50269 0.0
C1284 C 0.23537 0.33905 0.48283 0.0
H1285 H 0.26838 0.32281 0.38832 0.0
H1286 H 0.25233 0.31946 0.4198 0.0
H1287 H 0.25333 0.36223 0.43962 0.0
H1288 H 0.23055 0.35874 0.54876 0.0
H1289 H 0.24332 0.36097 0.51393 0.0
C1290 C 0.69441 0.93986 0.4048 0.0
C1291 C 0.68478 0.9451 0.39756 0.0
C1292 C 0.68962 0.92869 0.42081 0.0
C1293 C 0.66523 0.9125 0.46786 0.0
H1294 H 0.67411 0.88059 0.45962 0.0
C1295 C 0.66175 0.87451 0.54008 0.0
C1296 C 0.6753 0.87417 0.54305 0.0
C1297 C 0.65868 0.87946 0.52017 0.0
C1298 C 0.67149 0.88938 0.46216 0.0
H1299 H 0.6626 0.94283 0.40187 0.0
H1300 H 0.65434 0.92338 0.43055 0.0
H1301 H 0.67689 0.89712 0.4289 0.0
H1302 H 0.69581 0.87799 0.52688 0.0
H1303 H 0.69038 0.88634 0.49233 0.0
H1304 H 0.66068 0.90533 0.50147 0.0
C1305 C 0.66555 0.92792 0.42345 0.0
C1306 C 0.67306 0.89882 0.44458 0.0
C1307 C 0.67029 0.93904 0.4071 0.0
C1308 C 0.68513 0.87785 0.52513 0.0
C1309 C 0.68203 0.8827 0.50525 0.0
C1310 C 0.66373 0.90308 0.48553 0.0
C1311 C 0.67513 0.92252 0.43021 0.0
C1312 C 0.67052 0.91083 0.44749 0.0
C1313 C 0.66904 0.88405 0.50277 0.0
C1314 C 0.66743 0.8918 0.48308 0.0
H1315 H 0.70564 0.94422 0.39785 0.0
H1316 H 0.69737 0.92497 0.42602 0.0
H1317 H 0.66324 0.9217 0.47056 0.0
H1318 H 0.65382 0.87155 0.55347 0.0
H1319 H 0.64846 0.88017 0.51865 0.0
C1320 C 0.07654 0.75724 0.39943 0.0
C1321 C 0.06717 0.74144 0.39728 0.0
C1322 C 0.08828 0.76372 0.41539 0.0
C1323 C 0.11143 0.75546 0.45505 0.0
H1324 H 0.11723 0.79154 0.4839 0.0
C1325 C 0.15707 0.78619 0.52512 0.0
C1326 C 0.15185 0.79041 0.54341 0.0
C1327 C 0.14836 0.78152 0.50538 0.0
C1328 C 0.11575 0.78144 0.47611 0.0
H1329 H 0.06295 0.72 0.40997 0.0
H1330 H 0.08314 0.73132 0.43868 0.0
H1331 H 0.09836 0.77991 0.4542 0.0
H1332 H 0.13396 0.79393 0.55506 0.0
H1333 H 0.11874 0.78562 0.52112 0.0
H1334 H 0.12831 0.75662 0.478 0.0
C1335 C 0.08162 0.73873 0.42761 0.0
C1336 C 0.10504 0.77485 0.4588 0.0
C1337 C 0.06997 0.73222 0.41129 0.0
C1338 C 0.13821 0.79061 0.54127 0.0
C1339 C 0.12954 0.78596 0.52169 0.0
C1340 C 0.12209 0.762 0.47259 0.0
C1341 C 0.09082 0.75459 0.43 0.0
C1342 C 0.10263 0.76171 0.44809 0.0
C1343 C 0.13433 0.78109 0.5036 0.0
C1344 C 0.12423 0.77497 0.48353 0.0
H1345 H 0.0749 0.7647 0.38861 0.0
H1346 H 0.09536 0.77594 0.41624 0.0
H1347 H 0.11006 0.74548 0.44701 0.0
H1348 H 0.16752 0.78587 0.52637 0.0
H1349 H 0.15248 0.77803 0.49165 0.0
C1350 C 0.31442 0.06116 0.7524 0.0
C1351 C 0.32584 0.06259 0.73824 0.0
C1352 C 0.31817 0.07106 0.77022 0.0
C1353 C 0.34612 0.10953 0.78833 0.0
H1354 H 0.32829 0.09506 0.8457 0.0
C1355 C 0.33562 0.13187 0.8771 0.0
C1356 C 0.35019 0.14476 0.88085 0.0
C1357 C 0.33274 0.12267 0.85862 0.0
C1358 C 0.33317 0.09935 0.82969 0.0
H1359 H 0.35023 0.07532 0.73197 0.0
H1360 H 0.3568 0.09283 0.7632 0.0
H1361 H 0.32375 0.07695 0.81663 0.0
H1362 H 0.37298 0.15856 0.86788 0.0
H1363 H 0.3681 0.14237 0.83569 0.0
H1364 H 0.35526 0.13194 0.80122 0.0
C1365 C 0.34494 0.08399 0.76039 0.0
C1366 C 0.33066 0.08893 0.81309 0.0
C1367 C 0.3412 0.07389 0.74268 0.0
C1368 C 0.36159 0.14877 0.86516 0.0
C1369 C 0.35877 0.13945 0.84676 0.0
C1370 C 0.34852 0.11999 0.80492 0.0
C1371 C 0.33341 0.08276 0.77418 0.0
C1372 C 0.33702 0.09389 0.79219 0.0
C1373 C 0.34445 0.12601 0.84365 0.0
C1374 C 0.34196 0.11502 0.82578 0.0
H1375 H 0.30248 0.05256 0.74942 0.0
H1376 H 0.30903 0.0699 0.78046 0.0
H1377 H 0.35101 0.11367 0.77228 0.0
H1378 H 0.32664 0.12857 0.88898 0.0
H1379 H 0.32143 0.11267 0.85645 0.0
C1380 C 0.94447 0.24612 0.71705 0.0
C1381 C 0.95347 0.26195 0.71927 0.0
C1382 C 0.93646 0.23711 0.73496 0.0
C1383 C 0.92312 0.23936 0.79096 0.0
H1384 H 0.91813 0.19967 0.79781 0.0
C1385 C 0.90765 0.20711 0.87262 0.0
C1386 C 0.89385 0.19295 0.87242 0.0
C1387 C 0.91418 0.2145 0.853 0.0
C1388 C 0.91933 0.21067 0.79591 0.0
H1389 H 0.96134 0.28074 0.74211 0.0
H1390 H 0.94798 0.26504 0.77367 0.0
H1391 H 0.93144 0.21504 0.76579 0.0
H1392 H 0.87667 0.17506 0.85119 0.0
H1393 H 0.88859 0.18792 0.81657 0.0
H1394 H 0.91169 0.23518 0.82177 0.0
C1395 C 0.94662 0.25954 0.75791 0.0
C1396 C 0.9269 0.21949 0.77755 0.0
C1397 C 0.95441 0.26858 0.73986 0.0
C1398 C 0.88727 0.18595 0.85195 0.0
C1399 C 0.89402 0.1933 0.83218 0.0
C1400 C 0.91585 0.23066 0.80946 0.0
C1401 C 0.93745 0.24366 0.75569 0.0
C1402 C 0.92901 0.23402 0.7749 0.0
C1403 C 0.90733 0.20779 0.83264 0.0
C1404 C 0.91398 0.21631 0.81215 0.0
H1405 H 0.94339 0.24068 0.70132 0.0
H1406 H 0.92931 0.225 0.73239 0.0
H1407 H 0.92412 0.25027 0.78931 0.0
H1408 H 0.91337 0.21262 0.88802 0.0
H1409 H 0.9246 0.22555 0.85372 0.0
C1410 C 0.73086 0.65552 0.74655 0.0
C1411 C 0.72789 0.66614 0.73672 0.0
C1412 C 0.74348 0.66021 0.76074 0.0
C1413 C 0.77036 0.68955 0.79846 0.0
H1414 H 0.79488 0.67149 0.78763 0.0
C1415 C 0.81729 0.6969 0.86077 0.0
C1416 C 0.81582 0.68305 0.86692 0.0
C1417 C 0.80982 0.69784 0.84172 0.0
C1418 C 0.78818 0.67666 0.79088 0.0
H1419 H 0.73551 0.69001 0.73504 0.0
H1420 H 0.75756 0.69818 0.76051 0.0
H1421 H 0.77454 0.66729 0.76139 0.0
H1422 H 0.8061 0.6596 0.85699 0.0
H1423 H 0.79337 0.66129 0.8239 0.0
H1424 H 0.78346 0.69826 0.82856 0.0
C1425 C 0.7501 0.68623 0.75683 0.0
C1426 C 0.77656 0.67426 0.77585 0.0
C1427 C 0.73748 0.68154 0.74233 0.0
C1428 C 0.80773 0.67052 0.85266 0.0
C1429 C 0.80034 0.67148 0.83363 0.0
C1430 C 0.78196 0.69187 0.81364 0.0
C1431 C 0.75342 0.67561 0.76567 0.0
C1432 C 0.7672 0.68026 0.77986 0.0
C1433 C 0.80082 0.68499 0.82834 0.0
C1434 C 0.79066 0.68501 0.81037 0.0
H1435 H 0.7237 0.64355 0.74279 0.0
H1436 H 0.74556 0.65174 0.76772 0.0
H1437 H 0.76329 0.69428 0.80193 0.0
H1438 H 0.82362 0.70682 0.87125 0.0
H1439 H 0.81064 0.70849 0.83789 0.0
C1440 C 0.71802 0.64375 0.61599 0.0
C1441 C 0.71862 0.65652 0.62517 0.0
C1442 C 0.72703 0.64517 0.59811 0.0
C1443 C 0.7625 0.6725 0.57052 0.0
H1444 H 0.74642 0.64161 0.52472 0.0
C1445 C 0.79445 0.67563 0.4905 0.0
C1446 C 0.79254 0.66199 0.48247 0.0
C1447 C 0.78668 0.67571 0.50918 0.0
C1448 C 0.75115 0.65022 0.53755 0.0
H1449 H 0.72886 0.68081 0.6223 0.0
H1450 H 0.7446 0.6833 0.59066 0.0
H1451 H 0.72948 0.64072 0.55313 0.0
H1452 H 0.78181 0.63793 0.48851 0.0
H1453 H 0.7685 0.63811 0.52137 0.0
H1454 H 0.78419 0.68202 0.55469 0.0
C1455 C 0.73723 0.67219 0.59761 0.0
C1456 C 0.74142 0.64975 0.55378 0.0
C1457 C 0.72812 0.67075 0.61557 0.0
C1458 C 0.78359 0.64862 0.49437 0.0
C1459 C 0.7758 0.6487 0.513 0.0
C1460 C 0.77225 0.673 0.55418 0.0
C1461 C 0.73687 0.65941 0.58886 0.0
C1462 C 0.74701 0.66076 0.57062 0.0
C1463 C 0.77683 0.66214 0.52013 0.0
C1464 C 0.7667 0.66175 0.53768 0.0
H1465 H 0.71083 0.6326 0.62294 0.0
H1466 H 0.72661 0.63513 0.59199 0.0
H1467 H 0.76719 0.68105 0.58342 0.0
H1468 H 0.80138 0.68612 0.48171 0.0
H1469 H 0.78771 0.68624 0.51427 0.0
C1470 C 0.3189 0.07536 0.62165 0.0
C1471 C 0.3265 0.06737 0.62484 0.0
C1472 C 0.32247 0.08529 0.60403 0.0
C1473 C 0.35149 0.1063 0.56093 0.0
H1474 H 0.31747 0.10724 0.53268 0.0
C1475 C 0.35252 0.12985 0.47356 0.0
C1476 C 0.34479 0.1377 0.47013 0.0
C1477 C 0.35235 0.12359 0.49411 0.0
C1478 C 0.32714 0.10731 0.5406 0.0
H1479 H 0.34403 0.06371 0.61208 0.0
H1480 H 0.34993 0.08069 0.5806 0.0
H1481 H 0.31283 0.09104 0.56434 0.0
H1482 H 0.33151 0.14588 0.48568 0.0
H1483 H 0.33107 0.13479 0.52178 0.0
H1484 H 0.36563 0.12218 0.53631 0.0
C1485 C 0.3414 0.07951 0.5921 0.0
C1486 C 0.3245 0.098 0.55881 0.0
C1487 C 0.33795 0.06969 0.61004 0.0
C1488 C 0.3376 0.13992 0.48796 0.0
C1489 C 0.33725 0.13348 0.5085 0.0
C1490 C 0.3541 0.1155 0.54248 0.0
C1491 C 0.33359 0.08735 0.58877 0.0
C1492 C 0.33662 0.09736 0.56929 0.0
C1493 C 0.34428 0.1249 0.5116 0.0
C1494 C 0.34193 0.11609 0.53213 0.0
H1495 H 0.3102 0.07407 0.63294 0.0
H1496 H 0.3165 0.09139 0.60246 0.0
H1497 H 0.36114 0.10628 0.56871 0.0
H1498 H 0.35819 0.12803 0.46003 0.0
H1499 H 0.35779 0.11699 0.49593 0.0
C1500 C 0.94784 0.28036 0.59238 0.0
C1501 C 0.94676 0.28457 0.61394 0.0
C1502 C 0.93602 0.27649 0.57691 0.0
C1503 C 0.89552 0.25692 0.5736 0.0
H1504 H 0.90124 0.27072 0.51297 0.0
C1505 C 0.8627 0.24036 0.48237 0.0
C1506 C 0.86081 0.22594 0.47964 0.0
C1507 C 0.87005 0.24904 0.50127 0.0
C1508 C 0.89934 0.26693 0.52994 0.0
H1509 H 0.93276 0.28851 0.63614 0.0
H1510 H 0.91169 0.28111 0.60911 0.0
H1511 H 0.92165 0.28487 0.54059 0.0
H1512 H 0.86406 0.20893 0.49574 0.0
H1513 H 0.87626 0.22382 0.52893 0.0
H1514 H 0.87371 0.23829 0.56256 0.0
C1515 C 0.92186 0.28114 0.60419 0.0
C1516 C 0.91103 0.27498 0.54566 0.0
C1517 C 0.93391 0.28542 0.61954 0.0
C1518 C 0.8651 0.21986 0.49724 0.0
C1519 C 0.87218 0.22844 0.5163 0.0
C1520 C 0.88394 0.24869 0.55777 0.0
C1521 C 0.92275 0.27641 0.58287 0.0
C1522 C 0.90937 0.26982 0.56747 0.0
C1523 C 0.87531 0.24333 0.51805 0.0
C1524 C 0.88594 0.25341 0.53568 0.0
H1525 H 0.95763 0.2796 0.58769 0.0
H1526 H 0.93689 0.27274 0.56062 0.0
H1527 H 0.89407 0.25266 0.59029 0.0
H1528 H 0.85921 0.24527 0.46938 0.0
H1529 H 0.87222 0.26046 0.50236 0.0
C1530 C 0.36215 0.27491 0.60302 0.0
C1531 C 0.35046 0.27504 0.6147 0.0
C1532 C 0.35869 0.26571 0.58448 0.0
C1533 C 0.32761 0.23074 0.55897 0.0
H1534 H 0.35532 0.24418 0.50979 0.0
C1535 C 0.318 0.19656 0.47774 0.0
C1536 C 0.3311 0.19749 0.46883 0.0
C1537 C 0.31926 0.20485 0.49667 0.0
C1538 C 0.34757 0.24021 0.52352 0.0
H1539 H 0.32595 0.266 0.61557 0.0
H1540 H 0.31985 0.2499 0.58273 0.0
H1541 H 0.35912 0.26208 0.53877 0.0
H1542 H 0.35558 0.20704 0.47358 0.0
H1543 H 0.35772 0.2213 0.50678 0.0
H1544 H 0.31601 0.20883 0.5434 0.0
C1545 C 0.33171 0.25685 0.58822 0.0
C1546 C 0.34971 0.25048 0.54009 0.0
C1547 C 0.33521 0.26616 0.60687 0.0
C1548 C 0.34526 0.20598 0.48012 0.0
C1549 C 0.34653 0.21432 0.49895 0.0
C1550 C 0.3254 0.22045 0.54223 0.0
C1551 C 0.34343 0.25638 0.57702 0.0
C1552 C 0.33995 0.24582 0.55823 0.0
C1553 C 0.33365 0.21428 0.50692 0.0
C1554 C 0.33555 0.22504 0.52457 0.0
H1555 H 0.37404 0.28163 0.60855 0.0
H1556 H 0.36798 0.2655 0.57647 0.0
H1557 H 0.31998 0.22676 0.57284 0.0
H1558 H 0.30693 0.19003 0.46939 0.0
H1559 H 0.30914 0.20458 0.50247 0.0
C1560 C 0.73315 0.07451 0.61576 0.0
C1561 C 0.72152 0.07682 0.62294 0.0
C1562 C 0.74259 0.08314 0.59847 0.0
C1563 C 0.75496 0.11945 0.56959 0.0
H1564 H 0.77131 0.10392 0.52694 0.0
C1565 C 0.78142 0.14833 0.48699 0.0
C1566 C 0.79502 0.14908 0.48098 0.0
C1567 C 0.77376 0.14053 0.50591 0.0
C1568 C 0.76695 0.10843 0.53894 0.0
H1569 H 0.70985 0.08908 0.61679 0.0
H1570 H 0.72569 0.10354 0.58611 0.0
H1571 H 0.7545 0.08724 0.55565 0.0
H1572 H 0.81149 0.1426 0.49009 0.0
H1573 H 0.79796 0.12875 0.52315 0.0
H1574 H 0.76699 0.14047 0.55229 0.0
C1575 C 0.72809 0.09562 0.59431 0.0
C1576 C 0.75734 0.09889 0.55539 0.0
C1577 C 0.71888 0.08722 0.61175 0.0
C1578 C 0.80112 0.14233 0.49458 0.0
C1579 C 0.79332 0.1343 0.5133 0.0
C1580 C 0.76438 0.12889 0.55298 0.0
C1581 C 0.74039 0.09408 0.5879 0.0
C1582 C 0.75107 0.10424 0.57078 0.0
C1583 C 0.77944 0.13311 0.5189 0.0
C1584 C 0.77036 0.12344 0.53741 0.0
H1585 H 0.73548 0.06663 0.62424 0.0
H1586 H 0.75198 0.08168 0.59403 0.0
H1587 H 0.75073 0.12411 0.58152 0.0
H1588 H 0.77648 0.15338 0.47665 0.0
H1589 H 0.76303 0.13969 0.50981 0.0
C1590 C 0.94883 0.68968 0.60163 0.0
C1591 C 0.94859 0.67829 0.61473 0.0
C1592 C 0.93787 0.68604 0.58484 0.0
C1593 C 0.8986 0.65728 0.56773 0.0
H1594 H 0.91052 0.67884 0.51226 0.0
C1595 C 0.85683 0.64542 0.49247 0.0
C1596 C 0.85975 0.658 0.47973 0.0
C1597 C 0.86661 0.64712 0.51032 0.0
C1598 C 0.90694 0.67285 0.52777 0.0
H1599 H 0.93679 0.65407 0.62011 0.0
H1600 H 0.9175 0.64769 0.59055 0.0
H1601 H 0.93017 0.68264 0.53933 0.0
H1602 H 0.87434 0.68227 0.47643 0.0
H1603 H 0.89105 0.68537 0.50793 0.0
H1604 H 0.8753 0.64759 0.55608 0.0
C1605 C 0.92621 0.65945 0.59346 0.0
C1606 C 0.91824 0.67498 0.54324 0.0
C1607 C 0.93733 0.6631 0.61022 0.0
C1608 C 0.87187 0.67241 0.48605 0.0
C1609 C 0.88153 0.67413 0.5039 0.0
C1610 C 0.88724 0.65516 0.55218 0.0
C1611 C 0.92629 0.67093 0.58072 0.0
C1612 C 0.91422 0.66742 0.56355 0.0
C1613 C 0.87943 0.66144 0.51567 0.0
C1614 C 0.89129 0.66314 0.53217 0.0
H1615 H 0.95733 0.7015 0.60464 0.0
H1616 H 0.93818 0.69517 0.57551 0.0
H1617 H 0.89514 0.65138 0.58331 0.0
H1618 H 0.84767 0.63417 0.48768 0.0
H1619 H 0.86467 0.63712 0.51903 0.0
C1620 C 0.95578 0.69558 0.74219 0.0
C1621 C 0.95295 0.68316 0.72912 0.0
C1622 C 0.94685 0.69354 0.76049 0.0
C1623 C 0.90873 0.66961 0.78141 0.0
H1624 H 0.92732 0.68802 0.83804 0.0
C1625 C 0.873 0.66067 0.85931 0.0
C1626 C 0.87882 0.67241 0.87501 0.0
C1627 C 0.88156 0.66188 0.84085 0.0
C1628 C 0.92191 0.68303 0.82226 0.0
H1629 H 0.9387 0.65882 0.72507 0.0
H1630 H 0.92275 0.65527 0.75703 0.0
H1631 H 0.94353 0.68974 0.80786 0.0
H1632 H 0.89761 0.69492 0.88327 0.0
H1633 H 0.91227 0.69743 0.85053 0.0
H1634 H 0.88714 0.66334 0.79543 0.0
C1635 C 0.932 0.66656 0.75308 0.0
C1636 C 0.93122 0.6839 0.80505 0.0
C1637 C 0.94117 0.66857 0.73495 0.0
C1638 C 0.89294 0.6857 0.87138 0.0
C1639 C 0.90139 0.68703 0.85277 0.0
C1640 C 0.8994 0.66893 0.79854 0.0
C1641 C 0.93473 0.67906 0.76589 0.0
C1642 C 0.92473 0.67725 0.78447 0.0
C1643 C 0.89605 0.67494 0.83761 0.0
C1644 C 0.90588 0.6757 0.81918 0.0
H1645 H 0.96482 0.70696 0.73812 0.0
H1646 H 0.94913 0.70336 0.77003 0.0
H1647 H 0.90347 0.66456 0.76557 0.0
H1648 H 0.86223 0.65021 0.86195 0.0
H1649 H 0.87712 0.65227 0.82972 0.0
C1650 C 0.3455 0.2529 0.72576 0.0
C1651 C 0.34418 0.26572 0.72734 0.0
C1652 C 0.3414 0.24284 0.74331 0.0
C1653 C 0.32366 0.23388 0.79927 0.0
H1654 H 0.35111 0.21875 0.8088 0.0
C1655 C 0.34166 0.22168 0.88352 0.0
C1656 C 0.34175 0.20816 0.88637 0.0
C1657 C 0.33792 0.22533 0.86312 0.0
C1658 C 0.34315 0.22262 0.80614 0.0
H1659 H 0.33713 0.27794 0.74803 0.0
H1660 H 0.33086 0.26093 0.77943 0.0
H1661 H 0.35251 0.23194 0.77491 0.0
H1662 H 0.33746 0.18772 0.86967 0.0
H1663 H 0.33181 0.19467 0.83352 0.0
H1664 H 0.3153 0.22551 0.83163 0.0
C1665 C 0.33451 0.25823 0.76438 0.0
C1666 C 0.34388 0.23018 0.78663 0.0
C1667 C 0.3382 0.26808 0.74648 0.0
C1668 C 0.33772 0.19829 0.86814 0.0
C1669 C 0.33434 0.20217 0.84749 0.0
C1670 C 0.32317 0.22657 0.81902 0.0
C1671 C 0.33639 0.24563 0.76321 0.0
C1672 C 0.33434 0.23618 0.78305 0.0
C1673 C 0.33456 0.2158 0.84483 0.0
C1674 C 0.3331 0.22112 0.82274 0.0
H1675 H 0.34985 0.25073 0.71096 0.0
H1676 H 0.34252 0.23305 0.74137 0.0
H1677 H 0.31588 0.23799 0.79699 0.0
H1678 H 0.34518 0.2299 0.89674 0.0
H1679 H 0.3385 0.23606 0.86137 0.0
C1680 C 0.73795 0.06271 0.73832 0.0
C1681 C 0.73025 0.07056 0.73436 0.0
C1682 C 0.75051 0.06855 0.75315 0.0
C1683 C 0.78025 0.10478 0.77825 0.0
H1684 H 0.7848 0.07996 0.82225 0.0
C1685 C 0.81807 0.12928 0.85656 0.0
C1686 C 0.82477 0.12163 0.86605 0.0
C1687 C 0.80892 0.12362 0.83742 0.0
C1688 C 0.78392 0.08702 0.80976 0.0
H1689 H 0.72931 0.09034 0.74368 0.0
H1690 H 0.75099 0.10034 0.76949 0.0
H1691 H 0.76341 0.06825 0.79565 0.0
H1692 H 0.82786 0.10254 0.86287 0.0
H1693 H 0.81219 0.09279 0.82893 0.0
H1694 H 0.80058 0.12359 0.79248 0.0
C1695 C 0.74755 0.08986 0.76084 0.0
C1696 C 0.7716 0.08029 0.79458 0.0
C1697 C 0.73502 0.08403 0.74617 0.0
C1698 C 0.82297 0.10873 0.85551 0.0
C1699 C 0.81383 0.10306 0.83632 0.0
C1700 C 0.79259 0.1115 0.79333 0.0
C1701 C 0.75563 0.08237 0.76418 0.0
C1702 C 0.76943 0.08916 0.77901 0.0
C1703 C 0.80624 0.11013 0.82751 0.0
C1704 C 0.79439 0.10276 0.80959 0.0
H1705 H 0.7346 0.05232 0.72948 0.0
H1706 H 0.75651 0.06251 0.75543 0.0
H1707 H 0.77906 0.11187 0.76611 0.0
H1708 H 0.81907 0.13906 0.86478 0.0
H1709 H 0.80312 0.12927 0.8313 0.0
C1710 C 0.03583 0.35665 0.9935 0.0
C1711 C 0.03001 0.36106 0.01086 0.0
C1712 C 0.04824 0.35457 -0.00283 0.0
C1713 C 0.07969 0.36287 0.03802 0.0
H1714 H 0.07912 0.32909 0.00943 0.0
C1715 C 0.10678 0.32306 0.05479 0.0
C1716 C 0.12098 0.33411 0.06399 0.0
C1717 C 0.09736 0.32728 0.04375 0.0
C1718 C 0.07946 0.33855 0.01763 0.0
H1719 H 0.03275 0.36681 0.0457 0.0
H1720 H 0.05401 0.36284 0.05223 0.0
H1721 H 0.05913 0.33462 0.00044 0.0
H1722 H 0.13708 0.35817 0.06745 0.0
H1723 H 0.12113 0.36563 0.04708 0.0
H1724 H 0.09939 0.36628 0.05622 0.0
C1725 C 0.0493 0.36132 0.03561 0.0
C1726 C 0.06807 0.34186 0.01225 0.0
C1727 C 0.037 0.36352 0.0319 0.0
C1728 C 0.12619 0.34945 0.06036 0.0
C1729 C 0.11691 0.35368 0.04902 0.0
C1730 C 0.09097 0.35948 0.04355 0.0
C1731 C 0.05508 0.35675 0.01833 0.0
C1732 C 0.06787 0.35391 0.02266 0.0
C1733 C 0.10204 0.34267 0.0415 0.0
C1734 C 0.09092 0.34714 0.03368 0.0
H1735 H 0.03076 0.35472 0.97705 0.0
H1736 H 0.05249 0.35127 0.98338 0.0
H1737 H 0.08014 0.37242 0.04609 0.0
H1738 H 0.1024 0.31116 0.05775 0.0
H1739 H 0.08599 0.31843 0.03842 0.0
C1740 C 0.64915 0.6841 0.03911 0.0
C1741 C 0.64921 0.67903 0.01765 0.0
C1742 C 0.64919 0.6975 0.04245 0.0
C1743 C 0.65827 0.7333 0.01481 0.0
H1744 H 0.63693 0.73646 0.06473 0.0
C1745 C 0.64607 0.77824 0.0649 0.0
C1746 C 0.661 0.79095 0.06493 0.0
C1747 C 0.64278 0.76482 0.05444 0.0
C1748 C 0.64274 0.73579 0.05042 0.0
H1749 H 0.64908 0.68398 0.98285 0.0
H1750 H 0.64879 0.70718 0.98866 0.0
H1751 H 0.6344 0.71238 0.05616 0.0
H1752 H 0.68399 0.79997 0.05307 0.0
H1753 H 0.67844 0.77651 0.03521 0.0
H1754 H 0.66641 0.75672 0.00891 0.0
C1755 C 0.64903 0.70096 0.00295 0.0
C1756 C 0.6415 0.72196 0.04574 0.0
C1757 C 0.64911 0.68759 -0.00039 0.0
C1758 C 0.67232 0.79038 0.05294 0.0
C1759 C 0.66911 0.77688 0.04275 0.0
C1760 C 0.65941 0.74714 0.01939 0.0
C1761 C 0.64914 0.70614 0.02443 0.0
C1762 C 0.6495 0.72059 0.02817 0.0
C1763 C 0.65445 0.76371 0.04421 0.0
C1764 C 0.65187 0.74865 0.03751 0.0
H1765 H 0.64934 0.67785 0.05339 0.0
H1766 H 0.64957 0.70124 0.05924 0.0
H1767 H 0.66468 0.73273 0.00121 0.0
H1768 H 0.63718 0.77842 0.07415 0.0
H1769 H 0.63125 0.75507 0.05538 0.0
C1770 C 0.30725 0.9705 0.00987 0.0
C1771 C 0.31374 0.9615 0.00706 0.0
C1772 C 0.29127 0.9639 0.00965 0.0
C1773 C 0.25452 0.9282 0.99549 0.0
H1774 H 0.23943 0.93789 0.04718 0.0
C1775 C 0.20432 0.88494 0.04526 0.0
C1776 C 0.1962 0.88944 0.05851 0.0
C1777 C 0.21548 0.89519 0.031 0.0
C1778 C 0.2433 0.93528 0.03227 0.0
H1779 H 0.30855 0.93861 0.00084 0.0
H1780 H 0.28093 0.92718 0.00071 0.0
H1781 H 0.26617 0.95398 0.03747 0.0
H1782 H 0.19191 0.90756 0.0648 0.0
H1783 H 0.21158 0.92557 0.04 0.0
H1784 H 0.23183 0.90891 0.99118 0.0
C1785 C 0.28808 0.93934 0.00285 0.0
C1786 C 0.25869 0.94452 0.02672 0.0
C1787 C 0.30396 0.94589 0.00321 0.0
C1788 C 0.19822 0.90386 0.05519 0.0
C1789 C 0.20949 0.91417 0.041 0.0
C1790 C 0.23913 0.91894 0.00106 0.0
C1791 C 0.28151 0.9482 0.00639 0.0
C1792 C 0.26464 0.94067 0.0089 0.0
C1793 C 0.21881 0.91019 0.0297 0.0
C1794 C 0.23354 0.92198 0.02012 0.0
H1795 H 0.31448 0.98258 0.01275 0.0
H1796 H 0.28655 0.97103 0.01234 0.0
H1797 H 0.2587 0.92513 0.98136 0.0
H1798 H 0.20321 0.874 0.04744 0.0
H1799 H 0.22249 0.89174 0.02266 0.0
C1800 C 0.38658 0.05847 0.00882 0.0
C1801 C 0.37391 0.04364 0.01045 0.0
C1802 C 0.38443 0.07076 0.00652 0.0
C1803 C 0.3554 0.07923 0.98633 0.0
H1804 H 0.38203 0.11858 0.0135 0.0
C1805 C 0.34588 0.12764 0.96582 0.0
C1806 C 0.35912 0.14124 0.96001 0.0
C1807 C 0.34707 0.11654 0.97738 0.0
C1808 C 0.37451 0.10767 0.00574 0.0
H1809 H 0.34905 0.03019 0.01186 0.0
H1810 H 0.34535 0.05154 0.00801 0.0
H1811 H 0.38557 0.09747 0.02273 0.0
H1812 H 0.3839 0.1544 0.96296 0.0
H1813 H 0.38607 0.13496 0.98284 0.0
H1814 H 0.34466 0.08934 0.96878 0.0
C1815 C 0.35694 0.05368 0.00814 0.0
C1816 C 0.37656 0.09559 0.01101 0.0
C1817 C 0.35909 0.04144 0.01043 0.0
C1818 C 0.3735 0.14407 0.96753 0.0
C1819 C 0.37472 0.13288 0.97887 0.0
C1820 C 0.3534 0.09126 0.98102 0.0
C1821 C 0.36956 0.06847 0.00577 0.0
C1822 C 0.36709 0.08124 0.00123 0.0
C1823 C 0.36155 0.1187 0.98301 0.0
C1824 C 0.36298 0.10569 0.99051 0.0
H1825 H 0.39816 0.06058 0.00882 0.0
H1826 H 0.39439 0.08199 0.00455 0.0
H1827 H 0.34809 0.06843 0.97815 0.0
H1828 H 0.33466 0.12521 0.96016 0.0
H1829 H 0.33665 0.10593 0.98082 0.0
C1830 C 0.95922 0.31206 0.00838 0.0
C1831 C 0.95298 0.31925 0.02007 0.0
C1832 C 0.95055 0.2964 0.00451 0.0
C1833 C 0.90978 0.26508 0.00173 0.0
H1834 H 0.92794 0.24071 0.99193 0.0
C1835 C 0.88139 0.21237 0.94623 0.0
C1836 C 0.88456 0.2008 0.94969 0.0
C1837 C 0.88797 0.22509 0.96 0.0
C1838 C 0.92258 0.24722 0.99502 0.0
H1839 H 0.93327 0.31557 0.0383 0.0
H1840 H 0.91848 0.28832 0.03245 0.0
H1841 H 0.94375 0.26623 0.00688 0.0
H1842 H 0.89609 0.19287 0.97129 0.0
H1843 H 0.90729 0.21497 -0.00411 0.0
H1844 H 0.8886 0.24605 0.9901 0.0
C1845 C 0.92977 0.29474 0.02542 0.0
C1846 C 0.93174 0.26199 0.00326 0.0
C1847 C 0.93831 0.31038 0.02893 0.0
C1848 C 0.89338 0.20159 0.96833 0.0
C1849 C 0.89998 0.21436 0.98219 0.0
C1850 C 0.90061 0.25029 0.99372 0.0
C1851 C 0.93555 0.28757 0.01256 0.0
C1852 C 0.92556 0.27127 0.00621 0.0
C1853 C 0.89784 0.22654 0.97767 0.0
C1854 C 0.90697 0.24129 0.98964 0.0
H1855 H 0.97049 0.31862 0.00129 0.0
H1856 H 0.95538 0.29138 0.99435 0.0
H1857 H 0.90456 0.27184 0.0035 0.0
H1858 H 0.87461 0.21202 0.93197 0.0
H1859 H 0.88611 0.23423 0.95581 0.0
C1860 C 0.70928 0.64918 0.0415 0.0
C1861 C 0.70004 0.65288 0.02878 0.0
C1862 C 0.72513 0.6569 0.03864 0.0
C1863 C 0.75712 0.6882 0.00609 0.0
H1864 H 0.77145 0.65999 0.00532 0.0
C1865 C 0.79412 0.68441 0.94052 0.0
C1866 C 0.80685 0.68311 0.94657 0.0
C1867 C 0.78486 0.68512 0.95642 0.0
C1868 C 0.76781 0.66815 0.00598 0.0
H1869 H 0.70004 0.668 0.00398 0.0
H1870 H 0.7275 0.6809 -0.00213 0.0
H1871 H 0.74749 0.6528 0.0229 0.0
H1872 H 0.81981 0.682 0.97472 0.0
H1873 H 0.80272 0.68208 0.00252 0.0
H1874 H 0.77686 0.70282 0.98695 0.0
C1875 C 0.72279 0.67247 0.01071 0.0
C1876 C 0.75402 0.66407 0.01612 0.0
C1877 C 0.70698 0.66503 0.01409 0.0
C1878 C 0.81008 0.6828 0.96926 0.0
C1879 C 0.80043 0.68303 0.98524 0.0
C1880 C 0.77075 0.69212 0.99552 0.0
C1881 C 0.73203 0.66813 0.02238 0.0
C1882 C 0.74815 0.6738 0.01561 0.0
C1883 C 0.78767 0.68406 0.97885 0.0
C1884 C 0.77591 0.6819 0.99476 0.0
H1885 H 0.70417 0.63994 0.05315 0.0
H1886 H 0.73184 0.65356 0.04853 0.0
H1887 H 0.75328 0.6962 0.00587 0.0
H1888 H 0.79065 0.68407 0.92344 0.0
H1889 H 0.77487 0.68553 0.95106 0.0
C1890 C 0.97695 0.66278 0.01928 0.0
C1891 C 0.97675 0.64922 0.01609 0.0
C1892 C 0.96365 0.66334 0.01589 0.0
C1893 C 0.92562 0.64232 0.98692 0.0
H1894 H 0.91978 0.67226 0.01608 0.0
C1895 C 0.87514 0.6496 0.96266 0.0
C1896 C 0.88025 0.66423 0.95478 0.0
C1897 C 0.88494 0.64675 0.97549 0.0
C1898 C 0.92122 0.66378 0.00794 0.0
H1899 H 0.96225 0.6254 0.00793 0.0
H1900 H 0.93884 0.62615 0.00297 0.0
H1901 H 0.94054 0.66854 0.02853 0.0
H1902 H 0.89904 0.68754 0.95546 0.0
H1903 H 0.91603 0.68267 0.97848 0.0
H1904 H 0.90624 0.63757 0.96642 0.0
C1905 C 0.94939 0.63654 0.00731 0.0
C1906 C 0.9332 0.66171 0.0149 0.0
C1907 C 0.9628 0.63606 0.0103 0.0
C1908 C 0.89481 0.67619 0.96152 0.0
C1909 C 0.90451 0.67339 0.97465 0.0
C1910 C 0.9135 0.6442 0.98026 0.0
C1911 C 0.94968 0.65027 0.00959 0.0
C1912 C 0.93583 0.65122 0.0041 0.0
C1913 C 0.89992 0.65854 0.98093 0.0
C1914 C 0.91138 0.65517 0.99036 0.0
H1915 H 0.98755 0.67315 0.02359 0.0
H1916 H 0.96452 0.67419 0.01743 0.0
H1917 H 0.92733 0.63434 0.97784 0.0
H1918 H 0.86405 0.64016 0.95744 0.0
H1919 H 0.88111 0.63521 0.98021 0.0
C1920 C 0.34178 0.31292 0.01965 0.0
C1921 C 0.35476 0.32748 0.01725 0.0
C1922 C 0.34271 0.30002 0.01635 0.0
C1923 C 0.36696 0.28764 0.9896 0.0
H1924 H 0.34104 0.25049 0.02137 0.0
C1925 C 0.36868 0.23427 0.97099 0.0
C1926 C 0.35423 0.22183 0.96492 0.0
C1927 C 0.36983 0.24662 0.98227 0.0
C1928 C 0.34838 0.2608 0.01243 0.0
H1929 H 0.37902 0.3399 0.01013 0.0
H1930 H 0.3808 0.31747 0.00504 0.0
H1931 H 0.34119 0.27349 0.03112 0.0
H1932 H 0.3297 0.21191 0.9677 0.0
H1933 H 0.33168 0.23335 0.98776 0.0
H1934 H 0.37409 0.27493 0.97089 0.0
C1935 C 0.36976 0.31595 0.00886 0.0
C1936 C 0.3484 0.27398 0.01789 0.0
C1937 C 0.36877 0.32885 0.01189 0.0
C1938 C 0.34098 0.22135 0.97223 0.0
C1939 C 0.34213 0.23363 0.9837 0.0
C1940 C 0.36707 0.27453 0.98435 0.0
C1941 C 0.3567 0.30133 0.01082 0.0
C1942 C 0.3575 0.28754 0.00628 0.0
C1943 C 0.35655 0.2467 0.9879 0.0
C1944 C 0.35762 0.26091 0.99547 0.0
H1945 H 0.33078 0.31145 0.02367 0.0
H1946 H 0.33234 0.28903 0.01762 0.0
H1947 H 0.37391 0.29771 0.97996 0.0
H1948 H 0.37909 0.23504 0.96538 0.0
H1949 H 0.3811 0.25645 0.98555 0.0
C1950 C 0.6962 0.03868 0.99086 0.0
C1951 C 0.68886 0.04614 -0.00165 0.0
C1952 C 0.71216 0.04666 0.98833 0.0
C1953 C 0.74452 0.086 0.98056 0.0
H1954 H 0.76958 0.06806 0.98841 0.0
C1955 C 0.80827 0.11972 0.95934 0.0
C1956 C 0.81236 0.11197 0.94471 0.0
C1957 C 0.79468 0.11179 0.97116 0.0
C1958 C 0.76272 0.07324 0.98622 0.0
H1959 H 0.69262 0.06758 0.01038 0.0
H1960 H 0.72028 0.08129 0.00664 0.0
H1961 H 0.74258 0.05374 -0.00142 0.0
H1962 H 0.80625 0.08991 0.93216 0.0
H1963 H 0.78266 0.07607 0.95283 0.0
H1964 H 0.76449 0.10534 0.96784 0.0
C1965 C 0.71377 0.06944 0.00195 0.0
C1966 C 0.74723 0.065 0.99192 0.0
C1967 C 0.69787 0.06154 0.00419 0.0
C1968 C 0.80332 0.09611 0.94341 0.0
C1969 C 0.78984 0.08819 0.95531 0.0
C1970 C 0.75998 0.09424 0.97501 0.0
C1971 C 0.72112 0.06224 0.99347 0.0
C1972 C 0.73786 0.0712 0.98886 0.0
C1973 C 0.78503 0.09599 0.96863 0.0
C1974 C 0.76922 0.08789 0.97744 0.0
H1975 H 0.68957 0.02681 0.98624 0.0
H1976 H 0.71739 0.04075 0.98159 0.0
H1977 H 0.73765 0.09108 0.97751 0.0
H1978 H 0.81502 0.13196 0.96048 0.0
H1979 H 0.79136 0.11809 0.98152 0.0
C1980 C 0.63572 0.95902 0.00966 0.0
C1981 C 0.64795 0.97094 -0.00163 0.0
C1982 C 0.63575 0.94576 0.01452 0.0
C1983 C 0.6549 0.92419 0.00133 0.0
H1984 H 0.64127 0.9076 0.05959 0.0
C1985 C 0.67072 0.88409 0.04653 0.0
C1986 C 0.66008 0.87355 0.06132 0.0
C1987 C 0.66748 0.89393 0.03493 0.0
C1988 C 0.64486 0.91187 0.04308 0.0
H1989 H 0.66967 0.9781 0.98292 0.0
H1990 H 0.66989 0.9552 0.9918 0.0
H1991 H 0.63912 0.92884 0.04744 0.0
H1992 H 0.63722 0.86404 0.07405 0.0
H1993 H 0.63137 0.88086 0.05342 0.0
H1994 H 0.6611 0.9074 -0.00258 0.0
C1995 C 0.66011 0.95593 -0.00341 0.0
C1996 C 0.64363 0.92411 0.03609 0.0
C1997 C 0.66003 0.96914 0.9916 0.0
C1998 C 0.64563 0.87209 0.06277 0.0
C1999 C 0.64237 0.88185 0.05115 0.0
C2000 C 0.65621 0.91195 0.0084 0.0
C2001 C 0.64806 0.94412 0.00837 0.0
C2002 C 0.64871 0.93053 0.01517 0.0
C2003 C 0.65352 0.89337 0.03792 0.0
C2004 C 0.65126 0.90568 0.02943 0.0
H2005 H 0.62616 0.95996 0.01496 0.0
H2006 H 0.62612 0.93683 0.02323 0.0
H2007 H 0.65876 0.92869 0.985 0.0
H2008 H 0.68202 0.88559 0.04534 0.0
H2009 H 0.67635 0.90268 0.02492 0.0
C2010 C 0.06404 0.69946 0.9939 0.0
C2011 C 0.04837 0.6896 -0.00202 0.0
C2012 C 0.07061 0.71511 0.9955 0.0
C2013 C 0.0653 0.7425 0.02553 0.0
H2014 H 0.10098 0.77133 0.99282 0.0
C2015 C 0.10409 0.80201 0.05993 0.0
C2016 C 0.11941 0.80567 0.06225 0.0
C2017 C 0.09393 0.79053 0.04538 0.0
C2018 C 0.09097 0.76345 0.00201 0.0
H2019 H 0.02711 0.68851 0.00555 0.0
H2020 H 0.03862 0.71592 0.00829 0.0
H2021 H 0.08514 0.74529 0.97938 0.0
H2022 H 0.1364 0.80115 0.04963 0.0
H2023 H 0.11877 0.78122 0.02433 0.0
H2024 H 0.07148 0.76034 0.04874 0.0
C2025 C 0.04584 0.71149 0.00413 0.0
C2026 C 0.08191 0.74853 0.99435 0.0
C2027 C 0.03924 0.69578 0.0025 0.0
C2028 C 0.12472 0.7987 0.04813 0.0
C2029 C 0.11456 0.78722 0.03359 0.0
C2030 C 0.07433 0.7574 0.03316 0.0
C2031 C 0.06169 0.72131 0.0012 0.0
C2032 C 0.06932 0.73774 0.0065 0.0
C2033 C 0.09889 0.7825 0.03286 0.0
C2034 C 0.08761 0.7679 0.02197 0.0
H2035 H 0.0714 0.69511 0.99025 0.0
H2036 H 0.08287 0.72229 0.99341 0.0
H2037 H 0.0558 0.73449 0.03545 0.0
H2038 H 0.09974 0.80737 0.07039 0.0
H2039 H 0.082 0.78737 0.04485 0.0
C2040 C 0.30685 0.37052 0.01625 0.0
C2041 C 0.31489 0.36282 0.0171 0.0
C2042 C 0.29088 0.36257 0.01528 0.0
C2043 C 0.25753 0.32668 0.0312 0.0
H2044 H 0.23584 0.34317 -3e-05 0.0
C2045 C 0.19536 0.30637 0.05165 0.0
C2046 C 0.19371 0.31849 0.05799 0.0
C2047 C 0.20793 0.309 0.03927 0.0
C2048 C 0.2417 0.33834 0.00864 0.0
H2049 H 0.31236 0.34065 0.01711 0.0
H2050 H 0.28419 0.32664 0.01561 0.0
H2051 H 0.26278 0.35281 0.9923 0.0
H2052 H 0.20315 0.3426 0.05552 0.0
H2053 H 0.22499 0.34725 0.03357 0.0
H2054 H 0.23667 0.31269 0.04825 0.0
C2055 C 0.2904 0.3389 0.01572 0.0
C2056 C 0.25713 0.34388 0.0043 0.0
C2057 C 0.30651 0.3469 0.01656 0.0
C2058 C 0.20406 0.33307 0.05035 0.0
C2059 C 0.21657 0.33569 0.03785 0.0
C2060 C 0.24208 0.3211 0.03547 0.0
C2061 C 0.28242 0.34668 0.01517 0.0
C2062 C 0.2654 0.33856 0.01622 0.0
C2063 C 0.21903 0.3238 0.03308 0.0
C2064 C 0.23416 0.32729 0.02487 0.0
H2065 H 0.31289 0.38277 0.01655 0.0
H2066 H 0.28516 0.36895 0.01535 0.0
H2067 H 0.26357 0.3224 0.04077 0.0
H2068 H 0.18762 0.29508 0.05778 0.0
H2069 H 0.20946 0.2996 0.03569 0.0
C2070 C 0.7007 0.68237 0.32642 0.0
C2071 C 0.70033 0.69441 0.33651 0.0
C2072 C 0.71293 0.68012 0.33058 0.0
C2073 C 0.75299 0.69857 0.35204 0.0
H2074 H 0.74172 0.6578 0.36831 0.0
C2075 C 0.79242 0.68524 0.40407 0.0
C2076 C 0.79069 0.67085 0.40262 0.0
C2077 C 0.78331 0.68887 0.39103 0.0
C2078 C 0.7452 0.6692 0.36331 0.0
H2079 H 0.71285 0.71385 0.3583 0.0
H2080 H 0.73424 0.70995 0.36549 0.0
H2081 H 0.72202 0.66274 0.35534 0.0
H2082 H 0.77904 0.64949 0.38483 0.0
H2083 H 0.76353 0.65601 0.36138 0.0
H2084 H 0.77617 0.70508 0.36022 0.0
C2085 C 0.72506 0.70227 0.3543 0.0
C2086 C 0.73383 0.67204 0.35596 0.0
C2087 C 0.71276 0.70445 0.35028 0.0
C2088 C 0.78068 0.66069 0.38632 0.0
C2089 C 0.7716 0.66435 0.37314 0.0
C2090 C 0.76441 0.69571 0.3592 0.0
C2091 C 0.72517 0.68993 0.34478 0.0
C2092 C 0.73753 0.6868 0.35065 0.0
C2093 C 0.77231 0.67824 0.37602 0.0
C2094 C 0.76063 0.68103 0.3654 0.0
H2095 H 0.69136 0.67443 0.31566 0.0
H2096 H 0.71275 0.6706 0.3228 0.0
H2097 H 0.75625 0.71004 0.34775 0.0
H2098 H 0.80014 0.69337 0.41636 0.0
H2099 H 0.78422 0.69965 0.39388 0.0
C2100 C 0.31013 0.01193 0.36027 0.0
C2101 C 0.30964 0.00728 0.33837 0.0
C2102 C 0.3113 0.02576 0.36485 0.0
C2103 C 0.32293 0.06299 0.33988 0.0
H2104 H 0.30268 0.06665 0.3908 0.0
C2105 C 0.31426 0.10938 0.39245 0.0
C2106 C 0.3295 0.1215 0.39274 0.0
C2107 C 0.31025 0.09583 0.38168 0.0
C2108 C 0.30821 0.06584 0.37625 0.0
H2109 H 0.30973 0.01343 0.30406 0.0
H2110 H 0.31144 0.03737 0.31203 0.0
H2111 H 0.29841 0.04205 0.38061 0.0
H2112 H 0.35241 0.12937 0.38154 0.0
H2113 H 0.34559 0.1057 0.36301 0.0
H2114 H 0.33257 0.0868 0.33538 0.0
C2115 C 0.31123 0.03049 0.32571 0.0
C2116 C 0.30596 0.05172 0.37064 0.0
C2117 C 0.31015 0.01669 0.32114 0.0
C2118 C 0.34051 0.12024 0.38106 0.0
C2119 C 0.33657 0.10663 0.37051 0.0
C2120 C 0.32511 0.07713 0.34542 0.0
C2121 C 0.3119 0.03524 0.34763 0.0
C2122 C 0.31349 0.05013 0.35262 0.0
C2123 C 0.3215 0.09404 0.37142 0.0
C2124 C 0.31796 0.0788 0.3639 0.0
H2125 H 0.30985 0.005 0.37395 0.0
H2126 H 0.31205 0.02913 0.38194 0.0
H2127 H 0.32902 0.06225 0.32598 0.0
H2128 H 0.30564 0.11008 0.40164 0.0
H2129 H 0.29847 0.08652 0.38231 0.0
C2130 C 0.98353 0.3117 0.35119 0.0
C2131 C 0.99009 0.30276 0.34812 0.0
C2132 C 0.96754 0.30496 0.35159 0.0
C2133 C 0.93085 0.26897 0.33836 0.0
H2134 H 0.91596 0.27861 0.39032 0.0
C2135 C 0.87991 0.22553 0.38756 0.0
C2136 C 0.87116 0.22992 0.39954 0.0
C2137 C 0.89177 0.23591 0.37428 0.0
C2138 C 0.9198 0.27599 0.37538 0.0
H2139 H 0.98497 0.27988 0.3421 0.0
H2140 H 0.95739 0.26826 0.34299 0.0
H2141 H 0.94264 0.29488 0.38018 0.0
H2142 H 0.86695 0.24819 0.40499 0.0
H2143 H 0.88791 0.26643 0.38204 0.0
H2144 H 0.90822 0.24952 0.33442 0.0
C2145 C 0.96447 0.28044 0.34489 0.0
C2146 C 0.93513 0.28534 0.36957 0.0
C2147 C 0.98034 0.28711 0.34465 0.0
C2148 C 0.87367 0.24454 0.39631 0.0
C2149 C 0.88566 0.25498 0.38317 0.0
C2150 C 0.91554 0.25959 0.34421 0.0
C2151 C 0.95784 0.28922 0.34866 0.0
C2152 C 0.94099 0.28154 0.35159 0.0
C2153 C 0.89523 0.25095 0.37277 0.0
C2154 C 0.91004 0.26265 0.36334 0.0
H2155 H 0.99074 0.3238 0.35382 0.0
H2156 H 0.96276 0.31203 0.35448 0.0
H2157 H 0.93496 0.26593 0.32411 0.0
H2158 H 0.87847 0.21446 0.38979 0.0
H2159 H 0.89901 0.23247 0.36666 0.0
C2160 C 0.04593 0.38833 0.34505 0.0
C2161 C 0.03356 0.37576 0.35515 0.0
C2162 C 0.04562 0.40157 0.34136 0.0
C2163 C 0.01868 0.414 0.33065 0.0
H2164 H 0.05287 0.45437 0.34389 0.0
C2165 C 0.01521 0.46533 0.30378 0.0
C2166 C 0.02851 0.47733 0.29461 0.0
C2167 C 0.01594 0.45425 0.31615 0.0
C2168 C 0.04325 0.4432 0.33988 0.0
H2169 H 0.01128 0.36737 0.36963 0.0
H2170 H 0.01065 0.39034 0.36273 0.0
H2171 H 0.05429 0.43234 0.35497 0.0
H2172 H 0.05304 0.4876 0.29179 0.0
H2173 H 0.05437 0.46811 0.31266 0.0
H2174 H 0.00792 0.42456 0.31448 0.0
C2175 C 0.0206 0.38996 0.35782 0.0
C2176 C 0.04407 0.43059 0.34632 0.0
C2177 C 0.02101 0.37683 0.36182 0.0
C2178 C 0.04268 0.47859 0.29909 0.0
C2179 C 0.04339 0.46734 0.31106 0.0
C2180 C 0.01796 0.42656 0.32387 0.0
C2181 C 0.03284 0.40241 0.34738 0.0
C2182 C 0.03183 0.41587 0.34163 0.0
C2183 C 0.02994 0.45469 0.31906 0.0
C2184 C 0.03027 0.44138 0.32822 0.0
H2185 H 0.05578 0.38788 0.33978 0.0
H2186 H 0.05516 0.41097 0.33314 0.0
H2187 H 0.00915 0.40277 0.32656 0.0
H2188 H 1.00414 0.4641 0.30036 0.0
H2189 H 0.00539 0.44497 0.32257 0.0
C2190 C 0.61006 0.64853 0.34245 0.0
C2191 C 0.62619 0.65714 0.34314 0.0
C2192 C 0.60222 0.63278 0.34114 0.0
C2193 C 0.60694 0.60142 0.3233 0.0
H2194 H 0.56689 0.57724 0.34935 0.0
C2195 C 0.56812 0.53828 0.30174 0.0
C2196 C 0.55384 0.53502 0.29306 0.0
C2197 C 0.57733 0.55157 0.314 0.0
C2198 C 0.5781 0.58382 0.3421 0.0
H2199 H 0.64674 0.65579 0.34345 0.0
H2200 H 0.63297 0.62811 0.34139 0.0
H2201 H 0.58301 0.60401 0.3591 0.0
H2202 H 0.53751 0.54241 0.29133 0.0
H2203 H 0.55331 0.56538 0.31328 0.0
H2204 H 0.60184 0.58127 0.30594 0.0
C2205 C 0.62641 0.63366 0.34161 0.0
C2206 C 0.58732 0.59918 0.34756 0.0
C2207 C 0.63431 0.64952 0.34288 0.0
C2208 C 0.54837 0.54459 0.29824 0.0
C2209 C 0.55746 0.55774 0.31073 0.0
C2210 C 0.59777 0.58602 0.31799 0.0
C2211 C 0.61025 0.62509 0.34059 0.0
C2212 C 0.60163 0.60831 0.33764 0.0
C2213 C 0.57231 0.5617 0.31793 0.0
C2214 C 0.58305 0.57717 0.3268 0.0
H2215 H 0.60339 0.65397 0.34256 0.0
H2216 H 0.58981 0.62666 0.33989 0.0
H2217 H 0.61781 0.60808 0.31517 0.0
H2218 H 0.57267 0.53119 0.29757 0.0
H2219 H 0.58868 0.55429 0.31945 0.0
C2220 C 0.36243 0.97403 0.3108 0.0
C2221 C 0.35552 0.97738 0.32785 0.0
C2222 C 0.37833 0.98206 0.30895 0.0
C2223 C 0.41283 0.99787 0.33901 0.0
H2224 H 0.43181 0.01738 0.28411 0.0
C2225 C 0.47097 0.02051 0.28371 0.0
C2226 C 0.47089 0.00686 0.28315 0.0
C2227 C 0.46016 0.02167 0.296 0.0
C2228 C 0.42687 0.01234 0.29981 0.0
H2229 H 0.35974 0.99178 0.35629 0.0
H2230 H 0.38792 0.00556 0.35348 0.0
H2231 H 0.40552 0.01057 0.29102 0.0
H2232 H 0.46076 0.98444 0.29725 0.0
H2233 H 0.44208 0.98651 0.31886 0.0
H2234 H 0.43379 0.99851 0.34701 0.0
C2235 C 0.38086 0.99689 0.34138 0.0
C2236 C 0.4118 0.00839 0.30367 0.0
C2237 C 0.36482 0.98909 0.3429 0.0
C2238 C 0.46117 0.99513 0.29738 0.0
C2239 C 0.45041 0.99632 0.30976 0.0
C2240 C 0.42789 1.00162 0.33501 0.0
C2241 C 0.38769 0.99337 0.32439 0.0
C2242 C 0.4045 1.00069 0.32295 0.0
C2243 C 0.44917 0.00923 0.30808 0.0
C2244 C 0.43488 0.00844 0.31501 0.0
H2245 H 0.35552 0.96508 0.29898 0.0
H2246 H 0.38338 0.9791 0.29581 0.0
H2247 H 0.40733 0.9918 0.35391 0.0
H2248 H 0.4785 0.02983 0.27315 0.0
H2249 H 0.45966 0.03187 0.29471 0.0
C2250 C 0.63517 0.97294 0.33201 0.0
C2251 C 0.64998 0.9847 0.32664 0.0
C2252 C 0.62259 0.9749 0.32959 0.0
C2253 C 0.61121 0.999 0.29935 0.0
H2254 H 0.57619 0.98072 0.33778 0.0
C2255 C 0.56275 0.00977 0.2834 0.0
C2256 C 0.54833 0.9965 0.28058 0.0
C2257 C 0.57472 0.00934 0.29431 0.0
C2258 C 0.58593 0.9859 0.32696 0.0
H2259 H 0.66334 0.00797 0.3157 0.0
H2260 H 0.64167 0.01155 0.31216 0.0
H2261 H 0.59817 0.97776 0.34595 0.0
H2262 H 0.53466 0.97272 0.28869 0.0
H2263 H 0.55562 0.97194 0.30783 0.0
H2264 H 0.59907 0.00704 0.2803 0.0
C2265 C 0.63956 1.00061 0.31747 0.0
C2266 C 0.59847 0.98414 0.33154 0.0
C2267 C 0.65203 0.99859 0.31958 0.0
C2268 C 0.54564 0.98314 0.29083 0.0
C2269 C 0.55767 0.98269 0.30171 0.0
C2270 C 0.59881 1.00086 0.29493 0.0
C2271 C 0.62462 0.98873 0.32199 0.0
C2272 C 0.61127 0.99066 0.31773 0.0
C2273 C 0.57252 0.99561 0.30248 0.0
C2274 C 0.58601 0.99433 0.30862 0.0
H2275 H 0.63324 0.96211 0.33754 0.0
H2276 H 0.61124 0.96545 0.33306 0.0
H2277 H 0.62061 0.00383 0.28797 0.0
H2278 H 0.56507 0.02022 0.2757 0.0
H2279 H 0.58596 0.01956 0.29508 0.0
C2280 C 0.03605 0.66356 0.34306 0.0
C2281 C 0.02285 0.6638 0.33653 0.0
C2282 C 0.03635 0.65018 0.34156 0.0
C2283 C 0.01121 0.60838 0.3356 0.0
H2284 H 0.04672 0.61115 0.30864 0.0
C2285 C 0.00952 0.55885 0.28989 0.0
C2286 C 0.023 0.55835 0.28842 0.0
C2287 C 0.00952 0.57045 0.30167 0.0
C2288 C 0.03684 0.61013 0.31668 0.0
H2289 H 0.9995 0.65003 0.32373 0.0
H2290 H 1.00008 0.62683 0.321 0.0
H2291 H 0.04685 0.63417 0.31739 0.0
H2292 H 0.04666 0.56882 0.29979 0.0
H2293 H 0.04657 0.58887 0.32092 0.0
H2294 H 1.00104 0.58431 0.33436 0.0
C2295 C 0.01016 0.63692 0.32749 0.0
C2296 C 0.03691 0.62338 0.32164 0.0
C2297 C 0.00988 0.65029 0.32888 0.0
C2298 C 0.03607 0.56886 0.30071 0.0
C2299 C 0.03607 0.58049 0.31253 0.0
C2300 C 0.01116 0.59512 0.33071 0.0
C2301 C 0.02343 0.63671 0.33363 0.0
C2302 C 0.02396 0.62267 0.33068 0.0
C2303 C 0.023 0.58182 0.31231 0.0
C2304 C 0.02384 0.5958 0.3207 0.0
H2305 H 0.04623 0.67374 0.3491 0.0
H2306 H 0.04672 0.65039 0.34662 0.0
H2307 H 1.00115 0.60744 0.34295 0.0
H2308 H 0.99927 0.55087 0.28061 0.0
H2309 H 0.99924 0.57108 0.30101 0.0
C2310 C 0.36087 0.3923 0.33361 0.0
C2311 C 0.35227 0.37638 0.33358 0.0
C2312 C 0.37685 0.40017 0.33381 0.0
C2313 C 0.40923 0.39646 0.31816 0.0
H2314 H 0.43253 0.43544 0.34783 0.0
C2315 C 0.4727 0.43695 0.29922 0.0
C2316 C 0.47537 0.45103 0.29201 0.0
C2317 C 0.45952 0.42727 0.31105 0.0
C2318 C 0.42621 0.42453 0.33959 0.0
H2319 H 0.35387 0.35625 0.33408 0.0
H2320 H 0.38202 0.37011 0.33437 0.0
H2321 H 0.40536 0.41875 0.35557 0.0
H2322 H 0.46709 0.46651 0.29239 0.0
H2323 H 0.44427 0.44985 0.3135 0.0
H2324 H 0.42997 0.40249 0.30159 0.0
C2325 C 0.37625 0.37644 0.33416 0.0
C2326 C 0.41064 0.41498 0.34394 0.0
C2327 C 0.36014 0.36851 0.33403 0.0
C2328 C 0.46538 0.45582 0.29822 0.0
C2329 C 0.45231 0.44624 0.31024 0.0
C2330 C 0.42484 0.40599 0.31389 0.0
C2331 C 0.38478 0.39239 0.33401 0.0
C2332 C 0.40182 0.4011 0.33262 0.0
C2333 C 0.44888 0.4316 0.31593 0.0
C2334 C 0.43336 0.42036 0.32396 0.0
H2335 H 0.35526 0.39879 0.33327 0.0
H2336 H 0.38298 0.41242 0.33319 0.0
H2337 H 0.40279 0.38591 0.30904 0.0
H2338 H 0.48014 0.43295 0.2942 0.0
H2339 H 0.45723 0.41611 0.31534 0.0
C2340 C 0.32345 0.2993 0.32584 0.0
C2341 C 0.31132 0.30104 0.33258 0.0
C2342 C 0.32338 0.28596 0.33028 0.0
C2343 C 0.30595 0.25299 0.36784 0.0
H2344 H 0.32402 0.23733 0.32836 0.0
C2345 C 0.30686 0.19978 0.39085 0.0
C2346 C 0.32138 0.20134 0.39003 0.0
C2347 C 0.30396 0.21 0.37985 0.0
C2348 C 0.31895 0.24158 0.33955 0.0
H2349 H 0.28933 0.28984 0.34864 0.0
H2350 H 0.28902 0.26645 0.35593 0.0
H2351 H 0.32209 0.25908 0.31725 0.0
H2352 H 0.34385 0.21407 0.3756 0.0
H2353 H 0.33877 0.23189 0.35619 0.0
H2354 H 0.30293 0.23564 0.3902 0.0
C2355 C 0.2988 0.27555 0.34767 0.0
C2356 C 0.31789 0.25409 0.33325 0.0
C2357 C 0.29893 0.28895 0.34339 0.0
C2358 C 0.33249 0.21248 0.37633 0.0
C2359 C 0.32959 0.22274 0.36531 0.0
C2360 C 0.30691 0.24046 0.37405 0.0
C2361 C 0.31112 0.27393 0.34145 0.0
C2362 C 0.3115 0.26007 0.34742 0.0
C2363 C 0.31553 0.22203 0.3678 0.0
C2364 C 0.31353 0.23465 0.36008 0.0
H2365 H 0.33321 0.3084 0.31754 0.0
H2366 H 0.33318 0.28527 0.3255 0.0
H2367 H 0.30127 0.2574 0.37944 0.0
H2368 H 0.29807 0.19125 0.40122 0.0
H2369 H 0.29288 0.20892 0.3817 0.0
C2370 C 0.7115 0.02701 0.35059 0.0
C2371 C 0.72055 0.02043 0.34869 0.0
C2372 C 0.71839 0.04275 0.35208 0.0
C2373 C 0.73736 0.07463 0.37185 0.0
H2374 H 0.77338 0.10169 0.33829 0.0
C2375 C 0.79561 0.13389 0.3887 0.0
C2376 C 0.78969 0.14131 0.40057 0.0
C2377 C 0.78587 0.12109 0.37591 0.0
C2378 C 0.76331 0.0943 0.34776 0.0
H2379 H 0.74389 0.02528 0.34628 0.0
H2380 H 0.75583 0.0526 0.34897 0.0
H2381 H 0.75843 0.07478 0.32881 0.0
H2382 H 0.76929 0.14225 0.40632 0.0
H2383 H 0.75228 0.12003 0.38361 0.0
H2384 H 0.74261 0.09385 0.39159 0.0
C2385 C 0.74343 0.04564 0.34913 0.0
C2386 C 0.75476 0.0789 0.34233 0.0
C2387 C 0.73658 0.02994 0.34782 0.0
C2388 C 0.77412 0.13662 0.39755 0.0
C2389 C 0.76438 0.12384 0.38467 0.0
C2390 C 0.74594 0.09 0.37736 0.0
C2391 C 0.73444 0.05222 0.35146 0.0
C2392 C 0.74198 0.06883 0.35477 0.0
C2393 C 0.77001 0.11548 0.37464 0.0
C2394 C 0.75931 0.09995 0.36584 0.0
H2395 H 0.69911 0.02 0.3512 0.0
H2396 H 0.71117 0.04751 0.35379 0.0
H2397 H 0.72765 0.06714 0.38187 0.0
H2398 H 0.80751 0.1371 0.39086 0.0
H2399 H 0.79063 0.11491 0.36859 0.0
C2400 C 0.97976 0.71017 0.35887 0.0
C2401 C 0.98702 0.70186 0.35601 0.0
C2402 C 0.96384 0.70293 0.35937 0.0
C2403 C 0.92919 0.66701 0.37161 0.0
H2404 H 0.90947 0.68697 0.34475 0.0
C2405 C 0.86687 0.64785 0.39106 0.0
C2406 C 0.86571 0.65986 0.3994 0.0
C2407 C 0.87971 0.65078 0.37906 0.0
C2408 C 0.91477 0.68119 0.3522 0.0
H2409 H 0.98309 0.67928 0.35166 0.0
H2410 H 0.955 0.6665 0.35281 0.0
H2411 H 0.93629 0.69602 0.33714 0.0
H2412 H 0.87635 0.68418 0.40088 0.0
H2413 H 0.89859 0.68938 0.37953 0.0
H2414 H 0.90785 0.65258 0.38741 0.0
C2415 C 0.96181 0.6787 0.35457 0.0
C2416 C 0.93013 0.68639 0.34791 0.0
C2417 C 0.97787 0.68601 0.35393 0.0
C2418 C 0.8769 0.67477 0.39418 0.0
C2419 C 0.88964 0.67771 0.38201 0.0
C2420 C 0.91379 0.66178 0.37587 0.0
C2421 C 0.95464 0.68714 0.35707 0.0
C2422 C 0.93769 0.67975 0.35827 0.0
C2423 C 0.89151 0.66577 0.37516 0.0
C2424 C 0.90659 0.66918 0.36686 0.0
H2425 H 0.98638 0.72238 0.36062 0.0
H2426 H 0.95873 0.70974 0.36189 0.0
H2427 H 0.93469 0.66169 0.3799 0.0
H2428 H 0.85848 0.63627 0.3953 0.0
H2429 H 0.88079 0.64137 0.37386 0.0
C2430 C 0.37864 0.04142 0.68493 0.0
C2431 C 0.36574 0.02949 0.67402 0.0
C2432 C 0.3917 0.04054 0.68939 0.0
C2433 C 0.41056 0.0187 0.6758 0.0
H2434 H 0.42997 0.03319 0.73338 0.0
C2435 C 0.44852 0.99956 0.7209 0.0
C2436 C 0.46038 0.01 0.73508 0.0
C2437 C 0.43913 0.00362 0.70936 0.0
C2438 C 0.4249 0.02933 0.71706 0.0
H2439 H 0.35662 0.00738 0.65884 0.0
H2440 H 0.37914 0.00567 0.66709 0.0
H2441 H 0.40928 0.03697 0.72168 0.0
H2442 H 0.47265 0.03327 0.7466 0.0
H2443 H 0.45647 0.04043 0.72624 0.0
H2444 H 0.42593 0.01054 0.67169 0.0
C2445 C 0.37936 0.01587 0.67184 0.0
C2446 C 0.41299 0.03151 0.71031 0.0
C2447 C 0.36636 0.01681 0.66723 0.0
C2448 C 0.46353 0.02495 0.73591 0.0
C2449 C 0.45417 0.02901 0.7244 0.0
C2450 C 0.42245 0.01642 0.68264 0.0
C2451 C 0.39215 0.02764 0.68324 0.0
C2452 C 0.40553 0.02611 0.68967 0.0
C2453 C 0.44143 0.01821 0.7118 0.0
C2454 C 0.42969 0.02162 0.70344 0.0
H2455 H 0.37862 0.0514 0.69024 0.0
H2456 H 0.40142 0.04996 0.69781 0.0
H2457 H 0.40528 0.01459 0.65965 0.0
H2458 H 0.4457 0.98791 0.72012 0.0
H2459 H 0.4294 0.995 0.69985 0.0
C2460 C 0.99327 0.35981 0.67265 0.0
C2461 C 0.98269 0.34556 0.68131 0.0
C2462 C 0.99253 0.37258 0.67793 0.0
C2463 C 0.97631 0.38667 0.71919 0.0
H2464 H 0.98761 0.41882 0.67672 0.0
C2465 C 0.97206 0.43779 0.74173 0.0
C2466 C 0.98591 0.45168 0.7396 0.0
C2467 C 0.96974 0.42488 0.7308 0.0
C2468 C 0.98441 0.40992 0.68872 0.0
H2469 H 0.96283 0.3335 0.70199 0.0
H2470 H 0.96124 0.35563 0.71072 0.0
H2471 H 0.98743 0.39595 0.6659 0.0
H2472 H 0.00756 0.46329 0.72275 0.0
H2473 H 1.00343 0.44071 0.70333 0.0
H2474 H 0.97327 0.40059 0.74196 0.0
C2475 C 0.9704 0.35708 0.7003 0.0
C2476 C 0.9844 0.39684 0.6826 0.0
C2477 C 0.97126 0.34434 0.69523 0.0
C2478 C 0.99672 0.45276 0.72453 0.0
C2479 C 0.99438 0.4398 0.71352 0.0
C2480 C 0.97615 0.39962 0.72519 0.0
C2481 C 0.98107 0.3714 0.6918 0.0
C2482 C 0.98048 0.38509 0.69784 0.0
C2483 C 0.98121 0.4256 0.71745 0.0
C2484 C 0.9803 0.41144 0.7101 0.0
H2485 H 1.00226 0.36114 0.66193 0.0
H2486 H 1.00113 0.38342 0.67138 0.0
H2487 H 0.97355 0.37808 0.73156 0.0
H2488 H 0.9635 0.43668 0.75314 0.0
H2489 H 0.95934 0.41414 0.73377 0.0
C2490 C 0.64042 0.61581 0.68303 0.0
C2491 C 0.65014 0.63142 0.68689 0.0
C2492 C 0.62456 0.60899 0.68452 0.0
C2493 C 0.59638 0.61255 0.71446 0.0
H2494 H 0.56799 0.57826 0.67774 0.0
C2495 C 0.53846 0.56912 0.74835 0.0
C2496 C 0.53657 0.55463 0.74807 0.0
C2497 C 0.54871 0.58038 0.73412 0.0
C2498 C 0.57572 0.58789 0.68805 0.0
H2499 H 0.6508 0.65222 0.69467 0.0
H2500 H 0.62289 0.64013 0.69781 0.0
H2501 H 0.59414 0.59537 0.66547 0.0
H2502 H 0.54274 0.54019 0.73096 0.0
H2503 H 0.56039 0.5596 0.70628 0.0
H2504 H 0.57845 0.60454 0.7378 0.0
C2505 C 0.62766 0.63325 0.69347 0.0
C2506 C 0.59067 0.59768 0.68102 0.0
C2507 C 0.6436 0.64015 0.69168 0.0
C2508 C 0.54378 0.55116 0.73158 0.0
C2509 C 0.55399 0.56238 0.71735 0.0
C2510 C 0.58145 0.60272 0.72155 0.0
C2511 C 0.618 0.61756 0.69011 0.0
C2512 C 0.60136 0.60967 0.69466 0.0
C2513 C 0.55722 0.57733 0.71929 0.0
C2514 C 0.57119 0.58984 0.70893 0.0
H2515 H 0.64507 0.60877 0.67913 0.0
H2516 H 0.61748 0.59684 0.6822 0.0
H2517 H 0.60436 0.62165 0.72538 0.0
H2518 H 0.53285 0.57206 0.76064 0.0
H2519 H 0.55071 0.5917 0.7357 0.0
C2520 C 0.6925 0.71011 0.67497 0.0
C2521 C 0.70746 0.71323 0.67953 0.0
C2522 C 0.68971 0.72184 0.67136 0.0
C2523 C 0.70642 0.7633 0.6779 0.0
H2524 H 0.67868 0.75719 0.62887 0.0
C2525 C 0.70378 0.81141 0.63219 0.0
C2526 C 0.68979 0.80793 0.62204 0.0
C2527 C 0.7049 0.80036 0.64412 0.0
C2528 C 0.68621 0.75902 0.64293 0.0
H2529 H 0.73118 0.73121 0.6844 0.0
H2530 H 0.72635 0.75176 0.67765 0.0
H2531 H 0.68295 0.73699 0.63942 0.0
H2532 H 0.66571 0.79081 0.61824 0.0
H2533 H 0.6675 0.77169 0.63967 0.0
H2534 H 0.70993 0.78559 0.68092 0.0
C2535 C 0.71674 0.7402 0.67717 0.0
C2536 C 0.6887 0.7474 0.64895 0.0
C2537 C 0.71953 0.72841 0.68089 0.0
C2538 C 0.67664 0.79375 0.62586 0.0
C2539 C 0.67772 0.78276 0.63791 0.0
C2540 C 0.70392 0.77499 0.67184 0.0
C2541 C 0.70181 0.73703 0.67207 0.0
C2542 C 0.69889 0.74939 0.66642 0.0
C2543 C 0.69202 0.78567 0.64616 0.0
C2544 C 0.69383 0.77301 0.65418 0.0
H2545 H 0.68288 0.69856 0.67405 0.0
H2546 H 0.67804 0.71898 0.66791 0.0
H2547 H 0.71422 0.76515 0.69159 0.0
H2548 H 0.71412 0.82221 0.62927 0.0
H2549 H 0.7161 0.803 0.65019 0.0
C2550 C 0.29727 0.98448 0.6706 0.0
C2551 C 0.28978 0.99257 0.67346 0.0
C2552 C 0.28876 0.96873 0.66738 0.0
C2553 C 0.25059 0.93861 0.64728 0.0
H2554 H 0.26187 0.91112 0.67271 0.0
C2555 C 0.21401 0.87551 0.62713 0.0
C2556 C 0.22228 0.86879 0.6208 0.0
C2557 C 0.22141 0.88937 0.63846 0.0
C2558 C 0.25859 0.91866 0.66543 0.0
H2559 H 0.26745 0.99029 0.67605 0.0
H2560 H 0.25278 0.96306 0.67064 0.0
H2561 H 0.27698 0.9381 0.68217 0.0
H2562 H 0.24444 0.87073 0.62199 0.0
H2563 H 0.25748 0.89496 0.64159 0.0
H2564 H 0.23255 0.91948 0.63003 0.0
C2565 C 0.26519 0.96885 0.67047 0.0
C2566 C 0.26728 0.93412 0.67081 0.0
C2567 C 0.27364 0.9845 0.67366 0.0
C2568 C 0.23779 0.87558 0.6272 0.0
C2569 C 0.24524 0.8895 0.63836 0.0
C2570 C 0.24197 0.92324 0.64185 0.0
C2571 C 0.2726 0.96078 0.66693 0.0
C2572 C 0.26338 0.94428 0.66173 0.0
C2573 C 0.2373 0.8969 0.64327 0.0
C2574 C 0.24586 0.91303 0.65077 0.0
H2575 H 0.30968 0.99034 0.6704 0.0
H2576 H 0.29482 0.96286 0.66457 0.0
H2577 H 0.24743 0.94615 0.63963 0.0
H2578 H 0.2021 0.87057 0.622 0.0
H2579 H 0.21486 0.89458 0.64239 0.0
C2580 C 0.02994 0.30814 0.64525 0.0
C2581 C 0.0228 0.31153 0.66193 0.0
C2582 C 0.04589 0.31559 0.64451 0.0
C2583 C 0.07963 0.32969 0.67581 0.0
H2584 H 0.10044 0.35188 0.62334 0.0
C2585 C 0.1402 0.35587 0.62514 0.0
C2586 C 0.14053 0.34246 0.62334 0.0
C2587 C 0.12858 0.35602 0.63677 0.0
C2588 C 0.09497 0.34605 0.63838 0.0
H2589 H 0.02673 0.32538 0.69095 0.0
H2590 H 0.05495 0.33814 0.69004 0.0
H2591 H 0.07393 0.34482 0.62912 0.0
H2592 H 0.13005 0.31929 0.63457 0.0
H2593 H 0.10997 0.31963 0.6551 0.0
H2594 H 0.10031 0.32988 0.68422 0.0
C2595 C 0.04803 0.32986 0.6774 0.0
C2596 C 0.07977 0.34196 0.6416 0.0
C2597 C 0.03197 0.32263 0.67785 0.0
C2598 C 0.13019 0.32982 0.63571 0.0
C2599 C 0.11861 0.33 0.64746 0.0
C2600 C 0.09481 0.33358 0.67243 0.0
C2601 C 0.05505 0.32636 0.66069 0.0
C2602 C 0.07187 0.3334 0.65999 0.0
C2603 C 0.11716 0.34282 0.64699 0.0
C2604 C 0.10248 0.34142 0.65334 0.0
H2605 H 0.02317 0.29969 0.63272 0.0
H2606 H 0.0511 0.31269 0.63152 0.0
H2607 H 0.07365 0.32294 0.69002 0.0
H2608 H 0.14817 0.36586 0.61605 0.0
H2609 H 0.1279 0.36614 0.63646 0.0
C2610 C 0.29926 0.29945 0.67274 0.0
C2611 C 0.31339 0.31092 0.68168 0.0
C2612 C 0.28716 0.302 0.66922 0.0
C2613 C 0.2801 0.33198 0.65573 0.0
H2614 H 0.23845 0.30448 0.67435 0.0
C2615 C 0.23236 0.34262 0.62851 0.0
C2616 C 0.21839 0.32983 0.62186 0.0
C2617 C 0.24321 0.34101 0.64077 0.0
C2618 C 0.24997 0.31222 0.6688 0.0
H2619 H 0.32586 0.33401 0.69415 0.0
H2620 H 0.30487 0.33857 0.68739 0.0
H2621 H 0.25884 0.29979 0.68531 0.0
H2622 H 0.20447 0.30542 0.62337 0.0
H2623 H 0.22349 0.30245 0.64393 0.0
H2624 H 0.27138 0.34392 0.63809 0.0
C2625 C 0.30313 0.32757 0.68337 0.0
C2626 C 0.26165 0.30954 0.6752 0.0
C2627 C 0.31511 0.32492 0.68728 0.0
C2628 C 0.21508 0.31547 0.62867 0.0
C2629 C 0.22605 0.31381 0.6405 0.0
C2630 C 0.26842 0.33449 0.64896 0.0
C2631 C 0.28908 0.31617 0.67418 0.0
C2632 C 0.27679 0.31934 0.66857 0.0
C2633 C 0.24051 0.32652 0.64605 0.0
C2634 C 0.25313 0.32458 0.6552 0.0
H2635 H 0.29757 0.28853 0.66833 0.0
H2636 H 0.27647 0.29307 0.66196 0.0
H2637 H 0.29166 0.33962 0.6502 0.0
H2638 H 0.23517 0.35381 0.62333 0.0
H2639 H 0.25398 0.35112 0.64529 0.0
C2640 C 0.70249 0.99847 0.66809 0.0
C2641 C 0.68962 0.99805 0.6769 0.0
C2642 C 0.70232 0.98504 0.66401 0.0
C2643 C 0.67595 0.94504 0.65111 0.0
H2644 H 0.71 0.94001 0.66772 0.0
C2645 C 0.67373 0.89014 0.62839 0.0
C2646 C 0.68728 0.8917 0.62034 0.0
C2647 C 0.67406 0.90214 0.63953 0.0
C2648 C 0.70044 0.94125 0.66276 0.0
H2649 H 0.6665 0.98316 0.68844 0.0
H2650 H 0.66612 0.95977 0.68093 0.0
H2651 H 0.7107 0.96322 0.67794 0.0
H2652 H 0.71185 0.90671 0.61828 0.0
H2653 H 0.71249 0.92782 0.63713 0.0
H2654 H 0.66592 0.92355 0.63505 0.0
C2655 C 0.67636 0.97049 0.67727 0.0
C2656 C 0.70085 0.95455 0.66869 0.0
C2657 C 0.67661 0.9839 0.68164 0.0
C2658 C 0.70128 0.90515 0.62471 0.0
C2659 C 0.7016 0.91727 0.6355 0.0
C2660 C 0.67563 0.93186 0.64491 0.0
C2661 C 0.68919 0.9709 0.66836 0.0
C2662 C 0.68863 0.95661 0.66283 0.0
C2663 C 0.68791 0.91612 0.64238 0.0
C2664 C 0.68789 0.92977 0.65053 0.0
H2665 H 0.71271 0.00917 0.66432 0.0
H2666 H 0.71232 0.9857 0.65696 0.0
H2667 H 0.66646 0.94639 0.6461 0.0
H2668 H 0.66278 0.87989 0.6251 0.0
H2669 H 0.66333 0.90062 0.64512 0.0
C2670 C 0.0308 0.70427 0.66461 0.0
C2671 C 0.02329 0.71152 0.67224 0.0
C2672 C 0.04686 0.71223 0.66348 0.0
C2673 C 0.07936 0.75175 0.65953 0.0
H2674 H 0.10435 0.73366 0.66623 0.0
C2675 C 0.14264 0.78636 0.63852 0.0
C2676 C 0.14661 0.77901 0.62301 0.0
C2677 C 0.12944 0.77801 0.65103 0.0
C2678 C 0.09752 0.73889 0.66442 0.0
H2679 H 0.02672 0.73238 0.68623 0.0
H2680 H 0.05451 0.74599 0.68495 0.0
H2681 H 0.0771 0.7189 0.67511 0.0
H2682 H 0.14091 0.75726 0.60968 0.0
H2683 H 0.11799 0.74268 0.63147 0.0
H2684 H 0.09952 0.77153 0.64829 0.0
C2685 C 0.04812 0.7344 0.67902 0.0
C2686 C 0.08189 0.73041 0.66937 0.0
C2687 C 0.03215 0.72656 0.67984 0.0
C2688 C 0.13809 0.76313 0.6217 0.0
C2689 C 0.12496 0.7548 0.63421 0.0
C2690 C 0.09492 0.76021 0.65471 0.0
C2691 C 0.05569 0.72752 0.67022 0.0
C2692 C 0.07256 0.73667 0.66666 0.0
C2693 C 0.12004 0.76221 0.64817 0.0
C2694 C 0.10416 0.75383 0.65672 0.0
H2695 H 0.02426 0.69268 0.6587 0.0
H2696 H 0.05229 0.70659 0.65648 0.0
H2697 H 0.07254 0.7569 0.65675 0.0
H2698 H 0.14898 0.7986 0.63963 0.0
H2699 H 0.12607 0.78402 0.66191 0.0
C2700 C 0.96774 0.62433 0.68099 0.0
C2701 C 0.98066 0.63625 0.67082 0.0
C2702 C 0.9671 0.61076 0.68596 0.0
C2703 C 0.98585 0.58849 0.67491 0.0
H2704 H 0.96885 0.57064 0.73144 0.0
C2705 C 0.99759 0.54607 0.72188 0.0
C2706 C 0.98588 0.53518 0.73513 0.0
C2707 C 0.99544 0.55655 0.71003 0.0
C2708 C 0.9734 0.57529 0.71541 0.0
H2709 H 1.00293 0.64309 0.65754 0.0
H2710 H 1.00199 0.61966 0.66669 0.0
H2711 H 0.96811 0.59263 0.71908 0.0
H2712 H 0.96231 0.52578 0.74474 0.0
H2713 H 0.95843 0.54381 0.72376 0.0
H2714 H 0.9916 0.57131 0.67177 0.0
C2715 C 0.99219 0.62062 0.67046 0.0
C2716 C 0.97297 0.58794 0.70828 0.0
C2717 C 0.99278 0.63414 0.66533 0.0
C2718 C 0.97155 0.53411 0.73473 0.0
C2719 C 0.9694 0.54453 0.7229 0.0
C2720 C 0.98637 0.57584 0.68214 0.0
C2721 C 0.97942 0.6088 0.68108 0.0
C2722 C 0.97926 0.5948 0.68799 0.0
C2723 C 0.98153 0.55631 0.71123 0.0
C2724 C 0.9802 0.56912 0.70253 0.0
H2725 H 0.95815 0.62551 0.68528 0.0
H2726 H 0.95694 0.60183 0.69375 0.0
H2727 H 0.99063 0.59332 0.65905 0.0
H2728 H 0.0088 0.54726 0.72209 0.0
H2729 H 0.00504 0.56548 0.70125 0.0
C2730 C 0.38095 0.3506 0.68842 0.0
C2731 C 0.38761 0.34198 0.68363 0.0
C2732 C 0.39021 0.36622 0.69229 0.0
C2733 C 0.42978 0.39443 0.71021 0.0
H2734 H 0.41877 0.42387 0.69309 0.0
C2735 C 0.46976 0.45616 0.73361 0.0
C2736 C 0.46269 0.46277 0.74479 0.0
C2737 C 0.46099 0.44301 0.72104 0.0
C2738 C 0.42198 0.41576 0.69796 0.0
H2739 H 0.40914 0.34312 0.67789 0.0
H2740 H 0.42514 0.37022 0.68411 0.0
H2741 H 0.40236 0.39739 0.68139 0.0
H2742 H 0.44109 0.46168 0.74941 0.0
H2743 H 0.42572 0.43846 0.72791 0.0
H2744 H 0.44914 0.41253 0.72711 0.0
C2745 C 0.41283 0.36493 0.68555 0.0
C2746 C 0.41256 0.4006 0.69135 0.0
C2747 C 0.40363 0.34937 0.6819 0.0
C2748 C 0.44685 0.45671 0.74133 0.0
C2749 C 0.43804 0.44346 0.72885 0.0
C2750 C 0.43916 0.4095 0.71672 0.0
C2751 C 0.40629 0.37351 0.69129 0.0
C2752 C 0.41635 0.38975 0.69748 0.0
C2753 C 0.44494 0.43607 0.71948 0.0
C2754 C 0.43538 0.42036 0.71077 0.0
H2755 H 0.36863 0.34523 0.68981 0.0
H2756 H 0.38479 0.37246 0.69682 0.0
H2757 H 0.43287 0.38635 0.71573 0.0
H2758 H 0.4819 0.46042 0.73592 0.0
H2759 H 0.46668 0.43777 0.71358 0.0
C2760 C 0.64374 0.02072 0.68797 0.0
C2761 C 0.6527 0.03612 0.68261 0.0
C2762 C 0.62774 0.0137 0.68934 0.0
C2763 C 0.59862 0.02413 0.69867 0.0
H2764 H 0.56947 0.98191 0.6851 0.0
C2765 C 0.53574 0.9989 0.7193 0.0
C2766 C 0.53013 0.98597 0.73249 0.0
C2767 C 0.5489 0.00374 0.70689 0.0
C2768 C 0.57748 0.99374 0.68887 0.0
H2769 H 0.65189 0.05593 0.67279 0.0
H2770 H 0.62422 0.04368 0.67445 0.0
H2771 H 0.59651 0.99291 0.6761 0.0
H2772 H 0.53277 0.9671 0.74137 0.0
H2773 H 0.55569 0.9755 0.71985 0.0
H2774 H 0.57984 0.02496 0.71194 0.0
C2775 C 0.62944 0.0371 0.67848 0.0
C2776 C 0.59298 1.00002 0.68384 0.0
C2777 C 0.64533 0.04412 0.67746 0.0
C2778 C 0.53696 0.97717 0.73138 0.0
C2779 C 0.55005 0.98196 0.71896 0.0
C2780 C 0.5832 0.0179 0.70358 0.0
C2781 C 0.62045 0.02194 0.68508 0.0
C2782 C 0.60377 0.01526 0.68896 0.0
C2783 C 0.55662 0.99569 0.70745 0.0
C2784 C 0.57246 0.00259 0.69906 0.0
H2785 H 0.64912 0.01428 0.69195 0.0
H2786 H 0.62119 1.00202 0.69459 0.0
H2787 H 0.6066 0.0358 0.70334 0.0
H2788 H 0.53068 0.00588 0.71993 0.0
H2789 H 0.55355 0.01424 0.69786 0.0
loop_
_geom_bond_atom_site_label_1
_geom_bond_atom_site_label_2
_geom_bond_distance
_geom_bond_site_symmetry_2
_ccdc_geom_bond_type
Zn0 O3 2.031 1_554 S
Zn0 O5 2.049 . S
Zn0 O10 2.067 1_554 S
Zn1 O2 1.962 1_455 S
Zn1 O4 1.986 . S
Zn1 O6 1.996 1_455 S
Zn1 O9 1.943 1_554 S
O2 Zn1 1.962 1_655 S
O2 C7 1.254 . S
O3 Zn0 2.031 1_556 S
O3 C7 1.269 1_556 S
O4 Zn1 1.986 . S
O4 C11 1.262 . S
O5 Zn0 2.049 . S
O5 C13 1.260 . S
O6 Zn1 1.996 1_655 S
O6 C13 1.257 . S
C7 O2 1.254 . S
C7 O3 1.269 1_554 S
C8 O9 1.249 . S
C8 O10 1.270 1_455 S
O9 Zn1 1.943 1_556 S
O9 C8 1.249 . S
O10 Zn0 2.067 1_556 S
O10 C8 1.270 1_655 S
C11 O4 1.262 . S
C11 O12 1.232 . S
O12 C11 1.232 . S
C13 O5 1.260 . S
C13 O6 1.257 . S
Zn14 O17 2.031 1_554 S
Zn14 O19 2.049 . S
Zn14 O24 2.067 1_554 S
Zn15 O16 1.962 . S
Zn15 O18 1.986 . S
Zn15 O20 1.996 . S
Zn15 O23 1.943 1_554 S
O16 Zn15 1.962 . S
O16 C21 1.254 . S
O17 Zn14 2.031 1_556 S
O17 C21 1.269 1_556 S
O18 Zn15 1.986 . S
O18 C25 1.262 . S
O19 Zn14 2.049 . S
O19 C27 1.260 . S
O20 Zn15 1.996 . S
O20 C27 1.257 . S
C21 O16 1.254 . S
C21 O17 1.269 1_554 S
C22 O23 1.249 . S
C22 O24 1.270 . S
O23 Zn15 1.943 1_556 S
O23 C22 1.249 . S
O24 Zn14 2.067 1_556 S
O24 C22 1.270 . S
C25 O18 1.262 . S
C25 O26 1.232 . S
O26 C25 1.232 . S
C27 O19 1.260 . S
C27 O20 1.257 . S
Zn28 O31 2.031 . S
Zn28 O33 2.049 1_554 S
Zn28 O38 2.067 . S
Zn29 O30 1.962 1_545 S
Zn29 O32 1.986 1_554 S
Zn29 O34 1.996 1_544 S
Zn29 O37 1.943 . S
O30 Zn29 1.962 1_565 S
O30 C35 1.254 . S
O31 Zn28 2.031 . S
O31 C35 1.269 . S
O32 Zn29 1.986 1_556 S
O32 C39 1.248 1_556 S
O33 Zn28 2.049 1_556 S
O33 C41 1.260 . S
O34 Zn29 1.996 1_566 S
O34 C41 1.257 . S
C35 O30 1.254 . S
C35 O31 1.269 . S
C36 O37 1.249 . S
C36 O38 1.270 1_545 S
O37 Zn29 1.943 . S
O37 C36 1.249 . S
O38 Zn28 2.067 . S
O38 C36 1.270 1_565 S
C39 O32 1.248 1_554 S
C39 O40 1.253 . S
O40 C39 1.253 . S
C41 O33 1.260 . S
C41 O34 1.257 . S
Zn42 O45 2.031 . S
Zn42 O47 2.049 1_554 S
Zn42 O52 2.067 . S
Zn43 O44 1.962 1_655 S
Zn43 O46 1.986 1_554 S
Zn43 O48 1.996 1_654 S
Zn43 O51 1.943 . S
O44 Zn43 1.962 1_455 S
O44 C49 1.254 . S
O45 Zn42 2.031 . S
O45 C49 1.269 . S
O46 Zn43 1.986 1_556 S
O46 C53 1.268 . S
O47 Zn42 2.049 1_556 S
O47 C55 1.260 . S
O48 Zn43 1.996 1_456 S
O48 C55 1.257 . S
C49 O44 1.254 . S
C49 O45 1.269 . S
C50 O51 1.249 . S
C50 O52 1.270 1_655 S
O51 Zn43 1.943 . S
O51 C50 1.249 . S
O52 Zn42 2.067 . S
O52 C50 1.270 1_455 S
C53 O46 1.268 . S
C53 O54 1.224 1_556 S
O54 C53 1.224 1_554 S
C55 O47 1.260 . S
C55 O48 1.257 . S
Zn56 O59 2.031 . S
Zn56 O61 2.049 1_554 S
Zn56 O66 2.067 . S
Zn57 O58 1.962 . S
Zn57 O60 1.986 1_554 S
Zn57 O62 1.996 1_554 S
Zn57 O65 1.943 . S
O58 Zn57 1.962 . S
O58 C63 1.254 . S
O59 Zn56 2.031 . S
O59 C63 1.269 . S
O60 Zn57 1.986 1_556 S
O60 C67 1.235 1_556 S
O61 Zn56 2.049 1_556 S
O61 C69 1.260 . S
O62 Zn57 1.996 1_556 S
O62 C69 1.257 . S
C63 O58 1.254 . S
C63 O59 1.269 . S
C64 O65 1.249 . S
C64 O66 1.270 . S
O65 Zn57 1.943 . S
O65 C64 1.249 . S
O66 Zn56 2.067 . S
O66 C64 1.270 . S
C67 O60 1.235 1_554 S
C67 O68 1.273 . S
O68 C67 1.273 . S
C69 O61 1.260 . S
C69 O62 1.257 . S
Zn70 O73 2.031 1_554 S
Zn70 O75 2.049 . S
Zn70 O80 2.067 1_554 S
Zn71 O72 1.962 1_565 S
Zn71 O74 1.986 . S
Zn71 O76 1.996 1_565 S
Zn71 O79 1.943 1_554 S
O72 Zn71 1.962 1_545 S
O72 C77 1.254 . S
O73 Zn70 2.031 1_556 S
O73 C77 1.269 1_556 S
O74 Zn71 1.986 . S
O74 C81 1.262 . S
O75 Zn70 2.049 . S
O75 C83 1.260 . S
O76 Zn71 1.996 1_545 S
O76 C83 1.257 . S
C77 O72 1.254 . S
C77 O73 1.269 1_554 S
C78 O79 1.249 . S
C78 O80 1.270 1_565 S
O79 Zn71 1.943 1_556 S
O79 C78 1.249 . S
O80 Zn70 2.067 1_556 S
O80 C78 1.270 1_545 S
C81 O74 1.262 . S
C81 O82 1.232 . S
O82 C81 1.232 . S
C83 O75 1.260 . S
C83 O76 1.257 . S
Zn84 O87 2.031 . S
Zn84 O89 2.049 . S
Zn84 O94 2.067 . S
Zn85 O86 1.962 . S
Zn85 O88 1.986 . S
Zn85 O90 1.996 . S
Zn85 O93 1.943 . S
O86 Zn85 1.962 . S
O86 C91 1.254 . S
O87 Zn84 2.031 . S
O87 C91 1.269 . S
O88 Zn85 1.986 . S
O88 C95 1.262 . S
O89 Zn84 2.049 . S
O89 C97 1.260 . S
O90 Zn85 1.996 . S
O90 C97 1.257 . S
C91 O86 1.254 . S
C91 O87 1.269 . S
C92 O93 1.249 . S
C92 O94 1.270 . S
O93 Zn85 1.943 . S
O93 C92 1.249 . S
O94 Zn84 2.067 . S
O94 C92 1.270 . S
C95 O88 1.262 . S
C95 O96 1.232 . S
O96 C95 1.232 . S
C97 O89 1.260 . S
C97 O90 1.257 . S
Zn98 O101 2.031 . S
Zn98 O103 2.049 . S
Zn98 O108 2.067 . S
Zn99 O100 1.962 . S
Zn99 O102 1.986 1_565 S
Zn99 O104 1.996 . S
Zn99 O107 1.943 . S
O100 Zn99 1.962 . S
O100 C105 1.254 . S
O101 Zn98 2.031 . S
O101 C105 1.269 . S
O102 Zn99 1.986 1_545 S
O102 C109 1.262 . S
O103 Zn98 2.049 . S
O103 C111 1.260 . S
O104 Zn99 1.996 . S
O104 C111 1.257 . S
C105 O100 1.254 . S
C105 O101 1.269 . S
C106 O107 1.249 . S
C106 O108 1.270 . S
O107 Zn99 1.943 . S
O107 C106 1.249 . S
O108 Zn98 2.067 . S
O108 C106 1.270 . S
C109 O102 1.262 . S
C109 O110 1.232 . S
O110 C109 1.232 . S
C111 O103 1.260 . S
C111 O104 1.257 . S
Zn112 O115 2.031 . S
Zn112 O117 2.049 . S
Zn112 O122 2.067 . S
Zn113 O114 1.962 1_455 S
Zn113 O116 1.986 . S
Zn113 O118 1.996 . S
Zn113 O121 1.943 . S
O114 Zn113 1.962 1_655 S
O114 C119 1.254 . S
O115 Zn112 2.031 . S
O115 C119 1.269 1_455 S
O116 Zn113 1.986 . S
O116 C123 1.262 . S
O117 Zn112 2.049 . S
O117 C125 1.260 . S
O118 Zn113 1.996 . S
O118 C125 1.257 . S
C119 O114 1.254 . S
C119 O115 1.269 1_655 S
C120 O121 1.249 . S
C120 O122 1.270 . S
O121 Zn113 1.943 . S
O121 C120 1.249 . S
O122 Zn112 2.067 . S
O122 C120 1.270 . S
C123 O116 1.262 . S
C123 O124 1.232 . S
O124 C123 1.232 . S
C125 O117 1.260 . S
C125 O118 1.257 . S
Zn126 O129 2.031 . S
Zn126 O131 2.049 . S
Zn126 O136 2.067 . S
Zn127 O128 1.962 1_565 S
Zn127 O130 1.986 . S
Zn127 O132 1.996 . S
Zn127 O135 1.943 . S
O128 Zn127 1.962 1_545 S
O128 C133 1.254 . S
O129 Zn126 2.031 . S
O129 C133 1.269 1_565 S
O130 Zn127 1.986 . S
O130 C137 1.262 . S
O131 Zn126 2.049 . S
O131 C139 1.260 . S
O132 Zn127 1.996 . S
O132 C139 1.257 . S
C133 O128 1.254 . S
C133 O129 1.269 1_545 S
C134 O135 1.249 . S
C134 O136 1.270 . S
O135 Zn127 1.943 . S
O135 C134 1.249 . S
O136 Zn126 2.067 . S
O136 C134 1.270 . S
C137 O130 1.262 . S
C137 O138 1.232 . S
O138 C137 1.232 . S
C139 O131 1.260 . S
C139 O132 1.257 . S
Zn140 O143 2.031 . S
Zn140 O145 2.049 . S
Zn140 O150 2.067 . S
Zn141 O142 1.962 1_455 S
Zn141 O144 1.986 . S
Zn141 O146 1.996 . S
Zn141 O149 1.943 . S
O142 Zn141 1.962 1_655 S
O142 C147 1.254 . S
O143 Zn140 2.031 . S
O143 C147 1.269 1_455 S
O144 Zn141 1.986 . S
O144 C151 1.262 . S
O145 Zn140 2.049 . S
O145 C153 1.260 . S
O146 Zn141 1.996 . S
O146 C153 1.257 . S
C147 O142 1.254 . S
C147 O143 1.269 1_655 S
C148 O149 1.249 . S
C148 O150 1.270 . S
O149 Zn141 1.943 . S
O149 C148 1.249 . S
O150 Zn140 2.067 . S
O150 C148 1.270 . S
C151 O144 1.262 . S
C151 O152 1.232 . S
O152 C151 1.232 . S
C153 O145 1.260 . S
C153 O146 1.257 . S
Zn154 O157 2.031 . S
Zn154 O159 2.049 . S
Zn154 O164 2.067 . S
Zn155 O156 1.962 . S
Zn155 O158 1.986 . S
Zn155 O160 1.996 . S
Zn155 O163 1.943 . S
O156 Zn155 1.962 . S
O156 C161 1.254 . S
O157 Zn154 2.031 . S
O157 C161 1.269 . S
O158 Zn155 1.986 . S
O158 C165 1.262 . S
O159 Zn154 2.049 . S
O159 C167 1.260 . S
O160 Zn155 1.996 . S
O160 C167 1.257 . S
C161 O156 1.254 . S
C161 O157 1.269 . S
C162 O163 1.249 . S
C162 O164 1.270 . S
O163 Zn155 1.943 . S
O163 C162 1.249 . S
O164 Zn154 2.067 . S
O164 C162 1.270 . S
C165 O158 1.262 . S
C165 O166 1.232 . S
O166 C165 1.232 . S
C167 O159 1.260 . S
C167 O160 1.257 . S
Zn168 O171 2.031 . S
Zn168 O173 2.049 . S
Zn168 O178 2.067 . S
Zn169 O170 1.962 1_545 S
Zn169 O172 1.986 . S
Zn169 O174 1.996 . S
Zn169 O177 1.943 . S
O170 Zn169 1.962 1_565 S
O170 C175 1.254 . S
O171 Zn168 2.031 . S
O171 C175 1.269 1_545 S
O172 Zn169 1.986 . S
O172 C179 1.262 . S
O173 Zn168 2.049 . S
O173 C181 1.260 . S
O174 Zn169 1.996 . S
O174 C181 1.257 . S
C175 O170 1.254 . S
C175 O171 1.269 1_565 S
C176 O177 1.249 . S
C176 O178 1.270 . S
O177 Zn169 1.943 . S
O177 C176 1.249 . S
O178 Zn168 2.067 . S
O178 C176 1.270 . S
C179 O172 1.262 . S
C179 O180 1.232 . S
O180 C179 1.232 . S
C181 O173 1.260 . S
C181 O174 1.257 . S
Zn182 O185 2.031 . S
Zn182 O187 2.049 . S
Zn182 O192 2.067 . S
Zn183 O184 1.962 1_655 S
Zn183 O186 1.986 . S
Zn183 O188 1.996 . S
Zn183 O191 1.943 . S
O184 Zn183 1.962 1_455 S
O184 C189 1.254 . S
O185 Zn182 2.031 . S
O185 C189 1.269 1_655 S
O186 Zn183 1.986 . S
O186 C193 1.262 . S
O187 Zn182 2.049 . S
O187 C195 1.260 . S
O188 Zn183 1.996 . S
O188 C195 1.257 . S
C189 O184 1.254 . S
C189 O185 1.269 1_455 S
C190 O191 1.249 . S
C190 O192 1.270 . S
O191 Zn183 1.943 . S
O191 C190 1.249 . S
O192 Zn182 2.067 . S
O192 C190 1.270 . S
C193 O186 1.262 . S
C193 O194 1.232 . S
O194 C193 1.232 . S
C195 O187 1.260 . S
C195 O188 1.257 . S
Zn196 O199 2.031 . S
Zn196 O201 2.049 . S
Zn196 O206 2.067 . S
Zn197 O198 1.962 . S
Zn197 O200 1.986 . S
Zn197 O202 1.996 . S
Zn197 O205 1.943 . S
O198 Zn197 1.962 . S
O198 C203 1.254 . S
O199 Zn196 2.031 . S
O199 C203 1.269 . S
O200 Zn197 1.986 . S
O200 C207 1.262 . S
O201 Zn196 2.049 . S
O201 C209 1.260 . S
O202 Zn197 1.996 . S
O202 C209 1.257 . S
C203 O198 1.254 . S
C203 O199 1.269 . S
C204 O205 1.249 . S
C204 O206 1.270 . S
O205 Zn197 1.943 . S
O205 C204 1.249 . S
O206 Zn196 2.067 . S
O206 C204 1.270 . S
C207 O200 1.262 . S
C207 O208 1.232 . S
O208 C207 1.232 . S
C209 O201 1.260 . S
C209 O202 1.257 . S
Zn210 O213 2.031 . S
Zn210 O215 2.049 . S
Zn210 O220 2.067 . S
Zn211 O212 1.962 . S
Zn211 O214 1.986 . S
Zn211 O216 1.996 . S
Zn211 O219 1.943 . S
O212 Zn211 1.962 . S
O212 C217 1.254 . S
O213 Zn210 2.031 . S
O213 C217 1.269 . S
O214 Zn211 1.986 . S
O214 C221 1.262 . S
O215 Zn210 2.049 . S
O215 C223 1.260 . S
O216 Zn211 1.996 . S
O216 C223 1.257 . S
C217 O212 1.254 . S
C217 O213 1.269 . S
C218 O219 1.249 . S
C218 O220 1.270 . S
O219 Zn211 1.943 . S
O219 C218 1.249 . S
O220 Zn210 2.067 . S
O220 C218 1.270 . S
C221 O214 1.262 . S
C221 O222 1.232 . S
O222 C221 1.232 . S
C223 O215 1.260 . S
C223 O216 1.257 . S
Zn224 O227 2.031 . S
Zn224 O229 2.049 . S
Zn224 O234 2.067 . S
Zn225 O226 1.962 . S
Zn225 O228 1.925 1_545 S
Zn225 O230 1.996 . S
Zn225 O233 1.943 . S
O226 Zn225 1.962 . S
O226 C231 1.254 . S
O227 Zn224 2.031 . S
O227 C231 1.269 . S
O228 Zn225 1.925 1_565 S
O228 C235 1.316 . S
O229 Zn224 2.049 . S
O229 C237 1.260 . S
O230 Zn225 1.996 . S
O230 C237 1.257 . S
C231 O226 1.254 . S
C231 O227 1.269 . S
C232 O233 1.249 . S
C232 O234 1.270 . S
O233 Zn225 1.943 . S
O233 C232 1.249 . S
O234 Zn224 2.067 . S
O234 C232 1.270 . S
C235 O228 1.316 . S
C235 O236 1.232 . S
O236 C235 1.232 . S
C237 O229 1.260 . S
C237 O230 1.257 . S
Zn238 O241 2.031 . S
Zn238 O243 2.049 . S
Zn238 O248 2.067 . S
Zn239 O240 1.962 1_655 S
Zn239 O242 1.986 . S
Zn239 O244 1.996 . S
Zn239 O247 1.943 . S
O240 Zn239 1.962 1_455 S
O240 C245 1.254 . S
O241 Zn238 2.031 . S
O241 C245 1.269 1_655 S
O242 Zn239 1.986 . S
O242 C249 1.262 . S
O243 Zn238 2.049 . S
O243 C251 1.260 . S
O244 Zn239 1.996 . S
O244 C251 1.257 . S
C245 O240 1.254 . S
C245 O241 1.269 1_455 S
C246 O247 1.249 . S
C246 O248 1.270 . S
O247 Zn239 1.943 . S
O247 C246 1.249 . S
O248 Zn238 2.067 . S
O248 C246 1.270 . S
C249 O242 1.262 . S
C249 O250 1.232 . S
O250 C249 1.232 . S
C251 O243 1.260 . S
C251 O244 1.257 . S
H252 C260 0.930 . S
H253 C263 0.930 . S
H254 C265 0.930 . S
H255 C266 0.970 . S
H256 C266 0.970 . S
H257 C268 0.930 . S
H258 C270 0.930 . S
H259 C272 0.930 . S
C260 H252 0.930 . S
C260 C261 1.382 . S
C260 C262 1.426 . S
C261 C260 1.382 . S
C261 C265 1.389 . S
C262 C260 1.426 . S
C262 C263 1.375 . S
C262 C266 1.532 . S
C263 H253 0.930 . S
C263 C262 1.375 . S
C263 C264 1.416 . S
C264 C263 1.416 . S
C264 C265 1.371 . S
C265 H254 0.930 . S
C265 C261 1.389 . S
C265 C264 1.371 . S
C266 H255 0.970 . S
C266 H256 0.970 . S
C266 C262 1.532 . S
C266 C267 1.499 . S
C267 C266 1.499 . S
C267 C268 1.370 . S
C267 C272 1.415 . S
C268 H257 0.930 . S
C268 C267 1.370 . S
C268 C269 1.407 . S
C269 C268 1.407 . S
C269 C270 1.365 . S
C270 H258 0.930 . S
C270 C269 1.365 . S
C270 C271 1.393 . S
C271 C270 1.393 . S
C271 C272 1.387 . S
C272 H259 0.930 . S
C272 C267 1.415 . S
C272 C271 1.387 . S
H273 C281 0.930 . S
H274 C284 0.930 . S
H275 C286 0.930 . S
H276 C287 0.970 . S
H277 C287 0.970 . S
H278 C289 0.930 . S
H279 C291 0.930 . S
H280 C293 0.930 . S
C281 H273 0.930 . S
C281 C282 1.382 . S
C281 C283 1.426 . S
C282 C281 1.382 . S
C282 C286 1.389 . S
C283 C281 1.426 . S
C283 C284 1.375 . S
C283 C287 1.532 . S
C284 H274 0.930 . S
C284 C283 1.375 . S
C284 C285 1.416 . S
C285 C284 1.416 . S
C285 C286 1.371 . S
C286 H275 0.930 . S
C286 C282 1.389 . S
C286 C285 1.371 . S
C287 H276 0.970 . S
C287 H277 0.970 . S
C287 C283 1.532 . S
C287 C288 1.499 . S
C288 C287 1.499 . S
C288 C289 1.370 . S
C288 C293 1.415 . S
C289 H278 0.930 . S
C289 C288 1.370 . S
C289 C290 1.407 . S
C290 C289 1.407 . S
C290 C291 1.365 . S
C291 H279 0.930 . S
C291 C290 1.365 . S
C291 C292 1.393 . S
C292 C291 1.393 . S
C292 C293 1.387 . S
C293 H280 0.930 . S
C293 C288 1.415 . S
C293 C292 1.387 . S
H294 C302 0.930 . S
H295 C305 0.930 . S
H296 C307 0.930 . S
H297 C308 0.970 . S
H298 C308 0.970 . S
H299 C310 0.930 . S
H300 C312 0.930 . S
H301 C314 0.930 . S
C302 H294 0.930 . S
C302 C303 1.382 . S
C302 C304 1.426 . S
C303 C302 1.382 . S
C303 C307 1.389 . S
C304 C302 1.426 . S
C304 C305 1.375 . S
C304 C308 1.532 . S
C305 H295 0.930 . S
C305 C304 1.375 . S
C305 C306 1.416 . S
C306 C305 1.416 . S
C306 C307 1.371 . S
C307 H296 0.930 . S
C307 C303 1.389 . S
C307 C306 1.371 . S
C308 H297 0.970 . S
C308 H298 0.970 . S
C308 C304 1.532 . S
C308 C309 1.499 . S
C309 C308 1.499 . S
C309 C310 1.370 . S
C309 C314 1.415 . S
C310 H299 0.930 . S
C310 C309 1.370 . S
C310 C311 1.407 . S
C311 C310 1.407 . S
C311 C312 1.365 . S
C312 H300 0.930 . S
C312 C311 1.365 . S
C312 C313 1.393 . S
C313 C312 1.393 . S
C313 C314 1.387 . S
C314 H301 0.930 . S
C314 C309 1.415 . S
C314 C313 1.387 . S
H315 C323 0.930 . S
H316 C326 0.930 . S
H317 C328 0.930 . S
H318 C329 0.970 . S
H319 C329 0.970 . S
H320 C331 0.930 . S
H321 C333 0.930 . S
H322 C335 0.930 . S
C323 H315 0.930 . S
C323 C324 1.382 . S
C323 C325 1.426 . S
C324 C323 1.382 . S
C324 C328 1.389 . S
C325 C323 1.426 . S
C325 C326 1.375 . S
C325 C329 1.532 . S
C326 H316 0.930 . S
C326 C325 1.375 . S
C326 C327 1.416 . S
C327 C326 1.416 . S
C327 C328 1.371 . S
C328 H317 0.930 . S
C328 C324 1.389 . S
C328 C327 1.371 . S
C329 H318 0.970 . S
C329 H319 0.970 . S
C329 C325 1.532 . S
C329 C330 1.499 . S
C330 C329 1.499 . S
C330 C331 1.370 . S
C330 C335 1.415 . S
C331 H320 0.930 . S
C331 C330 1.370 . S
C331 C332 1.407 . S
C332 C331 1.407 . S
C332 C333 1.365 . S
C333 H321 0.930 . S
C333 C332 1.365 . S
C333 C334 1.393 . S
C334 C333 1.393 . S
C334 C335 1.387 . S
C335 H322 0.930 . S
C335 C330 1.415 . S
C335 C334 1.387 . S
H336 C344 0.930 . S
H337 C347 0.930 . S
H338 C349 0.930 . S
H339 C350 0.970 . S
H340 C350 0.970 . S
H341 C352 0.930 . S
H342 C354 0.930 . S
H343 C356 0.930 . S
C344 H336 0.930 . S
C344 C345 1.382 . S
C344 C346 1.426 . S
C345 C344 1.382 . S
C345 C349 1.389 . S
C346 C344 1.426 . S
C346 C347 1.375 . S
C346 C350 1.532 . S
C347 H337 0.930 . S
C347 C346 1.375 . S
C347 C348 1.416 . S
C348 C347 1.416 . S
C348 C349 1.371 . S
C349 H338 0.930 . S
C349 C345 1.389 . S
C349 C348 1.371 . S
C350 H339 0.970 . S
C350 H340 0.970 . S
C350 C346 1.532 . S
C350 C351 1.499 . S
C351 C350 1.499 . S
C351 C352 1.370 . S
C351 C356 1.415 . S
C352 H341 0.930 . S
C352 C351 1.370 . S
C352 C353 1.407 . S
C353 C352 1.407 . S
C353 C354 1.365 . S
C354 H342 0.930 . S
C354 C353 1.365 . S
C354 C355 1.393 . S
C355 C354 1.393 . S
C355 C356 1.387 . S
C356 H343 0.930 . S
C356 C351 1.415 . S
C356 C355 1.387 . S
H357 C365 0.930 . S
H358 C368 0.930 . S
H359 C370 0.930 . S
H360 C371 0.970 . S
H361 C371 0.970 . S
H362 C373 0.930 . S
H363 C375 0.930 . S
H364 C377 0.930 . S
C365 H357 0.930 . S
C365 C366 1.382 . S
C365 C367 1.426 . S
C366 C365 1.382 . S
C366 C370 1.389 . S
C367 C365 1.426 . S
C367 C368 1.375 . S
C367 C371 1.532 . S
C368 H358 0.930 . S
C368 C367 1.375 . S
C368 C369 1.416 . S
C369 C368 1.416 . S
C369 C370 1.371 . S
C370 H359 0.930 . S
C370 C366 1.389 . S
C370 C369 1.371 . S
C371 H360 0.970 . S
C371 H361 0.970 . S
C371 C367 1.532 . S
C371 C372 1.499 . S
C372 C371 1.499 . S
C372 C373 1.370 . S
C372 C377 1.415 . S
C373 H362 0.930 . S
C373 C372 1.370 . S
C373 C374 1.407 . S
C374 C373 1.407 . S
C374 C375 1.365 . S
C375 H363 0.930 . S
C375 C374 1.365 . S
C375 C376 1.393 . S
C376 C375 1.393 . S
C376 C377 1.387 . S
C377 H364 0.930 . S
C377 C372 1.415 . S
C377 C376 1.387 . S
H378 C386 0.930 . S
H379 C389 0.930 . S
H380 C391 0.930 . S
H381 C392 0.970 . S
H382 C392 0.970 . S
H383 C394 0.930 . S
H384 C396 0.930 . S
H385 C398 0.930 . S
C386 H378 0.930 . S
C386 C387 1.382 . S
C386 C388 1.426 . S
C387 C386 1.382 . S
C387 C391 1.389 . S
C388 C386 1.426 . S
C388 C389 1.375 . S
C388 C392 1.532 . S
C389 H379 0.930 . S
C389 C388 1.375 . S
C389 C390 1.416 . S
C390 C389 1.416 . S
C390 C391 1.371 . S
C391 H380 0.930 . S
C391 C387 1.389 . S
C391 C390 1.371 . S
C392 H381 0.970 . S
C392 H382 0.970 . S
C392 C388 1.532 . S
C392 C393 1.499 . S
C393 C392 1.499 . S
C393 C394 1.370 . S
C393 C398 1.415 . S
C394 H383 0.930 . S
C394 C393 1.370 . S
C394 C395 1.407 . S
C395 C394 1.407 . S
C395 C396 1.365 . S
C396 H384 0.930 . S
C396 C395 1.365 . S
C396 C397 1.393 . S
C397 C396 1.393 . S
C397 C398 1.387 . S
C398 H385 0.930 . S
C398 C393 1.415 . S
C398 C397 1.387 . S
H399 C407 0.930 . S
H400 C410 0.930 . S
H401 C412 0.930 . S
H402 C413 0.970 . S
H403 C413 0.970 . S
H404 C415 0.930 . S
H405 C417 0.930 . S
H406 C419 0.930 . S
C407 H399 0.930 . S
C407 C408 1.382 . S
C407 C409 1.426 . S
C408 C407 1.382 . S
C408 C412 1.389 . S
C409 C407 1.426 . S
C409 C410 1.375 . S
C409 C413 1.532 . S
C410 H400 0.930 . S
C410 C409 1.375 . S
C410 C411 1.416 . S
C411 C410 1.416 . S
C411 C412 1.371 . S
C412 H401 0.930 . S
C412 C408 1.389 . S
C412 C411 1.371 . S
C413 H402 0.970 . S
C413 H403 0.970 . S
C413 C409 1.532 . S
C413 C414 1.499 . S
C414 C413 1.499 . S
C414 C415 1.370 . S
C414 C419 1.415 . S
C415 H404 0.930 . S
C415 C414 1.370 . S
C415 C416 1.407 . S
C416 C415 1.407 . S
C416 C417 1.365 . S
C417 H405 0.930 . S
C417 C416 1.365 . S
C417 C418 1.393 . S
C418 C417 1.393 . S
C418 C419 1.387 . S
C419 H406 0.930 . S
C419 C414 1.415 . S
C419 C418 1.387 . S
H420 C428 0.930 . S
H421 C431 0.930 . S
H422 C433 0.930 . S
H423 C434 0.970 . S
H424 C434 0.970 . S
H425 C436 0.930 . S
H426 C438 0.930 . S
H427 C440 0.930 . S
C428 H420 0.930 . S
C428 C429 1.382 . S
C428 C430 1.426 . S
C429 C428 1.382 . S
C429 C433 1.389 . S
C430 C428 1.426 . S
C430 C431 1.375 . S
C430 C434 1.532 . S
C431 H421 0.930 . S
C431 C430 1.375 . S
C431 C432 1.416 . S
C432 C431 1.416 . S
C432 C433 1.371 . S
C433 H422 0.930 . S
C433 C429 1.389 . S
C433 C432 1.371 . S
C434 H423 0.970 . S
C434 H424 0.970 . S
C434 C430 1.532 . S
C434 C435 1.499 . S
C435 C434 1.499 . S
C435 C436 1.370 . S
C435 C440 1.415 . S
C436 H425 0.930 . S
C436 C435 1.370 . S
C436 C437 1.407 . S
C437 C436 1.407 . S
C437 C438 1.365 . S
C438 H426 0.930 . S
C438 C437 1.365 . S
C438 C439 1.393 . S
C439 C438 1.393 . S
C439 C440 1.387 . S
C440 H427 0.930 . S
C440 C435 1.415 . S
C440 C439 1.387 . S
H441 C449 0.930 . S
H442 C452 0.930 . S
H443 C454 0.930 . S
H444 C455 0.970 . S
H445 C455 0.970 . S
H446 C457 0.930 . S
H447 C459 0.930 . S
H448 C461 0.930 . S
C449 H441 0.930 . S
C449 C450 1.382 . S
C449 C451 1.426 . S
C450 C449 1.382 . S
C450 C454 1.389 1_455 S
C451 C449 1.426 . S
C451 C452 1.375 . S
C451 C455 1.532 . S
C452 H442 0.930 . S
C452 C451 1.375 . S
C452 C453 1.416 . S
C453 C452 1.416 . S
C453 C454 1.371 1_455 S
C454 H443 0.930 . S
C454 C450 1.389 1_655 S
C454 C453 1.371 1_655 S
C455 H444 0.970 . S
C455 H445 0.970 . S
C455 C451 1.532 . S
C455 C456 1.499 . S
C456 C455 1.499 . S
C456 C457 1.370 . S
C456 C461 1.415 . S
C457 H446 0.930 . S
C457 C456 1.370 . S
C457 C458 1.410 . S
C458 C457 1.410 . S
C458 C459 1.371 1_455 S
C459 H447 0.930 . S
C459 C458 1.371 1_655 S
C459 C460 1.393 1_655 S
C460 C459 1.393 1_455 S
C460 C461 1.387 . S
C461 H448 0.930 . S
C461 C456 1.415 . S
C461 C460 1.387 . S
H462 C470 0.930 . S
H463 C473 0.930 . S
H464 C475 0.930 . S
H465 C476 0.970 . S
H466 C476 0.970 . S
H467 C478 0.930 . S
H468 C480 0.930 . S
H469 C482 0.930 . S
C470 H462 0.930 . S
C470 C471 1.382 . S
C470 C472 1.426 . S
C471 C470 1.382 . S
C471 C475 1.389 . S
C472 C470 1.426 . S
C472 C473 1.375 . S
C472 C476 1.532 . S
C473 H463 0.930 . S
C473 C472 1.375 . S
C473 C474 1.416 . S
C474 C473 1.416 . S
C474 C475 1.371 . S
C475 H464 0.930 . S
C475 C471 1.389 . S
C475 C474 1.371 . S
C476 H465 0.970 . S
C476 H466 0.970 . S
C476 C472 1.532 . S
C476 C477 1.499 . S
C477 C476 1.499 . S
C477 C478 1.370 . S
C477 C482 1.415 . S
C478 H467 0.930 . S
C478 C477 1.370 . S
C478 C479 1.407 . S
C479 C478 1.407 . S
C479 C480 1.365 . S
C480 H468 0.930 . S
C480 C479 1.365 . S
C480 C481 1.393 . S
C481 C480 1.393 . S
C481 C482 1.387 . S
C482 H469 0.930 . S
C482 C477 1.415 . S
C482 C481 1.387 . S
H483 C491 0.930 . S
H484 C494 0.930 . S
H485 C496 0.933 . S
H486 C497 0.970 . S
H487 C497 0.970 . S
H488 C499 0.930 . S
H489 C501 0.930 . S
H490 C503 0.930 . S
C491 H483 0.930 . S
C491 C492 1.382 . S
C491 C493 1.426 . S
C492 C491 1.382 . S
C492 C496 1.391 1_565 S
C493 C491 1.426 . S
C493 C494 1.375 . S
C493 C497 1.532 . S
C494 H484 0.930 . S
C494 C493 1.375 . S
C494 C495 1.416 . S
C495 C494 1.416 . S
C495 C496 1.372 1_565 S
C496 H485 0.933 . S
C496 C492 1.391 1_545 S
C496 C495 1.372 1_545 S
C497 H486 0.970 . S
C497 H487 0.970 . S
C497 C493 1.532 . S
C497 C498 1.499 . S
C498 C497 1.499 . S
C498 C499 1.370 . S
C498 C503 1.415 . S
C499 H488 0.930 . S
C499 C498 1.370 . S
C499 C500 1.401 . S
C500 C499 1.401 . S
C500 C501 1.367 1_565 S
C501 H489 0.930 . S
C501 C500 1.367 1_545 S
C501 C502 1.393 1_545 S
C502 C501 1.393 1_565 S
C502 C503 1.387 . S
C503 H490 0.930 . S
C503 C498 1.415 . S
C503 C502 1.387 . S
H504 C512 0.930 . S
H505 C515 0.930 . S
H506 C517 0.930 . S
H507 C518 0.970 . S
H508 C518 0.970 . S
H509 C520 0.930 . S
H510 C522 0.930 . S
H511 C524 0.930 . S
C512 H504 0.930 . S
C512 C513 1.382 . S
C512 C514 1.426 . S
C513 C512 1.382 . S
C513 C517 1.389 1_565 S
C514 C512 1.426 . S
C514 C515 1.375 . S
C514 C518 1.532 . S
C515 H505 0.930 . S
C515 C514 1.375 . S
C515 C516 1.454 . S
C516 C515 1.454 . S
C516 C517 1.357 1_565 S
C517 H506 0.930 . S
C517 C513 1.389 1_545 S
C517 C516 1.357 1_545 S
C518 H507 0.970 . S
C518 H508 0.970 . S
C518 C514 1.532 . S
C518 C519 1.499 . S
C519 C518 1.499 . S
C519 C520 1.370 . S
C519 C524 1.415 . S
C520 H509 0.930 . S
C520 C519 1.370 . S
C520 C521 1.407 . S
C521 C520 1.407 . S
C521 C522 1.365 1_565 S
C522 H510 0.930 . S
C522 C521 1.365 1_545 S
C522 C523 1.393 1_545 S
C523 C522 1.393 1_565 S
C523 C524 1.387 . S
C524 H511 0.930 . S
C524 C519 1.415 . S
C524 C523 1.387 . S
H525 C533 0.930 . S
H526 C536 0.930 . S
H527 C538 0.930 . S
H528 C539 0.970 . S
H529 C539 0.970 . S
H530 C541 0.930 . S
H531 C543 0.930 . S
H532 C545 0.930 . S
C533 H525 0.930 . S
C533 C534 1.382 . S
C533 C535 1.426 . S
C534 C533 1.382 . S
C534 C538 1.389 1_455 S
C535 C533 1.426 . S
C535 C536 1.375 . S
C535 C539 1.532 . S
C536 H526 0.930 . S
C536 C535 1.375 . S
C536 C537 1.416 . S
C537 C536 1.416 . S
C537 C538 1.371 1_455 S
C538 H527 0.930 . S
C538 C534 1.389 1_655 S
C538 C537 1.371 1_655 S
C539 H528 0.970 . S
C539 H529 0.970 . S
C539 C535 1.532 . S
C539 C540 1.499 . S
C540 C539 1.499 . S
C540 C541 1.370 . S
C540 C545 1.415 . S
C541 H530 0.930 . S
C541 C540 1.370 . S
C541 C542 1.407 . S
C542 C541 1.407 . S
C542 C543 1.365 1_455 S
C543 H531 0.930 . S
C543 C542 1.365 1_655 S
C543 C544 1.393 1_655 S
C544 C543 1.393 1_455 S
C544 C545 1.387 . S
C545 H532 0.930 . S
C545 C540 1.415 . S
C545 C544 1.387 . S
H546 C554 0.930 . S
H547 C557 0.930 . S
H548 C559 0.930 . S
H549 C560 0.970 . S
H550 C560 0.970 . S
H551 C562 0.930 . S
H552 C564 0.930 . S
H553 C566 0.930 . S
C554 H546 0.930 . S
C554 C555 1.382 . S
C554 C556 1.426 . S
C555 C554 1.382 . S
C555 C559 1.389 . S
C556 C554 1.426 . S
C556 C557 1.375 . S
C556 C560 1.532 . S
C557 H547 0.930 . S
C557 C556 1.375 . S
C557 C558 1.416 . S
C558 C557 1.416 . S
C558 C559 1.371 . S
C559 H548 0.930 . S
C559 C555 1.389 . S
C559 C558 1.371 . S
C560 H549 0.970 . S
C560 H550 0.970 . S
C560 C556 1.532 . S
C560 C561 1.499 . S
C561 C560 1.499 . S
C561 C562 1.370 . S
C561 C566 1.415 . S
C562 H551 0.930 . S
C562 C561 1.370 . S
C562 C563 1.407 . S
C563 C562 1.407 . S
C563 C564 1.365 . S
C564 H552 0.930 . S
C564 C563 1.365 . S
C564 C565 1.393 . S
C565 C564 1.393 . S
C565 C566 1.387 . S
C566 H553 0.930 . S
C566 C561 1.415 . S
C566 C565 1.387 . S
H567 C575 0.930 . S
H568 C578 0.930 . S
H569 C580 0.930 . S
H570 C581 0.970 . S
H571 C581 0.970 . S
H572 C583 0.930 . S
H573 C585 0.930 . S
H574 C587 0.930 . S
C575 H567 0.930 . S
C575 C576 1.382 . S
C575 C577 1.426 . S
C576 C575 1.382 . S
C576 C580 1.389 . S
C577 C575 1.426 . S
C577 C578 1.375 . S
C577 C581 1.532 . S
C578 H568 0.930 . S
C578 C577 1.375 . S
C578 C579 1.416 . S
C579 C578 1.416 . S
C579 C580 1.371 . S
C580 H569 0.930 . S
C580 C576 1.389 . S
C580 C579 1.371 . S
C581 H570 0.970 . S
C581 H571 0.970 . S
C581 C577 1.532 . S
C581 C582 1.499 . S
C582 C581 1.499 . S
C582 C583 1.370 . S
C582 C587 1.415 . S
C583 H572 0.930 . S
C583 C582 1.370 . S
C583 C584 1.407 . S
C584 C583 1.407 . S
C584 C585 1.365 . S
C585 H573 0.930 . S
C585 C584 1.365 . S
C585 C586 1.393 . S
C586 C585 1.393 . S
C586 C587 1.387 . S
C587 H574 0.930 . S
C587 C582 1.415 . S
C587 C586 1.387 . S
H588 C596 0.930 . S
H589 C599 0.930 . S
H590 C601 0.930 . S
H591 C602 0.970 . S
H592 C602 0.970 . S
H593 C604 0.930 . S
H594 C606 0.930 . S
H595 C608 0.930 . S
C596 H588 0.930 . S
C596 C597 1.382 . S
C596 C598 1.426 . S
C597 C596 1.382 . S
C597 C601 1.389 . S
C598 C596 1.426 . S
C598 C599 1.375 . S
C598 C602 1.532 . S
C599 H589 0.930 . S
C599 C598 1.375 . S
C599 C600 1.416 . S
C600 C599 1.416 . S
C600 C601 1.371 . S
C601 H590 0.930 . S
C601 C597 1.389 . S
C601 C600 1.371 . S
C602 H591 0.970 . S
C602 H592 0.970 . S
C602 C598 1.532 . S
C602 C603 1.499 . S
C603 C602 1.499 . S
C603 C604 1.370 . S
C603 C608 1.415 . S
C604 H593 0.930 . S
C604 C603 1.370 . S
C604 C605 1.407 . S
C605 C604 1.407 . S
C605 C606 1.365 . S
C606 H594 0.930 . S
C606 C605 1.365 . S
C606 C607 1.393 . S
C607 C606 1.393 . S
C607 C608 1.387 . S
C608 H595 0.930 . S
C608 C603 1.415 . S
C608 C607 1.387 . S
H609 C617 0.930 . S
H610 C620 0.930 . S
H611 C622 0.930 . S
H612 C623 0.970 . S
H613 C623 0.970 . S
H614 C625 0.930 . S
H615 C627 0.930 . S
H616 C629 0.930 . S
C617 H609 0.930 . S
C617 C618 1.382 . S
C617 C619 1.426 . S
C618 C617 1.382 . S
C618 C622 1.389 . S
C619 C617 1.426 . S
C619 C620 1.375 . S
C619 C623 1.532 . S
C620 H610 0.930 . S
C620 C619 1.375 . S
C620 C621 1.416 . S
C621 C620 1.416 . S
C621 C622 1.371 . S
C622 H611 0.930 . S
C622 C618 1.389 . S
C622 C621 1.371 . S
C623 H612 0.970 . S
C623 H613 0.970 . S
C623 C619 1.532 . S
C623 C624 1.499 . S
C624 C623 1.499 . S
C624 C625 1.370 . S
C624 C629 1.415 . S
C625 H614 0.930 . S
C625 C624 1.370 . S
C625 C626 1.407 . S
C626 C625 1.407 . S
C626 C627 1.365 . S
C627 H615 0.930 . S
C627 C626 1.365 . S
C627 C628 1.393 . S
C628 C627 1.393 . S
C628 C629 1.387 . S
C629 H616 0.930 . S
C629 C624 1.415 . S
C629 C628 1.387 . S
C630 C631 1.349 1_455 S
C630 C632 1.327 . S
C630 H655 0.950 . S
C631 C630 1.349 1_655 S
C631 C647 1.349 . S
C632 C630 1.327 . S
C632 C651 1.429 1_455 S
C632 H656 0.950 . S
C633 C650 1.574 . S
C633 C652 1.368 . S
C633 H657 0.949 . S
H634 C638 0.949 . S
C635 C636 1.349 . S
C635 C637 1.327 . S
C635 H658 0.950 . S
C636 C635 1.349 . S
C636 C648 1.349 1_655 S
C637 C635 1.327 . S
C637 C653 1.429 . S
C637 H659 0.950 . S
C638 H634 0.949 . S
C638 C646 1.574 . S
C638 C654 1.368 1_455 S
H639 C647 0.950 . S
H640 C645 0.950 . S
H641 C646 0.949 . S
H642 C648 0.950 . S
H643 C649 0.950 . S
H644 C650 0.949 . S
C645 H640 0.950 . S
C645 C647 1.327 . S
C645 C651 1.429 . S
C646 C638 1.574 . S
C646 H641 0.949 . S
C646 C652 1.368 1_455 S
C647 C631 1.349 . S
C647 H639 0.950 . S
C647 C645 1.327 . S
C648 C636 1.349 1_455 S
C648 H642 0.950 . S
C648 C649 1.327 . S
C649 H643 0.950 . S
C649 C648 1.327 . S
C649 C653 1.429 1_455 S
C650 C633 1.574 . S
C650 H644 0.949 . S
C650 C654 1.368 . S
C651 C632 1.429 1_655 S
C651 C645 1.429 . S
C651 C652 1.523 . S
C652 C633 1.368 . S
C652 C646 1.368 1_655 S
C652 C651 1.523 . S
C653 C637 1.429 . S
C653 C649 1.429 1_655 S
C653 C654 1.523 . S
C654 C638 1.368 1_655 S
C654 C650 1.368 . S
C654 C653 1.523 . S
H655 C630 0.950 . S
H656 C632 0.950 . S
H657 C633 0.949 . S
H658 C635 0.950 . S
H659 C637 0.950 . S
C660 C661 1.349 . S
C660 C662 1.327 . S
C660 H685 0.950 . S
C661 C660 1.349 . S
C661 C677 1.349 . S
C662 C660 1.327 . S
C662 C681 1.429 . S
C662 H686 0.950 . S
C663 C680 1.574 . S
C663 C682 1.368 . S
C663 H687 0.949 . S
H664 C668 0.949 . S
C665 C666 1.349 . S
C665 C667 1.327 . S
C665 H688 0.950 . S
C666 C665 1.349 . S
C666 C678 1.349 . S
C667 C665 1.327 . S
C667 C683 1.429 . S
C667 H689 0.950 . S
C668 H664 0.949 . S
C668 C676 1.574 . S
C668 C684 1.368 . S
H669 C677 0.950 . S
H670 C675 0.950 . S
H671 C676 0.949 . S
H672 C678 0.950 . S
H673 C679 0.950 . S
H674 C680 0.949 . S
C675 H670 0.950 . S
C675 C677 1.327 . S
C675 C681 1.429 . S
C676 C668 1.574 . S
C676 H671 0.949 . S
C676 C682 1.368 . S
C677 C661 1.349 . S
C677 H669 0.950 . S
C677 C675 1.327 . S
C678 C666 1.349 . S
C678 H672 0.950 . S
C678 C679 1.327 . S
C679 H673 0.950 . S
C679 C678 1.327 . S
C679 C683 1.429 . S
C680 C663 1.574 . S
C680 H674 0.949 . S
C680 C684 1.368 . S
C681 C662 1.429 . S
C681 C675 1.429 . S
C681 C682 1.523 . S
C682 C663 1.368 . S
C682 C676 1.368 . S
C682 C681 1.523 . S
C683 C667 1.429 . S
C683 C679 1.429 . S
C683 C684 1.523 . S
C684 C668 1.368 . S
C684 C680 1.368 . S
C684 C683 1.523 . S
H685 C660 0.950 . S
H686 C662 0.950 . S
H687 C663 0.949 . S
H688 C665 0.950 . S
H689 C667 0.950 . S
C690 C691 1.349 1_565 S
C690 C692 1.327 . S
C690 H715 0.950 . S
C691 C690 1.349 1_545 S
C691 C707 1.349 . S
C692 C690 1.327 . S
C692 C711 1.429 1_565 S
C692 H716 0.950 . S
C693 C710 1.574 . S
C693 C712 1.368 . S
C693 H717 0.949 . S
H694 C698 0.949 . S
C695 C696 1.349 . S
C695 C697 1.327 . S
C695 H718 0.950 . S
C696 C695 1.349 . S
C696 C708 1.349 1_545 S
C697 C695 1.327 . S
C697 C713 1.429 . S
C697 H719 0.950 . S
C698 H694 0.949 . S
C698 C706 1.574 . S
C698 C714 1.368 1_565 S
H699 C707 0.950 . S
H700 C705 0.950 . S
H701 C706 0.949 . S
H702 C708 0.950 . S
H703 C709 0.950 . S
H704 C710 0.949 . S
C705 H700 0.950 . S
C705 C707 1.327 . S
C705 C711 1.429 . S
C706 C698 1.574 . S
C706 H701 0.949 . S
C706 C712 1.368 1_565 S
C707 C691 1.349 . S
C707 H699 0.950 . S
C707 C705 1.327 . S
C708 C696 1.349 1_565 S
C708 H702 0.950 . S
C708 C709 1.327 . S
C709 H703 0.950 . S
C709 C708 1.327 . S
C709 C713 1.429 1_565 S
C710 C693 1.574 . S
C710 H704 0.949 . S
C710 C714 1.368 . S
C711 C692 1.429 1_545 S
C711 C705 1.429 . S
C711 C712 1.523 . S
C712 C693 1.368 . S
C712 C706 1.368 1_545 S
C712 C711 1.523 . S
C713 C697 1.429 . S
C713 C709 1.429 1_545 S
C713 C714 1.523 . S
C714 C698 1.368 1_545 S
C714 C710 1.368 . S
C714 C713 1.523 . S
H715 C690 0.950 . S
H716 C692 0.950 . S
H717 C693 0.949 . S
H718 C695 0.950 . S
H719 C697 0.950 . S
C720 C721 1.349 . S
C720 C722 1.327 . S
C720 H745 0.950 . S
C721 C720 1.349 . S
C721 C737 1.349 1_565 S
C722 C720 1.327 . S
C722 C741 1.429 . S
C722 H746 0.950 . S
C723 C740 1.574 . S
C723 C742 1.368 1_545 S
C723 H747 0.949 . S
H724 C728 0.949 . S
C725 C726 1.349 1_545 S
C725 C727 1.327 . S
C725 H748 0.950 . S
C726 C725 1.349 1_565 S
C726 C738 1.349 . S
C727 C725 1.327 . S
C727 C743 1.429 1_545 S
C727 H749 0.950 . S
C728 H724 0.949 . S
C728 C736 1.574 . S
C728 C744 1.368 . S
H729 C737 0.950 . S
H730 C735 0.950 . S
H731 C736 0.949 . S
H732 C738 0.950 . S
H733 C739 0.950 . S
H734 C740 0.949 . S
C735 H730 0.950 . S
C735 C737 1.327 . S
C735 C741 1.429 1_545 S
C736 C728 1.574 . S
C736 H731 0.949 . S
C736 C742 1.368 . S
C737 C721 1.349 1_545 S
C737 H729 0.950 . S
C737 C735 1.327 . S
C738 C726 1.349 . S
C738 H732 0.950 . S
C738 C739 1.327 . S
C739 H733 0.950 . S
C739 C738 1.327 . S
C739 C743 1.429 . S
C740 C723 1.574 . S
C740 H734 0.949 . S
C740 C744 1.368 1_545 S
C741 C722 1.429 . S
C741 C735 1.429 1_565 S
C741 C742 1.523 . S
C742 C723 1.368 1_565 S
C742 C736 1.368 . S
C742 C741 1.523 . S
C743 C727 1.429 1_565 S
C743 C739 1.429 . S
C743 C744 1.523 . S
C744 C728 1.368 . S
C744 C740 1.368 1_565 S
C744 C743 1.523 . S
H745 C720 0.950 . S
H746 C722 0.950 . S
H747 C723 0.949 . S
H748 C725 0.950 . S
H749 C727 0.950 . S
C750 C751 1.349 1_655 S
C750 C752 1.327 . S
C750 H775 0.950 . S
C751 C750 1.349 1_455 S
C751 C767 1.349 . S
C752 C750 1.327 . S
C752 C771 1.429 1_655 S
C752 H776 0.950 . S
C753 C770 1.574 . S
C753 C772 1.368 . S
C753 H777 0.949 . S
H754 C758 0.949 . S
C755 C756 1.349 . S
C755 C757 1.327 . S
C755 H778 0.950 . S
C756 C755 1.349 . S
C756 C768 1.349 1_455 S
C757 C755 1.327 . S
C757 C773 1.429 . S
C757 H779 0.950 . S
C758 H754 0.949 . S
C758 C766 1.574 . S
C758 C774 1.368 1_655 S
H759 C767 0.950 . S
H760 C765 0.950 . S
H761 C766 0.949 . S
H762 C768 0.950 . S
H763 C769 0.950 . S
H764 C770 0.949 . S
C765 H760 0.950 . S
C765 C767 1.327 . S
C765 C771 1.429 . S
C766 C758 1.574 . S
C766 H761 0.949 . S
C766 C772 1.368 1_655 S
C767 C751 1.349 . S
C767 H759 0.950 . S
C767 C765 1.327 . S
C768 C756 1.349 1_655 S
C768 H762 0.950 . S
C768 C769 1.327 . S
C769 H763 0.950 . S
C769 C768 1.327 . S
C769 C773 1.429 1_655 S
C770 C753 1.574 . S
C770 H764 0.949 . S
C770 C774 1.368 . S
C771 C752 1.429 1_455 S
C771 C765 1.429 . S
C771 C772 1.523 . S
C772 C753 1.368 . S
C772 C766 1.368 1_455 S
C772 C771 1.523 . S
C773 C757 1.429 . S
C773 C769 1.429 1_455 S
C773 C774 1.523 . S
C774 C758 1.368 1_455 S
C774 C770 1.368 . S
C774 C773 1.523 . S
H775 C750 0.950 . S
H776 C752 0.950 . S
H777 C753 0.949 . S
H778 C755 0.950 . S
H779 C757 0.950 . S
C780 C781 1.349 . S
C780 C782 1.327 . S
C780 H805 0.950 . S
C781 C780 1.349 . S
C781 C797 1.349 . S
C782 C780 1.327 . S
C782 C801 1.429 . S
C782 H806 0.950 . S
C783 C800 1.574 . S
C783 C802 1.368 . S
C783 H807 0.949 . S
H784 C788 0.949 . S
C785 C786 1.349 . S
C785 C787 1.327 . S
C785 H808 0.950 . S
C786 C785 1.349 . S
C786 C798 1.349 . S
C787 C785 1.327 . S
C787 C803 1.429 . S
C787 H809 0.950 . S
C788 H784 0.949 . S
C788 C796 1.574 . S
C788 C804 1.368 . S
H789 C797 0.950 . S
H790 C795 0.950 . S
H791 C796 0.949 . S
H792 C798 0.950 . S
H793 C799 0.950 . S
H794 C800 0.949 . S
C795 H790 0.950 . S
C795 C797 1.327 . S
C795 C801 1.429 . S
C796 C788 1.574 . S
C796 H791 0.949 . S
C796 C802 1.368 . S
C797 C781 1.349 . S
C797 H789 0.950 . S
C797 C795 1.327 . S
C798 C786 1.349 . S
C798 H792 0.950 . S
C798 C799 1.327 . S
C799 H793 0.950 . S
C799 C798 1.327 . S
C799 C803 1.429 . S
C800 C783 1.574 . S
C800 H794 0.949 . S
C800 C804 1.368 . S
C801 C782 1.429 . S
C801 C795 1.429 . S
C801 C802 1.523 . S
C802 C783 1.368 . S
C802 C796 1.368 . S
C802 C801 1.523 . S
C803 C787 1.429 . S
C803 C799 1.429 . S
C803 C804 1.523 . S
C804 C788 1.368 . S
C804 C800 1.368 . S
C804 C803 1.523 . S
H805 C780 0.950 . S
H806 C782 0.950 . S
H807 C783 0.949 . S
H808 C785 0.950 . S
H809 C787 0.950 . S
C810 C811 1.349 1_655 S
C810 C812 1.327 . S
C810 H835 0.950 . S
C811 C810 1.349 1_455 S
C811 C827 1.349 . S
C812 C810 1.327 . S
C812 C831 1.429 1_655 S
C812 H836 0.950 . S
C813 C830 1.574 . S
C813 C832 1.368 . S
C813 H837 0.949 . S
H814 C818 0.949 . S
C815 C816 1.397 . S
C815 C817 1.327 . S
C815 H838 0.950 . S
C816 C815 1.397 . S
C816 C828 1.272 1_455 S
C817 C815 1.327 . S
C817 C833 1.429 . S
C817 H839 0.950 . S
C818 H814 0.949 . S
C818 C826 1.574 . S
C818 C834 1.368 1_655 S
H819 C827 0.950 . S
H820 C825 0.950 . S
H821 C826 0.949 . S
H822 C828 0.950 . S
H823 C829 0.950 . S
H824 C830 0.949 . S
C825 H820 0.950 . S
C825 C827 1.327 . S
C825 C831 1.429 . S
C826 C818 1.574 . S
C826 H821 0.949 . S
C826 C832 1.368 1_655 S
C827 C811 1.349 . S
C827 H819 0.950 . S
C827 C825 1.327 . S
C828 C816 1.272 1_655 S
C828 H822 0.950 . S
C828 C829 1.327 . S
C829 H823 0.950 . S
C829 C828 1.327 . S
C829 C833 1.429 1_655 S
C830 C813 1.574 . S
C830 H824 0.949 . S
C830 C834 1.368 . S
C831 C812 1.429 1_455 S
C831 C825 1.429 . S
C831 C832 1.523 . S
C832 C813 1.368 . S
C832 C826 1.368 1_455 S
C832 C831 1.523 . S
C833 C817 1.429 . S
C833 C829 1.429 1_455 S
C833 C834 1.523 . S
C834 C818 1.368 1_455 S
C834 C830 1.368 . S
C834 C833 1.523 . S
H835 C810 0.950 . S
H836 C812 0.950 . S
H837 C813 0.949 . S
H838 C815 0.950 . S
H839 C817 0.950 . S
C840 C841 1.349 . S
C840 C842 1.327 . S
C840 H865 0.950 . S
C841 C840 1.349 . S
C841 C857 1.349 . S
C842 C840 1.327 . S
C842 C861 1.429 . S
C842 H866 0.950 . S
C843 C860 1.574 . S
C843 C862 1.368 . S
C843 H867 0.949 . S
H844 C848 0.949 . S
C845 C846 1.349 . S
C845 C847 1.327 . S
C845 H868 0.950 . S
C846 C845 1.349 . S
C846 C858 1.349 . S
C847 C845 1.327 . S
C847 C863 1.429 . S
C847 H869 0.950 . S
C848 H844 0.949 . S
C848 C856 1.574 . S
C848 C864 1.368 . S
H849 C857 0.950 . S
H850 C855 0.950 . S
H851 C856 0.949 . S
H852 C858 0.950 . S
H853 C859 0.950 . S
H854 C860 0.949 . S
C855 H850 0.950 . S
C855 C857 1.327 . S
C855 C861 1.429 . S
C856 C848 1.574 . S
C856 H851 0.949 . S
C856 C862 1.368 . S
C857 C841 1.349 . S
C857 H849 0.950 . S
C857 C855 1.327 . S
C858 C846 1.349 . S
C858 H852 0.950 . S
C858 C859 1.327 . S
C859 H853 0.950 . S
C859 C858 1.327 . S
C859 C863 1.429 . S
C860 C843 1.574 . S
C860 H854 0.949 . S
C860 C864 1.368 . S
C861 C842 1.429 . S
C861 C855 1.429 . S
C861 C862 1.523 . S
C862 C843 1.368 . S
C862 C856 1.368 . S
C862 C861 1.523 . S
C863 C847 1.429 . S
C863 C859 1.429 . S
C863 C864 1.523 . S
C864 C848 1.368 . S
C864 C860 1.368 . S
C864 C863 1.523 . S
H865 C840 0.950 . S
H866 C842 0.950 . S
H867 C843 0.949 . S
H868 C845 0.950 . S
H869 C847 0.950 . S
C870 C871 1.349 1_545 S
C870 C872 1.327 . S
C870 H895 0.950 . S
C871 C870 1.349 1_565 S
C871 C887 1.349 . S
C872 C870 1.327 . S
C872 C891 1.429 1_545 S
C872 H896 0.950 . S
C873 C890 1.574 . S
C873 C892 1.368 . S
C873 H897 0.949 . S
H874 C878 0.949 . S
C875 C876 1.349 . S
C875 C877 1.327 . S
C875 H898 0.950 . S
C876 C875 1.349 . S
C876 C888 1.349 1_565 S
C877 C875 1.327 . S
C877 C893 1.429 . S
C877 H899 0.950 . S
C878 H874 0.949 . S
C878 C886 1.574 . S
C878 C894 1.368 1_545 S
H879 C887 0.950 . S
H880 C885 0.950 . S
H881 C886 0.949 . S
H882 C888 0.950 . S
H883 C889 0.950 . S
H884 C890 0.949 . S
C885 H880 0.950 . S
C885 C887 1.327 . S
C885 C891 1.429 . S
C886 C878 1.574 . S
C886 H881 0.949 . S
C886 C892 1.368 1_545 S
C887 C871 1.349 . S
C887 H879 0.950 . S
C887 C885 1.327 . S
C888 C876 1.349 1_545 S
C888 H882 0.950 . S
C888 C889 1.327 . S
C889 H883 0.950 . S
C889 C888 1.327 . S
C889 C893 1.429 1_545 S
C890 C873 1.574 . S
C890 H884 0.949 . S
C890 C894 1.368 . S
C891 C872 1.429 1_565 S
C891 C885 1.429 . S
C891 C892 1.523 . S
C892 C873 1.368 . S
C892 C886 1.368 1_565 S
C892 C891 1.523 . S
C893 C877 1.429 . S
C893 C889 1.429 1_565 S
C893 C894 1.523 . S
C894 C878 1.368 1_565 S
C894 C890 1.368 . S
C894 C893 1.523 . S
H895 C870 0.950 . S
H896 C872 0.950 . S
H897 C873 0.949 . S
H898 C875 0.950 . S
H899 C877 0.950 . S
C900 C901 1.349 1_565 S
C900 C902 1.327 . S
C900 H925 0.950 . S
C901 C900 1.349 1_545 S
C901 C917 1.349 . S
C902 C900 1.327 . S
C902 C921 1.429 1_565 S
C902 H926 0.950 . S
C903 C920 1.574 . S
C903 C922 1.368 . S
C903 H927 0.949 . S
H904 C908 0.949 . S
C905 C906 1.379 . S
C905 C907 1.327 . S
C905 H928 0.950 . S
C906 C905 1.379 . S
C906 C918 1.300 1_545 S
C907 C905 1.327 . S
C907 C923 1.429 . S
C907 H929 0.950 . S
C908 H904 0.949 . S
C908 C916 1.574 . S
C908 C924 1.368 1_565 S
H909 C917 0.950 . S
H910 C915 0.950 . S
H911 C916 0.949 . S
H912 C918 0.950 . S
H913 C919 0.950 . S
H914 C920 0.949 . S
C915 H910 0.950 . S
C915 C917 1.327 . S
C915 C921 1.429 . S
C916 C908 1.574 . S
C916 H911 0.949 . S
C916 C922 1.368 1_565 S
C917 C901 1.349 . S
C917 H909 0.950 . S
C917 C915 1.327 . S
C918 C906 1.300 1_565 S
C918 H912 0.950 . S
C918 C919 1.327 . S
C919 H913 0.950 . S
C919 C918 1.327 . S
C919 C923 1.429 1_565 S
C920 C903 1.574 . S
C920 H914 0.949 . S
C920 C924 1.368 . S
C921 C902 1.429 1_545 S
C921 C915 1.429 . S
C921 C922 1.523 . S
C922 C903 1.368 . S
C922 C916 1.368 1_545 S
C922 C921 1.523 . S
C923 C907 1.429 . S
C923 C919 1.429 1_545 S
C923 C924 1.523 . S
C924 C908 1.368 1_545 S
C924 C920 1.368 . S
C924 C923 1.523 . S
H925 C900 0.950 . S
H926 C902 0.950 . S
H927 C903 0.949 . S
H928 C905 0.950 . S
H929 C907 0.950 . S
C930 C931 1.349 1_455 S
C930 C932 1.327 . S
C930 H955 0.950 . S
C931 C930 1.349 1_655 S
C931 C947 1.349 . S
C932 C930 1.327 . S
C932 C951 1.429 1_455 S
C932 H956 0.950 . S
C933 C950 1.574 . S
C933 C952 1.368 . S
C933 H957 0.949 . S
H934 C938 0.949 . S
C935 C936 1.415 . S
C935 C937 1.327 . S
C935 H958 0.950 . S
C936 C935 1.415 . S
C936 C948 1.321 1_655 S
C937 C935 1.327 . S
C937 C953 1.429 . S
C937 H959 0.950 . S
C938 H934 0.949 . S
C938 C946 1.574 . S
C938 C954 1.368 1_455 S
H939 C947 0.950 . S
H940 C945 0.950 . S
H941 C946 0.949 . S
H942 C948 0.950 . S
H943 C949 0.950 . S
H944 C950 0.949 . S
C945 H940 0.950 . S
C945 C947 1.327 . S
C945 C951 1.429 . S
C946 C938 1.574 . S
C946 H941 0.949 . S
C946 C952 1.368 1_455 S
C947 C931 1.349 . S
C947 H939 0.950 . S
C947 C945 1.327 . S
C948 C936 1.321 1_455 S
C948 H942 0.950 . S
C948 C949 1.327 . S
C949 H943 0.950 . S
C949 C948 1.327 . S
C949 C953 1.429 1_455 S
C950 C933 1.574 . S
C950 H944 0.949 . S
C950 C954 1.368 . S
C951 C932 1.429 1_655 S
C951 C945 1.429 . S
C951 C952 1.523 . S
C952 C933 1.368 . S
C952 C946 1.368 1_655 S
C952 C951 1.523 . S
C953 C937 1.429 . S
C953 C949 1.429 1_655 S
C953 C954 1.523 . S
C954 C938 1.368 1_655 S
C954 C950 1.368 . S
C954 C953 1.523 . S
H955 C930 0.950 . S
H956 C932 0.950 . S
H957 C933 0.949 . S
H958 C935 0.950 . S
H959 C937 0.950 . S
C960 C961 1.349 . S
C960 C962 1.327 . S
C960 H985 0.950 . S
C961 C960 1.349 . S
C961 C977 1.349 . S
C962 C960 1.327 . S
C962 C981 1.429 . S
C962 H986 0.950 . S
C963 C980 1.574 . S
C963 C982 1.368 . S
C963 H987 0.949 . S
H964 C968 0.949 . S
C965 C966 1.349 . S
C965 C967 1.327 . S
C965 H988 0.950 . S
C966 C965 1.349 . S
C966 C978 1.349 . S
C967 C965 1.327 . S
C967 C983 1.429 . S
C967 H989 0.950 . S
C968 H964 0.949 . S
C968 C976 1.574 . S
C968 C984 1.368 . S
H969 C977 0.950 . S
H970 C975 0.950 . S
H971 C976 0.949 . S
H972 C978 0.950 . S
H973 C979 0.950 . S
H974 C980 0.949 . S
C975 H970 0.950 . S
C975 C977 1.327 . S
C975 C981 1.429 . S
C976 C968 1.574 . S
C976 H971 0.949 . S
C976 C982 1.368 . S
C977 C961 1.349 . S
C977 H969 0.950 . S
C977 C975 1.327 . S
C978 C966 1.349 . S
C978 H972 0.950 . S
C978 C979 1.327 . S
C979 H973 0.950 . S
C979 C978 1.327 . S
C979 C983 1.429 . S
C980 C963 1.574 . S
C980 H974 0.949 . S
C980 C984 1.368 . S
C981 C962 1.429 . S
C981 C975 1.429 . S
C981 C982 1.523 . S
C982 C963 1.368 . S
C982 C976 1.368 . S
C982 C981 1.523 . S
C983 C967 1.429 . S
C983 C979 1.429 . S
C983 C984 1.523 . S
C984 C968 1.368 . S
C984 C980 1.368 . S
C984 C983 1.523 . S
H985 C960 0.950 . S
H986 C962 0.950 . S
H987 C963 0.949 . S
H988 C965 0.950 . S
H989 C967 0.950 . S
C990 C991 1.349 . S
C990 C992 1.327 . S
C990 H1015 0.950 . S
C991 C990 1.349 . S
C991 C1007 1.349 . S
C992 C990 1.327 . S
C992 C1011 1.429 . S
C992 H1016 0.950 . S
C993 C1010 1.574 . S
C993 C1012 1.368 . S
C993 H1017 0.949 . S
H994 C998 0.949 . S
C995 C996 1.349 . S
C995 C997 1.327 . S
C995 H1018 0.950 . S
C996 C995 1.349 . S
C996 C1008 1.349 . S
C997 C995 1.327 . S
C997 C1013 1.429 . S
C997 H1019 0.950 . S
C998 H994 0.949 . S
C998 C1006 1.574 . S
C998 C1014 1.368 . S
H999 C1007 0.950 . S
H1000 C1005 0.950 . S
H1001 C1006 0.949 . S
H1002 C1008 0.950 . S
H1003 C1009 0.950 . S
H1004 C1010 0.949 . S
C1005 H1000 0.950 . S
C1005 C1007 1.327 . S
C1005 C1011 1.429 . S
C1006 C998 1.574 . S
C1006 H1001 0.949 . S
C1006 C1012 1.368 . S
C1007 C991 1.349 . S
C1007 H999 0.950 . S
C1007 C1005 1.327 . S
C1008 C996 1.349 . S
C1008 H1002 0.950 . S
C1008 C1009 1.327 . S
C1009 H1003 0.950 . S
C1009 C1008 1.327 . S
C1009 C1013 1.429 . S
C1010 C993 1.574 . S
C1010 H1004 0.949 . S
C1010 C1014 1.368 . S
C1011 C992 1.429 . S
C1011 C1005 1.429 . S
C1011 C1012 1.523 . S
C1012 C993 1.368 . S
C1012 C1006 1.368 . S
C1012 C1011 1.523 . S
C1013 C997 1.429 . S
C1013 C1009 1.429 . S
C1013 C1014 1.523 . S
C1014 C998 1.368 . S
C1014 C1010 1.368 . S
C1014 C1013 1.523 . S
H1015 C990 0.950 . S
H1016 C992 0.950 . S
H1017 C993 0.949 . S
H1018 C995 0.950 . S
H1019 C997 0.950 . S
C1020 C1021 1.349 . S
C1020 C1022 1.327 . S
C1020 H1045 0.950 . S
C1021 C1020 1.349 . S
C1021 C1037 1.349 . S
C1022 C1020 1.327 . S
C1022 C1041 1.429 . S
C1022 H1046 0.950 . S
C1023 C1040 1.574 . S
C1023 C1042 1.368 . S
C1023 H1047 0.949 . S
H1024 C1028 0.949 . S
C1025 C1026 1.349 . S
C1025 C1027 1.327 . S
C1025 H1048 0.950 . S
C1026 C1025 1.349 . S
C1026 C1038 1.349 . S
C1027 C1025 1.327 . S
C1027 C1043 1.429 . S
C1027 H1049 0.950 . S
C1028 H1024 0.949 . S
C1028 C1036 1.574 . S
C1028 C1044 1.368 . S
H1029 C1037 0.950 . S
H1030 C1035 0.950 . S
H1031 C1036 0.949 . S
H1032 C1038 0.950 . S
H1033 C1039 0.950 . S
H1034 C1040 0.949 . S
C1035 H1030 0.950 . S
C1035 C1037 1.327 . S
C1035 C1041 1.429 . S
C1036 C1028 1.574 . S
C1036 H1031 0.949 . S
C1036 C1042 1.368 . S
C1037 C1021 1.349 . S
C1037 H1029 0.950 . S
C1037 C1035 1.327 . S
C1038 C1026 1.349 . S
C1038 H1032 0.950 . S
C1038 C1039 1.327 . S
C1039 H1033 0.950 . S
C1039 C1038 1.327 . S
C1039 C1043 1.429 . S
C1040 C1023 1.574 . S
C1040 H1034 0.949 . S
C1040 C1044 1.368 . S
C1041 C1022 1.429 . S
C1041 C1035 1.429 . S
C1041 C1042 1.523 . S
C1042 C1023 1.368 . S
C1042 C1036 1.368 . S
C1042 C1041 1.523 . S
C1043 C1027 1.429 . S
C1043 C1039 1.429 . S
C1043 C1044 1.523 . S
C1044 C1028 1.368 . S
C1044 C1040 1.368 . S
C1044 C1043 1.523 . S
H1045 C1020 0.950 . S
H1046 C1022 0.950 . S
H1047 C1023 0.949 . S
H1048 C1025 0.950 . S
H1049 C1027 0.950 . S
C1050 C1051 1.349 . S
C1050 C1052 1.327 . S
C1050 H1075 0.950 . S
C1051 C1050 1.349 . S
C1051 C1067 1.349 . S
C1052 C1050 1.327 . S
C1052 C1071 1.429 . S
C1052 H1076 0.950 . S
C1053 C1070 1.574 . S
C1053 C1072 1.368 . S
C1053 H1077 0.949 . S
H1054 C1058 0.949 . S
C1055 C1056 1.349 . S
C1055 C1057 1.327 . S
C1055 H1078 0.950 . S
C1056 C1055 1.349 . S
C1056 C1068 1.349 . S
C1057 C1055 1.327 . S
C1057 C1073 1.429 . S
C1057 H1079 0.950 . S
C1058 H1054 0.949 . S
C1058 C1066 1.574 . S
C1058 C1074 1.368 . S
H1059 C1067 0.950 . S
H1060 C1065 0.950 . S
H1061 C1066 0.949 . S
H1062 C1068 0.950 . S
H1063 C1069 0.950 . S
H1064 C1070 0.949 . S
C1065 H1060 0.950 . S
C1065 C1067 1.327 . S
C1065 C1071 1.429 . S
C1066 C1058 1.574 . S
C1066 H1061 0.949 . S
C1066 C1072 1.368 . S
C1067 C1051 1.349 . S
C1067 H1059 0.950 . S
C1067 C1065 1.327 . S
C1068 C1056 1.349 . S
C1068 H1062 0.950 . S
C1068 C1069 1.327 . S
C1069 H1063 0.950 . S
C1069 C1068 1.327 . S
C1069 C1073 1.429 . S
C1070 C1053 1.574 . S
C1070 H1064 0.949 . S
C1070 C1074 1.368 . S
C1071 C1052 1.429 . S
C1071 C1065 1.429 . S
C1071 C1072 1.523 . S
C1072 C1053 1.368 . S
C1072 C1066 1.368 . S
C1072 C1071 1.523 . S
C1073 C1057 1.429 . S
C1073 C1069 1.429 . S
C1073 C1074 1.523 . S
C1074 C1058 1.368 . S
C1074 C1070 1.368 . S
C1074 C1073 1.523 . S
H1075 C1050 0.950 . S
H1076 C1052 0.950 . S
H1077 C1053 0.949 . S
H1078 C1055 0.950 . S
H1079 C1057 0.950 . S
C1080 C1081 1.349 . S
C1080 C1082 1.327 . S
C1080 H1105 0.950 . S
C1081 C1080 1.349 . S
C1081 C1097 1.349 . S
C1082 C1080 1.327 . S
C1082 C1101 1.429 . S
C1082 H1106 0.950 . S
C1083 C1100 1.574 . S
C1083 C1102 1.368 . S
C1083 H1107 0.949 . S
H1084 C1088 0.949 . S
C1085 C1086 1.349 . S
C1085 C1087 1.327 . S
C1085 H1108 0.950 . S
C1086 C1085 1.349 . S
C1086 C1098 1.349 . S
C1087 C1085 1.327 . S
C1087 C1103 1.429 . S
C1087 H1109 0.950 . S
C1088 H1084 0.949 . S
C1088 C1096 1.574 . S
C1088 C1104 1.368 . S
H1089 C1097 0.950 . S
H1090 C1095 0.950 . S
H1091 C1096 0.949 . S
H1092 C1098 0.950 . S
H1093 C1099 0.950 . S
H1094 C1100 0.949 . S
C1095 H1090 0.950 . S
C1095 C1097 1.327 . S
C1095 C1101 1.429 . S
C1096 C1088 1.574 . S
C1096 H1091 0.949 . S
C1096 C1102 1.368 . S
C1097 C1081 1.349 . S
C1097 H1089 0.950 . S
C1097 C1095 1.327 . S
C1098 C1086 1.349 . S
C1098 H1092 0.950 . S
C1098 C1099 1.327 . S
C1099 H1093 0.950 . S
C1099 C1098 1.327 . S
C1099 C1103 1.429 . S
C1100 C1083 1.574 . S
C1100 H1094 0.949 . S
C1100 C1104 1.368 . S
C1101 C1082 1.429 . S
C1101 C1095 1.429 . S
C1101 C1102 1.523 . S
C1102 C1083 1.368 . S
C1102 C1096 1.368 . S
C1102 C1101 1.523 . S
C1103 C1087 1.429 . S
C1103 C1099 1.429 . S
C1103 C1104 1.523 . S
C1104 C1088 1.368 . S
C1104 C1100 1.368 . S
C1104 C1103 1.523 . S
H1105 C1080 0.950 . S
H1106 C1082 0.950 . S
H1107 C1083 0.949 . S
H1108 C1085 0.950 . S
H1109 C1087 0.950 . S
C1110 C1111 1.349 . S
C1110 C1112 1.327 . S
C1110 H1135 0.950 . S
C1111 C1110 1.349 . S
C1111 C1127 1.349 . S
C1112 C1110 1.327 . S
C1112 C1131 1.429 . S
C1112 H1136 0.950 . S
C1113 C1130 1.574 . S
C1113 C1132 1.368 . S
C1113 H1137 0.949 . S
H1114 C1118 0.949 . S
C1115 C1116 1.349 . S
C1115 C1117 1.327 . S
C1115 H1138 0.950 . S
C1116 C1115 1.349 . S
C1116 C1128 1.349 . S
C1117 C1115 1.327 . S
C1117 C1133 1.429 . S
C1117 H1139 0.950 . S
C1118 H1114 0.949 . S
C1118 C1126 1.574 . S
C1118 C1134 1.368 . S
H1119 C1127 0.950 . S
H1120 C1125 0.950 . S
H1121 C1126 0.949 . S
H1122 C1128 0.950 . S
H1123 C1129 0.950 . S
H1124 C1130 0.949 . S
C1125 H1120 0.950 . S
C1125 C1127 1.327 . S
C1125 C1131 1.429 . S
C1126 C1118 1.574 . S
C1126 H1121 0.949 . S
C1126 C1132 1.368 . S
C1127 C1111 1.349 . S
C1127 H1119 0.950 . S
C1127 C1125 1.327 . S
C1128 C1116 1.349 . S
C1128 H1122 0.950 . S
C1128 C1129 1.327 . S
C1129 H1123 0.950 . S
C1129 C1128 1.327 . S
C1129 C1133 1.429 . S
C1130 C1113 1.574 . S
C1130 H1124 0.949 . S
C1130 C1134 1.368 . S
C1131 C1112 1.429 . S
C1131 C1125 1.429 . S
C1131 C1132 1.523 . S
C1132 C1113 1.368 . S
C1132 C1126 1.368 . S
C1132 C1131 1.523 . S
C1133 C1117 1.429 . S
C1133 C1129 1.429 . S
C1133 C1134 1.523 . S
C1134 C1118 1.368 . S
C1134 C1130 1.368 . S
C1134 C1133 1.523 . S
H1135 C1110 0.950 . S
H1136 C1112 0.950 . S
H1137 C1113 0.949 . S
H1138 C1115 0.950 . S
H1139 C1117 0.950 . S
C1140 C1141 1.349 . S
C1140 C1142 1.327 . S
C1140 H1165 0.950 . S
C1141 C1140 1.349 . S
C1141 C1157 1.349 . S
C1142 C1140 1.327 . S
C1142 C1161 1.429 . S
C1142 H1166 0.950 . S
C1143 C1160 1.574 . S
C1143 C1162 1.368 . S
C1143 H1167 0.949 . S
H1144 C1148 0.949 . S
C1145 C1146 1.349 . S
C1145 C1147 1.327 . S
C1145 H1168 0.950 . S
C1146 C1145 1.349 . S
C1146 C1158 1.349 . S
C1147 C1145 1.327 . S
C1147 C1163 1.429 . S
C1147 H1169 0.950 . S
C1148 H1144 0.949 . S
C1148 C1156 1.574 . S
C1148 C1164 1.368 . S
H1149 C1157 0.950 . S
H1150 C1155 0.950 . S
H1151 C1156 0.949 . S
H1152 C1158 0.950 . S
H1153 C1159 0.950 . S
H1154 C1160 0.949 . S
C1155 H1150 0.950 . S
C1155 C1157 1.327 . S
C1155 C1161 1.429 . S
C1156 C1148 1.574 . S
C1156 H1151 0.949 . S
C1156 C1162 1.368 . S
C1157 C1141 1.349 . S
C1157 H1149 0.950 . S
C1157 C1155 1.327 . S
C1158 C1146 1.349 . S
C1158 H1152 0.950 . S
C1158 C1159 1.327 . S
C1159 H1153 0.950 . S
C1159 C1158 1.327 . S
C1159 C1163 1.429 . S
C1160 C1143 1.574 . S
C1160 H1154 0.949 . S
C1160 C1164 1.368 . S
C1161 C1142 1.429 . S
C1161 C1155 1.429 . S
C1161 C1162 1.523 . S
C1162 C1143 1.368 . S
C1162 C1156 1.368 . S
C1162 C1161 1.523 . S
C1163 C1147 1.429 . S
C1163 C1159 1.429 . S
C1163 C1164 1.523 . S
C1164 C1148 1.368 . S
C1164 C1160 1.368 . S
C1164 C1163 1.523 . S
H1165 C1140 0.950 . S
H1166 C1142 0.950 . S
H1167 C1143 0.949 . S
H1168 C1145 0.950 . S
H1169 C1147 0.950 . S
C1170 C1171 1.349 . S
C1170 C1172 1.327 . S
C1170 H1195 0.950 . S
C1171 C1170 1.349 . S
C1171 C1187 1.349 . S
C1172 C1170 1.327 . S
C1172 C1191 1.429 . S
C1172 H1196 0.950 . S
C1173 C1190 1.574 . S
C1173 C1192 1.368 . S
C1173 H1197 0.949 . S
H1174 C1178 0.949 . S
C1175 C1176 1.349 . S
C1175 C1177 1.327 . S
C1175 H1198 0.950 . S
C1176 C1175 1.349 . S
C1176 C1188 1.349 . S
C1177 C1175 1.327 . S
C1177 C1193 1.429 . S
C1177 H1199 0.950 . S
C1178 H1174 0.949 . S
C1178 C1186 1.574 . S
C1178 C1194 1.368 . S
H1179 C1187 0.950 . S
H1180 C1185 0.950 . S
H1181 C1186 0.949 . S
H1182 C1188 0.950 . S
H1183 C1189 0.950 . S
H1184 C1190 0.949 . S
C1185 H1180 0.950 . S
C1185 C1187 1.327 . S
C1185 C1191 1.429 . S
C1186 C1178 1.574 . S
C1186 H1181 0.949 . S
C1186 C1192 1.368 . S
C1187 C1171 1.349 . S
C1187 H1179 0.950 . S
C1187 C1185 1.327 . S
C1188 C1176 1.349 . S
C1188 H1182 0.950 . S
C1188 C1189 1.327 . S
C1189 H1183 0.950 . S
C1189 C1188 1.327 . S
C1189 C1193 1.429 . S
C1190 C1173 1.574 . S
C1190 H1184 0.949 . S
C1190 C1194 1.368 . S
C1191 C1172 1.429 . S
C1191 C1185 1.429 . S
C1191 C1192 1.523 . S
C1192 C1173 1.368 . S
C1192 C1186 1.368 . S
C1192 C1191 1.523 . S
C1193 C1177 1.429 . S
C1193 C1189 1.429 . S
C1193 C1194 1.523 . S
C1194 C1178 1.368 . S
C1194 C1190 1.368 . S
C1194 C1193 1.523 . S
H1195 C1170 0.950 . S
H1196 C1172 0.950 . S
H1197 C1173 0.949 . S
H1198 C1175 0.950 . S
H1199 C1177 0.950 . S
C1200 C1201 1.349 . S
C1200 C1202 1.327 . S
C1200 H1225 0.950 . S
C1201 C1200 1.349 . S
C1201 C1217 1.349 . S
C1202 C1200 1.327 . S
C1202 C1221 1.429 . S
C1202 H1226 0.950 . S
C1203 C1220 1.574 . S
C1203 C1222 1.368 . S
C1203 H1227 0.949 . S
H1204 C1208 0.949 . S
C1205 C1206 1.349 . S
C1205 C1207 1.327 . S
C1205 H1228 0.950 . S
C1206 C1205 1.349 . S
C1206 C1218 1.349 . S
C1207 C1205 1.327 . S
C1207 C1223 1.429 . S
C1207 H1229 0.950 . S
C1208 H1204 0.949 . S
C1208 C1216 1.574 . S
C1208 C1224 1.368 . S
H1209 C1217 0.950 . S
H1210 C1215 0.950 . S
H1211 C1216 0.949 . S
H1212 C1218 0.950 . S
H1213 C1219 0.950 . S
H1214 C1220 0.949 . S
C1215 H1210 0.950 . S
C1215 C1217 1.327 . S
C1215 C1221 1.429 . S
C1216 C1208 1.574 . S
C1216 H1211 0.949 . S
C1216 C1222 1.368 . S
C1217 C1201 1.349 . S
C1217 H1209 0.950 . S
C1217 C1215 1.327 . S
C1218 C1206 1.349 . S
C1218 H1212 0.950 . S
C1218 C1219 1.327 . S
C1219 H1213 0.950 . S
C1219 C1218 1.327 . S
C1219 C1223 1.429 . S
C1220 C1203 1.574 . S
C1220 H1214 0.949 . S
C1220 C1224 1.368 . S
C1221 C1202 1.429 . S
C1221 C1215 1.429 . S
C1221 C1222 1.523 . S
C1222 C1203 1.368 . S
C1222 C1216 1.368 . S
C1222 C1221 1.523 . S
C1223 C1207 1.429 . S
C1223 C1219 1.429 . S
C1223 C1224 1.523 . S
C1224 C1208 1.368 . S
C1224 C1220 1.368 . S
C1224 C1223 1.523 . S
H1225 C1200 0.950 . S
H1226 C1202 0.950 . S
H1227 C1203 0.949 . S
H1228 C1205 0.950 . S
H1229 C1207 0.950 . S
C1230 C1231 1.349 . S
C1230 C1232 1.327 . S
C1230 H1255 0.950 . S
C1231 C1230 1.349 . S
C1231 C1247 1.349 . S
C1232 C1230 1.327 . S
C1232 C1251 1.429 . S
C1232 H1256 0.950 . S
C1233 C1250 1.574 . S
C1233 C1252 1.368 . S
C1233 H1257 0.949 . S
H1234 C1238 0.949 . S
C1235 C1236 1.349 . S
C1235 C1237 1.327 . S
C1235 H1258 0.950 . S
C1236 C1235 1.349 . S
C1236 C1248 1.349 . S
C1237 C1235 1.327 . S
C1237 C1253 1.429 . S
C1237 H1259 0.950 . S
C1238 H1234 0.949 . S
C1238 C1246 1.574 . S
C1238 C1254 1.368 . S
H1239 C1247 0.950 . S
H1240 C1245 0.950 . S
H1241 C1246 0.949 . S
H1242 C1248 0.950 . S
H1243 C1249 0.950 . S
H1244 C1250 0.949 . S
C1245 H1240 0.950 . S
C1245 C1247 1.327 . S
C1245 C1251 1.429 . S
C1246 C1238 1.574 . S
C1246 H1241 0.949 . S
C1246 C1252 1.368 . S
C1247 C1231 1.349 . S
C1247 H1239 0.950 . S
C1247 C1245 1.327 . S
C1248 C1236 1.349 . S
C1248 H1242 0.950 . S
C1248 C1249 1.327 . S
C1249 H1243 0.950 . S
C1249 C1248 1.327 . S
C1249 C1253 1.429 . S
C1250 C1233 1.574 . S
C1250 H1244 0.949 . S
C1250 C1254 1.368 . S
C1251 C1232 1.429 . S
C1251 C1245 1.429 . S
C1251 C1252 1.523 . S
C1252 C1233 1.368 . S
C1252 C1246 1.368 . S
C1252 C1251 1.523 . S
C1253 C1237 1.429 . S
C1253 C1249 1.429 . S
C1253 C1254 1.523 . S
C1254 C1238 1.368 . S
C1254 C1250 1.368 . S
C1254 C1253 1.523 . S
H1255 C1230 0.950 . S
H1256 C1232 0.950 . S
H1257 C1233 0.949 . S
H1258 C1235 0.950 . S
H1259 C1237 0.950 . S
C1260 C1261 1.349 . S
C1260 C1262 1.327 . S
C1260 H1285 0.950 . S
C1261 C1260 1.349 . S
C1261 C1277 1.349 . S
C1262 C1260 1.327 . S
C1262 C1281 1.429 . S
C1262 H1286 0.950 . S
C1263 C1280 1.574 . S
C1263 C1282 1.368 . S
C1263 H1287 0.949 . S
H1264 C1268 0.949 . S
C1265 C1266 1.349 . S
C1265 C1267 1.327 . S
C1265 H1288 0.950 . S
C1266 C1265 1.349 . S
C1266 C1278 1.349 . S
C1267 C1265 1.327 . S
C1267 C1283 1.429 . S
C1267 H1289 0.950 . S
C1268 H1264 0.949 . S
C1268 C1276 1.574 . S
C1268 C1284 1.368 . S
H1269 C1277 0.950 . S
H1270 C1275 0.950 . S
H1271 C1276 0.949 . S
H1272 C1278 0.950 . S
H1273 C1279 0.950 . S
H1274 C1280 0.949 . S
C1275 H1270 0.950 . S
C1275 C1277 1.327 . S
C1275 C1281 1.429 . S
C1276 C1268 1.574 . S
C1276 H1271 0.949 . S
C1276 C1282 1.368 . S
C1277 C1261 1.349 . S
C1277 H1269 0.950 . S
C1277 C1275 1.327 . S
C1278 C1266 1.349 . S
C1278 H1272 0.950 . S
C1278 C1279 1.327 . S
C1279 H1273 0.950 . S
C1279 C1278 1.327 . S
C1279 C1283 1.429 . S
C1280 C1263 1.574 . S
C1280 H1274 0.949 . S
C1280 C1284 1.368 . S
C1281 C1262 1.429 . S
C1281 C1275 1.429 . S
C1281 C1282 1.523 . S
C1282 C1263 1.368 . S
C1282 C1276 1.368 . S
C1282 C1281 1.523 . S
C1283 C1267 1.429 . S
C1283 C1279 1.429 . S
C1283 C1284 1.523 . S
C1284 C1268 1.368 . S
C1284 C1280 1.368 . S
C1284 C1283 1.523 . S
H1285 C1260 0.950 . S
H1286 C1262 0.950 . S
H1287 C1263 0.949 . S
H1288 C1265 0.950 . S
H1289 C1267 0.950 . S
C1290 C1291 1.349 . S
C1290 C1292 1.327 . S
C1290 H1315 0.950 . S
C1291 C1290 1.349 . S
C1291 C1307 1.349 . S
C1292 C1290 1.327 . S
C1292 C1311 1.429 . S
C1292 H1316 0.950 . S
C1293 C1310 1.574 . S
C1293 C1312 1.368 . S
C1293 H1317 0.949 . S
H1294 C1298 0.949 . S
C1295 C1296 1.349 . S
C1295 C1297 1.327 . S
C1295 H1318 0.950 . S
C1296 C1295 1.349 . S
C1296 C1308 1.349 . S
C1297 C1295 1.327 . S
C1297 C1313 1.429 . S
C1297 H1319 0.950 . S
C1298 H1294 0.949 . S
C1298 C1306 1.574 . S
C1298 C1314 1.368 . S
H1299 C1307 0.950 . S
H1300 C1305 0.950 . S
H1301 C1306 0.949 . S
H1302 C1308 0.950 . S
H1303 C1309 0.950 . S
H1304 C1310 0.949 . S
C1305 H1300 0.950 . S
C1305 C1307 1.327 . S
C1305 C1311 1.429 . S
C1306 C1298 1.574 . S
C1306 H1301 0.949 . S
C1306 C1312 1.368 . S
C1307 C1291 1.349 . S
C1307 H1299 0.950 . S
C1307 C1305 1.327 . S
C1308 C1296 1.349 . S
C1308 H1302 0.950 . S
C1308 C1309 1.327 . S
C1309 H1303 0.950 . S
C1309 C1308 1.327 . S
C1309 C1313 1.429 . S
C1310 C1293 1.574 . S
C1310 H1304 0.949 . S
C1310 C1314 1.368 . S
C1311 C1292 1.429 . S
C1311 C1305 1.429 . S
C1311 C1312 1.523 . S
C1312 C1293 1.368 . S
C1312 C1306 1.368 . S
C1312 C1311 1.523 . S
C1313 C1297 1.429 . S
C1313 C1309 1.429 . S
C1313 C1314 1.523 . S
C1314 C1298 1.368 . S
C1314 C1310 1.368 . S
C1314 C1313 1.523 . S
H1315 C1290 0.950 . S
H1316 C1292 0.950 . S
H1317 C1293 0.949 . S
H1318 C1295 0.950 . S
H1319 C1297 0.950 . S
C1320 C1321 1.349 . S
C1320 C1322 1.327 . S
C1320 H1345 0.950 . S
C1321 C1320 1.349 . S
C1321 C1337 1.349 . S
C1322 C1320 1.327 . S
C1322 C1341 1.429 . S
C1322 H1346 0.950 . S
C1323 C1340 1.574 . S
C1323 C1342 1.368 . S
C1323 H1347 0.949 . S
H1324 C1328 0.949 . S
C1325 C1326 1.349 . S
C1325 C1327 1.327 . S
C1325 H1348 0.950 . S
C1326 C1325 1.349 . S
C1326 C1338 1.349 . S
C1327 C1325 1.327 . S
C1327 C1343 1.429 . S
C1327 H1349 0.950 . S
C1328 H1324 0.949 . S
C1328 C1336 1.574 . S
C1328 C1344 1.368 . S
H1329 C1337 0.950 . S
H1330 C1335 0.950 . S
H1331 C1336 0.949 . S
H1332 C1338 0.950 . S
H1333 C1339 0.950 . S
H1334 C1340 0.949 . S
C1335 H1330 0.950 . S
C1335 C1337 1.327 . S
C1335 C1341 1.429 . S
C1336 C1328 1.574 . S
C1336 H1331 0.949 . S
C1336 C1342 1.368 . S
C1337 C1321 1.349 . S
C1337 H1329 0.950 . S
C1337 C1335 1.327 . S
C1338 C1326 1.349 . S
C1338 H1332 0.950 . S
C1338 C1339 1.327 . S
C1339 H1333 0.950 . S
C1339 C1338 1.327 . S
C1339 C1343 1.429 . S
C1340 C1323 1.574 . S
C1340 H1334 0.949 . S
C1340 C1344 1.368 . S
C1341 C1322 1.429 . S
C1341 C1335 1.429 . S
C1341 C1342 1.523 . S
C1342 C1323 1.368 . S
C1342 C1336 1.368 . S
C1342 C1341 1.523 . S
C1343 C1327 1.429 . S
C1343 C1339 1.429 . S
C1343 C1344 1.523 . S
C1344 C1328 1.368 . S
C1344 C1340 1.368 . S
C1344 C1343 1.523 . S
H1345 C1320 0.950 . S
H1346 C1322 0.950 . S
H1347 C1323 0.949 . S
H1348 C1325 0.950 . S
H1349 C1327 0.950 . S
C1350 C1351 1.349 . S
C1350 C1352 1.327 . S
C1350 H1375 0.950 . S
C1351 C1350 1.349 . S
C1351 C1367 1.349 . S
C1352 C1350 1.327 . S
C1352 C1371 1.429 . S
C1352 H1376 0.950 . S
C1353 C1370 1.574 . S
C1353 C1372 1.368 . S
C1353 H1377 0.949 . S
H1354 C1358 0.949 . S
C1355 C1356 1.349 . S
C1355 C1357 1.327 . S
C1355 H1378 0.950 . S
C1356 C1355 1.349 . S
C1356 C1368 1.349 . S
C1357 C1355 1.327 . S
C1357 C1373 1.429 . S
C1357 H1379 0.950 . S
C1358 H1354 0.949 . S
C1358 C1366 1.574 . S
C1358 C1374 1.368 . S
H1359 C1367 0.950 . S
H1360 C1365 0.950 . S
H1361 C1366 0.949 . S
H1362 C1368 0.950 . S
H1363 C1369 0.950 . S
H1364 C1370 0.949 . S
C1365 H1360 0.950 . S
C1365 C1367 1.327 . S
C1365 C1371 1.429 . S
C1366 C1358 1.574 . S
C1366 H1361 0.949 . S
C1366 C1372 1.368 . S
C1367 C1351 1.349 . S
C1367 H1359 0.950 . S
C1367 C1365 1.327 . S
C1368 C1356 1.349 . S
C1368 H1362 0.950 . S
C1368 C1369 1.327 . S
C1369 H1363 0.950 . S
C1369 C1368 1.327 . S
C1369 C1373 1.429 . S
C1370 C1353 1.574 . S
C1370 H1364 0.949 . S
C1370 C1374 1.368 . S
C1371 C1352 1.429 . S
C1371 C1365 1.429 . S
C1371 C1372 1.523 . S
C1372 C1353 1.368 . S
C1372 C1366 1.368 . S
C1372 C1371 1.523 . S
C1373 C1357 1.429 . S
C1373 C1369 1.429 . S
C1373 C1374 1.523 . S
C1374 C1358 1.368 . S
C1374 C1370 1.368 . S
C1374 C1373 1.523 . S
H1375 C1350 0.950 . S
H1376 C1352 0.950 . S
H1377 C1353 0.949 . S
H1378 C1355 0.950 . S
H1379 C1357 0.950 . S
C1380 C1381 1.349 . S
C1380 C1382 1.327 . S
C1380 H1405 0.950 . S
C1381 C1380 1.349 . S
C1381 C1397 1.349 . S
C1382 C1380 1.327 . S
C1382 C1401 1.429 . S
C1382 H1406 0.950 . S
C1383 C1400 1.574 . S
C1383 C1402 1.368 . S
C1383 H1407 0.949 . S
H1384 C1388 0.949 . S
C1385 C1386 1.349 . S
C1385 C1387 1.327 . S
C1385 H1408 0.950 . S
C1386 C1385 1.349 . S
C1386 C1398 1.349 . S
C1387 C1385 1.327 . S
C1387 C1403 1.429 . S
C1387 H1409 0.950 . S
C1388 H1384 0.949 . S
C1388 C1396 1.574 . S
C1388 C1404 1.368 . S
H1389 C1397 0.950 . S
H1390 C1395 0.950 . S
H1391 C1396 0.949 . S
H1392 C1398 0.950 . S
H1393 C1399 0.950 . S
H1394 C1400 0.949 . S
C1395 H1390 0.950 . S
C1395 C1397 1.327 . S
C1395 C1401 1.429 . S
C1396 C1388 1.574 . S
C1396 H1391 0.949 . S
C1396 C1402 1.368 . S
C1397 C1381 1.349 . S
C1397 H1389 0.950 . S
C1397 C1395 1.327 . S
C1398 C1386 1.349 . S
C1398 H1392 0.950 . S
C1398 C1399 1.327 . S
C1399 H1393 0.950 . S
C1399 C1398 1.327 . S
C1399 C1403 1.429 . S
C1400 C1383 1.574 . S
C1400 H1394 0.949 . S
C1400 C1404 1.368 . S
C1401 C1382 1.429 . S
C1401 C1395 1.429 . S
C1401 C1402 1.523 . S
C1402 C1383 1.368 . S
C1402 C1396 1.368 . S
C1402 C1401 1.523 . S
C1403 C1387 1.429 . S
C1403 C1399 1.429 . S
C1403 C1404 1.523 . S
C1404 C1388 1.368 . S
C1404 C1400 1.368 . S
C1404 C1403 1.523 . S
H1405 C1380 0.950 . S
H1406 C1382 0.950 . S
H1407 C1383 0.949 . S
H1408 C1385 0.950 . S
H1409 C1387 0.950 . S
C1410 C1411 1.349 . S
C1410 C1412 1.327 . S
C1410 H1435 0.950 . S
C1411 C1410 1.349 . S
C1411 C1427 1.349 . S
C1412 C1410 1.327 . S
C1412 C1431 1.429 . S
C1412 H1436 0.950 . S
C1413 C1430 1.574 . S
C1413 C1432 1.368 . S
C1413 H1437 0.949 . S
H1414 C1418 0.949 . S
C1415 C1416 1.349 . S
C1415 C1417 1.327 . S
C1415 H1438 0.950 . S
C1416 C1415 1.349 . S
C1416 C1428 1.349 . S
C1417 C1415 1.327 . S
C1417 C1433 1.429 . S
C1417 H1439 0.950 . S
C1418 H1414 0.949 . S
C1418 C1426 1.574 . S
C1418 C1434 1.368 . S
H1419 C1427 0.950 . S
H1420 C1425 0.950 . S
H1421 C1426 0.949 . S
H1422 C1428 0.950 . S
H1423 C1429 0.950 . S
H1424 C1430 0.949 . S
C1425 H1420 0.950 . S
C1425 C1427 1.327 . S
C1425 C1431 1.429 . S
C1426 C1418 1.574 . S
C1426 H1421 0.949 . S
C1426 C1432 1.368 . S
C1427 C1411 1.349 . S
C1427 H1419 0.950 . S
C1427 C1425 1.327 . S
C1428 C1416 1.349 . S
C1428 H1422 0.950 . S
C1428 C1429 1.327 . S
C1429 H1423 0.950 . S
C1429 C1428 1.327 . S
C1429 C1433 1.429 . S
C1430 C1413 1.574 . S
C1430 H1424 0.949 . S
C1430 C1434 1.368 . S
C1431 C1412 1.429 . S
C1431 C1425 1.429 . S
C1431 C1432 1.523 . S
C1432 C1413 1.368 . S
C1432 C1426 1.368 . S
C1432 C1431 1.523 . S
C1433 C1417 1.429 . S
C1433 C1429 1.429 . S
C1433 C1434 1.523 . S
C1434 C1418 1.368 . S
C1434 C1430 1.368 . S
C1434 C1433 1.523 . S
H1435 C1410 0.950 . S
H1436 C1412 0.950 . S
H1437 C1413 0.949 . S
H1438 C1415 0.950 . S
H1439 C1417 0.950 . S
C1440 C1441 1.349 . S
C1440 C1442 1.327 . S
C1440 H1465 0.950 . S
C1441 C1440 1.349 . S
C1441 C1457 1.349 . S
C1442 C1440 1.327 . S
C1442 C1461 1.429 . S
C1442 H1466 0.950 . S
C1443 C1460 1.574 . S
C1443 C1462 1.368 . S
C1443 H1467 0.949 . S
H1444 C1448 0.949 . S
C1445 C1446 1.349 . S
C1445 C1447 1.327 . S
C1445 H1468 0.950 . S
C1446 C1445 1.349 . S
C1446 C1458 1.349 . S
C1447 C1445 1.327 . S
C1447 C1463 1.429 . S
C1447 H1469 0.950 . S
C1448 H1444 0.949 . S
C1448 C1456 1.574 . S
C1448 C1464 1.368 . S
H1449 C1457 0.950 . S
H1450 C1455 0.950 . S
H1451 C1456 0.949 . S
H1452 C1458 0.950 . S
H1453 C1459 0.950 . S
H1454 C1460 0.949 . S
C1455 H1450 0.950 . S
C1455 C1457 1.327 . S
C1455 C1461 1.429 . S
C1456 C1448 1.574 . S
C1456 H1451 0.949 . S
C1456 C1462 1.368 . S
C1457 C1441 1.349 . S
C1457 H1449 0.950 . S
C1457 C1455 1.327 . S
C1458 C1446 1.349 . S
C1458 H1452 0.950 . S
C1458 C1459 1.327 . S
C1459 H1453 0.950 . S
C1459 C1458 1.327 . S
C1459 C1463 1.429 . S
C1460 C1443 1.574 . S
C1460 H1454 0.949 . S
C1460 C1464 1.368 . S
C1461 C1442 1.429 . S
C1461 C1455 1.429 . S
C1461 C1462 1.523 . S
C1462 C1443 1.368 . S
C1462 C1456 1.368 . S
C1462 C1461 1.523 . S
C1463 C1447 1.429 . S
C1463 C1459 1.429 . S
C1463 C1464 1.523 . S
C1464 C1448 1.368 . S
C1464 C1460 1.368 . S
C1464 C1463 1.523 . S
H1465 C1440 0.950 . S
H1466 C1442 0.950 . S
H1467 C1443 0.949 . S
H1468 C1445 0.950 . S
H1469 C1447 0.950 . S
C1470 C1471 1.349 . S
C1470 C1472 1.327 . S
C1470 H1495 0.950 . S
C1471 C1470 1.349 . S
C1471 C1487 1.349 . S
C1472 C1470 1.327 . S
C1472 C1491 1.429 . S
C1472 H1496 0.950 . S
C1473 C1490 1.574 . S
C1473 C1492 1.368 . S
C1473 H1497 0.949 . S
H1474 C1478 0.949 . S
C1475 C1476 1.349 . S
C1475 C1477 1.327 . S
C1475 H1498 0.950 . S
C1476 C1475 1.349 . S
C1476 C1488 1.349 . S
C1477 C1475 1.327 . S
C1477 C1493 1.429 . S
C1477 H1499 0.950 . S
C1478 H1474 0.949 . S
C1478 C1486 1.574 . S
C1478 C1494 1.368 . S
H1479 C1487 0.950 . S
H1480 C1485 0.950 . S
H1481 C1486 0.949 . S
H1482 C1488 0.950 . S
H1483 C1489 0.950 . S
H1484 C1490 0.949 . S
C1485 H1480 0.950 . S
C1485 C1487 1.327 . S
C1485 C1491 1.429 . S
C1486 C1478 1.574 . S
C1486 H1481 0.949 . S
C1486 C1492 1.368 . S
C1487 C1471 1.349 . S
C1487 H1479 0.950 . S
C1487 C1485 1.327 . S
C1488 C1476 1.349 . S
C1488 H1482 0.950 . S
C1488 C1489 1.327 . S
C1489 H1483 0.950 . S
C1489 C1488 1.327 . S
C1489 C1493 1.429 . S
C1490 C1473 1.574 . S
C1490 H1484 0.949 . S
C1490 C1494 1.368 . S
C1491 C1472 1.429 . S
C1491 C1485 1.429 . S
C1491 C1492 1.523 . S
C1492 C1473 1.368 . S
C1492 C1486 1.368 . S
C1492 C1491 1.523 . S
C1493 C1477 1.429 . S
C1493 C1489 1.429 . S
C1493 C1494 1.523 . S
C1494 C1478 1.368 . S
C1494 C1490 1.368 . S
C1494 C1493 1.523 . S
H1495 C1470 0.950 . S
H1496 C1472 0.950 . S
H1497 C1473 0.949 . S
H1498 C1475 0.950 . S
H1499 C1477 0.950 . S
C1500 C1501 1.349 . S
C1500 C1502 1.327 . S
C1500 H1525 0.950 . S
C1501 C1500 1.349 . S
C1501 C1517 1.349 . S
C1502 C1500 1.327 . S
C1502 C1521 1.429 . S
C1502 H1526 0.950 . S
C1503 C1520 1.574 . S
C1503 C1522 1.368 . S
C1503 H1527 0.949 . S
H1504 C1508 0.949 . S
C1505 C1506 1.349 . S
C1505 C1507 1.327 . S
C1505 H1528 0.950 . S
C1506 C1505 1.349 . S
C1506 C1518 1.349 . S
C1507 C1505 1.327 . S
C1507 C1523 1.429 . S
C1507 H1529 0.950 . S
C1508 H1504 0.949 . S
C1508 C1516 1.574 . S
C1508 C1524 1.368 . S
H1509 C1517 0.950 . S
H1510 C1515 0.950 . S
H1511 C1516 0.949 . S
H1512 C1518 0.950 . S
H1513 C1519 0.950 . S
H1514 C1520 0.949 . S
C1515 H1510 0.950 . S
C1515 C1517 1.327 . S
C1515 C1521 1.429 . S
C1516 C1508 1.574 . S
C1516 H1511 0.949 . S
C1516 C1522 1.368 . S
C1517 C1501 1.349 . S
C1517 H1509 0.950 . S
C1517 C1515 1.327 . S
C1518 C1506 1.349 . S
C1518 H1512 0.950 . S
C1518 C1519 1.327 . S
C1519 H1513 0.950 . S
C1519 C1518 1.327 . S
C1519 C1523 1.429 . S
C1520 C1503 1.574 . S
C1520 H1514 0.949 . S
C1520 C1524 1.368 . S
C1521 C1502 1.429 . S
C1521 C1515 1.429 . S
C1521 C1522 1.523 . S
C1522 C1503 1.368 . S
C1522 C1516 1.368 . S
C1522 C1521 1.523 . S
C1523 C1507 1.429 . S
C1523 C1519 1.429 . S
C1523 C1524 1.523 . S
C1524 C1508 1.368 . S
C1524 C1520 1.368 . S
C1524 C1523 1.523 . S
H1525 C1500 0.950 . S
H1526 C1502 0.950 . S
H1527 C1503 0.949 . S
H1528 C1505 0.950 . S
H1529 C1507 0.950 . S
C1530 C1531 1.349 . S
C1530 C1532 1.327 . S
C1530 H1555 0.950 . S
C1531 C1530 1.349 . S
C1531 C1547 1.349 . S
C1532 C1530 1.327 . S
C1532 C1551 1.429 . S
C1532 H1556 0.950 . S
C1533 C1550 1.574 . S
C1533 C1552 1.368 . S
C1533 H1557 0.949 . S
H1534 C1538 0.949 . S
C1535 C1536 1.349 . S
C1535 C1537 1.327 . S
C1535 H1558 0.950 . S
C1536 C1535 1.349 . S
C1536 C1548 1.349 . S
C1537 C1535 1.327 . S
C1537 C1553 1.429 . S
C1537 H1559 0.950 . S
C1538 H1534 0.949 . S
C1538 C1546 1.574 . S
C1538 C1554 1.368 . S
H1539 C1547 0.950 . S
H1540 C1545 0.950 . S
H1541 C1546 0.949 . S
H1542 C1548 0.950 . S
H1543 C1549 0.950 . S
H1544 C1550 0.949 . S
C1545 H1540 0.950 . S
C1545 C1547 1.327 . S
C1545 C1551 1.429 . S
C1546 C1538 1.574 . S
C1546 H1541 0.949 . S
C1546 C1552 1.368 . S
C1547 C1531 1.349 . S
C1547 H1539 0.950 . S
C1547 C1545 1.327 . S
C1548 C1536 1.349 . S
C1548 H1542 0.950 . S
C1548 C1549 1.327 . S
C1549 H1543 0.950 . S
C1549 C1548 1.327 . S
C1549 C1553 1.429 . S
C1550 C1533 1.574 . S
C1550 H1544 0.949 . S
C1550 C1554 1.368 . S
C1551 C1532 1.429 . S
C1551 C1545 1.429 . S
C1551 C1552 1.523 . S
C1552 C1533 1.368 . S
C1552 C1546 1.368 . S
C1552 C1551 1.523 . S
C1553 C1537 1.429 . S
C1553 C1549 1.429 . S
C1553 C1554 1.523 . S
C1554 C1538 1.368 . S
C1554 C1550 1.368 . S
C1554 C1553 1.523 . S
H1555 C1530 0.950 . S
H1556 C1532 0.950 . S
H1557 C1533 0.949 . S
H1558 C1535 0.950 . S
H1559 C1537 0.950 . S
C1560 C1561 1.349 . S
C1560 C1562 1.327 . S
C1560 H1585 0.950 . S
C1561 C1560 1.349 . S
C1561 C1577 1.349 . S
C1562 C1560 1.327 . S
C1562 C1581 1.429 . S
C1562 H1586 0.950 . S
C1563 C1580 1.574 . S
C1563 C1582 1.368 . S
C1563 H1587 0.949 . S
H1564 C1568 0.949 . S
C1565 C1566 1.349 . S
C1565 C1567 1.327 . S
C1565 H1588 0.950 . S
C1566 C1565 1.349 . S
C1566 C1578 1.349 . S
C1567 C1565 1.327 . S
C1567 C1583 1.429 . S
C1567 H1589 0.950 . S
C1568 H1564 0.949 . S
C1568 C1576 1.574 . S
C1568 C1584 1.368 . S
H1569 C1577 0.950 . S
H1570 C1575 0.950 . S
H1571 C1576 0.949 . S
H1572 C1578 0.950 . S
H1573 C1579 0.950 . S
H1574 C1580 0.949 . S
C1575 H1570 0.950 . S
C1575 C1577 1.327 . S
C1575 C1581 1.429 . S
C1576 C1568 1.574 . S
C1576 H1571 0.949 . S
C1576 C1582 1.368 . S
C1577 C1561 1.349 . S
C1577 H1569 0.950 . S
C1577 C1575 1.327 . S
C1578 C1566 1.349 . S
C1578 H1572 0.950 . S
C1578 C1579 1.327 . S
C1579 H1573 0.950 . S
C1579 C1578 1.327 . S
C1579 C1583 1.429 . S
C1580 C1563 1.574 . S
C1580 H1574 0.949 . S
C1580 C1584 1.368 . S
C1581 C1562 1.429 . S
C1581 C1575 1.429 . S
C1581 C1582 1.523 . S
C1582 C1563 1.368 . S
C1582 C1576 1.368 . S
C1582 C1581 1.523 . S
C1583 C1567 1.429 . S
C1583 C1579 1.429 . S
C1583 C1584 1.523 . S
C1584 C1568 1.368 . S
C1584 C1580 1.368 . S
C1584 C1583 1.523 . S
H1585 C1560 0.950 . S
H1586 C1562 0.950 . S
H1587 C1563 0.949 . S
H1588 C1565 0.950 . S
H1589 C1567 0.950 . S
C1590 C1591 1.349 . S
C1590 C1592 1.327 . S
C1590 H1615 0.950 . S
C1591 C1590 1.349 . S
C1591 C1607 1.349 . S
C1592 C1590 1.327 . S
C1592 C1611 1.429 . S
C1592 H1616 0.950 . S
C1593 C1610 1.574 . S
C1593 C1612 1.368 . S
C1593 H1617 0.949 . S
H1594 C1598 0.949 . S
C1595 C1596 1.349 . S
C1595 C1597 1.327 . S
C1595 H1618 0.950 . S
C1596 C1595 1.349 . S
C1596 C1608 1.349 . S
C1597 C1595 1.327 . S
C1597 C1613 1.429 . S
C1597 H1619 0.950 . S
C1598 H1594 0.949 . S
C1598 C1606 1.574 . S
C1598 C1614 1.368 . S
H1599 C1607 0.950 . S
H1600 C1605 0.950 . S
H1601 C1606 0.949 . S
H1602 C1608 0.950 . S
H1603 C1609 0.950 . S
H1604 C1610 0.949 . S
C1605 H1600 0.950 . S
C1605 C1607 1.327 . S
C1605 C1611 1.429 . S
C1606 C1598 1.574 . S
C1606 H1601 0.949 . S
C1606 C1612 1.368 . S
C1607 C1591 1.349 . S
C1607 H1599 0.950 . S
C1607 C1605 1.327 . S
C1608 C1596 1.349 . S
C1608 H1602 0.950 . S
C1608 C1609 1.327 . S
C1609 H1603 0.950 . S
C1609 C1608 1.327 . S
C1609 C1613 1.429 . S
C1610 C1593 1.574 . S
C1610 H1604 0.949 . S
C1610 C1614 1.368 . S
C1611 C1592 1.429 . S
C1611 C1605 1.429 . S
C1611 C1612 1.523 . S
C1612 C1593 1.368 . S
C1612 C1606 1.368 . S
C1612 C1611 1.523 . S
C1613 C1597 1.429 . S
C1613 C1609 1.429 . S
C1613 C1614 1.523 . S
C1614 C1598 1.368 . S
C1614 C1610 1.368 . S
C1614 C1613 1.523 . S
H1615 C1590 0.950 . S
H1616 C1592 0.950 . S
H1617 C1593 0.949 . S
H1618 C1595 0.950 . S
H1619 C1597 0.950 . S
C1620 C1621 1.349 . S
C1620 C1622 1.327 . S
C1620 H1645 0.950 . S
C1621 C1620 1.349 . S
C1621 C1637 1.349 . S
C1622 C1620 1.327 . S
C1622 C1641 1.429 . S
C1622 H1646 0.950 . S
C1623 C1640 1.574 . S
C1623 C1642 1.368 . S
C1623 H1647 0.949 . S
H1624 C1628 0.949 . S
C1625 C1626 1.349 . S
C1625 C1627 1.327 . S
C1625 H1648 0.950 . S
C1626 C1625 1.349 . S
C1626 C1638 1.349 . S
C1627 C1625 1.327 . S
C1627 C1643 1.429 . S
C1627 H1649 0.950 . S
C1628 H1624 0.949 . S
C1628 C1636 1.574 . S
C1628 C1644 1.368 . S
H1629 C1637 0.950 . S
H1630 C1635 0.950 . S
H1631 C1636 0.949 . S
H1632 C1638 0.950 . S
H1633 C1639 0.950 . S
H1634 C1640 0.949 . S
C1635 H1630 0.950 . S
C1635 C1637 1.327 . S
C1635 C1641 1.429 . S
C1636 C1628 1.574 . S
C1636 H1631 0.949 . S
C1636 C1642 1.368 . S
C1637 C1621 1.349 . S
C1637 H1629 0.950 . S
C1637 C1635 1.327 . S
C1638 C1626 1.349 . S
C1638 H1632 0.950 . S
C1638 C1639 1.327 . S
C1639 H1633 0.950 . S
C1639 C1638 1.327 . S
C1639 C1643 1.429 . S
C1640 C1623 1.574 . S
C1640 H1634 0.949 . S
C1640 C1644 1.368 . S
C1641 C1622 1.429 . S
C1641 C1635 1.429 . S
C1641 C1642 1.523 . S
C1642 C1623 1.368 . S
C1642 C1636 1.368 . S
C1642 C1641 1.523 . S
C1643 C1627 1.429 . S
C1643 C1639 1.429 . S
C1643 C1644 1.523 . S
C1644 C1628 1.368 . S
C1644 C1640 1.368 . S
C1644 C1643 1.523 . S
H1645 C1620 0.950 . S
H1646 C1622 0.950 . S
H1647 C1623 0.949 . S
H1648 C1625 0.950 . S
H1649 C1627 0.950 . S
C1650 C1651 1.349 . S
C1650 C1652 1.327 . S
C1650 H1675 0.950 . S
C1651 C1650 1.349 . S
C1651 C1667 1.349 . S
C1652 C1650 1.327 . S
C1652 C1671 1.429 . S
C1652 H1676 0.950 . S
C1653 C1670 1.574 . S
C1653 C1672 1.368 . S
C1653 H1677 0.949 . S
H1654 C1658 0.949 . S
C1655 C1656 1.349 . S
C1655 C1657 1.327 . S
C1655 H1678 0.950 . S
C1656 C1655 1.349 . S
C1656 C1668 1.349 . S
C1657 C1655 1.327 . S
C1657 C1673 1.429 . S
C1657 H1679 0.950 . S
C1658 H1654 0.949 . S
C1658 C1666 1.574 . S
C1658 C1674 1.368 . S
H1659 C1667 0.950 . S
H1660 C1665 0.950 . S
H1661 C1666 0.949 . S
H1662 C1668 0.950 . S
H1663 C1669 0.950 . S
H1664 C1670 0.949 . S
C1665 H1660 0.950 . S
C1665 C1667 1.327 . S
C1665 C1671 1.429 . S
C1666 C1658 1.574 . S
C1666 H1661 0.949 . S
C1666 C1672 1.368 . S
C1667 C1651 1.349 . S
C1667 H1659 0.950 . S
C1667 C1665 1.327 . S
C1668 C1656 1.349 . S
C1668 H1662 0.950 . S
C1668 C1669 1.327 . S
C1669 H1663 0.950 . S
C1669 C1668 1.327 . S
C1669 C1673 1.429 . S
C1670 C1653 1.574 . S
C1670 H1664 0.949 . S
C1670 C1674 1.368 . S
C1671 C1652 1.429 . S
C1671 C1665 1.429 . S
C1671 C1672 1.523 . S
C1672 C1653 1.368 . S
C1672 C1666 1.368 . S
C1672 C1671 1.523 . S
C1673 C1657 1.429 . S
C1673 C1669 1.429 . S
C1673 C1674 1.523 . S
C1674 C1658 1.368 . S
C1674 C1670 1.368 . S
C1674 C1673 1.523 . S
H1675 C1650 0.950 . S
H1676 C1652 0.950 . S
H1677 C1653 0.949 . S
H1678 C1655 0.950 . S
H1679 C1657 0.950 . S
C1680 C1681 1.349 . S
C1680 C1682 1.327 . S
C1680 H1705 0.950 . S
C1681 C1680 1.349 . S
C1681 C1697 1.349 . S
C1682 C1680 1.327 . S
C1682 C1701 1.429 . S
C1682 H1706 0.950 . S
C1683 C1700 1.574 . S
C1683 C1702 1.368 . S
C1683 H1707 0.949 . S
H1684 C1688 0.949 . S
C1685 C1686 1.349 . S
C1685 C1687 1.327 . S
C1685 H1708 0.950 . S
C1686 C1685 1.349 . S
C1686 C1698 1.349 . S
C1687 C1685 1.327 . S
C1687 C1703 1.429 . S
C1687 H1709 0.950 . S
C1688 H1684 0.949 . S
C1688 C1696 1.574 . S
C1688 C1704 1.368 . S
H1689 C1697 0.950 . S
H1690 C1695 0.950 . S
H1691 C1696 0.949 . S
H1692 C1698 0.950 . S
H1693 C1699 0.950 . S
H1694 C1700 0.949 . S
C1695 H1690 0.950 . S
C1695 C1697 1.327 . S
C1695 C1701 1.429 . S
C1696 C1688 1.574 . S
C1696 H1691 0.949 . S
C1696 C1702 1.368 . S
C1697 C1681 1.349 . S
C1697 H1689 0.950 . S
C1697 C1695 1.327 . S
C1698 C1686 1.349 . S
C1698 H1692 0.950 . S
C1698 C1699 1.327 . S
C1699 H1693 0.950 . S
C1699 C1698 1.327 . S
C1699 C1703 1.429 . S
C1700 C1683 1.574 . S
C1700 H1694 0.949 . S
C1700 C1704 1.368 . S
C1701 C1682 1.429 . S
C1701 C1695 1.429 . S
C1701 C1702 1.523 . S
C1702 C1683 1.368 . S
C1702 C1696 1.368 . S
C1702 C1701 1.523 . S
C1703 C1687 1.429 . S
C1703 C1699 1.429 . S
C1703 C1704 1.523 . S
C1704 C1688 1.368 . S
C1704 C1700 1.368 . S
C1704 C1703 1.523 . S
H1705 C1680 0.950 . S
H1706 C1682 0.950 . S
H1707 C1683 0.949 . S
H1708 C1685 0.950 . S
H1709 C1687 0.950 . S
C1710 C1711 1.349 . S
C1710 C1712 1.327 . S
C1710 H1735 0.950 . S
C1711 C1710 1.349 . S
C1711 C1727 1.349 . S
C1712 C1710 1.327 . S
C1712 C1731 1.429 . S
C1712 H1736 0.950 . S
C1713 C1730 1.574 . S
C1713 C1732 1.368 . S
C1713 H1737 0.949 . S
H1714 C1718 0.949 . S
C1715 C1716 1.349 . S
C1715 C1717 1.327 . S
C1715 H1738 0.950 . S
C1716 C1715 1.349 . S
C1716 C1728 1.349 . S
C1717 C1715 1.327 . S
C1717 C1733 1.429 . S
C1717 H1739 0.950 . S
C1718 H1714 0.949 . S
C1718 C1726 1.574 . S
C1718 C1734 1.368 . S
H1719 C1727 0.950 . S
H1720 C1725 0.950 . S
H1721 C1726 0.949 . S
H1722 C1728 0.950 . S
H1723 C1729 0.950 . S
H1724 C1730 0.949 . S
C1725 H1720 0.950 . S
C1725 C1727 1.327 . S
C1725 C1731 1.429 . S
C1726 C1718 1.574 . S
C1726 H1721 0.949 . S
C1726 C1732 1.368 . S
C1727 C1711 1.349 . S
C1727 H1719 0.950 . S
C1727 C1725 1.327 . S
C1728 C1716 1.349 . S
C1728 H1722 0.950 . S
C1728 C1729 1.327 . S
C1729 H1723 0.950 . S
C1729 C1728 1.327 . S
C1729 C1733 1.429 . S
C1730 C1713 1.574 . S
C1730 H1724 0.949 . S
C1730 C1734 1.368 . S
C1731 C1712 1.429 . S
C1731 C1725 1.429 . S
C1731 C1732 1.523 . S
C1732 C1713 1.368 . S
C1732 C1726 1.368 . S
C1732 C1731 1.523 . S
C1733 C1717 1.429 . S
C1733 C1729 1.429 . S
C1733 C1734 1.523 . S
C1734 C1718 1.368 . S
C1734 C1730 1.368 . S
C1734 C1733 1.523 . S
H1735 C1710 0.950 . S
H1736 C1712 0.950 . S
H1737 C1713 0.949 . S
H1738 C1715 0.950 . S
H1739 C1717 0.950 . S
C1740 C1741 1.349 . S
C1740 C1742 1.327 . S
C1740 H1765 0.950 . S
C1741 C1740 1.349 . S
C1741 C1757 1.349 . S
C1742 C1740 1.327 . S
C1742 C1761 1.429 . S
C1742 H1766 0.950 . S
C1743 C1760 1.574 . S
C1743 C1762 1.368 . S
C1743 H1767 0.949 . S
H1744 C1748 0.949 . S
C1745 C1746 1.349 . S
C1745 C1747 1.327 . S
C1745 H1768 0.950 . S
C1746 C1745 1.349 . S
C1746 C1758 1.349 . S
C1747 C1745 1.327 . S
C1747 C1763 1.429 . S
C1747 H1769 0.950 . S
C1748 H1744 0.949 . S
C1748 C1756 1.574 . S
C1748 C1764 1.368 . S
H1749 C1757 0.950 . S
H1750 C1755 0.950 . S
H1751 C1756 0.949 . S
H1752 C1758 0.950 . S
H1753 C1759 0.950 . S
H1754 C1760 0.949 . S
C1755 H1750 0.950 . S
C1755 C1757 1.327 . S
C1755 C1761 1.429 . S
C1756 C1748 1.574 . S
C1756 H1751 0.949 . S
C1756 C1762 1.368 . S
C1757 C1741 1.349 . S
C1757 H1749 0.950 . S
C1757 C1755 1.327 . S
C1758 C1746 1.349 . S
C1758 H1752 0.950 . S
C1758 C1759 1.327 . S
C1759 H1753 0.950 . S
C1759 C1758 1.327 . S
C1759 C1763 1.429 . S
C1760 C1743 1.574 . S
C1760 H1754 0.949 . S
C1760 C1764 1.368 . S
C1761 C1742 1.429 . S
C1761 C1755 1.429 . S
C1761 C1762 1.523 . S
C1762 C1743 1.368 . S
C1762 C1756 1.368 . S
C1762 C1761 1.523 . S
C1763 C1747 1.429 . S
C1763 C1759 1.429 . S
C1763 C1764 1.523 . S
C1764 C1748 1.368 . S
C1764 C1760 1.368 . S
C1764 C1763 1.523 . S
H1765 C1740 0.950 . S
H1766 C1742 0.950 . S
H1767 C1743 0.949 . S
H1768 C1745 0.950 . S
H1769 C1747 0.950 . S
C1770 C1771 1.349 . S
C1770 C1772 1.327 . S
C1770 H1795 0.950 . S
C1771 C1770 1.349 . S
C1771 C1787 1.349 . S
C1772 C1770 1.327 . S
C1772 C1791 1.429 . S
C1772 H1796 0.950 . S
C1773 C1790 1.574 . S
C1773 C1792 1.368 . S
C1773 H1797 0.949 . S
H1774 C1778 0.949 . S
C1775 C1776 1.349 . S
C1775 C1777 1.327 . S
C1775 H1798 0.950 . S
C1776 C1775 1.349 . S
C1776 C1788 1.349 . S
C1777 C1775 1.327 . S
C1777 C1793 1.429 . S
C1777 H1799 0.950 . S
C1778 H1774 0.949 . S
C1778 C1786 1.574 . S
C1778 C1794 1.368 . S
H1779 C1787 0.950 . S
H1780 C1785 0.950 . S
H1781 C1786 0.949 . S
H1782 C1788 0.950 . S
H1783 C1789 0.950 . S
H1784 C1790 0.949 . S
C1785 H1780 0.950 . S
C1785 C1787 1.327 . S
C1785 C1791 1.429 . S
C1786 C1778 1.574 . S
C1786 H1781 0.949 . S
C1786 C1792 1.368 . S
C1787 C1771 1.349 . S
C1787 H1779 0.950 . S
C1787 C1785 1.327 . S
C1788 C1776 1.349 . S
C1788 H1782 0.950 . S
C1788 C1789 1.327 . S
C1789 H1783 0.950 . S
C1789 C1788 1.327 . S
C1789 C1793 1.429 . S
C1790 C1773 1.574 . S
C1790 H1784 0.949 . S
C1790 C1794 1.368 . S
C1791 C1772 1.429 . S
C1791 C1785 1.429 . S
C1791 C1792 1.523 . S
C1792 C1773 1.368 . S
C1792 C1786 1.368 . S
C1792 C1791 1.523 . S
C1793 C1777 1.429 . S
C1793 C1789 1.429 . S
C1793 C1794 1.523 . S
C1794 C1778 1.368 . S
C1794 C1790 1.368 . S
C1794 C1793 1.523 . S
H1795 C1770 0.950 . S
H1796 C1772 0.950 . S
H1797 C1773 0.949 . S
H1798 C1775 0.950 . S
H1799 C1777 0.950 . S
C1800 C1801 1.349 1_554 S
C1800 C1802 1.327 1_554 S
C1800 H1825 0.950 . S
C1801 C1800 1.349 1_556 S
C1801 C1817 1.349 . S
C1802 C1800 1.327 1_556 S
C1802 C1821 1.429 . S
C1802 H1826 0.950 1_556 S
C1803 C1820 1.574 . S
C1803 C1822 1.368 . S
C1803 H1827 0.949 . S
H1804 C1808 0.949 . S
C1805 C1806 1.349 . S
C1805 C1807 1.327 . S
C1805 H1828 0.950 . S
C1806 C1805 1.349 . S
C1806 C1818 1.349 . S
C1807 C1805 1.327 . S
C1807 C1823 1.429 . S
C1807 H1829 0.950 . S
C1808 H1804 0.949 . S
C1808 C1816 1.574 . S
C1808 C1824 1.368 . S
H1809 C1817 0.950 . S
H1810 C1815 0.950 . S
H1811 C1816 0.949 . S
H1812 C1818 0.950 . S
H1813 C1819 0.950 . S
H1814 C1820 0.949 . S
C1815 H1810 0.950 . S
C1815 C1817 1.327 . S
C1815 C1821 1.429 . S
C1816 C1808 1.574 . S
C1816 H1811 0.949 . S
C1816 C1822 1.368 . S
C1817 C1801 1.349 . S
C1817 H1809 0.950 . S
C1817 C1815 1.327 . S
C1818 C1806 1.349 . S
C1818 H1812 0.950 . S
C1818 C1819 1.327 . S
C1819 H1813 0.950 . S
C1819 C1818 1.327 . S
C1819 C1823 1.429 . S
C1820 C1803 1.574 . S
C1820 H1814 0.949 . S
C1820 C1824 1.368 . S
C1821 C1802 1.429 . S
C1821 C1815 1.429 . S
C1821 C1822 1.523 . S
C1822 C1803 1.368 . S
C1822 C1816 1.368 . S
C1822 C1821 1.523 . S
C1823 C1807 1.429 . S
C1823 C1819 1.429 . S
C1823 C1824 1.523 . S
C1824 C1808 1.368 . S
C1824 C1820 1.368 . S
C1824 C1823 1.523 . S
H1825 C1800 0.950 . S
H1826 C1802 0.950 1_554 S
H1827 C1803 0.949 . S
H1828 C1805 0.950 . S
H1829 C1807 0.950 . S
C1830 C1831 1.349 . S
C1830 C1832 1.327 . S
C1830 H1855 0.950 . S
C1831 C1830 1.349 . S
C1831 C1847 1.349 . S
C1832 C1830 1.327 . S
C1832 C1851 1.429 . S
C1832 H1856 0.950 . S
C1833 C1850 1.574 . S
C1833 C1852 1.368 . S
C1833 H1857 0.949 . S
H1834 C1838 0.949 . S
C1835 C1836 1.349 . S
C1835 C1837 1.327 . S
C1835 H1858 0.950 . S
C1836 C1835 1.349 . S
C1836 C1848 1.349 . S
C1837 C1835 1.327 . S
C1837 C1853 1.429 . S
C1837 H1859 0.950 . S
C1838 H1834 0.949 . S
C1838 C1846 1.574 . S
C1838 C1854 1.368 . S
H1839 C1847 0.950 1_554 S
H1840 C1845 0.950 . S
H1841 C1846 0.949 . S
H1842 C1848 0.950 . S
H1843 C1849 0.950 . S
H1844 C1850 0.949 . S
C1845 H1840 0.950 . S
C1845 C1847 1.327 . S
C1845 C1851 1.429 . S
C1846 C1838 1.574 . S
C1846 H1841 0.949 . S
C1846 C1852 1.368 . S
C1847 C1831 1.349 . S
C1847 H1839 0.950 1_556 S
C1847 C1845 1.327 . S
C1848 C1836 1.349 . S
C1848 H1842 0.950 . S
C1848 C1849 1.327 . S
C1849 H1843 0.950 . S
C1849 C1848 1.327 . S
C1849 C1853 1.429 . S
C1850 C1833 1.574 . S
C1850 H1844 0.949 . S
C1850 C1854 1.368 . S
C1851 C1832 1.429 . S
C1851 C1845 1.429 . S
C1851 C1852 1.523 . S
C1852 C1833 1.368 . S
C1852 C1846 1.368 . S
C1852 C1851 1.523 . S
C1853 C1837 1.429 . S
C1853 C1849 1.429 . S
C1853 C1854 1.523 . S
C1854 C1838 1.368 . S
C1854 C1850 1.368 . S
C1854 C1853 1.523 . S
H1855 C1830 0.950 . S
H1856 C1832 0.950 . S
H1857 C1833 0.949 . S
H1858 C1835 0.950 . S
H1859 C1837 0.950 . S
C1860 C1861 1.349 1_554 S
C1860 C1862 1.333 . S
C1860 H1885 0.950 . S
C1861 C1860 1.349 1_556 S
C1861 C1877 1.349 . S
C1862 C1860 1.333 . S
C1862 C1881 1.415 1_554 S
C1862 H1886 0.958 . S
C1863 C1880 1.574 . S
C1863 C1882 1.368 . S
C1863 H1887 0.949 . S
H1864 C1868 0.949 . S
C1865 C1866 1.349 . S
C1865 C1867 1.327 . S
C1865 H1888 0.950 . S
C1866 C1865 1.349 . S
C1866 C1878 1.349 . S
C1867 C1865 1.327 . S
C1867 C1883 1.429 . S
C1867 H1889 0.950 . S
C1868 H1864 0.949 . S
C1868 C1876 1.574 . S
C1868 C1884 1.368 . S
H1869 C1877 0.950 . S
H1870 C1875 0.950 . S
H1871 C1876 0.949 . S
H1872 C1878 0.950 . S
H1873 C1879 0.950 . S
H1874 C1880 0.949 . S
C1875 H1870 0.950 . S
C1875 C1877 1.327 . S
C1875 C1881 1.429 . S
C1876 C1868 1.574 . S
C1876 H1871 0.949 . S
C1876 C1882 1.368 . S
C1877 C1861 1.349 . S
C1877 H1869 0.950 . S
C1877 C1875 1.327 . S
C1878 C1866 1.349 . S
C1878 H1872 0.950 . S
C1878 C1879 1.327 . S
C1879 H1873 0.950 . S
C1879 C1878 1.327 . S
C1879 C1883 1.429 . S
C1880 C1863 1.574 . S
C1880 H1874 0.949 . S
C1880 C1884 1.368 . S
C1881 C1862 1.415 1_556 S
C1881 C1875 1.429 . S
C1881 C1882 1.523 . S
C1882 C1863 1.368 . S
C1882 C1876 1.368 . S
C1882 C1881 1.523 . S
C1883 C1867 1.429 . S
C1883 C1879 1.429 . S
C1883 C1884 1.523 . S
C1884 C1868 1.368 . S
C1884 C1880 1.368 . S
C1884 C1883 1.523 . S
H1885 C1860 0.950 . S
H1886 C1862 0.958 . S
H1887 C1863 0.949 . S
H1888 C1865 0.950 . S
H1889 C1867 0.950 . S
C1890 C1891 1.349 1_554 S
C1890 C1892 1.327 1_554 S
C1890 H1915 0.950 . S
C1891 C1890 1.349 1_556 S
C1891 C1907 1.349 . S
C1892 C1890 1.327 1_556 S
C1892 C1911 1.429 . S
C1892 H1916 0.950 1_556 S
C1893 C1910 1.574 . S
C1893 C1912 1.368 . S
C1893 H1917 0.949 . S
H1894 C1898 0.949 . S
C1895 C1896 1.349 . S
C1895 C1897 1.327 . S
C1895 H1918 0.950 . S
C1896 C1895 1.349 . S
C1896 C1908 1.349 . S
C1897 C1895 1.327 . S
C1897 C1913 1.429 . S
C1897 H1919 0.950 . S
C1898 H1894 0.949 . S
C1898 C1906 1.574 . S
C1898 C1914 1.368 . S
H1899 C1907 0.950 . S
H1900 C1905 0.950 . S
H1901 C1906 0.949 . S
H1902 C1908 0.950 . S
H1903 C1909 0.950 . S
H1904 C1910 0.949 . S
C1905 H1900 0.950 . S
C1905 C1907 1.327 . S
C1905 C1911 1.429 . S
C1906 C1898 1.574 . S
C1906 H1901 0.949 . S
C1906 C1912 1.368 . S
C1907 C1891 1.349 . S
C1907 H1899 0.950 . S
C1907 C1905 1.327 . S
C1908 C1896 1.349 . S
C1908 H1902 0.950 . S
C1908 C1909 1.327 . S
C1909 H1903 0.950 . S
C1909 C1908 1.327 . S
C1909 C1913 1.429 . S
C1910 C1893 1.574 . S
C1910 H1904 0.949 . S
C1910 C1914 1.368 . S
C1911 C1892 1.429 . S
C1911 C1905 1.429 . S
C1911 C1912 1.523 . S
C1912 C1893 1.368 . S
C1912 C1906 1.368 . S
C1912 C1911 1.523 . S
C1913 C1897 1.429 . S
C1913 C1909 1.429 . S
C1913 C1914 1.523 . S
C1914 C1898 1.368 . S
C1914 C1910 1.368 . S
C1914 C1913 1.523 . S
H1915 C1890 0.950 . S
H1916 C1892 0.950 1_554 S
H1917 C1893 0.949 . S
H1918 C1895 0.950 . S
H1919 C1897 0.950 . S
C1920 C1921 1.349 . S
C1920 C1922 1.327 . S
C1920 H1945 0.950 1_556 S
C1921 C1920 1.349 . S
C1921 C1937 1.349 . S
C1922 C1920 1.327 . S
C1922 C1941 1.429 . S
C1922 H1946 0.950 . S
C1923 C1940 1.574 . S
C1923 C1942 1.368 . S
C1923 H1947 0.949 . S
H1924 C1928 0.949 . S
C1925 C1926 1.349 . S
C1925 C1927 1.327 . S
C1925 H1948 0.950 . S
C1926 C1925 1.349 . S
C1926 C1938 1.349 . S
C1927 C1925 1.327 . S
C1927 C1943 1.429 . S
C1927 H1949 0.950 . S
C1928 H1924 0.949 . S
C1928 C1936 1.574 . S
C1928 C1944 1.368 . S
H1929 C1937 0.950 . S
H1930 C1935 0.950 . S
H1931 C1936 0.949 . S
H1932 C1938 0.950 . S
H1933 C1939 0.950 . S
H1934 C1940 0.949 . S
C1935 H1930 0.950 . S
C1935 C1937 1.327 . S
C1935 C1941 1.429 . S
C1936 C1928 1.574 . S
C1936 H1931 0.949 . S
C1936 C1942 1.368 . S
C1937 C1921 1.349 . S
C1937 H1929 0.950 . S
C1937 C1935 1.327 . S
C1938 C1926 1.349 . S
C1938 H1932 0.950 . S
C1938 C1939 1.327 . S
C1939 H1933 0.950 . S
C1939 C1938 1.327 . S
C1939 C1943 1.429 . S
C1940 C1923 1.574 . S
C1940 H1934 0.949 . S
C1940 C1944 1.368 . S
C1941 C1922 1.429 . S
C1941 C1935 1.429 . S
C1941 C1942 1.523 . S
C1942 C1923 1.368 . S
C1942 C1936 1.368 . S
C1942 C1941 1.523 . S
C1943 C1927 1.429 . S
C1943 C1939 1.429 . S
C1943 C1944 1.523 . S
C1944 C1928 1.368 . S
C1944 C1940 1.368 . S
C1944 C1943 1.523 . S
H1945 C1920 0.950 1_554 S
H1946 C1922 0.950 . S
H1947 C1923 0.949 . S
H1948 C1925 0.950 . S
H1949 C1927 0.950 . S
C1950 C1951 1.349 1_554 S
C1950 C1952 1.327 . S
C1950 H1975 0.950 . S
C1951 C1950 1.349 1_556 S
C1951 C1967 1.349 . S
C1952 C1950 1.327 . S
C1952 C1971 1.429 1_554 S
C1952 H1976 0.950 . S
C1953 C1970 1.574 . S
C1953 C1972 1.368 . S
C1953 H1977 0.949 . S
H1954 C1958 0.949 . S
C1955 C1956 1.349 . S
C1955 C1957 1.327 . S
C1955 H1978 0.950 . S
C1956 C1955 1.349 . S
C1956 C1968 1.349 . S
C1957 C1955 1.327 . S
C1957 C1973 1.429 . S
C1957 H1979 0.950 . S
C1958 H1954 0.949 . S
C1958 C1966 1.574 . S
C1958 C1974 1.368 . S
H1959 C1967 0.950 . S
H1960 C1965 0.950 . S
H1961 C1966 0.949 . S
H1962 C1968 0.950 . S
H1963 C1969 0.950 . S
H1964 C1970 0.949 . S
C1965 H1960 0.950 . S
C1965 C1967 1.327 . S
C1965 C1971 1.429 . S
C1966 C1958 1.574 . S
C1966 H1961 0.949 . S
C1966 C1972 1.368 . S
C1967 C1951 1.349 . S
C1967 H1959 0.950 . S
C1967 C1965 1.327 . S
C1968 C1956 1.349 . S
C1968 H1962 0.950 . S
C1968 C1969 1.327 . S
C1969 H1963 0.950 . S
C1969 C1968 1.327 . S
C1969 C1973 1.429 . S
C1970 C1953 1.574 . S
C1970 H1964 0.949 . S
C1970 C1974 1.368 . S
C1971 C1952 1.429 1_556 S
C1971 C1965 1.429 . S
C1971 C1972 1.523 . S
C1972 C1953 1.368 . S
C1972 C1966 1.368 . S
C1972 C1971 1.523 . S
C1973 C1957 1.429 . S
C1973 C1969 1.429 . S
C1973 C1974 1.523 . S
C1974 C1958 1.368 . S
C1974 C1970 1.368 . S
C1974 C1973 1.523 . S
H1975 C1950 0.950 . S
H1976 C1952 0.950 . S
H1977 C1953 0.949 . S
H1978 C1955 0.950 . S
H1979 C1957 0.950 . S
C1980 C1981 1.349 . S
C1980 C1982 1.327 . S
C1980 H2005 0.950 . S
C1981 C1980 1.349 . S
C1981 C1997 1.349 . S
C1982 C1980 1.327 . S
C1982 C2001 1.429 . S
C1982 H2006 0.950 . S
C1983 C2000 1.574 . S
C1983 C2002 1.368 . S
C1983 H2007 0.949 . S
H1984 C1988 0.949 . S
C1985 C1986 1.349 . S
C1985 C1987 1.327 . S
C1985 H2008 0.950 . S
C1986 C1985 1.349 . S
C1986 C1998 1.349 . S
C1987 C1985 1.327 . S
C1987 C2003 1.429 . S
C1987 H2009 0.950 . S
C1988 H1984 0.949 . S
C1988 C1996 1.574 . S
C1988 C2004 1.368 . S
H1989 C1997 0.950 . S
H1990 C1995 0.950 . S
H1991 C1996 0.949 . S
H1992 C1998 0.950 . S
H1993 C1999 0.950 . S
H1994 C2000 0.949 . S
C1995 H1990 0.950 . S
C1995 C1997 1.327 . S
C1995 C2001 1.429 . S
C1996 C1988 1.574 . S
C1996 H1991 0.949 . S
C1996 C2002 1.368 . S
C1997 C1981 1.349 . S
C1997 H1989 0.950 . S
C1997 C1995 1.327 . S
C1998 C1986 1.349 . S
C1998 H1992 0.950 . S
C1998 C1999 1.327 . S
C1999 H1993 0.950 . S
C1999 C1998 1.327 . S
C1999 C2003 1.429 . S
C2000 C1983 1.574 . S
C2000 H1994 0.949 . S
C2000 C2004 1.368 . S
C2001 C1982 1.429 . S
C2001 C1995 1.429 . S
C2001 C2002 1.523 . S
C2002 C1983 1.368 . S
C2002 C1996 1.368 . S
C2002 C2001 1.523 . S
C2003 C1987 1.429 . S
C2003 C1999 1.429 . S
C2003 C2004 1.523 . S
C2004 C1988 1.368 . S
C2004 C2000 1.368 . S
C2004 C2003 1.523 . S
H2005 C1980 0.950 . S
H2006 C1982 0.950 . S
H2007 C1983 0.949 . S
H2008 C1985 0.950 . S
H2009 C1987 0.950 . S
C2010 C2011 1.349 . S
C2010 C2012 1.327 . S
C2010 H2035 0.950 . S
C2011 C2010 1.349 . S
C2011 C2027 1.349 . S
C2012 C2010 1.327 . S
C2012 C2031 1.429 . S
C2012 H2036 0.950 . S
C2013 C2030 1.574 . S
C2013 C2032 1.368 . S
C2013 H2037 0.949 . S
H2014 C2018 0.949 . S
C2015 C2016 1.349 . S
C2015 C2017 1.327 . S
C2015 H2038 0.950 . S
C2016 C2015 1.349 . S
C2016 C2028 1.349 . S
C2017 C2015 1.327 . S
C2017 C2033 1.429 . S
C2017 H2039 0.950 . S
C2018 H2014 0.949 . S
C2018 C2026 1.574 . S
C2018 C2034 1.368 . S
H2019 C2027 0.950 . S
H2020 C2025 0.950 . S
H2021 C2026 0.949 . S
H2022 C2028 0.950 . S
H2023 C2029 0.950 . S
H2024 C2030 0.949 . S
C2025 H2020 0.950 . S
C2025 C2027 1.327 . S
C2025 C2031 1.429 . S
C2026 C2018 1.574 . S
C2026 H2021 0.949 . S
C2026 C2032 1.368 . S
C2027 C2011 1.349 . S
C2027 H2019 0.950 . S
C2027 C2025 1.327 . S
C2028 C2016 1.349 . S
C2028 H2022 0.950 . S
C2028 C2029 1.327 . S
C2029 H2023 0.950 . S
C2029 C2028 1.327 . S
C2029 C2033 1.429 . S
C2030 C2013 1.574 . S
C2030 H2024 0.949 . S
C2030 C2034 1.368 . S
C2031 C2012 1.429 . S
C2031 C2025 1.429 . S
C2031 C2032 1.523 . S
C2032 C2013 1.368 . S
C2032 C2026 1.368 . S
C2032 C2031 1.523 . S
C2033 C2017 1.429 . S
C2033 C2029 1.429 . S
C2033 C2034 1.523 . S
C2034 C2018 1.368 . S
C2034 C2030 1.368 . S
C2034 C2033 1.523 . S
H2035 C2010 0.950 . S
H2036 C2012 0.950 . S
H2037 C2013 0.949 . S
H2038 C2015 0.950 . S
H2039 C2017 0.950 . S
C2040 C2041 1.349 . S
C2040 C2042 1.327 . S
C2040 H2065 0.950 . S
C2041 C2040 1.349 . S
C2041 C2057 1.349 . S
C2042 C2040 1.327 . S
C2042 C2061 1.429 . S
C2042 H2066 0.950 . S
C2043 C2060 1.574 . S
C2043 C2062 1.368 . S
C2043 H2067 0.949 . S
H2044 C2048 0.949 . S
C2045 C2046 1.349 . S
C2045 C2047 1.327 . S
C2045 H2068 0.950 . S
C2046 C2045 1.349 . S
C2046 C2058 1.349 . S
C2047 C2045 1.327 . S
C2047 C2063 1.429 . S
C2047 H2069 0.950 . S
C2048 H2044 0.949 . S
C2048 C2056 1.574 . S
C2048 C2064 1.368 . S
H2049 C2057 0.950 . S
H2050 C2055 0.950 . S
H2051 C2056 0.949 . S
H2052 C2058 0.950 . S
H2053 C2059 0.950 . S
H2054 C2060 0.949 . S
C2055 H2050 0.950 . S
C2055 C2057 1.327 . S
C2055 C2061 1.429 . S
C2056 C2048 1.574 . S
C2056 H2051 0.949 . S
C2056 C2062 1.368 . S
C2057 C2041 1.349 . S
C2057 H2049 0.950 . S
C2057 C2055 1.327 . S
C2058 C2046 1.349 . S
C2058 H2052 0.950 . S
C2058 C2059 1.327 . S
C2059 H2053 0.950 . S
C2059 C2058 1.327 . S
C2059 C2063 1.429 . S
C2060 C2043 1.574 . S
C2060 H2054 0.949 . S
C2060 C2064 1.368 . S
C2061 C2042 1.429 . S
C2061 C2055 1.429 . S
C2061 C2062 1.523 . S
C2062 C2043 1.368 . S
C2062 C2056 1.368 . S
C2062 C2061 1.523 . S
C2063 C2047 1.429 . S
C2063 C2059 1.429 . S
C2063 C2064 1.523 . S
C2064 C2048 1.368 . S
C2064 C2060 1.368 . S
C2064 C2063 1.523 . S
H2065 C2040 0.950 . S
H2066 C2042 0.950 . S
H2067 C2043 0.949 . S
H2068 C2045 0.950 . S
H2069 C2047 0.950 . S
C2070 C2071 1.349 . S
C2070 C2072 1.327 . S
C2070 H2095 0.950 . S
C2071 C2070 1.349 . S
C2071 C2087 1.349 . S
C2072 C2070 1.327 . S
C2072 C2091 1.429 . S
C2072 H2096 0.950 . S
C2073 C2090 1.574 . S
C2073 C2092 1.368 . S
C2073 H2097 0.949 . S
H2074 C2078 0.949 . S
C2075 C2076 1.349 . S
C2075 C2077 1.327 . S
C2075 H2098 0.950 . S
C2076 C2075 1.349 . S
C2076 C2088 1.349 . S
C2077 C2075 1.327 . S
C2077 C2093 1.429 . S
C2077 H2099 0.950 . S
C2078 H2074 0.949 . S
C2078 C2086 1.574 . S
C2078 C2094 1.368 . S
H2079 C2087 0.950 . S
H2080 C2085 0.950 . S
H2081 C2086 0.949 . S
H2082 C2088 0.950 . S
H2083 C2089 0.950 . S
H2084 C2090 0.949 . S
C2085 H2080 0.950 . S
C2085 C2087 1.327 . S
C2085 C2091 1.429 . S
C2086 C2078 1.574 . S
C2086 H2081 0.949 . S
C2086 C2092 1.368 . S
C2087 C2071 1.349 . S
C2087 H2079 0.950 . S
C2087 C2085 1.327 . S
C2088 C2076 1.349 . S
C2088 H2082 0.950 . S
C2088 C2089 1.327 . S
C2089 H2083 0.950 . S
C2089 C2088 1.327 . S
C2089 C2093 1.429 . S
C2090 C2073 1.574 . S
C2090 H2084 0.949 . S
C2090 C2094 1.368 . S
C2091 C2072 1.429 . S
C2091 C2085 1.429 . S
C2091 C2092 1.523 . S
C2092 C2073 1.368 . S
C2092 C2086 1.368 . S
C2092 C2091 1.523 . S
C2093 C2077 1.429 . S
C2093 C2089 1.429 . S
C2093 C2094 1.523 . S
C2094 C2078 1.368 . S
C2094 C2090 1.368 . S
C2094 C2093 1.523 . S
H2095 C2070 0.950 . S
H2096 C2072 0.950 . S
H2097 C2073 0.949 . S
H2098 C2075 0.950 . S
H2099 C2077 0.950 . S
C2100 C2101 1.349 . S
C2100 C2102 1.327 . S
C2100 H2125 0.950 . S
C2101 C2100 1.349 . S
C2101 C2117 1.349 . S
C2102 C2100 1.327 . S
C2102 C2121 1.429 . S
C2102 H2126 0.950 . S
C2103 C2120 1.574 . S
C2103 C2122 1.368 . S
C2103 H2127 0.949 . S
H2104 C2108 0.949 . S
C2105 C2106 1.349 . S
C2105 C2107 1.327 . S
C2105 H2128 0.950 . S
C2106 C2105 1.349 . S
C2106 C2118 1.349 . S
C2107 C2105 1.327 . S
C2107 C2123 1.429 . S
C2107 H2129 0.950 . S
C2108 H2104 0.949 . S
C2108 C2116 1.574 . S
C2108 C2124 1.368 . S
H2109 C2117 0.950 . S
H2110 C2115 0.950 . S
H2111 C2116 0.949 . S
H2112 C2118 0.950 . S
H2113 C2119 0.950 . S
H2114 C2120 0.949 . S
C2115 H2110 0.950 . S
C2115 C2117 1.327 . S
C2115 C2121 1.429 . S
C2116 C2108 1.574 . S
C2116 H2111 0.949 . S
C2116 C2122 1.368 . S
C2117 C2101 1.349 . S
C2117 H2109 0.950 . S
C2117 C2115 1.327 . S
C2118 C2106 1.349 . S
C2118 H2112 0.950 . S
C2118 C2119 1.327 . S
C2119 H2113 0.950 . S
C2119 C2118 1.327 . S
C2119 C2123 1.429 . S
C2120 C2103 1.574 . S
C2120 H2114 0.949 . S
C2120 C2124 1.368 . S
C2121 C2102 1.429 . S
C2121 C2115 1.429 . S
C2121 C2122 1.523 . S
C2122 C2103 1.368 . S
C2122 C2116 1.368 . S
C2122 C2121 1.523 . S
C2123 C2107 1.429 . S
C2123 C2119 1.429 . S
C2123 C2124 1.523 . S
C2124 C2108 1.368 . S
C2124 C2120 1.368 . S
C2124 C2123 1.523 . S
H2125 C2100 0.950 . S
H2126 C2102 0.950 . S
H2127 C2103 0.949 . S
H2128 C2105 0.950 . S
H2129 C2107 0.950 . S
C2130 C2131 1.349 . S
C2130 C2132 1.327 . S
C2130 H2155 0.950 . S
C2131 C2130 1.349 . S
C2131 C2147 1.349 . S
C2132 C2130 1.327 . S
C2132 C2151 1.429 . S
C2132 H2156 0.950 . S
C2133 C2150 1.574 . S
C2133 C2152 1.368 . S
C2133 H2157 0.949 . S
H2134 C2138 0.949 . S
C2135 C2136 1.349 . S
C2135 C2137 1.327 . S
C2135 H2158 0.950 . S
C2136 C2135 1.349 . S
C2136 C2148 1.349 . S
C2137 C2135 1.327 . S
C2137 C2153 1.429 . S
C2137 H2159 0.950 . S
C2138 H2134 0.949 . S
C2138 C2146 1.574 . S
C2138 C2154 1.368 . S
H2139 C2147 0.950 . S
H2140 C2145 0.950 . S
H2141 C2146 0.949 . S
H2142 C2148 0.950 . S
H2143 C2149 0.950 . S
H2144 C2150 0.949 . S
C2145 H2140 0.950 . S
C2145 C2147 1.327 . S
C2145 C2151 1.429 . S
C2146 C2138 1.574 . S
C2146 H2141 0.949 . S
C2146 C2152 1.368 . S
C2147 C2131 1.349 . S
C2147 H2139 0.950 . S
C2147 C2145 1.327 . S
C2148 C2136 1.349 . S
C2148 H2142 0.950 . S
C2148 C2149 1.327 . S
C2149 H2143 0.950 . S
C2149 C2148 1.327 . S
C2149 C2153 1.429 . S
C2150 C2133 1.574 . S
C2150 H2144 0.949 . S
C2150 C2154 1.368 . S
C2151 C2132 1.429 . S
C2151 C2145 1.429 . S
C2151 C2152 1.523 . S
C2152 C2133 1.368 . S
C2152 C2146 1.368 . S
C2152 C2151 1.523 . S
C2153 C2137 1.429 . S
C2153 C2149 1.429 . S
C2153 C2154 1.523 . S
C2154 C2138 1.368 . S
C2154 C2150 1.368 . S
C2154 C2153 1.523 . S
H2155 C2130 0.950 . S
H2156 C2132 0.950 . S
H2157 C2133 0.949 . S
H2158 C2135 0.950 . S
H2159 C2137 0.950 . S
C2160 C2161 1.349 . S
C2160 C2162 1.327 . S
C2160 H2185 0.950 . S
C2161 C2160 1.349 . S
C2161 C2177 1.349 . S
C2162 C2160 1.327 . S
C2162 C2181 1.429 . S
C2162 H2186 0.950 . S
C2163 C2180 1.574 . S
C2163 C2182 1.368 1_655 S
C2163 H2187 0.949 . S
H2164 C2168 0.949 . S
C2165 C2166 1.349 1_655 S
C2165 C2167 1.327 . S
C2165 H2188 0.950 . S
C2166 C2165 1.349 1_455 S
C2166 C2178 1.349 . S
C2167 C2165 1.327 . S
C2167 C2183 1.429 1_655 S
C2167 H2189 0.950 . S
C2168 H2164 0.949 . S
C2168 C2176 1.574 . S
C2168 C2184 1.368 . S
H2169 C2177 0.950 1_655 S
H2170 C2175 0.950 1_655 S
H2171 C2176 0.949 . S
H2172 C2178 0.950 . S
H2173 C2179 0.950 . S
H2174 C2180 0.949 . S
C2175 H2170 0.950 1_455 S
C2175 C2177 1.327 . S
C2175 C2181 1.429 . S
C2176 C2168 1.574 . S
C2176 H2171 0.949 . S
C2176 C2182 1.368 . S
C2177 C2161 1.349 . S
C2177 H2169 0.950 1_455 S
C2177 C2175 1.327 . S
C2178 C2166 1.349 . S
C2178 H2172 0.950 . S
C2178 C2179 1.327 . S
C2179 H2173 0.950 . S
C2179 C2178 1.327 . S
C2179 C2183 1.429 . S
C2180 C2163 1.574 . S
C2180 H2174 0.949 . S
C2180 C2184 1.368 1_655 S
C2181 C2162 1.429 . S
C2181 C2175 1.429 . S
C2181 C2182 1.523 . S
C2182 C2163 1.368 1_455 S
C2182 C2176 1.368 . S
C2182 C2181 1.523 . S
C2183 C2167 1.429 1_455 S
C2183 C2179 1.429 . S
C2183 C2184 1.523 . S
C2184 C2168 1.368 . S
C2184 C2180 1.368 1_455 S
C2184 C2183 1.523 . S
H2185 C2160 0.950 . S
H2186 C2162 0.950 . S
H2187 C2163 0.949 . S
H2188 C2165 0.950 . S
H2189 C2167 0.950 . S
C2190 C2191 1.349 . S
C2190 C2192 1.327 . S
C2190 H2215 0.950 . S
C2191 C2190 1.349 . S
C2191 C2207 1.349 . S
C2192 C2190 1.327 . S
C2192 C2211 1.429 . S
C2192 H2216 0.950 . S
C2193 C2210 1.574 . S
C2193 C2212 1.368 . S
C2193 H2217 0.949 . S
H2194 C2198 0.949 . S
C2195 C2196 1.349 . S
C2195 C2197 1.327 . S
C2195 H2218 0.950 . S
C2196 C2195 1.349 . S
C2196 C2208 1.349 . S
C2197 C2195 1.327 . S
C2197 C2213 1.429 . S
C2197 H2219 0.950 . S
C2198 H2194 0.949 . S
C2198 C2206 1.574 . S
C2198 C2214 1.368 . S
H2199 C2207 0.950 . S
H2200 C2205 0.950 . S
H2201 C2206 0.949 . S
H2202 C2208 0.950 . S
H2203 C2209 0.950 . S
H2204 C2210 0.949 . S
C2205 H2200 0.950 . S
C2205 C2207 1.327 . S
C2205 C2211 1.429 . S
C2206 C2198 1.574 . S
C2206 H2201 0.949 . S
C2206 C2212 1.368 . S
C2207 C2191 1.349 . S
C2207 H2199 0.950 . S
C2207 C2205 1.327 . S
C2208 C2196 1.349 . S
C2208 H2202 0.950 . S
C2208 C2209 1.327 . S
C2209 H2203 0.950 . S
C2209 C2208 1.327 . S
C2209 C2213 1.429 . S
C2210 C2193 1.574 . S
C2210 H2204 0.949 . S
C2210 C2214 1.368 . S
C2211 C2192 1.429 . S
C2211 C2205 1.429 . S
C2211 C2212 1.523 . S
C2212 C2193 1.368 . S
C2212 C2206 1.368 . S
C2212 C2211 1.523 . S
C2213 C2197 1.429 . S
C2213 C2209 1.429 . S
C2213 C2214 1.523 . S
C2214 C2198 1.368 . S
C2214 C2210 1.368 . S
C2214 C2213 1.523 . S
H2215 C2190 0.950 . S
H2216 C2192 0.950 . S
H2217 C2193 0.949 . S
H2218 C2195 0.950 . S
H2219 C2197 0.950 . S
C2220 C2221 1.349 . S
C2220 C2222 1.327 . S
C2220 H2245 0.950 . S
C2221 C2220 1.349 . S
C2221 C2237 1.349 . S
C2222 C2220 1.327 . S
C2222 C2241 1.429 . S
C2222 H2246 0.950 . S
C2223 C2240 1.574 . S
C2223 C2242 1.368 1_545 S
C2223 H2247 0.949 . S
H2224 C2228 0.949 . S
C2225 C2226 1.349 1_545 S
C2225 C2227 1.327 . S
C2225 H2248 0.950 . S
C2226 C2225 1.349 1_565 S
C2226 C2238 1.349 . S
C2227 C2225 1.327 . S
C2227 C2243 1.429 1_545 S
C2227 H2249 0.950 . S
C2228 H2224 0.949 . S
C2228 C2236 1.574 . S
C2228 C2244 1.368 . S
H2229 C2237 0.950 1_545 S
H2230 C2235 0.950 1_545 S
H2231 C2236 0.949 . S
H2232 C2238 0.950 . S
H2233 C2239 0.950 . S
H2234 C2240 0.949 . S
C2235 H2230 0.950 1_565 S
C2235 C2237 1.327 . S
C2235 C2241 1.429 . S
C2236 C2228 1.574 . S
C2236 H2231 0.949 . S
C2236 C2242 1.368 . S
C2237 C2221 1.349 . S
C2237 H2229 0.950 1_565 S
C2237 C2235 1.327 . S
C2238 C2226 1.349 . S
C2238 H2232 0.950 . S
C2238 C2239 1.327 . S
C2239 H2233 0.950 . S
C2239 C2238 1.327 . S
C2239 C2243 1.429 . S
C2240 C2223 1.574 . S
C2240 H2234 0.949 . S
C2240 C2244 1.368 1_545 S
C2241 C2222 1.429 . S
C2241 C2235 1.429 . S
C2241 C2242 1.523 . S
C2242 C2223 1.368 1_565 S
C2242 C2236 1.368 . S
C2242 C2241 1.523 . S
C2243 C2227 1.429 1_565 S
C2243 C2239 1.429 . S
C2243 C2244 1.523 . S
C2244 C2228 1.368 . S
C2244 C2240 1.368 1_565 S
C2244 C2243 1.523 . S
H2245 C2220 0.950 . S
H2246 C2222 0.950 . S
H2247 C2223 0.949 . S
H2248 C2225 0.950 . S
H2249 C2227 0.950 . S
C2250 C2251 1.349 . S
C2250 C2252 1.327 . S
C2250 H2275 0.950 . S
C2251 C2250 1.349 . S
C2251 C2267 1.349 . S
C2252 C2250 1.327 . S
C2252 C2271 1.429 . S
C2252 H2276 0.950 . S
C2253 C2270 1.574 . S
C2253 C2272 1.368 1_545 S
C2253 H2277 0.949 . S
H2254 C2258 0.949 . S
C2255 C2256 1.349 1_545 S
C2255 C2257 1.327 . S
C2255 H2278 0.950 . S
C2256 C2255 1.349 1_565 S
C2256 C2268 1.349 . S
C2257 C2255 1.327 . S
C2257 C2273 1.429 1_545 S
C2257 H2279 0.950 . S
C2258 H2254 0.949 . S
C2258 C2266 1.574 . S
C2258 C2274 1.368 . S
H2259 C2267 0.950 1_545 S
H2260 C2265 0.923 1_545 S
H2261 C2266 0.949 . S
H2262 C2268 0.950 . S
H2263 C2269 0.950 . S
H2264 C2270 0.949 . S
C2265 H2260 0.923 1_565 S
C2265 C2267 1.346 . S
C2265 C2271 1.437 . S
C2266 C2258 1.574 . S
C2266 H2261 0.949 . S
C2266 C2272 1.368 . S
C2267 C2251 1.349 . S
C2267 H2259 0.950 1_565 S
C2267 C2265 1.346 . S
C2268 C2256 1.349 . S
C2268 H2262 0.950 . S
C2268 C2269 1.327 . S
C2269 H2263 0.950 . S
C2269 C2268 1.327 . S
C2269 C2273 1.429 . S
C2270 C2253 1.574 . S
C2270 H2264 0.949 . S
C2270 C2274 1.368 1_545 S
C2271 C2252 1.429 . S
C2271 C2265 1.437 . S
C2271 C2272 1.523 . S
C2272 C2253 1.368 1_565 S
C2272 C2266 1.368 . S
C2272 C2271 1.523 . S
C2273 C2257 1.429 1_565 S
C2273 C2269 1.429 . S
C2273 C2274 1.523 . S
C2274 C2258 1.368 . S
C2274 C2270 1.368 1_565 S
C2274 C2273 1.523 . S
H2275 C2250 0.950 . S
H2276 C2252 0.950 . S
H2277 C2253 0.949 . S
H2278 C2255 0.950 . S
H2279 C2257 0.950 . S
C2280 C2281 1.349 . S
C2280 C2282 1.327 . S
C2280 H2305 0.950 . S
C2281 C2280 1.349 . S
C2281 C2297 1.396 . S
C2282 C2280 1.327 . S
C2282 C2301 1.429 . S
C2282 H2306 0.950 . S
C2283 C2300 1.574 . S
C2283 C2302 1.368 1_655 S
C2283 H2307 0.949 . S
H2284 C2288 0.949 . S
C2285 C2286 1.280 1_655 S
C2285 C2287 1.327 . S
C2285 H2308 0.950 . S
C2286 C2285 1.280 1_455 S
C2286 C2298 1.389 . S
C2287 C2285 1.327 . S
C2287 C2303 1.429 1_655 S
C2287 H2309 0.950 . S
C2288 H2284 0.949 . S
C2288 C2296 1.574 . S
C2288 C2304 1.368 . S
H2289 C2297 0.870 1_655 S
H2290 C2295 0.996 . S
H2291 C2296 0.949 . S
H2292 C2298 0.950 . S
H2293 C2299 0.950 . S
H2294 C2300 0.949 . S
C2295 H2290 0.996 . S
C2295 C2297 1.404 1_655 S
C2295 C2301 1.354 1_655 S
C2296 C2288 1.574 . S
C2296 H2291 0.949 . S
C2296 C2302 1.368 . S
C2297 C2281 1.396 . S
C2297 H2289 0.870 1_455 S
C2297 C2295 1.404 1_455 S
C2298 C2286 1.389 . S
C2298 H2292 0.950 . S
C2298 C2299 1.327 . S
C2299 H2293 0.950 . S
C2299 C2298 1.327 . S
C2299 C2303 1.429 . S
C2300 C2283 1.574 . S
C2300 H2294 0.949 . S
C2300 C2304 1.368 1_655 S
C2301 C2282 1.429 . S
C2301 C2295 1.354 1_455 S
C2301 C2302 1.523 . S
C2302 C2283 1.368 1_455 S
C2302 C2296 1.368 . S
C2302 C2301 1.523 . S
C2303 C2287 1.429 1_455 S
C2303 C2299 1.429 . S
C2303 C2304 1.523 . S
C2304 C2288 1.368 . S
C2304 C2300 1.368 1_455 S
C2304 C2303 1.523 . S
H2305 C2280 0.950 . S
H2306 C2282 0.950 . S
H2307 C2283 0.949 . S
H2308 C2285 0.950 . S
H2309 C2287 0.950 . S
C2310 C2311 1.349 . S
C2310 C2312 1.327 . S
C2310 H2335 0.950 . S
C2311 C2310 1.349 . S
C2311 C2327 1.349 . S
C2312 C2310 1.327 . S
C2312 C2331 1.429 . S
C2312 H2336 0.950 . S
C2313 C2330 1.574 . S
C2313 C2332 1.368 . S
C2313 H2337 0.949 . S
H2314 C2318 0.949 . S
C2315 C2316 1.349 . S
C2315 C2317 1.327 . S
C2315 H2338 0.950 . S
C2316 C2315 1.349 . S
C2316 C2328 1.349 . S
C2317 C2315 1.327 . S
C2317 C2333 1.429 . S
C2317 H2339 0.950 . S
C2318 H2314 0.949 . S
C2318 C2326 1.574 . S
C2318 C2334 1.368 . S
H2319 C2327 0.950 . S
H2320 C2325 0.950 . S
H2321 C2326 0.949 . S
H2322 C2328 0.950 . S
H2323 C2329 0.950 . S
H2324 C2330 0.949 . S
C2325 H2320 0.950 . S
C2325 C2327 1.327 . S
C2325 C2331 1.429 . S
C2326 C2318 1.574 . S
C2326 H2321 0.949 . S
C2326 C2332 1.368 . S
C2327 C2311 1.349 . S
C2327 H2319 0.950 . S
C2327 C2325 1.327 . S
C2328 C2316 1.349 . S
C2328 H2322 0.950 . S
C2328 C2329 1.327 . S
C2329 H2323 0.950 . S
C2329 C2328 1.327 . S
C2329 C2333 1.429 . S
C2330 C2313 1.574 . S
C2330 H2324 0.949 . S
C2330 C2334 1.368 . S
C2331 C2312 1.429 . S
C2331 C2325 1.429 . S
C2331 C2332 1.523 . S
C2332 C2313 1.368 . S
C2332 C2326 1.368 . S
C2332 C2331 1.523 . S
C2333 C2317 1.429 . S
C2333 C2329 1.429 . S
C2333 C2334 1.523 . S
C2334 C2318 1.368 . S
C2334 C2330 1.368 . S
C2334 C2333 1.523 . S
H2335 C2310 0.950 . S
H2336 C2312 0.950 . S
H2337 C2313 0.949 . S
H2338 C2315 0.950 . S
H2339 C2317 0.950 . S
C2340 C2341 1.349 . S
C2340 C2342 1.327 . S
C2340 H2365 0.950 . S
C2341 C2340 1.349 . S
C2341 C2357 1.349 . S
C2342 C2340 1.327 . S
C2342 C2361 1.429 . S
C2342 H2366 0.950 . S
C2343 C2360 1.574 . S
C2343 C2362 1.368 . S
C2343 H2367 0.949 . S
H2344 C2348 0.949 . S
C2345 C2346 1.349 . S
C2345 C2347 1.327 . S
C2345 H2368 0.950 . S
C2346 C2345 1.349 . S
C2346 C2358 1.349 . S
C2347 C2345 1.327 . S
C2347 C2363 1.429 . S
C2347 H2369 0.950 . S
C2348 H2344 0.949 . S
C2348 C2356 1.574 . S
C2348 C2364 1.368 . S
H2349 C2357 0.950 . S
H2350 C2355 0.950 . S
H2351 C2356 0.949 . S
H2352 C2358 0.950 . S
H2353 C2359 0.950 . S
H2354 C2360 0.949 . S
C2355 H2350 0.950 . S
C2355 C2357 1.327 . S
C2355 C2361 1.429 . S
C2356 C2348 1.574 . S
C2356 H2351 0.949 . S
C2356 C2362 1.368 . S
C2357 C2341 1.349 . S
C2357 H2349 0.950 . S
C2357 C2355 1.327 . S
C2358 C2346 1.349 . S
C2358 H2352 0.950 . S
C2358 C2359 1.327 . S
C2359 H2353 0.950 . S
C2359 C2358 1.327 . S
C2359 C2363 1.429 . S
C2360 C2343 1.574 . S
C2360 H2354 0.949 . S
C2360 C2364 1.368 . S
C2361 C2342 1.429 . S
C2361 C2355 1.429 . S
C2361 C2362 1.523 . S
C2362 C2343 1.368 . S
C2362 C2356 1.368 . S
C2362 C2361 1.523 . S
C2363 C2347 1.429 . S
C2363 C2359 1.429 . S
C2363 C2364 1.523 . S
C2364 C2348 1.368 . S
C2364 C2360 1.368 . S
C2364 C2363 1.523 . S
H2365 C2340 0.950 . S
H2366 C2342 0.950 . S
H2367 C2343 0.949 . S
H2368 C2345 0.950 . S
H2369 C2347 0.950 . S
C2370 C2371 1.349 . S
C2370 C2372 1.327 . S
C2370 H2395 0.950 . S
C2371 C2370 1.349 . S
C2371 C2387 1.349 . S
C2372 C2370 1.327 . S
C2372 C2391 1.429 . S
C2372 H2396 0.950 . S
C2373 C2390 1.574 . S
C2373 C2392 1.368 . S
C2373 H2397 0.949 . S
H2374 C2378 0.949 . S
C2375 C2376 1.349 . S
C2375 C2377 1.327 . S
C2375 H2398 0.950 . S
C2376 C2375 1.349 . S
C2376 C2388 1.349 . S
C2377 C2375 1.327 . S
C2377 C2393 1.429 . S
C2377 H2399 0.950 . S
C2378 H2374 0.949 . S
C2378 C2386 1.574 . S
C2378 C2394 1.368 . S
H2379 C2387 0.950 . S
H2380 C2385 0.950 . S
H2381 C2386 0.949 . S
H2382 C2388 0.950 . S
H2383 C2389 0.950 . S
H2384 C2390 0.949 . S
C2385 H2380 0.950 . S
C2385 C2387 1.327 . S
C2385 C2391 1.429 . S
C2386 C2378 1.574 . S
C2386 H2381 0.949 . S
C2386 C2392 1.368 . S
C2387 C2371 1.349 . S
C2387 H2379 0.950 . S
C2387 C2385 1.327 . S
C2388 C2376 1.349 . S
C2388 H2382 0.950 . S
C2388 C2389 1.327 . S
C2389 H2383 0.950 . S
C2389 C2388 1.327 . S
C2389 C2393 1.429 . S
C2390 C2373 1.574 . S
C2390 H2384 0.949 . S
C2390 C2394 1.368 . S
C2391 C2372 1.429 . S
C2391 C2385 1.429 . S
C2391 C2392 1.523 . S
C2392 C2373 1.368 . S
C2392 C2386 1.368 . S
C2392 C2391 1.523 . S
C2393 C2377 1.429 . S
C2393 C2389 1.429 . S
C2393 C2394 1.523 . S
C2394 C2378 1.368 . S
C2394 C2390 1.368 . S
C2394 C2393 1.523 . S
H2395 C2370 0.950 . S
H2396 C2372 0.950 . S
H2397 C2373 0.949 . S
H2398 C2375 0.950 . S
H2399 C2377 0.950 . S
C2400 C2401 1.349 . S
C2400 C2402 1.327 . S
C2400 H2425 0.950 . S
C2401 C2400 1.349 . S
C2401 C2417 1.349 . S
C2402 C2400 1.327 . S
C2402 C2421 1.429 . S
C2402 H2426 0.950 . S
C2403 C2420 1.574 . S
C2403 C2422 1.368 . S
C2403 H2427 0.949 . S
H2404 C2408 0.949 . S
C2405 C2406 1.349 . S
C2405 C2407 1.327 . S
C2405 H2428 0.950 . S
C2406 C2405 1.349 . S
C2406 C2418 1.349 . S
C2407 C2405 1.327 . S
C2407 C2423 1.429 . S
C2407 H2429 0.950 . S
C2408 H2404 0.949 . S
C2408 C2416 1.574 . S
C2408 C2424 1.368 . S
H2409 C2417 0.950 . S
H2410 C2415 0.950 . S
H2411 C2416 0.949 . S
H2412 C2418 0.950 . S
H2413 C2419 0.950 . S
H2414 C2420 0.949 . S
C2415 H2410 0.950 . S
C2415 C2417 1.327 . S
C2415 C2421 1.429 . S
C2416 C2408 1.574 . S
C2416 H2411 0.949 . S
C2416 C2422 1.368 . S
C2417 C2401 1.349 . S
C2417 H2409 0.950 . S
C2417 C2415 1.327 . S
C2418 C2406 1.349 . S
C2418 H2412 0.950 . S
C2418 C2419 1.327 . S
C2419 H2413 0.950 . S
C2419 C2418 1.327 . S
C2419 C2423 1.429 . S
C2420 C2403 1.574 . S
C2420 H2414 0.949 . S
C2420 C2424 1.368 . S
C2421 C2402 1.429 . S
C2421 C2415 1.429 . S
C2421 C2422 1.523 . S
C2422 C2403 1.368 . S
C2422 C2416 1.368 . S
C2422 C2421 1.523 . S
C2423 C2407 1.429 . S
C2423 C2419 1.429 . S
C2423 C2424 1.523 . S
C2424 C2408 1.368 . S
C2424 C2420 1.368 . S
C2424 C2423 1.523 . S
H2425 C2400 0.950 . S
H2426 C2402 0.950 . S
H2427 C2403 0.949 . S
H2428 C2405 0.950 . S
H2429 C2407 0.950 . S
C2430 C2431 1.349 . S
C2430 C2432 1.327 . S
C2430 H2455 0.950 . S
C2431 C2430 1.349 . S
C2431 C2447 1.349 . S
C2432 C2430 1.327 . S
C2432 C2451 1.429 . S
C2432 H2456 0.950 . S
C2433 C2450 1.609 . S
C2433 C2452 1.311 1_565 S
C2433 H2457 0.971 . S
H2434 C2438 0.949 . S
C2435 C2436 1.349 1_565 S
C2435 C2437 1.327 . S
C2435 H2458 0.950 . S
C2436 C2435 1.349 1_545 S
C2436 C2448 1.349 . S
C2437 C2435 1.327 . S
C2437 C2453 1.429 1_565 S
C2437 H2459 0.950 . S
C2438 H2434 0.949 . S
C2438 C2446 1.574 . S
C2438 C2454 1.368 . S
H2439 C2447 0.950 1_565 S
H2440 C2445 0.950 1_565 S
H2441 C2446 0.949 . S
H2442 C2448 0.950 . S
H2443 C2449 0.950 . S
H2444 C2450 0.949 . S
C2445 H2440 0.950 1_545 S
C2445 C2447 1.327 . S
C2445 C2451 1.429 . S
C2446 C2438 1.574 . S
C2446 H2441 0.949 . S
C2446 C2452 1.368 . S
C2447 C2431 1.349 . S
C2447 H2439 0.950 1_545 S
C2447 C2445 1.327 . S
C2448 C2436 1.349 . S
C2448 H2442 0.950 . S
C2448 C2449 1.327 . S
C2449 H2443 0.950 . S
C2449 C2448 1.327 . S
C2449 C2453 1.429 . S
C2450 C2433 1.609 . S
C2450 H2444 0.949 . S
C2450 C2454 1.368 1_565 S
C2451 C2432 1.429 . S
C2451 C2445 1.429 . S
C2451 C2452 1.523 . S
C2452 C2433 1.311 1_545 S
C2452 C2446 1.368 . S
C2452 C2451 1.523 . S
C2453 C2437 1.429 1_545 S
C2453 C2449 1.429 . S
C2453 C2454 1.523 . S
C2454 C2438 1.368 . S
C2454 C2450 1.368 1_545 S
C2454 C2453 1.523 . S
H2455 C2430 0.950 . S
H2456 C2432 0.950 . S
H2457 C2433 0.971 . S
H2458 C2435 0.950 . S
H2459 C2437 0.950 . S
C2460 C2461 1.349 . S
C2460 C2462 1.307 . S
C2460 H2485 0.950 1_655 S
C2461 C2460 1.349 . S
C2461 C2477 1.349 . S
C2462 C2460 1.307 . S
C2462 C2481 1.468 . S
C2462 H2486 0.933 1_655 S
C2463 C2480 1.574 . S
C2463 C2482 1.368 . S
C2463 H2487 0.949 . S
H2464 C2468 0.949 . S
C2465 C2466 1.349 . S
C2465 C2467 1.327 . S
C2465 H2488 0.950 . S
C2466 C2465 1.349 . S
C2466 C2478 1.349 1_655 S
C2467 C2465 1.327 . S
C2467 C2483 1.429 . S
C2467 H2489 0.950 . S
C2468 H2464 0.949 . S
C2468 C2476 1.574 . S
C2468 C2484 1.368 1_455 S
H2469 C2477 0.950 . S
H2470 C2475 0.950 . S
H2471 C2476 0.949 . S
H2472 C2478 0.950 . S
H2473 C2479 0.950 . S
H2474 C2480 0.949 . S
C2475 H2470 0.950 . S
C2475 C2477 1.327 . S
C2475 C2481 1.429 . S
C2476 C2468 1.574 . S
C2476 H2471 0.949 . S
C2476 C2482 1.368 1_455 S
C2477 C2461 1.349 . S
C2477 H2469 0.950 . S
C2477 C2475 1.327 . S
C2478 C2466 1.349 1_455 S
C2478 H2472 0.950 . S
C2478 C2479 1.327 . S
C2479 H2473 0.950 . S
C2479 C2478 1.327 . S
C2479 C2483 1.429 1_455 S
C2480 C2463 1.574 . S
C2480 H2474 0.949 . S
C2480 C2484 1.368 . S
C2481 C2462 1.468 . S
C2481 C2475 1.429 . S
C2481 C2482 1.523 . S
C2482 C2463 1.368 . S
C2482 C2476 1.368 1_655 S
C2482 C2481 1.523 . S
C2483 C2467 1.429 . S
C2483 C2479 1.429 1_655 S
C2483 C2484 1.523 . S
C2484 C2468 1.368 1_655 S
C2484 C2480 1.368 . S
C2484 C2483 1.523 . S
H2485 C2460 0.950 1_455 S
H2486 C2462 0.933 1_455 S
H2487 C2463 0.949 . S
H2488 C2465 0.950 . S
H2489 C2467 0.950 . S
C2490 C2491 1.349 . S
C2490 C2492 1.327 . S
C2490 H2515 0.950 . S
C2491 C2490 1.349 . S
C2491 C2507 1.349 . S
C2492 C2490 1.327 . S
C2492 C2511 1.429 . S
C2492 H2516 0.950 . S
C2493 C2510 1.574 . S
C2493 C2512 1.368 . S
C2493 H2517 0.949 . S
H2494 C2498 0.949 . S
C2495 C2496 1.349 . S
C2495 C2497 1.327 . S
C2495 H2518 0.950 . S
C2496 C2495 1.349 . S
C2496 C2508 1.349 . S
C2497 C2495 1.327 . S
C2497 C2513 1.429 . S
C2497 H2519 0.950 . S
C2498 H2494 0.949 . S
C2498 C2506 1.574 . S
C2498 C2514 1.368 . S
H2499 C2507 0.950 . S
H2500 C2505 0.950 . S
H2501 C2506 0.949 . S
H2502 C2508 0.950 . S
H2503 C2509 0.950 . S
H2504 C2510 0.949 . S
C2505 H2500 0.950 . S
C2505 C2507 1.327 . S
C2505 C2511 1.429 . S
C2506 C2498 1.574 . S
C2506 H2501 0.949 . S
C2506 C2512 1.368 . S
C2507 C2491 1.349 . S
C2507 H2499 0.950 . S
C2507 C2505 1.327 . S
C2508 C2496 1.349 . S
C2508 H2502 0.950 . S
C2508 C2509 1.327 . S
C2509 H2503 0.950 . S
C2509 C2508 1.327 . S
C2509 C2513 1.429 . S
C2510 C2493 1.574 . S
C2510 H2504 0.949 . S
C2510 C2514 1.368 . S
C2511 C2492 1.429 . S
C2511 C2505 1.429 . S
C2511 C2512 1.523 . S
C2512 C2493 1.368 . S
C2512 C2506 1.368 . S
C2512 C2511 1.523 . S
C2513 C2497 1.429 . S
C2513 C2509 1.429 . S
C2513 C2514 1.523 . S
C2514 C2498 1.368 . S
C2514 C2510 1.368 . S
C2514 C2513 1.523 . S
H2515 C2490 0.950 . S
H2516 C2492 0.950 . S
H2517 C2493 0.949 . S
H2518 C2495 0.950 . S
H2519 C2497 0.950 . S
C2520 C2521 1.349 . S
C2520 C2522 1.327 . S
C2520 H2545 0.950 . S
C2521 C2520 1.349 . S
C2521 C2537 1.349 . S
C2522 C2520 1.327 . S
C2522 C2541 1.429 . S
C2522 H2546 0.950 . S
C2523 C2540 1.574 . S
C2523 C2542 1.368 . S
C2523 H2547 0.949 . S
H2524 C2528 0.949 . S
C2525 C2526 1.349 . S
C2525 C2527 1.327 . S
C2525 H2548 0.950 . S
C2526 C2525 1.349 . S
C2526 C2538 1.349 . S
C2527 C2525 1.327 . S
C2527 C2543 1.429 . S
C2527 H2549 0.950 . S
C2528 H2524 0.949 . S
C2528 C2536 1.574 . S
C2528 C2544 1.368 . S
H2529 C2537 0.950 . S
H2530 C2535 0.950 . S
H2531 C2536 0.949 . S
H2532 C2538 0.950 . S
H2533 C2539 0.950 . S
H2534 C2540 0.949 . S
C2535 H2530 0.950 . S
C2535 C2537 1.327 . S
C2535 C2541 1.429 . S
C2536 C2528 1.574 . S
C2536 H2531 0.949 . S
C2536 C2542 1.368 . S
C2537 C2521 1.349 . S
C2537 H2529 0.950 . S
C2537 C2535 1.327 . S
C2538 C2526 1.349 . S
C2538 H2532 0.950 . S
C2538 C2539 1.327 . S
C2539 H2533 0.950 . S
C2539 C2538 1.327 . S
C2539 C2543 1.429 . S
C2540 C2523 1.574 . S
C2540 H2534 0.949 . S
C2540 C2544 1.368 . S
C2541 C2522 1.429 . S
C2541 C2535 1.429 . S
C2541 C2542 1.523 . S
C2542 C2523 1.368 . S
C2542 C2536 1.368 . S
C2542 C2541 1.523 . S
C2543 C2527 1.429 . S
C2543 C2539 1.429 . S
C2543 C2544 1.523 . S
C2544 C2528 1.368 . S
C2544 C2540 1.368 . S
C2544 C2543 1.523 . S
H2545 C2520 0.950 . S
H2546 C2522 0.950 . S
H2547 C2523 0.949 . S
H2548 C2525 0.950 . S
H2549 C2527 0.950 . S
C2550 C2551 1.349 . S
C2550 C2552 1.327 . S
C2550 H2575 0.950 . S
C2551 C2550 1.349 . S
C2551 C2567 1.349 . S
C2552 C2550 1.327 . S
C2552 C2571 1.429 . S
C2552 H2576 0.950 . S
C2553 C2570 1.574 . S
C2553 C2572 1.368 . S
C2553 H2577 0.949 . S
H2554 C2558 0.949 . S
C2555 C2556 1.349 . S
C2555 C2557 1.327 . S
C2555 H2578 0.950 . S
C2556 C2555 1.349 . S
C2556 C2568 1.349 . S
C2557 C2555 1.327 . S
C2557 C2573 1.429 . S
C2557 H2579 0.950 . S
C2558 H2554 0.949 . S
C2558 C2566 1.574 . S
C2558 C2574 1.368 . S
H2559 C2567 0.950 . S
H2560 C2565 0.950 . S
H2561 C2566 0.949 . S
H2562 C2568 0.950 . S
H2563 C2569 0.950 . S
H2564 C2570 0.949 . S
C2565 H2560 0.950 . S
C2565 C2567 1.327 . S
C2565 C2571 1.429 . S
C2566 C2558 1.574 . S
C2566 H2561 0.949 . S
C2566 C2572 1.368 . S
C2567 C2551 1.349 . S
C2567 H2559 0.950 . S
C2567 C2565 1.327 . S
C2568 C2556 1.349 . S
C2568 H2562 0.950 . S
C2568 C2569 1.327 . S
C2569 H2563 0.950 . S
C2569 C2568 1.327 . S
C2569 C2573 1.429 . S
C2570 C2553 1.574 . S
C2570 H2564 0.949 . S
C2570 C2574 1.368 . S
C2571 C2552 1.429 . S
C2571 C2565 1.429 . S
C2571 C2572 1.523 . S
C2572 C2553 1.368 . S
C2572 C2566 1.368 . S
C2572 C2571 1.523 . S
C2573 C2557 1.429 . S
C2573 C2569 1.429 . S
C2573 C2574 1.523 . S
C2574 C2558 1.368 . S
C2574 C2570 1.368 . S
C2574 C2573 1.523 . S
H2575 C2550 0.950 . S
H2576 C2552 0.950 . S
H2577 C2553 0.949 . S
H2578 C2555 0.950 . S
H2579 C2557 0.950 . S
C2580 C2581 1.349 . S
C2580 C2582 1.327 . S
C2580 H2605 0.950 . S
C2581 C2580 1.349 . S
C2581 C2597 1.349 . S
C2582 C2580 1.327 . S
C2582 C2601 1.429 . S
C2582 H2606 0.950 . S
C2583 C2600 1.574 . S
C2583 C2602 1.368 . S
C2583 H2607 0.949 . S
H2584 C2588 0.949 . S
C2585 C2586 1.349 . S
C2585 C2587 1.327 . S
C2585 H2608 0.950 . S
C2586 C2585 1.349 . S
C2586 C2598 1.349 . S
C2587 C2585 1.327 . S
C2587 C2603 1.429 . S
C2587 H2609 0.950 . S
C2588 H2584 0.949 . S
C2588 C2596 1.574 . S
C2588 C2604 1.368 . S
H2589 C2597 0.950 . S
H2590 C2595 0.950 . S
H2591 C2596 0.949 . S
H2592 C2598 0.950 . S
H2593 C2599 0.950 . S
H2594 C2600 0.949 . S
C2595 H2590 0.950 . S
C2595 C2597 1.327 . S
C2595 C2601 1.429 . S
C2596 C2588 1.574 . S
C2596 H2591 0.949 . S
C2596 C2602 1.368 . S
C2597 C2581 1.349 . S
C2597 H2589 0.950 . S
C2597 C2595 1.327 . S
C2598 C2586 1.349 . S
C2598 H2592 0.950 . S
C2598 C2599 1.327 . S
C2599 H2593 0.950 . S
C2599 C2598 1.327 . S
C2599 C2603 1.429 . S
C2600 C2583 1.574 . S
C2600 H2594 0.949 . S
C2600 C2604 1.368 . S
C2601 C2582 1.429 . S
C2601 C2595 1.429 . S
C2601 C2602 1.523 . S
C2602 C2583 1.368 . S
C2602 C2596 1.368 . S
C2602 C2601 1.523 . S
C2603 C2587 1.429 . S
C2603 C2599 1.429 . S
C2603 C2604 1.523 . S
C2604 C2588 1.368 . S
C2604 C2600 1.368 . S
C2604 C2603 1.523 . S
H2605 C2580 0.950 . S
H2606 C2582 0.950 . S
H2607 C2583 0.949 . S
H2608 C2585 0.950 . S
H2609 C2587 0.950 . S
C2610 C2611 1.349 . S
C2610 C2612 1.327 . S
C2610 H2635 0.950 . S
C2611 C2610 1.349 . S
C2611 C2627 1.349 . S
C2612 C2610 1.327 . S
C2612 C2631 1.429 . S
C2612 H2636 0.950 . S
C2613 C2630 1.574 . S
C2613 C2632 1.368 . S
C2613 H2637 0.949 . S
H2614 C2618 0.949 . S
C2615 C2616 1.349 . S
C2615 C2617 1.327 . S
C2615 H2638 0.950 . S
C2616 C2615 1.349 . S
C2616 C2628 1.349 . S
C2617 C2615 1.327 . S
C2617 C2633 1.429 . S
C2617 H2639 0.950 . S
C2618 H2614 0.949 . S
C2618 C2626 1.574 . S
C2618 C2634 1.368 . S
H2619 C2627 0.950 . S
H2620 C2625 0.950 . S
H2621 C2626 0.949 . S
H2622 C2628 0.950 . S
H2623 C2629 0.950 . S
H2624 C2630 0.949 . S
C2625 H2620 0.950 . S
C2625 C2627 1.327 . S
C2625 C2631 1.429 . S
C2626 C2618 1.574 . S
C2626 H2621 0.949 . S
C2626 C2632 1.368 . S
C2627 C2611 1.349 . S
C2627 H2619 0.950 . S
C2627 C2625 1.327 . S
C2628 C2616 1.349 . S
C2628 H2622 0.950 . S
C2628 C2629 1.327 . S
C2629 H2623 0.950 . S
C2629 C2628 1.327 . S
C2629 C2633 1.429 . S
C2630 C2613 1.574 . S
C2630 H2624 0.949 . S
C2630 C2634 1.368 . S
C2631 C2612 1.429 . S
C2631 C2625 1.429 . S
C2631 C2632 1.523 . S
C2632 C2613 1.368 . S
C2632 C2626 1.368 . S
C2632 C2631 1.523 . S
C2633 C2617 1.429 . S
C2633 C2629 1.429 . S
C2633 C2634 1.523 . S
C2634 C2618 1.368 . S
C2634 C2630 1.368 . S
C2634 C2633 1.523 . S
H2635 C2610 0.950 . S
H2636 C2612 0.950 . S
H2637 C2613 0.949 . S
H2638 C2615 0.950 . S
H2639 C2617 0.950 . S
C2640 C2641 1.349 . S
C2640 C2642 1.327 . S
C2640 H2665 0.950 . S
C2641 C2640 1.349 . S
C2641 C2657 1.349 . S
C2642 C2640 1.327 . S
C2642 C2661 1.429 . S
C2642 H2666 0.950 . S
C2643 C2660 1.574 . S
C2643 C2662 1.368 . S
C2643 H2667 0.949 . S
H2644 C2648 0.949 . S
C2645 C2646 1.349 . S
C2645 C2647 1.327 . S
C2645 H2668 0.950 . S
C2646 C2645 1.349 . S
C2646 C2658 1.349 . S
C2647 C2645 1.327 . S
C2647 C2663 1.429 . S
C2647 H2669 0.950 . S
C2648 H2644 0.949 . S
C2648 C2656 1.574 . S
C2648 C2664 1.368 . S
H2649 C2657 0.950 . S
H2650 C2655 0.950 . S
H2651 C2656 0.949 . S
H2652 C2658 0.950 . S
H2653 C2659 0.950 . S
H2654 C2660 0.949 . S
C2655 H2650 0.950 . S
C2655 C2657 1.327 . S
C2655 C2661 1.429 . S
C2656 C2648 1.574 . S
C2656 H2651 0.949 . S
C2656 C2662 1.368 . S
C2657 C2641 1.349 . S
C2657 H2649 0.950 . S
C2657 C2655 1.327 . S
C2658 C2646 1.349 . S
C2658 H2652 0.950 . S
C2658 C2659 1.327 . S
C2659 H2653 0.950 . S
C2659 C2658 1.327 . S
C2659 C2663 1.429 . S
C2660 C2643 1.574 . S
C2660 H2654 0.949 . S
C2660 C2664 1.368 . S
C2661 C2642 1.429 . S
C2661 C2655 1.429 . S
C2661 C2662 1.523 . S
C2662 C2643 1.368 . S
C2662 C2656 1.368 . S
C2662 C2661 1.523 . S
C2663 C2647 1.429 . S
C2663 C2659 1.429 . S
C2663 C2664 1.523 . S
C2664 C2648 1.368 . S
C2664 C2660 1.368 . S
C2664 C2663 1.523 . S
H2665 C2640 0.950 . S
H2666 C2642 0.950 . S
H2667 C2643 0.949 . S
H2668 C2645 0.950 . S
H2669 C2647 0.950 . S
C2670 C2671 1.349 . S
C2670 C2672 1.327 . S
C2670 H2695 0.950 . S
C2671 C2670 1.349 . S
C2671 C2687 1.349 . S
C2672 C2670 1.327 . S
C2672 C2691 1.429 . S
C2672 H2696 0.950 . S
C2673 C2690 1.574 . S
C2673 C2692 1.368 . S
C2673 H2697 0.949 . S
H2674 C2678 0.949 . S
C2675 C2676 1.349 . S
C2675 C2677 1.327 . S
C2675 H2698 0.950 . S
C2676 C2675 1.349 . S
C2676 C2688 1.349 . S
C2677 C2675 1.327 . S
C2677 C2693 1.429 . S
C2677 H2699 0.950 . S
C2678 H2674 0.949 . S
C2678 C2686 1.574 . S
C2678 C2694 1.368 . S
H2679 C2687 0.950 . S
H2680 C2685 0.950 . S
H2681 C2686 0.949 . S
H2682 C2688 0.950 . S
H2683 C2689 0.950 . S
H2684 C2690 0.949 . S
C2685 H2680 0.950 . S
C2685 C2687 1.327 . S
C2685 C2691 1.429 . S
C2686 C2678 1.574 . S
C2686 H2681 0.949 . S
C2686 C2692 1.368 . S
C2687 C2671 1.349 . S
C2687 H2679 0.950 . S
C2687 C2685 1.327 . S
C2688 C2676 1.349 . S
C2688 H2682 0.950 . S
C2688 C2689 1.327 . S
C2689 H2683 0.950 . S
C2689 C2688 1.327 . S
C2689 C2693 1.429 . S
C2690 C2673 1.574 . S
C2690 H2684 0.949 . S
C2690 C2694 1.368 . S
C2691 C2672 1.429 . S
C2691 C2685 1.429 . S
C2691 C2692 1.523 . S
C2692 C2673 1.368 . S
C2692 C2686 1.368 . S
C2692 C2691 1.523 . S
C2693 C2677 1.429 . S
C2693 C2689 1.429 . S
C2693 C2694 1.523 . S
C2694 C2678 1.368 . S
C2694 C2690 1.368 . S
C2694 C2693 1.523 . S
H2695 C2670 0.950 . S
H2696 C2672 0.950 . S
H2697 C2673 0.949 . S
H2698 C2675 0.950 . S
H2699 C2677 0.950 . S
C2700 C2701 1.349 . S
C2700 C2702 1.327 . S
C2700 H2725 0.950 . S
C2701 C2700 1.349 . S
C2701 C2717 1.349 . S
C2702 C2700 1.327 . S
C2702 C2721 1.429 . S
C2702 H2726 0.950 . S
C2703 C2720 1.574 . S
C2703 C2722 1.368 . S
C2703 H2727 0.947 1_655 S
H2704 C2708 0.949 . S
C2705 C2706 1.349 1_455 S
C2705 C2707 1.327 . S
C2705 H2728 0.950 . S
C2706 C2705 1.349 1_655 S
C2706 C2718 1.349 . S
C2707 C2705 1.327 . S
C2707 C2723 1.429 1_455 S
C2707 H2729 0.950 . S
C2708 H2704 0.949 . S
C2708 C2716 1.574 . S
C2708 C2724 1.368 . S
H2709 C2717 0.950 . S
H2710 C2715 0.950 . S
H2711 C2716 0.949 . S
H2712 C2718 0.950 . S
H2713 C2719 0.950 . S
H2714 C2720 0.949 1_455 S
C2715 H2710 0.950 . S
C2715 C2717 1.327 . S
C2715 C2721 1.429 . S
C2716 C2708 1.574 . S
C2716 H2711 0.949 . S
C2716 C2722 1.368 . S
C2717 C2701 1.349 . S
C2717 H2709 0.950 . S
C2717 C2715 1.327 . S
C2718 C2706 1.349 . S
C2718 H2712 0.950 . S
C2718 C2719 1.327 . S
C2719 H2713 0.950 . S
C2719 C2718 1.327 . S
C2719 C2723 1.429 . S
C2720 C2703 1.574 . S
C2720 H2714 0.949 1_655 S
C2720 C2724 1.368 . S
C2721 C2702 1.429 . S
C2721 C2715 1.429 . S
C2721 C2722 1.523 . S
C2722 C2703 1.368 . S
C2722 C2716 1.368 . S
C2722 C2721 1.523 . S
C2723 C2707 1.429 1_655 S
C2723 C2719 1.429 . S
C2723 C2724 1.523 . S
C2724 C2708 1.368 . S
C2724 C2720 1.368 . S
C2724 C2723 1.523 . S
H2725 C2700 0.950 . S
H2726 C2702 0.950 . S
H2727 C2703 0.947 1_455 S
H2728 C2705 0.950 . S
H2729 C2707 0.950 . S
C2730 C2731 1.349 . S
C2730 C2732 1.327 . S
C2730 H2755 0.950 . S
C2731 C2730 1.349 . S
C2731 C2747 1.349 . S
C2732 C2730 1.327 . S
C2732 C2751 1.429 . S
C2732 H2756 0.950 . S
C2733 C2750 1.574 . S
C2733 C2752 1.368 . S
C2733 H2757 0.949 . S
H2734 C2738 0.949 . S
C2735 C2736 1.349 . S
C2735 C2737 1.327 . S
C2735 H2758 0.950 . S
C2736 C2735 1.349 . S
C2736 C2748 1.349 . S
C2737 C2735 1.327 . S
C2737 C2753 1.429 . S
C2737 H2759 0.950 . S
C2738 H2734 0.949 . S
C2738 C2746 1.574 . S
C2738 C2754 1.368 . S
H2739 C2747 0.950 . S
H2740 C2745 0.950 . S
H2741 C2746 0.949 . S
H2742 C2748 0.950 . S
H2743 C2749 0.950 . S
H2744 C2750 0.949 . S
C2745 H2740 0.950 . S
C2745 C2747 1.327 . S
C2745 C2751 1.429 . S
C2746 C2738 1.574 . S
C2746 H2741 0.949 . S
C2746 C2752 1.368 . S
C2747 C2731 1.349 . S
C2747 H2739 0.950 . S
C2747 C2745 1.327 . S
C2748 C2736 1.349 . S
C2748 H2742 0.950 . S
C2748 C2749 1.327 . S
C2749 H2743 0.950 . S
C2749 C2748 1.327 . S
C2749 C2753 1.429 . S
C2750 C2733 1.574 . S
C2750 H2744 0.949 . S
C2750 C2754 1.368 . S
C2751 C2732 1.429 . S
C2751 C2745 1.429 . S
C2751 C2752 1.523 . S
C2752 C2733 1.368 . S
C2752 C2746 1.368 . S
C2752 C2751 1.523 . S
C2753 C2737 1.429 . S
C2753 C2749 1.429 . S
C2753 C2754 1.523 . S
C2754 C2738 1.368 . S
C2754 C2750 1.368 . S
C2754 C2753 1.523 . S
H2755 C2730 0.950 . S
H2756 C2732 0.950 . S
H2757 C2733 0.949 . S
H2758 C2735 0.950 . S
H2759 C2737 0.950 . S
C2760 C2761 1.349 . S
C2760 C2762 1.324 1_545 S
C2760 H2785 0.950 1_545 S
C2761 C2760 1.349 . S
C2761 C2777 1.349 . S
C2762 C2760 1.324 1_565 S
C2762 C2781 1.437 1_565 S
C2762 H2786 0.945 . S
C2763 C2780 1.574 . S
C2763 C2782 1.368 . S
C2763 H2787 0.949 . S
H2764 C2768 0.949 . S
C2765 C2766 1.387 . S
C2765 C2767 1.327 . S
C2765 H2788 0.950 . S
C2766 C2765 1.387 . S
C2766 C2778 1.285 1_545 S
C2767 C2765 1.327 . S
C2767 C2783 1.429 . S
C2767 H2789 0.950 . S
C2768 H2764 0.949 . S
C2768 C2776 1.574 . S
C2768 C2784 1.368 1_565 S
H2769 C2777 0.950 . S
H2770 C2775 0.950 . S
H2771 C2776 0.949 . S
H2772 C2778 0.950 . S
H2773 C2779 0.950 . S
H2774 C2780 0.949 . S
C2775 H2770 0.950 . S
C2775 C2777 1.327 . S
C2775 C2781 1.429 . S
C2776 C2768 1.574 . S
C2776 H2771 0.949 . S
C2776 C2782 1.368 1_565 S
C2777 C2761 1.349 . S
C2777 H2769 0.950 . S
C2777 C2775 1.327 . S
C2778 C2766 1.285 1_565 S
C2778 H2772 0.950 . S
C2778 C2779 1.327 . S
C2779 H2773 0.950 . S
C2779 C2778 1.327 . S
C2779 C2783 1.429 1_565 S
C2780 C2763 1.574 . S
C2780 H2774 0.949 . S
C2780 C2784 1.368 . S
C2781 C2762 1.437 1_545 S
C2781 C2775 1.429 . S
C2781 C2782 1.523 . S
C2782 C2763 1.368 . S
C2782 C2776 1.368 1_545 S
C2782 C2781 1.523 . S
C2783 C2767 1.429 . S
C2783 C2779 1.429 1_545 S
C2783 C2784 1.523 . S
C2784 C2768 1.368 1_545 S
C2784 C2780 1.368 . S
C2784 C2783 1.523 . S
H2785 C2760 0.950 1_565 S
H2786 C2762 0.945 . S
H2787 C2763 0.949 . S
H2788 C2765 0.950 . S
H2789 C2767 0.950 . S
C631 C13 1.498 . S
C636 C458 1.536 1_655 S
C661 C27 1.374 . S
C666 C471 1.421 . S
C696 C500 1.505 1_545 S
C691 C36 1.465 . S
C721 C41 1.456 . S
C726 C513 1.504 . S
C751 C8 1.581 . S
C756 C534 1.640 . S
C781 C22 1.461 . S
C786 C563 1.490 . S
C811 C55 1.496 . S
C816 C542 1.552 . S
C846 C555 1.404 . S
C841 C69 1.370 . S
C876 C521 1.522 . S
C871 C78 1.475 . S
C901 C83 1.451 . S
C906 C492 1.495 1_545 S
C936 C450 1.593 1_655 S
C931 C50 1.585 . S
C961 C64 1.452 . S
C966 C479 1.497 . S
C991 C97 1.534 . S
C996 C584 1.560 . S
C1021 C111 1.394 . S
C1026 C597 1.450 . S
C1056 C626 1.528 . S
C1051 C120 1.513 . S
C1081 C125 1.480 . S
C1086 C261 1.542 . S
C1111 C92 1.647 . S
C1116 C282 1.702 . S
C1141 C106 1.486 . S
C1146 C311 1.509 . S
C1171 C139 1.503 . S
C1176 C290 1.558 . S
C1201 C153 1.390 . S
C1206 C303 1.420 . S
C1236 C269 1.553 . S
C1231 C162 1.505 . S
C1266 C618 1.531 . S
C1261 C167 1.490 . S
C1296 C576 1.644 . S
C1291 C134 1.624 . S
C1326 C605 1.525 . S
C1321 C148 1.482 . S
C1351 C181 1.519 . S
C1356 C332 1.542 . S
C1381 C195 1.389 . S
C1386 C345 1.436 . S
C1411 C204 1.515 . S
C1416 C374 1.533 . S
C1441 C209 1.493 . S
C1446 C387 1.562 . S
C1476 C408 1.705 . S
C1471 C176 1.651 . S
C1506 C437 1.512 . S
C1501 C190 1.492 . S
C1536 C416 1.589 . S
C1531 C223 1.529 . S
C1566 C429 1.432 . S
C1561 C237 1.395 . S
C1591 C246 1.494 . S
C1596 C395 1.539 . S
C1626 C366 1.501 . S
C1621 C251 1.466 . S
C1651 C218 1.629 . S
C1656 C324 1.650 . S
C1686 C353 1.528 . S
C1681 C232 1.482 . S
C1716 C264 1.261 . S
C1711 C11 1.357 . S
C1741 C25 1.214 . S
C1746 C285 1.138 . S
C1776 C313 1.236 . S
C1771 C35 1.329 . S
C1806 C334 1.221 . S
C1801 C39 1.312 1_556 S
C1836 C348 1.328 . S
C1831 C7 1.441 1_556 S
C1866 C376 1.213 . S
C1861 C21 1.312 1_556 S
C1891 C53 1.384 . S
C1896 C369 1.247 . S
C1921 C67 1.215 1_556 S
C1926 C327 1.108 . S
C1951 C77 1.320 1_556 S
C1956 C355 1.247 . S
C1981 C81 1.358 . S
C1986 C292 1.293 . S
C2016 C306 1.292 . S
C2011 C49 1.442 . S
C2041 C63 1.329 . S
C2046 C271 1.255 . S
C2076 C390 1.246 . S
C2071 C95 1.347 . S
C2101 C109 1.262 . S
C2106 C411 1.179 . S
C2131 C119 1.389 . S
C2136 C439 1.292 . S
C2166 C460 1.172 . S
C2161 C123 1.257 . S
C2191 C91 1.436 . S
C2196 C474 1.320 . S
C2221 C105 1.272 . S
C2226 C502 1.196 . S
C2251 C137 1.319 . S
C2256 C495 1.190 . S
C2281 C151 1.171 . S
C2286 C453 1.115 . S
C2316 C481 1.273 . S
C2311 C161 1.349 . S
C2341 C165 1.346 . S
C2346 C418 1.273 . S
C2371 C133 1.480 . S
C2376 C432 1.325 . S
C2406 C397 1.308 . S
C2401 C147 1.384 . S
C2436 C516 1.191 1_545 S
C2431 C179 1.320 . S
C2461 C193 1.159 . S
C2466 C537 1.074 1_655 S
C2491 C203 1.332 . S
C2496 C565 1.242 . S
C2526 C586 1.213 . S
C2521 C207 1.315 . S
C2556 C600 1.355 . S
C2551 C175 1.473 . S
C2581 C189 1.373 . S
C2586 C628 1.272 . S
C2611 C221 1.371 . S
C2616 C621 1.228 . S
C2641 C235 1.275 . S
C2646 C579 1.146 . S
C2676 C607 1.313 . S
C2671 C245 1.391 . S
C2706 C544 1.179 1_655 S
C2701 C249 1.251 . S
C2736 C558 1.302 . S
C2731 C217 1.450 . S
C2761 C231 1.293 . S
C2766 C523 1.236 1_545 S
