# Generated by pormake.
# Topology zzz, (3,6)-cn, num edge types: 1
# Building blocks:
#     Node 0, Type 0, BuildingBlock: PAMTOO_clean_linker_0, # of connection points: 3
#     Node 1, Type 0, BuildingBlock: PAMTOO_clean_linker_0, # of connection points: 3
#     Node 2, Type 0, BuildingBlock: PAMTOO_clean_linker_0, # of connection points: 3
#     Node 3, Type 0, BuildingBlock: PAMTOO_clean_linker_0, # of connection points: 3
#     Node 4, Type 0, BuildingBlock: PAMTOO_clean_linker_0, # of connection points: 3
#     Node 5, Type 0, BuildingBlock: PAMTOO_clean_linker_0, # of connection points: 3
#     Node 6, Type 0, BuildingBlock: PAMTOO_clean_linker_0, # of connection points: 3
#     Node 7, Type 0, BuildingBlock: PAMTOO_clean_linker_0, # of connection points: 3
#     Node 8, Type 1, BuildingBlock: BETGAK_clean_sbu_0, # of connection points: 6
#     Node 9, Type 1, BuildingBlock: BETGAK_clean_sbu_0, # of connection points: 6
#     Node 10, Type 1, BuildingBlock: BETGAK_clean_sbu_0, # of connection points: 6
#     Node 11, Type 1, BuildingBlock: BETGAK_clean_sbu_0, # of connection points: 6
#     Edge 12, Type (0, 1), BuildingBlock: XIVTED_clean_linker_0, # of connection points: 2
#     Edge 13, Type (0, 1), BuildingBlock: XIVTED_clean_linker_0, # of connection points: 2
#     Edge 14, Type (0, 1), BuildingBlock: XIVTED_clean_linker_0, # of connection points: 2
#     Edge 15, Type (0, 1), BuildingBlock: XIVTED_clean_linker_0, # of connection points: 2
#     Edge 16, Type (0, 1), BuildingBlock: XIVTED_clean_linker_0, # of connection points: 2
#     Edge 17, Type (0, 1), BuildingBlock: XIVTED_clean_linker_0, # of connection points: 2
#     Edge 18, Type (0, 1), BuildingBlock: XIVTED_clean_linker_0, # of connection points: 2
#     Edge 19, Type (0, 1), BuildingBlock: XIVTED_clean_linker_0, # of connection points: 2
#     Edge 20, Type (0, 1), BuildingBlock: XIVTED_clean_linker_0, # of connection points: 2
#     Edge 21, Type (0, 1), BuildingBlock: XIVTED_clean_linker_0, # of connection points: 2
#     Edge 22, Type (0, 1), BuildingBlock: XIVTED_clean_linker_0, # of connection points: 2
#     Edge 23, Type (0, 1), BuildingBlock: XIVTED_clean_linker_0, # of connection points: 2
#     Edge 24, Type (0, 1), BuildingBlock: XIVTED_clean_linker_0, # of connection points: 2
#     Edge 25, Type (0, 1), BuildingBlock: XIVTED_clean_linker_0, # of connection points: 2
#     Edge 26, Type (0, 1), BuildingBlock: XIVTED_clean_linker_0, # of connection points: 2
#     Edge 27, Type (0, 1), BuildingBlock: XIVTED_clean_linker_0, # of connection points: 2
#     Edge 28, Type (0, 1), BuildingBlock: XIVTED_clean_linker_0, # of connection points: 2
#     Edge 29, Type (0, 1), BuildingBlock: XIVTED_clean_linker_0, # of connection points: 2
#     Edge 30, Type (0, 1), BuildingBlock: XIVTED_clean_linker_0, # of connection points: 2
#     Edge 31, Type (0, 1), BuildingBlock: XIVTED_clean_linker_0, # of connection points: 2
#     Edge 32, Type (0, 1), BuildingBlock: XIVTED_clean_linker_0, # of connection points: 2
#     Edge 33, Type (0, 1), BuildingBlock: XIVTED_clean_linker_0, # of connection points: 2
#     Edge 34, Type (0, 1), BuildingBlock: XIVTED_clean_linker_0, # of connection points: 2
#     Edge 35, Type (0, 1), BuildingBlock: XIVTED_clean_linker_0, # of connection points: 2
# Relax obj value: 0.279
# Max RMSD: 0.194
# Mean RMSD: 0.161
data_MOF--net-zzz--node1-BETGAK_clean_sbu_0--node2-PAMTOO_clean_linker_0--edge1-XIVTED_clean_linker_0
_symmetry_space_group_name_H-M    P1
_symmetry_Int_Tables_number       1
_symmetry_cell_setting            triclinic
loop_
_symmetry_equiv_pos_as_xyz
'x, y, z'
_cell_length_a     52.259282
_cell_length_b     52.489253
_cell_length_c     13.457988
_cell_angle_alpha  89.744984
_cell_angle_beta   89.799558
_cell_angle_gamma 89.930042
loop_
_atom_site_label
_atom_site_type_symbol
_atom_site_fract_x
_atom_site_fract_y
_atom_site_fract_z
_atom_type_partial_charge
H0 H 0.82068 0.47591 0.36978 0.0
H1 H 0.75127 0.49045 0.20886 0.0
H2 H 0.77712 0.54375 0.42909 0.0
H3 H 0.71231 0.54586 0.39075 0.0
C4 C 0.71609 0.52972 0.33955 0.0
O5 O 0.74024 0.53292 0.29806 0.0
H6 H 0.71524 0.51205 0.38564 0.0
C7 C 0.80351 0.48721 0.35883 0.0
C8 C 0.80095 0.51017 0.41046 0.0
C9 C 0.78595 0.48005 0.28544 0.0
C10 C 0.76457 0.49547 0.26712 0.0
C11 C 0.76074 0.51798 0.3208 0.0
C12 C 0.7793 0.5257 0.39128 0.0
H13 H 0.98216 0.81284 0.3775 0.0
H14 H 0.98987 0.74069 0.23165 0.0
H15 H 0.04373 0.76254 0.4571 0.0
H16 H 1.00372 0.70208 0.38996 0.0
C17 C 0.02372 0.70206 0.3611 0.0
O18 O 0.03052 0.72614 0.32646 0.0
H19 H 0.03639 0.69715 0.4245 0.0
C20 C 0.99121 0.79427 0.3722 0.0
C21 C 1.01315 0.78969 0.42875 0.0
C22 C 0.98287 0.77696 0.29997 0.0
C23 C 0.99573 0.75372 0.28922 0.0
C24 C 1.0172 0.7479 0.34714 0.0
C25 C 0.02623 0.76616 0.41659 0.0
H26 H 0.73434 0.06095 0.34418 0.0
H27 H 0.80485 0.0488 0.18516 0.0
H28 H 0.7786 0.99336 0.39895 0.0
H29 H 0.84355 0.99205 0.36039 0.0
C30 C 0.8397 1.00846 0.31023 0.0
O31 O 0.81555 1.00546 0.26917 0.0
H32 H 0.84038 0.02603 0.35638 0.0
C33 C 0.75178 0.05009 0.33269 0.0
C34 C 0.75453 0.02681 0.38264 0.0
C35 C 0.76951 0.05813 0.26048 0.0
C36 C 0.79124 0.04313 0.242 0.0
C37 C 0.79501 0.02015 0.29336 0.0
C38 C 0.77636 1.01169 0.36272 0.0
H39 H 0.48395 0.72523 0.38472 0.0
H40 H 0.48892 0.79411 0.2117 0.0
H41 H 0.5509 0.77238 0.40511 0.0
H42 H 0.54716 0.83599 0.36577 0.0
C43 C 0.53052 0.83191 0.3173 0.0
O44 O 0.53366 0.80779 0.27661 0.0
H45 H 0.51318 0.83239 0.3657 0.0
C46 C 0.49386 0.7428 0.36618 0.0
C47 C 0.51824 0.7468 0.40542 0.0
C48 C 0.4832 0.75949 0.29595 0.0
C49 C 0.49671 0.78144 0.26776 0.0
C50 C 0.52075 0.78672 0.30891 0.0
C51 C 0.53183 0.76906 0.37679 0.0
H52 H 0.23604 0.5618 0.15307 0.0
H53 H 0.30549 0.54839 0.31533 0.0
H54 H 0.28028 0.49421 0.0973 0.0
H55 H 0.34186 0.52675 0.14116 0.0
C56 C 0.34106 0.50909 0.18731 0.0
O57 O 0.31688 0.50572 0.22828 0.0
H58 H 0.34506 0.49297 0.13628 0.0
C59 C 0.25332 0.55071 0.16472 0.0
C60 C 0.25616 0.52763 0.11413 0.0
C61 C 0.27074 0.55825 0.23803 0.0
C62 C 0.29226 0.54307 0.25723 0.0
C63 C 0.29631 0.52043 0.20465 0.0
C64 C 0.2779 0.51235 0.13426 0.0
H65 H 0.98878 0.22474 0.15103 0.0
H66 H 1.00008 0.29563 0.30332 0.0
H67 H 0.05473 0.27072 0.08371 0.0
H68 H 1.01834 0.33168 0.13323 0.0
C69 C 0.0369 0.33185 0.17377 0.0
O70 O 0.0422 0.30779 0.21247 0.0
H71 H 0.052 0.33681 0.11877 0.0
C72 C 0.99938 0.24235 0.15984 0.0
C73 C 0.02225 0.24553 0.10687 0.0
C74 C 0.99132 0.26011 0.2311 0.0
C75 C 1.00582 0.28213 0.2467 0.0
C76 C 0.02821 0.28657 0.19188 0.0
C77 C 0.03678 0.26797 0.12275 0.0
H78 H 0.31889 0.97333 0.12277 0.0
H79 H 0.2457 0.98273 0.26541 0.0
H80 H 0.2723 0.03847 0.05294 0.0
H81 H 0.22539 0.0612 0.20675 0.0
C82 C 0.2295 0.04274 0.24407 0.0
O83 O 0.23351 0.02443 0.17158 0.0
H84 H 0.24721 0.04563 0.28854 0.0
C85 C 0.30099 0.98364 0.13062 0.0
C86 C 0.29784 1.00648 0.07804 0.0
C87 C 0.28256 0.97502 0.19903 0.0
C88 C 0.26001 0.98908 0.21236 0.0
C89 C 0.256 1.01173 0.15913 0.0
C90 C 0.27514 0.02072 0.09273 0.0
H91 H 0.5214 0.31517 0.26125 0.0
H92 H 0.51628 0.23499 0.3138 0.0
H93 H 0.51573 0.26379 0.01263 0.0
H94 H 0.54982 0.21221 0.14936 0.0
C95 C 0.53113 0.20354 0.12885 0.0
O96 O 0.51178 0.22183 0.12934 0.0
H97 H 0.53321 0.19637 0.05172 0.0
C98 C 0.51973 0.29612 0.23106 0.0
C99 C 0.51921 0.29266 0.12763 0.0
C100 C 0.51899 0.27552 0.29742 0.0
C101 C 0.51661 0.25082 0.26194 0.0
C102 C 0.51514 0.24633 0.15981 0.0
C103 C 0.51653 0.26728 0.09177 0.0
La104 La 0.04411 1.01024 0.84741 0.0
La105 La 1.0187 0.02543 0.66965 0.0
C106 C 0.05076 0.98571 1.0045 0.0
C107 C 0.03528 0.96325 0.03321 0.0
C108 C 0.04483 0.93864 0.01636 0.0
C109 C 0.02837 0.91771 0.01746 0.0
C110 C 1.00202 0.92095 0.03536 0.0
C111 C 0.99276 0.94533 0.05829 0.0
C112 C 1.00922 0.96622 0.05785 0.0
C113 C 0.07712 0.02409 0.70741 0.0
C114 C 0.02897 0.96836 0.68856 0.0
C115 C 1.00187 0.04739 0.51706 0.0
C116 C 0.98493 0.06958 0.51133 0.0
C117 C 0.97425 0.0796 0.59879 0.0
C118 C 0.96009 0.10214 0.59588 0.0
C119 C 0.95628 0.11495 0.5053 0.0
C120 C 0.96602 0.10412 0.41721 0.0
C121 C 0.9803 0.08161 0.42033 0.0
C122 C 0.98669 1.01194 0.81536 0.0
C123 C 0.03633 0.06867 0.82644 0.0
O124 O 0.06536 0.98273 0.9261 0.0
O125 O 0.03839 1.00737 1.00139 0.0
O126 O 0.08025 0.02746 0.80203 0.0
O127 O 0.05674 1.01155 0.69399 0.0
O128 O 0.02916 0.97413 0.78417 0.0
O129 O 0.02963 0.98711 0.62299 0.0
O130 O 0.99145 0.02704 0.55583 0.0
O131 O 0.02452 0.05188 0.5542 0.0
O132 O 0.98354 1.00665 0.72273 0.0
O133 O 1.00672 0.02506 0.82255 0.0
O134 O 0.02685 0.06306 0.73776 0.0
O135 O 0.04383 0.05039 0.88743 0.0
H136 H 0.06478 0.93573 0.99724 0.0
H137 H 0.03626 0.899 1.00269 0.0
H138 H 0.97261 0.94846 0.07305 0.0
H139 H 1.00113 0.98487 0.07164 0.0
H140 H 0.9775 0.07036 0.6698 0.0
H141 H 0.95278 0.10995 0.66474 0.0
H142 H 0.96383 0.11375 0.34641 0.0
H143 H 0.98842 0.07409 0.3523 0.0
La144 La 0.53108 0.03467 0.79505 0.0
La145 La 0.51932 0.99988 0.64383 0.0
C146 C 0.5514 0.05921 0.93484 0.0
C147 C 0.57692 0.0707 0.94692 0.0
C148 C 0.5792 0.09651 0.97244 0.0
C149 C 0.60335 0.10791 0.97866 0.0
C150 C 0.62559 0.09368 0.95871 0.0
C151 C 0.62314 0.06782 0.93351 0.0
C152 C 0.59913 0.05646 0.92786 0.0
C153 C 0.51684 0.05801 0.62783 0.0
C154 C 0.57631 1.01428 0.6534 0.0
C155 C 0.49881 0.97541 0.50449 0.0
C156 C 0.47343 0.96342 0.4954 0.0
C157 C 0.47146 0.93732 0.47407 0.0
C158 C 0.4475 0.92543 0.47226 0.0
C159 C 0.42515 0.93945 0.49247 0.0
C160 C 0.42727 0.96561 0.51307 0.0
C161 C 0.45109 0.97745 0.51437 0.0
C162 C 0.53356 0.97645 0.81052 0.0
C163 C 0.47409 0.02002 0.78651 0.0
O164 O 0.53714 0.06966 0.86661 0.0
O165 O 0.55034 0.03432 0.93176 0.0
O166 O 0.50942 0.06404 0.71632 0.0
O167 O 0.53158 0.0389 0.63459 0.0
O168 O 0.56985 0.02421 0.74032 0.0
O169 O 0.55837 1.00604 0.5931 0.0
O170 O 0.51386 0.96506 0.57037 0.0
O171 O 0.49938 1.00031 0.50863 0.0
O172 O 0.5409 0.97044 0.72195 0.0
O173 O 0.51885 0.99561 0.80414 0.0
O174 O 0.48055 1.0099 0.6999 0.0
O175 O 0.49201 0.02867 0.84603 0.0
H176 H 0.56229 0.10787 0.98705 0.0
H177 H 0.60463 0.12783 0.99881 0.0
H178 H 0.63987 0.05608 0.92049 0.0
H179 H 0.59804 0.0365 0.90843 0.0
H180 H 0.48848 0.92611 0.45961 0.0
H181 H 0.44646 0.9053 0.45542 0.0
H182 H 0.41042 0.97718 0.52601 0.0
H183 H 0.45191 0.99761 0.53079 0.0
La184 La 0.5121 0.53065 0.85238 0.0
La185 La 0.54107 0.51259 0.68904 0.0
C186 C 0.48892 0.54258 0.00996 0.0
C187 C 0.47108 0.56358 0.03153 0.0
C188 C 0.45498 0.57332 0.95696 0.0
C189 C 0.44099 0.59561 0.97281 0.0
C190 C 0.44279 0.60855 0.06357 0.0
C191 C 0.45772 0.59787 0.14019 0.0
C192 C 0.4718 0.5756 0.1241 0.0
C193 C 0.48506 0.52864 0.68544 0.0
C194 C 0.53259 0.57264 0.70873 0.0
C195 C 0.56121 0.49633 0.53298 0.0
C196 C 0.56874 0.46949 0.51909 0.0
C197 C 0.58545 0.45768 0.58746 0.0
C198 C 0.58491 0.43131 0.60125 0.0
C199 C 0.56766 0.41653 0.54713 0.0
C200 C 0.5532 0.4279 0.47112 0.0
C201 C 0.55391 0.45419 0.45656 0.0
C202 C 0.56835 0.5143 0.85532 0.0
C203 C 0.52165 0.47094 0.83312 0.0
O204 O 0.48071 0.5254 0.94785 0.0
O205 O 0.51247 0.54941 0.99024 0.0
O206 O 0.48417 0.54674 0.74961 0.0
O207 O 0.50069 0.51199 0.71604 0.0
O208 O 0.52434 0.56824 0.80014 0.0
O209 O 0.538 0.55335 0.649 0.0
O210 O 0.57399 0.50905 0.5997 0.0
O211 O 0.53653 0.49987 0.54246 0.0
O212 O 0.56911 0.49627 0.79051 0.0
O213 O 0.5526 0.53109 0.82615 0.0
O214 O 0.52675 0.47552 0.73881 0.0
O215 O 0.51918 0.49032 0.8952 0.0
H216 H 0.45389 0.56428 0.88505 0.0
H217 H 0.42951 0.60325 0.91276 0.0
H218 H 0.45984 0.60755 0.21057 0.0
H219 H 0.48414 0.56842 0.18242 0.0
H220 H 0.59726 0.46888 0.63668 0.0
H221 H 0.59644 0.42277 0.65933 0.0
H222 H 0.54017 0.41661 0.42699 0.0
H223 H 0.54094 0.46275 0.40331 0.0
La224 La 0.02291 0.50091 0.8394 0.0
La225 La 0.03446 0.53473 0.68677 0.0
C226 C 1.00272 0.47601 0.97991 0.0
C227 C 0.97927 0.46075 0.98387 0.0
C228 C 0.96595 0.4552 0.89615 0.0
C229 C 0.94216 0.44317 0.9005 0.0
C230 C 0.93139 0.43637 0.99267 0.0
C231 C 0.94553 0.44072 0.07993 0.0
C232 C 0.96926 0.4529 0.07549 0.0
C233 C 0.03731 0.47651 0.67497 0.0
C234 C 0.97777 0.51966 0.69567 0.0
C235 C 0.05444 0.55976 0.54607 0.0
C236 C 0.07757 0.57546 0.5418 0.0
C237 C 0.09097 0.58108 0.62922 0.0
C238 C 0.11453 0.59356 0.62439 0.0
C239 C 0.12498 0.60069 0.53202 0.0
C240 C 0.1107 0.59628 0.44515 0.0
C241 C 0.08719 0.58369 0.45008 0.0
C242 C 0.02063 0.55909 0.85235 0.0
C243 C 0.07966 0.5159 0.82977 0.0
O244 O 0.02074 0.46709 0.92265 0.0
O245 O 0.99931 0.50044 0.96626 0.0
O246 O 0.04454 0.47112 0.76408 0.0
O247 O 0.02247 0.49557 0.67904 0.0
O248 O 0.98408 0.511 0.7848 0.0
O249 O 0.99597 0.5269 0.63388 0.0
O250 O 0.03618 0.56846 0.60274 0.0
O251 O 0.05831 0.53543 0.56069 0.0
O252 O 1.01322 0.5646 0.76357 0.0
O253 O 0.03525 0.5399 0.84714 0.0
O254 O 0.0733 0.52463 0.74079 0.0
O255 O 0.06149 0.50866 0.8918 0.0
H256 H 0.97358 0.46094 0.82452 0.0
H257 H 0.93181 0.43997 0.8321 0.0
H258 H 0.9376 0.43611 0.15226 0.0
H259 H 0.97935 0.45701 0.14378 0.0
H260 H 0.08362 0.57506 0.70092 0.0
H261 H 0.12497 0.59681 0.69253 0.0
H262 H 0.11838 0.60115 0.37266 0.0
H263 H 0.07702 0.57955 0.38203 0.0
H264 H 0.22818 0.04171 0.44819 0.0
H265 H 0.07762 1.01278 0.50659 0.0
H266 H 0.17944 0.03038 0.19479 0.0
H267 H 0.12589 0.04003 0.7424 0.0
H268 H 0.11445 1.01535 0.39173 0.0
H269 H 0.19114 0.03652 0.55773 0.0
C270 C 0.2097 0.03773 0.41558 0.0
C271 C 0.20703 0.03617 0.31201 0.0
C272 C 0.11693 0.02077 0.46862 0.0
C273 C 0.16407 0.03061 0.43775 0.0
C274 C 0.09591 0.01933 0.53417 0.0
C275 C 0.09863 0.02617 0.63449 0.0
C276 C 0.14092 0.02888 0.50382 0.0
C277 C 0.12281 0.03452 0.66595 0.0
C278 C 0.18845 0.03495 0.47826 0.0
C279 C 0.18243 0.03139 0.27422 0.0
N280 N 0.14289 0.03553 0.60132 0.0
N281 N 0.16192 0.02879 0.33689 0.0
H282 H 0.49289 0.19607 0.27532 0.0
H283 H 0.54648 0.05922 0.4566 0.0
H284 H 0.55822 0.15919 0.14222 0.0
H285 H 0.48765 0.10102 0.61108 0.0
H286 H 0.54856 0.09358 0.33159 0.0
H287 H 0.48838 0.15987 0.38987 0.0
C288 C 0.50629 0.18041 0.26973 0.0
C289 C 0.52608 0.18087 0.19855 0.0
C290 C 0.53507 0.09517 0.39252 0.0
C291 C 0.52086 0.13894 0.33032 0.0
C292 C 0.5338 0.07545 0.46371 0.0
C293 C 0.5169 0.07716 0.54489 0.0
C294 C 0.51923 0.11682 0.4019 0.0
C295 C 0.50104 0.09883 0.55012 0.0
C296 C 0.50367 0.15962 0.3354 0.0
C297 C 0.54266 0.1597 0.19552 0.0
N298 N 0.50263 0.1177 0.48025 0.0
N299 N 0.53971 0.13974 0.25999 0.0
H300 H 0.37422 0.47141 0.25272 0.0
H301 H 0.45021 0.56366 0.62473 0.0
H302 H 0.35485 0.55011 0.30216 0.0
H303 H 0.47335 0.48601 0.57225 0.0
H304 H 0.41509 0.55838 0.50787 0.0
H305 H 0.40965 0.47541 0.37162 0.0
C306 C 0.37731 0.48948 0.28928 0.0
C307 C 0.36159 0.51051 0.26715 0.0
C308 C 0.42778 0.54243 0.52139 0.0
C309 C 0.40224 0.51529 0.40323 0.0
C310 C 0.44795 0.54544 0.58823 0.0
C311 C 0.4648 0.52523 0.60878 0.0
C312 C 0.4241 0.51893 0.47399 0.0
C313 C 0.46086 0.50212 0.55871 0.0
C314 C 0.39761 0.49179 0.35683 0.0
C315 C 0.36646 0.53344 0.3169 0.0
N316 N 0.44088 0.49957 0.49396 0.0
N317 N 0.38632 0.53523 0.38197 0.0
H318 H 0.06804 0.33789 0.33936 0.0
H319 H 1.00871 0.47375 0.50172 0.0
H320 H 1.00557 0.37399 0.18516 0.0
H321 H 0.06703 0.43392 0.66659 0.0
H322 H 1.00829 0.43861 0.38076 0.0
H323 H 0.06863 0.37351 0.45714 0.0
C324 C 0.05418 0.3531 0.33117 0.0
C325 C 0.03626 0.35249 0.25363 0.0
C326 C 0.02125 0.43761 0.44323 0.0
C327 C 0.03729 0.39401 0.38697 0.0
C328 C 0.02159 0.45778 0.51202 0.0
C329 C 0.03792 0.45686 0.59471 0.0
C330 C 0.03743 0.41634 0.45683 0.0
C331 C 0.05407 0.43551 0.60428 0.0
C332 C 0.05461 0.37359 0.3981 0.0
C333 C 1.01933 0.3733 0.24505 0.0
N334 N 0.05338 0.41623 0.53677 0.0
N335 N 1.02022 0.39307 0.31058 0.0
H336 H 0.84419 0.98108 0.13447 0.0
H337 H 0.98458 0.03455 0.9992 0.0
H338 H 0.88388 0.03675 0.31039 0.0
H339 H 0.94134 0.98608 0.80435 0.0
H340 H 0.94892 0.03366 0.11845 0.0
H341 H 0.88012 0.98111 0.01611 0.0
C342 C 0.86028 0.99359 0.14742 0.0
C343 C 0.86064 1.00948 0.23118 0.0
C344 C 0.9472 0.02318 0.0497 0.0
C345 C 0.90235 1.00907 0.09733 0.0
C346 C 0.96762 0.02363 0.98169 0.0
C347 C 0.96593 1.01046 0.89138 0.0
C348 C 0.92483 1.00939 0.02765 0.0
C349 C 0.94346 0.9966 0.87284 0.0
C350 C 0.8809 0.9935 0.08013 0.0
C351 C 0.88248 0.02465 0.24573 0.0
N352 N 0.92385 0.99645 0.94006 0.0
N353 N 0.90233 0.0241 0.17975 0.0
H354 H 0.49396 0.86954 0.2966 0.0
H355 H 0.50584 0.97662 0.98632 0.0
H356 H 0.56379 0.84294 0.16144 0.0
H357 H 0.5604 0.93179 0.82166 0.0
H358 H 0.50351 0.94269 0.11156 0.0
H359 H 0.4934 0.90555 0.1815 0.0
C360 C 0.50914 0.87118 0.24192 0.0
C361 C 0.52877 0.85286 0.23814 0.0
C362 C 0.5158 0.93995 0.04776 0.0
C363 C 0.52896 0.89517 0.10676 0.0
C364 C 0.51737 0.95964 0.97659 0.0
C365 C 0.53323 0.95711 0.89274 0.0
C366 C 0.53016 0.91735 0.03522 0.0
C367 C 0.54778 0.93461 0.88463 0.0
C368 C 0.50905 0.89212 0.17667 0.0
C369 C 0.54808 0.85634 0.16634 0.0
N370 N 0.54588 0.91574 0.9544 0.0
N371 N 0.54764 0.87693 0.10368 0.0
H372 H 0.70299 0.48931 0.22046 0.0
H373 H 0.58005 0.55663 0.96984 0.0
H374 H 0.68164 0.56701 0.28038 0.0
H375 H 0.6043 0.47965 0.91046 0.0
H376 H 0.61654 0.56133 0.08418 0.0
H377 H 0.66713 0.48606 0.10428 0.0
C378 C 0.6909 0.50579 0.20821 0.0
C379 C 0.69536 0.52843 0.26032 0.0
C380 C 0.61383 0.5434 0.04616 0.0
C381 C 0.65377 0.52485 0.1279 0.0
C382 C 0.59292 0.5407 0.98122 0.0
C383 C 0.58908 0.51773 0.93018 0.0
C384 C 0.63101 0.52297 0.06034 0.0
C385 C 0.60647 0.49775 0.94776 0.0
C386 C 0.67027 0.50391 0.14229 0.0
C387 C 0.6789 0.54916 0.2419 0.0
N388 N 0.62654 0.50084 0.01079 0.0
N389 N 0.65881 0.54685 0.17782 0.0
H390 H 1.00162 0.70129 0.17403 0.0
H391 H 0.04689 0.55898 0.03157 0.0
H392 H 0.0488 0.6555 0.36656 0.0
H393 H 0.99559 0.60468 0.85479 0.0
H394 H 0.04894 0.59377 0.15399 0.0
H395 H 1.00095 0.66648 0.05387 0.0
C396 C 1.01219 0.6841 0.19055 0.0
C397 C 0.02564 0.68169 0.28025 0.0
C398 C 0.03718 0.59614 0.08849 0.0
C399 C 0.02451 0.64102 0.14286 0.0
C400 C 0.03592 0.5762 0.01877 0.0
C401 C 0.02103 0.57881 0.93246 0.0
C402 C 0.02352 0.61894 0.07183 0.0
C403 C 1.00735 0.6017 0.91989 0.0
C404 C 1.01165 0.66403 0.12198 0.0
C405 C 0.03849 0.65847 0.29786 0.0
N406 N 1.00899 0.62075 0.98811 0.0
N407 N 0.03762 0.63914 0.23017 0.0
H408 H 0.94319 0.24326 0.18646 0.0
H409 H 0.96601 0.15401 0.63364 0.0
H410 H 0.99307 0.25863 0.43319 0.0
H411 H 0.92242 0.1357 0.37188 0.0
H412 H 0.95933 0.19913 0.59982 0.0
H413 H 0.91905 0.21359 0.29078 0.0
C414 C 0.94836 0.24117 0.26397 0.0
C415 C 0.97067 0.25256 0.30046 0.0
C416 C 0.95053 0.18527 0.55132 0.0
C417 C 0.94388 0.21812 0.41872 0.0
C418 C 0.95426 0.15942 0.57085 0.0
C419 C 0.94556 0.1411 0.50319 0.0
C420 C 0.93847 0.19276 0.46272 0.0
C421 C 0.93031 0.14928 0.42369 0.0
C422 C 0.93468 0.22412 0.32344 0.0
C423 C 0.97631 0.24971 0.40162 0.0
N424 N 0.92781 0.17455 0.4041 0.0
N425 N 0.96354 0.23205 0.45653 0.0
H426 H 0.27991 0.97402 0.40148 0.0
H427 H 0.40818 0.90636 0.35018 0.0
H428 H 0.30206 0.9282 0.15053 0.0
H429 H 0.38318 0.9464 0.61247 0.0
H430 H 0.36366 0.89904 0.30621 0.0
H431 H 0.30862 0.94922 0.50631 0.0
C432 C 0.28997 0.95797 0.36928 0.0
C433 C 0.28954 0.95381 0.26649 0.0
C434 C 0.36782 0.90883 0.37495 0.0
C435 C 0.32323 0.92612 0.3847 0.0
C436 C 0.39335 0.91292 0.40034 0.0
C437 C 0.39936 0.92799 0.4828 0.0
C438 C 0.34831 0.92042 0.43116 0.0
C439 C 0.37931 0.93567 0.54565 0.0
C440 C 0.30662 0.94391 0.42906 0.0
C441 C 0.30268 0.93258 0.22904 0.0
N442 N 0.35466 0.93248 0.51701 0.0
N443 N 0.31973 0.92007 0.28738 0.0
H444 H 0.56235 0.26622 0.40135 0.0
H445 H 0.60176 0.37692 0.55817 0.0
H446 H 0.48669 0.2978 0.42978 0.0
H447 H 0.52233 0.39588 0.60123 0.0
H448 H 0.5909 0.33187 0.56752 0.0
H449 H 0.57696 0.29375 0.53459 0.0
C450 C 0.54857 0.27824 0.43915 0.0
C451 C 0.5236 0.28063 0.40292 0.0
C452 C 0.57574 0.34562 0.57774 0.0
C453 C 0.54036 0.31348 0.54958 0.0
C454 C 0.58209 0.37144 0.57205 0.0
C455 C 0.56271 0.38983 0.57471 0.0
C456 C 0.54978 0.33843 0.58524 0.0
C457 C 0.53765 0.38207 0.59533 0.0
C458 C 0.55702 0.29446 0.51404 0.0
C459 C 0.50632 0.29603 0.45448 0.0
N460 N 0.53184 0.35696 0.59801 0.0
N461 N 0.5152 0.31249 0.52347 0.0
H462 H 0.25451 0.60639 0.1902 0.0
H463 H 0.14558 0.6381 0.41247 0.0
H464 H 0.2683 0.55679 0.44016 0.0
H465 H 0.16625 0.58186 0.63267 0.0
H466 H 0.19037 0.64221 0.36654 0.0
H467 H 0.22516 0.63119 0.29068 0.0
C468 C 0.25199 0.60133 0.26776 0.0
C469 C 0.26302 0.57899 0.30593 0.0
C470 C 0.18544 0.62912 0.42564 0.0
C471 C 0.22847 0.60656 0.42147 0.0
C472 C 0.15968 0.62691 0.45222 0.0
C473 C 0.15205 0.60893 0.52378 0.0
C474 C 0.20357 0.61271 0.46945 0.0
C475 C 0.17114 0.59565 0.57566 0.0
C476 C 0.23489 0.61537 0.32556 0.0
C477 C 0.2597 0.57358 0.40714 0.0
N478 N 0.1959 0.59734 0.54571 0.0
N479 N 0.24209 0.58677 0.46055 0.0
H480 H 0.93736 0.80294 0.31991 0.0
H481 H 1.00162 0.88129 0.9031 0.0
H482 H 0.98962 0.77402 0.09912 0.0
H483 H 0.96211 0.91017 0.16138 0.0
H484 H 0.9792 0.84078 0.92366 0.0
H485 H 0.92626 0.83784 0.20764 0.0
C486 C 0.94554 0.8032 0.24583 0.0
C487 C 0.96564 0.78662 0.22107 0.0
C488 C 0.9749 0.85624 0.97414 0.0
C489 C 0.95363 0.82656 0.09414 0.0
C490 C 0.98794 0.87925 0.96325 0.0
C491 C 0.98457 0.89871 0.03334 0.0
C492 C 0.95872 0.85259 0.05653 0.0
C493 C 0.96577 0.89548 0.10693 0.0
C494 C 0.93935 0.82325 0.18194 0.0
C495 C 0.97486 0.78713 0.12306 0.0
N496 N 0.95402 0.87261 0.11808 0.0
N497 N 0.96958 0.80752 0.0643 0.0
H498 H 0.77134 0.05878 0.05757 0.0
H499 H 0.64211 0.12498 0.10786 0.0
H500 H 0.74958 0.10499 0.30809 0.0
H501 H 0.66825 0.0872 0.84211 0.0
H502 H 0.68645 0.13181 0.15588 0.0
H503 H 0.74202 0.08293 0.95361 0.0
C504 C 0.76123 0.07475 0.08995 0.0
C505 C 0.76199 0.07915 0.19262 0.0
C506 C 0.68258 0.12263 0.08562 0.0
C507 C 0.7275 0.10611 0.0751 0.0
C508 C 0.65717 0.11881 0.05794 0.0
C509 C 0.6515 0.10458 0.97286 0.0
C510 C 0.70235 0.11165 0.02886 0.0
C511 C 0.67183 0.09731 0.91063 0.0
C512 C 0.74419 0.08844 0.03057 0.0
C513 C 0.7487 0.10034 0.22987 0.0
N514 N 0.69636 0.10028 0.94122 0.0
N515 N 0.73124 0.11245 0.17201 0.0
H516 H 0.43743 0.74239 0.36982 0.0
H517 H 0.44448 0.64732 0.92729 0.0
H518 H 0.47839 0.75476 0.09547 0.0
H519 H 0.41811 0.62974 0.22393 0.0
H520 H 0.43868 0.69252 0.96138 0.0
H521 H 0.41195 0.70955 0.28873 0.0
C522 C 0.44021 0.73901 0.29114 0.0
C523 C 0.46063 0.75054 0.24005 0.0
C524 C 0.43342 0.67876 0.01807 0.0
C525 C 0.43219 0.71269 0.14797 0.0
C526 C 0.43663 0.65288 0.99857 0.0
C527 C 0.43249 0.63476 0.07405 0.0
C528 C 0.42631 0.68655 0.11392 0.0
C529 C 0.42232 0.64315 0.16478 0.0
C530 C 0.42582 0.72011 0.24508 0.0
C531 C 0.46319 0.74587 0.13806 0.0
N532 N 0.42013 0.66849 0.183 0.0
N533 N 0.44973 0.72663 0.09598 0.0
H534 H 0.8012 0.43148 0.33123 0.0
H535 H 0.91017 0.39917 0.11144 0.0
H536 H 0.78876 0.48216 0.08352 0.0
H537 H 0.89053 0.45574 0.89111 0.0
H538 H 0.86528 0.39554 0.15617 0.0
H539 H 0.83024 0.40647 0.23016 0.0
C540 C 0.80395 0.43676 0.25399 0.0
C541 C 0.7934 0.45941 0.21668 0.0
C542 C 0.87044 0.40859 0.09725 0.0
C543 C 0.82768 0.43164 0.10068 0.0
C544 C 0.89626 0.41054 0.07139 0.0
C545 C 0.90422 0.42847 1.00017 0.0
C546 C 0.85257 0.42523 0.05313 0.0
C547 C 0.88537 0.44199 0.9479 0.0
C548 C 0.8209 0.4226 0.19591 0.0
C549 C 0.797 0.46512 0.11586 0.0
N550 N 0.86055 0.44056 0.97721 0.0
N551 N 0.81449 0.45181 0.06225 0.0
H552 H 1.00191 0.22904 0.93159 0.0
H553 H 0.06052 0.08863 0.99048 0.0
H554 H 0.05966 0.21026 0.14692 0.0
H555 H 1.01475 0.11139 0.73916 0.0
H556 H 0.06098 0.13297 0.04688 0.0
H557 H 1.00752 0.18689 0.85602 0.0
C558 C 1.01645 0.21635 0.96076 0.0
C559 C 0.03084 0.22356 0.04415 0.0
C560 C 0.05096 0.12834 0.97903 0.0
C561 C 0.03651 0.17443 0.96088 0.0
C562 C 0.05061 0.1029 0.94675 0.0
C563 C 0.03755 0.09598 0.85963 0.0
C564 C 0.0379 0.14728 0.92483 0.0
C565 C 0.02515 0.11561 0.80653 0.0
C566 C 1.01942 0.1921 0.91837 0.0
C567 C 0.04867 0.20585 0.08116 0.0
N568 N 0.02547 0.14016 0.84023 0.0
N569 N 0.05079 0.18212 0.0402 0.0
H570 H 0.33095 0.04617 0.10897 0.0
H571 H 0.43281 0.99497 0.70592 0.0
H572 H 0.31598 0.98424 0.90896 0.0
H573 H 0.45246 0.04653 0.94199 0.0
H574 H 0.38827 0.99547 0.76299 0.0
H575 H 0.37323 0.05189 0.03072 0.0
C576 C 0.33619 0.0344 0.04618 0.0
C577 C 0.3197 1.01501 0.01425 0.0
C578 C 0.40226 1.00682 0.80207 0.0
C579 C 0.36845 0.02083 0.92618 0.0
C580 C 0.42778 1.0066 0.76915 0.0
C581 C 0.44662 0.02071 0.81887 0.0
C582 C 0.39525 0.02141 0.88536 0.0
C583 C 0.43875 0.03522 0.90134 0.0
C584 C 0.3605 0.03738 1.00248 0.0
C585 C 0.3279 0.9997 0.93473 0.0
N586 N 0.41379 0.03517 0.93185 0.0
N587 N 0.35163 1.00283 0.89396 0.0
H588 H 0.49232 0.30777 0.95694 0.0
H589 H 0.53165 0.45326 0.0215 0.0
H590 H 0.5527 0.33222 0.152 0.0
H591 H 0.5103 0.42674 0.73094 0.0
H592 H 0.5324 0.409 0.0806 0.0
H593 H 0.49299 0.35049 0.87761 0.0
C594 C 0.50596 0.32182 0.98221 0.0
C595 C 0.52213 0.31624 0.06309 0.0
C596 C 0.52749 0.41281 1.00383 0.0
C597 C 0.52233 0.3655 0.97484 0.0
C598 C 0.5269 0.43817 0.97013 0.0
C599 C 0.52095 0.44391 0.87081 0.0
C600 C 0.5215 0.39274 0.93888 0.0
C601 C 0.51515 0.42327 0.80791 0.0
C602 C 0.50617 0.3463 0.93741 0.0
C603 C 0.53931 0.33556 0.09212 0.0
N604 N 0.51534 0.39869 0.84298 0.0
N605 N 0.5386 0.35917 0.04981 0.0
H606 H 0.22273 0.48827 0.14648 0.0
H607 H 0.12155 0.53812 0.73919 0.0
H608 H 0.23829 0.55015 0.94433 0.0
H609 H 0.10067 0.49181 0.99224 0.0
H610 H 0.16619 0.53737 0.79511 0.0
H611 H 0.18034 0.48312 0.07013 0.0
C612 C 0.2176 0.50013 0.08356 0.0
C613 C 0.23429 0.51937 0.05065 0.0
C614 C 0.15186 0.52727 0.83818 0.0
C615 C 0.18541 0.51417 0.96457 0.0
C616 C 0.1263 0.52769 0.80625 0.0
C617 C 0.10712 0.51515 0.86128 0.0
C618 C 0.15855 0.51392 0.92527 0.0
C619 C 0.11465 0.50193 0.94761 0.0
C620 C 0.19322 0.49749 0.041 0.0
C621 C 0.22621 0.53481 0.97093 0.0
N622 N 0.13965 0.50164 0.9767 0.0
N623 N 0.20242 0.53196 0.93108 0.0
H624 H 1.00087 0.80475 0.61878 0.0
H625 H 0.03994 0.94922 0.50326 0.0
H626 H 0.04497 0.82712 0.3625 0.0
H627 H 1.01802 0.92484 0.79773 0.0
H628 H 0.04033 0.90465 0.45012 0.0
H629 H 1.00654 0.84778 0.68798 0.0
C630 C 1.01263 0.81839 0.57896 0.0
C631 C 0.0232 0.81195 0.4861 0.0
C632 C 0.03552 0.90896 0.52655 0.0
C633 C 0.02847 0.86193 0.56199 0.0
C634 C 0.03514 0.93453 0.55693 0.0
C635 C 0.02891 0.94103 0.65537 0.0
C636 C 0.02926 0.88941 0.59431 0.0
C637 C 0.02301 0.92089 0.72123 0.0
C638 C 1.01554 0.84312 0.61776 0.0
C639 C 0.03719 0.83092 0.43564 0.0
N640 N 0.02313 0.89613 0.68947 0.0
N641 N 0.03913 0.85496 0.47339 0.0
H642 H 0.73741 0.04769 0.55598 0.0
H643 H 0.59744 0.98811 0.49648 0.0
H644 H 0.72001 0.98883 0.34521 0.0
H645 H 0.61821 0.03764 0.73769 0.0
H646 H 0.64234 0.98695 0.4438 0.0
H647 H 0.69484 0.04229 0.6304 0.0
C648 C 0.72491 0.03298 0.52766 0.0
C649 C 0.73251 0.01831 0.44556 0.0
C650 C 0.63714 0.99794 0.50874 0.0
C651 C 0.68305 1.01281 0.52741 0.0
C652 C 0.6114 0.99871 0.53875 0.0
C653 C 0.60382 1.01302 0.622 0.0
C654 C 0.65566 1.01177 0.5615 0.0
C655 C 0.623 0.02624 0.67362 0.0
C656 C 0.70044 0.03011 0.56933 0.0
C657 C 0.71518 1.00011 0.40978 0.0
N658 N 0.64787 0.02544 0.64226 0.0
N659 N 0.69121 0.99811 0.44995 0.0
H660 H 0.50631 0.73435 0.59751 0.0
H661 H 0.55274 0.58971 0.53069 0.0
H662 H 0.55142 0.70913 0.34868 0.0
H663 H 0.51695 0.61733 0.79866 0.0
H664 H 0.55419 0.63346 0.46663 0.0
H665 H 0.51263 0.69272 0.67773 0.0
C666 C 0.51844 0.72038 0.56158 0.0
C667 C 0.52899 0.7256 0.46744 0.0
C668 C 0.54617 0.63003 0.53976 0.0
C669 C 0.53521 0.67707 0.55662 0.0
C670 C 0.54528 0.60493 0.57652 0.0
C671 C 0.53466 0.59955 0.67059 0.0
C672 C 0.53619 0.65019 0.59668 0.0
C673 C 0.52536 0.62034 0.72594 0.0
C674 C 0.52172 0.6964 0.60672 0.0
C675 C 0.54358 0.70627 0.42246 0.0
N676 N 0.52618 0.64455 0.68806 0.0
N677 N 0.546 0.68288 0.4667 0.0
H678 H 0.83493 0.54914 0.37912 0.0
H679 H 0.93561 0.49766 0.78563 0.0
H680 H 0.81865 0.48705 0.57942 0.0
H681 H 0.95699 0.54394 0.53317 0.0
H682 H 0.89098 0.49881 0.72933 0.0
H683 H 0.87741 0.55358 0.4554 0.0
C684 C 0.83993 0.53708 0.44165 0.0
C685 C 0.82299 0.51801 0.47408 0.0
C686 C 0.90542 0.50881 0.68646 0.0
C687 C 0.87199 0.52241 0.5601 0.0
C688 C 0.93097 0.50816 0.71861 0.0
C689 C 0.9503 0.52058 0.66389 0.0
C690 C 0.89887 0.5223 0.59949 0.0
C691 C 0.9429 0.53391 0.5776 0.0
C692 C 0.86436 0.53932 0.48416 0.0
C693 C 0.83091 0.50229 0.55324 0.0
N694 N 0.91791 0.53444 0.54836 0.0
N695 N 0.85476 0.50476 0.59309 0.0
loop_
_geom_bond_atom_site_label_1
_geom_bond_atom_site_label_2
_geom_bond_distance
_geom_bond_site_symmetry_2
_ccdc_geom_bond_type
H0 C7 0.929 . S
H1 C10 0.930 . S
H2 C12 0.929 . S
H3 C4 0.969 . S
C4 H3 0.969 . S
C4 O5 1.550 . S
C4 H6 0.973 . S
O5 C4 1.550 . S
O5 C11 1.412 . S
H6 C4 0.973 . S
C7 H0 0.929 . S
C7 C8 1.400 . S
C7 C9 1.364 . S
C8 C7 1.400 . S
C8 C12 1.377 . S
C9 C7 1.364 . S
C9 C10 1.374 . S
C10 H1 0.930 . S
C10 C9 1.374 . S
C10 C11 1.383 . S
C11 O5 1.412 . S
C11 C10 1.383 . S
C11 C12 1.394 . S
C12 H2 0.929 . S
C12 C8 1.377 . S
C12 C11 1.394 . S
H13 C20 0.928 1_655 S
H14 C23 0.930 . S
H15 C25 0.928 1_655 S
H16 C17 0.969 . S
C17 H16 0.969 . S
C17 O18 1.550 1_455 S
C17 H19 0.973 1_455 S
O18 C17 1.550 1_655 S
O18 C24 1.405 1_655 S
H19 C17 0.973 1_655 S
C20 H13 0.928 1_455 S
C20 C21 1.400 . S
C20 C22 1.364 . S
C21 C20 1.400 . S
C21 C25 1.377 . S
C22 C20 1.364 . S
C22 C23 1.374 1_455 S
C23 H14 0.930 . S
C23 C22 1.374 1_655 S
C23 C24 1.382 1_655 S
C24 O18 1.405 1_455 S
C24 C23 1.382 1_455 S
C24 C25 1.394 . S
C25 H15 0.928 1_455 S
C25 C21 1.377 . S
C25 C24 1.394 . S
H26 C33 0.928 1_565 S
H27 C36 0.930 . S
H28 C38 0.928 1_565 S
H29 C30 0.969 . S
C30 H29 0.969 . S
C30 O31 1.550 1_545 S
C30 H32 0.973 1_545 S
O31 C30 1.550 1_565 S
O31 C37 1.405 1_565 S
H32 C30 0.973 1_565 S
C33 H26 0.928 1_545 S
C33 C34 1.399 . S
C33 C35 1.364 . S
C34 C33 1.399 . S
C34 C38 1.377 . S
C35 C33 1.364 . S
C35 C36 1.374 1_545 S
C36 H27 0.930 . S
C36 C35 1.374 1_565 S
C36 C37 1.382 1_565 S
C37 O31 1.405 1_545 S
C37 C36 1.382 1_545 S
C37 C38 1.394 . S
C38 H28 0.928 1_545 S
C38 C34 1.377 . S
C38 C37 1.394 . S
H39 C46 0.929 . S
H40 C49 0.930 . S
H41 C51 0.929 . S
H42 C43 0.969 . S
C43 H42 0.969 . S
C43 O44 1.550 . S
C43 H45 0.973 . S
O44 C43 1.550 . S
O44 C50 1.412 . S
H45 C43 0.973 . S
C46 H39 0.929 . S
C46 C47 1.400 . S
C46 C48 1.364 . S
C47 C46 1.400 . S
C47 C51 1.377 . S
C48 C46 1.364 . S
C48 C49 1.374 . S
C49 H40 0.930 . S
C49 C48 1.374 . S
C49 C50 1.383 . S
C50 O44 1.412 . S
C50 C49 1.383 . S
C50 C51 1.394 . S
C51 H41 0.929 . S
C51 C47 1.377 . S
C51 C50 1.394 . S
H52 C59 0.929 . S
H53 C62 0.930 . S
H54 C64 0.929 . S
H55 C56 0.969 . S
C56 H55 0.969 . S
C56 O57 1.550 . S
C56 H58 0.973 . S
O57 C56 1.550 . S
O57 C63 1.412 . S
H58 C56 0.973 . S
C59 H52 0.929 . S
C59 C60 1.400 1_554 S
C59 C61 1.364 . S
C60 C59 1.400 1_556 S
C60 C64 1.377 . S
C61 C59 1.364 . S
C61 C62 1.374 . S
C62 H53 0.930 . S
C62 C61 1.374 . S
C62 C63 1.383 . S
C63 O57 1.412 . S
C63 C62 1.383 . S
C63 C64 1.394 1_554 S
C64 H54 0.929 . S
C64 C60 1.377 . S
C64 C63 1.394 1_556 S
H65 C72 0.928 1_655 S
H66 C75 0.930 . S
H67 C77 0.928 1_655 S
H68 C69 0.969 . S
C69 H68 0.969 . S
C69 O70 1.550 1_455 S
C69 H71 0.973 1_455 S
O70 C69 1.550 1_655 S
O70 C76 1.402 1_655 S
H71 C69 0.973 1_655 S
C72 H65 0.928 1_455 S
C72 C73 1.400 1_554 S
C72 C74 1.364 . S
C73 C72 1.400 1_556 S
C73 C77 1.377 . S
C74 C72 1.364 . S
C74 C75 1.374 1_455 S
C75 H66 0.930 . S
C75 C74 1.374 1_655 S
C75 C76 1.382 1_655 S
C76 O70 1.402 1_455 S
C76 C75 1.382 1_455 S
C76 C77 1.394 1_554 S
C77 H67 0.928 1_455 S
C77 C73 1.377 . S
C77 C76 1.394 1_556 S
H78 C85 0.928 1_565 S
H79 C88 0.930 . S
H80 C90 0.928 1_565 S
H81 C82 0.969 . S
C82 H81 0.969 . S
C82 O83 1.550 1_545 S
C82 H84 0.973 1_545 S
O83 C82 1.550 1_565 S
O83 C89 1.402 1_565 S
H84 C82 0.973 1_565 S
C85 H78 0.928 1_545 S
C85 C86 1.400 1_554 S
C85 C87 1.364 . S
C86 C85 1.400 1_556 S
C86 C90 1.377 . S
C87 C85 1.364 . S
C87 C88 1.374 1_545 S
C88 H79 0.930 . S
C88 C87 1.374 1_565 S
C88 C89 1.382 1_565 S
C89 O83 1.402 1_545 S
C89 C88 1.382 1_545 S
C89 C90 1.394 1_554 S
C90 H80 0.928 1_545 S
C90 C86 1.377 . S
C90 C89 1.394 1_556 S
H91 C98 0.929 . S
H92 C101 0.930 . S
H93 C103 0.929 . S
H94 C95 0.969 . S
C95 H94 0.969 . S
C95 O96 1.550 . S
C95 H97 0.973 . S
O96 C95 1.550 . S
O96 C102 1.412 . S
H97 C95 0.973 . S
C98 H91 0.929 . S
C98 C99 1.400 1_554 S
C98 C100 1.364 . S
C99 C98 1.400 1_556 S
C99 C103 1.377 . S
C100 C98 1.364 . S
C100 C101 1.374 . S
C101 H92 0.930 . S
C101 C100 1.374 . S
C101 C102 1.383 . S
C102 O96 1.412 . S
C102 C101 1.383 . S
C102 C103 1.394 1_554 S
C103 H93 0.929 . S
C103 C99 1.377 . S
C103 C102 1.394 1_556 S
La104 C106 2.928 . S
La104 O124 2.521 . S
La104 O125 2.628 . S
La104 O126 2.554 . S
La104 O127 2.757 1_565 S
La104 O128 2.470 . S
La104 O133 2.482 1_455 S
La104 O135 2.503 1_565 S
La105 C115 2.928 . S
La105 O127 2.482 1_655 S
La105 O129 2.503 1_545 S
La105 O130 2.521 . S
La105 O131 2.628 . S
La105 O132 2.554 . S
La105 O133 2.757 1_545 S
La105 O134 2.470 . S
C106 La104 2.928 . S
C106 C107 1.503 1_556 S
C106 O124 1.261 . S
C106 O125 1.243 . S
C107 C106 1.503 1_554 S
C107 C108 1.394 . S
C107 C112 1.373 . S
C108 C107 1.394 . S
C108 C109 1.380 . S
C108 H136 0.930 . S
C109 C108 1.380 . S
C109 C110 1.376 . S
C109 H137 0.930 . S
C110 C109 1.376 . S
C110 C111 1.370 . S
C111 C110 1.370 . S
C111 C112 1.396 . S
C111 H138 0.929 1_455 S
C112 C107 1.373 . S
C112 C111 1.396 . S
C112 H139 0.929 1_455 S
C113 O126 1.240 . S
C113 O127 1.289 1_565 S
C114 O128 1.258 1_655 S
C114 O129 1.256 . S
C115 La105 2.928 . S
C115 C116 1.503 . S
C115 O130 1.261 . S
C115 O131 1.243 . S
C116 C115 1.503 . S
C116 C117 1.394 . S
C116 C121 1.373 . S
C117 C116 1.394 . S
C117 C118 1.380 . S
C117 H140 0.930 . S
C118 C117 1.380 . S
C118 C119 1.376 . S
C118 H141 0.930 . S
C119 C118 1.376 . S
C119 C120 1.370 . S
C120 C119 1.370 . S
C120 C121 1.396 . S
C120 H142 0.929 1_655 S
C121 C116 1.373 . S
C121 C120 1.396 . S
C121 H143 0.929 1_655 S
C122 O132 1.240 . S
C122 O133 1.289 1_545 S
C123 O134 1.258 1_455 S
C123 O135 1.256 . S
O124 La104 2.521 . S
O124 C106 1.261 . S
O125 La104 2.628 . S
O125 C106 1.243 . S
O126 La104 2.554 . S
O126 C113 1.240 . S
O127 La104 2.757 1_545 S
O127 La105 2.482 1_455 S
O127 C113 1.289 1_545 S
O128 La104 2.470 . S
O128 C114 1.258 1_455 S
O129 La105 2.503 1_565 S
O129 C114 1.256 . S
O130 La105 2.521 . S
O130 C115 1.261 . S
O131 La105 2.628 . S
O131 C115 1.243 . S
O132 La105 2.554 . S
O132 C122 1.240 . S
O133 La104 2.482 1_655 S
O133 La105 2.757 1_565 S
O133 C122 1.289 1_565 S
O134 La105 2.470 . S
O134 C123 1.258 1_655 S
O135 La104 2.503 1_545 S
O135 C123 1.256 . S
H136 C108 0.930 . S
H137 C109 0.930 . S
H138 C111 0.929 1_655 S
H139 C112 0.929 1_655 S
H140 C117 0.930 . S
H141 C118 0.930 . S
H142 C120 0.929 1_455 S
H143 C121 0.929 1_455 S
La144 C146 2.928 . S
La144 O164 2.521 . S
La144 O165 2.628 . S
La144 O166 2.554 . S
La144 O167 2.757 . S
La144 O168 2.470 . S
La144 O173 2.482 1_545 S
La144 O175 2.503 . S
La145 C155 2.928 . S
La145 O167 2.482 1_565 S
La145 O169 2.503 . S
La145 O170 2.521 . S
La145 O171 2.628 . S
La145 O172 2.554 . S
La145 O173 2.757 . S
La145 O174 2.470 . S
C146 La144 2.928 . S
C146 C147 1.503 1_556 S
C146 O164 1.261 . S
C146 O165 1.243 . S
C147 C146 1.503 1_554 S
C147 C148 1.394 . S
C147 C152 1.373 . S
C148 C147 1.394 . S
C148 C149 1.380 . S
C148 H176 0.930 . S
C149 C148 1.380 . S
C149 C150 1.376 . S
C149 H177 0.930 . S
C150 C149 1.376 . S
C150 C151 1.370 . S
C151 C150 1.370 . S
C151 C152 1.396 . S
C151 H178 0.929 1_545 S
C152 C147 1.373 . S
C152 C151 1.396 . S
C152 H179 0.929 1_545 S
C153 O166 1.240 . S
C153 O167 1.289 . S
C154 O168 1.258 1_565 S
C154 O169 1.256 . S
C155 La145 2.928 . S
C155 C156 1.503 . S
C155 O170 1.261 . S
C155 O171 1.243 . S
C156 C155 1.503 . S
C156 C157 1.394 . S
C156 C161 1.373 . S
C157 C156 1.394 . S
C157 C158 1.380 . S
C157 H180 0.930 . S
C158 C157 1.380 . S
C158 C159 1.376 . S
C158 H181 0.930 . S
C159 C158 1.376 . S
C159 C160 1.370 . S
C160 C159 1.370 . S
C160 C161 1.396 . S
C160 H182 0.929 1_565 S
C161 C156 1.373 . S
C161 C160 1.396 . S
C161 H183 0.929 1_565 S
C162 O172 1.240 . S
C162 O173 1.289 . S
C163 O174 1.258 1_545 S
C163 O175 1.256 . S
O164 La144 2.521 . S
O164 C146 1.261 . S
O165 La144 2.628 . S
O165 C146 1.243 . S
O166 La144 2.554 . S
O166 C153 1.240 . S
O167 La144 2.757 . S
O167 La145 2.482 1_545 S
O167 C153 1.289 . S
O168 La144 2.470 . S
O168 C154 1.258 1_545 S
O169 La145 2.503 . S
O169 C154 1.256 . S
O170 La145 2.521 . S
O170 C155 1.261 . S
O171 La145 2.628 . S
O171 C155 1.243 . S
O172 La145 2.554 . S
O172 C162 1.240 . S
O173 La144 2.482 1_565 S
O173 La145 2.757 . S
O173 C162 1.289 . S
O174 La145 2.470 . S
O174 C163 1.258 1_565 S
O175 La144 2.503 . S
O175 C163 1.256 . S
H176 C148 0.930 . S
H177 C149 0.930 . S
H178 C151 0.929 1_565 S
H179 C152 0.929 1_565 S
H180 C157 0.930 . S
H181 C158 0.930 . S
H182 C160 0.929 1_545 S
H183 C161 0.929 1_545 S
La184 C186 2.928 . S
La184 O204 2.521 . S
La184 O205 2.628 . S
La184 O206 2.554 . S
La184 O207 2.757 . S
La184 O208 2.470 . S
La184 O213 2.482 . S
La184 O215 2.503 . S
La185 C195 2.928 . S
La185 O207 2.482 . S
La185 O209 2.503 . S
La185 O210 2.521 . S
La185 O211 2.628 . S
La185 O212 2.554 . S
La185 O213 2.757 . S
La185 O214 2.470 . S
C186 La184 2.928 . S
C186 C187 1.503 1_556 S
C186 O204 1.261 . S
C186 O205 1.243 . S
C187 C186 1.503 1_554 S
C187 C188 1.394 . S
C187 C192 1.373 . S
C188 C187 1.394 . S
C188 C189 1.380 . S
C188 H216 0.930 . S
C189 C188 1.380 . S
C189 C190 1.376 . S
C189 H217 0.930 . S
C190 C189 1.376 . S
C190 C191 1.370 . S
C191 C190 1.370 . S
C191 C192 1.396 . S
C191 H218 0.929 . S
C192 C187 1.373 . S
C192 C191 1.396 . S
C192 H219 0.929 . S
C193 O206 1.240 . S
C193 O207 1.289 . S
C194 O208 1.258 . S
C194 O209 1.256 . S
C195 La185 2.928 . S
C195 C196 1.503 . S
C195 O210 1.261 . S
C195 O211 1.243 . S
C196 C195 1.503 . S
C196 C197 1.394 . S
C196 C201 1.373 . S
C197 C196 1.394 . S
C197 C198 1.380 . S
C197 H220 0.930 . S
C198 C197 1.380 . S
C198 C199 1.376 . S
C198 H221 0.930 . S
C199 C198 1.376 . S
C199 C200 1.370 . S
C200 C199 1.370 . S
C200 C201 1.396 . S
C200 H222 0.929 . S
C201 C196 1.373 . S
C201 C200 1.396 . S
C201 H223 0.929 . S
C202 O212 1.240 . S
C202 O213 1.289 . S
C203 O214 1.258 . S
C203 O215 1.256 . S
O204 La184 2.521 . S
O204 C186 1.261 . S
O205 La184 2.628 . S
O205 C186 1.243 . S
O206 La184 2.554 . S
O206 C193 1.240 . S
O207 La184 2.757 . S
O207 La185 2.482 . S
O207 C193 1.289 . S
O208 La184 2.470 . S
O208 C194 1.258 . S
O209 La185 2.503 . S
O209 C194 1.256 . S
O210 La185 2.521 . S
O210 C195 1.261 . S
O211 La185 2.628 . S
O211 C195 1.243 . S
O212 La185 2.554 . S
O212 C202 1.240 . S
O213 La184 2.482 . S
O213 La185 2.757 . S
O213 C202 1.289 . S
O214 La185 2.470 . S
O214 C203 1.258 . S
O215 La184 2.503 . S
O215 C203 1.256 . S
H216 C188 0.930 . S
H217 C189 0.930 . S
H218 C191 0.929 . S
H219 C192 0.929 . S
H220 C197 0.930 . S
H221 C198 0.930 . S
H222 C200 0.929 . S
H223 C201 0.929 . S
La224 C226 2.928 . S
La224 O244 2.521 . S
La224 O245 2.628 . S
La224 O246 2.554 . S
La224 O247 2.757 1_655 S
La224 O248 2.470 . S
La224 O253 2.482 . S
La224 O255 2.503 1_655 S
La225 C235 2.928 . S
La225 O247 2.482 . S
La225 O249 2.503 1_455 S
La225 O250 2.521 . S
La225 O251 2.628 . S
La225 O252 2.554 . S
La225 O253 2.757 1_455 S
La225 O254 2.470 . S
C226 La224 2.928 . S
C226 C227 1.503 1_556 S
C226 O244 1.261 . S
C226 O245 1.243 . S
C227 C226 1.503 1_554 S
C227 C228 1.394 . S
C227 C232 1.373 . S
C228 C227 1.394 . S
C228 C229 1.380 . S
C228 H256 0.930 . S
C229 C228 1.380 . S
C229 C230 1.376 . S
C229 H257 0.930 . S
C230 C229 1.376 . S
C230 C231 1.370 . S
C231 C230 1.370 . S
C231 C232 1.396 . S
C231 H258 0.929 . S
C232 C227 1.373 . S
C232 C231 1.396 . S
C232 H259 0.929 . S
C233 O246 1.257 . S
C233 O247 1.279 1_655 S
C234 O248 1.258 . S
C234 O249 1.256 . S
C235 La225 2.928 . S
C235 C236 1.503 . S
C235 O250 1.261 . S
C235 O251 1.243 . S
C236 C235 1.503 . S
C236 C237 1.394 . S
C236 C241 1.373 . S
C237 C236 1.394 . S
C237 C238 1.380 . S
C237 H260 0.930 . S
C238 C237 1.380 . S
C238 C239 1.376 . S
C238 H261 0.930 . S
C239 C238 1.376 . S
C239 C240 1.370 . S
C240 C239 1.370 . S
C240 C241 1.396 . S
C240 H262 0.929 . S
C241 C236 1.373 . S
C241 C240 1.396 . S
C241 H263 0.929 . S
C242 O252 1.263 . S
C242 O253 1.276 1_455 S
C243 O254 1.258 . S
C243 O255 1.256 . S
O244 La224 2.521 . S
O244 C226 1.261 . S
O245 La224 2.628 . S
O245 C226 1.243 . S
O246 La224 2.554 . S
O246 C233 1.257 . S
O247 La224 2.757 1_455 S
O247 La225 2.482 . S
O247 C233 1.279 1_455 S
O248 La224 2.470 . S
O248 C234 1.258 . S
O249 La225 2.503 1_655 S
O249 C234 1.256 . S
O250 La225 2.521 . S
O250 C235 1.261 . S
O251 La225 2.628 . S
O251 C235 1.243 . S
O252 La225 2.554 . S
O252 C242 1.263 . S
O253 La224 2.482 . S
O253 La225 2.757 1_655 S
O253 C242 1.276 1_655 S
O254 La225 2.470 . S
O254 C243 1.258 . S
O255 La224 2.503 1_455 S
O255 C243 1.256 . S
H256 C228 0.930 . S
H257 C229 0.930 . S
H258 C231 0.929 . S
H259 C232 0.929 . S
H260 C237 0.930 . S
H261 C238 0.930 . S
H262 C240 0.929 . S
H263 C241 0.929 . S
H264 C270 0.930 . S
H265 C274 0.930 . S
H266 C279 0.929 . S
H267 C277 0.929 . S
H268 C272 0.929 . S
H269 C278 0.929 . S
C270 H264 0.930 . S
C270 C271 1.369 . S
C270 C278 1.378 . S
C271 C270 1.369 . S
C271 C279 1.431 1_565 S
C272 H268 0.929 . S
C272 C274 1.378 . S
C272 C276 1.350 . S
C273 C276 1.463 1_565 S
C273 C278 1.346 . S
C273 N281 1.431 1_565 S
C274 H265 0.930 . S
C274 C272 1.378 . S
C274 C275 1.367 . S
C275 C274 1.367 . S
C275 C277 1.433 1_545 S
C276 C272 1.350 . S
C276 C273 1.463 1_545 S
C276 N280 1.427 1_545 S
C277 H267 0.929 . S
C277 C275 1.433 1_565 S
C277 N280 1.384 . S
C278 H269 0.929 . S
C278 C270 1.378 . S
C278 C273 1.346 . S
C279 H266 0.929 . S
C279 C271 1.431 1_545 S
C279 N281 1.384 . S
N280 C276 1.427 1_565 S
N280 C277 1.384 . S
N281 C273 1.431 1_545 S
N281 C279 1.384 . S
H282 C288 0.930 . S
H283 C292 0.930 . S
H284 C297 0.929 . S
H285 C295 0.929 . S
H286 C290 0.929 . S
H287 C296 0.929 . S
C288 H282 0.930 . S
C288 C289 1.367 . S
C288 C296 1.378 . S
C289 C288 1.367 . S
C289 C297 1.433 . S
C290 H286 0.929 . S
C290 C292 1.378 . S
C290 C294 1.350 . S
C291 C294 1.463 . S
C291 C296 1.350 . S
C291 N299 1.427 . S
C292 H283 0.930 . S
C292 C290 1.378 . S
C292 C293 1.367 . S
C293 C292 1.367 . S
C293 C295 1.433 . S
C294 C290 1.350 . S
C294 C291 1.463 . S
C294 N298 1.427 . S
C295 H285 0.929 . S
C295 C293 1.433 . S
C295 N298 1.384 . S
C296 H287 0.929 . S
C296 C288 1.378 . S
C296 C291 1.350 . S
C297 H284 0.929 . S
C297 C289 1.433 . S
C297 N299 1.384 . S
N298 C294 1.427 . S
N298 C295 1.384 . S
N299 C291 1.427 . S
N299 C297 1.384 . S
H300 C306 0.930 . S
H301 C310 0.930 . S
H302 C315 0.929 . S
H303 C313 0.929 . S
H304 C308 0.929 . S
H305 C314 0.929 . S
C306 H300 0.930 . S
C306 C307 1.367 . S
C306 C314 1.378 . S
C307 C306 1.367 . S
C307 C315 1.433 . S
C308 H304 0.929 . S
C308 C310 1.378 . S
C308 C312 1.350 . S
C309 C312 1.463 . S
C309 C314 1.350 . S
C309 N317 1.427 . S
C310 H301 0.930 . S
C310 C308 1.378 . S
C310 C311 1.367 . S
C311 C310 1.367 . S
C311 C313 1.433 . S
C312 C308 1.350 . S
C312 C309 1.463 . S
C312 N316 1.427 . S
C313 H303 0.929 . S
C313 C311 1.433 . S
C313 N316 1.384 . S
C314 H305 0.929 . S
C314 C306 1.378 . S
C314 C309 1.350 . S
C315 H302 0.929 . S
C315 C307 1.433 . S
C315 N317 1.384 . S
N316 C312 1.427 . S
N316 C313 1.384 . S
N317 C309 1.427 . S
N317 C315 1.384 . S
H318 C324 0.930 . S
H319 C328 0.930 . S
H320 C333 0.929 . S
H321 C331 0.929 . S
H322 C326 0.929 . S
H323 C332 0.929 . S
C324 H318 0.930 . S
C324 C325 1.389 . S
C324 C332 1.378 . S
C325 C324 1.389 . S
C325 C333 1.412 1_455 S
C326 H322 0.929 . S
C326 C328 1.378 . S
C326 C330 1.335 1_655 S
C327 C330 1.463 . S
C327 C332 1.350 . S
C327 N335 1.427 1_455 S
C328 H319 0.930 . S
C328 C326 1.378 . S
C328 C329 1.367 1_655 S
C329 C328 1.367 1_455 S
C329 C331 1.433 . S
C330 C326 1.335 1_455 S
C330 C327 1.463 . S
C330 N334 1.443 . S
C331 H321 0.929 . S
C331 C329 1.433 . S
C331 N334 1.384 . S
C332 H323 0.929 . S
C332 C324 1.378 . S
C332 C327 1.350 . S
C333 H320 0.929 . S
C333 C325 1.412 1_655 S
C333 N335 1.384 . S
N334 C330 1.443 . S
N334 C331 1.384 . S
N335 C327 1.427 1_655 S
N335 C333 1.384 . S
H336 C342 0.930 . S
H337 C346 0.930 . S
H338 C351 0.929 . S
H339 C349 0.929 . S
H340 C344 0.929 . S
H341 C350 0.929 . S
C342 H336 0.930 . S
C342 C343 1.377 . S
C342 C350 1.378 . S
C343 C342 1.377 . S
C343 C351 1.423 1_565 S
C344 H340 0.929 . S
C344 C346 1.378 . S
C344 C348 1.350 1_545 S
C345 C348 1.462 . S
C345 C350 1.376 . S
C345 N353 1.401 1_565 S
C346 H337 0.930 . S
C346 C344 1.378 . S
C346 C347 1.350 1_544 S
C347 C346 1.350 1_566 S
C347 C349 1.450 . S
C348 C344 1.350 1_565 S
C348 C345 1.462 . S
C348 N352 1.427 . S
C349 H339 0.929 . S
C349 C347 1.450 . S
C349 N352 1.384 1_556 S
C350 H341 0.929 . S
C350 C342 1.378 . S
C350 C345 1.376 . S
C351 H338 0.929 . S
C351 C343 1.423 1_545 S
C351 N353 1.384 . S
N352 C348 1.427 . S
N352 C349 1.384 1_554 S
N353 C345 1.401 1_545 S
N353 C351 1.384 . S
H354 C360 0.930 . S
H355 C364 0.930 . S
H356 C369 0.929 . S
H357 C367 0.929 . S
H358 C362 0.929 . S
H359 C368 0.929 . S
C360 H354 0.930 . S
C360 C361 1.367 . S
C360 C368 1.378 . S
C361 C360 1.367 . S
C361 C369 1.433 . S
C362 H358 0.929 . S
C362 C364 1.378 . S
C362 C366 1.350 . S
C363 C366 1.463 . S
C363 C368 1.350 . S
C363 N371 1.427 . S
C364 H355 0.930 . S
C364 C362 1.378 . S
C364 C365 1.367 1_554 S
C365 C364 1.367 1_556 S
C365 C367 1.433 . S
C366 C362 1.350 . S
C366 C363 1.463 . S
C366 N370 1.427 1_554 S
C367 H357 0.929 . S
C367 C365 1.433 . S
C367 N370 1.384 . S
C368 H359 0.929 . S
C368 C360 1.378 . S
C368 C363 1.350 . S
C369 H356 0.929 . S
C369 C361 1.433 . S
C369 N371 1.384 . S
N370 C366 1.427 1_556 S
N370 C367 1.384 . S
N371 C363 1.427 . S
N371 C369 1.384 . S
H372 C378 0.930 . S
H373 C382 0.930 . S
H374 C387 0.929 . S
H375 C385 0.929 . S
H376 C380 0.929 . S
H377 C386 0.929 . S
C378 H372 0.930 . S
C378 C379 1.367 . S
C378 C386 1.378 . S
C379 C378 1.367 . S
C379 C387 1.433 . S
C380 H376 0.929 . S
C380 C382 1.378 1_554 S
C380 C384 1.350 . S
C381 C384 1.463 . S
C381 C386 1.350 . S
C381 N389 1.427 . S
C382 H373 0.930 . S
C382 C380 1.378 1_556 S
C382 C383 1.367 . S
C383 C382 1.367 . S
C383 C385 1.433 . S
C384 C380 1.350 . S
C384 C381 1.463 . S
C384 N388 1.427 . S
C385 H375 0.929 . S
C385 C383 1.433 . S
C385 N388 1.384 1_556 S
C386 H377 0.929 . S
C386 C378 1.378 . S
C386 C381 1.350 . S
C387 H374 0.929 . S
C387 C379 1.433 . S
C387 N389 1.384 . S
N388 C384 1.427 . S
N388 C385 1.384 1_554 S
N389 C381 1.427 . S
N389 C387 1.384 . S
H390 C396 0.930 . S
H391 C400 0.930 . S
H392 C405 0.929 . S
H393 C403 0.929 . S
H394 C398 0.929 . S
H395 C404 0.929 . S
C396 H390 0.930 . S
C396 C397 1.364 . S
C396 C404 1.378 . S
C397 C396 1.364 . S
C397 C405 1.436 1_455 S
C398 H394 0.929 . S
C398 C400 1.378 . S
C398 C402 1.350 . S
C399 C402 1.463 . S
C399 C404 1.343 1_655 S
C399 N407 1.434 . S
C400 H391 0.930 . S
C400 C398 1.378 . S
C400 C401 1.367 1_554 S
C401 C400 1.367 1_556 S
C401 C403 1.433 1_655 S
C402 C398 1.350 . S
C402 C399 1.463 . S
C402 N406 1.427 1_655 S
C403 H393 0.929 . S
C403 C401 1.433 1_455 S
C403 N406 1.384 1_556 S
C404 H395 0.929 . S
C404 C396 1.378 . S
C404 C399 1.343 1_455 S
C405 H392 0.929 . S
C405 C397 1.436 1_655 S
C405 N407 1.384 . S
N406 C402 1.427 1_455 S
N406 C403 1.384 1_554 S
N407 C399 1.434 . S
N407 C405 1.384 . S
H408 C414 0.930 . S
H409 C418 0.930 . S
H410 C423 0.929 . S
H411 C421 0.929 . S
H412 C416 0.929 1_455 S
H413 C422 0.929 . S
C414 H408 0.930 . S
C414 C415 1.367 1_655 S
C414 C422 1.378 . S
C415 C414 1.367 1_455 S
C415 C423 1.433 . S
C416 H412 0.929 1_655 S
C416 C418 1.378 . S
C416 C420 1.350 . S
C417 C420 1.463 . S
C417 C422 1.350 . S
C417 N425 1.427 1_655 S
C418 H409 0.930 . S
C418 C416 1.378 . S
C418 C419 1.367 . S
C419 C418 1.367 . S
C419 C421 1.433 . S
C420 C416 1.350 . S
C420 C417 1.463 . S
C420 N424 1.427 . S
C421 H411 0.929 . S
C421 C419 1.433 . S
C421 N424 1.384 . S
C422 H413 0.929 . S
C422 C414 1.378 . S
C422 C417 1.350 . S
C423 H410 0.929 . S
C423 C415 1.433 . S
C423 N425 1.384 . S
N424 C420 1.427 . S
N424 C421 1.384 . S
N425 C417 1.427 1_455 S
N425 C423 1.384 . S
H426 C432 0.930 . S
H427 C436 0.930 . S
H428 C441 0.929 . S
H429 C439 0.929 . S
H430 C434 0.929 . S
H431 C440 0.929 . S
C432 H426 0.930 . S
C432 C433 1.367 . S
C432 C440 1.378 . S
C433 C432 1.367 . S
C433 C441 1.433 1_545 S
C434 H430 0.929 . S
C434 C436 1.378 . S
C434 C438 1.350 . S
C435 C438 1.463 . S
C435 C440 1.350 1_565 S
C435 N443 1.427 . S
C436 H427 0.930 . S
C436 C434 1.378 . S
C436 C437 1.367 . S
C437 C436 1.367 . S
C437 C439 1.433 . S
C438 C434 1.350 . S
C438 C435 1.463 . S
C438 N442 1.427 . S
C439 H429 0.929 . S
C439 C437 1.433 . S
C439 N442 1.384 . S
C440 H431 0.929 . S
C440 C432 1.378 . S
C440 C435 1.350 1_545 S
C441 H428 0.929 . S
C441 C433 1.433 1_565 S
C441 N443 1.384 . S
N442 C438 1.427 . S
N442 C439 1.384 . S
N443 C435 1.427 . S
N443 C441 1.384 . S
H444 C450 0.930 . S
H445 C454 0.930 . S
H446 C459 0.929 . S
H447 C457 0.929 . S
H448 C452 0.929 . S
H449 C458 0.929 . S
C450 H444 0.930 . S
C450 C451 1.367 . S
C450 C458 1.378 . S
C451 C450 1.367 . S
C451 C459 1.433 . S
C452 H448 0.929 . S
C452 C454 1.378 . S
C452 C456 1.350 . S
C453 C456 1.463 . S
C453 C458 1.350 . S
C453 N461 1.427 . S
C454 H445 0.930 . S
C454 C452 1.378 . S
C454 C455 1.367 . S
C455 C454 1.367 . S
C455 C457 1.433 . S
C456 C452 1.350 . S
C456 C453 1.463 . S
C456 N460 1.427 . S
C457 H447 0.929 . S
C457 C455 1.433 . S
C457 N460 1.384 . S
C458 H449 0.929 . S
C458 C450 1.378 . S
C458 C453 1.350 . S
C459 H446 0.929 . S
C459 C451 1.433 . S
C459 N461 1.384 . S
N460 C456 1.427 . S
N460 C457 1.384 . S
N461 C453 1.427 . S
N461 C459 1.384 . S
H462 C468 0.930 . S
H463 C472 0.930 . S
H464 C477 0.929 . S
H465 C475 0.929 . S
H466 C470 0.929 . S
H467 C476 0.929 . S
C468 H462 0.930 . S
C468 C469 1.367 . S
C468 C476 1.378 . S
C469 C468 1.367 . S
C469 C477 1.433 . S
C470 H466 0.929 . S
C470 C472 1.378 . S
C470 C474 1.350 . S
C471 C474 1.463 . S
C471 C476 1.350 . S
C471 N479 1.427 . S
C472 H463 0.930 . S
C472 C470 1.378 . S
C472 C473 1.367 . S
C473 C472 1.367 . S
C473 C475 1.433 . S
C474 C470 1.350 . S
C474 C471 1.463 . S
C474 N478 1.427 . S
C475 H465 0.929 . S
C475 C473 1.433 . S
C475 N478 1.384 . S
C476 H467 0.929 . S
C476 C468 1.378 . S
C476 C471 1.350 . S
C477 H464 0.929 . S
C477 C469 1.433 . S
C477 N479 1.384 . S
N478 C474 1.427 . S
N478 C475 1.384 . S
N479 C471 1.427 . S
N479 C477 1.384 . S
H480 C486 0.930 . S
H481 C490 0.930 . S
H482 C495 0.929 . S
H483 C493 0.929 . S
H484 C488 0.929 . S
H485 C494 0.929 . S
C486 H480 0.930 . S
C486 C487 1.367 . S
C486 C494 1.378 . S
C487 C486 1.367 . S
C487 C495 1.433 1_655 S
C488 H484 0.929 . S
C488 C490 1.378 . S
C488 C492 1.350 . S
C489 C492 1.463 . S
C489 C494 1.350 1_455 S
C489 N497 1.427 . S
C490 H481 0.930 . S
C490 C488 1.378 . S
C490 C491 1.367 . S
C491 C490 1.367 . S
C491 C493 1.433 . S
C492 C488 1.350 . S
C492 C489 1.463 . S
C492 N496 1.427 . S
C493 H483 0.929 . S
C493 C491 1.433 . S
C493 N496 1.384 . S
C494 H485 0.929 . S
C494 C486 1.378 . S
C494 C489 1.350 1_655 S
C495 H482 0.929 . S
C495 C487 1.433 1_455 S
C495 N497 1.384 . S
N496 C492 1.427 . S
N496 C493 1.384 . S
N497 C489 1.427 . S
N497 C495 1.384 . S
H498 C504 0.930 . S
H499 C508 0.930 . S
H500 C513 0.929 . S
H501 C511 0.929 . S
H502 C506 0.929 . S
H503 C512 0.929 . S
C504 H498 0.930 . S
C504 C505 1.367 . S
C504 C512 1.378 . S
C505 C504 1.367 . S
C505 C513 1.433 1_565 S
C506 H502 0.929 . S
C506 C508 1.378 . S
C506 C510 1.350 . S
C507 C510 1.463 . S
C507 C512 1.350 1_545 S
C507 N515 1.427 . S
C508 H499 0.930 . S
C508 C506 1.378 . S
C508 C509 1.367 . S
C509 C508 1.367 . S
C509 C511 1.433 . S
C510 C506 1.350 . S
C510 C507 1.463 . S
C510 N514 1.427 . S
C511 H501 0.929 . S
C511 C509 1.433 . S
C511 N514 1.384 . S
C512 H503 0.929 . S
C512 C504 1.378 . S
C512 C507 1.350 1_565 S
C513 H500 0.929 . S
C513 C505 1.433 1_545 S
C513 N515 1.384 . S
N514 C510 1.427 . S
N514 C511 1.384 . S
N515 C507 1.427 . S
N515 C513 1.384 . S
H516 C522 0.930 . S
H517 C526 0.930 . S
H518 C531 0.929 . S
H519 C529 0.929 . S
H520 C524 0.929 . S
H521 C530 0.929 . S
C522 H516 0.930 . S
C522 C523 1.367 . S
C522 C530 1.378 . S
C523 C522 1.367 . S
C523 C531 1.433 . S
C524 H520 0.929 . S
C524 C526 1.378 . S
C524 C528 1.350 . S
C525 C528 1.463 . S
C525 C530 1.350 . S
C525 N533 1.427 . S
C526 H517 0.930 . S
C526 C524 1.378 . S
C526 C527 1.367 . S
C527 C526 1.367 . S
C527 C529 1.433 . S
C528 C524 1.350 . S
C528 C525 1.463 . S
C528 N532 1.427 . S
C529 H519 0.929 . S
C529 C527 1.433 . S
C529 N532 1.384 . S
C530 H521 0.929 . S
C530 C522 1.378 . S
C530 C525 1.350 . S
C531 H518 0.929 . S
C531 C523 1.433 . S
C531 N533 1.384 . S
N532 C528 1.427 . S
N532 C529 1.384 . S
N533 C525 1.427 . S
N533 C531 1.384 . S
H534 C540 0.930 . S
H535 C544 0.930 . S
H536 C549 0.929 . S
H537 C547 0.929 . S
H538 C542 0.929 . S
H539 C548 0.929 . S
C540 H534 0.930 . S
C540 C541 1.367 . S
C540 C548 1.378 . S
C541 C540 1.367 . S
C541 C549 1.433 . S
C542 H538 0.929 . S
C542 C544 1.378 . S
C542 C546 1.350 . S
C543 C546 1.463 . S
C543 C548 1.350 . S
C543 N551 1.427 . S
C544 H535 0.930 . S
C544 C542 1.378 . S
C544 C545 1.367 . S
C545 C544 1.367 . S
C545 C547 1.433 . S
C546 C542 1.350 . S
C546 C543 1.463 . S
C546 N550 1.427 . S
C547 H537 0.929 . S
C547 C545 1.433 . S
C547 N550 1.384 . S
C548 H539 0.929 . S
C548 C540 1.378 . S
C548 C543 1.350 . S
C549 H536 0.929 . S
C549 C541 1.433 . S
C549 N551 1.384 . S
N550 C546 1.427 . S
N550 C547 1.384 . S
N551 C543 1.427 . S
N551 C549 1.384 . S
H552 C558 0.930 . S
H553 C562 0.930 . S
H554 C567 0.929 . S
H555 C565 0.929 . S
H556 C560 0.929 . S
H557 C566 0.929 . S
C558 H552 0.930 . S
C558 C559 1.367 1_655 S
C558 C566 1.378 . S
C559 C558 1.367 1_455 S
C559 C567 1.433 . S
C560 H556 0.929 . S
C560 C562 1.378 . S
C560 C564 1.350 . S
C561 C564 1.463 . S
C561 C566 1.350 1_455 S
C561 N569 1.427 . S
C562 H553 0.930 . S
C562 C560 1.378 . S
C562 C563 1.367 . S
C563 C562 1.367 . S
C563 C565 1.433 1_455 S
C564 C560 1.350 . S
C564 C561 1.463 . S
C564 N568 1.427 1_455 S
C565 H555 0.929 . S
C565 C563 1.433 1_655 S
C565 N568 1.384 . S
C566 H557 0.929 . S
C566 C558 1.378 . S
C566 C561 1.350 1_655 S
C567 H554 0.929 . S
C567 C559 1.433 . S
C567 N569 1.384 . S
N568 C564 1.427 1_655 S
N568 C565 1.384 . S
N569 C561 1.427 . S
N569 C567 1.384 . S
H570 C576 0.930 1_554 S
H571 C580 0.930 . S
H572 C585 0.928 1_565 S
H573 C583 0.929 . S
H574 C578 0.929 . S
H575 C584 0.929 1_554 S
C576 H570 0.930 1_556 S
C576 C577 1.367 . S
C576 C584 1.378 . S
C577 C576 1.367 . S
C577 C585 1.434 . S
C578 H574 0.929 . S
C578 C580 1.378 . S
C578 C582 1.350 . S
C579 C582 1.463 . S
C579 C584 1.350 . S
C579 N587 1.427 . S
C580 H571 0.930 . S
C580 C578 1.378 . S
C580 C581 1.367 . S
C581 C580 1.367 . S
C581 C583 1.433 . S
C582 C578 1.350 . S
C582 C579 1.463 . S
C582 N586 1.427 . S
C583 H573 0.929 . S
C583 C581 1.433 . S
C583 N586 1.384 . S
C584 H575 0.929 1_556 S
C584 C576 1.378 . S
C584 C579 1.350 . S
C585 H572 0.928 1_545 S
C585 C577 1.434 . S
C585 N587 1.384 . S
N586 C582 1.427 . S
N586 C583 1.384 . S
N587 C579 1.427 . S
N587 C585 1.384 . S
H588 C594 0.930 . S
H589 C598 0.930 . S
H590 C603 0.929 . S
H591 C601 0.929 . S
H592 C596 0.929 . S
H593 C602 0.929 . S
C594 H588 0.930 . S
C594 C595 1.367 . S
C594 C602 1.378 . S
C595 C594 1.367 . S
C595 C603 1.433 . S
C596 H592 0.929 . S
C596 C598 1.378 . S
C596 C600 1.350 . S
C597 C600 1.463 . S
C597 C602 1.350 . S
C597 N605 1.427 . S
C598 H589 0.930 . S
C598 C596 1.378 . S
C598 C599 1.367 . S
C599 C598 1.367 . S
C599 C601 1.433 . S
C600 C596 1.350 . S
C600 C597 1.463 . S
C600 N604 1.427 . S
C601 H591 0.929 . S
C601 C599 1.433 . S
C601 N604 1.384 . S
C602 H593 0.929 . S
C602 C594 1.378 . S
C602 C597 1.350 . S
C603 H590 0.929 . S
C603 C595 1.433 . S
C603 N605 1.384 . S
N604 C600 1.427 . S
N604 C601 1.384 . S
N605 C597 1.427 . S
N605 C603 1.384 . S
H606 C612 0.930 . S
H607 C616 0.930 . S
H608 C621 0.929 . S
H609 C619 0.929 . S
H610 C614 0.929 . S
H611 C620 0.929 . S
C612 H606 0.930 . S
C612 C613 1.367 . S
C612 C620 1.378 . S
C613 C612 1.367 . S
C613 C621 1.433 . S
C614 H610 0.929 . S
C614 C616 1.378 . S
C614 C618 1.350 . S
C615 C618 1.463 . S
C615 C620 1.350 . S
C615 N623 1.427 . S
C616 H607 0.930 . S
C616 C614 1.378 . S
C616 C617 1.367 . S
C617 C616 1.367 . S
C617 C619 1.433 . S
C618 C614 1.350 . S
C618 C615 1.463 . S
C618 N622 1.427 . S
C619 H609 0.929 . S
C619 C617 1.433 . S
C619 N622 1.384 . S
C620 H611 0.929 . S
C620 C612 1.378 . S
C620 C615 1.350 . S
C621 H608 0.929 . S
C621 C613 1.433 . S
C621 N623 1.384 . S
N622 C618 1.427 . S
N622 C619 1.384 . S
N623 C615 1.427 . S
N623 C621 1.384 . S
H624 C630 0.930 . S
H625 C634 0.930 . S
H626 C639 0.929 . S
H627 C637 0.929 . S
H628 C632 0.929 . S
H629 C638 0.929 . S
C630 H624 0.930 . S
C630 C631 1.367 . S
C630 C638 1.378 . S
C631 C630 1.367 . S
C631 C639 1.433 1_655 S
C632 H628 0.929 . S
C632 C634 1.378 . S
C632 C636 1.350 1_455 S
C633 C636 1.463 . S
C633 C638 1.350 . S
C633 N641 1.427 1_655 S
C634 H625 0.930 . S
C634 C632 1.378 . S
C634 C635 1.367 1_455 S
C635 C634 1.367 1_655 S
C635 C637 1.433 . S
C636 C632 1.350 1_655 S
C636 C633 1.463 . S
C636 N640 1.427 . S
C637 H627 0.929 . S
C637 C635 1.433 . S
C637 N640 1.384 . S
C638 H629 0.929 . S
C638 C630 1.378 . S
C638 C633 1.350 . S
C639 H626 0.929 . S
C639 C631 1.433 1_455 S
C639 N641 1.384 . S
N640 C636 1.427 . S
N640 C637 1.384 . S
N641 C633 1.427 1_455 S
N641 C639 1.384 . S
H642 C648 0.930 . S
H643 C652 0.930 . S
H644 C657 0.929 . S
H645 C655 0.929 . S
H646 C650 0.929 . S
H647 C656 0.929 . S
C648 H642 0.930 . S
C648 C649 1.367 1_545 S
C648 C656 1.378 . S
C649 C648 1.367 1_565 S
C649 C657 1.433 . S
C650 H646 0.929 . S
C650 C652 1.378 . S
C650 C654 1.350 . S
C651 C654 1.463 . S
C651 C656 1.350 1_565 S
C651 N659 1.427 . S
C652 H643 0.930 . S
C652 C650 1.378 . S
C652 C653 1.367 . S
C653 C652 1.367 . S
C653 C655 1.433 1_565 S
C654 C650 1.350 . S
C654 C651 1.463 . S
C654 N658 1.427 1_565 S
C655 H645 0.929 . S
C655 C653 1.433 1_545 S
C655 N658 1.384 . S
C656 H647 0.929 . S
C656 C648 1.378 . S
C656 C651 1.350 1_545 S
C657 H644 0.929 . S
C657 C649 1.433 . S
C657 N659 1.384 . S
N658 C654 1.427 1_545 S
N658 C655 1.384 . S
N659 C651 1.427 . S
N659 C657 1.384 . S
H660 C666 0.930 . S
H661 C670 0.930 . S
H662 C675 0.929 . S
H663 C673 0.929 . S
H664 C668 0.929 . S
H665 C674 0.929 . S
C666 H660 0.930 . S
C666 C667 1.367 . S
C666 C674 1.378 . S
C667 C666 1.367 . S
C667 C675 1.433 . S
C668 H664 0.929 . S
C668 C670 1.378 . S
C668 C672 1.350 . S
C669 C672 1.463 . S
C669 C674 1.350 . S
C669 N677 1.427 . S
C670 H661 0.930 . S
C670 C668 1.378 . S
C670 C671 1.367 . S
C671 C670 1.367 . S
C671 C673 1.433 . S
C672 C668 1.350 . S
C672 C669 1.463 . S
C672 N676 1.427 . S
C673 H663 0.929 . S
C673 C671 1.433 . S
C673 N676 1.384 . S
C674 H665 0.929 . S
C674 C666 1.378 . S
C674 C669 1.350 . S
C675 H662 0.929 . S
C675 C667 1.433 . S
C675 N677 1.384 . S
N676 C672 1.427 . S
N676 C673 1.384 . S
N677 C669 1.427 . S
N677 C675 1.384 . S
H678 C684 0.930 . S
H679 C688 0.930 . S
H680 C693 0.929 . S
H681 C691 0.929 . S
H682 C686 0.929 . S
H683 C692 0.929 . S
C684 H678 0.930 . S
C684 C685 1.367 . S
C684 C692 1.378 . S
C685 C684 1.367 . S
C685 C693 1.433 . S
C686 H682 0.929 . S
C686 C688 1.378 . S
C686 C690 1.350 . S
C687 C690 1.463 . S
C687 C692 1.350 . S
C687 N695 1.427 . S
C688 H679 0.930 . S
C688 C686 1.378 . S
C688 C689 1.367 . S
C689 C688 1.367 . S
C689 C691 1.433 . S
C690 C686 1.350 . S
C690 C687 1.463 . S
C690 N694 1.427 . S
C691 H681 0.929 . S
C691 C689 1.433 . S
C691 N694 1.384 . S
C692 H683 0.929 . S
C692 C684 1.378 . S
C692 C687 1.350 . S
C693 H680 0.929 . S
C693 C685 1.433 . S
C693 N695 1.384 . S
N694 C690 1.427 . S
N694 C691 1.384 . S
N695 C687 1.427 . S
N695 C693 1.384 . S
C271 C82 1.676 1_565 S
C275 C113 1.959 1_545 S
C293 C153 1.968 . S
C289 C95 1.669 . S
C311 C193 1.971 . S
C307 C56 1.689 . S
C329 C233 1.962 1_455 S
C325 C69 1.679 . S
C347 C122 1.959 1_565 S
C343 C30 1.678 1_565 S
C361 C43 1.682 . S
C365 C162 1.972 . S
C379 C4 1.694 . S
C383 C202 1.975 . S
C397 C17 1.678 . S
C401 C242 1.966 1_655 S
C419 C119 0.497 . S
C415 C74 0.501 . S
C437 C159 0.530 . S
C433 C87 0.548 . S
C455 C199 0.517 . S
C451 C100 0.541 . S
C469 C61 0.536 . S
C473 C239 0.509 . S
C487 C22 0.535 1_655 S
C491 C110 0.531 . S
C509 C150 0.537 . S
C505 C35 0.544 1_565 S
C527 C190 0.509 . S
C523 C48 0.511 . S
C541 C9 0.536 . S
C545 C230 0.513 . S
C559 C73 2.048 . S
C563 C123 2.276 . S
C577 C86 2.027 . S
C581 C163 2.259 . S
C599 C203 2.246 . S
C595 C99 2.032 . S
C617 C243 2.266 . S
C613 C60 2.041 . S
C631 C21 2.063 1_655 S
C635 C114 2.283 . S
C653 C154 2.261 . S
C649 C34 2.042 1_565 S
C671 C194 2.252 . S
C667 C47 2.027 . S
C685 C8 2.044 . S
C689 C234 2.271 . S
