# Generated by pormake.
# Topology anh, (6,3)-cn, num edge types: 1
# Building blocks:
#     Node 0, Type 0, BuildingBlock: MIFKUJ_clean_sbu_0, # of connection points: 6
#     Node 1, Type 0, BuildingBlock: MIFKUJ_clean_sbu_0, # of connection points: 6
#     Node 2, Type 0, BuildingBlock: MIFKUJ_clean_sbu_0, # of connection points: 6
#     Node 3, Type 1, BuildingBlock: CUQRIR_clean_linker_1, # of connection points: 3
#     Node 4, Type 1, BuildingBlock: CUQRIR_clean_linker_1, # of connection points: 3
#     Node 5, Type 1, BuildingBlock: CUQRIR_clean_linker_1, # of connection points: 3
#     Node 6, Type 1, BuildingBlock: CUQRIR_clean_linker_1, # of connection points: 3
#     Node 7, Type 1, BuildingBlock: CUQRIR_clean_linker_1, # of connection points: 3
#     Node 8, Type 1, BuildingBlock: CUQRIR_clean_linker_1, # of connection points: 3
#     Edge 9, Type (0, 1), BuildingBlock: UVAHIK_clean_linker_0, # of connection points: 2
#     Edge 10, Type (0, 1), BuildingBlock: UVAHIK_clean_linker_0, # of connection points: 2
#     Edge 11, Type (0, 1), BuildingBlock: UVAHIK_clean_linker_0, # of connection points: 2
#     Edge 12, Type (0, 1), BuildingBlock: UVAHIK_clean_linker_0, # of connection points: 2
#     Edge 13, Type (0, 1), BuildingBlock: UVAHIK_clean_linker_0, # of connection points: 2
#     Edge 14, Type (0, 1), BuildingBlock: UVAHIK_clean_linker_0, # of connection points: 2
#     Edge 15, Type (0, 1), BuildingBlock: UVAHIK_clean_linker_0, # of connection points: 2
#     Edge 16, Type (0, 1), BuildingBlock: UVAHIK_clean_linker_0, # of connection points: 2
#     Edge 17, Type (0, 1), BuildingBlock: UVAHIK_clean_linker_0, # of connection points: 2
#     Edge 18, Type (0, 1), BuildingBlock: UVAHIK_clean_linker_0, # of connection points: 2
#     Edge 19, Type (0, 1), BuildingBlock: UVAHIK_clean_linker_0, # of connection points: 2
#     Edge 20, Type (0, 1), BuildingBlock: UVAHIK_clean_linker_0, # of connection points: 2
#     Edge 21, Type (0, 1), BuildingBlock: UVAHIK_clean_linker_0, # of connection points: 2
#     Edge 22, Type (0, 1), BuildingBlock: UVAHIK_clean_linker_0, # of connection points: 2
#     Edge 23, Type (0, 1), BuildingBlock: UVAHIK_clean_linker_0, # of connection points: 2
#     Edge 24, Type (0, 1), BuildingBlock: UVAHIK_clean_linker_0, # of connection points: 2
#     Edge 25, Type (0, 1), BuildingBlock: UVAHIK_clean_linker_0, # of connection points: 2
#     Edge 26, Type (0, 1), BuildingBlock: UVAHIK_clean_linker_0, # of connection points: 2
# Relax obj value: 0.119
# Max RMSD: 0.213
# Mean RMSD: 0.152
data_MOF--net-anh--node1-MIFKUJ_clean_sbu_0--node2-CUQRIR_clean_linker_1--edge1-UVAHIK_clean_linker_0
_symmetry_space_group_name_H-M    P1
_symmetry_Int_Tables_number       1
_symmetry_cell_setting            triclinic
loop_
_symmetry_equiv_pos_as_xyz
'x, y, z'
_cell_length_a     37.592933
_cell_length_b     37.766933
_cell_length_c     58.500553
_cell_angle_alpha  89.617895
_cell_angle_beta   90.817843
_cell_angle_gamma 119.87349
loop_
_atom_site_label
_atom_site_type_symbol
_atom_site_fract_x
_atom_site_fract_y
_atom_site_fract_z
_atom_type_partial_charge
Zn0 Zn 0.019 0.52067 0.1527 0.0
Zn1 Zn 0.93393 0.43092 0.15626 0.0
C2 C 0.08458 0.50889 0.17049 0.0
O3 O 0.0823 0.53073 0.18719 0.0
C4 C 0.86048 0.43348 0.14516 0.0
O5 O 0.85268 0.39912 0.13535 0.0
O6 O 0.05658 0.58076 0.14969 0.0
O7 O 0.98626 0.50373 0.12329 0.0
O8 O 0.96145 0.43739 0.12599 0.0
C9 C 0.07958 0.59359 0.13234 0.0
O10 O 0.07624 0.56725 0.11671 0.0
O11 O 0.0587 0.49824 0.15402 0.0
C12 C 0.87914 0.35886 0.17966 0.0
O13 O 0.88595 0.38604 0.19554 0.0
O14 O 0.89715 0.37082 0.16062 0.0
O15 O 0.96915 0.44764 0.18489 0.0
O16 O 0.99038 0.51321 0.18277 0.0
O17 O 0.89525 0.45498 0.15504 0.0
C18 C 0.97534 0.46953 0.11393 0.0
C19 C 0.98063 0.48155 0.19468 0.0
Zn20 Zn 0.61667 0.0821 0.49532 0.0
Zn21 Zn 0.60791 0.98424 0.50328 0.0
C22 C 0.69809 0.14771 0.50132 0.0
O23 O 0.68028 0.15123 0.51965 0.0
C24 C 0.53367 0.91969 0.48386 0.0
O25 O 0.56049 0.91964 0.46972 0.0
O26 O 0.59307 0.1187 0.49035 0.0
O27 O 0.58697 0.03614 0.47302 0.0
O28 O 0.63047 0.01339 0.47314 0.0
C29 C 0.60272 0.14092 0.47257 0.0
O30 O 0.6266 0.13804 0.4574 0.0
O31 O 0.67725 0.11787 0.48782 0.0
C32 C 0.61205 0.92226 0.52623 0.0
O33 O 0.58517 0.92698 0.538 0.0
O34 O 0.62885 0.94539 0.50916 0.0
O35 O 0.61803 0.01469 0.53308 0.0
O36 O 0.61081 0.06908 0.52868 0.0
O37 O 0.54634 0.94663 0.49953 0.0
C38 C 0.60756 0.02362 0.4622 0.0
C39 C 0.61531 0.04421 0.5414 0.0
Zn40 Zn 0.63412 0.62363 0.84169 0.0
Zn41 Zn 0.54425 0.6365 0.848 0.0
C42 C 0.61609 0.54404 0.85261 0.0
O43 O 0.64127 0.56593 0.8692 0.0
C44 C 0.54657 0.70501 0.82516 0.0
O45 O 0.51817 0.67527 0.8127 0.0
O46 O 0.69264 0.64114 0.83464 0.0
O47 O 0.61517 0.65022 0.8184 0.0
O48 O 0.54884 0.60911 0.81955 0.0
C49 C 0.69834 0.62849 0.81571 0.0
O50 O 0.6668 0.60794 0.80189 0.0
O51 O 0.6053 0.56193 0.83784 0.0
C52 C 0.47301 0.63126 0.86729 0.0
O53 O 0.50112 0.66577 0.8765 0.0
O54 O 0.48413 0.61176 0.85434 0.0
O55 O 0.5706 0.63296 0.87764 0.0
O56 O 0.6305 0.63513 0.87479 0.0
O57 O 0.56417 0.69621 0.84114 0.0
C58 C 0.58187 0.62563 0.80833 0.0
C59 C 0.60225 0.63446 0.88679 0.0
C60 C 0.48915 0.9558 0.18874 0.0
N61 N 0.51733 0.9747 0.20558 0.0
N62 N 0.45524 0.92327 0.19714 0.0
C63 C 0.49564 0.96743 0.16387 0.0
C64 C 0.46374 0.9229 0.21968 0.0
N65 N 0.50172 0.95411 0.22482 0.0
C66 C 0.43347 0.89441 0.23689 0.0
H67 H 0.47785 0.94027 0.15281 0.0
H68 H 0.52861 0.98206 0.15952 0.0
H69 H 0.48491 0.9895 0.16029 0.0
H70 H 0.4378 0.86761 0.23916 0.0
H71 H 0.40147 0.88337 0.23098 0.0
H72 H 0.43827 0.90971 0.25369 0.0
C73 C 0.595 0.52018 0.53726 0.0
N74 N 0.5978 0.54277 0.55577 0.0
N75 N 0.58594 0.48208 0.54365 0.0
C76 C 0.59743 0.53408 0.51287 0.0
C77 C 0.58313 0.48228 0.56672 0.0
N78 N 0.58995 0.51906 0.57406 0.0
C79 C 0.57741 0.44792 0.58223 0.0
H80 H 0.57889 0.50781 0.50135 0.0
H81 H 0.62985 0.54924 0.50736 0.0
H82 H 0.58644 0.55635 0.51123 0.0
H83 H 0.59034 0.43006 0.57454 0.0
H84 H 0.54412 0.42723 0.58492 0.0
H85 H 0.59232 0.45969 0.59913 0.0
C86 C 0.03548 0.53042 0.84185 0.0
N87 N 0.04929 0.51645 0.85919 0.0
N88 N 0.99574 0.51943 0.84495 0.0
C89 C 0.06181 0.55853 0.82327 0.0
C90 C 0.98598 0.49829 0.86484 0.0
N91 N 0.01848 0.49626 0.87348 0.0
C92 C 0.94682 0.48514 0.87753 0.0
H93 H 0.07477 0.59059 0.82905 0.0
H94 H 0.04328 0.55427 0.80753 0.0
H95 H 0.08752 0.5531 0.8194 0.0
H96 H 0.93617 0.4549 0.8856 0.0
H97 H 0.92236 0.48342 0.86595 0.0
H98 H 0.95267 0.50751 0.89132 0.0
C99 C 0.10313 0.53959 0.46608 0.0
N100 N 0.07226 0.51648 0.45111 0.0
N101 N 0.13059 0.57552 0.45634 0.0
C102 C 0.10517 0.52847 0.49058 0.0
C103 C 0.11554 0.57333 0.43493 0.0
N104 N 0.07995 0.53783 0.43184 0.0
C105 C 0.13762 0.60419 0.41637 0.0
H106 H 0.12265 0.55625 0.50123 0.0
H107 H 0.12108 0.51041 0.49149 0.0
H108 H 0.07392 0.50966 0.49758 0.0
H109 H 0.13101 0.58932 0.39934 0.0
H110 H 0.17128 0.6206 0.4194 0.0
H111 H 0.12702 0.62685 0.41618 0.0
C112 C 0.58919 0.13015 0.81213 0.0
N113 N 0.59302 0.10503 0.79712 0.0
N114 N 0.59673 0.16537 0.8017 0.0
C115 C 0.5806 0.12155 0.83716 0.0
C116 C 0.60514 0.16075 0.77987 0.0
N117 N 0.60318 0.12431 0.77714 0.0
C118 C 0.61228 0.19056 0.76086 0.0
H119 H 0.54691 0.10448 0.8396 0.0
H120 H 0.59363 0.15037 0.84709 0.0
H121 H 0.59346 0.10261 0.84379 0.0
H122 H 0.64578 0.21125 0.75902 0.0
H123 H 0.59785 0.20929 0.76461 0.0
H124 H 0.59983 0.1744 0.74438 0.0
C125 C 0.49268 0.50628 0.14866 0.0
N126 N 0.52653 0.51925 0.13555 0.0
N127 N 0.46888 0.5216 0.14075 0.0
C128 C 0.4838 0.48035 0.16968 0.0
C129 C 0.48936 0.54401 0.12232 0.0
N130 N 0.52442 0.54295 0.11934 0.0
C131 C 0.47329 0.56398 0.10602 0.0
H132 H 0.46687 0.44772 0.16458 0.0
H133 H 0.46452 0.48593 0.18169 0.0
H134 H 0.51272 0.48652 0.17842 0.0
H135 H 0.48599 0.59636 0.11111 0.0
H136 H 0.43932 0.54863 0.10635 0.0
H137 H 0.48294 0.56337 0.08826 0.0
C138 C 0.14458 0.50818 0.18938 0.0
C139 C 0.11981 0.50128 0.16981 0.0
C140 C 0.18031 0.5054 0.18842 0.0
C141 C 0.2377 0.46962 0.15209 0.0
H142 H 0.3311 0.55051 0.187 0.0
C143 C 0.39579 0.47653 0.15055 0.0
C144 C 0.43035 0.51572 0.14919 0.0
C145 C 0.35706 0.4716 0.15538 0.0
C146 C 0.30548 0.52779 0.17701 0.0
H147 H 0.11284 0.48493 0.13393 0.0
H148 H 0.1756 0.48093 0.13207 0.0
H149 H 0.26537 0.54763 0.18987 0.0
H150 H 0.45207 0.58021 0.15265 0.0
H151 H 0.38496 0.57206 0.16078 0.0
H152 H 0.27855 0.45111 0.13845 0.0
C153 C 0.16709 0.4878 0.14835 0.0
C154 C 0.26739 0.52572 0.17892 0.0
C155 C 0.13105 0.49022 0.14938 0.0
C156 C 0.42582 0.54971 0.15366 0.0
C157 C 0.38729 0.54489 0.15843 0.0
C158 C 0.27595 0.47183 0.1501 0.0
C159 C 0.19269 0.49606 0.16778 0.0
C160 C 0.23291 0.49682 0.16637 0.0
C161 C 0.35212 0.5058 0.15898 0.0
C162 C 0.31055 0.50127 0.16235 0.0
H163 H 0.13672 0.51642 0.20547 0.0
H164 H 0.19845 0.51099 0.20391 0.0
H165 H 0.21191 0.44658 0.14236 0.0
H166 H 0.39853 0.4499 0.14697 0.0
H167 H 0.33091 0.44099 0.15599 0.0
C168 C 0.75591 0.18436 0.47352 0.0
C169 C 0.74019 0.18053 0.49564 0.0
C170 C 0.794 0.21798 0.46782 0.0
C171 C 0.89049 0.30177 0.4931 0.0
H172 H 0.89662 0.35862 0.43657 0.0
C173 C 0.04054 0.44457 0.46389 0.0
C174 C 0.03649 0.47714 0.4552 0.0
C175 C 0.00577 0.40648 0.46787 0.0
C176 C 0.8954 0.34315 0.45245 0.0
H177 H 0.7529 0.20832 0.52929 0.0
H178 H 0.81899 0.26645 0.51943 0.0
H179 H 0.8341 0.29496 0.44548 0.0
H180 H 0.99321 0.49566 0.4439 0.0
H181 H 0.93234 0.42916 0.45066 0.0
H182 H 0.95136 0.35045 0.50035 0.0
C183 C 0.80212 0.24358 0.50646 0.0
C184 C 0.85971 0.30639 0.45743 0.0
C185 C 0.76403 0.21028 0.51208 0.0
C186 C 0.99708 0.47085 0.45037 0.0
C187 C 0.96232 0.43275 0.45421 0.0
C188 C 0.92625 0.33839 0.48806 0.0
C189 C 0.81736 0.24824 0.48418 0.0
C190 C 0.85658 0.28551 0.47797 0.0
C191 C 0.96618 0.40008 0.46309 0.0
C192 C 0.92898 0.35986 0.46781 0.0
H193 H 0.73829 0.16206 0.46043 0.0
H194 H 0.80503 0.22044 0.45056 0.0
H195 H 0.88928 0.2863 0.50898 0.0
H196 H 0.07067 0.44855 0.46738 0.0
H197 H 0.00993 0.38189 0.47444 0.0
C198 C 0.53591 0.75691 0.80391 0.0
C199 C 0.55491 0.74749 0.82194 0.0
C200 C 0.54126 0.79615 0.80167 0.0
C201 C 0.60766 0.90384 0.82004 0.0
H202 H 0.51337 0.91355 0.80165 0.0
C203 C 0.62138 0.05866 0.79533 0.0
C204 C 0.58972 0.06591 0.80168 0.0
C205 C 0.61768 0.02028 0.79866 0.0
C206 C 0.53994 0.91146 0.80704 0.0
H207 H 0.59507 0.77231 0.85159 0.0
H208 H 0.60408 0.8407 0.84784 0.0
H209 H 0.50629 0.84618 0.80583 0.0
H210 H 0.52949 0.0391 0.81652 0.0
H211 H 0.52312 0.97201 0.82296 0.0
H212 H 0.64108 0.96915 0.82171 0.0
C213 C 0.58538 0.81784 0.83523 0.0
C214 C 0.53603 0.87275 0.80912 0.0
C215 C 0.58011 0.77855 0.83743 0.0
C216 C 0.55443 0.03424 0.8117 0.0
C217 C 0.55068 0.99579 0.81511 0.0
C218 C 0.61156 0.94257 0.81799 0.0
C219 C 0.56565 0.82704 0.81746 0.0
C220 C 0.56988 0.8684 0.81553 0.0
C221 C 0.58219 0.98821 0.80849 0.0
C222 C 0.57779 0.94692 0.81136 0.0
H223 H 0.51646 0.73381 0.79158 0.0
H224 H 0.52624 0.80227 0.78751 0.0
H225 H 0.63447 0.90173 0.82485 0.0
H226 H 0.64895 0.08277 0.78767 0.0
H227 H 0.64233 0.01553 0.79307 0.0
C228 C 0.78713 0.41554 0.13996 0.0
C229 C 0.82785 0.44495 0.14556 0.0
C230 C 0.7557 0.42513 0.14043 0.0
C231 C 0.73431 0.50955 0.1356 0.0
H232 H 0.63127 0.43375 0.164 0.0
C233 C 0.60062 0.54432 0.14059 0.0
C234 C 0.5603 0.51157 0.13875 0.0
C235 C 0.63381 0.53735 0.14273 0.0
C236 C 0.65952 0.45505 0.15566 0.0
H237 H 0.86734 0.50785 0.15592 0.0
H238 H 0.81221 0.52496 0.15626 0.0
H239 H 0.68813 0.4201 0.1652 0.0
H240 H 0.52286 0.44594 0.13732 0.0
H241 H 0.58058 0.43328 0.14042 0.0
H242 H 0.70553 0.54385 0.12531 0.0
C243 C 0.80481 0.4943 0.15163 0.0
C244 C 0.69229 0.44729 0.1565 0.0
C245 C 0.83635 0.48448 0.15152 0.0
C246 C 0.55368 0.47161 0.13908 0.0
C247 C 0.58689 0.46453 0.14094 0.0
C248 C 0.70134 0.51708 0.13449 0.0
C249 C 0.76403 0.46459 0.14622 0.0
C250 C 0.73004 0.47429 0.14637 0.0
C251 C 0.62759 0.49731 0.14276 0.0
C252 C 0.66326 0.48983 0.1444 0.0
H253 H 0.7793 0.38474 0.13535 0.0
H254 H 0.72479 0.40165 0.13592 0.0
H255 H 0.76281 0.53072 0.1274 0.0
H256 H 0.60635 0.5754 0.14046 0.0
H257 H 0.66434 0.56347 0.14452 0.0
C258 C 0.46332 0.87977 0.50088 0.0
C259 C 0.4903 0.8862 0.48288 0.0
C260 C 0.42353 0.84593 0.5007 0.0
C261 C 0.36165 0.7434 0.47393 0.0
H262 H 0.26896 0.7511 0.49586 0.0
C263 C 0.1993 0.6021 0.47405 0.0
C264 C 0.16785 0.60869 0.46584 0.0
C265 C 0.23788 0.63527 0.47974 0.0
C266 C 0.29447 0.7484 0.4896 0.0
H267 H 0.49605 0.86285 0.45021 0.0
H268 H 0.42671 0.80473 0.44961 0.0
H269 H 0.33739 0.81103 0.49723 0.0
H270 H 0.15089 0.65443 0.45833 0.0
H271 H 0.21813 0.71243 0.46777 0.0
H272 H 0.3187 0.68138 0.46539 0.0
C273 C 0.43647 0.82508 0.4642 0.0
C274 C 0.33386 0.78273 0.49061 0.0
C275 C 0.47621 0.8587 0.46444 0.0
C276 C 0.17486 0.64877 0.46456 0.0
C277 C 0.21334 0.68191 0.47013 0.0
C278 C 0.32231 0.70917 0.47284 0.0
C279 C 0.40974 0.81782 0.48248 0.0
C280 C 0.36793 0.78086 0.48249 0.0
C281 C 0.24575 0.67571 0.47726 0.0
C282 C 0.28806 0.71127 0.4804 0.0
H283 H 0.47327 0.90025 0.51542 0.0
H284 H 0.40399 0.84123 0.51516 0.0
H285 H 0.38718 0.74048 0.46792 0.0
H286 H 0.19454 0.5714 0.47506 0.0
H287 H 0.26183 0.62924 0.48555 0.0
C288 C 0.61504 0.48144 0.86758 0.0
C289 C 0.60498 0.50066 0.85003 0.0
C290 C 0.6096 0.44242 0.86448 0.0
C291 C 0.55939 0.34957 0.82817 0.0
H292 H 0.65162 0.33757 0.84828 0.0
C293 C 0.63153 0.23902 0.80966 0.0
C294 C 0.59648 0.2003 0.81119 0.0
C295 C 0.6304 0.27381 0.81647 0.0
C296 C 0.62561 0.34039 0.84255 0.0
H297 H 0.57956 0.49308 0.81574 0.0
H298 H 0.57026 0.42474 0.81022 0.0
H299 H 0.6521 0.40117 0.85557 0.0
H300 H 0.53302 0.16704 0.82129 0.0
H301 H 0.53078 0.22813 0.83345 0.0
H302 H 0.5335 0.28894 0.8146 0.0
C303 C 0.58214 0.4399 0.82648 0.0
C304 C 0.62567 0.37673 0.84693 0.0
C305 C 0.58754 0.4791 0.82962 0.0
C306 C 0.56043 0.19671 0.82017 0.0
C307 C 0.55913 0.23162 0.82686 0.0
C308 C 0.55924 0.31302 0.82388 0.0
C309 C 0.59406 0.42153 0.8437 0.0
C310 C 0.59273 0.38195 0.83967 0.0
C311 C 0.59403 0.27065 0.82486 0.0
C312 C 0.59259 0.3082 0.8308 0.0
H313 H 0.62813 0.49696 0.88363 0.0
H314 H 0.61827 0.42886 0.87827 0.0
H315 H 0.53342 0.35248 0.82249 0.0
H316 H 0.65954 0.24229 0.80268 0.0
H317 H 0.6577 0.30336 0.81445 0.0
C318 C 0.59625 0.85991 0.54866 0.0
C319 C 0.61993 0.88862 0.53196 0.0
C320 C 0.60125 0.82638 0.5532 0.0
C321 C 0.63819 0.76305 0.5263 0.0
H322 H 0.61952 0.71446 0.58672 0.0
C323 C 0.64175 0.61463 0.54474 0.0
C324 C 0.60676 0.58447 0.55578 0.0
C325 C 0.64938 0.65473 0.54354 0.0
C326 C 0.62483 0.72777 0.56978 0.0
H327 H 0.66861 0.90559 0.5075 0.0
H328 H 0.67807 0.8473 0.51579 0.0
H329 H 0.624 0.78076 0.58164 0.0
H330 H 0.55273 0.57216 0.57462 0.0
H331 H 0.56639 0.6427 0.57302 0.0
H332 H 0.63887 0.70985 0.51451 0.0
C333 C 0.65497 0.8503 0.52505 0.0
C334 C 0.62727 0.76563 0.56682 0.0
C335 C 0.64971 0.8838 0.52037 0.0
C336 C 0.5801 0.59515 0.56624 0.0
C337 C 0.58796 0.63537 0.56531 0.0
C338 C 0.63622 0.72542 0.52932 0.0
C339 C 0.63036 0.82088 0.5413 0.0
C340 C 0.63298 0.78326 0.54495 0.0
C341 C 0.62235 0.66537 0.55365 0.0
C342 C 0.62863 0.70705 0.55099 0.0
H343 H 0.57293 0.86264 0.55787 0.0
H344 H 0.58122 0.80403 0.56551 0.0
H345 H 0.64202 0.77536 0.50917 0.0
H346 H 0.66293 0.60695 0.53687 0.0
H347 H 0.67629 0.67739 0.53463 0.0
C348 C 0.74235 0.61237 0.7912 0.0
C349 C 0.73798 0.63091 0.81091 0.0
C350 C 0.77714 0.6086 0.7884 0.0
C351 C 0.88172 0.64154 0.81122 0.0
H352 H 0.85191 0.52897 0.79985 0.0
C353 C 0.97354 0.57015 0.84722 0.0
C354 C 0.97503 0.53913 0.83507 0.0
C355 C 0.95078 0.58739 0.83875 0.0
C356 C 0.86113 0.56077 0.80249 0.0
H357 H 0.76799 0.66275 0.84227 0.0
H358 H 0.82854 0.65594 0.83746 0.0
H359 H 0.80093 0.55001 0.79447 0.0
H360 H 0.95606 0.50264 0.80436 0.0
H361 H 0.91595 0.53301 0.78912 0.0
H362 H 0.94159 0.65186 0.82007 0.0
C363 C 0.80519 0.64445 0.82412 0.0
C364 C 0.83184 0.57285 0.79942 0.0
C365 C 0.77035 0.64813 0.82696 0.0
C366 C 0.95488 0.5265 0.81389 0.0
C367 C 0.93199 0.54377 0.80533 0.0
C368 C 0.91111 0.62949 0.8142 0.0
C369 C 0.80832 0.62345 0.80519 0.0
C370 C 0.84144 0.61302 0.80447 0.0
C371 C 0.92911 0.57392 0.81789 0.0
C372 C 0.9007 0.58862 0.81064 0.0
H373 H 0.71813 0.59914 0.77838 0.0
H374 H 0.779 0.59278 0.77348 0.0
H375 H 0.89015 0.67285 0.8149 0.0
H376 H 0.98915 0.58013 0.8636 0.0
H377 H 0.94872 0.60999 0.84907 0.0
C378 C 0.14166 0.64949 0.11349 0.0
C379 C 0.11361 0.63621 0.13153 0.0
C380 C 0.17749 0.68747 0.11459 0.0
C381 C 0.23178 0.78459 0.14761 0.0
H382 H 0.32736 0.77351 0.13692 0.0
C383 C 0.40423 0.8536 0.18564 0.0
C384 C 0.41844 0.89559 0.18497 0.0
C385 C 0.36792 0.82644 0.17433 0.0
C386 C 0.30098 0.77715 0.13987 0.0
H387 H 0.09947 0.65362 0.16397 0.0
H388 H 0.16212 0.71938 0.16605 0.0
H389 H 0.25987 0.71911 0.1251 0.0
H390 H 0.4068 0.94269 0.17209 0.0
H391 H 0.34282 0.89504 0.15207 0.0
H392 H 0.27291 0.84168 0.16363 0.0
C393 C 0.15643 0.70074 0.15097 0.0
C394 C 0.26234 0.74624 0.13283 0.0
C395 C 0.12061 0.66284 0.14986 0.0
C396 C 0.3962 0.91027 0.17263 0.0
C397 C 0.35969 0.8831 0.16136 0.0
C398 C 0.27052 0.81558 0.15466 0.0
C399 C 0.18593 0.71285 0.13373 0.0
C400 C 0.22716 0.74902 0.13728 0.0
C401 C 0.34513 0.84087 0.16218 0.0
C402 C 0.30528 0.81147 0.15153 0.0
H403 H 0.13689 0.62986 0.09899 0.0
H404 H 0.19935 0.69629 0.10086 0.0
H405 H 0.20527 0.78778 0.15103 0.0
H406 H 0.42124 0.84193 0.19504 0.0
H407 H 0.35714 0.79403 0.17559 0.0
C408 C 0.61446 0.20725 0.45641 0.0
C409 C 0.59203 0.17348 0.47074 0.0
C410 C 0.60894 0.24113 0.45747 0.0
C411 C 0.54257 0.27958 0.47861 0.0
H412 H 0.64502 0.37622 0.49513 0.0
C413 C 0.54886 0.40994 0.53173 0.0
C414 C 0.58223 0.44955 0.52937 0.0
C415 C 0.54701 0.37769 0.51923 0.0
C416 C 0.61616 0.35004 0.48998 0.0
H417 H 0.54399 0.14723 0.49602 0.0
H418 H 0.53407 0.20625 0.49766 0.0
H419 H 0.64574 0.31618 0.48135 0.0
H420 H 0.63891 0.48718 0.51154 0.0
H421 H 0.63483 0.43146 0.4887 0.0
H422 H 0.51284 0.31324 0.48748 0.0
C423 C 0.55602 0.2066 0.48572 0.0
C424 C 0.61664 0.31553 0.48212 0.0
C425 C 0.56192 0.17297 0.48491 0.0
C426 C 0.61277 0.45684 0.51353 0.0
C427 C 0.61062 0.4248 0.5007 0.0
C428 C 0.54209 0.31438 0.48616 0.0
C429 C 0.58045 0.24149 0.47259 0.0
C430 C 0.57981 0.27965 0.47698 0.0
C431 C 0.57825 0.3846 0.50382 0.0
C432 C 0.57882 0.34965 0.4926 0.0
H433 H 0.63783 0.20846 0.44528 0.0
H434 H 0.62799 0.26765 0.4471 0.0
H435 H 0.51378 0.25229 0.47459 0.0
H436 H 0.52469 0.40384 0.54364 0.0
H437 H 0.52187 0.34719 0.52236 0.0
C438 C 0.39885 0.57762 0.86384 0.0
C439 C 0.42904 0.61721 0.87041 0.0
C440 C 0.35724 0.56544 0.86545 0.0
C441 C 0.28924 0.60741 0.8627 0.0
H442 H 0.20786 0.50528 0.88972 0.0
C443 C 0.12107 0.56744 0.8676 0.0
C444 C 0.09101 0.5268 0.86354 0.0
C445 C 0.16197 0.57784 0.87083 0.0
C446 C 0.23009 0.53367 0.88184 0.0
H447 H 0.43931 0.67476 0.88429 0.0
H448 H 0.36665 0.65364 0.88667 0.0
H449 H 0.28019 0.524 0.89077 0.0
H450 H 0.07882 0.4649 0.8603 0.0
H451 H 0.15078 0.48289 0.86495 0.0
H452 H 0.23967 0.61669 0.85286 0.0
C453 C 0.37527 0.63208 0.88037 0.0
C454 C 0.27148 0.54441 0.88257 0.0
C455 C 0.41681 0.64405 0.87909 0.0
C456 C 0.10195 0.49643 0.86334 0.0
C457 C 0.14302 0.50682 0.86619 0.0
C458 C 0.24793 0.59645 0.86166 0.0
C459 C 0.34515 0.59284 0.87334 0.0
C460 C 0.30137 0.58143 0.87305 0.0
C461 C 0.17367 0.5478 0.86969 0.0
C462 C 0.21776 0.55949 0.87126 0.0
H463 H 0.40737 0.55622 0.85716 0.0
H464 H 0.33454 0.53509 0.8598 0.0
H465 H 0.31167 0.63583 0.85491 0.0
H466 H 0.11274 0.59104 0.8682 0.0
H467 H 0.18442 0.6095 0.87412 0.0
C468 C 0.82736 0.30262 0.20397 0.0
C469 C 0.84842 0.31549 0.18321 0.0
C470 C 0.79573 0.26242 0.20664 0.0
C471 C 0.71921 0.1777 0.17235 0.0
H472 H 0.69702 0.1171 0.22915 0.0
C473 C 0.59251 0.01094 0.21061 0.0
C474 C 0.55674 0.01077 0.20331 0.0
C475 C 0.63077 0.04611 0.20816 0.0
C476 C 0.70308 0.13349 0.21311 0.0
H477 H 0.85423 0.29587 0.14937 0.0
H478 H 0.79905 0.2256 0.15411 0.0
H479 H 0.76133 0.18166 0.22498 0.0
H480 H 0.53208 0.04666 0.18843 0.0
H481 H 0.59887 0.10817 0.18387 0.0
H482 H 0.66092 0.12991 0.16054 0.0
C483 C 0.80669 0.24677 0.16819 0.0
C484 C 0.73967 0.17053 0.21079 0.0
C485 C 0.83837 0.28696 0.16552 0.0
C486 C 0.55953 0.04614 0.19374 0.0
C487 C 0.59763 0.08114 0.19116 0.0
C488 C 0.68266 0.14085 0.1747 0.0
C489 C 0.78452 0.23432 0.18861 0.0
C490 C 0.7478 0.19326 0.19049 0.0
C491 C 0.63366 0.08142 0.19822 0.0
C492 C 0.67393 0.11874 0.19523 0.0
H493 H 0.83449 0.32385 0.21796 0.0
H494 H 0.77893 0.25383 0.2225 0.0
H495 H 0.72438 0.19471 0.15659 0.0
H496 H 0.59075 0.98374 0.21798 0.0
H497 H 0.65808 0.04549 0.21367 0.0
C498 C 0.96676 0.43006 0.07789 0.0
C499 C 0.98097 0.46772 0.08904 0.0
C500 C 0.97367 0.42874 0.05455 0.0
C501 C 0.04193 0.49059 0.00832 0.0
H502 H 0.95145 0.42187 0.96764 0.0
C503 C 0.04479 0.52097 0.91208 0.0
C504 C 0.02308 0.48822 0.89704 0.0
C505 C 0.04384 0.51425 0.93558 0.0
C506 C 0.97733 0.44058 0.97876 0.0
H507 H 0.01312 0.53347 0.08428 0.0
H508 H 0.02545 0.53106 0.04375 0.0
H509 H 0.94066 0.41789 0.0088 0.0
H510 H 0.98468 0.42287 0.89415 0.0
H511 H 0.98348 0.41047 0.93549 0.0
H512 H 0.07859 0.51361 0.97841 0.0
C513 C 0.00925 0.50261 0.0531 0.0
C514 C 0.97103 0.43839 0.00235 0.0
C515 C 1.00194 0.50394 0.07631 0.0
C516 C 1.00176 0.44837 0.90565 0.0
C517 C 1.00085 0.44149 0.92922 0.0
C518 C 0.04833 0.49252 0.98478 0.0
C519 C 0.99535 0.46505 0.042 0.0
C520 C 1.00302 0.46412 0.01729 0.0
C521 C 0.02108 0.4745 0.94452 0.0
C522 C 0.01585 0.46831 0.96965 0.0
H523 H 0.95046 0.40159 0.08719 0.0
H524 H 0.96265 0.39937 0.04639 0.0
H525 H 0.06731 0.51025 0.01951 0.0
H526 H 0.06065 0.55197 0.90565 0.0
H527 H 0.05917 0.5405 0.94678 0.0
C528 C 0.6304 0.0144 0.42359 0.0
C529 C 0.60183 0.01797 0.43718 0.0
C530 C 0.62504 0.01059 0.3998 0.0
C531 C 0.56669 0.02619 0.35247 0.0
H532 H 0.59389 0.95528 0.31858 0.0
C533 C 0.52286 0.9356 0.26094 0.0
C534 C 0.52068 0.96498 0.24717 0.0
C535 C 0.53848 0.94515 0.28324 0.0
C536 C 0.58581 0.97498 0.32779 0.0
H537 H 0.5446 0.01894 0.43663 0.0
H538 H 0.53445 0.01071 0.39564 0.0
H539 H 0.60828 0.96456 0.35947 0.0
H540 H 0.53417 0.02766 0.24542 0.0
H541 H 0.5638 0.0454 0.28385 0.0
H542 H 0.54178 0.03463 0.32132 0.0
C543 C 0.56184 0.01242 0.40301 0.0
C544 C 0.59466 0.98079 0.35123 0.0
C545 C 0.56749 0.0168 0.42662 0.0
C546 C 0.53584 0.00459 0.25571 0.0
C547 C 0.55223 0.01447 0.27785 0.0
C548 C 0.55729 0.01991 0.32918 0.0
C549 C 0.59076 0.0098 0.38921 0.0
C550 C 0.58454 0.00594 0.36395 0.0
C551 C 0.55294 0.98463 0.29212 0.0
C552 C 0.56619 0.99379 0.31654 0.0
H553 H 0.65724 0.01536 0.43128 0.0
H554 H 0.64812 0.00898 0.38971 0.0
H555 H 0.55934 0.04658 0.36154 0.0
H556 H 0.51169 0.90497 0.25454 0.0
H557 H 0.53791 0.92113 0.2937 0.0
C558 C 0.61739 0.63769 0.77083 0.0
C559 C 0.58202 0.61529 0.78399 0.0
C560 C 0.61787 0.62777 0.74792 0.0
C561 C 0.56635 0.54329 0.70675 0.0
H562 H 0.6171 0.62901 0.66137 0.0
C563 C 0.55377 0.50802 0.61037 0.0
C564 C 0.58901 0.5307 0.5973 0.0
C565 C 0.55266 0.51886 0.63301 0.0
C566 C 0.60323 0.60474 0.67388 0.0
H567 H 0.51921 0.56518 0.78332 0.0
H568 H 0.51998 0.54801 0.74324 0.0
H569 H 0.61541 0.64689 0.70119 0.0
H570 H 0.65065 0.58222 0.59722 0.0
H571 H 0.64917 0.60136 0.63701 0.0
H572 H 0.55441 0.50113 0.67954 0.0
C573 C 0.54751 0.57296 0.75075 0.0
C574 C 0.60222 0.61498 0.69668 0.0
C575 C 0.54699 0.58296 0.77367 0.0
C576 C 0.62312 0.56459 0.60708 0.0
C577 C 0.62211 0.57549 0.62976 0.0
C578 C 0.56745 0.53305 0.68398 0.0
C579 C 0.58298 0.59522 0.73764 0.0
C580 C 0.58376 0.58437 0.71337 0.0
C581 C 0.58689 0.55262 0.64302 0.0
C582 C 0.58587 0.56364 0.66726 0.0
H583 H 0.64485 0.66289 0.77823 0.0
H584 H 0.64581 0.64522 0.73836 0.0
H585 H 0.55249 0.51903 0.71927 0.0
H586 H 0.52702 0.48208 0.60294 0.0
H587 H 0.52482 0.50102 0.64259 0.0
C588 C 0.60466 0.07587 0.57621 0.0
C589 C 0.6156 0.0487 0.56655 0.0
C590 C 0.6032 0.07899 0.5999 0.0
C591 C 0.64352 0.06373 0.65389 0.0
H592 H 0.54941 0.06446 0.67971 0.0
C593 C 0.57262 0.07233 0.74688 0.0
C594 C 0.60648 0.10743 0.75586 0.0
C595 C 0.57388 0.05914 0.7248 0.0
C596 C 0.57565 0.06378 0.67281 0.0
H597 H 0.63438 0.00404 0.57429 0.0
H598 H 0.63238 0.01007 0.61579 0.0
H599 H 0.55105 0.05385 0.63873 0.0
H600 H 0.66875 0.15508 0.74983 0.0
H601 H 0.67133 0.13208 0.71112 0.0
H602 H 0.66851 0.07466 0.68798 0.0
C603 C 0.62476 0.02873 0.60492 0.0
C604 C 0.57677 0.05815 0.64934 0.0
C605 C 0.62577 0.02523 0.58117 0.0
C606 C 0.64237 0.12797 0.74304 0.0
C607 C 0.64383 0.11464 0.72104 0.0
C608 C 0.64261 0.06983 0.67739 0.0
C609 C 0.61305 0.05535 0.61448 0.0
C610 C 0.61093 0.05862 0.6396 0.0
C611 C 0.6092 0.08073 0.71146 0.0
C612 C 0.60883 0.07036 0.68703 0.0
H613 H 0.59666 0.09442 0.56549 0.0
H614 H 0.59459 0.10015 0.60683 0.0
H615 H 0.67028 0.06434 0.64679 0.0
H616 H 0.54468 0.05628 0.75661 0.0
H617 H 0.54689 0.03269 0.71791 0.0
C618 C 0.63827 0.63247 0.92295 0.0
C619 C 0.60525 0.63368 0.91208 0.0
C620 C 0.63941 0.62892 0.94675 0.0
C621 C 0.61827 0.59281 0.99483 0.0
H622 H 0.57434 0.64426 0.03364 0.0
C623 C 0.55046 0.53137 0.08359 0.0
C624 C 0.55048 0.5585 0.09978 0.0
C625 C 0.56784 0.54561 0.06214 0.0
C626 C 0.58751 0.6302 0.02323 0.0
H627 H 0.54792 0.63286 0.91787 0.0
H628 H 0.54964 0.62614 0.95908 0.0
H629 H 0.58447 0.66148 0.99335 0.0
H630 H 0.5711 0.62165 0.10747 0.0
H631 H 0.60305 0.64722 0.07028 0.0
H632 H 0.6213 0.56152 0.02482 0.0
C633 C 0.57504 0.62857 0.94933 0.0
C634 C 0.59271 0.63966 -2e-05 0.0
C635 C 0.57391 0.63215 0.92561 0.0
C636 C 0.57086 0.6004 0.09504 0.0
C637 C 0.58865 0.6148 0.07372 0.0
C638 C 0.61327 0.58348 0.01818 0.0
C639 C 0.6076 0.62656 0.96021 0.0
C640 C 0.60709 0.62028 0.98537 0.0
C641 C 0.5858 0.58737 0.05663 0.0
C642 C 0.59687 0.60133 0.03257 0.0
H643 H 0.66296 0.6336 0.91307 0.0
H644 H 0.66513 0.62788 0.9546 0.0
H645 H 0.62928 0.57718 0.98406 0.0
H646 H 0.53442 0.49886 0.08699 0.0
H647 H 0.56467 0.52348 0.04943 0.0
C648 C 0.98948 0.51939 0.23125 0.0
C649 C 0.98417 0.4844 0.21991 0.0
C650 C 0.99357 0.52233 0.25505 0.0
C651 C 0.97951 0.46091 0.30794 0.0
H652 H 0.05758 0.56661 0.33325 0.0
C653 C 0.0511 0.48949 0.3996 0.0
C654 C 0.05664 0.5246 0.41083 0.0
C655 C 0.03532 0.48102 0.37723 0.0
C656 C 0.03525 0.53699 0.32648 0.0
H657 H 0.97871 0.42488 0.22468 0.0
H658 H 0.98731 0.43058 0.26604 0.0
H659 H 0.04488 0.55951 0.29227 0.0
H660 H 0.04747 0.57661 0.40864 0.0
H661 H 0.02004 0.56213 0.36949 0.0
H662 H 0.97138 0.43837 0.34238 0.0
C663 C 0.98727 0.45539 0.25668 0.0
C664 C 0.02784 0.5329 0.30295 0.0
C665 C 0.98265 0.45224 0.2329 0.0
C666 C 0.04372 0.54961 0.40007 0.0
C667 C 0.02826 0.54139 0.37774 0.0
C668 C 0.98733 0.46496 0.33153 0.0
C669 C 0.99304 0.49059 0.26808 0.0
C670 C 0.99989 0.49482 0.29331 0.0
C671 C 0.02518 0.50777 0.36582 0.0
C672 C 0.01526 0.50308 0.34101 0.0
H673 H 0.99035 0.54453 0.22176 0.0
H674 H 0.9971 0.54956 0.26322 0.0
H675 H 0.95734 0.43123 0.30121 0.0
H676 H 0.06117 0.47003 0.40766 0.0
H677 H 0.03338 0.45497 0.36842 0.0
loop_
_geom_bond_atom_site_label_1
_geom_bond_atom_site_label_2
_geom_bond_distance
_geom_bond_site_symmetry_2
_ccdc_geom_bond_type
Zn0 O6 1.969 . S
Zn0 O7 1.965 . S
Zn0 O11 2.024 . S
Zn0 O16 1.969 . S
Zn1 O8 1.969 . S
Zn1 O14 1.969 . S
Zn1 O15 1.965 . S
Zn1 O17 2.024 . S
C2 O3 1.229 . S
C2 O11 1.058 . S
O3 C2 1.229 . S
C4 O5 1.229 . S
C4 O17 1.058 . S
O5 C4 1.229 . S
O6 Zn0 1.969 . S
O6 C9 1.267 . S
O7 Zn0 1.965 . S
O7 C18 1.260 1_455 S
O8 Zn1 1.969 . S
O8 C18 1.258 . S
C9 O6 1.267 . S
C9 O10 1.228 . S
O10 C9 1.228 . S
O11 Zn0 2.024 . S
O11 C2 1.058 . S
C12 O13 1.228 . S
C12 O14 1.267 . S
O13 C12 1.228 . S
O14 Zn1 1.969 . S
O14 C12 1.267 . S
O15 Zn1 1.965 . S
O15 C19 1.260 1_655 S
O16 Zn0 1.969 . S
O16 C19 1.258 . S
O17 Zn1 2.024 . S
O17 C4 1.058 . S
C18 O7 1.260 1_655 S
C18 O8 1.258 . S
C19 O15 1.260 1_455 S
C19 O16 1.258 . S
Zn20 O26 1.969 . S
Zn20 O27 1.965 . S
Zn20 O31 2.024 . S
Zn20 O36 1.969 . S
Zn21 O28 1.969 . S
Zn21 O34 1.969 . S
Zn21 O35 1.965 1_565 S
Zn21 O37 2.024 . S
C22 O23 1.229 . S
C22 O31 1.058 . S
O23 C22 1.229 . S
C24 O25 1.229 . S
C24 O37 1.058 . S
O25 C24 1.229 . S
O26 Zn20 1.969 . S
O26 C29 1.267 . S
O27 Zn20 1.965 . S
O27 C38 1.260 . S
O28 Zn21 1.969 . S
O28 C38 1.258 1_565 S
C29 O26 1.267 . S
C29 O30 1.228 . S
O30 C29 1.228 . S
O31 Zn20 2.024 . S
O31 C22 1.058 . S
C32 O33 1.228 . S
C32 O34 1.267 . S
O33 C32 1.228 . S
O34 Zn21 1.969 . S
O34 C32 1.267 . S
O35 Zn21 1.965 1_545 S
O35 C39 1.260 . S
O36 Zn20 1.969 . S
O36 C39 1.258 . S
O37 Zn21 2.024 . S
O37 C24 1.058 . S
C38 O27 1.260 . S
C38 O28 1.258 1_545 S
C39 O35 1.260 . S
C39 O36 1.258 . S
Zn40 O46 1.969 . S
Zn40 O47 1.965 . S
Zn40 O51 2.024 . S
Zn40 O56 1.969 . S
Zn41 O48 1.969 . S
Zn41 O54 1.969 . S
Zn41 O55 1.965 . S
Zn41 O57 2.024 . S
C42 O43 1.229 . S
C42 O51 1.058 . S
O43 C42 1.229 . S
C44 O45 1.229 . S
C44 O57 1.058 . S
O45 C44 1.229 . S
O46 Zn40 1.969 . S
O46 C49 1.267 . S
O47 Zn40 1.965 . S
O47 C58 1.260 . S
O48 Zn41 1.969 . S
O48 C58 1.258 . S
C49 O46 1.267 . S
C49 O50 1.228 . S
O50 C49 1.228 . S
O51 Zn40 2.024 . S
O51 C42 1.058 . S
C52 O53 1.228 . S
C52 O54 1.267 . S
O53 C52 1.228 . S
O54 Zn41 1.969 . S
O54 C52 1.267 . S
O55 Zn41 1.965 . S
O55 C59 1.260 . S
O56 Zn40 1.969 . S
O56 C59 1.258 . S
O57 Zn41 2.024 . S
O57 C44 1.058 . S
C58 O47 1.260 . S
C58 O48 1.258 . S
C59 O55 1.260 . S
C59 O56 1.258 . S
C60 N61 1.317 . S
C60 N62 1.348 1_545 S
C60 C63 1.485 . S
N61 C60 1.317 . S
N61 N65 1.370 . S
N62 C60 1.348 1_565 S
N62 C64 1.346 . S
C63 C60 1.485 . S
C63 H67 0.960 . S
C63 H68 0.961 1_545 S
C63 H69 0.960 . S
C64 N62 1.346 . S
C64 N65 1.307 1_565 S
C64 C66 1.486 . S
N65 N61 1.370 . S
N65 C64 1.307 1_545 S
C66 C64 1.486 . S
C66 H70 0.960 . S
C66 H71 0.960 . S
C66 H72 0.959 . S
H67 C63 0.960 . S
H68 C63 0.961 1_565 S
H69 C63 0.960 . S
H70 C66 0.960 . S
H71 C66 0.960 . S
H72 C66 0.959 . S
C73 N74 1.317 . S
C73 N75 1.348 . S
C73 C76 1.485 . S
N74 C73 1.317 . S
N74 N78 1.370 . S
N75 C73 1.348 . S
N75 C77 1.346 . S
C76 C73 1.485 . S
C76 H80 0.960 . S
C76 H81 0.961 . S
C76 H82 0.960 . S
C77 N75 1.346 . S
C77 N78 1.307 . S
C77 C79 1.486 . S
N78 N74 1.370 . S
N78 C77 1.307 . S
C79 C77 1.486 . S
C79 H83 0.960 . S
C79 H84 0.960 . S
C79 H85 0.959 . S
H80 C76 0.960 . S
H81 C76 0.961 . S
H82 C76 0.960 . S
H83 C79 0.960 . S
H84 C79 0.960 . S
H85 C79 0.959 . S
C86 N87 1.317 . S
C86 N88 1.348 . S
C86 C89 1.485 . S
N87 C86 1.317 . S
N87 N91 1.370 . S
N88 C86 1.348 . S
N88 C90 1.346 . S
C89 C86 1.485 . S
C89 H93 0.960 . S
C89 H94 0.961 . S
C89 H95 0.960 . S
C90 N88 1.346 . S
C90 N91 1.307 . S
C90 C92 1.486 1_455 S
N91 N87 1.370 . S
N91 C90 1.307 . S
C92 C90 1.486 1_655 S
C92 H96 0.960 . S
C92 H97 0.960 . S
C92 H98 0.959 . S
H93 C89 0.960 . S
H94 C89 0.961 . S
H95 C89 0.960 . S
H96 C92 0.960 . S
H97 C92 0.960 . S
H98 C92 0.959 . S
C99 N100 1.317 . S
C99 N101 1.348 . S
C99 C102 1.485 . S
N100 C99 1.317 . S
N100 N104 1.370 . S
N101 C99 1.348 . S
N101 C103 1.346 . S
C102 C99 1.485 . S
C102 H106 0.960 . S
C102 H107 0.961 . S
C102 H108 0.960 . S
C103 N101 1.346 . S
C103 N104 1.307 . S
C103 C105 1.486 . S
N104 N100 1.370 . S
N104 C103 1.307 . S
C105 C103 1.486 . S
C105 H109 0.960 . S
C105 H110 0.960 . S
C105 H111 0.959 . S
H106 C102 0.960 . S
H107 C102 0.961 . S
H108 C102 0.960 . S
H109 C105 0.960 . S
H110 C105 0.960 . S
H111 C105 0.959 . S
C112 N113 1.317 . S
C112 N114 1.348 . S
C112 C115 1.485 . S
N113 C112 1.317 . S
N113 N117 1.370 . S
N114 C112 1.348 . S
N114 C116 1.346 . S
C115 C112 1.485 . S
C115 H119 0.960 . S
C115 H120 0.961 . S
C115 H121 0.960 . S
C116 N114 1.346 . S
C116 N117 1.307 . S
C116 C118 1.486 . S
N117 N113 1.370 . S
N117 C116 1.307 . S
C118 C116 1.486 . S
C118 H122 0.960 . S
C118 H123 0.960 . S
C118 H124 0.959 . S
H119 C115 0.960 . S
H120 C115 0.961 . S
H121 C115 0.960 . S
H122 C118 0.960 . S
H123 C118 0.960 . S
H124 C118 0.959 . S
C125 N126 1.317 . S
C125 N127 1.348 . S
C125 C128 1.485 . S
N126 C125 1.317 . S
N126 N130 1.370 . S
N127 C125 1.348 . S
N127 C129 1.346 . S
C128 C125 1.485 . S
C128 H132 0.960 . S
C128 H133 0.961 . S
C128 H134 0.960 . S
C129 N127 1.346 . S
C129 N130 1.307 . S
C129 C131 1.486 . S
N130 N126 1.370 . S
N130 C129 1.307 . S
C131 C129 1.486 . S
C131 H135 0.960 . S
C131 H136 0.960 . S
C131 H137 0.959 . S
H132 C128 0.960 . S
H133 C128 0.961 . S
H134 C128 0.960 . S
H135 C131 0.960 . S
H136 C131 0.960 . S
H137 C131 0.959 . S
C138 C139 1.349 . S
C138 C140 1.327 . S
C138 H163 0.950 . S
C139 C138 1.349 . S
C139 C155 1.349 . S
C140 C138 1.327 . S
C140 C159 1.429 . S
C140 H164 0.950 . S
C141 C158 1.574 . S
C141 C160 1.368 . S
C141 H165 0.949 . S
H142 C146 0.949 . S
C143 C144 1.349 . S
C143 C145 1.327 . S
C143 H166 0.950 . S
C144 C143 1.349 . S
C144 C156 1.349 . S
C145 C143 1.327 . S
C145 C161 1.429 . S
C145 H167 0.950 . S
C146 H142 0.949 . S
C146 C154 1.574 . S
C146 C162 1.368 . S
H147 C155 0.950 . S
H148 C153 0.950 . S
H149 C154 0.949 . S
H150 C156 0.950 . S
H151 C157 0.950 . S
H152 C158 0.949 . S
C153 H148 0.950 . S
C153 C155 1.327 . S
C153 C159 1.429 . S
C154 C146 1.574 . S
C154 H149 0.949 . S
C154 C160 1.368 . S
C155 C139 1.349 . S
C155 H147 0.950 . S
C155 C153 1.327 . S
C156 C144 1.349 . S
C156 H150 0.950 . S
C156 C157 1.327 . S
C157 H151 0.950 . S
C157 C156 1.327 . S
C157 C161 1.429 . S
C158 C141 1.574 . S
C158 H152 0.949 . S
C158 C162 1.368 . S
C159 C140 1.429 . S
C159 C153 1.429 . S
C159 C160 1.523 . S
C160 C141 1.368 . S
C160 C154 1.368 . S
C160 C159 1.523 . S
C161 C145 1.429 . S
C161 C157 1.429 . S
C161 C162 1.523 . S
C162 C146 1.368 . S
C162 C158 1.368 . S
C162 C161 1.523 . S
H163 C138 0.950 . S
H164 C140 0.950 . S
H165 C141 0.949 . S
H166 C143 0.950 . S
H167 C145 0.950 . S
C168 C169 1.349 . S
C168 C170 1.327 . S
C168 H193 0.950 . S
C169 C168 1.349 . S
C169 C185 1.349 . S
C170 C168 1.327 . S
C170 C189 1.429 . S
C170 H194 0.950 . S
C171 C188 1.574 . S
C171 C190 1.368 . S
C171 H195 0.949 . S
H172 C176 0.949 . S
C173 C174 1.349 . S
C173 C175 1.327 1_455 S
C173 H196 0.950 . S
C174 C173 1.349 . S
C174 C186 1.349 1_455 S
C175 C173 1.327 1_655 S
C175 C191 1.429 . S
C175 H197 0.950 . S
C176 H172 0.949 . S
C176 C184 1.574 . S
C176 C192 1.368 . S
H177 C185 0.950 . S
H178 C183 0.950 . S
H179 C184 0.949 . S
H180 C186 0.950 . S
H181 C187 0.950 . S
H182 C188 0.949 . S
C183 H178 0.950 . S
C183 C185 1.327 . S
C183 C189 1.429 . S
C184 C176 1.574 . S
C184 H179 0.949 . S
C184 C190 1.368 . S
C185 C169 1.349 . S
C185 H177 0.950 . S
C185 C183 1.327 . S
C186 C174 1.349 1_655 S
C186 H180 0.950 . S
C186 C187 1.327 . S
C187 H181 0.950 . S
C187 C186 1.327 . S
C187 C191 1.429 . S
C188 C171 1.574 . S
C188 H182 0.949 . S
C188 C192 1.368 . S
C189 C170 1.429 . S
C189 C183 1.429 . S
C189 C190 1.523 . S
C190 C171 1.368 . S
C190 C184 1.368 . S
C190 C189 1.523 . S
C191 C175 1.429 . S
C191 C187 1.429 . S
C191 C192 1.523 . S
C192 C176 1.368 . S
C192 C188 1.368 . S
C192 C191 1.523 . S
H193 C168 0.950 . S
H194 C170 0.950 . S
H195 C171 0.949 . S
H196 C173 0.950 . S
H197 C175 0.950 . S
C198 C199 1.349 . S
C198 C200 1.327 . S
C198 H223 0.950 . S
C199 C198 1.349 . S
C199 C215 1.349 . S
C200 C198 1.327 . S
C200 C219 1.429 . S
C200 H224 0.950 . S
C201 C218 1.574 . S
C201 C220 1.368 . S
C201 H225 0.949 . S
H202 C206 0.949 . S
C203 C204 1.349 . S
C203 C205 1.327 1_545 S
C203 H226 0.950 . S
C204 C203 1.349 . S
C204 C216 1.349 1_545 S
C205 C203 1.327 1_565 S
C205 C221 1.429 . S
C205 H227 0.950 . S
C206 H202 0.949 . S
C206 C214 1.574 . S
C206 C222 1.368 . S
H207 C215 0.950 . S
H208 C213 0.950 . S
H209 C214 0.949 . S
H210 C216 0.950 . S
H211 C217 0.950 . S
H212 C218 0.949 . S
C213 H208 0.950 . S
C213 C215 1.327 . S
C213 C219 1.429 . S
C214 C206 1.574 . S
C214 H209 0.949 . S
C214 C220 1.368 . S
C215 C199 1.349 . S
C215 H207 0.950 . S
C215 C213 1.327 . S
C216 C204 1.349 1_565 S
C216 H210 0.950 . S
C216 C217 1.327 . S
C217 H211 0.950 . S
C217 C216 1.327 . S
C217 C221 1.429 . S
C218 C201 1.574 . S
C218 H212 0.949 . S
C218 C222 1.368 . S
C219 C200 1.429 . S
C219 C213 1.429 . S
C219 C220 1.523 . S
C220 C201 1.368 . S
C220 C214 1.368 . S
C220 C219 1.523 . S
C221 C205 1.429 . S
C221 C217 1.429 . S
C221 C222 1.523 . S
C222 C206 1.368 . S
C222 C218 1.368 . S
C222 C221 1.523 . S
H223 C198 0.950 . S
H224 C200 0.950 . S
H225 C201 0.949 . S
H226 C203 0.950 . S
H227 C205 0.950 . S
C228 C229 1.349 . S
C228 C230 1.327 . S
C228 H253 0.950 . S
C229 C228 1.349 . S
C229 C245 1.349 . S
C230 C228 1.327 . S
C230 C249 1.429 . S
C230 H254 0.950 . S
C231 C248 1.574 . S
C231 C250 1.368 . S
C231 H255 0.949 . S
H232 C236 0.949 . S
C233 C234 1.349 . S
C233 C235 1.327 . S
C233 H256 0.950 . S
C234 C233 1.349 . S
C234 C246 1.349 . S
C235 C233 1.327 . S
C235 C251 1.429 . S
C235 H257 0.950 . S
C236 H232 0.949 . S
C236 C244 1.574 . S
C236 C252 1.368 . S
H237 C245 0.950 . S
H238 C243 0.950 . S
H239 C244 0.949 . S
H240 C246 0.950 . S
H241 C247 0.950 . S
H242 C248 0.949 . S
C243 H238 0.950 . S
C243 C245 1.327 . S
C243 C249 1.429 . S
C244 C236 1.574 . S
C244 H239 0.949 . S
C244 C250 1.368 . S
C245 C229 1.349 . S
C245 H237 0.950 . S
C245 C243 1.327 . S
C246 C234 1.349 . S
C246 H240 0.950 . S
C246 C247 1.327 . S
C247 H241 0.950 . S
C247 C246 1.327 . S
C247 C251 1.429 . S
C248 C231 1.574 . S
C248 H242 0.949 . S
C248 C252 1.368 . S
C249 C230 1.429 . S
C249 C243 1.429 . S
C249 C250 1.523 . S
C250 C231 1.368 . S
C250 C244 1.368 . S
C250 C249 1.523 . S
C251 C235 1.429 . S
C251 C247 1.429 . S
C251 C252 1.523 . S
C252 C236 1.368 . S
C252 C248 1.368 . S
C252 C251 1.523 . S
H253 C228 0.950 . S
H254 C230 0.950 . S
H255 C231 0.949 . S
H256 C233 0.950 . S
H257 C235 0.950 . S
C258 C259 1.349 . S
C258 C260 1.327 . S
C258 H283 0.950 . S
C259 C258 1.349 . S
C259 C275 1.349 . S
C260 C258 1.327 . S
C260 C279 1.429 . S
C260 H284 0.950 . S
C261 C278 1.574 . S
C261 C280 1.368 . S
C261 H285 0.949 . S
H262 C266 0.949 . S
C263 C264 1.349 . S
C263 C265 1.327 . S
C263 H286 0.950 . S
C264 C263 1.349 . S
C264 C276 1.349 . S
C265 C263 1.327 . S
C265 C281 1.429 . S
C265 H287 0.950 . S
C266 H262 0.949 . S
C266 C274 1.574 . S
C266 C282 1.368 . S
H267 C275 0.950 . S
H268 C273 0.950 . S
H269 C274 0.949 . S
H270 C276 0.950 . S
H271 C277 0.950 . S
H272 C278 0.949 . S
C273 H268 0.950 . S
C273 C275 1.327 . S
C273 C279 1.429 . S
C274 C266 1.574 . S
C274 H269 0.949 . S
C274 C280 1.368 . S
C275 C259 1.349 . S
C275 H267 0.950 . S
C275 C273 1.327 . S
C276 C264 1.349 . S
C276 H270 0.950 . S
C276 C277 1.327 . S
C277 H271 0.950 . S
C277 C276 1.327 . S
C277 C281 1.429 . S
C278 C261 1.574 . S
C278 H272 0.949 . S
C278 C282 1.368 . S
C279 C260 1.429 . S
C279 C273 1.429 . S
C279 C280 1.523 . S
C280 C261 1.368 . S
C280 C274 1.368 . S
C280 C279 1.523 . S
C281 C265 1.429 . S
C281 C277 1.429 . S
C281 C282 1.523 . S
C282 C266 1.368 . S
C282 C278 1.368 . S
C282 C281 1.523 . S
H283 C258 0.950 . S
H284 C260 0.950 . S
H285 C261 0.949 . S
H286 C263 0.950 . S
H287 C265 0.950 . S
C288 C289 1.349 . S
C288 C290 1.327 . S
C288 H313 0.950 . S
C289 C288 1.349 . S
C289 C305 1.349 . S
C290 C288 1.327 . S
C290 C309 1.429 . S
C290 H314 0.950 . S
C291 C308 1.574 . S
C291 C310 1.368 . S
C291 H315 0.949 . S
H292 C296 0.949 . S
C293 C294 1.349 . S
C293 C295 1.327 . S
C293 H316 0.950 . S
C294 C293 1.349 . S
C294 C306 1.349 . S
C295 C293 1.327 . S
C295 C311 1.429 . S
C295 H317 0.950 . S
C296 H292 0.949 . S
C296 C304 1.574 . S
C296 C312 1.368 . S
H297 C305 0.950 . S
H298 C303 0.950 . S
H299 C304 0.949 . S
H300 C306 0.950 . S
H301 C307 0.950 . S
H302 C308 0.949 . S
C303 H298 0.950 . S
C303 C305 1.327 . S
C303 C309 1.429 . S
C304 C296 1.574 . S
C304 H299 0.949 . S
C304 C310 1.368 . S
C305 C289 1.349 . S
C305 H297 0.950 . S
C305 C303 1.327 . S
C306 C294 1.349 . S
C306 H300 0.950 . S
C306 C307 1.327 . S
C307 H301 0.950 . S
C307 C306 1.327 . S
C307 C311 1.429 . S
C308 C291 1.574 . S
C308 H302 0.949 . S
C308 C312 1.368 . S
C309 C290 1.429 . S
C309 C303 1.429 . S
C309 C310 1.523 . S
C310 C291 1.368 . S
C310 C304 1.368 . S
C310 C309 1.523 . S
C311 C295 1.429 . S
C311 C307 1.429 . S
C311 C312 1.523 . S
C312 C296 1.368 . S
C312 C308 1.368 . S
C312 C311 1.523 . S
H313 C288 0.950 . S
H314 C290 0.950 . S
H315 C291 0.949 . S
H316 C293 0.950 . S
H317 C295 0.950 . S
C318 C319 1.349 . S
C318 C320 1.327 . S
C318 H343 0.950 . S
C319 C318 1.349 . S
C319 C335 1.349 . S
C320 C318 1.327 . S
C320 C339 1.429 . S
C320 H344 0.950 . S
C321 C338 1.574 . S
C321 C340 1.368 . S
C321 H345 0.949 . S
H322 C326 0.949 . S
C323 C324 1.349 . S
C323 C325 1.327 . S
C323 H346 0.950 . S
C324 C323 1.349 . S
C324 C336 1.349 . S
C325 C323 1.327 . S
C325 C341 1.429 . S
C325 H347 0.950 . S
C326 H322 0.949 . S
C326 C334 1.574 . S
C326 C342 1.368 . S
H327 C335 0.950 . S
H328 C333 0.950 . S
H329 C334 0.949 . S
H330 C336 0.950 . S
H331 C337 0.950 . S
H332 C338 0.949 . S
C333 H328 0.950 . S
C333 C335 1.327 . S
C333 C339 1.429 . S
C334 C326 1.574 . S
C334 H329 0.949 . S
C334 C340 1.368 . S
C335 C319 1.349 . S
C335 H327 0.950 . S
C335 C333 1.327 . S
C336 C324 1.349 . S
C336 H330 0.950 . S
C336 C337 1.327 . S
C337 H331 0.950 . S
C337 C336 1.327 . S
C337 C341 1.429 . S
C338 C321 1.574 . S
C338 H332 0.949 . S
C338 C342 1.368 . S
C339 C320 1.429 . S
C339 C333 1.429 . S
C339 C340 1.523 . S
C340 C321 1.368 . S
C340 C334 1.368 . S
C340 C339 1.523 . S
C341 C325 1.429 . S
C341 C337 1.429 . S
C341 C342 1.523 . S
C342 C326 1.368 . S
C342 C338 1.368 . S
C342 C341 1.523 . S
H343 C318 0.950 . S
H344 C320 0.950 . S
H345 C321 0.949 . S
H346 C323 0.950 . S
H347 C325 0.950 . S
C348 C349 1.349 . S
C348 C350 1.327 . S
C348 H373 0.950 . S
C349 C348 1.349 . S
C349 C365 1.349 . S
C350 C348 1.327 . S
C350 C369 1.429 . S
C350 H374 0.950 . S
C351 C368 1.574 . S
C351 C370 1.368 . S
C351 H375 0.949 . S
H352 C356 0.949 . S
C353 C354 1.349 . S
C353 C355 1.327 . S
C353 H376 0.950 1_655 S
C354 C353 1.349 . S
C354 C366 1.349 . S
C355 C353 1.327 . S
C355 C371 1.429 . S
C355 H377 0.950 . S
C356 H352 0.949 . S
C356 C364 1.574 . S
C356 C372 1.368 . S
H357 C365 0.950 . S
H358 C363 0.950 . S
H359 C364 0.949 . S
H360 C366 0.950 . S
H361 C367 0.950 . S
H362 C368 0.949 . S
C363 H358 0.950 . S
C363 C365 1.327 . S
C363 C369 1.429 . S
C364 C356 1.574 . S
C364 H359 0.949 . S
C364 C370 1.368 . S
C365 C349 1.349 . S
C365 H357 0.950 . S
C365 C363 1.327 . S
C366 C354 1.349 . S
C366 H360 0.950 . S
C366 C367 1.327 . S
C367 H361 0.950 . S
C367 C366 1.327 . S
C367 C371 1.429 . S
C368 C351 1.574 . S
C368 H362 0.949 . S
C368 C372 1.368 . S
C369 C350 1.429 . S
C369 C363 1.429 . S
C369 C370 1.523 . S
C370 C351 1.368 . S
C370 C364 1.368 . S
C370 C369 1.523 . S
C371 C355 1.429 . S
C371 C367 1.429 . S
C371 C372 1.523 . S
C372 C356 1.368 . S
C372 C368 1.368 . S
C372 C371 1.523 . S
H373 C348 0.950 . S
H374 C350 0.950 . S
H375 C351 0.949 . S
H376 C353 0.950 1_455 S
H377 C355 0.950 . S
C378 C379 1.349 . S
C378 C380 1.327 . S
C378 H403 0.950 . S
C379 C378 1.349 . S
C379 C395 1.349 . S
C380 C378 1.327 . S
C380 C399 1.429 . S
C380 H404 0.950 . S
C381 C398 1.574 . S
C381 C400 1.368 . S
C381 H405 0.949 . S
H382 C386 0.949 . S
C383 C384 1.349 . S
C383 C385 1.327 . S
C383 H406 0.950 . S
C384 C383 1.349 . S
C384 C396 1.349 . S
C385 C383 1.327 . S
C385 C401 1.429 . S
C385 H407 0.950 . S
C386 H382 0.949 . S
C386 C394 1.574 . S
C386 C402 1.368 . S
H387 C395 0.950 . S
H388 C393 0.950 . S
H389 C394 0.949 . S
H390 C396 0.950 . S
H391 C397 0.950 . S
H392 C398 0.949 . S
C393 H388 0.950 . S
C393 C395 1.327 . S
C393 C399 1.429 . S
C394 C386 1.574 . S
C394 H389 0.949 . S
C394 C400 1.368 . S
C395 C379 1.349 . S
C395 H387 0.950 . S
C395 C393 1.327 . S
C396 C384 1.349 . S
C396 H390 0.950 . S
C396 C397 1.327 . S
C397 H391 0.950 . S
C397 C396 1.327 . S
C397 C401 1.429 . S
C398 C381 1.574 . S
C398 H392 0.949 . S
C398 C402 1.368 . S
C399 C380 1.429 . S
C399 C393 1.429 . S
C399 C400 1.523 . S
C400 C381 1.368 . S
C400 C394 1.368 . S
C400 C399 1.523 . S
C401 C385 1.429 . S
C401 C397 1.429 . S
C401 C402 1.523 . S
C402 C386 1.368 . S
C402 C398 1.368 . S
C402 C401 1.523 . S
H403 C378 0.950 . S
H404 C380 0.950 . S
H405 C381 0.949 . S
H406 C383 0.950 . S
H407 C385 0.950 . S
C408 C409 1.349 . S
C408 C410 1.327 . S
C408 H433 0.950 . S
C409 C408 1.349 . S
C409 C425 1.349 . S
C410 C408 1.327 . S
C410 C429 1.429 . S
C410 H434 0.950 . S
C411 C428 1.574 . S
C411 C430 1.368 . S
C411 H435 0.949 . S
H412 C416 0.949 . S
C413 C414 1.349 . S
C413 C415 1.327 . S
C413 H436 0.950 . S
C414 C413 1.349 . S
C414 C426 1.349 . S
C415 C413 1.327 . S
C415 C431 1.429 . S
C415 H437 0.950 . S
C416 H412 0.949 . S
C416 C424 1.574 . S
C416 C432 1.368 . S
H417 C425 0.950 . S
H418 C423 0.950 . S
H419 C424 0.949 . S
H420 C426 0.950 . S
H421 C427 0.950 . S
H422 C428 0.949 . S
C423 H418 0.950 . S
C423 C425 1.327 . S
C423 C429 1.429 . S
C424 C416 1.574 . S
C424 H419 0.949 . S
C424 C430 1.368 . S
C425 C409 1.349 . S
C425 H417 0.950 . S
C425 C423 1.327 . S
C426 C414 1.349 . S
C426 H420 0.950 . S
C426 C427 1.327 . S
C427 H421 0.950 . S
C427 C426 1.327 . S
C427 C431 1.429 . S
C428 C411 1.574 . S
C428 H422 0.949 . S
C428 C432 1.368 . S
C429 C410 1.429 . S
C429 C423 1.429 . S
C429 C430 1.523 . S
C430 C411 1.368 . S
C430 C424 1.368 . S
C430 C429 1.523 . S
C431 C415 1.429 . S
C431 C427 1.429 . S
C431 C432 1.523 . S
C432 C416 1.368 . S
C432 C428 1.368 . S
C432 C431 1.523 . S
H433 C408 0.950 . S
H434 C410 0.950 . S
H435 C411 0.949 . S
H436 C413 0.950 . S
H437 C415 0.950 . S
C438 C439 1.349 . S
C438 C440 1.327 . S
C438 H463 0.950 . S
C439 C438 1.349 . S
C439 C455 1.349 . S
C440 C438 1.327 . S
C440 C459 1.429 . S
C440 H464 0.950 . S
C441 C458 1.574 . S
C441 C460 1.368 . S
C441 H465 0.949 . S
H442 C446 0.949 . S
C443 C444 1.349 . S
C443 C445 1.327 . S
C443 H466 0.950 . S
C444 C443 1.349 . S
C444 C456 1.349 . S
C445 C443 1.327 . S
C445 C461 1.429 . S
C445 H467 0.950 . S
C446 H442 0.949 . S
C446 C454 1.574 . S
C446 C462 1.368 . S
H447 C455 0.950 . S
H448 C453 0.950 . S
H449 C454 0.949 . S
H450 C456 0.950 . S
H451 C457 0.950 . S
H452 C458 0.949 . S
C453 H448 0.950 . S
C453 C455 1.327 . S
C453 C459 1.429 . S
C454 C446 1.574 . S
C454 H449 0.949 . S
C454 C460 1.368 . S
C455 C439 1.349 . S
C455 H447 0.950 . S
C455 C453 1.327 . S
C456 C444 1.349 . S
C456 H450 0.950 . S
C456 C457 1.327 . S
C457 H451 0.950 . S
C457 C456 1.327 . S
C457 C461 1.429 . S
C458 C441 1.574 . S
C458 H452 0.949 . S
C458 C462 1.368 . S
C459 C440 1.429 . S
C459 C453 1.429 . S
C459 C460 1.523 . S
C460 C441 1.368 . S
C460 C454 1.368 . S
C460 C459 1.523 . S
C461 C445 1.429 . S
C461 C457 1.429 . S
C461 C462 1.523 . S
C462 C446 1.368 . S
C462 C458 1.368 . S
C462 C461 1.523 . S
H463 C438 0.950 . S
H464 C440 0.950 . S
H465 C441 0.949 . S
H466 C443 0.950 . S
H467 C445 0.950 . S
C468 C469 1.349 . S
C468 C470 1.327 . S
C468 H493 0.950 . S
C469 C468 1.349 . S
C469 C485 1.349 . S
C470 C468 1.327 . S
C470 C489 1.429 . S
C470 H494 0.950 . S
C471 C488 1.574 . S
C471 C490 1.368 . S
C471 H495 0.949 . S
H472 C476 0.949 . S
C473 C474 1.349 . S
C473 C475 1.327 . S
C473 H496 0.950 . S
C474 C473 1.349 . S
C474 C486 1.349 . S
C475 C473 1.327 . S
C475 C491 1.429 . S
C475 H497 0.950 . S
C476 H472 0.949 . S
C476 C484 1.574 . S
C476 C492 1.368 . S
H477 C485 0.950 . S
H478 C483 0.950 . S
H479 C484 0.949 . S
H480 C486 0.950 . S
H481 C487 0.950 . S
H482 C488 0.949 . S
C483 H478 0.950 . S
C483 C485 1.327 . S
C483 C489 1.429 . S
C484 C476 1.574 . S
C484 H479 0.949 . S
C484 C490 1.368 . S
C485 C469 1.349 . S
C485 H477 0.950 . S
C485 C483 1.327 . S
C486 C474 1.349 . S
C486 H480 0.950 . S
C486 C487 1.327 . S
C487 H481 0.950 . S
C487 C486 1.327 . S
C487 C491 1.429 . S
C488 C471 1.574 . S
C488 H482 0.949 . S
C488 C492 1.368 . S
C489 C470 1.429 . S
C489 C483 1.429 . S
C489 C490 1.523 . S
C490 C471 1.368 . S
C490 C484 1.368 . S
C490 C489 1.523 . S
C491 C475 1.429 . S
C491 C487 1.429 . S
C491 C492 1.523 . S
C492 C476 1.368 . S
C492 C488 1.368 . S
C492 C491 1.523 . S
H493 C468 0.950 . S
H494 C470 0.950 . S
H495 C471 0.949 . S
H496 C473 0.950 . S
H497 C475 0.950 . S
C498 C499 1.349 1_655 S
C498 C500 1.327 . S
C498 H523 0.950 . S
C499 C498 1.349 1_455 S
C499 C515 1.349 . S
C500 C498 1.327 . S
C500 C519 1.429 1_655 S
C500 H524 0.950 . S
C501 C518 1.574 . S
C501 C520 1.368 . S
C501 H525 0.949 . S
H502 C506 0.949 . S
C503 C504 1.349 . S
C503 C505 1.327 . S
C503 H526 0.950 . S
C504 C503 1.349 . S
C504 C516 1.349 . S
C505 C503 1.327 . S
C505 C521 1.429 . S
C505 H527 0.950 . S
C506 H502 0.949 . S
C506 C514 1.574 1_556 S
C506 C522 1.368 1_655 S
H507 C515 0.950 . S
H508 C513 0.950 . S
H509 C514 0.949 . S
H510 C516 0.950 1_655 S
H511 C517 0.950 1_655 S
H512 C518 0.949 1_556 S
C513 H508 0.950 . S
C513 C515 1.327 . S
C513 C519 1.429 . S
C514 C506 1.574 1_554 S
C514 H509 0.949 . S
C514 C520 1.368 1_655 S
C515 C499 1.349 . S
C515 H507 0.950 . S
C515 C513 1.327 . S
C516 C504 1.349 . S
C516 H510 0.950 1_455 S
C516 C517 1.327 . S
C517 H511 0.950 1_455 S
C517 C516 1.327 . S
C517 C521 1.429 . S
C518 C501 1.574 . S
C518 H512 0.949 1_554 S
C518 C522 1.368 1_554 S
C519 C500 1.429 1_455 S
C519 C513 1.429 . S
C519 C520 1.523 . S
C520 C501 1.368 . S
C520 C514 1.368 1_455 S
C520 C519 1.523 . S
C521 C505 1.429 . S
C521 C517 1.429 . S
C521 C522 1.523 . S
C522 C506 1.368 1_455 S
C522 C518 1.368 1_556 S
C522 C521 1.523 . S
H523 C498 0.950 . S
H524 C500 0.950 . S
H525 C501 0.949 . S
H526 C503 0.950 . S
H527 C505 0.950 . S
C528 C529 1.349 . S
C528 C530 1.327 . S
C528 H553 0.950 . S
C529 C528 1.349 . S
C529 C545 1.349 . S
C530 C528 1.327 . S
C530 C549 1.429 . S
C530 H554 0.950 . S
C531 C548 1.574 . S
C531 C550 1.368 1_565 S
C531 H555 0.949 . S
H532 C536 0.949 . S
C533 C534 1.349 1_565 S
C533 C535 1.327 . S
C533 H556 0.950 . S
C534 C533 1.349 1_545 S
C534 C546 1.349 . S
C535 C533 1.327 . S
C535 C551 1.429 1_565 S
C535 H557 0.950 . S
C536 H532 0.949 . S
C536 C544 1.574 . S
C536 C552 1.368 . S
H537 C545 0.950 1_565 S
H538 C543 0.940 1_565 S
H539 C544 0.949 . S
H540 C546 0.950 . S
H541 C547 0.950 . S
H542 C548 0.949 . S
C543 H538 0.940 1_545 S
C543 C545 1.325 . S
C543 C549 1.441 . S
C544 C536 1.574 . S
C544 H539 0.949 . S
C544 C550 1.368 . S
C545 C529 1.349 . S
C545 H537 0.950 1_545 S
C545 C543 1.325 . S
C546 C534 1.349 . S
C546 H540 0.950 . S
C546 C547 1.327 . S
C547 H541 0.950 . S
C547 C546 1.327 . S
C547 C551 1.429 . S
C548 C531 1.574 . S
C548 H542 0.949 . S
C548 C552 1.368 1_565 S
C549 C530 1.429 . S
C549 C543 1.441 . S
C549 C550 1.523 . S
C550 C531 1.368 1_545 S
C550 C544 1.368 . S
C550 C549 1.523 . S
C551 C535 1.429 1_545 S
C551 C547 1.429 . S
C551 C552 1.523 . S
C552 C536 1.368 . S
C552 C548 1.368 1_545 S
C552 C551 1.523 . S
H553 C528 0.950 . S
H554 C530 0.950 . S
H555 C531 0.949 . S
H556 C533 0.950 . S
H557 C535 0.950 . S
C558 C559 1.349 . S
C558 C560 1.327 . S
C558 H583 0.950 . S
C559 C558 1.349 . S
C559 C575 1.349 . S
C560 C558 1.327 . S
C560 C579 1.429 . S
C560 H584 0.950 . S
C561 C578 1.574 . S
C561 C580 1.368 . S
C561 H585 0.949 . S
H562 C566 0.949 . S
C563 C564 1.349 . S
C563 C565 1.327 . S
C563 H586 0.950 . S
C564 C563 1.349 . S
C564 C576 1.349 . S
C565 C563 1.327 . S
C565 C581 1.429 . S
C565 H587 0.950 . S
C566 H562 0.949 . S
C566 C574 1.574 . S
C566 C582 1.368 . S
H567 C575 0.950 . S
H568 C573 0.950 . S
H569 C574 0.949 . S
H570 C576 0.950 . S
H571 C577 0.950 . S
H572 C578 0.949 . S
C573 H568 0.950 . S
C573 C575 1.327 . S
C573 C579 1.429 . S
C574 C566 1.574 . S
C574 H569 0.949 . S
C574 C580 1.368 . S
C575 C559 1.349 . S
C575 H567 0.950 . S
C575 C573 1.327 . S
C576 C564 1.349 . S
C576 H570 0.950 . S
C576 C577 1.327 . S
C577 H571 0.950 . S
C577 C576 1.327 . S
C577 C581 1.429 . S
C578 C561 1.574 . S
C578 H572 0.949 . S
C578 C582 1.368 . S
C579 C560 1.429 . S
C579 C573 1.429 . S
C579 C580 1.523 . S
C580 C561 1.368 . S
C580 C574 1.368 . S
C580 C579 1.523 . S
C581 C565 1.429 . S
C581 C577 1.429 . S
C581 C582 1.523 . S
C582 C566 1.368 . S
C582 C578 1.368 . S
C582 C581 1.523 . S
H583 C558 0.950 . S
H584 C560 0.950 . S
H585 C561 0.949 . S
H586 C563 0.950 . S
H587 C565 0.950 . S
C588 C589 1.349 . S
C588 C590 1.327 . S
C588 H613 0.950 . S
C589 C588 1.349 . S
C589 C605 1.355 . S
C590 C588 1.327 . S
C590 C609 1.429 . S
C590 H614 0.950 . S
C591 C608 1.574 . S
C591 C610 1.368 . S
C591 H615 0.949 1_545 S
H592 C596 0.949 . S
C593 C594 1.349 . S
C593 C595 1.327 . S
C593 H616 0.950 . S
C594 C593 1.349 . S
C594 C606 1.349 . S
C595 C593 1.327 . S
C595 C611 1.429 . S
C595 H617 0.950 1_545 S
C596 H592 0.949 . S
C596 C604 1.574 . S
C596 C612 1.368 . S
H597 C605 0.942 1_565 S
H598 C603 0.950 1_565 S
H599 C604 0.949 . S
H600 C606 0.950 . S
H601 C607 0.950 . S
H602 C608 0.949 1_565 S
C603 H598 0.950 1_545 S
C603 C605 1.328 . S
C603 C609 1.429 . S
C604 C596 1.574 . S
C604 H599 0.949 . S
C604 C610 1.368 . S
C605 C589 1.355 . S
C605 H597 0.942 1_545 S
C605 C603 1.328 . S
C606 C594 1.349 . S
C606 H600 0.950 . S
C606 C607 1.327 . S
C607 H601 0.950 . S
C607 C606 1.327 . S
C607 C611 1.429 . S
C608 C591 1.574 . S
C608 H602 0.949 1_545 S
C608 C612 1.368 . S
C609 C590 1.429 . S
C609 C603 1.429 . S
C609 C610 1.523 . S
C610 C591 1.368 . S
C610 C604 1.368 . S
C610 C609 1.523 . S
C611 C595 1.429 . S
C611 C607 1.429 . S
C611 C612 1.523 . S
C612 C596 1.368 . S
C612 C608 1.368 . S
C612 C611 1.523 . S
H613 C588 0.950 . S
H614 C590 0.950 . S
H615 C591 0.949 1_565 S
H616 C593 0.950 . S
H617 C595 0.950 1_565 S
C618 C619 1.349 . S
C618 C620 1.327 . S
C618 H643 0.950 . S
C619 C618 1.349 . S
C619 C635 1.349 . S
C620 C618 1.327 . S
C620 C639 1.429 . S
C620 H644 0.950 . S
C621 C638 1.582 . S
C621 C640 1.368 . S
C621 H645 0.949 . S
H622 C626 0.949 . S
C623 C624 1.349 . S
C623 C625 1.327 . S
C623 H646 0.950 . S
C624 C623 1.349 . S
C624 C636 1.349 . S
C625 C623 1.327 . S
C625 C641 1.429 . S
C625 H647 0.950 . S
C626 H622 0.949 . S
C626 C634 1.574 1_554 S
C626 C642 1.368 . S
H627 C635 0.950 . S
H628 C633 0.950 . S
H629 C634 0.949 . S
H630 C636 0.950 . S
H631 C637 0.950 . S
H632 C638 0.945 1_554 S
C633 H628 0.950 . S
C633 C635 1.327 . S
C633 C639 1.429 . S
C634 C626 1.574 1_556 S
C634 H629 0.949 . S
C634 C640 1.368 . S
C635 C619 1.349 . S
C635 H627 0.950 . S
C635 C633 1.327 . S
C636 C624 1.349 . S
C636 H630 0.950 . S
C636 C637 1.327 . S
C637 H631 0.950 . S
C637 C636 1.327 . S
C637 C641 1.429 . S
C638 C621 1.582 . S
C638 H632 0.945 1_556 S
C638 C642 1.365 1_556 S
C639 C620 1.429 . S
C639 C633 1.429 . S
C639 C640 1.523 . S
C640 C621 1.368 . S
C640 C634 1.368 . S
C640 C639 1.523 . S
C641 C625 1.429 . S
C641 C637 1.429 . S
C641 C642 1.523 . S
C642 C626 1.368 . S
C642 C638 1.365 1_554 S
C642 C641 1.523 . S
H643 C618 0.950 . S
H644 C620 0.950 . S
H645 C621 0.949 . S
H646 C623 0.950 . S
H647 C625 0.950 . S
C648 C649 1.349 . S
C648 C650 1.327 . S
C648 H673 0.950 1_455 S
C649 C648 1.349 . S
C649 C665 1.349 . S
C650 C648 1.327 . S
C650 C669 1.429 . S
C650 H674 0.950 . S
C651 C668 1.574 . S
C651 C670 1.368 . S
C651 H675 0.949 . S
H652 C656 0.949 . S
C653 C654 1.349 . S
C653 C655 1.327 . S
C653 H676 0.950 . S
C654 C653 1.349 . S
C654 C666 1.349 . S
C655 C653 1.327 . S
C655 C671 1.429 . S
C655 H677 0.950 . S
C656 H652 0.949 . S
C656 C664 1.574 . S
C656 C672 1.368 . S
H657 C665 0.950 . S
H658 C663 0.950 . S
H659 C664 0.949 . S
H660 C666 0.950 . S
H661 C667 0.950 . S
H662 C668 0.949 . S
C663 H658 0.950 . S
C663 C665 1.327 . S
C663 C669 1.429 . S
C664 C656 1.574 . S
C664 H659 0.949 . S
C664 C670 1.368 . S
C665 C649 1.349 . S
C665 H657 0.950 . S
C665 C663 1.327 . S
C666 C654 1.349 . S
C666 H660 0.950 . S
C666 C667 1.327 . S
C667 H661 0.950 . S
C667 C666 1.327 . S
C667 C671 1.429 . S
C668 C651 1.574 . S
C668 H662 0.949 . S
C668 C672 1.368 . S
C669 C650 1.429 . S
C669 C663 1.429 . S
C669 C670 1.523 . S
C670 C651 1.368 . S
C670 C664 1.368 . S
C670 C669 1.523 . S
C671 C655 1.429 . S
C671 C667 1.429 . S
C671 C672 1.523 . S
C672 C656 1.368 . S
C672 C668 1.368 . S
C672 C671 1.523 . S
H673 C648 0.950 1_655 S
H674 C650 0.950 . S
H675 C651 0.949 . S
H676 C653 0.950 . S
H677 C655 0.950 . S
C139 C2 1.015 . S
C144 N127 1.076 . S
C169 C22 1.219 . S
C174 N100 1.321 . S
C199 C44 1.239 . S
C204 N113 1.334 . S
C229 C4 1.804 . S
C234 N126 1.912 . S
C264 N101 1.641 . S
C259 C24 1.572 . S
C294 N114 1.592 . S
C289 C42 1.512 . S
C319 C32 1.165 . S
C324 N74 1.206 . S
C349 C49 0.858 . S
C354 N88 0.866 1_655 S
C379 C9 1.273 . S
C384 N62 1.287 . S
C414 N75 1.251 . S
C409 C29 1.224 . S
C444 N87 1.583 . S
C439 C52 1.526 . S
C469 C12 1.132 . S
C474 N61 1.180 . S
C504 N91 1.493 . S
C499 C18 1.518 1_455 S
C529 C38 1.526 . S
C534 N65 1.547 . S
C559 C58 1.516 . S
C564 N78 1.505 . S
C594 N117 1.604 . S
C589 C39 1.593 . S
C624 N130 1.522 . S
C619 C59 1.512 . S
C649 C19 1.533 . S
C654 N104 1.552 . S
