# Generated by pormake.
# Topology eea, (3,6)-cn, num edge types: 1
# Building blocks:
#     Node 0, Type 0, BuildingBlock: BETDIP_clean_linker_0, # of connection points: 3
#     Node 1, Type 0, BuildingBlock: BETDIP_clean_linker_0, # of connection points: 3
#     Node 2, Type 0, BuildingBlock: BETDIP_clean_linker_0, # of connection points: 3
#     Node 3, Type 0, BuildingBlock: BETDIP_clean_linker_0, # of connection points: 3
#     Node 4, Type 0, BuildingBlock: BETDIP_clean_linker_0, # of connection points: 3
#     Node 5, Type 0, BuildingBlock: BETDIP_clean_linker_0, # of connection points: 3
#     Node 6, Type 0, BuildingBlock: BETDIP_clean_linker_0, # of connection points: 3
#     Node 7, Type 0, BuildingBlock: BETDIP_clean_linker_0, # of connection points: 3
#     Node 8, Type 0, BuildingBlock: BETDIP_clean_linker_0, # of connection points: 3
#     Node 9, Type 0, BuildingBlock: BETDIP_clean_linker_0, # of connection points: 3
#     Node 10, Type 0, BuildingBlock: BETDIP_clean_linker_0, # of connection points: 3
#     Node 11, Type 0, BuildingBlock: BETDIP_clean_linker_0, # of connection points: 3
#     Node 12, Type 0, BuildingBlock: BETDIP_clean_linker_0, # of connection points: 3
#     Node 13, Type 0, BuildingBlock: BETDIP_clean_linker_0, # of connection points: 3
#     Node 14, Type 0, BuildingBlock: BETDIP_clean_linker_0, # of connection points: 3
#     Node 15, Type 0, BuildingBlock: BETDIP_clean_linker_0, # of connection points: 3
#     Node 16, Type 0, BuildingBlock: BETDIP_clean_linker_0, # of connection points: 3
#     Node 17, Type 0, BuildingBlock: BETDIP_clean_linker_0, # of connection points: 3
#     Node 18, Type 1, BuildingBlock: CUWYAW_clean_sbu_0, # of connection points: 6
#     Node 19, Type 1, BuildingBlock: CUWYAW_clean_sbu_0, # of connection points: 6
#     Node 20, Type 1, BuildingBlock: CUWYAW_clean_sbu_0, # of connection points: 6
#     Node 21, Type 1, BuildingBlock: CUWYAW_clean_sbu_0, # of connection points: 6
#     Node 22, Type 1, BuildingBlock: CUWYAW_clean_sbu_0, # of connection points: 6
#     Node 23, Type 1, BuildingBlock: CUWYAW_clean_sbu_0, # of connection points: 6
#     Node 24, Type 1, BuildingBlock: CUWYAW_clean_sbu_0, # of connection points: 6
#     Node 25, Type 1, BuildingBlock: CUWYAW_clean_sbu_0, # of connection points: 6
#     Node 26, Type 1, BuildingBlock: CUWYAW_clean_sbu_0, # of connection points: 6
#     Edge 27, Type (0, 1), BuildingBlock: EZIPEK_clean_linker_0, # of connection points: 2
#     Edge 28, Type (0, 1), BuildingBlock: EZIPEK_clean_linker_0, # of connection points: 2
#     Edge 29, Type (0, 1), BuildingBlock: EZIPEK_clean_linker_0, # of connection points: 2
#     Edge 30, Type (0, 1), BuildingBlock: EZIPEK_clean_linker_0, # of connection points: 2
#     Edge 31, Type (0, 1), BuildingBlock: EZIPEK_clean_linker_0, # of connection points: 2
#     Edge 32, Type (0, 1), BuildingBlock: EZIPEK_clean_linker_0, # of connection points: 2
#     Edge 33, Type (0, 1), BuildingBlock: EZIPEK_clean_linker_0, # of connection points: 2
#     Edge 34, Type (0, 1), BuildingBlock: EZIPEK_clean_linker_0, # of connection points: 2
#     Edge 35, Type (0, 1), BuildingBlock: EZIPEK_clean_linker_0, # of connection points: 2
#     Edge 36, Type (0, 1), BuildingBlock: EZIPEK_clean_linker_0, # of connection points: 2
#     Edge 37, Type (0, 1), BuildingBlock: EZIPEK_clean_linker_0, # of connection points: 2
#     Edge 38, Type (0, 1), BuildingBlock: EZIPEK_clean_linker_0, # of connection points: 2
#     Edge 39, Type (0, 1), BuildingBlock: EZIPEK_clean_linker_0, # of connection points: 2
#     Edge 40, Type (0, 1), BuildingBlock: EZIPEK_clean_linker_0, # of connection points: 2
#     Edge 41, Type (0, 1), BuildingBlock: EZIPEK_clean_linker_0, # of connection points: 2
#     Edge 42, Type (0, 1), BuildingBlock: EZIPEK_clean_linker_0, # of connection points: 2
#     Edge 43, Type (0, 1), BuildingBlock: EZIPEK_clean_linker_0, # of connection points: 2
#     Edge 44, Type (0, 1), BuildingBlock: EZIPEK_clean_linker_0, # of connection points: 2
#     Edge 45, Type (0, 1), BuildingBlock: EZIPEK_clean_linker_0, # of connection points: 2
#     Edge 46, Type (0, 1), BuildingBlock: EZIPEK_clean_linker_0, # of connection points: 2
#     Edge 47, Type (0, 1), BuildingBlock: EZIPEK_clean_linker_0, # of connection points: 2
#     Edge 48, Type (0, 1), BuildingBlock: EZIPEK_clean_linker_0, # of connection points: 2
#     Edge 49, Type (0, 1), BuildingBlock: EZIPEK_clean_linker_0, # of connection points: 2
#     Edge 50, Type (0, 1), BuildingBlock: EZIPEK_clean_linker_0, # of connection points: 2
#     Edge 51, Type (0, 1), BuildingBlock: EZIPEK_clean_linker_0, # of connection points: 2
#     Edge 52, Type (0, 1), BuildingBlock: EZIPEK_clean_linker_0, # of connection points: 2
#     Edge 53, Type (0, 1), BuildingBlock: EZIPEK_clean_linker_0, # of connection points: 2
#     Edge 54, Type (0, 1), BuildingBlock: EZIPEK_clean_linker_0, # of connection points: 2
#     Edge 55, Type (0, 1), BuildingBlock: EZIPEK_clean_linker_0, # of connection points: 2
#     Edge 56, Type (0, 1), BuildingBlock: EZIPEK_clean_linker_0, # of connection points: 2
#     Edge 57, Type (0, 1), BuildingBlock: EZIPEK_clean_linker_0, # of connection points: 2
#     Edge 58, Type (0, 1), BuildingBlock: EZIPEK_clean_linker_0, # of connection points: 2
#     Edge 59, Type (0, 1), BuildingBlock: EZIPEK_clean_linker_0, # of connection points: 2
#     Edge 60, Type (0, 1), BuildingBlock: EZIPEK_clean_linker_0, # of connection points: 2
#     Edge 61, Type (0, 1), BuildingBlock: EZIPEK_clean_linker_0, # of connection points: 2
#     Edge 62, Type (0, 1), BuildingBlock: EZIPEK_clean_linker_0, # of connection points: 2
#     Edge 63, Type (0, 1), BuildingBlock: EZIPEK_clean_linker_0, # of connection points: 2
#     Edge 64, Type (0, 1), BuildingBlock: EZIPEK_clean_linker_0, # of connection points: 2
#     Edge 65, Type (0, 1), BuildingBlock: EZIPEK_clean_linker_0, # of connection points: 2
#     Edge 66, Type (0, 1), BuildingBlock: EZIPEK_clean_linker_0, # of connection points: 2
#     Edge 67, Type (0, 1), BuildingBlock: EZIPEK_clean_linker_0, # of connection points: 2
#     Edge 68, Type (0, 1), BuildingBlock: EZIPEK_clean_linker_0, # of connection points: 2
#     Edge 69, Type (0, 1), BuildingBlock: EZIPEK_clean_linker_0, # of connection points: 2
#     Edge 70, Type (0, 1), BuildingBlock: EZIPEK_clean_linker_0, # of connection points: 2
#     Edge 71, Type (0, 1), BuildingBlock: EZIPEK_clean_linker_0, # of connection points: 2
#     Edge 72, Type (0, 1), BuildingBlock: EZIPEK_clean_linker_0, # of connection points: 2
#     Edge 73, Type (0, 1), BuildingBlock: EZIPEK_clean_linker_0, # of connection points: 2
#     Edge 74, Type (0, 1), BuildingBlock: EZIPEK_clean_linker_0, # of connection points: 2
#     Edge 75, Type (0, 1), BuildingBlock: EZIPEK_clean_linker_0, # of connection points: 2
#     Edge 76, Type (0, 1), BuildingBlock: EZIPEK_clean_linker_0, # of connection points: 2
#     Edge 77, Type (0, 1), BuildingBlock: EZIPEK_clean_linker_0, # of connection points: 2
#     Edge 78, Type (0, 1), BuildingBlock: EZIPEK_clean_linker_0, # of connection points: 2
#     Edge 79, Type (0, 1), BuildingBlock: EZIPEK_clean_linker_0, # of connection points: 2
#     Edge 80, Type (0, 1), BuildingBlock: EZIPEK_clean_linker_0, # of connection points: 2
# Relax obj value: 0.062
# Max RMSD: 0.228
# Mean RMSD: 0.162
data_MOF--net-eea--node1-CUWYAW_clean_sbu_0--node2-BETDIP_clean_linker_0--edge1-EZIPEK_clean_linker_0
_symmetry_space_group_name_H-M    P1
_symmetry_Int_Tables_number       1
_symmetry_cell_setting            triclinic
loop_
_symmetry_equiv_pos_as_xyz
'x, y, z'
_cell_length_a     39.749665
_cell_length_b     39.334448
_cell_length_c     54.875764
_cell_angle_alpha  93.321032
_cell_angle_beta   93.112061
_cell_angle_gamma 119.93618
loop_
_atom_site_label
_atom_site_type_symbol
_atom_site_fract_x
_atom_site_fract_y
_atom_site_fract_z
_atom_type_partial_charge
H0 H 0.21603 0.08867 0.35981 0.0
H1 H 0.24552 0.16037 0.42859 0.0
H2 H 0.25117 0.05395 0.42496 0.0
H3 H 0.26549 0.20928 0.40118 0.0
C4 C 0.24055 0.19537 0.38745 0.0
C5 C 0.2255 0.0941 0.37925 0.0
C6 C 0.23306 0.06735 0.39082 0.0
C7 C 0.23054 0.12808 0.39256 0.0
C8 C 0.24244 0.13481 0.41787 0.0
C9 C 0.24997 0.10814 0.42958 0.0
C10 C 0.24526 0.07452 0.41597 0.0
N11 N 0.22226 0.15427 0.38023 0.0
H12 H 0.93248 0.14301 0.38303 0.0
H13 H 0.86278 0.11478 0.44435 0.0
H14 H 0.9666 0.22747 0.44627 0.0
H15 H 0.82164 0.06147 0.42298 0.0
C16 C 0.83253 0.05638 0.40632 0.0
C17 C 0.92711 0.15109 0.40102 0.0
C18 C 0.95345 0.18845 0.4133 0.0
C19 C 0.89391 0.124 0.41173 0.0
C20 C 0.88756 0.13478 0.43524 0.0
C21 C 0.91352 0.17193 0.44769 0.0
C22 C 0.94643 0.19882 0.43666 0.0
N23 N 0.86796 0.08653 0.3984 0.0
H24 H 0.88716 0.8012 0.38024 0.0
H25 H 0.92365 0.75852 0.44111 0.0
H26 H 0.81773 0.76261 0.44109 0.0
H27 H 0.98094 0.7866 0.42612 0.0
C28 C 0.97706 0.78911 0.40673 0.0
C29 C 0.88253 0.78945 0.39792 0.0
C30 C 0.84925 0.78266 0.40931 0.0
C31 C 0.91008 0.78153 0.40921 0.0
C32 C 0.90358 0.76595 0.43219 0.0
C33 C 0.87035 0.75925 0.44379 0.0
C34 C 0.84339 0.76774 0.43224 0.0
N35 N 0.94339 0.78932 0.3967 0.0
H36 H 0.09546 0.22434 0.64386 0.0
H37 H 0.16691 0.26796 0.58411 0.0
H38 H 0.06058 0.27092 0.58469 0.0
H39 H 0.18957 0.22998 0.595 0.0
C40 C 0.18848 0.22877 0.61465 0.0
C41 C 0.10108 0.23784 0.62675 0.0
C42 C 0.0745 0.24745 0.61587 0.0
C43 C 0.13407 0.24413 0.61528 0.0
C44 C 0.14106 0.26154 0.59303 0.0
C45 C 0.11464 0.27106 0.5819 0.0
C46 C 0.08132 0.26405 0.59338 0.0
N47 N 0.15927 0.23232 0.62649 0.0
H48 H 0.79791 0.87224 0.65976 0.0
H49 H 0.76337 0.90556 0.59378 0.0
H50 H 0.7563 0.79304 0.59343 0.0
H51 H 0.75635 0.94737 0.62037 0.0
C52 C 0.78135 0.95716 0.6337 0.0
C53 C 0.78646 0.8654 0.64062 0.0
C54 C 0.77755 0.82922 0.62815 0.0
C55 C 0.78118 0.89304 0.62855 0.0
C56 C 0.76676 0.88428 0.60368 0.0
C57 C 0.75739 0.84819 0.59107 0.0
C58 C 0.76309 0.82077 0.60325 0.0
N59 N 0.79253 0.93007 0.64154 0.0
H60 H 0.13998 0.92381 0.65176 0.0
H61 H 0.09416 0.85181 0.5825 0.0
H62 H 0.2073 0.95591 0.58964 0.0
H63 H 0.04528 0.81121 0.60161 0.0
C64 C 0.04657 0.82274 0.62026 0.0
C65 C 0.14305 0.91781 0.63273 0.0
C66 C 0.17709 0.94383 0.62232 0.0
C67 C 0.11274 0.88435 0.61879 0.0
C68 C 0.1169 0.87703 0.59392 0.0
C69 C 0.1512 0.90264 0.58348 0.0
C70 C 0.18103 0.93597 0.59773 0.0
N71 N 0.07881 0.85949 0.63052 0.0
H72 H 0.8931 0.42494 0.694 0.0
H73 H 0.92748 0.50379 0.76018 0.0
H74 H 0.92905 0.39579 0.76132 0.0
H75 H 0.93722 0.54876 0.73419 0.0
C76 C 0.91418 0.53289 0.71939 0.0
C77 C 0.90363 0.43233 0.71329 0.0
C78 C 0.91037 0.40607 0.72619 0.0
C79 C 0.90994 0.46789 0.7252 0.0
C80 C 0.9233 0.47715 0.75032 0.0
C81 C 0.93057 0.45141 0.76321 0.0
C82 C 0.92379 0.41584 0.7512 0.0
N83 N 0.90079 0.49263 0.7118 0.0
H84 H 0.59036 0.47181 0.70573 0.0
H85 H 0.51983 0.44214 0.76641 0.0
H86 H 0.62501 0.55461 0.76989 0.0
H87 H 0.47268 0.3971 0.73794 0.0
C88 C 0.48883 0.38752 0.7269 0.0
C89 C 0.58485 0.47979 0.7237 0.0
C90 C 0.61158 0.51654 0.7364 0.0
C91 C 0.55158 0.4528 0.73417 0.0
C92 C 0.54482 0.46289 0.75767 0.0
C93 C 0.57099 0.49964 0.77052 0.0
C94 C 0.60447 0.52643 0.75988 0.0
N95 N 0.52693 0.41504 0.72117 0.0
H96 H 0.55584 0.12392 0.71417 0.0
H97 H 0.59069 0.09333 0.78137 0.0
H98 H 0.48463 0.09716 0.77443 0.0
H99 H 0.64816 0.1167 0.76719 0.0
C100 C 0.64596 0.11896 0.74765 0.0
C101 C 0.55075 0.11592 0.73275 0.0
C102 C 0.51709 0.11144 0.74267 0.0
C103 C 0.57838 0.11102 0.74668 0.0
C104 C 0.57097 0.09924 0.77056 0.0
C105 C 0.53695 0.09392 0.78048 0.0
C106 C 0.51073 0.10102 0.7667 0.0
N107 N 0.61269 0.11789 0.73576 0.0
H108 H 0.7557 0.55762 0.97593 0.0
H109 H 0.82747 0.59802 0.91609 0.0
H110 H 0.72276 0.6046 0.91611 0.0
H111 H 0.84657 0.55589 0.92777 0.0
C112 C 0.84724 0.55809 0.94761 0.0
C113 C 0.76154 0.57061 0.95866 0.0
C114 C 0.73559 0.58087 0.94759 0.0
C115 C 0.79439 0.57593 0.94737 0.0
C116 C 0.8018 0.59274 0.92489 0.0
C117 C 0.7762 0.60325 0.91353 0.0
C118 C 0.743 0.59721 0.92495 0.0
N119 N 0.81934 0.56431 0.95922 0.0
H120 H 0.47879 0.21761 0.98402 0.0
H121 H 0.43936 0.24168 0.91586 0.0
H122 H 0.43258 0.13048 0.92144 0.0
H123 H 0.45329 0.29723 0.93384 0.0
C124 C 0.46837 0.30297 0.95194 0.0
C125 C 0.46652 0.20862 0.96507 0.0
C126 C 0.45659 0.17094 0.95439 0.0
C127 C 0.461 0.23492 0.95146 0.0
C128 C 0.44452 0.22267 0.92696 0.0
C129 C 0.43403 0.18507 0.91623 0.0
C130 C 0.4406 0.15949 0.92982 0.0
N131 N 0.47236 0.27308 0.96301 0.0
H132 H 0.79468 0.26931 0.97942 0.0
H133 H 0.76466 0.18729 0.91561 0.0
H134 H 0.88386 0.27704 0.93482 0.0
H135 H 0.72936 0.14329 0.94729 0.0
C136 C 0.71591 0.15956 0.95434 0.0
C137 C 0.80372 0.25856 0.96393 0.0
C138 C 0.84325 0.2781 0.95913 0.0
C139 C 0.77601 0.22373 0.94968 0.0
C140 C 0.78651 0.21177 0.92806 0.0
C141 C 0.82522 0.23263 0.92215 0.0
C142 C 0.85366 0.26309 0.93882 0.0
N143 N 0.73799 0.20148 0.95753 0.0
H144 H 0.5333 0.75114 0.03878 0.0
H145 H 0.56228 0.81719 0.10982 0.0
H146 H 0.573 0.71418 0.10097 0.0
H147 H 0.56132 0.86336 0.09007 0.0
C148 C 0.54385 0.85078 0.07262 0.0
C149 C 0.54317 0.75538 0.0581 0.0
C150 C 0.5522 0.72846 0.06817 0.0
C151 C 0.54669 0.78769 0.07276 0.0
C152 C 0.55954 0.79293 0.09788 0.0
C153 C 0.56961 0.7668 0.10793 0.0
C154 C 0.56544 0.73445 0.09312 0.0
N155 N 0.53686 0.81385 0.06157 0.0
H156 H 0.2572 0.81118 0.03705 0.0
H157 H 0.18114 0.77818 0.09496 0.0
H158 H 0.28834 0.88951 0.10305 0.0
H159 H 0.13412 0.74161 0.06185 0.0
C160 C 0.15006 0.72966 0.05269 0.0
C161 C 0.25034 0.81804 0.05487 0.0
C162 C 0.27661 0.85379 0.06877 0.0
C163 C 0.21534 0.79099 0.06381 0.0
C164 C 0.20721 0.79944 0.08732 0.0
C165 C 0.23346 0.83481 0.10159 0.0
C166 C 0.26789 0.86225 0.09208 0.0
N167 N 0.19018 0.75452 0.04947 0.0
H168 H 0.22176 0.46335 0.05071 0.0
H169 H 0.25429 0.42778 0.11663 0.0
H170 H 0.14675 0.42912 0.10894 0.0
H171 H 0.26893 0.45707 0.03516 0.0
C172 C 0.29006 0.46146 0.05014 0.0
C173 C 0.21582 0.45283 0.06862 0.0
C174 C 0.18126 0.44685 0.07812 0.0
C175 C 0.24253 0.44616 0.08255 0.0
C176 C 0.234 0.43314 0.10588 0.0
C177 C 0.19945 0.4267 0.1154 0.0
C178 C 0.17338 0.43392 0.10156 0.0
N179 N 0.27859 0.45309 0.07421 0.0
H180 H 0.43612 0.90162 0.30735 0.0
H181 H 0.49869 0.94484 0.24412 0.0
H182 H 0.38702 0.93621 0.24855 0.0
H183 H 0.46452 0.8612 0.30268 0.0
C184 C 0.494 0.88233 0.29894 0.0
C185 C 0.43785 0.91239 0.28947 0.0
C186 C 0.40749 0.9176 0.27954 0.0
C187 C 0.47033 0.92121 0.2764 0.0
C188 C 0.47328 0.9372 0.25394 0.0
C189 C 0.4433 0.94254 0.24381 0.0
C190 C 0.41024 0.93217 0.25645 0.0
N191 N 0.50055 0.91455 0.28544 0.0
H192 H 0.13593 0.54509 0.32488 0.0
H193 H 0.09616 0.57328 0.25868 0.0
H194 H 0.10032 0.46627 0.25875 0.0
H195 H 0.08536 0.61299 0.28585 0.0
C196 C 0.11166 0.62473 0.29832 0.0
C197 C 0.1241 0.53733 0.30581 0.0
C198 C 0.11844 0.50238 0.29338 0.0
C199 C 0.11596 0.56306 0.29362 0.0
C200 C 0.10166 0.55336 0.26871 0.0
C201 C 0.09574 0.51841 0.25618 0.0
C202 C 0.10423 0.49295 0.26852 0.0
N203 N 0.1253 0.59967 0.30636 0.0
H204 H 0.46925 0.59091 0.31969 0.0
H205 H 0.43398 0.52386 0.24858 0.0
H206 H 0.53924 0.6367 0.25984 0.0
H207 H 0.38952 0.4751 0.26812 0.0
C208 C 0.38555 0.48663 0.28548 0.0
C209 C 0.47416 0.58781 0.30065 0.0
C210 C 0.5074 0.61781 0.29154 0.0
C211 C 0.44709 0.55383 0.2855 0.0
C212 C 0.45406 0.54969 0.26073 0.0
C213 C 0.4875 0.57967 0.25149 0.0
C214 C 0.51348 0.61368 0.26691 0.0
N215 N 0.41327 0.52546 0.29597 0.0
C216 C 0.54107 0.05318 0.08696 0.0
Eu217 Eu 0.51271 0.03251 0.04127 0.0
C218 C 0.52378 0.03694 0.10967 0.0
C219 C 0.53474 0.06136 0.13158 0.0
C220 C 0.51593 0.04678 0.15262 0.0
C221 C 0.48389 0.00779 0.15213 0.0
C222 C 0.47656 0.98258 0.13053 0.0
C223 C 0.49528 0.99714 0.1095 0.0
C224 C 0.47898 0.06197 0.01098 0.0
C225 C 0.42366 0.96089 0.03093 0.0
C226 C 0.45619 0.97567 0.94063 0.0
Eu227 Eu 0.48138 0.98936 0.98683 0.0
C228 C 0.46899 0.9957 0.91803 0.0
C229 C 0.48515 0.98145 0.90087 0.0
C230 C 0.49738 0.99946 0.87935 0.0
C231 C 0.49325 0.0318 0.87433 0.0
C232 C 0.47716 0.04628 0.89137 0.0
C233 C 0.46521 0.02846 0.91311 0.0
C234 C 0.50123 0.94621 0.01553 0.0
C235 C 0.57281 0.06048 0.99827 0.0
O236 O 0.54803 0.03038 0.07228 0.0
O237 O 0.52512 0.07038 0.07515 0.0
O238 O 0.47697 0.06227 0.03456 0.0
O239 O 0.50069 0.04867 1.0051 0.0
O240 O 0.45411 0.98161 0.04725 0.0
O241 O 0.42588 0.963 1.00687 0.0
O242 O 0.44331 0.99078 0.95714 0.0
O243 O 0.47825 0.96299 0.95035 0.0
O244 O 0.48848 0.93584 0.99251 0.0
O245 O 0.50286 0.9785 0.02113 0.0
O246 O 0.54408 0.03463 0.98197 0.0
O247 O 0.5683 0.0645 0.02193 0.0
H248 H 0.55791 0.09184 0.13246 0.0
H249 H 0.52755 0.06657 0.16922 0.0
H250 H 0.457 0.95119 0.12943 0.0
H251 H 0.48739 0.97709 0.09305 0.0
H252 H 0.48821 0.95615 0.90404 0.0
H253 H 0.50953 0.98776 0.86637 0.0
H254 H 0.47355 0.07111 0.88771 0.0
H255 H 0.45286 0.04017 0.92593 0.0
C256 C 1.00202 0.51996 0.08414 0.0
Eu257 Eu 0.99978 0.49982 0.03778 0.0
C258 C 0.01678 0.51526 0.10813 0.0
C259 C 0.01211 0.47885 0.1139 0.0
C260 C 0.02507 0.47508 0.13728 0.0
C261 C 0.04307 0.50774 0.15499 0.0
C262 C 0.04848 0.54421 0.14905 0.0
C263 C 0.03537 0.54791 0.12579 0.0
C264 C 0.95637 0.42609 0.01418 0.0
C265 C 0.0679 0.47768 0.02895 0.0
C266 C 0.01707 0.47096 0.94041 0.0
Eu267 Eu 0.02094 0.49344 0.98664 0.0
C268 C 0.00867 0.47465 0.91466 0.0
C269 C 0.01297 0.50968 0.90652 0.0
C270 C 1.00197 0.5105 0.88192 0.0
C271 C 0.98634 0.47624 0.8655 0.0
C272 C 0.98232 0.44149 0.87373 0.0
C273 C 0.99344 0.44074 0.89811 0.0
C274 C 0.06452 0.56629 0.01113 0.0
C275 C 0.95288 0.51579 0.99548 0.0
O276 O 0.02831 0.54224 0.07003 0.0
O277 O 0.97265 0.48853 0.07204 0.0
O278 O 0.9428 0.44257 0.02874 0.0
O279 O 0.99248 0.44898 0.0131 0.0
O280 O 0.05186 0.49089 0.04455 0.0
O281 O 0.05696 0.4709 1.00522 0.0
O282 O 0.98732 0.45692 0.95344 0.0
O283 O 0.04934 0.49855 0.95278 0.0
O284 O 0.07783 0.5516 0.99512 0.0
O285 O 0.02833 0.5438 0.01147 0.0
O286 O 0.96953 0.50327 0.97992 0.0
O287 O 0.96237 0.52074 0.01935 0.0
H288 H 0.99812 0.4533 0.10048 0.0
H289 H 0.02074 0.44675 0.14166 0.0
H290 H 0.06231 0.56963 0.16258 0.0
H291 H 0.03934 0.57623 0.12166 0.0
H292 H 0.02425 0.53599 0.91917 0.0
H293 H 1.00512 0.53752 0.87576 0.0
H294 H 0.97025 0.41484 0.86129 0.0
H295 H 0.98957 0.41336 0.90418 0.0
C296 C 0.47492 0.50838 0.93561 0.0
Eu297 Eu 0.50375 0.52288 0.98125 0.0
C298 C 0.49078 0.51084 0.91146 0.0
C299 C 0.51536 0.54739 0.90263 0.0
C300 C 0.53065 0.54895 0.88003 0.0
C301 C 0.52168 0.51408 0.8659 0.0
C302 C 0.49712 0.47764 0.87457 0.0
C303 C 0.4817 0.47602 0.89707 0.0
C304 C 0.53692 0.59124 0.01149 0.0
C305 C 0.59281 0.54394 0.99214 0.0
C306 C 0.55984 0.53853 0.08271 0.0
Eu307 Eu 0.53422 0.52055 0.03636 0.0
C308 C 0.54977 0.54879 0.10653 0.0
C309 C 0.55936 0.53603 0.12764 0.0
C310 C 0.55039 0.54493 0.15055 0.0
C311 C 0.53344 0.56903 0.15362 0.0
C312 C 0.51972 0.5775 0.1316 0.0
C313 C 0.5287 0.56849 0.10853 0.0
C314 C 0.51363 0.4522 0.00787 0.0
C315 C 0.44283 0.49589 0.02374 0.0
O316 O 0.4741 0.4813 0.94877 0.0
O317 O 0.4855 0.54155 0.94889 0.0
O318 O 0.53986 0.58966 0.98801 0.0
O319 O 0.51502 0.55702 0.01738 0.0
O320 O 0.56263 0.53118 0.9756 0.0
O321 O 0.5901 0.54701 0.01625 0.0
O322 O 0.57138 0.56461 0.06657 0.0
O323 O 0.5368 0.50239 0.07278 0.0
O324 O 0.52601 0.45844 0.03094 0.0
O325 O 0.51281 0.48226 1.00213 0.0
O326 O 0.47154 0.50394 0.04073 0.0
O327 O 0.44762 0.499 1.00002 0.0
H328 H 0.52296 0.5748 0.91317 0.0
H329 H 0.5495 0.57733 0.87355 0.0
H330 H 0.48981 0.45043 0.86385 0.0
H331 H 0.46277 0.44747 0.90331 0.0
H332 H 0.57355 0.51863 0.12641 0.0
H333 H 0.55673 0.53222 0.16582 0.0
H334 H 0.50102 0.58993 0.13136 0.0
H335 H 0.51859 0.57635 0.09222 0.0
C336 C 0.20895 0.38012 0.42177 0.0
Eu337 Eu 0.18584 0.36551 0.37505 0.0
C338 C 0.19198 0.36295 0.44455 0.0
C339 C 0.16509 0.3713 0.45519 0.0
C340 C 0.15 0.35602 0.477 0.0
C341 C 0.16147 0.33211 0.48861 0.0
C342 C 0.18797 0.32336 0.47804 0.0
C343 C 0.20324 0.33879 0.45624 0.0
C344 C 0.16566 0.40839 0.34783 0.0
C345 C 0.09236 0.29447 0.36724 0.0
C346 C 0.12189 0.31516 0.27778 0.0
Eu347 Eu 0.14679 0.32514 0.32402 0.0
C348 C 0.13652 0.33381 0.25495 0.0
C349 C 0.15814 0.32264 0.24037 0.0
C350 C 0.16998 0.33888 0.21821 0.0
C351 C 0.16028 0.36641 0.21017 0.0
C352 C 0.13921 0.37806 0.22477 0.0
C353 C 0.12738 0.36187 0.24692 0.0
C354 C 0.17128 0.28464 0.35118 0.0
C355 C 0.2403 0.39211 0.33029 0.0
O356 O 0.21769 0.35927 0.40668 0.0
O357 O 0.19337 0.39789 0.41027 0.0
O358 O 0.19538 0.42366 0.36424 0.0
O359 O 0.14568 0.37132 0.34839 0.0
O360 O 0.12444 0.31704 0.3822 0.0
O361 O 0.09226 0.29436 0.3432 0.0
O362 O 0.11542 0.33579 0.29451 0.0
O363 O 0.13734 0.29566 0.28725 0.0
O364 O 0.14046 0.26791 0.33539 0.0
O365 O 0.18928 0.32149 0.35022 0.0
O366 O 0.20835 0.3681 0.31577 0.0
O367 O 0.24003 0.39487 0.35452 0.0
H368 H 0.15588 0.38996 0.44682 0.0
H369 H 0.12969 0.36316 0.48499 0.0
H370 H 0.19723 0.30507 0.48685 0.0
H371 H 0.22406 0.33205 0.44864 0.0
H372 H 0.16546 0.30094 0.24588 0.0
H373 H 0.18615 0.32951 0.20711 0.0
H374 H 0.13139 0.3992 0.21881 0.0
H375 H 0.11055 0.37094 0.25758 0.0
C376 C 0.6495 0.84499 0.42097 0.0
Eu377 Eu 0.66334 0.83307 0.37632 0.0
C378 C 0.66464 0.84187 0.44528 0.0
C379 C 0.65984 0.86048 0.46627 0.0
C380 C 0.67501 0.85842 0.48939 0.0
C381 C 0.69519 0.83777 0.49176 0.0
C382 C 0.69976 0.81889 0.47078 0.0
C383 C 0.68467 0.82103 0.44766 0.0
C384 C 0.62531 0.76213 0.34846 0.0
C385 C 0.73173 0.81564 0.36892 0.0
C386 C 0.6962 0.81877 0.2806 0.0
Eu387 Eu 0.68519 0.83489 0.32519 0.0
C388 C 0.67504 0.80984 0.25604 0.0
C389 C 0.65565 0.82988 0.24888 0.0
C390 C 0.63694 0.82195 0.22518 0.0
C391 C 0.63699 0.79361 0.20846 0.0
C392 C 0.65541 0.77284 0.21579 0.0
C393 C 0.6744 0.78099 0.23942 0.0
C394 C 0.72244 0.90665 0.35155 0.0
C395 C 0.61756 0.85349 0.3342 0.0
O396 O 0.67445 0.87314 0.40888 0.0
O397 O 0.62838 0.81185 0.4071 0.0
O398 O 0.6379 0.76649 0.37137 0.0
O399 O 0.63206 0.79477 0.34174 0.0
O400 O 0.71556 0.82716 0.38523 0.0
O401 O 0.72244 0.81317 0.34503 0.0
O402 O 0.68017 0.79205 0.29593 0.0
O403 O 0.71068 0.85466 0.29104 0.0
O404 O 0.71029 0.901 0.32848 0.0
O405 O 0.71642 0.87463 0.35933 0.0
O406 O 0.62999 0.83721 0.31799 0.0
O407 O 0.63092 0.86009 0.3576 0.0
H408 H 0.64458 0.87676 0.46475 0.0
H409 H 0.67126 0.87315 0.50543 0.0
H410 H 0.71525 0.80284 0.47231 0.0
H411 H 0.68876 0.80657 0.43163 0.0
H412 H 0.65534 0.85195 0.26147 0.0
H413 H 0.6228 0.83818 0.21979 0.0
H414 H 0.6557 0.7509 0.20307 0.0
H415 H 0.68895 0.76506 0.24464 0.0
C416 C 0.14397 0.8295 0.27035 0.0
Eu417 Eu 0.17533 0.85107 0.31551 0.0
C418 C 0.15789 0.83488 0.24557 0.0
C419 C 0.18355 0.87238 0.23834 0.0
C420 C 0.19752 0.87613 0.21512 0.0
C421 C 0.18631 0.84248 0.19891 0.0
C422 C 0.16062 0.80516 0.20608 0.0
C423 C 0.14648 0.80141 0.22914 0.0
C424 C 0.21353 0.9242 0.34056 0.0
C425 C 0.26641 0.87774 0.32652 0.0
C426 C 0.22757 0.86798 0.41581 0.0
Eu427 Eu 0.20807 0.85483 0.36867 0.0
C428 C 0.21267 0.87458 0.43867 0.0
C429 C 0.17324 0.8512 0.44291 0.0
C430 C 0.16065 0.85552 0.46564 0.0
C431 C 0.18718 0.88352 0.48435 0.0
C432 C 0.22619 0.90782 0.47983 0.0
C433 C 0.23884 0.90329 0.45719 0.0
C434 C 0.18668 0.78754 0.33951 0.0
C435 C 0.11698 0.83179 0.35842 0.0
O436 O 0.15311 0.80799 0.28348 0.0
O437 O 0.14697 0.86016 0.28334 0.0
O438 O 0.21351 0.91765 0.31708 0.0
O439 O 0.19135 0.89222 0.34901 0.0
O440 O 0.23522 0.85963 0.31048 0.0
O441 O 0.26403 0.88478 0.35005 0.0
O442 O 0.24031 0.89614 0.40112 0.0
O443 O 0.20787 0.83267 0.40402 0.0
O444 O 0.21613 0.80336 0.35615 0.0
O445 O 0.16919 0.80671 0.34023 0.0
O446 O 0.14639 0.83936 0.37457 0.0
O447 O 0.12035 0.8337 0.33454 0.0
H448 H 0.19315 0.89871 0.25068 0.0
H449 H 0.21736 0.90517 0.20988 0.0
H450 H 0.15167 0.77888 0.19381 0.0
H451 H 0.12691 0.77221 0.23431 0.0
H452 H 0.15235 0.82898 0.42889 0.0
H453 H 0.13043 0.83657 0.46882 0.0
H454 H 0.24705 0.92953 0.49408 0.0
H455 H 0.26933 0.92162 0.45434 0.0
C456 C 0.87205 0.70644 0.75216 0.0
Eu457 Eu 0.84343 0.69024 0.70629 0.0
C458 C 0.85548 0.69542 0.77587 0.0
C459 C 0.88037 0.70337 0.7972 0.0
C460 C 0.86505 0.68946 0.8193 0.0
C461 C 0.82452 0.66726 0.82045 0.0
C462 C 0.79955 0.66005 0.79923 0.0
C463 C 0.81491 0.67391 0.77709 0.0
C464 C 0.80457 0.71886 0.67965 0.0
C465 C 0.75425 0.62063 0.69381 0.0
C466 C 0.79754 0.64107 0.60511 0.0
Eu467 Eu 0.8145 0.65318 0.65251 0.0
C468 C 0.81178 0.66138 0.58271 0.0
C469 C 0.82718 0.64625 0.56554 0.0
C470 C 0.83873 0.66333 0.5436 0.0
C471 C 0.8348 0.6957 0.53824 0.0
C472 C 0.82001 0.71136 0.55548 0.0
C473 C 0.80865 0.69442 0.57755 0.0
C474 C 0.83466 0.61166 0.68212 0.0
C475 C 0.90422 0.72657 0.66508 0.0
O476 O 0.86934 0.67731 0.73775 0.0
O477 O 0.86403 0.72987 0.74023 0.0
O478 O 0.80307 0.71573 0.70307 0.0
O479 O 0.82843 0.70948 0.67223 0.0
O480 O 0.78465 0.63773 0.71034 0.0
O481 O 0.75734 0.62639 0.67028 0.0
O482 O 0.78099 0.65427 0.62005 0.0
O483 O 0.81979 0.63022 0.6167 0.0
O484 O 0.80749 0.59569 0.66399 0.0
O485 O 0.85168 0.64857 0.68215 0.0
O486 O 0.8764 0.70075 0.64841 0.0
O487 O 0.899 0.72875 0.68869 0.0
H488 H 0.91172 0.71953 0.79662 0.0
H489 H 0.88481 0.69529 0.83542 0.0
H490 H 0.76822 0.64293 0.79969 0.0
H491 H 0.79515 0.66708 0.7608 0.0
H492 H 0.82973 0.62073 0.56893 0.0
H493 H 0.85002 0.65079 0.53053 0.0
H494 H 0.81671 0.73631 0.55166 0.0
H495 H 0.7969 0.70684 0.59034 0.0
C496 C 0.32627 0.17833 0.74636 0.0
Eu497 Eu 0.33538 0.1603 0.70182 0.0
C498 C 0.3375 0.17278 0.77124 0.0
C499 C 0.33286 0.13645 0.77718 0.0
C500 C 0.34645 0.13305 0.80051 0.0
C501 C 0.36528 0.16604 0.81797 0.0
C502 C 0.3696 0.20213 0.81209 0.0
C503 C 0.35573 0.20544 0.78894 0.0
C504 C 0.30096 0.08835 0.67537 0.0
C505 C 0.40222 0.13903 0.69268 0.0
C506 C 0.36644 0.14991 0.60332 0.0
Eu507 Eu 0.36064 0.16087 0.64979 0.0
C508 C 0.34436 0.14094 0.57917 0.0
C509 C 0.35495 0.12508 0.55951 0.0
C510 C 0.33677 0.11915 0.53591 0.0
C511 C 0.30774 0.12903 0.53164 0.0
C512 C 0.29631 0.14396 0.5514 0.0
C513 C 0.31449 0.14982 0.5751 0.0
C514 C 0.40696 0.22734 0.68052 0.0
C515 C 0.29167 0.18075 0.65855 0.0
O516 O 0.3554 0.20196 0.7344 0.0
O517 O 0.29941 0.14714 0.73248 0.0
O518 O 0.31003 0.09398 0.69893 0.0
O519 O 0.30849 0.12052 0.66741 0.0
O520 O 0.38932 0.15544 0.70845 0.0
O521 O 0.39024 0.13196 0.66905 0.0
O522 O 0.35425 0.12158 0.61786 0.0
O523 O 0.37778 0.18452 0.61489 0.0
O524 O 0.42003 0.21332 0.66397 0.0
O525 O 0.37042 0.2071 0.67878 0.0
O526 O 0.31229 0.17448 0.64263 0.0
O527 O 0.29538 0.17751 0.68228 0.0
H528 H 0.31932 0.11092 0.76375 0.0
H529 H 0.34283 0.10496 0.80483 0.0
H530 H 0.38394 0.22781 0.82541 0.0
H531 H 0.35986 0.23376 0.78468 0.0
H532 H 0.37794 0.11809 0.56233 0.0
H533 H 0.34594 0.10766 0.52084 0.0
H534 H 0.27397 0.15178 0.54838 0.0
H535 H 0.30587 0.16204 0.59008 0.0
C536 C 0.80884 0.16419 0.61075 0.0
Eu537 Eu 0.84177 0.18282 0.65547 0.0
C538 C 0.82452 0.17133 0.58654 0.0
C539 C 0.85705 0.20763 0.58255 0.0
C540 C 0.87386 0.21244 0.56027 0.0
C541 C 0.85882 0.18086 0.54182 0.0
C542 C 0.82609 0.14483 0.54568 0.0
C543 C 0.80906 0.14014 0.56782 0.0
C544 C 0.88268 0.25606 0.68078 0.0
C545 C 0.9315 0.20605 0.66128 0.0
C546 C 0.90139 0.19706 0.75334 0.0
Eu547 Eu 0.8782 0.18597 0.70672 0.0
C548 C 0.88983 0.20292 0.77769 0.0
C549 C 0.89057 0.18015 0.79613 0.0
C550 C 0.88191 0.18627 0.81978 0.0
C551 C 0.87487 0.21736 0.8264 0.0
C552 C 0.86869 0.23598 0.8066 0.0
C553 C 0.87716 0.22977 0.78282 0.0
C554 C 0.85729 0.11881 0.67767 0.0
C555 C 0.78629 0.16222 0.69939 0.0
O556 O 0.81607 0.14061 0.62303 0.0
O557 O 0.81324 0.19468 0.62467 0.0
O558 O 0.88209 0.24928 0.65728 0.0
O559 O 0.8604 0.22426 0.68934 0.0
O560 O 0.899 0.19004 0.64665 0.0
O561 O 0.93197 0.21363 0.68526 0.0
O562 O 0.91311 0.2258 0.73907 0.0
O563 O 0.8797 0.16221 0.74135 0.0
O564 O 0.88744 0.13609 0.69371 0.0
O565 O 0.83868 0.13712 0.67867 0.0
O566 O 0.81654 0.16895 0.71454 0.0
O567 O 0.78836 0.16558 0.67561 0.0
H568 H 0.86997 0.23199 0.59682 0.0
H569 H 0.8991 0.24045 0.5576 0.0
H570 H 0.81404 0.12018 0.53163 0.0
H571 H 0.78432 0.11179 0.57057 0.0
H572 H 0.89777 0.15732 0.79223 0.0
H573 H 0.88041 0.16575 0.83248 0.0
H574 H 0.8567 0.25511 0.80888 0.0
H575 H 0.87359 0.24583 0.76847 0.0
C576 C 0.31611 0.9096 0.04347 0.0
C577 C 0.31429 0.88153 0.05926 0.0
C578 C 0.38338 0.90378 0.05534 0.0
C579 C 0.3858 0.93339 0.04054 0.0
N580 N 0.35727 0.97114 0.0266 0.0
N581 N 0.34704 0.85528 0.08323 0.0
C582 C 0.35283 0.93799 0.03611 0.0
C583 C 0.34824 0.87969 0.0661 0.0
N584 N 0.28272 0.90918 0.03548 0.0
N585 N 0.4143 0.89778 0.05852 0.0
H586 H 0.32149 0.83575 0.09061 0.0
H587 H 0.37174 0.85618 0.09145 0.0
H588 H 0.44088 0.91529 0.05164 0.0
H589 H 0.41291 0.87375 0.06642 0.0
H590 H 0.28148 0.92586 0.02177 0.0
H591 H 0.25557 0.89 0.04131 0.0
H592 H 0.33523 0.9781 0.02493 0.0
H593 H 0.38442 0.99409 0.02322 0.0
C594 C 0.16368 0.49287 0.05807 0.0
C595 C 0.15295 0.45409 0.06358 0.0
C596 C 0.08607 0.43011 0.04547 0.0
C597 C 0.09759 0.46845 0.03882 0.0
N598 N 0.14938 0.53333 0.03269 0.0
N599 N 0.10649 0.38429 0.05751 0.0
C600 C 0.13707 0.49892 0.04321 0.0
C601 C 0.11483 0.4222 0.05579 0.0
N602 N 0.19847 0.52424 0.06799 0.0
N603 N 0.04757 0.40149 0.0424 0.0
H604 H 0.12707 0.37735 0.06441 0.0
H605 H 0.08046 0.35971 0.05001 0.0
H606 H 0.02596 0.40582 0.03406 0.0
H607 H 0.03673 0.37436 0.04952 0.0
H608 H 0.20587 0.55344 0.06669 0.0
H609 H 0.21845 0.52133 0.07949 0.0
H610 H 0.17858 0.55529 0.03342 0.0
H611 H 0.13083 0.53803 0.021 0.0
C612 C 0.51125 0.66396 0.04168 0.0
C613 C 0.54839 0.69404 0.05264 0.0
C614 C 0.57705 0.65451 0.03877 0.0
C615 C 0.54103 0.62675 0.02553 0.0
N616 N 0.47537 0.6087 0.01068 0.0
N617 N 0.61826 0.72174 0.05683 0.0
C618 C 0.5086 0.63266 0.02579 0.0
C619 C 0.58182 0.69045 0.04976 0.0
N620 N 0.47827 0.66412 0.04737 0.0
N621 N 0.60625 0.64596 0.0417 0.0
H622 H 0.62306 0.749 0.06424 0.0
H623 H 0.64373 0.72189 0.05302 0.0
H624 H 0.60291 0.61913 0.03481 0.0
H625 H 0.63186 0.66349 0.05313 0.0
H626 H 0.45024 0.64077 0.04192 0.0
H627 H 0.47875 0.68578 0.05952 0.0
H628 H 0.45241 0.61422 0.00827 0.0
H629 H 0.47193 0.58503 0.99905 0.0
C630 C 0.90417 0.34598 0.96369 0.0
C631 C 0.8739 0.31459 0.97475 0.0
C632 C 0.90188 0.35463 0.01455 0.0
C633 C 0.93294 0.38424 1.0029 0.0
N634 N 0.97312 0.39024 0.97022 0.0
N635 N 0.85501 0.28474 0.01283 0.0
C636 C 0.93736 0.37471 0.97864 0.0
C637 C 0.87565 0.31754 1.00091 0.0
N638 N 0.90105 0.35009 0.9393 0.0
N639 N 0.89851 0.36085 0.03878 0.0
H640 H 0.83915 0.25647 1.00372 0.0
H641 H 0.85772 0.28499 0.03184 0.0
H642 H 0.92024 0.38477 0.05022 0.0
H643 H 0.87382 0.34227 0.04727 0.0
H644 H 0.92284 0.37389 0.93143 0.0
H645 H 0.87521 0.33294 0.92796 0.0
H646 H 0.97682 0.38138 0.95273 0.0
H647 H 0.99869 0.40802 0.9816 0.0
C648 C 0.69852 0.60083 0.97547 0.0
C649 C 0.69929 0.57187 0.95921 0.0
C650 C 0.63275 0.52359 0.96764 0.0
C651 C 0.63069 0.55338 0.9824 0.0
N652 N 0.6587 0.6224 0.99565 0.0
N653 N 0.66554 0.50734 0.93692 0.0
C654 C 0.66292 0.59256 0.98521 0.0
C655 C 0.66592 0.53369 0.9545 0.0
N656 N 0.7319 0.63621 0.98172 0.0
N657 N 0.60324 0.4853 0.9666 0.0
H658 H 0.68949 0.51332 0.92726 0.0
H659 H 0.64063 0.48079 0.93047 0.0
H660 H 0.57811 0.47681 0.97541 0.0
H661 H 0.60487 0.46152 0.95868 0.0
H662 H 0.73436 0.65681 0.99557 0.0
H663 H 0.75809 0.64377 0.97431 0.0
H664 H 0.67974 0.6521 0.99607 0.0
H665 H 0.63242 0.61769 1.00156 0.0
C666 C 0.50051 0.15301 0.9786 0.0
C667 C 0.46244 0.1431 0.96905 0.0
C668 C 0.43632 0.07788 0.98411 0.0
C669 C 0.47334 0.0897 0.99633 0.0
N670 N 0.53957 0.14143 0.00874 0.0
N671 N 0.39283 0.09887 0.96737 0.0
C672 C 0.50513 0.1282 0.99468 0.0
C673 C 0.42992 0.10628 0.97313 0.0
N674 N 0.53243 0.18509 0.97148 0.0
N675 N 0.4076 0.03925 0.98219 0.0
H676 H 0.38681 0.11939 0.96011 0.0
H677 H 0.36819 0.07402 0.97215 0.0
H678 H 0.41207 0.01757 0.98906 0.0
H679 H 0.38115 0.02826 0.97151 0.0
H680 H 0.56088 0.19125 0.97586 0.0
H681 H 0.53039 0.20332 0.95914 0.0
H682 H 0.56227 0.1706 0.01013 0.0
H683 H 0.54436 0.1241 0.02053 0.0
C684 C 0.68146 0.11867 0.98804 0.0
C685 C 0.68004 0.13761 0.96711 0.0
C686 C 0.61003 0.11172 0.96961 0.0
C687 C 0.61041 0.08876 0.98868 0.0
N688 N 0.64609 0.06723 0.01428 0.0
N689 N 0.6428 0.14959 0.93628 0.0
C690 C 0.64611 0.09168 0.9976 0.0
C691 C 0.64431 0.13366 0.95752 0.0
N692 N 0.71681 0.1272 0.99913 0.0
N693 N 0.57723 0.11364 0.96355 0.0
H694 H 0.66744 0.16662 0.92727 0.0
H695 H 0.61686 0.14363 0.92661 0.0
H696 H 0.55159 0.09834 0.97195 0.0
H697 H 0.57638 0.13312 0.95181 0.0
H698 H 0.72022 0.11786 0.01598 0.0
H699 H 0.74323 0.14668 0.99259 0.0
H700 H 0.6702 0.06447 0.01927 0.0
H701 H 0.62103 0.04723 0.02174 0.0
C702 C 0.86686 0.50806 0.95643 0.0
C703 C 0.87219 0.54631 0.96173 0.0
C704 C 0.93014 0.56466 0.98987 0.0
C705 C 0.92378 0.52582 0.98538 0.0
N706 N 0.88161 0.45828 0.96872 0.0
N707 N 0.90502 0.60926 0.98606 0.0
C708 C 0.89086 0.49687 0.96984 0.0
C709 C 0.90241 0.57391 0.97944 0.0
N710 N 0.83896 0.48244 0.93844 0.0
N711 N 0.96391 0.59344 1.00277 0.0
H712 H 0.88709 0.61838 0.97769 0.0
H713 H 0.92324 0.62852 1.00097 0.0
H714 H 0.98511 0.58822 0.01066 0.0
H715 H 0.97259 0.62326 1.00404 0.0
H716 H 0.83694 0.45621 0.93152 0.0
H717 H 0.81899 0.48835 0.92934 0.0
H718 H 0.85589 0.43509 0.95972 0.0
H719 H 0.89787 0.44879 0.9788 0.0
C720 C 0.45345 0.35504 0.96706 0.0
C721 C 0.48044 0.3415 0.96597 0.0
C722 C 0.52921 0.40054 0.99208 0.0
C723 C 0.50313 0.41557 0.99182 0.0
N724 N 0.44238 0.40943 0.9756 0.0
N725 N 0.54678 0.35555 0.97245 0.0
C726 C 0.46601 0.39369 0.97806 0.0
C727 C 0.51904 0.36526 0.97722 0.0
N728 N 0.41509 0.3301 0.9588 0.0
N729 N 0.56408 0.42009 1.00628 0.0
H730 H 0.54095 0.33079 0.96097 0.0
H731 H 0.57641 0.37405 0.9778 0.0
H732 H 0.57546 0.44834 0.01508 0.0
H733 H 0.58132 0.4076 0.01002 0.0
H734 H 0.39305 0.33645 0.9617 0.0
H735 H 0.40441 0.30131 0.95108 0.0
H736 H 0.41738 0.39713 0.96333 0.0
H737 H 0.44918 0.43646 0.98438 0.0
C738 C 0.09816 0.67581 0.02259 0.0
C739 C 0.12855 0.68799 0.04172 0.0
C740 C 0.11442 0.61977 0.04222 0.0
C741 C 0.08627 0.60815 0.02175 0.0
N742 N 0.05561 0.62593 0.98981 0.0
N743 N 0.16843 0.67277 0.06847 0.0
C744 C 0.07919 0.63638 0.01124 0.0
C745 C 0.13769 0.66035 0.05102 0.0
N746 N 0.08725 0.70187 0.01534 0.0
N747 N 0.1176 0.59174 0.05403 0.0
H748 H 0.18428 0.70152 0.0769 0.0
H749 H 0.17978 0.65517 0.07366 0.0
H750 H 0.10079 0.56187 0.04823 0.0
H751 H 0.13424 0.5975 0.07067 0.0
H752 H 0.06235 0.69365 1.00364 0.0
H753 H 0.10168 0.73146 0.02231 0.0
H754 H 0.05255 0.64603 0.97975 0.0
H755 H 0.04115 0.59737 0.98099 0.0
C756 C 0.33294 0.44265 0.02787 0.0
C757 C 0.32946 0.46973 0.04431 0.0
C758 C 0.40052 0.51428 0.04735 0.0
C759 C 0.40412 0.48613 0.03193 0.0
N760 N 0.37512 0.41991 0.01264 0.0
N761 N 0.35984 0.52919 0.07209 0.0
C762 C 0.37065 0.44935 0.02351 0.0
C763 C 0.36329 0.50475 0.05493 0.0
N764 N 0.30018 0.41036 0.01645 0.0
N765 N 0.4323 0.55091 0.05375 0.0
H766 H 0.33306 0.52514 0.07668 0.0
H767 H 0.38349 0.5523 0.08286 0.0
H768 H 0.46011 0.55913 0.04887 0.0
H769 H 0.43084 0.57432 0.06242 0.0
H770 H 0.30079 0.39228 1.00206 0.0
H771 H 0.27202 0.4029 0.02025 0.0
H772 H 0.35228 0.39114 0.00809 0.0
H773 H 0.40244 0.42313 0.01072 0.0
C774 C 0.49358 0.85957 0.04822 0.0
C775 C 0.53247 0.8756 0.05877 0.0
C776 C 0.54898 0.93996 0.04476 0.0
C777 C 0.51134 0.92276 0.03179 0.0
N778 N 0.44874 0.86445 0.01907 0.0
N779 N 0.59896 0.92948 0.06411 0.0
C780 C 0.48408 0.88197 0.03274 0.0
C781 C 0.56058 0.9155 0.05646 0.0
N782 N 0.46506 0.82388 0.05424 0.0
N783 N 0.57408 0.97958 0.04561 0.0
H784 H 0.60895 0.91245 0.07225 0.0
H785 H 0.62156 0.95676 0.06038 0.0
H786 H 0.56793 0.99808 0.03596 0.0
H787 H 0.59979 0.99461 0.05725 0.0
H788 H 0.43545 0.81264 0.04936 0.0
H789 H 0.47042 0.80727 0.06633 0.0
H790 H 0.43033 0.834 0.01629 0.0
H791 H 0.43816 0.88005 0.00975 0.0
C792 C 0.02288 0.21301 0.40442 0.0
C793 C 0.989 0.21634 0.40174 0.0
C794 C 0.0227 0.27153 0.3765 0.0
C795 C 0.05577 0.26653 0.378 0.0
N796 N 0.08235 0.22511 0.38748 0.0
N797 N 0.95428 0.24512 0.38287 0.0
C798 C 0.05456 0.23532 0.39044 0.0
C799 C 0.98825 0.24463 0.38709 0.0
N800 N 0.02502 0.18879 0.42055 0.0
N801 N 0.02452 0.30252 0.3654 0.0
H802 H 0.92898 0.22673 0.39092 0.0
H803 H 0.95028 0.26183 0.37024 0.0
H804 H 0.0483 0.32131 0.35635 0.0
H805 H 1.00355 0.31092 0.36621 0.0
H806 H 0.05062 0.18856 0.42535 0.0
H807 H 1.00214 0.17135 0.43075 0.0
H808 H 0.08131 0.20045 0.39425 0.0
H809 H 0.10384 0.23852 0.37561 0.0
C810 C 0.82663 0.83054 0.4007 0.0
C811 C 0.82043 0.79171 0.39745 0.0
C812 C 0.75531 0.76816 0.37669 0.0
C813 C 0.76268 0.80745 0.37803 0.0
N814 N 0.8064 0.87685 0.38949 0.0
N815 N 0.78196 0.72468 0.37911 0.0
C816 C 0.79871 0.8389 0.38951 0.0
C817 C 0.78574 0.76089 0.38435 0.0
N818 N 0.85853 0.85909 0.41525 0.0
N819 N 0.71847 0.73756 0.36977 0.0
H820 H 0.80336 0.7181 0.38484 0.0
H821 H 0.7592 0.70224 0.3674 0.0
H822 H 0.69501 0.74182 0.36579 0.0
H823 H 0.71026 0.70807 0.37062 0.0
H824 H 0.86252 0.88671 0.42081 0.0
H825 H 0.88005 0.85433 0.42326 0.0
H826 H 0.83367 0.90148 0.3948 0.0
H827 H 0.78594 0.88391 0.38266 0.0
C828 C 0.19061 1.00052 0.36761 0.0
C829 C 0.22839 0.03163 0.37662 0.0
C830 C 0.25665 0.99176 0.36268 0.0
C831 C 0.21936 0.96212 0.35186 0.0
N832 N 0.15221 0.9418 0.33948 0.0
N833 N 0.29823 0.06031 0.37841 0.0
C834 C 0.18675 0.96762 0.3529 0.0
C835 C 0.26172 0.02829 0.37285 0.0
N836 N 0.15831 1.00147 0.37401 0.0
N837 N 0.2869 0.98456 0.36411 0.0
H838 H 0.30309 0.08768 0.38563 0.0
H839 H 0.32351 0.06077 0.37376 0.0
H840 H 0.28413 0.95807 0.35703 0.0
H841 H 0.31364 1.00341 0.37413 0.0
H842 H 0.13008 0.97755 0.3703 0.0
H843 H 0.15983 0.0248 0.38502 0.0
H844 H 0.12872 0.94659 0.33761 0.0
H845 H 0.1481 0.91731 0.32843 0.0
C846 C 0.52685 0.68077 0.31816 0.0
C847 C 0.53685 0.65342 0.30781 0.0
C848 C 0.60539 0.69839 0.32313 0.0
C849 C 0.59479 0.72384 0.33541 0.0
N850 N 0.54411 0.73494 0.34901 0.0
N851 N 0.58413 0.63213 0.30555 0.0
C852 C 0.55506 0.71367 0.33428 0.0
C853 C 0.57571 0.66099 0.31188 0.0
N854 N 0.49113 0.67647 0.31175 0.0
N855 N 0.64377 0.71055 0.32121 0.0
H856 H 0.56297 0.60397 0.29791 0.0
H857 H 0.61118 0.63483 0.3102 0.0
H858 H 0.66615 0.73835 0.32841 0.0
H859 H 0.6531 0.69481 0.31037 0.0
H860 H 0.48388 0.6978 0.31672 0.0
H861 H 0.46996 0.65337 0.29956 0.0
H862 H 0.5151 0.72676 0.35064 0.0
H863 H 0.56388 0.75848 0.3615 0.0
C864 C 0.36348 0.9381 0.29932 0.0
C865 C 0.37293 0.90837 0.29341 0.0
C866 C 0.31858 0.86278 0.31549 0.0
C867 C 0.30517 0.89004 0.31744 0.0
N868 N 0.31274 0.95258 0.30823 0.0
N869 N 0.35415 0.83951 0.29208 0.0
C870 C 0.32705 0.92746 0.30852 0.0
C871 C 0.34912 0.86989 0.30055 0.0
N872 N 0.38981 0.9767 0.29702 0.0
N873 N 0.30278 0.83048 0.32833 0.0
H874 H 0.37482 0.84284 0.28009 0.0
H875 H 0.33502 0.81025 0.29488 0.0
H876 H 0.28152 0.82537 0.34018 0.0
H877 H 0.31377 0.81139 0.32922 0.0
H878 H 0.38586 0.99988 0.30323 0.0
H879 H 0.41746 0.98591 0.29137 0.0
H880 H 0.32543 0.97837 0.29948 0.0
H881 H 0.28646 0.94604 0.31502 0.0
C882 C 0.10193 0.44323 0.31613 0.0
C883 C 0.13032 0.47726 0.3062 0.0
C884 C 0.18205 0.46579 0.32274 0.0
C885 C 0.1537 0.43267 0.33383 0.0
N886 N 0.08929 0.39901 0.3476 0.0
N887 N 0.19759 0.52387 0.30173 0.0
C888 C 0.11422 0.42357 0.33214 0.0
C889 C 0.17047 0.48942 0.31006 0.0
N890 N 0.06316 0.42991 0.31055 0.0
N891 N 0.21992 0.47421 0.32368 0.0
H892 H 0.19022 0.54025 0.2906 0.0
H893 H 0.2274 0.53765 0.30684 0.0
H894 H 0.23032 0.45833 0.33271 0.0
H895 H 0.24091 0.49504 0.31377 0.0
H896 H 0.04118 0.40274 0.31497 0.0
H897 H 0.05296 0.44452 0.2998 0.0
H898 H 0.06117 0.39411 0.34879 0.0
H899 H 0.09829 0.38766 0.36158 0.0
C900 C 0.31235 0.45204 0.28414 0.0
C901 C 0.34858 0.46242 0.297 0.0
C902 C 0.31359 0.42166 0.3295 0.0
C903 C 0.2776 0.41604 0.31857 0.0
N904 N 0.24452 0.4317 0.28622 0.0
N905 N 0.38426 0.46018 0.33326 0.0
C906 C 0.27738 0.43256 0.29599 0.0
C907 C 0.34936 0.44855 0.32022 0.0
N908 N 0.31117 0.46086 0.26047 0.0
N909 N 0.31361 0.39889 0.34741 0.0
H910 H 0.41108 0.47728 0.32643 0.0
H911 H 0.38655 0.45495 0.35151 0.0
H912 H 0.28818 0.37608 0.35309 0.0
H913 H 0.3386 0.39908 0.3544 0.0
H914 H 0.28538 0.44928 0.249 0.0
H915 H 0.33607 0.47723 0.25154 0.0
H916 H 0.24435 0.44746 0.27165 0.0
H917 H 0.2181 0.41907 0.29388 0.0
C918 C 0.55688 0.88214 0.2934 0.0
C919 C 0.52671 0.8767 0.30825 0.0
C920 C 0.5541 0.85266 0.33944 0.0
C921 C 0.58699 0.86299 0.326 0.0
N922 N 0.62385 0.89782 0.29311 0.0
N923 N 0.5018 0.86491 0.34795 0.0
C924 C 0.58967 0.88085 0.30386 0.0
C925 C 0.5269 0.86442 0.33204 0.0
N926 N 0.55341 0.88603 0.26896 0.0
N927 N 0.5473 0.82974 0.35842 0.0
H928 H 0.48194 0.87412 0.34356 0.0
H929 H 0.50356 0.86012 0.36634 0.0
H930 H 0.56515 0.81877 0.36401 0.0
H931 H 0.52152 0.81802 0.36694 0.0
H932 H 0.57317 0.88644 0.25708 0.0
H933 H 0.52853 0.88379 0.25996 0.0
H934 H 0.62806 0.91414 0.27811 0.0
H935 H 0.6493 0.89964 0.30084 0.0
C936 C 0.11152 0.67842 0.32519 0.0
C937 C 0.13095 0.66634 0.30895 0.0
C938 C 0.18544 0.73434 0.31112 0.0
C939 C 0.16773 0.74575 0.32914 0.0
N940 N 0.11758 0.72708 0.35695 0.0
N941 N 0.18809 0.68126 0.28823 0.0
C942 C 0.13166 0.7174 0.33712 0.0
C943 C 0.16857 0.69381 0.30259 0.0
N944 N 0.07379 0.65268 0.3292 0.0
N945 N 0.21719 0.76246 0.30119 0.0
H946 H 0.17578 0.65237 0.28023 0.0
H947 H 0.21738 0.69888 0.28547 0.0
H948 H 0.22957 0.79238 0.30655 0.0
H949 H 0.2291 0.75662 0.28618 0.0
H950 H 0.05658 0.66113 0.33851 0.0
H951 H 0.05863 0.62336 0.32167 0.0
H952 H 0.0935 0.70663 0.36511 0.0
H953 H 0.13205 0.7548 0.36685 0.0
C954 C 0.81818 0.9938 0.38112 0.0
C955 C 0.80554 0.01975 0.3901 0.0
C956 C 0.7383 0.97172 0.37336 0.0
C957 C 0.75121 0.94633 0.36386 0.0
N958 N 0.80473 0.93844 0.35231 0.0
N959 N 0.75557 0.03748 0.3901 0.0
C960 C 0.79157 0.95896 0.3658 0.0
C961 C 0.7661 0.00982 0.38491 0.0
N962 N 0.85485 1.00114 0.38828 0.0
N963 N 0.69935 0.95922 0.37168 0.0
H964 H 0.77527 0.06597 0.398 0.0
H965 H 0.72833 0.03362 0.38454 0.0
H966 H 0.67849 0.93285 0.36185 0.0
H967 H 0.68749 0.97392 0.38102 0.0
H968 H 0.86402 0.98094 0.38451 0.0
H969 H 0.87501 0.0258 0.39989 0.0
H970 H 0.83422 0.94853 0.35097 0.0
H971 H 0.78614 0.91291 0.34079 0.0
C972 C 0.01013 0.77646 0.37225 0.0
C973 C 0.01147 0.80159 0.39241 0.0
C974 C 0.07925 0.84969 0.38636 0.0
C975 C 0.07945 0.82251 0.36823 0.0
N976 N 0.04664 0.75798 0.34581 0.0
N977 N 0.04789 0.86084 0.4201 0.0
C978 C 0.04515 0.78551 0.36141 0.0
C979 C 0.04623 0.83784 0.39988 0.0
N980 N 0.97553 0.74362 0.36366 0.0
N981 N 0.1102 0.88741 0.39006 0.0
H982 H 0.02373 0.85466 0.42958 0.0
H983 H 0.07372 0.88484 0.42839 0.0
H984 H 0.13465 0.89736 0.38028 0.0
H985 H 0.11023 0.90989 0.40107 0.0
H986 H 0.97165 0.72662 0.34736 0.0
H987 H 0.94979 0.73479 0.37193 0.0
H988 H 0.02408 0.72884 0.34241 0.0
H989 H 0.07165 0.76324 0.33764 0.0
C990 C 0.22047 0.2225 0.3525 0.0
C991 C 0.22391 0.21913 0.37804 0.0
C992 C 0.1929 0.25869 0.38604 0.0
C993 C 0.19049 0.26315 0.36061 0.0
N994 N 0.20861 0.25607 0.32023 0.0
N995 N 0.21909 0.23873 0.41963 0.0
C996 C 0.20599 0.24678 0.34396 0.0
C997 C 0.21202 0.23883 0.39495 0.0
N998 N 0.23148 0.20287 0.33638 0.0
N999 N 0.17544 0.27198 0.40162 0.0
H1000 H 0.23049 0.22239 0.42708 0.0
H1001 H 0.21598 0.25678 0.43285 0.0
H1002 H 0.16276 0.28813 0.39605 0.0
H1003 H 0.17102 0.26477 0.41958 0.0
H1004 H 0.2249 0.19963 0.31748 0.0
H1005 H 0.24589 0.18818 0.34192 0.0
H1006 H 0.22331 0.24872 0.30775 0.0
H1007 H 0.1989 0.27419 0.31339 0.0
C1008 C 0.6756 0.53176 0.72093 0.0
C1009 C 0.64792 0.54363 0.72528 0.0
C1010 C 0.69047 0.60695 0.7094 0.0
C1011 C 0.71585 0.59319 0.7025 0.0
N1012 N 0.72831 0.5393 0.69752 0.0
N1013 N 0.62549 0.58965 0.71939 0.0
C1014 C 0.70705 0.55457 0.70697 0.0
C1015 C 0.6543 0.58043 0.71827 0.0
N1016 N 0.67287 0.4996 0.73102 0.0
N1017 N 0.70149 0.64571 0.70847 0.0
H1018 H 0.5985 0.57088 0.72556 0.0
H1019 H 0.62704 0.61424 0.71214 0.0
H1020 H 0.72796 0.66607 0.7025 0.0
H1021 H 0.68607 0.6583 0.71569 0.0
H1022 H 0.69449 0.49202 0.73059 0.0
H1023 H 0.65098 0.48278 0.74203 0.0
H1024 H 0.72089 0.50996 0.69813 0.0
H1025 H 0.75108 0.55493 0.6869 0.0
C1026 C 0.4992 0.15372 0.71838 0.0
C1027 C 0.48799 0.11705 0.72779 0.0
C1028 C 0.41984 0.09352 0.71307 0.0
C1029 C 0.43166 0.12909 0.70213 0.0
N1030 N 0.48409 0.18717 0.68786 0.0
N1031 N 0.43915 0.04836 0.72782 0.0
C1032 C 0.47185 0.15731 0.70266 0.0
C1033 C 0.4487 0.08576 0.72325 0.0
N1034 N 0.53516 0.1858 0.72541 0.0
N1035 N 0.38118 0.06741 0.71416 0.0
H1036 H 0.45981 0.04119 0.73418 0.0
H1037 H 0.41163 0.02385 0.72279 0.0
H1038 H 0.35924 0.07152 0.70625 0.0
H1039 H 0.37108 0.04321 0.72436 0.0
H1040 H 0.54307 0.21405 0.72089 0.0
H1041 H 0.55554 0.18513 0.73785 0.0
H1042 H 0.51343 0.2067 0.68609 0.0
H1043 H 0.4649 0.18946 0.67533 0.0
C1044 C 0.93459 0.36048 0.71254 0.0
C1045 C 0.90325 0.36799 0.71371 0.0
C1046 C 0.85913 0.30331 0.69112 0.0
C1047 C 0.88972 0.29447 0.69222 0.0
N1048 N 0.95324 0.31064 0.71014 0.0
N1049 N 0.83379 0.34279 0.70887 0.0
C1050 C 0.92654 0.3219 0.7047 0.0
C1051 C 0.86493 0.3384 0.70425 0.0
N1052 N 0.97217 0.39039 0.7183 0.0
N1053 N 0.82458 0.27834 0.67747 0.0
H1054 H 0.83659 0.36745 0.71904 0.0
H1055 H 0.80492 0.32035 0.70473 0.0
H1056 H 0.81866 0.25179 0.66814 0.0
H1057 H 0.80292 0.28542 0.67384 0.0
H1058 H 0.99622 0.38721 0.71552 0.0
H1059 H 0.97941 0.41937 0.72346 0.0
H1060 H 0.97925 0.32844 0.72116 0.0
H1061 H 0.94728 0.28188 0.70599 0.0
C1062 C 0.2455 0.98383 0.64318 0.0
C1063 C 0.20851 0.98005 0.63702 0.0
C1064 C 0.23065 0.04412 0.65992 0.0
C1065 C 0.26898 0.05015 0.66329 0.0
N1066 N 0.31436 0.028 0.65551 0.0
N1067 N 0.16818 0.0099 0.63564 0.0
C1068 C 0.27684 0.02057 0.65426 0.0
C1069 C 0.20166 0.01108 0.64437 0.0
N1070 N 0.25036 0.95201 0.63908 0.0
N1071 N 0.22157 0.06933 0.67213 0.0
H1072 H 0.14641 0.98657 0.62384 0.0
H1073 H 0.16369 0.03374 0.63821 0.0
H1074 H 0.24176 0.09353 0.68406 0.0
H1075 H 0.19318 0.06412 0.67223 0.0
H1076 H 0.27543 0.95181 0.64541 0.0
H1077 H 0.22797 0.92455 0.63126 0.0
H1078 H 0.32247 0.00927 0.64688 0.0
H1079 H 0.33791 0.05451 0.66353 0.0
C1080 C 1.00554 0.19827 0.6225 0.0
C1081 C 0.03781 0.23712 0.6272 0.0
C1082 C 1.00006 0.25603 0.65298 0.0
C1083 C 0.96835 0.21653 0.64973 0.0
N1084 N 0.93814 0.15153 0.62746 0.0
N1085 N 0.06855 0.30156 0.64942 0.0
C1086 C 0.97035 0.18801 0.63341 0.0
C1087 C 0.03585 0.26556 0.64319 0.0
N1088 N 0.0092 0.1707 0.6083 0.0
N1089 N 0.99472 0.28522 0.66333 0.0
H1090 H 0.09493 0.31006 0.64201 0.0
H1091 H 0.07044 0.32182 0.6633 0.0
H1092 H 0.96775 0.27999 0.66824 0.0
H1093 H 0.01532 0.31511 0.66419 0.0
H1094 H 0.98934 0.14058 0.60675 0.0
H1095 H 0.03356 0.1775 0.59889 0.0
H1096 H 0.9356 0.1316 0.61317 0.0
H1097 H 0.91248 0.14123 0.63585 0.0
C1098 C 0.82258 0.81081 0.6501 0.0
C1099 C 0.78414 0.80057 0.64126 0.0
C1100 C 0.75918 0.73524 0.65597 0.0
C1101 C 0.79686 0.74724 0.66729 0.0
N1102 N 0.86307 0.79945 0.67917 0.0
N1103 N 0.71477 0.75572 0.63999 0.0
C1104 C 0.82818 0.78597 0.66558 0.0
C1105 C 0.75207 0.76351 0.64539 0.0
N1106 N 0.8539 0.84342 0.64292 0.0
N1107 N 0.73051 0.6966 0.65448 0.0
H1108 H 0.70831 0.77588 0.63262 0.0
H1109 H 0.6904 0.73081 0.64495 0.0
H1110 H 0.73497 0.67502 0.66151 0.0
H1111 H 0.70367 0.68543 0.64424 0.0
H1112 H 0.88258 0.84991 0.6467 0.0
H1113 H 0.85109 0.86184 0.63106 0.0
H1114 H 0.88558 0.8287 0.68047 0.0
H1115 H 0.86834 0.78235 0.69092 0.0
C1116 C 0.97571 0.7984 0.62437 0.0
C1117 C 0.01129 0.80163 0.6337 0.0
C1118 C 0.97725 0.75689 0.66476 0.0
C1119 C 0.94201 0.75511 0.65611 0.0
N1120 N 0.90957 0.78104 0.63141 0.0
N1121 N 0.0477 0.78931 0.66506 0.0
C1122 C 0.94182 0.77791 0.63698 0.0
C1123 C 0.01266 0.78288 0.65479 0.0
N1124 N 0.9741 0.81449 0.6032 0.0
N1125 N 0.9765 0.73181 0.68126 0.0
H1126 H 0.07391 0.80609 0.65748 0.0
H1127 H 0.05124 0.78029 0.68201 0.0
H1128 H 0.9512 0.71188 0.68868 0.0
H1129 H 1.00021 0.72834 0.68613 0.0
H1130 H 0.94811 0.80878 0.59373 0.0
H1131 H 0.99865 0.8317 0.59416 0.0
H1132 H 0.90892 0.80041 0.6195 0.0
H1133 H 0.88442 0.76701 0.64047 0.0
C1134 C 0.20918 0.1786 0.61888 0.0
C1135 C 0.2125 0.21495 0.62761 0.0
C1136 C 0.26737 0.22866 0.65721 0.0
C1137 C 0.26305 0.19162 0.64909 0.0
N1138 N 0.22576 0.12811 0.62568 0.0
N1139 N 0.24087 0.27242 0.65706 0.0
C1140 C 0.23281 0.16568 0.63086 0.0
C1141 C 0.24015 0.23911 0.64757 0.0
N1142 N 0.18357 0.15649 0.59896 0.0
N1143 N 0.29895 0.25495 0.67294 0.0
H1144 H 0.22369 0.28292 0.64938 0.0
H1145 H 0.25681 0.28849 0.67347 0.0
H1146 H 0.31964 0.24864 0.68042 0.0
H1147 H 0.30655 0.28419 0.67718 0.0
H1148 H 0.18346 0.13261 0.58965 0.0
H1149 H 0.16347 0.16311 0.59084 0.0
H1150 H 0.20155 0.10625 0.61463 0.0
H1151 H 0.24237 0.11752 0.6341 0.0
C1152 C 0.77938 0.0118 0.65834 0.0
C1153 C 0.80116 0.99803 0.64578 0.0
C1154 C 0.8613 0.06123 0.65762 0.0
C1155 C 0.83902 0.07621 0.66855 0.0
N1156 N 0.781 0.05976 0.68866 0.0
N1157 N 0.86133 0.01118 0.62974 0.0
C1158 C 0.79902 0.04998 0.67135 0.0
C1159 C 0.84179 0.02295 0.64467 0.0
N1160 N 0.73978 0.98853 0.65775 0.0
N1161 N 0.90114 0.08241 0.66059 0.0
H1162 H 0.84805 0.9838 0.61944 0.0
H1163 H 0.8897 0.02987 0.62558 0.0
H1164 H 0.91723 0.11046 0.66982 0.0
H1165 H 0.91862 0.07079 0.65578 0.0
H1166 H 0.7218 0.99895 0.66364 0.0
H1167 H 0.72441 0.95945 0.64982 0.0
H1168 H 0.75319 0.04035 0.69339 0.0
H1169 H 0.79557 0.08525 0.7008 0.0
C1170 C 0.4815 0.3203 0.72078 0.0
C1171 C 0.46847 0.3467 0.71473 0.0
C1172 C 0.41885 0.29645 0.68398 0.0
C1173 C 0.42915 0.26875 0.69176 0.0
N1174 N 0.46703 0.25257 0.71946 0.0
N1175 N 0.42167 0.35889 0.69306 0.0
C1176 C 0.45982 0.28027 0.71056 0.0
C1177 C 0.43607 0.33438 0.69717 0.0
N1178 N 0.51442 0.33337 0.73645 0.0
N1179 N 0.39423 0.28732 0.66317 0.0
H1180 H 0.43463 0.38767 0.70138 0.0
H1181 H 0.39528 0.34975 0.68276 0.0
H1182 H 0.38215 0.26045 0.6524 0.0
H1183 H 0.3887 0.30764 0.6552 0.0
H1184 H 0.52815 0.31708 0.73924 0.0
H1185 H 0.52953 0.3616 0.74569 0.0
H1186 H 0.48591 0.25792 0.73496 0.0
H1187 H 0.45177 0.22312 0.7124 0.0
C1188 C 0.71642 0.16608 0.74263 0.0
C1189 C 0.68126 0.13061 0.73436 0.0
C1190 C 0.71453 0.11596 0.70238 0.0
C1191 C 0.74923 0.15226 0.71007 0.0
N1192 N 0.78079 0.2159 0.73351 0.0
N1193 N 0.64504 0.07368 0.70481 0.0
C1194 C 0.74952 0.17841 0.72914 0.0
C1195 C 0.67971 0.10632 0.71361 0.0
N1196 N 0.71829 0.18807 0.76345 0.0
N1197 N 0.71534 0.08972 0.68529 0.0
H1198 H 0.6197 0.06351 0.7137 0.0
H1199 H 0.64071 0.05771 0.688 0.0
H1200 H 0.73985 0.0958 0.67628 0.0
H1201 H 0.69266 0.0608 0.68112 0.0
H1202 H 0.74428 0.21127 0.77218 0.0
H1203 H 0.69416 0.18177 0.77298 0.0
H1204 H 0.78126 0.2378 0.74536 0.0
H1205 H 0.80499 0.22649 0.72345 0.0
C1206 C 0.87076 0.56128 0.72507 0.0
C1207 C 0.89337 0.55244 0.70959 0.0
C1208 C 0.87992 0.58512 0.67682 0.0
C1209 C 0.85472 0.59113 0.69161 0.0
N1210 N 0.82125 0.5796 0.72824 0.0
N1211 N 0.91661 0.55179 0.67001 0.0
C1212 C 0.84883 0.5778 0.71534 0.0
C1213 C 0.89695 0.56298 0.68519 0.0
N1214 N 0.87042 0.55411 0.74919 0.0
N1215 N 0.88866 0.60176 0.65514 0.0
H1216 H 0.9313 0.53751 0.67587 0.0
H1217 H 0.91638 0.55436 0.65123 0.0
H1218 H 0.87647 0.61771 0.64816 0.0
H1219 H 0.91022 0.60242 0.64489 0.0
H1220 H 0.85849 0.56429 0.76215 0.0
H1221 H 0.88441 0.54017 0.75675 0.0
H1222 H 0.81233 0.5664 0.74438 0.0
H1223 H 0.80479 0.59153 0.72172 0.0
C1224 C 0.42875 0.93514 0.1979 0.0
C1225 C 0.44697 0.9599 0.22005 0.0
C1226 C 0.47057 0.01751 0.19673 0.0
C1227 C 0.46185 0.99261 0.17475 0.0
N1228 N 0.40511 0.93325 0.15614 0.0
N1229 N 0.48285 0.02566 0.24094 0.0
C1230 C 0.43284 0.9525 0.17546 0.0
C1231 C 0.46693 1.00145 0.21963 0.0
N1232 N 0.40815 0.89514 0.19812 0.0
N1233 N 0.47601 0.05444 0.19561 0.0
H1234 H 0.47955 0.01511 0.25818 0.0
H1235 H 0.50122 0.05605 0.24125 0.0
H1236 H 0.47195 0.06414 0.17897 0.0
H1237 H 0.47892 0.07276 0.21106 0.0
H1238 H 0.39769 0.87594 0.18208 0.0
H1239 H 0.4038 0.88127 0.21424 0.0
H1240 H 0.38117 0.90506 0.15649 0.0
H1241 H 0.40323 0.94804 0.14138 0.0
C1242 C 0.10804 0.51916 0.21174 0.0
C1243 C 0.08125 0.50929 0.22981 0.0
C1244 C 0.02828 0.49398 0.19834 0.0
C1245 C 0.05505 0.50392 0.18027 0.0
N1246 N 0.11774 0.51759 0.16845 0.0
N1247 N 0.01501 0.47915 0.24028 0.0
C1248 C 0.09413 0.51372 0.18658 0.0
C1249 C 0.041 0.49401 0.22305 0.0
N1250 N 0.14697 0.53538 0.21875 0.0
N1251 N 0.99112 0.48603 0.19201 0.0
H1252 H 0.02353 0.47893 0.25857 0.0
H1253 H 0.98488 0.46406 0.23616 0.0
H1254 H 0.98031 0.48431 0.17395 0.0
H1255 H 0.97162 0.48336 0.2047 0.0
H1256 H 0.16855 0.54746 0.20679 0.0
H1257 H 0.15811 0.53898 0.23696 0.0
H1258 H 0.14529 0.5208 0.1716 0.0
H1259 H 0.10848 0.51433 0.14987 0.0
C1260 C 0.52933 0.56919 0.22298 0.0
C1261 C 0.4979 0.57595 0.22608 0.0
C1262 C 0.50191 0.59563 0.18415 0.0
C1263 C 0.52739 0.58088 0.17951 0.0
N1264 N 0.58453 0.58494 0.20008 0.0
N1265 N 0.45325 0.59507 0.20913 0.0
C1266 C 0.54681 0.57636 0.20054 0.0
C1267 C 0.48362 0.58865 0.20643 0.0
N1268 N 0.54242 0.55555 0.2414 0.0
N1269 N 0.50207 0.6235 0.17045 0.0
H1270 H 0.43985 0.59136 0.22537 0.0
H1271 H 0.43959 0.60092 0.19454 0.0
H1272 H 0.52389 0.63799 0.15886 0.0
H1273 H 0.48623 0.6375 0.17407 0.0
H1274 H 0.56287 0.54667 0.23914 0.0
H1275 H 0.53022 0.54969 0.2581 0.0
H1276 H 0.60156 0.58593 0.21553 0.0
H1277 H 0.60016 0.59637 0.18502 0.0
C1278 C 0.98608 0.47895 0.79625 0.0
C1279 C 0.94549 0.46171 0.78954 0.0
C1280 C 0.93357 0.46291 0.83288 0.0
C1281 C 0.97339 0.47575 0.83954 0.0
N1282 N 0.03757 0.49406 0.8282 0.0
N1283 N 0.87981 0.43458 0.80081 0.0
C1284 C 0.99977 0.48357 0.82139 0.0
C1285 C 0.919 0.45325 0.80768 0.0
N1286 N 0.01151 0.49141 0.77857 0.0
N1287 N 0.90986 0.46026 0.85071 0.0
H1288 H 0.86815 0.4278 0.78252 0.0
H1289 H 0.85859 0.42346 0.81307 0.0
H1290 H 0.91955 0.46659 0.86935 0.0
H1291 H 0.88158 0.45493 0.84708 0.0
H1292 H 0.04168 0.50789 0.78236 0.0
H1293 H 1.00241 0.48787 0.75993 0.0
H1294 H 0.05711 0.49547 0.81586 0.0
H1295 H 0.049 0.49931 0.84649 0.0
C1296 C 0.58135 0.50467 0.81664 0.0
C1297 C 0.56268 0.50928 0.79532 0.0
C1298 C 0.51839 0.51916 0.82041 0.0
C1299 C 0.53755 0.51536 0.84178 0.0
N1300 N 0.5919 0.51261 0.86113 0.0
N1301 N 0.5195 0.52916 0.77714 0.0
C1302 C 0.57059 0.51072 0.84015 0.0
C1303 C 0.53309 0.51918 0.79732 0.0
N1304 N 0.60811 0.4928 0.81432 0.0
N1305 N 0.48523 0.5212 0.82206 0.0
H1306 H 0.52972 0.52946 0.75998 0.0
H1307 H 0.50078 0.54045 0.77776 0.0
H1308 H 0.47405 0.52214 0.83869 0.0
H1309 H 0.46726 0.51928 0.80688 0.0
H1310 H 0.61942 0.48441 0.82882 0.0
H1311 H 0.6173 0.48885 0.79749 0.0
H1312 H 0.61856 0.51357 0.8613 0.0
H1313 H 0.58452 0.51654 0.87861 0.0
C1314 C 0.49584 0.03919 0.80562 0.0
C1315 C 0.52696 0.07828 0.80475 0.0
C1316 C 0.53769 0.08661 0.84973 0.0
C1317 C 0.50415 0.04892 0.85054 0.0
N1318 N 0.44665 0.99275 0.82944 0.0
N1319 N 0.57386 0.14158 0.82583 0.0
C1320 C 0.48186 0.02619 0.82851 0.0
C1321 C 0.54692 0.10272 0.82679 0.0
N1322 N 0.48048 0.01397 0.78463 0.0
N1323 N 0.56144 0.1064 0.87072 0.0
H1324 H 0.58156 0.15427 0.80937 0.0
H1325 H 0.58628 0.16191 0.84128 0.0
H1326 H 0.55561 0.09559 0.88784 0.0
H1327 H 0.58847 0.13195 0.87092 0.0
H1328 H 0.46051 0.984 0.78451 0.0
H1329 H 0.49057 0.0221 0.76757 0.0
H1330 H 0.42726 0.97727 0.81398 0.0
H1331 H 0.43505 0.98257 0.84587 0.0
C1332 C 0.15161 0.32799 0.5573 0.0
C1333 C 0.12242 0.288 0.55789 0.0
C1334 C 0.11435 0.279 0.51285 0.0
C1335 C 0.14685 0.31745 0.51242 0.0
N1336 N 0.19869 0.37791 0.53395 0.0
N1337 N 0.07748 0.22412 0.53667 0.0
C1338 C 0.16597 0.3419 0.53458 0.0
C1339 C 0.10388 0.26318 0.53576 0.0
N1340 N 0.16509 0.35277 0.5785 0.0
N1341 N 0.09322 0.25789 0.49134 0.0
H1342 H 0.06843 0.21167 0.55306 0.0
H1343 H 0.06629 0.20344 0.52137 0.0
H1344 H 0.10056 0.26832 0.47424 0.0
H1345 H 0.06679 0.2315 0.49046 0.0
H1346 H 0.18348 0.38313 0.57909 0.0
H1347 H 0.1551 0.34342 0.59543 0.0
H1348 H 0.21662 0.3952 0.54952 0.0
H1349 H 0.20962 0.3895 0.51765 0.0
C1350 C 0.7679 0.85967 0.54703 0.0
C1351 C 0.74202 0.84004 0.56481 0.0
C1352 C 0.68663 0.81225 0.5332 0.0
C1353 C 0.71185 0.83641 0.51636 0.0
N1354 N 0.77607 0.88581 0.50748 0.0
N1355 N 0.67646 0.79981 0.57571 0.0
C1356 C 0.75249 0.86059 0.52325 0.0
C1357 C 0.70128 0.81655 0.5581 0.0
N1358 N 0.80724 0.87708 0.55292 0.0
N1359 N 0.64884 0.78478 0.52524 0.0
H1360 H 0.68612 0.80161 0.59405 0.0
H1361 H 0.64626 0.78636 0.57252 0.0
H1362 H 0.6372 0.78095 0.50712 0.0
H1363 H 0.63004 0.76354 0.53596 0.0
H1364 H 0.82762 0.88851 0.54015 0.0
H1365 H 0.81937 0.87687 0.57022 0.0
H1366 H 0.80503 0.90739 0.51245 0.0
H1367 H 0.76597 0.88726 0.48985 0.0
C1368 C 0.1511 0.91609 0.53914 0.0
C1369 C 0.1566 0.89479 0.55749 0.0
C1370 C 0.18094 0.8652 0.52768 0.0
C1371 C 0.17483 0.88599 0.50924 0.0
N1372 N 0.14945 0.92681 0.49598 0.0
N1373 N 0.17176 0.8454 0.56905 0.0
C1374 C 0.15842 0.91009 0.51456 0.0
C1375 C 0.16991 0.86811 0.55165 0.0
N1376 N 0.13977 0.94278 0.54545 0.0
N1377 N 0.19842 0.84358 0.52238 0.0
H1378 H 0.16567 0.84797 0.58709 0.0
H1379 H 0.17693 0.82224 0.56544 0.0
H1380 H 0.20523 0.83921 0.50481 0.0
H1381 H 0.20819 0.8316 0.53548 0.0
H1382 H 0.1397 0.96281 0.5339 0.0
H1383 H 0.13209 0.94635 0.5629 0.0
H1384 H 0.13382 0.94141 0.49789 0.0
H1385 H 0.1555 0.92397 0.47796 0.0
C1386 C 0.62648 0.80255 0.14002 0.0
C1387 C 0.58642 0.77423 0.13388 0.0
C1388 C 0.5789 0.75996 0.17692 0.0
C1389 C 0.61934 0.787 0.18281 0.0
N1390 N 0.68275 0.83153 0.17033 0.0
N1391 N 0.52466 0.72387 0.14535 0.0
C1392 C 0.64343 0.8077 0.16445 0.0
C1393 C 0.56264 0.75232 0.15205 0.0
N1394 N 0.6482 0.82481 0.12246 0.0
N1395 N 0.55609 0.74214 0.19526 0.0
H1396 H 0.51134 0.71884 0.12757 0.0
H1397 H 0.50656 0.70392 0.15691 0.0
H1398 H 0.56733 0.74607 0.21349 0.0
H1399 H 0.52584 0.72501 0.19292 0.0
H1400 H 0.67609 0.84919 0.12614 0.0
H1401 H 0.63763 0.82034 0.10405 0.0
H1402 H 0.70283 0.84388 0.15751 0.0
H1403 H 0.69602 0.83742 0.18819 0.0
C1404 C 0.19433 0.85027 0.1301 0.0
C1405 C 0.22486 0.84205 0.12691 0.0
C1406 C 0.23524 0.84282 0.17158 0.0
C1407 C 0.20149 0.8458 0.17438 0.0
N1408 N 0.14708 0.84991 0.15649 0.0
N1409 N 0.27228 0.82672 0.14422 0.0
C1410 C 0.18065 0.84911 0.15368 0.0
C1411 C 0.24508 0.83772 0.14758 0.0
N1412 N 0.17901 0.85998 0.11061 0.0
N1413 N 0.25801 0.84512 0.19191 0.0
H1414 H 0.28034 0.82267 0.12701 0.0
H1415 H 0.28484 0.81872 0.15824 0.0
H1416 H 0.2512 0.84802 0.20973 0.0
H1417 H 0.28522 0.84751 0.19124 0.0
H1418 H 0.15941 0.87008 0.11211 0.0
H1419 H 0.18852 0.86127 0.09316 0.0
H1420 H 0.12795 0.84748 0.14186 0.0
H1421 H 0.13696 0.85056 0.17356 0.0
C1422 C 0.16128 0.37122 0.14097 0.0
C1423 C 0.18995 0.41128 0.13976 0.0
C1424 C 0.20183 0.42093 0.1847 0.0
C1425 C 0.17078 0.38189 0.18592 0.0
N1426 N 0.11659 0.32184 0.16559 0.0
N1427 N 0.23365 0.47607 0.16023 0.0
C1428 C 0.14929 0.35754 0.16414 0.0
C1429 C 0.20923 0.43667 0.16158 0.0
N1430 N 0.14635 0.34592 0.12 0.0
N1431 N 0.2249 0.44254 0.20556 0.0
H1432 H 0.23991 0.4886 0.14363 0.0
H1433 H 0.24526 0.49683 0.17549 0.0
H1434 H 0.22011 0.43207 0.22281 0.0
H1435 H 0.25055 0.46949 0.20558 0.0
H1436 H 0.12862 0.31553 0.11993 0.0
H1437 H 0.15434 0.35481 0.10267 0.0
H1438 H 0.09722 0.30474 0.15046 0.0
H1439 H 0.10687 0.31069 0.1822 0.0
C1440 C 0.80103 0.66042 0.88735 0.0
C1441 C 0.7841 0.61929 0.8891 0.0
C1442 C 0.7931 0.60942 0.8458 0.0
C1443 C 0.80854 0.65031 0.84372 0.0
N1444 N 0.82003 0.71336 0.86094 0.0
N1445 N 0.75622 0.55363 0.86896 0.0
C1446 C 0.81029 0.6754 0.86406 0.0
C1447 C 0.77768 0.59349 0.86795 0.0
N1448 N 0.80969 0.68536 0.9081 0.0
N1449 N 0.79481 0.58608 0.82702 0.0
H1450 H 0.74448 0.541 0.88486 0.0
H1451 H 0.747 0.53322 0.8536 0.0
H1452 H 0.80586 0.59649 0.81052 0.0
H1453 H 0.78823 0.55717 0.82849 0.0
H1454 H 0.82615 0.71592 0.90856 0.0
H1455 H 0.80271 0.67546 0.92535 0.0
H1456 H 0.81799 0.732 0.87428 0.0
H1457 H 0.82696 0.72522 0.84418 0.0
C1458 C 0.4371 0.17709 0.87072 0.0
C1459 C 0.41464 0.17251 0.8908 0.0
C1460 C 0.35794 0.15805 0.86275 0.0
C1461 C 0.38058 0.16339 0.84268 0.0
N1462 N 0.43842 0.1697 0.82656 0.0
N1463 N 0.35209 0.15006 0.90616 0.0
C1464 C 0.41912 0.17006 0.84637 0.0
C1465 C 0.37443 0.16014 0.88683 0.0
N1466 N 0.47601 0.18993 0.87503 0.0
N1467 N 0.32113 0.15235 0.85881 0.0
H1468 H 0.36343 0.15145 0.92403 0.0
H1469 H 0.32188 0.13727 0.90433 0.0
H1470 H 0.30743 0.14873 0.84131 0.0
H1471 H 0.30479 0.15315 0.87279 0.0
H1472 H 0.49519 0.19836 0.86147 0.0
H1473 H 0.48978 0.19419 0.89258 0.0
H1474 H 0.46496 0.17036 0.82786 0.0
H1475 H 0.42644 0.16566 0.80852 0.0
C1476 C 0.85374 0.20348 0.89367 0.0
C1477 C 0.83655 0.22714 0.89743 0.0
C1478 C 0.86073 0.25682 0.85945 0.0
C1479 C 0.86995 0.22713 0.853 0.0
N1480 N 0.90395 0.19897 0.87365 0.0
N1481 N 0.82241 0.27603 0.88312 0.0
C1482 C 0.87441 0.20719 0.87269 0.0
C1483 C 0.83946 0.25353 0.87999 0.0
N1484 N 0.85077 0.17775 0.91023 0.0
N1485 N 0.87875 0.29171 0.84926 0.0
H1486 H 0.80692 0.27497 0.89808 0.0
H1487 H 0.82101 0.29313 0.8697 0.0
H1488 H 0.90123 0.29831 0.83806 0.0
H1489 H 0.87598 0.31589 0.85494 0.0
H1490 H 0.85983 0.15728 0.90712 0.0
H1491 H 0.83626 0.17472 0.92596 0.0
H1492 H 0.91089 0.18768 0.8886 0.0
H1493 H 0.92518 0.20945 0.86128 0.0
C1494 C 0.2384 0.09079 0.47292 0.0
C1495 C 0.26347 0.1155 0.45618 0.0
C1496 C 0.31422 0.15335 0.49 0.0
C1497 C 0.2911 0.12564 0.5061 0.0
N1498 N 0.23292 0.06537 0.51264 0.0
N1499 N 0.32726 0.16684 0.44799 0.0
C1500 C 0.25353 0.0937 0.49754 0.0
C1501 C 0.30189 0.14604 0.46451 0.0
N1502 N 0.19993 0.06521 0.46539 0.0
N1503 N 0.34766 0.18706 0.49918 0.0
H1504 H 0.31957 0.16223 0.42911 0.0
H1505 H 0.35688 0.18631 0.45275 0.0
H1506 H 0.3576 0.19345 0.51778 0.0
H1507 H 0.36359 0.21031 0.48877 0.0
H1508 H 0.17931 0.04923 0.47729 0.0
H1509 H 0.18783 0.06253 0.44754 0.0
H1510 H 0.20743 0.03903 0.50665 0.0
H1511 H 0.24283 0.06681 0.53088 0.0
C1512 C 0.87693 0.19347 0.47437 0.0
C1513 C 0.90528 0.18183 0.47249 0.0
C1514 C 0.90933 0.17853 0.51708 0.0
C1515 C 0.87729 0.18496 0.5184 0.0
N1516 N 0.82984 0.19807 0.49872 0.0
N1517 N 0.94834 0.16238 0.4914 0.0
C1518 C 0.86112 0.19268 0.49717 0.0
C1519 C 0.92188 0.17466 0.49375 0.0
N1520 N 0.86555 0.20569 0.45432 0.0
N1521 N 0.92767 0.17611 0.53818 0.0
H1522 H 0.95914 0.16054 0.47477 0.0
H1523 H 0.95824 0.15209 0.50554 0.0
H1524 H 0.9184 0.17737 0.55545 0.0
H1525 H 0.95366 0.17567 0.53891 0.0
H1526 H 0.84775 0.21806 0.4548 0.0
H1527 H 0.87661 0.20648 0.43742 0.0
H1528 H 0.81355 0.19905 0.48357 0.0
H1529 H 0.81875 0.19961 0.51529 0.0
C1530 C 0.88521 0.76619 0.4898 0.0
C1531 C 0.86289 0.74252 0.46797 0.0
C1532 C 0.82042 0.68973 0.49241 0.0
C1533 C 0.84463 0.71202 0.51405 0.0
N1534 N 0.90387 0.76857 0.53301 0.0
N1535 N 0.81402 0.67909 0.44804 0.0
C1536 C 0.87816 0.74947 0.51265 0.0
C1537 C 0.83188 0.70346 0.46916 0.0
N1538 N 0.91214 0.80506 0.48883 0.0
N1539 N 0.78565 0.65615 0.49411 0.0
H1540 H 0.82178 0.68799 0.43067 0.0
H1541 H 0.79409 0.64908 0.44779 0.0
H1542 H 0.77594 0.64528 0.51078 0.0
H1543 H 0.76482 0.64101 0.47924 0.0
H1544 H 0.9262 0.82492 0.50437 0.0
H1545 H 0.9182 0.81835 0.47249 0.0
H1546 H 0.93091 0.79389 0.5326 0.0
H1547 H 0.89966 0.75728 0.55003 0.0
loop_
_geom_bond_atom_site_label_1
_geom_bond_atom_site_label_2
_geom_bond_distance
_geom_bond_site_symmetry_2
_ccdc_geom_bond_type
H0 C5 0.930 . S
H1 C8 0.930 . S
H2 C10 0.930 . S
H3 C4 1.016 . S
C4 H3 1.016 . S
C4 N11 1.286 . S
C5 H0 0.930 . S
C5 C6 1.397 . S
C5 C7 1.361 . S
C6 C5 1.397 . S
C6 C10 1.390 . S
C7 C5 1.361 . S
C7 C8 1.393 . S
C7 N11 1.413 . S
C8 H1 0.930 . S
C8 C7 1.393 . S
C8 C9 1.399 . S
C9 C8 1.399 . S
C9 C10 1.381 . S
C10 H2 0.930 . S
C10 C6 1.390 . S
C10 C9 1.381 . S
N11 C4 1.286 . S
N11 C7 1.413 . S
H12 C17 0.930 . S
H13 C20 0.930 . S
H14 C22 0.930 . S
H15 C16 1.016 . S
C16 H15 1.016 . S
C16 N23 1.286 . S
C17 H12 0.930 . S
C17 C18 1.397 . S
C17 C19 1.361 . S
C18 C17 1.397 . S
C18 C22 1.390 . S
C19 C17 1.361 . S
C19 C20 1.393 . S
C19 N23 1.413 . S
C20 H13 0.930 . S
C20 C19 1.393 . S
C20 C21 1.399 . S
C21 C20 1.399 . S
C21 C22 1.381 . S
C22 H14 0.930 . S
C22 C18 1.390 . S
C22 C21 1.381 . S
N23 C16 1.286 . S
N23 C19 1.413 . S
H24 C29 0.930 . S
H25 C32 0.930 . S
H26 C34 0.930 . S
H27 C28 1.016 . S
C28 H27 1.016 . S
C28 N35 1.286 . S
C29 H24 0.930 . S
C29 C30 1.397 . S
C29 C31 1.361 . S
C30 C29 1.397 . S
C30 C34 1.390 . S
C31 C29 1.361 . S
C31 C32 1.393 . S
C31 N35 1.413 . S
C32 H25 0.930 . S
C32 C31 1.393 . S
C32 C33 1.399 . S
C33 C32 1.399 . S
C33 C34 1.381 . S
C34 H26 0.930 . S
C34 C30 1.390 . S
C34 C33 1.381 . S
N35 C28 1.286 . S
N35 C31 1.413 . S
H36 C41 0.930 . S
H37 C44 0.930 . S
H38 C46 0.930 . S
H39 C40 1.016 . S
C40 H39 1.016 . S
C40 N47 1.286 . S
C41 H36 0.930 . S
C41 C42 1.397 . S
C41 C43 1.361 . S
C42 C41 1.397 . S
C42 C46 1.390 . S
C43 C41 1.361 . S
C43 C44 1.393 . S
C43 N47 1.413 . S
C44 H37 0.930 . S
C44 C43 1.393 . S
C44 C45 1.399 . S
C45 C44 1.399 . S
C45 C46 1.381 . S
C46 H38 0.930 . S
C46 C42 1.390 . S
C46 C45 1.381 . S
N47 C40 1.286 . S
N47 C43 1.413 . S
H48 C53 0.930 . S
H49 C56 0.930 . S
H50 C58 0.930 . S
H51 C52 1.016 . S
C52 H51 1.016 . S
C52 N59 1.286 . S
C53 H48 0.930 . S
C53 C54 1.397 . S
C53 C55 1.361 . S
C54 C53 1.397 . S
C54 C58 1.390 . S
C55 C53 1.361 . S
C55 C56 1.393 . S
C55 N59 1.413 . S
C56 H49 0.930 . S
C56 C55 1.393 . S
C56 C57 1.399 . S
C57 C56 1.399 . S
C57 C58 1.381 . S
C58 H50 0.930 . S
C58 C54 1.390 . S
C58 C57 1.381 . S
N59 C52 1.286 . S
N59 C55 1.413 . S
H60 C65 0.930 . S
H61 C68 0.930 . S
H62 C70 0.930 . S
H63 C64 1.016 . S
C64 H63 1.016 . S
C64 N71 1.286 . S
C65 H60 0.930 . S
C65 C66 1.397 . S
C65 C67 1.361 . S
C66 C65 1.397 . S
C66 C70 1.390 . S
C67 C65 1.361 . S
C67 C68 1.393 . S
C67 N71 1.413 . S
C68 H61 0.930 . S
C68 C67 1.393 . S
C68 C69 1.399 . S
C69 C68 1.399 . S
C69 C70 1.381 . S
C70 H62 0.930 . S
C70 C66 1.390 . S
C70 C69 1.381 . S
N71 C64 1.286 . S
N71 C67 1.413 . S
H72 C77 0.930 . S
H73 C80 0.930 . S
H74 C82 0.930 . S
H75 C76 1.016 . S
C76 H75 1.016 . S
C76 N83 1.286 . S
C77 H72 0.930 . S
C77 C78 1.397 . S
C77 C79 1.361 . S
C78 C77 1.397 . S
C78 C82 1.390 . S
C79 C77 1.361 . S
C79 C80 1.393 . S
C79 N83 1.413 . S
C80 H73 0.930 . S
C80 C79 1.393 . S
C80 C81 1.399 . S
C81 C80 1.399 . S
C81 C82 1.381 . S
C82 H74 0.930 . S
C82 C78 1.390 . S
C82 C81 1.381 . S
N83 C76 1.286 . S
N83 C79 1.413 . S
H84 C89 0.930 . S
H85 C92 0.930 . S
H86 C94 0.930 . S
H87 C88 1.016 . S
C88 H87 1.016 . S
C88 N95 1.286 . S
C89 H84 0.930 . S
C89 C90 1.397 . S
C89 C91 1.361 . S
C90 C89 1.397 . S
C90 C94 1.390 . S
C91 C89 1.361 . S
C91 C92 1.393 . S
C91 N95 1.413 . S
C92 H85 0.930 . S
C92 C91 1.393 . S
C92 C93 1.399 . S
C93 C92 1.399 . S
C93 C94 1.381 . S
C94 H86 0.930 . S
C94 C90 1.390 . S
C94 C93 1.381 . S
N95 C88 1.286 . S
N95 C91 1.413 . S
H96 C101 0.930 . S
H97 C104 0.930 . S
H98 C106 0.930 . S
H99 C100 1.016 . S
C100 H99 1.016 . S
C100 N107 1.286 . S
C101 H96 0.930 . S
C101 C102 1.397 . S
C101 C103 1.361 . S
C102 C101 1.397 . S
C102 C106 1.390 . S
C103 C101 1.361 . S
C103 C104 1.393 . S
C103 N107 1.413 . S
C104 H97 0.930 . S
C104 C103 1.393 . S
C104 C105 1.399 . S
C105 C104 1.399 . S
C105 C106 1.381 . S
C106 H98 0.930 . S
C106 C102 1.390 . S
C106 C105 1.381 . S
N107 C100 1.286 . S
N107 C103 1.413 . S
H108 C113 0.930 . S
H109 C116 0.930 . S
H110 C118 0.930 . S
H111 C112 1.016 . S
C112 H111 1.016 . S
C112 N119 1.286 . S
C113 H108 0.930 . S
C113 C114 1.397 . S
C113 C115 1.361 . S
C114 C113 1.397 . S
C114 C118 1.390 . S
C115 C113 1.361 . S
C115 C116 1.393 . S
C115 N119 1.413 . S
C116 H109 0.930 . S
C116 C115 1.393 . S
C116 C117 1.399 . S
C117 C116 1.399 . S
C117 C118 1.381 . S
C118 H110 0.930 . S
C118 C114 1.390 . S
C118 C117 1.381 . S
N119 C112 1.286 . S
N119 C115 1.413 . S
H120 C125 0.930 1_554 S
H121 C128 0.930 . S
H122 C130 0.930 . S
H123 C124 1.016 . S
C124 H123 1.016 . S
C124 N131 1.286 . S
C125 H120 0.930 1_556 S
C125 C126 1.397 . S
C125 C127 1.361 . S
C126 C125 1.397 . S
C126 C130 1.390 . S
C127 C125 1.361 . S
C127 C128 1.393 . S
C127 N131 1.413 . S
C128 H121 0.930 . S
C128 C127 1.393 . S
C128 C129 1.399 . S
C129 C128 1.399 . S
C129 C130 1.381 . S
C130 H122 0.930 . S
C130 C126 1.390 . S
C130 C129 1.381 . S
N131 C124 1.286 . S
N131 C127 1.413 . S
H132 C137 0.930 . S
H133 C140 0.930 . S
H134 C142 0.930 . S
H135 C136 1.016 . S
C136 H135 1.016 . S
C136 N143 1.286 . S
C137 H132 0.930 . S
C137 C138 1.397 . S
C137 C139 1.361 . S
C138 C137 1.397 . S
C138 C142 1.390 . S
C139 C137 1.361 . S
C139 C140 1.393 . S
C139 N143 1.413 . S
C140 H133 0.930 . S
C140 C139 1.393 . S
C140 C141 1.399 . S
C141 C140 1.399 . S
C141 C142 1.381 . S
C142 H134 0.930 . S
C142 C138 1.390 . S
C142 C141 1.381 . S
N143 C136 1.286 . S
N143 C139 1.413 . S
H144 C149 0.930 . S
H145 C152 0.930 . S
H146 C154 0.930 . S
H147 C148 1.016 . S
C148 H147 1.016 . S
C148 N155 1.286 . S
C149 H144 0.930 . S
C149 C150 1.397 . S
C149 C151 1.361 . S
C150 C149 1.397 . S
C150 C154 1.390 . S
C151 C149 1.361 . S
C151 C152 1.393 . S
C151 N155 1.413 . S
C152 H145 0.930 . S
C152 C151 1.393 . S
C152 C153 1.399 . S
C153 C152 1.399 . S
C153 C154 1.381 . S
C154 H146 0.930 . S
C154 C150 1.390 . S
C154 C153 1.381 . S
N155 C148 1.286 . S
N155 C151 1.413 . S
H156 C161 0.930 . S
H157 C164 0.930 . S
H158 C166 0.930 . S
H159 C160 1.016 . S
C160 H159 1.016 . S
C160 N167 1.286 . S
C161 H156 0.930 . S
C161 C162 1.397 . S
C161 C163 1.361 . S
C162 C161 1.397 . S
C162 C166 1.390 . S
C163 C161 1.361 . S
C163 C164 1.393 . S
C163 N167 1.413 . S
C164 H157 0.930 . S
C164 C163 1.393 . S
C164 C165 1.399 . S
C165 C164 1.399 . S
C165 C166 1.381 . S
C166 H158 0.930 . S
C166 C162 1.390 . S
C166 C165 1.381 . S
N167 C160 1.286 . S
N167 C163 1.413 . S
H168 C173 0.930 . S
H169 C176 0.930 . S
H170 C178 0.930 . S
H171 C172 1.016 . S
C172 H171 1.016 . S
C172 N179 1.286 . S
C173 H168 0.930 . S
C173 C174 1.397 . S
C173 C175 1.361 . S
C174 C173 1.397 . S
C174 C178 1.390 . S
C175 C173 1.361 . S
C175 C176 1.393 . S
C175 N179 1.413 . S
C176 H169 0.930 . S
C176 C175 1.393 . S
C176 C177 1.399 . S
C177 C176 1.399 . S
C177 C178 1.381 . S
C178 H170 0.930 . S
C178 C174 1.390 . S
C178 C177 1.381 . S
N179 C172 1.286 . S
N179 C175 1.413 . S
H180 C185 0.930 . S
H181 C188 0.930 . S
H182 C190 0.930 . S
H183 C184 1.016 . S
C184 H183 1.016 . S
C184 N191 1.286 . S
C185 H180 0.930 . S
C185 C186 1.397 . S
C185 C187 1.361 . S
C186 C185 1.397 . S
C186 C190 1.390 . S
C187 C185 1.361 . S
C187 C188 1.393 . S
C187 N191 1.413 . S
C188 H181 0.930 . S
C188 C187 1.393 . S
C188 C189 1.399 . S
C189 C188 1.399 . S
C189 C190 1.381 . S
C190 H182 0.930 . S
C190 C186 1.390 . S
C190 C189 1.381 . S
N191 C184 1.286 . S
N191 C187 1.413 . S
H192 C197 0.930 . S
H193 C200 0.930 . S
H194 C202 0.930 . S
H195 C196 1.016 . S
C196 H195 1.016 . S
C196 N203 1.286 . S
C197 H192 0.930 . S
C197 C198 1.397 . S
C197 C199 1.361 . S
C198 C197 1.397 . S
C198 C202 1.390 . S
C199 C197 1.361 . S
C199 C200 1.393 . S
C199 N203 1.413 . S
C200 H193 0.930 . S
C200 C199 1.393 . S
C200 C201 1.399 . S
C201 C200 1.399 . S
C201 C202 1.381 . S
C202 H194 0.930 . S
C202 C198 1.390 . S
C202 C201 1.381 . S
N203 C196 1.286 . S
N203 C199 1.413 . S
H204 C209 0.930 . S
H205 C212 0.930 . S
H206 C214 0.930 . S
H207 C208 1.016 . S
C208 H207 1.016 . S
C208 N215 1.286 . S
C209 H204 0.930 . S
C209 C210 1.397 . S
C209 C211 1.361 . S
C210 C209 1.397 . S
C210 C214 1.390 . S
C211 C209 1.361 . S
C211 C212 1.393 . S
C211 N215 1.413 . S
C212 H205 0.930 . S
C212 C211 1.393 . S
C212 C213 1.399 . S
C213 C212 1.399 . S
C213 C214 1.381 . S
C214 H206 0.930 . S
C214 C210 1.390 . S
C214 C213 1.381 . S
N215 C208 1.286 . S
N215 C211 1.413 . S
C216 Eu217 2.835 . S
C216 C218 1.500 1_545 S
C216 O236 1.257 1_545 S
C216 O237 1.260 . S
Eu217 C216 2.835 . S
Eu217 O236 2.473 1_545 S
Eu217 O237 2.480 . S
Eu217 O238 2.430 . S
Eu217 O239 2.670 1_554 S
Eu217 O240 2.394 1_545 S
Eu217 O245 2.355 1_545 S
Eu217 O247 2.374 . S
C218 C216 1.500 1_565 S
C218 C219 1.377 1_565 S
C218 C223 1.377 . S
C219 C218 1.377 1_545 S
C219 C220 1.395 . S
C219 H248 0.931 . S
C220 C219 1.395 . S
C220 C221 1.383 1_545 S
C220 H249 0.931 . S
C221 C220 1.383 1_565 S
C221 C222 1.394 . S
C222 C221 1.394 . S
C222 C223 1.378 . S
C222 H250 0.931 . S
C223 C218 1.377 . S
C223 C222 1.378 . S
C223 H251 0.931 . S
C224 O238 1.259 . S
C224 O239 1.270 1_554 S
C225 O240 1.251 . S
C225 O241 1.251 1_554 S
C226 Eu227 2.835 1_545 S
C226 C228 1.500 . S
C226 O242 1.257 . S
C226 O243 1.260 1_545 S
Eu227 C226 2.835 1_565 S
Eu227 O239 2.355 1_565 S
Eu227 O241 2.374 . S
Eu227 O242 2.473 1_565 S
Eu227 O243 2.480 . S
Eu227 O244 2.430 . S
Eu227 O245 2.670 1_556 S
Eu227 O246 2.394 1_565 S
C228 C226 1.500 . S
C228 C229 1.378 1_545 S
C228 C233 1.377 . S
C229 C228 1.378 1_565 S
C229 C230 1.396 1_565 S
C229 H252 0.928 . S
C230 C229 1.396 1_545 S
C230 C231 1.383 . S
C230 H253 0.931 1_545 S
C231 C230 1.383 . S
C231 C232 1.394 . S
C232 C231 1.394 . S
C232 C233 1.378 . S
C232 H254 0.931 . S
C233 C228 1.377 . S
C233 C232 1.378 . S
C233 H255 0.931 . S
C234 O244 1.259 1_554 S
C234 O245 1.270 . S
C235 O246 1.251 . S
C235 O247 1.251 1_556 S
O236 C216 1.257 1_565 S
O236 Eu217 2.473 1_565 S
O237 C216 1.260 . S
O237 Eu217 2.480 . S
O238 Eu217 2.430 . S
O238 C224 1.259 . S
O239 Eu217 2.670 1_556 S
O239 C224 1.270 1_556 S
O239 Eu227 2.355 1_545 S
O240 Eu217 2.394 1_565 S
O240 C225 1.251 . S
O241 C225 1.251 1_556 S
O241 Eu227 2.374 . S
O242 C226 1.257 . S
O242 Eu227 2.473 1_545 S
O243 C226 1.260 1_565 S
O243 Eu227 2.480 . S
O244 Eu227 2.430 . S
O244 C234 1.259 1_556 S
O245 Eu217 2.355 1_565 S
O245 Eu227 2.670 1_554 S
O245 C234 1.270 . S
O246 Eu227 2.394 1_545 S
O246 C235 1.251 . S
O247 Eu217 2.374 . S
O247 C235 1.251 1_554 S
H248 C219 0.931 . S
H249 C220 0.931 . S
H250 C222 0.931 . S
H251 C223 0.931 . S
H252 C229 0.928 . S
H253 C230 0.931 1_565 S
H254 C232 0.931 . S
H255 C233 0.931 . S
C256 Eu257 2.835 1_455 S
C256 C258 1.500 . S
C256 O276 1.257 . S
C256 O277 1.260 1_455 S
Eu257 C256 2.835 1_655 S
Eu257 O276 2.473 1_655 S
Eu257 O277 2.480 . S
Eu257 O278 2.430 . S
Eu257 O279 2.670 1_554 S
Eu257 O280 2.394 1_655 S
Eu257 O285 2.355 1_655 S
Eu257 O287 2.374 . S
C258 C256 1.500 . S
C258 C259 1.377 . S
C258 C263 1.377 . S
C259 C258 1.377 . S
C259 C260 1.395 . S
C259 H288 0.931 1_455 S
C260 C259 1.395 . S
C260 C261 1.383 . S
C260 H289 0.923 1_455 S
C261 C260 1.383 . S
C261 C262 1.394 . S
C262 C261 1.394 . S
C262 C263 1.378 . S
C262 H290 0.931 . S
C263 C258 1.377 . S
C263 C262 1.378 . S
C263 H291 0.931 . S
C264 O278 1.259 1_556 S
C264 O279 1.270 . S
C265 O280 1.251 . S
C265 O281 1.252 1_554 S
C266 Eu267 2.835 1_655 S
C266 C268 1.500 . S
C266 O282 1.257 . S
C266 O283 1.260 1_655 S
Eu267 C266 2.835 1_455 S
Eu267 O279 2.355 1_455 S
Eu267 O281 2.374 . S
Eu267 O282 2.473 1_455 S
Eu267 O283 2.480 . S
Eu267 O284 2.430 . S
Eu267 O285 2.670 1_556 S
Eu267 O286 2.394 1_455 S
C268 C266 1.500 . S
C268 C269 1.377 1_655 S
C268 C273 1.377 . S
C269 C268 1.377 1_455 S
C269 C270 1.395 1_455 S
C269 H292 0.931 . S
C270 C269 1.395 1_655 S
C270 C271 1.383 . S
C270 H293 0.931 1_655 S
C271 C270 1.383 . S
C271 C272 1.394 . S
C272 C271 1.394 . S
C272 C273 1.378 . S
C272 H294 0.931 . S
C273 C268 1.377 . S
C273 C272 1.378 . S
C273 H295 0.931 . S
C274 O284 1.259 1_554 S
C274 O285 1.270 . S
C275 O286 1.251 . S
C275 O287 1.251 1_556 S
O276 C256 1.257 . S
O276 Eu257 2.473 1_455 S
O277 C256 1.260 1_655 S
O277 Eu257 2.480 . S
O278 Eu257 2.430 . S
O278 C264 1.259 1_554 S
O279 Eu257 2.670 1_556 S
O279 C264 1.270 . S
O279 Eu267 2.355 1_655 S
O280 Eu257 2.394 1_455 S
O280 C265 1.251 . S
O281 C265 1.252 1_556 S
O281 Eu267 2.374 . S
O282 C266 1.257 . S
O282 Eu267 2.473 1_655 S
O283 C266 1.260 1_455 S
O283 Eu267 2.480 . S
O284 Eu267 2.430 . S
O284 C274 1.259 1_556 S
O285 Eu257 2.355 1_455 S
O285 Eu267 2.670 1_554 S
O285 C274 1.270 . S
O286 Eu267 2.394 1_655 S
O286 C275 1.251 . S
O287 Eu257 2.374 . S
O287 C275 1.251 1_554 S
H288 C259 0.931 1_655 S
H289 C260 0.923 1_655 S
H290 C262 0.931 . S
H291 C263 0.931 . S
H292 C269 0.931 . S
H293 C270 0.931 1_455 S
H294 C272 0.931 . S
H295 C273 0.931 . S
C296 Eu297 2.835 . S
C296 C298 1.500 . S
C296 O316 1.257 . S
C296 O317 1.260 . S
Eu297 C296 2.835 . S
Eu297 O316 2.473 . S
Eu297 O317 2.480 . S
Eu297 O318 2.430 . S
Eu297 O319 2.670 1_556 S
Eu297 O320 2.394 . S
Eu297 O325 2.355 . S
Eu297 O327 2.374 1_556 S
C298 C296 1.500 . S
C298 C299 1.377 . S
C298 C303 1.377 . S
C299 C298 1.377 . S
C299 C300 1.395 . S
C299 H328 0.931 . S
C300 C299 1.395 . S
C300 C301 1.383 . S
C300 H329 0.931 . S
C301 C300 1.383 . S
C301 C302 1.394 . S
C302 C301 1.394 . S
C302 C303 1.378 . S
C302 H330 0.931 . S
C303 C298 1.377 . S
C303 C302 1.378 . S
C303 H331 0.931 . S
C304 O318 1.259 1_554 S
C304 O319 1.270 . S
C305 O320 1.251 . S
C305 O321 1.251 1_556 S
C306 Eu307 2.835 . S
C306 C308 1.500 . S
C306 O322 1.257 . S
C306 O323 1.260 . S
Eu307 C306 2.835 . S
Eu307 O319 2.355 . S
Eu307 O321 2.374 . S
Eu307 O322 2.473 . S
Eu307 O323 2.480 . S
Eu307 O324 2.430 . S
Eu307 O325 2.670 1_554 S
Eu307 O326 2.394 . S
C308 C306 1.500 . S
C308 C309 1.377 . S
C308 C313 1.377 . S
C309 C308 1.377 . S
C309 C310 1.395 . S
C309 H332 0.931 . S
C310 C309 1.395 . S
C310 C311 1.383 . S
C310 H333 0.931 . S
C311 C310 1.383 . S
C311 C312 1.394 . S
C312 C311 1.394 . S
C312 C313 1.378 . S
C312 H334 0.931 . S
C313 C308 1.377 . S
C313 C312 1.378 . S
C313 H335 0.931 . S
C314 O324 1.259 . S
C314 O325 1.270 1_554 S
C315 O326 1.251 . S
C315 O327 1.251 . S
O316 C296 1.257 . S
O316 Eu297 2.473 . S
O317 C296 1.260 . S
O317 Eu297 2.480 . S
O318 Eu297 2.430 . S
O318 C304 1.259 1_556 S
O319 Eu297 2.670 1_554 S
O319 C304 1.270 . S
O319 Eu307 2.355 . S
O320 Eu297 2.394 . S
O320 C305 1.251 . S
O321 C305 1.251 1_554 S
O321 Eu307 2.374 . S
O322 C306 1.257 . S
O322 Eu307 2.473 . S
O323 C306 1.260 . S
O323 Eu307 2.480 . S
O324 Eu307 2.430 . S
O324 C314 1.259 . S
O325 Eu297 2.355 . S
O325 Eu307 2.670 1_556 S
O325 C314 1.270 1_556 S
O326 Eu307 2.394 . S
O326 C315 1.251 . S
O327 Eu297 2.374 1_554 S
O327 C315 1.251 . S
H328 C299 0.931 . S
H329 C300 0.931 . S
H330 C302 0.931 . S
H331 C303 0.931 . S
H332 C309 0.931 . S
H333 C310 0.931 . S
H334 C312 0.931 . S
H335 C313 0.931 . S
C336 Eu337 2.835 . S
C336 C338 1.500 . S
C336 O356 1.257 . S
C336 O357 1.260 . S
Eu337 C336 2.835 . S
Eu337 O356 2.473 . S
Eu337 O357 2.480 . S
Eu337 O358 2.430 . S
Eu337 O359 2.670 . S
Eu337 O360 2.394 . S
Eu337 O365 2.355 . S
Eu337 O367 2.374 . S
C338 C336 1.500 . S
C338 C339 1.377 . S
C338 C343 1.377 . S
C339 C338 1.377 . S
C339 C340 1.395 . S
C339 H368 0.931 . S
C340 C339 1.395 . S
C340 C341 1.383 . S
C340 H369 0.931 . S
C341 C340 1.383 . S
C341 C342 1.394 . S
C342 C341 1.394 . S
C342 C343 1.378 . S
C342 H370 0.931 . S
C343 C338 1.377 . S
C343 C342 1.378 . S
C343 H371 0.931 . S
C344 O358 1.259 . S
C344 O359 1.270 . S
C345 O360 1.251 . S
C345 O361 1.251 . S
C346 Eu347 2.835 . S
C346 C348 1.500 . S
C346 O362 1.257 . S
C346 O363 1.260 . S
Eu347 C346 2.835 . S
Eu347 O359 2.355 . S
Eu347 O361 2.374 . S
Eu347 O362 2.473 . S
Eu347 O363 2.480 . S
Eu347 O364 2.430 . S
Eu347 O365 2.670 . S
Eu347 O366 2.394 . S
C348 C346 1.500 . S
C348 C349 1.377 . S
C348 C353 1.377 . S
C349 C348 1.377 . S
C349 C350 1.395 . S
C349 H372 0.931 . S
C350 C349 1.395 . S
C350 C351 1.383 . S
C350 H373 0.931 . S
C351 C350 1.383 . S
C351 C352 1.394 . S
C352 C351 1.394 . S
C352 C353 1.378 . S
C352 H374 0.931 . S
C353 C348 1.377 . S
C353 C352 1.378 . S
C353 H375 0.931 . S
C354 O364 1.259 . S
C354 O365 1.270 . S
C355 O366 1.251 . S
C355 O367 1.251 . S
O356 C336 1.257 . S
O356 Eu337 2.473 . S
O357 C336 1.260 . S
O357 Eu337 2.480 . S
O358 Eu337 2.430 . S
O358 C344 1.259 . S
O359 Eu337 2.670 . S
O359 C344 1.270 . S
O359 Eu347 2.355 . S
O360 Eu337 2.394 . S
O360 C345 1.251 . S
O361 C345 1.251 . S
O361 Eu347 2.374 . S
O362 C346 1.257 . S
O362 Eu347 2.473 . S
O363 C346 1.260 . S
O363 Eu347 2.480 . S
O364 Eu347 2.430 . S
O364 C354 1.259 . S
O365 Eu337 2.355 . S
O365 Eu347 2.670 . S
O365 C354 1.270 . S
O366 Eu347 2.394 . S
O366 C355 1.251 . S
O367 Eu337 2.374 . S
O367 C355 1.251 . S
H368 C339 0.931 . S
H369 C340 0.931 . S
H370 C342 0.931 . S
H371 C343 0.931 . S
H372 C349 0.931 . S
H373 C350 0.931 . S
H374 C352 0.931 . S
H375 C353 0.931 . S
C376 Eu377 2.835 . S
C376 C378 1.500 . S
C376 O396 1.257 . S
C376 O397 1.260 . S
Eu377 C376 2.835 . S
Eu377 O396 2.473 . S
Eu377 O397 2.480 . S
Eu377 O398 2.430 . S
Eu377 O399 2.670 . S
Eu377 O400 2.394 . S
Eu377 O405 2.355 . S
Eu377 O407 2.374 . S
C378 C376 1.500 . S
C378 C379 1.377 . S
C378 C383 1.377 . S
C379 C378 1.377 . S
C379 C380 1.395 . S
C379 H408 0.931 . S
C380 C379 1.395 . S
C380 C381 1.383 . S
C380 H409 0.931 . S
C381 C380 1.383 . S
C381 C382 1.394 . S
C382 C381 1.394 . S
C382 C383 1.378 . S
C382 H410 0.931 . S
C383 C378 1.377 . S
C383 C382 1.378 . S
C383 H411 0.931 . S
C384 O398 1.259 . S
C384 O399 1.270 . S
C385 O400 1.251 . S
C385 O401 1.251 . S
C386 Eu387 2.835 . S
C386 C388 1.500 . S
C386 O402 1.257 . S
C386 O403 1.260 . S
Eu387 C386 2.835 . S
Eu387 O399 2.355 . S
Eu387 O401 2.374 . S
Eu387 O402 2.473 . S
Eu387 O403 2.480 . S
Eu387 O404 2.430 . S
Eu387 O405 2.670 . S
Eu387 O406 2.394 . S
C388 C386 1.500 . S
C388 C389 1.377 . S
C388 C393 1.377 . S
C389 C388 1.377 . S
C389 C390 1.395 . S
C389 H412 0.931 . S
C390 C389 1.395 . S
C390 C391 1.383 . S
C390 H413 0.931 . S
C391 C390 1.383 . S
C391 C392 1.394 . S
C392 C391 1.394 . S
C392 C393 1.378 . S
C392 H414 0.931 . S
C393 C388 1.377 . S
C393 C392 1.378 . S
C393 H415 0.931 . S
C394 O404 1.259 . S
C394 O405 1.270 . S
C395 O406 1.251 . S
C395 O407 1.251 . S
O396 C376 1.257 . S
O396 Eu377 2.473 . S
O397 C376 1.260 . S
O397 Eu377 2.480 . S
O398 Eu377 2.430 . S
O398 C384 1.259 . S
O399 Eu377 2.670 . S
O399 C384 1.270 . S
O399 Eu387 2.355 . S
O400 Eu377 2.394 . S
O400 C385 1.251 . S
O401 C385 1.251 . S
O401 Eu387 2.374 . S
O402 C386 1.257 . S
O402 Eu387 2.473 . S
O403 C386 1.260 . S
O403 Eu387 2.480 . S
O404 Eu387 2.430 . S
O404 C394 1.259 . S
O405 Eu377 2.355 . S
O405 Eu387 2.670 . S
O405 C394 1.270 . S
O406 Eu387 2.394 . S
O406 C395 1.251 . S
O407 Eu377 2.374 . S
O407 C395 1.251 . S
H408 C379 0.931 . S
H409 C380 0.931 . S
H410 C382 0.931 . S
H411 C383 0.931 . S
H412 C389 0.931 . S
H413 C390 0.931 . S
H414 C392 0.931 . S
H415 C393 0.931 . S
C416 Eu417 2.835 . S
C416 C418 1.500 . S
C416 O436 1.257 . S
C416 O437 1.260 . S
Eu417 C416 2.835 . S
Eu417 O436 2.473 . S
Eu417 O437 2.480 . S
Eu417 O438 2.430 . S
Eu417 O439 2.670 . S
Eu417 O440 2.394 . S
Eu417 O445 2.355 . S
Eu417 O447 2.374 . S
C418 C416 1.500 . S
C418 C419 1.377 . S
C418 C423 1.377 . S
C419 C418 1.377 . S
C419 C420 1.395 . S
C419 H448 0.931 . S
C420 C419 1.395 . S
C420 C421 1.383 . S
C420 H449 0.931 . S
C421 C420 1.383 . S
C421 C422 1.394 . S
C422 C421 1.394 . S
C422 C423 1.378 . S
C422 H450 0.931 . S
C423 C418 1.377 . S
C423 C422 1.378 . S
C423 H451 0.931 . S
C424 O438 1.259 . S
C424 O439 1.270 . S
C425 O440 1.251 . S
C425 O441 1.251 . S
C426 Eu427 2.835 . S
C426 C428 1.500 . S
C426 O442 1.257 . S
C426 O443 1.260 . S
Eu427 C426 2.835 . S
Eu427 O439 2.355 . S
Eu427 O441 2.374 . S
Eu427 O442 2.473 . S
Eu427 O443 2.480 . S
Eu427 O444 2.430 . S
Eu427 O445 2.670 . S
Eu427 O446 2.394 . S
C428 C426 1.500 . S
C428 C429 1.377 . S
C428 C433 1.377 . S
C429 C428 1.377 . S
C429 C430 1.395 . S
C429 H452 0.931 . S
C430 C429 1.395 . S
C430 C431 1.383 . S
C430 H453 0.931 . S
C431 C430 1.383 . S
C431 C432 1.394 . S
C432 C431 1.394 . S
C432 C433 1.378 . S
C432 H454 0.931 . S
C433 C428 1.377 . S
C433 C432 1.378 . S
C433 H455 0.931 . S
C434 O444 1.259 . S
C434 O445 1.270 . S
C435 O446 1.251 . S
C435 O447 1.251 . S
O436 C416 1.257 . S
O436 Eu417 2.473 . S
O437 C416 1.260 . S
O437 Eu417 2.480 . S
O438 Eu417 2.430 . S
O438 C424 1.259 . S
O439 Eu417 2.670 . S
O439 C424 1.270 . S
O439 Eu427 2.355 . S
O440 Eu417 2.394 . S
O440 C425 1.251 . S
O441 C425 1.251 . S
O441 Eu427 2.374 . S
O442 C426 1.257 . S
O442 Eu427 2.473 . S
O443 C426 1.260 . S
O443 Eu427 2.480 . S
O444 Eu427 2.430 . S
O444 C434 1.259 . S
O445 Eu417 2.355 . S
O445 Eu427 2.670 . S
O445 C434 1.270 . S
O446 Eu427 2.394 . S
O446 C435 1.251 . S
O447 Eu417 2.374 . S
O447 C435 1.251 . S
H448 C419 0.931 . S
H449 C420 0.931 . S
H450 C422 0.931 . S
H451 C423 0.931 . S
H452 C429 0.931 . S
H453 C430 0.931 . S
H454 C432 0.931 . S
H455 C433 0.931 . S
C456 Eu457 2.835 . S
C456 C458 1.500 . S
C456 O476 1.257 . S
C456 O477 1.260 . S
Eu457 C456 2.835 . S
Eu457 O476 2.473 . S
Eu457 O477 2.480 . S
Eu457 O478 2.430 . S
Eu457 O479 2.670 . S
Eu457 O480 2.394 . S
Eu457 O485 2.355 . S
Eu457 O487 2.374 . S
C458 C456 1.500 . S
C458 C459 1.377 . S
C458 C463 1.377 . S
C459 C458 1.377 . S
C459 C460 1.395 . S
C459 H488 0.931 . S
C460 C459 1.395 . S
C460 C461 1.383 . S
C460 H489 0.931 . S
C461 C460 1.383 . S
C461 C462 1.394 . S
C462 C461 1.394 . S
C462 C463 1.378 . S
C462 H490 0.931 . S
C463 C458 1.377 . S
C463 C462 1.378 . S
C463 H491 0.931 . S
C464 O478 1.259 . S
C464 O479 1.270 . S
C465 O480 1.251 . S
C465 O481 1.251 . S
C466 Eu467 2.835 . S
C466 C468 1.500 . S
C466 O482 1.257 . S
C466 O483 1.260 . S
Eu467 C466 2.835 . S
Eu467 O479 2.355 . S
Eu467 O481 2.374 . S
Eu467 O482 2.473 . S
Eu467 O483 2.480 . S
Eu467 O484 2.430 . S
Eu467 O485 2.670 . S
Eu467 O486 2.394 . S
C468 C466 1.500 . S
C468 C469 1.377 . S
C468 C473 1.377 . S
C469 C468 1.377 . S
C469 C470 1.395 . S
C469 H492 0.931 . S
C470 C469 1.395 . S
C470 C471 1.383 . S
C470 H493 0.931 . S
C471 C470 1.383 . S
C471 C472 1.394 . S
C472 C471 1.394 . S
C472 C473 1.378 . S
C472 H494 0.931 . S
C473 C468 1.377 . S
C473 C472 1.378 . S
C473 H495 0.931 . S
C474 O484 1.259 . S
C474 O485 1.270 . S
C475 O486 1.251 . S
C475 O487 1.251 . S
O476 C456 1.257 . S
O476 Eu457 2.473 . S
O477 C456 1.260 . S
O477 Eu457 2.480 . S
O478 Eu457 2.430 . S
O478 C464 1.259 . S
O479 Eu457 2.670 . S
O479 C464 1.270 . S
O479 Eu467 2.355 . S
O480 Eu457 2.394 . S
O480 C465 1.251 . S
O481 C465 1.251 . S
O481 Eu467 2.374 . S
O482 C466 1.257 . S
O482 Eu467 2.473 . S
O483 C466 1.260 . S
O483 Eu467 2.480 . S
O484 Eu467 2.430 . S
O484 C474 1.259 . S
O485 Eu457 2.355 . S
O485 Eu467 2.670 . S
O485 C474 1.270 . S
O486 Eu467 2.394 . S
O486 C475 1.251 . S
O487 Eu457 2.374 . S
O487 C475 1.251 . S
H488 C459 0.931 . S
H489 C460 0.931 . S
H490 C462 0.931 . S
H491 C463 0.931 . S
H492 C469 0.931 . S
H493 C470 0.931 . S
H494 C472 0.931 . S
H495 C473 0.931 . S
C496 Eu497 2.835 . S
C496 C498 1.500 . S
C496 O516 1.257 . S
C496 O517 1.260 . S
Eu497 C496 2.835 . S
Eu497 O516 2.473 . S
Eu497 O517 2.480 . S
Eu497 O518 2.430 . S
Eu497 O519 2.670 . S
Eu497 O520 2.394 . S
Eu497 O525 2.355 . S
Eu497 O527 2.374 . S
C498 C496 1.500 . S
C498 C499 1.377 . S
C498 C503 1.377 . S
C499 C498 1.377 . S
C499 C500 1.395 . S
C499 H528 0.931 . S
C500 C499 1.395 . S
C500 C501 1.383 . S
C500 H529 0.931 . S
C501 C500 1.383 . S
C501 C502 1.394 . S
C502 C501 1.394 . S
C502 C503 1.378 . S
C502 H530 0.931 . S
C503 C498 1.377 . S
C503 C502 1.378 . S
C503 H531 0.931 . S
C504 O518 1.259 . S
C504 O519 1.270 . S
C505 O520 1.251 . S
C505 O521 1.251 . S
C506 Eu507 2.835 . S
C506 C508 1.500 . S
C506 O522 1.257 . S
C506 O523 1.260 . S
Eu507 C506 2.835 . S
Eu507 O519 2.355 . S
Eu507 O521 2.374 . S
Eu507 O522 2.473 . S
Eu507 O523 2.480 . S
Eu507 O524 2.430 . S
Eu507 O525 2.670 . S
Eu507 O526 2.394 . S
C508 C506 1.500 . S
C508 C509 1.377 . S
C508 C513 1.377 . S
C509 C508 1.377 . S
C509 C510 1.395 . S
C509 H532 0.931 . S
C510 C509 1.395 . S
C510 C511 1.383 . S
C510 H533 0.931 . S
C511 C510 1.383 . S
C511 C512 1.394 . S
C512 C511 1.394 . S
C512 C513 1.378 . S
C512 H534 0.931 . S
C513 C508 1.377 . S
C513 C512 1.378 . S
C513 H535 0.931 . S
C514 O524 1.259 . S
C514 O525 1.270 . S
C515 O526 1.251 . S
C515 O527 1.251 . S
O516 C496 1.257 . S
O516 Eu497 2.473 . S
O517 C496 1.260 . S
O517 Eu497 2.480 . S
O518 Eu497 2.430 . S
O518 C504 1.259 . S
O519 Eu497 2.670 . S
O519 C504 1.270 . S
O519 Eu507 2.355 . S
O520 Eu497 2.394 . S
O520 C505 1.251 . S
O521 C505 1.251 . S
O521 Eu507 2.374 . S
O522 C506 1.257 . S
O522 Eu507 2.473 . S
O523 C506 1.260 . S
O523 Eu507 2.480 . S
O524 Eu507 2.430 . S
O524 C514 1.259 . S
O525 Eu497 2.355 . S
O525 Eu507 2.670 . S
O525 C514 1.270 . S
O526 Eu507 2.394 . S
O526 C515 1.251 . S
O527 Eu497 2.374 . S
O527 C515 1.251 . S
H528 C499 0.931 . S
H529 C500 0.931 . S
H530 C502 0.931 . S
H531 C503 0.931 . S
H532 C509 0.931 . S
H533 C510 0.931 . S
H534 C512 0.931 . S
H535 C513 0.931 . S
C536 Eu537 2.835 . S
C536 C538 1.500 . S
C536 O556 1.257 . S
C536 O557 1.260 . S
Eu537 C536 2.835 . S
Eu537 O556 2.473 . S
Eu537 O557 2.480 . S
Eu537 O558 2.430 . S
Eu537 O559 2.670 . S
Eu537 O560 2.394 . S
Eu537 O565 2.355 . S
Eu537 O567 2.374 . S
C538 C536 1.500 . S
C538 C539 1.377 . S
C538 C543 1.377 . S
C539 C538 1.377 . S
C539 C540 1.395 . S
C539 H568 0.931 . S
C540 C539 1.395 . S
C540 C541 1.383 . S
C540 H569 0.931 . S
C541 C540 1.383 . S
C541 C542 1.394 . S
C542 C541 1.394 . S
C542 C543 1.378 . S
C542 H570 0.931 . S
C543 C538 1.377 . S
C543 C542 1.378 . S
C543 H571 0.931 . S
C544 O558 1.259 . S
C544 O559 1.270 . S
C545 O560 1.251 . S
C545 O561 1.251 . S
C546 Eu547 2.835 . S
C546 C548 1.500 . S
C546 O562 1.257 . S
C546 O563 1.260 . S
Eu547 C546 2.835 . S
Eu547 O559 2.355 . S
Eu547 O561 2.374 . S
Eu547 O562 2.473 . S
Eu547 O563 2.480 . S
Eu547 O564 2.430 . S
Eu547 O565 2.670 . S
Eu547 O566 2.394 . S
C548 C546 1.500 . S
C548 C549 1.377 . S
C548 C553 1.377 . S
C549 C548 1.377 . S
C549 C550 1.395 . S
C549 H572 0.931 . S
C550 C549 1.395 . S
C550 C551 1.383 . S
C550 H573 0.931 . S
C551 C550 1.383 . S
C551 C552 1.394 . S
C552 C551 1.394 . S
C552 C553 1.378 . S
C552 H574 0.931 . S
C553 C548 1.377 . S
C553 C552 1.378 . S
C553 H575 0.931 . S
C554 O564 1.259 . S
C554 O565 1.270 . S
C555 O566 1.251 . S
C555 O567 1.251 . S
O556 C536 1.257 . S
O556 Eu537 2.473 . S
O557 C536 1.260 . S
O557 Eu537 2.480 . S
O558 Eu537 2.430 . S
O558 C544 1.259 . S
O559 Eu537 2.670 . S
O559 C544 1.270 . S
O559 Eu547 2.355 . S
O560 Eu537 2.394 . S
O560 C545 1.251 . S
O561 C545 1.251 . S
O561 Eu547 2.374 . S
O562 C546 1.257 . S
O562 Eu547 2.473 . S
O563 C546 1.260 . S
O563 Eu547 2.480 . S
O564 Eu547 2.430 . S
O564 C554 1.259 . S
O565 Eu537 2.355 . S
O565 Eu547 2.670 . S
O565 C554 1.270 . S
O566 Eu547 2.394 . S
O566 C555 1.251 . S
O567 Eu537 2.374 . S
O567 C555 1.251 . S
H568 C539 0.931 . S
H569 C540 0.931 . S
H570 C542 0.931 . S
H571 C543 0.931 . S
H572 C549 0.931 . S
H573 C550 0.931 . S
H574 C552 0.931 . S
H575 C553 0.931 . S
C576 C577 1.363 . S
C576 C582 1.379 . S
C576 N584 1.356 . S
C577 C576 1.363 . S
C577 C583 1.363 . S
C578 C579 1.363 . S
C578 C583 1.379 . S
C578 N585 1.348 1_554 S
C579 C578 1.363 . S
C579 C582 1.363 . S
N580 C582 1.356 . S
N580 H592 0.984 . S
N580 H593 0.985 . S
N581 C583 1.356 . S
N581 H586 0.984 . S
N581 H587 0.985 . S
C582 C576 1.379 . S
C582 C579 1.363 . S
C582 N580 1.356 . S
C583 C577 1.363 . S
C583 C578 1.379 . S
C583 N581 1.356 . S
N584 C576 1.356 . S
N584 H590 0.984 . S
N584 H591 0.984 . S
N585 C578 1.348 1_556 S
N585 H588 0.987 . S
N585 H589 0.991 . S
H586 N581 0.984 . S
H587 N581 0.985 . S
H588 N585 0.987 . S
H589 N585 0.991 . S
H590 N584 0.984 . S
H591 N584 0.984 . S
H592 N580 0.984 . S
H593 N580 0.985 . S
C594 C595 1.363 . S
C594 C600 1.379 . S
C594 N602 1.356 . S
C595 C594 1.363 . S
C595 C601 1.363 . S
C596 C597 1.363 . S
C596 C601 1.379 . S
C596 N603 1.356 . S
C597 C596 1.363 . S
C597 C600 1.363 . S
N598 C600 1.356 . S
N598 H610 0.984 . S
N598 H611 0.985 . S
N599 C601 1.356 . S
N599 H604 0.984 . S
N599 H605 0.985 . S
C600 C594 1.379 . S
C600 C597 1.363 . S
C600 N598 1.356 . S
C601 C595 1.363 . S
C601 C596 1.379 . S
C601 N599 1.356 . S
N602 C594 1.356 . S
N602 H608 0.984 . S
N602 H609 0.984 . S
N603 C596 1.356 . S
N603 H606 0.984 . S
N603 H607 0.985 . S
H604 N599 0.984 . S
H605 N599 0.985 . S
H606 N603 0.984 . S
H607 N603 0.985 . S
H608 N602 0.984 . S
H609 N602 0.984 . S
H610 N598 0.984 . S
H611 N598 0.985 . S
C612 C613 1.363 . S
C612 C618 1.379 . S
C612 N620 1.356 1_554 S
C613 C612 1.363 . S
C613 C619 1.363 . S
C614 C615 1.363 . S
C614 C619 1.379 . S
C614 N621 1.356 . S
C615 C614 1.363 . S
C615 C618 1.363 . S
N616 C618 1.356 1_556 S
N616 H628 0.984 . S
N616 H629 0.985 . S
N617 C619 1.356 . S
N617 H622 0.984 . S
N617 H623 0.985 . S
C618 C612 1.379 . S
C618 C615 1.363 . S
C618 N616 1.356 1_554 S
C619 C613 1.363 . S
C619 C614 1.379 . S
C619 N617 1.356 . S
N620 C612 1.356 1_556 S
N620 H626 0.984 . S
N620 H627 0.984 1_556 S
N621 C614 1.356 . S
N621 H624 0.984 . S
N621 H625 0.985 . S
H622 N617 0.984 . S
H623 N617 0.985 . S
H624 N621 0.984 . S
H625 N621 0.985 . S
H626 N620 0.984 . S
H627 N620 0.984 1_554 S
H628 N616 0.984 . S
H629 N616 0.985 . S
C630 C631 1.363 . S
C630 C636 1.379 . S
C630 N638 1.356 . S
C631 C630 1.363 . S
C631 C637 1.363 . S
C632 C633 1.363 1_554 S
C632 C637 1.379 1_554 S
C632 N639 1.356 . S
C633 C632 1.363 1_556 S
C633 C636 1.363 . S
N634 C636 1.356 . S
N634 H646 0.984 . S
N634 H647 0.985 . S
N635 C637 1.356 1_554 S
N635 H640 0.984 . S
N635 H641 0.985 . S
C636 C630 1.379 . S
C636 C633 1.363 . S
C636 N634 1.356 . S
C637 C631 1.363 . S
C637 C632 1.379 1_556 S
C637 N635 1.356 1_556 S
N638 C630 1.356 . S
N638 H644 0.984 . S
N638 H645 0.984 . S
N639 C632 1.356 . S
N639 H642 0.984 . S
N639 H643 0.985 . S
H640 N635 0.984 . S
H641 N635 0.985 . S
H642 N639 0.984 . S
H643 N639 0.985 . S
H644 N638 0.984 . S
H645 N638 0.984 . S
H646 N634 0.984 . S
H647 N634 0.985 . S
C648 C649 1.363 . S
C648 C654 1.379 . S
C648 N656 1.356 . S
C649 C648 1.363 . S
C649 C655 1.363 . S
C650 C651 1.363 . S
C650 C655 1.379 . S
C650 N657 1.356 . S
C651 C650 1.363 . S
C651 C654 1.363 . S
N652 C654 1.356 1_554 S
N652 H664 0.984 . S
N652 H665 0.985 . S
N653 C655 1.356 . S
N653 H658 0.984 . S
N653 H659 0.985 . S
C654 C648 1.379 . S
C654 C651 1.363 . S
C654 N652 1.356 1_556 S
C655 C649 1.363 . S
C655 C650 1.379 . S
C655 N653 1.356 . S
N656 C648 1.356 . S
N656 H662 0.984 1_556 S
N656 H663 0.984 . S
N657 C650 1.356 . S
N657 H660 0.984 . S
N657 H661 0.985 . S
H658 N653 0.984 . S
H659 N653 0.985 . S
H660 N657 0.984 . S
H661 N657 0.985 . S
H662 N656 0.984 1_554 S
H663 N656 0.984 . S
H664 N652 0.984 . S
H665 N652 0.985 . S
C666 C667 1.363 1_554 S
C666 C672 1.379 . S
C666 N674 1.356 . S
C667 C666 1.363 1_556 S
C667 C673 1.363 . S
C668 C669 1.363 . S
C668 C673 1.379 . S
C668 N675 1.356 . S
C669 C668 1.363 . S
C669 C672 1.363 1_556 S
N670 C672 1.356 . S
N670 H682 0.984 . S
N670 H683 0.985 . S
N671 C673 1.356 . S
N671 H676 0.984 . S
N671 H677 0.985 . S
C672 C666 1.379 . S
C672 C669 1.363 1_554 S
C672 N670 1.356 . S
C673 C667 1.363 . S
C673 C668 1.379 . S
C673 N671 1.356 . S
N674 C666 1.356 . S
N674 H680 0.984 . S
N674 H681 0.984 . S
N675 C668 1.356 . S
N675 H678 0.984 . S
N675 H679 0.985 . S
H676 N671 0.984 . S
H677 N671 0.985 . S
H678 N675 0.984 . S
H679 N675 0.985 . S
H680 N674 0.984 . S
H681 N674 0.984 . S
H682 N670 0.984 . S
H683 N670 0.985 . S
C684 C685 1.394 . S
C684 C690 1.371 1_556 S
C684 N692 1.341 1_556 S
C685 C684 1.394 . S
C685 C691 1.363 . S
C686 C687 1.363 . S
C686 C691 1.379 . S
C686 N693 1.356 . S
C687 C686 1.363 . S
C687 C690 1.363 1_556 S
N688 C690 1.356 . S
N688 H700 0.984 . S
N688 H701 0.985 . S
N689 C691 1.356 . S
N689 H694 0.984 . S
N689 H695 0.985 . S
C690 C684 1.371 1_554 S
C690 C687 1.363 1_554 S
C690 N688 1.356 . S
C691 C685 1.363 . S
C691 C686 1.379 . S
C691 N689 1.356 . S
N692 C684 1.341 1_554 S
N692 H698 0.984 . S
N692 H699 0.984 . S
N693 C686 1.356 . S
N693 H696 0.984 . S
N693 H697 0.985 . S
H694 N689 0.984 . S
H695 N689 0.985 . S
H696 N693 0.984 . S
H697 N693 0.985 . S
H698 N692 0.984 . S
H699 N692 0.984 . S
H700 N688 0.984 . S
H701 N688 0.985 . S
C702 C703 1.363 . S
C702 C708 1.379 . S
C702 N710 1.356 . S
C703 C702 1.363 . S
C703 C709 1.363 . S
C704 C705 1.363 . S
C704 C709 1.379 . S
C704 N711 1.356 . S
C705 C704 1.363 . S
C705 C708 1.363 . S
N706 C708 1.356 . S
N706 H718 0.984 . S
N706 H719 0.985 . S
N707 C709 1.356 . S
N707 H712 0.984 . S
N707 H713 0.985 . S
C708 C702 1.379 . S
C708 C705 1.363 . S
C708 N706 1.356 . S
C709 C703 1.363 . S
C709 C704 1.379 . S
C709 N707 1.356 . S
N710 C702 1.356 . S
N710 H716 0.984 . S
N710 H717 0.984 . S
N711 C704 1.356 . S
N711 H714 0.984 . S
N711 H715 0.985 1_556 S
H712 N707 0.984 . S
H713 N707 0.985 . S
H714 N711 0.984 . S
H715 N711 0.985 1_554 S
H716 N710 0.984 . S
H717 N710 0.984 . S
H718 N706 0.984 . S
H719 N706 0.985 . S
C720 C721 1.363 1_554 S
C720 C726 1.379 . S
C720 N728 1.356 . S
C721 C720 1.363 1_556 S
C721 C727 1.363 . S
C722 C723 1.363 . S
C722 C727 1.379 . S
C722 N729 1.356 . S
C723 C722 1.363 . S
C723 C726 1.363 1_556 S
N724 C726 1.356 . S
N724 H736 0.984 . S
N724 H737 0.985 . S
N725 C727 1.356 . S
N725 H730 0.984 . S
N725 H731 0.985 . S
C726 C720 1.379 . S
C726 C723 1.363 1_554 S
C726 N724 1.356 . S
C727 C721 1.363 . S
C727 C722 1.379 . S
C727 N725 1.356 . S
N728 C720 1.356 . S
N728 H734 0.984 . S
N728 H735 0.984 . S
N729 C722 1.356 . S
N729 H732 0.984 . S
N729 H733 0.985 . S
H730 N725 0.984 . S
H731 N725 0.985 . S
H732 N729 0.984 . S
H733 N729 0.985 . S
H734 N728 0.984 . S
H735 N728 0.984 . S
H736 N724 0.984 . S
H737 N724 0.985 . S
C738 C739 1.363 . S
C738 C744 1.379 . S
C738 N746 1.356 1_554 S
C739 C738 1.363 . S
C739 C745 1.363 . S
C740 C741 1.363 . S
C740 C745 1.379 . S
C740 N747 1.356 . S
C741 C740 1.363 . S
C741 C744 1.363 . S
N742 C744 1.356 1_556 S
N742 H754 0.984 . S
N742 H755 0.985 . S
N743 C745 1.356 . S
N743 H748 0.984 . S
N743 H749 0.985 . S
C744 C738 1.379 . S
C744 C741 1.363 . S
C744 N742 1.356 1_554 S
C745 C739 1.363 . S
C745 C740 1.379 . S
C745 N743 1.356 . S
N746 C738 1.356 1_556 S
N746 H752 0.984 . S
N746 H753 0.980 1_556 S
N747 C740 1.356 . S
N747 H750 0.984 . S
N747 H751 0.985 . S
H748 N743 0.984 . S
H749 N743 0.985 . S
H750 N747 0.984 . S
H751 N747 0.985 . S
H752 N746 0.984 . S
H753 N746 0.980 1_554 S
H754 N742 0.984 . S
H755 N742 0.985 . S
C756 C757 1.363 . S
C756 C762 1.379 . S
C756 N764 1.356 . S
C757 C756 1.363 . S
C757 C763 1.363 . S
C758 C759 1.363 . S
C758 C763 1.379 . S
C758 N765 1.356 . S
C759 C758 1.363 . S
C759 C762 1.363 . S
N760 C762 1.356 1_556 S
N760 H772 0.984 . S
N760 H773 0.982 . S
N761 C763 1.356 . S
N761 H766 0.984 . S
N761 H767 0.985 . S
C762 C756 1.379 . S
C762 C759 1.363 . S
C762 N760 1.356 1_554 S
C763 C757 1.363 . S
C763 C758 1.379 . S
C763 N761 1.356 . S
N764 C756 1.356 . S
N764 H770 0.984 1_554 S
N764 H771 0.984 . S
N765 C758 1.356 . S
N765 H768 0.984 . S
N765 H769 0.985 . S
H766 N761 0.984 . S
H767 N761 0.985 . S
H768 N765 0.984 . S
H769 N765 0.985 . S
H770 N764 0.984 1_556 S
H771 N764 0.984 . S
H772 N760 0.984 . S
H773 N760 0.982 . S
C774 C775 1.363 . S
C774 C780 1.379 . S
C774 N782 1.356 . S
C775 C774 1.363 . S
C775 C781 1.363 . S
C776 C777 1.363 . S
C776 C781 1.379 . S
C776 N783 1.356 . S
C777 C776 1.363 . S
C777 C780 1.363 . S
N778 C780 1.356 . S
N778 H790 0.984 . S
N778 H791 0.985 . S
N779 C781 1.356 . S
N779 H784 0.984 . S
N779 H785 0.985 . S
C780 C774 1.379 . S
C780 C777 1.363 . S
C780 N778 1.356 . S
C781 C775 1.363 . S
C781 C776 1.379 . S
C781 N779 1.356 . S
N782 C774 1.356 . S
N782 H788 0.984 . S
N782 H789 0.984 . S
N783 C776 1.356 . S
N783 H786 0.984 . S
N783 H787 0.985 1_565 S
H784 N779 0.984 . S
H785 N779 0.985 . S
H786 N783 0.984 . S
H787 N783 0.985 1_545 S
H788 N782 0.984 . S
H789 N782 0.984 . S
H790 N778 0.984 . S
H791 N778 0.985 . S
C792 C793 1.363 . S
C792 C798 1.379 1_655 S
C792 N800 1.356 . S
C793 C792 1.363 . S
C793 C799 1.363 . S
C794 C795 1.363 1_655 S
C794 C799 1.379 . S
C794 N801 1.356 1_655 S
C795 C794 1.363 1_455 S
C795 C798 1.363 . S
N796 C798 1.356 . S
N796 H808 0.984 . S
N796 H809 0.985 . S
N797 C799 1.356 . S
N797 H802 0.984 . S
N797 H803 0.985 . S
C798 C792 1.379 1_455 S
C798 C795 1.363 . S
C798 N796 1.356 . S
C799 C793 1.363 . S
C799 C794 1.379 . S
C799 N797 1.356 . S
N800 C792 1.356 . S
N800 H806 0.984 . S
N800 H807 0.984 . S
N801 C794 1.356 1_455 S
N801 H804 0.984 . S
N801 H805 0.985 1_455 S
H802 N797 0.984 . S
H803 N797 0.985 . S
H804 N801 0.984 . S
H805 N801 0.985 1_655 S
H806 N800 0.984 . S
H807 N800 0.984 . S
H808 N796 0.984 . S
H809 N796 0.985 . S
C810 C811 1.363 . S
C810 C816 1.379 . S
C810 N818 1.356 . S
C811 C810 1.363 . S
C811 C817 1.363 . S
C812 C813 1.363 . S
C812 C817 1.379 . S
C812 N819 1.356 . S
C813 C812 1.363 . S
C813 C816 1.363 . S
N814 C816 1.356 . S
N814 H826 0.984 . S
N814 H827 0.985 . S
N815 C817 1.356 . S
N815 H820 0.984 . S
N815 H821 0.985 . S
C816 C810 1.379 . S
C816 C813 1.363 . S
C816 N814 1.356 . S
C817 C811 1.363 . S
C817 C812 1.379 . S
C817 N815 1.356 . S
N818 C810 1.356 . S
N818 H824 0.984 . S
N818 H825 0.984 . S
N819 C812 1.356 . S
N819 H822 0.984 . S
N819 H823 0.985 . S
H820 N815 0.984 . S
H821 N815 0.985 . S
H822 N819 0.984 . S
H823 N819 0.985 . S
H824 N818 0.984 . S
H825 N818 0.984 . S
H826 N814 0.984 . S
H827 N814 0.985 . S
C828 C829 1.363 . S
C828 C834 1.379 . S
C828 N836 1.356 . S
C829 C828 1.363 . S
C829 C835 1.363 . S
C830 C831 1.363 1_545 S
C830 C835 1.379 . S
C830 N837 1.356 1_545 S
C831 C830 1.363 1_565 S
C831 C834 1.363 1_565 S
N832 C834 1.356 1_565 S
N832 H844 0.984 . S
N832 H845 0.985 . S
N833 C835 1.356 . S
N833 H838 0.984 . S
N833 H839 0.985 . S
C834 C828 1.379 . S
C834 C831 1.363 1_545 S
C834 N832 1.356 1_545 S
C835 C829 1.363 . S
C835 C830 1.379 . S
C835 N833 1.356 . S
N836 C828 1.356 . S
N836 H842 0.984 . S
N836 H843 0.984 . S
N837 C830 1.356 1_565 S
N837 H840 0.984 . S
N837 H841 0.984 . S
H838 N833 0.984 . S
H839 N833 0.985 . S
H840 N837 0.984 . S
H841 N837 0.984 . S
H842 N836 0.984 . S
H843 N836 0.984 . S
H844 N832 0.984 . S
H845 N832 0.985 . S
C846 C847 1.363 . S
C846 C852 1.379 . S
C846 N854 1.356 . S
C847 C846 1.363 . S
C847 C853 1.363 . S
C848 C849 1.363 . S
C848 C853 1.379 . S
C848 N855 1.356 . S
C849 C848 1.363 . S
C849 C852 1.363 . S
N850 C852 1.356 . S
N850 H862 0.984 . S
N850 H863 0.985 . S
N851 C853 1.356 . S
N851 H856 0.984 . S
N851 H857 0.985 . S
C852 C846 1.379 . S
C852 C849 1.363 . S
C852 N850 1.356 . S
C853 C847 1.363 . S
C853 C848 1.379 . S
C853 N851 1.356 . S
N854 C846 1.356 . S
N854 H860 0.984 . S
N854 H861 0.984 . S
N855 C848 1.356 . S
N855 H858 0.984 . S
N855 H859 0.985 . S
H856 N851 0.984 . S
H857 N851 0.985 . S
H858 N855 0.984 . S
H859 N855 0.985 . S
H860 N854 0.984 . S
H861 N854 0.984 . S
H862 N850 0.984 . S
H863 N850 0.985 . S
C864 C865 1.363 . S
C864 C870 1.379 . S
C864 N872 1.356 . S
C865 C864 1.363 . S
C865 C871 1.363 . S
C866 C867 1.363 . S
C866 C871 1.379 . S
C866 N873 1.356 . S
C867 C866 1.363 . S
C867 C870 1.363 . S
N868 C870 1.356 . S
N868 H880 0.984 . S
N868 H881 0.985 . S
N869 C871 1.356 . S
N869 H874 0.984 . S
N869 H875 0.985 . S
C870 C864 1.379 . S
C870 C867 1.363 . S
C870 N868 1.356 . S
C871 C865 1.363 . S
C871 C866 1.379 . S
C871 N869 1.356 . S
N872 C864 1.356 . S
N872 H878 0.984 . S
N872 H879 0.984 . S
N873 C866 1.356 . S
N873 H876 0.984 . S
N873 H877 0.985 . S
H874 N869 0.984 . S
H875 N869 0.985 . S
H876 N873 0.984 . S
H877 N873 0.985 . S
H878 N872 0.984 . S
H879 N872 0.984 . S
H880 N868 0.984 . S
H881 N868 0.985 . S
C882 C883 1.363 . S
C882 C888 1.379 . S
C882 N890 1.356 . S
C883 C882 1.363 . S
C883 C889 1.363 . S
C884 C885 1.363 . S
C884 C889 1.379 . S
C884 N891 1.356 . S
C885 C884 1.363 . S
C885 C888 1.363 . S
N886 C888 1.356 . S
N886 H898 0.984 . S
N886 H899 0.985 . S
N887 C889 1.356 . S
N887 H892 0.984 . S
N887 H893 0.985 . S
C888 C882 1.379 . S
C888 C885 1.363 . S
C888 N886 1.356 . S
C889 C883 1.363 . S
C889 C884 1.379 . S
C889 N887 1.356 . S
N890 C882 1.356 . S
N890 H896 0.984 1_455 S
N890 H897 0.984 . S
N891 C884 1.356 . S
N891 H894 0.984 . S
N891 H895 0.985 . S
H892 N887 0.984 . S
H893 N887 0.985 . S
H894 N891 0.984 . S
H895 N891 0.985 . S
H896 N890 0.984 1_655 S
H897 N890 0.984 . S
H898 N886 0.984 . S
H899 N886 0.985 . S
C900 C901 1.363 . S
C900 C906 1.379 . S
C900 N908 1.356 . S
C901 C900 1.363 . S
C901 C907 1.363 . S
C902 C903 1.363 . S
C902 C907 1.379 . S
C902 N909 1.356 . S
C903 C902 1.363 . S
C903 C906 1.363 . S
N904 C906 1.356 . S
N904 H916 0.984 . S
N904 H917 0.985 . S
N905 C907 1.356 . S
N905 H910 0.984 . S
N905 H911 0.985 . S
C906 C900 1.379 . S
C906 C903 1.363 . S
C906 N904 1.356 . S
C907 C901 1.363 . S
C907 C902 1.379 . S
C907 N905 1.356 . S
N908 C900 1.356 . S
N908 H914 0.984 . S
N908 H915 0.984 . S
N909 C902 1.356 . S
N909 H912 0.984 . S
N909 H913 0.985 . S
H910 N905 0.984 . S
H911 N905 0.985 . S
H912 N909 0.984 . S
H913 N909 0.985 . S
H914 N908 0.984 . S
H915 N908 0.984 . S
H916 N904 0.984 . S
H917 N904 0.985 . S
C918 C919 1.363 . S
C918 C924 1.379 . S
C918 N926 1.356 . S
C919 C918 1.363 . S
C919 C925 1.363 . S
C920 C921 1.363 . S
C920 C925 1.379 . S
C920 N927 1.356 . S
C921 C920 1.363 . S
C921 C924 1.363 . S
N922 C924 1.356 . S
N922 H934 0.984 . S
N922 H935 0.985 . S
N923 C925 1.356 . S
N923 H928 0.984 . S
N923 H929 0.985 . S
C924 C918 1.379 . S
C924 C921 1.363 . S
C924 N922 1.356 . S
C925 C919 1.363 . S
C925 C920 1.379 . S
C925 N923 1.356 . S
N926 C918 1.356 . S
N926 H932 0.984 . S
N926 H933 0.984 . S
N927 C920 1.356 . S
N927 H930 0.984 . S
N927 H931 0.985 . S
H928 N923 0.984 . S
H929 N923 0.985 . S
H930 N927 0.984 . S
H931 N927 0.985 . S
H932 N926 0.984 . S
H933 N926 0.984 . S
H934 N922 0.984 . S
H935 N922 0.985 . S
C936 C937 1.363 . S
C936 C942 1.379 . S
C936 N944 1.356 . S
C937 C936 1.363 . S
C937 C943 1.363 . S
C938 C939 1.363 . S
C938 C943 1.379 . S
C938 N945 1.356 . S
C939 C938 1.363 . S
C939 C942 1.363 . S
N940 C942 1.356 . S
N940 H952 0.984 . S
N940 H953 0.985 . S
N941 C943 1.356 . S
N941 H946 0.984 . S
N941 H947 0.985 . S
C942 C936 1.379 . S
C942 C939 1.363 . S
C942 N940 1.356 . S
C943 C937 1.363 . S
C943 C938 1.379 . S
C943 N941 1.356 . S
N944 C936 1.356 . S
N944 H950 0.984 . S
N944 H951 0.984 . S
N945 C938 1.356 . S
N945 H948 0.984 . S
N945 H949 0.985 . S
H946 N941 0.984 . S
H947 N941 0.985 . S
H948 N945 0.984 . S
H949 N945 0.985 . S
H950 N944 0.984 . S
H951 N944 0.984 . S
H952 N940 0.984 . S
H953 N940 0.985 . S
C954 C955 1.363 1_565 S
C954 C960 1.379 . S
C954 N962 1.356 1_565 S
C955 C954 1.363 1_545 S
C955 C961 1.363 1_545 S
C956 C957 1.363 . S
C956 C961 1.379 . S
C956 N963 1.356 . S
C957 C956 1.363 . S
C957 C960 1.363 . S
N958 C960 1.356 . S
N958 H970 0.984 . S
N958 H971 0.985 . S
N959 C961 1.356 1_545 S
N959 H964 0.984 . S
N959 H965 0.985 . S
C960 C954 1.379 . S
C960 C957 1.363 . S
C960 N958 1.356 . S
C961 C955 1.363 1_565 S
C961 C956 1.379 . S
C961 N959 1.356 1_565 S
N962 C954 1.356 1_545 S
N962 H968 0.984 . S
N962 H969 0.984 . S
N963 C956 1.356 . S
N963 H966 0.984 . S
N963 H967 0.985 . S
H964 N959 0.984 . S
H965 N959 0.985 . S
H966 N963 0.984 . S
H967 N963 0.985 . S
H968 N962 0.984 . S
H969 N962 0.984 . S
H970 N958 0.984 . S
H971 N958 0.985 . S
C972 C973 1.363 . S
C972 C978 1.379 . S
C972 N980 1.356 1_455 S
C973 C972 1.363 . S
C973 C979 1.363 . S
C974 C975 1.363 . S
C974 C979 1.379 . S
C974 N981 1.356 . S
C975 C974 1.363 . S
C975 C978 1.363 . S
N976 C978 1.356 . S
N976 H988 0.984 . S
N976 H989 0.985 . S
N977 C979 1.356 . S
N977 H982 0.984 . S
N977 H983 0.985 . S
C978 C972 1.379 . S
C978 C975 1.363 . S
C978 N976 1.356 . S
C979 C973 1.363 . S
C979 C974 1.379 . S
C979 N977 1.356 . S
N980 C972 1.356 1_655 S
N980 H986 0.984 . S
N980 H987 0.984 . S
N981 C974 1.356 . S
N981 H984 0.984 . S
N981 H985 0.985 . S
H982 N977 0.984 . S
H983 N977 0.985 . S
H984 N981 0.984 . S
H985 N981 0.985 . S
H986 N980 0.984 . S
H987 N980 0.984 . S
H988 N976 0.984 . S
H989 N976 0.985 . S
C990 C991 1.363 . S
C990 C996 1.379 . S
C990 N998 1.356 . S
C991 C990 1.363 . S
C991 C997 1.363 . S
C992 C993 1.363 . S
C992 C997 1.379 . S
C992 N999 1.356 . S
C993 C992 1.363 . S
C993 C996 1.363 . S
N994 C996 1.356 . S
N994 H1006 0.984 . S
N994 H1007 0.985 . S
N995 C997 1.356 . S
N995 H1000 0.984 . S
N995 H1001 0.985 . S
C996 C990 1.379 . S
C996 C993 1.363 . S
C996 N994 1.356 . S
C997 C991 1.363 . S
C997 C992 1.379 . S
C997 N995 1.356 . S
N998 C990 1.356 . S
N998 H1004 0.984 . S
N998 H1005 0.984 . S
N999 C992 1.356 . S
N999 H1002 0.984 . S
N999 H1003 0.985 . S
H1000 N995 0.984 . S
H1001 N995 0.985 . S
H1002 N999 0.984 . S
H1003 N999 0.985 . S
H1004 N998 0.984 . S
H1005 N998 0.984 . S
H1006 N994 0.984 . S
H1007 N994 0.985 . S
C1008 C1009 1.363 . S
C1008 C1014 1.379 . S
C1008 N1016 1.356 . S
C1009 C1008 1.363 . S
C1009 C1015 1.363 . S
C1010 C1011 1.363 . S
C1010 C1015 1.379 . S
C1010 N1017 1.356 . S
C1011 C1010 1.363 . S
C1011 C1014 1.363 . S
N1012 C1014 1.356 . S
N1012 H1024 0.984 . S
N1012 H1025 0.985 . S
N1013 C1015 1.356 . S
N1013 H1018 0.984 . S
N1013 H1019 0.985 . S
C1014 C1008 1.379 . S
C1014 C1011 1.363 . S
C1014 N1012 1.356 . S
C1015 C1009 1.363 . S
C1015 C1010 1.379 . S
C1015 N1013 1.356 . S
N1016 C1008 1.356 . S
N1016 H1022 0.984 . S
N1016 H1023 0.984 . S
N1017 C1010 1.356 . S
N1017 H1020 0.984 . S
N1017 H1021 0.985 . S
H1018 N1013 0.984 . S
H1019 N1013 0.985 . S
H1020 N1017 0.984 . S
H1021 N1017 0.985 . S
H1022 N1016 0.984 . S
H1023 N1016 0.984 . S
H1024 N1012 0.984 . S
H1025 N1012 0.985 . S
C1026 C1027 1.363 . S
C1026 C1032 1.379 . S
C1026 N1034 1.356 . S
C1027 C1026 1.363 . S
C1027 C1033 1.363 . S
C1028 C1029 1.363 . S
C1028 C1033 1.379 . S
C1028 N1035 1.356 . S
C1029 C1028 1.363 . S
C1029 C1032 1.363 . S
N1030 C1032 1.356 . S
N1030 H1042 0.984 . S
N1030 H1043 0.985 . S
N1031 C1033 1.356 . S
N1031 H1036 0.984 . S
N1031 H1037 0.985 . S
C1032 C1026 1.379 . S
C1032 C1029 1.363 . S
C1032 N1030 1.356 . S
C1033 C1027 1.363 . S
C1033 C1028 1.379 . S
C1033 N1031 1.356 . S
N1034 C1026 1.356 . S
N1034 H1040 0.984 . S
N1034 H1041 0.984 . S
N1035 C1028 1.356 . S
N1035 H1038 0.984 . S
N1035 H1039 0.985 . S
H1036 N1031 0.984 . S
H1037 N1031 0.985 . S
H1038 N1035 0.984 . S
H1039 N1035 0.985 . S
H1040 N1034 0.984 . S
H1041 N1034 0.984 . S
H1042 N1030 0.984 . S
H1043 N1030 0.985 . S
C1044 C1045 1.363 . S
C1044 C1050 1.379 . S
C1044 N1052 1.356 . S
C1045 C1044 1.363 . S
C1045 C1051 1.363 . S
C1046 C1047 1.363 . S
C1046 C1051 1.379 . S
C1046 N1053 1.356 . S
C1047 C1046 1.363 . S
C1047 C1050 1.363 . S
N1048 C1050 1.356 . S
N1048 H1060 0.984 . S
N1048 H1061 0.985 . S
N1049 C1051 1.356 . S
N1049 H1054 0.984 . S
N1049 H1055 0.985 . S
C1050 C1044 1.379 . S
C1050 C1047 1.363 . S
C1050 N1048 1.356 . S
C1051 C1045 1.363 . S
C1051 C1046 1.379 . S
C1051 N1049 1.356 . S
N1052 C1044 1.356 . S
N1052 H1058 0.984 1_655 S
N1052 H1059 0.984 . S
N1053 C1046 1.356 . S
N1053 H1056 0.984 . S
N1053 H1057 0.985 . S
H1054 N1049 0.984 . S
H1055 N1049 0.985 . S
H1056 N1053 0.984 . S
H1057 N1053 0.985 . S
H1058 N1052 0.984 1_455 S
H1059 N1052 0.984 . S
H1060 N1048 0.984 . S
H1061 N1048 0.985 . S
C1062 C1063 1.363 . S
C1062 C1068 1.379 . S
C1062 N1070 1.356 . S
C1063 C1062 1.363 . S
C1063 C1069 1.363 . S
C1064 C1065 1.363 . S
C1064 C1069 1.379 1_545 S
C1064 N1071 1.356 . S
C1065 C1064 1.363 . S
C1065 C1068 1.363 1_545 S
N1066 C1068 1.356 1_545 S
N1066 H1078 0.984 . S
N1066 H1079 0.985 . S
N1067 C1069 1.356 . S
N1067 H1072 0.984 . S
N1067 H1073 0.985 . S
C1068 C1062 1.379 . S
C1068 C1065 1.363 1_565 S
C1068 N1066 1.356 1_565 S
C1069 C1063 1.363 . S
C1069 C1064 1.379 1_565 S
C1069 N1067 1.356 . S
N1070 C1062 1.356 . S
N1070 H1076 0.984 . S
N1070 H1077 0.984 . S
N1071 C1064 1.356 . S
N1071 H1074 0.984 . S
N1071 H1075 0.985 . S
H1072 N1067 0.984 . S
H1073 N1067 0.985 . S
H1074 N1071 0.984 . S
H1075 N1071 0.985 . S
H1076 N1070 0.984 . S
H1077 N1070 0.984 . S
H1078 N1066 0.984 . S
H1079 N1066 0.985 . S
C1080 C1081 1.363 . S
C1080 C1086 1.379 1_455 S
C1080 N1088 1.356 . S
C1081 C1080 1.363 . S
C1081 C1087 1.363 . S
C1082 C1083 1.363 1_455 S
C1082 C1087 1.379 . S
C1082 N1089 1.356 . S
C1083 C1082 1.363 1_655 S
C1083 C1086 1.363 . S
N1084 C1086 1.356 . S
N1084 H1096 0.984 . S
N1084 H1097 0.985 . S
N1085 C1087 1.356 . S
N1085 H1090 0.984 . S
N1085 H1091 0.985 . S
C1086 C1080 1.379 1_655 S
C1086 C1083 1.363 . S
C1086 N1084 1.356 . S
C1087 C1081 1.363 . S
C1087 C1082 1.379 . S
C1087 N1085 1.356 . S
N1088 C1080 1.356 . S
N1088 H1094 0.984 1_455 S
N1088 H1095 0.984 . S
N1089 C1082 1.356 . S
N1089 H1092 0.984 1_455 S
N1089 H1093 0.985 . S
H1090 N1085 0.984 . S
H1091 N1085 0.985 . S
H1092 N1089 0.984 1_655 S
H1093 N1089 0.985 . S
H1094 N1088 0.984 1_655 S
H1095 N1088 0.984 . S
H1096 N1084 0.984 . S
H1097 N1084 0.985 . S
C1098 C1099 1.363 . S
C1098 C1104 1.379 . S
C1098 N1106 1.356 . S
C1099 C1098 1.363 . S
C1099 C1105 1.363 . S
C1100 C1101 1.363 . S
C1100 C1105 1.379 . S
C1100 N1107 1.356 . S
C1101 C1100 1.363 . S
C1101 C1104 1.363 . S
N1102 C1104 1.356 . S
N1102 H1114 0.984 . S
N1102 H1115 0.985 . S
N1103 C1105 1.356 . S
N1103 H1108 0.984 . S
N1103 H1109 0.985 . S
C1104 C1098 1.379 . S
C1104 C1101 1.363 . S
C1104 N1102 1.356 . S
C1105 C1099 1.363 . S
C1105 C1100 1.379 . S
C1105 N1103 1.356 . S
N1106 C1098 1.356 . S
N1106 H1112 0.984 . S
N1106 H1113 0.984 . S
N1107 C1100 1.356 . S
N1107 H1110 0.984 . S
N1107 H1111 0.985 . S
H1108 N1103 0.984 . S
H1109 N1103 0.985 . S
H1110 N1107 0.984 . S
H1111 N1107 0.985 . S
H1112 N1106 0.984 . S
H1113 N1106 0.984 . S
H1114 N1102 0.984 . S
H1115 N1102 0.985 . S
C1116 C1117 1.363 . S
C1116 C1122 1.379 . S
C1116 N1124 1.356 . S
C1117 C1116 1.363 . S
C1117 C1123 1.363 . S
C1118 C1119 1.363 . S
C1118 C1123 1.379 . S
C1118 N1125 1.356 . S
C1119 C1118 1.363 . S
C1119 C1122 1.363 . S
N1120 C1122 1.356 . S
N1120 H1132 0.984 . S
N1120 H1133 0.985 . S
N1121 C1123 1.356 1_455 S
N1121 H1126 0.984 . S
N1121 H1127 0.985 . S
C1122 C1116 1.379 . S
C1122 C1119 1.363 . S
C1122 N1120 1.356 . S
C1123 C1117 1.363 . S
C1123 C1118 1.379 . S
C1123 N1121 1.356 1_655 S
N1124 C1116 1.356 . S
N1124 H1130 0.984 . S
N1124 H1131 0.984 1_655 S
N1125 C1118 1.356 . S
N1125 H1128 0.984 . S
N1125 H1129 0.985 . S
H1126 N1121 0.984 . S
H1127 N1121 0.985 . S
H1128 N1125 0.984 . S
H1129 N1125 0.985 . S
H1130 N1124 0.984 . S
H1131 N1124 0.984 1_455 S
H1132 N1120 0.984 . S
H1133 N1120 0.985 . S
C1134 C1135 1.363 . S
C1134 C1140 1.379 . S
C1134 N1142 1.356 . S
C1135 C1134 1.363 . S
C1135 C1141 1.363 . S
C1136 C1137 1.363 . S
C1136 C1141 1.379 . S
C1136 N1143 1.356 . S
C1137 C1136 1.363 . S
C1137 C1140 1.363 . S
N1138 C1140 1.356 . S
N1138 H1150 0.984 . S
N1138 H1151 0.985 . S
N1139 C1141 1.356 . S
N1139 H1144 0.984 . S
N1139 H1145 0.985 . S
C1140 C1134 1.379 . S
C1140 C1137 1.363 . S
C1140 N1138 1.356 . S
C1141 C1135 1.363 . S
C1141 C1136 1.379 . S
C1141 N1139 1.356 . S
N1142 C1134 1.356 . S
N1142 H1148 0.984 . S
N1142 H1149 0.984 . S
N1143 C1136 1.356 . S
N1143 H1146 0.984 . S
N1143 H1147 0.985 . S
H1144 N1139 0.984 . S
H1145 N1139 0.985 . S
H1146 N1143 0.984 . S
H1147 N1143 0.985 . S
H1148 N1142 0.984 . S
H1149 N1142 0.984 . S
H1150 N1138 0.984 . S
H1151 N1138 0.985 . S
C1152 C1153 1.363 . S
C1152 C1158 1.379 . S
C1152 N1160 1.356 . S
C1153 C1152 1.363 . S
C1153 C1159 1.363 . S
C1154 C1155 1.363 . S
C1154 C1159 1.379 . S
C1154 N1161 1.356 . S
C1155 C1154 1.363 . S
C1155 C1158 1.363 . S
N1156 C1158 1.356 . S
N1156 H1168 0.984 . S
N1156 H1169 0.985 . S
N1157 C1159 1.356 1_565 S
N1157 H1162 0.984 . S
N1157 H1163 0.985 . S
C1158 C1152 1.379 . S
C1158 C1155 1.363 . S
C1158 N1156 1.356 . S
C1159 C1153 1.363 . S
C1159 C1154 1.379 . S
C1159 N1157 1.356 1_545 S
N1160 C1152 1.356 . S
N1160 H1166 0.984 . S
N1160 H1167 0.984 1_545 S
N1161 C1154 1.356 . S
N1161 H1164 0.984 . S
N1161 H1165 0.985 . S
H1162 N1157 0.984 . S
H1163 N1157 0.985 . S
H1164 N1161 0.984 . S
H1165 N1161 0.985 . S
H1166 N1160 0.984 . S
H1167 N1160 0.984 1_565 S
H1168 N1156 0.984 . S
H1169 N1156 0.985 . S
C1170 C1171 1.363 . S
C1170 C1176 1.379 . S
C1170 N1178 1.356 . S
C1171 C1170 1.363 . S
C1171 C1177 1.363 . S
C1172 C1173 1.363 . S
C1172 C1177 1.379 . S
C1172 N1179 1.356 . S
C1173 C1172 1.363 . S
C1173 C1176 1.363 . S
N1174 C1176 1.356 . S
N1174 H1186 0.984 . S
N1174 H1187 0.985 . S
N1175 C1177 1.356 . S
N1175 H1180 0.984 . S
N1175 H1181 0.985 . S
C1176 C1170 1.379 . S
C1176 C1173 1.363 . S
C1176 N1174 1.356 . S
C1177 C1171 1.363 . S
C1177 C1172 1.379 . S
C1177 N1175 1.356 . S
N1178 C1170 1.356 . S
N1178 H1184 0.984 . S
N1178 H1185 0.984 . S
N1179 C1172 1.356 . S
N1179 H1182 0.984 . S
N1179 H1183 0.985 . S
H1180 N1175 0.984 . S
H1181 N1175 0.985 . S
H1182 N1179 0.984 . S
H1183 N1179 0.985 . S
H1184 N1178 0.984 . S
H1185 N1178 0.984 . S
H1186 N1174 0.984 . S
H1187 N1174 0.985 . S
C1188 C1189 1.363 . S
C1188 C1194 1.379 . S
C1188 N1196 1.356 . S
C1189 C1188 1.363 . S
C1189 C1195 1.363 . S
C1190 C1191 1.363 . S
C1190 C1195 1.379 . S
C1190 N1197 1.356 . S
C1191 C1190 1.363 . S
C1191 C1194 1.363 . S
N1192 C1194 1.356 . S
N1192 H1204 0.984 . S
N1192 H1205 0.985 . S
N1193 C1195 1.356 . S
N1193 H1198 0.984 . S
N1193 H1199 0.985 . S
C1194 C1188 1.379 . S
C1194 C1191 1.363 . S
C1194 N1192 1.356 . S
C1195 C1189 1.363 . S
C1195 C1190 1.379 . S
C1195 N1193 1.356 . S
N1196 C1188 1.356 . S
N1196 H1202 0.984 . S
N1196 H1203 0.984 . S
N1197 C1190 1.356 . S
N1197 H1200 0.984 . S
N1197 H1201 0.985 . S
H1198 N1193 0.984 . S
H1199 N1193 0.985 . S
H1200 N1197 0.984 . S
H1201 N1197 0.985 . S
H1202 N1196 0.984 . S
H1203 N1196 0.984 . S
H1204 N1192 0.984 . S
H1205 N1192 0.985 . S
C1206 C1207 1.363 . S
C1206 C1212 1.379 . S
C1206 N1214 1.356 . S
C1207 C1206 1.363 . S
C1207 C1213 1.363 . S
C1208 C1209 1.363 . S
C1208 C1213 1.379 . S
C1208 N1215 1.356 . S
C1209 C1208 1.363 . S
C1209 C1212 1.363 . S
N1210 C1212 1.356 . S
N1210 H1222 0.984 . S
N1210 H1223 0.985 . S
N1211 C1213 1.356 . S
N1211 H1216 0.984 . S
N1211 H1217 0.985 . S
C1212 C1206 1.379 . S
C1212 C1209 1.363 . S
C1212 N1210 1.356 . S
C1213 C1207 1.363 . S
C1213 C1208 1.379 . S
C1213 N1211 1.356 . S
N1214 C1206 1.356 . S
N1214 H1220 0.984 . S
N1214 H1221 0.984 . S
N1215 C1208 1.356 . S
N1215 H1218 0.984 . S
N1215 H1219 0.985 . S
H1216 N1211 0.984 . S
H1217 N1211 0.985 . S
H1218 N1215 0.984 . S
H1219 N1215 0.985 . S
H1220 N1214 0.984 . S
H1221 N1214 0.984 . S
H1222 N1210 0.984 . S
H1223 N1210 0.985 . S
C1224 C1225 1.363 . S
C1224 C1230 1.379 . S
C1224 N1232 1.356 . S
C1225 C1224 1.363 . S
C1225 C1231 1.363 . S
C1226 C1227 1.363 . S
C1226 C1231 1.379 . S
C1226 N1233 1.356 1_565 S
C1227 C1226 1.363 . S
C1227 C1230 1.363 . S
N1228 C1230 1.356 . S
N1228 H1240 0.984 . S
N1228 H1241 0.985 . S
N1229 C1231 1.356 . S
N1229 H1234 0.984 . S
N1229 H1235 0.985 1_565 S
C1230 C1224 1.379 . S
C1230 C1227 1.363 . S
C1230 N1228 1.356 . S
C1231 C1225 1.363 . S
C1231 C1226 1.379 . S
C1231 N1229 1.356 . S
N1232 C1224 1.356 . S
N1232 H1238 0.984 . S
N1232 H1239 0.984 . S
N1233 C1226 1.356 1_545 S
N1233 H1236 0.984 . S
N1233 H1237 0.985 . S
H1234 N1229 0.984 . S
H1235 N1229 0.985 1_545 S
H1236 N1233 0.984 . S
H1237 N1233 0.985 . S
H1238 N1232 0.984 . S
H1239 N1232 0.984 . S
H1240 N1228 0.984 . S
H1241 N1228 0.985 . S
C1242 C1243 1.363 . S
C1242 C1248 1.379 . S
C1242 N1250 1.356 . S
C1243 C1242 1.363 . S
C1243 C1249 1.363 . S
C1244 C1245 1.363 . S
C1244 C1249 1.379 . S
C1244 N1251 1.356 . S
C1245 C1244 1.363 . S
C1245 C1248 1.363 . S
N1246 C1248 1.356 . S
N1246 H1258 0.984 . S
N1246 H1259 0.985 . S
N1247 C1249 1.356 . S
N1247 H1252 0.984 . S
N1247 H1253 0.985 . S
C1248 C1242 1.379 . S
C1248 C1245 1.363 . S
C1248 N1246 1.356 . S
C1249 C1243 1.363 . S
C1249 C1244 1.379 . S
C1249 N1247 1.356 . S
N1250 C1242 1.356 . S
N1250 H1256 0.984 . S
N1250 H1257 0.984 . S
N1251 C1244 1.356 . S
N1251 H1254 0.984 . S
N1251 H1255 0.985 . S
H1252 N1247 0.984 . S
H1253 N1247 0.985 . S
H1254 N1251 0.984 . S
H1255 N1251 0.985 . S
H1256 N1250 0.984 . S
H1257 N1250 0.984 . S
H1258 N1246 0.984 . S
H1259 N1246 0.985 . S
C1260 C1261 1.363 . S
C1260 C1266 1.379 . S
C1260 N1268 1.356 . S
C1261 C1260 1.363 . S
C1261 C1267 1.363 . S
C1262 C1263 1.363 . S
C1262 C1267 1.379 . S
C1262 N1269 1.356 . S
C1263 C1262 1.363 . S
C1263 C1266 1.363 . S
N1264 C1266 1.356 . S
N1264 H1276 0.984 . S
N1264 H1277 0.985 . S
N1265 C1267 1.356 . S
N1265 H1270 0.984 . S
N1265 H1271 0.985 . S
C1266 C1260 1.379 . S
C1266 C1263 1.363 . S
C1266 N1264 1.356 . S
C1267 C1261 1.363 . S
C1267 C1262 1.379 . S
C1267 N1265 1.356 . S
N1268 C1260 1.356 . S
N1268 H1274 0.984 . S
N1268 H1275 0.984 . S
N1269 C1262 1.356 . S
N1269 H1272 0.984 . S
N1269 H1273 0.985 . S
H1270 N1265 0.984 . S
H1271 N1265 0.985 . S
H1272 N1269 0.984 . S
H1273 N1269 0.985 . S
H1274 N1268 0.984 . S
H1275 N1268 0.984 . S
H1276 N1264 0.984 . S
H1277 N1264 0.985 . S
C1278 C1279 1.363 . S
C1278 C1284 1.379 . S
C1278 N1286 1.356 1_655 S
C1279 C1278 1.363 . S
C1279 C1285 1.363 . S
C1280 C1281 1.363 . S
C1280 C1285 1.379 . S
C1280 N1287 1.356 . S
C1281 C1280 1.363 . S
C1281 C1284 1.363 . S
N1282 C1284 1.356 1_455 S
N1282 H1294 0.984 . S
N1282 H1295 0.985 . S
N1283 C1285 1.356 . S
N1283 H1288 0.984 . S
N1283 H1289 0.985 . S
C1284 C1278 1.379 . S
C1284 C1281 1.363 . S
C1284 N1282 1.356 1_655 S
C1285 C1279 1.363 . S
C1285 C1280 1.379 . S
C1285 N1283 1.356 . S
N1286 C1278 1.356 1_455 S
N1286 H1292 0.984 . S
N1286 H1293 0.984 . S
N1287 C1280 1.356 . S
N1287 H1290 0.984 . S
N1287 H1291 0.985 . S
H1288 N1283 0.984 . S
H1289 N1283 0.985 . S
H1290 N1287 0.984 . S
H1291 N1287 0.985 . S
H1292 N1286 0.984 . S
H1293 N1286 0.984 . S
H1294 N1282 0.984 . S
H1295 N1282 0.985 . S
C1296 C1297 1.363 . S
C1296 C1302 1.379 . S
C1296 N1304 1.356 . S
C1297 C1296 1.363 . S
C1297 C1303 1.363 . S
C1298 C1299 1.363 . S
C1298 C1303 1.379 . S
C1298 N1305 1.356 . S
C1299 C1298 1.363 . S
C1299 C1302 1.363 . S
N1300 C1302 1.356 . S
N1300 H1312 0.984 . S
N1300 H1313 0.985 . S
N1301 C1303 1.356 . S
N1301 H1306 0.984 . S
N1301 H1307 0.985 . S
C1302 C1296 1.379 . S
C1302 C1299 1.363 . S
C1302 N1300 1.356 . S
C1303 C1297 1.363 . S
C1303 C1298 1.379 . S
C1303 N1301 1.356 . S
N1304 C1296 1.356 . S
N1304 H1310 0.984 . S
N1304 H1311 0.984 . S
N1305 C1298 1.356 . S
N1305 H1308 0.984 . S
N1305 H1309 0.985 . S
H1306 N1301 0.984 . S
H1307 N1301 0.985 . S
H1308 N1305 0.984 . S
H1309 N1305 0.985 . S
H1310 N1304 0.984 . S
H1311 N1304 0.984 . S
H1312 N1300 0.984 . S
H1313 N1300 0.985 . S
C1314 C1315 1.363 . S
C1314 C1320 1.379 . S
C1314 N1322 1.356 . S
C1315 C1314 1.363 . S
C1315 C1321 1.363 . S
C1316 C1317 1.363 . S
C1316 C1321 1.379 . S
C1316 N1323 1.356 . S
C1317 C1316 1.363 . S
C1317 C1320 1.363 . S
N1318 C1320 1.356 1_565 S
N1318 H1330 0.984 . S
N1318 H1331 0.985 . S
N1319 C1321 1.356 . S
N1319 H1324 0.984 . S
N1319 H1325 0.985 . S
C1320 C1314 1.379 . S
C1320 C1317 1.363 . S
C1320 N1318 1.356 1_545 S
C1321 C1315 1.363 . S
C1321 C1316 1.379 . S
C1321 N1319 1.356 . S
N1322 C1314 1.356 . S
N1322 H1328 0.984 1_545 S
N1322 H1329 0.984 . S
N1323 C1316 1.356 . S
N1323 H1326 0.984 . S
N1323 H1327 0.985 . S
H1324 N1319 0.984 . S
H1325 N1319 0.985 . S
H1326 N1323 0.984 . S
H1327 N1323 0.985 . S
H1328 N1322 0.984 1_565 S
H1329 N1322 0.984 . S
H1330 N1318 0.984 . S
H1331 N1318 0.985 . S
C1332 C1333 1.363 . S
C1332 C1338 1.379 . S
C1332 N1340 1.356 . S
C1333 C1332 1.363 . S
C1333 C1339 1.363 . S
C1334 C1335 1.363 . S
C1334 C1339 1.379 . S
C1334 N1341 1.356 . S
C1335 C1334 1.363 . S
C1335 C1338 1.363 . S
N1336 C1338 1.356 . S
N1336 H1348 0.984 . S
N1336 H1349 0.985 . S
N1337 C1339 1.356 . S
N1337 H1342 0.984 . S
N1337 H1343 0.985 . S
C1338 C1332 1.379 . S
C1338 C1335 1.363 . S
C1338 N1336 1.356 . S
C1339 C1333 1.363 . S
C1339 C1334 1.379 . S
C1339 N1337 1.356 . S
N1340 C1332 1.356 . S
N1340 H1346 0.984 . S
N1340 H1347 0.984 . S
N1341 C1334 1.356 . S
N1341 H1344 0.984 . S
N1341 H1345 0.985 . S
H1342 N1337 0.984 . S
H1343 N1337 0.985 . S
H1344 N1341 0.984 . S
H1345 N1341 0.985 . S
H1346 N1340 0.984 . S
H1347 N1340 0.984 . S
H1348 N1336 0.984 . S
H1349 N1336 0.985 . S
C1350 C1351 1.363 . S
C1350 C1356 1.379 . S
C1350 N1358 1.356 . S
C1351 C1350 1.363 . S
C1351 C1357 1.363 . S
C1352 C1353 1.363 . S
C1352 C1357 1.379 . S
C1352 N1359 1.356 . S
C1353 C1352 1.363 . S
C1353 C1356 1.363 . S
N1354 C1356 1.356 . S
N1354 H1366 0.984 . S
N1354 H1367 0.985 . S
N1355 C1357 1.356 . S
N1355 H1360 0.984 . S
N1355 H1361 0.985 . S
C1356 C1350 1.379 . S
C1356 C1353 1.363 . S
C1356 N1354 1.356 . S
C1357 C1351 1.363 . S
C1357 C1352 1.379 . S
C1357 N1355 1.356 . S
N1358 C1350 1.356 . S
N1358 H1364 0.984 . S
N1358 H1365 0.984 . S
N1359 C1352 1.356 . S
N1359 H1362 0.984 . S
N1359 H1363 0.985 . S
H1360 N1355 0.984 . S
H1361 N1355 0.985 . S
H1362 N1359 0.984 . S
H1363 N1359 0.985 . S
H1364 N1358 0.984 . S
H1365 N1358 0.984 . S
H1366 N1354 0.984 . S
H1367 N1354 0.985 . S
C1368 C1369 1.363 . S
C1368 C1374 1.379 . S
C1368 N1376 1.356 . S
C1369 C1368 1.363 . S
C1369 C1375 1.363 . S
C1370 C1371 1.363 . S
C1370 C1375 1.379 . S
C1370 N1377 1.356 . S
C1371 C1370 1.363 . S
C1371 C1374 1.363 . S
N1372 C1374 1.356 . S
N1372 H1384 0.984 . S
N1372 H1385 0.985 . S
N1373 C1375 1.356 . S
N1373 H1378 0.984 . S
N1373 H1379 0.985 . S
C1374 C1368 1.379 . S
C1374 C1371 1.363 . S
C1374 N1372 1.356 . S
C1375 C1369 1.363 . S
C1375 C1370 1.379 . S
C1375 N1373 1.356 . S
N1376 C1368 1.356 . S
N1376 H1382 0.984 . S
N1376 H1383 0.984 . S
N1377 C1370 1.356 . S
N1377 H1380 0.984 . S
N1377 H1381 0.985 . S
H1378 N1373 0.984 . S
H1379 N1373 0.985 . S
H1380 N1377 0.984 . S
H1381 N1377 0.985 . S
H1382 N1376 0.984 . S
H1383 N1376 0.984 . S
H1384 N1372 0.984 . S
H1385 N1372 0.985 . S
C1386 C1387 1.363 . S
C1386 C1392 1.379 . S
C1386 N1394 1.356 . S
C1387 C1386 1.363 . S
C1387 C1393 1.363 . S
C1388 C1389 1.363 . S
C1388 C1393 1.379 . S
C1388 N1395 1.356 . S
C1389 C1388 1.363 . S
C1389 C1392 1.363 . S
N1390 C1392 1.356 . S
N1390 H1402 0.984 . S
N1390 H1403 0.985 . S
N1391 C1393 1.356 . S
N1391 H1396 0.984 . S
N1391 H1397 0.985 . S
C1392 C1386 1.379 . S
C1392 C1389 1.363 . S
C1392 N1390 1.356 . S
C1393 C1387 1.363 . S
C1393 C1388 1.379 . S
C1393 N1391 1.356 . S
N1394 C1386 1.356 . S
N1394 H1400 0.984 . S
N1394 H1401 0.984 . S
N1395 C1388 1.356 . S
N1395 H1398 0.984 . S
N1395 H1399 0.985 . S
H1396 N1391 0.984 . S
H1397 N1391 0.985 . S
H1398 N1395 0.984 . S
H1399 N1395 0.985 . S
H1400 N1394 0.984 . S
H1401 N1394 0.984 . S
H1402 N1390 0.984 . S
H1403 N1390 0.985 . S
C1404 C1405 1.363 . S
C1404 C1410 1.379 . S
C1404 N1412 1.356 . S
C1405 C1404 1.363 . S
C1405 C1411 1.363 . S
C1406 C1407 1.363 . S
C1406 C1411 1.379 . S
C1406 N1413 1.356 . S
C1407 C1406 1.363 . S
C1407 C1410 1.363 . S
N1408 C1410 1.356 . S
N1408 H1420 0.984 . S
N1408 H1421 0.985 . S
N1409 C1411 1.356 . S
N1409 H1414 0.984 . S
N1409 H1415 0.985 . S
C1410 C1404 1.379 . S
C1410 C1407 1.363 . S
C1410 N1408 1.356 . S
C1411 C1405 1.363 . S
C1411 C1406 1.379 . S
C1411 N1409 1.356 . S
N1412 C1404 1.356 . S
N1412 H1418 0.984 . S
N1412 H1419 0.984 . S
N1413 C1406 1.356 . S
N1413 H1416 0.984 . S
N1413 H1417 0.985 . S
H1414 N1409 0.984 . S
H1415 N1409 0.985 . S
H1416 N1413 0.984 . S
H1417 N1413 0.985 . S
H1418 N1412 0.984 . S
H1419 N1412 0.984 . S
H1420 N1408 0.984 . S
H1421 N1408 0.985 . S
C1422 C1423 1.363 . S
C1422 C1428 1.379 . S
C1422 N1430 1.356 . S
C1423 C1422 1.363 . S
C1423 C1429 1.363 . S
C1424 C1425 1.363 . S
C1424 C1429 1.379 . S
C1424 N1431 1.356 . S
C1425 C1424 1.363 . S
C1425 C1428 1.363 . S
N1426 C1428 1.356 . S
N1426 H1438 0.984 . S
N1426 H1439 0.985 . S
N1427 C1429 1.356 . S
N1427 H1432 0.984 . S
N1427 H1433 0.985 . S
C1428 C1422 1.379 . S
C1428 C1425 1.363 . S
C1428 N1426 1.356 . S
C1429 C1423 1.363 . S
C1429 C1424 1.379 . S
C1429 N1427 1.356 . S
N1430 C1422 1.356 . S
N1430 H1436 0.984 . S
N1430 H1437 0.984 . S
N1431 C1424 1.356 . S
N1431 H1434 0.984 . S
N1431 H1435 0.985 . S
H1432 N1427 0.984 . S
H1433 N1427 0.985 . S
H1434 N1431 0.984 . S
H1435 N1431 0.985 . S
H1436 N1430 0.984 . S
H1437 N1430 0.984 . S
H1438 N1426 0.984 . S
H1439 N1426 0.985 . S
C1440 C1441 1.363 . S
C1440 C1446 1.379 . S
C1440 N1448 1.356 . S
C1441 C1440 1.363 . S
C1441 C1447 1.363 . S
C1442 C1443 1.363 . S
C1442 C1447 1.379 . S
C1442 N1449 1.356 . S
C1443 C1442 1.363 . S
C1443 C1446 1.363 . S
N1444 C1446 1.356 . S
N1444 H1456 0.984 . S
N1444 H1457 0.985 . S
N1445 C1447 1.356 . S
N1445 H1450 0.984 . S
N1445 H1451 0.985 . S
C1446 C1440 1.379 . S
C1446 C1443 1.363 . S
C1446 N1444 1.356 . S
C1447 C1441 1.363 . S
C1447 C1442 1.379 . S
C1447 N1445 1.356 . S
N1448 C1440 1.356 . S
N1448 H1454 0.984 . S
N1448 H1455 0.984 . S
N1449 C1442 1.356 . S
N1449 H1452 0.984 . S
N1449 H1453 0.985 . S
H1450 N1445 0.984 . S
H1451 N1445 0.985 . S
H1452 N1449 0.984 . S
H1453 N1449 0.985 . S
H1454 N1448 0.984 . S
H1455 N1448 0.984 . S
H1456 N1444 0.984 . S
H1457 N1444 0.985 . S
C1458 C1459 1.363 . S
C1458 C1464 1.379 . S
C1458 N1466 1.356 . S
C1459 C1458 1.363 . S
C1459 C1465 1.363 . S
C1460 C1461 1.363 . S
C1460 C1465 1.379 . S
C1460 N1467 1.356 . S
C1461 C1460 1.363 . S
C1461 C1464 1.363 . S
N1462 C1464 1.356 . S
N1462 H1474 0.984 . S
N1462 H1475 0.985 . S
N1463 C1465 1.356 . S
N1463 H1468 0.984 . S
N1463 H1469 0.985 . S
C1464 C1458 1.379 . S
C1464 C1461 1.363 . S
C1464 N1462 1.356 . S
C1465 C1459 1.363 . S
C1465 C1460 1.379 . S
C1465 N1463 1.356 . S
N1466 C1458 1.356 . S
N1466 H1472 0.984 . S
N1466 H1473 0.984 . S
N1467 C1460 1.356 . S
N1467 H1470 0.984 . S
N1467 H1471 0.985 . S
H1468 N1463 0.984 . S
H1469 N1463 0.985 . S
H1470 N1467 0.984 . S
H1471 N1467 0.985 . S
H1472 N1466 0.984 . S
H1473 N1466 0.984 . S
H1474 N1462 0.984 . S
H1475 N1462 0.985 . S
C1476 C1477 1.363 . S
C1476 C1482 1.379 . S
C1476 N1484 1.356 . S
C1477 C1476 1.363 . S
C1477 C1483 1.363 . S
C1478 C1479 1.363 . S
C1478 C1483 1.379 . S
C1478 N1485 1.356 . S
C1479 C1478 1.363 . S
C1479 C1482 1.363 . S
N1480 C1482 1.356 . S
N1480 H1492 0.984 . S
N1480 H1493 0.985 . S
N1481 C1483 1.356 . S
N1481 H1486 0.984 . S
N1481 H1487 0.985 . S
C1482 C1476 1.379 . S
C1482 C1479 1.363 . S
C1482 N1480 1.356 . S
C1483 C1477 1.363 . S
C1483 C1478 1.379 . S
C1483 N1481 1.356 . S
N1484 C1476 1.356 . S
N1484 H1490 0.984 . S
N1484 H1491 0.984 . S
N1485 C1478 1.356 . S
N1485 H1488 0.984 . S
N1485 H1489 0.985 . S
H1486 N1481 0.984 . S
H1487 N1481 0.985 . S
H1488 N1485 0.984 . S
H1489 N1485 0.985 . S
H1490 N1484 0.984 . S
H1491 N1484 0.984 . S
H1492 N1480 0.984 . S
H1493 N1480 0.985 . S
C1494 C1495 1.363 . S
C1494 C1500 1.379 . S
C1494 N1502 1.356 . S
C1495 C1494 1.363 . S
C1495 C1501 1.363 . S
C1496 C1497 1.363 . S
C1496 C1501 1.379 . S
C1496 N1503 1.356 . S
C1497 C1496 1.363 . S
C1497 C1500 1.363 . S
N1498 C1500 1.356 . S
N1498 H1510 0.984 . S
N1498 H1511 0.985 . S
N1499 C1501 1.356 . S
N1499 H1504 0.984 . S
N1499 H1505 0.985 . S
C1500 C1494 1.379 . S
C1500 C1497 1.363 . S
C1500 N1498 1.356 . S
C1501 C1495 1.363 . S
C1501 C1496 1.379 . S
C1501 N1499 1.356 . S
N1502 C1494 1.356 . S
N1502 H1508 0.984 . S
N1502 H1509 0.984 . S
N1503 C1496 1.356 . S
N1503 H1506 0.984 . S
N1503 H1507 0.985 . S
H1504 N1499 0.984 . S
H1505 N1499 0.985 . S
H1506 N1503 0.984 . S
H1507 N1503 0.985 . S
H1508 N1502 0.984 . S
H1509 N1502 0.984 . S
H1510 N1498 0.984 . S
H1511 N1498 0.985 . S
C1512 C1513 1.363 . S
C1512 C1518 1.379 . S
C1512 N1520 1.356 . S
C1513 C1512 1.363 . S
C1513 C1519 1.363 . S
C1514 C1515 1.363 . S
C1514 C1519 1.379 . S
C1514 N1521 1.356 . S
C1515 C1514 1.363 . S
C1515 C1518 1.363 . S
N1516 C1518 1.356 . S
N1516 H1528 0.984 . S
N1516 H1529 0.985 . S
N1517 C1519 1.356 . S
N1517 H1522 0.984 . S
N1517 H1523 0.985 . S
C1518 C1512 1.379 . S
C1518 C1515 1.363 . S
C1518 N1516 1.356 . S
C1519 C1513 1.363 . S
C1519 C1514 1.379 . S
C1519 N1517 1.356 . S
N1520 C1512 1.356 . S
N1520 H1526 0.984 . S
N1520 H1527 0.984 . S
N1521 C1514 1.356 . S
N1521 H1524 0.984 . S
N1521 H1525 0.985 . S
H1522 N1517 0.984 . S
H1523 N1517 0.985 . S
H1524 N1521 0.984 . S
H1525 N1521 0.985 . S
H1526 N1520 0.984 . S
H1527 N1520 0.984 . S
H1528 N1516 0.984 . S
H1529 N1516 0.985 . S
C1530 C1531 1.363 . S
C1530 C1536 1.379 . S
C1530 N1538 1.356 . S
C1531 C1530 1.363 . S
C1531 C1537 1.363 . S
C1532 C1533 1.363 . S
C1532 C1537 1.379 . S
C1532 N1539 1.356 . S
C1533 C1532 1.363 . S
C1533 C1536 1.363 . S
N1534 C1536 1.356 . S
N1534 H1546 0.984 . S
N1534 H1547 0.985 . S
N1535 C1537 1.356 . S
N1535 H1540 0.984 . S
N1535 H1541 0.985 . S
C1536 C1530 1.379 . S
C1536 C1533 1.363 . S
C1536 N1534 1.356 . S
C1537 C1531 1.363 . S
C1537 C1532 1.379 . S
C1537 N1535 1.356 . S
N1538 C1530 1.356 . S
N1538 H1544 0.984 . S
N1538 H1545 0.984 . S
N1539 C1532 1.356 . S
N1539 H1542 0.984 . S
N1539 H1543 0.985 . S
H1540 N1535 0.984 . S
H1541 N1535 0.985 . S
H1542 N1539 0.984 . S
H1543 N1539 0.985 . S
H1544 N1538 0.984 . S
H1545 N1538 0.984 . S
H1546 N1534 0.984 . S
H1547 N1534 0.985 . S
C577 C162 1.647 . S
C579 C225 1.641 . S
C595 C174 1.738 . S
C597 C265 1.732 . S
C613 C150 1.588 . S
C615 C304 1.554 . S
C631 C138 1.496 . S
C633 C264 1.451 . S
C651 C305 1.517 . S
C649 C114 1.519 . S
C667 C126 1.408 . S
C669 C224 1.388 1_556 S
C687 C235 1.617 . S
C685 C136 1.637 . S
C705 C275 1.604 . S
C703 C112 1.616 . S
C721 C124 1.626 . S
C723 C314 1.666 1_556 S
C739 C160 1.510 . S
C741 C274 1.530 . S
C757 C172 1.482 . S
C759 C315 1.456 . S
C777 C234 1.536 . S
C775 C148 1.495 . S
C795 C345 1.642 . S
C793 C18 1.647 . S
C811 C30 1.738 . S
C813 C385 1.732 . S
C829 C6 1.588 . S
C831 C424 1.554 . S
C847 C210 1.496 . S
C849 C384 1.451 . S
C865 C186 1.519 . S
C867 C425 1.517 . S
C883 C198 1.408 . S
C885 C344 1.389 . S
C901 C208 1.637 . S
C903 C355 1.617 . S
C919 C184 1.616 . S
C921 C395 1.604 . S
C939 C434 1.666 . S
C937 C196 1.626 . S
C955 C16 1.510 . S
C957 C394 1.530 . S
C975 C435 1.456 . S
C973 C28 1.482 1_455 S
C991 C4 1.495 . S
C993 C354 1.537 . S
C1011 C465 1.641 . S
C1009 C90 1.647 . S
C1027 C102 1.738 . S
C1029 C505 1.732 . S
C1047 C544 1.554 . S
C1045 C78 1.588 . S
C1065 C504 1.451 . S
C1063 C66 1.496 . S
C1083 C545 1.517 . S
C1081 C42 1.519 . S
C1099 C54 1.408 . S
C1101 C464 1.388 . S
C1117 C64 1.637 1_655 S
C1119 C475 1.617 . S
C1135 C40 1.616 . S
C1137 C515 1.604 . S
C1155 C554 1.666 . S
C1153 C52 1.626 1_545 S
C1171 C88 1.510 . S
C1173 C514 1.530 . S
C1189 C100 1.482 . S
C1191 C555 1.456 . S
C1207 C76 1.495 . S
C1209 C474 1.537 . S
C1225 C189 1.610 . S
C1227 C221 1.591 . S
C1245 C261 1.897 . S
C1243 C201 1.908 . S
C1261 C213 1.561 . S
C1263 C311 1.576 . S
C1279 C81 1.723 . S
C1281 C271 1.733 . S
C1297 C93 1.685 . S
C1299 C301 1.683 . S
C1317 C231 1.385 . S
C1315 C105 1.378 . S
C1333 C45 1.610 . S
C1335 C341 1.591 . S
C1351 C57 1.908 . S
C1353 C381 1.897 . S
C1369 C69 1.561 . S
C1371 C431 1.576 . S
C1387 C153 1.723 . S
C1389 C391 1.733 . S
C1407 C421 1.683 . S
C1405 C165 1.685 . S
C1423 C177 1.378 . S
C1425 C351 1.385 . S
C1441 C117 1.610 . S
C1443 C461 1.591 . S
C1459 C129 1.908 . S
C1461 C501 1.897 . S
C1479 C551 1.576 . S
C1477 C141 1.561 . S
C1495 C9 1.723 . S
C1497 C511 1.733 . S
C1513 C21 1.685 . S
C1515 C541 1.683 . S
C1531 C33 1.378 . S
C1533 C471 1.385 . S
