# Generated by pormake.
# Topology anh, (6,3)-cn, num edge types: 1
# Building blocks:
#     Node 0, Type 0, BuildingBlock: BETDAH_clean_sbu_0, # of connection points: 6
#     Node 1, Type 0, BuildingBlock: BETDAH_clean_sbu_0, # of connection points: 6
#     Node 2, Type 0, BuildingBlock: BETDAH_clean_sbu_0, # of connection points: 6
#     Node 3, Type 1, BuildingBlock: VETTIZ_charged_linker_0, # of connection points: 3
#     Node 4, Type 1, BuildingBlock: VETTIZ_charged_linker_0, # of connection points: 3
#     Node 5, Type 1, BuildingBlock: VETTIZ_charged_linker_0, # of connection points: 3
#     Node 6, Type 1, BuildingBlock: VETTIZ_charged_linker_0, # of connection points: 3
#     Node 7, Type 1, BuildingBlock: VETTIZ_charged_linker_0, # of connection points: 3
#     Node 8, Type 1, BuildingBlock: VETTIZ_charged_linker_0, # of connection points: 3
#     Edge 9, Type (0, 1), BuildingBlock: AJUNOK_clean_linker_0, # of connection points: 2
#     Edge 10, Type (0, 1), BuildingBlock: AJUNOK_clean_linker_0, # of connection points: 2
#     Edge 11, Type (0, 1), BuildingBlock: AJUNOK_clean_linker_0, # of connection points: 2
#     Edge 12, Type (0, 1), BuildingBlock: AJUNOK_clean_linker_0, # of connection points: 2
#     Edge 13, Type (0, 1), BuildingBlock: AJUNOK_clean_linker_0, # of connection points: 2
#     Edge 14, Type (0, 1), BuildingBlock: AJUNOK_clean_linker_0, # of connection points: 2
#     Edge 15, Type (0, 1), BuildingBlock: AJUNOK_clean_linker_0, # of connection points: 2
#     Edge 16, Type (0, 1), BuildingBlock: AJUNOK_clean_linker_0, # of connection points: 2
#     Edge 17, Type (0, 1), BuildingBlock: AJUNOK_clean_linker_0, # of connection points: 2
#     Edge 18, Type (0, 1), BuildingBlock: AJUNOK_clean_linker_0, # of connection points: 2
#     Edge 19, Type (0, 1), BuildingBlock: AJUNOK_clean_linker_0, # of connection points: 2
#     Edge 20, Type (0, 1), BuildingBlock: AJUNOK_clean_linker_0, # of connection points: 2
#     Edge 21, Type (0, 1), BuildingBlock: AJUNOK_clean_linker_0, # of connection points: 2
#     Edge 22, Type (0, 1), BuildingBlock: AJUNOK_clean_linker_0, # of connection points: 2
#     Edge 23, Type (0, 1), BuildingBlock: AJUNOK_clean_linker_0, # of connection points: 2
#     Edge 24, Type (0, 1), BuildingBlock: AJUNOK_clean_linker_0, # of connection points: 2
#     Edge 25, Type (0, 1), BuildingBlock: AJUNOK_clean_linker_0, # of connection points: 2
#     Edge 26, Type (0, 1), BuildingBlock: AJUNOK_clean_linker_0, # of connection points: 2
# Relax obj value: 0.216
# Max RMSD: 0.228
# Mean RMSD: 0.168
data_MOF--net-anh--node1-BETDAH_clean_sbu_0--node2-VETTIZ_charged_linker_0--edge1-AJUNOK_clean_linker_0
_symmetry_space_group_name_H-M    P1
_symmetry_Int_Tables_number       1
_symmetry_cell_setting            triclinic
loop_
_symmetry_equiv_pos_as_xyz
'x, y, z'
_cell_length_a     30.336134
_cell_length_b     35.477183
_cell_length_c     52.757874
_cell_angle_alpha  92.004866
_cell_angle_beta   89.795267
_cell_angle_gamma 131.08262
loop_
_atom_site_label
_atom_site_type_symbol
_atom_site_fract_x
_atom_site_fract_y
_atom_site_fract_z
_atom_type_partial_charge
Ho0 Ho 0.11429 0.52143 0.13621 0.0
Ho1 Ho 1.04525 0.54948 0.151 0.0
C2 C 0.18191 0.64173 0.14687 0.0
C3 C 0.19114 0.51891 0.11845 0.0
C4 C 0.24899 0.54365 0.1296 0.0
C5 C 0.29381 0.55489 0.11443 0.0
C6 C 0.3471 0.57449 0.12563 0.0
C7 C 0.35589 0.5827 0.15214 0.0
C8 C 0.312 0.57395 0.16713 0.0
C9 C 0.25911 0.55514 0.15587 0.0
C10 C 0.09902 0.52118 0.18669 0.0
C11 C 0.9772 0.42994 0.13935 0.0
C12 C 0.97094 0.5509 0.17359 0.0
C13 C 0.90731 0.51035 0.17574 0.0
C14 C 0.88357 0.46295 0.18397 0.0
C15 C 0.82463 0.42115 0.17901 0.0
C16 C 0.7895 0.42645 0.16556 0.0
C17 C 0.8115 0.47444 0.15992 0.0
C18 C 0.87002 0.51616 0.16505 0.0
C19 C 0.06459 0.55314 0.10071 0.0
O20 O 0.1833 0.60776 0.1365 0.0
O21 O 0.13294 0.6272 0.15678 0.0
O22 O 0.14735 0.48335 0.13181 0.0
O23 O 0.18394 0.54878 0.11 0.0
O24 O 0.10069 0.48989 0.17461 0.0
O25 O 0.11006 0.55314 0.17179 0.0
O26 O 0.97699 0.46377 0.15076 0.0
O27 O 1.02531 0.44448 0.12837 0.0
O28 O 0.98846 0.56627 0.15058 0.0
O29 O 1.00399 0.54542 0.18554 0.0
O30 O 0.06404 0.58483 0.11342 0.0
O31 O 1.05107 0.51916 0.11488 0.0
H32 H 0.28685 0.54672 0.09414 0.0
H33 H 0.37995 0.57991 0.11376 0.0
H34 H 0.31765 0.57942 0.18758 0.0
H35 H 0.22515 0.54754 0.16783 0.0
H36 H 0.91123 0.45734 0.19245 0.0
H37 H 0.80797 0.38438 0.18371 0.0
H38 H 0.78443 0.47909 0.14979 0.0
H39 H 0.88719 0.55226 0.15873 0.0
Ho40 Ho 0.63689 0.03984 0.47316 0.0
Ho41 Ho 0.56318 0.06533 0.46419 0.0
C42 C 0.4943 0.9489 0.46527 0.0
C43 C 0.68083 1.0017 0.48836 0.0
C44 C 0.66008 0.9509 0.49131 0.0
C45 C 0.62947 0.92381 0.51287 0.0
C46 C 0.61288 0.87711 0.51614 0.0
C47 C 0.62621 0.85625 0.49789 0.0
C48 C 0.65624 0.88306 0.47621 0.0
C49 C 0.6731 0.92992 0.47298 0.0
C50 C 0.62701 0.05301 0.42409 0.0
C51 C 0.70681 0.15704 0.47101 0.0
C52 C 0.52077 0.10465 0.44909 0.0
C53 C 0.53341 0.15105 0.45723 0.0
C54 C 0.52228 0.17428 0.44074 0.0
C55 C 0.53262 0.21756 0.44891 0.0
C56 C 0.55363 0.23767 0.47373 0.0
C57 C 0.56633 0.21515 0.48991 0.0
C58 C 0.55664 0.17237 0.48169 0.0
C59 C 0.57432 0.05434 0.51362 0.0
O60 O 0.54356 0.96389 0.47584 0.0
O61 O 0.49379 0.98219 0.45504 0.0
O62 O 0.6846 1.01514 0.46517 0.0
O63 O 0.66009 0.0162 0.50374 0.0
O64 O 0.67476 0.06792 0.43479 0.0
O65 O 0.58594 0.02987 0.43959 0.0
O66 O 0.65549 0.14209 0.46354 0.0
O67 O 0.7106 0.12388 0.47841 0.0
O68 O 0.49606 0.07033 0.46597 0.0
O69 O 0.56298 0.11044 0.43757 0.0
O70 O 0.52722 0.04106 0.50315 0.0
O71 O 0.61471 0.07611 0.49779 0.0
H72 H 0.61929 0.93904 0.52752 0.0
H73 H 0.59133 0.85813 0.53342 0.0
H74 H 0.66733 0.86803 0.46189 0.0
H75 H 0.69712 0.95006 0.45627 0.0
H76 H 0.5049 0.15859 0.42173 0.0
H77 H 0.52266 0.23448 0.43614 0.0
H78 H 0.58327 0.23046 0.50902 0.0
H79 H 0.56651 0.15549 0.49456 0.0
Ho80 Ho 0.6126 0.57902 0.83631 0.0
Ho81 Ho 0.52764 0.46936 0.83366 0.0
C82 C 0.46544 0.52081 0.83681 0.0
C83 C 0.67091 0.67185 0.8259 0.0
C84 C 0.66091 0.70622 0.81941 0.0
C85 C 0.68008 0.72936 0.79604 0.0
C86 C 0.67446 0.764 0.78971 0.0
C87 C 0.65018 0.77707 0.80674 0.0
C88 C 0.62959 0.75304 0.82994 0.0
C89 C 0.63506 0.71808 0.83626 0.0
C90 C 0.5857 0.53704 0.8813 0.0
C91 C 0.67529 0.52812 0.83538 0.0
C92 C 0.47538 0.37688 0.84152 0.0
C93 C 0.48962 0.34469 0.83576 0.0
C94 C 0.48485 0.31524 0.85459 0.0
C95 C 0.49839 0.2848 0.84942 0.0
C96 C 0.51652 0.28278 0.82517 0.0
C97 C 0.52196 0.3129 0.80646 0.0
C98 C 0.50894 0.34359 0.8117 0.0
C99 C 0.55431 0.51 0.78818 0.0
O100 O 0.52206 0.56317 0.83424 0.0
O101 O 0.45677 0.47841 0.83888 0.0
O102 O 0.6608 0.65623 0.84903 0.0
O103 O 0.65405 0.63673 0.80882 0.0
O104 O 0.63835 0.57672 0.87574 0.0
O105 O 0.55014 0.5235 0.86337 0.0
O106 O 0.61827 0.48535 0.83435 0.0
O107 O 0.68471 0.57104 0.83592 0.0
O108 O 0.46309 0.39091 0.82216 0.0
O109 O 0.50891 0.41321 0.85864 0.0
O110 O 0.50222 0.47045 0.79416 0.0
O111 O 0.59019 0.52442 0.80619 0.0
H112 H 0.70001 0.72092 0.78264 0.0
H113 H 0.68919 0.7806 0.77138 0.0
H114 H 0.61035 0.76205 0.8434 0.0
H115 H 0.61968 0.70084 0.85443 0.0
H116 H 0.47083 0.31592 0.87339 0.0
H117 H 0.49525 0.26329 0.86451 0.0
H118 H 0.53566 0.31233 0.78757 0.0
H119 H 0.51385 0.36632 0.79684 0.0
C120 C 0.72465 0.17646 0.15024 0.0
C121 C 0.77043 0.22428 0.16239 0.0
C122 C 0.77165 0.22832 0.18896 0.0
C123 C 0.68515 0.14022 0.19148 0.0
C124 C 0.68193 0.13464 0.16531 0.0
C125 C 0.6286 0.08035 0.15697 0.0
H126 H 0.3871 0.84461 0.19844 0.0
C127 C 0.63629 0.09154 0.20235 0.0
C128 C 0.60162 0.0552 0.18241 0.0
H129 H 0.42909 0.8801 0.12005 0.0
H130 H 0.51719 0.96658 0.13308 0.0
H131 H 0.51328 0.8964 0.21654 0.0
H132 H 0.41148 0.94054 0.21634 0.0
H133 H 0.45016 0.964 0.24546 0.0
H134 H 0.40017 0.89746 0.23821 0.0
H135 H 0.45843 0.87551 0.2395 0.0
H136 H 0.53369 0.93202 0.24489 0.0
C137 C 0.64965 0.05667 0.14234 0.0
C138 C 0.58633 0.0803 0.14092 0.0
C139 C 0.62678 0.0829 0.29874 0.0
C140 C 0.58933 0.04341 0.31509 0.0
C141 C 0.54116 0.99605 0.30453 0.0
C142 C 0.53133 0.98773 0.27823 0.0
C143 C 0.57015 0.0271 0.26204 0.0
C144 C 0.61659 0.07376 0.27241 0.0
C145 C 0.65357 0.11088 0.25234 0.0
C146 C 0.62216 0.07858 0.22812 0.0
C147 C 0.57339 0.02979 0.23399 0.0
C148 C 0.716 0.12912 0.25527 0.0
C149 C 0.65022 0.15265 0.2554 0.0
C150 C 0.41479 0.87067 0.18387 0.0
C151 C 0.40019 0.85515 0.15827 0.0
C152 C 0.43883 0.89076 0.14006 0.0
C153 C 0.48972 0.94095 0.14761 0.0
C154 C 0.50269 0.95585 0.17366 0.0
C155 C 0.46495 0.91987 0.19099 0.0
C156 C 0.48335 0.93912 0.21779 0.0
C157 C 0.53768 0.99295 0.21436 0.0
C158 C 0.5506 1.00433 0.18848 0.0
C159 C 0.49762 0.90925 0.23057 0.0
C160 C 0.43388 0.93491 0.23034 0.0
H161 H 0.73481 0.19412 0.22347 0.0
H162 H 0.72208 0.17196 0.12976 0.0
H163 H 0.575 0.10055 0.15142 0.0
H164 H 0.54505 0.04189 0.13633 0.0
H165 H 0.60663 0.09912 0.12284 0.0
H166 H 0.68304 0.06031 0.15382 0.0
H167 H 0.66965 0.07553 0.12423 0.0
H168 H 0.61333 0.01638 0.1379 0.0
H169 H 0.6636 0.12008 0.30623 0.0
H170 H 0.51177 0.96491 0.31663 0.0
H171 H 0.49407 0.95058 0.27163 0.0
H172 H 0.71433 0.09883 0.262 0.0
H173 H 0.74316 0.16127 0.26924 0.0
H174 H 0.73913 0.13954 0.23716 0.0
H175 H 0.60807 0.13823 0.26367 0.0
H176 H 0.65134 0.16741 0.23705 0.0
H177 H 0.68597 0.18409 0.26812 0.0
H178 H 0.80562 0.26397 0.1988 0.0
C179 C 0.73 0.18725 0.20336 0.0
C180 C 0.59755 0.65448 0.52115 0.0
C181 C 0.59492 0.68868 0.53354 0.0
C182 C 0.59274 0.69008 0.56014 0.0
C183 C 0.59749 0.62484 0.562 0.0
C184 C 0.5981 0.62243 0.53579 0.0
C185 C 0.59837 0.58205 0.52613 0.0
H186 H 0.60055 0.39746 0.55322 0.0
C187 C 0.60053 0.58817 0.57175 0.0
C188 C 0.60092 0.56271 0.5509 0.0
H189 H 0.58068 0.43474 0.47949 0.0
H190 H 0.59276 0.50427 0.49867 0.0
H191 H 0.70217 0.50968 0.5752 0.0
H192 H 0.51474 0.40703 0.58094 0.0
H193 H 0.54541 0.43474 0.61125 0.0
H194 H 0.56001 0.39796 0.59595 0.0
H195 H 0.66435 0.45858 0.59612 0.0
H196 H 0.68739 0.51863 0.60597 0.0
C197 C 0.65404 0.6066 0.51058 0.0
C198 C 0.54042 0.54181 0.51095 0.0
C199 C 0.60374 0.57281 0.66687 0.0
C200 C 0.60704 0.54267 0.68174 0.0
C201 C 0.61594 0.51201 0.66991 0.0
C202 C 0.61853 0.50949 0.64342 0.0
C203 C 0.61214 0.53795 0.62865 0.0
C204 C 0.60659 0.56997 0.64047 0.0
C205 C 0.60218 0.59849 0.62185 0.0
C206 C 0.6043 0.57726 0.59686 0.0
C207 C 0.60945 0.54145 0.60093 0.0
C208 C 0.65641 0.65488 0.62621 0.0
C209 C 0.54244 0.58499 0.62526 0.0
C210 C 0.5983 0.42033 0.5412 0.0
C211 C 0.58837 0.40999 0.5149 0.0
C212 C 0.58784 0.44176 0.49984 0.0
C213 C 0.59435 0.48178 0.51103 0.0
C214 C 0.60123 0.48996 0.53756 0.0
C215 C 0.60372 0.45971 0.5521 0.0
C216 C 0.60918 0.4724 0.58001 0.0
C217 C 0.60837 0.51466 0.57996 0.0
C218 C 0.60404 0.52509 0.55506 0.0
C219 C 0.66855 0.49047 0.59007 0.0
C220 C 0.5549 0.42576 0.59294 0.0
H221 H 0.59295 0.66186 0.59463 0.0
H222 H 0.59883 0.65262 0.50065 0.0
H223 H 0.50412 0.53888 0.51867 0.0
H224 H 0.52504 0.50379 0.51219 0.0
H225 H 0.54474 0.55099 0.49068 0.0
H226 H 0.69273 0.64156 0.52054 0.0
H227 H 0.6494 0.61652 0.49163 0.0
H228 H 0.66493 0.58256 0.50795 0.0
H229 H 0.59769 0.59719 0.67558 0.0
H230 H 0.61862 0.48853 0.68112 0.0
H231 H 0.62395 0.48456 0.63546 0.0
H232 H 0.69542 0.66032 0.63229 0.0
H233 H 0.64857 0.67251 0.64121 0.0
H234 H 0.66996 0.67614 0.6088 0.0
H235 H 0.50823 0.5455 0.63075 0.0
H236 H 0.52497 0.58722 0.60758 0.0
H237 H 0.54542 0.60929 0.64033 0.0
H238 H 0.59105 0.71648 0.56992 0.0
C239 C 0.59421 0.65854 0.57443 0.0
C240 C 0.2138 0.5225 0.83304 0.0
C241 C 0.25716 0.52461 0.84832 0.0
C242 C 0.25119 0.52823 0.87454 0.0
C243 C 0.16886 0.52865 0.87073 0.0
C244 C 0.16983 0.52468 0.84476 0.0
C245 C 0.11903 0.52358 0.83411 0.0
H246 H 0.90592 0.55181 0.87981 0.0
C247 C 0.12204 0.53143 0.87884 0.0
C248 C 0.08935 0.5284 0.85778 0.0
H249 H 0.88968 0.5024 0.80253 0.0
H250 H 0.9727 0.50411 0.8098 0.0
H251 H 0.90382 0.47113 0.89694 0.0
H252 H 1.04078 0.62797 0.88732 0.0
H253 H 0.05984 0.61784 0.91593 0.0
H254 H 0.99075 0.60339 0.91292 0.0
H255 H 0.91838 0.51698 0.91967 0.0
H256 H 0.95106 0.48924 0.92244 0.0
C257 C 0.07274 0.47391 0.81923 0.0
C258 C 0.14603 0.56769 0.81692 0.0
C259 C 0.10973 0.54618 0.97499 0.0
C260 C 0.07776 0.55347 0.99047 0.0
C261 C 1.04153 0.55972 0.97875 0.0
C262 C 1.03624 0.55788 0.95236 0.0
C263 C 0.06676 0.5489 0.93684 0.0
C264 C 0.10364 0.54433 0.94835 0.0
C265 C 0.13591 0.53888 0.92916 0.0
C266 C 0.10967 0.53751 0.90402 0.0
C267 C 0.06873 0.54312 0.90864 0.0
C268 C 0.1207 0.48839 0.93355 0.0
C269 C 0.20183 0.5865 0.93247 0.0
C270 C 0.91947 0.5421 0.86371 0.0
C271 C 0.88772 0.52803 0.8404 0.0
C272 C 0.91021 0.51412 0.82124 0.0
C273 C 0.95982 0.51538 0.82541 0.0
C274 C 0.99046 0.52958 0.8495 0.0
C275 C 0.96633 0.54105 0.86768 0.0
C276 C 0.99108 0.54738 0.89315 0.0
C277 C 1.03544 0.54069 0.88854 0.0
C278 C 1.04105 0.53158 0.86248 0.0
C279 C 0.93885 0.50454 0.90908 0.0
C280 C 1.02187 0.60166 0.9031 0.0
H281 H 0.21078 0.53181 0.90546 0.0
H282 H 0.21415 0.51943 0.81259 0.0
H283 H 0.17969 0.60365 0.8277 0.0
H284 H 0.11188 0.56794 0.80963 0.0
H285 H 0.16721 0.56522 0.80051 0.0
H286 H 1.05333 0.44196 0.83168 0.0
H287 H 0.09258 0.4697 0.80286 0.0
H288 H 1.03703 0.47215 0.81199 0.0
H289 H 0.13938 0.54269 0.98336 0.0
H290 H 1.0164 0.56547 0.99011 0.0
H291 H 1.00783 0.56327 0.94539 0.0
H292 H 0.07545 0.46006 0.94053 0.0
H293 H 0.15096 0.49313 0.94785 0.0
H294 H 0.12086 0.47067 0.91592 0.0
H295 H 0.20805 0.619 0.94086 0.0
H296 H 0.22434 0.5999 0.91416 0.0
H297 H 0.22529 0.58007 0.94514 0.0
H298 H 0.27992 0.52962 0.8875 0.0
C299 C 0.20938 0.52984 0.88526 0.0
C300 C 0.96068 0.41008 0.46073 0.0
C301 C 0.91407 0.36282 0.44837 0.0
C302 C 0.91193 0.35948 0.42178 0.0
C303 C 0.99918 0.44731 0.41962 0.0
C304 C 1.00322 0.45221 0.44581 0.0
C305 C 1.05694 0.50622 0.45433 0.0
H306 H 0.28995 0.74536 0.41322 0.0
C307 C 1.04774 0.49622 0.40893 0.0
C308 C 0.08288 0.53212 0.42896 0.0
H309 H 0.25618 0.7065 0.49158 0.0
H310 H 0.1706 0.61918 0.47846 0.0
H311 H 0.27427 0.65461 0.39485 0.0
H312 H 0.16125 0.68734 0.39567 0.0
H313 H 0.14639 0.65555 0.36643 0.0
H314 H 0.21936 0.71378 0.37372 0.0
H315 H 0.27885 0.69305 0.37189 0.0
H316 H 0.2327 0.62613 0.36663 0.0
C317 C 0.09972 0.50553 0.46938 0.0
C318 C 1.03684 0.52967 0.47003 0.0
C319 C 1.05954 0.50525 0.31261 0.0
C320 C 0.0994 0.54417 0.2964 0.0
C321 C 0.1452 0.59224 0.30711 0.0
C322 C 0.15194 0.60127 0.33342 0.0
C323 C 0.11267 0.5618 0.34947 0.0
C324 C 0.06731 0.51489 0.33897 0.0
C325 C 1.03019 0.47754 0.35891 0.0
C326 C 0.06117 0.50972 0.3832 0.0
C327 C 0.10916 0.55883 0.37748 0.0
C328 C 1.03401 0.43603 0.35584 0.0
C329 C 0.96765 0.45902 0.35583 0.0
C330 C 0.26432 0.71864 0.42782 0.0
C331 C 0.2802 0.73374 0.45341 0.0
C332 C 0.24547 0.69641 0.47157 0.0
C333 C 0.19572 0.6458 0.46398 0.0
C334 C 0.18062 0.63183 0.43793 0.0
C335 C 0.21592 0.66882 0.42067 0.0
C336 C 0.19754 0.64983 0.39385 0.0
C337 C 0.14483 0.59543 0.39718 0.0
C338 C 0.13316 0.58332 0.42303 0.0
C339 C 0.24827 0.65639 0.38091 0.0
C340 C 0.18056 0.67808 0.38155 0.0
H341 H 0.94797 0.39448 0.38741 0.0
H342 H 0.96369 0.41403 0.48123 0.0
H343 H 1.0034 0.52691 0.45917 0.0
H344 H 0.07364 0.56971 0.47484 0.0
H345 H 1.01723 0.51002 0.488 0.0
H346 H 0.11025 0.48532 0.45816 0.0
H347 H 0.08026 0.4863 0.48745 0.0
H348 H 0.14137 0.54374 0.47392 0.0
H349 H 1.02313 0.46806 0.305 0.0
H350 H 0.17671 0.62283 0.29509 0.0
H351 H 0.188 0.63873 0.34012 0.0
H352 H 0.07706 0.45119 0.34836 0.0
H353 H 0.99959 0.40535 0.34242 0.0
H354 H 1.03113 0.4201 0.37405 0.0
H355 H 0.96884 0.48853 0.34821 0.0
H356 H 0.94522 0.45018 0.37406 0.0
H357 H 0.94006 0.42575 0.34254 0.0
H358 H 0.87715 0.32426 0.41182 0.0
C359 C 0.95351 0.40079 0.40754 0.0
C360 C 0.61306 0.94184 0.78118 0.0
C361 C 0.62523 0.9142 0.76827 0.0
C362 C 0.63022 0.91638 0.74173 0.0
C363 C 0.61205 0.97342 0.74111 0.0
C364 C 0.60722 0.97164 0.76722 0.0
C365 C 0.59687 1.00551 0.7776 0.0
H366 H 0.56545 0.17489 0.75345 0.0
C367 C 0.60458 1.008 0.73212 0.0
C368 C 0.59599 0.02741 0.75342 0.0
H369 H 0.56113 0.12195 0.82661 0.0
H370 H 0.57558 0.06795 0.80666 0.0
H371 H 0.67236 0.18569 0.73121 0.0
H372 H 0.48528 0.07175 0.72598 0.0
H373 H 0.50961 0.06756 0.69673 0.0
H374 H 0.52487 0.12463 0.70625 0.0
H375 H 0.62666 0.19138 0.71354 0.0
H376 H 0.65382 0.16332 0.6994 0.0
C377 C 0.64898 0.0461 0.79551 0.0
C378 C 0.53704 0.97289 0.79056 0.0
C379 C 0.60621 0.03219 0.63715 0.0
C380 C 0.59703 0.05974 0.62327 0.0
C381 C 0.58896 0.08997 0.63633 0.0
C382 C 0.58941 0.09255 0.66286 0.0
C383 C 0.59729 0.06406 0.67662 0.0
C384 C 0.60567 0.03462 0.6638 0.0
C385 C 0.61153 1.00588 0.68173 0.0
C386 C 0.60467 0.02261 0.70732 0.0
C387 C 0.59668 0.05682 0.70412 0.0
C388 C 0.67344 0.02343 0.67894 0.0
C389 C 0.56061 0.94927 0.67569 0.0
C390 C 0.56824 0.15209 0.76525 0.0
C391 C 0.56259 0.15295 0.79161 0.0
C392 C 0.56518 0.12181 0.80621 0.0
C393 C 0.5738 0.09068 0.7946 0.0
C394 C 0.57953 0.09044 0.76807 0.0
C395 C 0.57628 0.12076 0.75399 0.0
C396 C 0.58094 0.11504 0.72608 0.0
C397 C 0.58885 0.07709 0.72552 0.0
C398 C 0.58823 0.06256 0.75011 0.0
C399 C 0.63598 0.16643 0.71683 0.0
C400 C 0.52255 0.09401 0.71288 0.0
H401 H 0.62802 0.94549 0.70797 0.0
H402 H 0.60947 0.94108 0.80162 0.0
H403 H 0.50396 0.93777 0.77903 0.0
H404 H 0.5189 0.99143 0.79252 0.0
H405 H 0.54028 0.96237 0.80961 0.0
H406 H 0.691 0.06038 0.78717 0.0
H407 H 0.64528 0.03073 0.81416 0.0
H408 H 0.65312 0.0792 0.79869 0.0
H409 H 0.61187 1.00824 0.62747 0.0
H410 H 0.5818 0.11139 0.6259 0.0
H411 H 0.58291 0.11626 0.67157 0.0
H412 H 0.70574 0.06334 0.67385 0.0
H413 H 0.6737 1.00096 0.66385 0.0
H414 H 0.69115 0.02209 0.69683 0.0
H415 H 0.51964 0.94165 0.67089 0.0
H416 H 0.5495 0.92585 0.69193 0.0
H417 H 0.57068 0.93583 0.65924 0.0
H418 H 0.63938 0.89527 0.73146 0.0
C419 C 0.6236 0.94559 0.72813 0.0
C420 C 0.55911 0.34705 0.13273 0.0
C421 C 0.57377 0.32233 0.11873 0.0
C422 C 0.55427 0.3077 0.09314 0.0
C423 C 0.52507 0.35696 0.09429 0.0
C424 C 0.53563 0.36448 0.12018 0.0
C425 C 0.52809 0.39917 0.13168 0.0
H426 H 0.49259 0.56476 0.11496 0.0
C427 C 0.51293 0.38889 0.08628 0.0
C428 C 0.51376 0.41302 0.10825 0.0
H429 H 0.50732 0.51671 0.18614 0.0
H430 H 0.51543 0.46099 0.16332 0.0
H431 H 0.59167 0.56598 0.08317 0.0
H432 H 0.40532 0.46706 0.09132 0.0
H433 H 0.41523 0.452 0.06101 0.0
H434 H 0.44107 0.514 0.06808 0.0
H435 H 0.54619 0.57912 0.07387 0.0
H436 H 0.55732 0.54544 0.05287 0.0
C437 C 0.58709 0.445 0.14454 0.0
C438 C 0.47591 0.36908 0.14981 0.0
C439 C 0.52222 0.42657 0.99313 0.0
C440 C 0.51564 0.4573 0.98095 0.0
C441 C 0.49675 0.4788 -0.00524 0.0
C442 C 0.48827 0.47269 0.0208 0.0
C443 C 0.49917 0.44508 0.03318 0.0
C444 C 0.51285 0.42036 0.0193 0.0
C445 C 0.51783 0.38937 0.0358 0.0
C446 C 0.50837 0.40229 0.06196 0.0
C447 C 0.49941 0.4362 0.06017 0.0
C448 C 0.58017 0.40796 0.03331 0.0
C449 C 0.46841 0.33338 0.02788 0.0
C450 C 0.50033 0.54407 0.12575 0.0
C451 C 0.50155 0.54648 0.1524 0.0
C452 C 0.50776 0.51633 0.1656 0.0
C453 C 0.5115 0.48355 0.1523 0.0
C454 C 0.50852 0.48075 0.12556 0.0
C455 C 0.50328 0.51096 0.11284 0.0
C456 C 0.4972 0.50137 0.08463 0.0
C457 C 0.49981 0.46018 0.08234 0.0
C458 C 0.50696 0.44863 0.10627 0.0
C459 C 0.55055 0.55037 0.07279 0.0
C460 C 0.43689 0.48296 0.07562 0.0
H461 H 0.52018 0.3162 0.06084 0.0
H462 H 0.57244 0.35853 0.15248 0.0
H463 H 0.44205 0.32942 0.14279 0.0
H464 H 0.45263 0.38328 0.15118 0.0
H465 H 0.49035 0.36895 0.1691 0.0
H466 H 0.62469 0.45552 0.13337 0.0
H467 H 0.59192 0.43669 0.16393 0.0
H468 H 0.59295 0.47913 0.14576 0.0
H469 H 0.53543 0.40877 0.98262 0.0
H470 H 0.49098 0.50218 0.98556 0.0
H471 H 0.4754 0.4911 0.0304 0.0
H472 H 0.61347 0.4494 0.03613 0.0
H473 H 0.58592 0.39786 0.01418 0.0
H474 H 0.59076 0.39265 0.04742 0.0
H475 H 0.43038 0.32651 0.01896 0.0
H476 H 0.45021 0.30911 0.04435 0.0
H477 H 0.48393 0.32033 0.01397 0.0
H478 H 0.56215 0.28636 0.08215 0.0
C479 C 0.53027 0.32527 0.08076 0.0
C480 C 0.39099 0.54954 0.17749 0.0
C481 C 0.40467 0.58925 0.16384 0.0
C482 C 0.42948 0.54055 0.17814 0.0
C483 C 0.48229 0.57113 0.1651 0.0
H484 H 0.3473 0.52128 0.18451 0.0
H485 H 0.41365 0.50546 0.1854 0.0
S486 S 0.54667 0.69024 0.13551 0.0
N487 N 0.48044 0.66686 0.14352 0.0
N488 N 0.55379 0.65073 0.14535 0.0
C489 C 0.50121 0.61652 0.15626 0.0
C490 C 0.46174 0.62525 0.15526 0.0
C491 C 0.81784 0.22783 0.46951 0.0
C492 C 0.76124 0.21211 0.46991 0.0
C493 C 0.8684 0.27807 0.46507 0.0
C494 C 0.86528 0.31554 0.4614 0.0
H495 H 0.82296 0.20055 0.47126 0.0
H496 H 0.90989 0.28703 0.46303 0.0
S497 S 0.72927 0.29617 0.46275 0.0
N498 N 0.7067 0.24026 0.46785 0.0
N499 N 0.80087 0.33345 0.45968 0.0
C500 C 0.80956 0.30094 0.46307 0.0
C501 C 0.75804 0.24985 0.46732 0.0
C502 C 0.59357 0.80605 0.80239 0.0
C503 C 0.64639 0.8155 0.79999 0.0
C504 C 0.58767 0.83956 0.79343 0.0
C505 C 0.63439 0.88366 0.78179 0.0
H506 H 0.55577 0.77149 0.81023 0.0
H507 H 0.54558 0.8298 0.79453 0.0
S508 S 0.784 0.92955 0.77423 0.0
N509 N 0.74809 0.87536 0.78772 0.0
N510 N 0.73642 0.93732 0.77052 0.0
C511 C 0.68811 0.8948 0.78054 0.0
C512 C 0.69427 0.86103 0.78972 0.0
C513 C 0.68254 0.35325 0.16766 0.0
C514 C 0.73355 0.38285 0.15357 0.0
C515 C 0.62747 0.32436 0.15543 0.0
C516 C 0.62246 0.3263 0.12896 0.0
H517 H 0.68528 0.35621 0.18821 0.0
H518 H 0.58927 0.30585 0.16706 0.0
S519 S 0.74433 0.38717 0.08373 0.0
N520 N 0.77622 0.40266 0.11203 0.0
N521 N 0.67366 0.35112 0.0889 0.0
C522 C 0.67318 0.34942 0.11461 0.0
C523 C 0.72878 0.37763 0.12706 0.0
C524 C 0.38919 0.87741 0.45022 0.0
C525 C 0.43904 0.89387 0.46428 0.0
C526 C 0.33779 0.82636 0.44797 0.0
C527 C 0.33263 0.7885 0.45981 0.0
H528 H 0.39004 0.9041 0.44032 0.0
H529 H 0.30181 0.81628 0.43632 0.0
S530 S 0.4486 0.81066 0.49993 0.0
N531 N 0.47837 0.86713 0.49115 0.0
N532 N 0.38214 0.77185 0.48687 0.0
C533 C 0.38126 0.80438 0.47461 0.0
C534 C 0.4341 0.85657 0.47679 0.0
C535 C 0.57929 0.2679 0.80474 0.0
C536 C 0.53002 0.24976 0.81911 0.0
C537 C 0.59071 0.23689 0.79691 0.0
C538 C 0.55354 0.18631 0.80319 0.0
H539 H 0.60898 0.30631 0.79911 0.0
H540 H 0.62846 0.25243 0.78538 0.0
S541 S 0.41866 0.11974 0.8404 0.0
N542 N 0.44366 0.17737 0.83932 0.0
N543 N 0.46577 0.11943 0.82485 0.0
C544 C 0.50511 0.16788 0.81817 0.0
C545 C 0.49319 0.19944 0.82606 0.0
C546 C 0.65747 0.80624 0.49999 0.0
C547 C 0.61322 0.80879 0.50266 0.0
C548 C 0.64957 0.76502 0.50825 0.0
C549 C 0.59727 0.72516 0.51947 0.0
H550 H 0.69972 0.83754 0.49285 0.0
H551 H 0.68584 0.76579 0.50732 0.0
S552 S 0.46479 0.70963 0.52708 0.0
N553 N 0.51259 0.76457 0.51428 0.0
N554 N 0.49854 0.68782 0.53037 0.0
C555 C 0.55143 0.7256 0.5207 0.0
C556 C 0.55921 0.76726 0.51215 0.0
C557 C 0.78546 0.56581 0.84837 0.0
C558 C 0.7294 0.52772 0.83588 0.0
C559 C 0.83363 0.56536 0.84959 0.0
C560 C 0.83328 0.52788 0.83766 0.0
H561 H 0.79235 0.59676 0.85805 0.0
H562 H 0.87283 0.59609 0.86016 0.0
S563 S 0.69936 0.41841 0.80146 0.0
N564 N 0.67925 0.44986 0.81115 0.0
N565 N 0.76709 0.45045 0.81226 0.0
C566 C 0.77783 0.48995 0.82469 0.0
C567 C 0.72792 0.48955 0.82415 0.0
C568 C 0.2906 0.71411 0.13832 0.0
C569 C 0.23674 0.69708 0.14797 0.0
C570 C 0.34262 0.76543 0.14021 0.0
C571 C 0.34349 0.80236 0.15186 0.0
H572 H 0.29305 0.68744 0.12964 0.0
H573 H 0.38293 0.77591 0.13336 0.0
S574 S 0.21497 0.7796 0.1789 0.0
N575 N 0.18853 0.72353 0.16863 0.0
N576 N 0.28506 0.8183 0.17217 0.0
C577 C 0.28985 0.78614 0.1609 0.0
C578 C 0.23708 0.73424 0.15895 0.0
C579 C 0.59796 0.3271 0.4719 0.0
C580 C 0.55985 0.28067 0.48336 0.0
C581 C 0.60637 0.36876 0.48188 0.0
C582 C 0.57668 0.36513 0.50354 0.0
H583 H 0.62246 0.33152 0.45554 0.0
H584 H 0.63735 0.40426 0.47298 0.0
S585 S 0.46642 0.24983 0.53833 0.0
N586 N 0.48886 0.2323 0.51609 0.0
N587 N 0.5034 0.30988 0.53451 0.0
C588 C 0.53665 0.3182 0.51444 0.0
C589 C 0.52856 0.27615 0.50443 0.0
C590 C 0.41853 0.56574 0.84004 0.0
C591 C 0.41122 0.52123 0.83773 0.0
C592 C 0.3706 0.5666 0.84175 0.0
C593 C 0.30882 0.52322 0.84046 0.0
H594 H 0.46282 0.60144 0.84124 0.0
H595 H 0.38283 0.60278 0.84473 0.0
S596 S 0.26013 0.39504 0.83498 0.0
N597 N 0.33207 0.4311 0.83473 0.0
N598 N 0.24622 0.43289 0.8375 0.0
C599 C 0.3009 0.4785 0.83813 0.0
C600 C 0.34969 0.4775 0.83673 0.0
C601 C 0.86734 0.36078 0.14409 0.0
C602 C 0.92245 0.37489 0.13999 0.0
C603 C 0.81678 0.31084 0.14875 0.0
C604 C 0.81812 0.27181 0.14912 0.0
H605 H 0.86356 0.38903 0.14444 0.0
H606 H 0.77686 0.30321 0.15348 0.0
S607 S 0.94962 0.28682 0.13773 0.0
N608 N 0.97364 0.34391 0.13512 0.0
N609 N 0.87925 0.2508 0.1438 0.0
C610 C 0.87205 0.28473 0.14366 0.0
C611 C 0.92374 0.33575 0.13899 0.0
C612 C 0.0841 0.59278 0.05924 0.0
C613 C 0.07259 0.55389 0.07288 0.0
C614 C 0.08828 0.59336 0.03276 0.0
C615 C 0.08126 0.55514 0.01874 0.0
H616 H 0.0888 0.62265 0.06902 0.0
H617 H 0.09596 0.62361 0.02311 0.0
S618 S 1.05394 0.44625 0.04547 0.0
N619 N 1.05731 0.47742 0.07051 0.0
N620 N 0.06454 0.47825 0.02064 0.0
C621 C 0.07199 0.51699 0.0322 0.0
C622 C 0.06769 0.51638 0.05927 0.0
C623 C 0.56418 0.03261 0.38619 0.0
C624 C 0.61942 0.0544 0.39651 0.0
C625 C 0.55519 0.03052 0.35992 0.0
C626 C 0.60116 0.05027 0.34297 0.0
H627 H 0.52727 0.01622 0.39845 0.0
H628 H 0.51173 1.0128 0.35279 0.0
S629 S 0.75456 0.1124 0.36047 0.0
N630 N 0.72126 0.0976 0.38783 0.0
N631 N 0.7041 0.09274 0.33852 0.0
C632 C 0.65691 0.07323 0.35314 0.0
C633 C 0.66614 0.07551 0.37987 0.0
C634 C 0.62455 0.54141 0.75285 0.0
C635 C 0.57059 0.52441 0.76171 0.0
C636 C 0.63687 0.54839 0.72691 0.0
C637 C 0.5962 0.53977 0.70923 0.0
H638 H 0.6563 0.54718 0.76582 0.0
H639 H 0.67799 0.55981 0.72058 0.0
S640 S 0.45069 0.49863 0.72326 0.0
N641 N 0.47761 0.50153 0.75113 0.0
N642 N 0.50119 0.51562 0.70252 0.0
C643 C 0.5433 0.52496 0.71808 0.0
C644 C 0.53041 0.51705 0.74433 0.0
C645 C 0.53355 0.03409 0.55695 0.0
C646 C 0.58161 0.05386 0.54135 0.0
C647 C 0.5388 0.03514 0.58337 0.0
C648 C 0.59202 0.05521 0.59523 0.0
H649 H 0.49161 0.01847 0.54875 0.0
H650 H 0.50103 0.02061 0.59468 0.0
S651 S 0.73075 0.11057 0.56333 0.0
N652 N 0.6843 0.09385 0.53988 0.0
N653 N 0.69345 0.09437 0.58967 0.0
C654 C 0.64007 0.07386 0.57998 0.0
C655 C 0.63504 0.07355 0.553 0.0
C656 C 0.5091 0.48137 0.91256 0.0
C657 C 0.56826 0.51307 0.9059 0.0
C658 C 0.4917 0.46115 0.93657 0.0
C659 C 0.53268 0.47102 0.95445 0.0
H660 H 0.47626 0.47361 0.89949 0.0
H661 H 0.44622 0.43887 0.94148 0.0
S662 S 0.69182 0.54807 0.94564 0.0
N663 N 0.66724 0.551 0.91855 0.0
N664 N 0.63415 0.51217 0.96364 0.0
C665 C 0.5914 0.50056 0.94762 0.0
C666 C 0.60934 0.52186 0.92333 0.0
C667 C 0.1018 0.56419 0.22594 0.0
C668 C 0.09563 0.52449 0.21454 0.0
C669 C 0.10133 0.56944 0.25236 0.0
C670 C 0.09481 0.53526 0.26842 0.0
H671 H 0.10789 0.59191 0.21441 0.0
H672 H 0.10663 0.60083 0.2603 0.0
S673 S 0.07666 0.42449 0.24797 0.0
N674 N 0.08153 0.44972 0.22123 0.0
N675 N 0.08206 0.46028 0.27092 0.0
C676 C 0.08766 0.4949 0.25722 0.0
C677 C 0.08785 0.48943 0.23029 0.0
loop_
_geom_bond_atom_site_label_1
_geom_bond_atom_site_label_2
_geom_bond_distance
_geom_bond_site_symmetry_2
_ccdc_geom_bond_type
Ho0 C3 2.811 . S
Ho0 O20 2.322 . S
Ho0 O22 2.378 . S
Ho0 O23 2.524 . S
Ho0 O24 2.381 . S
Ho0 O25 2.669 . S
Ho0 O27 2.346 1_455 S
Ho0 O31 2.305 . S
Ho1 C12 2.811 . S
Ho1 O21 2.346 1_655 S
Ho1 O25 2.305 1_655 S
Ho1 O26 2.322 . S
Ho1 O28 2.378 . S
Ho1 O29 2.524 . S
Ho1 O30 2.381 . S
Ho1 O31 2.669 1_655 S
C2 O20 1.259 . S
C2 O21 1.268 . S
C3 Ho0 2.811 . S
C3 C4 1.488 . S
C3 O22 1.215 . S
C3 O23 1.289 . S
C4 C3 1.488 . S
C4 C5 1.348 . S
C4 C9 1.413 . S
C5 C4 1.348 . S
C5 C6 1.442 . S
C5 H32 0.930 . S
C6 C5 1.442 . S
C6 C7 1.381 . S
C6 H33 0.931 . S
C7 C6 1.381 . S
C7 C8 1.321 . S
C8 C7 1.321 . S
C8 C9 1.403 . S
C8 H34 0.934 . S
C9 C4 1.413 . S
C9 C8 1.403 . S
C9 H35 0.930 . S
C10 O24 1.275 . S
C10 O25 1.256 . S
C11 O26 1.259 . S
C11 O27 1.268 . S
C12 Ho1 2.811 . S
C12 C13 1.488 . S
C12 O28 1.215 . S
C12 O29 1.289 . S
C13 C12 1.488 . S
C13 C14 1.348 . S
C13 C18 1.413 . S
C14 C13 1.348 . S
C14 C15 1.442 . S
C14 H36 0.930 . S
C15 C14 1.442 . S
C15 C16 1.381 . S
C15 H37 0.931 . S
C16 C15 1.381 . S
C16 C17 1.321 . S
C17 C16 1.321 . S
C17 C18 1.403 . S
C17 H38 0.934 . S
C18 C13 1.413 . S
C18 C17 1.403 . S
C18 H39 0.930 . S
C19 O30 1.275 1_455 S
C19 O31 1.256 . S
O20 Ho0 2.322 . S
O20 C2 1.259 . S
O21 Ho1 2.346 1_455 S
O21 C2 1.268 . S
O22 Ho0 2.378 . S
O22 C3 1.215 . S
O23 Ho0 2.524 . S
O23 C3 1.289 . S
O24 Ho0 2.381 . S
O24 C10 1.275 . S
O25 Ho0 2.669 . S
O25 Ho1 2.305 1_455 S
O25 C10 1.256 . S
O26 Ho1 2.322 . S
O26 C11 1.259 . S
O27 Ho0 2.346 1_655 S
O27 C11 1.268 . S
O28 Ho1 2.378 . S
O28 C12 1.215 . S
O29 Ho1 2.524 . S
O29 C12 1.289 . S
O30 Ho1 2.381 . S
O30 C19 1.275 1_655 S
O31 Ho0 2.305 . S
O31 Ho1 2.669 1_455 S
O31 C19 1.256 . S
H32 C5 0.930 . S
H33 C6 0.931 . S
H34 C8 0.934 . S
H35 C9 0.930 . S
H36 C14 0.930 . S
H37 C15 0.931 . S
H38 C17 0.934 . S
H39 C18 0.930 . S
Ho40 C43 2.811 . S
Ho40 O60 2.322 . S
Ho40 O62 2.378 . S
Ho40 O63 2.524 . S
Ho40 O64 2.381 . S
Ho40 O65 2.669 1_565 S
Ho40 O67 2.346 1_565 S
Ho40 O71 2.319 . S
Ho41 C52 2.811 . S
Ho41 O61 2.346 1_545 S
Ho41 O65 2.305 . S
Ho41 O66 2.322 . S
Ho41 O68 2.378 . S
Ho41 O69 2.524 . S
Ho41 O70 2.381 . S
Ho41 O71 2.646 1_545 S
C42 O60 1.259 . S
C42 O61 1.268 . S
C43 Ho40 2.811 . S
C43 C44 1.488 . S
C43 O62 1.215 . S
C43 O63 1.289 . S
C44 C43 1.488 . S
C44 C45 1.348 . S
C44 C49 1.413 . S
C45 C44 1.348 . S
C45 C46 1.442 . S
C45 H72 0.930 . S
C46 C45 1.442 . S
C46 C47 1.381 . S
C46 H73 0.931 . S
C47 C46 1.381 . S
C47 C48 1.321 . S
C48 C47 1.321 . S
C48 C49 1.403 . S
C48 H74 0.934 . S
C49 C44 1.413 . S
C49 C48 1.403 . S
C49 H75 0.930 . S
C50 O64 1.275 1_545 S
C50 O65 1.256 . S
C51 O66 1.259 . S
C51 O67 1.268 . S
C52 Ho41 2.811 . S
C52 C53 1.488 . S
C52 O68 1.215 . S
C52 O69 1.289 . S
C53 C52 1.488 . S
C53 C54 1.348 . S
C53 C58 1.413 . S
C54 C53 1.348 . S
C54 C55 1.442 . S
C54 H76 0.930 . S
C55 C54 1.442 . S
C55 C56 1.381 . S
C55 H77 0.931 . S
C56 C55 1.381 . S
C56 C57 1.321 . S
C57 C56 1.321 . S
C57 C58 1.403 . S
C57 H78 0.934 . S
C58 C53 1.413 . S
C58 C57 1.403 . S
C58 H79 0.930 . S
C59 O70 1.275 . S
C59 O71 1.243 1_545 S
O60 Ho40 2.322 . S
O60 C42 1.259 . S
O61 Ho41 2.346 1_565 S
O61 C42 1.268 . S
O62 Ho40 2.378 . S
O62 C43 1.215 . S
O63 Ho40 2.524 . S
O63 C43 1.289 . S
O64 Ho40 2.381 . S
O64 C50 1.275 1_565 S
O65 Ho40 2.669 1_545 S
O65 Ho41 2.305 . S
O65 C50 1.256 . S
O66 Ho41 2.322 . S
O66 C51 1.259 . S
O67 Ho40 2.346 1_545 S
O67 C51 1.268 . S
O68 Ho41 2.378 . S
O68 C52 1.215 . S
O69 Ho41 2.524 . S
O69 C52 1.289 . S
O70 Ho41 2.381 . S
O70 C59 1.275 . S
O71 Ho40 2.319 . S
O71 Ho41 2.646 1_565 S
O71 C59 1.243 1_565 S
H72 C45 0.930 . S
H73 C46 0.931 . S
H74 C48 0.934 . S
H75 C49 0.930 . S
H76 C54 0.930 . S
H77 C55 0.931 . S
H78 C57 0.934 . S
H79 C58 0.930 . S
Ho80 C83 2.811 . S
Ho80 O100 2.322 . S
Ho80 O102 2.378 . S
Ho80 O103 2.524 . S
Ho80 O104 2.381 . S
Ho80 O105 2.669 . S
Ho80 O107 2.346 . S
Ho80 O111 2.305 . S
Ho81 C92 2.811 . S
Ho81 O101 2.346 . S
Ho81 O105 2.305 . S
Ho81 O106 2.322 . S
Ho81 O108 2.378 . S
Ho81 O109 2.524 . S
Ho81 O110 2.381 . S
Ho81 O111 2.669 . S
C82 O100 1.259 . S
C82 O101 1.268 . S
C83 Ho80 2.811 . S
C83 C84 1.488 . S
C83 O102 1.215 . S
C83 O103 1.289 . S
C84 C83 1.488 . S
C84 C85 1.348 . S
C84 C89 1.413 . S
C85 C84 1.348 . S
C85 C86 1.442 . S
C85 H112 0.930 . S
C86 C85 1.442 . S
C86 C87 1.381 . S
C86 H113 0.931 . S
C87 C86 1.381 . S
C87 C88 1.321 . S
C88 C87 1.321 . S
C88 C89 1.403 . S
C88 H114 0.934 . S
C89 C84 1.413 . S
C89 C88 1.403 . S
C89 H115 0.930 . S
C90 O104 1.275 . S
C90 O105 1.256 . S
C91 O106 1.259 . S
C91 O107 1.268 . S
C92 Ho81 2.811 . S
C92 C93 1.488 . S
C92 O108 1.215 . S
C92 O109 1.289 . S
C93 C92 1.488 . S
C93 C94 1.348 . S
C93 C98 1.413 . S
C94 C93 1.348 . S
C94 C95 1.442 . S
C94 H116 0.930 . S
C95 C94 1.442 . S
C95 C96 1.381 . S
C95 H117 0.931 . S
C96 C95 1.381 . S
C96 C97 1.321 . S
C97 C96 1.321 . S
C97 C98 1.403 . S
C97 H118 0.934 . S
C98 C93 1.413 . S
C98 C97 1.403 . S
C98 H119 0.930 . S
C99 O110 1.275 . S
C99 O111 1.256 . S
O100 Ho80 2.322 . S
O100 C82 1.259 . S
O101 Ho81 2.346 . S
O101 C82 1.268 . S
O102 Ho80 2.378 . S
O102 C83 1.215 . S
O103 Ho80 2.524 . S
O103 C83 1.289 . S
O104 Ho80 2.381 . S
O104 C90 1.275 . S
O105 Ho80 2.669 . S
O105 Ho81 2.305 . S
O105 C90 1.256 . S
O106 Ho81 2.322 . S
O106 C91 1.259 . S
O107 Ho80 2.346 . S
O107 C91 1.268 . S
O108 Ho81 2.378 . S
O108 C92 1.215 . S
O109 Ho81 2.524 . S
O109 C92 1.289 . S
O110 Ho81 2.381 . S
O110 C99 1.275 . S
O111 Ho80 2.305 . S
O111 Ho81 2.669 . S
O111 C99 1.256 . S
H112 C85 0.930 . S
H113 C86 0.931 . S
H114 C88 0.934 . S
H115 C89 0.930 . S
H116 C94 0.930 . S
H117 C95 0.931 . S
H118 C97 0.934 . S
H119 C98 0.930 . S
C120 C121 1.391 . S
C120 C124 1.391 . S
C120 H162 0.948 . S
C121 C120 1.391 . S
C121 C122 1.391 . S
C122 C121 1.391 . S
C122 H178 0.947 . S
C122 C179 1.392 . S
C123 C124 1.391 . S
C123 C127 1.397 . S
C123 C179 1.419 . S
C124 C120 1.391 . S
C124 C123 1.391 . S
C124 C125 1.399 . S
C125 C124 1.399 . S
C125 C128 1.396 . S
C125 C137 1.453 . S
C125 C138 1.684 . S
H126 C150 0.948 . S
C127 C123 1.397 . S
C127 C128 1.394 . S
C127 C146 1.723 . S
C128 C125 1.396 . S
C128 C127 1.394 . S
C128 C158 1.723 1_545 S
H129 C152 0.947 . S
H130 C153 0.948 . S
H131 C159 0.982 . S
H132 C160 0.979 . S
H133 C160 0.980 . S
H134 C160 0.983 . S
H135 C159 0.979 . S
H136 C159 0.977 . S
C137 C125 1.453 . S
C137 H166 0.982 . S
C137 H167 0.979 . S
C137 H168 0.969 1_545 S
C138 C125 1.684 . S
C138 H163 0.979 . S
C138 H164 0.980 . S
C138 H165 0.983 . S
C139 C140 1.391 . S
C139 C144 1.391 . S
C139 H169 0.948 . S
C140 C139 1.391 . S
C140 C141 1.391 1_545 S
C141 C140 1.391 1_565 S
C141 C142 1.392 . S
C141 H170 0.947 . S
C142 C141 1.392 . S
C142 C143 1.419 1_565 S
C142 H171 0.948 . S
C143 C142 1.419 1_545 S
C143 C144 1.391 . S
C143 C147 1.397 . S
C144 C139 1.391 . S
C144 C143 1.391 . S
C144 C145 1.399 . S
C145 C144 1.399 . S
C145 C146 1.396 . S
C145 C148 1.453 . S
C145 C149 1.684 . S
C146 C127 1.723 . S
C146 C145 1.396 . S
C146 C147 1.394 . S
C147 C143 1.397 . S
C147 C146 1.394 . S
C147 C157 1.723 1_545 S
C148 C145 1.453 . S
C148 H172 0.982 . S
C148 H173 0.979 . S
C148 H174 0.977 . S
C149 C145 1.684 . S
C149 H175 0.979 . S
C149 H176 0.980 . S
C149 H177 0.983 . S
C150 H126 0.948 . S
C150 C151 1.391 . S
C150 C155 1.391 . S
C151 C150 1.391 . S
C151 C152 1.391 . S
C152 H129 0.947 . S
C152 C151 1.391 . S
C152 C153 1.392 . S
C153 H130 0.948 . S
C153 C152 1.392 . S
C153 C154 1.419 . S
C154 C153 1.419 . S
C154 C155 1.391 . S
C154 C158 1.397 . S
C155 C150 1.391 . S
C155 C154 1.391 . S
C155 C156 1.399 . S
C156 C155 1.399 . S
C156 C157 1.396 . S
C156 C159 1.453 . S
C156 C160 1.684 . S
C157 C147 1.723 1_565 S
C157 C156 1.396 . S
C157 C158 1.394 . S
C158 C128 1.723 1_565 S
C158 C154 1.397 . S
C158 C157 1.394 . S
C159 H131 0.982 . S
C159 H135 0.979 . S
C159 H136 0.977 . S
C159 C156 1.453 . S
C160 H132 0.979 . S
C160 H133 0.980 . S
C160 H134 0.983 . S
C160 C156 1.684 . S
H161 C179 0.948 . S
H162 C120 0.948 . S
H163 C138 0.979 . S
H164 C138 0.980 . S
H165 C138 0.983 . S
H166 C137 0.982 . S
H167 C137 0.979 . S
H168 C137 0.969 1_565 S
H169 C139 0.948 . S
H170 C141 0.947 . S
H171 C142 0.948 . S
H172 C148 0.982 . S
H173 C148 0.979 . S
H174 C148 0.977 . S
H175 C149 0.979 . S
H176 C149 0.980 . S
H177 C149 0.983 . S
H178 C122 0.947 . S
C179 C122 1.392 . S
C179 C123 1.419 . S
C179 H161 0.948 . S
C180 C181 1.391 . S
C180 C184 1.391 . S
C180 H222 0.948 . S
C181 C180 1.391 . S
C181 C182 1.391 . S
C182 C181 1.391 . S
C182 H238 0.947 . S
C182 C239 1.392 . S
C183 C184 1.391 . S
C183 C187 1.397 . S
C183 C239 1.419 . S
C184 C180 1.391 . S
C184 C183 1.391 . S
C184 C185 1.399 . S
C185 C184 1.399 . S
C185 C188 1.396 . S
C185 C197 1.453 . S
C185 C198 1.684 . S
H186 C210 0.948 . S
C187 C183 1.397 . S
C187 C188 1.394 . S
C187 C206 1.723 . S
C188 C185 1.396 . S
C188 C187 1.394 . S
C188 C218 1.723 . S
H189 C212 0.947 . S
H190 C213 0.948 . S
H191 C219 0.982 . S
H192 C220 0.979 . S
H193 C220 0.980 . S
H194 C220 0.983 . S
H195 C219 0.979 . S
H196 C219 0.977 . S
C197 C185 1.453 . S
C197 H226 0.982 . S
C197 H227 0.979 . S
C197 H228 0.977 . S
C198 C185 1.684 . S
C198 H223 0.979 . S
C198 H224 0.980 . S
C198 H225 0.983 . S
C199 C200 1.391 . S
C199 C204 1.391 . S
C199 H229 0.948 . S
C200 C199 1.391 . S
C200 C201 1.391 . S
C201 C200 1.391 . S
C201 C202 1.392 . S
C201 H230 0.947 . S
C202 C201 1.392 . S
C202 C203 1.419 . S
C202 H231 0.948 . S
C203 C202 1.419 . S
C203 C204 1.391 . S
C203 C207 1.397 . S
C204 C199 1.391 . S
C204 C203 1.391 . S
C204 C205 1.399 . S
C205 C204 1.399 . S
C205 C206 1.396 . S
C205 C208 1.453 . S
C205 C209 1.684 . S
C206 C187 1.723 . S
C206 C205 1.396 . S
C206 C207 1.394 . S
C207 C203 1.397 . S
C207 C206 1.394 . S
C207 C217 1.723 . S
C208 C205 1.453 . S
C208 H232 0.982 . S
C208 H233 0.979 . S
C208 H234 0.977 . S
C209 C205 1.684 . S
C209 H235 0.979 . S
C209 H236 0.980 . S
C209 H237 0.983 . S
C210 H186 0.948 . S
C210 C211 1.391 . S
C210 C215 1.391 . S
C211 C210 1.391 . S
C211 C212 1.391 . S
C212 H189 0.947 . S
C212 C211 1.391 . S
C212 C213 1.392 . S
C213 H190 0.948 . S
C213 C212 1.392 . S
C213 C214 1.419 . S
C214 C213 1.419 . S
C214 C215 1.391 . S
C214 C218 1.397 . S
C215 C210 1.391 . S
C215 C214 1.391 . S
C215 C216 1.399 . S
C216 C215 1.399 . S
C216 C217 1.396 . S
C216 C219 1.453 . S
C216 C220 1.684 . S
C217 C207 1.723 . S
C217 C216 1.396 . S
C217 C218 1.394 . S
C218 C188 1.723 . S
C218 C214 1.397 . S
C218 C217 1.394 . S
C219 H191 0.982 . S
C219 H195 0.979 . S
C219 H196 0.977 . S
C219 C216 1.453 . S
C220 H192 0.979 . S
C220 H193 0.980 . S
C220 H194 0.983 . S
C220 C216 1.684 . S
H221 C239 0.948 . S
H222 C180 0.948 . S
H223 C198 0.979 . S
H224 C198 0.980 . S
H225 C198 0.983 . S
H226 C197 0.982 . S
H227 C197 0.979 . S
H228 C197 0.977 . S
H229 C199 0.948 . S
H230 C201 0.947 . S
H231 C202 0.948 . S
H232 C208 0.982 . S
H233 C208 0.979 . S
H234 C208 0.977 . S
H235 C209 0.979 . S
H236 C209 0.980 . S
H237 C209 0.983 . S
H238 C182 0.947 . S
C239 C182 1.392 . S
C239 C183 1.419 . S
C239 H221 0.948 . S
C240 C241 1.391 . S
C240 C244 1.391 . S
C240 H282 0.948 . S
C241 C240 1.391 . S
C241 C242 1.391 . S
C242 C241 1.391 . S
C242 H298 0.947 . S
C242 C299 1.392 . S
C243 C244 1.391 . S
C243 C247 1.397 . S
C243 C299 1.419 . S
C244 C240 1.391 . S
C244 C243 1.391 . S
C244 C245 1.399 . S
C245 C244 1.399 . S
C245 C248 1.396 . S
C245 C257 1.453 . S
C245 C258 1.684 . S
H246 C270 0.948 . S
C247 C243 1.397 . S
C247 C248 1.394 . S
C247 C266 1.723 . S
C248 C245 1.396 . S
C248 C247 1.394 . S
C248 C278 1.723 . S
H249 C272 0.947 . S
H250 C273 0.948 1_455 S
H251 C279 0.982 . S
H252 C280 0.979 1_455 S
H253 C280 0.980 . S
H254 C280 0.983 . S
H255 C279 0.979 . S
H256 C279 0.977 . S
C257 C245 1.453 . S
C257 H286 0.982 . S
C257 H287 0.979 . S
C257 H288 0.977 . S
C258 C245 1.684 . S
C258 H283 0.979 . S
C258 H284 0.980 . S
C258 H285 0.983 . S
C259 C260 1.391 . S
C259 C264 1.391 . S
C259 H289 0.948 . S
C260 C259 1.391 . S
C260 C261 1.391 . S
C261 C260 1.391 . S
C261 C262 1.392 . S
C261 H290 0.947 1_455 S
C262 C261 1.392 . S
C262 C263 1.419 . S
C262 H291 0.948 1_455 S
C263 C262 1.419 . S
C263 C264 1.391 . S
C263 C267 1.397 . S
C264 C259 1.391 . S
C264 C263 1.391 . S
C264 C265 1.399 . S
C265 C264 1.399 . S
C265 C266 1.396 . S
C265 C268 1.453 . S
C265 C269 1.684 . S
C266 C247 1.723 . S
C266 C265 1.396 . S
C266 C267 1.394 . S
C267 C263 1.397 . S
C267 C266 1.394 . S
C267 C277 1.723 . S
C268 C265 1.453 . S
C268 H292 0.982 . S
C268 H293 0.979 . S
C268 H294 0.977 . S
C269 C265 1.684 . S
C269 H295 0.979 . S
C269 H296 0.980 . S
C269 H297 0.983 . S
C270 H246 0.948 . S
C270 C271 1.391 . S
C270 C275 1.391 . S
C271 C270 1.391 . S
C271 C272 1.391 . S
C272 H249 0.947 . S
C272 C271 1.391 . S
C272 C273 1.392 . S
C273 H250 0.948 1_655 S
C273 C272 1.392 . S
C273 C274 1.419 . S
C274 C273 1.419 . S
C274 C275 1.391 . S
C274 C278 1.397 1_655 S
C275 C270 1.391 . S
C275 C274 1.391 . S
C275 C276 1.399 . S
C276 C275 1.399 . S
C276 C277 1.396 1_655 S
C276 C279 1.453 . S
C276 C280 1.684 . S
C277 C267 1.723 . S
C277 C276 1.396 1_455 S
C277 C278 1.394 . S
C278 C248 1.723 . S
C278 C274 1.397 1_455 S
C278 C277 1.394 . S
C279 H251 0.982 . S
C279 H255 0.979 . S
C279 H256 0.977 . S
C279 C276 1.453 . S
C280 H252 0.979 1_655 S
C280 H253 0.980 . S
C280 H254 0.983 . S
C280 C276 1.684 . S
H281 C299 0.948 . S
H282 C240 0.948 . S
H283 C258 0.979 . S
H284 C258 0.980 . S
H285 C258 0.983 . S
H286 C257 0.982 . S
H287 C257 0.979 . S
H288 C257 0.977 . S
H289 C259 0.948 . S
H290 C261 0.947 1_655 S
H291 C262 0.948 1_655 S
H292 C268 0.982 . S
H293 C268 0.979 . S
H294 C268 0.977 . S
H295 C269 0.979 . S
H296 C269 0.980 . S
H297 C269 0.983 . S
H298 C242 0.947 . S
C299 C242 1.392 . S
C299 C243 1.419 . S
C299 H281 0.948 . S
C300 C301 1.391 . S
C300 C304 1.391 . S
C300 H342 0.948 . S
C301 C300 1.391 . S
C301 C302 1.391 . S
C302 C301 1.391 . S
C302 H358 0.947 . S
C302 C359 1.392 . S
C303 C304 1.391 . S
C303 C307 1.397 . S
C303 C359 1.419 . S
C304 C300 1.391 . S
C304 C303 1.391 . S
C304 C305 1.399 . S
C305 C304 1.399 . S
C305 C308 1.396 . S
C305 C317 1.453 . S
C305 C318 1.684 . S
H306 C330 0.948 . S
C307 C303 1.397 . S
C307 C308 1.394 . S
C307 C326 1.723 . S
C308 C305 1.396 . S
C308 C307 1.394 . S
C308 C338 1.723 1_655 S
H309 C332 0.947 . S
H310 C333 0.948 . S
H311 C339 0.982 . S
H312 C340 0.979 . S
H313 C340 0.980 . S
H314 C340 0.983 . S
H315 C339 0.979 . S
H316 C339 0.977 . S
C317 C305 1.453 . S
C317 H346 0.982 1_655 S
C317 H347 0.979 . S
C317 H348 0.977 1_655 S
C318 C305 1.684 . S
C318 H343 0.979 . S
C318 H344 0.980 . S
C318 H345 0.983 . S
C319 C320 1.391 1_655 S
C319 C324 1.391 . S
C319 H349 0.948 . S
C320 C319 1.391 1_455 S
C320 C321 1.391 . S
C321 C320 1.391 . S
C321 C322 1.392 . S
C321 H350 0.947 . S
C322 C321 1.392 . S
C322 C323 1.419 . S
C322 H351 0.948 . S
C323 C322 1.419 . S
C323 C324 1.391 1_455 S
C323 C327 1.397 . S
C324 C319 1.391 . S
C324 C323 1.391 1_655 S
C324 C325 1.399 . S
C325 C324 1.399 . S
C325 C326 1.396 . S
C325 C328 1.453 . S
C325 C329 1.684 . S
C326 C307 1.723 . S
C326 C325 1.396 . S
C326 C327 1.394 1_655 S
C327 C323 1.397 . S
C327 C326 1.394 1_455 S
C327 C337 1.723 . S
C328 C325 1.453 . S
C328 H352 0.982 . S
C328 H353 0.979 . S
C328 H354 0.977 . S
C329 C325 1.684 . S
C329 H355 0.979 . S
C329 H356 0.980 . S
C329 H357 0.983 . S
C330 H306 0.948 . S
C330 C331 1.391 . S
C330 C335 1.391 . S
C331 C330 1.391 . S
C331 C332 1.391 . S
C332 H309 0.947 . S
C332 C331 1.391 . S
C332 C333 1.392 . S
C333 H310 0.948 . S
C333 C332 1.392 . S
C333 C334 1.419 . S
C334 C333 1.419 . S
C334 C335 1.391 . S
C334 C338 1.397 . S
C335 C330 1.391 . S
C335 C334 1.391 . S
C335 C336 1.399 . S
C336 C335 1.399 . S
C336 C337 1.396 . S
C336 C339 1.453 . S
C336 C340 1.684 . S
C337 C327 1.723 . S
C337 C336 1.396 . S
C337 C338 1.394 . S
C338 C308 1.723 1_455 S
C338 C334 1.397 . S
C338 C337 1.394 . S
C339 H311 0.982 . S
C339 H315 0.979 . S
C339 H316 0.977 . S
C339 C336 1.453 . S
C340 H312 0.979 . S
C340 H313 0.980 . S
C340 H314 0.983 . S
C340 C336 1.684 . S
H341 C359 0.948 . S
H342 C300 0.948 . S
H343 C318 0.979 . S
H344 C318 0.980 . S
H345 C318 0.983 . S
H346 C317 0.982 1_455 S
H347 C317 0.979 . S
H348 C317 0.977 1_455 S
H349 C319 0.948 . S
H350 C321 0.947 . S
H351 C322 0.948 . S
H352 C328 0.982 . S
H353 C328 0.979 . S
H354 C328 0.977 . S
H355 C329 0.979 . S
H356 C329 0.980 . S
H357 C329 0.983 . S
H358 C302 0.947 . S
C359 C302 1.392 . S
C359 C303 1.419 . S
C359 H341 0.948 . S
C360 C361 1.391 . S
C360 C364 1.391 . S
C360 H402 0.948 . S
C361 C360 1.391 . S
C361 C362 1.391 . S
C362 C361 1.391 . S
C362 H418 0.947 . S
C362 C419 1.392 . S
C363 C364 1.391 . S
C363 C367 1.397 . S
C363 C419 1.419 . S
C364 C360 1.391 . S
C364 C363 1.391 . S
C364 C365 1.399 . S
C365 C364 1.399 . S
C365 C368 1.396 . S
C365 C377 1.453 1_565 S
C365 C378 1.684 . S
H366 C390 0.948 . S
C367 C363 1.397 . S
C367 C368 1.394 . S
C367 C386 1.723 . S
C368 C365 1.396 . S
C368 C367 1.394 . S
C368 C398 1.723 1_565 S
H369 C392 0.947 . S
H370 C393 0.948 . S
H371 C399 0.982 . S
H372 C400 0.979 . S
H373 C400 0.980 . S
H374 C400 0.983 . S
H375 C399 0.979 . S
H376 C399 0.977 . S
C377 C365 1.453 1_545 S
C377 H406 0.982 . S
C377 H407 0.979 1_545 S
C377 H408 0.977 . S
C378 C365 1.684 . S
C378 H403 0.979 . S
C378 H404 0.980 . S
C378 H405 0.983 . S
C379 C380 1.391 . S
C379 C384 1.391 . S
C379 H409 0.948 . S
C380 C379 1.391 . S
C380 C381 1.391 1_565 S
C381 C380 1.391 1_545 S
C381 C382 1.392 . S
C381 H410 0.947 . S
C382 C381 1.392 . S
C382 C383 1.419 . S
C382 H411 0.948 . S
C383 C382 1.419 . S
C383 C384 1.391 1_545 S
C383 C387 1.397 . S
C384 C379 1.391 . S
C384 C383 1.391 1_565 S
C384 C385 1.399 . S
C385 C384 1.399 . S
C385 C386 1.396 . S
C385 C388 1.453 . S
C385 C389 1.684 . S
C386 C367 1.723 . S
C386 C385 1.396 . S
C386 C387 1.394 1_565 S
C387 C383 1.397 . S
C387 C386 1.394 1_545 S
C387 C397 1.723 . S
C388 C385 1.453 . S
C388 H412 0.982 . S
C388 H413 0.979 . S
C388 H414 0.977 . S
C389 C385 1.684 . S
C389 H415 0.979 . S
C389 H416 0.980 . S
C389 H417 0.983 . S
C390 H366 0.948 . S
C390 C391 1.391 . S
C390 C395 1.391 . S
C391 C390 1.391 . S
C391 C392 1.391 . S
C392 H369 0.947 . S
C392 C391 1.391 . S
C392 C393 1.392 . S
C393 H370 0.948 . S
C393 C392 1.392 . S
C393 C394 1.419 . S
C394 C393 1.419 . S
C394 C395 1.391 . S
C394 C398 1.397 . S
C395 C390 1.391 . S
C395 C394 1.391 . S
C395 C396 1.399 . S
C396 C395 1.399 . S
C396 C397 1.396 . S
C396 C399 1.453 . S
C396 C400 1.684 . S
C397 C387 1.723 . S
C397 C396 1.396 . S
C397 C398 1.394 . S
C398 C368 1.723 1_545 S
C398 C394 1.397 . S
C398 C397 1.394 . S
C399 H371 0.982 . S
C399 H375 0.979 . S
C399 H376 0.977 . S
C399 C396 1.453 . S
C400 H372 0.979 . S
C400 H373 0.980 . S
C400 H374 0.983 . S
C400 C396 1.684 . S
H401 C419 0.948 . S
H402 C360 0.948 . S
H403 C378 0.979 . S
H404 C378 0.980 . S
H405 C378 0.983 . S
H406 C377 0.982 . S
H407 C377 0.979 1_565 S
H408 C377 0.977 . S
H409 C379 0.948 . S
H410 C381 0.947 . S
H411 C382 0.948 . S
H412 C388 0.982 . S
H413 C388 0.979 . S
H414 C388 0.977 . S
H415 C389 0.979 . S
H416 C389 0.980 . S
H417 C389 0.983 . S
H418 C362 0.947 . S
C419 C362 1.392 . S
C419 C363 1.419 . S
C419 H401 0.948 . S
C420 C421 1.391 . S
C420 C424 1.391 . S
C420 H462 0.948 . S
C421 C420 1.391 . S
C421 C422 1.391 . S
C422 C421 1.391 . S
C422 H478 0.947 . S
C422 C479 1.392 . S
C423 C424 1.391 . S
C423 C427 1.397 . S
C423 C479 1.419 . S
C424 C420 1.391 . S
C424 C423 1.391 . S
C424 C425 1.399 . S
C425 C424 1.399 . S
C425 C428 1.396 . S
C425 C437 1.453 . S
C425 C438 1.684 . S
H426 C450 0.948 . S
C427 C423 1.397 . S
C427 C428 1.394 . S
C427 C446 1.723 . S
C428 C425 1.396 . S
C428 C427 1.394 . S
C428 C458 1.723 . S
H429 C452 0.947 . S
H430 C453 0.948 . S
H431 C459 0.982 . S
H432 C460 0.979 . S
H433 C460 0.980 . S
H434 C460 0.983 . S
H435 C459 0.979 . S
H436 C459 0.977 . S
C437 C425 1.453 . S
C437 H466 0.982 . S
C437 H467 0.979 . S
C437 H468 0.977 . S
C438 C425 1.684 . S
C438 H463 0.979 . S
C438 H464 0.980 . S
C438 H465 0.983 . S
C439 C440 1.391 . S
C439 C444 1.391 1_556 S
C439 H469 0.948 . S
C440 C439 1.391 . S
C440 C441 1.391 . S
C441 C440 1.391 . S
C441 C442 1.392 1_556 S
C441 H470 0.947 . S
C442 C441 1.392 1_554 S
C442 C443 1.419 . S
C442 H471 0.948 . S
C443 C442 1.419 . S
C443 C444 1.391 . S
C443 C447 1.397 . S
C444 C439 1.391 1_554 S
C444 C443 1.391 . S
C444 C445 1.399 . S
C445 C444 1.399 . S
C445 C446 1.396 . S
C445 C448 1.453 . S
C445 C449 1.684 . S
C446 C427 1.723 . S
C446 C445 1.396 . S
C446 C447 1.394 . S
C447 C443 1.397 . S
C447 C446 1.394 . S
C447 C457 1.723 . S
C448 C445 1.453 . S
C448 H472 0.982 . S
C448 H473 0.979 . S
C448 H474 0.977 . S
C449 C445 1.684 . S
C449 H475 0.979 . S
C449 H476 0.980 . S
C449 H477 0.983 . S
C450 H426 0.948 . S
C450 C451 1.391 . S
C450 C455 1.391 . S
C451 C450 1.391 . S
C451 C452 1.391 . S
C452 H429 0.947 . S
C452 C451 1.391 . S
C452 C453 1.392 . S
C453 H430 0.948 . S
C453 C452 1.392 . S
C453 C454 1.419 . S
C454 C453 1.419 . S
C454 C455 1.391 . S
C454 C458 1.397 . S
C455 C450 1.391 . S
C455 C454 1.391 . S
C455 C456 1.399 . S
C456 C455 1.399 . S
C456 C457 1.396 . S
C456 C459 1.453 . S
C456 C460 1.684 . S
C457 C447 1.723 . S
C457 C456 1.396 . S
C457 C458 1.394 . S
C458 C428 1.723 . S
C458 C454 1.397 . S
C458 C457 1.394 . S
C459 H431 0.982 . S
C459 H435 0.979 . S
C459 H436 0.977 . S
C459 C456 1.453 . S
C460 H432 0.979 . S
C460 H433 0.980 . S
C460 H434 0.983 . S
C460 C456 1.684 . S
H461 C479 0.948 . S
H462 C420 0.948 . S
H463 C438 0.979 . S
H464 C438 0.980 . S
H465 C438 0.983 . S
H466 C437 0.982 . S
H467 C437 0.979 . S
H468 C437 0.977 . S
H469 C439 0.948 . S
H470 C441 0.947 . S
H471 C442 0.948 . S
H472 C448 0.982 . S
H473 C448 0.979 . S
H474 C448 0.977 . S
H475 C449 0.979 . S
H476 C449 0.980 . S
H477 C449 0.983 . S
H478 C422 0.947 . S
C479 C422 1.392 . S
C479 C423 1.419 . S
C479 H461 0.948 . S
C480 C481 1.369 . S
C480 C482 1.419 . S
C480 H484 0.930 . S
C481 C480 1.369 . S
C481 C490 1.429 . S
C482 C480 1.419 . S
C482 C483 1.363 . S
C482 H485 0.929 . S
C483 C482 1.363 . S
C483 C489 1.428 . S
H484 C480 0.930 . S
H485 C482 0.929 . S
S486 N487 1.613 . S
S486 N488 1.610 . S
N487 S486 1.613 . S
N487 C490 1.350 . S
N488 S486 1.610 . S
N488 C489 1.351 . S
C489 C483 1.428 . S
C489 N488 1.351 . S
C489 C490 1.434 . S
C490 C481 1.429 . S
C490 N487 1.350 . S
C490 C489 1.434 . S
C491 C492 1.369 . S
C491 C493 1.419 . S
C491 H495 0.930 . S
C492 C491 1.369 . S
C492 C501 1.429 . S
C493 C491 1.419 . S
C493 C494 1.363 . S
C493 H496 0.929 . S
C494 C493 1.363 . S
C494 C500 1.428 . S
H495 C491 0.930 . S
H496 C493 0.929 . S
S497 N498 1.613 . S
S497 N499 1.610 . S
N498 S497 1.613 . S
N498 C501 1.350 . S
N499 S497 1.610 . S
N499 C500 1.351 . S
C500 C494 1.428 . S
C500 N499 1.351 . S
C500 C501 1.434 . S
C501 C492 1.429 . S
C501 N498 1.350 . S
C501 C500 1.434 . S
C502 C503 1.369 . S
C502 C504 1.419 . S
C502 H506 0.930 . S
C503 C502 1.369 . S
C503 C512 1.429 . S
C504 C502 1.419 . S
C504 C505 1.363 . S
C504 H507 0.929 . S
C505 C504 1.363 . S
C505 C511 1.428 . S
H506 C502 0.930 . S
H507 C504 0.929 . S
S508 N509 1.613 . S
S508 N510 1.610 . S
N509 S508 1.613 . S
N509 C512 1.350 . S
N510 S508 1.610 . S
N510 C511 1.351 . S
C511 C505 1.428 . S
C511 N510 1.351 . S
C511 C512 1.434 . S
C512 C503 1.429 . S
C512 N509 1.350 . S
C512 C511 1.434 . S
C513 C514 1.369 . S
C513 C515 1.419 . S
C513 H517 0.930 . S
C514 C513 1.369 . S
C514 C523 1.429 . S
C515 C513 1.419 . S
C515 C516 1.363 . S
C515 H518 0.929 . S
C516 C515 1.363 . S
C516 C522 1.428 . S
H517 C513 0.930 . S
H518 C515 0.929 . S
S519 N520 1.613 . S
S519 N521 1.610 . S
N520 S519 1.613 . S
N520 C523 1.350 . S
N521 S519 1.610 . S
N521 C522 1.351 . S
C522 C516 1.428 . S
C522 N521 1.351 . S
C522 C523 1.434 . S
C523 C514 1.429 . S
C523 N520 1.350 . S
C523 C522 1.434 . S
C524 C525 1.369 . S
C524 C526 1.419 . S
C524 H528 0.930 . S
C525 C524 1.369 . S
C525 C534 1.429 . S
C526 C524 1.419 . S
C526 C527 1.363 . S
C526 H529 0.929 . S
C527 C526 1.363 . S
C527 C533 1.428 . S
H528 C524 0.930 . S
H529 C526 0.929 . S
S530 N531 1.613 . S
S530 N532 1.610 . S
N531 S530 1.613 . S
N531 C534 1.350 . S
N532 S530 1.610 . S
N532 C533 1.351 . S
C533 C527 1.428 . S
C533 N532 1.351 . S
C533 C534 1.434 . S
C534 C525 1.429 . S
C534 N531 1.350 . S
C534 C533 1.434 . S
C535 C536 1.369 . S
C535 C537 1.419 . S
C535 H539 0.930 . S
C536 C535 1.369 . S
C536 C545 1.429 . S
C537 C535 1.419 . S
C537 C538 1.363 . S
C537 H540 0.929 . S
C538 C537 1.363 . S
C538 C544 1.428 . S
H539 C535 0.930 . S
H540 C537 0.929 . S
S541 N542 1.613 . S
S541 N543 1.610 . S
N542 S541 1.613 . S
N542 C545 1.350 . S
N543 S541 1.610 . S
N543 C544 1.351 . S
C544 C538 1.428 . S
C544 N543 1.351 . S
C544 C545 1.434 . S
C545 C536 1.429 . S
C545 N542 1.350 . S
C545 C544 1.434 . S
C546 C547 1.369 . S
C546 C548 1.419 . S
C546 H550 0.930 . S
C547 C546 1.369 . S
C547 C556 1.429 . S
C548 C546 1.419 . S
C548 C549 1.363 . S
C548 H551 0.929 . S
C549 C548 1.363 . S
C549 C555 1.428 . S
H550 C546 0.930 . S
H551 C548 0.929 . S
S552 N553 1.613 . S
S552 N554 1.610 . S
N553 S552 1.613 . S
N553 C556 1.350 . S
N554 S552 1.610 . S
N554 C555 1.351 . S
C555 C549 1.428 . S
C555 N554 1.351 . S
C555 C556 1.434 . S
C556 C547 1.429 . S
C556 N553 1.350 . S
C556 C555 1.434 . S
C557 C558 1.369 . S
C557 C559 1.419 . S
C557 H561 0.930 . S
C558 C557 1.369 . S
C558 C567 1.429 . S
C559 C557 1.419 . S
C559 C560 1.363 . S
C559 H562 0.929 . S
C560 C559 1.363 . S
C560 C566 1.428 . S
H561 C557 0.930 . S
H562 C559 0.929 . S
S563 N564 1.613 . S
S563 N565 1.610 . S
N564 S563 1.613 . S
N564 C567 1.350 . S
N565 S563 1.610 . S
N565 C566 1.351 . S
C566 C560 1.428 . S
C566 N565 1.351 . S
C566 C567 1.434 . S
C567 C558 1.429 . S
C567 N564 1.350 . S
C567 C566 1.434 . S
C568 C569 1.369 . S
C568 C570 1.419 . S
C568 H572 0.930 . S
C569 C568 1.369 . S
C569 C578 1.429 . S
C570 C568 1.419 . S
C570 C571 1.363 . S
C570 H573 0.929 . S
C571 C570 1.363 . S
C571 C577 1.428 . S
H572 C568 0.930 . S
H573 C570 0.929 . S
S574 N575 1.613 . S
S574 N576 1.610 . S
N575 S574 1.613 . S
N575 C578 1.350 . S
N576 S574 1.610 . S
N576 C577 1.351 . S
C577 C571 1.428 . S
C577 N576 1.351 . S
C577 C578 1.434 . S
C578 C569 1.429 . S
C578 N575 1.350 . S
C578 C577 1.434 . S
C579 C580 1.369 . S
C579 C581 1.419 . S
C579 H583 0.930 . S
C580 C579 1.369 . S
C580 C589 1.429 . S
C581 C579 1.419 . S
C581 C582 1.363 . S
C581 H584 0.929 . S
C582 C581 1.363 . S
C582 C588 1.428 . S
H583 C579 0.930 . S
H584 C581 0.929 . S
S585 N586 1.613 . S
S585 N587 1.610 . S
N586 S585 1.613 . S
N586 C589 1.350 . S
N587 S585 1.610 . S
N587 C588 1.351 . S
C588 C582 1.428 . S
C588 N587 1.351 . S
C588 C589 1.434 . S
C589 C580 1.429 . S
C589 N586 1.350 . S
C589 C588 1.434 . S
C590 C591 1.369 . S
C590 C592 1.419 . S
C590 H594 0.930 . S
C591 C590 1.369 . S
C591 C600 1.429 . S
C592 C590 1.419 . S
C592 C593 1.363 . S
C592 H595 0.929 . S
C593 C592 1.363 . S
C593 C599 1.428 . S
H594 C590 0.930 . S
H595 C592 0.929 . S
S596 N597 1.613 . S
S596 N598 1.610 . S
N597 S596 1.613 . S
N597 C600 1.350 . S
N598 S596 1.610 . S
N598 C599 1.351 . S
C599 C593 1.428 . S
C599 N598 1.351 . S
C599 C600 1.434 . S
C600 C591 1.429 . S
C600 N597 1.350 . S
C600 C599 1.434 . S
C601 C602 1.369 . S
C601 C603 1.419 . S
C601 H605 0.930 . S
C602 C601 1.369 . S
C602 C611 1.429 . S
C603 C601 1.419 . S
C603 C604 1.363 . S
C603 H606 0.929 . S
C604 C603 1.363 . S
C604 C610 1.428 . S
H605 C601 0.930 . S
H606 C603 0.929 . S
S607 N608 1.613 . S
S607 N609 1.610 . S
N608 S607 1.613 . S
N608 C611 1.350 . S
N609 S607 1.610 . S
N609 C610 1.351 . S
C610 C604 1.428 . S
C610 N609 1.351 . S
C610 C611 1.434 . S
C611 C602 1.429 . S
C611 N608 1.350 . S
C611 C610 1.434 . S
C612 C613 1.369 . S
C612 C614 1.419 . S
C612 H616 0.930 . S
C613 C612 1.369 . S
C613 C622 1.429 1_455 S
C614 C612 1.419 . S
C614 C615 1.363 . S
C614 H617 0.929 . S
C615 C614 1.363 . S
C615 C621 1.428 1_455 S
H616 C612 0.930 . S
H617 C614 0.929 . S
S618 N619 1.613 . S
S618 N620 1.610 . S
N619 S618 1.613 . S
N619 C622 1.350 . S
N620 S618 1.610 . S
N620 C621 1.351 . S
C621 C615 1.428 1_655 S
C621 N620 1.351 . S
C621 C622 1.434 . S
C622 C613 1.429 1_655 S
C622 N619 1.350 . S
C622 C621 1.434 . S
C623 C624 1.369 1_565 S
C623 C625 1.419 . S
C623 H627 0.930 . S
C624 C623 1.369 1_545 S
C624 C633 1.429 . S
C625 C623 1.419 . S
C625 C626 1.363 1_565 S
C625 H628 0.929 . S
C626 C625 1.363 1_545 S
C626 C632 1.428 . S
H627 C623 0.930 . S
H628 C625 0.929 . S
S629 N630 1.613 . S
S629 N631 1.610 . S
N630 S629 1.613 . S
N630 C633 1.350 . S
N631 S629 1.610 . S
N631 C632 1.351 . S
C632 C626 1.428 . S
C632 N631 1.351 . S
C632 C633 1.434 . S
C633 C624 1.429 . S
C633 N630 1.350 . S
C633 C632 1.434 . S
C634 C635 1.369 . S
C634 C636 1.419 . S
C634 H638 0.930 . S
C635 C634 1.369 . S
C635 C644 1.429 . S
C636 C634 1.419 . S
C636 C637 1.363 . S
C636 H639 0.929 . S
C637 C636 1.363 . S
C637 C643 1.428 . S
H638 C634 0.930 . S
H639 C636 0.929 . S
S640 N641 1.613 . S
S640 N642 1.610 . S
N641 S640 1.613 . S
N641 C644 1.350 . S
N642 S640 1.610 . S
N642 C643 1.351 . S
C643 C637 1.428 . S
C643 N642 1.351 . S
C643 C644 1.434 . S
C644 C635 1.429 . S
C644 N641 1.350 . S
C644 C643 1.434 . S
C645 C646 1.369 . S
C645 C647 1.419 . S
C645 H649 0.930 . S
C646 C645 1.369 . S
C646 C655 1.429 1_545 S
C647 C645 1.419 . S
C647 C648 1.363 1_545 S
C647 H650 0.929 . S
C648 C647 1.363 1_565 S
C648 C654 1.428 . S
H649 C645 0.930 . S
H650 C647 0.929 . S
S651 N652 1.613 . S
S651 N653 1.610 . S
N652 S651 1.613 . S
N652 C655 1.350 . S
N653 S651 1.610 . S
N653 C654 1.351 . S
C654 C648 1.428 . S
C654 N653 1.351 . S
C654 C655 1.434 . S
C655 C646 1.429 1_565 S
C655 N652 1.350 . S
C655 C654 1.434 . S
C656 C657 1.369 . S
C656 C658 1.419 . S
C656 H660 0.930 . S
C657 C656 1.369 . S
C657 C666 1.429 . S
C658 C656 1.419 . S
C658 C659 1.363 . S
C658 H661 0.929 . S
C659 C658 1.363 . S
C659 C665 1.428 . S
H660 C656 0.930 . S
H661 C658 0.929 . S
S662 N663 1.613 . S
S662 N664 1.610 . S
N663 S662 1.613 . S
N663 C666 1.350 . S
N664 S662 1.610 . S
N664 C665 1.351 . S
C665 C659 1.428 . S
C665 N664 1.351 . S
C665 C666 1.434 . S
C666 C657 1.429 . S
C666 N663 1.350 . S
C666 C665 1.434 . S
C667 C668 1.369 . S
C667 C669 1.419 . S
C667 H671 0.930 . S
C668 C667 1.369 . S
C668 C677 1.429 . S
C669 C667 1.419 . S
C669 C670 1.363 . S
C669 H672 0.929 . S
C670 C669 1.363 . S
C670 C676 1.428 . S
H671 C667 0.930 . S
H672 C669 0.929 . S
S673 N674 1.611 . S
S673 N675 1.606 1_455 S
N674 S673 1.611 . S
N674 C677 1.350 . S
N675 S673 1.606 1_655 S
N675 C676 1.351 1_655 S
C676 C670 1.428 . S
C676 N675 1.351 1_455 S
C676 C677 1.434 . S
C677 C668 1.429 . S
C677 N674 1.350 . S
C677 C676 1.434 . S
C481 C7 0.935 . S
C483 C451 0.995 . S
C492 C51 2.021 . S
C494 C301 1.840 . S
C503 C87 1.362 . S
C505 C361 1.395 . S
C514 C16 0.641 . S
C516 C421 0.589 . S
C527 C331 2.141 . S
C525 C42 2.167 . S
C538 C391 1.393 . S
C536 C96 1.373 . S
C547 C47 1.293 . S
C549 C181 1.277 . S
C558 C91 3.187 . S
C560 C271 3.181 . S
C569 C2 2.196 . S
C571 C151 2.203 . S
C582 C211 1.393 . S
C580 C56 1.356 . S
C593 C241 2.935 . S
C591 C82 3.117 . S
C602 C11 2.014 . S
C604 C121 1.853 . S
C615 C260 1.769 1_554 S
C613 C19 1.734 . S
C624 C50 1.332 . S
C626 C140 1.342 . S
C635 C99 1.461 . S
C637 C200 1.477 . S
C648 C380 1.464 . S
C646 C59 1.456 . S
C659 C440 1.087 . S
C657 C90 1.089 . S
C668 C10 1.323 . S
C670 C320 1.330 . S
