# Generated by pormake.
# Topology zzz, (3,6)-cn, num edge types: 1
# Building blocks:
#     Node 0, Type 0, BuildingBlock: MIDCAF_clean_linker_0, # of connection points: 3
#     Node 1, Type 0, BuildingBlock: MIDCAF_clean_linker_0, # of connection points: 3
#     Node 2, Type 0, BuildingBlock: MIDCAF_clean_linker_0, # of connection points: 3
#     Node 3, Type 0, BuildingBlock: MIDCAF_clean_linker_0, # of connection points: 3
#     Node 4, Type 0, BuildingBlock: MIDCAF_clean_linker_0, # of connection points: 3
#     Node 5, Type 0, BuildingBlock: MIDCAF_clean_linker_0, # of connection points: 3
#     Node 6, Type 0, BuildingBlock: MIDCAF_clean_linker_0, # of connection points: 3
#     Node 7, Type 0, BuildingBlock: MIDCAF_clean_linker_0, # of connection points: 3
#     Node 8, Type 1, BuildingBlock: CUKXOW_clean_sbu_0, # of connection points: 6
#     Node 9, Type 1, BuildingBlock: CUKXOW_clean_sbu_0, # of connection points: 6
#     Node 10, Type 1, BuildingBlock: CUKXOW_clean_sbu_0, # of connection points: 6
#     Node 11, Type 1, BuildingBlock: CUKXOW_clean_sbu_0, # of connection points: 6
#     Edge 12, Type (0, 1), BuildingBlock: XUDNAN_clean_linker_2, # of connection points: 2
#     Edge 13, Type (0, 1), BuildingBlock: XUDNAN_clean_linker_2, # of connection points: 2
#     Edge 14, Type (0, 1), BuildingBlock: XUDNAN_clean_linker_2, # of connection points: 2
#     Edge 15, Type (0, 1), BuildingBlock: XUDNAN_clean_linker_2, # of connection points: 2
#     Edge 16, Type (0, 1), BuildingBlock: XUDNAN_clean_linker_2, # of connection points: 2
#     Edge 17, Type (0, 1), BuildingBlock: XUDNAN_clean_linker_2, # of connection points: 2
#     Edge 18, Type (0, 1), BuildingBlock: XUDNAN_clean_linker_2, # of connection points: 2
#     Edge 19, Type (0, 1), BuildingBlock: XUDNAN_clean_linker_2, # of connection points: 2
#     Edge 20, Type (0, 1), BuildingBlock: XUDNAN_clean_linker_2, # of connection points: 2
#     Edge 21, Type (0, 1), BuildingBlock: XUDNAN_clean_linker_2, # of connection points: 2
#     Edge 22, Type (0, 1), BuildingBlock: XUDNAN_clean_linker_2, # of connection points: 2
#     Edge 23, Type (0, 1), BuildingBlock: XUDNAN_clean_linker_2, # of connection points: 2
#     Edge 24, Type (0, 1), BuildingBlock: XUDNAN_clean_linker_2, # of connection points: 2
#     Edge 25, Type (0, 1), BuildingBlock: XUDNAN_clean_linker_2, # of connection points: 2
#     Edge 26, Type (0, 1), BuildingBlock: XUDNAN_clean_linker_2, # of connection points: 2
#     Edge 27, Type (0, 1), BuildingBlock: XUDNAN_clean_linker_2, # of connection points: 2
#     Edge 28, Type (0, 1), BuildingBlock: XUDNAN_clean_linker_2, # of connection points: 2
#     Edge 29, Type (0, 1), BuildingBlock: XUDNAN_clean_linker_2, # of connection points: 2
#     Edge 30, Type (0, 1), BuildingBlock: XUDNAN_clean_linker_2, # of connection points: 2
#     Edge 31, Type (0, 1), BuildingBlock: XUDNAN_clean_linker_2, # of connection points: 2
#     Edge 32, Type (0, 1), BuildingBlock: XUDNAN_clean_linker_2, # of connection points: 2
#     Edge 33, Type (0, 1), BuildingBlock: XUDNAN_clean_linker_2, # of connection points: 2
#     Edge 34, Type (0, 1), BuildingBlock: XUDNAN_clean_linker_2, # of connection points: 2
#     Edge 35, Type (0, 1), BuildingBlock: XUDNAN_clean_linker_2, # of connection points: 2
# Relax obj value: 0.217
# Max RMSD: 0.232
# Mean RMSD: 0.188
data_MOF--net-zzz--node1-CUKXOW_clean_sbu_0--node2-MIDCAF_clean_linker_0--edge1-XUDNAN_clean_linker_2
_symmetry_space_group_name_H-M    P1
_symmetry_Int_Tables_number       1
_symmetry_cell_setting            triclinic
loop_
_symmetry_equiv_pos_as_xyz
'x, y, z'
_cell_length_a     58.031657
_cell_length_b     56.876863
_cell_length_c     20.45292
_cell_angle_alpha  92.506445
_cell_angle_beta   88.065181
_cell_angle_gamma 95.446225
loop_
_atom_site_label
_atom_site_type_symbol
_atom_site_fract_x
_atom_site_fract_y
_atom_site_fract_z
_atom_type_partial_charge
C0 C 0.81319 0.48262 0.29987 0.0
C1 C 0.805 0.47059 0.35588 0.0
C2 C 0.78317 0.45739 0.35431 0.0
C3 C 0.77064 0.455 0.29644 0.0
H4 H 0.709 0.4778 0.16693 0.0
H5 H 0.67153 0.48741 0.13064 0.0
H6 H 0.68454 0.45324 0.94211 0.0
H7 H 0.72184 0.44337 0.97822 0.0
H8 H 0.78173 0.45183 0.93302 0.0
H9 H 0.81621 0.44992 0.86019 0.0
H10 H 0.85344 0.42476 0.01799 0.0
H11 H 0.8194 0.4262 0.08999 0.0
H12 H 0.80837 0.4884 0.19905 0.0
H13 H 0.83003 0.49261 0.29844 0.0
H14 H 0.77628 0.44808 0.39681 0.0
H15 H 0.75464 0.44355 0.2949 0.0
N16 N 0.74892 0.46087 0.15808 0.0
N17 N 0.75793 0.44848 0.04934 0.0
N18 N 0.78622 0.45099 0.12858 0.0
C19 C 0.74223 0.45582 0.0952 0.0
C20 C 0.77993 0.44576 0.06624 0.0
C21 C 0.77103 0.45847 0.17457 0.0
C22 C 0.7186 0.45995 0.0754 0.0
C23 C 0.70381 0.47208 0.11797 0.0
C24 C 0.68237 0.47772 0.0971 0.0
C25 C 0.67513 0.4712 0.03341 0.0
C26 C 0.68952 0.45834 0.99167 0.0
C27 C 0.71101 0.45283 0.01233 0.0
C28 C 0.79801 0.4396 0.01753 0.0
C29 C 0.79704 0.44519 0.9514 0.0
C30 C 0.8167 0.44415 0.90986 0.0
C31 C 0.83739 0.43755 0.93425 0.0
C32 C 0.8377 0.43016 0.99856 0.0
C33 C 0.8182 0.43105 0.03966 0.0
C34 C 0.77993 0.46565 0.23958 0.0
C35 C 0.80083 0.48012 0.24254 0.0
C36 C 0.89631 0.81061 0.27137 0.0
C37 C 0.91106 0.80444 0.31958 0.0
C38 C 0.92129 0.78299 0.31129 0.0
C39 C 0.91841 0.76909 0.25323 0.0
H40 H 0.93304 0.70229 0.12981 0.0
H41 H 0.93944 0.66141 0.0945 0.0
H42 H 0.9001 0.66801 0.92192 0.0
H43 H 0.89416 0.70859 0.95615 0.0
H44 H 0.93993 0.76705 0.91464 0.0
H45 H 0.9561 0.79782 0.84344 0.0
H46 H 0.91197 0.84678 0.93976 0.0
H47 H 0.89689 0.81619 0.01371 0.0
H48 H 0.88322 0.80296 0.17564 0.0
H49 H 0.8877 0.8267 0.277 0.0
H50 H 0.93278 0.77777 0.34756 0.0
H51 H 0.92775 0.75353 0.24597 0.0
N52 N 0.90893 0.74253 0.12379 0.0
N53 N 0.91336 0.74904 0.01097 0.0
N54 N 0.90852 0.78076 0.08493 0.0
C55 C 0.91155 0.73393 0.06094 0.0
C56 C 0.91192 0.77248 0.02267 0.0
C57 C 0.90698 0.76604 0.13565 0.0
C58 C 0.91317 0.70854 0.04555 0.0
C59 C 0.92549 0.69477 0.08496 0.0
C60 C 0.92926 0.67153 0.06465 0.0
C61 C 0.9202 0.66161 0.00563 0.0
C62 C 0.90708 0.67513 0.96792 0.0
C63 C 0.90378 0.69838 0.98736 0.0
C64 C 0.91742 0.78935 0.97034 0.0
C65 C 0.93331 0.78425 0.91962 0.0
C66 C 0.94254 0.80196 0.87851 0.0
C67 C 0.93572 0.82505 0.88645 0.0
C68 C 0.91822 0.82946 0.93351 0.0
C69 C 0.90939 0.81188 0.97554 0.0
C70 C 0.90538 0.77658 0.2027 0.0
C71 C 0.89362 0.79693 0.21348 0.0
C72 C 0.69863 0.97471 0.37012 0.0
C73 C 0.70413 0.99561 0.40796 0.0
C74 C 0.72401 0.01042 0.38956 0.0
C75 C 0.73643 0.00575 0.331 0.0
H76 H 0.80245 0.99182 0.19423 0.0
H77 H 0.8418 0.99429 0.14783 0.0
H78 H 0.81495 0.99167 0.95304 0.0
H79 H 0.77564 0.98875 0.99905 0.0
H80 H 0.71955 0.98799 0.97735 0.0
H81 H 0.68471 0.98814 0.91213 0.0
H82 H 0.64213 0.98206 0.08909 0.0
H83 H 0.67593 0.98112 0.15262 0.0
H84 H 0.70492 0.95498 0.28103 0.0
H85 H 0.68345 0.96291 0.38182 0.0
H86 H 0.72905 0.02644 0.41814 0.0
H87 H 0.75022 0.01856 0.31489 0.0
N88 N 0.75741 0.98825 0.19492 0.0
N89 N 0.74325 0.98702 0.0877 0.0
N90 N 0.71753 0.98424 0.17785 0.0
C91 C 0.76154 0.98847 0.12859 0.0
C92 C 0.72113 0.98499 0.11236 0.0
C93 C 0.73523 0.98585 0.21939 0.0
C94 C 0.7857 0.99015 0.10063 0.0
C95 C 0.80487 0.99174 0.14149 0.0
C96 C 0.82751 0.99325 0.11483 0.0
C97 C 0.83163 0.99319 0.04658 0.0
C98 C 0.81248 0.99143 0.00574 0.0
C99 C 0.78986 0.98995 0.03234 0.0
C100 C 0.70068 0.98441 0.0703 0.0
C101 C 0.70269 0.98642 0.00193 0.0
C102 C 0.68277 0.98664 0.96467 0.0
C103 C 0.66059 0.98474 0.99525 0.0
C104 C 0.6588 0.98286 0.06343 0.0
C105 C 0.67842 0.98254 0.10017 0.0
C106 C 0.72916 0.9862 0.2901 0.0
C107 C 0.71097 0.97012 0.31197 0.0
C108 C 0.58002 0.65451 0.08611 0.0
C109 C 0.56788 0.65515 0.02806 0.0
C110 C 0.56678 0.67688 0.99895 0.0
C111 C 0.57567 0.69785 0.03074 0.0
H112 H 0.55474 0.76294 0.05509 0.0
H113 H 0.55004 0.79687 0.99042 0.0
H114 H 0.59633 0.8407 0.11528 0.0
H115 H 0.60141 0.80623 0.18097 0.0
H116 H 0.56683 0.74917 0.34058 0.0
H117 H 0.56356 0.72944 0.44518 0.0
H118 H 0.62598 0.69613 0.39411 0.0
H119 H 0.62917 0.71591 0.29101 0.0
H120 H 0.597 0.67437 0.1645 0.0
H121 H 0.58156 0.63789 0.10876 0.0
H122 H 0.55755 0.67786 0.95412 0.0
H123 H 0.5732 0.71443 0.00907 0.0
N124 N 0.58474 0.7402 0.11091 0.0
N125 N 0.59008 0.75868 0.21523 0.0
N126 N 0.59527 0.71834 0.19681 0.0
C127 C 0.58499 0.75992 0.15083 0.0
C128 C 0.5955 0.73772 0.23796 0.0
C129 C 0.58988 0.71937 0.13327 0.0
C130 C 0.57876 0.78186 0.12249 0.0
C131 C 0.56367 0.77985 0.06976 0.0
C132 C 0.5609 0.79924 0.03274 0.0
C133 C 0.57303 0.82116 0.04766 0.0
C134 C 0.58681 0.82385 0.10319 0.0
C135 C 0.58965 0.80423 0.14068 0.0
C136 C 0.59828 0.73406 0.30801 0.0
C137 C 0.58043 0.73858 0.35351 0.0
C138 C 0.57839 0.72698 0.41288 0.0
C139 C 0.59428 0.71087 0.42767 0.0
C140 C 0.61349 0.70848 0.38491 0.0
C141 C 0.61538 0.71987 0.32566 0.0
C142 C 0.58578 0.69739 0.09223 0.0
C143 C 0.58892 0.67543 0.11788 0.0
C144 C 0.20015 0.54356 0.11179 0.0
C145 C 0.20856 0.55237 0.05165 0.0
C146 C 0.2308 0.56467 0.04821 0.0
C147 C 0.24401 0.5687 0.10461 0.0
H148 H 0.3043 0.53834 0.22776 0.0
H149 H 0.34033 0.52401 0.26171 0.0
H150 H 0.3404 0.5714 0.43254 0.0
H151 H 0.30469 0.58577 0.39873 0.0
H152 H 0.24195 0.56031 0.45818 0.0
H153 H 0.20771 0.55216 0.52937 0.0
H154 H 0.1698 0.59662 0.41536 0.0
H155 H 0.20377 0.6043 0.34296 0.0
H156 H 0.20567 0.54169 0.21401 0.0
H157 H 0.183 0.53432 0.11635 0.0
H158 H 0.23768 0.57163 0.00236 0.0
H159 H 0.26074 0.57886 0.10155 0.0
N160 N 0.26881 0.5647 0.23663 0.0
N161 N 0.26401 0.57592 0.34816 0.0
N162 N 0.23292 0.57533 0.27836 0.0
C163 C 0.27784 0.5689 0.29728 0.0
C164 C 0.24162 0.57948 0.33872 0.0
C165 C 0.24626 0.56805 0.2272 0.0
C166 C 0.30151 0.56303 0.31087 0.0
C167 C 0.3123 0.54607 0.27175 0.0
C168 C 0.33283 0.53773 0.29142 0.0
C169 C 0.34311 0.54644 0.35004 0.0
C170 C 0.33304 0.56443 0.38689 0.0
C171 C 0.31246 0.57256 0.36768 0.0
C172 C 0.2253 0.58258 0.39448 0.0
C173 C 0.22672 0.56934 0.45032 0.0
C174 C 0.20715 0.56466 0.49109 0.0
C175 C 0.18623 0.57367 0.47728 0.0
C176 C 0.18584 0.58965 0.42714 0.0
C177 C 0.20522 0.59393 0.38557 0.0
C178 C 0.23485 0.56095 0.16517 0.0
C179 C 0.21307 0.54794 0.16786 0.0
C180 C 0.078 0.19816 0.06154 0.0
C181 C 0.09853 0.19655 0.02374 0.0
C182 C 0.11856 0.211 0.0419 0.0
C183 C 0.1184 0.22546 0.09923 0.0
H184 H 0.08202 0.30073 0.22695 0.0
H185 H 0.0781 0.34105 0.27141 0.0
H186 H 0.11624 0.32657 0.44045 0.0
H187 H 0.11986 0.28652 0.39684 0.0
H188 H 0.0701 0.22981 0.43087 0.0
H189 H 0.05576 0.19842 0.5027 0.0
H190 H 0.09742 0.15016 0.3933 0.0
H191 H 0.11036 0.18131 0.31886 0.0
H192 H 0.06233 0.21193 0.14953 0.0
H193 H 0.06235 0.18705 0.04983 0.0
H194 H 0.1346 0.21025 0.01358 0.0
H195 H 0.13437 0.23519 0.11479 0.0
N196 N 0.10101 0.25799 0.22386 0.0
N197 N 0.09791 0.24895 0.33527 0.0
N198 N 0.09689 0.21845 0.25483 0.0
C199 C 0.10052 0.26527 0.2883 0.0
C200 C 0.09621 0.22554 0.3188 0.0
C201 C 0.09937 0.23446 0.20734 0.0
C202 C 0.10118 0.29054 0.30861 0.0
C203 C 0.08995 0.3064 0.27289 0.0
C204 C 0.08757 0.32935 0.29848 0.0
C205 C 0.09685 0.33687 0.35934 0.0
C206 C 0.10909 0.32133 0.39318 0.0
C207 C 0.11107 0.29837 0.36835 0.0
C208 C 0.09109 0.20785 0.36899 0.0
C209 C 0.07645 0.21256 0.42297 0.0
C210 C 0.06832 0.19452 0.46438 0.0
C211 C 0.0751 0.1715 0.45348 0.0
C212 C 0.09118 0.16739 0.40211 0.0
C213 C 0.09881 0.18528 0.35975 0.0
C214 C 0.09826 0.22554 0.13903 0.0
C215 C 0.07793 0.21239 0.11876 0.0
C216 C 0.32302 0.03125 0.98903 0.0
C217 C 0.3176 0.00973 0.95393 0.0
C218 C 0.29787 0.99511 0.97445 0.0
C219 C 0.28548 0.0007 0.03242 0.0
H220 H 0.21916 0.00955 0.16635 0.0
H221 H 0.17987 0.00393 0.21305 0.0
H222 H 0.20658 0.01589 0.40739 0.0
H223 H 0.24569 0.02189 0.36111 0.0
H224 H 0.30187 0.02293 0.38265 0.0
H225 H 0.33678 0.02343 0.44716 0.0
H226 H 0.37896 0.0381 0.27259 0.0
H227 H 0.34488 0.03902 0.2106 0.0
H228 H 0.31661 0.05254 0.07517 0.0
H229 H 0.33807 0.04298 0.97569 0.0
H230 H 0.29285 0.97862 0.94796 0.0
H231 H 0.27175 0.98812 0.05016 0.0
N232 N 0.26417 0.01875 0.16551 0.0
N233 N 0.27803 0.02399 0.27297 0.0
N234 N 0.30379 0.02736 0.18305 0.0
C235 C 0.25989 0.01973 0.23183 0.0
C236 C 0.30008 0.0278 0.24862 0.0
C237 C 0.28627 0.02289 0.14119 0.0
C238 C 0.23577 0.01614 0.25972 0.0
C239 C 0.2167 0.01102 0.21904 0.0
C240 C 0.19412 0.0077 0.24589 0.0
C241 C 0.18997 0.00948 0.3141 0.0
C242 C 0.20902 0.01473 0.35466 0.0
C243 C 0.23156 0.01799 0.32792 0.0
C244 C 0.32046 0.03072 0.29124 0.0
C245 C 0.31865 0.02677 0.35872 0.0
C246 C 0.33869 0.02686 0.39552 0.0
C247 C 0.36086 0.03081 0.36542 0.0
C248 C 0.3624 0.03554 0.29848 0.0
C249 C 0.3426 0.03574 0.2623 0.0
C250 C 0.29263 0.02099 0.07066 0.0
C251 C 0.31069 0.03677 0.04651 0.0
C252 C 0.4284 0.34183 0.36996 0.0
C253 C 0.44679 0.33741 0.40965 0.0
C254 C 0.45283 0.31407 0.41179 0.0
C255 C 0.44109 0.29581 0.3751 0.0
H256 H 0.41047 0.22574 0.38466 0.0
H257 H 0.41961 0.18775 0.41834 0.0
H258 H 0.41723 0.16087 0.2174 0.0
H259 H 0.40899 0.19978 0.18284 0.0
H260 H 0.42918 0.2554 0.07603 0.0
H261 H 0.43479 0.27637 0.97444 0.0
H262 H 0.37804 0.31766 0.03232 0.0
H263 H 0.37377 0.29771 0.1357 0.0
H264 H 0.40347 0.32758 0.3 0.0
H265 H 0.4228 0.35939 0.36791 0.0
H266 H 0.46723 0.30982 0.43992 0.0
H267 H 0.4467 0.27822 0.37682 0.0
N268 N 0.41335 0.25864 0.30491 0.0
N269 N 0.40351 0.24568 0.19809 0.0
N270 N 0.40833 0.28635 0.22697 0.0
C271 C 0.40798 0.24062 0.26074 0.0
C272 C 0.40321 0.26862 0.18164 0.0
C273 C 0.41361 0.28145 0.28857 0.0
C274 C 0.40947 0.21605 0.28071 0.0
C275 C 0.41164 0.21176 0.34735 0.0
C276 C 0.41661 0.18971 0.36698 0.0
C277 C 0.41935 0.17113 0.32068 0.0
C278 C 0.41564 0.1749 0.25431 0.0
C279 C 0.41076 0.19716 0.23449 0.0
C280 C 0.40112 0.27507 0.11341 0.0
C281 C 0.41743 0.26839 0.06571 0.0
C282 C 0.42062 0.2805 0.00743 0.0
C283 C 0.40727 0.29924 0.99557 0.0
C284 C 0.3892 0.30394 0.04058 0.0
C285 C 0.38646 0.29228 0.09941 0.0
C286 C 0.42345 0.30044 0.33361 0.0
C287 C 0.41708 0.32358 0.33157 0.0
Tb288 Tb 0.99585 0.97972 0.63848 0.0
C289 C 0.04582 0.99632 0.58559 0.0
Tb290 Tb 0.02735 0.01433 0.72566 0.0
O291 O 0.99119 0.00774 0.57089 0.0
O292 O 0.99785 0.01558 0.66899 0.0
O293 O 0.02915 0.97854 0.5861 0.0
C294 C 0.0525 0.05239 0.77461 0.0
O295 O 0.04672 0.01379 0.63124 0.0
C296 C 0.02634 0.96936 0.7492 0.0
C297 C 0.97675 0.99839 0.77916 0.0
O298 O 0.05912 0.03117 0.76987 0.0
O299 O 0.03179 0.05197 0.75269 0.0
O300 O 0.02987 0.98611 0.79415 0.0
O301 O 0.02542 0.97845 0.69465 0.0
O302 O 0.99567 0.01336 0.78625 0.0
O303 O 0.97364 0.98354 0.72719 0.0
C304 C 0.97108 0.94074 0.59318 0.0
O305 O 0.97912 0.94401 0.6515 0.0
O306 O 0.97675 0.95957 0.56036 0.0
C307 C 0.99592 0.02457 0.61477 0.0
Tb308 Tb 0.50604 0.02569 0.64895 0.0
C309 C 0.55556 0.00783 0.63198 0.0
Tb310 Tb 0.5132 0.97559 0.69689 0.0
O311 O 0.52863 0.04322 0.72433 0.0
O312 O 0.51092 0.0101 0.73763 0.0
O313 O 0.54128 0.02289 0.61263 0.0
C314 C 0.52822 0.93978 0.75813 0.0
O315 O 0.54865 0.98961 0.66885 0.0
C316 C 0.49253 0.97719 0.58513 0.0
C317 C 0.46427 0.99404 0.7194 0.0
O318 O 0.52929 0.94227 0.69522 0.0
O319 O 0.51812 0.9571 0.78625 0.0
O320 O 0.4889 0.95946 0.62352 0.0
O321 O 0.50844 0.99131 0.60822 0.0
O322 O 0.47876 0.97913 0.73867 0.0
O323 O 0.47077 0.01177 0.68015 0.0
C324 C 0.49273 0.05807 0.57126 0.0
O325 O 0.48618 0.05596 0.6324 0.0
O326 O 0.50715 0.04263 0.55552 0.0
C327 C 0.52616 0.02495 0.76123 0.0
Tb328 Tb 0.51819 0.52355 0.66847 0.0
C329 C 0.46963 0.50473 0.61465 0.0
Tb330 Tb 0.49179 0.47894 0.72906 0.0
O331 O 0.52402 0.5026 0.5768 0.0
O332 O 0.52086 0.48696 0.66657 0.0
O333 O 0.48483 0.52348 0.62325 0.0
C334 C 0.47078 0.43631 0.755 0.0
O335 O 0.47055 0.48484 0.6459 0.0
C336 C 0.48827 0.51849 0.79752 0.0
C337 C 0.53897 0.499 0.78738 0.0
O338 O 0.46496 0.45632 0.77996 0.0
O339 O 0.48846 0.44026 0.71524 0.0
O340 O 0.48535 0.4977 0.82189 0.0
O341 O 0.49024 0.51611 0.7359 0.0
O342 O 0.52506 0.4794 0.77564 0.0
O343 O 0.53711 0.51906 0.75754 0.0
C344 C 0.53938 0.56602 0.6407 0.0
O345 O 0.54969 0.5476 0.65398 0.0
O346 O 0.51717 0.56054 0.64302 0.0
C347 C 0.52277 0.48275 0.60625 0.0
Tb348 Tb 0.99008 0.4943 0.63982 0.0
C349 C 0.03386 0.46638 0.61764 0.0
Tb350 Tb 0.03118 0.50606 0.73326 0.0
O351 O 0.0103 0.50873 0.55674 0.0
O352 O 0.01769 0.52112 0.65145 0.0
O353 O 0.01127 0.46609 0.60761 0.0
C354 C 0.07188 0.52072 0.78553 0.0
O355 O 0.0451 0.48177 0.65918 0.0
C356 C 0.99659 0.47707 0.77626 0.0
C357 C 0.98669 0.53193 0.76008 0.0
O358 O 0.06058 0.50013 0.79318 0.0
O359 O 0.06031 0.53294 0.74823 0.0
O360 O 0.00968 0.49093 0.81482 0.0
O361 O 0.00446 0.47892 0.71873 0.0
O362 O 0.00941 0.53333 0.76768 0.0
O363 O 0.97576 0.51638 0.71867 0.0
C364 C 0.94826 0.48283 0.59085 0.0
O365 O 0.95978 0.50351 0.58902 0.0
O366 O 0.96054 0.46844 0.61877 0.0
C367 C 0.02491 0.52194 0.59253 0.0
H368 H 0.17009 0.03351 0.41858 0.0
H369 H 0.15565 0.97555 0.27621 0.0
H370 H 0.11664 0.96731 0.32658 0.0
H371 H 0.14201 0.00501 0.55481 0.0
H372 H 0.13078 0.03129 0.59047 0.0
H373 H 0.15704 0.03365 0.54082 0.0
H374 H 0.13915 0.06207 0.46507 0.0
H375 H 0.11302 0.05991 0.5154 0.0
H376 H 0.11169 0.05299 0.42866 0.0
H377 H 0.08 0.96381 0.39625 0.0
H378 H 0.04822 0.96569 0.47889 0.0
H379 H 0.08622 0.02601 0.57631 0.0
C380 C 0.15874 0.01909 0.39786 0.0
C381 C 0.16602 0.00523 0.34308 0.0
C382 C 0.15044 0.98668 0.31736 0.0
C383 C 0.12825 0.98177 0.34589 0.0
C384 C 0.12174 0.99563 0.40004 0.0
C385 C 0.13647 0.01399 0.42562 0.0
C386 C 0.12541 0.02581 0.48518 0.0
C387 C 0.13966 0.02381 0.54643 0.0
C388 C 0.12212 0.05173 0.47279 0.0
C389 C 0.10231 0.01096 0.48976 0.0
C390 C 0.10053 0.99371 0.44001 0.0
C391 C 0.08114 0.97735 0.43516 0.0
C392 C 0.06318 0.97854 0.48255 0.0
C393 C 0.06463 0.99597 0.53437 0.0
C394 C 0.08445 0.01252 0.53732 0.0
H395 H 0.40982 0.14774 0.43556 0.0
H396 H 0.45094 0.14542 0.25429 0.0
H397 H 0.47171 0.11382 0.29639 0.0
H398 H 0.455 0.14392 0.53779 0.0
H399 H 0.43922 0.12569 0.5973 0.0
H400 H 0.42414 0.14475 0.54929 0.0
H401 H 0.39661 0.10905 0.5086 0.0
H402 H 0.41141 0.08974 0.55693 0.0
H403 H 0.40854 0.08359 0.4703 0.0
H404 H 0.49179 0.08695 0.36253 0.0
H405 H 0.50828 0.06427 0.44654 0.0
H406 H 0.45561 0.08484 0.58759 0.0
C407 C 0.42289 0.1403 0.40413 0.0
C408 C 0.42863 0.14914 0.34133 0.0
C409 C 0.4458 0.13875 0.30188 0.0
C410 C 0.45787 0.12086 0.32561 0.0
C411 C 0.45254 0.11344 0.38879 0.0
C412 C 0.43526 0.12257 0.42731 0.0
C413 C 0.43437 0.11298 0.49555 0.0
C414 C 0.43843 0.13303 0.54805 0.0
C415 C 0.41137 0.09794 0.5086 0.0
C416 C 0.45449 0.0978 0.49008 0.0
C417 C 0.46449 0.0981 0.42775 0.0
C418 C 0.48394 0.08633 0.41124 0.0
C419 C 0.49328 0.07367 0.45944 0.0
C420 C 0.48328 0.07297 0.52349 0.0
C421 C 0.46364 0.08521 0.53903 0.0
H422 H 0.38201 0.56881 0.40662 0.0
H423 H 0.34847 0.49934 0.35518 0.0
H424 H 0.37864 0.48089 0.41179 0.0
H425 H 0.44223 0.55222 0.39239 0.0
H426 H 0.45128 0.5714 0.46113 0.0
H427 H 0.42843 0.57894 0.41065 0.0
H428 H 0.40134 0.58167 0.51353 0.0
H429 H 0.424 0.57393 0.56416 0.0
H430 H 0.39631 0.55664 0.56499 0.0
H431 H 0.40971 0.47023 0.48499 0.0
H432 H 0.4412 0.46808 0.56213 0.0
H433 H 0.45513 0.54444 0.5634 0.0
C434 C 0.38124 0.54971 0.40638 0.0
C435 C 0.36295 0.5355 0.37622 0.0
C436 C 0.36252 0.51056 0.377 0.0
C437 C 0.3795 0.49993 0.4094 0.0
C438 C 0.39694 0.51447 0.44013 0.0
C439 C 0.39813 0.53881 0.43807 0.0
C440 C 0.4181 0.55045 0.4773 0.0
C441 C 0.43608 0.56405 0.43269 0.0
C442 C 0.40941 0.56662 0.53331 0.0
C443 C 0.42754 0.52888 0.50326 0.0
C444 C 0.41513 0.50829 0.4812 0.0
C445 C 0.41978 0.48622 0.50174 0.0
C446 C 0.43765 0.48518 0.54576 0.0
C447 C 0.45079 0.50605 0.56833 0.0
C448 C 0.44564 0.52813 0.54638 0.0
H449 H 0.05532 0.35577 0.37591 0.0
H450 H 0.12836 0.36959 0.41605 0.0
H451 H 0.1203 0.40554 0.48188 0.0
H452 H 0.04283 0.41849 0.36833 0.0
H453 H 0.01478 0.41292 0.40818 0.0
H454 H 0.02673 0.38994 0.35797 0.0
H455 H 0.0217 0.36213 0.45549 0.0
H456 H 0.01005 0.38508 0.50621 0.0
H457 H 0.03484 0.37146 0.53213 0.0
H458 H 0.10402 0.43771 0.55058 0.0
H459 H 0.08087 0.46491 0.6154 0.0
H460 H 0.01804 0.43009 0.53187 0.0
C461 C 0.06967 0.36679 0.39695 0.0
C462 C 0.0925 0.36009 0.39053 0.0
C463 C 0.11078 0.3745 0.42037 0.0
C464 C 0.10636 0.39493 0.45768 0.0
C465 C 0.08358 0.40069 0.46464 0.0
C466 C 0.06554 0.38717 0.43476 0.0
C467 C 0.04247 0.3964 0.45368 0.0
C468 C 0.03103 0.40495 0.39345 0.0
C469 C 0.02632 0.37765 0.48898 0.0
C470 C 0.05032 0.4169 0.49995 0.0
C471 C 0.07411 0.41915 0.50512 0.0
C472 C 0.08539 0.43625 0.54654 0.0
C473 C 0.07202 0.45154 0.58352 0.0
C474 C 0.04757 0.44964 0.57906 0.0
C475 C 0.03667 0.43208 0.53642 0.0
H476 H 0.84911 0.9703 0.93622 0.0
H477 H 0.86884 0.02197 0.09174 0.0
H478 H 0.90841 0.0272 0.04347 0.0
H479 H 0.9043 0.94411 0.92125 0.0
H480 H 0.90322 0.94019 0.83344 0.0
H481 H 0.87675 0.9394 0.88228 0.0
H482 H 0.86287 0.97261 0.81469 0.0
H483 H 0.8893 0.97347 0.7658 0.0
H484 H 0.88093 3e-05 0.80768 0.0
H485 H 0.94531 0.0284 0.97564 0.0
H486 H 0.97696 0.02552 0.89327 0.0
H487 H 0.93356 0.97318 0.78066 0.0
C488 C 0.86174 0.98272 0.96021 0.0
C489 C 0.85577 0.99565 0.01816 0.0
C490 C 0.87297 0.01155 0.04808 0.0
C491 C 0.89552 0.01474 0.02081 0.0
C492 C 0.90074 0.00184 0.96362 0.0
C493 C 0.88439 0.98608 0.93371 0.0
C494 C 0.8944 0.97488 0.87159 0.0
C495 C 0.89469 0.94805 0.87753 0.0
C496 C 0.88108 0.9806 0.81139 0.0
C497 C 0.91877 0.98719 0.87055 0.0
C498 C 0.92208 0.00254 0.92436 0.0
C499 C 0.94295 0.01635 0.93348 0.0
C500 C 0.96085 0.01459 0.88618 0.0
C501 C 0.95786 0.99917 0.83007 0.0
C502 C 0.93651 0.98514 0.82283 0.0
H503 H 0.55339 0.86331 0.06211 0.0
H504 H 0.59131 0.82004 0.92497 0.0
H505 H 0.58603 0.84732 0.83711 0.0
H506 H 0.51109 0.87537 0.9551 0.0
H507 H 0.50889 0.90555 0.98347 0.0
H508 H 0.51817 0.88459 0.03806 0.0
H509 H 0.55548 0.91186 0.05971 0.0
H510 H 0.54676 0.93306 0.00466 0.0
H511 H 0.57435 0.92111 0.99201 0.0
H512 H 0.57282 0.87601 0.76188 0.0
H513 H 0.55459 0.90645 0.70449 0.0
H514 H 0.52547 0.93191 0.88949 0.0
C515 C 0.56116 0.86013 0.01403 0.0
C516 C 0.573 0.83988 1.00002 0.0
C517 C 0.58241 0.8357 0.93633 0.0
C518 C 0.57946 0.85103 0.88626 0.0
C519 C 0.5671 0.87049 0.90081 0.0
C520 C 0.5583 0.8753 0.9632 0.0
C521 C 0.54447 0.89665 0.96434 0.0
C522 C 0.51916 0.89014 0.98655 0.0
C523 C 0.55595 0.91689 0.00775 0.0
C524 C 0.54629 0.90255 0.89262 0.0
C525 C 0.55953 0.88728 0.85701 0.0
C526 C 0.56269 0.8883 0.78931 0.0
C527 C 0.55216 0.90552 0.75709 0.0
C528 C 0.53866 0.92142 0.79262 0.0
C529 C 0.53579 0.91997 0.86125 0.0
H530 H 0.64217 0.44521 0.95983 0.0
H531 H 0.65914 0.51481 0.05065 0.0
H532 H 0.62453 0.52876 0.00352 0.0
H533 H 0.62358 0.46447 0.81093 0.0
H534 H 0.60034 0.44133 0.80108 0.0
H535 H 0.62533 0.43624 0.84638 0.0
H536 H 0.59885 0.42471 0.94672 0.0
H537 H 0.57374 0.42972 0.90162 0.0
H538 H 0.57892 0.44496 0.97962 0.0
H539 H 0.59022 0.53614 0.93851 0.0
H540 H 0.55756 0.53584 0.86384 0.0
H541 H 0.56236 0.46136 0.81687 0.0
C542 C 0.63848 0.46333 0.97025 0.0
C543 C 0.65331 0.4789 0.00916 0.0
C544 C 0.64785 0.50246 0.02184 0.0
C545 C 0.62828 0.51058 0.99503 0.0
C546 C 0.61422 0.49486 0.95615 0.0
C547 C 0.61893 0.47167 0.94425 0.0
C548 C 0.60146 0.45863 0.89895 0.0
C549 C 0.6134 0.44965 0.83559 0.0
C550 C 0.58741 0.4383 0.93383 0.0
C551 C 0.58654 0.47827 0.88595 0.0
C552 C 0.59417 0.49902 0.91953 0.0
C553 C 0.58395 0.51994 0.91253 0.0
C554 C 0.56554 0.51966 0.86975 0.0
C555 C 0.55751 0.49862 0.83479 0.0
C556 C 0.56796 0.47761 0.84376 0.0
H557 H 0.96275 0.64484 0.98931 0.0
H558 H 0.88956 0.62558 0.96133 0.0
H559 H 0.89866 0.58849 0.90279 0.0
H560 H 0.98128 0.62627 0.83483 0.0
H561 H 0.00757 0.61507 0.85941 0.0
H562 H 0.99539 0.63828 0.90779 0.0
H563 H 0.99405 0.61301 0.01048 0.0
H564 H 0.00652 0.5898 0.96255 0.0
H565 H 0.9795 0.58355 0.00732 0.0
H566 H 0.91571 0.55608 0.8373 0.0
H567 H 0.93945 0.52965 0.7716 0.0
H568 H 0.00192 0.56995 0.84072 0.0
C569 C 0.94865 0.63239 0.97276 0.0
C570 C 0.92544 0.63785 0.98033 0.0
C571 C 0.90743 0.62158 0.9562 0.0
C572 C 0.91243 0.6005 0.92305 0.0
C573 C 0.93554 0.59596 0.9145 0.0
C574 C 0.95337 0.61132 0.93908 0.0
C575 C 0.97677 0.60318 0.9184 0.0
C576 C 0.99108 0.62181 0.87769 0.0
C577 C 0.98999 0.59702 0.97826 0.0
C578 C 0.96929 0.58124 0.87688 0.0
C579 C 0.94544 0.5773 0.87586 0.0
C580 C 0.9344 0.55884 0.83829 0.0
C581 C 0.94809 0.54399 0.80077 0.0
C582 C 0.9726 0.54769 0.80083 0.0
C583 C 0.98325 0.56651 0.83991 0.0
H584 H 0.06431 0.12541 0.41011 0.0
H585 H 0.06019 0.17214 0.58333 0.0
H586 H 0.03774 0.14004 0.64146 0.0
H587 H 0.00954 0.09509 0.42199 0.0
H588 H 0.01858 0.06649 0.39736 0.0
H589 H 0.0348 0.09286 0.36911 0.0
H590 H 0.07238 0.08006 0.417 0.0
H591 H 0.05635 0.05335 0.44383 0.0
H592 H 0.07234 0.07267 0.50182 0.0
H593 H 0.01392 0.10343 0.67873 0.0
H594 H 0.99438 0.06344 0.69622 0.0
H595 H 0.01684 0.04035 0.50165 0.0
C596 C 0.0593 0.12891 0.46077 0.0
C597 C 0.06395 0.15155 0.49166 0.0
C598 C 0.05647 0.1552 0.5578 0.0
C599 C 0.04382 0.13702 0.5915 0.0
C600 C 0.03914 0.11518 0.55885 0.0
C601 C 0.04708 0.11091 0.49546 0.0
C602 C 0.0401 0.08574 0.47173 0.0
C603 C 0.02485 0.08502 0.41149 0.0
C604 C 0.06156 0.07216 0.45776 0.0
C605 C 0.02643 0.07669 0.53111 0.0
C606 C 0.02605 0.09393 0.58087 0.0
C607 C 0.01434 0.08972 0.64039 0.0
C608 C 0.00333 0.06706 0.64989 0.0
C609 C 0.00447 0.04897 0.60058 0.0
C610 C 0.01567 0.05398 0.53998 0.0
H611 H 0.36768 0.00034 0.4638 0.0
H612 H 0.40347 0.05582 0.34841 0.0
H613 H 0.44072 0.04572 0.38716 0.0
H614 H 0.40779 0.01221 0.60469 0.0
H615 H 0.4053 0.98142 0.62377 0.0
H616 H 0.38136 0.99386 0.58873 0.0
H617 H 0.38108 0.96134 0.49568 0.0
H618 H 0.40561 0.94947 0.52921 0.0
H619 H 0.40693 0.95849 0.44565 0.0
H620 H 0.47396 0.02524 0.42215 0.0
H621 H 0.5019 0.00456 0.48149 0.0
H622 H 0.44521 0.9664 0.58727 0.0
C623 C 0.38321 0.01085 0.44793 0.0
C624 C 0.38252 0.0283 0.40082 0.0
C625 C 0.40346 0.04161 0.38194 0.0
C626 C 0.42478 0.03612 0.40395 0.0
C627 C 0.4249 0.0178 0.44669 0.0
C628 C 0.4047 0.00609 0.47102 0.0
C629 C 0.4099 0.98781 0.51907 0.0
C630 C 0.40054 0.99422 0.58816 0.0
C631 C 0.40031 0.9628 0.49598 0.0
C632 C 0.43616 0.99053 0.51571 0.0
C633 C 0.44434 0.00768 0.47272 0.0
C634 C 0.46784 0.01245 0.45791 0.0
C635 C 0.48353 0.00056 0.49142 0.0
C636 C 0.47566 0.98456 0.53998 0.0
C637 C 0.45165 0.97874 0.55057 0.0
H638 H 0.45579 0.3844 0.37781 0.0
H639 H 0.46815 0.3353 0.52738 0.0
H640 H 0.49346 0.3663 0.58309 0.0
H641 H 0.51134 0.41827 0.37486 0.0
H642 H 0.49956 0.44629 0.36908 0.0
H643 H 0.48414 0.41968 0.3358 0.0
H644 H 0.44781 0.42824 0.40602 0.0
H645 H 0.46287 0.4549 0.43985 0.0
H646 H 0.44998 0.4326 0.49343 0.0
H647 H 0.51812 0.40176 0.62148 0.0
H648 H 0.53338 0.44223 0.65565 0.0
H649 H 0.50121 0.46992 0.49066 0.0
C650 C 0.46357 0.38005 0.42251 0.0
C651 C 0.46036 0.35694 0.44666 0.0
C652 C 0.47099 0.3524 0.50577 0.0
C653 C 0.48539 0.36996 0.53816 0.0
C654 C 0.48864 0.3922 0.51188 0.0
C655 C 0.47753 0.39755 0.4566 0.0
C656 C 0.48207 0.4236 0.4428 0.0
C657 C 0.49505 0.42715 0.3767 0.0
C658 C 0.45934 0.43555 0.44574 0.0
C659 C 0.49738 0.43201 0.49936 0.0
C660 C 0.50143 0.4134 0.53738 0.0
C661 C 0.51497 0.41652 0.59245 0.0
C662 C 0.52361 0.4395 0.61128 0.0
C663 C 0.51821 0.45898 0.57605 0.0
C664 C 0.50567 0.4552 0.51804 0.0
H665 H 0.15082 0.59218 0.55072 0.0
H666 H 0.17166 0.52816 0.4522 0.0
H667 H 0.13259 0.5083 0.47188 0.0
H668 H 0.11454 0.56125 0.67719 0.0
H669 H 0.09286 0.58214 0.67991 0.0
H670 H 0.12262 0.59171 0.65936 0.0
H671 H 0.11021 0.60774 0.55111 0.0
H672 H 0.08037 0.59832 0.57088 0.0
H673 H 0.09348 0.58832 0.49479 0.0
H674 H 0.09052 0.49821 0.48322 0.0
H675 H 0.04892 0.49386 0.51151 0.0
H676 H 0.05562 0.56079 0.62247 0.0
C677 C 0.14717 0.57383 0.53489 0.0
C678 C 0.16415 0.56151 0.50061 0.0
C679 C 0.15889 0.53765 0.47954 0.0
C680 C 0.13674 0.52633 0.48989 0.0
C681 C 0.12021 0.53901 0.52251 0.0
C682 C 0.1252 0.56195 0.5465 0.0
C683 C 0.10412 0.5711 0.5813 0.0
C684 C 0.10881 0.5769 0.65385 0.0
C685 C 0.09661 0.59265 0.54748 0.0
C686 C 0.08652 0.54977 0.57235 0.0
C687 C 0.09615 0.53183 0.53636 0.0
C688 C 0.08295 0.51163 0.51384 0.0
C689 C 0.05934 0.50932 0.53025 0.0
C690 C 0.04941 0.52641 0.57185 0.0
C691 C 0.06309 0.54707 0.59272 0.0
H692 H 0.94643 0.87077 0.93263 0.0
H693 H 0.95466 0.82431 0.76062 0.0
H694 H 0.98059 0.85566 0.70943 0.0
H695 H 0.9452 0.92475 0.83922 0.0
H696 H 0.95974 0.94291 0.90249 0.0
H697 H 0.94129 0.9169 0.92359 0.0
H698 H 0.97551 0.9017 0.98299 0.0
H699 H 0.99421 0.9273 0.96023 0.0
H700 H 0.00233 0.89811 0.93817 0.0
H701 H 0.00763 0.89122 0.68021 0.0
H702 H 0.02905 0.93065 0.66798 0.0
H703 H 1.00142 0.95397 0.85686 0.0
C704 C 0.9531 0.86722 0.88351 0.0
C705 C 0.94859 0.84482 0.85114 0.0
C706 C 0.9582 0.84106 0.78725 0.0
C707 C 0.9729 0.85879 0.7576 0.0
C708 C 0.97756 0.8803 0.79205 0.0
C709 C 0.96746 0.88478 0.85285 0.0
C710 C 0.97489 0.90954 0.8791 0.0
C711 C 0.95405 0.92439 0.88652 0.0
C712 C 0.98748 0.90911 0.94396 0.0
C713 C 0.99129 0.91806 0.82437 0.0
C714 C 0.99264 0.90093 0.77463 0.0
C715 C 0.00664 0.90479 0.71871 0.0
C716 C 0.01883 0.9271 0.71238 0.0
C717 C 0.01684 0.9451 0.76162 0.0
C718 C 0.0034 0.94035 0.81895 0.0
H719 H 0.65255 0.01302 0.89303 0.0
H720 H 0.61965 0.95772 0.014 0.0
H721 H 0.58188 0.96371 0.96986 0.0
H722 H 0.60934 0.05125 0.90479 0.0
H723 H 0.61073 0.0595 0.82054 0.0
H724 H 0.63598 0.05025 0.85719 0.0
H725 H 0.6392 0.01733 0.76621 0.0
H726 H 0.61442 0.02713 0.72834 0.0
H727 H 0.61435 0.9967 0.74957 0.0
H728 H 0.54747 0.97816 0.92403 0.0
H729 H 0.51825 0.99579 0.86147 0.0
H730 H 0.57278 0.03938 0.76219 0.0
C731 C 0.63752 0.0017 0.90879 0.0
C732 C 0.63904 0.98528 0.95821 0.0
C733 C 0.61888 0.97087 0.97761 0.0
C734 C 0.59733 0.97401 0.95263 0.0
C735 C 0.59623 0.99113 0.90676 0.0
C736 C 0.61578 0.00424 0.88323 0.0
C737 C 0.60946 0.02138 0.8333 0.0
C738 C 0.61682 0.04712 0.85531 0.0
C739 C 0.61998 0.01526 0.76534 0.0
C740 C 0.5833 0.01638 0.83469 0.0
C741 C 0.57614 0.99889 0.87768 0.0
C742 C 0.55284 0.99156 0.88927 0.0
C743 C 0.53641 0.00169 0.85382 0.0
C744 C 0.54337 0.01857 0.80675 0.0
C745 C 0.56705 0.02653 0.79826 0.0
H746 H 0.56395 0.63784 0.90041 0.0
H747 H 0.53959 0.62473 0.09977 0.0
H748 H 0.51424 0.59029 0.06005 0.0
H749 H 0.50952 0.62091 0.82044 0.0
H750 H 0.52283 0.60638 0.75085 0.0
H751 H 0.53864 0.63076 0.79386 0.0
H752 H 0.57146 0.60481 0.809 0.0
H753 H 0.55609 0.57907 0.77114 0.0
H754 H 0.56619 0.57803 0.85305 0.0
H755 H 0.49232 0.55726 0.00093 0.0
H756 H 0.477 0.52508 0.9253 0.0
H757 H 0.5146 0.55925 0.76364 0.0
C758 C 0.55316 0.62775 0.93548 0.0
C759 C 0.55381 0.63382 0.00318 0.0
C760 C 0.53966 0.62011 0.04783 0.0
C761 C 0.52499 0.60071 0.02571 0.0
C762 C 0.52464 0.59528 0.9588 0.0
C763 C 0.53841 0.60822 0.91421 0.0
C764 C 0.53562 0.59757 0.84537 0.0
C765 C 0.52608 0.61495 0.79997 0.0
C766 C 0.55869 0.58938 0.81801 0.0
C767 C 0.51796 0.57679 0.85848 0.0
C768 C 0.51187 0.57593 0.92426 0.0
C769 C 0.49677 0.55781 0.94918 0.0
C770 C 0.48811 0.53968 0.90587 0.0
C771 C 0.49449 0.53988 0.83853 0.0
C772 C 0.50911 0.55897 0.81437 0.0
H773 H 0.87465 0.46718 0.96728 0.0
H774 H 0.84969 0.41554 0.81789 0.0
H775 H 0.88851 0.41926 0.76195 0.0
H776 H 0.91101 0.50468 0.8576 0.0
H777 H 0.93293 0.51181 0.91759 0.0
H778 H 0.90314 0.50531 0.94361 0.0
H779 H 0.91514 0.47248 0.01595 0.0
H780 H 0.94492 0.47866 0.9895 0.0
H781 H 0.93083 0.44916 0.97913 0.0
H782 H 0.93085 0.4269 0.72781 0.0
H783 H 0.97214 0.44117 0.71002 0.0
H784 H 0.96834 0.48926 0.87949 0.0
C785 C 0.87739 0.45681 0.92246 0.0
C786 C 0.85946 0.44098 0.89667 0.0
C787 C 0.86336 0.42777 0.83791 0.0
C788 C 0.8853 0.42971 0.80625 0.0
C789 C 0.90284 0.44514 0.83391 0.0
C790 C 0.89896 0.45876 0.89009 0.0
C791 C 0.92049 0.47424 0.9096 0.0
C792 C 0.91666 0.50057 0.9069 0.0
C793 C 0.9283 0.46826 0.97757 0.0
C794 C 0.93732 0.46695 0.85626 0.0
C795 C 0.92685 0.45007 0.81324 0.0
C796 C 0.9391 0.44032 0.76069 0.0
C797 C 0.96246 0.44853 0.75093 0.0
C798 C 0.97313 0.46649 0.79281 0.0
C799 C 0.96055 0.47546 0.84686 0.0
H800 H 0.06588 0.18214 0.93256 0.0
H801 H 0.13263 0.16686 0.00077 0.0
H802 H 0.13039 0.13007 0.93199 0.0
H803 H 0.03977 0.12651 0.94362 0.0
H804 H 0.02251 0.12631 0.87193 0.0
H805 H 0.03139 0.15383 0.9144 0.0
H806 H 0.05075 0.17041 0.80756 0.0
H807 H 0.0413 0.143 0.76474 0.0
H808 H 0.0715 0.15389 0.76237 0.0
H809 H 0.11776 0.09172 0.87196 0.0
H810 H 0.09664 0.05623 0.81991 0.0
H811 H 0.03809 0.09636 0.79207 0.0
C812 C 0.08034 0.17141 0.93151 0.0
C813 C 0.09949 0.1775 0.97181 0.0
C814 C 0.11799 0.16287 0.9694 0.0
C815 C 0.11681 0.14182 0.93071 0.0
C816 C 0.09714 0.13576 0.89411 0.0
C817 C 0.0794 0.15035 0.8933 0.0
C818 C 0.05911 0.13873 0.85542 0.0
C819 C 0.0369 0.13619 0.89896 0.0
C820 C 0.05547 0.15232 0.79385 0.0
C821 C 0.06775 0.11494 0.83766 0.0
C822 C 0.08985 0.11363 0.85958 0.0
C823 C 0.10066 0.09271 0.85334 0.0
C824 C 0.08853 0.07263 0.8241 0.0
C825 C 0.06585 0.07367 0.80193 0.0
C826 C 0.05553 0.09517 0.80805 0.0
H827 H 0.34504 0.03579 0.86404 0.0
H828 H 0.32991 0.96459 0.93253 0.0
H829 H 0.36306 0.95185 0.86692 0.0
H830 H 0.36888 0.01852 0.69689 0.0
H831 H 0.39102 0.04299 0.69883 0.0
H832 H 0.36342 0.04581 0.74017 0.0
H833 H 0.38406 0.05764 0.84848 0.0
H834 H 0.41171 0.0549 0.80797 0.0
H835 H 0.40364 0.03835 0.87971 0.0
H836 H 0.40137 0.94821 0.81083 0.0
H837 H 0.44099 0.95352 0.76305 0.0
H838 H 0.43236 0.02706 0.73117 0.0
C839 C 0.34832 0.01737 0.86411 0.0
C840 C 0.33456 0.00123 0.90354 0.0
C841 C 0.33964 0.97729 0.9019 0.0
C842 C 0.35864 0.96987 0.86499 0.0
C843 C 0.37242 0.98647 0.82932 0.0
C844 C 0.36734 0.00968 0.82772 0.0
C845 C 0.38621 0.02447 0.7906 0.0
C846 C 0.37682 0.03348 0.72789 0.0
C847 C 0.39704 0.04504 0.83432 0.0
C848 C 0.40323 0.00623 0.77461 0.0
C849 C 0.39474 0.98435 0.79656 0.0
C850 C 0.40801 0.96514 0.79232 0.0
C851 C 0.43059 0.96839 0.76552 0.0
C852 C 0.43979 0.99069 0.74326 0.0
C853 C 0.42571 0.00972 0.74693 0.0
H854 H 0.40555 0.34727 0.99949 0.0
H855 H 0.42575 0.28925 0.87172 0.0
H856 H 0.44219 0.318 0.79143 0.0
H857 H 0.38971 0.38481 0.86762 0.0
H858 H 0.40048 0.41143 0.91209 0.0
H859 H 0.3886 0.38602 0.95588 0.0
H860 H 0.42666 0.38688 0.01905 0.0
H861 H 0.43878 0.41204 0.97503 0.0
H862 H 0.45378 0.38569 0.97389 0.0
H863 H 0.46044 0.35387 0.73108 0.0
H864 H 0.47653 0.39324 0.69418 0.0
H865 H 0.4418 0.42671 0.85921 0.0
C866 C 0.41259 0.34034 0.95374 0.0
C867 C 0.41417 0.31583 0.9422 0.0
C868 C 0.42446 0.3079 0.88229 0.0
C869 C 0.43373 0.32411 0.83611 0.0
C870 C 0.43229 0.34817 0.85005 0.0
C871 C 0.42163 0.35617 0.90707 0.0
C872 C 0.42325 0.38287 0.91249 0.0
C873 C 0.39907 0.3918 0.91196 0.0
C874 C 0.4364 0.39241 0.97372 0.0
C875 C 0.43704 0.38876 0.85042 0.0
C876 C 0.44212 0.36857 0.81478 0.0
C877 C 0.45618 0.36976 0.75803 0.0
C878 C 0.4653 0.39213 0.73755 0.0
C879 C 0.46018 0.41289 0.77363 0.0
C880 C 0.44565 0.41111 0.83014 0.0
H881 H 0.18113 0.51348 0.00672 0.0
H882 H 0.19967 0.58769 0.97246 0.0
H883 H 0.16813 0.58691 0.89393 0.0
H884 H 0.16303 0.49595 0.83627 0.0
H885 H 0.13974 0.47542 0.86531 0.0
H886 H 0.16577 0.48111 0.91134 0.0
H887 H 0.14112 0.49237 0.01393 0.0
H888 H 0.11509 0.48711 0.96812 0.0
H889 H 0.12199 0.51541 0.00953 0.0
H890 H 0.13087 0.57971 0.83408 0.0
H891 H 0.09329 0.56535 0.78654 0.0
H892 H 0.09986 0.49536 0.85503 0.0
C893 C 0.17891 0.5294 0.98135 0.0
C894 C 0.1929 0.55063 0.99537 0.0
C895 C 0.18941 0.57115 0.96162 0.0
C896 C 0.17143 0.5709 0.91731 0.0
C897 C 0.15734 0.54992 0.90665 0.0
C898 C 0.16117 0.5294 0.93669 0.0
C899 C 0.14278 0.50954 0.91967 0.0
C900 C 0.15347 0.48931 0.88082 0.0
C901 C 0.12947 0.5006 0.98149 0.0
C902 C 0.12755 0.5223 0.87717 0.0
C903 C 0.13628 0.54557 0.87019 0.0
C904 C 0.12427 0.56135 0.8375 0.0
C905 C 0.103 0.55304 0.81041 0.0
C906 C 0.09414 0.52913 0.81519 0.0
C907 C 0.10652 0.51363 0.84941 0.0
H908 H 0.922 0.85183 0.31074 0.0
H909 H 0.91605 0.7961 0.45018 0.0
H910 H 0.92889 0.82544 0.53802 0.0
H911 H 0.97283 0.88237 0.37155 0.0
H912 H 0.96439 0.91129 0.35645 0.0
H913 H 0.95346 0.88614 0.3065 0.0
H914 H 0.91137 0.89552 0.33536 0.0
H915 H 0.92217 0.92076 0.3854 0.0
H916 H 0.90199 0.89827 0.42006 0.0
H917 H 0.94362 0.86128 0.60964 0.0
H918 H 0.9601 0.89977 0.65716 0.0
H919 H 0.9563 0.9312 0.46896 0.0
C920 C 0.92288 0.8458 0.36001 0.0
C921 C 0.91769 0.82172 0.37386 0.0
C922 C 0.91989 0.81448 0.43857 0.0
C923 C 0.92705 0.83103 0.48871 0.0
C924 C 0.93201 0.85467 0.47313 0.0
C925 C 0.93003 0.86197 0.4102 0.0
C926 C 0.93737 0.88806 0.40495 0.0
C927 C 0.95825 0.89219 0.35705 0.0
C928 C 0.91701 0.90144 0.3853 0.0
C929 C 0.94401 0.89441 0.47472 0.0
C930 C 0.94068 0.87499 0.51359 0.0
C931 C 0.94619 0.87656 0.5796 0.0
C932 C 0.95556 0.89846 0.60614 0.0
C933 C 0.95946 0.91836 0.56658 0.0
C934 C 0.95336 0.91629 0.50035 0.0
H935 H 0.67641 0.96847 0.49468 0.0
H936 H 0.69181 0.04052 0.43307 0.0
H937 H 0.65816 0.05244 0.49794 0.0
H938 H 0.61837 0.96563 0.47554 0.0
H939 H 0.60963 0.94838 0.54555 0.0
H940 H 0.63772 0.9462 0.50727 0.0
H941 H 0.65714 0.95733 0.61793 0.0
H942 H 0.62904 0.95944 0.65699 0.0
H943 H 0.65086 0.98414 0.66247 0.0
H944 H 0.61927 0.05524 0.55097 0.0
H945 H 0.57907 0.04907 0.59411 0.0
H946 H 0.58786 0.97525 0.62139 0.0
C947 C 0.6731 0.9869 0.49619 0.0
C948 C 0.68704 0.00353 0.45873 0.0
C949 C 0.68192 0.02746 0.46222 0.0
C950 C 0.66265 0.03442 0.49873 0.0
C951 C 0.64867 0.01736 0.53226 0.0
C952 C 0.65384 0.99415 0.53232 0.0
C953 C 0.63469 0.97885 0.56689 0.0
C954 C 0.62451 0.95858 0.52106 0.0
C955 C 0.64346 0.96938 0.62981 0.0
C956 C 0.61738 0.9968 0.58265 0.0
C957 C 0.62599 0.019 0.56328 0.0
C958 C 0.61253 0.03805 0.56755 0.0
C959 C 0.58962 0.03432 0.59165 0.0
C960 C 0.58031 0.01169 0.61117 0.0
C961 C 0.59458 0.99282 0.6077 0.0
H962 H 0.55241 0.68743 0.46132 0.0
H963 H 0.62488 0.69461 0.51129 0.0
H964 H 0.6178 0.66009 0.5808 0.0
H965 H 0.52912 0.66615 0.62539 0.0
H966 H 0.50697 0.64642 0.58686 0.0
H967 H 0.51705 0.6739 0.55004 0.0
H968 H 0.52658 0.65079 0.44205 0.0
H969 H 0.51698 0.62328 0.47871 0.0
H970 H 0.54583 0.62773 0.44321 0.0
H971 H 0.60427 0.62103 0.62914 0.0
H972 H 0.58444 0.5825 0.66047 0.0
H973 H 0.52047 0.60189 0.58376 0.0
C974 C 0.56661 0.68245 0.48909 0.0
C975 C 0.58922 0.69385 0.48085 0.0
C976 C 0.60745 0.68613 0.51648 0.0
C977 C 0.60357 0.66657 0.55631 0.0
C978 C 0.58129 0.6551 0.56091 0.0
C979 C 0.563 0.66305 0.52933 0.0
C980 C 0.54113 0.64653 0.53804 0.0
C981 C 0.52247 0.659 0.57744 0.0
C982 C 0.53212 0.6365 0.47156 0.0
C983 C 0.5502 0.62754 0.57705 0.0
C984 C 0.57337 0.63286 0.59017 0.0
C985 C 0.58601 0.61695 0.62047 0.0
C986 C 0.57467 0.59507 0.63769 0.0
C987 C 0.55095 0.5894 0.62489 0.0
C988 C 0.53855 0.60598 0.59502 0.0
H989 H 0.83504 0.50634 0.40738 0.0
H990 H 0.8118 0.43211 0.42689 0.0
H991 H 0.84398 0.42819 0.50019 0.0
H992 H 0.89237 0.4983 0.38762 0.0
H993 H 0.90329 0.52502 0.43137 0.0
H994 H 0.87576 0.52358 0.39294 0.0
H995 H 0.85578 0.53498 0.5035 0.0
H996 H 0.88337 0.53688 0.54225 0.0
H997 H 0.8593 0.51799 0.57427 0.0
H998 H 0.88211 0.43084 0.55704 0.0
H999 H 0.9219 0.44048 0.59668 0.0
H1000 H 0.92109 0.51229 0.53439 0.0
C1001 C 0.83634 0.48938 0.42834 0.0
C1002 C 0.82079 0.46956 0.41137 0.0
C1003 C 0.82316 0.4477 0.44 0.0
C1004 C 0.84153 0.44524 0.48137 0.0
C1005 C 0.85732 0.46483 0.49391 0.0
C1006 C 0.85472 0.48657 0.46884 0.0
C1007 C 0.87529 0.50421 0.48356 0.0
C1008 C 0.88738 0.51329 0.4201 0.0
C1009 C 0.86799 0.52473 0.5286 0.0
C1010 C 0.89026 0.48879 0.51878 0.0
C1011 C 0.87949 0.46622 0.5252 0.0
C1012 C 0.89056 0.44854 0.55307 0.0
C1013 C 0.91317 0.45411 0.57502 0.0
C1014 C 0.92448 0.47707 0.56826 0.0
C1015 C 0.91278 0.4946 0.54025 0.0
loop_
_geom_bond_atom_site_label_1
_geom_bond_atom_site_label_2
_geom_bond_distance
_geom_bond_site_symmetry_2
_ccdc_geom_bond_type
C0 C1 1.384 . S
C0 H13 0.947 . S
C0 C35 1.382 . S
C1 C0 1.384 . S
C1 C2 1.378 . S
C2 C1 1.378 . S
C2 C3 1.378 . S
C2 H14 0.952 . S
C3 C2 1.378 . S
C3 H15 0.950 . S
C3 C34 1.383 . S
H4 C23 0.947 . S
H5 C24 0.946 . S
H6 C26 0.953 . S
H7 C27 0.945 . S
H8 C29 0.952 . S
H9 C30 0.949 . S
H10 C32 0.950 . S
H11 C33 0.948 1_554 S
H12 C35 0.951 . S
H13 C0 0.947 . S
H14 C2 0.952 . S
H15 C3 0.950 . S
N16 C19 1.382 . S
N16 C21 1.363 . S
N17 C19 1.371 1_556 S
N17 C20 1.372 1_556 S
N18 C20 1.361 . S
N18 C21 1.377 . S
C19 N16 1.382 . S
C19 N17 1.371 1_554 S
C19 C22 1.480 . S
C20 N17 1.372 1_554 S
C20 N18 1.361 . S
C20 C28 1.457 1_554 S
C21 N16 1.363 . S
C21 N18 1.377 . S
C21 C34 1.479 . S
C22 C19 1.480 . S
C22 C23 1.383 . S
C22 C27 1.385 1_554 S
C23 H4 0.947 . S
C23 C22 1.383 . S
C23 C24 1.388 . S
C24 H5 0.946 . S
C24 C23 1.388 . S
C24 C25 1.384 1_554 S
C25 C24 1.384 1_556 S
C25 C26 1.377 . S
C26 H6 0.953 . S
C26 C25 1.377 . S
C26 C27 1.369 . S
C27 H7 0.945 . S
C27 C22 1.385 1_556 S
C27 C26 1.369 . S
C28 C20 1.457 1_556 S
C28 C29 1.372 . S
C28 C33 1.364 . S
C29 H8 0.952 . S
C29 C28 1.372 . S
C29 C30 1.389 . S
C30 H9 0.949 . S
C30 C29 1.389 . S
C30 C31 1.387 . S
C31 C30 1.387 . S
C31 C32 1.372 . S
C32 H10 0.950 . S
C32 C31 1.372 . S
C32 C33 1.379 . S
C33 H11 0.948 1_556 S
C33 C28 1.364 . S
C33 C32 1.379 . S
C34 C3 1.383 . S
C34 C21 1.479 . S
C34 C35 1.398 . S
C35 C0 1.382 . S
C35 H12 0.951 . S
C35 C34 1.398 . S
C36 C37 1.384 . S
C36 H49 0.947 . S
C36 C71 1.382 . S
C37 C36 1.384 . S
C37 C38 1.378 . S
C38 C37 1.378 . S
C38 C39 1.378 . S
C38 H50 0.952 . S
C39 C38 1.378 . S
C39 H51 0.950 . S
C39 C70 1.383 . S
H40 C59 0.947 . S
H41 C60 0.946 . S
H42 C62 0.953 . S
H43 C63 0.945 . S
H44 C65 0.952 . S
H45 C66 0.949 . S
H46 C68 0.950 . S
H47 C69 0.948 . S
H48 C71 0.951 . S
H49 C36 0.947 . S
H50 C38 0.952 . S
H51 C39 0.950 . S
N52 C55 1.382 . S
N52 C57 1.363 . S
N53 C55 1.371 1_556 S
N53 C56 1.372 . S
N54 C56 1.361 1_554 S
N54 C57 1.377 . S
C55 N52 1.382 . S
C55 N53 1.371 1_554 S
C55 C58 1.480 1_554 S
C56 N53 1.372 . S
C56 N54 1.361 1_556 S
C56 C64 1.457 . S
C57 N52 1.363 . S
C57 N54 1.377 . S
C57 C70 1.479 . S
C58 C55 1.480 1_556 S
C58 C59 1.383 1_556 S
C58 C63 1.385 . S
C59 H40 0.947 . S
C59 C58 1.383 1_554 S
C59 C60 1.388 . S
C60 H41 0.946 . S
C60 C59 1.388 . S
C60 C61 1.384 1_554 S
C61 C60 1.384 1_556 S
C61 C62 1.377 . S
C62 H42 0.953 . S
C62 C61 1.377 . S
C62 C63 1.369 . S
C63 H43 0.945 . S
C63 C58 1.385 . S
C63 C62 1.369 . S
C64 C56 1.457 . S
C64 C65 1.372 . S
C64 C69 1.364 . S
C65 H44 0.952 . S
C65 C64 1.372 . S
C65 C66 1.389 . S
C66 H45 0.949 . S
C66 C65 1.389 . S
C66 C67 1.387 . S
C67 C66 1.387 . S
C67 C68 1.372 . S
C68 H46 0.950 . S
C68 C67 1.372 . S
C68 C69 1.379 . S
C69 H47 0.948 . S
C69 C64 1.364 . S
C69 C68 1.379 . S
C70 C39 1.383 . S
C70 C57 1.479 . S
C70 C71 1.398 . S
C71 C36 1.382 . S
C71 H48 0.951 . S
C71 C70 1.398 . S
C72 C73 1.384 1_565 S
C72 H85 0.947 . S
C72 C107 1.382 1_565 S
C73 C72 1.384 1_545 S
C73 C74 1.378 . S
C74 C73 1.378 . S
C74 C75 1.378 . S
C74 H86 0.952 . S
C75 C74 1.378 . S
C75 H87 0.950 . S
C75 C106 1.383 . S
H76 C95 0.947 . S
H77 C96 0.955 . S
H78 C98 0.953 . S
H79 C99 0.945 1_556 S
H80 C101 0.947 1_565 S
H81 C102 0.956 . S
H82 C104 0.950 . S
H83 C105 0.948 . S
H84 C107 0.951 1_565 S
H85 C72 0.947 . S
H86 C74 0.952 . S
H87 C75 0.950 . S
N88 C91 1.382 . S
N88 C93 1.363 . S
N89 C91 1.371 . S
N89 C92 1.372 . S
N90 C92 1.361 . S
N90 C93 1.377 . S
C91 N88 1.382 . S
C91 N89 1.371 . S
C91 C94 1.480 . S
C92 N89 1.372 . S
C92 N90 1.361 . S
C92 C100 1.457 1_554 S
C93 N88 1.363 . S
C93 N90 1.377 . S
C93 C106 1.479 . S
C94 C91 1.480 . S
C94 C95 1.383 . S
C94 C99 1.385 . S
C95 H76 0.947 . S
C95 C94 1.383 . S
C95 C96 1.383 1_545 S
C96 H77 0.955 . S
C96 C95 1.383 1_565 S
C96 C97 1.381 1_565 S
C97 C96 1.381 1_545 S
C97 C98 1.377 1_554 S
C98 H78 0.953 . S
C98 C97 1.377 1_556 S
C98 C99 1.369 1_556 S
C99 H79 0.945 1_554 S
C99 C94 1.385 . S
C99 C98 1.369 1_554 S
C100 C92 1.457 1_556 S
C100 C101 1.376 . S
C100 C105 1.364 1_556 S
C101 H80 0.947 1_545 S
C101 C100 1.376 . S
C101 C102 1.393 1_545 S
C102 H81 0.956 . S
C102 C101 1.393 1_565 S
C102 C103 1.379 1_565 S
C103 C102 1.379 1_545 S
C103 C104 1.372 . S
C104 H82 0.950 . S
C104 C103 1.372 . S
C104 C105 1.379 1_556 S
C105 H83 0.948 . S
C105 C100 1.364 1_554 S
C105 C104 1.379 1_554 S
C106 C75 1.383 . S
C106 C93 1.479 . S
C106 C107 1.398 . S
C107 C72 1.382 1_545 S
C107 H84 0.951 1_545 S
C107 C106 1.398 . S
C108 C109 1.384 . S
C108 H121 0.947 . S
C108 C143 1.382 . S
C109 C108 1.384 . S
C109 C110 1.378 . S
C110 C109 1.378 . S
C110 C111 1.378 . S
C110 H122 0.952 . S
C111 C110 1.378 . S
C111 H123 0.950 . S
C111 C142 1.383 . S
H112 C131 0.947 . S
H113 C132 0.946 . S
H114 C134 0.953 . S
H115 C135 0.945 . S
H116 C137 0.952 . S
H117 C138 0.949 . S
H118 C140 0.950 . S
H119 C141 0.948 . S
H120 C143 0.951 1_554 S
H121 C108 0.947 . S
H122 C110 0.952 . S
H123 C111 0.950 . S
N124 C127 1.382 . S
N124 C129 1.363 . S
N125 C127 1.371 . S
N125 C128 1.372 . S
N126 C128 1.361 . S
N126 C129 1.377 . S
C127 N124 1.382 . S
C127 N125 1.371 . S
C127 C130 1.480 . S
C128 N125 1.372 . S
C128 N126 1.361 . S
C128 C136 1.457 . S
C129 N124 1.363 . S
C129 N126 1.377 . S
C129 C142 1.479 1_554 S
C130 C127 1.480 . S
C130 C131 1.383 1_554 S
C130 C135 1.385 . S
C131 H112 0.947 . S
C131 C130 1.383 1_556 S
C131 C132 1.388 . S
C132 H113 0.946 . S
C132 C131 1.388 . S
C132 C133 1.384 1_556 S
C133 C132 1.384 1_554 S
C133 C134 1.377 . S
C134 H114 0.953 . S
C134 C133 1.377 . S
C134 C135 1.369 . S
C135 H115 0.945 . S
C135 C130 1.385 . S
C135 C134 1.369 . S
C136 C128 1.457 . S
C136 C137 1.372 . S
C136 C141 1.364 . S
C137 H116 0.952 . S
C137 C136 1.372 . S
C137 C138 1.389 . S
C138 H117 0.949 . S
C138 C137 1.389 . S
C138 C139 1.387 . S
C139 C138 1.387 . S
C139 C140 1.372 . S
C140 H118 0.950 . S
C140 C139 1.372 . S
C140 C141 1.379 . S
C141 H119 0.948 . S
C141 C136 1.364 . S
C141 C140 1.379 . S
C142 C111 1.383 . S
C142 C129 1.479 1_556 S
C142 C143 1.398 . S
C143 C108 1.382 . S
C143 H120 0.951 1_556 S
C143 C142 1.398 . S
C144 C145 1.384 . S
C144 H157 0.947 . S
C144 C179 1.382 . S
C145 C144 1.384 . S
C145 C146 1.378 . S
C146 C145 1.378 . S
C146 C147 1.378 . S
C146 H158 0.952 . S
C147 C146 1.378 . S
C147 H159 0.950 . S
C147 C178 1.383 . S
H148 C167 0.947 . S
H149 C168 0.946 . S
H150 C170 0.953 . S
H151 C171 0.945 . S
H152 C173 0.952 . S
H153 C174 0.949 . S
H154 C176 0.950 . S
H155 C177 0.948 . S
H156 C179 0.951 . S
H157 C144 0.947 . S
H158 C146 0.952 . S
H159 C147 0.950 . S
N160 C163 1.382 . S
N160 C165 1.363 . S
N161 C163 1.371 . S
N161 C164 1.372 . S
N162 C164 1.361 . S
N162 C165 1.377 . S
C163 N160 1.382 . S
C163 N161 1.371 . S
C163 C166 1.480 . S
C164 N161 1.372 . S
C164 N162 1.361 . S
C164 C172 1.457 . S
C165 N160 1.363 . S
C165 N162 1.377 . S
C165 C178 1.479 . S
C166 C163 1.480 . S
C166 C167 1.383 . S
C166 C171 1.385 . S
C167 H148 0.947 . S
C167 C166 1.383 . S
C167 C168 1.388 . S
C168 H149 0.946 . S
C168 C167 1.388 . S
C168 C169 1.384 . S
C169 C168 1.384 . S
C169 C170 1.377 . S
C170 H150 0.953 . S
C170 C169 1.377 . S
C170 C171 1.369 . S
C171 H151 0.945 . S
C171 C166 1.385 . S
C171 C170 1.369 . S
C172 C164 1.457 . S
C172 C173 1.372 . S
C172 C177 1.364 . S
C173 H152 0.952 . S
C173 C172 1.372 . S
C173 C174 1.389 . S
C174 H153 0.949 . S
C174 C173 1.389 . S
C174 C175 1.387 . S
C175 C174 1.387 . S
C175 C176 1.372 . S
C176 H154 0.950 . S
C176 C175 1.372 . S
C176 C177 1.379 . S
C177 H155 0.948 . S
C177 C172 1.364 . S
C177 C176 1.379 . S
C178 C147 1.383 . S
C178 C165 1.479 . S
C178 C179 1.398 . S
C179 C144 1.382 . S
C179 H156 0.951 . S
C179 C178 1.398 . S
C180 C181 1.384 . S
C180 H193 0.947 . S
C180 C215 1.382 . S
C181 C180 1.384 . S
C181 C182 1.378 . S
C182 C181 1.378 . S
C182 C183 1.378 . S
C182 H194 0.952 . S
C183 C182 1.378 . S
C183 H195 0.950 . S
C183 C214 1.383 . S
H184 C203 0.947 . S
H185 C204 0.946 . S
H186 C206 0.953 . S
H187 C207 0.945 . S
H188 C209 0.952 . S
H189 C210 0.949 . S
H190 C212 0.950 . S
H191 C213 0.948 . S
H192 C215 0.951 . S
H193 C180 0.947 . S
H194 C182 0.952 . S
H195 C183 0.950 . S
N196 C199 1.382 . S
N196 C201 1.363 . S
N197 C199 1.371 . S
N197 C200 1.372 . S
N198 C200 1.361 . S
N198 C201 1.377 . S
C199 N196 1.382 . S
C199 N197 1.371 . S
C199 C202 1.480 . S
C200 N197 1.372 . S
C200 N198 1.361 . S
C200 C208 1.457 . S
C201 N196 1.363 . S
C201 N198 1.377 . S
C201 C214 1.479 . S
C202 C199 1.480 . S
C202 C203 1.383 . S
C202 C207 1.385 . S
C203 H184 0.947 . S
C203 C202 1.383 . S
C203 C204 1.388 . S
C204 H185 0.946 . S
C204 C203 1.388 . S
C204 C205 1.384 . S
C205 C204 1.384 . S
C205 C206 1.377 . S
C206 H186 0.953 . S
C206 C205 1.377 . S
C206 C207 1.369 . S
C207 H187 0.945 . S
C207 C202 1.385 . S
C207 C206 1.369 . S
C208 C200 1.457 . S
C208 C209 1.372 . S
C208 C213 1.364 . S
C209 H188 0.952 . S
C209 C208 1.372 . S
C209 C210 1.389 . S
C210 H189 0.949 . S
C210 C209 1.389 . S
C210 C211 1.387 . S
C211 C210 1.387 . S
C211 C212 1.372 . S
C212 H190 0.950 . S
C212 C211 1.372 . S
C212 C213 1.379 . S
C213 H191 0.948 . S
C213 C208 1.364 . S
C213 C212 1.379 . S
C214 C183 1.383 . S
C214 C201 1.479 . S
C214 C215 1.398 . S
C215 C180 1.382 . S
C215 H192 0.951 . S
C215 C214 1.398 . S
C216 C217 1.384 . S
C216 H229 0.947 . S
C216 C251 1.382 . S
C217 C216 1.384 . S
C217 C218 1.378 . S
C218 C217 1.378 . S
C218 C219 1.378 . S
C218 H230 0.962 . S
C219 C218 1.378 . S
C219 H231 0.950 . S
C219 C250 1.383 . S
H220 C239 0.947 . S
H221 C240 0.953 . S
H222 C242 0.953 . S
H223 C243 0.945 . S
H224 C245 0.952 . S
H225 C246 0.949 . S
H226 C248 0.950 . S
H227 C249 0.948 . S
H228 C251 0.951 . S
H229 C216 0.947 . S
H230 C218 0.962 . S
H231 C219 0.950 . S
N232 C235 1.382 . S
N232 C237 1.363 . S
N233 C235 1.371 . S
N233 C236 1.372 . S
N234 C236 1.361 . S
N234 C237 1.377 . S
C235 N232 1.382 . S
C235 N233 1.371 . S
C235 C238 1.480 . S
C236 N233 1.372 . S
C236 N234 1.361 . S
C236 C244 1.457 . S
C237 N232 1.363 . S
C237 N234 1.377 . S
C237 C250 1.479 . S
C238 C235 1.480 . S
C238 C239 1.383 . S
C238 C243 1.385 . S
C239 H220 0.947 . S
C239 C238 1.383 . S
C239 C240 1.388 . S
C240 H221 0.953 . S
C240 C239 1.388 . S
C240 C241 1.384 . S
C241 C240 1.384 . S
C241 C242 1.377 . S
C242 H222 0.953 . S
C242 C241 1.377 . S
C242 C243 1.369 . S
C243 H223 0.945 . S
C243 C238 1.385 . S
C243 C242 1.369 . S
C244 C236 1.457 . S
C244 C245 1.372 . S
C244 C249 1.364 . S
C245 H224 0.952 . S
C245 C244 1.372 . S
C245 C246 1.389 . S
C246 H225 0.949 . S
C246 C245 1.389 . S
C246 C247 1.387 . S
C247 C246 1.387 . S
C247 C248 1.372 . S
C248 H226 0.950 . S
C248 C247 1.372 . S
C248 C249 1.379 . S
C249 H227 0.948 . S
C249 C244 1.364 . S
C249 C248 1.379 . S
C250 C219 1.383 . S
C250 C237 1.479 . S
C250 C251 1.398 . S
C251 C216 1.382 . S
C251 H228 0.951 . S
C251 C250 1.398 . S
C252 C253 1.384 . S
C252 H265 0.947 . S
C252 C287 1.382 . S
C253 C252 1.384 . S
C253 C254 1.378 . S
C254 C253 1.378 . S
C254 C255 1.378 . S
C254 H266 0.952 . S
C255 C254 1.378 . S
C255 H267 0.950 . S
C255 C286 1.383 . S
H256 C275 0.947 . S
H257 C276 0.946 . S
H258 C278 0.953 . S
H259 C279 0.945 . S
H260 C281 0.952 . S
H261 C282 0.949 . S
H262 C284 0.950 . S
H263 C285 0.948 . S
H264 C287 0.951 . S
H265 C252 0.947 . S
H266 C254 0.952 . S
H267 C255 0.950 . S
N268 C271 1.382 . S
N268 C273 1.363 . S
N269 C271 1.371 . S
N269 C272 1.372 . S
N270 C272 1.361 . S
N270 C273 1.377 . S
C271 N268 1.382 . S
C271 N269 1.371 . S
C271 C274 1.480 . S
C272 N269 1.372 . S
C272 N270 1.361 . S
C272 C280 1.457 . S
C273 N268 1.363 . S
C273 N270 1.377 . S
C273 C286 1.479 . S
C274 C271 1.480 . S
C274 C275 1.383 . S
C274 C279 1.385 . S
C275 H256 0.947 . S
C275 C274 1.383 . S
C275 C276 1.388 . S
C276 H257 0.946 . S
C276 C275 1.388 . S
C276 C277 1.384 . S
C277 C276 1.384 . S
C277 C278 1.377 . S
C278 H258 0.953 . S
C278 C277 1.377 . S
C278 C279 1.369 . S
C279 H259 0.945 . S
C279 C274 1.385 . S
C279 C278 1.369 . S
C280 C272 1.457 . S
C280 C281 1.372 . S
C280 C285 1.364 . S
C281 H260 0.952 . S
C281 C280 1.372 . S
C281 C282 1.389 . S
C282 H261 0.949 . S
C282 C281 1.389 . S
C282 C283 1.387 . S
C283 C282 1.387 . S
C283 C284 1.372 . S
C284 H262 0.950 . S
C284 C283 1.372 . S
C284 C285 1.379 . S
C285 H263 0.948 . S
C285 C280 1.364 . S
C285 C284 1.379 . S
C286 C255 1.383 . S
C286 C273 1.479 . S
C286 C287 1.398 . S
C287 C252 1.382 . S
C287 H264 0.951 . S
C287 C286 1.398 . S
Tb288 O291 2.453 1_665 S
Tb288 O292 2.596 1_665 S
Tb288 O293 2.374 1_655 S
Tb288 O301 2.343 . S
Tb288 O303 2.353 1_565 S
Tb288 O305 2.427 . S
Tb288 O306 2.513 . S
C289 O293 1.251 . S
C289 O295 1.263 . S
Tb290 O292 2.343 . S
Tb290 O295 2.353 1_545 S
Tb290 O298 2.427 . S
Tb290 O299 2.513 . S
Tb290 O300 2.453 1_545 S
Tb290 O301 2.596 1_445 S
Tb290 O302 2.374 1_455 S
O291 Tb288 2.453 1_445 S
O291 C307 1.245 . S
O292 Tb288 2.596 1_445 S
O292 Tb290 2.343 . S
O292 C307 1.259 . S
O293 Tb288 2.374 1_455 S
O293 C289 1.251 . S
C294 O298 1.275 . S
C294 O299 1.246 . S
O295 C289 1.263 . S
O295 Tb290 2.353 1_565 S
C296 O300 1.245 1_655 S
C296 O301 1.259 . S
C297 O302 1.250 . S
C297 O303 1.263 . S
O298 Tb290 2.427 . S
O298 C294 1.275 . S
O299 Tb290 2.513 . S
O299 C294 1.246 . S
O300 Tb290 2.453 1_565 S
O300 C296 1.245 1_455 S
O301 Tb288 2.343 . S
O301 Tb290 2.596 1_665 S
O301 C296 1.259 . S
O302 Tb290 2.374 1_655 S
O302 C297 1.250 . S
O303 Tb288 2.353 1_545 S
O303 C297 1.263 . S
C304 O305 1.275 . S
C304 O306 1.246 . S
O305 Tb288 2.427 . S
O305 C304 1.275 . S
O306 Tb288 2.513 . S
O306 C304 1.246 . S
C307 O291 1.245 . S
C307 O292 1.259 . S
Tb308 O311 2.453 . S
Tb308 O312 2.596 1_545 S
Tb308 O313 2.374 . S
Tb308 O321 2.343 . S
Tb308 O323 2.353 . S
Tb308 O325 2.427 . S
Tb308 O326 2.513 . S
C309 O313 1.251 . S
C309 O315 1.263 1_545 S
Tb310 O312 2.343 . S
Tb310 O315 2.353 . S
Tb310 O318 2.427 . S
Tb310 O319 2.513 . S
Tb310 O320 2.453 . S
Tb310 O321 2.596 1_565 S
Tb310 O322 2.374 . S
O311 Tb308 2.453 . S
O311 C327 1.245 . S
O312 Tb308 2.596 1_565 S
O312 Tb310 2.343 . S
O312 C327 1.259 1_565 S
O313 Tb308 2.374 . S
O313 C309 1.251 . S
C314 O318 1.275 . S
C314 O319 1.246 . S
O315 C309 1.263 1_565 S
O315 Tb310 2.353 . S
C316 O320 1.245 . S
C316 O321 1.259 1_565 S
C317 O322 1.250 1_545 S
C317 O323 1.263 . S
O318 Tb310 2.427 . S
O318 C314 1.275 . S
O319 Tb310 2.513 . S
O319 C314 1.246 . S
O320 Tb310 2.453 . S
O320 C316 1.245 . S
O321 Tb308 2.343 . S
O321 Tb310 2.596 1_545 S
O321 C316 1.259 1_545 S
O322 Tb310 2.374 . S
O322 C317 1.250 1_565 S
O323 Tb308 2.353 . S
O323 C317 1.263 . S
C324 O325 1.275 . S
C324 O326 1.246 . S
O325 Tb308 2.427 . S
O325 C324 1.275 . S
O326 Tb308 2.513 . S
O326 C324 1.246 . S
C327 O311 1.245 . S
C327 O312 1.259 1_545 S
Tb328 O331 2.453 . S
Tb328 O332 2.596 . S
Tb328 O333 2.374 . S
Tb328 O341 2.343 . S
Tb328 O343 2.353 . S
Tb328 O345 2.427 . S
Tb328 O346 2.513 . S
C329 O333 1.251 . S
C329 O335 1.263 . S
Tb330 O332 2.343 . S
Tb330 O335 2.353 . S
Tb330 O338 2.427 . S
Tb330 O339 2.513 . S
Tb330 O340 2.453 . S
Tb330 O341 2.596 . S
Tb330 O342 2.374 . S
O331 Tb328 2.453 . S
O331 C347 1.245 . S
O332 Tb328 2.596 . S
O332 Tb330 2.343 . S
O332 C347 1.259 . S
O333 Tb328 2.374 . S
O333 C329 1.251 . S
C334 O338 1.275 . S
C334 O339 1.246 . S
O335 C329 1.263 . S
O335 Tb330 2.353 . S
C336 O340 1.245 . S
C336 O341 1.259 . S
C337 O342 1.250 . S
C337 O343 1.263 . S
O338 Tb330 2.427 . S
O338 C334 1.275 . S
O339 Tb330 2.513 . S
O339 C334 1.246 . S
O340 Tb330 2.453 . S
O340 C336 1.245 . S
O341 Tb328 2.343 . S
O341 Tb330 2.596 . S
O341 C336 1.259 . S
O342 Tb330 2.374 . S
O342 C337 1.250 . S
O343 Tb328 2.353 . S
O343 C337 1.263 . S
C344 O345 1.275 . S
C344 O346 1.246 . S
O345 Tb328 2.427 . S
O345 C344 1.275 . S
O346 Tb328 2.513 . S
O346 C344 1.246 . S
C347 O331 1.245 . S
C347 O332 1.259 . S
Tb348 O351 2.453 1_655 S
Tb348 O352 2.596 1_655 S
Tb348 O353 2.374 1_655 S
Tb348 O361 2.343 . S
Tb348 O363 2.353 . S
Tb348 O365 2.427 . S
Tb348 O366 2.513 . S
C349 O353 1.251 . S
C349 O355 1.263 . S
Tb350 O352 2.343 . S
Tb350 O355 2.353 . S
Tb350 O358 2.427 . S
Tb350 O359 2.513 . S
Tb350 O360 2.453 1_455 S
Tb350 O361 2.596 1_455 S
Tb350 O362 2.374 . S
O351 Tb348 2.453 1_455 S
O351 C367 1.245 . S
O352 Tb348 2.596 1_455 S
O352 Tb350 2.343 . S
O352 C367 1.259 . S
O353 Tb348 2.374 1_455 S
O353 C349 1.251 . S
C354 O358 1.275 . S
C354 O359 1.246 . S
O355 C349 1.263 . S
O355 Tb350 2.353 . S
C356 O360 1.245 . S
C356 O361 1.259 . S
C357 O362 1.250 1_655 S
C357 O363 1.263 . S
O358 Tb350 2.427 . S
O358 C354 1.275 . S
O359 Tb350 2.513 . S
O359 C354 1.246 . S
O360 Tb350 2.453 1_655 S
O360 C356 1.245 . S
O361 Tb348 2.343 . S
O361 Tb350 2.596 1_655 S
O361 C356 1.259 . S
O362 Tb350 2.374 . S
O362 C357 1.250 1_455 S
O363 Tb348 2.353 . S
O363 C357 1.263 . S
C364 O365 1.275 . S
C364 O366 1.246 . S
O365 Tb348 2.427 . S
O365 C364 1.275 . S
O366 Tb348 2.513 . S
O366 C364 1.246 . S
C367 O351 1.245 . S
C367 O352 1.259 . S
H368 C380 0.930 . S
H369 C382 0.930 . S
H370 C383 0.930 . S
H371 C387 0.959 . S
H372 C387 0.959 . S
H373 C387 0.961 . S
H374 C388 0.960 . S
H375 C388 0.961 . S
H376 C388 0.959 . S
H377 C391 0.929 . S
H378 C392 0.931 . S
H379 C394 0.930 . S
C380 H368 0.930 . S
C380 C381 1.399 . S
C380 C385 1.399 . S
C381 C380 1.399 . S
C381 C382 1.376 1_545 S
C382 H369 0.930 . S
C382 C381 1.376 1_565 S
C382 C383 1.388 . S
C383 H370 0.930 . S
C383 C382 1.388 . S
C383 C384 1.390 . S
C384 C383 1.390 . S
C384 C385 1.394 1_565 S
C384 C390 1.465 . S
C385 C380 1.399 . S
C385 C384 1.394 1_545 S
C385 C386 1.516 . S
C386 C385 1.516 . S
C386 C387 1.502 . S
C386 C388 1.561 . S
C386 C389 1.526 . S
C387 H371 0.959 . S
C387 H372 0.959 . S
C387 H373 0.961 . S
C387 C386 1.502 . S
C388 H374 0.960 . S
C388 H375 0.961 . S
C388 H376 0.959 . S
C388 C386 1.561 . S
C389 C386 1.526 . S
C389 C390 1.396 1_545 S
C389 C394 1.390 . S
C390 C384 1.465 . S
C390 C389 1.396 1_565 S
C390 C391 1.399 . S
C391 H377 0.929 . S
C391 C390 1.399 . S
C391 C392 1.385 . S
C392 H378 0.931 . S
C392 C391 1.385 . S
C392 C393 1.389 . S
C393 C392 1.389 . S
C393 C394 1.387 1_565 S
C394 H379 0.930 . S
C394 C389 1.390 . S
C394 C393 1.387 1_545 S
H395 C407 0.930 . S
H396 C409 0.930 . S
H397 C410 0.930 . S
H398 C414 0.959 . S
H399 C414 0.959 . S
H400 C414 0.961 . S
H401 C415 0.960 . S
H402 C415 0.961 . S
H403 C415 0.959 . S
H404 C418 0.929 . S
H405 C419 0.931 . S
H406 C421 0.930 . S
C407 H395 0.930 . S
C407 C408 1.399 . S
C407 C412 1.399 . S
C408 C407 1.399 . S
C408 C409 1.376 . S
C409 H396 0.930 . S
C409 C408 1.376 . S
C409 C410 1.388 . S
C410 H397 0.930 . S
C410 C409 1.388 . S
C410 C411 1.390 . S
C411 C410 1.390 . S
C411 C412 1.394 . S
C411 C417 1.465 . S
C412 C407 1.399 . S
C412 C411 1.394 . S
C412 C413 1.516 . S
C413 C412 1.516 . S
C413 C414 1.502 . S
C413 C415 1.561 . S
C413 C416 1.526 . S
C414 H398 0.959 . S
C414 H399 0.959 . S
C414 H400 0.961 . S
C414 C413 1.502 . S
C415 H401 0.960 . S
C415 H402 0.961 . S
C415 H403 0.959 . S
C415 C413 1.561 . S
C416 C413 1.526 . S
C416 C417 1.396 . S
C416 C421 1.390 . S
C417 C411 1.465 . S
C417 C416 1.396 . S
C417 C418 1.399 . S
C418 H404 0.929 . S
C418 C417 1.399 . S
C418 C419 1.385 . S
C419 H405 0.931 . S
C419 C418 1.385 . S
C419 C420 1.389 . S
C420 C419 1.389 . S
C420 C421 1.387 . S
C421 H406 0.930 . S
C421 C416 1.390 . S
C421 C420 1.387 . S
H422 C434 0.930 . S
H423 C436 0.930 . S
H424 C437 0.930 . S
H425 C441 0.959 . S
H426 C441 0.959 . S
H427 C441 0.961 . S
H428 C442 0.960 . S
H429 C442 0.961 . S
H430 C442 0.959 . S
H431 C445 0.929 . S
H432 C446 0.931 . S
H433 C448 0.930 . S
C434 H422 0.930 . S
C434 C435 1.399 . S
C434 C439 1.399 . S
C435 C434 1.399 . S
C435 C436 1.376 . S
C436 H423 0.930 . S
C436 C435 1.376 . S
C436 C437 1.388 . S
C437 H424 0.930 . S
C437 C436 1.388 . S
C437 C438 1.390 . S
C438 C437 1.390 . S
C438 C439 1.394 . S
C438 C444 1.465 . S
C439 C434 1.399 . S
C439 C438 1.394 . S
C439 C440 1.516 . S
C440 C439 1.516 . S
C440 C441 1.502 . S
C440 C442 1.561 . S
C440 C443 1.526 . S
C441 H425 0.959 . S
C441 H426 0.959 . S
C441 H427 0.961 . S
C441 C440 1.502 . S
C442 H428 0.960 . S
C442 H429 0.961 . S
C442 H430 0.959 . S
C442 C440 1.561 . S
C443 C440 1.526 . S
C443 C444 1.396 . S
C443 C448 1.390 . S
C444 C438 1.465 . S
C444 C443 1.396 . S
C444 C445 1.399 . S
C445 H431 0.929 . S
C445 C444 1.399 . S
C445 C446 1.385 . S
C446 H432 0.931 . S
C446 C445 1.385 . S
C446 C447 1.389 . S
C447 C446 1.389 . S
C447 C448 1.387 . S
C448 H433 0.930 . S
C448 C443 1.390 . S
C448 C447 1.387 . S
H449 C461 0.930 . S
H450 C463 0.930 . S
H451 C464 0.930 . S
H452 C468 0.959 . S
H453 C468 0.959 . S
H454 C468 0.961 . S
H455 C469 0.960 . S
H456 C469 0.961 . S
H457 C469 0.959 . S
H458 C472 0.929 . S
H459 C473 0.931 . S
H460 C475 0.930 . S
C461 H449 0.930 . S
C461 C462 1.399 . S
C461 C466 1.399 . S
C462 C461 1.399 . S
C462 C463 1.376 . S
C463 H450 0.930 . S
C463 C462 1.376 . S
C463 C464 1.388 . S
C464 H451 0.930 . S
C464 C463 1.388 . S
C464 C465 1.390 . S
C465 C464 1.390 . S
C465 C466 1.394 . S
C465 C471 1.465 . S
C466 C461 1.399 . S
C466 C465 1.394 . S
C466 C467 1.516 . S
C467 C466 1.516 . S
C467 C468 1.502 . S
C467 C469 1.561 . S
C467 C470 1.526 . S
C468 H452 0.959 . S
C468 H453 0.959 . S
C468 H454 0.961 . S
C468 C467 1.502 . S
C469 H455 0.960 . S
C469 H456 0.961 . S
C469 H457 0.959 . S
C469 C467 1.561 . S
C470 C467 1.526 . S
C470 C471 1.396 . S
C470 C475 1.390 . S
C471 C465 1.465 . S
C471 C470 1.396 . S
C471 C472 1.399 . S
C472 H458 0.929 . S
C472 C471 1.399 . S
C472 C473 1.385 . S
C473 H459 0.931 . S
C473 C472 1.385 . S
C473 C474 1.389 . S
C474 C473 1.389 . S
C474 C475 1.387 . S
C475 H460 0.930 . S
C475 C470 1.390 . S
C475 C474 1.387 . S
H476 C488 0.930 . S
H477 C490 0.930 . S
H478 C491 0.930 . S
H479 C495 0.959 . S
H480 C495 0.959 . S
H481 C495 0.961 . S
H482 C496 0.960 . S
H483 C496 0.961 . S
H484 C496 0.959 . S
H485 C499 0.929 . S
H486 C500 0.931 . S
H487 C502 0.930 . S
C488 H476 0.930 . S
C488 C489 1.399 1_565 S
C488 C493 1.399 . S
C489 C488 1.399 1_545 S
C489 C490 1.376 . S
C490 H477 0.930 . S
C490 C489 1.376 . S
C490 C491 1.388 . S
C491 H478 0.930 . S
C491 C490 1.388 . S
C491 C492 1.390 . S
C492 C491 1.390 . S
C492 C493 1.394 1_545 S
C492 C498 1.465 . S
C493 C488 1.399 . S
C493 C492 1.394 1_565 S
C493 C494 1.516 . S
C494 C493 1.516 . S
C494 C495 1.502 . S
C494 C496 1.561 . S
C494 C497 1.526 . S
C495 H479 0.959 . S
C495 H480 0.959 . S
C495 H481 0.961 . S
C495 C494 1.502 . S
C496 H482 0.960 . S
C496 H483 0.961 . S
C496 H484 0.959 . S
C496 C494 1.561 . S
C497 C494 1.526 . S
C497 C498 1.396 1_565 S
C497 C502 1.390 . S
C498 C492 1.465 . S
C498 C497 1.396 1_545 S
C498 C499 1.399 . S
C499 H485 0.929 . S
C499 C498 1.399 . S
C499 C500 1.385 . S
C500 H486 0.931 . S
C500 C499 1.385 . S
C500 C501 1.389 . S
C501 C500 1.389 . S
C501 C502 1.387 1_545 S
C502 H487 0.930 . S
C502 C497 1.390 . S
C502 C501 1.387 1_565 S
H503 C515 0.922 1_554 S
H504 C517 0.930 . S
H505 C518 0.930 . S
H506 C522 0.959 1_556 S
H507 C522 0.959 . S
H508 C522 0.961 . S
H509 C523 0.960 1_554 S
H510 C523 0.959 1_554 S
H511 C523 0.959 . S
H512 C526 0.929 . S
H513 C527 0.931 . S
H514 C529 0.930 . S
C515 H503 0.922 1_556 S
C515 C516 1.401 . S
C515 C520 1.405 . S
C516 C515 1.401 . S
C516 C517 1.376 . S
C517 H504 0.930 . S
C517 C516 1.376 . S
C517 C518 1.388 . S
C518 H505 0.930 . S
C518 C517 1.388 . S
C518 C519 1.390 . S
C519 C518 1.390 . S
C519 C520 1.394 . S
C519 C525 1.465 . S
C520 C515 1.405 . S
C520 C519 1.394 . S
C520 C521 1.516 . S
C521 C520 1.516 . S
C521 C522 1.502 1_556 S
C521 C523 1.561 . S
C521 C524 1.526 . S
C522 H506 0.959 1_554 S
C522 H507 0.959 . S
C522 H508 0.961 . S
C522 C521 1.502 1_554 S
C523 H509 0.960 1_556 S
C523 H510 0.959 1_556 S
C523 H511 0.959 . S
C523 C521 1.561 . S
C524 C521 1.526 . S
C524 C525 1.396 . S
C524 C529 1.390 . S
C525 C519 1.465 . S
C525 C524 1.396 . S
C525 C526 1.399 . S
C526 H512 0.929 . S
C526 C525 1.399 . S
C526 C527 1.385 . S
C527 H513 0.931 . S
C527 C526 1.385 . S
C527 C528 1.389 . S
C528 C527 1.389 . S
C528 C529 1.387 . S
C529 H514 0.930 . S
C529 C524 1.390 . S
C529 C528 1.387 . S
H530 C542 0.930 . S
H531 C544 0.930 . S
H532 C545 0.930 1_554 S
H533 C549 0.959 . S
H534 C549 0.959 . S
H535 C549 0.961 . S
H536 C550 0.960 . S
H537 C550 0.961 . S
H538 C550 0.959 . S
H539 C553 0.929 . S
H540 C554 0.931 . S
H541 C556 0.930 . S
C542 H530 0.930 . S
C542 C543 1.399 . S
C542 C547 1.399 . S
C543 C542 1.399 . S
C543 C544 1.376 1_556 S
C544 H531 0.930 . S
C544 C543 1.376 1_554 S
C544 C545 1.388 1_554 S
C545 H532 0.930 1_556 S
C545 C544 1.388 1_556 S
C545 C546 1.390 . S
C546 C545 1.390 . S
C546 C547 1.394 . S
C546 C552 1.465 . S
C547 C542 1.399 . S
C547 C546 1.394 . S
C547 C548 1.516 . S
C548 C547 1.516 . S
C548 C549 1.502 . S
C548 C550 1.561 . S
C548 C551 1.526 . S
C549 H533 0.959 . S
C549 H534 0.959 . S
C549 H535 0.961 . S
C549 C548 1.502 . S
C550 H536 0.960 . S
C550 H537 0.961 . S
C550 H538 0.959 . S
C550 C548 1.561 . S
C551 C548 1.526 . S
C551 C552 1.396 . S
C551 C556 1.390 . S
C552 C546 1.465 . S
C552 C551 1.396 . S
C552 C553 1.399 . S
C553 H539 0.929 . S
C553 C552 1.399 . S
C553 C554 1.385 . S
C554 H540 0.931 . S
C554 C553 1.385 . S
C554 C555 1.389 . S
C555 C554 1.389 . S
C555 C556 1.387 . S
C556 H541 0.930 . S
C556 C551 1.390 . S
C556 C555 1.387 . S
H557 C569 0.930 . S
H558 C571 0.930 . S
H559 C572 0.930 . S
H560 C576 0.959 . S
H561 C576 0.959 . S
H562 C576 0.961 1_554 S
H563 C577 0.960 . S
H564 C577 0.961 . S
H565 C577 0.959 . S
H566 C580 0.929 . S
H567 C581 0.931 . S
H568 C583 0.930 . S
C569 H557 0.930 . S
C569 C570 1.399 . S
C569 C574 1.399 . S
C570 C569 1.399 . S
C570 C571 1.376 . S
C571 H558 0.930 . S
C571 C570 1.376 . S
C571 C572 1.388 . S
C572 H559 0.930 . S
C572 C571 1.388 . S
C572 C573 1.390 . S
C573 C572 1.390 . S
C573 C574 1.394 . S
C573 C579 1.465 . S
C574 C569 1.399 . S
C574 C573 1.394 . S
C574 C575 1.516 . S
C575 C574 1.516 . S
C575 C576 1.502 . S
C575 C577 1.561 . S
C575 C578 1.526 . S
C576 H560 0.959 . S
C576 H561 0.959 . S
C576 H562 0.961 1_556 S
C576 C575 1.502 . S
C577 H563 0.960 . S
C577 H564 0.961 . S
C577 H565 0.959 . S
C577 C575 1.561 . S
C578 C575 1.526 . S
C578 C579 1.396 . S
C578 C583 1.390 . S
C579 C573 1.465 . S
C579 C578 1.396 . S
C579 C580 1.399 . S
C580 H566 0.929 . S
C580 C579 1.399 . S
C580 C581 1.385 . S
C581 H567 0.931 . S
C581 C580 1.385 . S
C581 C582 1.389 . S
C582 C581 1.389 . S
C582 C583 1.387 . S
C583 H568 0.930 . S
C583 C578 1.390 . S
C583 C582 1.387 . S
H584 C596 0.930 . S
H585 C598 0.930 . S
H586 C599 0.930 . S
H587 C603 0.959 . S
H588 C603 0.959 . S
H589 C603 0.961 . S
H590 C604 0.960 . S
H591 C604 0.961 . S
H592 C604 0.959 . S
H593 C607 0.929 . S
H594 C608 0.931 . S
H595 C610 0.930 . S
C596 H584 0.930 . S
C596 C597 1.399 . S
C596 C601 1.399 . S
C597 C596 1.399 . S
C597 C598 1.376 . S
C598 H585 0.930 . S
C598 C597 1.376 . S
C598 C599 1.388 . S
C599 H586 0.930 . S
C599 C598 1.388 . S
C599 C600 1.390 . S
C600 C599 1.390 . S
C600 C601 1.394 . S
C600 C606 1.465 . S
C601 C596 1.399 . S
C601 C600 1.394 . S
C601 C602 1.516 . S
C602 C601 1.516 . S
C602 C603 1.502 . S
C602 C604 1.561 . S
C602 C605 1.526 . S
C603 H587 0.959 . S
C603 H588 0.959 . S
C603 H589 0.961 . S
C603 C602 1.502 . S
C604 H590 0.960 . S
C604 H591 0.961 . S
C604 H592 0.959 . S
C604 C602 1.561 . S
C605 C602 1.526 . S
C605 C606 1.396 . S
C605 C610 1.390 . S
C606 C600 1.465 . S
C606 C605 1.396 . S
C606 C607 1.399 . S
C607 H593 0.929 . S
C607 C606 1.399 . S
C607 C608 1.385 . S
C608 H594 0.931 . S
C608 C607 1.385 . S
C608 C609 1.389 . S
C609 C608 1.389 . S
C609 C610 1.387 . S
C610 H595 0.930 . S
C610 C605 1.390 . S
C610 C609 1.387 . S
H611 C623 0.930 . S
H612 C625 0.930 . S
H613 C626 0.930 . S
H614 C630 0.959 . S
H615 C630 0.959 . S
H616 C630 0.961 . S
H617 C631 0.960 . S
H618 C631 0.961 . S
H619 C631 0.959 . S
H620 C634 0.929 . S
H621 C635 0.931 . S
H622 C637 0.930 . S
C623 H611 0.930 . S
C623 C624 1.399 1_565 S
C623 C628 1.399 . S
C624 C623 1.399 1_545 S
C624 C625 1.376 . S
C625 H612 0.930 . S
C625 C624 1.376 . S
C625 C626 1.388 . S
C626 H613 0.930 . S
C626 C625 1.388 . S
C626 C627 1.390 . S
C627 C626 1.390 . S
C627 C628 1.394 1_545 S
C627 C633 1.465 . S
C628 C623 1.399 . S
C628 C627 1.394 1_565 S
C628 C629 1.516 . S
C629 C628 1.516 . S
C629 C630 1.502 . S
C629 C631 1.561 . S
C629 C632 1.526 . S
C630 H614 0.959 . S
C630 H615 0.959 . S
C630 H616 0.961 . S
C630 C629 1.502 . S
C631 H617 0.960 . S
C631 H618 0.961 . S
C631 H619 0.959 . S
C631 C629 1.561 . S
C632 C629 1.526 . S
C632 C633 1.396 1_565 S
C632 C637 1.390 . S
C633 C627 1.465 . S
C633 C632 1.396 1_545 S
C633 C634 1.399 . S
C634 H620 0.929 . S
C634 C633 1.399 . S
C634 C635 1.385 . S
C635 H621 0.931 . S
C635 C634 1.385 . S
C635 C636 1.389 . S
C636 C635 1.389 . S
C636 C637 1.387 1_545 S
C637 H622 0.930 . S
C637 C632 1.390 . S
C637 C636 1.387 1_565 S
H638 C650 0.930 . S
H639 C652 0.930 . S
H640 C653 0.930 . S
H641 C657 0.959 . S
H642 C657 0.959 . S
H643 C657 0.961 . S
H644 C658 0.960 . S
H645 C658 0.961 . S
H646 C658 0.959 . S
H647 C661 0.929 . S
H648 C662 0.931 . S
H649 C664 0.930 . S
C650 H638 0.930 . S
C650 C651 1.399 . S
C650 C655 1.399 . S
C651 C650 1.399 . S
C651 C652 1.376 . S
C652 H639 0.930 . S
C652 C651 1.376 . S
C652 C653 1.388 . S
C653 H640 0.930 . S
C653 C652 1.388 . S
C653 C654 1.390 . S
C654 C653 1.390 . S
C654 C655 1.394 . S
C654 C660 1.465 . S
C655 C650 1.399 . S
C655 C654 1.394 . S
C655 C656 1.516 . S
C656 C655 1.516 . S
C656 C657 1.502 . S
C656 C658 1.561 . S
C656 C659 1.526 . S
C657 H641 0.959 . S
C657 H642 0.959 . S
C657 H643 0.961 . S
C657 C656 1.502 . S
C658 H644 0.960 . S
C658 H645 0.961 . S
C658 H646 0.959 . S
C658 C656 1.561 . S
C659 C656 1.526 . S
C659 C660 1.396 . S
C659 C664 1.390 . S
C660 C654 1.465 . S
C660 C659 1.396 . S
C660 C661 1.399 . S
C661 H647 0.929 . S
C661 C660 1.399 . S
C661 C662 1.385 . S
C662 H648 0.931 . S
C662 C661 1.385 . S
C662 C663 1.389 . S
C663 C662 1.389 . S
C663 C664 1.387 . S
C664 H649 0.930 . S
C664 C659 1.390 . S
C664 C663 1.387 . S
H665 C677 0.930 . S
H666 C679 0.930 . S
H667 C680 0.930 . S
H668 C684 0.959 . S
H669 C684 0.959 . S
H670 C684 0.961 . S
H671 C685 0.960 . S
H672 C685 0.961 . S
H673 C685 0.959 . S
H674 C688 0.929 . S
H675 C689 0.931 . S
H676 C691 0.930 . S
C677 H665 0.930 . S
C677 C678 1.399 . S
C677 C682 1.399 . S
C678 C677 1.399 . S
C678 C679 1.376 . S
C679 H666 0.930 . S
C679 C678 1.376 . S
C679 C680 1.388 . S
C680 H667 0.930 . S
C680 C679 1.388 . S
C680 C681 1.390 . S
C681 C680 1.390 . S
C681 C682 1.394 . S
C681 C687 1.465 . S
C682 C677 1.399 . S
C682 C681 1.394 . S
C682 C683 1.516 . S
C683 C682 1.516 . S
C683 C684 1.502 . S
C683 C685 1.561 . S
C683 C686 1.526 . S
C684 H668 0.959 . S
C684 H669 0.959 . S
C684 H670 0.961 . S
C684 C683 1.502 . S
C685 H671 0.960 . S
C685 H672 0.961 . S
C685 H673 0.959 . S
C685 C683 1.561 . S
C686 C683 1.526 . S
C686 C687 1.396 . S
C686 C691 1.390 . S
C687 C681 1.465 . S
C687 C686 1.396 . S
C687 C688 1.399 . S
C688 H674 0.929 . S
C688 C687 1.399 . S
C688 C689 1.385 . S
C689 H675 0.931 . S
C689 C688 1.385 . S
C689 C690 1.389 . S
C690 C689 1.389 . S
C690 C691 1.387 . S
C691 H676 0.930 . S
C691 C686 1.390 . S
C691 C690 1.387 . S
H692 C704 0.930 . S
H693 C706 0.930 . S
H694 C707 0.930 . S
H695 C711 0.959 . S
H696 C711 0.959 . S
H697 C711 0.961 . S
H698 C712 0.960 . S
H699 C712 0.961 . S
H700 C712 0.959 . S
H701 C715 0.929 . S
H702 C716 0.931 . S
H703 C718 0.930 . S
C704 H692 0.930 . S
C704 C705 1.399 . S
C704 C709 1.399 . S
C705 C704 1.399 . S
C705 C706 1.376 . S
C706 H693 0.930 . S
C706 C705 1.376 . S
C706 C707 1.388 . S
C707 H694 0.930 . S
C707 C706 1.388 . S
C707 C708 1.390 . S
C708 C707 1.390 . S
C708 C709 1.394 . S
C708 C714 1.465 . S
C709 C704 1.399 . S
C709 C708 1.394 . S
C709 C710 1.516 . S
C710 C709 1.516 . S
C710 C711 1.502 . S
C710 C712 1.561 . S
C710 C713 1.526 . S
C711 H695 0.959 . S
C711 H696 0.959 . S
C711 H697 0.961 . S
C711 C710 1.502 . S
C712 H698 0.960 . S
C712 H699 0.961 . S
C712 H700 0.959 . S
C712 C710 1.561 . S
C713 C710 1.526 . S
C713 C714 1.396 . S
C713 C718 1.390 . S
C714 C708 1.465 . S
C714 C713 1.396 . S
C714 C715 1.399 . S
C715 H701 0.929 . S
C715 C714 1.399 . S
C715 C716 1.385 . S
C716 H702 0.931 . S
C716 C715 1.385 . S
C716 C717 1.389 . S
C717 C716 1.389 . S
C717 C718 1.387 . S
C718 H703 0.930 . S
C718 C713 1.390 . S
C718 C717 1.387 . S
H719 C731 0.930 . S
H720 C733 0.930 . S
H721 C734 0.930 . S
H722 C738 0.959 . S
H723 C738 0.959 . S
H724 C738 0.961 . S
H725 C739 0.960 . S
H726 C739 0.961 . S
H727 C739 0.959 . S
H728 C742 0.929 . S
H729 C743 0.931 . S
H730 C745 0.930 . S
C731 H719 0.930 . S
C731 C732 1.399 1_545 S
C731 C736 1.399 . S
C732 C731 1.399 1_565 S
C732 C733 1.376 . S
C733 H720 0.930 . S
C733 C732 1.376 . S
C733 C734 1.388 . S
C734 H721 0.930 . S
C734 C733 1.388 . S
C734 C735 1.390 . S
C735 C734 1.390 . S
C735 C736 1.394 1_565 S
C735 C741 1.465 . S
C736 C731 1.399 . S
C736 C735 1.394 1_545 S
C736 C737 1.516 . S
C737 C736 1.516 . S
C737 C738 1.502 . S
C737 C739 1.561 . S
C737 C740 1.526 . S
C738 H722 0.959 . S
C738 H723 0.959 . S
C738 H724 0.961 . S
C738 C737 1.502 . S
C739 H725 0.960 . S
C739 H726 0.961 . S
C739 H727 0.959 . S
C739 C737 1.561 . S
C740 C737 1.526 . S
C740 C741 1.396 1_545 S
C740 C745 1.390 . S
C741 C735 1.465 . S
C741 C740 1.396 1_565 S
C741 C742 1.399 . S
C742 H728 0.929 . S
C742 C741 1.399 . S
C742 C743 1.385 . S
C743 H729 0.931 . S
C743 C742 1.385 . S
C743 C744 1.389 1_565 S
C744 C743 1.389 1_545 S
C744 C745 1.387 . S
C745 H730 0.930 . S
C745 C740 1.390 . S
C745 C744 1.387 . S
H746 C758 0.930 . S
H747 C760 0.930 . S
H748 C761 0.930 . S
H749 C765 0.959 . S
H750 C765 0.959 . S
H751 C765 0.961 . S
H752 C766 0.960 . S
H753 C766 0.961 . S
H754 C766 0.959 . S
H755 C769 0.929 . S
H756 C770 0.931 . S
H757 C772 0.930 . S
C758 H746 0.930 . S
C758 C759 1.399 . S
C758 C763 1.399 . S
C759 C758 1.399 . S
C759 C760 1.376 . S
C760 H747 0.930 . S
C760 C759 1.376 . S
C760 C761 1.388 . S
C761 H748 0.930 . S
C761 C760 1.388 . S
C761 C762 1.390 . S
C762 C761 1.390 . S
C762 C763 1.394 . S
C762 C768 1.465 . S
C763 C758 1.399 . S
C763 C762 1.394 . S
C763 C764 1.516 . S
C764 C763 1.516 . S
C764 C765 1.502 . S
C764 C766 1.561 . S
C764 C767 1.526 . S
C765 H749 0.959 . S
C765 H750 0.959 . S
C765 H751 0.961 . S
C765 C764 1.502 . S
C766 H752 0.960 . S
C766 H753 0.961 . S
C766 H754 0.959 . S
C766 C764 1.561 . S
C767 C764 1.526 . S
C767 C768 1.396 . S
C767 C772 1.390 . S
C768 C762 1.465 . S
C768 C767 1.396 . S
C768 C769 1.399 . S
C769 H755 0.929 . S
C769 C768 1.399 . S
C769 C770 1.385 . S
C770 H756 0.931 . S
C770 C769 1.385 . S
C770 C771 1.389 . S
C771 C770 1.389 . S
C771 C772 1.387 . S
C772 H757 0.930 . S
C772 C767 1.390 . S
C772 C771 1.387 . S
H773 C785 0.930 . S
H774 C787 0.930 . S
H775 C788 0.930 . S
H776 C792 0.959 . S
H777 C792 0.959 . S
H778 C792 0.961 . S
H779 C793 0.960 . S
H780 C793 0.961 . S
H781 C793 0.959 . S
H782 C796 0.929 . S
H783 C797 0.931 . S
H784 C799 0.930 . S
C785 H773 0.930 . S
C785 C786 1.399 . S
C785 C790 1.399 . S
C786 C785 1.399 . S
C786 C787 1.376 . S
C787 H774 0.930 . S
C787 C786 1.376 . S
C787 C788 1.388 . S
C788 H775 0.930 . S
C788 C787 1.388 . S
C788 C789 1.390 . S
C789 C788 1.390 . S
C789 C790 1.394 . S
C789 C795 1.465 . S
C790 C785 1.399 . S
C790 C789 1.394 . S
C790 C791 1.516 . S
C791 C790 1.516 . S
C791 C792 1.502 . S
C791 C793 1.561 . S
C791 C794 1.526 . S
C792 H776 0.959 . S
C792 H777 0.959 . S
C792 H778 0.961 . S
C792 C791 1.502 . S
C793 H779 0.960 . S
C793 H780 0.961 . S
C793 H781 0.959 . S
C793 C791 1.561 . S
C794 C791 1.526 . S
C794 C795 1.396 . S
C794 C799 1.390 . S
C795 C789 1.465 . S
C795 C794 1.396 . S
C795 C796 1.399 . S
C796 H782 0.929 . S
C796 C795 1.399 . S
C796 C797 1.385 . S
C797 H783 0.931 . S
C797 C796 1.385 . S
C797 C798 1.389 . S
C798 C797 1.389 . S
C798 C799 1.387 . S
C799 H784 0.930 . S
C799 C794 1.390 . S
C799 C798 1.387 . S
H800 C812 0.930 . S
H801 C814 0.930 . S
H802 C815 0.930 . S
H803 C819 0.959 . S
H804 C819 0.959 . S
H805 C819 0.961 . S
H806 C820 0.960 . S
H807 C820 0.961 . S
H808 C820 0.959 . S
H809 C823 0.929 1_554 S
H810 C824 0.931 . S
H811 C826 0.930 . S
C812 H800 0.930 . S
C812 C813 1.399 1_556 S
C812 C817 1.399 . S
C813 C812 1.399 1_554 S
C813 C814 1.376 . S
C814 H801 0.930 . S
C814 C813 1.376 . S
C814 C815 1.388 . S
C815 H802 0.930 . S
C815 C814 1.388 . S
C815 C816 1.390 1_554 S
C816 C815 1.390 1_556 S
C816 C817 1.394 . S
C816 C822 1.465 . S
C817 C812 1.399 . S
C817 C816 1.394 . S
C817 C818 1.516 . S
C818 C817 1.516 . S
C818 C819 1.502 . S
C818 C820 1.561 . S
C818 C821 1.526 . S
C819 H803 0.959 . S
C819 H804 0.959 . S
C819 H805 0.961 . S
C819 C818 1.502 . S
C820 H806 0.960 . S
C820 H807 0.961 . S
C820 H808 0.959 . S
C820 C818 1.561 . S
C821 C818 1.526 . S
C821 C822 1.396 . S
C821 C826 1.390 . S
C822 C816 1.465 . S
C822 C821 1.396 . S
C822 C823 1.399 . S
C823 H809 0.929 1_556 S
C823 C822 1.399 . S
C823 C824 1.385 . S
C824 H810 0.931 . S
C824 C823 1.385 . S
C824 C825 1.389 . S
C825 C824 1.389 . S
C825 C826 1.387 . S
C826 H811 0.930 . S
C826 C821 1.390 . S
C826 C825 1.387 . S
H827 C839 0.930 . S
H828 C841 0.930 1_554 S
H829 C842 0.930 . S
H830 C846 0.959 . S
H831 C846 0.959 . S
H832 C846 0.961 . S
H833 C847 0.960 . S
H834 C847 0.961 . S
H835 C847 0.959 . S
H836 C850 0.929 . S
H837 C851 0.931 . S
H838 C853 0.930 . S
C839 H827 0.930 . S
C839 C840 1.399 . S
C839 C844 1.399 . S
C840 C839 1.399 . S
C840 C841 1.376 1_545 S
C841 H828 0.930 1_556 S
C841 C840 1.376 1_565 S
C841 C842 1.388 . S
C842 H829 0.930 . S
C842 C841 1.388 . S
C842 C843 1.390 . S
C843 C842 1.390 . S
C843 C844 1.394 1_565 S
C843 C849 1.465 . S
C844 C839 1.399 . S
C844 C843 1.394 1_545 S
C844 C845 1.516 . S
C845 C844 1.516 . S
C845 C846 1.502 . S
C845 C847 1.561 . S
C845 C848 1.526 . S
C846 H830 0.959 . S
C846 H831 0.959 . S
C846 H832 0.961 . S
C846 C845 1.502 . S
C847 H833 0.960 . S
C847 H834 0.961 . S
C847 H835 0.959 . S
C847 C845 1.561 . S
C848 C845 1.526 . S
C848 C849 1.396 1_545 S
C848 C853 1.390 . S
C849 C843 1.465 . S
C849 C848 1.396 1_565 S
C849 C850 1.399 . S
C850 H836 0.929 . S
C850 C849 1.399 . S
C850 C851 1.385 . S
C851 H837 0.931 . S
C851 C850 1.385 . S
C851 C852 1.389 1_565 S
C852 C851 1.389 1_545 S
C852 C853 1.387 . S
C853 H838 0.930 . S
C853 C848 1.390 . S
C853 C852 1.387 . S
H854 C866 0.930 1_554 S
H855 C868 0.930 . S
H856 C869 0.930 . S
H857 C873 0.959 1_556 S
H858 C873 0.959 . S
H859 C873 0.961 . S
H860 C874 0.960 . S
H861 C874 0.961 . S
H862 C874 0.959 . S
H863 C877 0.929 . S
H864 C878 0.931 . S
H865 C880 0.930 . S
C866 H854 0.930 1_556 S
C866 C867 1.399 . S
C866 C871 1.399 . S
C867 C866 1.399 . S
C867 C868 1.376 . S
C868 H855 0.930 . S
C868 C867 1.376 . S
C868 C869 1.388 . S
C869 H856 0.930 . S
C869 C868 1.388 . S
C869 C870 1.390 . S
C870 C869 1.390 . S
C870 C871 1.394 . S
C870 C876 1.465 . S
C871 C866 1.399 . S
C871 C870 1.394 . S
C871 C872 1.516 . S
C872 C871 1.516 . S
C872 C873 1.502 1_556 S
C872 C874 1.561 1_556 S
C872 C875 1.526 . S
C873 H857 0.959 1_554 S
C873 H858 0.959 . S
C873 H859 0.961 . S
C873 C872 1.502 1_554 S
C874 H860 0.960 . S
C874 H861 0.961 . S
C874 H862 0.959 . S
C874 C872 1.561 1_554 S
C875 C872 1.526 . S
C875 C876 1.396 . S
C875 C880 1.390 . S
C876 C870 1.465 . S
C876 C875 1.396 . S
C876 C877 1.399 . S
C877 H863 0.929 . S
C877 C876 1.399 . S
C877 C878 1.385 . S
C878 H864 0.931 . S
C878 C877 1.385 . S
C878 C879 1.389 . S
C879 C878 1.389 . S
C879 C880 1.387 . S
C880 H865 0.930 . S
C880 C875 1.390 . S
C880 C879 1.387 . S
H881 C893 0.930 . S
H882 C895 0.930 . S
H883 C896 0.930 . S
H884 C900 0.959 . S
H885 C900 0.959 . S
H886 C900 0.961 . S
H887 C901 0.960 . S
H888 C901 0.961 1_556 S
H889 C901 0.959 . S
H890 C904 0.929 . S
H891 C905 0.931 . S
H892 C907 0.930 . S
C893 H881 0.930 . S
C893 C894 1.399 . S
C893 C898 1.399 . S
C894 C893 1.399 . S
C894 C895 1.376 . S
C895 H882 0.930 . S
C895 C894 1.376 . S
C895 C896 1.388 . S
C896 H883 0.930 . S
C896 C895 1.388 . S
C896 C897 1.390 . S
C897 C896 1.390 . S
C897 C898 1.394 . S
C897 C903 1.465 . S
C898 C893 1.399 . S
C898 C897 1.394 . S
C898 C899 1.516 . S
C899 C898 1.516 . S
C899 C900 1.502 . S
C899 C901 1.561 1_556 S
C899 C902 1.526 . S
C900 H884 0.959 . S
C900 H885 0.959 . S
C900 H886 0.961 . S
C900 C899 1.502 . S
C901 H887 0.960 . S
C901 H888 0.961 1_554 S
C901 H889 0.959 . S
C901 C899 1.561 1_554 S
C902 C899 1.526 . S
C902 C903 1.396 . S
C902 C907 1.390 . S
C903 C897 1.465 . S
C903 C902 1.396 . S
C903 C904 1.399 . S
C904 H890 0.929 . S
C904 C903 1.399 . S
C904 C905 1.385 . S
C905 H891 0.931 . S
C905 C904 1.385 . S
C905 C906 1.389 . S
C906 C905 1.389 . S
C906 C907 1.387 . S
C907 H892 0.930 . S
C907 C902 1.390 . S
C907 C906 1.387 . S
H908 C920 0.930 . S
H909 C922 0.930 . S
H910 C923 0.930 . S
H911 C927 0.959 . S
H912 C927 0.959 . S
H913 C927 0.961 . S
H914 C928 0.960 . S
H915 C928 0.961 . S
H916 C928 0.959 . S
H917 C931 0.929 . S
H918 C932 0.931 . S
H919 C934 0.930 . S
C920 H908 0.930 . S
C920 C921 1.399 . S
C920 C925 1.399 . S
C921 C920 1.399 . S
C921 C922 1.376 . S
C922 H909 0.930 . S
C922 C921 1.376 . S
C922 C923 1.388 . S
C923 H910 0.930 . S
C923 C922 1.388 . S
C923 C924 1.390 . S
C924 C923 1.390 . S
C924 C925 1.394 . S
C924 C930 1.465 . S
C925 C920 1.399 . S
C925 C924 1.394 . S
C925 C926 1.516 . S
C926 C925 1.516 . S
C926 C927 1.502 . S
C926 C928 1.561 . S
C926 C929 1.526 . S
C927 H911 0.959 . S
C927 H912 0.959 . S
C927 H913 0.961 . S
C927 C926 1.502 . S
C928 H914 0.960 . S
C928 H915 0.961 . S
C928 H916 0.959 . S
C928 C926 1.561 . S
C929 C926 1.526 . S
C929 C930 1.396 . S
C929 C934 1.390 . S
C930 C924 1.465 . S
C930 C929 1.396 . S
C930 C931 1.399 . S
C931 H917 0.929 . S
C931 C930 1.399 . S
C931 C932 1.385 . S
C932 H918 0.931 . S
C932 C931 1.385 . S
C932 C933 1.389 . S
C933 C932 1.389 . S
C933 C934 1.387 . S
C934 H919 0.930 . S
C934 C929 1.390 . S
C934 C933 1.387 . S
H935 C947 0.930 . S
H936 C949 0.930 . S
H937 C950 0.930 . S
H938 C954 0.959 . S
H939 C954 0.959 . S
H940 C954 0.961 . S
H941 C955 0.960 . S
H942 C955 0.961 . S
H943 C955 0.959 . S
H944 C958 0.929 . S
H945 C959 0.931 . S
H946 C961 0.930 . S
C947 H935 0.930 . S
C947 C948 1.399 1_565 S
C947 C952 1.399 . S
C948 C947 1.399 1_545 S
C948 C949 1.376 . S
C949 H936 0.930 . S
C949 C948 1.376 . S
C949 C950 1.388 . S
C950 H937 0.930 . S
C950 C949 1.388 . S
C950 C951 1.390 . S
C951 C950 1.390 . S
C951 C952 1.394 1_545 S
C951 C957 1.465 . S
C952 C947 1.399 . S
C952 C951 1.394 1_565 S
C952 C953 1.516 . S
C953 C952 1.516 . S
C953 C954 1.502 . S
C953 C955 1.561 . S
C953 C956 1.526 . S
C954 H938 0.959 . S
C954 H939 0.959 . S
C954 H940 0.961 . S
C954 C953 1.502 . S
C955 H941 0.960 . S
C955 H942 0.961 . S
C955 H943 0.959 . S
C955 C953 1.561 . S
C956 C953 1.526 . S
C956 C957 1.396 1_565 S
C956 C961 1.390 . S
C957 C951 1.465 . S
C957 C956 1.396 1_545 S
C957 C958 1.399 . S
C958 H944 0.929 . S
C958 C957 1.399 . S
C958 C959 1.385 . S
C959 H945 0.931 . S
C959 C958 1.385 . S
C959 C960 1.389 . S
C960 C959 1.389 . S
C960 C961 1.387 1_545 S
C961 H946 0.930 . S
C961 C956 1.390 . S
C961 C960 1.387 1_565 S
H962 C974 0.930 . S
H963 C976 0.930 . S
H964 C977 0.930 . S
H965 C981 0.959 . S
H966 C981 0.959 . S
H967 C981 0.961 . S
H968 C982 0.960 . S
H969 C982 0.961 . S
H970 C982 0.959 . S
H971 C985 0.929 . S
H972 C986 0.931 . S
H973 C988 0.930 . S
C974 H962 0.930 . S
C974 C975 1.399 . S
C974 C979 1.399 . S
C975 C974 1.399 . S
C975 C976 1.376 . S
C976 H963 0.930 . S
C976 C975 1.376 . S
C976 C977 1.388 . S
C977 H964 0.930 . S
C977 C976 1.388 . S
C977 C978 1.390 . S
C978 C977 1.390 . S
C978 C979 1.394 . S
C978 C984 1.465 . S
C979 C974 1.399 . S
C979 C978 1.394 . S
C979 C980 1.516 . S
C980 C979 1.516 . S
C980 C981 1.502 . S
C980 C982 1.561 . S
C980 C983 1.526 . S
C981 H965 0.959 . S
C981 H966 0.959 . S
C981 H967 0.961 . S
C981 C980 1.502 . S
C982 H968 0.960 . S
C982 H969 0.961 . S
C982 H970 0.959 . S
C982 C980 1.561 . S
C983 C980 1.526 . S
C983 C984 1.396 . S
C983 C988 1.390 . S
C984 C978 1.465 . S
C984 C983 1.396 . S
C984 C985 1.399 . S
C985 H971 0.929 . S
C985 C984 1.399 . S
C985 C986 1.385 . S
C986 H972 0.931 . S
C986 C985 1.385 . S
C986 C987 1.389 . S
C987 C986 1.389 . S
C987 C988 1.387 . S
C988 H973 0.930 . S
C988 C983 1.390 . S
C988 C987 1.387 . S
H989 C1001 0.930 . S
H990 C1003 0.930 . S
H991 C1004 0.930 . S
H992 C1008 0.959 . S
H993 C1008 0.959 . S
H994 C1008 0.961 . S
H995 C1009 0.960 . S
H996 C1009 0.961 . S
H997 C1009 0.959 . S
H998 C1012 0.929 . S
H999 C1013 0.931 . S
H1000 C1015 0.930 . S
C1001 H989 0.930 . S
C1001 C1002 1.399 . S
C1001 C1006 1.399 . S
C1002 C1001 1.399 . S
C1002 C1003 1.376 . S
C1003 H990 0.930 . S
C1003 C1002 1.376 . S
C1003 C1004 1.388 . S
C1004 H991 0.930 . S
C1004 C1003 1.388 . S
C1004 C1005 1.390 . S
C1005 C1004 1.390 . S
C1005 C1006 1.394 . S
C1005 C1011 1.465 . S
C1006 C1001 1.399 . S
C1006 C1005 1.394 . S
C1006 C1007 1.516 . S
C1007 C1006 1.516 . S
C1007 C1008 1.502 . S
C1007 C1009 1.561 . S
C1007 C1010 1.526 . S
C1008 H992 0.959 . S
C1008 H993 0.959 . S
C1008 H994 0.961 . S
C1008 C1007 1.502 . S
C1009 H995 0.960 . S
C1009 H996 0.961 . S
C1009 H997 0.959 . S
C1009 C1007 1.561 . S
C1010 C1007 1.526 . S
C1010 C1011 1.396 . S
C1010 C1015 1.390 . S
C1011 C1005 1.465 . S
C1011 C1010 1.396 . S
C1011 C1012 1.399 . S
C1012 H998 0.929 . S
C1012 C1011 1.399 . S
C1012 C1013 1.385 . S
C1013 H999 0.931 . S
C1013 C1012 1.385 . S
C1013 C1014 1.389 . S
C1014 C1013 1.389 . S
C1014 C1015 1.387 . S
C1015 H1000 0.930 . S
C1015 C1010 1.390 . S
C1015 C1014 1.387 . S
C381 C241 1.519 . S
C393 C289 1.522 . S
C420 C324 2.235 . S
C408 C277 2.062 . S
C447 C329 1.449 . S
C435 C169 1.318 . S
C474 C349 1.942 . S
C462 C205 1.858 . S
C501 C297 1.532 . S
C489 C97 1.457 1_556 S
C516 C133 2.139 1_556 S
C528 C314 2.237 . S
C543 C25 1.436 . S
C555 C337 1.407 . S
C570 C61 1.779 . S
C582 C357 1.947 . S
C609 C307 1.516 . S
C597 C211 1.444 . S
C636 C316 0.741 1_545 S
C624 C247 0.656 . S
C663 C347 1.642 . S
C651 C253 1.515 . S
C678 C175 0.801 . S
C690 C367 0.920 . S
C705 C67 1.318 . S
C717 C296 1.520 . S
C744 C327 0.742 . S
C732 C103 0.731 1_565 S
C771 C336 1.616 . S
C759 C109 1.534 . S
C786 C31 0.834 . S
C798 C356 0.843 . S
C813 C181 2.078 . S
C825 C294 2.201 . S
C840 C217 1.712 1_556 S
C852 C317 1.881 . S
C879 C334 2.375 . S
C867 C283 2.120 1_556 S
C906 C354 2.074 . S
C894 C145 1.936 1_556 S
C921 C37 2.049 . S
C933 C304 2.208 . S
C960 C309 1.878 . S
C948 C73 1.766 . S
C987 C344 2.368 . S
C975 C139 2.171 . S
C1002 C1 1.995 . S
C1014 C364 2.083 . S
