# Generated by pormake.
# Topology sqc, (4,8)-cn, num edge types: 1
# Building blocks:
#     Node 0, Type 0, BuildingBlock: AZAVOO_clean_linker_0, # of connection points: 4
#     Node 1, Type 0, BuildingBlock: AZAVOO_clean_linker_0, # of connection points: 4
#     Node 2, Type 0, BuildingBlock: AZAVOO_clean_linker_0, # of connection points: 4
#     Node 3, Type 0, BuildingBlock: AZAVOO_clean_linker_0, # of connection points: 4
#     Node 4, Type 0, BuildingBlock: AZAVOO_clean_linker_0, # of connection points: 4
#     Node 5, Type 0, BuildingBlock: AZAVOO_clean_linker_0, # of connection points: 4
#     Node 6, Type 0, BuildingBlock: AZAVOO_clean_linker_0, # of connection points: 4
#     Node 7, Type 0, BuildingBlock: AZAVOO_clean_linker_0, # of connection points: 4
#     Node 8, Type 1, BuildingBlock: TAGTUT_clean_sbu_3, # of connection points: 8
#     Node 9, Type 1, BuildingBlock: TAGTUT_clean_sbu_3, # of connection points: 8
#     Node 10, Type 1, BuildingBlock: TAGTUT_clean_sbu_3, # of connection points: 8
#     Node 11, Type 1, BuildingBlock: TAGTUT_clean_sbu_3, # of connection points: 8
#     Edge 12, Type (0, 1), BuildingBlock: TEMPAE_clean_linker_10, # of connection points: 2
#     Edge 13, Type (0, 1), BuildingBlock: TEMPAE_clean_linker_10, # of connection points: 2
#     Edge 14, Type (0, 1), BuildingBlock: TEMPAE_clean_linker_10, # of connection points: 2
#     Edge 15, Type (0, 1), BuildingBlock: TEMPAE_clean_linker_10, # of connection points: 2
#     Edge 16, Type (0, 1), BuildingBlock: TEMPAE_clean_linker_10, # of connection points: 2
#     Edge 17, Type (0, 1), BuildingBlock: TEMPAE_clean_linker_10, # of connection points: 2
#     Edge 18, Type (0, 1), BuildingBlock: TEMPAE_clean_linker_10, # of connection points: 2
#     Edge 19, Type (0, 1), BuildingBlock: TEMPAE_clean_linker_10, # of connection points: 2
#     Edge 20, Type (0, 1), BuildingBlock: TEMPAE_clean_linker_10, # of connection points: 2
#     Edge 21, Type (0, 1), BuildingBlock: TEMPAE_clean_linker_10, # of connection points: 2
#     Edge 22, Type (0, 1), BuildingBlock: TEMPAE_clean_linker_10, # of connection points: 2
#     Edge 23, Type (0, 1), BuildingBlock: TEMPAE_clean_linker_10, # of connection points: 2
#     Edge 24, Type (0, 1), BuildingBlock: TEMPAE_clean_linker_10, # of connection points: 2
#     Edge 25, Type (0, 1), BuildingBlock: TEMPAE_clean_linker_10, # of connection points: 2
#     Edge 26, Type (0, 1), BuildingBlock: TEMPAE_clean_linker_10, # of connection points: 2
#     Edge 27, Type (0, 1), BuildingBlock: TEMPAE_clean_linker_10, # of connection points: 2
#     Edge 28, Type (0, 1), BuildingBlock: TEMPAE_clean_linker_10, # of connection points: 2
#     Edge 29, Type (0, 1), BuildingBlock: TEMPAE_clean_linker_10, # of connection points: 2
#     Edge 30, Type (0, 1), BuildingBlock: TEMPAE_clean_linker_10, # of connection points: 2
#     Edge 31, Type (0, 1), BuildingBlock: TEMPAE_clean_linker_10, # of connection points: 2
#     Edge 32, Type (0, 1), BuildingBlock: TEMPAE_clean_linker_10, # of connection points: 2
#     Edge 33, Type (0, 1), BuildingBlock: TEMPAE_clean_linker_10, # of connection points: 2
#     Edge 34, Type (0, 1), BuildingBlock: TEMPAE_clean_linker_10, # of connection points: 2
#     Edge 35, Type (0, 1), BuildingBlock: TEMPAE_clean_linker_10, # of connection points: 2
#     Edge 36, Type (0, 1), BuildingBlock: TEMPAE_clean_linker_10, # of connection points: 2
#     Edge 37, Type (0, 1), BuildingBlock: TEMPAE_clean_linker_10, # of connection points: 2
#     Edge 38, Type (0, 1), BuildingBlock: TEMPAE_clean_linker_10, # of connection points: 2
#     Edge 39, Type (0, 1), BuildingBlock: TEMPAE_clean_linker_10, # of connection points: 2
#     Edge 40, Type (0, 1), BuildingBlock: TEMPAE_clean_linker_10, # of connection points: 2
#     Edge 41, Type (0, 1), BuildingBlock: TEMPAE_clean_linker_10, # of connection points: 2
#     Edge 42, Type (0, 1), BuildingBlock: TEMPAE_clean_linker_10, # of connection points: 2
#     Edge 43, Type (0, 1), BuildingBlock: TEMPAE_clean_linker_10, # of connection points: 2
# Relax obj value: 0.172
# Max RMSD: 0.267
# Mean RMSD: 0.229
data_MOF--net-sqc--node1-TAGTUT_clean_sbu_3--node2-AZAVOO_clean_linker_0--edge1-TEMPAE_clean_linker_10
_symmetry_space_group_name_H-M    P1
_symmetry_Int_Tables_number       1
_symmetry_cell_setting            triclinic
loop_
_symmetry_equiv_pos_as_xyz
'x, y, z'
_cell_length_a     26.430721
_cell_length_b     26.439781
_cell_length_c     92.724084
_cell_angle_alpha  91.706832
_cell_angle_beta   89.935357
_cell_angle_gamma 90.57532
loop_
_atom_site_label
_atom_site_type_symbol
_atom_site_fract_x
_atom_site_fract_y
_atom_site_fract_z
_atom_type_partial_charge
H0 H 0.03694 0.13036 0.61534 0.0
H1 H 0.71981 0.87386 0.49855 0.0
H2 H 0.09642 0.1122 0.5338 0.0
H3 H 0.1747 0.14805 0.54419 0.0
H4 H 0.22892 0.99719 0.55117 0.0
H5 H 0.15069 0.96157 0.54052 0.0
H6 H 0.99669 0.09961 0.55365 0.0
H7 H 0.00652 0.12605 0.57903 0.0
H8 H 0.08232 0.98558 0.58725 0.0
H9 H 0.07174 0.95946 0.56186 0.0
H10 H 0.91007 0.06855 0.53724 0.0
H11 H 0.83153 0.06849 0.551 0.0
H12 H 0.86936 0.9232 0.56806 0.0
H13 H 0.9488 0.92387 0.55413 0.0
H14 H 0.90797 0.0423 0.50688 0.0
H15 H 0.82266 0.02099 0.49827 0.0
H16 H 0.83904 0.86948 0.51387 0.0
H17 H 0.92439 0.89138 0.52241 0.0
H18 H 0.00595 0.05133 0.49036 0.0
H19 H 0.95174 0.03898 0.46917 0.0
H20 H 0.94423 0.87871 0.47695 0.0
H21 H -0.00062 0.89138 0.49779 0.0
H22 H 0.12079 0.07421 0.50543 0.0
H23 H 0.20109 0.06579 0.49232 0.0
H24 H 0.18642 0.9029 0.49341 0.0
H25 H 0.1074 0.91181 0.50687 0.0
O26 O 0.03338 0.11913 0.60535 0.0
O27 O 0.0726 0.04658 0.60898 0.0
O28 O 0.74493 0.96324 0.49558 0.0
O29 O 0.75371 0.88303 0.50164 0.0
C30 C 0.06918 0.01354 0.53111 0.0
C31 C 0.02742 0.01176 0.5406 0.0
C32 C 0.97984 0.99546 0.53537 0.0
C33 C 0.9736 0.98184 0.5207 0.0
C34 C 0.01545 0.98279 0.51123 0.0
C35 C 0.06349 -0.00212 0.51648 0.0
C36 C 0.11811 0.0344 0.53644 0.0
C37 C 0.12559 0.08697 0.53738 0.0
C38 C 0.17027 0.10732 0.54323 0.0
C39 C 0.20773 0.07533 0.54844 0.0
C40 C 0.20049 0.02258 0.54723 0.0
C41 C 0.15606 0.00224 0.54118 0.0
C42 C 0.03339 0.02763 0.55598 0.0
C43 C 0.0152 0.07457 0.56098 0.0
C44 C 0.02098 0.08959 0.57546 0.0
C45 C 0.0452 0.05792 0.58517 0.0
C46 C 0.06348 0.01087 0.58007 0.0
C47 C 0.05754 0.99587 0.56558 0.0
C48 C 0.93498 0.99649 0.54484 0.0
C49 C 0.90144 0.03682 0.54398 0.0
C50 C 0.85625 0.03619 0.55164 0.0
C51 C 0.84378 0.99517 0.56032 0.0
C52 C 0.87789 0.95496 0.56133 0.0
C53 C 0.92326 0.95553 0.55355 0.0
C54 C 0.92228 0.96827 0.51519 0.0
C55 C 0.89311 0.00447 0.50835 0.0
C56 C 0.84439 0.99224 0.50349 0.0
C57 C 0.824 0.94354 0.50542 0.0
C58 C 0.8536 0.90729 0.51221 0.0
C59 C 0.90229 0.91965 0.5171 0.0
C60 C 0.00614 0.9723 0.49567 0.0
C61 C 0.99513 0.01318 0.48695 0.0
C62 C 0.96332 0.00617 0.47502 0.0
C63 C 0.94239 0.95814 0.47166 0.0
C64 C 0.95955 0.91624 0.47922 0.0
C65 C 0.99152 0.92329 0.49111 0.0
C66 C 0.10852 0.99359 0.50709 0.0
C67 C 0.135 0.0368 0.50277 0.0
C68 C 0.18074 0.03192 0.4953 0.0
C69 C 0.20043 0.98369 0.49202 0.0
C70 C 0.17288 0.94058 0.49607 0.0
C71 C 0.12739 0.94552 0.50356 0.0
C72 C 0.05132 0.07401 0.60055 0.0
C73 C 0.77187 0.93072 0.50055 0.0
H74 H 0.50292 0.62195 0.69832 0.0
H75 H 0.23737 0.03845 0.80228 0.0
H76 H 0.27266 0.6026 0.75923 0.0
H77 H 0.30286 0.52869 0.74564 0.0
H78 H 0.45196 0.55229 0.76396 0.0
H79 H 0.42148 0.62756 0.77711 0.0
H80 H 0.33124 0.65835 0.73702 0.0
H81 H 0.39315 0.63325 0.71858 0.0
H82 H 0.51154 0.70773 0.74367 0.0
H83 H 0.4492 0.7324 0.76207 0.0
H84 H 0.2973 0.75269 0.73655 0.0
H85 H 0.316 0.8074 0.7166 0.0
H86 H 0.40352 0.90606 0.74539 0.0
H87 H 0.38824 0.848 0.76501 0.0
H88 H 0.23539 0.83078 0.75953 0.0
H89 H 0.20635 0.91706 0.76475 0.0
H90 H 0.30302 0.92606 0.80235 0.0
H91 H 0.33248 0.84029 0.79685 0.0
H92 H 0.18655 0.77186 0.78241 0.0
H93 H 0.14777 0.83405 0.7984 0.0
H94 H 0.25807 0.80121 0.83129 0.0
H95 H 0.3005 0.74397 0.81426 0.0
H96 H 0.20566 0.64498 0.7865 0.0
H97 H 0.18409 0.57018 0.80043 0.0
H98 H 0.33717 0.56724 0.8167 0.0
H99 H 0.35828 0.64167 0.80278 0.0
O100 O 0.47915 0.63181 0.70582 0.0
O101 O 0.53995 0.66113 0.72047 0.0
O102 O 0.20225 -0.00041 0.77984 0.0
O103 O 0.24936 0.00494 0.7997 0.0
C104 C 0.33194 0.67419 0.77211 0.0
C105 C 0.34875 0.71082 0.76241 0.0
C106 C 0.33144 0.76083 0.76383 0.0
C107 C 0.30012 0.7753 0.77551 0.0
C108 C 0.28266 0.73847 0.78524 0.0
C109 C 0.29909 0.6879 0.78358 0.0
C110 C 0.34505 0.62064 0.76899 0.0
C111 C 0.31123 0.59043 0.76082 0.0
C112 C 0.32872 0.54818 0.75301 0.0
C113 C 0.38023 0.53535 0.75341 0.0
C114 C 0.4124 0.56203 0.76312 0.0
C115 C 0.39494 0.60456 0.77082 0.0
C116 C 0.3858 0.69707 0.75088 0.0
C117 C 0.37055 0.66919 0.73851 0.0
C118 C 0.40597 0.65501 0.72798 0.0
C119 C 0.45728 0.66854 0.72965 0.0
C120 C 0.47233 0.69666 0.74206 0.0
C121 C 0.43682 0.71096 0.75255 0.0
C122 C 0.34186 0.79621 0.75214 0.0
C123 C 0.32111 0.7858 0.73847 0.0
C124 C 0.33125 0.81756 0.72713 0.0
C125 C 0.36111 0.86135 0.72936 0.0
C126 C 0.38115 0.87218 0.74321 0.0
C127 C 0.37203 0.83949 0.75449 0.0
C128 C 0.28608 0.82932 0.7778 0.0
C129 C 0.2509 0.8518 0.76873 0.0
C130 C 0.23412 0.90093 0.7718 0.0
C131 C 0.25217 0.92835 0.78402 0.0
C132 C 0.28828 0.90603 0.79288 0.0
C133 C 0.30527 0.85708 0.78974 0.0
C134 C 0.2474 0.75473 0.79696 0.0
C135 C 0.20145 0.77708 0.79325 0.0
C136 C 0.1792 0.81302 0.80252 0.0
C137 C 0.20096 0.82523 0.81607 0.0
C138 C 0.24185 0.79562 0.82065 0.0
C139 C 0.26547 0.76139 0.81108 0.0
C140 C 0.28338 0.64874 0.79373 0.0
C141 C 0.2341 0.62873 0.79333 0.0
C142 C 0.22202 0.58591 0.80118 0.0
C143 C 0.25925 0.5625 0.80944 0.0
C144 C 0.30807 0.58386 0.81018 0.0
C145 C 0.31998 0.62668 0.80241 0.0
C146 C 0.49477 0.65361 0.71843 0.0
C147 C 0.23303 0.97976 0.78767 0.0
H148 H 0.61239 0.96818 0.12053 0.0
H149 H 0.92113 0.2499 0.00896 0.0
H150 H 0.53754 0.01516 0.04491 0.0
H151 H 0.46251 0.99078 0.05865 0.0
H152 H 0.426 0.14846 0.06572 0.0
H153 H 0.50098 0.17258 0.05172 0.0
H154 H 0.64352 0.01491 0.05992 0.0
H155 H 0.63615 0.98152 0.08416 0.0
H156 H 0.56732 0.12137 0.09903 0.0
H157 H 0.57589 0.15467 0.07478 0.0
H158 H 0.73789 0.05174 0.04156 0.0
H159 H 0.79402 0.01894 0.05994 0.0
H160 H 0.74387 0.13519 0.09018 0.0
H161 H 0.6895 0.16969 0.07149 0.0
H162 H 0.72801 0.08608 0.01178 0.0
H163 H 0.81036 0.11008 0.00188 0.0
H164 H 0.8129 0.24353 0.03001 0.0
H165 H 0.73027 0.21926 0.03974 0.0
H166 H 0.61797 0.08124 -0.00207 0.0
H167 H 0.65037 0.09942 0.97399 0.0
H168 H 0.69665 0.24877 0.98963 0.0
H169 H 0.65967 0.23172 0.01296 0.0
H170 H 0.53344 0.03916 0.01798 0.0
H171 H 0.46255 0.03088 0.00124 0.0
H172 H 0.46439 0.19314 -0.00368 0.0
H173 H 0.53329 0.20117 0.01387 0.0
O174 O 0.61447 0.982 0.11099 0.0
O175 O 0.57823 0.05415 0.11805 0.0
O176 O 0.88967 0.16595 0.00042 0.0
O177 O 0.88895 0.23913 0.01288 0.0
C178 C 0.57468 0.11011 0.04172 0.0
C179 C 0.61673 0.10787 0.05097 0.0
C180 C 0.66527 0.12174 0.04596 0.0
C181 C 0.67165 0.13811 0.03175 0.0
C182 C 0.62932 0.14002 0.02241 0.0
C183 C 0.58103 0.12491 0.02735 0.0
C184 C 0.52428 0.09555 0.04727 0.0
C185 C 0.51235 0.04432 0.049 0.0
C186 C 0.46965 0.03052 0.05685 0.0
C187 C 0.43876 0.06783 0.06325 0.0
C188 C 0.44943 0.1191 0.0609 0.0
C189 C 0.49183 0.13287 0.05286 0.0
C190 C 0.6104 0.08723 0.06563 0.0
C191 C 0.62691 0.03826 0.06844 0.0
C192 C 0.62258 0.01928 0.08229 0.0
C193 C 0.60121 0.04881 0.09355 0.0
C194 C 0.58404 0.09767 0.09062 0.0
C195 C 0.5887 0.11673 0.07677 0.0
C196 C 0.70956 0.11292 0.05524 0.0
C197 C 0.74095 0.07178 0.05189 0.0
C198 C 0.7725 0.05278 0.06241 0.0
C199 C 0.77225 0.07431 0.07641 0.0
C200 C 0.7441 0.11802 0.07942 0.0
C201 C 0.71351 0.13783 0.06878 0.0
C202 C 0.72312 0.15107 0.02643 0.0
C203 C 0.7465 0.1204 0.01582 0.0
C204 C 0.79354 0.13418 0.01019 0.0
C205 C 0.81815 0.17883 0.01513 0.0
C206 C 0.79491 0.20901 0.02593 0.0
C207 C 0.74786 0.19514 0.03157 0.0
C208 C 0.63712 0.15494 0.00724 0.0
C209 C 0.63301 0.11866 -0.00404 0.0
C210 C 0.65245 0.1289 0.98233 0.0
C211 C 0.67775 0.17503 0.97989 0.0
C212 C 0.67738 0.21288 0.99092 0.0
C213 C 0.6566 0.2031 0.00439 0.0
C214 C 0.53788 0.12082 0.01727 0.0
C215 C 0.51777 0.07298 0.0135 0.0
C216 C 0.47777 0.06827 0.00379 0.0
C217 C 0.4578 0.11132 -0.00255 0.0
C218 C 0.47828 0.1593 0.00122 0.0
C219 C 0.51787 0.164 0.01112 0.0
C220 C 0.59715 0.02867 0.10828 0.0
C221 C 0.86773 0.19405 0.00901 0.0
H222 H 0.20991 0.27055 0.17753 0.0
H223 H 0.52949 0.62188 0.28453 0.0
H224 H 0.28348 0.237 0.25235 0.0
H225 H 0.25755 0.14957 0.24656 0.0
H226 H 0.41428 0.10802 0.24132 0.0
H227 H 0.44003 0.19582 0.24727 0.0
H228 H 0.27465 0.33747 0.23534 0.0
H229 H 0.23432 0.31651 0.21217 0.0
H230 H 0.37072 0.24127 0.19779 0.0
H231 H 0.41081 0.26302 0.22097 0.0
H232 H 0.31072 0.43538 0.25341 0.0
H233 H 0.28245 0.50231 0.23798 0.0
H234 H 0.38882 0.45296 0.20513 0.0
H235 H 0.4193 0.38765 0.22118 0.0
H236 H 0.35086 0.44232 0.27896 0.0
H237 H 0.37988 0.52412 0.28896 0.0
H238 H 0.51767 0.51073 0.26401 0.0
H239 H 0.48835 0.42853 0.2542 0.0
H240 H 0.34609 0.34702 0.29367 0.0
H241 H 0.3607 0.39496 0.31605 0.0
H242 H 0.51993 0.40702 0.3055 0.0
H243 H 0.50374 0.36165 0.28255 0.0
H244 H 0.32441 0.23438 0.28086 0.0
H245 H 0.33462 0.17074 0.2994 0.0
H246 H 0.49664 0.19056 0.29741 0.0
H247 H 0.48659 0.25292 0.27849 0.0
O248 O 0.22669 0.27866 0.18658 0.0
O249 O 0.29762 0.24027 0.17973 0.0
O250 O 0.4448 0.59539 0.29292 0.0
O251 O 0.51621 0.59059 0.28027 0.0
C252 C 0.37875 0.27551 0.2537 0.0
C253 C 0.3699 0.31445 0.24391 0.0
C254 C 0.38213 0.36525 0.24787 0.0
C255 C 0.40347 0.37669 0.26153 0.0
C256 C 0.41074 0.33782 0.27139 0.0
C257 C 0.39874 0.28738 0.26749 0.0
C258 C 0.36351 0.22265 0.25003 0.0
C259 C 0.31216 0.20895 0.24999 0.0
C260 C 0.29753 0.15899 0.24691 0.0
C261 C 0.33403 0.12208 0.24367 0.0
C262 C 0.38553 0.13581 0.24387 0.0
C263 C 0.4002 0.18576 0.24714 0.0
C264 C 0.34574 0.30207 0.22978 0.0
C265 C 0.29585 0.31678 0.22713 0.0
C266 C 0.27287 0.30461 0.2139 0.0
C267 C 0.29931 0.27725 0.20311 0.0
C268 C 0.34931 0.26243 0.20585 0.0
C269 C 0.37229 0.27476 0.21908 0.0
C270 C 0.36739 0.407 0.23848 0.0
C271 C 0.32883 0.43976 0.24303 0.0
C272 C 0.31224 0.47756 0.23411 0.0
C273 C 0.33302 0.48266 0.22026 0.0
C274 C 0.37241 0.45034 0.21579 0.0
C275 C 0.38957 0.41281 0.22487 0.0
C276 C 0.4175 0.42959 0.26584 0.0
C277 C 0.38699 0.45746 0.27551 0.0
C278 C 0.40374 0.50408 0.28126 0.0
C279 C 0.45128 0.52383 0.27736 0.0
C280 C 0.48096 0.49655 0.26727 0.0
C281 C 0.46417 0.44979 0.26156 0.0
C282 C 0.42373 0.35173 0.28649 0.0
C283 C 0.38438 0.35862 0.29645 0.0
C284 C 0.39296 0.386 0.30928 0.0
C285 C 0.44134 0.40601 0.31245 0.0
C286 C 0.4819 0.39358 0.30316 0.0
C287 C 0.473 0.36709 0.29016 0.0
C288 C 0.40483 0.2476 0.27822 0.0
C289 C 0.36212 0.22426 0.28422 0.0
C290 C 0.36787 0.18839 0.29481 0.0
C291 C 0.41632 0.1763 0.29965 0.0
C292 C 0.45903 0.19963 0.29371 0.0
C293 C 0.45332 0.23497 0.28298 0.0
C294 C 0.27469 0.26419 0.18909 0.0
C295 C 0.47032 0.57216 0.28398 0.0
H296 H 0.98641 0.07838 0.19845 0.0
H297 H 0.71303 0.52919 0.28633 0.0
H298 H 0.82329 0.07275 0.27106 0.0
H299 H 0.8768 0.0013 0.26415 0.0
H300 H 0.00988 0.09037 0.27527 0.0
H301 H 0.95589 0.16184 0.28204 0.0
H302 H 0.83996 0.12464 0.24408 0.0
H303 H 0.89198 0.09311 0.22399 0.0
H304 H 0.00916 0.20169 0.23595 0.0
H305 H 0.95688 0.23246 0.25615 0.0
H306 H 0.80754 0.2322 0.23532 0.0
H307 H 0.82799 0.28454 0.21467 0.0
H308 H 0.91216 0.38747 0.24298 0.0
H309 H 0.89349 0.33378 0.2633 0.0
H310 H 0.73396 0.29673 0.25693 0.0
H311 H 0.6941 0.37995 0.25736 0.0
H312 H 0.79208 0.42864 0.29253 0.0
H313 H 0.8322 0.34566 0.29181 0.0
H314 H 0.69894 0.25902 0.28661 0.0
H315 H 0.66094 0.32049 0.30336 0.0
H316 H 0.79056 0.30896 0.33148 0.0
H317 H 0.83013 0.25129 0.314 0.0
H318 H 0.73233 0.14043 0.29267 0.0
H319 H 0.71468 0.07211 0.30925 0.0
H320 H 0.86962 0.07905 0.32397 0.0
H321 H 0.88677 0.14843 0.3076 0.0
O322 O 0.96694 0.09085 0.20662 0.0
O323 O 0.02805 0.14401 0.21396 0.0
O324 O 0.68087 0.47027 0.2672 0.0
O325 O 0.72899 0.49639 0.28568 0.0
C326 C 0.85629 0.16943 0.27601 0.0
C327 C 0.86278 0.1994 0.26378 0.0
C328 C 0.8389 0.24659 0.26315 0.0
C329 C 0.80791 0.26362 0.27466 0.0
C330 C 0.79868 0.23206 0.28654 0.0
C331 C 0.82289 0.18468 0.28718 0.0
C332 C 0.88589 0.12243 0.27682 0.0
C333 C 0.86381 0.07595 0.27266 0.0
C334 C 0.89454 0.03516 0.26876 0.0
C335 C 0.94759 0.04066 0.26897 0.0
C336 C 0.96917 0.08537 0.27487 0.0
C337 C 0.93843 0.12606 0.27878 0.0
C338 C 0.89463 0.18088 0.25152 0.0
C339 C 0.87693 0.14146 0.24236 0.0
C340 C 0.90668 0.1236 0.23087 0.0
C341 C 0.95462 0.14506 0.22831 0.0
C342 C 0.97235 0.18442 0.2376 0.0
C343 C 0.94257 0.20219 0.24911 0.0
C344 C 0.84897 0.27939 0.25077 0.0
C345 C 0.83051 0.26603 0.23699 0.0
C346 C 0.84206 0.29601 0.22525 0.0
C347 C 0.87202 0.33995 0.22716 0.0
C348 C 0.88991 0.35331 0.24107 0.0
C349 C 0.87874 0.32313 0.25273 0.0
C350 C 0.7858 0.31512 0.27437 0.0
C351 C 0.7471 0.32562 0.26461 0.0
C352 C 0.72427 0.37309 0.26492 0.0
C353 C 0.73975 0.41088 0.27503 0.0
C354 C 0.77916 0.40041 0.28464 0.0
C355 C 0.80216 0.35305 0.28425 0.0
C356 C 0.76798 0.25188 0.29886 0.0
C357 C 0.7185 0.26884 0.29658 0.0
C358 C 0.69676 0.30402 0.30621 0.0
C359 C 0.72357 0.32132 0.31853 0.0
C360 C 0.76985 0.29825 0.32178 0.0
C361 C 0.79214 0.26429 0.31194 0.0
C362 C 0.81089 0.14921 0.29885 0.0
C363 C 0.76216 0.12806 0.29971 0.0
C364 C 0.75221 0.08893 0.30913 0.0
C365 C 0.791 0.06997 0.31774 0.0
C366 C 0.8393 0.0925 0.31728 0.0
C367 C 0.84903 0.13219 0.30801 0.0
C368 C 0.98559 0.12671 0.21591 0.0
C369 C 0.7147 0.4609 0.27567 0.0
H370 H 0.64836 0.9173 0.6922 0.0
H371 H 0.73007 0.48013 0.79581 0.0
H372 H 0.83154 0.88888 0.7514 0.0
H373 H 0.82502 0.96529 0.73763 0.0
H374 H 0.70771 0.01974 0.76656 0.0
H375 H 0.7133 0.9414 0.77995 0.0
H376 H 0.77102 0.81829 0.73536 0.0
H377 H 0.73021 0.85433 0.7144 0.0
H378 H 0.60551 0.90327 0.74146 0.0
H379 H 0.64657 0.86647 0.7623 0.0
H380 H 0.77664 0.72915 0.7431 0.0
H381 H 0.74966 0.64969 0.73118 0.0
H382 H 0.6193 0.6434 0.75914 0.0
H383 H 0.64544 0.72452 0.77076 0.0
H384 H 0.83573 0.69029 0.77067 0.0
H385 H 0.83842 0.59879 0.77393 0.0
H386 H 0.69822 0.60682 0.79795 0.0
H387 H 0.69624 0.69836 0.79466 0.0
H388 H 0.89128 0.7837 0.79058 0.0
H389 H 0.93859 0.74315 0.80974 0.0
H390 H 0.79865 0.71724 0.83268 0.0
H391 H 0.75206 0.75876 0.81367 0.0
H392 H 0.87568 0.89869 0.77917 0.0
H393 H 0.91388 0.96426 0.79515 0.0
H394 H 0.80053 0.93433 0.82746 0.0
H395 H 0.76151 0.87028 0.81132 0.0
O396 O 0.66308 0.90197 0.70054 0.0
O397 O 0.60137 0.92879 0.71509 0.0
O398 O 0.80368 0.51464 0.78278 0.0
O399 O 0.73064 0.51642 0.7947 0.0
C400 C 0.76666 0.85758 0.77172 0.0
C401 C 0.73853 0.82217 0.76325 0.0
C402 C 0.73661 0.77126 0.76716 0.0
C403 C 0.76274 0.7555 0.77948 0.0
C404 C 0.78928 0.7912 0.78822 0.0
C405 C 0.79083 0.84242 0.7844 0.0
C406 C 0.77259 0.90964 0.76654 0.0
C407 C 0.80569 0.91814 0.75505 0.0
C408 C 0.802 0.96207 0.74723 0.0
C409 C 0.76529 -0.00155 0.75086 0.0
C410 C 0.73569 0.99198 0.76333 0.0
C411 C 0.73913 0.94762 0.77109 0.0
C412 C 0.71128 0.839 0.75028 0.0
C413 C 0.73434 0.83574 0.73666 0.0
C414 C 0.71116 0.85681 0.72474 0.0
C415 C 0.66461 0.88175 0.72625 0.0
C416 C 0.64132 0.88429 0.73991 0.0
C417 C 0.66449 0.86304 0.75181 0.0
C418 C 0.71258 0.73264 0.75762 0.0
C419 C 0.74093 0.71208 0.74615 0.0
C420 C 0.72591 0.66661 0.73951 0.0
C421 C 0.68285 0.64107 0.74443 0.0
C422 C 0.6526 0.66302 0.75527 0.0
C423 C 0.66722 0.70917 0.76177 0.0
C424 C 0.76584 0.70074 0.78245 0.0
C425 C 0.80595 0.6722 0.77676 0.0
C426 C 0.80727 0.61998 0.77859 0.0
C427 C 0.7684 0.59545 0.78616 0.0
C428 C 0.72869 0.62448 0.79205 0.0
C429 C 0.7275 0.67674 0.79023 0.0
C430 C 0.81833 0.77377 0.80075 0.0
C431 C 0.87114 0.77027 0.79993 0.0
C432 C 0.89798 0.74689 0.81081 0.0
C433 C 0.87229 0.72676 0.82266 0.0
C434 C 0.8196 0.73287 0.82378 0.0
C435 C 0.79287 0.75621 0.8129 0.0
C436 C 0.81561 0.88032 0.79407 0.0
C437 C 0.85899 0.90662 0.78966 0.0
C438 C 0.88079 0.94368 0.79875 0.0
C439 C 0.85995 0.95389 0.81245 0.0
C440 C 0.81734 0.9266 0.81697 0.0
C441 C 0.79509 0.89027 0.80779 0.0
C442 C 0.64094 0.90559 0.71366 0.0
C443 C 0.76887 0.53977 0.78777 0.0
H444 H 0.44362 0.38864 0.94404 0.0
H445 H 0.82941 0.58841 0.06923 0.0
H446 H 0.41573 0.61052 0.00937 0.0
H447 H 0.33735 0.59084 -0.00377 0.0
H448 H 0.35378 0.43291 0.00604 0.0
H449 H 0.43033 0.45347 0.0197 0.0
H450 H 0.48584 0.54966 0.98706 0.0
H451 H 0.46512 0.49397 0.96633 0.0
H452 H 0.52084 0.36603 0.98935 0.0
H453 H 0.54047 0.42203 0.01013 0.0
H454 H 0.60531 0.5624 0.99206 0.0
H455 H 0.6812 0.5346 0.97915 0.0
H456 H 0.71435 0.43226 0.01333 0.0
H457 H 0.63832 0.46094 0.02628 0.0
H458 H 0.65509 0.62251 0.01847 0.0
H459 H 0.73986 0.64006 0.02816 0.0
H460 H 0.70561 0.54765 0.06469 0.0
H461 H 0.62134 0.52993 0.05479 0.0
H462 H 0.57697 0.6822 0.0345 0.0
H463 H 0.62784 0.72755 0.05246 0.0
H464 H 0.57334 0.62633 0.08501 0.0
H465 H 0.52587 0.57844 0.06648 0.0
H466 H 0.4538 0.67211 0.0372 0.0
H467 H 0.37583 0.69802 0.04972 0.0
H468 H 0.34554 0.54239 0.06006 0.0
H469 H 0.42364 0.51697 0.04781 0.0
O470 O 0.4535 0.41019 0.9522 0.0
O471 O 0.48624 0.34628 0.96402 0.0
O472 O 0.80947 0.63508 0.04727 0.0
O473 O 0.79594 0.5827 0.06524 0.0
C474 C 0.4809 0.54361 0.02075 0.0
C475 C 0.52276 0.52299 0.01316 0.0
C476 C 0.57226 0.53331 0.01814 0.0
C477 C 0.58007 0.56546 0.03034 0.0
C478 C 0.53834 0.58834 0.03744 0.0
C479 C 0.48863 0.5756 0.03306 0.0
C480 C 0.42897 0.53325 0.01528 0.0
C481 C 0.40137 0.57198 0.00904 0.0
C482 C 0.3569 0.56059 0.00145 0.0
C483 C 0.33964 0.51021 -0.0001 0.0
C484 C 0.36554 0.47218 0.00712 0.0
C485 C 0.40962 0.48371 0.01482 0.0
C486 C 0.51451 0.48986 0.00011 0.0
C487 C 0.49376 0.50963 0.98758 0.0
C488 C 0.48191 0.47772 0.97575 0.0
C489 C 0.49109 0.42549 0.9762 0.0
C490 C 0.51318 0.40605 0.98866 0.0
C491 C 0.52469 0.43797 0.00051 0.0
C492 C 0.61635 0.51343 0.01002 0.0
C493 C 0.6287 0.5336 -0.00334 0.0
C494 C 0.67199 0.51767 0.98933 0.0
C495 C 0.70365 0.48122 0.99524 0.0
C496 C 0.69094 0.46078 0.00861 0.0
C497 C 0.64748 0.47676 0.01594 0.0
C498 C 0.63221 0.57483 0.03591 0.0
C499 C 0.66619 0.60577 0.02849 0.0
C500 C 0.71443 0.61594 0.03409 0.0
C501 C 0.7295 0.59523 0.0472 0.0
C502 C 0.69531 0.56407 0.05455 0.0
C503 C 0.64716 0.5539 0.04893 0.0
C504 C 0.54871 0.62643 0.04914 0.0
C505 C 0.57448 0.67104 0.04564 0.0
C506 C 0.60372 0.69702 0.056 0.0
C507 C 0.60637 0.67963 0.07017 0.0
C508 C 0.57397 0.63953 0.07407 0.0
C509 C 0.54581 0.61266 0.06358 0.0
C510 C 0.44439 0.59272 0.04165 0.0
C511 C 0.43069 0.64383 0.04236 0.0
C512 C 0.38612 0.65845 0.04941 0.0
C513 C 0.35447 0.62203 0.05567 0.0
C514 C 0.36878 0.57105 0.0551 0.0
C515 C 0.41351 0.5566 0.04823 0.0
C516 C 0.477 0.39147 0.9638 0.0
C517 C 0.78069 0.60574 0.0532 0.0
H518 H 0.19696 0.40495 0.60925 0.0
H519 H 0.40216 0.76909 0.4931 0.0
H520 H 0.06075 0.491 0.54021 0.0
H521 H 0.99805 0.45823 0.55708 0.0
H522 H 0.99318 0.60455 0.57904 0.0
H523 H 0.05585 0.63707 0.56203 0.0
H524 H 0.15687 0.47537 0.55121 0.0
H525 H 0.17217 0.4317 0.57368 0.0
H526 H 0.18412 0.57626 0.59657 0.0
H527 H 0.1685 0.61938 0.574 0.0
H528 H 0.24105 0.50521 0.53105 0.0
H529 H 0.30738 0.46098 0.54391 0.0
H530 H 0.33088 0.59289 0.57169 0.0
H531 H 0.26369 0.63705 0.55889 0.0
H532 H 0.26118 0.56749 0.50924 0.0
H533 H 0.3345 0.60375 0.49687 0.0
H534 H 0.29694 0.75173 0.51464 0.0
H535 H 0.22435 0.7149 0.52708 0.0
H536 H 0.15329 0.55976 0.49702 0.0
H537 H 0.18335 0.58452 0.47355 0.0
H538 H 0.15974 0.74182 0.48578 0.0
H539 H 0.13249 0.71614 0.50973 0.0
H540 H 0.05102 0.52402 0.51583 0.0
H541 H 0.97475 0.52499 0.50101 0.0
H542 H 0.96749 0.68753 0.50726 0.0
H543 H 0.04246 0.68565 0.5227 0.0
O544 O 0.18992 0.42295 0.60056 0.0
O545 O 0.19885 0.49826 0.61164 0.0
O546 O 0.39723 0.67569 0.49146 0.0
O547 O 0.37338 0.75366 0.49779 0.0
C548 C 0.10644 0.58345 0.54144 0.0
C549 C 0.15503 0.57671 0.54724 0.0
C550 C 0.19818 0.59238 0.53955 0.0
C551 C 0.19286 0.61735 0.52652 0.0
C552 C 0.14443 0.62167 0.52031 0.0
C553 C 0.10121 0.60439 0.52771 0.0
C554 C 0.0619 0.56665 0.54974 0.0
C555 C 0.04479 0.5164 0.54835 0.0
C556 C 0.00931 0.49769 0.55805 0.0
C557 C 0.99098 0.52883 0.56939 0.0
C558 C 0.00705 0.57966 0.57046 0.0
C559 C 0.04225 0.59842 0.56068 0.0
C560 C 0.16127 0.55042 0.56105 0.0
C561 C 0.16225 0.49745 0.56113 0.0
C562 C 0.17116 0.47265 0.57397 0.0
C563 C 0.17942 0.50049 0.58692 0.0
C564 C 0.17794 0.55368 0.58678 0.0
C565 C 0.16888 0.57841 0.57394 0.0
C566 C 0.24801 0.57424 0.54406 0.0
C567 C 0.26215 0.52539 0.53947 0.0
C568 C 0.29963 0.50014 0.54682 0.0
C569 C 0.32365 0.52389 0.55866 0.0
C570 C 0.31286 0.57444 0.56242 0.0
C571 C 0.27489 0.59962 0.55514 0.0
C572 C 0.23801 0.6385 0.51921 0.0
C573 C 0.26927 0.60759 0.51057 0.0
C574 C 0.31093 0.62844 0.50348 0.0
C575 C 0.32176 0.68061 0.50486 0.0
C576 C 0.28984 0.71143 0.51339 0.0
C577 C 0.24847 0.69049 0.52055 0.0
C578 C 0.14153 0.63621 0.50507 0.0
C579 C 0.15249 0.59942 0.49439 0.0
C580 C 0.16962 0.61384 0.4809 0.0
C581 C 0.17545 0.66541 0.47785 0.0
C582 C 0.15721 0.70184 0.48793 0.0
C583 C 0.14093 0.68732 0.50156 0.0
C584 C 0.05161 0.60465 0.52048 0.0
C585 C 0.03188 0.55954 0.5144 0.0
C586 C 0.98881 0.56029 0.50577 0.0
C587 C 0.96534 0.60637 0.50288 0.0
C588 C 0.98429 0.65136 0.50943 0.0
C589 C 0.02716 0.65045 0.51819 0.0
C590 C 0.18996 0.47404 0.60048 0.0
C591 C 0.36636 0.70296 0.49758 0.0
C592 C 0.12868 0.69965 0.15852 0.0
C593 C 0.9447 0.63095 0.16455 0.0
C594 C 0.90823 0.74324 0.13315 0.0
Mg595 Mg 0.1684 0.81035 0.1503 0.0
Mg596 Mg 0.09825 0.91225 0.15205 0.0
O597 O 0.104 0.84534 0.14543 0.0
Mg598 Mg 0.05576 0.79268 0.152 0.0
O599 O 0.01155 0.73611 0.15801 0.0
Mg600 Mg 0.0215 0.68918 0.14087 0.0
Mg601 Mg 0.94562 0.74836 0.16429 0.0
C602 C 0.98467 0.89018 0.14352 0.0
O603 O 0.04218 0.83012 0.17426 0.0
O604 O 0.20919 0.87616 0.13875 0.0
O605 O 0.96248 0.80778 0.1803 0.0
O606 O 0.17809 0.85372 0.17252 0.0
O607 O 0.15738 0.94316 0.13897 0.0
O608 O 0.12054 0.91481 0.1739 0.0
O609 O 0.06848 0.75223 0.13028 0.0
O610 O 0.15238 0.7672 0.12914 0.0
C611 C 0.11155 0.74713 0.12398 0.0
C612 C 0.19878 0.9216 0.13524 0.0
O613 O 0.99107 0.84203 0.14355 0.0
O614 O 0.97582 0.62975 0.15386 0.0
O615 O 0.01941 0.92215 0.14725 0.0
O616 O 0.94631 0.71519 0.12999 0.0
O617 O 0.92905 0.67252 0.17036 0.0
O618 O 0.90276 0.76382 0.14565 0.0
O619 O 0.12082 0.74722 0.16031 0.0
O620 O 0.09615 0.67019 0.15216 0.0
C621 C 0.15603 0.88985 0.17949 0.0
C622 C 0.00385 0.83244 0.18273 0.0
C623 C 0.6532 0.83236 0.41734 0.0
C624 C 0.70386 0.65338 0.4261 0.0
C625 C 0.63734 0.61625 0.38437 0.0
Mg626 Mg 0.56231 0.88145 0.40003 0.0
Mg627 Mg 0.45866 0.81918 0.38918 0.0
O628 O 0.5295 0.82065 0.39023 0.0
Mg629 Mg 0.56852 0.76719 0.39984 0.0
O630 O 0.61273 0.71789 0.40938 0.0
Mg631 Mg 0.67702 0.72955 0.39842 0.0
Mg632 Mg 0.59598 0.65162 0.41407 0.0
C633 C 0.48307 0.70527 0.37987 0.0
O634 O 0.50468 0.74644 0.41574 0.0
O635 O 0.51837 0.92834 0.38362 0.0
O636 O 0.51934 0.66536 0.4216 0.0
O637 O 0.49729 0.89126 0.41674 0.0
O638 O 0.45043 0.8834 0.37571 0.0
O639 O 0.43216 0.84141 0.41017 0.0
O640 O 0.63242 0.78174 0.38355 0.0
O641 O 0.62572 0.86649 0.38408 0.0
C642 C 0.64754 0.82573 0.37974 0.0
C643 C 0.479 0.92283 0.37559 0.0
O644 O 0.52803 0.70918 0.38509 0.0
O645 O 0.71635 0.68199 0.41568 0.0
O646 O 0.45054 0.74109 0.3809 0.0
O647 O 0.66347 0.65725 0.38371 0.0
O648 O 0.65821 0.63857 0.42816 0.0
O649 O 0.6085 0.60697 0.39501 0.0
O650 O 0.60568 0.82809 0.41463 0.0
O651 O 0.68524 0.79962 0.41279 0.0
C652 C 0.45306 0.87297 0.41902 0.0
C653 C 0.49141 0.70486 0.42165 0.0
C654 C 0.64029 0.17145 0.66477 0.0
C655 C 0.45214 0.11417 0.65594 0.0
C656 C 0.46612 0.20243 0.61748 0.0
Mg657 Mg 0.69835 0.27249 0.65397 0.0
Mg658 Mg 0.63305 0.37617 0.64973 0.0
O659 O 0.64196 0.30854 0.64412 0.0
Mg660 Mg 0.5852 0.26089 0.64824 0.0
O661 O 0.53187 0.20959 0.65205 0.0
Mg662 Mg 0.55676 0.15323 0.63893 0.0
Mg663 Mg 0.46435 0.22827 0.64959 0.0
C664 C 0.5328 0.35446 0.63188 0.0
O665 O 0.54942 0.3096 0.66669 0.0
O666 O 0.75137 0.33224 0.6436 0.0
O667 O 0.46552 0.29541 0.66358 0.0
O668 O 0.69514 0.32144 0.67487 0.0
O669 O 0.70405 0.40177 0.64099 0.0
O670 O 0.63512 0.37956 0.67274 0.0
O671 O 0.61559 0.20915 0.63046 0.0
O672 O 0.69857 0.22195 0.63355 0.0
C673 C 0.66145 0.19999 0.62696 0.0
C674 C 0.74587 0.37794 0.63946 0.0
O675 O 0.53695 0.3065 0.63317 0.0
O676 O 0.49424 0.10485 0.64946 0.0
O677 O 0.56229 0.38686 0.63829 0.0
O678 O 0.50152 0.17153 0.6203 0.0
O679 O 0.43377 0.15876 0.65721 0.0
O680 O 0.44879 0.23295 0.62712 0.0
O681 O 0.63662 0.21901 0.66294 0.0
O682 O 0.61293 0.1394 0.65748 0.0
C683 C 0.66701 0.35603 0.68026 0.0
C684 C 0.50282 0.31862 0.66977 0.0
C685 C 0.15978 0.32683 0.92029 0.0
C686 C 0.19645 0.14063 0.9214 0.0
C687 C 0.12045 0.1274 0.88041 0.0
Mg688 Mg 0.07308 0.39071 0.90571 0.0
Mg689 Mg 0.96372 0.33974 0.89546 0.0
O690 O 0.03431 0.33793 0.89394 0.0
Mg691 Mg 0.06959 0.27737 0.9011 0.0
O692 O 0.1097 0.22077 0.90853 0.0
Mg693 Mg 0.17343 0.23126 0.89736 0.0
Mg694 Mg 0.08678 0.15501 0.91147 0.0
C695 C 0.97931 0.23236 0.88006 0.0
O696 O 0.0058 0.25632 0.91687 0.0
O697 O 0.02941 0.44927 0.89251 0.0
O698 O 0.01386 0.17292 0.92106 0.0
O699 O 0.01273 0.39731 0.92368 0.0
O700 O 0.95597 0.41221 0.88556 0.0
O701 O 0.94646 0.34744 0.91804 0.0
O702 O 0.13212 0.29328 0.88478 0.0
O703 O 0.13256 0.37781 0.88828 0.0
C704 C 0.15024 0.33739 0.88222 0.0
C705 C 0.98683 0.45005 0.88583 0.0
O706 O 0.0249 0.23038 0.8847 0.0
O707 O 0.20974 0.17313 0.91207 0.0
O708 O 0.94889 0.26827 0.88366 0.0
O709 O 0.15185 0.16492 0.88079 0.0
O710 O 0.15 0.12909 0.9237 0.0
O711 O 0.08989 0.11911 0.89075 0.0
O712 O 0.11248 0.3271 0.91729 0.0
O713 O 0.18948 0.29435 0.9143 0.0
C714 C 0.97055 0.3765 0.92691 0.0
C715 C 0.99009 0.21492 0.92232 0.0
C716 C 0.283 0.94029 0.48779 0.0
C717 C 0.24859 0.97767 0.48397 0.0
C718 C 0.32413 0.92794 0.47886 0.0
C719 C 0.33121 0.95416 0.46591 0.0
C720 C 0.29993 0.99567 0.46286 0.0
C721 C 0.25858 0.00664 0.47187 0.0
C722 C 0.35889 0.88607 0.48324 0.0
C723 C 0.30777 0.02606 0.4495 0.0
C724 C 0.44517 0.92476 0.44209 0.0
C725 C 0.42354 0.89151 0.43167 0.0
C726 C 0.41588 0.94542 0.45344 0.0
C727 C 0.36396 0.93244 0.45434 0.0
C728 C 0.3422 0.89832 0.44401 0.0
C729 C 0.37224 0.8782 0.43286 0.0
C730 C 0.44022 0.98142 0.46435 0.0
C731 C 0.28681 0.88358 0.44462 0.0
H732 H 0.2767 0.91937 0.49752 0.0
H733 H 0.2325 0.03598 0.46893 0.0
H734 H 0.33937 0.85929 0.49045 0.0
H735 H 0.37436 0.86445 0.47383 0.0
H736 H 0.39129 0.90305 0.48931 0.0
H737 H 0.28692 0.06235 0.45011 0.0
H738 H 0.34858 0.03433 0.44785 0.0
H739 H 0.29409 0.00386 0.43991 0.0
H740 H 0.48481 0.93519 0.44129 0.0
H741 H 0.35501 0.85292 0.42486 0.0
H742 H 0.44014 0.96402 0.47508 0.0
H743 H 0.41817 0.01686 0.46535 0.0
H744 H 0.47988 0.99105 0.46145 0.0
H745 H 0.27818 0.86605 0.45508 0.0
H746 H 0.27567 0.85682 0.43573 0.0
H747 H 0.26294 0.91765 0.44391 0.0
C748 C 0.41823 0.91975 0.716 0.0
C749 C 0.3711 0.89548 0.71727 0.0
C750 C 0.42766 0.95313 0.70487 0.0
C751 C 0.38958 0.96107 0.69448 0.0
C752 C 0.34256 0.93551 0.69538 0.0
C753 C 0.33354 0.90369 0.70691 0.0
C754 C 0.47806 0.98056 0.70437 0.0
C755 C 0.30153 0.94246 0.6843 0.0
C756 C 0.39916 0.08642 0.67637 0.0
C757 C 0.42807 0.07362 0.66413 0.0
C758 C 0.3846 0.04963 0.68609 0.0
C759 C 0.39812 -0.0013 0.68326 0.0
C760 C 0.42371 0.98488 0.67035 0.0
C761 C 0.43905 0.02274 0.66098 0.0
C762 C 0.35823 0.06592 0.69991 0.0
C763 C 0.43717 0.93056 0.6668 0.0
H764 H 0.44789 0.91276 0.72373 0.0
H765 H 0.29667 0.88585 0.70791 0.0
H766 H 0.4984 0.9698 0.69429 0.0
H767 H 0.47215 0.02206 0.70433 0.0
H768 H 0.50254 0.97197 0.7137 0.0
H769 H 0.26915 0.91596 0.68575 0.0
H770 H 0.28722 0.98173 0.68511 0.0
H771 H 0.31699 0.93655 0.67326 0.0
H772 H 0.39079 0.12575 0.6789 0.0
H773 H 0.46101 0.01273 0.65145 0.0
H774 H 0.38374 0.06005 0.7092 0.0
H775 H 0.32373 0.04263 0.70159 0.0
H776 H 0.34733 0.1064 0.69998 0.0
H777 H 0.46792 0.91862 0.67405 0.0
H778 H 0.45015 0.92524 0.65546 0.0
H779 H 0.40416 0.90524 0.66859 0.0
C780 C 0.3779 0.14184 0.98642 0.0
C781 C 0.4167 0.10615 0.98664 0.0
C782 C 0.34099 0.13972 0.97562 0.0
C783 C 0.34249 0.10043 0.96492 0.0
C784 C 0.38 0.06282 0.96547 0.0
C785 C 0.41703 0.06641 0.97625 0.0
C786 C 0.30165 0.18076 0.97531 0.0
C787 C 0.38227 0.02006 0.95433 0.0
C788 C 0.22306 0.09061 0.94257 0.0
C789 C 0.23592 0.12142 0.93103 0.0
C790 C 0.25858 0.08041 0.9533 0.0
C791 C 0.30767 0.10193 0.95247 0.0
C792 C 0.3219 0.12988 0.94033 0.0
C793 C 0.28595 0.13895 0.9297 0.0
C794 C 0.24261 0.0494 0.96597 0.0
C795 C 0.37397 0.15353 0.93907 0.0
H796 H 0.37677 0.17195 0.99461 0.0
H797 H 0.44718 0.03893 0.97625 0.0
H798 H 0.30648 0.2029 0.96541 0.0
H799 H 0.26311 0.16379 0.97496 0.0
H800 H 0.30426 0.20719 0.98483 0.0
H801 H 0.40928 0.99032 0.95741 0.0
H802 H 0.34431 0.00248 0.95275 0.0
H803 H 0.39434 0.03505 0.94381 0.0
H804 H 0.18466 0.07641 0.94361 0.0
H805 H 0.29652 0.16227 0.92074 0.0
H806 H 0.23772 0.07469 0.97562 0.0
H807 H 0.27215 0.02157 0.96855 0.0
H808 H 0.20635 0.02885 0.96389 0.0
H809 H 0.37865 0.18388 0.94751 0.0
H810 H 0.38038 0.17026 0.92836 0.0
H811 H 0.40363 0.12505 0.94087 0.0
C812 C 0.27982 0.04443 0.24575 0.0
C813 C 0.31751 0.07123 0.23844 0.0
C814 C 0.25577 0.00219 0.23917 0.0
C815 C 0.26879 0.98783 0.22483 0.0
C816 C 0.31025 0.01174 0.21801 0.0
C817 C 0.3344 0.05299 0.22498 0.0
C818 C 0.2133 0.97611 0.24701 0.0
C819 C 0.32522 -0.00213 0.20268 0.0
C820 C 0.21348 0.8825 0.20093 0.0
C821 C 0.17711 0.90939 0.19336 0.0
C822 C 0.24066 0.90598 0.21236 0.0
C823 C 0.23252 0.95783 0.21578 0.0
C824 C 0.19325 0.98381 0.20886 0.0
C825 C 0.16527 0.95885 0.19801 0.0
C826 C 0.28017 0.87616 0.22005 0.0
C827 C 0.18375 0.03948 0.2119 0.0
H828 H 0.26738 0.05809 0.2563 0.0
H829 H 0.36352 0.07373 0.21932 0.0
H830 H 0.1765 0.99155 0.24357 0.0
H831 H 0.21283 0.93484 0.24443 0.0
H832 H 0.21659 0.9822 0.25888 0.0
H833 H 0.36138 0.01629 0.19953 0.0
H834 H 0.32923 0.95635 0.20126 0.0
H835 H 0.29515 0.00989 0.19521 0.0
H836 H 0.22208 0.84389 0.19759 0.0
H837 H 0.13668 0.97982 0.19241 0.0
H838 H 0.28387 0.88898 0.23151 0.0
H839 H 0.31737 0.88153 0.21474 0.0
H840 H 0.27096 0.83504 0.2196 0.0
H841 H 0.17747 0.04686 0.22359 0.0
H842 H 0.15041 0.05339 0.20597 0.0
H843 H 0.2174 0.06198 0.20871 0.0
C844 C 0.26351 0.0809 0.57002 0.0
C845 C 0.25221 0.09708 0.55617 0.0
C846 C 0.30292 0.10343 0.57808 0.0
C847 C 0.33238 0.14258 0.57203 0.0
C848 C 0.32207 0.15817 0.55787 0.0
C849 C 0.28159 0.13558 0.55015 0.0
C850 C 0.31214 0.08614 0.59323 0.0
C851 C 0.35334 0.19896 0.55097 0.0
C852 C 0.39378 0.2233 0.60146 0.0
C853 C 0.43892 0.19694 0.60354 0.0
C854 C 0.36034 0.20892 0.59031 0.0
C855 C 0.37272 0.16767 0.58093 0.0
C856 C 0.42089 0.1451 0.58189 0.0
C857 C 0.45341 0.15986 0.59325 0.0
C858 C 0.30961 0.23448 0.58959 0.0
C859 C 0.43625 0.10217 0.57178 0.0
H860 H 0.24034 0.05163 0.57474 0.0
H861 H 0.27286 0.14794 0.53939 0.0
H862 H 0.3514 0.07224 0.59422 0.0
H863 H 0.30782 0.11846 0.60103 0.0
H864 H 0.28564 0.05543 0.59633 0.0
H865 H 0.34317 0.20369 0.53947 0.0
H866 H 0.34778 0.23559 0.55687 0.0
H867 H 0.39417 0.18996 0.55164 0.0
H868 H 0.38265 0.25281 0.60915 0.0
H869 H 0.48868 0.13995 0.59457 0.0
H870 H 0.28007 0.20898 0.59394 0.0
H871 H 0.29932 0.24214 0.57829 0.0
H872 H 0.3091 0.2707 0.59598 0.0
H873 H 0.41684 0.06685 0.57501 0.0
H874 H 0.47772 0.09581 0.57204 0.0
H875 H 0.42479 0.10962 0.56054 0.0
C876 C 0.22025 0.89819 0.83339 0.0
C877 C 0.18505 0.87166 0.82457 0.0
C878 C 0.20687 0.94208 0.84129 0.0
C879 C 0.15781 0.96211 0.8398 0.0
C880 C 0.12266 0.93736 0.83044 0.0
C881 C 0.13616 0.89182 0.82326 0.0
C882 C 0.24511 0.96633 0.85152 0.0
C883 C 0.07074 0.95897 0.82803 0.0
C884 C 0.10897 0.03785 0.87205 0.0
C885 C 0.1245 0.08733 0.86894 0.0
C886 C 0.1185 0.99712 0.8625 0.0
C887 C 0.1422 0.00609 0.84913 0.0
C888 C 0.15492 0.05635 0.84545 0.0
C889 C 0.14728 0.0963 0.85559 0.0
C890 C 0.10614 0.9441 0.86717 0.0
C891 C 0.17771 0.06785 0.83097 0.0
H892 H 0.25878 0.88511 0.83414 0.0
H893 H 0.10803 0.87216 0.81667 0.0
H894 H 0.25441 0.00517 0.84812 0.0
H895 H 0.22895 0.96948 0.86256 0.0
H896 H 0.28077 0.94455 0.85198 0.0
H897 H 0.04992 0.93841 0.81922 0.0
H898 H 0.04791 0.95708 0.83804 0.0
H899 H 0.07403 -0.00051 0.82531 0.0
H900 H 0.09181 0.03026 0.8824 0.0
H901 H 0.15901 0.13444 0.85306 0.0
H902 H 0.14143 0.92182 0.86771 0.0
H903 H 0.08092 0.92458 0.85921 0.0
H904 H 0.08742 0.94371 0.8779 0.0
H905 H 0.2185 0.05848 0.83098 0.0
H906 H 0.17409 0.1085 0.82848 0.0
H907 H 0.15931 0.04468 0.82224 0.0
C908 C 0.39846 0.07486 0.0875 0.0
C909 C 0.39894 0.05308 0.07353 0.0
C910 C 0.36509 0.05707 0.098 0.0
C911 C 0.33118 0.01696 0.09435 0.0
C912 C 0.3302 0.99619 0.0801 0.0
C913 C 0.36445 0.01429 0.06987 0.0
C914 C 0.3676 0.07972 0.11313 0.0
C915 C 0.29405 0.95384 0.07577 0.0
C916 C 0.28316 0.93027 0.12328 0.0
C917 C 0.23419 0.9486 0.12571 0.0
C918 C 0.31562 0.95312 0.11338 0.0
C919 C 0.29845 0.99489 0.1056 0.0
C920 C 0.24954 0.01432 0.10822 0.0
C921 C 0.21807 0.99113 0.11831 0.0
C922 C 0.3679 0.93183 0.111 0.0
C923 C 0.22987 0.05856 0.10003 0.0
H924 H 0.42574 0.10435 0.09038 0.0
H925 H 0.36484 -0.00237 0.05904 0.0
H926 H 0.32952 0.09201 0.11674 0.0
H927 H 0.38042 0.05067 0.12066 0.0
H928 H 0.39396 0.11267 0.11397 0.0
H929 H 0.29574 0.94431 0.06403 0.0
H930 H 0.30318 0.91944 0.08178 0.0
H931 H 0.25469 0.96442 0.07862 0.0
H932 H 0.29601 0.89764 0.129 0.0
H933 H 0.1802 0.00543 0.12006 0.0
H934 H 0.39688 0.96221 0.11245 0.0
H935 H 0.37133 0.91657 0.09977 0.0
H936 H 0.37647 0.90108 0.1185 0.0
H937 H 0.25621 0.09134 0.10122 0.0
H938 H 0.19173 0.07045 0.10378 0.0
H939 H 0.22772 0.04824 0.08836 0.0
C940 C 0.42015 0.08807 0.30779 0.0
C941 C 0.42239 0.13992 0.31111 0.0
C942 C 0.42788 0.05287 0.31855 0.0
C943 C 0.43723 0.07037 0.3329 0.0
C944 C 0.43839 0.12293 0.33629 0.0
C945 C 0.43134 0.15725 0.32526 0.0
C946 C 0.42739 0.99712 0.31451 0.0
C947 C 0.44754 0.14286 0.3515 0.0
C948 C 0.41814 0.97537 0.36227 0.0
C949 C 0.46813 0.96207 0.3652 0.0
C950 C 0.4075 0.01173 0.35203 0.0
C951 C 0.4478 0.03366 0.34424 0.0
C952 C 0.49835 0.01989 0.34708 0.0
C953 C 0.50797 0.98488 0.35775 0.0
C954 C 0.35327 0.02656 0.34952 0.0
C955 C 0.54219 0.04154 0.33871 0.0
H956 H 0.41331 0.07523 0.29674 0.0
H957 H 0.43285 0.19764 0.32767 0.0
H958 H 0.46475 0.98061 0.31694 0.0
H959 H 0.39875 0.97701 0.32101 0.0
H960 H 0.4189 0.98986 0.30289 0.0
H961 H 0.44403 0.18466 0.35246 0.0
H962 H 0.42018 0.12538 0.359 0.0
H963 H 0.48602 0.13243 0.35505 0.0
H964 H 0.38745 0.95774 0.36812 0.0
H965 H 0.54663 0.97406 0.35994 0.0
H966 H 0.34212 0.01639 0.33826 0.0
H967 H 0.34932 0.06816 0.35095 0.0
H968 H 0.32663 0.00774 0.35697 0.0
H969 H 0.53508 0.03745 0.32694 0.0
H970 H 0.57842 0.02274 0.34115 0.0
H971 H 0.54635 0.08254 0.34137 0.0
C972 C 0.75326 0.01806 0.56368 0.0
C973 C 0.79777 -0.0018 0.56936 0.0
C974 C 0.71669 0.03962 0.57282 0.0
C975 C 0.72522 0.04078 0.58787 0.0
C976 C 0.76506 0.01226 0.59362 0.0
C977 C 0.80143 0.99152 0.58425 0.0
C978 C 0.67345 0.06782 0.56629 0.0
C979 C 0.77369 0.01038 0.60967 0.0
C980 C 0.71641 0.16731 0.60738 0.0
C981 C 0.673 0.16128 0.61579 0.0
C982 C 0.73217 0.129 0.59778 0.0
C983 C 0.70422 0.08296 0.59678 0.0
C984 C 0.65905 0.07735 0.6048 0.0
C985 C 0.64372 0.11695 0.6142 0.0
C986 C 0.77995 0.13731 0.58913 0.0
C987 C 0.62838 0.0289 0.60418 0.0
H988 H 0.74954 0.02148 0.5521 0.0
H989 H 0.83531 0.97527 0.58869 0.0
H990 H 0.6388 0.06488 0.57299 0.0
H991 H 0.68389 0.1085 0.56574 0.0
H992 H 0.6649 0.05339 0.55517 0.0
H993 H 0.79836 0.97832 0.61245 0.0
H994 H 0.7924 0.04608 0.6135 0.0
H995 H 0.73723 0.00678 0.61551 0.0
H996 H 0.73864 0.20192 0.60851 0.0
H997 H 0.61026 0.11209 0.62076 0.0
H998 H 0.77265 0.12972 0.57748 0.0
H999 H 0.80957 0.11076 0.59255 0.0
H1000 H 0.7951 0.1765 0.59052 0.0
H1001 H 0.63017 0.00979 0.59338 0.0
H1002 H 0.58813 0.03596 0.60697 0.0
H1003 H 0.64377 0.00263 0.61215 0.0
C1004 C 0.81348 0.98404 0.32634 0.0
C1005 C 0.78113 0.02584 0.32686 0.0
C1006 C 0.80272 0.94082 0.33432 0.0
C1007 C 0.75889 0.9398 0.34308 0.0
C1008 C 0.72683 0.98251 0.34388 0.0
C1009 C 0.73816 0.02478 0.33567 0.0
C1010 C 0.83752 0.89599 0.33313 0.0
C1011 C 0.68003 0.98343 0.35328 0.0
C1012 C 0.68188 0.82866 0.35519 0.0
C1013 C 0.69061 0.83248 0.37005 0.0
C1014 C 0.70904 0.85936 0.34574 0.0
C1015 C 0.74527 0.89444 0.35143 0.0
C1016 C 0.75922 0.89264 0.36614 0.0
C1017 C 0.7316 0.86143 0.3753 0.0
C1018 C 0.69376 0.85924 0.33007 0.0
C1019 C 0.79777 0.92897 0.3727 0.0
H1020 H 0.84648 0.98464 0.31939 0.0
H1021 H 0.71339 0.05724 0.33617 0.0
H1022 H 0.84939 0.88444 0.34401 0.0
H1023 H 0.8171 0.86332 0.32801 0.0
H1024 H 0.87185 0.90412 0.32665 0.0
H1025 H 0.66173 0.02108 0.35362 0.0
H1026 H 0.65222 0.95488 0.34911 0.0
H1027 H 0.68963 0.97351 0.36448 0.0
H1028 H 0.64971 0.80666 0.35118 0.0
H1029 H 0.73798 0.86447 0.38685 0.0
H1030 H 0.72714 0.86469 0.323 0.0
H1031 H 0.66751 0.891 0.32834 0.0
H1032 H 0.67415 0.8234 0.32674 0.0
H1033 H 0.83023 0.93451 0.3653 0.0
H1034 H 0.81211 0.9156 0.38317 0.0
H1035 H 0.77985 0.96633 0.37467 0.0
C1036 C 0.84853 0.03796 0.08746 0.0
C1037 C 0.79678 0.04766 0.08811 0.0
C1038 C 0.8717 0.00959 0.09804 0.0
C1039 C 0.84194 0.98976 0.10933 0.0
C1040 C 0.78943 -0.00074 0.10997 0.0
C1041 C 0.76742 0.02854 0.09934 0.0
C1042 C 0.92796 0.00046 0.09706 0.0
C1043 C 0.75633 0.97752 0.12157 0.0
C1044 C 0.91199 0.88377 0.12642 0.0
C1045 C 0.93809 0.91069 0.13737 0.0
C1046 C 0.8763 0.90799 0.11791 0.0
C1047 C 0.86695 0.96009 0.12051 0.0
C1048 C 0.88919 0.98582 0.13252 0.0
C1049 C 0.92455 0.96071 0.14084 0.0
C1050 C 0.85151 0.87905 0.10549 0.0
C1051 C 0.87955 0.04122 0.13574 0.0
H1052 H 0.87076 0.05258 0.07864 0.0
H1053 H 0.72702 0.03534 0.09956 0.0
H1054 H 0.94687 0.01465 0.10709 0.0
H1055 H 0.93519 0.95925 0.09598 0.0
H1056 H 0.94561 0.01934 0.08774 0.0
H1057 H 0.71824 0.99491 0.12185 0.0
H1058 H 0.75159 0.9362 0.11948 0.0
H1059 H 0.77409 0.98288 0.13235 0.0
H1060 H 0.92241 0.84515 0.12371 0.0
H1061 H 0.94405 0.98133 0.1495 0.0
H1062 H 0.85902 0.89807 0.09519 0.0
H1063 H 0.80994 0.87823 0.10711 0.0
H1064 H 0.86511 0.83957 0.10441 0.0
H1065 H 0.89874 0.06417 0.12748 0.0
H1066 H 0.89395 0.0536 0.14654 0.0
H1067 H 0.8385 0.04931 0.13521 0.0
C1068 C 0.89407 0.98438 0.83612 0.0
C1069 C 0.88113 0.99437 0.82186 0.0
C1070 C 0.91112 0.02333 0.84549 0.0
C1071 C 0.91428 0.07324 0.84046 0.0
C1072 C 0.90212 0.08329 0.82598 0.0
C1073 C 0.88587 0.04348 0.81679 0.0
C1074 C 0.92555 0.01119 0.86074 0.0
C1075 C 0.90614 0.13604 0.82024 0.0
C1076 C 0.91064 0.18062 0.86832 0.0
C1077 C 0.96218 0.19221 0.86984 0.0
C1078 C 0.89443 0.14188 0.85872 0.0
C1079 C 0.93068 0.11496 0.85036 0.0
C1080 C 0.98263 0.12735 0.85161 0.0
C1081 C 0.99783 0.16543 0.86149 0.0
C1082 C 0.83867 0.12942 0.8576 0.0
C1083 C 0.02241 0.10003 0.84272 0.0
H1084 H 0.89074 0.94608 0.83991 0.0
H1085 H 0.87556 0.05091 0.80574 0.0
H1086 H 0.96586 0.02142 0.86266 0.0
H1087 H 0.90261 0.03395 0.86853 0.0
H1088 H 0.92006 0.97047 0.863 0.0
H1089 H 0.89527 0.13737 0.80869 0.0
H1090 H 0.8814 0.16203 0.82659 0.0
H1091 H 0.94554 0.15045 0.82145 0.0
H1092 H 0.88308 0.20119 0.87481 0.0
H1093 H 0.03775 0.17468 0.86252 0.0
H1094 H 0.83185 0.08958 0.86058 0.0
H1095 H 0.82574 0.13308 0.84631 0.0
H1096 H 0.81534 0.15444 0.86472 0.0
H1097 H 0.03221 0.06436 0.84802 0.0
H1098 H 0.05732 0.12337 0.84176 0.0
H1099 H 0.00882 0.08999 0.83169 0.0
C1100 C 0.85758 0.98744 0.4635 0.0
C1101 C 0.89735 0.95272 0.46212 0.0
C1102 C 0.81148 0.97909 0.45626 0.0
C1103 C 0.80488 0.93485 0.4475 0.0
C1104 C 0.84548 0.90057 0.44565 0.0
C1105 C 0.89123 0.91003 0.45295 0.0
C1106 C 0.76911 0.01634 0.45853 0.0
C1107 C 0.83991 0.85269 0.43645 0.0
C1108 C 0.68036 0.86714 0.44082 0.0
C1109 C 0.67409 0.87446 0.42607 0.0
C1110 C 0.72055 0.89054 0.44838 0.0
C1111 C 0.75482 0.9221 0.44095 0.0
C1112 C 0.74475 0.93435 0.42647 0.0
C1113 C 0.70443 0.91007 0.41916 0.0
C1114 C 0.72977 0.87631 0.46378 0.0
C1115 C 0.77985 0.96825 0.41819 0.0
H1116 H 0.86152 0.02004 0.47078 0.0
H1117 H 0.92186 0.88325 0.45177 0.0
H1118 H 0.75345 0.0274 0.448 0.0
H1119 H 0.73791 -0.00167 0.46461 0.0
H1120 H 0.78169 0.05101 0.46463 0.0
H1121 H 0.87581 0.83132 0.43557 0.0
H1122 H 0.81064 0.82773 0.44117 0.0
H1123 H 0.8272 0.86181 0.42544 0.0
H1124 H 0.65755 0.83862 0.44603 0.0
H1125 H 0.69996 0.91493 0.40766 0.0
H1126 H 0.74315 0.90947 0.47033 0.0
H1127 H 0.75969 0.84718 0.46402 0.0
H1128 H 0.69511 0.86063 0.46884 0.0
H1129 H 0.79177 0.00163 0.42493 0.0
H1130 H 0.7619 0.98148 0.40816 0.0
H1131 H 0.81441 0.94699 0.41513 0.0
C1132 C 0.96902 0.95325 0.26008 0.0
C1133 C 0.97862 0.00544 0.26007 0.0
C1134 C 0.98599 0.92171 0.24869 0.0
C1135 C 0.01229 0.94327 0.23703 0.0
C1136 C 0.02764 0.99459 0.23794 0.0
C1137 C 0.01058 0.02521 0.24949 0.0
C1138 C 0.97082 0.86653 0.24837 0.0
C1139 C 0.05699 0.01844 0.22591 0.0
C1140 C 0.05166 0.86122 0.20465 0.0
C1141 C 0.008 0.86317 0.19612 0.0
C1142 C 0.054 0.88678 0.21813 0.0
C1143 C 0.01233 0.91627 0.22279 0.0
C1144 C 0.96909 0.91994 0.21385 0.0
C1145 C 0.96712 0.8925 0.20073 0.0
C1146 C 0.10044 0.88136 0.22741 0.0
C1147 C 0.92455 0.95253 0.21817 0.0
H1148 H 0.94509 0.93776 0.2684 0.0
H1149 H 0.01817 0.06558 0.24939 0.0
H1150 H 0.93753 0.86077 0.2412 0.0
H1151 H 0.00191 0.8427 0.24398 0.0
H1152 H 0.96051 0.8535 0.25928 0.0
H1153 H 0.06988 0.05754 0.22881 0.0
H1154 H 0.09043 0.99531 0.22312 0.0
H1155 H 0.03306 0.01944 0.21611 0.0
H1156 H 0.08314 0.83811 0.20104 0.0
H1157 H 0.93365 0.89417 0.19401 0.0
H1158 H 0.08971 0.87476 0.23878 0.0
H1159 H 0.12323 0.91673 0.22732 0.0
H1160 H 0.12481 0.84985 0.22347 0.0
H1161 H 0.9067 0.93792 0.22807 0.0
H1162 H 0.89531 0.95344 0.20958 0.0
H1163 H 0.93746 0.9919 0.22065 0.0
C1164 C 0.72084 0.22901 0.96153 0.0
C1165 C 0.711 0.18099 0.96703 0.0
C1166 C 0.76159 0.23709 0.95213 0.0
C1167 C 0.79226 0.19567 0.94778 0.0
C1168 C 0.77756 0.14613 0.95151 0.0
C1169 C 0.73815 0.13948 0.96139 0.0
C1170 C 0.77126 0.29027 0.94725 0.0
C1171 C 0.80507 0.10002 0.94573 0.0
C1172 C 0.89693 0.22118 0.92065 0.0
C1173 C 0.94003 0.21415 0.92907 0.0
C1174 C 0.84833 0.21484 0.92647 0.0
C1175 C 0.84304 0.20394 0.94128 0.0
C1176 C 0.88702 0.19874 0.94992 0.0
C1177 C 0.93498 0.20264 0.94358 0.0
C1178 C 0.80324 0.21909 0.91662 0.0
C1179 C 0.88436 0.1884 0.96586 0.0
H1180 H 0.69821 0.26098 0.96511 0.0
H1181 H 0.731 0.10186 0.96528 0.0
H1182 H 0.81051 0.29669 0.94347 0.0
H1183 H 0.74521 0.29796 0.93822 0.0
H1184 H 0.76264 0.31827 0.95606 0.0
H1185 H 0.77934 0.06653 0.94508 0.0
H1186 H 0.82112 0.10627 0.93485 0.0
H1187 H 0.83643 0.091 0.95312 0.0
H1188 H 0.90129 0.22951 0.90933 0.0
H1189 H 0.96862 0.19707 0.95001 0.0
H1190 H 0.7901 0.25882 0.91695 0.0
H1191 H 0.77137 0.19432 0.91991 0.0
H1192 H 0.81339 0.20917 0.90526 0.0
H1193 H 0.84871 0.20184 0.97093 0.0
H1194 H 0.9166 0.20689 0.9717 0.0
H1195 H 0.88734 0.14712 0.96741 0.0
C1196 C 0.70184 0.047 0.73713 0.0
C1197 C 0.75271 0.03774 0.74036 0.0
C1198 C 0.6886 0.07573 0.7253 0.0
C1199 C 0.72713 0.09498 0.71632 0.0
C1200 C 0.77853 0.08859 0.72 0.0
C1201 C 0.79073 0.06035 0.73207 0.0
C1202 C 0.63323 0.08223 0.72184 0.0
C1203 C 0.82063 0.10838 0.71064 0.0
C1204 C 0.68288 0.1024 0.67772 0.0
C1205 C 0.67066 0.15365 0.67693 0.0
C1206 C 0.70437 0.08345 0.69023 0.0
C1207 C 0.71314 0.11649 0.7023 0.0
C1208 C 0.7035 0.16879 0.70129 0.0
C1209 C 0.68268 0.18685 0.68855 0.0
C1210 C 0.71503 0.02752 0.69083 0.0
C1211 C 0.71175 0.20508 0.71397 0.0
H1212 H 0.67209 0.0291 0.74328 0.0
H1213 H 0.83013 0.054 0.73462 0.0
H1214 H 0.62538 0.1221 0.71926 0.0
H1215 H 0.62315 0.05835 0.7122 0.0
H1216 H 0.60832 0.07115 0.7309 0.0
H1217 H 0.85809 0.10649 0.716 0.0
H1218 H 0.8221 0.08547 0.70042 0.0
H1219 H 0.81355 0.1481 0.70776 0.0
H1220 H 0.67412 0.07672 0.66871 0.0
H1221 H 0.6731 0.22652 0.68805 0.0
H1222 H 0.68894 0.0098 0.69863 0.0
H1223 H 0.75417 0.02144 0.69467 0.0
H1224 H 0.71022 0.00781 0.68016 0.0
H1225 H 0.68263 0.19796 0.72232 0.0
H1226 H 0.70912 0.24522 0.71083 0.0
H1227 H 0.74925 0.19913 0.71896 0.0
C1228 C 0.79586 0.4596 0.99455 0.0
C1229 C 0.74958 0.46464 0.98735 0.0
C1230 C 0.83984 0.4458 0.98694 0.0
C1231 C 0.83712 0.43658 0.97186 0.0
C1232 C 0.79029 0.44097 0.9646 0.0
C1233 C 0.74719 0.45496 0.97244 0.0
C1234 C 0.88897 0.44093 0.99502 0.0
C1235 C 0.78566 0.43179 0.94848 0.0
C1236 C 0.94159 0.44252 0.94442 0.0
C1237 C 0.946 0.39116 0.94057 0.0
C1238 C 0.90954 0.45811 0.9557 0.0
C1239 C 0.88235 0.42127 0.96341 0.0
C1240 C 0.89189 0.36925 0.96073 0.0
C1241 C 0.92279 0.35469 0.94905 0.0
C1242 C 0.90189 0.51396 0.95864 0.0
C1243 C 0.86877 0.32892 0.96993 0.0
H1244 H 0.79787 0.46739 0.00608 0.0
H1245 H 0.71136 0.45813 0.96687 0.0
H1246 H 0.89921 0.40041 -0.00462 0.0
H1247 H 0.92006 0.46088 0.98941 0.0
H1248 H 0.88634 0.4563 0.00628 0.0
H1249 H 0.74558 0.42921 0.94491 0.0
H1250 H 0.80424 0.46339 0.94283 0.0
H1251 H 0.80501 0.39646 0.94501 0.0
H1252 H 0.96023 0.47065 0.93793 0.0
H1253 H 0.9278 0.31492 0.94632 0.0
H1254 H 0.90054 0.52256 0.97042 0.0
H1255 H 0.86518 0.52535 0.954 0.0
H1256 H 0.93237 0.53715 0.95378 0.0
H1257 H 0.89284 0.32438 0.97959 0.0
H1258 H 0.86708 0.29199 0.96404 0.0
H1259 H 0.83018 0.33864 0.97371 0.0
C1260 C 0.93151 0.39584 0.2138 0.0
C1261 C 0.88363 0.37292 0.21489 0.0
C1262 C 0.94099 0.43282 0.20361 0.0
C1263 C 0.90185 0.4466 0.19415 0.0
C1264 C 0.85477 0.42071 0.1944 0.0
C1265 C 0.84604 0.38436 0.20486 0.0
C1266 C 0.99174 0.45964 0.20371 0.0
C1267 C 0.81248 0.43372 0.18427 0.0
C1268 C 0.90472 0.58447 0.18465 0.0
C1269 C 0.92914 0.58301 0.1712 0.0
C1270 C 0.89432 0.5401 0.19198 0.0
C1271 C 0.90792 0.49286 0.18562 0.0
C1272 C 0.93026 0.49071 0.17174 0.0
C1273 C 0.94104 0.53595 0.16472 0.0
C1274 C 0.87079 0.54406 0.20683 0.0
C1275 C 0.94424 0.44085 0.16454 0.0
H1276 H 0.96116 0.3861 0.22126 0.0
H1277 H 0.80891 0.36687 0.20564 0.0
H1278 H 0.00741 0.46103 0.19264 0.0
H1279 H 0.98699 0.49928 0.20773 0.0
H1280 H 0.01964 0.44104 0.21072 0.0
H1281 H 0.78195 0.40451 0.18409 0.0
H1282 H 0.79582 0.47042 0.18778 0.0
H1283 H 0.82704 0.43796 0.17314 0.0
H1284 H 0.89528 0.62054 0.18977 0.0
H1285 H 0.95955 0.53443 0.15428 0.0
H1286 H 0.89752 0.52962 0.21493 0.0
H1287 H 0.83598 0.52038 0.20725 0.0
H1288 H 0.86092 0.58358 0.21002 0.0
H1289 H 0.9765 0.42422 0.17032 0.0
H1290 H 0.9552 0.44517 0.15306 0.0
H1291 H 0.91215 0.41358 0.16505 0.0
C1292 C 0.92737 0.57951 0.4792 0.0
C1293 C 0.92397 0.60807 0.49216 0.0
C1294 C 0.89065 0.58332 0.46844 0.0
C1295 C 0.84987 0.61687 0.47064 0.0
C1296 C 0.84553 0.645 0.4838 0.0
C1297 C 0.88263 0.64014 0.49444 0.0
C1298 C 0.89643 0.55273 0.45452 0.0
C1299 C 0.80249 0.68126 0.48647 0.0
C1300 C 0.78769 0.66974 0.43769 0.0
C1301 C 0.74273 0.64116 0.43683 0.0
C1302 C 0.82293 0.66208 0.44864 0.0
C1303 C 0.81324 0.62451 0.45886 0.0
C1304 C 0.7686 0.59465 0.45787 0.0
C1305 C 0.73367 0.60352 0.44689 0.0
C1306 C 0.86999 0.69499 0.44945 0.0
C1307 C 0.75741 0.55394 0.46853 0.0
H1308 H 0.95969 0.55534 0.47725 0.0
H1309 H 0.87958 0.66184 0.5045 0.0
H1310 H 0.86113 0.53111 0.45207 0.0
H1311 H 0.90314 0.57851 0.44547 0.0
H1312 H 0.92834 0.52578 0.45493 0.0
H1313 H 0.80343 0.69863 0.49753 0.0
H1314 H 0.80434 0.71196 0.47858 0.0
H1315 H 0.76568 0.66138 0.48488 0.0
H1316 H 0.79475 0.69926 0.43005 0.0
H1317 H 0.69903 0.58126 0.44626 0.0
H1318 H 0.90423 0.67107 0.44902 0.0
H1319 H 0.87087 0.7167 0.45988 0.0
H1320 H 0.87205 0.72217 0.44055 0.0
H1321 H 0.78887 0.52648 0.46863 0.0
H1322 H 0.72166 0.53309 0.46601 0.0
H1323 H 0.75451 0.57103 0.47957 0.0
C1324 C 0.69301 0.54906 0.74683 0.0
C1325 C 0.67363 0.58928 0.73914 0.0
C1326 C 0.69513 0.50036 0.74049 0.0
C1327 C 0.67732 0.49246 0.72622 0.0
C1328 C 0.65503 0.5328 0.71878 0.0
C1329 C 0.65385 0.58098 0.72535 0.0
C1330 C 0.7192 0.45841 0.74867 0.0
C1331 C 0.636 0.52644 0.70346 0.0
C1332 C 0.72182 0.40586 0.69669 0.0
C1333 C 0.67807 0.37641 0.6947 0.0
C1334 C 0.72577 0.43991 0.70847 0.0
C1335 C 0.68506 0.44372 0.71835 0.0
C1336 C 0.64523 0.40766 0.71767 0.0
C1337 C 0.64133 0.37506 0.70552 0.0
C1338 C 0.77029 0.47607 0.70926 0.0
C1339 C 0.60397 0.40632 0.72886 0.0
H1340 H 0.70907 0.55638 0.75745 0.0
H1341 H 0.63981 0.61273 0.71944 0.0
H1342 H 0.69599 0.42327 0.74775 0.0
H1343 H 0.75685 0.44988 0.74395 0.0
H1344 H 0.72432 0.46885 0.76028 0.0
H1345 H 0.66868 0.52733 0.69595 0.0
H1346 H 0.61612 0.4897 0.70168 0.0
H1347 H 0.60987 0.55726 0.70062 0.0
H1348 H 0.75048 0.40609 0.6883 0.0
H1349 H 0.60816 0.351 0.70408 0.0
H1350 H 0.78186 0.48382 0.72061 0.0
H1351 H 0.75938 0.51255 0.70458 0.0
H1352 H 0.80323 0.46105 0.70309 0.0
H1353 H 0.60093 0.36756 0.73308 0.0
H1354 H 0.56752 0.41479 0.72371 0.0
H1355 H 0.61002 0.43331 0.73808 0.0
C1356 C 0.67227 0.6632 0.08879 0.0
C1357 C 0.64797 0.69771 0.07996 0.0
C1358 C 0.71476 0.67744 0.097 0.0
C1359 C 0.73492 0.727 0.09602 0.0
C1360 C 0.71096 0.76221 0.08716 0.0
C1361 C 0.66719 0.74744 0.07946 0.0
C1362 C 0.73869 0.63888 0.10651 0.0
C1363 C 0.73185 0.81517 0.08564 0.0
C1364 C 0.8189 0.76491 0.12754 0.0
C1365 C 0.86624 0.7476 0.1227 0.0
C1366 C 0.77615 0.76136 0.11865 0.0
C1367 C 0.78103 0.74119 0.10443 0.0
C1368 C 0.82946 0.728 0.09904 0.0
C1369 C 0.87149 0.73063 0.10831 0.0
C1370 C 0.72517 0.77518 0.1249 0.0
C1371 C 0.83635 0.70872 0.0837 0.0
H1372 H 0.65921 0.62428 0.08899 0.0
H1373 H 0.64857 0.77474 0.07284 0.0
H1374 H 0.7771 0.62963 0.10246 0.0
H1375 H 0.74285 0.65463 0.11768 0.0
H1376 H 0.71616 0.60324 0.10688 0.0
H1377 H 0.71353 0.8352 0.0767 0.0
H1378 H 0.72564 0.83746 0.0958 0.0
H1379 H 0.77326 0.81427 0.08367 0.0
H1380 H 0.8144 0.77853 0.1386 0.0
H1381 H 0.90809 0.71815 0.1044 0.0
H1382 H 0.70237 0.74018 0.12632 0.0
H1383 H 0.70405 0.79932 0.11747 0.0
H1384 H 0.72851 0.79543 0.13554 0.0
H1385 H 0.81743 0.67133 0.08225 0.0
H1386 H 0.87688 0.7047 0.08074 0.0
H1387 H 0.8182 0.73473 0.07613 0.0
C1388 C 0.74259 0.402 0.33233 0.0
C1389 C 0.70656 0.3667 0.32706 0.0
C1390 C 0.72825 0.44477 0.34053 0.0
C1391 C 0.67637 0.45354 0.34322 0.0
C1392 C 0.63947 0.41963 0.33736 0.0
C1393 C 0.655 0.37625 0.32947 0.0
C1394 C 0.76887 0.47965 0.34673 0.0
C1395 C 0.58371 0.42859 0.33968 0.0
C1396 C 0.64928 0.5257 0.37811 0.0
C1397 C 0.64478 0.57537 0.37347 0.0
C1398 C 0.65811 0.4856 0.3683 0.0
C1399 C 0.66165 0.49527 0.35341 0.0
C1400 C 0.6554 0.54521 0.34857 0.0
C1401 C 0.64784 0.58503 0.35874 0.0
C1402 C 0.66541 0.43314 0.37394 0.0
C1403 C 0.65747 0.55661 0.33273 0.0
H1404 H 0.78238 0.39629 0.33006 0.0
H1405 H 0.62675 0.3495 0.32542 0.0
H1406 H 0.7624 0.51901 0.34343 0.0
H1407 H 0.76727 0.47967 0.3587 0.0
H1408 H 0.80746 0.4683 0.34325 0.0
H1409 H 0.55983 0.40307 0.33274 0.0
H1410 H 0.57379 0.4223 0.35112 0.0
H1411 H 0.57443 0.46836 0.33741 0.0
H1412 H 0.64713 0.51835 0.38955 0.0
H1413 H 0.64382 0.62347 0.35518 0.0
H1414 H 0.70406 0.41981 0.37124 0.0
H1415 H 0.63822 0.40618 0.36872 0.0
H1416 H 0.66024 0.43191 0.38582 0.0
H1417 H 0.69681 0.55242 0.32873 0.0
H1418 H 0.64478 0.59563 0.33062 0.0
H1419 H 0.63344 0.52935 0.32643 0.0
C1420 C 0.96711 0.5171 0.59519 0.0
C1421 C 0.95719 0.50761 0.58049 0.0
C1422 C 0.93611 0.49641 0.60584 0.0
C1423 C 0.89409 0.46581 0.60167 0.0
C1424 C 0.88403 0.45597 0.58684 0.0
C1425 C 0.91585 0.47686 0.57643 0.0
C1426 C 0.94824 0.50735 0.62154 0.0
C1427 C 0.83932 0.42382 0.58198 0.0
C1428 C 0.83097 0.37568 0.62742 0.0
C1429 C 0.78738 0.4026 0.6314 0.0
C1430 C 0.86715 0.39654 0.61815 0.0
C1431 C 0.85945 0.44537 0.61274 0.0
C1432 C 0.81682 0.47364 0.61725 0.0
C1433 C 0.78142 0.452 0.62654 0.0
C1434 C 0.91247 0.3655 0.61367 0.0
C1435 C 0.80737 0.52591 0.61173 0.0
H1436 H -0.00039 0.54017 0.59835 0.0
H1437 H 0.90801 0.46972 0.56507 0.0
H1438 H 0.91629 0.52753 0.62683 0.0
H1439 H 0.9532 0.47138 0.62722 0.0
H1440 H 0.98311 0.53075 0.62298 0.0
H1441 H 0.8373 0.41909 0.57004 0.0
H1442 H 0.8415 0.38583 0.58669 0.0
H1443 H 0.80369 0.44134 0.58589 0.0
H1444 H 0.83607 0.33758 0.63113 0.0
H1445 H 0.74812 0.47337 0.62961 0.0
H1446 H 0.94783 0.38795 0.61525 0.0
H1447 H 0.90978 0.35507 0.60202 0.0
H1448 H 0.91535 0.33023 0.61983 0.0
H1449 H 0.84107 0.55057 0.61359 0.0
H1450 H 0.77415 0.54415 0.61699 0.0
H1451 H 0.80067 0.52349 0.59992 0.0
C1452 C 0.93213 0.65721 0.82792 0.0
C1453 C 0.89904 0.69482 0.83303 0.0
C1454 C 0.95149 0.62128 0.8372 0.0
C1455 C 0.93731 0.62302 0.85193 0.0
C1456 C 0.90658 0.66282 0.85733 0.0
C1457 C 0.8877 0.69825 0.8478 0.0
C1458 C 0.98425 0.57944 0.83102 0.0
C1459 C 0.89118 0.66626 0.87301 0.0
C1460 C 0.92806 0.4966 0.86993 0.0
C1461 C 0.97349 0.49555 0.87772 0.0
C1462 C 0.91574 0.53818 0.86166 0.0
C1463 C 0.94953 0.57997 0.86119 0.0
C1464 C 0.99503 0.57972 0.8692 0.0
C1465 C 0.00655 0.53744 0.87736 0.0
C1466 C 0.86685 0.53697 0.85321 0.0
C1467 C 0.03186 0.62371 0.86896 0.0
H1468 H 0.94064 0.65402 0.81649 0.0
H1469 H 0.86271 0.72773 0.85182 0.0
H1470 H 0.01821 0.57447 0.83783 0.0
H1471 H 0.96266 0.54322 0.8309 0.0
H1472 H 0.99673 0.58689 0.81983 0.0
H1473 H 0.87264 0.70275 0.87585 0.0
H1474 H 0.86431 0.63501 0.87533 0.0
H1475 H 0.92457 0.66193 0.88009 0.0
H1476 H 0.9022 0.46455 0.87012 0.0
H1477 H 0.04176 0.53707 0.88334 0.0
H1478 H 0.8751 0.53948 0.84151 0.0
H1479 H 0.84342 0.57008 0.85636 0.0
H1480 H 0.84433 0.50196 0.85493 0.0
H1481 H 0.04684 0.62789 0.85787 0.0
H1482 H 0.06424 0.61884 0.87641 0.0
H1483 H 0.01232 0.65942 0.872 0.0
C1484 C 0.26193 0.61037 0.06057 0.0
C1485 C 0.30733 0.63705 0.0632 0.0
C1486 C 0.21787 0.62221 0.0684 0.0
C1487 C 0.21977 0.6609 0.07925 0.0
C1488 C 0.2653 0.68875 0.08167 0.0
C1489 C 0.30841 0.67666 0.07353 0.0
C1490 C 0.16984 0.59248 0.06533 0.0
C1491 C 0.26912 0.73018 0.09322 0.0
C1492 C 0.11507 0.73305 0.09766 0.0
C1493 C 0.11788 0.71309 0.11143 0.0
C1494 C 0.14353 0.71196 0.08624 0.0
C1495 C 0.17583 0.67083 0.08889 0.0
C1496 C 0.1733 0.64666 0.1023 0.0
C1497 C 0.1441 0.6682 0.11344 0.0
C1498 C 0.14402 0.73785 0.07196 0.0
C1499 C 0.20689 0.60266 0.10561 0.0
H1500 H 0.26101 0.58003 0.05245 0.0
H1501 H 0.34359 0.69699 0.07563 0.0
H1502 H 0.16178 0.56713 0.07438 0.0
H1503 H 0.13723 0.6183 0.06444 0.0
H1504 H 0.17263 0.56897 0.05523 0.0
H1505 H 0.30705 0.74867 0.09352 0.0
H1506 H 0.24037 0.75955 0.09136 0.0
H1507 H 0.26138 0.71429 0.10395 0.0
H1508 H 0.09522 0.76825 0.09622 0.0
H1509 H 0.14664 0.65336 0.1242 0.0
H1510 H 0.14747 0.70992 0.06285 0.0
H1511 H 0.17715 0.7639 0.07156 0.0
H1512 H 0.10926 0.76038 0.07047 0.0
H1513 H 0.20804 0.57496 0.09641 0.0
H1514 H 0.19405 0.58291 0.1154 0.0
H1515 H 0.24608 0.61681 0.10752 0.0
C1516 C 0.20355 0.51407 0.82592 0.0
C1517 C 0.24737 0.51634 0.81749 0.0
C1518 C 0.19439 0.47306 0.8348 0.0
C1519 C 0.22987 0.4332 0.83517 0.0
C1520 C 0.27261 0.43377 0.826 0.0
C1521 C 0.28107 0.47561 0.81732 0.0
C1522 C 0.14814 0.47395 0.84442 0.0
C1523 C 0.31075 0.39166 0.82586 0.0
C1524 C 0.22373 0.38175 0.87225 0.0
C1525 C 0.18583 0.34488 0.87033 0.0
C1526 C 0.24358 0.40699 0.86045 0.0
C1527 C 0.22463 0.39496 0.84648 0.0
C1528 C 0.19197 0.3526 0.84433 0.0
C1529 C 0.17279 0.32778 0.85639 0.0
C1530 C 0.27933 0.45112 0.86322 0.0
C1531 C 0.17232 0.33756 0.82954 0.0
H1532 H 0.17755 0.54555 0.8261 0.0
H1533 H 0.31457 0.47689 0.81058 0.0
H1534 H 0.12631 0.43809 0.84303 0.0
H1535 H 0.15998 0.47741 0.85589 0.0
H1536 H 0.12272 0.50595 0.84212 0.0
H1537 H 0.33395 0.39127 0.81585 0.0
H1538 H 0.33662 0.39712 0.8352 0.0
H1539 H 0.29191 0.35423 0.82682 0.0
H1540 H 0.23388 0.39457 0.8831 0.0
H1541 H 0.14334 0.29922 0.85494 0.0
H1542 H 0.25826 0.48702 0.86235 0.0
H1543 H 0.31007 0.45129 0.85508 0.0
H1544 H 0.2965 0.45033 0.87414 0.0
H1545 H 0.14061 0.36267 0.82676 0.0
H1546 H 0.15803 0.29787 0.82916 0.0
H1547 H 0.20216 0.34177 0.82122 0.0
C1548 C 0.32675 0.46007 0.57746 0.0
C1549 C 0.35268 0.49337 0.56855 0.0
C1550 C 0.35268 0.43263 0.58772 0.0
C1551 C 0.40573 0.43875 0.58893 0.0
C1552 C 0.43225 0.47101 0.57952 0.0
C1553 C 0.40513 0.4986 0.5695 0.0
C1554 C 0.32266 0.39949 0.59767 0.0
C1555 C 0.48905 0.47717 0.58026 0.0
C1556 C 0.47398 0.42094 0.6241 0.0
C1557 C 0.49521 0.37315 0.62175 0.0
C1558 C 0.44246 0.44163 0.61375 0.0
C1559 C 0.43339 0.41434 0.60064 0.0
C1560 C 0.45312 0.36517 0.59845 0.0
C1561 C 0.48347 0.34485 0.60916 0.0
C1562 C 0.42005 0.49325 0.61667 0.0
C1563 C 0.44364 0.33491 0.58463 0.0
H1564 H 0.28591 0.45664 0.57665 0.0
H1565 H 0.4247 0.52442 0.56248 0.0
H1566 H 0.34412 0.36572 0.6008 0.0
H1567 H 0.31353 0.42168 0.60767 0.0
H1568 H 0.28649 0.38665 0.59261 0.0
H1569 H 0.50418 0.50017 0.57136 0.0
H1570 H 0.4999 0.49587 0.59069 0.0
H1571 H 0.50732 0.43954 0.57975 0.0
H1572 H 0.48255 0.44241 0.63396 0.0
H1573 H 0.50005 0.30786 0.60735 0.0
H1574 H 0.37857 0.49189 0.61482 0.0
H1575 H 0.43645 0.52071 0.6091 0.0
H1576 H 0.42727 0.50748 0.62788 0.0
H1577 H 0.40239 0.32873 0.58307 0.0
H1578 H 0.4624 0.29749 0.58456 0.0
H1579 H 0.4577 0.3563 0.57529 0.0
C1580 C 0.41889 0.44325 0.33684 0.0
C1581 C 0.44761 0.4452 0.32412 0.0
C1582 C 0.41946 0.48372 0.34697 0.0
C1583 C 0.45084 0.52622 0.34452 0.0
C1584 C 0.48142 0.5276 0.33201 0.0
C1585 C 0.47872 0.48756 0.32185 0.0
C1586 C 0.38565 0.48155 0.36008 0.0
C1587 C 0.51663 0.57167 0.32926 0.0
C1588 C 0.43144 0.6565 0.36149 0.0
C1589 C 0.46916 0.65765 0.37211 0.0
C1590 C 0.42277 0.61262 0.35293 0.0
C1591 C 0.45267 0.56933 0.35506 0.0
C1592 C 0.48824 0.56928 0.36641 0.0
C1593 C 0.4959 0.61345 0.37481 0.0
C1594 C 0.38344 0.61338 0.34115 0.0
C1595 C 0.52058 0.52377 0.3691 0.0
H1596 H 0.39516 0.41049 0.33878 0.0
H1597 H 0.5001 0.49027 0.31192 0.0
H1598 H 0.40849 0.48558 0.37008 0.0
H1599 H 0.35887 0.51361 0.36012 0.0
H1600 H 0.36356 0.44563 0.3604 0.0
H1601 H 0.54003 0.56541 0.31942 0.0
H1602 H 0.4944 0.6066 0.32799 0.0
H1603 H 0.54225 0.57826 0.33862 0.0
H1604 H 0.4102 0.69042 0.35947 0.0
H1605 H 0.52367 0.61373 0.38334 0.0
H1606 H 0.3592 0.5789 0.34139 0.0
H1607 H 0.40244 0.61346 0.33047 0.0
H1608 H 0.35897 0.64723 0.34212 0.0
H1609 H 0.53989 0.52682 0.37972 0.0
H1610 H 0.54961 0.52045 0.36049 0.0
H1611 H 0.4978 0.48836 0.36867 0.0
C1612 C 0.29951 0.51766 0.97566 0.0
C1613 C 0.29949 0.49597 0.9893 0.0
C1614 C 0.26943 0.49739 0.96443 0.0
C1615 C 0.23927 0.45398 0.96685 0.0
C1616 C 0.23578 0.43459 0.98089 0.0
C1617 C 0.26572 0.45608 0.99198 0.0
C1618 C 0.2736 0.51965 0.94967 0.0
C1619 C 0.20404 0.38829 0.98391 0.0
C1620 C 0.15019 0.39983 0.93801 0.0
C1621 C 0.1805 0.36234 0.93147 0.0
C1622 C 0.16895 0.43091 0.94939 0.0
C1623 C 0.21889 0.42385 0.95437 0.0
C1624 C 0.24991 0.38677 0.94762 0.0
C1625 C 0.23044 0.35673 0.93623 0.0
C1626 C 0.13515 0.47062 0.95621 0.0
C1627 C 0.30343 0.37788 0.95266 0.0
H1628 H 0.32568 0.54823 0.9734 0.0
H1629 H 0.26469 0.43986 0.00258 0.0
H1630 H 0.29802 0.49524 0.94272 0.0
H1631 H 0.23595 0.52126 0.94444 0.0
H1632 H 0.29044 0.55833 0.95017 0.0
H1633 H 0.19944 0.38259 -0.00434 0.0
H1634 H 0.16605 0.39109 0.97895 0.0
H1635 H 0.22251 0.35434 0.97904 0.0
H1636 H 0.11163 0.40451 0.93438 0.0
H1637 H 0.25419 0.32787 0.93128 0.0
H1638 H 0.15422 0.50819 0.95616 0.0
H1639 H 0.12783 0.46173 0.96764 0.0
H1640 H 0.09827 0.47317 0.95055 0.0
H1641 H 0.32619 0.4132 0.95198 0.0
H1642 H 0.32258 0.34765 0.94618 0.0
H1643 H 0.30314 0.36699 0.96412 0.0
C1644 C 0.44691 0.5126 0.73531 0.0
C1645 C 0.40148 0.50004 0.74225 0.0
C1646 C 0.46523 0.48326 0.72366 0.0
C1647 C 0.43714 0.44033 0.71864 0.0
C1648 C 0.39105 0.42754 0.72553 0.0
C1649 C 0.37421 0.45708 0.73738 0.0
C1650 C 0.51362 0.50058 0.71659 0.0
C1651 C 0.35863 0.3836 0.72014 0.0
C1652 C 0.46358 0.39667 0.67998 0.0
C1653 C 0.49088 0.3525 0.68205 0.0
C1654 C 0.44599 0.42573 0.69184 0.0
C1655 C 0.4553 0.4095 0.70603 0.0
C1656 C 0.4823 0.36419 0.70808 0.0
C1657 C 0.50028 0.33659 0.69602 0.0
C1658 C 0.41635 0.47305 0.68918 0.0
C1659 C 0.49023 0.34273 0.72281 0.0
H1660 H 0.46754 0.54668 0.73859 0.0
H1661 H 0.33907 0.44709 0.74267 0.0
H1662 H 0.54302 0.50835 0.72494 0.0
H1663 H 0.52862 0.47323 0.70843 0.0
H1664 H 0.5068 0.53677 0.71123 0.0
H1665 H 0.32001 0.38457 0.72488 0.0
H1666 H 0.35528 0.38352 0.70821 0.0
H1667 H 0.37643 0.34759 0.72309 0.0
H1668 H 0.45542 0.408 0.66909 0.0
H1669 H 0.51988 0.30126 0.69751 0.0
H1670 H 0.43825 0.50669 0.69312 0.0
H1671 H 0.38014 0.47233 0.69526 0.0
H1672 H 0.40793 0.47758 0.67756 0.0
H1673 H 0.4903 0.37223 0.73157 0.0
H1674 H 0.52622 0.32149 0.72319 0.0
H1675 H 0.45931 0.31533 0.72499 0.0
C1676 C 0.21364 0.65038 0.45322 0.0
C1677 C 0.20983 0.68035 0.46594 0.0
C1678 C 0.25514 0.6555 0.44389 0.0
C1679 C 0.29294 0.69223 0.44722 0.0
C1680 C 0.28653 0.72599 0.45918 0.0
C1681 C 0.24542 0.71938 0.46846 0.0
C1682 C 0.26044 0.61858 0.43127 0.0
C1683 C 0.32569 0.76612 0.46295 0.0
C1684 C 0.43127 0.66848 0.43937 0.0
C1685 C 0.44035 0.70091 0.42797 0.0
C1686 C 0.38273 0.66356 0.44529 0.0
C1687 C 0.34236 0.69163 0.43961 0.0
C1688 C 0.35083 0.72255 0.42765 0.0
C1689 C 0.39983 0.72681 0.42196 0.0
C1690 C 0.3746 0.6281 0.45758 0.0
C1691 C 0.30808 0.7505 0.42078 0.0
H1692 H 0.18581 0.6208 0.45099 0.0
H1693 H 0.24372 0.74244 0.47831 0.0
H1694 H 0.27886 0.63637 0.42192 0.0
H1695 H 0.28446 0.5867 0.43453 0.0
H1696 H 0.22312 0.60277 0.42782 0.0
H1697 H 0.31183 0.7932 0.47139 0.0
H1698 H 0.36035 0.7479 0.46698 0.0
H1699 H 0.33651 0.78729 0.45326 0.0
H1700 H 0.46228 0.64732 0.44378 0.0
H1701 H 0.40621 0.74942 0.41258 0.0
H1702 H 0.35067 0.59564 0.4538 0.0
H1703 H 0.35417 0.64734 0.4666 0.0
H1704 H 0.41075 0.61323 0.46175 0.0
H1705 H 0.32172 0.77706 0.41253 0.0
H1706 H 0.28613 0.77173 0.4291 0.0
H1707 H 0.28173 0.72291 0.41546 0.0
C1708 C 0.34221 0.54833 0.20129 0.0
C1709 C 0.31122 0.51961 0.21031 0.0
C1710 C 0.32111 0.58277 0.19178 0.0
C1711 C 0.26797 0.58858 0.19138 0.0
C1712 C 0.23666 0.55997 0.20055 0.0
C1713 C 0.25863 0.52563 0.20978 0.0
C1714 C 0.35548 0.61241 0.18206 0.0
C1715 C 0.17972 0.56496 0.20046 0.0
C1716 C 0.19611 0.69938 0.17732 0.0
C1717 C 0.17359 0.67687 0.16502 0.0
C1718 C 0.23098 0.6726 0.18547 0.0
C1719 C 0.24387 0.62263 0.18103 0.0
C1720 C 0.2254 0.60211 0.16776 0.0
C1721 C 0.19011 0.62938 0.15996 0.0
C1722 C 0.24991 0.69591 0.19954 0.0
C1723 C 0.23907 0.54944 0.16247 0.0
H1724 H 0.38291 0.54408 0.20172 0.0
H1725 H 0.23433 0.50276 0.21645 0.0
H1726 H 0.34695 0.60236 0.17061 0.0
H1727 H 0.34865 0.65354 0.1836 0.0
H1728 H 0.39611 0.60501 0.18409 0.0
H1729 H 0.16108 0.54168 0.20875 0.0
H1730 H 0.16908 0.60507 0.20244 0.0
H1731 H 0.1646 0.55299 0.18972 0.0
H1732 H 0.18369 0.73631 0.18121 0.0
H1733 H 0.17354 0.61235 0.15026 0.0
H1734 H 0.29052 0.68766 0.20116 0.0
H1735 H 0.22858 0.67929 0.2086 0.0
H1736 H 0.24466 0.73758 0.20006 0.0
H1737 H 0.28003 0.54253 0.16394 0.0
H1738 H 0.22938 0.54288 0.1509 0.0
H1739 H 0.218 0.52129 0.16886 0.0
loop_
_geom_bond_atom_site_label_1
_geom_bond_atom_site_label_2
_geom_bond_distance
_geom_bond_site_symmetry_2
_ccdc_geom_bond_type
H0 O26 0.856 . S
H1 O29 0.854 . S
H2 C37 0.930 . S
H3 C38 0.930 . S
H4 C40 0.930 1_565 S
H5 C41 0.930 1_565 S
H6 C43 0.931 . S
H7 C44 0.930 1_655 S
H8 C46 0.930 . S
H9 C47 0.929 . S
H10 C49 0.930 . S
H11 C50 0.931 . S
H12 C52 0.930 . S
H13 C53 0.929 1_565 S
H14 C55 0.931 . S
H15 C56 0.930 . S
H16 C58 0.930 . S
H17 C59 0.932 . S
H18 C61 0.930 1_545 S
H19 C62 0.929 . S
H20 C64 0.931 . S
H21 C65 0.930 . S
H22 C67 0.929 . S
H23 C68 0.931 1_545 S
H24 C70 0.930 . S
H25 C71 0.929 . S
O26 H0 0.856 . S
O26 C72 1.300 . S
O27 C72 1.209 . S
O28 C73 1.199 . S
O29 H1 0.854 . S
O29 C73 1.297 . S
C30 C31 1.404 1_455 S
C30 C35 1.397 . S
C30 C36 1.492 . S
C31 C30 1.404 1_655 S
C31 C32 1.396 . S
C31 C42 1.492 . S
C32 C31 1.396 . S
C32 C33 1.397 . S
C32 C48 1.509 . S
C33 C32 1.397 . S
C33 C34 1.412 1_545 S
C33 C54 1.484 1_545 S
C34 C33 1.412 1_565 S
C34 C35 1.388 1_665 S
C34 C60 1.490 . S
C35 C30 1.397 . S
C35 C34 1.388 1_445 S
C35 C66 1.519 1_545 S
C36 C30 1.492 . S
C36 C37 1.363 . S
C36 C41 1.390 . S
C37 H2 0.930 . S
C37 C36 1.363 . S
C37 C38 1.372 . S
C38 H3 0.930 . S
C38 C37 1.372 . S
C38 C39 1.383 . S
C39 C38 1.383 . S
C39 C40 1.395 . S
C40 H4 0.930 1_545 S
C40 C39 1.395 . S
C40 C41 1.362 . S
C41 H5 0.930 1_545 S
C41 C36 1.390 . S
C41 C40 1.362 . S
C42 C31 1.492 . S
C42 C43 1.377 . S
C42 C47 1.398 1_655 S
C43 H6 0.931 . S
C43 C42 1.377 . S
C43 C44 1.376 1_655 S
C44 H7 0.930 1_455 S
C44 C43 1.376 1_455 S
C44 C45 1.376 . S
C45 C44 1.376 . S
C45 C46 1.378 . S
C45 C72 1.486 . S
C46 H8 0.930 . S
C46 C45 1.378 . S
C46 C47 1.376 . S
C47 H9 0.929 . S
C47 C42 1.398 1_455 S
C47 C46 1.376 . S
C48 C32 1.509 . S
C48 C49 1.391 . S
C48 C53 1.386 . S
C49 H10 0.930 . S
C49 C48 1.391 . S
C49 C50 1.375 . S
C50 H11 0.931 . S
C50 C49 1.375 . S
C50 C51 1.375 . S
C51 C50 1.375 . S
C51 C52 1.361 . S
C52 H12 0.930 . S
C52 C51 1.361 . S
C52 C53 1.399 . S
C53 H13 0.929 1_545 S
C53 C48 1.386 . S
C53 C52 1.399 . S
C54 C33 1.484 1_565 S
C54 C55 1.391 1_565 S
C54 C59 1.365 . S
C55 H14 0.931 . S
C55 C54 1.391 1_545 S
C55 C56 1.372 . S
C56 H15 0.930 . S
C56 C55 1.372 . S
C56 C57 1.397 1_545 S
C57 C56 1.397 1_565 S
C57 C58 1.390 . S
C57 C73 1.476 . S
C58 H16 0.930 . S
C58 C57 1.390 . S
C58 C59 1.366 . S
C59 H17 0.932 . S
C59 C54 1.365 . S
C59 C58 1.366 . S
C60 C34 1.490 . S
C60 C61 1.380 . S
C60 C65 1.386 . S
C61 H18 0.930 1_565 S
C61 C60 1.380 . S
C61 C62 1.381 . S
C62 H19 0.929 . S
C62 C61 1.381 . S
C62 C63 1.371 . S
C63 C62 1.371 . S
C63 C64 1.380 . S
C64 H20 0.931 . S
C64 C63 1.380 . S
C64 C65 1.387 . S
C65 H21 0.930 . S
C65 C60 1.386 . S
C65 C64 1.387 . S
C66 C35 1.519 1_565 S
C66 C67 1.377 1_565 S
C66 C71 1.361 . S
C67 H22 0.929 . S
C67 C66 1.377 1_545 S
C67 C68 1.386 1_545 S
C68 H23 0.931 1_565 S
C68 C67 1.386 1_565 S
C68 C69 1.363 . S
C69 C68 1.363 . S
C69 C70 1.385 . S
C70 H24 0.930 . S
C70 C69 1.385 . S
C70 C71 1.396 . S
C71 H25 0.929 . S
C71 C66 1.361 . S
C71 C70 1.396 . S
C72 O26 1.300 . S
C72 O27 1.209 . S
C72 C45 1.486 . S
C73 O28 1.199 . S
C73 O29 1.297 . S
C73 C57 1.476 . S
H74 O100 0.856 . S
H75 O103 0.854 . S
H76 C111 0.930 . S
H77 C112 0.930 . S
H78 C114 0.930 . S
H79 C115 0.930 . S
H80 C117 0.931 . S
H81 C118 0.930 . S
H82 C120 0.930 . S
H83 C121 0.929 . S
H84 C123 0.930 . S
H85 C124 0.931 . S
H86 C126 0.930 . S
H87 C127 0.929 . S
H88 C129 0.931 . S
H89 C130 0.930 . S
H90 C132 0.930 . S
H91 C133 0.932 . S
H92 C135 0.930 . S
H93 C136 0.929 . S
H94 C138 0.931 . S
H95 C139 0.930 . S
H96 C141 0.929 . S
H97 C142 0.931 . S
H98 C144 0.930 . S
H99 C145 0.929 . S
O100 H74 0.856 . S
O100 C146 1.300 . S
O101 C146 1.209 . S
O102 C147 1.199 . S
O103 H75 0.854 . S
O103 C147 1.297 . S
C104 C105 1.404 . S
C104 C109 1.397 . S
C104 C110 1.492 . S
C105 C104 1.404 . S
C105 C106 1.396 . S
C105 C116 1.492 . S
C106 C105 1.396 . S
C106 C107 1.397 . S
C106 C122 1.509 . S
C107 C106 1.397 . S
C107 C108 1.412 . S
C107 C128 1.485 . S
C108 C107 1.412 . S
C108 C109 1.388 . S
C108 C134 1.490 . S
C109 C104 1.397 . S
C109 C108 1.388 . S
C109 C140 1.519 . S
C110 C104 1.492 . S
C110 C111 1.363 . S
C110 C115 1.390 . S
C111 H76 0.930 . S
C111 C110 1.363 . S
C111 C112 1.372 . S
C112 H77 0.930 . S
C112 C111 1.372 . S
C112 C113 1.383 . S
C113 C112 1.383 . S
C113 C114 1.395 . S
C114 H78 0.930 . S
C114 C113 1.395 . S
C114 C115 1.362 . S
C115 H79 0.930 . S
C115 C110 1.390 . S
C115 C114 1.362 . S
C116 C105 1.492 . S
C116 C117 1.377 . S
C116 C121 1.397 . S
C117 H80 0.931 . S
C117 C116 1.377 . S
C117 C118 1.376 . S
C118 H81 0.930 . S
C118 C117 1.376 . S
C118 C119 1.376 . S
C119 C118 1.376 . S
C119 C120 1.378 . S
C119 C146 1.486 . S
C120 H82 0.930 . S
C120 C119 1.378 . S
C120 C121 1.376 . S
C121 H83 0.929 . S
C121 C116 1.397 . S
C121 C120 1.376 . S
C122 C106 1.509 . S
C122 C123 1.391 . S
C122 C127 1.386 . S
C123 H84 0.930 . S
C123 C122 1.391 . S
C123 C124 1.375 . S
C124 H85 0.931 . S
C124 C123 1.375 . S
C124 C125 1.375 . S
C125 C124 1.375 . S
C125 C126 1.361 . S
C126 H86 0.930 . S
C126 C125 1.361 . S
C126 C127 1.399 . S
C127 H87 0.929 . S
C127 C122 1.386 . S
C127 C126 1.399 . S
C128 C107 1.485 . S
C128 C129 1.394 . S
C128 C133 1.360 . S
C129 H88 0.931 . S
C129 C128 1.394 . S
C129 C130 1.372 . S
C130 H89 0.930 . S
C130 C129 1.372 . S
C130 C131 1.397 . S
C131 C130 1.397 . S
C131 C132 1.390 . S
C131 C147 1.476 1_565 S
C132 H90 0.930 . S
C132 C131 1.390 . S
C132 C133 1.366 . S
C133 H91 0.932 . S
C133 C128 1.360 . S
C133 C132 1.366 . S
C134 C108 1.490 . S
C134 C135 1.380 . S
C134 C139 1.386 . S
C135 H92 0.930 . S
C135 C134 1.380 . S
C135 C136 1.381 . S
C136 H93 0.929 . S
C136 C135 1.381 . S
C136 C137 1.371 . S
C137 C136 1.371 . S
C137 C138 1.380 . S
C138 H94 0.931 . S
C138 C137 1.380 . S
C138 C139 1.387 . S
C139 H95 0.930 . S
C139 C134 1.386 . S
C139 C138 1.387 . S
C140 C109 1.519 . S
C140 C141 1.377 . S
C140 C145 1.361 . S
C141 H96 0.929 . S
C141 C140 1.377 . S
C141 C142 1.386 . S
C142 H97 0.931 . S
C142 C141 1.386 . S
C142 C143 1.363 . S
C143 C142 1.363 . S
C143 C144 1.385 . S
C144 H98 0.930 . S
C144 C143 1.385 . S
C144 C145 1.396 . S
C145 H99 0.929 . S
C145 C140 1.361 . S
C145 C144 1.396 . S
C146 O100 1.300 . S
C146 O101 1.209 . S
C146 C119 1.486 . S
C147 O102 1.199 . S
C147 O103 1.297 . S
C147 C131 1.476 1_545 S
H148 O174 0.856 . S
H149 O177 0.854 . S
H150 C185 0.930 . S
H151 C186 0.930 . S
H152 C188 0.930 . S
H153 C189 0.930 . S
H154 C191 0.931 . S
H155 C192 0.930 . S
H156 C194 0.930 . S
H157 C195 0.929 . S
H158 C197 0.930 . S
H159 C198 0.931 . S
H160 C200 0.930 . S
H161 C201 0.929 . S
H162 C203 0.931 . S
H163 C204 0.930 . S
H164 C206 0.930 . S
H165 C207 0.932 . S
H166 C209 0.935 . S
H167 C210 0.929 . S
H168 C212 0.931 . S
H169 C213 0.930 . S
H170 C215 0.929 . S
H171 C216 0.895 1_556 S
H172 C218 0.930 . S
H173 C219 0.929 . S
O174 H148 0.856 . S
O174 C220 1.300 . S
O175 C220 1.209 . S
O176 C221 1.199 . S
O177 H149 0.854 . S
O177 C221 1.297 . S
C178 C179 1.404 . S
C178 C183 1.397 . S
C178 C184 1.492 . S
C179 C178 1.404 . S
C179 C180 1.396 . S
C179 C190 1.492 . S
C180 C179 1.396 . S
C180 C181 1.397 . S
C180 C196 1.509 . S
C181 C180 1.397 . S
C181 C182 1.412 . S
C181 C202 1.485 . S
C182 C181 1.412 . S
C182 C183 1.388 . S
C182 C208 1.490 . S
C183 C178 1.397 . S
C183 C182 1.388 . S
C183 C214 1.519 . S
C184 C178 1.492 . S
C184 C185 1.363 1_545 S
C184 C189 1.390 . S
C185 H150 0.930 . S
C185 C184 1.363 1_565 S
C185 C186 1.372 . S
C186 H151 0.930 . S
C186 C185 1.372 . S
C186 C187 1.383 1_565 S
C187 C186 1.383 1_545 S
C187 C188 1.395 . S
C188 H152 0.930 . S
C188 C187 1.395 . S
C188 C189 1.362 . S
C189 H153 0.930 . S
C189 C184 1.390 . S
C189 C188 1.362 . S
C190 C179 1.492 . S
C190 C191 1.377 1_545 S
C190 C195 1.397 . S
C191 H154 0.931 . S
C191 C190 1.377 1_565 S
C191 C192 1.376 . S
C192 H155 0.930 . S
C192 C191 1.376 . S
C192 C193 1.376 . S
C193 C192 1.376 . S
C193 C194 1.378 1_565 S
C193 C220 1.486 . S
C194 H156 0.930 . S
C194 C193 1.378 1_545 S
C194 C195 1.376 . S
C195 H157 0.929 . S
C195 C190 1.397 . S
C195 C194 1.376 . S
C196 C180 1.509 . S
C196 C197 1.391 1_545 S
C196 C201 1.386 . S
C197 H158 0.930 . S
C197 C196 1.391 1_565 S
C197 C198 1.375 . S
C198 H159 0.931 . S
C198 C197 1.375 . S
C198 C199 1.375 . S
C199 C198 1.375 . S
C199 C200 1.361 1_565 S
C200 H160 0.930 . S
C200 C199 1.361 1_545 S
C200 C201 1.399 . S
C201 H161 0.929 . S
C201 C196 1.386 . S
C201 C200 1.399 . S
C202 C181 1.485 . S
C202 C203 1.394 . S
C202 C207 1.360 . S
C203 H162 0.931 . S
C203 C202 1.394 . S
C203 C204 1.372 . S
C204 H163 0.930 . S
C204 C203 1.372 . S
C204 C205 1.397 . S
C205 C204 1.397 . S
C205 C206 1.390 . S
C205 C221 1.476 . S
C206 H164 0.930 . S
C206 C205 1.390 . S
C206 C207 1.366 . S
C207 H165 0.932 . S
C207 C202 1.360 . S
C207 C206 1.366 . S
C208 C182 1.490 . S
C208 C209 1.425 . S
C208 C213 1.386 . S
C209 H166 0.935 . S
C209 C208 1.425 . S
C209 C210 1.334 1_554 S
C210 H167 0.929 . S
C210 C209 1.334 1_556 S
C210 C211 1.371 . S
C211 C210 1.371 . S
C211 C212 1.380 . S
C212 H168 0.931 . S
C212 C211 1.380 . S
C212 C213 1.387 1_556 S
C213 H169 0.930 . S
C213 C208 1.386 . S
C213 C212 1.387 1_554 S
C214 C183 1.519 . S
C214 C215 1.377 . S
C214 C219 1.361 . S
C215 H170 0.929 . S
C215 C214 1.377 . S
C215 C216 1.386 . S
C216 H171 0.895 1_554 S
C216 C215 1.386 . S
C216 C217 1.363 . S
C217 C216 1.363 . S
C217 C218 1.385 . S
C218 H172 0.930 . S
C218 C217 1.385 . S
C218 C219 1.396 . S
C219 H173 0.929 . S
C219 C214 1.361 . S
C219 C218 1.396 . S
C220 O174 1.300 . S
C220 O175 1.209 . S
C220 C193 1.486 . S
C221 O176 1.199 . S
C221 O177 1.297 . S
C221 C205 1.476 . S
H222 O248 0.856 . S
H223 O251 0.854 . S
H224 C259 0.930 . S
H225 C260 0.930 . S
H226 C262 0.930 . S
H227 C263 0.930 . S
H228 C265 0.931 . S
H229 C266 0.930 . S
H230 C268 0.930 . S
H231 C269 0.929 . S
H232 C271 0.930 . S
H233 C272 0.931 . S
H234 C274 0.930 . S
H235 C275 0.929 . S
H236 C277 0.931 . S
H237 C278 0.930 . S
H238 C280 0.930 . S
H239 C281 0.932 . S
H240 C283 0.930 . S
H241 C284 0.929 . S
H242 C286 0.931 . S
H243 C287 0.930 . S
H244 C289 0.929 . S
H245 C290 0.931 . S
H246 C292 0.930 . S
H247 C293 0.929 . S
O248 H222 0.856 . S
O248 C294 1.300 . S
O249 C294 1.209 . S
O250 C295 1.199 . S
O251 H223 0.854 . S
O251 C295 1.297 . S
C252 C253 1.404 . S
C252 C257 1.397 . S
C252 C258 1.492 . S
C253 C252 1.404 . S
C253 C254 1.396 . S
C253 C264 1.492 . S
C254 C253 1.396 . S
C254 C255 1.397 . S
C254 C270 1.509 . S
C255 C254 1.397 . S
C255 C256 1.412 . S
C255 C276 1.485 . S
C256 C255 1.412 . S
C256 C257 1.388 . S
C256 C282 1.490 . S
C257 C252 1.397 . S
C257 C256 1.388 . S
C257 C288 1.519 . S
C258 C252 1.492 . S
C258 C259 1.363 . S
C258 C263 1.390 . S
C259 H224 0.930 . S
C259 C258 1.363 . S
C259 C260 1.372 . S
C260 H225 0.930 . S
C260 C259 1.372 . S
C260 C261 1.383 . S
C261 C260 1.383 . S
C261 C262 1.395 . S
C262 H226 0.930 . S
C262 C261 1.395 . S
C262 C263 1.362 . S
C263 H227 0.930 . S
C263 C258 1.390 . S
C263 C262 1.362 . S
C264 C253 1.492 . S
C264 C265 1.377 . S
C264 C269 1.397 . S
C265 H228 0.931 . S
C265 C264 1.377 . S
C265 C266 1.376 . S
C266 H229 0.930 . S
C266 C265 1.376 . S
C266 C267 1.376 . S
C267 C266 1.376 . S
C267 C268 1.378 . S
C267 C294 1.486 . S
C268 H230 0.930 . S
C268 C267 1.378 . S
C268 C269 1.376 . S
C269 H231 0.929 . S
C269 C264 1.397 . S
C269 C268 1.376 . S
C270 C254 1.509 . S
C270 C271 1.391 . S
C270 C275 1.386 . S
C271 H232 0.930 . S
C271 C270 1.391 . S
C271 C272 1.375 . S
C272 H233 0.931 . S
C272 C271 1.375 . S
C272 C273 1.375 . S
C273 C272 1.375 . S
C273 C274 1.361 . S
C274 H234 0.930 . S
C274 C273 1.361 . S
C274 C275 1.399 . S
C275 H235 0.929 . S
C275 C270 1.386 . S
C275 C274 1.399 . S
C276 C255 1.485 . S
C276 C277 1.394 . S
C276 C281 1.360 . S
C277 H236 0.931 . S
C277 C276 1.394 . S
C277 C278 1.372 . S
C278 H237 0.930 . S
C278 C277 1.372 . S
C278 C279 1.397 . S
C279 C278 1.397 . S
C279 C280 1.390 . S
C279 C295 1.476 . S
C280 H238 0.930 . S
C280 C279 1.390 . S
C280 C281 1.366 . S
C281 H239 0.932 . S
C281 C276 1.360 . S
C281 C280 1.366 . S
C282 C256 1.490 . S
C282 C283 1.380 . S
C282 C287 1.386 . S
C283 H240 0.930 . S
C283 C282 1.380 . S
C283 C284 1.381 . S
C284 H241 0.929 . S
C284 C283 1.381 . S
C284 C285 1.371 . S
C285 C284 1.371 . S
C285 C286 1.380 . S
C286 H242 0.931 . S
C286 C285 1.380 . S
C286 C287 1.387 . S
C287 H243 0.930 . S
C287 C282 1.386 . S
C287 C286 1.387 . S
C288 C257 1.519 . S
C288 C289 1.377 . S
C288 C293 1.361 . S
C289 H244 0.929 . S
C289 C288 1.377 . S
C289 C290 1.386 . S
C290 H245 0.931 . S
C290 C289 1.386 . S
C290 C291 1.363 . S
C291 C290 1.363 . S
C291 C292 1.385 . S
C292 H246 0.930 . S
C292 C291 1.385 . S
C292 C293 1.396 . S
C293 H247 0.929 . S
C293 C288 1.361 . S
C293 C292 1.396 . S
C294 O248 1.300 . S
C294 O249 1.209 . S
C294 C267 1.486 . S
C295 O250 1.199 . S
C295 O251 1.297 . S
C295 C279 1.476 . S
H296 O322 0.856 . S
H297 O325 0.854 . S
H298 C333 0.930 . S
H299 C334 0.930 . S
H300 C336 0.930 . S
H301 C337 0.930 . S
H302 C339 0.931 . S
H303 C340 0.930 . S
H304 C342 0.930 . S
H305 C343 0.929 . S
H306 C345 0.930 . S
H307 C346 0.931 . S
H308 C348 0.930 . S
H309 C349 0.929 . S
H310 C351 0.931 . S
H311 C352 0.930 . S
H312 C354 0.930 . S
H313 C355 0.932 . S
H314 C357 0.930 . S
H315 C358 0.929 . S
H316 C360 0.931 . S
H317 C361 0.930 . S
H318 C363 0.929 . S
H319 C364 0.931 . S
H320 C366 0.930 . S
H321 C367 0.929 . S
O322 H296 0.856 . S
O322 C368 1.300 . S
O323 C368 1.209 1_455 S
O324 C369 1.199 . S
O325 H297 0.854 . S
O325 C369 1.297 . S
C326 C327 1.404 . S
C326 C331 1.397 . S
C326 C332 1.492 . S
C327 C326 1.404 . S
C327 C328 1.396 . S
C327 C338 1.492 . S
C328 C327 1.396 . S
C328 C329 1.397 . S
C328 C344 1.509 . S
C329 C328 1.397 . S
C329 C330 1.412 . S
C329 C350 1.485 . S
C330 C329 1.412 . S
C330 C331 1.388 . S
C330 C356 1.490 . S
C331 C326 1.397 . S
C331 C330 1.388 . S
C331 C362 1.519 . S
C332 C326 1.492 . S
C332 C333 1.363 . S
C332 C337 1.390 . S
C333 H298 0.930 . S
C333 C332 1.363 . S
C333 C334 1.372 . S
C334 H299 0.930 . S
C334 C333 1.372 . S
C334 C335 1.383 . S
C335 C334 1.383 . S
C335 C336 1.395 . S
C336 H300 0.930 . S
C336 C335 1.395 . S
C336 C337 1.362 . S
C337 H301 0.930 . S
C337 C332 1.390 . S
C337 C336 1.362 . S
C338 C327 1.492 . S
C338 C339 1.377 . S
C338 C343 1.397 . S
C339 H302 0.931 . S
C339 C338 1.377 . S
C339 C340 1.376 . S
C340 H303 0.930 . S
C340 C339 1.376 . S
C340 C341 1.376 . S
C341 C340 1.376 . S
C341 C342 1.378 . S
C341 C368 1.486 . S
C342 H304 0.930 . S
C342 C341 1.378 . S
C342 C343 1.376 . S
C343 H305 0.929 . S
C343 C338 1.397 . S
C343 C342 1.376 . S
C344 C328 1.509 . S
C344 C345 1.391 . S
C344 C349 1.386 . S
C345 H306 0.930 . S
C345 C344 1.391 . S
C345 C346 1.375 . S
C346 H307 0.931 . S
C346 C345 1.375 . S
C346 C347 1.375 . S
C347 C346 1.375 . S
C347 C348 1.361 . S
C348 H308 0.930 . S
C348 C347 1.361 . S
C348 C349 1.399 . S
C349 H309 0.929 . S
C349 C344 1.386 . S
C349 C348 1.399 . S
C350 C329 1.485 . S
C350 C351 1.394 . S
C350 C355 1.360 . S
C351 H310 0.931 . S
C351 C350 1.394 . S
C351 C352 1.372 . S
C352 H311 0.930 . S
C352 C351 1.372 . S
C352 C353 1.397 . S
C353 C352 1.397 . S
C353 C354 1.390 . S
C353 C369 1.476 . S
C354 H312 0.930 . S
C354 C353 1.390 . S
C354 C355 1.366 . S
C355 H313 0.932 . S
C355 C350 1.360 . S
C355 C354 1.366 . S
C356 C330 1.490 . S
C356 C357 1.380 . S
C356 C361 1.386 . S
C357 H314 0.930 . S
C357 C356 1.380 . S
C357 C358 1.381 . S
C358 H315 0.929 . S
C358 C357 1.381 . S
C358 C359 1.371 . S
C359 C358 1.371 . S
C359 C360 1.380 . S
C360 H316 0.931 . S
C360 C359 1.380 . S
C360 C361 1.387 . S
C361 H317 0.930 . S
C361 C356 1.386 . S
C361 C360 1.387 . S
C362 C331 1.519 . S
C362 C363 1.377 . S
C362 C367 1.361 . S
C363 H318 0.929 . S
C363 C362 1.377 . S
C363 C364 1.386 . S
C364 H319 0.931 . S
C364 C363 1.386 . S
C364 C365 1.363 . S
C365 C364 1.363 . S
C365 C366 1.385 . S
C366 H320 0.930 . S
C366 C365 1.385 . S
C366 C367 1.396 . S
C367 H321 0.929 . S
C367 C362 1.361 . S
C367 C366 1.396 . S
C368 O322 1.300 . S
C368 O323 1.209 1_655 S
C368 C341 1.486 . S
C369 O324 1.199 . S
C369 O325 1.297 . S
C369 C353 1.476 . S
H370 O396 0.856 . S
H371 O399 0.854 . S
H372 C407 0.930 . S
H373 C408 0.930 1_545 S
H374 C410 0.930 . S
H375 C411 0.930 . S
H376 C413 0.931 . S
H377 C414 0.930 . S
H378 C416 0.930 . S
H379 C417 0.929 . S
H380 C419 0.930 . S
H381 C420 0.931 . S
H382 C422 0.930 . S
H383 C423 0.929 . S
H384 C425 0.931 . S
H385 C426 0.930 . S
H386 C428 0.930 . S
H387 C429 0.932 . S
H388 C431 0.930 . S
H389 C432 0.929 . S
H390 C434 0.931 . S
H391 C435 0.930 . S
H392 C437 0.929 . S
H393 C438 0.931 . S
H394 C440 0.930 . S
H395 C441 0.929 . S
O396 H370 0.856 . S
O396 C442 1.300 . S
O397 C442 1.209 . S
O398 C443 1.199 . S
O399 H371 0.854 . S
O399 C443 1.297 . S
C400 C401 1.404 . S
C400 C405 1.397 . S
C400 C406 1.492 . S
C401 C400 1.404 . S
C401 C402 1.396 . S
C401 C412 1.492 . S
C402 C401 1.396 . S
C402 C403 1.397 . S
C402 C418 1.509 . S
C403 C402 1.397 . S
C403 C404 1.412 . S
C403 C424 1.485 . S
C404 C403 1.412 . S
C404 C405 1.388 . S
C404 C430 1.490 . S
C405 C400 1.397 . S
C405 C404 1.388 . S
C405 C436 1.519 . S
C406 C400 1.492 . S
C406 C407 1.363 . S
C406 C411 1.390 . S
C407 H372 0.930 . S
C407 C406 1.363 . S
C407 C408 1.372 . S
C408 H373 0.930 1_565 S
C408 C407 1.372 . S
C408 C409 1.383 1_565 S
C409 C408 1.383 1_545 S
C409 C410 1.395 . S
C410 H374 0.930 . S
C410 C409 1.395 . S
C410 C411 1.362 1_545 S
C411 H375 0.930 . S
C411 C406 1.390 . S
C411 C410 1.362 1_565 S
C412 C401 1.492 . S
C412 C413 1.377 . S
C412 C417 1.397 . S
C413 H376 0.931 . S
C413 C412 1.377 . S
C413 C414 1.376 . S
C414 H377 0.930 . S
C414 C413 1.376 . S
C414 C415 1.376 . S
C415 C414 1.376 . S
C415 C416 1.378 . S
C415 C442 1.486 . S
C416 H378 0.930 . S
C416 C415 1.378 . S
C416 C417 1.376 . S
C417 H379 0.929 . S
C417 C412 1.397 . S
C417 C416 1.376 . S
C418 C402 1.509 . S
C418 C419 1.391 . S
C418 C423 1.386 . S
C419 H380 0.930 . S
C419 C418 1.391 . S
C419 C420 1.375 . S
C420 H381 0.931 . S
C420 C419 1.375 . S
C420 C421 1.375 . S
C421 C420 1.375 . S
C421 C422 1.361 . S
C422 H382 0.930 . S
C422 C421 1.361 . S
C422 C423 1.399 . S
C423 H383 0.929 . S
C423 C418 1.386 . S
C423 C422 1.399 . S
C424 C403 1.485 . S
C424 C425 1.394 . S
C424 C429 1.360 . S
C425 H384 0.931 . S
C425 C424 1.394 . S
C425 C426 1.372 . S
C426 H385 0.930 . S
C426 C425 1.372 . S
C426 C427 1.397 . S
C427 C426 1.397 . S
C427 C428 1.390 . S
C427 C443 1.476 . S
C428 H386 0.930 . S
C428 C427 1.390 . S
C428 C429 1.366 . S
C429 H387 0.932 . S
C429 C424 1.360 . S
C429 C428 1.366 . S
C430 C404 1.490 . S
C430 C431 1.380 . S
C430 C435 1.386 . S
C431 H388 0.930 . S
C431 C430 1.380 . S
C431 C432 1.381 . S
C432 H389 0.929 . S
C432 C431 1.381 . S
C432 C433 1.371 . S
C433 C432 1.371 . S
C433 C434 1.380 . S
C434 H390 0.931 . S
C434 C433 1.380 . S
C434 C435 1.387 . S
C435 H391 0.930 . S
C435 C430 1.386 . S
C435 C434 1.387 . S
C436 C405 1.519 . S
C436 C437 1.377 . S
C436 C441 1.361 . S
C437 H392 0.929 . S
C437 C436 1.377 . S
C437 C438 1.386 . S
C438 H393 0.931 . S
C438 C437 1.386 . S
C438 C439 1.363 . S
C439 C438 1.363 . S
C439 C440 1.385 . S
C440 H394 0.930 . S
C440 C439 1.385 . S
C440 C441 1.396 . S
C441 H395 0.929 . S
C441 C436 1.361 . S
C441 C440 1.396 . S
C442 O396 1.300 . S
C442 O397 1.209 . S
C442 C415 1.486 . S
C443 O398 1.199 . S
C443 O399 1.297 . S
C443 C427 1.476 . S
H444 O470 0.856 . S
H445 O473 0.854 . S
H446 C481 0.930 1_556 S
H447 C482 0.987 . S
H448 C484 0.930 . S
H449 C485 0.930 . S
H450 C487 0.931 . S
H451 C488 0.930 . S
H452 C490 0.930 . S
H453 C491 0.929 1_554 S
H454 C493 0.930 . S
H455 C494 0.931 . S
H456 C496 0.930 . S
H457 C497 0.929 . S
H458 C499 0.931 . S
H459 C500 0.930 . S
H460 C502 0.930 . S
H461 C503 0.932 . S
H462 C505 0.930 . S
H463 C506 0.929 . S
H464 C508 0.931 . S
H465 C509 0.930 . S
H466 C511 0.929 . S
H467 C512 0.931 . S
H468 C514 0.930 . S
H469 C515 0.929 . S
O470 H444 0.856 . S
O470 C516 1.300 . S
O471 C516 1.209 . S
O472 C517 1.199 . S
O473 H445 0.854 . S
O473 C517 1.297 . S
C474 C475 1.404 . S
C474 C479 1.397 . S
C474 C480 1.492 . S
C475 C474 1.404 . S
C475 C476 1.396 . S
C475 C486 1.492 1_554 S
C476 C475 1.396 . S
C476 C477 1.397 . S
C476 C492 1.509 . S
C477 C476 1.397 . S
C477 C478 1.412 . S
C477 C498 1.485 . S
C478 C477 1.412 . S
C478 C479 1.388 . S
C478 C504 1.490 . S
C479 C474 1.397 . S
C479 C478 1.388 . S
C479 C510 1.519 . S
C480 C474 1.492 . S
C480 C481 1.363 . S
C480 C485 1.390 . S
C481 H446 0.930 1_554 S
C481 C480 1.363 . S
C481 C482 1.354 1_554 S
C482 H447 0.987 . S
C482 C481 1.354 1_556 S
C482 C483 1.351 1_556 S
C483 C482 1.351 1_554 S
C483 C484 1.395 . S
C484 H448 0.930 . S
C484 C483 1.395 . S
C484 C485 1.362 . S
C485 H449 0.930 . S
C485 C480 1.390 . S
C485 C484 1.362 . S
C486 C475 1.492 1_556 S
C486 C487 1.377 . S
C486 C491 1.397 . S
C487 H450 0.931 . S
C487 C486 1.377 . S
C487 C488 1.376 . S
C488 H451 0.930 . S
C488 C487 1.376 . S
C488 C489 1.376 . S
C489 C488 1.376 . S
C489 C490 1.378 . S
C489 C516 1.486 . S
C490 H452 0.930 . S
C490 C489 1.378 . S
C490 C491 1.376 . S
C491 H453 0.929 1_556 S
C491 C486 1.397 . S
C491 C490 1.376 . S
C492 C476 1.509 . S
C492 C493 1.391 1_554 S
C492 C497 1.386 . S
C493 H454 0.930 . S
C493 C492 1.391 1_556 S
C493 C494 1.375 . S
C494 H455 0.931 . S
C494 C493 1.375 . S
C494 C495 1.375 . S
C495 C494 1.375 . S
C495 C496 1.361 . S
C496 H456 0.930 . S
C496 C495 1.361 . S
C496 C497 1.399 1_556 S
C497 H457 0.929 . S
C497 C492 1.386 . S
C497 C496 1.399 1_554 S
C498 C477 1.485 . S
C498 C499 1.394 . S
C498 C503 1.360 . S
C499 H458 0.931 . S
C499 C498 1.394 . S
C499 C500 1.372 . S
C500 H459 0.930 . S
C500 C499 1.372 . S
C500 C501 1.397 . S
C501 C500 1.397 . S
C501 C502 1.390 . S
C501 C517 1.476 . S
C502 H460 0.930 . S
C502 C501 1.390 . S
C502 C503 1.366 . S
C503 H461 0.932 . S
C503 C498 1.360 . S
C503 C502 1.366 . S
C504 C478 1.490 . S
C504 C505 1.380 . S
C504 C509 1.386 . S
C505 H462 0.930 . S
C505 C504 1.380 . S
C505 C506 1.381 . S
C506 H463 0.929 . S
C506 C505 1.381 . S
C506 C507 1.371 . S
C507 C506 1.371 . S
C507 C508 1.380 . S
C508 H464 0.931 . S
C508 C507 1.380 . S
C508 C509 1.387 . S
C509 H465 0.930 . S
C509 C504 1.386 . S
C509 C508 1.387 . S
C510 C479 1.519 . S
C510 C511 1.377 . S
C510 C515 1.361 . S
C511 H466 0.929 . S
C511 C510 1.377 . S
C511 C512 1.386 . S
C512 H467 0.931 . S
C512 C511 1.386 . S
C512 C513 1.363 . S
C513 C512 1.363 . S
C513 C514 1.385 . S
C514 H468 0.930 . S
C514 C513 1.385 . S
C514 C515 1.396 . S
C515 H469 0.929 . S
C515 C510 1.361 . S
C515 C514 1.396 . S
C516 O470 1.300 . S
C516 O471 1.209 . S
C516 C489 1.486 . S
C517 O472 1.199 . S
C517 O473 1.297 . S
C517 C501 1.476 . S
H518 O544 0.856 . S
H519 O547 0.854 . S
H520 C555 0.930 . S
H521 C556 0.925 1_655 S
H522 C558 0.930 . S
H523 C559 0.930 . S
H524 C561 0.931 . S
H525 C562 0.930 . S
H526 C564 0.930 . S
H527 C565 0.929 . S
H528 C567 0.930 . S
H529 C568 0.931 . S
H530 C570 0.930 . S
H531 C571 0.929 . S
H532 C573 0.931 . S
H533 C574 0.930 . S
H534 C576 0.930 . S
H535 C577 0.932 . S
H536 C579 0.930 . S
H537 C580 0.929 . S
H538 C582 0.931 . S
H539 C583 0.930 . S
H540 C585 0.929 . S
H541 C586 0.931 . S
H542 C588 0.930 . S
H543 C589 0.929 . S
O544 H518 0.856 . S
O544 C590 1.300 . S
O545 C590 1.209 . S
O546 C591 1.199 . S
O547 H519 0.854 . S
O547 C591 1.297 . S
C548 C549 1.404 . S
C548 C553 1.397 . S
C548 C554 1.492 . S
C549 C548 1.404 . S
C549 C550 1.396 . S
C549 C560 1.492 . S
C550 C549 1.396 . S
C550 C551 1.397 . S
C550 C566 1.509 . S
C551 C550 1.397 . S
C551 C552 1.412 . S
C551 C572 1.485 . S
C552 C551 1.412 . S
C552 C553 1.388 . S
C552 C578 1.490 . S
C553 C548 1.397 . S
C553 C552 1.388 . S
C553 C584 1.519 . S
C554 C548 1.492 . S
C554 C555 1.363 . S
C554 C559 1.390 . S
C555 H520 0.930 . S
C555 C554 1.363 . S
C555 C556 1.372 . S
C556 H521 0.925 1_455 S
C556 C555 1.372 . S
C556 C557 1.383 1_455 S
C557 C556 1.383 1_655 S
C557 C558 1.395 . S
C558 H522 0.930 . S
C558 C557 1.395 . S
C558 C559 1.362 1_655 S
C559 H523 0.930 . S
C559 C554 1.390 . S
C559 C558 1.362 1_455 S
C560 C549 1.492 . S
C560 C561 1.377 . S
C560 C565 1.397 . S
C561 H524 0.931 . S
C561 C560 1.377 . S
C561 C562 1.376 . S
C562 H525 0.930 . S
C562 C561 1.376 . S
C562 C563 1.376 . S
C563 C562 1.376 . S
C563 C564 1.378 . S
C563 C590 1.486 . S
C564 H526 0.930 . S
C564 C563 1.378 . S
C564 C565 1.376 . S
C565 H527 0.929 . S
C565 C560 1.397 . S
C565 C564 1.376 . S
C566 C550 1.509 . S
C566 C567 1.391 . S
C566 C571 1.386 . S
C567 H528 0.930 . S
C567 C566 1.391 . S
C567 C568 1.375 . S
C568 H529 0.931 . S
C568 C567 1.375 . S
C568 C569 1.375 . S
C569 C568 1.375 . S
C569 C570 1.361 . S
C570 H530 0.930 . S
C570 C569 1.361 . S
C570 C571 1.399 . S
C571 H531 0.929 . S
C571 C566 1.386 . S
C571 C570 1.399 . S
C572 C551 1.485 . S
C572 C573 1.394 . S
C572 C577 1.360 . S
C573 H532 0.931 . S
C573 C572 1.394 . S
C573 C574 1.372 . S
C574 H533 0.930 . S
C574 C573 1.372 . S
C574 C575 1.397 . S
C575 C574 1.397 . S
C575 C576 1.390 . S
C575 C591 1.476 . S
C576 H534 0.930 . S
C576 C575 1.390 . S
C576 C577 1.366 . S
C577 H535 0.932 . S
C577 C572 1.360 . S
C577 C576 1.366 . S
C578 C552 1.490 . S
C578 C579 1.380 . S
C578 C583 1.386 . S
C579 H536 0.930 . S
C579 C578 1.380 . S
C579 C580 1.381 . S
C580 H537 0.929 . S
C580 C579 1.381 . S
C580 C581 1.371 . S
C581 C580 1.371 . S
C581 C582 1.380 . S
C582 H538 0.931 . S
C582 C581 1.380 . S
C582 C583 1.387 . S
C583 H539 0.930 . S
C583 C578 1.386 . S
C583 C582 1.387 . S
C584 C553 1.519 . S
C584 C585 1.377 . S
C584 C589 1.361 . S
C585 H540 0.929 . S
C585 C584 1.377 . S
C585 C586 1.386 . S
C586 H541 0.931 . S
C586 C585 1.386 . S
C586 C587 1.363 . S
C587 C586 1.363 . S
C587 C588 1.385 . S
C588 H542 0.930 . S
C588 C587 1.385 . S
C588 C589 1.396 . S
C589 H543 0.929 . S
C589 C584 1.361 . S
C589 C588 1.396 . S
C590 O544 1.300 . S
C590 O545 1.209 . S
C590 C563 1.486 . S
C591 O546 1.199 . S
C591 O547 1.297 . S
C591 C575 1.476 . S
C592 O619 1.312 . S
C592 O620 1.208 . S
C593 O614 1.331 . S
C593 O617 1.244 . S
C594 O616 1.264 . S
C594 O618 1.273 . S
Mg595 O597 1.936 . S
Mg595 O604 2.081 . S
Mg595 O606 2.023 . S
Mg595 O610 2.031 . S
Mg595 O619 2.291 . S
Mg596 O597 1.963 . S
Mg596 O607 1.942 . S
Mg596 O608 1.955 . S
Mg596 O615 1.986 . S
O597 Mg595 1.936 . S
O597 Mg596 1.963 . S
O597 Mg598 1.915 . S
Mg598 O597 1.915 . S
Mg598 O599 1.915 . S
Mg598 O603 2.013 . S
Mg598 O609 2.114 . S
Mg598 O613 2.013 . S
Mg598 O619 2.114 . S
O599 Mg598 1.915 . S
O599 Mg600 1.936 . S
O599 Mg601 1.963 1_455 S
Mg600 O599 1.936 . S
Mg600 O609 2.291 . S
Mg600 O614 2.081 1_455 S
Mg600 O616 2.023 1_455 S
Mg600 O620 2.031 . S
Mg601 O599 1.963 1_655 S
Mg601 O605 1.986 . S
Mg601 O617 1.942 . S
Mg601 O618 1.955 . S
C602 O613 1.191 . S
C602 O615 1.307 . S
O603 Mg598 2.013 . S
O603 C622 1.199 . S
O604 Mg595 2.081 . S
O604 C612 1.331 . S
O605 Mg601 1.986 . S
O605 C622 1.299 1_655 S
O606 Mg595 2.023 . S
O606 C621 1.264 . S
O607 Mg596 1.942 . S
O607 C612 1.244 . S
O608 Mg596 1.955 . S
O608 C621 1.273 . S
O609 Mg598 2.114 . S
O609 Mg600 2.291 . S
O609 C611 1.312 . S
O610 Mg595 2.031 . S
O610 C611 1.208 . S
C611 O609 1.312 . S
C611 O610 1.208 . S
C612 O604 1.331 . S
C612 O607 1.244 . S
O613 Mg598 2.013 . S
O613 C602 1.191 . S
O614 C593 1.331 . S
O614 Mg600 2.081 1_655 S
O615 Mg596 1.986 . S
O615 C602 1.307 . S
O616 C594 1.264 . S
O616 Mg600 2.023 1_655 S
O617 C593 1.244 . S
O617 Mg601 1.942 . S
O618 C594 1.273 . S
O618 Mg601 1.955 . S
O619 C592 1.312 . S
O619 Mg595 2.291 . S
O619 Mg598 2.114 . S
O620 C592 1.208 . S
O620 Mg600 2.031 . S
C621 O606 1.264 . S
C621 O608 1.273 . S
C622 O603 1.199 . S
C622 O605 1.299 1_455 S
C623 O650 1.312 . S
C623 O651 1.208 . S
C624 O645 1.331 . S
C624 O648 1.244 . S
C625 O647 1.264 . S
C625 O649 1.273 . S
Mg626 O628 1.936 . S
Mg626 O635 2.081 . S
Mg626 O637 2.023 . S
Mg626 O641 2.031 . S
Mg626 O650 2.291 . S
Mg627 O628 1.963 . S
Mg627 O638 1.942 . S
Mg627 O639 1.955 . S
Mg627 O646 1.986 . S
O628 Mg626 1.936 . S
O628 Mg627 1.963 . S
O628 Mg629 1.915 . S
Mg629 O628 1.915 . S
Mg629 O630 1.915 . S
Mg629 O634 2.013 . S
Mg629 O640 2.114 . S
Mg629 O644 2.013 . S
Mg629 O650 2.114 . S
O630 Mg629 1.915 . S
O630 Mg631 1.936 . S
O630 Mg632 1.963 . S
Mg631 O630 1.936 . S
Mg631 O640 2.291 . S
Mg631 O645 2.081 . S
Mg631 O647 2.023 . S
Mg631 O651 2.031 . S
Mg632 O630 1.963 . S
Mg632 O636 1.986 . S
Mg632 O648 1.942 . S
Mg632 O649 1.955 . S
C633 O644 1.191 . S
C633 O646 1.307 . S
O634 Mg629 2.013 . S
O634 C653 1.191 . S
O635 Mg626 2.081 . S
O635 C643 1.331 . S
O636 Mg632 1.986 . S
O636 C653 1.307 . S
O637 Mg626 2.023 . S
O637 C652 1.264 . S
O638 Mg627 1.942 . S
O638 C643 1.244 . S
O639 Mg627 1.955 . S
O639 C652 1.273 . S
O640 Mg629 2.114 . S
O640 Mg631 2.291 . S
O640 C642 1.312 . S
O641 Mg626 2.031 . S
O641 C642 1.208 . S
C642 O640 1.312 . S
C642 O641 1.208 . S
C643 O635 1.331 . S
C643 O638 1.244 . S
O644 Mg629 2.013 . S
O644 C633 1.191 . S
O645 C624 1.331 . S
O645 Mg631 2.081 . S
O646 Mg627 1.986 . S
O646 C633 1.307 . S
O647 C625 1.264 . S
O647 Mg631 2.023 . S
O648 C624 1.244 . S
O648 Mg632 1.942 . S
O649 C625 1.273 . S
O649 Mg632 1.955 . S
O650 C623 1.312 . S
O650 Mg626 2.291 . S
O650 Mg629 2.114 . S
O651 C623 1.208 . S
O651 Mg631 2.031 . S
C652 O637 1.264 . S
C652 O639 1.273 . S
C653 O634 1.191 . S
C653 O636 1.307 . S
C654 O681 1.312 . S
C654 O682 1.208 . S
C655 O676 1.331 . S
C655 O679 1.244 . S
C656 O678 1.264 . S
C656 O680 1.273 . S
Mg657 O659 1.936 . S
Mg657 O666 2.081 . S
Mg657 O668 2.023 . S
Mg657 O672 2.031 . S
Mg657 O681 2.291 . S
Mg658 O659 1.963 . S
Mg658 O669 1.942 . S
Mg658 O670 1.955 . S
Mg658 O677 1.986 . S
O659 Mg657 1.936 . S
O659 Mg658 1.963 . S
O659 Mg660 1.915 . S
Mg660 O659 1.915 . S
Mg660 O661 1.915 . S
Mg660 O665 2.013 . S
Mg660 O671 2.114 . S
Mg660 O675 2.013 . S
Mg660 O681 2.114 . S
O661 Mg660 1.915 . S
O661 Mg662 1.936 . S
O661 Mg663 1.963 . S
Mg662 O661 1.936 . S
Mg662 O671 2.291 . S
Mg662 O676 2.081 . S
Mg662 O678 2.023 . S
Mg662 O682 2.031 . S
Mg663 O661 1.963 . S
Mg663 O667 1.986 . S
Mg663 O679 1.942 . S
Mg663 O680 1.955 . S
C664 O675 1.191 . S
C664 O677 1.307 . S
O665 Mg660 2.013 . S
O665 C684 1.191 . S
O666 Mg657 2.081 . S
O666 C674 1.331 . S
O667 Mg663 1.986 . S
O667 C684 1.307 . S
O668 Mg657 2.023 . S
O668 C683 1.264 . S
O669 Mg658 1.942 . S
O669 C674 1.244 . S
O670 Mg658 1.955 . S
O670 C683 1.273 . S
O671 Mg660 2.114 . S
O671 Mg662 2.291 . S
O671 C673 1.312 . S
O672 Mg657 2.031 . S
O672 C673 1.208 . S
C673 O671 1.312 . S
C673 O672 1.208 . S
C674 O666 1.331 . S
C674 O669 1.244 . S
O675 Mg660 2.013 . S
O675 C664 1.191 . S
O676 C655 1.331 . S
O676 Mg662 2.081 . S
O677 Mg658 1.986 . S
O677 C664 1.307 . S
O678 C656 1.264 . S
O678 Mg662 2.023 . S
O679 C655 1.244 . S
O679 Mg663 1.942 . S
O680 C656 1.273 . S
O680 Mg663 1.955 . S
O681 C654 1.312 . S
O681 Mg657 2.291 . S
O681 Mg660 2.114 . S
O682 C654 1.208 . S
O682 Mg662 2.031 . S
C683 O668 1.264 . S
C683 O670 1.273 . S
C684 O665 1.191 . S
C684 O667 1.307 . S
C685 O712 1.312 . S
C685 O713 1.208 . S
C686 O707 1.331 . S
C686 O710 1.244 . S
C687 O709 1.264 . S
C687 O711 1.273 . S
Mg688 O690 1.936 . S
Mg688 O697 2.081 1_455 S
Mg688 O699 2.023 1_455 S
Mg688 O703 2.031 . S
Mg688 O712 2.291 . S
Mg689 O690 1.963 1_655 S
Mg689 O700 1.942 . S
Mg689 O701 1.955 . S
Mg689 O708 1.986 . S
O690 Mg688 1.936 . S
O690 Mg689 1.963 1_455 S
O690 Mg691 1.915 . S
Mg691 O690 1.915 . S
Mg691 O692 1.915 . S
Mg691 O696 2.013 . S
Mg691 O702 2.114 . S
Mg691 O706 2.013 . S
Mg691 O712 2.114 . S
O692 Mg691 1.915 . S
O692 Mg693 1.936 . S
O692 Mg694 1.963 . S
Mg693 O692 1.936 . S
Mg693 O702 2.291 . S
Mg693 O707 2.081 . S
Mg693 O709 2.023 . S
Mg693 O713 2.031 . S
Mg694 O692 1.963 . S
Mg694 O698 1.986 . S
Mg694 O710 1.942 . S
Mg694 O711 1.955 . S
C695 O706 1.191 1_655 S
C695 O708 1.307 . S
O696 Mg691 2.013 . S
O696 C715 1.191 . S
O697 Mg688 2.081 1_655 S
O697 C705 1.331 . S
O698 Mg694 1.986 . S
O698 C715 1.307 . S
O699 Mg688 2.023 1_655 S
O699 C714 1.264 . S
O700 Mg689 1.942 . S
O700 C705 1.244 . S
O701 Mg689 1.955 . S
O701 C714 1.273 . S
O702 Mg691 2.114 . S
O702 Mg693 2.291 . S
O702 C704 1.312 . S
O703 Mg688 2.031 . S
O703 C704 1.208 . S
C704 O702 1.312 . S
C704 O703 1.208 . S
C705 O697 1.331 . S
C705 O700 1.244 . S
O706 Mg691 2.013 . S
O706 C695 1.191 1_455 S
O707 C686 1.331 . S
O707 Mg693 2.081 . S
O708 Mg689 1.986 . S
O708 C695 1.307 . S
O709 C687 1.264 . S
O709 Mg693 2.023 . S
O710 C686 1.244 . S
O710 Mg694 1.942 . S
O711 C687 1.273 . S
O711 Mg694 1.955 . S
O712 C685 1.312 . S
O712 Mg688 2.291 . S
O712 Mg691 2.114 . S
O713 C685 1.208 . S
O713 Mg693 2.031 . S
C714 O699 1.264 . S
C714 O701 1.273 . S
C715 O696 1.191 . S
C715 O698 1.307 . S
C716 C717 1.391 . S
C716 C718 1.394 . S
C716 H732 0.931 . S
C717 C716 1.391 . S
C717 C721 1.376 . S
C718 C716 1.394 . S
C718 C719 1.369 . S
C718 C722 1.531 . S
C719 C718 1.369 . S
C719 C720 1.410 . S
C719 C727 1.503 . S
C720 C719 1.410 . S
C720 C721 1.392 . S
C720 C723 1.511 . S
C721 C717 1.376 . S
C721 C720 1.392 . S
C721 H733 0.929 . S
C722 C718 1.531 . S
C722 H734 0.960 . S
C722 H735 0.962 . S
C722 H736 0.960 . S
C723 C720 1.511 . S
C723 H737 0.961 . S
C723 H738 0.961 . S
C723 H739 0.961 . S
C724 C725 1.370 . S
C724 C726 1.363 . S
C724 H740 0.931 . S
C725 C724 1.370 . S
C725 C729 1.408 . S
C726 C724 1.363 . S
C726 C727 1.370 . S
C726 C730 1.524 . S
C727 C719 1.503 . S
C727 C726 1.370 . S
C727 C728 1.403 . S
C728 C727 1.403 . S
C728 C729 1.404 . S
C728 C731 1.539 . S
C729 C725 1.408 . S
C729 C728 1.404 . S
C729 H741 0.930 . S
C730 C726 1.524 . S
C730 H742 0.956 . S
C730 H743 0.961 . S
C730 H744 0.961 . S
C731 C728 1.539 . S
C731 H745 0.958 . S
C731 H746 0.961 . S
C731 H747 0.960 . S
H732 C716 0.931 . S
H733 C721 0.929 . S
H734 C722 0.960 . S
H735 C722 0.962 . S
H736 C722 0.960 . S
H737 C723 0.961 . S
H738 C723 0.961 . S
H739 C723 0.961 . S
H740 C724 0.931 . S
H741 C729 0.930 . S
H742 C730 0.956 . S
H743 C730 0.961 . S
H744 C730 0.961 . S
H745 C731 0.958 . S
H746 C731 0.961 . S
H747 C731 0.960 . S
C748 C749 1.391 . S
C748 C750 1.394 . S
C748 H764 0.931 . S
C749 C748 1.391 . S
C749 C753 1.376 . S
C750 C748 1.394 . S
C750 C751 1.369 . S
C750 C754 1.531 . S
C751 C750 1.369 . S
C751 C752 1.410 . S
C751 C759 1.503 1_565 S
C752 C751 1.410 . S
C752 C753 1.392 . S
C752 C755 1.511 1_565 S
C753 C749 1.376 . S
C753 C752 1.392 . S
C753 H765 0.929 . S
C754 C750 1.531 . S
C754 H766 0.960 . S
C754 H767 0.962 1_565 S
C754 H768 0.960 . S
C755 C752 1.511 1_545 S
C755 H769 0.961 . S
C755 H770 0.961 . S
C755 H771 0.961 . S
C756 C757 1.370 . S
C756 C758 1.363 . S
C756 H772 0.931 . S
C757 C756 1.370 . S
C757 C761 1.408 . S
C758 C756 1.363 . S
C758 C759 1.370 . S
C758 C762 1.524 . S
C759 C751 1.503 1_545 S
C759 C758 1.370 . S
C759 C760 1.403 . S
C760 C759 1.403 . S
C760 C761 1.404 . S
C760 C763 1.539 1_545 S
C761 C757 1.408 . S
C761 C760 1.404 . S
C761 H773 0.930 . S
C762 C758 1.524 . S
C762 H774 0.956 . S
C762 H775 0.961 . S
C762 H776 0.961 . S
C763 C760 1.539 1_565 S
C763 H777 0.958 . S
C763 H778 0.961 . S
C763 H779 0.960 . S
H764 C748 0.931 . S
H765 C753 0.929 . S
H766 C754 0.960 . S
H767 C754 0.962 1_545 S
H768 C754 0.960 . S
H769 C755 0.961 . S
H770 C755 0.961 . S
H771 C755 0.961 . S
H772 C756 0.931 . S
H773 C761 0.930 . S
H774 C762 0.956 . S
H775 C762 0.961 . S
H776 C762 0.961 . S
H777 C763 0.958 . S
H778 C763 0.961 . S
H779 C763 0.960 . S
C780 C781 1.391 . S
C780 C782 1.394 . S
C780 H796 0.931 1_556 S
C781 C780 1.391 . S
C781 C785 1.376 . S
C782 C780 1.394 . S
C782 C783 1.369 . S
C782 C786 1.531 . S
C783 C782 1.369 . S
C783 C784 1.410 . S
C783 C791 1.503 . S
C784 C783 1.410 . S
C784 C785 1.392 . S
C784 C787 1.511 . S
C785 C781 1.376 . S
C785 C784 1.392 . S
C785 H797 0.929 . S
C786 C782 1.531 . S
C786 H798 0.960 . S
C786 H799 0.962 . S
C786 H800 0.960 1_556 S
C787 C784 1.511 . S
C787 H801 0.961 . S
C787 H802 0.961 . S
C787 H803 0.961 . S
C788 C789 1.370 . S
C788 C790 1.363 . S
C788 H804 0.931 . S
C789 C788 1.370 . S
C789 C793 1.408 . S
C790 C788 1.363 . S
C790 C791 1.370 . S
C790 C794 1.524 . S
C791 C783 1.503 . S
C791 C790 1.370 . S
C791 C792 1.403 . S
C792 C791 1.403 . S
C792 C793 1.404 . S
C792 C795 1.539 . S
C793 C789 1.408 . S
C793 C792 1.404 . S
C793 H805 0.930 . S
C794 C790 1.524 . S
C794 H806 0.956 . S
C794 H807 0.961 . S
C794 H808 0.961 . S
C795 C792 1.539 . S
C795 H809 0.958 . S
C795 H810 0.961 . S
C795 H811 0.960 . S
H796 C780 0.931 1_554 S
H797 C785 0.929 . S
H798 C786 0.960 . S
H799 C786 0.962 . S
H800 C786 0.960 1_554 S
H801 C787 0.961 . S
H802 C787 0.961 . S
H803 C787 0.961 . S
H804 C788 0.931 . S
H805 C793 0.930 . S
H806 C794 0.956 . S
H807 C794 0.961 . S
H808 C794 0.961 . S
H809 C795 0.958 . S
H810 C795 0.961 . S
H811 C795 0.960 . S
C812 C813 1.391 . S
C812 C814 1.394 . S
C812 H828 0.931 . S
C813 C812 1.391 . S
C813 C817 1.376 . S
C814 C812 1.394 . S
C814 C815 1.369 . S
C814 C818 1.531 . S
C815 C814 1.369 . S
C815 C816 1.410 . S
C815 C823 1.503 . S
C816 C815 1.410 . S
C816 C817 1.392 . S
C816 C819 1.511 . S
C817 C813 1.376 . S
C817 C816 1.392 . S
C817 H829 0.929 . S
C818 C814 1.531 . S
C818 H830 0.960 . S
C818 H831 0.962 . S
C818 H832 0.960 . S
C819 C816 1.511 . S
C819 H833 0.961 . S
C819 H834 0.961 . S
C819 H835 0.961 . S
C820 C821 1.370 . S
C820 C822 1.363 . S
C820 H836 0.931 . S
C821 C820 1.370 . S
C821 C825 1.408 . S
C822 C820 1.363 . S
C822 C823 1.370 1_565 S
C822 C826 1.524 . S
C823 C815 1.503 . S
C823 C822 1.370 1_545 S
C823 C824 1.403 . S
C824 C823 1.403 . S
C824 C825 1.404 1_545 S
C824 C827 1.539 . S
C825 C821 1.408 . S
C825 C824 1.404 1_565 S
C825 H837 0.930 1_565 S
C826 C822 1.524 . S
C826 H838 0.956 . S
C826 H839 0.961 . S
C826 H840 0.961 . S
C827 C824 1.539 . S
C827 H841 0.958 . S
C827 H842 0.961 . S
C827 H843 0.960 . S
H828 C812 0.931 . S
H829 C817 0.929 . S
H830 C818 0.960 . S
H831 C818 0.962 . S
H832 C818 0.960 . S
H833 C819 0.961 . S
H834 C819 0.961 . S
H835 C819 0.961 . S
H836 C820 0.931 . S
H837 C825 0.930 1_545 S
H838 C826 0.956 . S
H839 C826 0.961 . S
H840 C826 0.961 . S
H841 C827 0.958 . S
H842 C827 0.961 . S
H843 C827 0.960 . S
C844 C845 1.391 . S
C844 C846 1.394 . S
C844 H860 0.931 . S
C845 C844 1.391 . S
C845 C849 1.376 . S
C846 C844 1.394 . S
C846 C847 1.369 . S
C846 C850 1.531 . S
C847 C846 1.369 . S
C847 C848 1.410 . S
C847 C855 1.503 . S
C848 C847 1.410 . S
C848 C849 1.392 . S
C848 C851 1.511 . S
C849 C845 1.376 . S
C849 C848 1.392 . S
C849 H861 0.929 . S
C850 C846 1.531 . S
C850 H862 0.960 . S
C850 H863 0.962 . S
C850 H864 0.960 . S
C851 C848 1.511 . S
C851 H865 0.961 . S
C851 H866 0.961 . S
C851 H867 0.961 . S
C852 C853 1.370 . S
C852 C854 1.363 . S
C852 H868 0.931 . S
C853 C852 1.370 . S
C853 C857 1.408 . S
C854 C852 1.363 . S
C854 C855 1.370 . S
C854 C858 1.524 . S
C855 C847 1.503 . S
C855 C854 1.370 . S
C855 C856 1.403 . S
C856 C855 1.403 . S
C856 C857 1.404 . S
C856 C859 1.539 . S
C857 C853 1.408 . S
C857 C856 1.404 . S
C857 H869 0.930 . S
C858 C854 1.524 . S
C858 H870 0.956 . S
C858 H871 0.961 . S
C858 H872 0.961 . S
C859 C856 1.539 . S
C859 H873 0.958 . S
C859 H874 0.961 . S
C859 H875 0.960 . S
H860 C844 0.931 . S
H861 C849 0.929 . S
H862 C850 0.960 . S
H863 C850 0.962 . S
H864 C850 0.960 . S
H865 C851 0.961 . S
H866 C851 0.961 . S
H867 C851 0.961 . S
H868 C852 0.931 . S
H869 C857 0.930 . S
H870 C858 0.956 . S
H871 C858 0.961 . S
H872 C858 0.961 . S
H873 C859 0.958 . S
H874 C859 0.961 . S
H875 C859 0.960 . S
C876 C877 1.391 . S
C876 C878 1.394 . S
C876 H892 0.931 . S
C877 C876 1.391 . S
C877 C881 1.376 . S
C878 C876 1.394 . S
C878 C879 1.369 . S
C878 C882 1.531 . S
C879 C878 1.369 . S
C879 C880 1.410 . S
C879 C887 1.503 1_565 S
C880 C879 1.410 . S
C880 C881 1.392 . S
C880 C883 1.511 . S
C881 C877 1.376 . S
C881 C880 1.392 . S
C881 H893 0.929 . S
C882 C878 1.531 . S
C882 H894 0.960 1_565 S
C882 H895 0.962 . S
C882 H896 0.960 . S
C883 C880 1.511 . S
C883 H897 0.961 . S
C883 H898 0.961 . S
C883 H899 0.961 . S
C884 C885 1.370 . S
C884 C886 1.363 . S
C884 H900 0.931 . S
C885 C884 1.370 . S
C885 C889 1.408 . S
C886 C884 1.363 . S
C886 C887 1.370 . S
C886 C890 1.524 1_545 S
C887 C879 1.503 1_545 S
C887 C886 1.370 . S
C887 C888 1.403 . S
C888 C887 1.403 . S
C888 C889 1.404 . S
C888 C891 1.539 . S
C889 C885 1.408 . S
C889 C888 1.404 . S
C889 H901 0.930 . S
C890 C886 1.524 1_565 S
C890 H902 0.956 . S
C890 H903 0.961 . S
C890 H904 0.961 . S
C891 C888 1.539 . S
C891 H905 0.958 . S
C891 H906 0.961 . S
C891 H907 0.960 . S
H892 C876 0.931 . S
H893 C881 0.929 . S
H894 C882 0.960 1_545 S
H895 C882 0.962 . S
H896 C882 0.960 . S
H897 C883 0.961 . S
H898 C883 0.961 . S
H899 C883 0.961 . S
H900 C884 0.931 . S
H901 C889 0.930 . S
H902 C890 0.956 . S
H903 C890 0.961 . S
H904 C890 0.961 . S
H905 C891 0.958 . S
H906 C891 0.961 . S
H907 C891 0.960 . S
C908 C909 1.391 . S
C908 C910 1.394 . S
C908 H924 0.931 . S
C909 C908 1.391 . S
C909 C913 1.376 . S
C910 C908 1.394 . S
C910 C911 1.369 . S
C910 C914 1.531 . S
C911 C910 1.369 . S
C911 C912 1.410 . S
C911 C919 1.503 . S
C912 C911 1.410 . S
C912 C913 1.392 . S
C912 C915 1.511 . S
C913 C909 1.376 . S
C913 C912 1.392 . S
C913 H925 0.929 . S
C914 C910 1.531 . S
C914 H926 0.960 . S
C914 H927 0.962 . S
C914 H928 0.960 1_565 S
C915 C912 1.511 . S
C915 H929 0.961 . S
C915 H930 0.961 . S
C915 H931 0.961 1_565 S
C916 C917 1.370 . S
C916 C918 1.363 . S
C916 H932 0.931 . S
C917 C916 1.370 . S
C917 C921 1.408 . S
C918 C916 1.363 . S
C918 C919 1.370 . S
C918 C922 1.524 . S
C919 C911 1.503 . S
C919 C918 1.370 . S
C919 C920 1.403 . S
C920 C919 1.403 . S
C920 C921 1.404 . S
C920 C923 1.539 1_565 S
C921 C917 1.408 . S
C921 C920 1.404 . S
C921 H933 0.930 1_565 S
C922 C918 1.524 . S
C922 H934 0.956 . S
C922 H935 0.961 . S
C922 H936 0.961 . S
C923 C920 1.539 1_545 S
C923 H937 0.958 . S
C923 H938 0.961 . S
C923 H939 0.960 . S
H924 C908 0.931 . S
H925 C913 0.929 . S
H926 C914 0.960 . S
H927 C914 0.962 . S
H928 C914 0.960 1_545 S
H929 C915 0.961 . S
H930 C915 0.961 . S
H931 C915 0.961 1_545 S
H932 C916 0.931 . S
H933 C921 0.930 1_545 S
H934 C922 0.956 . S
H935 C922 0.961 . S
H936 C922 0.961 . S
H937 C923 0.958 . S
H938 C923 0.961 . S
H939 C923 0.960 . S
C940 C941 1.391 . S
C940 C942 1.394 . S
C940 H956 0.931 . S
C941 C940 1.391 . S
C941 C945 1.376 . S
C942 C940 1.394 . S
C942 C943 1.369 . S
C942 C946 1.531 . S
C943 C942 1.369 . S
C943 C944 1.410 . S
C943 C951 1.503 . S
C944 C943 1.410 . S
C944 C945 1.392 . S
C944 C947 1.511 . S
C945 C941 1.376 . S
C945 C944 1.392 . S
C945 H957 0.929 . S
C946 C942 1.531 . S
C946 H958 0.960 1_545 S
C946 H959 0.962 . S
C946 H960 0.960 . S
C947 C944 1.511 . S
C947 H961 0.961 . S
C947 H962 0.961 . S
C947 H963 0.961 . S
C948 C949 1.370 . S
C948 C950 1.363 1_565 S
C948 H964 0.931 . S
C949 C948 1.370 . S
C949 C953 1.408 . S
C950 C948 1.363 1_545 S
C950 C951 1.370 . S
C950 C954 1.524 . S
C951 C943 1.503 . S
C951 C950 1.370 . S
C951 C952 1.403 1_545 S
C952 C951 1.403 1_565 S
C952 C953 1.404 . S
C952 C955 1.539 1_565 S
C953 C949 1.408 . S
C953 C952 1.404 . S
C953 H965 0.930 . S
C954 C950 1.524 . S
C954 H966 0.956 . S
C954 H967 0.961 . S
C954 H968 0.961 . S
C955 C952 1.539 1_545 S
C955 H969 0.958 1_545 S
C955 H970 0.961 1_545 S
C955 H971 0.960 . S
H956 C940 0.931 . S
H957 C945 0.929 . S
H958 C946 0.960 1_565 S
H959 C946 0.962 . S
H960 C946 0.960 . S
H961 C947 0.961 . S
H962 C947 0.961 . S
H963 C947 0.961 . S
H964 C948 0.931 . S
H965 C953 0.930 . S
H966 C954 0.956 . S
H967 C954 0.961 . S
H968 C954 0.961 . S
H969 C955 0.958 1_565 S
H970 C955 0.961 1_565 S
H971 C955 0.960 . S
C972 C973 1.391 . S
C972 C974 1.394 . S
C972 H988 0.931 . S
C973 C972 1.391 . S
C973 C977 1.376 . S
C974 C972 1.394 . S
C974 C975 1.369 . S
C974 C978 1.531 . S
C975 C974 1.369 . S
C975 C976 1.410 . S
C975 C983 1.503 . S
C976 C975 1.410 . S
C976 C977 1.392 . S
C976 C979 1.511 . S
C977 C973 1.376 . S
C977 C976 1.392 . S
C977 H989 0.929 . S
C978 C974 1.531 . S
C978 H990 0.960 . S
C978 H991 0.962 . S
C978 H992 0.960 . S
C979 C976 1.511 . S
C979 H993 0.961 . S
C979 H994 0.961 . S
C979 H995 0.961 . S
C980 C981 1.370 . S
C980 C982 1.363 . S
C980 H996 0.931 . S
C981 C980 1.370 . S
C981 C985 1.408 . S
C982 C980 1.363 . S
C982 C983 1.370 . S
C982 C986 1.524 . S
C983 C975 1.503 . S
C983 C982 1.370 . S
C983 C984 1.403 . S
C984 C983 1.403 . S
C984 C985 1.404 . S
C984 C987 1.539 . S
C985 C981 1.408 . S
C985 C984 1.404 . S
C985 H997 0.930 . S
C986 C982 1.524 . S
C986 H998 0.956 . S
C986 H999 0.961 . S
C986 H1000 0.961 . S
C987 C984 1.539 . S
C987 H1001 0.958 . S
C987 H1002 0.961 . S
C987 H1003 0.960 . S
H988 C972 0.931 . S
H989 C977 0.929 . S
H990 C978 0.960 . S
H991 C978 0.962 . S
H992 C978 0.960 . S
H993 C979 0.961 . S
H994 C979 0.961 . S
H995 C979 0.961 . S
H996 C980 0.931 . S
H997 C985 0.930 . S
H998 C986 0.956 . S
H999 C986 0.961 . S
H1000 C986 0.961 . S
H1001 C987 0.958 . S
H1002 C987 0.961 . S
H1003 C987 0.960 . S
C1004 C1005 1.391 1_565 S
C1004 C1006 1.394 . S
C1004 H1020 0.931 . S
C1005 C1004 1.391 1_545 S
C1005 C1009 1.376 . S
C1006 C1004 1.394 . S
C1006 C1007 1.369 . S
C1006 C1010 1.531 . S
C1007 C1006 1.369 . S
C1007 C1008 1.410 1_565 S
C1007 C1015 1.503 . S
C1008 C1007 1.410 1_545 S
C1008 C1009 1.392 . S
C1008 C1011 1.511 . S
C1009 C1005 1.376 . S
C1009 C1008 1.392 . S
C1009 H1021 0.929 . S
C1010 C1006 1.531 . S
C1010 H1022 0.960 . S
C1010 H1023 0.962 . S
C1010 H1024 0.960 . S
C1011 C1008 1.511 . S
C1011 H1025 0.961 . S
C1011 H1026 0.961 1_545 S
C1011 H1027 0.961 . S
C1012 C1013 1.370 . S
C1012 C1014 1.363 . S
C1012 H1028 0.931 . S
C1013 C1012 1.370 . S
C1013 C1017 1.408 . S
C1014 C1012 1.363 . S
C1014 C1015 1.370 . S
C1014 C1018 1.524 . S
C1015 C1007 1.503 . S
C1015 C1014 1.370 . S
C1015 C1016 1.403 . S
C1016 C1015 1.403 . S
C1016 C1017 1.404 . S
C1016 C1019 1.539 . S
C1017 C1013 1.408 . S
C1017 C1016 1.404 . S
C1017 H1029 0.930 . S
C1018 C1014 1.524 . S
C1018 H1030 0.956 . S
C1018 H1031 0.961 . S
C1018 H1032 0.961 . S
C1019 C1016 1.539 . S
C1019 H1033 0.958 . S
C1019 H1034 0.961 . S
C1019 H1035 0.960 1_565 S
H1020 C1004 0.931 . S
H1021 C1009 0.929 . S
H1022 C1010 0.960 . S
H1023 C1010 0.962 . S
H1024 C1010 0.960 . S
H1025 C1011 0.961 . S
H1026 C1011 0.961 1_565 S
H1027 C1011 0.961 . S
H1028 C1012 0.931 . S
H1029 C1017 0.930 . S
H1030 C1018 0.956 . S
H1031 C1018 0.961 . S
H1032 C1018 0.961 . S
H1033 C1019 0.958 . S
H1034 C1019 0.961 . S
H1035 C1019 0.960 1_545 S
C1036 C1037 1.391 1_545 S
C1036 C1038 1.394 1_545 S
C1036 H1052 0.931 . S
C1037 C1036 1.391 1_565 S
C1037 C1041 1.376 . S
C1038 C1036 1.394 1_565 S
C1038 C1039 1.369 . S
C1038 C1042 1.531 1_565 S
C1039 C1038 1.369 . S
C1039 C1040 1.410 . S
C1039 C1047 1.503 . S
C1040 C1039 1.410 . S
C1040 C1041 1.392 . S
C1040 C1043 1.511 . S
C1041 C1037 1.376 . S
C1041 C1040 1.392 . S
C1041 H1053 0.929 . S
C1042 C1038 1.531 1_545 S
C1042 H1054 0.960 . S
C1042 H1055 0.962 . S
C1042 H1056 0.960 . S
C1043 C1040 1.511 . S
C1043 H1057 0.961 . S
C1043 H1058 0.961 . S
C1043 H1059 0.961 . S
C1044 C1045 1.370 . S
C1044 C1046 1.363 1_455 S
C1044 H1060 0.931 . S
C1045 C1044 1.370 . S
C1045 C1049 1.408 1_455 S
C1046 C1044 1.363 1_655 S
C1046 C1047 1.370 . S
C1046 C1050 1.518 1_655 S
C1047 C1039 1.503 . S
C1047 C1046 1.370 . S
C1047 C1048 1.403 . S
C1048 C1047 1.403 . S
C1048 C1049 1.404 . S
C1048 C1051 1.539 . S
C1049 C1045 1.408 1_655 S
C1049 C1048 1.404 . S
C1049 H1061 0.930 . S
C1050 C1046 1.518 1_455 S
C1050 H1062 0.955 . S
C1050 H1063 0.947 1_455 S
C1050 H1064 0.981 . S
C1051 C1048 1.539 . S
C1051 H1065 0.958 . S
C1051 H1066 0.961 . S
C1051 H1067 0.960 . S
H1052 C1036 0.931 . S
H1053 C1041 0.929 . S
H1054 C1042 0.960 . S
H1055 C1042 0.962 . S
H1056 C1042 0.960 . S
H1057 C1043 0.961 . S
H1058 C1043 0.961 . S
H1059 C1043 0.961 . S
H1060 C1044 0.931 . S
H1061 C1049 0.930 . S
H1062 C1050 0.955 . S
H1063 C1050 0.947 1_655 S
H1064 C1050 0.981 . S
H1065 C1051 0.958 . S
H1066 C1051 0.961 . S
H1067 C1051 0.960 . S
C1068 C1069 1.391 . S
C1068 C1070 1.394 . S
C1068 H1084 0.931 1_545 S
C1069 C1068 1.391 . S
C1069 C1073 1.376 . S
C1070 C1068 1.394 . S
C1070 C1071 1.369 . S
C1070 C1074 1.531 . S
C1071 C1070 1.369 . S
C1071 C1072 1.410 . S
C1071 C1079 1.503 . S
C1072 C1071 1.410 . S
C1072 C1073 1.392 . S
C1072 C1075 1.511 . S
C1073 C1069 1.376 . S
C1073 C1072 1.392 . S
C1073 H1085 0.929 . S
C1074 C1070 1.531 . S
C1074 H1086 0.960 . S
C1074 H1087 0.962 . S
C1074 H1088 0.960 1_545 S
C1075 C1072 1.511 . S
C1075 H1089 0.961 . S
C1075 H1090 0.961 . S
C1075 H1091 0.975 . S
C1076 C1077 1.370 . S
C1076 C1078 1.363 . S
C1076 H1092 0.931 . S
C1077 C1076 1.370 . S
C1077 C1081 1.408 1_655 S
C1078 C1076 1.363 . S
C1078 C1079 1.370 . S
C1078 C1082 1.524 . S
C1079 C1071 1.503 . S
C1079 C1078 1.370 . S
C1079 C1080 1.403 1_655 S
C1080 C1079 1.403 1_455 S
C1080 C1081 1.404 . S
C1080 C1083 1.539 . S
C1081 C1077 1.408 1_455 S
C1081 C1080 1.404 . S
C1081 H1093 0.930 . S
C1082 C1078 1.524 . S
C1082 H1094 0.956 . S
C1082 H1095 0.961 . S
C1082 H1096 0.961 . S
C1083 C1080 1.539 . S
C1083 H1097 0.958 . S
C1083 H1098 0.961 . S
C1083 H1099 0.960 . S
H1084 C1068 0.931 1_565 S
H1085 C1073 0.929 . S
H1086 C1074 0.960 . S
H1087 C1074 0.962 . S
H1088 C1074 0.960 1_565 S
H1089 C1075 0.961 . S
H1090 C1075 0.961 . S
H1091 C1075 0.975 . S
H1092 C1076 0.931 . S
H1093 C1081 0.930 . S
H1094 C1082 0.956 . S
H1095 C1082 0.961 . S
H1096 C1082 0.961 . S
H1097 C1083 0.958 . S
H1098 C1083 0.961 . S
H1099 C1083 0.960 . S
C1100 C1101 1.391 . S
C1100 C1102 1.394 . S
C1100 H1116 0.931 . S
C1101 C1100 1.391 . S
C1101 C1105 1.376 . S
C1102 C1100 1.394 . S
C1102 C1103 1.369 . S
C1102 C1106 1.531 . S
C1103 C1102 1.369 . S
C1103 C1104 1.410 . S
C1103 C1111 1.503 . S
C1104 C1103 1.410 . S
C1104 C1105 1.392 . S
C1104 C1107 1.511 . S
C1105 C1101 1.376 . S
C1105 C1104 1.392 . S
C1105 H1117 0.929 . S
C1106 C1102 1.531 . S
C1106 H1118 0.960 . S
C1106 H1119 0.962 . S
C1106 H1120 0.960 . S
C1107 C1104 1.511 . S
C1107 H1121 0.961 . S
C1107 H1122 0.961 . S
C1107 H1123 0.961 . S
C1108 C1109 1.370 . S
C1108 C1110 1.363 . S
C1108 H1124 0.931 . S
C1109 C1108 1.370 . S
C1109 C1113 1.408 . S
C1110 C1108 1.363 . S
C1110 C1111 1.370 . S
C1110 C1114 1.524 . S
C1111 C1103 1.503 . S
C1111 C1110 1.370 . S
C1111 C1112 1.403 . S
C1112 C1111 1.403 . S
C1112 C1113 1.404 . S
C1112 C1115 1.539 . S
C1113 C1109 1.408 . S
C1113 C1112 1.404 . S
C1113 H1125 0.930 . S
C1114 C1110 1.524 . S
C1114 H1126 0.956 . S
C1114 H1127 0.961 . S
C1114 H1128 0.961 . S
C1115 C1112 1.539 . S
C1115 H1129 0.958 . S
C1115 H1130 0.961 . S
C1115 H1131 0.960 . S
H1116 C1100 0.931 . S
H1117 C1105 0.929 . S
H1118 C1106 0.960 . S
H1119 C1106 0.962 . S
H1120 C1106 0.960 . S
H1121 C1107 0.961 . S
H1122 C1107 0.961 . S
H1123 C1107 0.961 . S
H1124 C1108 0.931 . S
H1125 C1113 0.930 . S
H1126 C1114 0.956 . S
H1127 C1114 0.961 . S
H1128 C1114 0.961 . S
H1129 C1115 0.958 . S
H1130 C1115 0.961 . S
H1131 C1115 0.960 . S
C1132 C1133 1.391 . S
C1132 C1134 1.394 . S
C1132 H1148 0.931 . S
C1133 C1132 1.391 . S
C1133 C1137 1.376 . S
C1134 C1132 1.394 . S
C1134 C1135 1.369 . S
C1134 C1138 1.531 . S
C1135 C1134 1.369 . S
C1135 C1136 1.410 . S
C1135 C1143 1.503 . S
C1136 C1135 1.410 . S
C1136 C1137 1.392 . S
C1136 C1139 1.511 . S
C1137 C1133 1.376 . S
C1137 C1136 1.392 . S
C1137 H1149 0.929 1_565 S
C1138 C1134 1.531 . S
C1138 H1150 0.960 . S
C1138 H1151 0.962 . S
C1138 H1152 0.960 . S
C1139 C1136 1.511 . S
C1139 H1153 0.957 1_655 S
C1139 H1154 0.961 1_655 S
C1139 H1155 0.961 1_665 S
C1140 C1141 1.370 . S
C1140 C1142 1.363 . S
C1140 H1156 0.931 . S
C1141 C1140 1.370 . S
C1141 C1145 1.408 . S
C1142 C1140 1.363 . S
C1142 C1143 1.370 . S
C1142 C1146 1.524 . S
C1143 C1135 1.503 . S
C1143 C1142 1.370 . S
C1143 C1144 1.403 . S
C1144 C1143 1.403 . S
C1144 C1145 1.404 . S
C1144 C1147 1.539 1_565 S
C1145 C1141 1.408 . S
C1145 C1144 1.404 . S
C1145 H1157 0.930 . S
C1146 C1142 1.524 . S
C1146 H1158 0.956 . S
C1146 H1159 0.961 . S
C1146 H1160 0.961 . S
C1147 C1144 1.539 1_545 S
C1147 H1161 0.958 . S
C1147 H1162 0.961 . S
C1147 H1163 0.960 . S
H1148 C1132 0.931 . S
H1149 C1137 0.929 1_545 S
H1150 C1138 0.960 . S
H1151 C1138 0.962 . S
H1152 C1138 0.960 . S
H1153 C1139 0.957 1_455 S
H1154 C1139 0.961 1_455 S
H1155 C1139 0.961 1_445 S
H1156 C1140 0.931 . S
H1157 C1145 0.930 . S
H1158 C1146 0.956 . S
H1159 C1146 0.961 . S
H1160 C1146 0.961 . S
H1161 C1147 0.958 . S
H1162 C1147 0.961 . S
H1163 C1147 0.960 . S
C1164 C1165 1.391 . S
C1164 C1166 1.394 . S
C1164 H1180 0.931 . S
C1165 C1164 1.391 . S
C1165 C1169 1.376 . S
C1166 C1164 1.394 . S
C1166 C1167 1.369 . S
C1166 C1170 1.531 . S
C1167 C1166 1.369 . S
C1167 C1168 1.410 . S
C1167 C1175 1.503 . S
C1168 C1167 1.410 . S
C1168 C1169 1.392 . S
C1168 C1171 1.511 . S
C1169 C1165 1.376 . S
C1169 C1168 1.392 . S
C1169 H1181 0.929 . S
C1170 C1166 1.531 . S
C1170 H1182 0.960 . S
C1170 H1183 0.962 . S
C1170 H1184 0.960 . S
C1171 C1168 1.511 . S
C1171 H1185 0.961 . S
C1171 H1186 0.961 . S
C1171 H1187 0.961 . S
C1172 C1173 1.370 . S
C1172 C1174 1.363 . S
C1172 H1188 0.931 . S
C1173 C1172 1.370 . S
C1173 C1177 1.408 . S
C1174 C1172 1.363 . S
C1174 C1175 1.370 . S
C1174 C1178 1.524 . S
C1175 C1167 1.503 . S
C1175 C1174 1.370 . S
C1175 C1176 1.403 . S
C1176 C1175 1.403 . S
C1176 C1177 1.404 . S
C1176 C1179 1.539 . S
C1177 C1173 1.408 . S
C1177 C1176 1.404 . S
C1177 H1189 0.930 1_655 S
C1178 C1174 1.524 . S
C1178 H1190 0.956 . S
C1178 H1191 0.961 . S
C1178 H1192 0.961 . S
C1179 C1176 1.539 . S
C1179 H1193 0.958 . S
C1179 H1194 0.961 . S
C1179 H1195 0.960 . S
H1180 C1164 0.931 . S
H1181 C1169 0.929 . S
H1182 C1170 0.960 . S
H1183 C1170 0.962 . S
H1184 C1170 0.960 . S
H1185 C1171 0.961 . S
H1186 C1171 0.961 . S
H1187 C1171 0.961 . S
H1188 C1172 0.931 . S
H1189 C1177 0.930 1_455 S
H1190 C1178 0.956 . S
H1191 C1178 0.961 . S
H1192 C1178 0.961 . S
H1193 C1179 0.958 . S
H1194 C1179 0.961 . S
H1195 C1179 0.960 . S
C1196 C1197 1.391 . S
C1196 C1198 1.394 . S
C1196 H1212 0.931 . S
C1197 C1196 1.391 . S
C1197 C1201 1.376 . S
C1198 C1196 1.394 . S
C1198 C1199 1.369 . S
C1198 C1202 1.531 . S
C1199 C1198 1.369 . S
C1199 C1200 1.410 . S
C1199 C1207 1.503 . S
C1200 C1199 1.410 . S
C1200 C1201 1.392 . S
C1200 C1203 1.511 . S
C1201 C1197 1.376 . S
C1201 C1200 1.392 . S
C1201 H1213 0.929 . S
C1202 C1198 1.531 . S
C1202 H1214 0.960 . S
C1202 H1215 0.962 . S
C1202 H1216 0.960 . S
C1203 C1200 1.511 . S
C1203 H1217 0.961 . S
C1203 H1218 0.961 . S
C1203 H1219 0.961 . S
C1204 C1205 1.370 . S
C1204 C1206 1.363 . S
C1204 H1220 0.931 . S
C1205 C1204 1.370 . S
C1205 C1209 1.408 . S
C1206 C1204 1.363 . S
C1206 C1207 1.370 . S
C1206 C1210 1.524 . S
C1207 C1199 1.503 . S
C1207 C1206 1.370 . S
C1207 C1208 1.403 . S
C1208 C1207 1.403 . S
C1208 C1209 1.404 . S
C1208 C1211 1.539 . S
C1209 C1205 1.408 . S
C1209 C1208 1.404 . S
C1209 H1221 0.930 . S
C1210 C1206 1.524 . S
C1210 H1222 0.956 . S
C1210 H1223 0.961 . S
C1210 H1224 0.961 . S
C1211 C1208 1.539 . S
C1211 H1225 0.958 . S
C1211 H1226 0.961 . S
C1211 H1227 0.960 . S
H1212 C1196 0.931 . S
H1213 C1201 0.929 . S
H1214 C1202 0.960 . S
H1215 C1202 0.962 . S
H1216 C1202 0.960 . S
H1217 C1203 0.961 . S
H1218 C1203 0.961 . S
H1219 C1203 0.961 . S
H1220 C1204 0.931 . S
H1221 C1209 0.930 . S
H1222 C1210 0.956 . S
H1223 C1210 0.961 . S
H1224 C1210 0.961 . S
H1225 C1211 0.958 . S
H1226 C1211 0.961 . S
H1227 C1211 0.960 . S
C1228 C1229 1.391 . S
C1228 C1230 1.394 . S
C1228 H1244 0.931 . S
C1229 C1228 1.391 . S
C1229 C1233 1.376 . S
C1230 C1228 1.394 . S
C1230 C1231 1.369 . S
C1230 C1234 1.531 . S
C1231 C1230 1.369 . S
C1231 C1232 1.410 . S
C1231 C1239 1.503 . S
C1232 C1231 1.410 . S
C1232 C1233 1.392 . S
C1232 C1235 1.511 . S
C1233 C1229 1.376 . S
C1233 C1232 1.392 . S
C1233 H1245 0.929 . S
C1234 C1230 1.531 . S
C1234 H1246 0.960 . S
C1234 H1247 0.962 . S
C1234 H1248 0.960 . S
C1235 C1232 1.511 . S
C1235 H1249 0.961 . S
C1235 H1250 0.961 . S
C1235 H1251 0.961 . S
C1236 C1237 1.370 . S
C1236 C1238 1.363 . S
C1236 H1252 0.931 . S
C1237 C1236 1.370 . S
C1237 C1241 1.408 . S
C1238 C1236 1.363 . S
C1238 C1239 1.370 . S
C1238 C1242 1.524 . S
C1239 C1231 1.503 . S
C1239 C1238 1.370 . S
C1239 C1240 1.403 . S
C1240 C1239 1.403 . S
C1240 C1241 1.404 . S
C1240 C1243 1.539 . S
C1241 C1237 1.408 . S
C1241 C1240 1.404 . S
C1241 H1253 0.930 . S
C1242 C1238 1.524 . S
C1242 H1254 0.956 . S
C1242 H1255 0.961 . S
C1242 H1256 0.961 . S
C1243 C1240 1.539 . S
C1243 H1257 0.958 . S
C1243 H1258 0.961 . S
C1243 H1259 0.960 . S
H1244 C1228 0.931 . S
H1245 C1233 0.929 . S
H1246 C1234 0.960 . S
H1247 C1234 0.962 . S
H1248 C1234 0.960 . S
H1249 C1235 0.961 . S
H1250 C1235 0.961 . S
H1251 C1235 0.961 . S
H1252 C1236 0.931 . S
H1253 C1241 0.930 . S
H1254 C1242 0.956 . S
H1255 C1242 0.961 . S
H1256 C1242 0.961 . S
H1257 C1243 0.958 . S
H1258 C1243 0.961 . S
H1259 C1243 0.960 . S
C1260 C1261 1.391 . S
C1260 C1262 1.394 . S
C1260 H1276 0.931 1_655 S
C1261 C1260 1.391 . S
C1261 C1265 1.376 . S
C1262 C1260 1.394 . S
C1262 C1263 1.369 . S
C1262 C1266 1.531 1_655 S
C1263 C1262 1.369 . S
C1263 C1264 1.410 . S
C1263 C1271 1.503 . S
C1264 C1263 1.410 . S
C1264 C1265 1.392 . S
C1264 C1267 1.511 . S
C1265 C1261 1.376 . S
C1265 C1264 1.392 . S
C1265 H1277 0.929 . S
C1266 C1262 1.531 1_455 S
C1266 H1278 0.960 . S
C1266 H1279 0.962 . S
C1266 H1280 0.960 . S
C1267 C1264 1.511 . S
C1267 H1281 0.961 . S
C1267 H1282 0.961 . S
C1267 H1283 0.961 . S
C1268 C1269 1.370 . S
C1268 C1270 1.363 . S
C1268 H1284 0.931 . S
C1269 C1268 1.370 . S
C1269 C1273 1.408 . S
C1270 C1268 1.363 . S
C1270 C1271 1.370 . S
C1270 C1274 1.524 . S
C1271 C1263 1.503 . S
C1271 C1270 1.370 . S
C1271 C1272 1.403 . S
C1272 C1271 1.403 . S
C1272 C1273 1.404 . S
C1272 C1275 1.539 . S
C1273 C1269 1.408 . S
C1273 C1272 1.404 . S
C1273 H1285 0.930 . S
C1274 C1270 1.524 . S
C1274 H1286 0.956 . S
C1274 H1287 0.961 . S
C1274 H1288 0.961 . S
C1275 C1272 1.539 . S
C1275 H1289 0.958 . S
C1275 H1290 0.961 . S
C1275 H1291 0.960 . S
H1276 C1260 0.931 1_455 S
H1277 C1265 0.929 . S
H1278 C1266 0.960 . S
H1279 C1266 0.962 . S
H1280 C1266 0.960 . S
H1281 C1267 0.961 . S
H1282 C1267 0.961 . S
H1283 C1267 0.961 . S
H1284 C1268 0.931 . S
H1285 C1273 0.930 . S
H1286 C1274 0.956 . S
H1287 C1274 0.961 . S
H1288 C1274 0.961 . S
H1289 C1275 0.958 . S
H1290 C1275 0.961 . S
H1291 C1275 0.960 . S
C1292 C1293 1.391 . S
C1292 C1294 1.394 . S
C1292 H1308 0.931 1_655 S
C1293 C1292 1.391 . S
C1293 C1297 1.376 . S
C1294 C1292 1.394 . S
C1294 C1295 1.369 . S
C1294 C1298 1.531 . S
C1295 C1294 1.369 . S
C1295 C1296 1.410 . S
C1295 C1303 1.503 . S
C1296 C1295 1.410 . S
C1296 C1297 1.392 . S
C1296 C1299 1.511 . S
C1297 C1293 1.376 . S
C1297 C1296 1.392 . S
C1297 H1309 0.929 . S
C1298 C1294 1.531 . S
C1298 H1310 0.960 . S
C1298 H1311 0.962 . S
C1298 H1312 0.960 . S
C1299 C1296 1.511 . S
C1299 H1313 0.961 . S
C1299 H1314 0.961 . S
C1299 H1315 0.961 . S
C1300 C1301 1.370 . S
C1300 C1302 1.363 . S
C1300 H1316 0.931 . S
C1301 C1300 1.370 . S
C1301 C1305 1.408 . S
C1302 C1300 1.363 . S
C1302 C1303 1.370 . S
C1302 C1306 1.524 . S
C1303 C1295 1.503 . S
C1303 C1302 1.370 . S
C1303 C1304 1.403 . S
C1304 C1303 1.403 . S
C1304 C1305 1.404 . S
C1304 C1307 1.539 . S
C1305 C1301 1.408 . S
C1305 C1304 1.404 . S
C1305 H1317 0.930 . S
C1306 C1302 1.524 . S
C1306 H1318 0.956 . S
C1306 H1319 0.961 . S
C1306 H1320 0.961 . S
C1307 C1304 1.539 . S
C1307 H1321 0.958 . S
C1307 H1322 0.961 . S
C1307 H1323 0.960 . S
H1308 C1292 0.931 1_455 S
H1309 C1297 0.929 . S
H1310 C1298 0.960 . S
H1311 C1298 0.962 . S
H1312 C1298 0.960 . S
H1313 C1299 0.961 . S
H1314 C1299 0.961 . S
H1315 C1299 0.961 . S
H1316 C1300 0.931 . S
H1317 C1305 0.930 . S
H1318 C1306 0.956 . S
H1319 C1306 0.961 . S
H1320 C1306 0.961 . S
H1321 C1307 0.958 . S
H1322 C1307 0.961 . S
H1323 C1307 0.960 . S
C1324 C1325 1.391 . S
C1324 C1326 1.394 . S
C1324 H1340 0.931 . S
C1325 C1324 1.391 . S
C1325 C1329 1.376 . S
C1326 C1324 1.394 . S
C1326 C1327 1.369 . S
C1326 C1330 1.531 . S
C1327 C1326 1.369 . S
C1327 C1328 1.410 . S
C1327 C1335 1.503 . S
C1328 C1327 1.410 . S
C1328 C1329 1.392 . S
C1328 C1331 1.511 . S
C1329 C1325 1.376 . S
C1329 C1328 1.392 . S
C1329 H1341 0.929 . S
C1330 C1326 1.531 . S
C1330 H1342 0.960 . S
C1330 H1343 0.962 . S
C1330 H1344 0.960 . S
C1331 C1328 1.511 . S
C1331 H1345 0.961 . S
C1331 H1346 0.961 . S
C1331 H1347 0.961 . S
C1332 C1333 1.370 . S
C1332 C1334 1.363 . S
C1332 H1348 0.931 . S
C1333 C1332 1.370 . S
C1333 C1337 1.408 . S
C1334 C1332 1.363 . S
C1334 C1335 1.370 . S
C1334 C1338 1.524 . S
C1335 C1327 1.503 . S
C1335 C1334 1.370 . S
C1335 C1336 1.403 . S
C1336 C1335 1.403 . S
C1336 C1337 1.404 . S
C1336 C1339 1.539 . S
C1337 C1333 1.408 . S
C1337 C1336 1.404 . S
C1337 H1349 0.930 . S
C1338 C1334 1.524 . S
C1338 H1350 0.956 . S
C1338 H1351 0.961 . S
C1338 H1352 0.961 . S
C1339 C1336 1.539 . S
C1339 H1353 0.958 . S
C1339 H1354 0.961 . S
C1339 H1355 0.960 . S
H1340 C1324 0.931 . S
H1341 C1329 0.929 . S
H1342 C1330 0.960 . S
H1343 C1330 0.962 . S
H1344 C1330 0.960 . S
H1345 C1331 0.961 . S
H1346 C1331 0.961 . S
H1347 C1331 0.961 . S
H1348 C1332 0.931 . S
H1349 C1337 0.930 . S
H1350 C1338 0.956 . S
H1351 C1338 0.961 . S
H1352 C1338 0.961 . S
H1353 C1339 0.958 . S
H1354 C1339 0.961 . S
H1355 C1339 0.960 . S
C1356 C1357 1.391 . S
C1356 C1358 1.394 . S
C1356 H1372 0.931 . S
C1357 C1356 1.391 . S
C1357 C1361 1.376 . S
C1358 C1356 1.394 . S
C1358 C1359 1.369 . S
C1358 C1362 1.531 . S
C1359 C1358 1.369 . S
C1359 C1360 1.410 . S
C1359 C1367 1.503 . S
C1360 C1359 1.410 . S
C1360 C1361 1.392 . S
C1360 C1363 1.511 . S
C1361 C1357 1.376 . S
C1361 C1360 1.392 . S
C1361 H1373 0.929 . S
C1362 C1358 1.531 . S
C1362 H1374 0.960 . S
C1362 H1375 0.962 . S
C1362 H1376 0.960 . S
C1363 C1360 1.511 . S
C1363 H1377 0.961 . S
C1363 H1378 0.961 . S
C1363 H1379 0.961 . S
C1364 C1365 1.370 . S
C1364 C1366 1.363 . S
C1364 H1380 0.931 . S
C1365 C1364 1.370 . S
C1365 C1369 1.408 . S
C1366 C1364 1.363 . S
C1366 C1367 1.370 . S
C1366 C1370 1.524 . S
C1367 C1359 1.503 . S
C1367 C1366 1.370 . S
C1367 C1368 1.403 . S
C1368 C1367 1.403 . S
C1368 C1369 1.404 . S
C1368 C1371 1.539 . S
C1369 C1365 1.408 . S
C1369 C1368 1.404 . S
C1369 H1381 0.930 . S
C1370 C1366 1.524 . S
C1370 H1382 0.956 . S
C1370 H1383 0.961 . S
C1370 H1384 0.961 . S
C1371 C1368 1.539 . S
C1371 H1385 0.958 . S
C1371 H1386 0.961 . S
C1371 H1387 0.960 . S
H1372 C1356 0.931 . S
H1373 C1361 0.929 . S
H1374 C1362 0.960 . S
H1375 C1362 0.962 . S
H1376 C1362 0.960 . S
H1377 C1363 0.961 . S
H1378 C1363 0.961 . S
H1379 C1363 0.961 . S
H1380 C1364 0.931 . S
H1381 C1369 0.930 . S
H1382 C1370 0.956 . S
H1383 C1370 0.961 . S
H1384 C1370 0.961 . S
H1385 C1371 0.958 . S
H1386 C1371 0.961 . S
H1387 C1371 0.960 . S
C1388 C1389 1.391 . S
C1388 C1390 1.394 . S
C1388 H1404 0.931 . S
C1389 C1388 1.391 . S
C1389 C1393 1.376 . S
C1390 C1388 1.394 . S
C1390 C1391 1.369 . S
C1390 C1394 1.531 . S
C1391 C1390 1.369 . S
C1391 C1392 1.410 . S
C1391 C1399 1.503 . S
C1392 C1391 1.410 . S
C1392 C1393 1.392 . S
C1392 C1395 1.511 . S
C1393 C1389 1.376 . S
C1393 C1392 1.392 . S
C1393 H1405 0.929 . S
C1394 C1390 1.531 . S
C1394 H1406 0.960 . S
C1394 H1407 0.962 . S
C1394 H1408 0.960 . S
C1395 C1392 1.511 . S
C1395 H1409 0.961 . S
C1395 H1410 0.961 . S
C1395 H1411 0.961 . S
C1396 C1397 1.370 . S
C1396 C1398 1.363 . S
C1396 H1412 0.931 . S
C1397 C1396 1.370 . S
C1397 C1401 1.408 . S
C1398 C1396 1.363 . S
C1398 C1399 1.370 . S
C1398 C1402 1.524 . S
C1399 C1391 1.503 . S
C1399 C1398 1.370 . S
C1399 C1400 1.403 . S
C1400 C1399 1.403 . S
C1400 C1401 1.404 . S
C1400 C1403 1.539 . S
C1401 C1397 1.408 . S
C1401 C1400 1.404 . S
C1401 H1413 0.930 . S
C1402 C1398 1.524 . S
C1402 H1414 0.956 . S
C1402 H1415 0.961 . S
C1402 H1416 0.961 . S
C1403 C1400 1.539 . S
C1403 H1417 0.958 . S
C1403 H1418 0.961 . S
C1403 H1419 0.960 . S
H1404 C1388 0.931 . S
H1405 C1393 0.929 . S
H1406 C1394 0.960 . S
H1407 C1394 0.962 . S
H1408 C1394 0.960 . S
H1409 C1395 0.961 . S
H1410 C1395 0.961 . S
H1411 C1395 0.961 . S
H1412 C1396 0.931 . S
H1413 C1401 0.930 . S
H1414 C1402 0.956 . S
H1415 C1402 0.961 . S
H1416 C1402 0.961 . S
H1417 C1403 0.958 . S
H1418 C1403 0.961 . S
H1419 C1403 0.960 . S
C1420 C1421 1.391 . S
C1420 C1422 1.394 . S
C1420 H1436 0.931 . S
C1421 C1420 1.391 . S
C1421 C1425 1.376 . S
C1422 C1420 1.394 . S
C1422 C1423 1.369 . S
C1422 C1426 1.531 . S
C1423 C1422 1.369 . S
C1423 C1424 1.410 . S
C1423 C1431 1.503 . S
C1424 C1423 1.410 . S
C1424 C1425 1.392 . S
C1424 C1427 1.511 . S
C1425 C1421 1.376 . S
C1425 C1424 1.392 . S
C1425 H1437 0.929 . S
C1426 C1422 1.531 . S
C1426 H1438 0.960 . S
C1426 H1439 0.962 . S
C1426 H1440 0.960 . S
C1427 C1424 1.511 . S
C1427 H1441 0.961 . S
C1427 H1442 0.961 . S
C1427 H1443 0.961 . S
C1428 C1429 1.370 . S
C1428 C1430 1.363 . S
C1428 H1444 0.931 . S
C1429 C1428 1.370 . S
C1429 C1433 1.408 . S
C1430 C1428 1.363 . S
C1430 C1431 1.370 . S
C1430 C1434 1.524 . S
C1431 C1423 1.503 . S
C1431 C1430 1.370 . S
C1431 C1432 1.403 . S
C1432 C1431 1.403 . S
C1432 C1433 1.404 . S
C1432 C1435 1.539 . S
C1433 C1429 1.408 . S
C1433 C1432 1.404 . S
C1433 H1445 0.930 . S
C1434 C1430 1.524 . S
C1434 H1446 0.956 . S
C1434 H1447 0.961 . S
C1434 H1448 0.961 . S
C1435 C1432 1.539 . S
C1435 H1449 0.958 . S
C1435 H1450 0.961 . S
C1435 H1451 0.960 . S
H1436 C1420 0.931 . S
H1437 C1425 0.929 . S
H1438 C1426 0.960 . S
H1439 C1426 0.962 . S
H1440 C1426 0.960 . S
H1441 C1427 0.961 . S
H1442 C1427 0.961 . S
H1443 C1427 0.961 . S
H1444 C1428 0.931 . S
H1445 C1433 0.930 . S
H1446 C1434 0.956 . S
H1447 C1434 0.961 . S
H1448 C1434 0.961 . S
H1449 C1435 0.958 . S
H1450 C1435 0.961 . S
H1451 C1435 0.960 . S
C1452 C1453 1.391 . S
C1452 C1454 1.394 . S
C1452 H1468 0.931 1_655 S
C1453 C1452 1.391 . S
C1453 C1457 1.376 . S
C1454 C1452 1.394 . S
C1454 C1455 1.369 . S
C1454 C1458 1.531 1_655 S
C1455 C1454 1.369 . S
C1455 C1456 1.410 . S
C1455 C1463 1.503 . S
C1456 C1455 1.410 . S
C1456 C1457 1.392 . S
C1456 C1459 1.511 . S
C1457 C1453 1.376 . S
C1457 C1456 1.392 . S
C1457 H1469 0.929 . S
C1458 C1454 1.531 1_455 S
C1458 H1470 0.960 . S
C1458 H1471 0.962 . S
C1458 H1472 0.960 . S
C1459 C1456 1.511 . S
C1459 H1473 0.961 . S
C1459 H1474 0.961 . S
C1459 H1475 0.961 . S
C1460 C1461 1.370 . S
C1460 C1462 1.363 . S
C1460 H1476 0.931 . S
C1461 C1460 1.370 . S
C1461 C1465 1.408 . S
C1462 C1460 1.363 . S
C1462 C1463 1.370 . S
C1462 C1466 1.524 . S
C1463 C1455 1.503 . S
C1463 C1462 1.370 . S
C1463 C1464 1.403 . S
C1464 C1463 1.403 . S
C1464 C1465 1.404 . S
C1464 C1467 1.539 . S
C1465 C1461 1.408 . S
C1465 C1464 1.404 . S
C1465 H1477 0.930 . S
C1466 C1462 1.524 . S
C1466 H1478 0.956 . S
C1466 H1479 0.961 . S
C1466 H1480 0.961 . S
C1467 C1464 1.539 . S
C1467 H1481 0.958 1_655 S
C1467 H1482 0.961 . S
C1467 H1483 0.960 . S
H1468 C1452 0.931 1_455 S
H1469 C1457 0.929 . S
H1470 C1458 0.960 . S
H1471 C1458 0.962 . S
H1472 C1458 0.960 . S
H1473 C1459 0.961 . S
H1474 C1459 0.961 . S
H1475 C1459 0.961 . S
H1476 C1460 0.931 . S
H1477 C1465 0.930 . S
H1478 C1466 0.956 . S
H1479 C1466 0.961 . S
H1480 C1466 0.961 . S
H1481 C1467 0.958 1_455 S
H1482 C1467 0.961 . S
H1483 C1467 0.960 . S
C1484 C1485 1.391 . S
C1484 C1486 1.394 . S
C1484 H1500 0.931 . S
C1485 C1484 1.391 . S
C1485 C1489 1.376 . S
C1486 C1484 1.394 . S
C1486 C1487 1.369 . S
C1486 C1490 1.531 . S
C1487 C1486 1.369 . S
C1487 C1488 1.410 . S
C1487 C1495 1.503 . S
C1488 C1487 1.410 . S
C1488 C1489 1.392 . S
C1488 C1491 1.511 . S
C1489 C1485 1.376 . S
C1489 C1488 1.392 . S
C1489 H1501 0.929 . S
C1490 C1486 1.531 . S
C1490 H1502 0.960 . S
C1490 H1503 0.962 . S
C1490 H1504 0.960 . S
C1491 C1488 1.511 . S
C1491 H1505 0.961 . S
C1491 H1506 0.961 . S
C1491 H1507 0.961 . S
C1492 C1493 1.370 . S
C1492 C1494 1.363 . S
C1492 H1508 0.931 . S
C1493 C1492 1.370 . S
C1493 C1497 1.408 . S
C1494 C1492 1.363 . S
C1494 C1495 1.370 . S
C1494 C1498 1.524 . S
C1495 C1487 1.503 . S
C1495 C1494 1.370 . S
C1495 C1496 1.403 . S
C1496 C1495 1.403 . S
C1496 C1497 1.404 . S
C1496 C1499 1.539 . S
C1497 C1493 1.408 . S
C1497 C1496 1.404 . S
C1497 H1509 0.930 . S
C1498 C1494 1.524 . S
C1498 H1510 0.956 . S
C1498 H1511 0.961 . S
C1498 H1512 0.961 . S
C1499 C1496 1.539 . S
C1499 H1513 0.958 . S
C1499 H1514 0.961 . S
C1499 H1515 0.960 . S
H1500 C1484 0.931 . S
H1501 C1489 0.929 . S
H1502 C1490 0.960 . S
H1503 C1490 0.962 . S
H1504 C1490 0.960 . S
H1505 C1491 0.961 . S
H1506 C1491 0.961 . S
H1507 C1491 0.961 . S
H1508 C1492 0.931 . S
H1509 C1497 0.930 . S
H1510 C1498 0.956 . S
H1511 C1498 0.961 . S
H1512 C1498 0.961 . S
H1513 C1499 0.958 . S
H1514 C1499 0.961 . S
H1515 C1499 0.960 . S
C1516 C1517 1.391 . S
C1516 C1518 1.394 . S
C1516 H1532 0.931 . S
C1517 C1516 1.391 . S
C1517 C1521 1.376 . S
C1518 C1516 1.394 . S
C1518 C1519 1.369 . S
C1518 C1522 1.531 . S
C1519 C1518 1.369 . S
C1519 C1520 1.410 . S
C1519 C1527 1.503 . S
C1520 C1519 1.410 . S
C1520 C1521 1.392 . S
C1520 C1523 1.511 . S
C1521 C1517 1.376 . S
C1521 C1520 1.392 . S
C1521 H1533 0.929 . S
C1522 C1518 1.531 . S
C1522 H1534 0.960 . S
C1522 H1535 0.962 . S
C1522 H1536 0.960 . S
C1523 C1520 1.511 . S
C1523 H1537 0.961 . S
C1523 H1538 0.961 . S
C1523 H1539 0.961 . S
C1524 C1525 1.370 . S
C1524 C1526 1.363 . S
C1524 H1540 0.931 . S
C1525 C1524 1.370 . S
C1525 C1529 1.408 . S
C1526 C1524 1.363 . S
C1526 C1527 1.370 . S
C1526 C1530 1.524 . S
C1527 C1519 1.503 . S
C1527 C1526 1.370 . S
C1527 C1528 1.403 . S
C1528 C1527 1.403 . S
C1528 C1529 1.404 . S
C1528 C1531 1.539 . S
C1529 C1525 1.408 . S
C1529 C1528 1.404 . S
C1529 H1541 0.930 . S
C1530 C1526 1.524 . S
C1530 H1542 0.956 . S
C1530 H1543 0.961 . S
C1530 H1544 0.961 . S
C1531 C1528 1.539 . S
C1531 H1545 0.958 . S
C1531 H1546 0.961 . S
C1531 H1547 0.960 . S
H1532 C1516 0.931 . S
H1533 C1521 0.929 . S
H1534 C1522 0.960 . S
H1535 C1522 0.962 . S
H1536 C1522 0.960 . S
H1537 C1523 0.961 . S
H1538 C1523 0.961 . S
H1539 C1523 0.961 . S
H1540 C1524 0.931 . S
H1541 C1529 0.930 . S
H1542 C1530 0.956 . S
H1543 C1530 0.961 . S
H1544 C1530 0.961 . S
H1545 C1531 0.958 . S
H1546 C1531 0.961 . S
H1547 C1531 0.960 . S
C1548 C1549 1.391 . S
C1548 C1550 1.394 . S
C1548 H1564 0.931 . S
C1549 C1548 1.391 . S
C1549 C1553 1.376 . S
C1550 C1548 1.394 . S
C1550 C1551 1.369 . S
C1550 C1554 1.531 . S
C1551 C1550 1.369 . S
C1551 C1552 1.410 . S
C1551 C1559 1.503 . S
C1552 C1551 1.410 . S
C1552 C1553 1.392 . S
C1552 C1555 1.511 . S
C1553 C1549 1.376 . S
C1553 C1552 1.392 . S
C1553 H1565 0.929 . S
C1554 C1550 1.531 . S
C1554 H1566 0.960 . S
C1554 H1567 0.962 . S
C1554 H1568 0.960 . S
C1555 C1552 1.511 . S
C1555 H1569 0.961 . S
C1555 H1570 0.961 . S
C1555 H1571 0.961 . S
C1556 C1557 1.370 . S
C1556 C1558 1.363 . S
C1556 H1572 0.931 . S
C1557 C1556 1.370 . S
C1557 C1561 1.408 . S
C1558 C1556 1.363 . S
C1558 C1559 1.370 . S
C1558 C1562 1.524 . S
C1559 C1551 1.503 . S
C1559 C1558 1.370 . S
C1559 C1560 1.403 . S
C1560 C1559 1.403 . S
C1560 C1561 1.404 . S
C1560 C1563 1.539 . S
C1561 C1557 1.408 . S
C1561 C1560 1.404 . S
C1561 H1573 0.930 . S
C1562 C1558 1.524 . S
C1562 H1574 0.956 . S
C1562 H1575 0.961 . S
C1562 H1576 0.961 . S
C1563 C1560 1.539 . S
C1563 H1577 0.958 . S
C1563 H1578 0.961 . S
C1563 H1579 0.960 . S
H1564 C1548 0.931 . S
H1565 C1553 0.929 . S
H1566 C1554 0.960 . S
H1567 C1554 0.962 . S
H1568 C1554 0.960 . S
H1569 C1555 0.961 . S
H1570 C1555 0.961 . S
H1571 C1555 0.961 . S
H1572 C1556 0.931 . S
H1573 C1561 0.930 . S
H1574 C1562 0.956 . S
H1575 C1562 0.961 . S
H1576 C1562 0.961 . S
H1577 C1563 0.958 . S
H1578 C1563 0.961 . S
H1579 C1563 0.960 . S
C1580 C1581 1.391 . S
C1580 C1582 1.394 . S
C1580 H1596 0.931 . S
C1581 C1580 1.391 . S
C1581 C1585 1.376 . S
C1582 C1580 1.394 . S
C1582 C1583 1.369 . S
C1582 C1586 1.531 . S
C1583 C1582 1.369 . S
C1583 C1584 1.410 . S
C1583 C1591 1.503 . S
C1584 C1583 1.410 . S
C1584 C1585 1.392 . S
C1584 C1587 1.511 . S
C1585 C1581 1.376 . S
C1585 C1584 1.392 . S
C1585 H1597 0.929 . S
C1586 C1582 1.531 . S
C1586 H1598 0.960 . S
C1586 H1599 0.962 . S
C1586 H1600 0.960 . S
C1587 C1584 1.511 . S
C1587 H1601 0.961 . S
C1587 H1602 0.961 . S
C1587 H1603 0.961 . S
C1588 C1589 1.370 . S
C1588 C1590 1.363 . S
C1588 H1604 0.931 . S
C1589 C1588 1.370 . S
C1589 C1593 1.408 . S
C1590 C1588 1.363 . S
C1590 C1591 1.370 . S
C1590 C1594 1.524 . S
C1591 C1583 1.503 . S
C1591 C1590 1.370 . S
C1591 C1592 1.403 . S
C1592 C1591 1.403 . S
C1592 C1593 1.404 . S
C1592 C1595 1.539 . S
C1593 C1589 1.408 . S
C1593 C1592 1.404 . S
C1593 H1605 0.930 . S
C1594 C1590 1.524 . S
C1594 H1606 0.956 . S
C1594 H1607 0.961 . S
C1594 H1608 0.961 . S
C1595 C1592 1.539 . S
C1595 H1609 0.958 . S
C1595 H1610 0.961 . S
C1595 H1611 0.960 . S
H1596 C1580 0.931 . S
H1597 C1585 0.929 . S
H1598 C1586 0.960 . S
H1599 C1586 0.962 . S
H1600 C1586 0.960 . S
H1601 C1587 0.961 . S
H1602 C1587 0.961 . S
H1603 C1587 0.961 . S
H1604 C1588 0.931 . S
H1605 C1593 0.930 . S
H1606 C1594 0.956 . S
H1607 C1594 0.961 . S
H1608 C1594 0.961 . S
H1609 C1595 0.958 . S
H1610 C1595 0.961 . S
H1611 C1595 0.960 . S
C1612 C1613 1.391 . S
C1612 C1614 1.394 . S
C1612 H1628 0.931 . S
C1613 C1612 1.391 . S
C1613 C1617 1.381 . S
C1614 C1612 1.394 . S
C1614 C1615 1.369 . S
C1614 C1618 1.531 . S
C1615 C1614 1.369 . S
C1615 C1616 1.410 . S
C1615 C1623 1.503 . S
C1616 C1615 1.410 . S
C1616 C1617 1.410 . S
C1616 C1619 1.511 . S
C1617 C1613 1.381 . S
C1617 C1616 1.410 . S
C1617 H1629 0.906 1_556 S
C1618 C1614 1.531 . S
C1618 H1630 0.960 . S
C1618 H1631 0.962 . S
C1618 H1632 0.960 . S
C1619 C1616 1.511 . S
C1619 H1633 0.980 . S
C1619 H1634 0.961 . S
C1619 H1635 0.961 . S
C1620 C1621 1.370 . S
C1620 C1622 1.363 . S
C1620 H1636 0.931 . S
C1621 C1620 1.370 . S
C1621 C1625 1.408 . S
C1622 C1620 1.363 . S
C1622 C1623 1.370 . S
C1622 C1626 1.524 . S
C1623 C1615 1.503 . S
C1623 C1622 1.370 . S
C1623 C1624 1.403 . S
C1624 C1623 1.403 . S
C1624 C1625 1.404 . S
C1624 C1627 1.539 . S
C1625 C1621 1.408 . S
C1625 C1624 1.404 . S
C1625 H1637 0.930 . S
C1626 C1622 1.524 . S
C1626 H1638 0.956 . S
C1626 H1639 0.961 . S
C1626 H1640 0.961 . S
C1627 C1624 1.539 . S
C1627 H1641 0.958 . S
C1627 H1642 0.961 . S
C1627 H1643 0.960 . S
H1628 C1612 0.931 . S
H1629 C1617 0.906 1_554 S
H1630 C1618 0.960 . S
H1631 C1618 0.962 . S
H1632 C1618 0.960 . S
H1633 C1619 0.980 . S
H1634 C1619 0.961 . S
H1635 C1619 0.961 . S
H1636 C1620 0.931 . S
H1637 C1625 0.930 . S
H1638 C1626 0.956 . S
H1639 C1626 0.961 . S
H1640 C1626 0.961 . S
H1641 C1627 0.958 . S
H1642 C1627 0.961 . S
H1643 C1627 0.960 . S
C1644 C1645 1.391 . S
C1644 C1646 1.394 . S
C1644 H1660 0.931 . S
C1645 C1644 1.391 . S
C1645 C1649 1.376 . S
C1646 C1644 1.394 . S
C1646 C1647 1.369 . S
C1646 C1650 1.531 . S
C1647 C1646 1.369 . S
C1647 C1648 1.410 . S
C1647 C1655 1.503 . S
C1648 C1647 1.410 . S
C1648 C1649 1.392 . S
C1648 C1651 1.511 . S
C1649 C1645 1.376 . S
C1649 C1648 1.392 . S
C1649 H1661 0.929 . S
C1650 C1646 1.531 . S
C1650 H1662 0.960 . S
C1650 H1663 0.962 . S
C1650 H1664 0.960 . S
C1651 C1648 1.511 . S
C1651 H1665 0.961 . S
C1651 H1666 0.961 . S
C1651 H1667 0.961 . S
C1652 C1653 1.370 . S
C1652 C1654 1.363 . S
C1652 H1668 0.931 . S
C1653 C1652 1.370 . S
C1653 C1657 1.408 . S
C1654 C1652 1.363 . S
C1654 C1655 1.370 . S
C1654 C1658 1.524 . S
C1655 C1647 1.503 . S
C1655 C1654 1.370 . S
C1655 C1656 1.403 . S
C1656 C1655 1.403 . S
C1656 C1657 1.404 . S
C1656 C1659 1.539 . S
C1657 C1653 1.408 . S
C1657 C1656 1.404 . S
C1657 H1669 0.930 . S
C1658 C1654 1.524 . S
C1658 H1670 0.956 . S
C1658 H1671 0.961 . S
C1658 H1672 0.961 . S
C1659 C1656 1.539 . S
C1659 H1673 0.958 . S
C1659 H1674 0.961 . S
C1659 H1675 0.960 . S
H1660 C1644 0.931 . S
H1661 C1649 0.929 . S
H1662 C1650 0.960 . S
H1663 C1650 0.962 . S
H1664 C1650 0.960 . S
H1665 C1651 0.961 . S
H1666 C1651 0.961 . S
H1667 C1651 0.961 . S
H1668 C1652 0.931 . S
H1669 C1657 0.930 . S
H1670 C1658 0.956 . S
H1671 C1658 0.961 . S
H1672 C1658 0.961 . S
H1673 C1659 0.958 . S
H1674 C1659 0.961 . S
H1675 C1659 0.960 . S
C1676 C1677 1.391 . S
C1676 C1678 1.394 . S
C1676 H1692 0.931 . S
C1677 C1676 1.391 . S
C1677 C1681 1.376 . S
C1678 C1676 1.394 . S
C1678 C1679 1.369 . S
C1678 C1682 1.531 . S
C1679 C1678 1.369 . S
C1679 C1680 1.410 . S
C1679 C1687 1.503 . S
C1680 C1679 1.410 . S
C1680 C1681 1.392 . S
C1680 C1683 1.511 . S
C1681 C1677 1.376 . S
C1681 C1680 1.392 . S
C1681 H1693 0.929 . S
C1682 C1678 1.531 . S
C1682 H1694 0.960 . S
C1682 H1695 0.962 . S
C1682 H1696 0.960 . S
C1683 C1680 1.511 . S
C1683 H1697 0.961 . S
C1683 H1698 0.961 . S
C1683 H1699 0.961 . S
C1684 C1685 1.370 . S
C1684 C1686 1.363 . S
C1684 H1700 0.931 . S
C1685 C1684 1.370 . S
C1685 C1689 1.408 . S
C1686 C1684 1.363 . S
C1686 C1687 1.370 . S
C1686 C1690 1.524 . S
C1687 C1679 1.503 . S
C1687 C1686 1.370 . S
C1687 C1688 1.403 . S
C1688 C1687 1.403 . S
C1688 C1689 1.404 . S
C1688 C1691 1.539 . S
C1689 C1685 1.408 . S
C1689 C1688 1.404 . S
C1689 H1701 0.930 . S
C1690 C1686 1.524 . S
C1690 H1702 0.956 . S
C1690 H1703 0.961 . S
C1690 H1704 0.961 . S
C1691 C1688 1.539 . S
C1691 H1705 0.958 . S
C1691 H1706 0.961 . S
C1691 H1707 0.960 . S
H1692 C1676 0.931 . S
H1693 C1681 0.929 . S
H1694 C1682 0.960 . S
H1695 C1682 0.962 . S
H1696 C1682 0.960 . S
H1697 C1683 0.961 . S
H1698 C1683 0.961 . S
H1699 C1683 0.961 . S
H1700 C1684 0.931 . S
H1701 C1689 0.930 . S
H1702 C1690 0.956 . S
H1703 C1690 0.961 . S
H1704 C1690 0.961 . S
H1705 C1691 0.958 . S
H1706 C1691 0.961 . S
H1707 C1691 0.960 . S
C1708 C1709 1.391 . S
C1708 C1710 1.394 . S
C1708 H1724 0.931 . S
C1709 C1708 1.391 . S
C1709 C1713 1.376 . S
C1710 C1708 1.394 . S
C1710 C1711 1.369 . S
C1710 C1714 1.531 . S
C1711 C1710 1.369 . S
C1711 C1712 1.410 . S
C1711 C1719 1.503 . S
C1712 C1711 1.410 . S
C1712 C1713 1.392 . S
C1712 C1715 1.511 . S
C1713 C1709 1.376 . S
C1713 C1712 1.392 . S
C1713 H1725 0.929 . S
C1714 C1710 1.531 . S
C1714 H1726 0.960 . S
C1714 H1727 0.962 . S
C1714 H1728 0.960 . S
C1715 C1712 1.511 . S
C1715 H1729 0.961 . S
C1715 H1730 0.961 . S
C1715 H1731 0.961 . S
C1716 C1717 1.370 . S
C1716 C1718 1.363 . S
C1716 H1732 0.931 . S
C1717 C1716 1.370 . S
C1717 C1721 1.408 . S
C1718 C1716 1.363 . S
C1718 C1719 1.370 . S
C1718 C1722 1.524 . S
C1719 C1711 1.503 . S
C1719 C1718 1.370 . S
C1719 C1720 1.403 . S
C1720 C1719 1.403 . S
C1720 C1721 1.404 . S
C1720 C1723 1.539 . S
C1721 C1717 1.408 . S
C1721 C1720 1.404 . S
C1721 H1733 0.930 . S
C1722 C1718 1.524 . S
C1722 H1734 0.956 . S
C1722 H1735 0.961 . S
C1722 H1736 0.961 . S
C1723 C1720 1.539 . S
C1723 H1737 0.958 . S
C1723 H1738 0.961 . S
C1723 H1739 0.960 . S
H1724 C1708 0.931 . S
H1725 C1713 0.929 . S
H1726 C1714 0.960 . S
H1727 C1714 0.962 . S
H1728 C1714 0.960 . S
H1729 C1715 0.961 . S
H1730 C1715 0.961 . S
H1731 C1715 0.961 . S
H1732 C1716 0.931 . S
H1733 C1721 0.930 . S
H1734 C1722 0.956 . S
H1735 C1722 0.961 . S
H1736 C1722 0.961 . S
H1737 C1723 0.958 . S
H1738 C1723 0.961 . S
H1739 C1723 0.960 . S
C725 C652 2.241 . S
C717 C69 2.292 . S
C749 C125 1.034 . S
C757 C655 1.028 . S
C781 C217 2.188 1_556 S
C789 C686 2.154 . S
C821 C621 1.800 . S
C813 C261 1.700 . S
C853 C656 2.109 . S
C845 C39 2.030 . S
C885 C687 2.264 . S
C877 C137 2.169 . S
C917 C612 2.022 . S
C909 C187 1.922 1_565 S
C949 C643 2.381 . S
C941 C291 2.409 . S
C973 C51 0.539 . S
C981 C673 0.548 . S
C1005 C365 1.803 . S
C1013 C642 1.678 . S
C1037 C199 0.462 . S
C1045 C602 0.482 . S
C1077 C695 1.477 . S
C1069 C439 1.468 1_545 S
C1109 C623 1.274 . S
C1101 C63 1.406 . S
C1133 C335 1.232 1_565 S
C1141 C622 1.381 1_655 S
C1165 C211 1.197 . S
C1173 C715 1.298 1_655 S
C1205 C654 1.665 . S
C1197 C409 1.604 . S
C1229 C495 1.109 . S
C1237 C714 1.101 . S
C1261 C347 1.219 . S
C1269 C593 1.211 . S
C1293 C587 2.159 1_655 S
C1301 C624 2.165 . S
C1325 C421 1.070 . S
C1333 C683 1.062 . S
C1365 C594 2.238 . S
C1357 C507 2.119 . S
C1389 C359 1.906 . S
C1397 C625 2.010 . S
C1421 C557 1.924 . S
C1429 C674 2.018 . S
C1461 C705 2.175 . S
C1453 C433 2.100 . S
C1485 C513 1.641 . S
C1493 C611 1.535 . S
C1517 C143 1.601 . S
C1525 C704 1.515 . S
C1549 C569 0.433 . S
C1557 C664 0.505 . S
C1589 C633 1.111 . S
C1581 C285 1.078 . S
C1621 C685 1.525 . S
C1613 C483 1.417 1_556 S
C1653 C684 1.631 . S
C1645 C113 1.558 . S
C1685 C653 1.248 . S
C1677 C581 1.235 . S
C1717 C592 0.708 . S
C1709 C273 0.747 . S
