# Generated by pormake.
# Topology ctn, (3,4)-cn, num edge types: 1
# Building blocks:
#     Node 0, Type 0, BuildingBlock: ESEHIV_clean_linker_0, # of connection points: 3
#     Node 1, Type 0, BuildingBlock: ESEHIV_clean_linker_0, # of connection points: 3
#     Node 2, Type 0, BuildingBlock: ESEHIV_clean_linker_0, # of connection points: 3
#     Node 3, Type 0, BuildingBlock: ESEHIV_clean_linker_0, # of connection points: 3
#     Node 4, Type 0, BuildingBlock: ESEHIV_clean_linker_0, # of connection points: 3
#     Node 5, Type 0, BuildingBlock: ESEHIV_clean_linker_0, # of connection points: 3
#     Node 6, Type 0, BuildingBlock: ESEHIV_clean_linker_0, # of connection points: 3
#     Node 7, Type 0, BuildingBlock: ESEHIV_clean_linker_0, # of connection points: 3
#     Node 8, Type 0, BuildingBlock: ESEHIV_clean_linker_0, # of connection points: 3
#     Node 9, Type 0, BuildingBlock: ESEHIV_clean_linker_0, # of connection points: 3
#     Node 10, Type 0, BuildingBlock: ESEHIV_clean_linker_0, # of connection points: 3
#     Node 11, Type 0, BuildingBlock: ESEHIV_clean_linker_0, # of connection points: 3
#     Node 12, Type 0, BuildingBlock: ESEHIV_clean_linker_0, # of connection points: 3
#     Node 13, Type 0, BuildingBlock: ESEHIV_clean_linker_0, # of connection points: 3
#     Node 14, Type 0, BuildingBlock: ESEHIV_clean_linker_0, # of connection points: 3
#     Node 15, Type 0, BuildingBlock: ESEHIV_clean_linker_0, # of connection points: 3
#     Node 16, Type 1, BuildingBlock: UXUYUI_clean_sbu_0, # of connection points: 4
#     Node 17, Type 1, BuildingBlock: UXUYUI_clean_sbu_0, # of connection points: 4
#     Node 18, Type 1, BuildingBlock: UXUYUI_clean_sbu_0, # of connection points: 4
#     Node 19, Type 1, BuildingBlock: UXUYUI_clean_sbu_0, # of connection points: 4
#     Node 20, Type 1, BuildingBlock: UXUYUI_clean_sbu_0, # of connection points: 4
#     Node 21, Type 1, BuildingBlock: UXUYUI_clean_sbu_0, # of connection points: 4
#     Node 22, Type 1, BuildingBlock: UXUYUI_clean_sbu_0, # of connection points: 4
#     Node 23, Type 1, BuildingBlock: UXUYUI_clean_sbu_0, # of connection points: 4
#     Node 24, Type 1, BuildingBlock: UXUYUI_clean_sbu_0, # of connection points: 4
#     Node 25, Type 1, BuildingBlock: UXUYUI_clean_sbu_0, # of connection points: 4
#     Node 26, Type 1, BuildingBlock: UXUYUI_clean_sbu_0, # of connection points: 4
#     Node 27, Type 1, BuildingBlock: UXUYUI_clean_sbu_0, # of connection points: 4
#     Edge 28, Type (0, 1), BuildingBlock: CIFDUS_clean_linker_0, # of connection points: 2
#     Edge 29, Type (0, 1), BuildingBlock: CIFDUS_clean_linker_0, # of connection points: 2
#     Edge 30, Type (0, 1), BuildingBlock: CIFDUS_clean_linker_0, # of connection points: 2
#     Edge 31, Type (0, 1), BuildingBlock: CIFDUS_clean_linker_0, # of connection points: 2
#     Edge 32, Type (0, 1), BuildingBlock: CIFDUS_clean_linker_0, # of connection points: 2
#     Edge 33, Type (0, 1), BuildingBlock: CIFDUS_clean_linker_0, # of connection points: 2
#     Edge 34, Type (0, 1), BuildingBlock: CIFDUS_clean_linker_0, # of connection points: 2
#     Edge 35, Type (0, 1), BuildingBlock: CIFDUS_clean_linker_0, # of connection points: 2
#     Edge 36, Type (0, 1), BuildingBlock: CIFDUS_clean_linker_0, # of connection points: 2
#     Edge 37, Type (0, 1), BuildingBlock: CIFDUS_clean_linker_0, # of connection points: 2
#     Edge 38, Type (0, 1), BuildingBlock: CIFDUS_clean_linker_0, # of connection points: 2
#     Edge 39, Type (0, 1), BuildingBlock: CIFDUS_clean_linker_0, # of connection points: 2
#     Edge 40, Type (0, 1), BuildingBlock: CIFDUS_clean_linker_0, # of connection points: 2
#     Edge 41, Type (0, 1), BuildingBlock: CIFDUS_clean_linker_0, # of connection points: 2
#     Edge 42, Type (0, 1), BuildingBlock: CIFDUS_clean_linker_0, # of connection points: 2
#     Edge 43, Type (0, 1), BuildingBlock: CIFDUS_clean_linker_0, # of connection points: 2
#     Edge 44, Type (0, 1), BuildingBlock: CIFDUS_clean_linker_0, # of connection points: 2
#     Edge 45, Type (0, 1), BuildingBlock: CIFDUS_clean_linker_0, # of connection points: 2
#     Edge 46, Type (0, 1), BuildingBlock: CIFDUS_clean_linker_0, # of connection points: 2
#     Edge 47, Type (0, 1), BuildingBlock: CIFDUS_clean_linker_0, # of connection points: 2
#     Edge 48, Type (0, 1), BuildingBlock: CIFDUS_clean_linker_0, # of connection points: 2
#     Edge 49, Type (0, 1), BuildingBlock: CIFDUS_clean_linker_0, # of connection points: 2
#     Edge 50, Type (0, 1), BuildingBlock: CIFDUS_clean_linker_0, # of connection points: 2
#     Edge 51, Type (0, 1), BuildingBlock: CIFDUS_clean_linker_0, # of connection points: 2
#     Edge 52, Type (0, 1), BuildingBlock: CIFDUS_clean_linker_0, # of connection points: 2
#     Edge 53, Type (0, 1), BuildingBlock: CIFDUS_clean_linker_0, # of connection points: 2
#     Edge 54, Type (0, 1), BuildingBlock: CIFDUS_clean_linker_0, # of connection points: 2
#     Edge 55, Type (0, 1), BuildingBlock: CIFDUS_clean_linker_0, # of connection points: 2
#     Edge 56, Type (0, 1), BuildingBlock: CIFDUS_clean_linker_0, # of connection points: 2
#     Edge 57, Type (0, 1), BuildingBlock: CIFDUS_clean_linker_0, # of connection points: 2
#     Edge 58, Type (0, 1), BuildingBlock: CIFDUS_clean_linker_0, # of connection points: 2
#     Edge 59, Type (0, 1), BuildingBlock: CIFDUS_clean_linker_0, # of connection points: 2
#     Edge 60, Type (0, 1), BuildingBlock: CIFDUS_clean_linker_0, # of connection points: 2
#     Edge 61, Type (0, 1), BuildingBlock: CIFDUS_clean_linker_0, # of connection points: 2
#     Edge 62, Type (0, 1), BuildingBlock: CIFDUS_clean_linker_0, # of connection points: 2
#     Edge 63, Type (0, 1), BuildingBlock: CIFDUS_clean_linker_0, # of connection points: 2
#     Edge 64, Type (0, 1), BuildingBlock: CIFDUS_clean_linker_0, # of connection points: 2
#     Edge 65, Type (0, 1), BuildingBlock: CIFDUS_clean_linker_0, # of connection points: 2
#     Edge 66, Type (0, 1), BuildingBlock: CIFDUS_clean_linker_0, # of connection points: 2
#     Edge 67, Type (0, 1), BuildingBlock: CIFDUS_clean_linker_0, # of connection points: 2
#     Edge 68, Type (0, 1), BuildingBlock: CIFDUS_clean_linker_0, # of connection points: 2
#     Edge 69, Type (0, 1), BuildingBlock: CIFDUS_clean_linker_0, # of connection points: 2
#     Edge 70, Type (0, 1), BuildingBlock: CIFDUS_clean_linker_0, # of connection points: 2
#     Edge 71, Type (0, 1), BuildingBlock: CIFDUS_clean_linker_0, # of connection points: 2
#     Edge 72, Type (0, 1), BuildingBlock: CIFDUS_clean_linker_0, # of connection points: 2
#     Edge 73, Type (0, 1), BuildingBlock: CIFDUS_clean_linker_0, # of connection points: 2
#     Edge 74, Type (0, 1), BuildingBlock: CIFDUS_clean_linker_0, # of connection points: 2
#     Edge 75, Type (0, 1), BuildingBlock: CIFDUS_clean_linker_0, # of connection points: 2
# Relax obj value: 0.000
# Max RMSD: 0.006
# Mean RMSD: 0.004
data_MOF--net-ctn--node1-UXUYUI_clean_sbu_0--node2-ESEHIV_clean_linker_0--edge1-CIFDUS_clean_linker_0
_symmetry_space_group_name_H-M    P1
_symmetry_Int_Tables_number       1
_symmetry_cell_setting            triclinic
loop_
_symmetry_equiv_pos_as_xyz
'x, y, z'
_cell_length_a     57.823212
_cell_length_b     57.626065
_cell_length_c     57.619101
_cell_angle_alpha  89.908918
_cell_angle_beta   90.143846
_cell_angle_gamma 90.068241
loop_
_atom_site_label
_atom_site_type_symbol
_atom_site_fract_x
_atom_site_fract_y
_atom_site_fract_z
_atom_type_partial_charge
H0 H 0.01405 0.07236 0.05945 0.0
H1 H 0.05756 0.01609 0.08143 0.0
H2 H 0.07326 0.05313 0.01857 0.0
C3 C 0.02878 0.06116 0.05646 0.0
C4 C 0.04278 0.06472 0.03681 0.0
C5 C 0.03412 0.04381 0.07277 0.0
C6 C 0.05369 0.02988 0.06923 0.0
C7 C 0.06798 0.03313 0.0498 0.0
C8 C 0.06235 0.05055 0.03361 0.0
H9 H 0.29118 0.70207 0.26226 0.0
H10 H 0.31593 0.76123 0.22415 0.0
H11 H 0.25554 0.72444 0.20055 0.0
C12 C 0.28957 0.71389 0.2477 0.0
C13 C 0.27143 0.71093 0.23167 0.0
C14 C 0.30573 0.73193 0.24509 0.0
C15 C 0.30351 0.74729 0.22625 0.0
C16 C 0.28537 0.74482 0.21012 0.0
C17 C 0.26948 0.72653 0.21296 0.0
H18 H 0.97151 0.5115 0.06479 0.0
H19 H 0.01104 0.45237 0.04313 0.0
H20 H 0.95051 0.47252 1.00454 0.0
C21 C 0.97413 0.49719 0.0529 0.0
C22 C 0.9586 0.49381 0.03436 0.0
C23 C 0.99318 0.48243 0.05607 0.0
C24 C 0.99657 0.46405 0.04052 0.0
C25 C 0.98123 0.46023 0.02197 0.0
C26 C 0.96212 0.47506 0.01911 0.0
H27 H 0.69491 0.75962 0.22139 0.0
H28 H 0.75356 0.79854 0.19728 0.0
H29 H 0.72009 0.81757 0.26109 0.0
C30 C 0.70693 0.77391 0.22356 0.0
C31 C 0.7052 0.78832 0.24315 0.0
C32 C 0.72448 0.77732 0.20708 0.0
C33 C 0.74041 0.79548 0.2103 0.0
C34 C 0.73896 0.81021 0.22969 0.0
C35 C 0.72132 0.80639 0.24605 0.0
H36 H 0.01662 0.93603 0.46152 0.0
H37 H 0.05272 0.99695 0.4381 0.0
H38 H 0.07551 0.96151 0.49974 0.0
C39 C 0.03033 0.94866 0.46384 0.0
C40 C 0.04569 0.94652 0.4827 0.0
C41 C 0.03262 0.96691 0.44779 0.0
C42 C 0.05067 0.983 0.45059 0.0
C43 C 0.06626 0.98108 0.46921 0.0
C44 C 0.06353 0.96296 0.48532 0.0
H45 H 0.19702 0.75835 0.79116 0.0
H46 H 0.25269 0.71607 0.81725 0.0
H47 H 0.21447 0.69463 0.75682 0.0
C48 C 0.20774 0.74299 0.78993 0.0
C49 C 0.20371 0.727 0.77199 0.0
C50 C 0.22542 0.73927 0.80634 0.0
C51 C 0.23907 0.71914 0.80466 0.0
C52 C 0.23518 0.70287 0.7869 0.0
C53 C 0.21754 0.70705 0.7706 0.0
H54 H 0.9555 0.53879 0.51331 0.0
H55 H 0.01349 0.56266 0.47337 0.0
H56 H 0.97669 0.50137 0.45229 0.0
C57 C 0.96677 0.53693 0.49844 0.0
C58 C 0.96363 0.51819 0.48306 0.0
C59 C 0.98492 0.55287 0.49521 0.0
C60 C 0.99991 0.55001 0.47629 0.0
C61 C 0.99719 0.53144 0.46076 0.0
C62 C 0.97895 0.51568 0.46425 0.0
H63 H 0.7578 0.80334 0.82216 0.0
H64 H 0.79564 0.82326 0.76107 0.0
H65 H 0.81334 0.76045 0.79694 0.0
C66 C 0.77135 0.79997 0.80967 0.0
C67 C 0.78488 0.77973 0.81172 0.0
C68 C 0.77529 0.81594 0.79159 0.0
C69 C 0.79265 0.81124 0.77525 0.0
C70 C 0.80639 0.79129 0.77706 0.0
C71 C 0.80254 0.77574 0.79542 0.0
H72 H 0.25958 0.29942 0.32284 0.0
H73 H 0.29228 0.31857 0.25858 0.0
H74 H 0.31906 0.26179 0.29894 0.0
C75 C 0.27273 0.29653 0.3098 0.0
C76 C 0.28904 0.27876 0.31316 0.0
C77 C 0.27372 0.31106 0.29019 0.0
C78 C 0.29138 0.30756 0.27381 0.0
C79 C 0.308 0.29002 0.27695 0.0
C80 C 0.30667 0.27571 0.29669 0.0
H81 H 0.45547 1.00246 0.56939 0.0
H82 H 0.49647 0.94327 0.55049 0.0
H83 H 0.44049 0.96531 0.50643 0.0
C84 C 0.45897 0.98823 0.55763 0.0
C85 C 0.44576 0.98585 0.53726 0.0
C86 C 0.47721 0.9729 0.56261 0.0
C87 C 0.48233 0.95505 0.54683 0.0
C88 C 0.46932 0.95234 0.52635 0.0
C89 C 0.45102 0.96775 0.52182 0.0
H90 H 0.19584 0.26502 0.72152 0.0
H91 H 0.25341 0.30352 0.69414 0.0
H92 H 0.21774 0.32818 0.75467 0.0
C93 C 0.20741 0.2798 0.72237 0.0
C94 C 0.20487 0.29609 0.74034 0.0
C95 C 0.22471 0.28243 0.70545 0.0
C96 C 0.23964 0.30167 0.70674 0.0
C97 C 0.2374 0.31818 0.72453 0.0
C98 C 0.21997 0.31521 0.74126 0.0
H99 H 0.79562 0.19515 0.76379 0.0
H100 H 0.82372 0.24902 0.72051 0.0
H101 H 0.76229 0.21241 0.69922 0.0
C102 C 0.79467 0.20576 0.74827 0.0
C103 C 0.7768 0.20193 0.73216 0.0
C104 C 0.81182 0.22252 0.7441 0.0
C105 C 0.81084 0.23568 0.72358 0.0
C106 C 0.79297 0.23229 0.70733 0.0
C107 C 0.77604 0.21528 0.71172 0.0
H108 H 0.52157 0.57095 0.55454 0.0
H109 H 0.55668 0.50798 0.57368 0.0
H110 H 0.57702 0.5449 0.51219 0.0
C111 C 0.53446 0.55782 0.5509 0.0
C112 C 0.54897 0.56028 0.53146 0.0
C113 C 0.53725 0.53907 0.56631 0.0
C114 C 0.55444 0.52246 0.56186 0.0
C115 C 0.56894 0.5245 0.54245 0.0
C116 C 0.5661 0.54346 0.52738 0.0
H117 H 0.51118 0.44896 0.97139 0.0
H118 H 0.5516 0.50545 0.94418 0.0
H119 H 0.57328 0.47055 1.00657 0.0
C120 C 0.52607 0.46035 0.97257 0.0
C121 C 0.54174 0.45774 0.99109 0.0
C122 C 0.52949 0.47748 0.95553 0.0
C123 C 0.54899 0.49199 0.95707 0.0
C124 C 0.56475 0.48977 0.97556 0.0
C125 C 0.5609 0.4727 0.99257 0.0
H126 H 0.69661 0.26104 0.29722 0.0
H127 H 0.7526 0.21681 0.31884 0.0
H128 H 0.71167 0.19905 0.25896 0.0
C129 C 0.70725 0.24581 0.2946 0.0
C130 C 0.702 0.23065 0.27627 0.0
C131 C 0.72557 0.24111 0.31002 0.0
C132 C 0.73856 0.22068 0.30698 0.0
C133 C 0.73348 0.20516 0.28881 0.0
C134 C 0.71527 0.21046 0.27347 0.0
H135 H 0.43564 0.05174 0.99837 0.0
H136 H 0.49516 0.07758 0.96175 0.0
H137 H 0.45803 0.01855 0.93549 0.0
C138 C 0.44777 0.05043 0.98413 0.0
C139 C 0.44468 0.03306 0.96727 0.0
C140 C 0.46588 0.06666 0.9823 0.0
C141 C 0.48093 0.06541 0.9632 0.0
C142 C 0.47822 0.04808 0.94629 0.0
C143 C 0.46014 0.03194 0.94852 0.0
Li144 Li 0.27753 0.89522 1.00359 0.0
Li145 Li 0.25771 0.8665 0.02822 0.0
Li146 Li 0.25302 0.86588 0.98448 0.0
Li147 Li 0.23397 0.89582 0.00834 0.0
C148 C 0.30387 0.85578 0.99911 0.0
N149 N 0.34963 0.84578 0.98974 0.0
C150 C 0.31849 0.84795 0.01681 0.0
C151 C 0.31243 0.85815 0.97658 0.0
C152 C 0.3416 0.84308 0.01175 0.0
C153 C 0.33564 0.85311 0.97221 0.0
C154 C 0.2604 0.90519 0.0552 0.0
C155 C 0.24291 0.90776 0.09307 0.0
N156 N 0.2638 0.91355 0.1023 0.0
C157 C 0.28164 0.91144 0.06501 0.0
C158 C 0.24082 0.90357 0.06928 0.0
C159 C 0.28303 0.91549 0.08888 0.0
C160 C 0.30307 0.93329 0.98648 0.0
N161 N 0.30437 0.91441 1.0006 0.0
C162 C 0.34318 0.92421 0.01124 0.0
C163 C 0.32385 0.90975 0.013 0.0
C164 C 0.3424 0.94382 0.99671 0.0
C165 C 0.32197 0.94824 0.9842 0.0
H166 H 0.2872 0.93695 0.97722 0.0
H167 H 0.32431 0.89499 0.02456 0.0
C168 C 0.24539 0.82948 0.05792 0.0
N169 N 0.26067 0.8472 0.05515 0.0
C170 C 0.24744 0.8143 0.07674 0.0
C171 C 0.281 0.83578 0.08956 0.0
C172 C 0.27832 0.85053 0.07045 0.0
C173 C 0.26551 0.81725 0.09283 0.0
H174 H 0.23177 0.82689 0.04532 0.0
H175 H 0.29065 0.86431 0.06756 0.0
C176 C 0.25111 0.90493 0.95664 0.0
N177 N 0.24744 0.91438 0.90973 0.0
C178 C 0.22992 0.91177 0.94715 0.0
C179 C 0.27052 0.9033 0.94234 0.0
C180 C 0.22839 0.91637 0.92337 0.0
C181 C 0.2683 0.90804 0.91866 0.0
C182 C 0.20624 0.85732 0.01214 0.0
C183 C 0.19273 0.84962 0.99353 0.0
C184 C 0.19606 0.86055 0.03386 0.0
C185 C 0.16912 0.8457 0.99687 0.0
C186 C 0.17239 0.85647 0.0365 0.0
N187 N 0.15952 0.84922 0.0181 0.0
C188 C 0.26357 0.82647 0.95764 0.0
C189 C 0.23416 0.84992 0.94121 0.0
C190 C 0.26169 0.81066 0.93937 0.0
N191 N 0.25 0.84571 0.95819 0.0
C192 C 0.23169 0.83456 0.9226 0.0
C193 C 0.24551 0.81454 0.92154 0.0
H194 H 0.27572 0.82322 0.97155 0.0
H195 H 0.22301 0.86487 0.94236 0.0
C196 C 0.21004 0.93506 0.0247 0.0
N197 N 0.20776 0.91598 0.01103 0.0
C198 C 0.19172 0.95065 0.02714 0.0
C199 C 0.16904 0.92689 1.00113 0.0
C200 C 0.18783 0.91181 0.99914 0.0
C201 C 0.17079 0.94666 0.01531 0.0
H202 H 0.22621 0.93832 0.03357 0.0
H203 H 0.18656 0.89689 0.9879 0.0
O204 O 0.28123 0.86079 1.00379 0.0
O205 O 0.25875 0.90099 0.03189 0.0
O206 O 0.2529 0.90031 0.97988 0.0
O207 O 0.22937 0.86137 0.00915 0.0
H208 H 0.31211 0.84577 0.0343 0.0
H209 H 0.30124 0.86364 0.96259 0.0
H210 H 0.35314 0.83716 0.02532 0.0
H211 H 0.3425 0.85496 0.95485 0.0
H212 H 0.22791 0.90647 0.10418 0.0
H213 H 0.29692 0.91299 0.05436 0.0
H214 H 0.22417 0.89928 0.06191 0.0
H215 H 0.29939 0.92017 0.09673 0.0
H216 H 0.35858 0.92003 0.02111 0.0
H217 H 0.32039 0.96338 0.97316 0.0
H218 H 0.23498 0.80038 0.07864 0.0
H219 H 0.29543 0.83848 0.10126 0.0
H220 H 0.21477 0.91335 0.95796 0.0
H221 H 0.28718 0.89863 0.94947 0.0
H222 H 0.21205 0.9215 0.91577 0.0
H223 H 0.28317 0.90675 0.90739 0.0
H224 H 0.20035 0.84681 0.97667 0.0
H225 H 0.20633 0.86602 0.04855 0.0
H226 H 0.15843 0.83988 0.98259 0.0
H227 H 0.16428 0.859 0.0532 0.0
H228 H 0.27283 0.79557 0.93922 0.0
H229 H 0.21866 0.83803 0.90953 0.0
H230 H 0.19408 0.96586 0.0379 0.0
H231 H 0.15324 0.92299 0.99178 0.0
Li232 Li 0.11759 0.51078 0.27832 0.0
Li233 Li 0.14704 0.48799 0.25806 0.0
Li234 Li 0.1473 0.5308 0.25481 0.0
Li235 Li 0.11795 0.50779 0.23542 0.0
C236 C 0.15773 0.52502 0.30161 0.0
N237 N 0.17026 0.55317 0.33832 0.0
C238 C 0.17695 0.51944 0.31525 0.0
C239 C 0.14487 0.5449 0.30663 0.0
C240 C 0.18301 0.5339 0.33374 0.0
C241 C 0.15149 0.55892 0.32526 0.0
C242 C 0.11 0.4599 0.26258 0.0
C243 C 0.10637 0.42072 0.24836 0.0
N244 N 0.10446 0.41293 0.27057 0.0
C245 C 0.10771 0.45154 0.28524 0.0
C246 C 0.10908 0.44442 0.24396 0.0
C247 C 0.10504 0.42773 0.28893 0.0
C248 C 0.07625 0.52062 0.30153 0.0
N249 N 0.09801 0.51239 0.30481 0.0
C250 C 0.09058 0.50632 0.34518 0.0
C251 C 0.10539 0.50523 0.32607 0.0
C252 C 0.06796 0.5149 0.34238 0.0
C253 C 0.06091 0.52215 0.32014 0.0
H254 H 0.07079 0.52594 0.28438 0.0
H255 H 0.12271 0.49847 0.32814 0.0
C256 C 0.18193 0.45659 0.24365 0.0
N257 N 0.1668 0.46151 0.26098 0.0
C258 C 0.19742 0.43815 0.24589 0.0
C259 C 0.1816 0.43012 0.28383 0.0
C260 C 0.16654 0.44887 0.28094 0.0
C261 C 0.19744 0.42467 0.26622 0.0
H262 H 0.18236 0.46725 0.22825 0.0
H263 H 0.15497 0.45366 0.29483 0.0
C264 C 0.10622 0.55447 0.24157 0.0
N265 N 0.0918 0.59134 0.21445 0.0
C266 C 0.11931 0.5615 0.22247 0.0
C267 C 0.08583 0.56627 0.24695 0.0
C268 C 0.11173 0.58015 0.20895 0.0
C269 C 0.07881 0.58485 0.23301 0.0
C270 C 0.15509 0.50352 0.20701 0.0
C271 C 0.16487 0.52064 0.19288 0.0
C272 C 0.14845 0.48232 0.19729 0.0
C273 C 0.1675 0.51638 0.16917 0.0
C274 C 0.15134 0.47873 0.17351 0.0
N275 N 0.16071 0.4957 0.16005 0.0
C276 C 0.18897 0.55336 0.2448 0.0
C277 C 0.16052 0.57849 0.26026 0.0
C278 C 0.20465 0.5717 0.24293 0.0
N279 N 0.16737 0.55707 0.25322 0.0
C280 C 0.1757 0.59734 0.2588 0.0
C281 C 0.19813 0.5941 0.24999 0.0
H282 H 0.19395 0.53611 0.2394 0.0
H283 H 0.14327 0.58095 0.26705 0.0
C284 C 0.07816 0.49254 0.21215 0.0
N285 N 0.09752 0.50562 0.20921 0.0
C286 C 0.06214 0.49013 0.19413 0.0
C287 C 0.08615 0.51483 0.17031 0.0
C288 C 0.10163 0.51687 0.18884 0.0
C289 C 0.06608 0.50131 0.17282 0.0
H290 H 0.07512 0.48398 0.22858 0.0
H291 H 0.11686 0.52751 0.1869 0.0
O292 O 0.1517 0.51105 0.2834 0.0
O293 O 0.11278 0.48316 0.25864 0.0
O294 O 0.11332 0.53624 0.25506 0.0
O295 O 0.15218 0.50744 0.23025 0.0
H296 H 0.18708 0.50409 0.31156 0.0
H297 H 0.12993 0.5495 0.29628 0.0
H298 H 0.19785 0.5298 0.34445 0.0
H299 H 0.1417 0.57436 0.32933 0.0
H300 H 0.10572 0.40853 0.23412 0.0
H301 H 0.10828 0.46327 0.29985 0.0
H302 H 0.11027 0.45062 0.22629 0.0
H303 H 0.10346 0.421 0.3064 0.0
H304 H 0.09668 0.50017 0.36186 0.0
H305 H 0.0438 0.52916 0.31715 0.0
H306 H 0.20934 0.43453 0.23189 0.0
H307 H 0.18134 0.42044 0.29996 0.0
H308 H 0.13514 0.55264 0.2181 0.0
H309 H 0.07553 0.56118 0.26176 0.0
H310 H 0.1217 0.58572 0.19408 0.0
H311 H 0.06305 0.59411 0.23697 0.0
H312 H 0.17028 0.5371 0.20009 0.0
H313 H 0.14114 0.46881 0.20802 0.0
H314 H 0.17492 0.52952 0.15801 0.0
H315 H 0.14616 0.46244 0.16576 0.0
H316 H 0.2216 0.56838 0.23573 0.0
H317 H 0.17 0.61419 0.26478 0.0
H318 H 0.04698 0.4794 0.19676 0.0
H319 H 0.08969 0.52402 0.15429 0.0
Li320 Li 0.73762 0.62093 0.00788 0.0
Li321 Li 0.75907 0.64885 0.03196 0.0
Li322 Li 0.76152 0.65107 0.98906 0.0
Li323 Li 0.78054 0.61997 0.01029 0.0
C324 C 0.71542 0.66271 0.99626 0.0
N325 N 0.67877 0.67813 0.96957 0.0
C326 C 0.70307 0.68242 1.00288 0.0
C327 C 0.70914 0.65081 0.97607 0.0
C328 C 0.68458 0.68995 0.98915 0.0
C329 C 0.69056 0.65889 0.96281 0.0
C330 C 0.7548 0.60942 0.05799 0.0
C331 C 0.77087 0.60199 0.09596 0.0
N332 N 0.74913 0.5995 0.10458 0.0
C333 C 0.73264 0.60646 0.06716 0.0
C334 C 0.77409 0.60689 0.07243 0.0
C335 C 0.73012 0.60159 0.09078 0.0
C336 C 0.71165 0.58161 0.99491 0.0
N337 N 0.7103 0.60244 1.00582 0.0
C338 C 0.67024 0.59627 0.01404 0.0
C339 C 0.69016 0.61 0.01529 0.0
C340 C 0.67107 0.57467 1.00278 0.0
C341 C 0.69212 0.56742 0.99306 0.0
H342 H 0.72796 0.57593 0.9878 0.0
H343 H 0.6896 0.62664 0.02394 0.0
C344 C 0.77427 0.6826 0.06462 0.0
N345 N 0.75715 0.66719 0.05962 0.0
C346 C 0.77293 0.69653 0.0844 0.0
C347 C 0.73613 0.67887 0.09338 0.0
C348 C 0.73811 0.6654 0.07332 0.0
C349 C 0.75371 0.69473 0.0992 0.0
H350 H 0.78881 0.68443 0.05306 0.0
H351 H 0.72432 0.65365 0.06856 0.0
C352 C 0.77337 0.61122 0.96309 0.0
N353 N 0.79969 0.59907 0.92504 0.0
C354 C 0.79286 0.62425 0.95716 0.0
C355 C 0.76719 0.59205 0.9496 0.0
C356 C 0.80597 0.61783 0.93789 0.0
C357 C 0.78073 0.58617 0.93044 0.0
C358 C 0.80967 0.65688 0.01682 0.0
C359 C 0.82416 0.6671 1.0003 0.0
C360 C 0.81889 0.64957 0.03804 0.0
C361 C 0.84773 0.66947 1.00518 0.0
C362 C 0.84254 0.65223 0.04226 0.0
N363 N 0.85636 0.66202 0.02586 0.0
C364 C 0.77289 0.69341 0.96758 0.0
C365 C 0.75458 0.66665 0.94234 0.0
C366 C 0.77468 0.7097 0.94969 0.0
N367 N 0.76311 0.67234 0.9636 0.0
C368 C 0.75581 0.68249 0.92398 0.0
C369 C 0.76606 0.70438 0.92746 0.0
H370 H 0.77945 0.69751 0.98469 0.0
H371 H 0.74678 0.6498 0.93963 0.0
C372 C 0.80295 0.57864 0.02312 0.0
N373 N 0.80628 0.59884 0.01134 0.0
C374 C 0.82078 0.56241 0.02508 0.0
C375 C 0.84517 0.58781 1.00244 0.0
C376 C 0.82682 0.6035 1.00082 0.0
C377 C 0.84232 0.56695 0.01479 0.0
H378 H 0.7864 0.57517 0.03112 0.0
H379 H 0.82907 0.61939 0.99116 0.0
O380 O 0.73361 0.65522 0.0095 0.0
O381 O 0.75759 0.61427 0.03491 0.0
O382 O 0.76026 0.61722 0.98189 0.0
O383 O 0.78658 0.65416 0.01226 0.0
H384 H 0.70775 0.69181 0.01847 0.0
H385 H 0.71851 0.63553 0.97066 0.0
H386 H 0.67487 0.70519 0.99406 0.0
H387 H 0.68552 0.64987 0.94714 0.0
H388 H 0.78565 0.60008 0.10734 0.0
H389 H 0.71753 0.60817 0.05623 0.0
H390 H 0.79139 0.60848 0.06554 0.0
H391 H 0.71306 0.59947 0.09814 0.0
H392 H 0.65432 0.60257 0.02161 0.0
H393 H 0.69357 0.55077 0.9845 0.0
H394 H 0.78663 0.70891 0.08776 0.0
H395 H 0.72101 0.67677 0.10423 0.0
H396 H 0.79782 0.63917 0.96731 0.0
H397 H 0.75207 0.58183 0.95383 0.0
H398 H 0.82113 0.62777 0.93315 0.0
H399 H 0.77616 0.57136 0.91986 0.0
H400 H 0.81735 0.67303 0.98384 0.0
H401 H 0.80787 0.642 0.05112 0.0
H402 H 0.85916 0.67722 0.99251 0.0
H403 H 0.8499 0.64654 0.05858 0.0
H404 H 0.78304 0.72614 0.9532 0.0
H405 H 0.74858 0.67769 0.90731 0.0
H406 H 0.81785 0.54665 0.03491 0.0
H407 H 0.86134 0.59186 0.9939 0.0
Li408 Li 0.86583 0.03184 0.26305 0.0
Li409 Li 0.89526 1.00696 0.28108 0.0
Li410 Li 0.89296 0.01215 0.23813 0.0
Li411 Li 0.86385 0.98913 0.25791 0.0
C412 C 0.90445 0.05829 0.26632 0.0
N413 N 0.91268 0.10485 0.27439 0.0
C414 C 0.9101 0.06598 0.28862 0.0
C415 C 0.90345 0.07424 0.24804 0.0
C416 C 0.91408 0.0896 0.29238 0.0
C417 C 0.90753 0.09771 0.25249 0.0
C418 C 0.85556 0.99306 0.30522 0.0
C419 C 0.86161 0.95792 0.32719 0.0
N420 N 0.84353 0.96362 0.34111 0.0
C421 C 0.83705 0.99858 0.31974 0.0
C422 C 0.86796 0.97258 0.30896 0.0
C423 C 0.83124 0.98347 0.33779 0.0
C424 C 0.83193 0.06602 0.25212 0.0
N425 N 0.84797 0.05933 0.26806 0.0
C426 C 0.83897 0.09201 0.29194 0.0
C427 C 0.85135 0.0716 0.28793 0.0
C428 C 0.82254 0.09954 0.27561 0.0
C429 C 0.81895 0.08616 0.25556 0.0
H430 H 0.82907 0.05568 0.23677 0.0
H431 H 0.8636 0.06548 0.30073 0.0
C432 C 0.93584 0.99263 0.3046 0.0
N433 N 0.91519 1.00352 0.3073 0.0
C434 C 0.95076 0.98983 0.32352 0.0
C435 C 0.92307 0.00995 0.34754 0.0
C436 C 0.90857 0.0121 0.32822 0.0
C437 C 0.94447 0.99865 0.34532 0.0
H438 H 0.94079 0.98628 0.2877 0.0
H439 H 0.89207 0.02077 0.32986 0.0
C440 C 0.85403 0.01859 0.21184 0.0
N441 N 0.84527 0.02785 0.16555 0.0
C442 C 0.84347 1.00183 0.19781 0.0
C443 C 0.85978 0.04016 0.20237 0.0
C444 C 0.83928 1.00681 0.17444 0.0
C445 C 0.85532 0.04449 0.17892 0.0
C446 C 0.90334 0.96433 0.24245 0.0
C447 C 0.88979 0.95903 0.22308 0.0
C448 C 0.92239 0.95041 0.24787 0.0
C449 C 0.89564 0.94005 0.20926 0.0
C450 C 0.92768 0.93155 0.23364 0.0
N451 N 0.91432 0.92681 0.21477 0.0
C452 C 0.93087 0.0291 0.21276 0.0
C453 C 0.90601 1.00545 0.1902 0.0
C454 C 0.94497 0.03326 0.19354 0.0
N455 N 0.91166 0.0156 0.21076 0.0
C456 C 0.9196 0.00916 0.17052 0.0
C457 C 0.93934 0.02334 0.17199 0.0
H458 H 0.93517 0.03683 0.2293 0.0
H459 H 0.89088 0.99457 0.1889 0.0
C460 C 0.82126 0.9675 0.24845 0.0
N461 N 0.84316 0.9633 0.25594 0.0
C462 C 0.80546 0.94929 0.24611 0.0
C463 C 0.83487 0.92279 0.25976 0.0
C464 C 0.85014 0.94151 0.26173 0.0
C465 C 0.81218 0.92651 0.25174 0.0
H466 H 0.81614 0.98502 0.24407 0.0
H467 H 0.8676 0.93863 0.26785 0.0
O468 O 0.90028 0.03525 0.26236 0.0
O469 O 0.86137 1.00769 0.28745 0.0
O470 O 0.8585 0.01394 0.23473 0.0
O471 O 0.89768 0.98261 0.25646 0.0
H472 H 0.91117 0.0539 0.30293 0.0
H473 H 0.89972 0.06856 0.23058 0.0
H474 H 0.91826 0.0958 0.30959 0.0
H475 H 0.90669 0.11024 0.23852 0.0
H476 H 0.87105 0.94201 0.33027 0.0
H477 H 0.82729 0.01439 0.31706 0.0
H478 H 0.88235 0.96802 0.29792 0.0
H479 H 0.81695 0.98751 0.34917 0.0
H480 H 0.84194 0.1016 0.30783 0.0
H481 H 0.80644 0.09136 0.24254 0.0
H482 H 0.96723 0.98127 0.32103 0.0
H483 H 0.91753 0.01687 0.36409 0.0
H484 H 0.83868 0.98509 0.20481 0.0
H485 H 0.86758 0.05344 0.21302 0.0
H486 H 0.83127 0.99395 0.16337 0.0
H487 H 0.85982 0.06108 0.17137 0.0
H488 H 0.87481 0.96936 0.21889 0.0
H489 H 0.93292 0.95402 0.26297 0.0
H490 H 0.88527 0.9358 0.19419 0.0
H491 H 0.94238 0.92064 0.23763 0.0
H492 H 0.9599 0.04446 0.19547 0.0
H493 H 0.9148 1.00083 0.15438 0.0
H494 H 0.78828 0.95301 0.23959 0.0
H495 H 0.84074 0.90564 0.26469 0.0
Li496 Li 0.25071 0.15261 0.52981 0.0
Li497 Li 0.23104 0.12042 0.50675 0.0
Li498 Li 0.2749 0.12213 0.51319 0.0
Li499 Li 0.25554 0.14929 0.48825 0.0
C500 C 0.24527 0.11544 0.55937 0.0
N501 N 0.23642 0.10993 0.60616 0.0
C502 C 0.22308 0.10946 0.56689 0.0
C503 C 0.26303 0.11826 0.57562 0.0
C504 C 0.21893 0.10684 0.59063 0.0
C505 C 0.25819 0.11551 0.5992 0.0
C506 C 0.2152 0.17029 0.49244 0.0
C507 C 0.18861 0.18024 0.46173 0.0
N508 N 0.19468 0.20294 0.46399 0.0
C509 C 0.22107 0.19372 0.49461 0.0
C510 C 0.19877 0.16346 0.47599 0.0
C511 C 0.21054 0.20996 0.47999 0.0
C512 C 0.26157 0.19216 0.55646 0.0
N513 N 0.24679 0.17386 0.55501 0.0
C514 C 0.22639 0.187 0.5886 0.0
C515 C 0.22916 0.17124 0.57038 0.0
C516 C 0.24163 0.20589 0.59072 0.0
C517 C 0.25937 0.20839 0.57428 0.0
H518 H 0.27502 0.19429 0.54364 0.0
H519 H 0.21705 0.15711 0.56836 0.0
C520 C 0.2079 0.07898 0.49529 0.0
N521 N 0.2049 0.10052 0.50435 0.0
C522 C 0.1891 0.06391 0.49299 0.0
C523 C 0.16459 0.09324 0.51001 0.0
C524 C 0.18381 0.1079 0.51164 0.0
C525 C 0.16711 0.07098 0.50046 0.0
H526 H 0.22493 0.07351 0.48985 0.0
H527 H 0.18198 0.12514 0.51881 0.0
C528 C 0.30216 0.15976 0.51709 0.0
N529 N 0.34829 0.16612 0.5281 0.0
C530 C 0.31824 0.16454 0.49962 0.0
C531 C 0.30954 0.15843 0.54016 0.0
C532 C 0.34148 0.16765 0.50554 0.0
C533 C 0.33293 0.16163 0.54538 0.0
C534 C 0.26273 0.11166 0.46191 0.0
C535 C 0.28432 0.11902 0.45391 0.0
C536 C 0.24716 0.10123 0.44651 0.0
C537 C 0.28997 0.11592 0.43056 0.0
C538 C 0.25348 0.0984 0.4233 0.0
N539 N 0.27456 0.10575 0.41587 0.0
C540 C 0.29807 0.08518 0.53494 0.0
C541 C 0.32136 0.10483 0.50748 0.0
C542 C 0.31616 0.07002 0.54024 0.0
N543 N 0.30099 0.10233 0.51898 0.0
C544 C 0.33998 0.09015 0.51234 0.0
C545 C 0.33755 0.07243 0.52896 0.0
H546 H 0.28157 0.0831 0.54346 0.0
H547 H 0.32328 0.11815 0.49448 0.0
C548 C 0.27143 0.18702 0.46103 0.0
N549 N 0.25777 0.16781 0.46048 0.0
C550 C 0.27331 0.20133 0.44153 0.0
C551 C 0.24644 0.17628 0.4214 0.0
C552 C 0.24515 0.16242 0.44127 0.0
C553 C 0.26074 0.19601 0.42133 0.0
H554 H 0.28058 0.19148 0.47678 0.0
H555 H 0.23381 0.14752 0.44143 0.0
O556 O 0.24961 0.1182 0.53619 0.0
O557 O 0.22579 0.15407 0.5061 0.0
O558 O 0.27932 0.15656 0.51163 0.0
O559 O 0.25681 0.11475 0.48466 0.0
H560 H 0.20917 0.10704 0.55456 0.0
H561 H 0.2804 0.12238 0.57009 0.0
H562 H 0.20181 0.10237 0.5967 0.0
H563 H 0.27175 0.11774 0.61197 0.0
H564 H 0.17598 0.17521 0.4488 0.0
H565 H 0.23383 0.19922 0.50724 0.0
H566 H 0.19415 0.14535 0.47407 0.0
H567 H 0.21503 0.22814 0.48133 0.0
H568 H 0.21218 0.18468 0.60059 0.0
H569 H 0.27153 0.22267 0.57526 0.0
H570 H 0.19178 0.04678 0.48576 0.0
H571 H 0.14788 0.09935 0.51584 0.0
H572 H 0.31294 0.16545 0.48163 0.0
H573 H 0.29733 0.15507 0.55391 0.0
H574 H 0.35412 0.17119 0.49218 0.0
H575 H 0.33887 0.16058 0.56317 0.0
H576 H 0.29639 0.12743 0.4655 0.0
H577 H 0.2303 0.09561 0.45235 0.0
H578 H 0.30657 0.12168 0.42411 0.0
H579 H 0.24158 0.09043 0.41117 0.0
H580 H 0.31325 0.05632 0.55278 0.0
H581 H 0.35616 0.09283 0.5033 0.0
H582 H 0.28412 0.21667 0.44243 0.0
H583 H 0.23644 0.17151 0.40622 0.0
Li584 Li 0.40256 0.50782 0.77837 0.0
Li585 Li 0.37251 0.53359 0.76242 0.0
Li586 Li 0.37135 0.49013 0.75546 0.0
Li587 Li 0.39932 0.51523 0.73499 0.0
C588 C 0.36605 0.50275 0.80813 0.0
N589 N 0.36106 0.49265 0.85475 0.0
C590 C 0.35893 0.51997 0.82359 0.0
C591 C 0.37028 0.48031 0.81633 0.0
C592 C 0.3566 0.51454 0.84711 0.0
C593 C 0.36776 0.47557 0.83997 0.0
C594 C 0.41183 0.56023 0.76306 0.0
C595 C 0.41368 0.59899 0.74732 0.0
N596 N 0.42174 0.60689 0.76806 0.0
C597 C 0.42041 0.56867 0.78412 0.0
C598 C 0.40869 0.57545 0.74442 0.0
C599 C 0.42521 0.59233 0.78634 0.0
C600 C 0.44182 0.48843 0.80035 0.0
N601 N 0.42371 0.5031 0.80355 0.0
C602 C 0.43626 0.51113 0.84232 0.0
C603 C 0.42082 0.51456 0.82395 0.0
C604 C 0.45508 0.49599 0.83956 0.0
C605 C 0.45779 0.4846 0.8182 0.0
H606 H 0.44395 0.47977 0.78386 0.0
H607 H 0.40668 0.52662 0.82591 0.0
C608 C 0.33566 0.56484 0.75438 0.0
N609 N 0.35431 0.5607 0.76817 0.0
C610 C 0.32211 0.58459 0.75776 0.0
C611 C 0.34688 0.59528 0.78983 0.0
C612 C 0.35994 0.5753 0.78584 0.0
C613 C 0.32769 0.60019 0.77565 0.0
H614 H 0.33126 0.55278 0.74072 0.0
H615 H 0.37444 0.57134 0.79699 0.0
C616 C 0.40934 0.46272 0.74764 0.0
N617 N 0.41701 0.41624 0.7388 0.0
C618 C 0.41411 0.45527 0.72508 0.0
C619 C 0.40886 0.44658 0.76576 0.0
C620 C 0.41784 0.43169 0.72095 0.0
C621 C 0.41267 0.42315 0.76092 0.0
C622 C 0.3582 0.52071 0.7112 0.0
C623 C 0.3484 0.50322 0.69755 0.0
C624 C 0.36101 0.54296 0.70194 0.0
C625 C 0.34198 0.50819 0.67468 0.0
C626 C 0.35439 0.54724 0.67899 0.0
N627 N 0.34512 0.5299 0.66594 0.0
C628 C 0.33493 0.46057 0.76941 0.0
C629 C 0.35378 0.4483 0.73513 0.0
C630 C 0.32019 0.44136 0.76862 0.0
N631 N 0.35149 0.46356 0.75296 0.0
C632 C 0.3394 0.42884 0.73364 0.0
C633 C 0.32236 0.4251 0.7506 0.0
H634 H 0.33304 0.47319 0.78311 0.0
H635 H 0.36667 0.45128 0.72193 0.0
C636 C 0.43631 0.5329 0.70854 0.0
N637 N 0.41674 0.51987 0.70707 0.0
C638 C 0.44987 0.53684 0.68889 0.0
C639 C 0.42301 0.51377 0.66649 0.0
C640 C 0.41006 0.51015 0.68662 0.0
C641 C 0.44325 0.52724 0.66747 0.0
H642 H 0.44147 0.54018 0.72505 0.0
H643 H 0.39486 0.49927 0.68595 0.0
O644 O 0.36865 0.5078 0.78507 0.0
O645 O 0.40685 0.53714 0.76064 0.0
O646 O 0.40553 0.48574 0.75198 0.0
O647 O 0.36473 0.5161 0.73358 0.0
H648 H 0.35533 0.53735 0.81753 0.0
H649 H 0.37536 0.46669 0.80455 0.0
H650 H 0.35123 0.52774 0.85929 0.0
H651 H 0.37108 0.4583 0.84655 0.0
H652 H 0.41122 0.61098 0.73306 0.0
H653 H 0.42318 0.55712 0.79866 0.0
H654 H 0.4026 0.56915 0.72786 0.0
H655 H 0.43168 0.59913 0.8026 0.0
H656 H 0.43376 0.52058 0.85835 0.0
H657 H 0.47198 0.47271 0.81536 0.0
H658 H 0.30759 0.58773 0.74628 0.0
H659 H 0.35157 0.60658 0.80409 0.0
H660 H 0.41477 0.46752 0.71089 0.0
H661 H 0.40572 0.45208 0.78338 0.0
H662 H 0.42138 0.42567 0.70354 0.0
H663 H 0.41223 0.41046 0.77477 0.0
H664 H 0.34584 0.48599 0.70449 0.0
H665 H 0.3681 0.5568 0.71237 0.0
H666 H 0.3345 0.49479 0.66389 0.0
H667 H 0.35657 0.56436 0.67159 0.0
H668 H 0.30702 0.43945 0.78181 0.0
H669 H 0.34179 0.41673 0.7195 0.0
H670 H 0.46529 0.54743 0.6904 0.0
H671 H 0.41751 0.50568 0.65044 0.0
Li672 Li 0.78478 0.39275 0.50911 0.0
Li673 Li 0.76403 0.36371 0.53253 0.0
Li674 Li 0.76057 0.3631 0.48974 0.0
Li675 Li 0.74201 0.39327 0.51238 0.0
C676 C 0.80712 0.35202 0.49534 0.0
N677 N 0.8433 0.33896 0.46701 0.0
C678 C 0.82047 0.3326 0.50093 0.0
C679 C 0.81217 0.36482 0.47535 0.0
C680 C 0.83869 0.32627 0.48638 0.0
C681 C 0.83053 0.35793 0.46125 0.0
C682 C 0.76987 0.40179 0.5598 0.0
C683 C 0.75653 0.40738 0.59901 0.0
N684 N 0.77883 0.4093 0.60631 0.0
C685 C 0.79265 0.4041 0.56764 0.0
C686 C 0.75164 0.40368 0.57555 0.0
C687 C 0.79683 0.40779 0.59124 0.0
C688 C 0.80739 0.43428 0.49875 0.0
N689 N 0.81125 0.41249 0.50686 0.0
C690 C 0.85154 0.42077 0.5117 0.0
C691 C 0.83278 0.40548 0.51333 0.0
C692 C 0.84811 0.44346 0.50329 0.0
C693 C 0.82562 0.45005 0.49669 0.0
H694 H 0.79006 0.43944 0.49394 0.0
H695 H 0.83534 0.38811 0.51999 0.0
C696 C 0.74839 0.32921 0.56395 0.0
N697 N 0.76597 0.34426 0.55957 0.0
C698 C 0.74909 0.31476 0.58342 0.0
C699 C 0.78637 0.33095 0.59326 0.0
C700 C 0.78497 0.34505 0.57351 0.0
C701 C 0.76819 0.31559 0.59852 0.0
H702 H 0.73388 0.32814 0.5522 0.0
H703 H 0.79911 0.35655 0.56927 0.0
C704 C 0.7481 0.40405 0.46541 0.0
N705 N 0.72126 0.41811 0.42823 0.0
C706 C 0.72838 0.39146 0.4592 0.0
C707 C 0.75425 0.42373 0.45263 0.0
C708 C 0.71501 0.39885 0.44038 0.0
C709 C 0.74043 0.43058 0.43391 0.0
C710 C 0.71295 0.35673 0.5179 0.0
C711 C 0.69808 0.34706 0.50135 0.0
C712 C 0.70411 0.36387 0.53928 0.0
C713 C 0.67453 0.34502 0.50637 0.0
C714 C 0.68047 0.36155 0.54364 0.0
N715 N 0.66628 0.35227 0.52722 0.0
C716 C 0.74828 0.3217 0.46743 0.0
C717 C 0.7655 0.3492 0.4422 0.0
C718 C 0.74532 0.30611 0.44914 0.0
N719 N 0.75804 0.34282 0.46365 0.0
C720 C 0.76306 0.33405 0.42341 0.0
C721 C 0.75273 0.31216 0.42669 0.0
H722 H 0.74256 0.31707 0.48469 0.0
H723 H 0.77329 0.36608 0.43965 0.0
C724 C 0.7205 0.43403 0.52713 0.0
N725 N 0.7165 0.41443 0.51464 0.0
C726 C 0.70312 0.45059 0.52986 0.0
C727 C 0.67773 0.42666 0.50667 0.0
C728 C 0.69567 0.41063 0.50424 0.0
C729 C 0.68135 0.44698 0.51963 0.0
H730 H 0.73726 0.43682 0.53501 0.0
H731 H 0.6929 0.3952 0.49401 0.0
O732 O 0.78919 0.35833 0.50941 0.0
O733 O 0.76545 0.39811 0.53676 0.0
O734 O 0.76147 0.39712 0.48378 0.0
O735 O 0.73604 0.35908 0.51324 0.0
H736 H 0.81676 0.32252 0.51636 0.0
H737 H 0.80206 0.37992 0.47074 0.0
H738 H 0.84917 0.31127 0.49049 0.0
H739 H 0.83462 0.36767 0.44572 0.0
H740 H 0.74258 0.40879 0.61141 0.0
H741 H 0.80696 0.40278 0.55569 0.0
H742 H 0.73389 0.40249 0.56973 0.0
H743 H 0.81438 0.40941 0.59757 0.0
H744 H 0.86845 0.41497 0.51734 0.0
H745 H 0.82211 0.46718 0.48979 0.0
H746 H 0.73495 0.30279 0.58637 0.0
H747 H 0.80144 0.33225 0.60438 0.0
H748 H 0.72345 0.37615 0.4688 0.0
H749 H 0.76955 0.4336 0.45708 0.0
H750 H 0.69968 0.38927 0.43543 0.0
H751 H 0.74497 0.4458 0.42388 0.0
H752 H 0.70459 0.34131 0.48475 0.0
H753 H 0.71541 0.3711 0.55235 0.0
H754 H 0.66282 0.33769 0.49367 0.0
H755 H 0.6734 0.36711 0.56007 0.0
H756 H 0.73694 0.28965 0.45253 0.0
H757 H 0.76938 0.33939 0.40656 0.0
H758 H 0.70661 0.46594 0.54012 0.0
H759 H 0.6613 0.42335 0.49822 0.0
Li760 Li 0.64107 0.98641 0.75904 0.0
Li761 Li 0.6114 0.01216 0.77598 0.0
Li762 Li 0.61368 1.00471 0.73249 0.0
Li763 Li 0.6425 0.02869 0.75185 0.0
C764 C 0.60205 0.95995 0.76227 0.0
N765 N 0.59301 0.91355 0.77042 0.0
C766 C 0.59487 0.95257 0.78422 0.0
C767 C 0.6042 0.94379 0.74436 0.0
C768 C 0.5905 0.92902 0.78803 0.0
C769 C 0.59967 0.9204 0.74884 0.0
C770 C 0.65209 0.02691 0.79908 0.0
C771 C 0.6466 0.06219 0.82081 0.0
N772 N 0.66621 0.05761 0.83306 0.0
C773 C 0.67218 0.02253 0.81186 0.0
C774 C 0.63917 0.04688 0.80356 0.0
C775 C 0.67904 0.03827 0.82898 0.0
C776 C 0.67642 0.95305 0.75127 0.0
N777 N 0.65901 0.95933 0.76575 0.0
C778 C 0.66699 0.92699 0.7906 0.0
C779 C 0.65443 0.94704 0.78539 0.0
C780 C 0.68482 0.91985 0.77575 0.0
C781 C 0.68958 0.93326 0.75593 0.0
H782 H 0.68022 0.96346 0.73614 0.0
H783 H 0.6411 0.95289 0.7971 0.0
C784 C 0.5711 0.02708 0.80011 0.0
N785 N 0.59173 0.01598 0.80218 0.0
C786 C 0.55671 0.02956 0.81942 0.0
C787 C 0.58488 0.00871 0.84244 0.0
C788 C 0.59885 1.00693 0.8228 0.0
C789 C 0.5635 0.02014 0.84088 0.0
H790 H 0.56573 0.0338 0.78342 0.0
H791 H 0.61531 0.99809 0.82389 0.0
C792 C 0.65261 0.99729 0.70715 0.0
N793 N 0.66143 0.98582 0.66144 0.0
C794 C 0.6606 0.01417 0.69163 0.0
C795 C 0.64934 0.97454 0.69943 0.0
C796 C 0.66491 1.00803 0.6686 0.0
C797 C 0.65382 0.9691 0.67626 0.0
C798 C 0.60511 0.05622 0.74077 0.0
C799 C 0.61456 0.06227 0.71931 0.0
C800 C 0.59276 0.07273 0.75343 0.0
C801 C 0.61134 0.08473 0.71073 0.0
C802 C 0.58988 0.095 0.74425 0.0
N803 N 0.59915 0.10049 0.72327 0.0
C804 C 0.5763 0.98591 0.70677 0.0
C805 C 0.6007 0.0103 0.68457 0.0
C806 C 0.56262 0.98125 0.68726 0.0
N807 N 0.59512 1.0 0.70507 0.0
C808 C 0.58765 1.006 0.66462 0.0
C809 C 0.5684 0.99119 0.66576 0.0
H810 H 0.57194 0.97816 0.72329 0.0
H811 H 0.61532 0.02183 0.68351 0.0
C812 C 0.68356 0.05071 0.73762 0.0
N813 N 0.66304 0.05471 0.74834 0.0
C814 C 0.69876 0.06901 0.73307 0.0
C815 C 0.67204 0.09513 0.75177 0.0
C816 C 0.65729 0.07633 0.75583 0.0
C817 C 0.69296 0.09164 0.73994 0.0
H818 H 0.68802 0.03328 0.73236 0.0
H819 H 0.6411 0.07915 0.76468 0.0
O820 O 0.60662 0.98293 0.75828 0.0
O821 O 0.64525 0.01171 0.7822 0.0
O822 O 0.64818 1.00298 0.72977 0.0
O823 O 0.60842 0.03443 0.74963 0.0
H824 H 0.59288 0.96484 0.79823 0.0
H825 H 0.60914 0.94925 0.72713 0.0
H826 H 0.58513 0.92305 0.80499 0.0
H827 H 0.60137 0.90769 0.73515 0.0
H828 H 0.63679 0.07774 0.82443 0.0
H829 H 0.68237 1.00714 0.80856 0.0
H830 H 0.62364 0.0506 0.79375 0.0
H831 H 0.69456 0.03512 0.83901 0.0
H832 H 0.66307 0.91741 0.8063 0.0
H833 H 0.70318 0.92836 0.74401 0.0
H834 H 0.54022 0.03827 0.81748 0.0
H835 H 0.59078 1.00134 0.85871 0.0
H836 H 0.66308 0.03192 0.69716 0.0
H837 H 0.64352 0.9612 0.71122 0.0
H838 H 0.67093 0.02096 0.65638 0.0
H839 H 0.65129 0.95157 0.67007 0.0
H840 H 0.62481 0.04997 0.7097 0.0
H841 H 0.58563 0.06848 0.77024 0.0
H842 H 0.61868 0.08967 0.6942 0.0
H843 H 0.58036 0.10795 0.75385 0.0
H844 H 0.54793 0.9697 0.68891 0.0
H845 H 0.59247 0.01439 0.64851 0.0
H846 H 0.71494 0.06546 0.72433 0.0
H847 H 0.66686 0.11228 0.75735 0.0
Li848 Li 0.03173 0.26142 0.87118 0.0
Li849 Li 1.00544 0.27944 0.8996 0.0
Li850 Li 0.01502 0.23647 0.901 0.0
Li851 Li 0.98892 0.25231 0.87095 0.0
C852 C 0.05862 0.26937 0.90831 0.0
N853 N 0.10485 0.28056 0.91329 0.0
C854 C 0.06513 0.29176 0.91497 0.0
C855 C 0.07561 0.25259 0.9045 0.0
C856 C 0.08859 0.2971 0.91732 0.0
C857 C 0.09889 0.2586 0.90701 0.0
C858 C 0.99829 0.30402 0.8587 0.0
C859 C 0.96839 0.33266 0.85309 0.0
N860 N 0.98457 0.34808 0.84561 0.0
C861 C 0.01458 0.32006 0.85067 0.0
C862 C 0.97497 0.31028 0.85967 0.0
C863 C 0.00732 0.34228 0.84425 0.0
C864 C 0.06088 0.25033 0.83398 0.0
N865 N 0.05768 0.26619 0.8511 0.0
C866 C 0.08983 0.28851 0.8374 0.0
C867 C 0.07169 0.28508 0.85306 0.0
C868 C 0.09339 0.27249 0.81939 0.0
C869 C 0.07871 0.25311 0.81792 0.0
H870 H 0.04934 0.23564 0.83254 0.0
H871 H 0.06853 0.29774 0.86648 0.0
C872 C 0.98436 0.30486 0.93588 0.0
N873 N 0.99895 0.30668 0.91749 0.0
C874 C 0.97871 0.32442 0.94899 0.0
C875 C 1.00361 0.34737 0.92437 0.0
C876 C 0.00875 0.32736 0.91173 0.0
C877 C 0.98833 0.34609 0.94326 0.0
H878 H 0.97716 0.28816 0.94046 0.0
H879 H 0.0207 0.32834 0.8974 0.0
C880 C 0.01941 0.20791 0.86401 0.0
N881 N 0.02675 0.16084 0.85876 0.0
C882 C 1.00113 0.19331 0.85772 0.0
C883 C 0.04149 0.19862 0.86731 0.0
C884 C 1.00518 0.16955 0.85522 0.0
C885 C 0.04483 0.17476 0.86467 0.0
C886 C 0.96174 0.24905 0.91029 0.0
C887 C 0.95402 0.22774 0.91894 0.0
C888 C 0.94595 0.26711 0.907 0.0
C889 C 0.93053 0.2247 0.92369 0.0
C890 C 0.9226 0.26339 0.91194 0.0
N891 N 0.91543 0.24243 0.92009 0.0
C892 C 0.03783 0.21307 0.93765 0.0
C893 C 0.0095 0.1902 0.91868 0.0
C894 C 0.04346 0.19461 0.95236 0.0
N895 N 0.02124 0.21053 0.92108 0.0
C896 C 0.01461 0.17125 0.93299 0.0
C897 C 0.03188 0.17326 0.95009 0.0
H898 H 0.04668 0.22949 0.93951 0.0
H899 H 0.99617 0.18862 0.90562 0.0
C900 C 0.9633 0.25883 0.83032 0.0
N901 N 0.9632 0.24689 0.85068 0.0
C902 C 0.94536 0.25606 0.81432 0.0
C903 C 0.92765 0.2283 0.84025 0.0
C904 C 0.94596 0.23164 0.85578 0.0
C905 C 0.92717 0.24063 0.81917 0.0
H906 H 0.9774 0.27053 0.82644 0.0
H907 H 0.94657 0.22176 0.87169 0.0
O908 O 0.03574 0.26388 0.90572 0.0
O909 O 1.00512 0.28221 0.86517 0.0
O910 O 0.01573 0.2312 0.86669 0.0
O911 O 0.98468 0.25229 0.90543 0.0
H912 H 0.05222 0.3049 0.91822 0.0
H913 H 0.07087 0.23512 0.89964 0.0
H914 H 0.09388 0.31439 0.92235 0.0
H915 H 0.11222 0.24581 0.90398 0.0
H916 H 0.95041 0.33774 0.85384 0.0
H917 H 0.03265 0.31547 0.84958 0.0
H918 H 0.96205 0.29793 0.86524 0.0
H919 H 0.01978 0.35491 0.83818 0.0
H920 H 0.10052 0.30388 0.83898 0.0
H921 H 0.08094 0.24021 0.80447 0.0
H922 H 0.96723 0.32251 0.96369 0.0
H923 H 0.01138 0.36369 0.91925 0.0
H924 H 0.98397 0.20021 0.85495 0.0
H925 H 0.05589 0.2097 0.87184 0.0
H926 H 0.99115 0.15803 0.8505 0.0
H927 H 0.06181 0.16733 0.8673 0.0
H928 H 0.966 0.21367 0.92187 0.0
H929 H 0.95167 0.28387 0.90088 0.0
H930 H 0.9243 0.20824 0.93025 0.0
H931 H 0.91019 0.2772 0.90938 0.0
H932 H 0.05657 0.19716 0.96557 0.0
H933 H 1.00533 0.15512 0.93044 0.0
H934 H 0.94565 0.26607 0.7984 0.0
H935 H 0.91425 0.21587 0.8445 0.0
Li936 Li 0.52913 0.75698 0.37086 0.0
Li937 Li 0.50479 0.77552 0.40066 0.0
Li938 Li 0.50995 0.73201 0.39913 0.0
Li939 Li 0.48561 0.75208 0.37027 0.0
C940 C 0.55643 0.76047 0.40879 0.0
N941 N 0.60315 0.7682 0.41547 0.0
C942 C 0.56429 0.78218 0.41621 0.0
C943 C 0.57231 0.7426 0.40509 0.0
C944 C 0.58798 0.78576 0.41941 0.0
C945 C 0.59587 0.74687 0.40846 0.0
C946 C 0.50013 0.80354 0.36149 0.0
C947 C 0.47349 0.83554 0.35805 0.0
N948 N 0.49122 0.8496 0.35151 0.0
C949 C 0.51805 0.81824 0.35445 0.0
C950 C 0.47762 0.81219 0.36306 0.0
C951 C 0.51321 0.84149 0.34959 0.0
C952 C 0.55738 0.74574 0.33285 0.0
N953 N 0.55554 0.76054 0.35109 0.0
C954 C 0.58971 0.7807 0.33909 0.0
C955 C 0.57122 0.77784 0.35443 0.0
C956 C 0.59194 0.76577 0.31996 0.0
C957 C 0.57553 0.748 0.31705 0.0
H958 H 0.54454 0.73234 0.33032 0.0
H959 H 0.56913 0.78978 0.3687 0.0
C960 C 0.48887 0.79743 0.44106 0.0
N961 N 0.50117 0.80127 0.42134 0.0
C962 C 0.48548 0.81528 0.45705 0.0
C963 C 0.50795 0.84069 0.43248 0.0
C964 C 0.51088 0.82233 0.41695 0.0
C965 C 0.49504 0.83732 0.45286 0.0
H966 H 0.48166 0.78044 0.44439 0.0
H967 H 0.52125 0.82482 0.4016 0.0
C968 C 0.51293 0.70539 0.36102 0.0
N969 N 0.51818 0.65825 0.35415 0.0
C970 C 0.49411 0.69191 0.35389 0.0
C971 C 0.53449 0.69497 0.36432 0.0
C972 C 0.4971 0.66809 0.35059 0.0
C973 C 0.53678 0.67109 0.36086 0.0
C974 C 0.45825 0.75041 0.40957 0.0
C975 C 0.4472 0.72988 0.41624 0.0
C976 C 0.44562 0.77103 0.40843 0.0
C977 C 0.42356 0.73024 0.42115 0.0
C978 C 0.42201 0.7707 0.41348 0.0
N979 N 0.41155 0.75046 0.41965 0.0
C980 C 0.52913 0.70483 0.43511 0.0
C981 C 0.49856 0.68631 0.4149 0.0
C982 C 0.53155 0.6857 0.44983 0.0
N983 N 0.51289 0.70479 0.41801 0.0
C984 C 0.5004 0.66679 0.4292 0.0
C985 C 0.51705 0.66631 0.44703 0.0
H986 H 0.54001 0.71989 0.43756 0.0
H987 H 0.48554 0.68679 0.40144 0.0
C988 C 0.45867 0.76387 0.33126 0.0
N989 N 0.45923 0.74982 0.35023 0.0
C990 C 0.44021 0.76272 0.31562 0.0
C991 C 0.42334 0.73233 0.33903 0.0
C992 C 0.44212 0.73413 0.35427 0.0
C993 C 0.42222 0.74672 0.31933 0.0
H994 H 0.47269 0.77588 0.32813 0.0
H995 H 0.44326 0.72263 0.36903 0.0
O996 O 0.53331 0.75668 0.40542 0.0
O997 O 0.50458 0.78072 0.36639 0.0
O998 O 0.51028 0.72871 0.36455 0.0
O999 O 0.48138 0.75034 0.40458 0.0
H1000 H 0.55225 0.79615 0.41934 0.0
H1001 H 0.56652 0.7256 0.39972 0.0
H1002 H 0.59431 0.80252 0.42502 0.0
H1003 H 0.60835 0.73323 0.40555 0.0
H1004 H 0.45615 0.84247 0.35927 0.0
H1005 H 0.53552 0.81182 0.3529 0.0
H1006 H 0.46345 0.80095 0.36784 0.0
H1007 H 0.52695 0.85309 0.34429 0.0
H1008 H 0.60173 0.79487 0.34181 0.0
H1009 H 0.57666 0.73598 0.30268 0.0
H1010 H 0.47525 0.8119 0.4724 0.0
H1011 H 0.51605 0.85723 0.42876 0.0
H1012 H 0.47735 0.69972 0.35107 0.0
H1013 H 0.5493 0.7052 0.36945 0.0
H1014 H 0.48265 0.65742 0.34522 0.0
H1015 H 0.55335 0.66278 0.36347 0.0
H1016 H 0.45673 0.7138 0.41747 0.0
H1017 H 0.45399 0.78718 0.40393 0.0
H1018 H 0.41476 0.71444 0.42616 0.0
H1019 H 0.41203 0.78654 0.41259 0.0
H1020 H 0.54434 0.68633 0.46358 0.0
H1021 H 0.48897 0.65218 0.42625 0.0
H1022 H 0.44004 0.77431 0.30081 0.0
H1023 H 0.41016 0.7194 0.34237 0.0
Li1024 Li 1.00474 0.77742 0.61786 0.0
Li1025 Li 0.98116 0.75931 0.6485 0.0
Li1026 Li 0.02459 0.75393 0.64713 0.0
Li1027 Li 0.99887 0.73377 0.61945 0.0
C1028 C 0.00991 0.80594 0.65512 0.0
N1029 N 0.01728 0.85297 0.661 0.0
C1030 C 0.99196 0.82022 0.66274 0.0
C1031 C 0.03171 0.81552 0.65086 0.0
C1032 C 0.996 0.84397 0.66551 0.0
C1033 C 0.03506 0.83934 0.65382 0.0
C1034 C 0.95232 0.76062 0.61089 0.0
C1035 C 0.91425 0.74347 0.61147 0.0
N1036 N 0.90506 0.76402 0.6044 0.0
C1037 C 0.94253 0.78148 0.60333 0.0
C1038 C 0.9381 0.74138 0.61473 0.0
C1039 C 0.9186 0.78288 0.60026 0.0
C1040 C 0.02318 0.80301 0.58011 0.0
N1041 N 0.00776 0.80388 0.59786 0.0
C1042 C 0.99675 0.84244 0.58705 0.0
C1043 C 0.99454 0.82305 0.60145 0.0
C1044 C 0.01264 0.84212 0.56864 0.0
C1045 C 0.02597 0.82202 0.56527 0.0
H1046 H 0.03323 0.78746 0.57734 0.0
H1047 H 0.98219 0.82327 0.61547 0.0
C1048 C 0.95452 0.74894 0.68797 0.0
N1049 N 0.95549 0.76302 0.66905 0.0
C1050 C 0.93653 0.75108 0.70394 0.0
C1051 C 0.92101 0.78254 0.68096 0.0
C1052 C 0.93925 0.77968 0.66536 0.0
C1053 C 0.91948 0.76813 0.70063 0.0
H1054 H 0.96786 0.73614 0.69083 0.0
H1055 H 0.9407 0.79112 0.65056 0.0
C1056 C 0.05054 0.74846 0.60832 0.0
N1057 N 0.09705 0.74134 0.60002 0.0
C1058 C 0.0585 0.72652 0.60183 0.0
C1059 C 0.06619 0.76686 0.6102 0.0
C1060 C 0.08209 0.72325 0.5978 0.0
C1061 C 0.08965 0.76289 0.60605 0.0
C1062 C 0.99633 0.70812 0.65982 0.0
C1063 C 0.01478 0.69443 0.66747 0.0
C1064 C 0.97416 0.69851 0.65853 0.0
C1065 C 0.01083 0.6712 0.6732 0.0
C1066 C 0.97091 0.67521 0.66441 0.0
N1067 N 0.98916 0.66214 0.67153 0.0
C1068 C 0.05377 0.7671 0.68389 0.0
C1069 C 0.06746 0.7344 0.66325 0.0
C1070 C 0.07244 0.76582 0.69925 0.0
N1071 N 0.05162 0.75155 0.6663 0.0
C1072 C 0.08638 0.73242 0.67827 0.0
C1073 C 0.08899 0.74818 0.6967 0.0
H1074 H 0.04078 0.78033 0.68625 0.0
H1075 H 0.06512 0.72185 0.64954 0.0
C1076 C 0.97863 0.70703 0.5836 0.0
N1077 N 0.99403 0.70618 0.60145 0.0
C1078 C 0.97416 0.68729 0.57025 0.0
C1079 C 1.00183 0.66618 0.59357 0.0
C1080 C 1.00574 0.68633 0.60646 0.0
C1081 C 0.98581 0.66645 0.57519 0.0
H1082 H 0.96985 0.72311 0.57962 0.0
H1083 H 0.01827 0.68612 0.62038 0.0
O1084 O 1.00622 0.78267 0.65208 0.0
O1085 O 0.97572 0.75898 0.61418 0.0
O1086 O 0.02751 0.75194 0.61249 0.0
O1087 O 0.99992 0.73088 0.65397 0.0
H1088 H 0.97507 0.8131 0.66636 0.0
H1089 H 0.04591 0.80467 0.64544 0.0
H1090 H 0.98221 0.85524 0.67125 0.0
H1091 H 0.05182 0.84699 0.65048 0.0
H1092 H 0.90305 0.72872 0.61449 0.0
H1093 H 0.95326 0.79646 0.59996 0.0
H1094 H 0.94541 0.72496 0.61999 0.0
H1095 H 0.91079 0.79898 0.59458 0.0
H1096 H 0.98623 0.8576 0.59043 0.0
H1097 H 0.03815 0.82083 0.55108 0.0
H1098 H 0.936 0.73943 0.71869 0.0
H1099 H 0.90858 0.79624 0.67791 0.0
H1100 H 0.04663 0.71215 0.6 0.0
H1101 H 0.0603 0.78403 0.61472 0.0
H1102 H 0.08849 0.70632 0.59291 0.0
H1103 H 0.10195 0.77696 0.60757 0.0
H1104 H 0.03199 0.7016 0.66884 0.0
H1105 H 0.95959 0.70896 0.65323 0.0
H1106 H 0.025 0.66037 0.67899 0.0
H1107 H 0.95385 0.66755 0.66339 0.0
H1108 H 0.07382 0.77851 0.71302 0.0
H1109 H 0.09845 0.71827 0.67586 0.0
H1110 H 0.962 0.68845 0.55598 0.0
H1111 H 0.01114 0.65051 0.59809 0.0
Li1112 Li 0.5087 0.28085 0.11845 0.0
Li1113 Li 0.48347 0.26245 0.14776 0.0
Li1114 Li 0.52626 0.25407 0.14614 0.0
Li1115 Li 0.49986 0.23778 0.11675 0.0
C1116 C 0.51382 0.30686 0.15722 0.0
N1117 N 0.52114 0.35352 0.16546 0.0
C1118 C 0.4959 0.32067 0.16575 0.0
C1119 C 0.53553 0.31672 0.15317 0.0
C1120 C 0.49993 0.34424 0.16975 0.0
C1121 C 0.53887 0.34036 0.15735 0.0
C1122 C 0.45594 0.26852 0.10803 0.0
C1123 C 0.41724 0.25418 0.10165 0.0
N1124 N 0.41012 0.2761 0.09661 0.0
C1125 C 0.4483 0.29086 0.1025 0.0
C1126 C 0.44035 0.24998 0.10735 0.0
C1127 C 0.42504 0.29436 0.09688 0.0
C1128 C 0.52694 0.30393 0.07985 0.0
N1129 N 0.51373 0.30743 0.09902 0.0
C1130 C 0.50738 0.34701 0.08802 0.0
C1131 C 0.5039 0.32843 0.10329 0.0
C1132 C 0.52077 0.34379 0.06798 0.0
C1133 C 0.5307 0.32193 0.06406 0.0
H1134 H 0.5343 0.28702 0.07663 0.0
H1135 H 0.49294 0.3307 0.11825 0.0
C1136 C 0.45757 0.25299 0.18793 0.0
N1137 N 0.45784 0.26639 0.16849 0.0
C1138 C 0.4397 0.25512 0.20405 0.0
C1139 C 0.42283 0.28514 0.18015 0.0
C1140 C 0.44102 0.28239 0.16445 0.0
C1141 C 0.422 0.2714 0.20031 0.0
H1142 H 0.47134 0.24069 0.191 0.0
H1143 H 0.44195 0.29343 0.14935 0.0
C1144 C 0.5525 0.24962 0.1081 0.0
N1145 N 0.59878 0.23998 0.10134 0.0
C1146 C 0.55941 0.22739 0.10142 0.0
C1147 C 0.56908 0.26704 0.11101 0.0
C1148 C 0.5829 0.22283 0.09818 0.0
C1149 C 0.59241 0.26179 0.10761 0.0
C1150 C 0.49159 0.21047 0.15543 0.0
C1151 C 0.50643 0.19289 0.163 0.0
C1152 C 0.46801 0.20583 0.15279 0.0
C1153 C 0.49748 0.17079 0.1674 0.0
C1154 C 0.45971 0.18352 0.15737 0.0
N1155 N 0.4745 0.16659 0.16449 0.0
C1156 C 0.55943 0.26333 0.18116 0.0
C1157 C 0.56494 0.22766 0.1616 0.0
C1158 C 0.57857 0.25902 0.19537 0.0
N1159 N 0.55305 0.24776 0.16463 0.0
C1160 C 0.58423 0.22266 0.17537 0.0
C1161 C 0.59125 0.23841 0.19264 0.0
H1162 H 0.54945 0.27897 0.18358 0.0
H1163 H 0.55934 0.21538 0.14859 0.0
C1164 C 0.48219 0.21764 0.07608 0.0
N1165 N 0.49411 0.21267 0.09583 0.0
C1166 C 0.4782 0.20046 0.05948 0.0
C1167 C 0.49896 0.17327 0.08373 0.0
C1168 C 0.50255 0.19101 0.09988 0.0
C1169 C 0.48674 0.17791 0.06311 0.0
H1170 H 0.476 0.23509 0.07307 0.0
H1171 H 0.51258 0.18761 0.11534 0.0
O1172 O 0.51016 0.28377 0.15313 0.0
O1173 O 0.47867 0.26479 0.11352 0.0
O1174 O 0.5296 0.25435 0.11162 0.0
O1175 O 0.50009 0.23218 0.15089 0.0
H1176 H 0.47905 0.31331 0.16917 0.0
H1177 H 0.54965 0.30623 0.14686 0.0
H1178 H 0.48619 0.35516 0.17624 0.0
H1179 H 0.55555 0.34823 0.15417 0.0
H1180 H 0.40498 0.23999 0.10113 0.0
H1181 H 0.46014 0.30538 0.10274 0.0
H1182 H 0.44606 0.23249 0.11094 0.0
H1183 H 0.41886 0.31159 0.09274 0.0
H1184 H 0.49912 0.36349 0.09151 0.0
H1185 H 0.54127 0.31874 0.0489 0.0
H1186 H 0.43973 0.24403 0.21924 0.0
H1187 H 0.40985 0.29826 0.17677 0.0
H1188 H 0.54679 0.21375 0.09896 0.0
H1189 H 0.56399 0.28441 0.1158 0.0
H1190 H 0.58851 0.20566 0.09317 0.0
H1191 H 0.60544 0.27508 0.10992 0.0
H1192 H 0.52469 0.19622 0.16535 0.0
H1193 H 0.45621 0.21936 0.14747 0.0
H1194 H 0.50879 0.15698 0.17313 0.0
H1195 H 0.4415 0.17968 0.15534 0.0
H1196 H 0.58304 0.27146 0.20872 0.0
H1197 H 0.59356 0.20665 0.17247 0.0
H1198 H 0.46853 0.2048 0.04396 0.0
H1199 H 0.50623 0.15627 0.08707 0.0
H1200 H 0.23349 0.73036 0.85212 0.0
H1201 H 0.22624 0.78661 0.80313 0.0
H1202 H 0.23178 0.81477 0.8343 0.0
H1203 H 0.23875 0.82348 0.87548 0.0
H1204 H 0.24572 0.76716 0.92447 0.0
H1205 H 0.24079 0.73905 0.89323 0.0
C1206 C 0.23337 0.74878 0.84822 0.0
C1207 C 0.22941 0.75633 0.82531 0.0
C1208 C 0.23662 0.7649 0.86622 0.0
C1209 C 0.22896 0.7803 0.82065 0.0
C1210 C 0.23224 0.79643 0.83844 0.0
C1211 C 0.23903 0.80506 0.87936 0.0
C1212 C 0.24266 0.7975 0.90233 0.0
C1213 C 0.23599 0.78894 0.86131 0.0
C1214 C 0.2433 0.77352 0.90694 0.0
C1215 C 0.24033 0.7574 0.88909 0.0
H1216 H 0.98711 0.51879 0.41616 0.0
H1217 H 0.0441 0.53773 0.46085 0.0
H1218 H 0.07082 0.5345 0.42834 0.0
H1219 H 0.078 0.52691 0.38712 0.0
H1220 H 0.02138 0.50596 0.34284 0.0
H1221 H 0.99462 0.50936 0.3753 0.0
C1222 C 1.00541 0.52192 0.41889 0.0
C1223 C 0.01349 0.52863 0.44096 0.0
C1224 C 0.02079 0.51978 0.40015 0.0
C1225 C 0.03727 0.53294 0.44401 0.0
C1226 C 0.05262 0.53096 0.42544 0.0
C1227 C 0.05988 0.52277 0.38459 0.0
C1228 C 0.05179 0.5163 0.36245 0.0
C1229 C 0.04457 0.52448 0.40342 0.0
C1230 C 0.02811 0.51139 0.35953 0.0
C1231 C 0.01277 0.51317 0.37815 0.0
H1232 H 0.77463 0.78864 0.8572 0.0
H1233 H 0.78585 0.73232 0.80921 0.0
H1234 H 0.78122 0.70429 0.84057 0.0
H1235 H 0.77495 0.69568 0.88173 0.0
H1236 H 0.76145 0.75175 0.92943 0.0
H1237 H 0.76603 0.77985 0.89807 0.0
C1238 C 0.77574 0.77024 0.8535 0.0
C1239 C 0.7808 0.76271 0.83083 0.0
C1240 C 0.77279 0.7541 0.87161 0.0
C1241 C 0.78245 0.73872 0.82653 0.0
C1242 C 0.77966 0.72262 0.84445 0.0
C1243 C 0.77264 0.714 0.88528 0.0
C1244 C 0.76798 0.72147 0.90806 0.0
C1245 C 0.77497 0.73011 0.86708 0.0
C1246 C 0.76547 0.74541 0.91223 0.0
C1247 C 0.76793 0.76154 0.89424 0.0
H1248 H 0.0096 1.00541 0.43339 0.0
H1249 H 0.01927 0.93296 0.41765 0.0
H1250 H 0.99295 0.93634 0.3845 0.0
H1251 H 0.96733 0.96002 0.35983 0.0
H1252 H 0.95697 0.03227 0.37616 0.0
H1253 H 0.98336 0.02889 0.40922 0.0
C1254 C 1.00599 0.99042 0.42261 0.0
C1255 C 0.01639 0.96899 0.42789 0.0
C1256 C 0.99071 0.99246 0.40372 0.0
C1257 C 0.01133 0.94959 0.41401 0.0
C1258 C 0.99638 0.95155 0.39501 0.0
C1259 C 0.97096 0.97503 0.37059 0.0
C1260 C 0.96028 0.99637 0.36554 0.0
C1261 C 0.986 0.9729 0.38968 0.0
C1262 C 0.96485 0.01561 0.37981 0.0
C1263 C 0.98001 0.01371 0.39864 0.0
H1264 H 0.23325 0.29071 0.65968 0.0
H1265 H 0.22173 0.23508 0.70855 0.0
H1266 H 0.22537 0.20663 0.67741 0.0
H1267 H 0.23247 0.19746 0.63635 0.0
H1268 H 0.24461 0.25311 0.58768 0.0
H1269 H 0.2406 0.28156 0.61877 0.0
C1270 C 0.23177 0.27235 0.66358 0.0
C1271 C 0.22718 0.2651 0.68646 0.0
C1272 C 0.2341 0.25605 0.64563 0.0
C1273 C 0.22493 0.24122 0.69107 0.0
C1274 C 0.22715 0.22491 0.67329 0.0
C1275 C 0.23405 0.21582 0.63252 0.0
C1276 C 0.23888 0.22312 0.60971 0.0
C1277 C 0.23172 0.23212 0.6505 0.0
C1278 C 0.24119 0.24698 0.60512 0.0
C1279 C 0.23878 0.26328 0.62287 0.0
H1280 H 0.49042 0.5435 0.56967 0.0
H1281 H 0.55163 0.53008 0.61046 0.0
H1282 H 0.52807 0.52559 0.64529 0.0
H1283 H 0.49006 0.52471 0.66408 0.0
H1284 H 0.42864 0.53772 0.62349 0.0
H1285 H 0.45223 0.54306 0.5887 0.0
C1286 C 0.49857 0.53978 0.58624 0.0
C1287 C 0.52272 0.53705 0.58746 0.0
C1288 C 0.48488 0.53704 0.60621 0.0
C1289 C 0.53305 0.53199 0.609 0.0
C1290 C 0.5196 0.5295 0.62894 0.0
C1291 C 0.48186 0.52895 0.64767 0.0
C1292 C 0.45763 0.53085 0.6464 0.0
C1293 C 0.4955 0.53188 0.62774 0.0
C1294 C 0.44724 0.53595 0.6249 0.0
C1295 C 0.46073 0.53911 0.60502 0.0
H1296 H 0.75549 0.2542 0.6889 0.0
H1297 H 0.82837 0.24296 0.6779 0.0
H1298 H 0.82722 0.26771 0.64342 0.0
H1299 H 0.8055 0.29249 0.61633 0.0
H1300 H 0.73278 0.30455 0.62799 0.0
H1301 H 0.73382 0.27924 0.66195 0.0
C1302 C 0.77106 0.25701 0.67881 0.0
C1303 C 0.79197 0.24675 0.68595 0.0
C1304 C 0.77031 0.27138 0.65908 0.0
C1305 C 0.81209 0.25082 0.67289 0.0
C1306 C 0.81144 0.26492 0.65314 0.0
C1307 C 0.78992 0.2898 0.62642 0.0
C1308 C 0.76909 0.30042 0.61949 0.0
C1309 C 0.79066 0.27538 0.64612 0.0
C1310 C 0.749 0.29636 0.63264 0.0
C1311 C 0.74959 0.28198 0.65218 0.0
H1312 H 0.52406 0.97164 0.56727 0.0
H1313 H 0.46128 0.98081 0.60644 0.0
H1314 H 0.48383 0.98676 0.64188 0.0
H1315 H 0.52146 0.9902 0.6616 0.0
H1316 H 0.58423 0.98121 0.62234 0.0
H1317 H 0.56165 0.97429 0.58713 0.0
C1318 C 0.51533 0.97469 0.58361 0.0
C1319 C 0.49103 0.97579 0.58421 0.0
C1320 C 0.52841 0.97821 0.6039 0.0
C1321 C 0.47997 0.98011 0.60547 0.0
C1322 C 0.49285 0.98343 0.62576 0.0
C1323 C 0.53017 0.98648 0.64539 0.0
C1324 C 0.55449 0.98627 0.6446 0.0
C1325 C 0.51708 0.98264 0.62516 0.0
C1326 C 0.56554 0.98175 0.62337 0.0
C1327 C 0.55264 0.97769 0.60324 0.0
H1328 H 0.85773 0.22745 0.73519 0.0
H1329 H 0.80852 0.22544 0.79131 0.0
H1330 H 0.83979 0.23061 0.81946 0.0
H1331 H 0.88108 0.23608 0.82812 0.0
H1332 H 0.93029 0.23754 0.77192 0.0
H1333 H 0.89902 0.23269 0.74385 0.0
C1334 C 0.85384 0.22836 0.75357 0.0
C1335 C 0.83084 0.22608 0.76113 0.0
C1336 C 0.87189 0.23132 0.76966 0.0
C1337 C 0.82611 0.22692 0.78505 0.0
C1338 C 0.84396 0.22997 0.80115 0.0
C1339 C 0.885 0.23511 0.80975 0.0
C1340 C 0.90803 0.23726 0.80219 0.0
C1341 C 0.86693 0.23214 0.79366 0.0
C1342 C 0.91272 0.2363 0.77825 0.0
C1343 C 0.89485 0.23338 0.76216 0.0
H1344 H 0.47979 0.90719 0.53606 0.0
H1345 H 0.47079 0.95499 0.47903 0.0
H1346 H 0.47806 0.92381 0.45138 0.0
H1347 H 0.48616 0.88281 0.44331 0.0
H1348 H 0.49613 0.83516 0.50032 0.0
H1349 H 0.48931 0.86642 0.52799 0.0
C1350 C 0.4797 0.91085 0.51759 0.0
C1351 C 0.47466 0.9334 0.50966 0.0
C1352 C 0.48395 0.89283 0.50175 0.0
C1353 C 0.47429 0.93774 0.48562 0.0
C1354 C 0.47855 0.91993 0.46978 0.0
C1355 C 0.48713 0.8793 0.46179 0.0
C1356 C 0.49158 0.8566 0.46967 0.0
C1357 C 0.48328 0.89739 0.47764 0.0
C1358 C 0.4924 0.85235 0.49372 0.0
C1359 C 0.48863 0.87027 0.50958 0.0
H1360 H 0.16019 0.2827 0.73329 0.0
H1361 H 0.20793 0.30301 0.78726 0.0
H1362 H 0.17766 0.29807 0.81636 0.0
H1363 H 0.13778 0.28709 0.82663 0.0
H1364 H 0.09035 0.26639 0.77252 0.0
H1365 H 0.12049 0.27185 0.74346 0.0
C1366 C 0.16406 0.28583 0.75144 0.0
C1367 C 0.18635 0.29318 0.75803 0.0
C1368 C 0.14665 0.28275 0.76812 0.0
C1369 C 0.19088 0.29759 0.78162 0.0
C1370 C 0.1736 0.29464 0.79832 0.0
C1371 C 0.134 0.28395 0.80846 0.0
C1372 C 0.11185 0.27622 0.80182 0.0
C1373 C 0.15143 0.28718 0.79177 0.0
C1374 C 0.10733 0.27199 0.77819 0.0
C1375 C 0.12452 0.27525 0.76152 0.0
H1376 H 0.50932 0.57976 0.51452 0.0
H1377 H 0.58363 0.58656 0.5129 0.0
H1378 H 0.58034 0.6195 0.48645 0.0
H1379 H 0.55646 0.64633 0.46366 0.0
H1380 H 0.48209 0.6404 0.46601 0.0
H1381 H 0.48533 0.60715 0.49214 0.0
C1382 C 0.52478 0.58858 0.50853 0.0
C1383 C 0.54669 0.58061 0.51565 0.0
C1384 C 0.52277 0.60762 0.49335 0.0
C1385 C 0.56656 0.59209 0.50746 0.0
C1386 C 0.5647 0.61102 0.49242 0.0
C1387 C 0.54094 0.63792 0.47005 0.0
C1388 C 0.51907 0.64592 0.46282 0.0
C1389 C 0.5429 0.61892 0.48523 0.0
C1390 C 0.49917 0.63448 0.47099 0.0
C1391 C 0.50099 0.61553 0.48608 0.0
H1392 H 0.85104 0.77914 0.78549 0.0
H1393 H 0.80314 0.79377 0.72989 0.0
H1394 H 0.83374 0.78766 0.70134 0.0
H1395 H 0.8741 0.77825 0.6922 0.0
H1396 H 0.92234 0.76503 0.74799 0.0
H1397 H 0.89152 0.76999 0.77634 0.0
C1398 C 0.84729 0.78077 0.76711 0.0
C1399 C 0.82489 0.78688 0.7598 0.0
C1400 C 0.86499 0.77741 0.75081 0.0
C1401 C 0.82032 0.78927 0.73594 0.0
C1402 C 0.83777 0.78571 0.71962 0.0
C1403 C 0.87796 0.77666 0.71056 0.0
C1404 C 0.90056 0.77119 0.71786 0.0
C1405 C 0.86021 0.77989 0.72686 0.0
C1406 C 0.90507 0.76884 0.74177 0.0
C1407 C 0.88747 0.77184 0.75805 0.0
H1408 H 1.00614 0.92903 0.50165 0.0
H1409 H 0.08017 0.91965 0.50105 0.0
H1410 H 0.07655 0.88694 0.5278 0.0
H1411 H 0.05235 0.86065 0.55102 0.0
H1412 H 0.97822 0.86936 0.55071 0.0
H1413 H 0.98193 0.90262 0.52469 0.0
C1414 C 0.02148 0.91973 0.50723 0.0
C1415 C 0.04339 0.92683 0.49932 0.0
C1416 C 0.01927 0.9008 0.52249 0.0
C1417 C 0.06311 0.91478 0.50707 0.0
C1418 C 0.06105 0.89596 0.52226 0.0
C1419 C 0.03698 0.8697 0.54511 0.0
C1420 C 0.01504 0.86246 0.55285 0.0
C1421 C 0.03921 0.88876 0.53002 0.0
C1422 C 0.99535 0.87469 0.5453 0.0
C1423 C 0.99744 0.89365 0.5303 0.0
H1424 H 0.15946 0.74038 0.78055 0.0
H1425 H 0.2057 0.72214 0.72488 0.0
H1426 H 0.17447 0.72726 0.69667 0.0
H1427 H 0.13396 0.73679 0.68785 0.0
H1428 H 0.08755 0.7541 0.74378 0.0
H1429 H 0.11901 0.75001 0.77172 0.0
C1430 C 0.16275 0.73777 0.76222 0.0
C1431 C 0.18486 0.73088 0.75483 0.0
C1432 C 0.1447 0.74067 0.74611 0.0
C1433 C 0.18877 0.72722 0.73104 0.0
C1434 C 0.17094 0.73023 0.71489 0.0
C1435 C 0.13067 0.7395 0.70616 0.0
C1436 C 0.10838 0.74582 0.71361 0.0
C1437 C 0.1488 0.73683 0.72224 0.0
C1438 C 0.10458 0.74959 0.73743 0.0
C1439 C 0.12254 0.7471 0.75349 0.0
H1440 H 0.95245 0.58228 0.51283 0.0
H1441 H 0.0256 0.56763 0.51414 0.0
H1442 H 0.03225 0.60115 0.53913 0.0
H1443 H 0.01757 0.63533 0.55958 0.0
H1444 H 0.94441 0.65002 0.55877 0.0
H1445 H 0.93753 0.6159 0.53457 0.0
C1446 C 0.9698 0.58629 0.51883 0.0
C1447 C 0.98851 0.57253 0.51153 0.0
C1448 C 0.97354 0.6057 0.53315 0.0
C1449 C 0.01093 0.57811 0.51924 0.0
C1450 C 0.01475 0.59723 0.5336 0.0
C1451 C 1.00007 0.63092 0.55438 0.0
C1452 C 0.98156 0.64528 0.56099 0.0
C1453 C 0.99622 0.61126 0.5405 0.0
C1454 C 0.95904 0.63948 0.5537 0.0
C1455 C 0.95506 0.61988 0.53996 0.0
H1456 H 0.73006 0.85415 0.24487 0.0
H1457 H 0.78559 0.81015 0.22129 0.0
H1458 H 0.81294 0.84215 0.22574 0.0
H1459 H 0.82111 0.88266 0.23618 0.0
H1460 H 0.76586 0.926 0.2616 0.0
H1461 H 0.73847 0.89418 0.25663 0.0
C1462 C 0.74819 0.85142 0.24098 0.0
C1463 C 0.75568 0.8297 0.23274 0.0
C1464 C 0.76391 0.86982 0.24384 0.0
C1465 C 0.77921 0.82673 0.22736 0.0
C1466 C 0.79492 0.84499 0.23004 0.0
C1467 C 0.80314 0.8851 0.24092 0.0
C1468 C 0.79563 0.90681 0.24919 0.0
C1469 C 0.78747 0.86662 0.23826 0.0
C1470 C 0.77214 0.90966 0.25484 0.0
C1471 C 0.75645 0.8914 0.25214 0.0
H1472 H 0.7801 0.1988 0.29439 0.0
H1473 H 0.71729 0.16222 0.27663 0.0
H1474 H 0.73925 0.12669 0.27054 0.0
H1475 H 0.77624 0.10579 0.27038 0.0
H1476 H 0.83884 0.14173 0.28967 0.0
H1477 H 0.81693 0.17753 0.29558 0.0
C1478 C 0.77113 0.18301 0.28948 0.0
C1479 C 0.74703 0.18335 0.28582 0.0
C1480 C 0.78383 0.16245 0.28635 0.0
C1481 C 0.73585 0.16269 0.27913 0.0
C1482 C 0.74838 0.14227 0.27579 0.0
C1483 C 0.78508 0.12151 0.27576 0.0
C1484 C 0.80913 0.12114 0.27949 0.0
C1485 C 0.77237 0.14196 0.27926 0.0
C1486 C 0.82031 0.14153 0.28683 0.0
C1487 C 0.80781 0.16202 0.29012 0.0
H1488 H 0.42888 0.01068 1.00587 0.0
H1489 H 0.41629 0.01804 0.93237 0.0
H1490 H 0.38407 0.99078 0.93488 0.0
H1491 H 0.35923 0.96506 0.95794 0.0
H1492 H 0.37091 0.95868 0.03169 0.0
H1493 H 0.4037 0.98525 0.02905 0.0
C1494 C 0.41897 1.00646 0.99044 0.0
C1495 C 0.42507 0.01639 0.96897 0.0
C1496 C 0.40032 0.99088 0.99202 0.0
C1497 C 0.41222 0.01044 0.94907 0.0
C1498 C 0.39369 0.99494 0.95051 0.0
C1499 C 0.36882 0.96962 0.97348 0.0
C1500 C 0.36256 0.95983 0.99497 0.0
C1501 C 0.38755 0.98509 0.97189 0.0
C1502 C 0.37548 0.96567 0.01486 0.0
C1503 C 0.39417 0.98101 0.0134 0.0
H1504 H 0.28134 0.35497 0.27411 0.0
H1505 H 0.22718 0.30982 0.29907 0.0
H1506 H 0.199 0.341 0.29442 0.0
H1507 H 0.18956 0.38106 0.28278 0.0
H1508 H 0.24357 0.42561 0.25664 0.0
H1509 H 0.27182 0.39454 0.2617 0.0
C1510 C 0.26333 0.35181 0.27826 0.0
C1511 C 0.25648 0.33002 0.28696 0.0
C1512 C 0.24712 0.36971 0.27523 0.0
C1513 C 0.23307 0.32648 0.29266 0.0
C1514 C 0.21688 0.34427 0.28987 0.0
C1515 C 0.20754 0.38396 0.27832 0.0
C1516 C 0.21444 0.4056 0.26931 0.0
C1517 C 0.22371 0.36597 0.28119 0.0
C1518 C 0.23776 0.40904 0.26334 0.0
C1519 C 0.25395 0.39131 0.26634 0.0
H1520 H 0.07929 1.00572 0.50734 0.0
H1521 H 0.09711 0.99336 0.43581 0.0
H1522 H 0.12993 0.01996 0.43915 0.0
H1523 H 0.15376 0.04654 0.46249 0.0
H1524 H 0.1353 0.06006 0.53364 0.0
H1525 H 0.10253 0.0333 0.53042 0.0
C1526 C 0.09043 0.00885 0.49255 0.0
C1527 C 0.08586 0.99759 0.47139 0.0
C1528 C 0.10912 0.02438 0.49453 0.0
C1529 C 0.10022 1.00197 0.45223 0.0
C1530 C 0.11902 0.01709 0.45415 0.0
C1531 C 0.14258 0.04353 0.47729 0.0
C1532 C 0.14697 0.05514 0.4983 0.0
C1533 C 0.12366 0.02835 0.47522 0.0
C1534 C 0.13217 0.0514 0.51725 0.0
C1535 C 0.11351 0.03605 0.51544 0.0
H1536 H 0.76216 0.16817 0.70262 0.0
H1537 H 0.75258 0.19438 0.77199 0.0
H1538 H 0.72548 0.16289 0.78042 0.0
H1539 H 0.70543 0.12719 0.76848 0.0
H1540 H 0.71546 0.1006 0.69929 0.0
H1541 H 0.7415 0.13282 0.69043 0.0
C1542 C 0.7539 0.16711 0.71948 0.0
C1543 C 0.75933 0.18357 0.73665 0.0
C1544 C 0.73857 0.14878 0.7243 0.0
C1545 C 0.74878 0.18181 0.75854 0.0
C1546 C 0.73328 0.16384 0.76336 0.0
C1547 C 0.71315 0.12858 0.75139 0.0
C1548 C 0.70855 0.11147 0.7346 0.0
C1549 C 0.72819 0.14711 0.74644 0.0
C1550 C 0.71895 0.11336 0.71264 0.0
C1551 C 0.73374 0.13185 0.70751 0.0
H1552 H 0.41425 1.00407 0.56737 0.0
H1553 H 0.43412 1.00474 0.49519 0.0
H1554 H 0.40237 0.03114 0.48627 0.0
H1555 H 0.36884 0.05387 0.49883 0.0
H1556 H 0.35024 0.05491 0.57135 0.0
H1557 H 0.38164 0.02806 0.58019 0.0
C1558 C 0.41184 0.01019 0.54973 0.0
C1559 C 0.42657 1.00229 0.532 0.0
C1560 C 0.39371 0.02565 0.54473 0.0
C1561 C 0.42286 0.01017 0.50916 0.0
C1562 C 0.40479 0.02542 0.50404 0.0
C1563 C 0.3718 0.0485 0.51663 0.0
C1564 C 0.35707 0.05643 0.53435 0.0
C1565 C 0.39009 0.03325 0.52168 0.0
C1566 C 0.36101 0.04885 0.55726 0.0
C1567 C 0.37908 0.03359 0.56238 0.0
H1568 H 0.61381 0.53242 0.53083 0.0
H1569 H 0.56522 0.47728 0.54462 0.0
H1570 H 0.59555 0.44843 0.53842 0.0
H1571 H 0.63606 0.43889 0.52964 0.0
H1572 H 0.68465 0.49411 0.51606 0.0
H1573 H 0.65416 0.52288 0.52155 0.0
C1574 C 0.60982 0.51407 0.53224 0.0
C1575 C 0.5873 0.507 0.53816 0.0
C1576 C 0.62736 0.4976 0.52876 0.0
C1577 C 0.58248 0.48317 0.5403 0.0
C1578 C 0.59978 0.46667 0.53666 0.0
C1579 C 0.6399 0.45722 0.52767 0.0
C1580 C 0.66259 0.46434 0.52246 0.0
C1581 C 0.6223 0.47368 0.53096 0.0
C1582 C 0.66738 0.48818 0.5203 0.0
C1583 C 0.64994 0.50464 0.52334 0.0
H1584 H 0.73824 0.2306 0.3546 0.0
H1585 H 0.7249 0.28863 0.30902 0.0
H1586 H 0.73197 0.31553 0.34089 0.0
H1587 H 0.74114 0.32265 0.38185 0.0
H1588 H 0.75685 0.26474 0.42684 0.0
H1589 H 0.74972 0.23784 0.395 0.0
C1590 C 0.73721 0.24913 0.35149 0.0
C1591 C 0.73088 0.25747 0.32938 0.0
C1592 C 0.74162 0.26459 0.36984 0.0
C1593 C 0.72929 0.28161 0.32591 0.0
C1594 C 0.73349 0.29706 0.34411 0.0
C1595 C 0.74337 0.30418 0.38467 0.0
C1596 C 0.7494 0.29584 0.40687 0.0
C1597 C 0.73955 0.28875 0.36618 0.0
C1598 C 0.7518 0.27174 0.41013 0.0
C1599 C 0.74788 0.25629 0.39186 0.0
H1600 H 0.50055 0.01009 0.92984 0.0
H1601 H 0.49164 0.08339 0.91773 0.0
H1602 H 0.51708 0.08128 0.8839 0.0
H1603 H 0.54158 0.05841 0.85749 0.0
H1604 H 0.55119 0.98531 0.87035 0.0
H1605 H 0.52575 0.98747 0.9041 0.0
C1606 C 0.50413 0.02557 0.91972 0.0
C1607 C 0.49417 0.04684 0.92618 0.0
C1608 C 0.51888 0.02424 0.90043 0.0
C1609 C 0.49923 0.06685 0.91315 0.0
C1610 C 0.51367 0.06563 0.89377 0.0
C1611 C 0.53799 0.04297 0.86766 0.0
C1612 C 0.54817 0.02172 0.86143 0.0
C1613 C 0.52353 0.0444 0.88719 0.0
C1614 C 0.54367 1.00189 0.87491 0.0
C1615 C 0.52907 1.0031 0.89415 0.0
H1616 H 0.25061 0.25867 0.33164 0.0
H1617 H 0.32442 0.26434 0.34126 0.0
H1618 H 0.32223 0.23918 0.37537 0.0
H1619 H 0.29932 0.21563 0.40256 0.0
H1620 H 0.22543 0.21046 0.39321 0.0
H1621 H 0.22769 0.23534 0.35894 0.0
C1622 C 0.26619 0.25455 0.34132 0.0
C1623 C 0.28764 0.26341 0.33391 0.0
C1624 C 0.2648 0.24011 0.36094 0.0
C1625 C 0.30773 0.25757 0.34643 0.0
C1626 C 0.30647 0.24328 0.36601 0.0
C1627 C 0.28369 0.2201 0.39313 0.0
C1628 C 0.26224 0.21117 0.40046 0.0
C1629 C 0.2851 0.23447 0.37344 0.0
C1630 C 0.2422 0.21685 0.3878 0.0
C1631 C 0.24345 0.23119 0.36827 0.0
H1632 H 0.53862 0.48327 0.90954 0.0
H1633 H 0.48237 0.47813 0.95832 0.0
H1634 H 0.45443 0.4832 0.92683 0.0
H1635 H 0.44596 0.48937 0.88543 0.0
H1636 H 0.50221 0.4946 0.83665 0.0
H1637 H 0.53014 0.48918 0.86809 0.0
C1638 C 0.52025 0.48341 0.91328 0.0
C1639 C 0.5126 0.48036 0.93625 0.0
C1640 C 0.50427 0.4863 0.89508 0.0
C1641 C 0.48871 0.48022 0.94076 0.0
C1642 C 0.47273 0.48323 0.92278 0.0
C1643 C 0.46434 0.48947 0.88172 0.0
C1644 C 0.47198 0.49242 0.85873 0.0
C1645 C 0.48031 0.48633 0.89988 0.0
C1646 C 0.49585 0.49213 0.85415 0.0
C1647 C 0.51184 0.48916 0.87214 0.0
H1648 H 0.76294 0.75668 0.18952 0.0
H1649 H 0.6895 0.76356 0.1783 0.0
H1650 H 0.69196 0.73856 0.14415 0.0
H1651 H 0.7151 0.71541 0.11704 0.0
H1652 H 0.78841 0.70749 0.12906 0.0
H1653 H 0.78593 0.7326 0.16298 0.0
C1654 C 0.74751 0.7528 0.1795 0.0
C1655 C 0.72608 0.762 0.18641 0.0
C1656 C 0.74904 0.73833 0.15994 0.0
C1657 C 0.70617 0.75654 0.17346 0.0
C1658 C 0.70758 0.74233 0.15388 0.0
C1659 C 0.73051 0.71889 0.12722 0.0
C1660 C 0.75193 0.70956 0.12032 0.0
C1661 C 0.72893 0.73313 0.14695 0.0
C1662 C 0.77175 0.71469 0.13362 0.0
C1663 C 0.77033 0.72895 0.15316 0.0
H1664 H 0.98702 0.04296 0.07509 0.0
H1665 H 0.04835 0.03664 0.11743 0.0
H1666 H 0.02456 0.02968 0.15169 0.0
H1667 H 0.98639 0.02488 0.16959 0.0
H1668 H 0.92494 0.03189 0.1275 0.0
H1669 H 0.94871 0.03899 0.09323 0.0
C1670 C 0.99516 0.04029 0.09186 0.0
C1671 C 0.01944 0.04026 0.09366 0.0
C1672 C 0.98136 0.03629 0.11153 0.0
C1673 C 0.02972 0.03645 0.11548 0.0
C1674 C 0.01612 0.03257 0.13512 0.0
C1675 C 0.97817 0.0282 0.15297 0.0
C1676 C 0.95389 0.02781 0.15117 0.0
C1677 C 0.99194 0.03237 0.13334 0.0
C1678 C 0.94359 0.03176 0.12938 0.0
C1679 C 0.95716 0.03597 0.10977 0.0
H1680 H 0.27468 0.73498 0.16507 0.0
H1681 H 0.29049 0.79204 0.21088 0.0
H1682 H 0.28614 0.81936 0.17872 0.0
H1683 H 0.277 0.82719 0.13772 0.0
H1684 H 0.26092 0.77005 0.09208 0.0
H1685 H 0.26563 0.74276 0.12416 0.0
C1686 C 0.27698 0.75341 0.16809 0.0
C1687 C 0.28291 0.7614 0.1904 0.0
C1688 C 0.27423 0.76907 0.14956 0.0
C1689 C 0.28621 0.78534 0.19385 0.0
C1690 C 0.28358 0.80102 0.17549 0.0
C1691 C 0.27471 0.80875 0.13475 0.0
C1692 C 0.26852 0.80074 0.1125 0.0
C1693 C 0.27755 0.79309 0.15328 0.0
C1694 C 0.26533 0.77678 0.10907 0.0
C1695 C 0.26817 0.76111 0.12738 0.0
H1696 H 0.98334 0.4913 0.10141 0.0
H1697 H 0.04029 0.48205 0.0541 0.0
H1698 H 0.0678 0.48728 0.08591 0.0
H1699 H 0.07571 0.49387 0.12726 0.0
H1700 H 0.01887 0.5031 0.17469 0.0
H1701 H 0.99131 0.49846 0.14279 0.0
C1702 C 1.00178 0.49065 0.09806 0.0
C1703 C 0.00976 0.48626 0.07544 0.0
C1704 C 0.01752 0.49357 0.11646 0.0
C1705 C 0.0337 0.48515 0.07141 0.0
C1706 C 0.04945 0.48823 0.08956 0.0
C1707 C 0.0573 0.4951 0.13057 0.0
C1708 C 0.04937 0.49883 0.15333 0.0
C1709 C 0.04156 0.49236 0.11217 0.0
C1710 C 0.02543 0.49999 0.15739 0.0
C1711 C 0.00966 0.49745 0.13914 0.0
H1712 H 0.3512 0.73982 0.23582 0.0
H1713 H 0.30349 0.72992 0.29242 0.0
H1714 H 0.33518 0.7336 0.32034 0.0
H1715 H 0.37642 0.73987 0.32868 0.0
H1716 H 0.4242 0.74896 0.27192 0.0
H1717 H 0.39246 0.7459 0.24416 0.0
C1718 C 0.34772 0.73868 0.25428 0.0
C1719 C 0.32501 0.73461 0.26202 0.0
C1720 C 0.36602 0.74078 0.27023 0.0
C1721 C 0.32084 0.73282 0.28599 0.0
C1722 C 0.33894 0.73502 0.30197 0.0
C1723 C 0.37995 0.74098 0.31023 0.0
C1724 C 0.40273 0.74474 0.30248 0.0
C1725 C 0.36161 0.73893 0.29429 0.0
C1726 C 0.40684 0.74646 0.27847 0.0
C1727 C 0.3887 0.74455 0.26253 0.0
H1728 H 0.95047 0.42825 1.00548 0.0
H1729 H 0.02212 0.4488 1.0017 0.0
H1730 H 0.03051 0.41568 0.97677 0.0
H1731 H 0.01793 0.38009 0.95729 0.0
H1732 H 0.94631 0.35928 0.96071 0.0
H1733 H 0.93752 0.39314 0.9846 0.0
C1734 C 0.96784 0.42559 0.99895 0.0
C1735 C 0.98566 0.44088 1.00554 0.0
C1736 C 0.9726 0.40636 0.98472 0.0
C1737 C 0.00815 0.4371 0.99713 0.0
C1738 C 0.01296 0.41821 0.98282 0.0
C1739 C 1.00032 0.3831 0.96298 0.0
C1740 C 0.98283 0.36711 0.95721 0.0
C1741 C 0.99539 0.40259 0.9767 0.0
C1742 C 0.96019 0.37113 0.96513 0.0
C1743 C 0.95511 0.39057 0.97869 0.0
H1744 H 0.65989 0.77804 0.23498 0.0
H1745 H 0.7086 0.79013 0.29054 0.0
H1746 H 0.67795 0.78453 0.3191 0.0
H1747 H 0.63733 0.77581 0.32838 0.0
H1748 H 0.58882 0.76338 0.27272 0.0
H1749 H 0.61948 0.76894 0.24422 0.0
C1750 C 0.66388 0.77921 0.25334 0.0
C1751 C 0.68654 0.78455 0.26055 0.0
C1752 C 0.64621 0.77578 0.2697 0.0
C1753 C 0.69126 0.78637 0.28445 0.0
C1754 C 0.67377 0.78303 0.30082 0.0
C1755 C 0.63344 0.77447 0.31001 0.0
C1756 C 0.6108 0.76911 0.30274 0.0
C1757 C 0.65116 0.77777 0.29365 0.0
C1758 C 0.60614 0.76715 0.27885 0.0
C1759 C 0.62364 0.77047 0.2625 0.0
H1760 H 0.07247 0.09506 0.01587 0.0
H1761 H 1.00019 0.07677 0.0199 0.0
H1762 H 0.99048 0.10852 0.99355 0.0
H1763 H 1.00236 0.142 0.96996 0.0
H1764 H 0.07477 0.15957 0.96498 0.0
H1765 H 0.0845 0.12762 0.99106 0.0
C1766 C 0.05462 0.09781 0.01075 0.0
C1767 C 0.0371 0.08353 0.01995 0.0
C1768 C 0.04913 0.11608 0.9955 0.0
C1769 C 0.01401 0.08765 0.01337 0.0
C1770 C 0.00844 0.10576 0.9982 0.0
C1771 C 0.0203 0.13869 0.97432 0.0
C1772 C 0.03776 0.15331 0.96553 0.0
C1773 C 0.02584 0.12016 0.98924 0.0
C1774 C 0.0609 0.1489 0.97174 0.0
C1775 C 0.06652 0.13051 0.98656 0.0
H1776 H 0.35374 0.28244 0.28529 0.0
H1777 H 0.30431 0.29015 0.2296 0.0
H1778 H 0.3351 0.28525 0.20106 0.0
H1779 H 0.37604 0.27841 0.1919 0.0
H1780 H 0.42547 0.27109 0.24768 0.0
H1781 H 0.39465 0.27566 0.27613 0.0
C1782 C 0.34967 0.28284 0.26691 0.0
C1783 C 0.32674 0.28668 0.25962 0.0
C1784 C 0.36746 0.27996 0.25058 0.0
C1785 C 0.32184 0.28749 0.23571 0.0
C1786 C 0.33943 0.28458 0.21937 0.0
C1787 C 0.38011 0.27801 0.21027 0.0
C1788 C 0.40308 0.27433 0.21757 0.0
C1789 C 0.36231 0.28085 0.2266 0.0
C1790 C 0.40794 0.27353 0.24151 0.0
C1791 C 0.39033 0.2763 0.25783 0.0
H1792 H 0.53093 0.41258 0.98306 0.0
H1793 H 0.54513 0.46095 0.03834 0.0
H1794 H 0.53972 0.43011 0.06707 0.0
H1795 H 0.53105 0.38922 0.07644 0.0
H1796 H 0.51718 0.34101 0.0209 0.0
H1797 H 0.5223 0.37193 0.99236 0.0
C1798 C 0.53263 0.41641 1.00142 0.0
C1799 C 0.53833 0.43904 0.00856 0.0
C1800 C 0.52961 0.39859 0.01779 0.0
C1801 C 0.54091 0.44363 0.03238 0.0
C1802 C 0.53773 0.42603 0.04882 0.0
C1803 C 0.52901 0.38556 0.0581 0.0
C1804 C 0.52379 0.36284 0.05082 0.0
C1805 C 0.53208 0.40343 0.04172 0.0
C1806 C 0.52147 0.35828 0.02696 0.0
C1807 C 0.52428 0.37597 0.01062 0.0
H1808 H 0.66943 0.20066 0.2598 0.0
H1809 H 0.69082 0.27234 0.25647 0.0
H1810 H 0.65865 0.28104 0.23031 0.0
H1811 H 0.62457 0.26824 0.20818 0.0
H1812 H 0.60295 0.19661 0.21197 0.0
H1813 H 0.63543 0.18785 0.2376 0.0
C1814 C 0.66719 0.21814 0.25317 0.0
C1815 C 0.68253 0.23581 0.26012 0.0
C1816 C 0.64868 0.22301 0.23809 0.0
C1817 C 0.67913 0.25846 0.25164 0.0
C1818 C 0.6608 0.26343 0.23657 0.0
C1819 C 0.62684 0.25075 0.21475 0.0
C1820 C 0.61129 0.23313 0.20806 0.0
C1821 C 0.64543 0.24585 0.22973 0.0
C1822 C 0.61478 0.21047 0.21649 0.0
C1823 C 0.63328 0.20546 0.23132 0.0
H1824 H 0.47611 0.11238 0.97572 0.0
H1825 H 0.46265 0.06191 0.02943 0.0
H1826 H 0.46765 0.09177 0.05908 0.0
H1827 H 0.47592 0.13225 0.0698 0.0
H1828 H 0.49034 0.18241 0.01603 0.0
H1829 H 0.48491 0.15266 0.98644 0.0
C1830 C 0.47448 0.10786 0.99392 0.0
C1831 C 0.46901 0.08491 1.0003 0.0
C1832 C 0.47749 0.12508 0.0109 0.0
C1833 C 0.46658 0.07947 0.02399 0.0
C1834 C 0.46957 0.09652 0.04098 0.0
C1835 C 0.47807 0.13663 0.05162 0.0
C1836 C 0.48346 0.15959 0.0452 0.0
C1837 C 0.47504 0.11938 0.03464 0.0
C1838 C 0.48585 0.165 0.0215 0.0
C1839 C 0.48289 0.14795 1.00454 0.0
H1840 H 0.25831 0.33679 0.76268 0.0
H1841 H 0.25191 0.34551 0.68854 0.0
H1842 H 0.27782 0.37898 0.68998 0.0
H1843 H 0.30176 0.40623 0.71237 0.0
H1844 H 0.30816 0.39749 0.78651 0.0
H1845 H 0.28239 0.36394 0.78504 0.0
C1846 C 0.26243 0.34613 0.74686 0.0
C1847 C 0.25317 0.3386 0.72554 0.0
C1848 C 0.27725 0.36546 0.74782 0.0
C1849 C 0.259 0.35072 0.70516 0.0
C1850 C 0.27372 0.36995 0.70598 0.0
C1851 C 0.29771 0.39686 0.72818 0.0
C1852 C 0.30689 0.40445 0.74952 0.0
C1853 C 0.28295 0.37748 0.72721 0.0
C1854 C 0.30112 0.39226 0.76988 0.0
C1855 C 0.28648 0.37298 0.76905 0.0
H1856 H 0.28199 0.6987 0.79137 0.0
H1857 H 0.22005 0.65875 0.77886 0.0
H1858 H 0.24309 0.62357 0.77454 0.0
H1859 H 0.28079 0.60417 0.77389 0.0
H1860 H 0.34289 0.644 0.78599 0.0
H1861 H 0.3198 0.67904 0.79144 0.0
C1862 C 0.27353 0.68224 0.78795 0.0
C1863 C 0.24934 0.6814 0.78531 0.0
C1864 C 0.2869 0.66203 0.78547 0.0
C1865 C 0.23867 0.65996 0.78062 0.0
C1866 C 0.25182 0.6398 0.77826 0.0
C1867 C 0.28931 0.62054 0.77754 0.0
C1868 C 0.31356 0.62142 0.77944 0.0
C1869 C 0.27595 0.64066 0.78046 0.0
C1870 C 0.32425 0.64274 0.78465 0.0
C1871 C 0.31106 0.66283 0.78764 0.0
H1872 H 0.91931 0.52681 0.497 0.0
H1873 H 0.96493 0.47099 0.47728 0.0
H1874 H 0.93342 0.44318 0.48162 0.0
H1875 H 0.89274 0.43467 0.49033 0.0
H1876 H 0.84771 0.49018 0.5122 0.0
H1877 H 0.87918 0.518 0.50775 0.0
C1878 C 0.92249 0.50853 0.49394 0.0
C1879 C 0.94451 0.50114 0.48664 0.0
C1880 C 0.90434 0.49251 0.49676 0.0
C1881 C 0.9481 0.47735 0.48247 0.0
C1882 C 0.93011 0.46135 0.4851 0.0
C1883 C 0.88984 0.45279 0.49445 0.0
C1884 C 0.86773 0.46023 0.50143 0.0
C1885 C 0.90812 0.46874 0.49213 0.0
C1886 C 0.86435 0.48392 0.50634 0.0
C1887 C 0.88241 0.49987 0.50396 0.0
H1888 H 0.72863 0.82148 0.79711 0.0
H1889 H 0.79114 0.85941 0.78161 0.0
H1890 H 0.76878 0.89472 0.77549 0.0
H1891 H 0.73145 0.91476 0.7736 0.0
H1892 H 0.66884 0.87738 0.78964 0.0
H1893 H 0.69126 0.84211 0.79695 0.0
C1894 C 0.73738 0.83754 0.79269 0.0
C1895 C 0.76152 0.83768 0.78957 0.0
C1896 C 0.72439 0.85791 0.78929 0.0
C1897 C 0.77254 0.85866 0.78367 0.0
C1898 C 0.75978 0.87892 0.78027 0.0
C1899 C 0.72271 0.89886 0.7786 0.0
C1900 C 0.69852 0.89865 0.78092 0.0
C1901 C 0.73569 0.87869 0.78276 0.0
C1902 C 0.68747 0.87803 0.78785 0.0
C1903 C 0.70027 0.85783 0.79194 0.0
H1904 H 0.58086 0.5133 0.0132 0.0
H1905 H 0.59481 0.50071 0.94082 0.0
H1906 H 0.62885 0.52584 0.9428 0.0
H1907 H 0.65475 0.55133 0.96514 0.0
H1908 H 0.64057 0.56435 0.03741 0.0
H1909 H 0.60653 0.53921 0.03545 0.0
C1910 C 0.59146 0.51597 0.99792 0.0
C1911 C 0.58536 0.50513 0.97691 0.0
C1912 C 0.61092 0.53057 0.99915 0.0
C1913 C 0.59904 0.50901 0.95714 0.0
C1914 C 0.61855 0.5233 0.95829 0.0
C1915 C 0.64427 0.54854 0.98048 0.0
C1916 C 0.65021 0.55965 1.0014 0.0
C1917 C 0.62467 0.53415 0.9792 0.0
C1918 C 0.63625 0.55617 0.02104 0.0
C1919 C 0.61685 0.54171 0.01997 0.0
H1920 H 0.28044 0.66629 0.24462 0.0
H1921 H 0.2245 0.71179 0.22479 0.0
H1922 H 0.19706 0.67979 0.22849 0.0
H1923 H 0.18894 0.6388 0.23708 0.0
H1924 H 0.24468 0.59389 0.25881 0.0
H1925 H 0.27211 0.62579 0.25472 0.0
C1926 C 0.26221 0.66933 0.2414 0.0
C1927 C 0.25463 0.69148 0.23438 0.0
C1928 C 0.24645 0.65092 0.24383 0.0
C1929 C 0.23094 0.69489 0.22987 0.0
C1930 C 0.21518 0.67662 0.23213 0.0
C1931 C 0.20703 0.63603 0.24122 0.0
C1932 C 0.21467 0.61387 0.24814 0.0
C1933 C 0.22274 0.65455 0.23907 0.0
C1934 C 0.2383 0.61061 0.25305 0.0
C1935 C 0.25402 0.6289 0.25087 0.0
H1936 H 0.91353 0.48391 0.02398 0.0
H1937 H 0.96025 0.54105 0.03623 0.0
H1938 H 0.92861 0.56858 0.03108 0.0
H1939 H 0.88757 0.57651 0.02372 0.0
H1940 H 0.84066 0.51959 0.01125 0.0
H1941 H 0.87239 0.49196 0.01589 0.0
C1942 C 0.91679 0.5024 0.02533 0.0
C1943 C 0.93921 0.51038 0.0306 0.0
C1944 C 0.89846 0.51819 0.02239 0.0
C1945 C 0.9431 0.5344 0.03253 0.0
C1946 C 0.92504 0.55018 0.02947 0.0
C1947 C 0.88433 0.55807 0.02177 0.0
C1948 C 0.86175 0.55017 0.01713 0.0
C1949 C 0.90264 0.54228 0.02449 0.0
C1950 C 0.85781 0.52616 0.01506 0.0
C1951 C 0.87597 0.51034 0.0176 0.0
H1952 H 0.08316 0.01244 0.01002 0.0
H1953 H 0.09952 0.02033 0.0827 0.0
H1954 H 0.13254 0.99438 0.07846 0.0
H1955 H 0.15623 0.96871 0.05446 0.0
H1956 H 0.14074 0.96148 0.9815 0.0
H1957 H 0.10791 0.98776 0.98557 0.0
C1958 C 0.09412 0.0087 0.02486 0.0
C1959 C 0.08876 0.01824 0.04667 0.0
C1960 C 0.11316 0.99373 0.02231 0.0
C1961 C 0.10302 0.01297 0.06578 0.0
C1962 C 0.12197 0.99819 0.06337 0.0
C1963 C 0.14588 0.97308 0.03935 0.0
C1964 C 0.151 0.96302 0.01772 0.0
C1965 C 0.12712 0.98835 0.04176 0.0
C1966 C 0.13706 0.96864 0.99846 0.0
C1967 C 0.11834 0.98381 1.00073 0.0
loop_
_geom_bond_atom_site_label_1
_geom_bond_atom_site_label_2
_geom_bond_distance
_geom_bond_site_symmetry_2
_ccdc_geom_bond_type
H0 C3 0.931 . S
H1 C6 0.928 . S
H2 C8 0.965 . S
C3 H0 0.931 . S
C3 C4 1.413 . S
C3 C5 1.360 . S
C4 C3 1.413 . S
C4 C8 1.429 . S
C5 C3 1.360 . S
C5 C6 1.372 . S
C6 H1 0.928 . S
C6 C5 1.372 . S
C6 C7 1.404 . S
C7 C6 1.404 . S
C7 C8 1.391 . S
C8 H2 0.965 . S
C8 C4 1.429 . S
C8 C7 1.391 . S
H9 C12 0.931 . S
H10 C15 0.928 . S
H11 C17 0.930 . S
C12 H9 0.931 . S
C12 C13 1.413 . S
C12 C14 1.360 . S
C13 C12 1.413 . S
C13 C17 1.429 . S
C14 C12 1.360 . S
C14 C15 1.372 . S
C15 H10 0.928 . S
C15 C14 1.372 . S
C15 C16 1.404 . S
C16 C15 1.404 . S
C16 C17 1.391 . S
C17 H11 0.930 . S
C17 C13 1.429 . S
C17 C16 1.391 . S
H18 C21 0.931 . S
H19 C24 0.897 1_455 S
H20 C26 0.930 . S
C21 H18 0.931 . S
C21 C22 1.413 . S
C21 C23 1.360 . S
C22 C21 1.413 . S
C22 C26 1.429 . S
C23 C21 1.360 . S
C23 C24 1.372 . S
C24 H19 0.897 1_655 S
C24 C23 1.372 . S
C24 C25 1.404 . S
C25 C24 1.404 . S
C25 C26 1.391 . S
C26 H20 0.930 . S
C26 C22 1.429 . S
C26 C25 1.391 . S
H27 C30 0.931 . S
H28 C33 0.928 . S
H29 C35 0.930 . S
C30 H27 0.931 . S
C30 C31 1.413 . S
C30 C32 1.360 . S
C31 C30 1.413 . S
C31 C35 1.429 . S
C32 C30 1.360 . S
C32 C33 1.372 . S
C33 H28 0.928 . S
C33 C32 1.372 . S
C33 C34 1.404 . S
C34 C33 1.404 . S
C34 C35 1.391 . S
C35 H29 0.930 . S
C35 C31 1.429 . S
C35 C34 1.391 . S
H36 C39 0.931 . S
H37 C42 0.928 . S
H38 C44 0.930 . S
C39 H36 0.931 . S
C39 C40 1.413 . S
C39 C41 1.360 . S
C40 C39 1.413 . S
C40 C44 1.429 . S
C41 C39 1.360 . S
C41 C42 1.372 . S
C42 H37 0.928 . S
C42 C41 1.372 . S
C42 C43 1.404 . S
C43 C42 1.404 . S
C43 C44 1.391 . S
C44 H38 0.930 . S
C44 C40 1.429 . S
C44 C43 1.391 . S
H45 C48 0.931 . S
H46 C51 0.928 . S
H47 C53 0.930 . S
C48 H45 0.931 . S
C48 C49 1.413 . S
C48 C50 1.360 . S
C49 C48 1.413 . S
C49 C53 1.429 . S
C50 C48 1.360 . S
C50 C51 1.372 . S
C51 H46 0.928 . S
C51 C50 1.372 . S
C51 C52 1.404 . S
C52 C51 1.404 . S
C52 C53 1.391 . S
C53 H47 0.930 . S
C53 C49 1.429 . S
C53 C52 1.391 . S
H54 C57 0.931 . S
H55 C60 0.928 . S
H56 C62 0.930 . S
C57 H54 0.931 . S
C57 C58 1.413 . S
C57 C59 1.360 . S
C58 C57 1.413 . S
C58 C62 1.429 . S
C59 C57 1.360 . S
C59 C60 1.372 . S
C60 H55 0.928 . S
C60 C59 1.372 . S
C60 C61 1.404 . S
C61 C60 1.404 . S
C61 C62 1.391 . S
C62 H56 0.930 . S
C62 C58 1.429 . S
C62 C61 1.391 . S
H63 C66 0.931 . S
H64 C69 0.928 . S
H65 C71 0.930 . S
C66 H63 0.931 . S
C66 C67 1.413 . S
C66 C68 1.360 . S
C67 C66 1.413 . S
C67 C71 1.429 . S
C68 C66 1.360 . S
C68 C69 1.372 . S
C69 H64 0.928 . S
C69 C68 1.372 . S
C69 C70 1.404 . S
C70 C69 1.404 . S
C70 C71 1.391 . S
C71 H65 0.930 . S
C71 C67 1.429 . S
C71 C70 1.391 . S
H72 C75 0.931 . S
H73 C78 0.928 . S
H74 C80 0.930 . S
C75 H72 0.931 . S
C75 C76 1.413 . S
C75 C77 1.360 . S
C76 C75 1.413 . S
C76 C80 1.429 . S
C77 C75 1.360 . S
C77 C78 1.372 . S
C78 H73 0.928 . S
C78 C77 1.372 . S
C78 C79 1.404 . S
C79 C78 1.404 . S
C79 C80 1.391 . S
C80 H74 0.930 . S
C80 C76 1.429 . S
C80 C79 1.391 . S
H81 C84 0.931 . S
H82 C87 0.928 . S
H83 C89 0.930 . S
C84 H81 0.931 . S
C84 C85 1.413 . S
C84 C86 1.360 . S
C85 C84 1.413 . S
C85 C89 1.429 . S
C86 C84 1.360 . S
C86 C87 1.372 . S
C87 H82 0.928 . S
C87 C86 1.372 . S
C87 C88 1.404 . S
C88 C87 1.404 . S
C88 C89 1.391 . S
C89 H83 0.930 . S
C89 C85 1.429 . S
C89 C88 1.391 . S
H90 C93 0.931 . S
H91 C96 0.928 . S
H92 C98 0.930 . S
C93 H90 0.931 . S
C93 C94 1.413 . S
C93 C95 1.360 . S
C94 C93 1.413 . S
C94 C98 1.429 . S
C95 C93 1.360 . S
C95 C96 1.372 . S
C96 H91 0.928 . S
C96 C95 1.372 . S
C96 C97 1.404 . S
C97 C96 1.404 . S
C97 C98 1.391 . S
C98 H92 0.930 . S
C98 C94 1.429 . S
C98 C97 1.391 . S
H99 C102 0.931 . S
H100 C105 0.928 . S
H101 C107 0.930 . S
C102 H99 0.931 . S
C102 C103 1.413 . S
C102 C104 1.360 . S
C103 C102 1.413 . S
C103 C107 1.429 . S
C104 C102 1.360 . S
C104 C105 1.372 . S
C105 H100 0.928 . S
C105 C104 1.372 . S
C105 C106 1.404 . S
C106 C105 1.404 . S
C106 C107 1.391 . S
C107 H101 0.930 . S
C107 C103 1.429 . S
C107 C106 1.391 . S
H108 C111 0.931 . S
H109 C114 0.928 . S
H110 C116 0.930 . S
C111 H108 0.931 . S
C111 C112 1.413 . S
C111 C113 1.360 . S
C112 C111 1.413 . S
C112 C116 1.429 . S
C113 C111 1.360 . S
C113 C114 1.372 . S
C114 H109 0.928 . S
C114 C113 1.372 . S
C114 C115 1.404 . S
C115 C114 1.404 . S
C115 C116 1.391 . S
C116 H110 0.930 . S
C116 C112 1.429 . S
C116 C115 1.391 . S
H117 C120 0.931 . S
H118 C123 0.928 . S
H119 C125 0.898 1_554 S
C120 H117 0.931 . S
C120 C121 1.413 . S
C120 C122 1.360 . S
C121 C120 1.413 . S
C121 C125 1.429 . S
C122 C120 1.360 . S
C122 C123 1.372 . S
C123 H118 0.928 . S
C123 C122 1.372 . S
C123 C124 1.404 . S
C124 C123 1.404 . S
C124 C125 1.391 . S
C125 H119 0.898 1_556 S
C125 C121 1.429 . S
C125 C124 1.391 . S
H126 C129 0.931 . S
H127 C132 0.928 . S
H128 C134 0.930 . S
C129 H126 0.931 . S
C129 C130 1.413 . S
C129 C131 1.360 . S
C130 C129 1.413 . S
C130 C134 1.429 . S
C131 C129 1.360 . S
C131 C132 1.372 . S
C132 H127 0.928 . S
C132 C131 1.372 . S
C132 C133 1.404 . S
C133 C132 1.404 . S
C133 C134 1.391 . S
C134 H128 0.930 . S
C134 C130 1.429 . S
C134 C133 1.391 . S
H135 C138 0.955 . S
H136 C141 0.928 . S
H137 C143 0.930 . S
C138 H135 0.955 . S
C138 C139 1.413 . S
C138 C140 1.360 . S
C139 C138 1.413 . S
C139 C143 1.429 . S
C140 C138 1.360 . S
C140 C141 1.372 . S
C141 H136 0.928 . S
C141 C140 1.372 . S
C141 C142 1.404 . S
C142 C141 1.404 . S
C142 C143 1.391 . S
C143 H137 0.930 . S
C143 C139 1.429 . S
C143 C142 1.391 . S
Li144 N161 1.990 . S
Li144 O204 1.956 . S
Li144 O205 1.970 1_556 S
Li144 O206 1.961 . S
Li145 N169 1.990 . S
Li145 O204 1.970 1_554 S
Li145 O205 1.956 . S
Li145 O207 1.961 . S
Li146 N191 1.990 . S
Li146 O204 1.961 . S
Li146 O206 1.956 . S
Li146 O207 1.970 1_556 S
Li147 N197 1.990 . S
Li147 O205 1.961 . S
Li147 O206 1.970 1_554 S
Li147 O207 1.956 . S
C148 C150 1.348 1_556 S
C148 C151 1.356 . S
C148 O204 1.325 . S
N149 C152 1.314 1_556 S
N149 C153 1.279 . S
C150 C148 1.348 1_554 S
C150 C152 1.353 . S
C150 H208 0.929 . S
C151 C148 1.356 . S
C151 C153 1.358 . S
C151 H209 0.930 . S
C152 N149 1.314 1_554 S
C152 C150 1.353 . S
C152 H210 0.930 . S
C153 N149 1.279 . S
C153 C151 1.358 . S
C153 H211 0.930 . S
C154 C157 1.348 . S
C154 C158 1.356 . S
C154 O205 1.325 . S
C155 N156 1.279 . S
C155 C158 1.358 . S
C155 H212 0.930 . S
N156 C155 1.279 . S
N156 C159 1.314 . S
C157 C154 1.348 . S
C157 C159 1.353 . S
C157 H213 0.929 . S
C158 C154 1.356 . S
C158 C155 1.358 . S
C158 H214 0.930 . S
C159 N156 1.314 . S
C159 C157 1.353 . S
C159 H215 0.930 . S
C160 N161 1.314 . S
C160 C165 1.353 . S
C160 H166 0.930 . S
N161 Li144 1.990 . S
N161 C160 1.314 . S
N161 C163 1.279 . S
C162 C163 1.358 . S
C162 C164 1.356 . S
C162 H216 0.930 . S
C163 N161 1.279 . S
C163 C162 1.358 . S
C163 H167 0.930 . S
C164 C162 1.356 . S
C164 C165 1.348 . S
C165 C160 1.353 . S
C165 C164 1.348 . S
C165 H217 0.929 . S
H166 C160 0.930 . S
H167 C163 0.930 . S
C168 N169 1.314 . S
C168 C170 1.353 . S
C168 H174 0.930 . S
N169 Li145 1.990 . S
N169 C168 1.314 . S
N169 C172 1.279 . S
C170 C168 1.353 . S
C170 C173 1.348 . S
C170 H218 0.929 . S
C171 C172 1.358 . S
C171 C173 1.356 . S
C171 H219 0.930 . S
C172 N169 1.279 . S
C172 C171 1.358 . S
C172 H175 0.930 . S
C173 C170 1.348 . S
C173 C171 1.356 . S
H174 C168 0.930 . S
H175 C172 0.930 . S
C176 C178 1.348 . S
C176 C179 1.356 . S
C176 O206 1.325 . S
N177 C180 1.314 . S
N177 C181 1.279 . S
C178 C176 1.348 . S
C178 C180 1.353 . S
C178 H220 0.929 . S
C179 C176 1.356 . S
C179 C181 1.358 . S
C179 H221 0.930 . S
C180 N177 1.314 . S
C180 C178 1.353 . S
C180 H222 0.930 . S
C181 N177 1.279 . S
C181 C179 1.358 . S
C181 H223 0.930 . S
C182 C183 1.348 1_554 S
C182 C184 1.356 . S
C182 O207 1.325 . S
C183 C182 1.348 1_556 S
C183 C185 1.353 . S
C183 H224 0.929 . S
C184 C182 1.356 . S
C184 C186 1.358 . S
C184 H225 0.930 . S
C185 C183 1.353 . S
C185 N187 1.314 1_556 S
C185 H226 0.930 . S
C186 C184 1.358 . S
C186 N187 1.279 . S
C186 H227 0.930 . S
N187 C185 1.314 1_554 S
N187 C186 1.279 . S
C188 C190 1.353 . S
C188 N191 1.314 . S
C188 H194 0.930 . S
C189 N191 1.279 . S
C189 C192 1.358 . S
C189 H195 0.930 . S
C190 C188 1.353 . S
C190 C193 1.348 . S
C190 H228 0.929 . S
N191 Li146 1.990 . S
N191 C188 1.314 . S
N191 C189 1.279 . S
C192 C189 1.358 . S
C192 C193 1.356 . S
C192 H229 0.930 . S
C193 C190 1.348 . S
C193 C192 1.356 . S
H194 C188 0.930 . S
H195 C189 0.930 . S
C196 N197 1.314 . S
C196 C198 1.353 . S
C196 H202 0.930 . S
N197 Li147 1.990 . S
N197 C196 1.314 . S
N197 C200 1.279 . S
C198 C196 1.353 . S
C198 C201 1.348 . S
C198 H230 0.929 . S
C199 C200 1.358 . S
C199 C201 1.356 . S
C199 H231 0.930 . S
C200 N197 1.279 . S
C200 C199 1.358 . S
C200 H203 0.930 . S
C201 C198 1.348 . S
C201 C199 1.356 . S
H202 C196 0.930 . S
H203 C200 0.930 . S
O204 Li144 1.956 . S
O204 Li145 1.970 1_556 S
O204 Li146 1.961 . S
O204 C148 1.325 . S
O205 Li144 1.970 1_554 S
O205 Li145 1.956 . S
O205 Li147 1.961 . S
O205 C154 1.325 . S
O206 Li144 1.961 . S
O206 Li146 1.956 . S
O206 Li147 1.970 1_556 S
O206 C176 1.325 . S
O207 Li145 1.961 . S
O207 Li146 1.970 1_554 S
O207 Li147 1.956 . S
O207 C182 1.325 . S
H208 C150 0.929 . S
H209 C151 0.930 . S
H210 C152 0.930 . S
H211 C153 0.930 . S
H212 C155 0.930 . S
H213 C157 0.929 . S
H214 C158 0.930 . S
H215 C159 0.930 . S
H216 C162 0.930 . S
H217 C165 0.929 . S
H218 C170 0.929 . S
H219 C171 0.930 . S
H220 C178 0.929 . S
H221 C179 0.930 . S
H222 C180 0.930 . S
H223 C181 0.930 . S
H224 C183 0.929 . S
H225 C184 0.930 . S
H226 C185 0.930 . S
H227 C186 0.930 . S
H228 C190 0.929 . S
H229 C192 0.930 . S
H230 C198 0.929 . S
H231 C199 0.930 . S
Li232 N249 1.990 . S
Li232 O292 1.956 . S
Li232 O293 1.970 . S
Li232 O294 1.961 . S
Li233 N257 1.990 . S
Li233 O292 1.970 . S
Li233 O293 1.956 . S
Li233 O295 1.961 . S
Li234 N279 1.990 . S
Li234 O292 1.961 . S
Li234 O294 1.956 . S
Li234 O295 1.970 . S
Li235 N285 1.990 . S
Li235 O293 1.961 . S
Li235 O294 1.970 . S
Li235 O295 1.956 . S
C236 C238 1.348 . S
C236 C239 1.356 . S
C236 O292 1.325 . S
N237 C240 1.314 . S
N237 C241 1.279 . S
C238 C236 1.348 . S
C238 C240 1.353 . S
C238 H296 0.929 . S
C239 C236 1.356 . S
C239 C241 1.358 . S
C239 H297 0.930 . S
C240 N237 1.314 . S
C240 C238 1.353 . S
C240 H298 0.930 . S
C241 N237 1.279 . S
C241 C239 1.358 . S
C241 H299 0.930 . S
C242 C245 1.348 . S
C242 C246 1.356 . S
C242 O293 1.325 . S
C243 N244 1.279 . S
C243 C246 1.358 . S
C243 H300 0.930 . S
N244 C243 1.279 . S
N244 C247 1.314 . S
C245 C242 1.348 . S
C245 C247 1.353 . S
C245 H301 0.929 . S
C246 C242 1.356 . S
C246 C243 1.358 . S
C246 H302 0.930 . S
C247 N244 1.314 . S
C247 C245 1.353 . S
C247 H303 0.930 . S
C248 N249 1.314 . S
C248 C253 1.353 . S
C248 H254 0.930 . S
N249 Li232 1.990 . S
N249 C248 1.314 . S
N249 C251 1.279 . S
C250 C251 1.358 . S
C250 C252 1.356 . S
C250 H304 0.930 . S
C251 N249 1.279 . S
C251 C250 1.358 . S
C251 H255 0.930 . S
C252 C250 1.356 . S
C252 C253 1.348 . S
C253 C248 1.353 . S
C253 C252 1.348 . S
C253 H305 0.929 . S
H254 C248 0.930 . S
H255 C251 0.930 . S
C256 N257 1.314 . S
C256 C258 1.353 . S
C256 H262 0.930 . S
N257 Li233 1.990 . S
N257 C256 1.314 . S
N257 C260 1.279 . S
C258 C256 1.353 . S
C258 C261 1.348 . S
C258 H306 0.929 . S
C259 C260 1.358 . S
C259 C261 1.356 . S
C259 H307 0.930 . S
C260 N257 1.279 . S
C260 C259 1.358 . S
C260 H263 0.930 . S
C261 C258 1.348 . S
C261 C259 1.356 . S
H262 C256 0.930 . S
H263 C260 0.930 . S
C264 C266 1.348 . S
C264 C267 1.356 . S
C264 O294 1.325 . S
N265 C268 1.314 . S
N265 C269 1.279 . S
C266 C264 1.348 . S
C266 C268 1.353 . S
C266 H308 0.929 . S
C267 C264 1.356 . S
C267 C269 1.358 . S
C267 H309 0.930 . S
C268 N265 1.314 . S
C268 C266 1.353 . S
C268 H310 0.930 . S
C269 N265 1.279 . S
C269 C267 1.358 . S
C269 H311 0.930 . S
C270 C271 1.348 . S
C270 C272 1.356 . S
C270 O295 1.325 . S
C271 C270 1.348 . S
C271 C273 1.353 . S
C271 H312 0.929 . S
C272 C270 1.356 . S
C272 C274 1.358 . S
C272 H313 0.930 . S
C273 C271 1.353 . S
C273 N275 1.314 . S
C273 H314 0.930 . S
C274 C272 1.358 . S
C274 N275 1.279 . S
C274 H315 0.930 . S
N275 C273 1.314 . S
N275 C274 1.279 . S
C276 C278 1.353 . S
C276 N279 1.314 . S
C276 H282 0.930 . S
C277 N279 1.279 . S
C277 C280 1.358 . S
C277 H283 0.930 . S
C278 C276 1.353 . S
C278 C281 1.348 . S
C278 H316 0.929 . S
N279 Li234 1.990 . S
N279 C276 1.314 . S
N279 C277 1.279 . S
C280 C277 1.358 . S
C280 C281 1.356 . S
C280 H317 0.930 . S
C281 C278 1.348 . S
C281 C280 1.356 . S
H282 C276 0.930 . S
H283 C277 0.930 . S
C284 N285 1.314 . S
C284 C286 1.353 . S
C284 H290 0.930 . S
N285 Li235 1.990 . S
N285 C284 1.314 . S
N285 C288 1.279 . S
C286 C284 1.353 . S
C286 C289 1.348 . S
C286 H318 0.929 . S
C287 C288 1.358 . S
C287 C289 1.356 . S
C287 H319 0.930 . S
C288 N285 1.279 . S
C288 C287 1.358 . S
C288 H291 0.930 . S
C289 C286 1.348 . S
C289 C287 1.356 . S
H290 C284 0.930 . S
H291 C288 0.930 . S
O292 Li232 1.956 . S
O292 Li233 1.970 . S
O292 Li234 1.961 . S
O292 C236 1.325 . S
O293 Li232 1.970 . S
O293 Li233 1.956 . S
O293 Li235 1.961 . S
O293 C242 1.325 . S
O294 Li232 1.961 . S
O294 Li234 1.956 . S
O294 Li235 1.970 . S
O294 C264 1.325 . S
O295 Li233 1.961 . S
O295 Li234 1.970 . S
O295 Li235 1.956 . S
O295 C270 1.325 . S
H296 C238 0.929 . S
H297 C239 0.930 . S
H298 C240 0.930 . S
H299 C241 0.930 . S
H300 C243 0.930 . S
H301 C245 0.929 . S
H302 C246 0.930 . S
H303 C247 0.930 . S
H304 C250 0.930 . S
H305 C253 0.929 . S
H306 C258 0.929 . S
H307 C259 0.930 . S
H308 C266 0.929 . S
H309 C267 0.930 . S
H310 C268 0.930 . S
H311 C269 0.930 . S
H312 C271 0.929 . S
H313 C272 0.930 . S
H314 C273 0.930 . S
H315 C274 0.930 . S
H316 C278 0.929 . S
H317 C280 0.930 . S
H318 C286 0.929 . S
H319 C287 0.930 . S
Li320 N337 1.990 . S
Li320 O380 1.956 . S
Li320 O381 1.970 1_556 S
Li320 O382 1.961 . S
Li321 N345 1.990 . S
Li321 O380 1.970 1_554 S
Li321 O381 1.956 . S
Li321 O383 1.961 . S
Li322 N367 1.990 . S
Li322 O380 1.961 . S
Li322 O382 1.956 . S
Li322 O383 1.970 1_556 S
Li323 N373 1.990 . S
Li323 O381 1.961 . S
Li323 O382 1.970 1_554 S
Li323 O383 1.956 . S
C324 C326 1.348 1_556 S
C324 C327 1.356 . S
C324 O380 1.325 . S
N325 C328 1.314 1_556 S
N325 C329 1.279 . S
C326 C324 1.348 1_554 S
C326 C328 1.353 . S
C326 H384 0.929 . S
C327 C324 1.356 . S
C327 C329 1.358 . S
C327 H385 0.930 . S
C328 N325 1.314 1_554 S
C328 C326 1.353 . S
C328 H386 0.930 . S
C329 N325 1.279 . S
C329 C327 1.358 . S
C329 H387 0.930 . S
C330 C333 1.348 . S
C330 C334 1.356 . S
C330 O381 1.325 . S
C331 N332 1.279 . S
C331 C334 1.358 . S
C331 H388 0.930 . S
N332 C331 1.279 . S
N332 C335 1.314 . S
C333 C330 1.348 . S
C333 C335 1.353 . S
C333 H389 0.929 . S
C334 C330 1.356 . S
C334 C331 1.358 . S
C334 H390 0.930 . S
C335 N332 1.314 . S
C335 C333 1.353 . S
C335 H391 0.930 . S
C336 N337 1.314 . S
C336 C341 1.353 . S
C336 H342 0.930 . S
N337 Li320 1.990 . S
N337 C336 1.314 . S
N337 C339 1.279 . S
C338 C339 1.358 . S
C338 C340 1.356 . S
C338 H392 0.930 . S
C339 N337 1.279 . S
C339 C338 1.358 . S
C339 H343 0.930 . S
C340 C338 1.356 . S
C340 C341 1.348 . S
C341 C336 1.353 . S
C341 C340 1.348 . S
C341 H393 0.929 . S
H342 C336 0.930 . S
H343 C339 0.930 . S
C344 N345 1.314 . S
C344 C346 1.353 . S
C344 H350 0.930 . S
N345 Li321 1.990 . S
N345 C344 1.314 . S
N345 C348 1.279 . S
C346 C344 1.353 . S
C346 C349 1.348 . S
C346 H394 0.929 . S
C347 C348 1.358 . S
C347 C349 1.356 . S
C347 H395 0.930 . S
C348 N345 1.279 . S
C348 C347 1.358 . S
C348 H351 0.930 . S
C349 C346 1.348 . S
C349 C347 1.356 . S
H350 C344 0.930 . S
H351 C348 0.930 . S
C352 C354 1.348 . S
C352 C355 1.356 . S
C352 O382 1.325 . S
N353 C356 1.314 . S
N353 C357 1.279 . S
C354 C352 1.348 . S
C354 C356 1.353 . S
C354 H396 0.929 . S
C355 C352 1.356 . S
C355 C357 1.358 . S
C355 H397 0.930 . S
C356 N353 1.314 . S
C356 C354 1.353 . S
C356 H398 0.930 . S
C357 N353 1.279 . S
C357 C355 1.358 . S
C357 H399 0.930 . S
C358 C359 1.348 1_554 S
C358 C360 1.356 . S
C358 O383 1.325 . S
C359 C358 1.348 1_556 S
C359 C361 1.353 . S
C359 H400 0.929 . S
C360 C358 1.356 . S
C360 C362 1.358 . S
C360 H401 0.930 . S
C361 C359 1.353 . S
C361 N363 1.314 1_556 S
C361 H402 0.930 . S
C362 C360 1.358 . S
C362 N363 1.279 . S
C362 H403 0.930 . S
N363 C361 1.314 1_554 S
N363 C362 1.279 . S
C364 C366 1.353 . S
C364 N367 1.314 . S
C364 H370 0.930 . S
C365 N367 1.279 . S
C365 C368 1.358 . S
C365 H371 0.930 . S
C366 C364 1.353 . S
C366 C369 1.348 . S
C366 H404 0.929 . S
N367 Li322 1.990 . S
N367 C364 1.314 . S
N367 C365 1.279 . S
C368 C365 1.358 . S
C368 C369 1.356 . S
C368 H405 0.930 . S
C369 C366 1.348 . S
C369 C368 1.356 . S
H370 C364 0.930 . S
H371 C365 0.930 . S
C372 N373 1.314 . S
C372 C374 1.353 . S
C372 H378 0.930 . S
N373 Li323 1.990 . S
N373 C372 1.314 . S
N373 C376 1.279 . S
C374 C372 1.353 . S
C374 C377 1.348 . S
C374 H406 0.929 . S
C375 C376 1.358 . S
C375 C377 1.356 . S
C375 H407 0.930 . S
C376 N373 1.279 . S
C376 C375 1.358 . S
C376 H379 0.930 . S
C377 C374 1.348 . S
C377 C375 1.356 . S
H378 C372 0.930 . S
H379 C376 0.930 . S
O380 Li320 1.956 . S
O380 Li321 1.970 1_556 S
O380 Li322 1.961 . S
O380 C324 1.325 . S
O381 Li320 1.970 1_554 S
O381 Li321 1.956 . S
O381 Li323 1.961 . S
O381 C330 1.325 . S
O382 Li320 1.961 . S
O382 Li322 1.956 . S
O382 Li323 1.970 1_556 S
O382 C352 1.325 . S
O383 Li321 1.961 . S
O383 Li322 1.970 1_554 S
O383 Li323 1.956 . S
O383 C358 1.325 . S
H384 C326 0.929 . S
H385 C327 0.930 . S
H386 C328 0.930 . S
H387 C329 0.930 . S
H388 C331 0.930 . S
H389 C333 0.929 . S
H390 C334 0.930 . S
H391 C335 0.930 . S
H392 C338 0.930 . S
H393 C341 0.929 . S
H394 C346 0.929 . S
H395 C347 0.930 . S
H396 C354 0.929 . S
H397 C355 0.930 . S
H398 C356 0.930 . S
H399 C357 0.930 . S
H400 C359 0.929 . S
H401 C360 0.930 . S
H402 C361 0.930 . S
H403 C362 0.930 . S
H404 C366 0.929 . S
H405 C368 0.930 . S
H406 C374 0.929 . S
H407 C375 0.930 . S
Li408 N425 1.990 . S
Li408 O468 1.956 . S
Li408 O469 1.970 1_545 S
Li408 O470 1.961 . S
Li409 N433 1.990 . S
Li409 O468 1.970 1_565 S
Li409 O469 1.956 . S
Li409 O471 1.961 . S
Li410 N455 1.990 . S
Li410 O468 1.961 . S
Li410 O470 1.956 . S
Li410 O471 1.970 1_545 S
Li411 N461 1.990 . S
Li411 O469 1.961 . S
Li411 O470 1.970 1_565 S
Li411 O471 1.956 . S
C412 C414 1.348 . S
C412 C415 1.356 . S
C412 O468 1.325 . S
N413 C416 1.314 . S
N413 C417 1.279 . S
C414 C412 1.348 . S
C414 C416 1.353 . S
C414 H472 0.929 . S
C415 C412 1.356 . S
C415 C417 1.358 . S
C415 H473 0.930 . S
C416 N413 1.314 . S
C416 C414 1.353 . S
C416 H474 0.930 . S
C417 N413 1.279 . S
C417 C415 1.358 . S
C417 H475 0.930 . S
C418 C421 1.348 1_565 S
C418 C422 1.356 . S
C418 O469 1.325 . S
C419 N420 1.279 . S
C419 C422 1.358 . S
C419 H476 0.930 . S
N420 C419 1.279 . S
N420 C423 1.314 1_565 S
C421 C418 1.348 1_545 S
C421 C423 1.353 . S
C421 H477 0.929 . S
C422 C418 1.356 . S
C422 C419 1.358 . S
C422 H478 0.930 . S
C423 N420 1.314 1_545 S
C423 C421 1.353 . S
C423 H479 0.930 . S
C424 N425 1.314 . S
C424 C429 1.353 . S
C424 H430 0.930 . S
N425 Li408 1.990 . S
N425 C424 1.314 . S
N425 C427 1.279 . S
C426 C427 1.358 . S
C426 C428 1.356 . S
C426 H480 0.930 . S
C427 N425 1.279 . S
C427 C426 1.358 . S
C427 H431 0.930 . S
C428 C426 1.356 . S
C428 C429 1.348 . S
C429 C424 1.353 . S
C429 C428 1.348 . S
C429 H481 0.929 . S
H430 C424 0.930 . S
H431 C427 0.930 . S
C432 N433 1.314 . S
C432 C434 1.353 . S
C432 H438 0.930 . S
N433 Li409 1.990 . S
N433 C432 1.314 . S
N433 C436 1.279 . S
C434 C432 1.353 . S
C434 C437 1.348 . S
C434 H482 0.929 . S
C435 C436 1.358 . S
C435 C437 1.356 . S
C435 H483 0.930 . S
C436 N433 1.279 . S
C436 C435 1.358 . S
C436 H439 0.930 . S
C437 C434 1.348 . S
C437 C435 1.356 . S
H438 C432 0.930 . S
H439 C436 0.930 . S
C440 C442 1.348 1_545 S
C440 C443 1.356 . S
C440 O470 1.325 . S
N441 C444 1.314 1_545 S
N441 C445 1.279 . S
C442 C440 1.348 1_565 S
C442 C444 1.353 . S
C442 H484 0.929 . S
C443 C440 1.356 . S
C443 C445 1.358 . S
C443 H485 0.930 . S
C444 N441 1.314 1_565 S
C444 C442 1.353 . S
C444 H486 0.930 . S
C445 N441 1.279 . S
C445 C443 1.358 . S
C445 H487 0.930 . S
C446 C447 1.348 . S
C446 C448 1.356 . S
C446 O471 1.325 . S
C447 C446 1.348 . S
C447 C449 1.353 . S
C447 H488 0.929 . S
C448 C446 1.356 . S
C448 C450 1.358 . S
C448 H489 0.930 . S
C449 C447 1.353 . S
C449 N451 1.314 . S
C449 H490 0.930 . S
C450 C448 1.358 . S
C450 N451 1.279 . S
C450 H491 0.930 . S
N451 C449 1.314 . S
N451 C450 1.279 . S
C452 C454 1.353 . S
C452 N455 1.314 . S
C452 H458 0.930 . S
C453 N455 1.279 . S
C453 C456 1.358 . S
C453 H459 0.930 . S
C454 C452 1.353 . S
C454 C457 1.348 . S
C454 H492 0.929 . S
N455 Li410 1.990 . S
N455 C452 1.314 . S
N455 C453 1.279 . S
C456 C453 1.358 . S
C456 C457 1.356 . S
C456 H493 0.930 . S
C457 C454 1.348 . S
C457 C456 1.356 . S
H458 C452 0.930 . S
H459 C453 0.930 . S
C460 N461 1.314 . S
C460 C462 1.353 . S
C460 H466 0.930 . S
N461 Li411 1.990 . S
N461 C460 1.314 . S
N461 C464 1.279 . S
C462 C460 1.353 . S
C462 C465 1.348 . S
C462 H494 0.929 . S
C463 C464 1.358 . S
C463 C465 1.356 . S
C463 H495 0.930 . S
C464 N461 1.279 . S
C464 C463 1.358 . S
C464 H467 0.930 . S
C465 C462 1.348 . S
C465 C463 1.356 . S
H466 C460 0.930 . S
H467 C464 0.930 . S
O468 Li408 1.956 . S
O468 Li409 1.970 1_545 S
O468 Li410 1.961 . S
O468 C412 1.325 . S
O469 Li408 1.970 1_565 S
O469 Li409 1.956 . S
O469 Li411 1.961 . S
O469 C418 1.325 . S
O470 Li408 1.961 . S
O470 Li410 1.956 . S
O470 Li411 1.970 1_545 S
O470 C440 1.325 . S
O471 Li409 1.961 . S
O471 Li410 1.970 1_565 S
O471 Li411 1.956 . S
O471 C446 1.325 . S
H472 C414 0.929 . S
H473 C415 0.930 . S
H474 C416 0.930 . S
H475 C417 0.930 . S
H476 C419 0.930 . S
H477 C421 0.929 . S
H478 C422 0.930 . S
H479 C423 0.930 . S
H480 C426 0.930 . S
H481 C429 0.929 . S
H482 C434 0.929 . S
H483 C435 0.930 . S
H484 C442 0.929 . S
H485 C443 0.930 . S
H486 C444 0.930 . S
H487 C445 0.930 . S
H488 C447 0.929 . S
H489 C448 0.930 . S
H490 C449 0.930 . S
H491 C450 0.930 . S
H492 C454 0.929 . S
H493 C456 0.930 . S
H494 C462 0.929 . S
H495 C463 0.930 . S
Li496 N513 1.990 . S
Li496 O556 1.956 . S
Li496 O557 1.970 . S
Li496 O558 1.961 . S
Li497 N521 1.990 . S
Li497 O556 1.970 . S
Li497 O557 1.956 . S
Li497 O559 1.961 . S
Li498 N543 1.990 . S
Li498 O556 1.961 . S
Li498 O558 1.956 . S
Li498 O559 1.970 . S
Li499 N549 1.990 . S
Li499 O557 1.961 . S
Li499 O558 1.970 . S
Li499 O559 1.956 . S
C500 C502 1.348 . S
C500 C503 1.356 . S
C500 O556 1.325 . S
N501 C504 1.314 . S
N501 C505 1.279 . S
C502 C500 1.348 . S
C502 C504 1.353 . S
C502 H560 0.929 . S
C503 C500 1.356 . S
C503 C505 1.358 . S
C503 H561 0.930 . S
C504 N501 1.314 . S
C504 C502 1.353 . S
C504 H562 0.930 . S
C505 N501 1.279 . S
C505 C503 1.358 . S
C505 H563 0.930 . S
C506 C509 1.348 . S
C506 C510 1.356 . S
C506 O557 1.325 . S
C507 N508 1.279 . S
C507 C510 1.358 . S
C507 H564 0.930 . S
N508 C507 1.279 . S
N508 C511 1.314 . S
C509 C506 1.348 . S
C509 C511 1.353 . S
C509 H565 0.929 . S
C510 C506 1.356 . S
C510 C507 1.358 . S
C510 H566 0.930 . S
C511 N508 1.314 . S
C511 C509 1.353 . S
C511 H567 0.930 . S
C512 N513 1.314 . S
C512 C517 1.353 . S
C512 H518 0.930 . S
N513 Li496 1.990 . S
N513 C512 1.314 . S
N513 C515 1.279 . S
C514 C515 1.358 . S
C514 C516 1.356 . S
C514 H568 0.930 . S
C515 N513 1.279 . S
C515 C514 1.358 . S
C515 H519 0.930 . S
C516 C514 1.356 . S
C516 C517 1.348 . S
C517 C512 1.353 . S
C517 C516 1.348 . S
C517 H569 0.929 . S
H518 C512 0.930 . S
H519 C515 0.930 . S
C520 N521 1.314 . S
C520 C522 1.353 . S
C520 H526 0.930 . S
N521 Li497 1.990 . S
N521 C520 1.314 . S
N521 C524 1.279 . S
C522 C520 1.353 . S
C522 C525 1.348 . S
C522 H570 0.929 . S
C523 C524 1.358 . S
C523 C525 1.356 . S
C523 H571 0.930 . S
C524 N521 1.279 . S
C524 C523 1.358 . S
C524 H527 0.930 . S
C525 C522 1.348 . S
C525 C523 1.356 . S
H526 C520 0.930 . S
H527 C524 0.930 . S
C528 C530 1.348 . S
C528 C531 1.356 . S
C528 O558 1.325 . S
N529 C532 1.314 . S
N529 C533 1.279 . S
C530 C528 1.348 . S
C530 C532 1.353 . S
C530 H572 0.929 . S
C531 C528 1.356 . S
C531 C533 1.358 . S
C531 H573 0.930 . S
C532 N529 1.314 . S
C532 C530 1.353 . S
C532 H574 0.930 . S
C533 N529 1.279 . S
C533 C531 1.358 . S
C533 H575 0.930 . S
C534 C535 1.348 . S
C534 C536 1.356 . S
C534 O559 1.325 . S
C535 C534 1.348 . S
C535 C537 1.353 . S
C535 H576 0.929 . S
C536 C534 1.356 . S
C536 C538 1.358 . S
C536 H577 0.930 . S
C537 C535 1.353 . S
C537 N539 1.314 . S
C537 H578 0.930 . S
C538 C536 1.358 . S
C538 N539 1.279 . S
C538 H579 0.930 . S
N539 C537 1.314 . S
N539 C538 1.279 . S
C540 C542 1.353 . S
C540 N543 1.314 . S
C540 H546 0.930 . S
C541 N543 1.279 . S
C541 C544 1.358 . S
C541 H547 0.930 . S
C542 C540 1.353 . S
C542 C545 1.348 . S
C542 H580 0.929 . S
N543 Li498 1.990 . S
N543 C540 1.314 . S
N543 C541 1.279 . S
C544 C541 1.358 . S
C544 C545 1.356 . S
C544 H581 0.930 . S
C545 C542 1.348 . S
C545 C544 1.356 . S
H546 C540 0.930 . S
H547 C541 0.930 . S
C548 N549 1.314 . S
C548 C550 1.353 . S
C548 H554 0.930 . S
N549 Li499 1.990 . S
N549 C548 1.314 . S
N549 C552 1.279 . S
C550 C548 1.353 . S
C550 C553 1.348 . S
C550 H582 0.929 . S
C551 C552 1.358 . S
C551 C553 1.356 . S
C551 H583 0.930 . S
C552 N549 1.279 . S
C552 C551 1.358 . S
C552 H555 0.930 . S
C553 C550 1.348 . S
C553 C551 1.356 . S
H554 C548 0.930 . S
H555 C552 0.930 . S
O556 Li496 1.956 . S
O556 Li497 1.970 . S
O556 Li498 1.961 . S
O556 C500 1.325 . S
O557 Li496 1.970 . S
O557 Li497 1.956 . S
O557 Li499 1.961 . S
O557 C506 1.325 . S
O558 Li496 1.961 . S
O558 Li498 1.956 . S
O558 Li499 1.970 . S
O558 C528 1.325 . S
O559 Li497 1.961 . S
O559 Li498 1.970 . S
O559 Li499 1.956 . S
O559 C534 1.325 . S
H560 C502 0.929 . S
H561 C503 0.930 . S
H562 C504 0.930 . S
H563 C505 0.930 . S
H564 C507 0.930 . S
H565 C509 0.929 . S
H566 C510 0.930 . S
H567 C511 0.930 . S
H568 C514 0.930 . S
H569 C517 0.929 . S
H570 C522 0.929 . S
H571 C523 0.930 . S
H572 C530 0.929 . S
H573 C531 0.930 . S
H574 C532 0.930 . S
H575 C533 0.930 . S
H576 C535 0.929 . S
H577 C536 0.930 . S
H578 C537 0.930 . S
H579 C538 0.930 . S
H580 C542 0.929 . S
H581 C544 0.930 . S
H582 C550 0.929 . S
H583 C551 0.930 . S
Li584 N601 1.990 . S
Li584 O644 1.956 . S
Li584 O645 1.970 . S
Li584 O646 1.961 . S
Li585 N609 1.990 . S
Li585 O644 1.970 . S
Li585 O645 1.956 . S
Li585 O647 1.961 . S
Li586 N631 1.990 . S
Li586 O644 1.961 . S
Li586 O646 1.956 . S
Li586 O647 1.970 . S
Li587 N637 1.990 . S
Li587 O645 1.961 . S
Li587 O646 1.970 . S
Li587 O647 1.956 . S
C588 C590 1.348 . S
C588 C591 1.356 . S
C588 O644 1.325 . S
N589 C592 1.314 . S
N589 C593 1.279 . S
C590 C588 1.348 . S
C590 C592 1.353 . S
C590 H648 0.929 . S
C591 C588 1.356 . S
C591 C593 1.358 . S
C591 H649 0.930 . S
C592 N589 1.314 . S
C592 C590 1.353 . S
C592 H650 0.930 . S
C593 N589 1.279 . S
C593 C591 1.358 . S
C593 H651 0.930 . S
C594 C597 1.348 . S
C594 C598 1.356 . S
C594 O645 1.325 . S
C595 N596 1.279 . S
C595 C598 1.358 . S
C595 H652 0.930 . S
N596 C595 1.279 . S
N596 C599 1.314 . S
C597 C594 1.348 . S
C597 C599 1.353 . S
C597 H653 0.929 . S
C598 C594 1.356 . S
C598 C595 1.358 . S
C598 H654 0.930 . S
C599 N596 1.314 . S
C599 C597 1.353 . S
C599 H655 0.930 . S
C600 N601 1.314 . S
C600 C605 1.353 . S
C600 H606 0.930 . S
N601 Li584 1.990 . S
N601 C600 1.314 . S
N601 C603 1.279 . S
C602 C603 1.358 . S
C602 C604 1.356 . S
C602 H656 0.930 . S
C603 N601 1.279 . S
C603 C602 1.358 . S
C603 H607 0.930 . S
C604 C602 1.356 . S
C604 C605 1.348 . S
C605 C600 1.353 . S
C605 C604 1.348 . S
C605 H657 0.929 . S
H606 C600 0.930 . S
H607 C603 0.930 . S
C608 N609 1.314 . S
C608 C610 1.353 . S
C608 H614 0.930 . S
N609 Li585 1.990 . S
N609 C608 1.314 . S
N609 C612 1.279 . S
C610 C608 1.353 . S
C610 C613 1.348 . S
C610 H658 0.929 . S
C611 C612 1.358 . S
C611 C613 1.356 . S
C611 H659 0.930 . S
C612 N609 1.279 . S
C612 C611 1.358 . S
C612 H615 0.930 . S
C613 C610 1.348 . S
C613 C611 1.356 . S
H614 C608 0.930 . S
H615 C612 0.930 . S
C616 C618 1.348 . S
C616 C619 1.356 . S
C616 O646 1.325 . S
N617 C620 1.314 . S
N617 C621 1.279 . S
C618 C616 1.348 . S
C618 C620 1.353 . S
C618 H660 0.929 . S
C619 C616 1.356 . S
C619 C621 1.358 . S
C619 H661 0.930 . S
C620 N617 1.314 . S
C620 C618 1.353 . S
C620 H662 0.930 . S
C621 N617 1.279 . S
C621 C619 1.358 . S
C621 H663 0.930 . S
C622 C623 1.348 . S
C622 C624 1.356 . S
C622 O647 1.325 . S
C623 C622 1.348 . S
C623 C625 1.353 . S
C623 H664 0.929 . S
C624 C622 1.356 . S
C624 C626 1.358 . S
C624 H665 0.930 . S
C625 C623 1.353 . S
C625 N627 1.314 . S
C625 H666 0.930 . S
C626 C624 1.358 . S
C626 N627 1.279 . S
C626 H667 0.930 . S
N627 C625 1.314 . S
N627 C626 1.279 . S
C628 C630 1.353 . S
C628 N631 1.314 . S
C628 H634 0.930 . S
C629 N631 1.279 . S
C629 C632 1.358 . S
C629 H635 0.930 . S
C630 C628 1.353 . S
C630 C633 1.348 . S
C630 H668 0.929 . S
N631 Li586 1.990 . S
N631 C628 1.314 . S
N631 C629 1.279 . S
C632 C629 1.358 . S
C632 C633 1.356 . S
C632 H669 0.930 . S
C633 C630 1.348 . S
C633 C632 1.356 . S
H634 C628 0.930 . S
H635 C629 0.930 . S
C636 N637 1.314 . S
C636 C638 1.353 . S
C636 H642 0.930 . S
N637 Li587 1.990 . S
N637 C636 1.314 . S
N637 C640 1.279 . S
C638 C636 1.353 . S
C638 C641 1.348 . S
C638 H670 0.929 . S
C639 C640 1.358 . S
C639 C641 1.356 . S
C639 H671 0.930 . S
C640 N637 1.279 . S
C640 C639 1.358 . S
C640 H643 0.930 . S
C641 C638 1.348 . S
C641 C639 1.356 . S
H642 C636 0.930 . S
H643 C640 0.930 . S
O644 Li584 1.956 . S
O644 Li585 1.970 . S
O644 Li586 1.961 . S
O644 C588 1.325 . S
O645 Li584 1.970 . S
O645 Li585 1.956 . S
O645 Li587 1.961 . S
O645 C594 1.325 . S
O646 Li584 1.961 . S
O646 Li586 1.956 . S
O646 Li587 1.970 . S
O646 C616 1.325 . S
O647 Li585 1.961 . S
O647 Li586 1.970 . S
O647 Li587 1.956 . S
O647 C622 1.325 . S
H648 C590 0.929 . S
H649 C591 0.930 . S
H650 C592 0.930 . S
H651 C593 0.930 . S
H652 C595 0.930 . S
H653 C597 0.929 . S
H654 C598 0.930 . S
H655 C599 0.930 . S
H656 C602 0.930 . S
H657 C605 0.929 . S
H658 C610 0.929 . S
H659 C611 0.930 . S
H660 C618 0.929 . S
H661 C619 0.930 . S
H662 C620 0.930 . S
H663 C621 0.930 . S
H664 C623 0.929 . S
H665 C624 0.930 . S
H666 C625 0.930 . S
H667 C626 0.930 . S
H668 C630 0.929 . S
H669 C632 0.930 . S
H670 C638 0.929 . S
H671 C639 0.930 . S
Li672 N689 1.990 . S
Li672 O732 1.956 . S
Li672 O733 1.970 . S
Li672 O734 1.961 . S
Li673 N697 1.990 . S
Li673 O732 1.970 . S
Li673 O733 1.956 . S
Li673 O735 1.961 . S
Li674 N719 1.990 . S
Li674 O732 1.961 . S
Li674 O734 1.956 . S
Li674 O735 1.970 . S
Li675 N725 1.990 . S
Li675 O733 1.961 . S
Li675 O734 1.970 . S
Li675 O735 1.956 . S
C676 C678 1.348 . S
C676 C679 1.356 . S
C676 O732 1.325 . S
N677 C680 1.314 . S
N677 C681 1.279 . S
C678 C676 1.348 . S
C678 C680 1.353 . S
C678 H736 0.929 . S
C679 C676 1.356 . S
C679 C681 1.358 . S
C679 H737 0.930 . S
C680 N677 1.314 . S
C680 C678 1.353 . S
C680 H738 0.930 . S
C681 N677 1.279 . S
C681 C679 1.358 . S
C681 H739 0.930 . S
C682 C685 1.348 . S
C682 C686 1.356 . S
C682 O733 1.325 . S
C683 N684 1.279 . S
C683 C686 1.358 . S
C683 H740 0.930 . S
N684 C683 1.279 . S
N684 C687 1.314 . S
C685 C682 1.348 . S
C685 C687 1.353 . S
C685 H741 0.929 . S
C686 C682 1.356 . S
C686 C683 1.358 . S
C686 H742 0.930 . S
C687 N684 1.314 . S
C687 C685 1.353 . S
C687 H743 0.930 . S
C688 N689 1.314 . S
C688 C693 1.353 . S
C688 H694 0.930 . S
N689 Li672 1.990 . S
N689 C688 1.314 . S
N689 C691 1.279 . S
C690 C691 1.358 . S
C690 C692 1.356 . S
C690 H744 0.930 . S
C691 N689 1.279 . S
C691 C690 1.358 . S
C691 H695 0.930 . S
C692 C690 1.356 . S
C692 C693 1.348 . S
C693 C688 1.353 . S
C693 C692 1.348 . S
C693 H745 0.929 . S
H694 C688 0.930 . S
H695 C691 0.930 . S
C696 N697 1.314 . S
C696 C698 1.353 . S
C696 H702 0.930 . S
N697 Li673 1.990 . S
N697 C696 1.314 . S
N697 C700 1.279 . S
C698 C696 1.353 . S
C698 C701 1.348 . S
C698 H746 0.929 . S
C699 C700 1.358 . S
C699 C701 1.356 . S
C699 H747 0.930 . S
C700 N697 1.279 . S
C700 C699 1.358 . S
C700 H703 0.930 . S
C701 C698 1.348 . S
C701 C699 1.356 . S
H702 C696 0.930 . S
H703 C700 0.930 . S
C704 C706 1.348 . S
C704 C707 1.356 . S
C704 O734 1.325 . S
N705 C708 1.314 . S
N705 C709 1.279 . S
C706 C704 1.348 . S
C706 C708 1.353 . S
C706 H748 0.929 . S
C707 C704 1.356 . S
C707 C709 1.358 . S
C707 H749 0.930 . S
C708 N705 1.314 . S
C708 C706 1.353 . S
C708 H750 0.930 . S
C709 N705 1.279 . S
C709 C707 1.358 . S
C709 H751 0.930 . S
C710 C711 1.348 . S
C710 C712 1.356 . S
C710 O735 1.325 . S
C711 C710 1.348 . S
C711 C713 1.353 . S
C711 H752 0.929 . S
C712 C710 1.356 . S
C712 C714 1.358 . S
C712 H753 0.930 . S
C713 C711 1.353 . S
C713 N715 1.314 . S
C713 H754 0.930 . S
C714 C712 1.358 . S
C714 N715 1.279 . S
C714 H755 0.930 . S
N715 C713 1.314 . S
N715 C714 1.279 . S
C716 C718 1.353 . S
C716 N719 1.314 . S
C716 H722 0.930 . S
C717 N719 1.279 . S
C717 C720 1.358 . S
C717 H723 0.930 . S
C718 C716 1.353 . S
C718 C721 1.348 . S
C718 H756 0.929 . S
N719 Li674 1.990 . S
N719 C716 1.314 . S
N719 C717 1.279 . S
C720 C717 1.358 . S
C720 C721 1.356 . S
C720 H757 0.930 . S
C721 C718 1.348 . S
C721 C720 1.356 . S
H722 C716 0.930 . S
H723 C717 0.930 . S
C724 N725 1.314 . S
C724 C726 1.353 . S
C724 H730 0.930 . S
N725 Li675 1.990 . S
N725 C724 1.314 . S
N725 C728 1.279 . S
C726 C724 1.353 . S
C726 C729 1.348 . S
C726 H758 0.929 . S
C727 C728 1.358 . S
C727 C729 1.356 . S
C727 H759 0.930 . S
C728 N725 1.279 . S
C728 C727 1.358 . S
C728 H731 0.930 . S
C729 C726 1.348 . S
C729 C727 1.356 . S
H730 C724 0.930 . S
H731 C728 0.930 . S
O732 Li672 1.956 . S
O732 Li673 1.970 . S
O732 Li674 1.961 . S
O732 C676 1.325 . S
O733 Li672 1.970 . S
O733 Li673 1.956 . S
O733 Li675 1.961 . S
O733 C682 1.325 . S
O734 Li672 1.961 . S
O734 Li674 1.956 . S
O734 Li675 1.970 . S
O734 C704 1.325 . S
O735 Li673 1.961 . S
O735 Li674 1.970 . S
O735 Li675 1.956 . S
O735 C710 1.325 . S
H736 C678 0.929 . S
H737 C679 0.930 . S
H738 C680 0.930 . S
H739 C681 0.930 . S
H740 C683 0.930 . S
H741 C685 0.929 . S
H742 C686 0.930 . S
H743 C687 0.930 . S
H744 C690 0.930 . S
H745 C693 0.929 . S
H746 C698 0.929 . S
H747 C699 0.930 . S
H748 C706 0.929 . S
H749 C707 0.930 . S
H750 C708 0.930 . S
H751 C709 0.930 . S
H752 C711 0.929 . S
H753 C712 0.930 . S
H754 C713 0.930 . S
H755 C714 0.930 . S
H756 C718 0.929 . S
H757 C720 0.930 . S
H758 C726 0.929 . S
H759 C727 0.930 . S
Li760 N777 1.990 . S
Li760 O820 1.956 . S
Li760 O821 1.970 1_565 S
Li760 O822 1.961 . S
Li761 N785 1.990 . S
Li761 O820 1.970 1_545 S
Li761 O821 1.956 . S
Li761 O823 1.961 . S
Li762 N807 1.990 . S
Li762 O820 1.961 . S
Li762 O822 1.956 . S
Li762 O823 1.970 1_565 S
Li763 N813 1.990 . S
Li763 O821 1.961 . S
Li763 O822 1.970 1_545 S
Li763 O823 1.956 . S
C764 C766 1.348 . S
C764 C767 1.356 . S
C764 O820 1.325 . S
N765 C768 1.314 . S
N765 C769 1.279 . S
C766 C764 1.348 . S
C766 C768 1.353 . S
C766 H824 0.929 . S
C767 C764 1.356 . S
C767 C769 1.358 . S
C767 H825 0.930 . S
C768 N765 1.314 . S
C768 C766 1.353 . S
C768 H826 0.930 . S
C769 N765 1.279 . S
C769 C767 1.358 . S
C769 H827 0.930 . S
C770 C773 1.348 1_545 S
C770 C774 1.356 . S
C770 O821 1.325 . S
C771 N772 1.279 . S
C771 C774 1.358 . S
C771 H828 0.930 . S
N772 C771 1.279 . S
N772 C775 1.314 1_545 S
C773 C770 1.348 1_565 S
C773 C775 1.353 . S
C773 H829 0.929 . S
C774 C770 1.356 . S
C774 C771 1.358 . S
C774 H830 0.930 . S
C775 N772 1.314 1_565 S
C775 C773 1.353 . S
C775 H831 0.930 . S
C776 N777 1.314 . S
C776 C781 1.353 . S
C776 H782 0.930 . S
N777 Li760 1.990 . S
N777 C776 1.314 . S
N777 C779 1.279 . S
C778 C779 1.358 . S
C778 C780 1.356 . S
C778 H832 0.930 . S
C779 N777 1.279 . S
C779 C778 1.358 . S
C779 H783 0.930 . S
C780 C778 1.356 . S
C780 C781 1.348 . S
C781 C776 1.353 . S
C781 C780 1.348 . S
C781 H833 0.929 . S
H782 C776 0.930 . S
H783 C779 0.930 . S
C784 N785 1.314 . S
C784 C786 1.353 . S
C784 H790 0.930 . S
N785 Li761 1.990 . S
N785 C784 1.314 . S
N785 C788 1.279 . S
C786 C784 1.353 . S
C786 C789 1.348 . S
C786 H834 0.929 . S
C787 C788 1.358 . S
C787 C789 1.356 . S
C787 H835 0.930 . S
C788 N785 1.279 . S
C788 C787 1.358 . S
C788 H791 0.930 . S
C789 C786 1.348 . S
C789 C787 1.356 . S
H790 C784 0.930 . S
H791 C788 0.930 . S
C792 C794 1.348 1_565 S
C792 C795 1.356 . S
C792 O822 1.325 . S
N793 C796 1.314 1_565 S
N793 C797 1.279 . S
C794 C792 1.348 1_545 S
C794 C796 1.353 . S
C794 H836 0.929 . S
C795 C792 1.356 . S
C795 C797 1.358 . S
C795 H837 0.930 . S
C796 N793 1.314 1_545 S
C796 C794 1.353 . S
C796 H838 0.930 . S
C797 N793 1.279 . S
C797 C795 1.358 . S
C797 H839 0.930 . S
C798 C799 1.348 . S
C798 C800 1.356 . S
C798 O823 1.325 . S
C799 C798 1.348 . S
C799 C801 1.353 . S
C799 H840 0.929 . S
C800 C798 1.356 . S
C800 C802 1.358 . S
C800 H841 0.930 . S
C801 C799 1.353 . S
C801 N803 1.314 . S
C801 H842 0.930 . S
C802 C800 1.358 . S
C802 N803 1.279 . S
C802 H843 0.930 . S
N803 C801 1.314 . S
N803 C802 1.279 . S
C804 C806 1.353 . S
C804 N807 1.314 . S
C804 H810 0.930 . S
C805 N807 1.279 . S
C805 C808 1.358 . S
C805 H811 0.930 . S
C806 C804 1.353 . S
C806 C809 1.348 . S
C806 H844 0.929 . S
N807 Li762 1.990 . S
N807 C804 1.314 . S
N807 C805 1.279 . S
C808 C805 1.358 . S
C808 C809 1.356 . S
C808 H845 0.930 . S
C809 C806 1.348 . S
C809 C808 1.356 . S
H810 C804 0.930 . S
H811 C805 0.930 . S
C812 N813 1.314 . S
C812 C814 1.353 . S
C812 H818 0.930 . S
N813 Li763 1.990 . S
N813 C812 1.314 . S
N813 C816 1.279 . S
C814 C812 1.353 . S
C814 C817 1.348 . S
C814 H846 0.929 . S
C815 C816 1.358 . S
C815 C817 1.356 . S
C815 H847 0.930 . S
C816 N813 1.279 . S
C816 C815 1.358 . S
C816 H819 0.930 . S
C817 C814 1.348 . S
C817 C815 1.356 . S
H818 C812 0.930 . S
H819 C816 0.930 . S
O820 Li760 1.956 . S
O820 Li761 1.970 1_565 S
O820 Li762 1.961 . S
O820 C764 1.325 . S
O821 Li760 1.970 1_545 S
O821 Li761 1.956 . S
O821 Li763 1.961 . S
O821 C770 1.325 . S
O822 Li760 1.961 . S
O822 Li762 1.956 . S
O822 Li763 1.970 1_565 S
O822 C792 1.325 . S
O823 Li761 1.961 . S
O823 Li762 1.970 1_545 S
O823 Li763 1.956 . S
O823 C798 1.325 . S
H824 C766 0.929 . S
H825 C767 0.930 . S
H826 C768 0.930 . S
H827 C769 0.930 . S
H828 C771 0.930 . S
H829 C773 0.929 . S
H830 C774 0.930 . S
H831 C775 0.930 . S
H832 C778 0.930 . S
H833 C781 0.929 . S
H834 C786 0.929 . S
H835 C787 0.930 . S
H836 C794 0.929 . S
H837 C795 0.930 . S
H838 C796 0.930 . S
H839 C797 0.930 . S
H840 C799 0.929 . S
H841 C800 0.930 . S
H842 C801 0.930 . S
H843 C802 0.930 . S
H844 C806 0.929 . S
H845 C808 0.930 . S
H846 C814 0.929 . S
H847 C815 0.930 . S
Li848 N865 1.990 . S
Li848 O908 1.956 . S
Li848 O909 1.970 1_455 S
Li848 O910 1.961 . S
Li849 N873 1.990 . S
Li849 O908 1.970 1_655 S
Li849 O909 1.956 . S
Li849 O911 1.961 . S
Li850 N895 1.990 . S
Li850 O908 1.961 . S
Li850 O910 1.956 . S
Li850 O911 1.970 1_455 S
Li851 N901 1.990 . S
Li851 O909 1.961 . S
Li851 O910 1.970 1_655 S
Li851 O911 1.956 . S
C852 C854 1.348 . S
C852 C855 1.356 . S
C852 O908 1.325 . S
N853 C856 1.314 . S
N853 C857 1.279 . S
C854 C852 1.348 . S
C854 C856 1.353 . S
C854 H912 0.929 . S
C855 C852 1.356 . S
C855 C857 1.358 . S
C855 H913 0.930 . S
C856 N853 1.314 . S
C856 C854 1.353 . S
C856 H914 0.930 . S
C857 N853 1.279 . S
C857 C855 1.358 . S
C857 H915 0.930 . S
C858 C861 1.348 1_655 S
C858 C862 1.356 . S
C858 O909 1.325 . S
C859 N860 1.279 . S
C859 C862 1.358 . S
C859 H916 0.930 . S
N860 C859 1.279 . S
N860 C863 1.314 1_655 S
C861 C858 1.348 1_455 S
C861 C863 1.353 . S
C861 H917 0.929 . S
C862 C858 1.356 . S
C862 C859 1.358 . S
C862 H918 0.930 . S
C863 N860 1.314 1_455 S
C863 C861 1.353 . S
C863 H919 0.930 . S
C864 N865 1.314 . S
C864 C869 1.353 . S
C864 H870 0.930 . S
N865 Li848 1.990 . S
N865 C864 1.314 . S
N865 C867 1.279 . S
C866 C867 1.358 . S
C866 C868 1.356 . S
C866 H920 0.930 . S
C867 N865 1.279 . S
C867 C866 1.358 . S
C867 H871 0.930 . S
C868 C866 1.356 . S
C868 C869 1.348 . S
C869 C864 1.353 . S
C869 C868 1.348 . S
C869 H921 0.929 . S
H870 C864 0.930 . S
H871 C867 0.930 . S
C872 N873 1.314 . S
C872 C874 1.353 . S
C872 H878 0.930 . S
N873 Li849 1.990 . S
N873 C872 1.314 . S
N873 C876 1.279 . S
C874 C872 1.353 . S
C874 C877 1.348 . S
C874 H922 0.929 . S
C875 C876 1.358 . S
C875 C877 1.356 . S
C875 H923 0.930 . S
C876 N873 1.279 . S
C876 C875 1.358 . S
C876 H879 0.930 . S
C877 C874 1.348 . S
C877 C875 1.356 . S
H878 C872 0.930 . S
H879 C876 0.930 . S
C880 C882 1.348 1_455 S
C880 C883 1.356 . S
C880 O910 1.325 . S
N881 C884 1.314 1_455 S
N881 C885 1.279 . S
C882 C880 1.348 1_655 S
C882 C884 1.353 . S
C882 H924 0.929 . S
C883 C880 1.356 . S
C883 C885 1.358 . S
C883 H925 0.930 . S
C884 N881 1.314 1_655 S
C884 C882 1.353 . S
C884 H926 0.930 . S
C885 N881 1.279 . S
C885 C883 1.358 . S
C885 H927 0.930 . S
C886 C887 1.348 . S
C886 C888 1.356 . S
C886 O911 1.325 . S
C887 C886 1.348 . S
C887 C889 1.353 . S
C887 H928 0.929 . S
C888 C886 1.356 . S
C888 C890 1.358 . S
C888 H929 0.930 . S
C889 C887 1.353 . S
C889 N891 1.314 . S
C889 H930 0.930 . S
C890 C888 1.358 . S
C890 N891 1.279 . S
C890 H931 0.930 . S
N891 C889 1.314 . S
N891 C890 1.279 . S
C892 C894 1.353 . S
C892 N895 1.314 . S
C892 H898 0.930 . S
C893 N895 1.279 . S
C893 C896 1.358 . S
C893 H899 0.930 . S
C894 C892 1.353 . S
C894 C897 1.348 . S
C894 H932 0.929 . S
N895 Li850 1.990 . S
N895 C892 1.314 . S
N895 C893 1.279 . S
C896 C893 1.358 . S
C896 C897 1.356 . S
C896 H933 0.930 . S
C897 C894 1.348 . S
C897 C896 1.356 . S
H898 C892 0.930 . S
H899 C893 0.930 . S
C900 N901 1.314 . S
C900 C902 1.353 . S
C900 H906 0.930 . S
N901 Li851 1.990 . S
N901 C900 1.314 . S
N901 C904 1.279 . S
C902 C900 1.353 . S
C902 C905 1.348 . S
C902 H934 0.929 . S
C903 C904 1.358 . S
C903 C905 1.356 . S
C903 H935 0.930 . S
C904 N901 1.279 . S
C904 C903 1.358 . S
C904 H907 0.930 . S
C905 C902 1.348 . S
C905 C903 1.356 . S
H906 C900 0.930 . S
H907 C904 0.930 . S
O908 Li848 1.956 . S
O908 Li849 1.970 1_455 S
O908 Li850 1.961 . S
O908 C852 1.325 . S
O909 Li848 1.970 1_655 S
O909 Li849 1.956 . S
O909 Li851 1.961 . S
O909 C858 1.325 . S
O910 Li848 1.961 . S
O910 Li850 1.956 . S
O910 Li851 1.970 1_455 S
O910 C880 1.325 . S
O911 Li849 1.961 . S
O911 Li850 1.970 1_655 S
O911 Li851 1.956 . S
O911 C886 1.325 . S
H912 C854 0.929 . S
H913 C855 0.930 . S
H914 C856 0.930 . S
H915 C857 0.930 . S
H916 C859 0.930 . S
H917 C861 0.929 . S
H918 C862 0.930 . S
H919 C863 0.930 . S
H920 C866 0.930 . S
H921 C869 0.929 . S
H922 C874 0.929 . S
H923 C875 0.930 . S
H924 C882 0.929 . S
H925 C883 0.930 . S
H926 C884 0.930 . S
H927 C885 0.930 . S
H928 C887 0.929 . S
H929 C888 0.930 . S
H930 C889 0.930 . S
H931 C890 0.930 . S
H932 C894 0.929 . S
H933 C896 0.930 . S
H934 C902 0.929 . S
H935 C903 0.930 . S
Li936 N953 1.990 . S
Li936 O996 1.956 . S
Li936 O997 1.970 . S
Li936 O998 1.961 . S
Li937 N961 1.990 . S
Li937 O996 1.970 . S
Li937 O997 1.956 . S
Li937 O999 1.961 . S
Li938 N983 1.990 . S
Li938 O996 1.961 . S
Li938 O998 1.956 . S
Li938 O999 1.970 . S
Li939 N989 1.990 . S
Li939 O997 1.961 . S
Li939 O998 1.970 . S
Li939 O999 1.956 . S
C940 C942 1.348 . S
C940 C943 1.356 . S
C940 O996 1.325 . S
N941 C944 1.314 . S
N941 C945 1.279 . S
C942 C940 1.348 . S
C942 C944 1.353 . S
C942 H1000 0.929 . S
C943 C940 1.356 . S
C943 C945 1.358 . S
C943 H1001 0.930 . S
C944 N941 1.314 . S
C944 C942 1.353 . S
C944 H1002 0.930 . S
C945 N941 1.279 . S
C945 C943 1.358 . S
C945 H1003 0.930 . S
C946 C949 1.348 . S
C946 C950 1.356 . S
C946 O997 1.325 . S
C947 N948 1.279 . S
C947 C950 1.358 . S
C947 H1004 0.930 . S
N948 C947 1.279 . S
N948 C951 1.314 . S
C949 C946 1.348 . S
C949 C951 1.353 . S
C949 H1005 0.929 . S
C950 C946 1.356 . S
C950 C947 1.358 . S
C950 H1006 0.930 . S
C951 N948 1.314 . S
C951 C949 1.353 . S
C951 H1007 0.930 . S
C952 N953 1.314 . S
C952 C957 1.353 . S
C952 H958 0.930 . S
N953 Li936 1.990 . S
N953 C952 1.314 . S
N953 C955 1.279 . S
C954 C955 1.358 . S
C954 C956 1.356 . S
C954 H1008 0.930 . S
C955 N953 1.279 . S
C955 C954 1.358 . S
C955 H959 0.930 . S
C956 C954 1.356 . S
C956 C957 1.348 . S
C957 C952 1.353 . S
C957 C956 1.348 . S
C957 H1009 0.929 . S
H958 C952 0.930 . S
H959 C955 0.930 . S
C960 N961 1.314 . S
C960 C962 1.353 . S
C960 H966 0.930 . S
N961 Li937 1.990 . S
N961 C960 1.314 . S
N961 C964 1.279 . S
C962 C960 1.353 . S
C962 C965 1.348 . S
C962 H1010 0.929 . S
C963 C964 1.358 . S
C963 C965 1.356 . S
C963 H1011 0.930 . S
C964 N961 1.279 . S
C964 C963 1.358 . S
C964 H967 0.930 . S
C965 C962 1.348 . S
C965 C963 1.356 . S
H966 C960 0.930 . S
H967 C964 0.930 . S
C968 C970 1.348 . S
C968 C971 1.356 . S
C968 O998 1.325 . S
N969 C972 1.314 . S
N969 C973 1.279 . S
C970 C968 1.348 . S
C970 C972 1.353 . S
C970 H1012 0.929 . S
C971 C968 1.356 . S
C971 C973 1.358 . S
C971 H1013 0.930 . S
C972 N969 1.314 . S
C972 C970 1.353 . S
C972 H1014 0.930 . S
C973 N969 1.279 . S
C973 C971 1.358 . S
C973 H1015 0.930 . S
C974 C975 1.348 . S
C974 C976 1.356 . S
C974 O999 1.325 . S
C975 C974 1.348 . S
C975 C977 1.353 . S
C975 H1016 0.929 . S
C976 C974 1.356 . S
C976 C978 1.358 . S
C976 H1017 0.930 . S
C977 C975 1.353 . S
C977 N979 1.314 . S
C977 H1018 0.930 . S
C978 C976 1.358 . S
C978 N979 1.279 . S
C978 H1019 0.930 . S
N979 C977 1.314 . S
N979 C978 1.279 . S
C980 C982 1.353 . S
C980 N983 1.314 . S
C980 H986 0.930 . S
C981 N983 1.279 . S
C981 C984 1.358 . S
C981 H987 0.930 . S
C982 C980 1.353 . S
C982 C985 1.348 . S
C982 H1020 0.929 . S
N983 Li938 1.990 . S
N983 C980 1.314 . S
N983 C981 1.279 . S
C984 C981 1.358 . S
C984 C985 1.356 . S
C984 H1021 0.930 . S
C985 C982 1.348 . S
C985 C984 1.356 . S
H986 C980 0.930 . S
H987 C981 0.930 . S
C988 N989 1.314 . S
C988 C990 1.353 . S
C988 H994 0.930 . S
N989 Li939 1.990 . S
N989 C988 1.314 . S
N989 C992 1.279 . S
C990 C988 1.353 . S
C990 C993 1.348 . S
C990 H1022 0.929 . S
C991 C992 1.358 . S
C991 C993 1.356 . S
C991 H1023 0.930 . S
C992 N989 1.279 . S
C992 C991 1.358 . S
C992 H995 0.930 . S
C993 C990 1.348 . S
C993 C991 1.356 . S
H994 C988 0.930 . S
H995 C992 0.930 . S
O996 Li936 1.956 . S
O996 Li937 1.970 . S
O996 Li938 1.961 . S
O996 C940 1.325 . S
O997 Li936 1.970 . S
O997 Li937 1.956 . S
O997 Li939 1.961 . S
O997 C946 1.325 . S
O998 Li936 1.961 . S
O998 Li938 1.956 . S
O998 Li939 1.970 . S
O998 C968 1.325 . S
O999 Li937 1.961 . S
O999 Li938 1.970 . S
O999 Li939 1.956 . S
O999 C974 1.325 . S
H1000 C942 0.929 . S
H1001 C943 0.930 . S
H1002 C944 0.930 . S
H1003 C945 0.930 . S
H1004 C947 0.930 . S
H1005 C949 0.929 . S
H1006 C950 0.930 . S
H1007 C951 0.930 . S
H1008 C954 0.930 . S
H1009 C957 0.929 . S
H1010 C962 0.929 . S
H1011 C963 0.930 . S
H1012 C970 0.929 . S
H1013 C971 0.930 . S
H1014 C972 0.930 . S
H1015 C973 0.930 . S
H1016 C975 0.929 . S
H1017 C976 0.930 . S
H1018 C977 0.930 . S
H1019 C978 0.930 . S
H1020 C982 0.929 . S
H1021 C984 0.930 . S
H1022 C990 0.929 . S
H1023 C991 0.930 . S
Li1024 N1041 1.990 . S
Li1024 O1084 1.956 . S
Li1024 O1085 1.970 1_455 S
Li1024 O1086 1.961 . S
Li1025 N1049 1.990 . S
Li1025 O1084 1.970 1_655 S
Li1025 O1085 1.956 . S
Li1025 O1087 1.961 . S
Li1026 N1071 1.990 . S
Li1026 O1084 1.961 . S
Li1026 O1086 1.956 . S
Li1026 O1087 1.970 1_455 S
Li1027 N1077 1.990 . S
Li1027 O1085 1.961 . S
Li1027 O1086 1.970 1_655 S
Li1027 O1087 1.956 . S
C1028 C1030 1.348 1_455 S
C1028 C1031 1.356 . S
C1028 O1084 1.325 . S
N1029 C1032 1.314 1_455 S
N1029 C1033 1.279 . S
C1030 C1028 1.348 1_655 S
C1030 C1032 1.353 . S
C1030 H1088 0.929 . S
C1031 C1028 1.356 . S
C1031 C1033 1.358 . S
C1031 H1089 0.930 . S
C1032 N1029 1.314 1_655 S
C1032 C1030 1.353 . S
C1032 H1090 0.930 . S
C1033 N1029 1.279 . S
C1033 C1031 1.358 . S
C1033 H1091 0.930 . S
C1034 C1037 1.348 . S
C1034 C1038 1.356 . S
C1034 O1085 1.325 . S
C1035 N1036 1.279 . S
C1035 C1038 1.358 . S
C1035 H1092 0.930 . S
N1036 C1035 1.279 . S
N1036 C1039 1.314 . S
C1037 C1034 1.348 . S
C1037 C1039 1.353 . S
C1037 H1093 0.929 . S
C1038 C1034 1.356 . S
C1038 C1035 1.358 . S
C1038 H1094 0.930 . S
C1039 N1036 1.314 . S
C1039 C1037 1.353 . S
C1039 H1095 0.930 . S
C1040 N1041 1.314 . S
C1040 C1045 1.353 . S
C1040 H1046 0.930 . S
N1041 Li1024 1.990 . S
N1041 C1040 1.314 . S
N1041 C1043 1.279 . S
C1042 C1043 1.358 . S
C1042 C1044 1.356 . S
C1042 H1096 0.930 . S
C1043 N1041 1.279 . S
C1043 C1042 1.358 . S
C1043 H1047 0.930 . S
C1044 C1042 1.356 . S
C1044 C1045 1.348 . S
C1045 C1040 1.353 . S
C1045 C1044 1.348 . S
C1045 H1097 0.929 . S
H1046 C1040 0.930 . S
H1047 C1043 0.930 . S
C1048 N1049 1.314 . S
C1048 C1050 1.353 . S
C1048 H1054 0.930 . S
N1049 Li1025 1.990 . S
N1049 C1048 1.314 . S
N1049 C1052 1.279 . S
C1050 C1048 1.353 . S
C1050 C1053 1.348 . S
C1050 H1098 0.929 . S
C1051 C1052 1.358 . S
C1051 C1053 1.356 . S
C1051 H1099 0.930 . S
C1052 N1049 1.279 . S
C1052 C1051 1.358 . S
C1052 H1055 0.930 . S
C1053 C1050 1.348 . S
C1053 C1051 1.356 . S
H1054 C1048 0.930 . S
H1055 C1052 0.930 . S
C1056 C1058 1.348 . S
C1056 C1059 1.356 . S
C1056 O1086 1.325 . S
N1057 C1060 1.314 . S
N1057 C1061 1.279 . S
C1058 C1056 1.348 . S
C1058 C1060 1.353 . S
C1058 H1100 0.929 . S
C1059 C1056 1.356 . S
C1059 C1061 1.358 . S
C1059 H1101 0.930 . S
C1060 N1057 1.314 . S
C1060 C1058 1.353 . S
C1060 H1102 0.930 . S
C1061 N1057 1.279 . S
C1061 C1059 1.358 . S
C1061 H1103 0.930 . S
C1062 C1063 1.348 1_655 S
C1062 C1064 1.356 . S
C1062 O1087 1.325 . S
C1063 C1062 1.348 1_455 S
C1063 C1065 1.353 . S
C1063 H1104 0.929 . S
C1064 C1062 1.356 . S
C1064 C1066 1.358 . S
C1064 H1105 0.930 . S
C1065 C1063 1.353 . S
C1065 N1067 1.314 1_455 S
C1065 H1106 0.930 . S
C1066 C1064 1.358 . S
C1066 N1067 1.279 . S
C1066 H1107 0.930 . S
N1067 C1065 1.314 1_655 S
N1067 C1066 1.279 . S
C1068 C1070 1.353 . S
C1068 N1071 1.314 . S
C1068 H1074 0.930 . S
C1069 N1071 1.279 . S
C1069 C1072 1.358 . S
C1069 H1075 0.930 . S
C1070 C1068 1.353 . S
C1070 C1073 1.348 . S
C1070 H1108 0.929 . S
N1071 Li1026 1.990 . S
N1071 C1068 1.314 . S
N1071 C1069 1.279 . S
C1072 C1069 1.358 . S
C1072 C1073 1.356 . S
C1072 H1109 0.930 . S
C1073 C1070 1.348 . S
C1073 C1072 1.356 . S
H1074 C1068 0.930 . S
H1075 C1069 0.930 . S
C1076 N1077 1.314 . S
C1076 C1078 1.353 . S
C1076 H1082 0.930 . S
N1077 Li1027 1.990 . S
N1077 C1076 1.314 . S
N1077 C1080 1.279 . S
C1078 C1076 1.353 . S
C1078 C1081 1.348 . S
C1078 H1110 0.929 . S
C1079 C1080 1.358 . S
C1079 C1081 1.356 . S
C1079 H1111 0.930 . S
C1080 N1077 1.279 . S
C1080 C1079 1.358 . S
C1080 H1083 0.930 . S
C1081 C1078 1.348 . S
C1081 C1079 1.356 . S
H1082 C1076 0.930 . S
H1083 C1080 0.930 . S
O1084 Li1024 1.956 . S
O1084 Li1025 1.970 1_455 S
O1084 Li1026 1.961 . S
O1084 C1028 1.325 . S
O1085 Li1024 1.970 1_655 S
O1085 Li1025 1.956 . S
O1085 Li1027 1.961 . S
O1085 C1034 1.325 . S
O1086 Li1024 1.961 . S
O1086 Li1026 1.956 . S
O1086 Li1027 1.970 1_455 S
O1086 C1056 1.325 . S
O1087 Li1025 1.961 . S
O1087 Li1026 1.970 1_655 S
O1087 Li1027 1.956 . S
O1087 C1062 1.325 . S
H1088 C1030 0.929 . S
H1089 C1031 0.930 . S
H1090 C1032 0.930 . S
H1091 C1033 0.930 . S
H1092 C1035 0.930 . S
H1093 C1037 0.929 . S
H1094 C1038 0.930 . S
H1095 C1039 0.930 . S
H1096 C1042 0.930 . S
H1097 C1045 0.929 . S
H1098 C1050 0.929 . S
H1099 C1051 0.930 . S
H1100 C1058 0.929 . S
H1101 C1059 0.930 . S
H1102 C1060 0.930 . S
H1103 C1061 0.930 . S
H1104 C1063 0.929 . S
H1105 C1064 0.930 . S
H1106 C1065 0.930 . S
H1107 C1066 0.930 . S
H1108 C1070 0.929 . S
H1109 C1072 0.930 . S
H1110 C1078 0.929 . S
H1111 C1079 0.930 . S
Li1112 N1129 1.990 . S
Li1112 O1172 1.956 . S
Li1112 O1173 1.970 . S
Li1112 O1174 1.961 . S
Li1113 N1137 1.990 . S
Li1113 O1172 1.970 . S
Li1113 O1173 1.956 . S
Li1113 O1175 1.961 . S
Li1114 N1159 1.990 . S
Li1114 O1172 1.961 . S
Li1114 O1174 1.956 . S
Li1114 O1175 1.970 . S
Li1115 N1165 1.990 . S
Li1115 O1173 1.961 . S
Li1115 O1174 1.970 . S
Li1115 O1175 1.956 . S
C1116 C1118 1.348 . S
C1116 C1119 1.356 . S
C1116 O1172 1.325 . S
N1117 C1120 1.314 . S
N1117 C1121 1.279 . S
C1118 C1116 1.348 . S
C1118 C1120 1.353 . S
C1118 H1176 0.929 . S
C1119 C1116 1.356 . S
C1119 C1121 1.358 . S
C1119 H1177 0.930 . S
C1120 N1117 1.314 . S
C1120 C1118 1.353 . S
C1120 H1178 0.930 . S
C1121 N1117 1.279 . S
C1121 C1119 1.358 . S
C1121 H1179 0.930 . S
C1122 C1125 1.348 . S
C1122 C1126 1.356 . S
C1122 O1173 1.325 . S
C1123 N1124 1.279 . S
C1123 C1126 1.358 . S
C1123 H1180 0.930 . S
N1124 C1123 1.279 . S
N1124 C1127 1.314 . S
C1125 C1122 1.348 . S
C1125 C1127 1.353 . S
C1125 H1181 0.929 . S
C1126 C1122 1.356 . S
C1126 C1123 1.358 . S
C1126 H1182 0.930 . S
C1127 N1124 1.314 . S
C1127 C1125 1.353 . S
C1127 H1183 0.930 . S
C1128 N1129 1.314 . S
C1128 C1133 1.353 . S
C1128 H1134 0.930 . S
N1129 Li1112 1.990 . S
N1129 C1128 1.314 . S
N1129 C1131 1.279 . S
C1130 C1131 1.358 . S
C1130 C1132 1.356 . S
C1130 H1184 0.930 . S
C1131 N1129 1.279 . S
C1131 C1130 1.358 . S
C1131 H1135 0.930 . S
C1132 C1130 1.356 . S
C1132 C1133 1.348 . S
C1133 C1128 1.353 . S
C1133 C1132 1.348 . S
C1133 H1185 0.929 . S
H1134 C1128 0.930 . S
H1135 C1131 0.930 . S
C1136 N1137 1.314 . S
C1136 C1138 1.353 . S
C1136 H1142 0.930 . S
N1137 Li1113 1.990 . S
N1137 C1136 1.314 . S
N1137 C1140 1.279 . S
C1138 C1136 1.353 . S
C1138 C1141 1.348 . S
C1138 H1186 0.929 . S
C1139 C1140 1.358 . S
C1139 C1141 1.356 . S
C1139 H1187 0.930 . S
C1140 N1137 1.279 . S
C1140 C1139 1.358 . S
C1140 H1143 0.930 . S
C1141 C1138 1.348 . S
C1141 C1139 1.356 . S
H1142 C1136 0.930 . S
H1143 C1140 0.930 . S
C1144 C1146 1.348 . S
C1144 C1147 1.356 . S
C1144 O1174 1.325 . S
N1145 C1148 1.314 . S
N1145 C1149 1.279 . S
C1146 C1144 1.348 . S
C1146 C1148 1.353 . S
C1146 H1188 0.929 . S
C1147 C1144 1.356 . S
C1147 C1149 1.358 . S
C1147 H1189 0.930 . S
C1148 N1145 1.314 . S
C1148 C1146 1.353 . S
C1148 H1190 0.930 . S
C1149 N1145 1.279 . S
C1149 C1147 1.358 . S
C1149 H1191 0.930 . S
C1150 C1151 1.348 . S
C1150 C1152 1.356 . S
C1150 O1175 1.325 . S
C1151 C1150 1.348 . S
C1151 C1153 1.353 . S
C1151 H1192 0.929 . S
C1152 C1150 1.356 . S
C1152 C1154 1.358 . S
C1152 H1193 0.930 . S
C1153 C1151 1.353 . S
C1153 N1155 1.314 . S
C1153 H1194 0.930 . S
C1154 C1152 1.358 . S
C1154 N1155 1.279 . S
C1154 H1195 0.930 . S
N1155 C1153 1.314 . S
N1155 C1154 1.279 . S
C1156 C1158 1.353 . S
C1156 N1159 1.314 . S
C1156 H1162 0.930 . S
C1157 N1159 1.279 . S
C1157 C1160 1.358 . S
C1157 H1163 0.930 . S
C1158 C1156 1.353 . S
C1158 C1161 1.348 . S
C1158 H1196 0.929 . S
N1159 Li1114 1.990 . S
N1159 C1156 1.314 . S
N1159 C1157 1.279 . S
C1160 C1157 1.358 . S
C1160 C1161 1.356 . S
C1160 H1197 0.930 . S
C1161 C1158 1.348 . S
C1161 C1160 1.356 . S
H1162 C1156 0.930 . S
H1163 C1157 0.930 . S
C1164 N1165 1.314 . S
C1164 C1166 1.353 . S
C1164 H1170 0.930 . S
N1165 Li1115 1.990 . S
N1165 C1164 1.314 . S
N1165 C1168 1.279 . S
C1166 C1164 1.353 . S
C1166 C1169 1.348 . S
C1166 H1198 0.929 . S
C1167 C1168 1.358 . S
C1167 C1169 1.356 . S
C1167 H1199 0.930 . S
C1168 N1165 1.279 . S
C1168 C1167 1.358 . S
C1168 H1171 0.930 . S
C1169 C1166 1.348 . S
C1169 C1167 1.356 . S
H1170 C1164 0.930 . S
H1171 C1168 0.930 . S
O1172 Li1112 1.956 . S
O1172 Li1113 1.970 . S
O1172 Li1114 1.961 . S
O1172 C1116 1.325 . S
O1173 Li1112 1.970 . S
O1173 Li1113 1.956 . S
O1173 Li1115 1.961 . S
O1173 C1122 1.325 . S
O1174 Li1112 1.961 . S
O1174 Li1114 1.956 . S
O1174 Li1115 1.970 . S
O1174 C1144 1.325 . S
O1175 Li1113 1.961 . S
O1175 Li1114 1.970 . S
O1175 Li1115 1.956 . S
O1175 C1150 1.325 . S
H1176 C1118 0.929 . S
H1177 C1119 0.930 . S
H1178 C1120 0.930 . S
H1179 C1121 0.930 . S
H1180 C1123 0.930 . S
H1181 C1125 0.929 . S
H1182 C1126 0.930 . S
H1183 C1127 0.930 . S
H1184 C1130 0.930 . S
H1185 C1133 0.929 . S
H1186 C1138 0.929 . S
H1187 C1139 0.930 . S
H1188 C1146 0.929 . S
H1189 C1147 0.930 . S
H1190 C1148 0.930 . S
H1191 C1149 0.930 . S
H1192 C1151 0.929 . S
H1193 C1152 0.930 . S
H1194 C1153 0.930 . S
H1195 C1154 0.930 . S
H1196 C1158 0.929 . S
H1197 C1160 0.930 . S
H1198 C1166 0.929 . S
H1199 C1167 0.930 . S
H1200 C1206 0.930 . S
H1201 C1209 0.930 . S
H1202 C1210 0.930 . S
H1203 C1211 0.930 . S
H1204 C1214 0.930 . S
H1205 C1215 0.930 . S
C1206 H1200 0.930 . S
C1206 C1207 1.355 . S
C1206 C1208 1.415 . S
C1207 C1206 1.355 . S
C1207 C1209 1.419 . S
C1208 C1206 1.415 . S
C1208 C1213 1.425 . S
C1208 C1215 1.409 . S
C1209 H1201 0.930 . S
C1209 C1207 1.419 . S
C1209 C1210 1.362 . S
C1210 H1202 0.930 . S
C1210 C1209 1.362 . S
C1210 C1213 1.409 . S
C1211 H1203 0.930 . S
C1211 C1212 1.355 . S
C1211 C1213 1.415 . S
C1212 C1211 1.355 . S
C1212 C1214 1.419 . S
C1213 C1208 1.425 . S
C1213 C1210 1.409 . S
C1213 C1211 1.415 . S
C1214 H1204 0.930 . S
C1214 C1212 1.419 . S
C1214 C1215 1.362 . S
C1215 H1205 0.930 . S
C1215 C1208 1.409 . S
C1215 C1214 1.362 . S
H1216 C1222 0.930 . S
H1217 C1225 0.930 . S
H1218 C1226 0.930 . S
H1219 C1227 0.930 . S
H1220 C1230 0.930 . S
H1221 C1231 0.930 1_655 S
C1222 H1216 0.930 . S
C1222 C1223 1.347 1_655 S
C1222 C1224 1.415 1_655 S
C1223 C1222 1.347 1_455 S
C1223 C1225 1.452 . S
C1224 C1222 1.415 1_455 S
C1224 C1229 1.425 . S
C1224 C1231 1.409 . S
C1225 H1217 0.930 . S
C1225 C1223 1.452 . S
C1225 C1226 1.362 . S
C1226 H1218 0.930 . S
C1226 C1225 1.362 . S
C1226 C1229 1.409 . S
C1227 H1219 0.930 . S
C1227 C1228 1.355 . S
C1227 C1229 1.415 . S
C1228 C1227 1.355 . S
C1228 C1230 1.419 . S
C1229 C1224 1.425 . S
C1229 C1226 1.409 . S
C1229 C1227 1.415 . S
C1230 H1220 0.930 . S
C1230 C1228 1.419 . S
C1230 C1231 1.362 . S
C1231 H1221 0.930 1_455 S
C1231 C1224 1.409 . S
C1231 C1230 1.362 . S
H1232 C1238 0.930 . S
H1233 C1241 0.930 . S
H1234 C1242 0.930 . S
H1235 C1243 0.930 . S
H1236 C1246 0.930 . S
H1237 C1247 0.930 . S
C1238 H1232 0.930 . S
C1238 C1239 1.355 . S
C1238 C1240 1.415 . S
C1239 C1238 1.355 . S
C1239 C1241 1.419 . S
C1240 C1238 1.415 . S
C1240 C1245 1.425 . S
C1240 C1247 1.409 . S
C1241 H1233 0.930 . S
C1241 C1239 1.419 . S
C1241 C1242 1.362 . S
C1242 H1234 0.930 . S
C1242 C1241 1.362 . S
C1242 C1245 1.409 . S
C1243 H1235 0.930 . S
C1243 C1244 1.355 . S
C1243 C1245 1.415 . S
C1244 C1243 1.355 . S
C1244 C1246 1.419 . S
C1245 C1240 1.425 . S
C1245 C1242 1.409 . S
C1245 C1243 1.415 . S
C1246 H1236 0.930 . S
C1246 C1244 1.419 . S
C1246 C1247 1.362 . S
C1247 H1237 0.930 . S
C1247 C1240 1.409 . S
C1247 C1246 1.362 . S
H1248 C1254 0.930 . S
H1249 C1257 0.930 . S
H1250 C1258 0.940 . S
H1251 C1259 0.930 . S
H1252 C1262 0.930 . S
H1253 C1263 0.930 . S
C1254 H1248 0.930 . S
C1254 C1255 1.355 1_655 S
C1254 C1256 1.415 . S
C1255 C1254 1.355 1_455 S
C1255 C1257 1.419 . S
C1256 C1254 1.415 . S
C1256 C1261 1.425 . S
C1256 C1263 1.409 1_565 S
C1257 H1249 0.930 . S
C1257 C1255 1.419 . S
C1257 C1258 1.376 . S
C1258 H1250 0.940 . S
C1258 C1257 1.376 . S
C1258 C1261 1.387 1_455 S
C1259 H1251 0.930 . S
C1259 C1260 1.355 . S
C1259 C1261 1.415 . S
C1260 C1259 1.355 . S
C1260 C1262 1.419 1_565 S
C1261 C1256 1.425 . S
C1261 C1258 1.387 1_655 S
C1261 C1259 1.415 . S
C1262 H1252 0.930 . S
C1262 C1260 1.419 1_545 S
C1262 C1263 1.362 . S
C1263 H1253 0.930 . S
C1263 C1256 1.409 1_545 S
C1263 C1262 1.362 . S
H1264 C1270 0.930 . S
H1265 C1273 0.930 . S
H1266 C1274 0.930 . S
H1267 C1275 0.930 . S
H1268 C1278 0.930 . S
H1269 C1279 0.930 . S
C1270 H1264 0.930 . S
C1270 C1271 1.355 . S
C1270 C1272 1.415 . S
C1271 C1270 1.355 . S
C1271 C1273 1.419 . S
C1272 C1270 1.415 . S
C1272 C1277 1.425 . S
C1272 C1279 1.409 . S
C1273 H1265 0.930 . S
C1273 C1271 1.419 . S
C1273 C1274 1.362 . S
C1274 H1266 0.930 . S
C1274 C1273 1.362 . S
C1274 C1277 1.409 . S
C1275 H1267 0.930 . S
C1275 C1276 1.355 . S
C1275 C1277 1.415 . S
C1276 C1275 1.355 . S
C1276 C1278 1.419 . S
C1277 C1272 1.425 . S
C1277 C1274 1.409 . S
C1277 C1275 1.415 . S
C1278 H1268 0.930 . S
C1278 C1276 1.419 . S
C1278 C1279 1.362 . S
C1279 H1269 0.930 . S
C1279 C1272 1.409 . S
C1279 C1278 1.362 . S
H1280 C1286 0.930 . S
H1281 C1289 0.930 . S
H1282 C1290 0.930 . S
H1283 C1291 0.930 . S
H1284 C1294 0.930 . S
H1285 C1295 0.930 . S
C1286 H1280 0.930 . S
C1286 C1287 1.355 . S
C1286 C1288 1.415 . S
C1287 C1286 1.355 . S
C1287 C1289 1.419 . S
C1288 C1286 1.415 . S
C1288 C1293 1.425 . S
C1288 C1295 1.409 . S
C1289 H1281 0.930 . S
C1289 C1287 1.419 . S
C1289 C1290 1.362 . S
C1290 H1282 0.930 . S
C1290 C1289 1.362 . S
C1290 C1293 1.409 . S
C1291 H1283 0.930 . S
C1291 C1292 1.355 . S
C1291 C1293 1.415 . S
C1292 C1291 1.355 . S
C1292 C1294 1.419 . S
C1293 C1288 1.425 . S
C1293 C1290 1.409 . S
C1293 C1291 1.415 . S
C1294 H1284 0.930 . S
C1294 C1292 1.419 . S
C1294 C1295 1.362 . S
C1295 H1285 0.930 . S
C1295 C1288 1.409 . S
C1295 C1294 1.362 . S
H1296 C1302 0.930 . S
H1297 C1305 0.930 . S
H1298 C1306 0.930 . S
H1299 C1307 0.930 . S
H1300 C1310 0.930 . S
H1301 C1311 0.930 . S
C1302 H1296 0.930 . S
C1302 C1303 1.355 . S
C1302 C1304 1.415 . S
C1303 C1302 1.355 . S
C1303 C1305 1.419 . S
C1304 C1302 1.415 . S
C1304 C1309 1.425 . S
C1304 C1311 1.409 . S
C1305 H1297 0.930 . S
C1305 C1303 1.419 . S
C1305 C1306 1.362 . S
C1306 H1298 0.930 . S
C1306 C1305 1.362 . S
C1306 C1309 1.409 . S
C1307 H1299 0.930 . S
C1307 C1308 1.355 . S
C1307 C1309 1.415 . S
C1308 C1307 1.355 . S
C1308 C1310 1.419 . S
C1309 C1304 1.425 . S
C1309 C1306 1.409 . S
C1309 C1307 1.415 . S
C1310 H1300 0.930 . S
C1310 C1308 1.419 . S
C1310 C1311 1.362 . S
C1311 H1301 0.930 . S
C1311 C1304 1.409 . S
C1311 C1310 1.362 . S
H1312 C1318 0.930 . S
H1313 C1321 0.930 . S
H1314 C1322 0.930 . S
H1315 C1323 0.930 . S
H1316 C1326 0.930 . S
H1317 C1327 0.930 . S
C1318 H1312 0.930 . S
C1318 C1319 1.355 . S
C1318 C1320 1.415 . S
C1319 C1318 1.355 . S
C1319 C1321 1.419 . S
C1320 C1318 1.415 . S
C1320 C1325 1.425 . S
C1320 C1327 1.409 . S
C1321 H1313 0.930 . S
C1321 C1319 1.419 . S
C1321 C1322 1.362 . S
C1322 H1314 0.930 . S
C1322 C1321 1.362 . S
C1322 C1325 1.409 . S
C1323 H1315 0.930 . S
C1323 C1324 1.355 . S
C1323 C1325 1.415 . S
C1324 C1323 1.355 . S
C1324 C1326 1.419 . S
C1325 C1320 1.425 . S
C1325 C1322 1.409 . S
C1325 C1323 1.415 . S
C1326 H1316 0.930 . S
C1326 C1324 1.419 . S
C1326 C1327 1.362 . S
C1327 H1317 0.930 . S
C1327 C1320 1.409 . S
C1327 C1326 1.362 . S
H1328 C1334 0.930 . S
H1329 C1337 0.930 . S
H1330 C1338 0.930 . S
H1331 C1339 0.930 . S
H1332 C1342 0.930 . S
H1333 C1343 0.930 . S
C1334 H1328 0.930 . S
C1334 C1335 1.355 . S
C1334 C1336 1.415 . S
C1335 C1334 1.355 . S
C1335 C1337 1.419 . S
C1336 C1334 1.415 . S
C1336 C1341 1.425 . S
C1336 C1343 1.409 . S
C1337 H1329 0.930 . S
C1337 C1335 1.419 . S
C1337 C1338 1.362 . S
C1338 H1330 0.930 . S
C1338 C1337 1.362 . S
C1338 C1341 1.409 . S
C1339 H1331 0.930 . S
C1339 C1340 1.355 . S
C1339 C1341 1.415 . S
C1340 C1339 1.355 . S
C1340 C1342 1.419 . S
C1341 C1336 1.425 . S
C1341 C1338 1.409 . S
C1341 C1339 1.415 . S
C1342 H1332 0.930 . S
C1342 C1340 1.419 . S
C1342 C1343 1.362 . S
C1343 H1333 0.930 . S
C1343 C1336 1.409 . S
C1343 C1342 1.362 . S
H1344 C1350 0.930 . S
H1345 C1353 0.930 . S
H1346 C1354 0.930 . S
H1347 C1355 0.930 . S
H1348 C1358 0.930 . S
H1349 C1359 0.930 . S
C1350 H1344 0.930 . S
C1350 C1351 1.355 . S
C1350 C1352 1.415 . S
C1351 C1350 1.355 . S
C1351 C1353 1.419 . S
C1352 C1350 1.415 . S
C1352 C1357 1.425 . S
C1352 C1359 1.409 . S
C1353 H1345 0.930 . S
C1353 C1351 1.419 . S
C1353 C1354 1.362 . S
C1354 H1346 0.930 . S
C1354 C1353 1.362 . S
C1354 C1357 1.409 . S
C1355 H1347 0.930 . S
C1355 C1356 1.355 . S
C1355 C1357 1.415 . S
C1356 C1355 1.355 . S
C1356 C1358 1.419 . S
C1357 C1352 1.425 . S
C1357 C1354 1.409 . S
C1357 C1355 1.415 . S
C1358 H1348 0.930 . S
C1358 C1356 1.419 . S
C1358 C1359 1.362 . S
C1359 H1349 0.930 . S
C1359 C1352 1.409 . S
C1359 C1358 1.362 . S
H1360 C1366 0.930 . S
H1361 C1369 0.930 . S
H1362 C1370 0.930 . S
H1363 C1371 0.930 . S
H1364 C1374 0.930 . S
H1365 C1375 0.930 . S
C1366 H1360 0.930 . S
C1366 C1367 1.355 . S
C1366 C1368 1.415 . S
C1367 C1366 1.355 . S
C1367 C1369 1.419 . S
C1368 C1366 1.415 . S
C1368 C1373 1.425 . S
C1368 C1375 1.409 . S
C1369 H1361 0.930 . S
C1369 C1367 1.419 . S
C1369 C1370 1.362 . S
C1370 H1362 0.930 . S
C1370 C1369 1.362 . S
C1370 C1373 1.409 . S
C1371 H1363 0.930 . S
C1371 C1372 1.355 . S
C1371 C1373 1.415 . S
C1372 C1371 1.355 . S
C1372 C1374 1.419 . S
C1373 C1368 1.425 . S
C1373 C1370 1.409 . S
C1373 C1371 1.415 . S
C1374 H1364 0.930 . S
C1374 C1372 1.419 . S
C1374 C1375 1.362 . S
C1375 H1365 0.930 . S
C1375 C1368 1.409 . S
C1375 C1374 1.362 . S
H1376 C1382 0.930 . S
H1377 C1385 0.930 . S
H1378 C1386 0.930 . S
H1379 C1387 0.930 . S
H1380 C1390 0.930 . S
H1381 C1391 0.930 . S
C1382 H1376 0.930 . S
C1382 C1383 1.355 . S
C1382 C1384 1.415 . S
C1383 C1382 1.355 . S
C1383 C1385 1.419 . S
C1384 C1382 1.415 . S
C1384 C1389 1.425 . S
C1384 C1391 1.409 . S
C1385 H1377 0.930 . S
C1385 C1383 1.419 . S
C1385 C1386 1.362 . S
C1386 H1378 0.930 . S
C1386 C1385 1.362 . S
C1386 C1389 1.409 . S
C1387 H1379 0.930 . S
C1387 C1388 1.355 . S
C1387 C1389 1.415 . S
C1388 C1387 1.355 . S
C1388 C1390 1.419 . S
C1389 C1384 1.425 . S
C1389 C1386 1.409 . S
C1389 C1387 1.415 . S
C1390 H1380 0.930 . S
C1390 C1388 1.419 . S
C1390 C1391 1.362 . S
C1391 H1381 0.930 . S
C1391 C1384 1.409 . S
C1391 C1390 1.362 . S
H1392 C1398 0.930 . S
H1393 C1401 0.930 . S
H1394 C1402 0.930 . S
H1395 C1403 0.930 . S
H1396 C1406 0.930 . S
H1397 C1407 0.930 . S
C1398 H1392 0.930 . S
C1398 C1399 1.355 . S
C1398 C1400 1.415 . S
C1399 C1398 1.355 . S
C1399 C1401 1.419 . S
C1400 C1398 1.415 . S
C1400 C1405 1.425 . S
C1400 C1407 1.409 . S
C1401 H1393 0.930 . S
C1401 C1399 1.419 . S
C1401 C1402 1.362 . S
C1402 H1394 0.930 . S
C1402 C1401 1.362 . S
C1402 C1405 1.409 . S
C1403 H1395 0.930 . S
C1403 C1404 1.355 . S
C1403 C1405 1.415 . S
C1404 C1403 1.355 . S
C1404 C1406 1.419 . S
C1405 C1400 1.425 . S
C1405 C1402 1.409 . S
C1405 C1403 1.415 . S
C1406 H1396 0.930 . S
C1406 C1404 1.419 . S
C1406 C1407 1.362 . S
C1407 H1397 0.930 . S
C1407 C1400 1.409 . S
C1407 C1406 1.362 . S
H1408 C1414 0.930 . S
H1409 C1417 0.930 . S
H1410 C1418 0.930 . S
H1411 C1419 0.930 . S
H1412 C1422 0.930 . S
H1413 C1423 0.930 . S
C1414 H1408 0.930 . S
C1414 C1415 1.355 . S
C1414 C1416 1.415 . S
C1415 C1414 1.355 . S
C1415 C1417 1.419 . S
C1416 C1414 1.415 . S
C1416 C1421 1.425 . S
C1416 C1423 1.409 1_455 S
C1417 H1409 0.930 . S
C1417 C1415 1.419 . S
C1417 C1418 1.362 . S
C1418 H1410 0.930 . S
C1418 C1417 1.362 . S
C1418 C1421 1.409 . S
C1419 H1411 0.930 . S
C1419 C1420 1.355 . S
C1419 C1421 1.415 . S
C1420 C1419 1.355 . S
C1420 C1422 1.419 1_455 S
C1421 C1416 1.425 . S
C1421 C1418 1.409 . S
C1421 C1419 1.415 . S
C1422 H1412 0.930 . S
C1422 C1420 1.419 1_655 S
C1422 C1423 1.362 . S
C1423 H1413 0.930 . S
C1423 C1416 1.409 1_655 S
C1423 C1422 1.362 . S
H1424 C1430 0.930 . S
H1425 C1433 0.930 . S
H1426 C1434 0.930 . S
H1427 C1435 0.930 . S
H1428 C1438 0.930 . S
H1429 C1439 0.930 . S
C1430 H1424 0.930 . S
C1430 C1431 1.355 . S
C1430 C1432 1.415 . S
C1431 C1430 1.355 . S
C1431 C1433 1.419 . S
C1432 C1430 1.415 . S
C1432 C1437 1.425 . S
C1432 C1439 1.409 . S
C1433 H1425 0.930 . S
C1433 C1431 1.419 . S
C1433 C1434 1.362 . S
C1434 H1426 0.930 . S
C1434 C1433 1.362 . S
C1434 C1437 1.409 . S
C1435 H1427 0.930 . S
C1435 C1436 1.355 . S
C1435 C1437 1.415 . S
C1436 C1435 1.355 . S
C1436 C1438 1.419 . S
C1437 C1432 1.425 . S
C1437 C1434 1.409 . S
C1437 C1435 1.415 . S
C1438 H1428 0.930 . S
C1438 C1436 1.419 . S
C1438 C1439 1.362 . S
C1439 H1429 0.930 . S
C1439 C1432 1.409 . S
C1439 C1438 1.362 . S
H1440 C1446 0.930 . S
H1441 C1449 0.930 1_455 S
H1442 C1450 0.931 1_455 S
H1443 C1451 0.930 1_455 S
H1444 C1454 0.930 . S
H1445 C1455 0.930 . S
C1446 H1440 0.930 . S
C1446 C1447 1.355 . S
C1446 C1448 1.415 . S
C1447 C1446 1.355 . S
C1447 C1449 1.419 . S
C1448 C1446 1.415 . S
C1448 C1453 1.425 . S
C1448 C1455 1.409 . S
C1449 H1441 0.930 1_655 S
C1449 C1447 1.419 . S
C1449 C1450 1.362 . S
C1450 H1442 0.931 1_655 S
C1450 C1449 1.362 . S
C1450 C1453 1.408 . S
C1451 H1443 0.930 1_655 S
C1451 C1452 1.355 . S
C1451 C1453 1.415 . S
C1452 C1451 1.355 . S
C1452 C1454 1.419 . S
C1453 C1448 1.425 . S
C1453 C1450 1.408 . S
C1453 C1451 1.415 . S
C1454 H1444 0.930 . S
C1454 C1452 1.419 . S
C1454 C1455 1.362 . S
C1455 H1445 0.930 . S
C1455 C1448 1.409 . S
C1455 C1454 1.362 . S
H1456 C1462 0.930 . S
H1457 C1465 0.930 . S
H1458 C1466 0.930 . S
H1459 C1467 0.930 . S
H1460 C1470 0.930 . S
H1461 C1471 0.930 . S
C1462 H1456 0.930 . S
C1462 C1463 1.355 . S
C1462 C1464 1.415 . S
C1463 C1462 1.355 . S
C1463 C1465 1.419 . S
C1464 C1462 1.415 . S
C1464 C1469 1.425 . S
C1464 C1471 1.409 . S
C1465 H1457 0.930 . S
C1465 C1463 1.419 . S
C1465 C1466 1.362 . S
C1466 H1458 0.930 . S
C1466 C1465 1.362 . S
C1466 C1469 1.409 . S
C1467 H1459 0.930 . S
C1467 C1468 1.355 . S
C1467 C1469 1.415 . S
C1468 C1467 1.355 . S
C1468 C1470 1.419 . S
C1469 C1464 1.425 . S
C1469 C1466 1.409 . S
C1469 C1467 1.415 . S
C1470 H1460 0.930 . S
C1470 C1468 1.419 . S
C1470 C1471 1.362 . S
C1471 H1461 0.930 . S
C1471 C1464 1.409 . S
C1471 C1470 1.362 . S
H1472 C1478 0.930 . S
H1473 C1481 0.930 . S
H1474 C1482 0.930 . S
H1475 C1483 0.930 . S
H1476 C1486 0.930 . S
H1477 C1487 0.930 . S
C1478 H1472 0.930 . S
C1478 C1479 1.355 . S
C1478 C1480 1.415 . S
C1479 C1478 1.355 . S
C1479 C1481 1.419 . S
C1480 C1478 1.415 . S
C1480 C1485 1.425 . S
C1480 C1487 1.409 . S
C1481 H1473 0.930 . S
C1481 C1479 1.419 . S
C1481 C1482 1.362 . S
C1482 H1474 0.930 . S
C1482 C1481 1.362 . S
C1482 C1485 1.409 . S
C1483 H1475 0.930 . S
C1483 C1484 1.355 . S
C1483 C1485 1.415 . S
C1484 C1483 1.355 . S
C1484 C1486 1.419 . S
C1485 C1480 1.425 . S
C1485 C1482 1.409 . S
C1485 C1483 1.415 . S
C1486 H1476 0.930 . S
C1486 C1484 1.419 . S
C1486 C1487 1.362 . S
C1487 H1477 0.930 . S
C1487 C1480 1.409 . S
C1487 C1486 1.362 . S
H1488 C1494 0.930 . S
H1489 C1497 0.930 . S
H1490 C1498 0.930 . S
H1491 C1499 0.930 . S
H1492 C1502 0.930 1_554 S
H1493 C1503 0.930 1_554 S
C1494 H1488 0.930 . S
C1494 C1495 1.355 1_565 S
C1494 C1496 1.415 . S
C1495 C1494 1.355 1_545 S
C1495 C1497 1.419 . S
C1496 C1494 1.415 . S
C1496 C1501 1.425 . S
C1496 C1503 1.409 . S
C1497 H1489 0.930 . S
C1497 C1495 1.419 . S
C1497 C1498 1.362 . S
C1498 H1490 0.930 . S
C1498 C1497 1.362 . S
C1498 C1501 1.409 1_545 S
C1499 H1491 0.930 . S
C1499 C1500 1.355 . S
C1499 C1501 1.415 . S
C1500 C1499 1.355 . S
C1500 C1502 1.419 . S
C1501 C1496 1.425 . S
C1501 C1498 1.409 1_565 S
C1501 C1499 1.415 . S
C1502 H1492 0.930 1_556 S
C1502 C1500 1.419 . S
C1502 C1503 1.362 . S
C1503 H1493 0.930 1_556 S
C1503 C1496 1.409 . S
C1503 C1502 1.362 . S
H1504 C1510 0.930 . S
H1505 C1513 0.930 . S
H1506 C1514 0.930 . S
H1507 C1515 0.930 . S
H1508 C1518 0.930 . S
H1509 C1519 0.930 . S
C1510 H1504 0.930 . S
C1510 C1511 1.355 . S
C1510 C1512 1.415 . S
C1511 C1510 1.355 . S
C1511 C1513 1.419 . S
C1512 C1510 1.415 . S
C1512 C1517 1.425 . S
C1512 C1519 1.409 . S
C1513 H1505 0.930 . S
C1513 C1511 1.419 . S
C1513 C1514 1.362 . S
C1514 H1506 0.930 . S
C1514 C1513 1.362 . S
C1514 C1517 1.409 . S
C1515 H1507 0.930 . S
C1515 C1516 1.355 . S
C1515 C1517 1.415 . S
C1516 C1515 1.355 . S
C1516 C1518 1.419 . S
C1517 C1512 1.425 . S
C1517 C1514 1.409 . S
C1517 C1515 1.415 . S
C1518 H1508 0.930 . S
C1518 C1516 1.419 . S
C1518 C1519 1.362 . S
C1519 H1509 0.930 . S
C1519 C1512 1.409 . S
C1519 C1518 1.362 . S
H1520 C1526 0.930 . S
H1521 C1529 0.930 . S
H1522 C1530 0.918 1_565 S
H1523 C1531 0.930 . S
H1524 C1534 0.930 . S
H1525 C1535 0.930 . S
C1526 H1520 0.930 . S
C1526 C1527 1.355 1_545 S
C1526 C1528 1.415 . S
C1527 C1526 1.355 1_565 S
C1527 C1529 1.419 . S
C1528 C1526 1.415 . S
C1528 C1533 1.425 . S
C1528 C1535 1.409 . S
C1529 H1521 0.930 . S
C1529 C1527 1.419 . S
C1529 C1530 1.362 1_565 S
C1530 H1522 0.918 1_545 S
C1530 C1529 1.362 1_545 S
C1530 C1533 1.409 . S
C1531 H1523 0.930 . S
C1531 C1532 1.355 . S
C1531 C1533 1.415 . S
C1532 C1531 1.355 . S
C1532 C1534 1.419 . S
C1533 C1528 1.425 . S
C1533 C1530 1.409 . S
C1533 C1531 1.415 . S
C1534 H1524 0.930 . S
C1534 C1532 1.419 . S
C1534 C1535 1.362 . S
C1535 H1525 0.930 . S
C1535 C1528 1.409 . S
C1535 C1534 1.362 . S
H1536 C1542 0.930 . S
H1537 C1545 0.930 . S
H1538 C1546 0.930 . S
H1539 C1547 0.930 . S
H1540 C1550 0.930 . S
H1541 C1551 0.930 . S
C1542 H1536 0.930 . S
C1542 C1543 1.355 . S
C1542 C1544 1.415 . S
C1543 C1542 1.355 . S
C1543 C1545 1.419 . S
C1544 C1542 1.415 . S
C1544 C1549 1.425 . S
C1544 C1551 1.409 . S
C1545 H1537 0.930 . S
C1545 C1543 1.419 . S
C1545 C1546 1.362 . S
C1546 H1538 0.930 . S
C1546 C1545 1.362 . S
C1546 C1549 1.409 . S
C1547 H1539 0.930 . S
C1547 C1548 1.355 . S
C1547 C1549 1.415 . S
C1548 C1547 1.355 . S
C1548 C1550 1.419 . S
C1549 C1544 1.425 . S
C1549 C1546 1.409 . S
C1549 C1547 1.415 . S
C1550 H1540 0.930 . S
C1550 C1548 1.419 . S
C1550 C1551 1.362 . S
C1551 H1541 0.930 . S
C1551 C1544 1.409 . S
C1551 C1550 1.362 . S
H1552 C1558 0.930 . S
H1553 C1561 0.930 . S
H1554 C1562 0.930 . S
H1555 C1563 0.930 . S
H1556 C1566 0.930 . S
H1557 C1567 0.930 . S
C1558 H1552 0.930 . S
C1558 C1559 1.355 . S
C1558 C1560 1.415 1_565 S
C1559 C1558 1.355 . S
C1559 C1561 1.419 1_565 S
C1560 C1558 1.415 1_545 S
C1560 C1565 1.425 . S
C1560 C1567 1.409 . S
C1561 H1553 0.930 . S
C1561 C1559 1.419 1_545 S
C1561 C1562 1.362 . S
C1562 H1554 0.930 . S
C1562 C1561 1.362 . S
C1562 C1565 1.409 . S
C1563 H1555 0.930 . S
C1563 C1564 1.355 . S
C1563 C1565 1.415 . S
C1564 C1563 1.355 . S
C1564 C1566 1.419 . S
C1565 C1560 1.425 . S
C1565 C1562 1.409 . S
C1565 C1563 1.415 . S
C1566 H1556 0.930 . S
C1566 C1564 1.419 . S
C1566 C1567 1.362 . S
C1567 H1557 0.930 . S
C1567 C1560 1.409 . S
C1567 C1566 1.362 . S
H1568 C1574 0.930 . S
H1569 C1577 0.930 . S
H1570 C1578 0.930 . S
H1571 C1579 0.930 . S
H1572 C1582 0.930 . S
H1573 C1583 0.930 . S
C1574 H1568 0.930 . S
C1574 C1575 1.355 . S
C1574 C1576 1.415 . S
C1575 C1574 1.355 . S
C1575 C1577 1.419 . S
C1576 C1574 1.415 . S
C1576 C1581 1.425 . S
C1576 C1583 1.409 . S
C1577 H1569 0.930 . S
C1577 C1575 1.419 . S
C1577 C1578 1.362 . S
C1578 H1570 0.930 . S
C1578 C1577 1.362 . S
C1578 C1581 1.409 . S
C1579 H1571 0.930 . S
C1579 C1580 1.355 . S
C1579 C1581 1.415 . S
C1580 C1579 1.355 . S
C1580 C1582 1.419 . S
C1581 C1576 1.425 . S
C1581 C1578 1.409 . S
C1581 C1579 1.415 . S
C1582 H1572 0.930 . S
C1582 C1580 1.419 . S
C1582 C1583 1.362 . S
C1583 H1573 0.930 . S
C1583 C1576 1.409 . S
C1583 C1582 1.362 . S
H1584 C1590 0.930 . S
H1585 C1593 0.930 . S
H1586 C1594 0.930 . S
H1587 C1595 0.930 . S
H1588 C1598 0.930 . S
H1589 C1599 0.930 . S
C1590 H1584 0.930 . S
C1590 C1591 1.355 . S
C1590 C1592 1.415 . S
C1591 C1590 1.355 . S
C1591 C1593 1.419 . S
C1592 C1590 1.415 . S
C1592 C1597 1.425 . S
C1592 C1599 1.409 . S
C1593 H1585 0.930 . S
C1593 C1591 1.419 . S
C1593 C1594 1.362 . S
C1594 H1586 0.930 . S
C1594 C1593 1.362 . S
C1594 C1597 1.409 . S
C1595 H1587 0.930 . S
C1595 C1596 1.355 . S
C1595 C1597 1.415 . S
C1596 C1595 1.355 . S
C1596 C1598 1.419 . S
C1597 C1592 1.425 . S
C1597 C1594 1.409 . S
C1597 C1595 1.415 . S
C1598 H1588 0.930 . S
C1598 C1596 1.419 . S
C1598 C1599 1.362 . S
C1599 H1589 0.930 . S
C1599 C1592 1.409 . S
C1599 C1598 1.362 . S
H1600 C1606 0.930 1_565 S
H1601 C1609 0.930 . S
H1602 C1610 0.930 . S
H1603 C1611 0.930 . S
H1604 C1614 0.930 . S
H1605 C1615 0.930 . S
C1606 H1600 0.930 1_545 S
C1606 C1607 1.355 . S
C1606 C1608 1.415 . S
C1607 C1606 1.355 . S
C1607 C1609 1.419 . S
C1608 C1606 1.415 . S
C1608 C1613 1.425 . S
C1608 C1615 1.409 1_545 S
C1609 H1601 0.930 . S
C1609 C1607 1.419 . S
C1609 C1610 1.362 . S
C1610 H1602 0.930 . S
C1610 C1609 1.362 . S
C1610 C1613 1.409 . S
C1611 H1603 0.930 . S
C1611 C1612 1.355 . S
C1611 C1613 1.415 . S
C1612 C1611 1.355 . S
C1612 C1614 1.419 1_545 S
C1613 C1608 1.425 . S
C1613 C1610 1.409 . S
C1613 C1611 1.415 . S
C1614 H1604 0.930 . S
C1614 C1612 1.419 1_565 S
C1614 C1615 1.362 . S
C1615 H1605 0.930 . S
C1615 C1608 1.409 1_565 S
C1615 C1614 1.362 . S
H1616 C1622 0.930 . S
H1617 C1625 0.930 . S
H1618 C1626 0.930 . S
H1619 C1627 0.930 . S
H1620 C1630 0.930 . S
H1621 C1631 0.930 . S
C1622 H1616 0.930 . S
C1622 C1623 1.355 . S
C1622 C1624 1.415 . S
C1623 C1622 1.355 . S
C1623 C1625 1.419 . S
C1624 C1622 1.415 . S
C1624 C1629 1.425 . S
C1624 C1631 1.409 . S
C1625 H1617 0.930 . S
C1625 C1623 1.419 . S
C1625 C1626 1.362 . S
C1626 H1618 0.930 . S
C1626 C1625 1.362 . S
C1626 C1629 1.409 . S
C1627 H1619 0.930 . S
C1627 C1628 1.355 . S
C1627 C1629 1.415 . S
C1628 C1627 1.355 . S
C1628 C1630 1.419 . S
C1629 C1624 1.425 . S
C1629 C1626 1.409 . S
C1629 C1627 1.415 . S
C1630 H1620 0.930 . S
C1630 C1628 1.419 . S
C1630 C1631 1.362 . S
C1631 H1621 0.930 . S
C1631 C1624 1.409 . S
C1631 C1630 1.362 . S
H1632 C1638 0.930 . S
H1633 C1641 0.930 . S
H1634 C1642 0.930 . S
H1635 C1643 0.930 . S
H1636 C1646 0.930 . S
H1637 C1647 0.930 . S
C1638 H1632 0.930 . S
C1638 C1639 1.355 . S
C1638 C1640 1.415 . S
C1639 C1638 1.355 . S
C1639 C1641 1.419 . S
C1640 C1638 1.415 . S
C1640 C1645 1.425 . S
C1640 C1647 1.409 . S
C1641 H1633 0.930 . S
C1641 C1639 1.419 . S
C1641 C1642 1.362 . S
C1642 H1634 0.930 . S
C1642 C1641 1.362 . S
C1642 C1645 1.409 . S
C1643 H1635 0.930 . S
C1643 C1644 1.355 . S
C1643 C1645 1.415 . S
C1644 C1643 1.355 . S
C1644 C1646 1.419 . S
C1645 C1640 1.425 . S
C1645 C1642 1.409 . S
C1645 C1643 1.415 . S
C1646 H1636 0.930 . S
C1646 C1644 1.419 . S
C1646 C1647 1.362 . S
C1647 H1637 0.930 . S
C1647 C1640 1.409 . S
C1647 C1646 1.362 . S
H1648 C1654 0.930 . S
H1649 C1657 0.930 . S
H1650 C1658 0.930 . S
H1651 C1659 0.930 . S
H1652 C1662 0.930 . S
H1653 C1663 0.930 . S
C1654 H1648 0.930 . S
C1654 C1655 1.355 . S
C1654 C1656 1.415 . S
C1655 C1654 1.355 . S
C1655 C1657 1.419 . S
C1656 C1654 1.415 . S
C1656 C1661 1.425 . S
C1656 C1663 1.409 . S
C1657 H1649 0.930 . S
C1657 C1655 1.419 . S
C1657 C1658 1.362 . S
C1658 H1650 0.930 . S
C1658 C1657 1.362 . S
C1658 C1661 1.409 . S
C1659 H1651 0.930 . S
C1659 C1660 1.355 . S
C1659 C1661 1.415 . S
C1660 C1659 1.355 . S
C1660 C1662 1.419 . S
C1661 C1656 1.425 . S
C1661 C1658 1.409 . S
C1661 C1659 1.415 . S
C1662 H1652 0.930 . S
C1662 C1660 1.419 . S
C1662 C1663 1.362 . S
C1663 H1653 0.930 . S
C1663 C1656 1.409 . S
C1663 C1662 1.362 . S
H1664 C1670 0.930 . S
H1665 C1673 0.930 . S
H1666 C1674 0.930 . S
H1667 C1675 0.930 . S
H1668 C1678 0.930 . S
H1669 C1679 0.930 . S
C1670 H1664 0.930 . S
C1670 C1671 1.355 1_655 S
C1670 C1672 1.415 . S
C1671 C1670 1.355 1_455 S
C1671 C1673 1.419 . S
C1672 C1670 1.415 . S
C1672 C1677 1.425 . S
C1672 C1679 1.409 . S
C1673 H1665 0.930 . S
C1673 C1671 1.419 . S
C1673 C1674 1.362 . S
C1674 H1666 0.930 . S
C1674 C1673 1.362 . S
C1674 C1677 1.409 1_455 S
C1675 H1667 0.930 . S
C1675 C1676 1.355 . S
C1675 C1677 1.415 . S
C1676 C1675 1.355 . S
C1676 C1678 1.419 . S
C1677 C1672 1.425 . S
C1677 C1674 1.409 1_655 S
C1677 C1675 1.415 . S
C1678 H1668 0.930 . S
C1678 C1676 1.419 . S
C1678 C1679 1.362 . S
C1679 H1669 0.930 . S
C1679 C1672 1.409 . S
C1679 C1678 1.362 . S
H1680 C1686 0.930 . S
H1681 C1689 0.930 . S
H1682 C1690 0.930 . S
H1683 C1691 0.930 . S
H1684 C1694 0.930 . S
H1685 C1695 0.930 . S
C1686 H1680 0.930 . S
C1686 C1687 1.355 . S
C1686 C1688 1.415 . S
C1687 C1686 1.355 . S
C1687 C1689 1.419 . S
C1688 C1686 1.415 . S
C1688 C1693 1.425 . S
C1688 C1695 1.409 . S
C1689 H1681 0.930 . S
C1689 C1687 1.419 . S
C1689 C1690 1.362 . S
C1690 H1682 0.930 . S
C1690 C1689 1.362 . S
C1690 C1693 1.409 . S
C1691 H1683 0.930 . S
C1691 C1692 1.355 . S
C1691 C1693 1.415 . S
C1692 C1691 1.355 . S
C1692 C1694 1.419 . S
C1693 C1688 1.425 . S
C1693 C1690 1.409 . S
C1693 C1691 1.415 . S
C1694 H1684 0.930 . S
C1694 C1692 1.419 . S
C1694 C1695 1.362 . S
C1695 H1685 0.930 . S
C1695 C1688 1.409 . S
C1695 C1694 1.362 . S
H1696 C1702 0.930 . S
H1697 C1705 0.930 . S
H1698 C1706 0.930 . S
H1699 C1707 0.930 . S
H1700 C1710 0.930 . S
H1701 C1711 0.930 1_655 S
C1702 H1696 0.930 . S
C1702 C1703 1.354 . S
C1702 C1704 1.415 1_655 S
C1703 C1702 1.354 . S
C1703 C1705 1.423 1_655 S
C1704 C1702 1.415 1_455 S
C1704 C1709 1.425 . S
C1704 C1711 1.409 . S
C1705 H1697 0.930 . S
C1705 C1703 1.423 1_455 S
C1705 C1706 1.362 . S
C1706 H1698 0.930 . S
C1706 C1705 1.362 . S
C1706 C1709 1.409 . S
C1707 H1699 0.930 . S
C1707 C1708 1.355 . S
C1707 C1709 1.415 . S
C1708 C1707 1.355 . S
C1708 C1710 1.419 . S
C1709 C1704 1.425 . S
C1709 C1706 1.409 . S
C1709 C1707 1.415 . S
C1710 H1700 0.930 . S
C1710 C1708 1.419 . S
C1710 C1711 1.362 . S
C1711 H1701 0.930 1_455 S
C1711 C1704 1.409 . S
C1711 C1710 1.362 . S
H1712 C1718 0.930 . S
H1713 C1721 0.930 . S
H1714 C1722 0.930 . S
H1715 C1723 0.930 . S
H1716 C1726 0.930 . S
H1717 C1727 0.930 . S
C1718 H1712 0.930 . S
C1718 C1719 1.355 . S
C1718 C1720 1.415 . S
C1719 C1718 1.355 . S
C1719 C1721 1.419 . S
C1720 C1718 1.415 . S
C1720 C1725 1.425 . S
C1720 C1727 1.409 . S
C1721 H1713 0.930 . S
C1721 C1719 1.419 . S
C1721 C1722 1.362 . S
C1722 H1714 0.930 . S
C1722 C1721 1.362 . S
C1722 C1725 1.409 . S
C1723 H1715 0.930 . S
C1723 C1724 1.355 . S
C1723 C1725 1.415 . S
C1724 C1723 1.355 . S
C1724 C1726 1.419 . S
C1725 C1720 1.425 . S
C1725 C1722 1.409 . S
C1725 C1723 1.415 . S
C1726 H1716 0.930 . S
C1726 C1724 1.419 . S
C1726 C1727 1.362 . S
C1727 H1717 0.930 . S
C1727 C1720 1.409 . S
C1727 C1726 1.362 . S
H1728 C1734 0.930 1_554 S
H1729 C1737 0.948 . S
H1730 C1738 0.930 . S
H1731 C1739 0.930 1_455 S
H1732 C1742 0.930 . S
H1733 C1743 0.930 . S
C1734 H1728 0.930 1_556 S
C1734 C1735 1.355 1_556 S
C1734 C1736 1.415 . S
C1735 C1734 1.355 1_554 S
C1735 C1737 1.394 1_654 S
C1736 C1734 1.415 . S
C1736 C1741 1.425 . S
C1736 C1743 1.409 . S
C1737 H1729 0.948 . S
C1737 C1735 1.394 1_456 S
C1737 C1738 1.370 . S
C1738 H1730 0.930 . S
C1738 C1737 1.370 . S
C1738 C1741 1.409 1_455 S
C1739 H1731 0.930 1_655 S
C1739 C1740 1.355 . S
C1739 C1741 1.415 . S
C1740 C1739 1.355 . S
C1740 C1742 1.419 . S
C1741 C1736 1.425 . S
C1741 C1738 1.409 1_655 S
C1741 C1739 1.415 . S
C1742 H1732 0.930 . S
C1742 C1740 1.419 . S
C1742 C1743 1.362 . S
C1743 H1733 0.930 . S
C1743 C1736 1.409 . S
C1743 C1742 1.362 . S
H1744 C1750 0.930 . S
H1745 C1753 0.930 . S
H1746 C1754 0.930 . S
H1747 C1755 0.930 . S
H1748 C1758 0.930 . S
H1749 C1759 0.930 . S
C1750 H1744 0.930 . S
C1750 C1751 1.355 . S
C1750 C1752 1.415 . S
C1751 C1750 1.355 . S
C1751 C1753 1.419 . S
C1752 C1750 1.415 . S
C1752 C1757 1.425 . S
C1752 C1759 1.409 . S
C1753 H1745 0.930 . S
C1753 C1751 1.419 . S
C1753 C1754 1.362 . S
C1754 H1746 0.930 . S
C1754 C1753 1.362 . S
C1754 C1757 1.409 . S
C1755 H1747 0.930 . S
C1755 C1756 1.355 . S
C1755 C1757 1.415 . S
C1756 C1755 1.355 . S
C1756 C1758 1.419 . S
C1757 C1752 1.425 . S
C1757 C1754 1.409 . S
C1757 C1755 1.415 . S
C1758 H1748 0.930 . S
C1758 C1756 1.419 . S
C1758 C1759 1.362 . S
C1759 H1749 0.930 . S
C1759 C1752 1.409 . S
C1759 C1758 1.362 . S
H1760 C1766 0.930 . S
H1761 C1769 0.930 1_655 S
H1762 C1770 0.922 1_554 S
H1763 C1771 0.930 1_655 S
H1764 C1774 0.930 . S
H1765 C1775 0.930 . S
C1766 H1760 0.930 . S
C1766 C1767 1.355 1_556 S
C1766 C1768 1.415 . S
C1767 C1766 1.355 1_554 S
C1767 C1769 1.419 . S
C1768 C1766 1.415 . S
C1768 C1773 1.425 . S
C1768 C1775 1.409 . S
C1769 H1761 0.930 1_455 S
C1769 C1767 1.419 . S
C1769 C1770 1.349 1_454 S
C1770 H1762 0.922 1_556 S
C1770 C1769 1.349 1_656 S
C1770 C1773 1.432 1_655 S
C1771 H1763 0.930 1_455 S
C1771 C1772 1.355 . S
C1771 C1773 1.415 . S
C1772 C1771 1.355 . S
C1772 C1774 1.419 . S
C1773 C1768 1.425 . S
C1773 C1770 1.432 1_455 S
C1773 C1771 1.415 . S
C1774 H1764 0.930 . S
C1774 C1772 1.419 . S
C1774 C1775 1.362 . S
C1775 H1765 0.930 . S
C1775 C1768 1.409 . S
C1775 C1774 1.362 . S
H1776 C1782 0.930 . S
H1777 C1785 0.930 . S
H1778 C1786 0.930 . S
H1779 C1787 0.930 . S
H1780 C1790 0.930 . S
H1781 C1791 0.930 . S
C1782 H1776 0.930 . S
C1782 C1783 1.355 . S
C1782 C1784 1.415 . S
C1783 C1782 1.355 . S
C1783 C1785 1.419 . S
C1784 C1782 1.415 . S
C1784 C1789 1.425 . S
C1784 C1791 1.409 . S
C1785 H1777 0.930 . S
C1785 C1783 1.419 . S
C1785 C1786 1.362 . S
C1786 H1778 0.930 . S
C1786 C1785 1.362 . S
C1786 C1789 1.409 . S
C1787 H1779 0.930 . S
C1787 C1788 1.355 . S
C1787 C1789 1.415 . S
C1788 C1787 1.355 . S
C1788 C1790 1.419 . S
C1789 C1784 1.425 . S
C1789 C1786 1.409 . S
C1789 C1787 1.415 . S
C1790 H1780 0.930 . S
C1790 C1788 1.419 . S
C1790 C1791 1.362 . S
C1791 H1781 0.930 . S
C1791 C1784 1.409 . S
C1791 C1790 1.362 . S
H1792 C1798 0.930 . S
H1793 C1801 0.930 . S
H1794 C1802 0.930 . S
H1795 C1803 0.930 . S
H1796 C1806 0.930 . S
H1797 C1807 0.930 1_556 S
C1798 H1792 0.930 . S
C1798 C1799 1.344 1_556 S
C1798 C1800 1.415 1_556 S
C1799 C1798 1.344 1_554 S
C1799 C1801 1.462 . S
C1800 C1798 1.415 1_554 S
C1800 C1805 1.425 . S
C1800 C1807 1.409 . S
C1801 H1793 0.930 . S
C1801 C1799 1.462 . S
C1801 C1802 1.362 . S
C1802 H1794 0.930 . S
C1802 C1801 1.362 . S
C1802 C1805 1.409 . S
C1803 H1795 0.930 . S
C1803 C1804 1.355 . S
C1803 C1805 1.415 . S
C1804 C1803 1.355 . S
C1804 C1806 1.419 . S
C1805 C1800 1.425 . S
C1805 C1802 1.409 . S
C1805 C1803 1.415 . S
C1806 H1796 0.930 . S
C1806 C1804 1.419 . S
C1806 C1807 1.362 . S
C1807 H1797 0.930 1_554 S
C1807 C1800 1.409 . S
C1807 C1806 1.362 . S
H1808 C1814 0.930 . S
H1809 C1817 0.930 . S
H1810 C1818 0.930 . S
H1811 C1819 0.930 . S
H1812 C1822 0.930 . S
H1813 C1823 0.930 . S
C1814 H1808 0.930 . S
C1814 C1815 1.355 . S
C1814 C1816 1.415 . S
C1815 C1814 1.355 . S
C1815 C1817 1.419 . S
C1816 C1814 1.415 . S
C1816 C1821 1.425 . S
C1816 C1823 1.409 . S
C1817 H1809 0.930 . S
C1817 C1815 1.419 . S
C1817 C1818 1.362 . S
C1818 H1810 0.930 . S
C1818 C1817 1.362 . S
C1818 C1821 1.409 . S
C1819 H1811 0.930 . S
C1819 C1820 1.355 . S
C1819 C1821 1.415 . S
C1820 C1819 1.355 . S
C1820 C1822 1.419 . S
C1821 C1816 1.425 . S
C1821 C1818 1.409 . S
C1821 C1819 1.415 . S
C1822 H1812 0.930 . S
C1822 C1820 1.419 . S
C1822 C1823 1.362 . S
C1823 H1813 0.930 . S
C1823 C1816 1.409 . S
C1823 C1822 1.362 . S
H1824 C1830 0.930 . S
H1825 C1833 0.930 . S
H1826 C1834 0.930 . S
H1827 C1835 0.930 . S
H1828 C1838 0.930 . S
H1829 C1839 0.930 1_556 S
C1830 H1824 0.930 . S
C1830 C1831 1.350 1_556 S
C1830 C1832 1.415 1_556 S
C1831 C1830 1.350 1_554 S
C1831 C1833 1.438 . S
C1832 C1830 1.415 1_554 S
C1832 C1837 1.425 . S
C1832 C1839 1.409 . S
C1833 H1825 0.930 . S
C1833 C1831 1.438 . S
C1833 C1834 1.362 . S
C1834 H1826 0.930 . S
C1834 C1833 1.362 . S
C1834 C1837 1.409 . S
C1835 H1827 0.930 . S
C1835 C1836 1.355 . S
C1835 C1837 1.415 . S
C1836 C1835 1.355 . S
C1836 C1838 1.419 . S
C1837 C1832 1.425 . S
C1837 C1834 1.409 . S
C1837 C1835 1.415 . S
C1838 H1828 0.930 . S
C1838 C1836 1.419 . S
C1838 C1839 1.362 . S
C1839 H1829 0.930 1_554 S
C1839 C1832 1.409 . S
C1839 C1838 1.362 . S
H1840 C1846 0.930 . S
H1841 C1849 0.930 . S
H1842 C1850 0.930 . S
H1843 C1851 0.930 . S
H1844 C1854 0.930 . S
H1845 C1855 0.930 . S
C1846 H1840 0.930 . S
C1846 C1847 1.355 . S
C1846 C1848 1.415 . S
C1847 C1846 1.355 . S
C1847 C1849 1.419 . S
C1848 C1846 1.415 . S
C1848 C1853 1.425 . S
C1848 C1855 1.409 . S
C1849 H1841 0.930 . S
C1849 C1847 1.419 . S
C1849 C1850 1.362 . S
C1850 H1842 0.930 . S
C1850 C1849 1.362 . S
C1850 C1853 1.409 . S
C1851 H1843 0.930 . S
C1851 C1852 1.355 . S
C1851 C1853 1.415 . S
C1852 C1851 1.355 . S
C1852 C1854 1.419 . S
C1853 C1848 1.425 . S
C1853 C1850 1.409 . S
C1853 C1851 1.415 . S
C1854 H1844 0.930 . S
C1854 C1852 1.419 . S
C1854 C1855 1.362 . S
C1855 H1845 0.930 . S
C1855 C1848 1.409 . S
C1855 C1854 1.362 . S
H1856 C1862 0.930 . S
H1857 C1865 0.930 . S
H1858 C1866 0.930 . S
H1859 C1867 0.930 . S
H1860 C1870 0.930 . S
H1861 C1871 0.930 . S
C1862 H1856 0.930 . S
C1862 C1863 1.355 . S
C1862 C1864 1.415 . S
C1863 C1862 1.355 . S
C1863 C1865 1.419 . S
C1864 C1862 1.415 . S
C1864 C1869 1.425 . S
C1864 C1871 1.409 . S
C1865 H1857 0.930 . S
C1865 C1863 1.419 . S
C1865 C1866 1.362 . S
C1866 H1858 0.930 . S
C1866 C1865 1.362 . S
C1866 C1869 1.409 . S
C1867 H1859 0.930 . S
C1867 C1868 1.355 . S
C1867 C1869 1.415 . S
C1868 C1867 1.355 . S
C1868 C1870 1.419 . S
C1869 C1864 1.425 . S
C1869 C1866 1.409 . S
C1869 C1867 1.415 . S
C1870 H1860 0.930 . S
C1870 C1868 1.419 . S
C1870 C1871 1.362 . S
C1871 H1861 0.930 . S
C1871 C1864 1.409 . S
C1871 C1870 1.362 . S
H1872 C1878 0.930 . S
H1873 C1881 0.930 . S
H1874 C1882 0.930 . S
H1875 C1883 0.930 . S
H1876 C1886 0.930 . S
H1877 C1887 0.930 . S
C1878 H1872 0.930 . S
C1878 C1879 1.355 . S
C1878 C1880 1.415 . S
C1879 C1878 1.355 . S
C1879 C1881 1.419 . S
C1880 C1878 1.415 . S
C1880 C1885 1.425 . S
C1880 C1887 1.409 . S
C1881 H1873 0.930 . S
C1881 C1879 1.419 . S
C1881 C1882 1.362 . S
C1882 H1874 0.930 . S
C1882 C1881 1.362 . S
C1882 C1885 1.409 . S
C1883 H1875 0.930 . S
C1883 C1884 1.355 . S
C1883 C1885 1.415 . S
C1884 C1883 1.355 . S
C1884 C1886 1.419 . S
C1885 C1880 1.425 . S
C1885 C1882 1.409 . S
C1885 C1883 1.415 . S
C1886 H1876 0.930 . S
C1886 C1884 1.419 . S
C1886 C1887 1.362 . S
C1887 H1877 0.930 . S
C1887 C1880 1.409 . S
C1887 C1886 1.362 . S
H1888 C1894 0.930 . S
H1889 C1897 0.930 . S
H1890 C1898 0.930 . S
H1891 C1899 0.930 . S
H1892 C1902 0.930 . S
H1893 C1903 0.930 . S
C1894 H1888 0.930 . S
C1894 C1895 1.355 . S
C1894 C1896 1.415 . S
C1895 C1894 1.355 . S
C1895 C1897 1.419 . S
C1896 C1894 1.415 . S
C1896 C1901 1.425 . S
C1896 C1903 1.409 . S
C1897 H1889 0.930 . S
C1897 C1895 1.419 . S
C1897 C1898 1.362 . S
C1898 H1890 0.930 . S
C1898 C1897 1.362 . S
C1898 C1901 1.409 . S
C1899 H1891 0.930 . S
C1899 C1900 1.355 . S
C1899 C1901 1.415 . S
C1900 C1899 1.355 . S
C1900 C1902 1.419 . S
C1901 C1896 1.425 . S
C1901 C1898 1.409 . S
C1901 C1899 1.415 . S
C1902 H1892 0.930 . S
C1902 C1900 1.419 . S
C1902 C1903 1.362 . S
C1903 H1893 0.930 . S
C1903 C1896 1.409 . S
C1903 C1902 1.362 . S
H1904 C1910 0.930 1_554 S
H1905 C1913 0.930 . S
H1906 C1914 0.930 . S
H1907 C1915 0.930 . S
H1908 C1918 0.930 . S
H1909 C1919 0.930 . S
C1910 H1904 0.930 1_556 S
C1910 C1911 1.355 . S
C1910 C1912 1.415 . S
C1911 C1910 1.355 . S
C1911 C1913 1.419 . S
C1912 C1910 1.415 . S
C1912 C1917 1.425 . S
C1912 C1919 1.409 1_556 S
C1913 H1905 0.930 . S
C1913 C1911 1.419 . S
C1913 C1914 1.362 . S
C1914 H1906 0.930 . S
C1914 C1913 1.362 . S
C1914 C1917 1.409 . S
C1915 H1907 0.930 . S
C1915 C1916 1.355 . S
C1915 C1917 1.415 . S
C1916 C1915 1.355 . S
C1916 C1918 1.419 1_556 S
C1917 C1912 1.425 . S
C1917 C1914 1.409 . S
C1917 C1915 1.415 . S
C1918 H1908 0.930 . S
C1918 C1916 1.419 1_554 S
C1918 C1919 1.362 . S
C1919 H1909 0.930 . S
C1919 C1912 1.409 1_554 S
C1919 C1918 1.362 . S
H1920 C1926 0.930 . S
H1921 C1929 0.930 . S
H1922 C1930 0.930 . S
H1923 C1931 0.930 . S
H1924 C1934 0.930 . S
H1925 C1935 0.930 . S
C1926 H1920 0.930 . S
C1926 C1927 1.355 . S
C1926 C1928 1.415 . S
C1927 C1926 1.355 . S
C1927 C1929 1.419 . S
C1928 C1926 1.415 . S
C1928 C1933 1.425 . S
C1928 C1935 1.409 . S
C1929 H1921 0.930 . S
C1929 C1927 1.419 . S
C1929 C1930 1.362 . S
C1930 H1922 0.930 . S
C1930 C1929 1.362 . S
C1930 C1933 1.409 . S
C1931 H1923 0.930 . S
C1931 C1932 1.355 . S
C1931 C1933 1.415 . S
C1932 C1931 1.355 . S
C1932 C1934 1.419 . S
C1933 C1928 1.425 . S
C1933 C1930 1.409 . S
C1933 C1931 1.415 . S
C1934 H1924 0.930 . S
C1934 C1932 1.419 . S
C1934 C1935 1.362 . S
C1935 H1925 0.930 . S
C1935 C1928 1.409 . S
C1935 C1934 1.362 . S
H1936 C1942 0.930 . S
H1937 C1945 0.930 . S
H1938 C1946 0.930 . S
H1939 C1947 0.930 . S
H1940 C1950 0.930 . S
H1941 C1951 0.930 . S
C1942 H1936 0.930 . S
C1942 C1943 1.355 . S
C1942 C1944 1.415 . S
C1943 C1942 1.355 . S
C1943 C1945 1.419 . S
C1944 C1942 1.415 . S
C1944 C1949 1.425 . S
C1944 C1951 1.409 . S
C1945 H1937 0.930 . S
C1945 C1943 1.419 . S
C1945 C1946 1.362 . S
C1946 H1938 0.930 . S
C1946 C1945 1.362 . S
C1946 C1949 1.409 . S
C1947 H1939 0.930 . S
C1947 C1948 1.355 . S
C1947 C1949 1.415 . S
C1948 C1947 1.355 . S
C1948 C1950 1.419 . S
C1949 C1944 1.425 . S
C1949 C1946 1.409 . S
C1949 C1947 1.415 . S
C1950 H1940 0.930 . S
C1950 C1948 1.419 . S
C1950 C1951 1.362 . S
C1951 H1941 0.930 . S
C1951 C1944 1.409 . S
C1951 C1950 1.362 . S
H1952 C1958 0.930 . S
H1953 C1961 0.930 . S
H1954 C1962 0.930 1_545 S
H1955 C1963 0.930 . S
H1956 C1966 0.930 . S
H1957 C1967 0.930 . S
C1958 H1952 0.930 . S
C1958 C1959 1.355 1_565 S
C1958 C1960 1.415 . S
C1959 C1958 1.355 1_545 S
C1959 C1961 1.419 . S
C1960 C1958 1.415 . S
C1960 C1965 1.425 . S
C1960 C1967 1.409 1_554 S
C1961 H1953 0.930 . S
C1961 C1959 1.419 . S
C1961 C1962 1.362 1_545 S
C1962 H1954 0.930 1_565 S
C1962 C1961 1.362 1_565 S
C1962 C1965 1.409 . S
C1963 H1955 0.930 . S
C1963 C1964 1.355 . S
C1963 C1965 1.415 . S
C1964 C1963 1.355 . S
C1964 C1966 1.419 1_554 S
C1965 C1960 1.425 . S
C1965 C1962 1.409 . S
C1965 C1963 1.415 . S
C1966 H1956 0.930 . S
C1966 C1964 1.419 1_556 S
C1966 C1967 1.362 . S
C1967 H1957 0.930 . S
C1967 C1960 1.409 1_556 S
C1967 C1966 1.362 . S
C1212 C193 1.506 . S
C1207 C50 1.510 . S
C1228 C252 1.496 . S
C1223 C61 1.477 1_455 S
C1239 C67 1.502 . S
C1244 C369 1.503 . S
C1260 C437 1.500 . S
C1255 C41 1.492 . S
C1276 C516 1.496 . S
C1271 C95 1.497 . S
C1292 C641 1.509 . S
C1287 C113 1.501 . S
C1303 C106 1.481 . S
C1308 C701 1.482 . S
C1324 C809 1.508 . S
C1319 C86 1.507 . S
C1335 C104 1.494 . S
C1340 C905 1.494 . S
C1356 C965 1.512 . S
C1351 C88 1.513 . S
C1367 C94 1.513 . S
C1372 C868 1.514 . S
C1388 C985 1.497 . S
C1383 C112 1.489 . S
C1399 C70 1.492 . S
C1404 C1053 1.493 . S
C1415 C40 1.499 . S
C1420 C1044 1.507 . S
C1431 C49 1.504 . S
C1436 C1073 1.505 . S
C1447 C59 1.513 . S
C1452 C1081 1.510 . S
C1463 C34 1.488 . S
C1468 C465 1.489 . S
C1479 C133 1.493 . S
C1484 C428 1.493 . S
C1500 C164 1.507 . S
C1495 C139 1.500 . S
C1516 C261 1.504 . S
C1511 C77 1.505 . S
C1527 C43 1.486 . S
C1532 C525 1.494 . S
C1548 C817 1.501 . S
C1543 C103 1.497 . S
C1564 C545 1.520 . S
C1559 C85 1.522 . S
C1580 C729 1.495 . S
C1575 C115 1.493 . S
C1596 C721 1.503 . S
C1591 C131 1.504 . S
C1607 C142 1.488 . S
C1612 C789 1.495 . S
C1623 C76 1.498 . S
C1628 C553 1.499 . S
C1644 C604 1.504 . S
C1639 C122 1.505 . S
C1655 C32 1.492 . S
C1660 C349 1.492 . S
C1676 C457 1.509 . S
C1671 C5 1.501 . S
C1692 C173 1.487 . S
C1687 C16 1.484 . S
C1708 C289 1.512 . S
C1703 C23 1.511 . S
C1719 C14 1.493 . S
C1724 C993 1.492 . S
C1735 C25 1.509 . S
C1740 C877 1.508 . S
C1751 C31 1.515 . S
C1756 C956 1.515 . S
C1767 C4 1.496 . S
C1772 C897 1.495 . S
C1788 C1141 1.493 . S
C1783 C79 1.492 . S
C1804 C1132 1.510 . S
C1799 C121 1.484 1_554 S
C1820 C1161 1.506 . S
C1815 C130 1.507 . S
C1831 C140 1.501 1_554 S
C1836 C1169 1.513 . S
C1847 C97 1.485 . S
C1852 C633 1.486 . S
C1868 C613 1.492 . S
C1863 C52 1.492 . S
C1884 C692 1.511 . S
C1879 C58 1.508 . S
C1900 C780 1.500 . S
C1895 C68 1.505 . S
C1911 C124 1.489 . S
C1916 C340 1.496 . S
C1932 C281 1.497 . S
C1927 C13 1.496 . S
C1943 C22 1.523 . S
C1948 C377 1.521 . S
C1964 C201 1.492 . S
C1959 C7 1.483 . S
