# Generated by pormake.
# Topology bwt, (3,3)-cn, num edge types: 1
# Building blocks:
#     Node 0, Type 0, BuildingBlock: OLANEW_clean_sbu_2, # of connection points: 3
#     Node 1, Type 0, BuildingBlock: OLANEW_clean_sbu_2, # of connection points: 3
#     Node 2, Type 0, BuildingBlock: OLANEW_clean_sbu_2, # of connection points: 3
#     Node 3, Type 0, BuildingBlock: OLANEW_clean_sbu_2, # of connection points: 3
#     Node 4, Type 0, BuildingBlock: OLANEW_clean_sbu_2, # of connection points: 3
#     Node 5, Type 0, BuildingBlock: OLANEW_clean_sbu_2, # of connection points: 3
#     Node 6, Type 0, BuildingBlock: OLANEW_clean_sbu_2, # of connection points: 3
#     Node 7, Type 0, BuildingBlock: OLANEW_clean_sbu_2, # of connection points: 3
#     Node 8, Type 0, BuildingBlock: OLANEW_clean_sbu_2, # of connection points: 3
#     Node 9, Type 0, BuildingBlock: OLANEW_clean_sbu_2, # of connection points: 3
#     Node 10, Type 0, BuildingBlock: OLANEW_clean_sbu_2, # of connection points: 3
#     Node 11, Type 0, BuildingBlock: OLANEW_clean_sbu_2, # of connection points: 3
#     Node 12, Type 0, BuildingBlock: OLANEW_clean_sbu_2, # of connection points: 3
#     Node 13, Type 0, BuildingBlock: OLANEW_clean_sbu_2, # of connection points: 3
#     Node 14, Type 0, BuildingBlock: OLANEW_clean_sbu_2, # of connection points: 3
#     Node 15, Type 0, BuildingBlock: OLANEW_clean_sbu_2, # of connection points: 3
#     Node 16, Type 0, BuildingBlock: OLANEW_clean_sbu_2, # of connection points: 3
#     Node 17, Type 0, BuildingBlock: OLANEW_clean_sbu_2, # of connection points: 3
#     Node 18, Type 0, BuildingBlock: OLANEW_clean_sbu_2, # of connection points: 3
#     Node 19, Type 0, BuildingBlock: OLANEW_clean_sbu_2, # of connection points: 3
#     Node 20, Type 0, BuildingBlock: OLANEW_clean_sbu_2, # of connection points: 3
#     Node 21, Type 0, BuildingBlock: OLANEW_clean_sbu_2, # of connection points: 3
#     Node 22, Type 0, BuildingBlock: OLANEW_clean_sbu_2, # of connection points: 3
#     Node 23, Type 0, BuildingBlock: OLANEW_clean_sbu_2, # of connection points: 3
#     Node 24, Type 1, BuildingBlock: MIDCAF_clean_linker_0, # of connection points: 3
#     Node 25, Type 1, BuildingBlock: MIDCAF_clean_linker_0, # of connection points: 3
#     Node 26, Type 1, BuildingBlock: MIDCAF_clean_linker_0, # of connection points: 3
#     Node 27, Type 1, BuildingBlock: MIDCAF_clean_linker_0, # of connection points: 3
#     Node 28, Type 1, BuildingBlock: MIDCAF_clean_linker_0, # of connection points: 3
#     Node 29, Type 1, BuildingBlock: MIDCAF_clean_linker_0, # of connection points: 3
#     Node 30, Type 1, BuildingBlock: MIDCAF_clean_linker_0, # of connection points: 3
#     Node 31, Type 1, BuildingBlock: MIDCAF_clean_linker_0, # of connection points: 3
#     Node 32, Type 1, BuildingBlock: MIDCAF_clean_linker_0, # of connection points: 3
#     Node 33, Type 1, BuildingBlock: MIDCAF_clean_linker_0, # of connection points: 3
#     Node 34, Type 1, BuildingBlock: MIDCAF_clean_linker_0, # of connection points: 3
#     Node 35, Type 1, BuildingBlock: MIDCAF_clean_linker_0, # of connection points: 3
#     Node 36, Type 1, BuildingBlock: MIDCAF_clean_linker_0, # of connection points: 3
#     Node 37, Type 1, BuildingBlock: MIDCAF_clean_linker_0, # of connection points: 3
#     Node 38, Type 1, BuildingBlock: MIDCAF_clean_linker_0, # of connection points: 3
#     Node 39, Type 1, BuildingBlock: MIDCAF_clean_linker_0, # of connection points: 3
#     Node 40, Type 1, BuildingBlock: MIDCAF_clean_linker_0, # of connection points: 3
#     Node 41, Type 1, BuildingBlock: MIDCAF_clean_linker_0, # of connection points: 3
#     Node 42, Type 1, BuildingBlock: MIDCAF_clean_linker_0, # of connection points: 3
#     Node 43, Type 1, BuildingBlock: MIDCAF_clean_linker_0, # of connection points: 3
#     Node 44, Type 1, BuildingBlock: MIDCAF_clean_linker_0, # of connection points: 3
#     Node 45, Type 1, BuildingBlock: MIDCAF_clean_linker_0, # of connection points: 3
#     Node 46, Type 1, BuildingBlock: MIDCAF_clean_linker_0, # of connection points: 3
#     Node 47, Type 1, BuildingBlock: MIDCAF_clean_linker_0, # of connection points: 3
#     Edge 48, Type (0, 1), BuildingBlock: EZIPEK_clean_linker_0, # of connection points: 2
#     Edge 49, Type (0, 1), BuildingBlock: EZIPEK_clean_linker_0, # of connection points: 2
#     Edge 50, Type (0, 1), BuildingBlock: EZIPEK_clean_linker_0, # of connection points: 2
#     Edge 51, Type (0, 1), BuildingBlock: EZIPEK_clean_linker_0, # of connection points: 2
#     Edge 52, Type (0, 1), BuildingBlock: EZIPEK_clean_linker_0, # of connection points: 2
#     Edge 53, Type (0, 1), BuildingBlock: EZIPEK_clean_linker_0, # of connection points: 2
#     Edge 54, Type (0, 1), BuildingBlock: EZIPEK_clean_linker_0, # of connection points: 2
#     Edge 55, Type (0, 1), BuildingBlock: EZIPEK_clean_linker_0, # of connection points: 2
#     Edge 56, Type (0, 1), BuildingBlock: EZIPEK_clean_linker_0, # of connection points: 2
#     Edge 57, Type (0, 1), BuildingBlock: EZIPEK_clean_linker_0, # of connection points: 2
#     Edge 58, Type (0, 1), BuildingBlock: EZIPEK_clean_linker_0, # of connection points: 2
#     Edge 59, Type (0, 1), BuildingBlock: EZIPEK_clean_linker_0, # of connection points: 2
#     Edge 60, Type (0, 1), BuildingBlock: EZIPEK_clean_linker_0, # of connection points: 2
#     Edge 61, Type (0, 1), BuildingBlock: EZIPEK_clean_linker_0, # of connection points: 2
#     Edge 62, Type (0, 1), BuildingBlock: EZIPEK_clean_linker_0, # of connection points: 2
#     Edge 63, Type (0, 1), BuildingBlock: EZIPEK_clean_linker_0, # of connection points: 2
#     Edge 64, Type (0, 1), BuildingBlock: EZIPEK_clean_linker_0, # of connection points: 2
#     Edge 65, Type (0, 1), BuildingBlock: EZIPEK_clean_linker_0, # of connection points: 2
#     Edge 66, Type (0, 1), BuildingBlock: EZIPEK_clean_linker_0, # of connection points: 2
#     Edge 67, Type (0, 1), BuildingBlock: EZIPEK_clean_linker_0, # of connection points: 2
#     Edge 68, Type (0, 1), BuildingBlock: EZIPEK_clean_linker_0, # of connection points: 2
#     Edge 69, Type (0, 1), BuildingBlock: EZIPEK_clean_linker_0, # of connection points: 2
#     Edge 70, Type (0, 1), BuildingBlock: EZIPEK_clean_linker_0, # of connection points: 2
#     Edge 71, Type (0, 1), BuildingBlock: EZIPEK_clean_linker_0, # of connection points: 2
#     Edge 72, Type (0, 1), BuildingBlock: EZIPEK_clean_linker_0, # of connection points: 2
#     Edge 73, Type (0, 1), BuildingBlock: EZIPEK_clean_linker_0, # of connection points: 2
#     Edge 74, Type (0, 1), BuildingBlock: EZIPEK_clean_linker_0, # of connection points: 2
#     Edge 75, Type (0, 1), BuildingBlock: EZIPEK_clean_linker_0, # of connection points: 2
#     Edge 76, Type (0, 1), BuildingBlock: EZIPEK_clean_linker_0, # of connection points: 2
#     Edge 77, Type (0, 1), BuildingBlock: EZIPEK_clean_linker_0, # of connection points: 2
#     Edge 78, Type (0, 1), BuildingBlock: EZIPEK_clean_linker_0, # of connection points: 2
#     Edge 79, Type (0, 1), BuildingBlock: EZIPEK_clean_linker_0, # of connection points: 2
#     Edge 80, Type (0, 1), BuildingBlock: EZIPEK_clean_linker_0, # of connection points: 2
#     Edge 81, Type (0, 1), BuildingBlock: EZIPEK_clean_linker_0, # of connection points: 2
#     Edge 82, Type (0, 1), BuildingBlock: EZIPEK_clean_linker_0, # of connection points: 2
#     Edge 83, Type (0, 1), BuildingBlock: EZIPEK_clean_linker_0, # of connection points: 2
#     Edge 84, Type (0, 1), BuildingBlock: EZIPEK_clean_linker_0, # of connection points: 2
#     Edge 85, Type (0, 1), BuildingBlock: EZIPEK_clean_linker_0, # of connection points: 2
#     Edge 86, Type (0, 1), BuildingBlock: EZIPEK_clean_linker_0, # of connection points: 2
#     Edge 87, Type (0, 1), BuildingBlock: EZIPEK_clean_linker_0, # of connection points: 2
#     Edge 88, Type (0, 1), BuildingBlock: EZIPEK_clean_linker_0, # of connection points: 2
#     Edge 89, Type (0, 1), BuildingBlock: EZIPEK_clean_linker_0, # of connection points: 2
#     Edge 90, Type (0, 1), BuildingBlock: EZIPEK_clean_linker_0, # of connection points: 2
#     Edge 91, Type (0, 1), BuildingBlock: EZIPEK_clean_linker_0, # of connection points: 2
#     Edge 92, Type (0, 1), BuildingBlock: EZIPEK_clean_linker_0, # of connection points: 2
#     Edge 93, Type (0, 1), BuildingBlock: EZIPEK_clean_linker_0, # of connection points: 2
#     Edge 94, Type (0, 1), BuildingBlock: EZIPEK_clean_linker_0, # of connection points: 2
#     Edge 95, Type (0, 1), BuildingBlock: EZIPEK_clean_linker_0, # of connection points: 2
#     Edge 96, Type (0, 1), BuildingBlock: EZIPEK_clean_linker_0, # of connection points: 2
#     Edge 97, Type (0, 1), BuildingBlock: EZIPEK_clean_linker_0, # of connection points: 2
#     Edge 98, Type (0, 1), BuildingBlock: EZIPEK_clean_linker_0, # of connection points: 2
#     Edge 99, Type (0, 1), BuildingBlock: EZIPEK_clean_linker_0, # of connection points: 2
#     Edge 100, Type (0, 1), BuildingBlock: EZIPEK_clean_linker_0, # of connection points: 2
#     Edge 101, Type (0, 1), BuildingBlock: EZIPEK_clean_linker_0, # of connection points: 2
#     Edge 102, Type (0, 1), BuildingBlock: EZIPEK_clean_linker_0, # of connection points: 2
#     Edge 103, Type (0, 1), BuildingBlock: EZIPEK_clean_linker_0, # of connection points: 2
#     Edge 104, Type (0, 1), BuildingBlock: EZIPEK_clean_linker_0, # of connection points: 2
#     Edge 105, Type (0, 1), BuildingBlock: EZIPEK_clean_linker_0, # of connection points: 2
#     Edge 106, Type (0, 1), BuildingBlock: EZIPEK_clean_linker_0, # of connection points: 2
#     Edge 107, Type (0, 1), BuildingBlock: EZIPEK_clean_linker_0, # of connection points: 2
#     Edge 108, Type (0, 1), BuildingBlock: EZIPEK_clean_linker_0, # of connection points: 2
#     Edge 109, Type (0, 1), BuildingBlock: EZIPEK_clean_linker_0, # of connection points: 2
#     Edge 110, Type (0, 1), BuildingBlock: EZIPEK_clean_linker_0, # of connection points: 2
#     Edge 111, Type (0, 1), BuildingBlock: EZIPEK_clean_linker_0, # of connection points: 2
#     Edge 112, Type (0, 1), BuildingBlock: EZIPEK_clean_linker_0, # of connection points: 2
#     Edge 113, Type (0, 1), BuildingBlock: EZIPEK_clean_linker_0, # of connection points: 2
#     Edge 114, Type (0, 1), BuildingBlock: EZIPEK_clean_linker_0, # of connection points: 2
#     Edge 115, Type (0, 1), BuildingBlock: EZIPEK_clean_linker_0, # of connection points: 2
#     Edge 116, Type (0, 1), BuildingBlock: EZIPEK_clean_linker_0, # of connection points: 2
#     Edge 117, Type (0, 1), BuildingBlock: EZIPEK_clean_linker_0, # of connection points: 2
#     Edge 118, Type (0, 1), BuildingBlock: EZIPEK_clean_linker_0, # of connection points: 2
#     Edge 119, Type (0, 1), BuildingBlock: EZIPEK_clean_linker_0, # of connection points: 2
# Relax obj value: 0.143
# Max RMSD: 0.142
# Mean RMSD: 0.093
data_MOF--net-bwt--node1-OLANEW_clean_sbu_2--node2-MIDCAF_clean_linker_0--edge1-EZIPEK_clean_linker_0
_symmetry_space_group_name_H-M    P1
_symmetry_Int_Tables_number       1
_symmetry_cell_setting            triclinic
loop_
_symmetry_equiv_pos_as_xyz
'x, y, z'
_cell_length_a     56.170494
_cell_length_b     55.930437
_cell_length_c     56.023429
_cell_angle_alpha  93.604795
_cell_angle_beta   93.605004
_cell_angle_gamma 93.669803
loop_
_atom_site_label
_atom_site_type_symbol
_atom_site_fract_x
_atom_site_fract_y
_atom_site_fract_z
_atom_type_partial_charge
O0 O 0.27983 0.59004 0.31454 0.0
Cd1 Cd 0.27733 0.60768 0.27575 0.0
O2 O 0.26761 0.5537 0.29915 0.0
Cd3 Cd 0.2787 0.5622 0.26382 0.0
O4 O 0.31484 0.56262 0.25169 0.0
C5 C 0.3298 0.57437 0.26662 0.0
O6 O 0.32191 0.58594 0.28531 0.0
C7 C 0.27262 0.56843 0.31727 0.0
C8 C 0.22877 0.60828 0.26365 0.0
O9 O 0.24059 0.59076 0.25626 0.0
O10 O 0.24004 0.62624 0.27564 0.0
O11 O 0.23226 0.38778 0.73183 0.0
Cd12 Cd 0.22813 0.37486 0.68929 0.0
O13 O 0.23136 0.42545 0.72255 0.0
Cd14 Cd 0.20989 0.41532 0.68925 0.0
O15 O 0.17152 0.41468 0.68029 0.0
C16 C 0.15824 0.40101 0.69189 0.0
O17 O 0.16811 0.3863 0.70635 0.0
C18 C 0.23561 0.41012 0.73777 0.0
C19 C 0.27243 0.38899 0.67349 0.0
O20 O 0.25534 0.40309 0.67311 0.0
O21 O 0.26819 0.36756 0.67971 0.0
O22 O 0.74995 0.95748 0.66416 0.0
Cd23 Cd 0.75529 0.95974 0.70777 0.0
O24 O 0.78291 0.9788 0.65687 0.0
Cd25 Cd 0.80181 0.98064 0.69227 0.0
O26 O 0.83876 0.98918 0.7064 0.0
C27 C 0.8546 0.97905 0.69492 0.0
O28 O 0.84787 0.96316 0.67711 0.0
C29 C 0.76303 0.96779 0.64964 0.0
C30 C 0.71376 0.97827 0.72338 0.0
O31 O 0.71513 0.95554 0.72016 0.0
O32 O 0.73214 0.99216 0.72015 0.0
O33 O 0.77019 0.0398 0.30449 0.0
Cd34 Cd 0.78255 0.03436 0.34623 0.0
O35 O 0.73456 0.02331 0.30965 0.0
Cd36 Cd 0.69883 0.00921 0.29579 0.0
O37 O 0.66498 0.99126 0.28099 0.0
C38 C 0.64553 0.99769 0.28894 0.0
O39 O 0.64608 0.01504 0.30594 0.0
C40 C 0.74927 0.03266 0.29599 0.0
C41 C 0.82261 0.00782 0.34836 0.0
O42 O 0.80157 0.99735 0.34729 0.0
O43 O 0.82481 0.03079 0.34876 0.0
O44 O 0.30118 0.28749 0.55279 0.0
Cd45 Cd 0.25764 0.28476 0.5536 0.0
O46 O 0.30691 0.28333 0.59157 0.0
Cd47 Cd 0.27081 0.29434 0.59591 0.0
O48 O 0.25667 0.32713 0.58344 0.0
C49 C 0.27019 0.34581 0.58976 0.0
O50 O 0.28909 0.34396 0.60441 0.0
C51 C 0.31509 0.28442 0.57097 0.0
C52 C 0.24295 0.23636 0.55241 0.0
O53 O 0.24449 0.24721 0.53305 0.0
O54 O 0.24749 0.24846 0.57254 0.0
O55 O 0.26639 0.71749 0.01486 0.0
Cd56 Cd 0.30761 0.71967 0.00268 0.0
O57 O 0.27634 0.71647 0.05344 0.0
Cd58 Cd 0.31094 0.70485 0.0438 0.0
O59 O 0.32261 0.67389 0.02301 0.0
C60 C 0.30515 0.65898 0.01603 0.0
O61 O 0.28351 0.66393 0.02142 0.0
C62 C 0.26054 0.71801 0.03644 0.0
C63 C 0.31904 0.76683 0.99228 0.0
O64 O 0.30975 0.75132 0.97598 0.0
O65 O 0.32386 0.75997 0.01333 0.0
O66 O 0.7392 0.20498 0.40578 0.0
Cd67 Cd 0.69736 0.19315 0.39321 0.0
O68 O 0.7479 0.21499 0.36975 0.0
Cd69 Cd 0.71655 0.19287 0.35448 0.0
O70 O 0.70165 0.15598 0.35589 0.0
C71 C 0.71632 0.14309 0.36641 0.0
O72 O 0.73777 0.15258 0.37359 0.0
C73 C 0.75366 0.21462 0.39205 0.0
C74 C 0.67473 0.2359 0.3935 0.0
O75 O 0.67701 0.22422 0.41237 0.0
O76 O 0.68162 0.22655 0.37385 0.0
O77 O 0.64947 0.75601 0.9771 0.0
Cd78 Cd 0.69282 0.75819 0.97532 0.0
O79 O 0.64244 0.79405 0.97306 0.0
Cd80 Cd 0.67902 0.81001 0.9746 0.0
O81 O 0.69555 0.8449 0.98883 0.0
C82 C 0.68159 0.86187 0.98769 0.0
O83 O 0.65996 0.85737 0.97738 0.0
C84 C 0.63497 0.77243 0.97531 0.0
C85 C 0.70764 0.71358 0.98702 0.0
O86 O 0.70579 0.73042 0.00324 0.0
O87 O 0.70316 0.71786 0.96505 0.0
O88 O 0.57111 0.33589 0.29152 0.0
Cd89 Cd 0.58274 0.29448 0.28834 0.0
O90 O 0.60666 0.35004 0.30693 0.0
Cd91 Cd 0.61458 0.31473 0.31859 0.0
O92 O 0.60561 0.29852 0.35161 0.0
C93 C 0.58497 0.30319 0.35788 0.0
O94 O 0.57128 0.31525 0.34382 0.0
C95 C 0.58587 0.35358 0.29814 0.0
C96 C 0.57472 0.27713 0.24071 0.0
O97 O 0.55884 0.27357 0.25578 0.0
O98 O 0.59471 0.28826 0.24816 0.0
O99 O 0.02465 0.28081 0.73247 0.0
Cd100 Cd 0.01378 0.32123 0.74376 0.0
O101 O 0.04295 0.28539 0.69907 0.0
Cd102 Cd 0.03067 0.3206 0.69185 0.0
O103 O 0.01292 0.32871 0.65773 0.0
C104 C 0.02343 0.3217 0.63938 0.0
O105 O 0.04413 0.31223 0.64234 0.0
C106 C 0.03639 0.2724 0.71559 0.0
C107 C 0.00116 0.31872 0.7908 0.0
O108 O 0.0227 0.3249 0.78638 0.0
O109 O 0.98541 0.31478 0.7732 0.0
O110 O 0.40039 0.70133 0.21655 0.0
Cd111 Cd 0.38022 0.66194 0.22084 0.0
O112 O 0.36643 0.71886 0.21739 0.0
Cd113 Cd 0.34775 0.68544 0.20247 0.0
O114 O 0.35439 0.68178 0.16456 0.0
C115 C 0.34511 0.69693 0.15147 0.0
O116 O 0.32977 0.71119 0.1605 0.0
C117 C 0.38914 0.7203 0.21826 0.0
C118 C 0.39036 0.65305 0.26845 0.0
O119 O 0.37157 0.66361 0.26232 0.0
O120 O 0.40369 0.64585 0.2521 0.0
O121 O 0.98136 0.68099 0.75824 0.0
Cd122 Cd 0.98025 0.72425 0.76619 0.0
O123 O 0.95008 0.67148 0.77843 0.0
Cd124 Cd 0.95372 0.7055 0.79997 0.0
O125 O 0.96757 0.7109 0.83734 0.0
C126 C 0.96236 0.69303 0.84943 0.0
O127 O 0.9486 0.6749 0.8392 0.0
C128 C 0.9657 0.66548 0.76417 0.0
C129 C 0.99304 0.74395 0.72417 0.0
O130 O 0.97111 0.73778 0.72709 0.0
O131 O 0.00873 0.7418 0.74136 0.0
O132 O 0.72299 0.36802 0.68537 0.0
Cd133 Cd 0.74189 0.3556 0.72257 0.0
O134 O 0.69619 0.3888 0.70291 0.0
Cd135 Cd 0.66615 0.4115 0.69879 0.0
O136 O 0.63377 0.42963 0.69004 0.0
C137 C 0.62549 0.44404 0.70535 0.0
O138 O 0.63695 0.44866 0.72647 0.0
C139 C 0.70553 0.38133 0.68402 0.0
C140 C 0.79062 0.36732 0.72188 0.0
O141 O 0.78154 0.34682 0.71305 0.0
O142 O 0.77692 0.3819 0.73177 0.0
O143 O 0.75119 0.66169 0.27526 0.0
Cd144 Cd 0.73908 0.68916 0.30729 0.0
O145 O 0.78564 0.65284 0.29224 0.0
Cd146 Cd 0.8177 0.63292 0.29049 0.0
O147 O 0.8504 0.61586 0.28267 0.0
C148 C 0.86834 0.62865 0.27682 0.0
O149 O 0.8671 0.65194 0.27592 0.0
C150 C 0.76992 0.65012 0.27481 0.0
C151 C 0.69285 0.6721 0.31482 0.0
O152 O 0.69658 0.68756 0.29931 0.0
O153 O 0.71076 0.66574 0.32765 0.0
O154 O 0.25654 0.06735 0.27205 0.0
Cd155 Cd 0.26683 0.06967 0.23056 0.0
O156 O 0.2327 0.03515 0.26182 0.0
Cd157 Cd 0.2079 0.00685 0.27271 0.0
O158 O 0.17867 0.98487 0.28584 0.0
C159 C 0.15824 0.9934 0.2855 0.0
O160 O 0.15551 0.01452 0.27708 0.0
C161 C 0.24232 0.05044 0.27785 0.0
C162 C 0.30522 0.04175 0.22376 0.0
O163 O 0.30869 0.06405 0.23061 0.0
O164 O 0.28371 0.03274 0.21949 0.0
O165 O 0.27784 0.96674 0.70755 0.0
Cd166 Cd 0.26824 0.98079 0.66803 0.0
O167 O 0.30228 0.99817 0.72022 0.0
Cd168 Cd 0.31113 0.01206 0.68619 0.0
O169 O 0.34842 0.02485 0.68335 0.0
C170 C 0.35851 0.03347 0.70328 0.0
O171 O 0.34579 0.03503 0.72214 0.0
C172 C 0.29025 0.97903 0.7243 0.0
C173 C 0.22066 0.99189 0.66815 0.0
O174 O 0.22601 0.97089 0.66078 0.0
O175 O 0.23762 0.00785 0.67452 0.0
O176 O 0.69047 0.70789 0.37197 0.0
Cd177 Cd 0.72529 0.72563 0.35411 0.0
O178 O 0.70885 0.67895 0.38857 0.0
Cd179 Cd 0.70684 0.64772 0.40991 0.0
O180 O 0.69751 0.61402 0.42561 0.0
C181 C 0.69827 0.59451 0.41289 0.0
O182 O 0.7051 0.59502 0.39092 0.0
C183 C 0.68996 0.68976 0.38451 0.0
C184 C 0.7241 0.77499 0.36246 0.0
O185 O 0.71372 0.76424 0.34336 0.0
O186 O 0.73585 0.76266 0.37706 0.0
O187 O 0.7122 0.27429 0.98162 0.0
Cd188 Cd 0.67399 0.26933 -0.00031 0.0
O189 O 0.73012 0.28544 0.01707 0.0
Cd190 Cd 0.69916 0.30173 0.03108 0.0
O191 O 0.69478 0.3397 0.0407 0.0
C192 C 0.7144 0.3518 0.04684 0.0
O193 O 0.73434 0.3407 0.04769 0.0
C194 C 0.73117 0.27809 0.99526 0.0
C195 C 0.67382 0.22441 0.01859 0.0
O196 O 0.66593 0.22653 0.99693 0.0
O197 O 0.68083 0.24349 0.03167 0.0
O198 O 0.29765 0.76895 0.61639 0.0
Cd199 Cd 0.33742 0.75707 0.62854 0.0
O200 O 0.30965 0.8031 0.60208 0.0
Cd201 Cd 0.3011 0.83484 0.5833 0.0
O202 O 0.2899 0.86629 0.56553 0.0
C203 C 0.27536 0.87969 0.57533 0.0
O204 O 0.26745 0.87462 0.59611 0.0
C205 C 0.29292 0.78775 0.60595 0.0
C206 C 0.33536 0.70778 0.6178 0.0
O207 O 0.33151 0.71628 0.63888 0.0
O208 O 0.3415 0.72246 0.60227 0.0
O209 O 0.28629 0.252 0.06953 0.0
Cd210 Cd 0.24778 0.26847 0.07522 0.0
O211 O 0.27237 0.21666 0.05316 0.0
Cd212 Cd 0.27879 0.1816 0.03616 0.0
O213 O 0.2854 0.14599 0.0207 0.0
C214 C 0.29482 0.1307 0.03352 0.0
O215 O 0.30061 0.13624 0.05636 0.0
C216 C 0.28993 0.23152 0.05986 0.0
C217 C 0.25011 0.31214 0.05419 0.0
O218 O 0.25717 0.3109 0.07624 0.0
O219 O 0.241 0.29305 0.04234 0.0
O220 O 0.3695 0.70196 0.72653 0.0
Cd221 Cd 0.35091 0.7385 0.7394 0.0
O222 O 0.38458 0.7184 0.69567 0.0
Cd223 Cd 0.40499 0.71408 0.66403 0.0
O224 O 0.42068 0.703 0.63087 0.0
C225 C 0.44309 0.70335 0.629 0.0
O226 O 0.45783 0.7108 0.64748 0.0
C227 C 0.38173 0.70045 0.70826 0.0
C228 C 0.3536 0.74219 0.78913 0.0
O229 O 0.33509 0.73178 0.77737 0.0
O230 O 0.37034 0.75155 0.77749 0.0
O231 O 0.94477 0.68798 0.26752 0.0
Cd232 Cd 0.9465 0.64794 0.24855 0.0
O233 O 0.97417 0.68142 0.29358 0.0
Cd234 Cd -0.00028 0.69572 0.3228 0.0
O235 O 0.0198 0.71249 0.35481 0.0
C236 C 0.00908 0.71428 0.37406 0.0
O237 O 0.98679 0.70568 0.37425 0.0
C238 C 0.95962 0.69552 0.28479 0.0
C239 C 0.9659 0.65392 0.20482 0.0
O240 O 0.9432 0.65276 0.20638 0.0
O241 O 0.9794 0.65137 0.22365 0.0
O242 O 0.62765 0.29743 0.77403 0.0
Cd243 Cd 0.63878 0.33938 0.76826 0.0
O244 O 0.60953 0.30457 0.80714 0.0
Cd245 Cd 0.58769 0.29218 0.83542 0.0
O246 O 0.56994 0.28091 0.86683 0.0
C247 C 0.57989 0.26671 0.88056 0.0
O248 O 0.60058 0.25868 0.87551 0.0
C249 C 0.61513 0.28994 0.79048 0.0
C250 C 0.62359 0.34287 0.72065 0.0
O251 O 0.64538 0.33907 0.72648 0.0
O252 O 0.60953 0.34689 0.73737 0.0
O253 O 0.05931 0.31948 0.22768 0.0
Cd254 Cd 0.06237 0.27687 0.23291 0.0
O255 O 0.0202 0.31393 0.22071 0.0
Cd256 Cd 0.02176 0.2768 0.20695 0.0
O257 O 0.01353 0.26366 0.16967 0.0
C258 C 0.02596 0.27332 0.15423 0.0
O259 O 0.04435 0.28827 0.16149 0.0
C260 C 0.03885 0.32787 0.22551 0.0
C261 C 0.05052 0.27174 0.27981 0.0
O262 O 0.07242 0.27543 0.27508 0.0
O263 O 0.03447 0.26915 0.2624 0.0
C264 C 0.30534 0.61444 0.55268 0.0
C265 C 0.31411 0.61202 0.57627 0.0
C266 C 0.31502 0.58905 0.58491 0.0
C267 C 0.30682 0.5687 0.57005 0.0
H268 H 0.28183 0.49633 0.57023 0.0
H269 H 0.27716 0.45613 0.58496 0.0
H270 H 0.25893 0.42609 0.51295 0.0
H271 H 0.26341 0.46609 0.49788 0.0
H272 H 0.26386 0.49946 0.45414 0.0
H273 H 0.26071 0.50539 0.41104 0.0
H274 H 0.28064 0.58079 0.4258 0.0
H275 H 0.28378 0.57531 0.46864 0.0
H276 H 0.29061 0.59687 0.51972 0.0
H277 H 0.3045 0.63207 0.5458 0.0
H278 H 0.32177 0.58696 0.60315 0.0
H279 H 0.30758 0.55116 0.5771 0.0
N280 N 0.28521 0.52789 0.53868 0.0
N281 N 0.27352 0.5116 0.49968 0.0
N282 N 0.28535 0.55246 0.50635 0.0
C283 C 0.27723 0.50863 0.52354 0.0
C284 C 0.27753 0.53351 0.49097 0.0
C285 C 0.28926 0.5499 0.53016 0.0
C286 C 0.27316 0.48451 0.5328 0.0
C287 C 0.27662 0.48126 0.55748 0.0
C288 C 0.27388 0.45834 0.56599 0.0
C289 C 0.26765 0.43832 0.55 0.0
C290 C 0.26362 0.44144 0.5255 0.0
C291 C 0.26629 0.46434 0.51696 0.0
C292 C 0.27421 0.53687 0.46493 0.0
C293 C 0.26738 0.51735 0.44827 0.0
C294 C 0.26552 0.52066 0.42366 0.0
C295 C 0.27044 0.54351 0.41543 0.0
C296 C 0.27675 0.56305 0.43194 0.0
C297 C 0.27858 0.55981 0.45643 0.0
C298 C 0.29789 0.57111 0.54632 0.0
C299 C 0.29739 0.59424 0.53783 0.0
C300 C 0.30802 0.55698 0.94599 0.0
C301 C 0.3032 0.56425 0.96954 0.0
C302 C 0.29436 0.54713 0.98457 0.0
C303 C 0.28997 0.52314 0.97611 0.0
H304 H 0.27411 0.45557 -0.00073 0.0
H305 H 0.26644 0.42385 0.02671 0.0
H306 H 0.2665 0.37017 0.96809 0.0
H307 H 0.27396 0.40144 0.94051 0.0
H308 H 0.27258 0.41613 0.88899 0.0
H309 H 0.26311 0.40504 0.84652 0.0
H310 H 0.27036 0.47951 0.83092 0.0
H311 H 0.2799 0.49104 0.87359 0.0
H312 H 0.30686 0.52794 0.91903 0.0
H313 H 0.31497 0.56997 0.9342 0.0
H314 H 0.29058 0.55242 0.00281 0.0
H315 H 0.28287 0.51046 0.98813 0.0
N316 N 0.28464 0.47319 0.95884 0.0
N317 N 0.27703 0.44427 0.92679 0.0
N318 N 0.28628 0.48442 0.91922 0.0
C319 C 0.27903 0.45 0.95074 0.0
C320 C 0.28054 0.46127 0.91089 0.0
C321 C 0.28843 0.4905 0.94321 0.0
C322 C 0.27467 0.43109 0.96765 0.0
C323 C 0.27252 0.43702 0.99219 0.0
C324 C 0.26807 0.41899 0.00788 0.0
C325 C 0.2659 0.39481 -0.00071 0.0
C326 C 0.26809 0.3888 0.97493 0.0
C327 C 0.27236 0.40674 0.95923 0.0
C328 C 0.27685 0.45455 0.88481 0.0
C329 C 0.27238 0.43025 0.87662 0.0
C330 C 0.26701 0.4238 0.85234 0.0
C331 C 0.26602 0.44147 0.83575 0.0
C332 C 0.27111 0.46567 0.84358 0.0
C333 C 0.27655 0.47219 0.86795 0.0
C334 C 0.2941 0.51582 0.95233 0.0
C335 C 0.3033 0.53299 0.93738 0.0
C336 C 0.71368 0.87438 0.42216 0.0
C337 C 0.71543 0.87281 0.39731 0.0
C338 C 0.71536 0.89371 0.38474 0.0
C339 C 0.71383 0.91608 0.39705 0.0
H340 H 0.69734 0.988 0.38912 0.0
H341 H 0.6951 0.02517 0.36835 0.0
H342 H 0.71591 0.06667 0.43465 0.0
H343 H 0.71797 0.02988 0.45565 0.0
H344 H 0.72585 0.00429 0.5038 0.0
H345 H 0.73615 0.00543 0.54704 0.0
H346 H 0.72761 0.92819 0.54476 0.0
H347 H 0.71741 0.92669 0.50168 0.0
H348 H 0.71115 0.89718 0.45372 0.0
H349 H 0.71364 0.85835 0.43206 0.0
H350 H 0.71664 0.89269 0.3655 0.0
H351 H 0.71409 0.93199 0.38699 0.0
N352 N 0.70961 0.96186 0.42411 0.0
N353 N 0.71373 0.98459 0.46102 0.0
N354 N 0.7155 0.94286 0.4599 0.0
C355 C 0.71025 0.98353 0.4367 0.0
C356 C 0.71629 0.96429 0.47276 0.0
C357 C 0.71222 0.94142 0.43564 0.0
C358 C 0.70797 0.0059 0.42408 0.0
C359 C 0.70135 0.00502 0.39934 0.0
C360 C 0.7 0.0262 0.38742 0.0
C361 C 0.70548 0.04856 0.4 0.0
C362 C 0.71167 0.04954 0.42469 0.0
C363 C 0.71284 0.02845 0.43663 0.0
C364 C 0.72094 0.96539 0.49917 0.0
C365 C 0.72595 0.98754 0.51248 0.0
C366 C 0.73184 0.98826 0.53717 0.0
C367 C 0.73267 0.96689 0.54893 0.0
C368 C 0.72707 0.94483 0.5359 0.0
C369 C 0.7213 0.94407 0.51126 0.0
C370 C 0.7125 0.9178 0.42212 0.0
C371 C 0.71228 0.89663 0.43447 0.0
C372 C 0.71211 0.95699 0.06104 0.0
C373 C 0.70221 0.95549 0.03738 0.0
C374 C 0.69518 0.97636 0.02706 0.0
C375 C 0.69725 0.9984 0.04061 0.0
H376 H 0.68685 0.07169 0.03799 0.0
H377 H 0.67915 0.11012 0.02122 0.0
H378 H 0.69139 0.14623 0.09155 0.0
H379 H 0.69901 0.10814 0.10861 0.0
H380 H 0.69399 0.0708 0.15455 0.0
H381 H 0.70213 0.06864 0.19787 0.0
H382 H 0.74851 0.01138 0.18475 0.0
H383 H 0.73982 0.01282 0.14153 0.0
H384 H 0.72139 0.9793 0.09299 0.0
H385 H 0.71756 0.94101 0.06926 0.0
H386 H 0.68739 0.97543 0.00881 0.0
H387 H 0.69106 0.0141 0.0324 0.0
N388 N 0.70031 0.04333 0.07059 0.0
N389 N 0.70466 0.06319 0.10896 0.0
N390 N 0.71174 0.02243 0.10399 0.0
C391 C 0.69953 0.06379 0.08497 0.0
C392 C 0.71083 0.0426 0.11857 0.0
C393 C 0.7064 0.02254 0.08002 0.0
C394 C 0.69367 0.08674 0.07468 0.0
C395 C 0.68776 0.08774 0.04997 0.0
C396 C 0.68329 0.10965 0.04033 0.0
C397 C 0.6847 0.13088 0.05521 0.0
C398 C 0.69018 0.12996 0.07985 0.0
C399 C 0.69456 0.10812 0.08952 0.0
C400 C 0.71626 0.04196 0.14468 0.0
C401 C 0.70595 0.05779 0.16092 0.0
C402 C 0.71053 0.05655 0.18563 0.0
C403 C 0.72594 0.03988 0.19447 0.0
C404 C 0.73652 0.02432 0.17827 0.0
C405 C 0.73153 0.02517 0.15361 0.0
C406 C 0.70629 -0.00016 0.06472 0.0
C407 C 0.71415 0.97893 0.07458 0.0
C408 C 0.55282 0.31563 0.62887 0.0
C409 C 0.57575 0.32631 0.62678 0.0
C410 C 0.58375 0.33001 0.604 0.0
C411 C 0.56898 0.32261 0.58343 0.0
H412 H 0.57054 0.30086 0.51095 0.0
H413 H 0.58589 0.30041 0.4711 0.0
H414 H 0.51448 0.28475 0.43883 0.0
H415 H 0.49876 0.28505 0.47859 0.0
H416 H 0.45435 0.28668 0.51185 0.0
H417 H 0.41139 0.28303 0.51764 0.0
H418 H 0.42652 0.28359 0.59405 0.0
H419 H 0.46933 0.28734 0.58863 0.0
H420 H 0.52043 0.30016 0.61073 0.0
H421 H 0.54646 0.31263 0.64637 0.0
H422 H 0.60147 0.33824 0.60218 0.0
H423 H 0.57557 0.3255 0.56602 0.0
N424 N 0.53863 0.30195 0.54185 0.0
N425 N 0.50008 0.29008 0.52477 0.0
N426 N 0.50635 0.29878 0.56621 0.0
C427 C 0.52381 0.29492 0.52217 0.0
C428 C 0.49125 0.29191 0.5468 0.0
C429 C 0.53 0.3039 0.56395 0.0
C430 C 0.53334 0.29319 0.49805 0.0
C431 C 0.55804 0.29711 0.49545 0.0
C432 C 0.56691 0.29675 0.4727 0.0
C433 C 0.55128 0.2925 0.45215 0.0
C434 C 0.52676 0.28794 0.45457 0.0
C435 C 0.51785 0.28822 0.47733 0.0
C436 C 0.46533 0.28753 0.54978 0.0
C437 C 0.44858 0.28575 0.52987 0.0
C438 C 0.42405 0.28365 0.53311 0.0
C439 C 0.41594 0.28312 0.55626 0.0
C440 C 0.43254 0.284 0.57607 0.0
C441 C 0.457 0.28623 0.57289 0.0
C442 C 0.54594 0.31173 0.58546 0.0
C443 C 0.53801 0.3085 0.60844 0.0
C444 C 0.03519 0.68249 0.11967 0.0
C445 C 0.01031 0.67797 0.11834 0.0
C446 C -0.00294 0.68013 0.09662 0.0
C447 C 0.0086 0.68672 0.07638 0.0
H448 H -0.00329 0.69709 0.00392 0.0
H449 H 0.97571 0.69202 0.96528 0.0
H450 H 0.04247 0.70199 0.93176 0.0
H451 H 0.06335 0.70767 0.97058 0.0
H452 H 0.11119 0.71513 0.00139 0.0
H453 H 0.15484 0.71954 0.00403 0.0
H454 H 0.15601 0.71702 0.0808 0.0
H455 H 0.11228 0.71245 0.07852 0.0
H456 H 0.06601 0.69248 0.10114 0.0
H457 H 0.04562 0.68097 0.13637 0.0
H458 H 0.9778 0.67677 0.09539 0.0
H459 H -0.00211 0.68821 0.05985 0.0
N460 N 0.03372 0.69781 0.03434 0.0
N461 N 0.0692 0.70824 0.01644 0.0
N462 N 0.07003 0.70335 0.05769 0.0
C463 C 0.04518 0.70299 0.01444 0.0
C464 C 0.08176 0.70859 0.03799 0.0
C465 C 0.04602 0.69797 0.05606 0.0
C466 C 0.03198 0.70122 0.99053 0.0
C467 C 0.00702 0.6972 0.98821 0.0
C468 C 0.99492 0.69329 0.96557 0.0
C469 C 0.00748 0.69165 0.94443 0.0
C470 C 0.03212 0.69914 0.94706 0.0
C471 C 0.04424 0.70322 0.96963 0.0
C472 C 0.10814 0.71321 0.03973 0.0
C473 C 0.12062 0.71572 0.01891 0.0
C474 C 0.14557 0.71828 0.02033 0.0
C475 C 0.15851 0.71849 0.04257 0.0
C476 C 0.14622 0.71684 0.06349 0.0
C477 C 0.12124 0.71418 0.06209 0.0
C478 C 0.03361 0.69134 0.07757 0.0
C479 C 0.04675 0.68915 0.0995 0.0
C480 C 0.98292 0.27032 0.36626 0.0
C481 C 0.00769 0.27485 0.37022 0.0
C482 C 0.01767 0.28073 0.39363 0.0
C483 C 0.00287 0.28248 0.41282 0.0
H484 H 0.00158 0.2935 0.48773 0.0
H485 H 0.01644 0.30343 0.52941 0.0
H486 H 0.94472 0.31396 0.549 0.0
H487 H 0.92949 0.30379 0.50743 0.0
H488 H 0.8852 0.28052 0.47104 0.0
H489 H 0.84301 0.26708 0.46127 0.0
H490 H 0.85992 0.24145 0.39061 0.0
H491 H 0.90176 0.2548 0.39986 0.0
H492 H 0.94911 0.26848 0.38143 0.0
H493 H 0.97495 0.26576 0.3483 0.0
H494 H 0.03682 0.28425 0.39694 0.0
H495 H 0.01097 0.28724 0.43068 0.0
N496 N 0.9702 0.28794 0.4514 0.0
N497 N 0.93121 0.28397 0.46441 0.0
N498 N 0.93806 0.27441 0.42428 0.0
C499 C 0.95499 0.28992 0.46934 0.0
C500 C 0.92264 0.27613 0.44186 0.0
C501 C 0.96177 0.28028 0.42875 0.0
C502 C 0.96429 0.29765 0.49421 0.0
C503 C 0.98893 0.29815 0.50079 0.0
C504 C -0.0025 0.30384 0.52458 0.0
C505 C 0.98165 0.3094 0.54215 0.0
C506 C 0.95718 0.30975 0.5356 0.0
C507 C 0.94854 0.30381 0.51186 0.0
C508 C 0.89695 0.26874 0.43628 0.0
C509 C 0.87995 0.27211 0.4534 0.0
C510 C 0.85587 0.2645 0.44787 0.0
C511 C 0.84855 0.25331 0.42525 0.0
C512 C 0.86535 0.25008 0.40814 0.0
C513 C 0.88927 0.25777 0.41353 0.0
C514 C 0.97791 0.2782 0.40884 0.0
C515 C 0.9682 0.27194 0.38531 0.0
C516 C 0.40392 0.75647 0.89374 0.0
C517 C 0.38047 0.74634 0.88981 0.0
C518 C 0.36875 0.73691 0.90888 0.0
C519 C 0.38088 0.73661 0.93145 0.0
H520 H 0.37285 0.7274 0.00409 0.0
H521 H 0.35339 0.71752 0.04034 0.0
H522 H 0.42211 0.71364 0.07802 0.0
H523 H 0.44197 0.72358 0.042 0.0
H524 H 0.48961 0.73295 0.01483 0.0
H525 H 0.53327 0.73858 0.01476 0.0
H526 H 0.52656 0.76794 0.94555 0.0
H527 H 0.48313 0.76232 0.94522 0.0
H528 H 0.43435 0.76368 0.91844 0.0
H529 H 0.41315 0.76387 0.87917 0.0
H530 H 0.35059 0.72903 0.90604 0.0
H531 H 0.37175 0.72847 0.94568 0.0
N532 N 0.40792 0.73647 0.97779 0.0
N533 N 0.4453 0.73683 -0.00082 0.0
N534 N 0.44298 0.74675 0.95918 0.0
C535 C 0.42105 0.73333 -0.00153 0.0
C536 C 0.45638 0.74358 0.97957 0.0
C537 C 0.41881 0.74324 0.95808 0.0
C538 C 0.40905 0.72636 0.02008 0.0
C539 C 0.38392 0.72426 0.01998 0.0
C540 C 0.37269 0.71852 0.04063 0.0
C541 C 0.38635 0.71471 0.06167 0.0
C542 C 0.41134 0.71643 0.06183 0.0
C543 C 0.42262 0.72218 0.04122 0.0
C544 C 0.4828 0.74717 0.98004 0.0
C545 C 0.49739 0.74063 -0.0004 0.0
C546 C 0.52231 0.74377 -0.00041 0.0
C547 C 0.53299 0.75364 0.98013 0.0
C548 C 0.51856 0.76024 0.96067 0.0
C549 C 0.49372 0.757 0.96058 0.0
C550 C 0.40485 0.74577 0.93517 0.0
C551 C 0.41602 0.75621 0.91619 0.0
C552 C 0.60211 0.5973 0.33169 0.0
C553 C 0.60219 0.61796 0.31872 0.0
C554 C 0.58168 0.62257 0.30459 0.0
C555 C 0.56188 0.60591 0.30221 0.0
H556 H 0.48273 0.59298 0.29998 0.0
H557 H 0.44044 0.59957 0.29099 0.0
H558 H 0.42808 0.52661 0.26105 0.0
H559 H 0.47007 0.51969 0.27 0.0
H560 H 0.50674 0.48166 0.28439 0.0
H561 H 0.5191 0.44042 0.28299 0.0
H562 H 0.58995 0.46608 0.31102 0.0
H563 H 0.57797 0.50733 0.31258 0.0
H564 H 0.58347 0.56399 0.33808 0.0
H565 H 0.61781 0.59352 0.34269 0.0
H566 H 0.58153 0.6384 0.2944 0.0
H567 H 0.54674 0.60927 0.29024 0.0
N568 N 0.52132 0.56918 0.30015 0.0
N569 N 0.51137 0.52785 0.29265 0.0
N570 N 0.55022 0.54144 0.30696 0.0
C571 C 0.50481 0.55086 0.29298 0.0
C572 C 0.53406 0.52298 0.29959 0.0
C573 C 0.54405 0.56453 0.30727 0.0
C574 C 0.47979 0.55573 0.28588 0.0
C575 C 0.47112 0.57841 0.29117 0.0
C576 C 0.44702 0.58227 0.286 0.0
C577 C 0.43133 0.56358 0.27527 0.0
C578 C 0.44004 0.54124 0.26922 0.0
C579 C 0.46403 0.53732 0.2745 0.0
C580 C 0.54132 0.4979 0.29866 0.0
C581 C 0.52497 0.47861 0.29024 0.0
C582 C 0.53198 0.45504 0.28933 0.0
C583 C 0.55542 0.45037 0.2968 0.0
C584 C 0.57181 0.46946 0.30509 0.0
C585 C 0.56486 0.49301 0.30601 0.0
C586 C 0.56259 0.58422 0.31354 0.0
C587 C 0.58256 0.58044 0.32893 0.0
C588 C 0.12766 0.04837 0.69002 0.0
C589 C 0.12712 0.02355 0.68468 0.0
C590 C 0.10547 0.00961 0.68498 0.0
C591 C 0.08457 0.02046 0.69075 0.0
H592 H 0.01097 0.00701 0.70097 0.0
H593 H 0.97117 0.98582 0.69944 0.0
H594 H 0.94011 0.05243 0.7178 0.0
H595 H 0.97941 0.07373 0.71959 0.0
H596 H 0.00752 0.12175 0.7196 0.0
H597 H 0.00846 0.16553 0.72114 0.0
H598 H 0.0834 0.16896 0.70836 0.0
H599 H 0.08284 0.12508 0.70675 0.0
H600 H 0.10805 0.07844 0.69978 0.0
H601 H 0.14425 0.05936 0.68989 0.0
H602 H 0.10481 0.99039 0.68088 0.0
H603 H 0.0681 0.0093 0.69088 0.0
N604 N 0.04194 0.04442 0.70393 0.0
N605 N 0.02331 0.0801 0.71229 0.0
N606 N 0.06395 0.08168 0.70543 0.0
C607 C 0.02194 0.05576 0.70911 0.0
C608 C 0.04419 0.0932 0.7105 0.0
C609 C 0.06308 0.05736 0.70215 0.0
C610 C -0.00154 0.04216 0.71016 0.0
C611 C 0.99574 0.01712 0.70499 0.0
C612 C 0.97306 0.00495 0.70418 0.0
C613 C 0.95284 0.01765 0.70851 0.0
C614 C 0.95557 0.04239 0.71447 0.0
C615 C 0.97811 0.05451 0.71537 0.0
C616 C 0.04509 0.1198 0.71293 0.0
C617 C 0.0243 0.13171 0.71728 0.0
C618 C 0.02476 0.15673 0.71819 0.0
C619 C 0.04598 0.1703 0.71486 0.0
C620 C 0.0669 0.15866 0.71103 0.0
C621 C 0.06648 0.1336 0.71009 0.0
C622 C 0.08504 0.04542 0.6962 0.0
C623 C 0.10688 0.0592 0.69571 0.0
C624 C 0.37939 0.95632 0.21356 0.0
C625 C 0.38442 0.981 0.21884 0.0
C626 C 0.40812 0.99003 0.22433 0.0
C627 C 0.42657 0.9744 0.22518 0.0
H628 H 0.49898 0.97233 0.23577 0.0
H629 H 0.53961 0.98814 0.24851 0.0
H630 H 0.56087 0.9163 0.25675 0.0
H631 H 0.52018 0.90007 0.24403 0.0
H632 H 0.48118 0.85536 0.23069 0.0
H633 H 0.46885 0.81236 0.22964 0.0
H634 H 0.39518 0.82823 0.2176 0.0
H635 H 0.40704 0.87095 0.21848 0.0
H636 H 0.39319 0.92165 0.21073 0.0
H637 H 0.36114 0.94911 0.20932 0.0
H638 H 0.41222 0.00908 0.2285 0.0
H639 H 0.44464 0.98183 0.22997 0.0
N640 N 0.46378 0.94086 0.22875 0.0
N641 N 0.47518 0.90134 0.2309 0.0
N642 N 0.43505 0.90859 0.22201 0.0
C643 C 0.48117 0.9254 0.23241 0.0
C644 C 0.45209 0.89282 0.22565 0.0
C645 C 0.44068 0.93259 0.22348 0.0
C646 C 0.50618 0.93487 0.23896 0.0
C647 C 0.51223 0.95977 0.24016 0.0
C648 C 0.53545 0.9689 0.2474 0.0
C649 C 0.55308 0.95337 0.25359 0.0
C650 C 0.54738 0.92852 0.25203 0.0
C651 C 0.52413 0.91932 0.24475 0.0
C652 C 0.44514 0.8667 0.22467 0.0
C653 C 0.46236 0.84973 0.22778 0.0
C654 C 0.45539 0.82519 0.22721 0.0
C655 C 0.43115 0.81732 0.2236 0.0
C656 C 0.41397 0.83409 0.22044 0.0
C657 C 0.42086 0.85851 0.22092 0.0
C658 C 0.42155 0.94948 0.22066 0.0
C659 C 0.39776 0.94068 0.21445 0.0
C660 C 0.88562 0.43311 0.71214 0.0
C661 C 0.88599 0.40827 0.71375 0.0
C662 C 0.9078 0.3974 0.71333 0.0
C663 C 0.9291 0.41138 0.71139 0.0
H664 H 0.00176 0.40836 0.69813 0.0
H665 H 0.04062 0.39152 0.69351 0.0
H666 H 0.07479 0.46295 0.69662 0.0
H667 H 0.03639 0.48002 0.70121 0.0
H668 H 0.00929 0.52375 0.72122 0.0
H669 H 0.008 0.56662 0.73262 0.0
H670 H 0.931 0.55932 0.72748 0.0
H671 H 0.93191 0.51647 0.71621 0.0
H672 H 0.90585 0.46625 0.70928 0.0
H673 H 0.86889 0.44172 0.7124 0.0
H674 H 0.90828 0.37818 0.71454 0.0
H675 H 0.94574 0.40262 0.71128 0.0
N676 N 0.97228 0.44187 0.70486 0.0
N677 N 0.9921 0.48032 0.70838 0.0
N678 N 0.95098 0.47587 0.71283 0.0
C679 C 0.99279 0.45614 0.70437 0.0
C680 C 0.97126 0.49033 0.71259 0.0
C681 C 0.95127 0.45169 0.70901 0.0
C682 C 0.01589 0.44559 0.70021 0.0
C683 C 0.01749 0.42052 0.69763 0.0
C684 C 0.03962 0.41083 0.69491 0.0
C685 C 0.06042 0.42606 0.69467 0.0
C686 C 0.05884 0.45098 0.69668 0.0
C687 C 0.03683 0.46066 0.69939 0.0
C688 C 0.9707 0.51658 0.71791 0.0
C689 C 0.99205 0.53124 0.72229 0.0
C690 C 0.99139 0.55572 0.72881 0.0
C691 C 0.96942 0.56594 0.73085 0.0
C692 C 0.94809 0.55162 0.72593 0.0
C693 C 0.94871 0.52714 0.71956 0.0
C694 C 0.92884 0.43642 0.71006 0.0
C695 C 0.90681 0.44707 0.71038 0.0
C696 C 0.66147 0.32891 0.45176 0.0
C697 C 0.65306 0.32866 0.42767 0.0
C698 C 0.64384 0.34936 0.41885 0.0
C699 C 0.64383 0.37037 0.43387 0.0
H700 H 0.66494 0.44471 0.43355 0.0
H701 H 0.67387 0.48382 0.41786 0.0
H702 H 0.66753 0.51861 0.4878 0.0
H703 H 0.65886 0.47952 0.50391 0.0
H704 H 0.66431 0.44685 0.54983 0.0
H705 H 0.67373 0.442 0.59256 0.0
H706 H 0.67051 0.36517 0.57859 0.0
H707 H 0.66084 0.36959 0.53623 0.0
H708 H 0.66798 0.34921 0.48527 0.0
H709 H 0.66851 0.31303 0.45888 0.0
H710 H 0.63728 0.3494 0.40027 0.0
H711 H 0.63707 0.3863 0.42662 0.0
N712 N 0.65493 0.4148 0.46504 0.0
N713 N 0.65961 0.4331 0.50415 0.0
N714 N 0.65548 0.39122 0.49811 0.0
C715 C 0.65788 0.43507 0.48 0.0
C716 C 0.65832 0.41116 0.51333 0.0
C717 C 0.65365 0.39281 0.47403 0.0
C718 C 0.66128 0.45891 0.47006 0.0
C719 C 0.66521 0.46063 0.44563 0.0
C720 C 0.67037 0.48295 0.4366 0.0
C721 C 0.67145 0.50398 0.45173 0.0
C722 C 0.66683 0.5025 0.47592 0.0
C723 C 0.66189 0.48015 0.48505 0.0
C724 C 0.66199 0.40864 0.53948 0.0
C725 C 0.66535 0.42891 0.55587 0.0
C726 C 0.67072 0.42621 0.58026 0.0
C727 C 0.67298 0.40324 0.58856 0.0
C728 C 0.6689 0.38302 0.57244 0.0
C729 C 0.66339 0.38565 0.54819 0.0
C730 C 0.65253 0.37067 0.45802 0.0
C731 C 0.66104 0.34961 0.46682 0.0
C732 C 0.74998 0.62935 0.04458 0.0
C733 C 0.73325 0.62478 0.02499 0.0
C734 C 0.72305 0.60133 0.01951 0.0
C735 C 0.72855 0.58294 0.0344 0.0
H736 H 0.72136 0.50846 0.0439 0.0
H737 H 0.71217 0.46547 0.03417 0.0
H738 H 0.74223 0.45016 0.10378 0.0
H739 H 0.75133 0.4931 0.11389 0.0
H740 H 0.76408 0.53805 0.1545 0.0
H741 H 0.77114 0.55549 0.19596 0.0
H742 H 0.76856 0.62658 0.17077 0.0
H743 H 0.76211 0.60973 0.12974 0.0
H744 H 0.76776 0.61551 0.07496 0.0
H745 H 0.75804 0.64734 0.049 0.0
H746 H 0.71007 0.59757 0.00439 0.0
H747 H 0.71964 0.56525 0.03049 0.0
N748 N 0.74143 0.54622 0.068 0.0
N749 N 0.75065 0.53871 0.10833 0.0
N750 N 0.75442 0.57788 0.09601 0.0
C751 C 0.74334 0.53038 0.08546 0.0
C752 C 0.75615 0.56255 0.11371 0.0
C753 C 0.74719 0.57003 0.0732 0.0
C754 C 0.73721 0.50432 0.07967 0.0
C755 C 0.72598 0.49602 0.05722 0.0
C756 C 0.72063 0.47147 0.05162 0.0
C757 C 0.72656 0.45471 0.06825 0.0
C758 C 0.73749 0.46286 0.09074 0.0
C759 C 0.74268 0.48743 0.09645 0.0
C760 C 0.76231 0.57242 0.13872 0.0
C761 C 0.76527 0.55739 0.15778 0.0
C762 C 0.76933 0.56729 0.18144 0.0
C763 C 0.7701 0.59229 0.18635 0.0
C764 C 0.76791 0.60725 0.16734 0.0
C765 C 0.76418 0.59748 0.14383 0.0
C766 C 0.74417 0.58789 0.055 0.0
C767 C 0.75538 0.61112 0.05945 0.0
C768 C 0.21973 0.13313 0.50269 0.0
C769 C 0.22419 0.13596 0.5276 0.0
C770 C 0.22573 0.11559 0.54087 0.0
C771 C 0.22392 0.09262 0.52912 0.0
H772 H 0.23574 0.02145 0.53895 0.0
H773 H 0.24678 0.98625 0.55986 0.0
H774 H 0.24029 0.94328 0.49291 0.0
H775 H 0.22928 0.97824 0.47167 0.0
H776 H 0.22738 0.0044 0.42271 0.0
H777 H 0.23078 0.00473 0.37931 0.0
H778 H 0.21691 0.0797 0.38197 0.0
H779 H 0.21329 0.07969 0.42509 0.0
H780 H 0.21487 0.10891 0.47164 0.0
H781 H 0.21838 0.14868 0.49222 0.0
H782 H 0.22907 0.11754 0.56017 0.0
H783 H 0.22588 0.07722 0.53969 0.0
N784 N 0.22458 0.04588 0.50283 0.0
N785 N 0.22446 0.02303 0.46614 0.0
N786 N 0.2188 0.06413 0.46663 0.0
C787 C 0.22635 0.02434 0.49055 0.0
C788 C 0.22061 0.04289 0.45405 0.0
C789 C 0.2207 0.06586 0.49093 0.0
C790 C 0.2317 0.00277 0.50355 0.0
C791 C 0.23647 0.00452 0.52861 0.0
C792 C 0.2428 0.98446 0.54063 0.0
C793 C 0.24436 0.96232 0.52785 0.0
C794 C 0.23915 0.9603 0.503 0.0
C795 C 0.2329 0.98034 0.49093 0.0
C796 C 0.22028 0.04207 0.42751 0.0
C797 C 0.22474 0.02089 0.41406 0.0
C798 C 0.22668 0.02101 0.38928 0.0
C799 C 0.22421 0.04228 0.37762 0.0
C800 C 0.21889 0.06316 0.39076 0.0
C801 C 0.21689 0.06307 0.41544 0.0
C802 C 0.22037 0.08976 0.50396 0.0
C803 C 0.21778 0.1103 0.49099 0.0
C804 C 0.31839 0.86547 0.93804 0.0
C805 C 0.32437 0.86383 0.96249 0.0
C806 C 0.32876 0.88492 0.9775 0.0
C807 C 0.32639 0.90739 0.96823 0.0
H808 H 0.31994 0.98068 0.98835 0.0
H809 H 0.31702 0.01766 0.01376 0.0
H810 H 0.29748 0.05511 0.95133 0.0
H811 H 0.30037 0.01867 0.92581 0.0
H812 H 0.29828 0.9946 0.87579 0.0
H813 H 0.29272 0.99704 0.83246 0.0
H814 H 0.30346 0.92164 0.82167 0.0
H815 H 0.3091 0.91881 0.86508 0.0
H816 H 0.31119 0.88838 0.9098 0.0
H817 H 0.31491 0.84936 0.92622 0.0
H818 H 0.3334 0.88393 0.99645 0.0
H819 H 0.32946 0.92335 0.98029 0.0
N820 N 0.31569 0.95299 0.94855 0.0
N821 N 0.30785 0.97521 0.91515 0.0
N822 N 0.31242 0.93401 0.90977 0.0
C823 C 0.31152 0.97436 0.93926 0.0
C824 C 0.3083 0.95519 0.90027 0.0
C825 C 0.31616 0.93269 0.93385 0.0
C826 C 0.31037 0.9966 0.95499 0.0
C827 C 0.31509 0.99678 0.98 0.0
C828 C 0.31347 0.01785 0.99455 0.0
C829 C 0.30705 0.03898 0.98431 0.0
C830 C 0.30248 0.03893 0.95947 0.0
C831 C 0.30416 0.01801 0.94494 0.0
C832 C 0.30427 0.95652 0.874 0.0
C833 C 0.29941 0.97845 0.86431 0.0
C834 C 0.29616 0.97992 0.83956 0.0
C835 C 0.29771 0.95953 0.82405 0.0
C836 C 0.3022 0.93752 0.8335 0.0
C837 C 0.30545 0.936 0.85829 0.0
C838 C 0.31985 0.9091 0.94376 0.0
C839 C 0.31623 0.88785 0.92873 0.0
C840 C 0.45765 0.63507 0.36003 0.0
C841 C 0.4348 0.64328 0.36196 0.0
C842 C 0.42711 0.65 0.38461 0.0
C843 C 0.44273 0.64974 0.40508 0.0
H844 H 0.45132 0.6686 0.47836 0.0
H845 H 0.44002 0.67948 0.51888 0.0
H846 H 0.51023 0.66515 0.54771 0.0
H847 H 0.52197 0.6546 0.50716 0.0
H848 H 0.56523 0.65973 0.46855 0.0
H849 H 0.60666 0.66723 0.45779 0.0
H850 H 0.58326 0.65765 0.38291 0.0
H851 H 0.54232 0.64975 0.39312 0.0
H852 H 0.49108 0.62917 0.37811 0.0
H853 H 0.46379 0.62982 0.34263 0.0
H854 H 0.40949 0.65648 0.38628 0.0
H855 H 0.43679 0.65602 0.42224 0.0
N856 N 0.4778 0.65069 0.44636 0.0
N857 N 0.51834 0.65572 0.46029 0.0
N858 N 0.50776 0.64681 0.41949 0.0
C859 C 0.49476 0.6552 0.46484 0.0
C860 C 0.52494 0.65158 0.43754 0.0
C861 C 0.48425 0.64623 0.42363 0.0
C862 C 0.4876 0.66078 0.48949 0.0
C863 C 0.46437 0.66762 0.49328 0.0
C864 C 0.45786 0.67389 0.51639 0.0
C865 C 0.47432 0.67313 0.53614 0.0
C866 C 0.49734 0.66585 0.53259 0.0
C867 C 0.504 0.65989 0.50943 0.0
C868 C 0.55034 0.65425 0.43175 0.0
C869 C 0.56894 0.65896 0.44979 0.0
C870 C 0.5926 0.66326 0.44371 0.0
C871 C 0.5979 0.66314 0.41953 0.0
C872 C 0.57951 0.65787 0.40161 0.0
C873 C 0.55604 0.65334 0.40759 0.0
C874 C 0.46624 0.6429 0.40302 0.0
C875 C 0.47323 0.63484 0.38035 0.0
C876 C 0.94579 0.29119 0.88414 0.0
C877 C 0.9703 0.29746 0.88396 0.0
C878 C 0.98492 0.29736 0.90518 0.0
C879 C 0.97506 0.29093 0.92642 0.0
H880 H 0.99207 0.27824 -0.00128 0.0
H881 H 0.01521 0.2775 0.03732 0.0
H882 H 0.95119 0.25519 0.07072 0.0
H883 H 0.92795 0.2557 0.0326 0.0
H884 H 0.8791 0.26662 0.00951 0.0
H885 H 0.83587 0.26732 0.01138 0.0
H886 H 0.82767 0.2705 0.93469 0.0
H887 H 0.8711 0.27007 0.93246 0.0
H888 H 0.91689 0.28012 0.90474 0.0
H889 H 0.93431 0.29109 0.86784 0.0
H890 H 0.00393 0.30208 0.90524 0.0
H891 H 0.98675 0.291 0.94256 0.0
N892 N 0.95351 0.27526 0.96944 0.0
N893 N 0.91912 0.26711 0.99001 0.0
N894 N 0.9154 0.2754 0.94962 0.0
C895 C 0.94332 0.26961 0.98996 0.0
C896 C 0.90503 0.26994 0.96998 0.0
C897 C 0.93959 0.27809 0.94913 0.0
C898 C 0.95807 0.26726 0.01252 0.0
C899 C 0.98295 0.27287 0.01419 0.0
C900 C 0.99622 0.27241 0.03617 0.0
C901 C 0.98481 0.26629 0.05673 0.0
C902 C 0.96024 0.25989 0.05498 0.0
C903 C 0.947 0.26032 0.03313 0.0
C904 C 0.87866 0.26846 0.97083 0.0
C905 C 0.8682 0.26726 0.99295 0.0
C906 C 0.8435 0.26766 0.9941 0.0
C907 C 0.82877 0.26905 0.9732 0.0
C908 C 0.8389 0.26944 0.95098 0.0
C909 C 0.86369 0.26925 0.94979 0.0
C910 C 0.95041 0.28462 0.92672 0.0
C911 C 0.93591 0.2849 0.9053 0.0
C912 C 0.06004 0.76959 0.64049 0.0
C913 C 0.03508 0.76927 0.63751 0.0
C914 C 0.02416 0.77349 0.61509 0.0
C915 C 0.03811 0.77715 0.59561 0.0
H916 H 0.03586 0.76344 0.52161 0.0
H917 H 0.01942 0.74987 0.48128 0.0
H918 H 0.08869 0.76277 0.45384 0.0
H919 H 0.10555 0.77636 0.49414 0.0
H920 H 0.15088 0.794 0.53124 0.0
H921 H 0.19441 0.7974 0.53969 0.0
H922 H 0.18509 0.78812 0.61439 0.0
H923 H 0.14184 0.78507 0.6064 0.0
H924 H 0.0932 0.77334 0.62409 0.0
H925 H 0.06871 0.76641 0.65772 0.0
H926 H 0.00487 0.77336 0.61257 0.0
H927 H 0.02927 0.77989 0.57835 0.0
N928 N 0.06851 0.77596 0.55494 0.0
N929 N 0.10663 0.78166 0.54036 0.0
N930 N 0.10216 0.78431 0.5817 0.0
C931 C 0.08261 0.77691 0.53608 0.0
C932 C 0.11652 0.78546 0.56317 0.0
C933 C 0.07818 0.7797 0.57781 0.0
C934 C 0.07213 0.77088 0.51125 0.0
C935 C 0.04765 0.76369 0.50704 0.0
C936 C 0.03816 0.75593 0.48401 0.0
C937 C 0.05289 0.75533 0.46474 0.0
C938 C 0.0771 0.76319 0.46858 0.0
C939 C 0.08666 0.77091 0.49165 0.0
C940 C 0.1428 0.78912 0.5681 0.0
C941 C 0.15807 0.79288 0.5495 0.0
C942 C 0.18291 0.79488 0.55426 0.0
C943 C 0.19284 0.79287 0.57762 0.0
C944 C 0.1777 0.7897 0.59626 0.0
C945 C 0.15295 0.78795 0.59159 0.0
C946 C 0.06319 0.77706 0.59844 0.0
C947 C 0.07397 0.77359 0.62121 0.0
C948 C 0.51647 0.24584 0.14131 0.0
C949 C 0.54148 0.248 0.1434 0.0
C950 C 0.55428 0.24385 0.123 0.0
C951 C 0.54207 0.23814 0.10057 0.0
H952 H 0.54972 0.24074 0.02715 0.0
H953 H 0.56875 0.24865 0.99008 0.0
H954 H 0.50145 0.23181 0.94941 0.0
H955 H 0.48211 0.22381 0.98624 0.0
H956 H 0.43481 0.21267 0.01292 0.0
H957 H 0.39103 0.211 0.01215 0.0
H958 H 0.39484 0.22413 0.08896 0.0
H959 H 0.43833 0.22552 0.09012 0.0
H960 H 0.48492 0.23866 0.11814 0.0
H961 H 0.50636 0.24894 0.15694 0.0
H962 H 0.57365 0.24541 0.1244 0.0
H963 H 0.55233 0.23534 0.08503 0.0
N964 N 0.51484 0.2323 0.05398 0.0
N965 N 0.47809 0.22414 0.03164 0.0
N966 N 0.47951 0.22643 0.07355 0.0
C967 C 0.50221 0.22881 0.03235 0.0
C968 C 0.46662 0.22284 0.0522 0.0
C969 C 0.50357 0.23108 0.07469 0.0
C970 C 0.5143 0.23176 0.00978 0.0
C971 C 0.53894 0.23848 0.01035 0.0
C972 C 0.54989 0.24301 0.98921 0.0
C973 C 0.53643 0.24085 0.96715 0.0
C974 C 0.51206 0.23354 0.96634 0.0
C975 C 0.50108 0.22901 0.98745 0.0
C976 C 0.44017 0.21947 0.05156 0.0
C977 C 0.42636 0.21492 0.0297 0.0
C978 C 0.40136 0.21388 0.02919 0.0
C979 C 0.38984 0.21762 0.05049 0.0
C980 C 0.40348 0.22124 0.07236 0.0
C981 C 0.42838 0.22207 0.07293 0.0
C982 C 0.51689 0.23622 0.09836 0.0
C983 C 0.50428 0.23991 0.11907 0.0
C984 C 0.35848 0.46474 0.66877 0.0
C985 C 0.36159 0.44078 0.6616 0.0
C986 C 0.38402 0.43424 0.65476 0.0
C987 C 0.40339 0.45146 0.65599 0.0
H988 H 0.47749 0.45892 0.66366 0.0
H989 H 0.51774 0.44585 0.67127 0.0
H990 H 0.54385 0.51872 0.69225 0.0
H991 H 0.50357 0.53221 0.68469 0.0
H992 H 0.46566 0.57518 0.67496 0.0
H993 H 0.45552 0.61705 0.68219 0.0
H994 H 0.38174 0.59304 0.68768 0.0
H995 H 0.39137 0.5516 0.68027 0.0
H996 H 0.37459 0.50022 0.67566 0.0
H997 H 0.34123 0.47006 0.674 0.0
H998 H 0.38661 0.41578 0.64906 0.0
H999 H 0.42066 0.44594 0.6511 0.0
N1000 N 0.4437 0.48732 0.66713 0.0
N1001 N 0.45778 0.52784 0.67396 0.0
N1002 N 0.41664 0.51733 0.66916 0.0
C1003 C 0.46232 0.50422 0.67103 0.0
C1004 C 0.43488 0.5345 0.67295 0.0
C1005 C 0.4208 0.49379 0.66617 0.0
C1006 C 0.48717 0.49665 0.67369 0.0
C1007 C 0.49174 0.4723 0.6697 0.0
C1008 C 0.51474 0.46474 0.674 0.0
C1009 C 0.53362 0.48133 0.68236 0.0
C1010 C 0.52941 0.50571 0.68577 0.0
C1011 C 0.50638 0.51334 0.68142 0.0
C1012 C 0.42936 0.55997 0.67702 0.0
C1013 C 0.44728 0.57884 0.67768 0.0
C1014 C 0.44156 0.60272 0.68177 0.0
C1015 C 0.41792 0.608 0.68554 0.0
C1016 C 0.40007 0.58927 0.68482 0.0
C1017 C 0.40568 0.56556 0.68054 0.0
C1018 C 0.40039 0.47548 0.66363 0.0
C1019 C 0.37761 0.48194 0.66966 0.0
C1020 C 0.90284 0.92685 0.34691 0.0
C1021 C 0.90566 0.95195 0.34743 0.0
C1022 C 0.92855 0.96329 0.34664 0.0
C1023 C 0.94841 0.94963 0.34481 0.0
H1024 H 0.02123 0.95547 0.33907 0.0
H1025 H 0.05892 0.97541 0.32881 0.0
H1026 H 0.08415 0.907 0.30624 0.0
H1027 H 0.04667 0.88672 0.31652 0.0
H1028 H 0.01607 0.83946 0.32645 0.0
H1029 H 0.0094 0.79627 0.31656 0.0
H1030 H 0.93363 0.80102 0.3218 0.0
H1031 H 0.93994 0.84425 0.33182 0.0
H1032 H 0.91985 0.89378 0.34434 0.0
H1033 H 0.88524 0.91788 0.34749 0.0
H1034 H 0.93095 0.98269 0.34702 0.0
H1035 H 0.96581 0.95891 0.34385 0.0
N1036 N 0.98844 0.92065 0.33749 0.0
N1037 N 0.00402 0.8831 0.33085 0.0
N1038 N 0.96355 0.88544 0.338 0.0
C1039 C 0.00731 0.90744 0.3329 0.0
C1040 C 0.98223 0.87195 0.33348 0.0
C1041 C 0.9665 0.9098 0.34012 0.0
C1042 C 0.0308 0.91946 0.32851 0.0
C1043 C 0.03483 0.94457 0.33213 0.0
C1044 C 0.05635 0.95603 0.32636 0.0
C1045 C 0.07415 0.94261 0.31679 0.0
C1046 C 0.07054 0.91757 0.31366 0.0
C1047 C 0.04909 0.90606 0.31957 0.0
C1048 C 0.97852 0.84545 0.32974 0.0
C1049 C -0.00202 0.83137 0.32577 0.0
C1050 C 0.99426 0.80668 0.32018 0.0
C1051 C 0.97105 0.79563 0.31843 0.0
C1052 C 0.95166 0.80934 0.32316 0.0
C1053 C 0.95535 0.83404 0.32884 0.0
C1054 C 0.94569 0.92437 0.34372 0.0
C1055 C 0.92268 0.91316 0.34509 0.0
C1056 C 0.46493 0.08429 0.7341 0.0
C1057 C 0.45914 0.06121 0.72323 0.0
C1058 C 0.47743 0.04578 0.71926 0.0
C1059 C 0.5012 0.05324 0.72635 0.0
H1060 H 0.56921 0.02682 0.74398 0.0
H1061 H 0.6017 -0.0001 0.73896 0.0
H1062 H 0.653 0.06097 0.74393 0.0
H1063 H 0.62102 0.08792 0.74931 0.0
H1064 H 0.60649 0.13686 0.76821 0.0
H1065 H 0.61774 0.17931 0.7782 0.0
H1066 H 0.5434 0.19412 0.77833 0.0
H1067 H 0.53175 0.15156 0.76805 0.0
H1068 H 0.49253 0.10972 0.74952 0.0
H1069 H 0.451 0.09639 0.73736 0.0
H1070 H 0.47323 0.02788 0.71091 0.0
H1071 H 0.51489 0.04086 0.72312 0.0
N1072 N 0.54994 0.06872 0.74326 0.0
N1073 N 0.57866 0.09941 0.75737 0.0
N1074 N 0.53832 0.10757 0.75297 0.0
C1075 C 0.57314 0.07617 0.7495 0.0
C1076 C 0.56145 0.11522 0.75927 0.0
C1077 C 0.5324 0.08435 0.74491 0.0
C1078 C 0.59248 0.05954 0.74699 0.0
C1079 C 0.58741 0.03451 0.74409 0.0
C1080 C 0.6059 0.01911 0.74132 0.0
C1081 C 0.62963 0.02856 0.74103 0.0
C1082 C 0.63476 0.05342 0.74412 0.0
C1083 C 0.61642 0.06877 0.7472 0.0
C1084 C 0.56815 0.14074 0.76709 0.0
C1085 C 0.59243 0.149 0.77054 0.0
C1086 C 0.59896 0.17326 0.77633 0.0
C1087 C 0.5814 0.18974 0.77894 0.0
C1088 C 0.55717 0.18157 0.77637 0.0
C1089 C 0.55058 0.15727 0.77042 0.0
C1090 C 0.50715 0.07634 0.73743 0.0
C1091 C 0.4887 0.09182 0.74108 0.0
C1092 C 0.9528 0.55637 0.25415 0.0
C1093 C 0.95398 0.5815 0.25601 0.0
C1094 C 0.97576 0.59446 0.25352 0.0
C1095 C 0.99631 0.58237 0.24954 0.0
H1096 H 0.10286 0.52583 0.2451 0.0
H1097 H 0.14217 0.54715 0.24908 0.0
H1098 H 0.10979 0.61489 0.24783 0.0
H1099 H 0.06989 0.5937 0.24403 0.0
H1100 H 0.07344 0.47909 0.23501 0.0
H1101 H 0.07205 0.43536 0.23171 0.0
H1102 H 0.99585 0.43202 0.23784 0.0
H1103 H -0.00314 0.47603 0.2412 0.0
H1104 H 0.97186 0.5248 0.24907 0.0
H1105 H 0.93606 0.54616 0.25607 0.0
H1106 H 0.97691 0.6139 0.25502 0.0
H1107 H 0.01294 0.59288 0.24793 0.0
N1108 N 0.03903 0.55661 0.24516 0.0
N1109 N 0.05768 0.52049 0.24081 0.0
N1110 N 0.01615 0.51976 0.24264 0.0
C1111 C 0.05929 0.54482 0.24311 0.0
C1112 C 0.03628 0.50779 0.24051 0.0
C1113 C 0.01736 0.54419 0.24492 0.0
C1114 C 0.08311 0.55804 0.24435 0.0
C1115 C 0.1039 0.54526 0.24552 0.0
C1116 C 0.12644 0.55737 0.2478 0.0
C1117 C 0.12874 0.58247 0.24879 0.0
C1118 C 0.10821 0.59545 0.24709 0.0
C1119 C 0.0855 0.5833 0.24498 0.0
C1120 C 0.03523 0.48118 0.23836 0.0
C1121 C 0.05631 0.4692 0.23569 0.0
C1122 C 0.05561 0.44419 0.23382 0.0
C1123 C 0.03389 0.43065 0.2346 0.0
C1124 C 0.01277 0.44234 0.23727 0.0
C1125 C 0.01342 0.46744 0.23913 0.0
C1126 C 0.99538 0.55709 0.24801 0.0
C1127 C 0.97331 0.54424 0.25014 0.0
C1128 C 0.18838 0.60377 0.28001 0.0
C1129 C 0.20242 0.60665 0.26002 0.0
C1130 C 0.16691 0.59779 0.23244 0.0
C1131 C 0.15299 0.5947 0.25241 0.0
N1132 N 0.14876 0.60023 0.29487 0.0
N1133 N 0.20482 0.6119 0.21792 0.0
C1134 C 0.16319 0.59968 0.27611 0.0
C1135 C 0.19156 0.60542 0.23641 0.0
N1136 N 0.19922 0.60325 0.30252 0.0
N1137 N 0.15671 0.59256 0.20976 0.0
H1138 H 0.22289 0.61772 0.22042 0.0
H1139 H 0.1976 0.61352 0.20057 0.0
H1140 H 0.13846 0.58803 0.20625 0.0
H1141 H 0.16639 0.59158 0.19453 0.0
H1142 H 0.19023 0.59818 0.31729 0.0
H1143 H 0.21762 0.60612 0.3063 0.0
H1144 H 0.15477 0.60616 0.31233 0.0
H1145 H 0.13026 0.59679 0.29263 0.0
C1146 C 0.3007 0.40803 0.64627 0.0
C1147 C 0.29686 0.39807 0.6685 0.0
C1148 C 0.33839 0.40994 0.68274 0.0
C1149 C 0.34103 0.42284 0.662 0.0
N1150 N 0.32566 0.43416 0.62356 0.0
N1151 N 0.31116 0.39147 0.70904 0.0
C1152 C 0.3225 0.42167 0.64348 0.0
C1153 C 0.3156 0.39909 0.6869 0.0
N1154 N 0.28353 0.40414 0.62782 0.0
N1155 N 0.35762 0.40838 0.69866 0.0
H1156 H 0.29472 0.38373 0.71322 0.0
H1157 H 0.32315 0.39463 0.72401 0.0
H1158 H 0.37438 0.41686 0.69667 0.0
H1159 H 0.35758 0.39703 0.71269 0.0
H1160 H 0.28563 0.40959 0.61065 0.0
H1161 H 0.26764 0.39379 0.62925 0.0
H1162 H 0.31214 0.43652 0.61053 0.0
H1163 H 0.34195 0.44309 0.62042 0.0
C1164 C 0.67561 0.99447 0.70846 0.0
C1165 C 0.69075 0.98846 0.72812 0.0
C1166 C 0.66444 0.00656 0.75643 0.0
C1167 C 0.64935 0.0127 0.73676 0.0
N1168 N 0.63794 0.00942 0.69441 0.0
N1169 N 0.69806 0.98463 0.77043 0.0
C1170 C 0.6541 0.00559 0.71286 0.0
C1171 C 0.68465 0.9932 0.75203 0.0
N1172 N 0.68228 0.99021 0.68557 0.0
N1173 N 0.65972 0.01411 0.77924 0.0
H1174 H 0.71316 0.97511 0.7677 0.0
H1175 H 0.69346 0.98537 0.78814 0.0
H1176 H 0.64442 0.02284 0.78316 0.0
H1177 H 0.67135 0.01279 0.79423 0.0
H1178 H 0.6738 0.99676 0.67053 0.0
H1179 H 0.69725 0.98098 0.6816 0.0
H1180 H 0.6389 0.00242 0.67687 0.0
H1181 H 0.62246 0.01836 0.69682 0.0
C1182 C 0.85197 0.98309 0.36943 0.0
C1183 C 0.84391 0.99364 0.34827 0.0
C1184 C 0.87527 0.97544 0.32623 0.0
C1185 C 0.88441 0.96638 0.3478 0.0
N1186 N 0.88387 0.96395 0.39056 0.0
N1187 N 0.84902 0.00245 0.30722 0.0
C1188 C 0.87338 0.97081 0.3696 0.0
C1189 C 0.85595 0.99063 0.32688 0.0
N1190 N 0.83901 0.98464 0.38927 0.0
N1191 N 0.88447 0.96872 0.30497 0.0
H1192 H 0.83419 0.01275 0.30654 0.0
H1193 H 0.85879 0.00336 0.29208 0.0
H1194 H 0.89872 0.95773 0.30377 0.0
H1195 H 0.8769 0.97243 0.28829 0.0
H1196 H 0.84231 0.97505 0.40432 0.0
H1197 H 0.82384 0.9944 0.39015 0.0
H1198 H 0.87825 0.96887 0.40741 0.0
H1199 H 0.89944 0.95474 0.3913 0.0
C1200 C 0.25617 0.1947 0.55377 0.0
C1201 C 0.23726 0.21014 0.55121 0.0
C1202 C 0.2089 0.17543 0.54056 0.0
C1203 C 0.22838 0.1606 0.53918 0.0
N1204 N 0.27088 0.156 0.54289 0.0
N1205 N 0.19559 0.21593 0.54239 0.0
C1206 C 0.2521 0.17009 0.54576 0.0
C1207 C 0.21353 0.20068 0.54488 0.0
N1208 N 0.27808 0.20363 0.56363 0.0
N1209 N 0.18603 0.16523 0.53792 0.0
H1210 H 0.19821 0.23438 0.54665 0.0
H1211 H 0.17845 0.21055 0.53509 0.0
H1212 H 0.18223 0.14673 0.53491 0.0
H1213 H 0.17097 0.17467 0.54077 0.0
H1214 H 0.29191 0.19289 0.56819 0.0
H1215 H 0.28182 0.22168 0.56927 0.0
H1216 H 0.28869 0.16263 0.54449 0.0
H1217 H 0.26874 0.13783 0.53723 0.0
C1218 C 0.34092 0.8001 0.97273 0.0
C1219 C 0.32241 0.79241 0.98716 0.0
C1220 C 0.30562 0.83175 0.98607 0.0
C1221 C 0.32464 0.8398 0.97241 0.0
N1222 N 0.36274 0.83355 0.9564 0.0
N1223 N 0.28995 0.80194 0.01157 0.0
C1224 C 0.34303 0.82451 0.96682 0.0
C1225 C 0.30575 0.80864 0.99523 0.0
N1226 N 0.35626 0.78396 0.96444 0.0
N1227 N 0.28667 0.84559 0.98911 0.0
H1228 H 0.28888 0.7849 0.0181 0.0
H1229 H 0.27923 0.81383 0.02018 0.0
H1230 H 0.28568 0.86256 0.98256 0.0
H1231 H 0.27096 0.83951 0.99637 0.0
H1232 H 0.36832 0.78757 0.95154 0.0
H1233 H 0.35609 0.76636 0.96961 0.0
H1234 H 0.37783 0.82407 0.95386 0.0
H1235 H 0.36487 0.85139 0.95203 0.0
C1236 C 0.64362 0.26302 0.40595 0.0
C1237 C 0.66549 0.26016 0.39519 0.0
C1238 C 0.67336 0.30395 0.3972 0.0
C1239 C 0.65417 0.30623 0.41226 0.0
N1240 N 0.62054 0.28838 0.43093 0.0
N1241 N 0.7017 0.27789 0.38045 0.0
C1242 C 0.63887 0.28591 0.41625 0.0
C1243 C 0.68021 0.28064 0.39014 0.0
N1244 N 0.6274 0.24377 0.40613 0.0
N1245 N 0.68547 0.32404 0.39023 0.0
H1246 H 0.70742 0.26136 0.37452 0.0
H1247 H 0.71467 0.29189 0.37956 0.0
H1248 H 0.68172 0.34139 0.39596 0.0
H1249 H 0.69785 0.32363 0.37716 0.0
H1250 H 0.6103 0.24498 0.41204 0.0
H1251 H 0.63033 0.22692 0.39817 0.0
H1252 H 0.61105 0.2739 0.43751 0.0
H1253 H 0.61564 0.3051 0.43752 0.0
C1254 C 0.73458 0.67928 0.98786 0.0
C1255 C 0.71295 0.68924 0.99385 0.0
C1256 C 0.70348 0.65561 0.01838 0.0
C1257 C 0.72486 0.64534 0.01204 0.0
N1258 N 0.75829 0.6444 0.98724 0.0
N1259 N 0.67403 0.68412 0.00943 0.0
C1260 C 0.73961 0.65623 0.99557 0.0
C1261 C 0.69653 0.67652 0.00746 0.0
N1262 N 0.75081 0.69232 0.97586 0.0
N1263 N 0.69038 0.64606 0.03569 0.0
H1264 H 0.66818 0.69923 0.00141 0.0
H1265 H 0.66043 0.67421 0.01697 0.0
H1266 H 0.69454 0.6305 0.04391 0.0
H1267 H 0.67637 0.65452 0.04319 0.0
H1268 H 0.76803 0.68726 0.97328 0.0
H1269 H 0.74767 0.70917 0.96983 0.0
H1270 H 0.76841 0.65021 0.97352 0.0
H1271 H 0.76238 0.62755 0.9927 0.0
C1272 C 0.56655 0.24472 0.20777 0.0
C1273 C 0.5695 0.26954 0.21504 0.0
C1274 C 0.55984 0.27972 0.17375 0.0
C1275 C 0.55389 0.25505 0.1672 0.0
N1276 N 0.55073 0.21384 0.17749 0.0
N1277 N 0.5673 0.31096 0.20585 0.0
C1278 C 0.5572 0.23744 0.18405 0.0
C1279 C 0.56604 0.28716 0.19821 0.0
N1280 N 0.57327 0.22821 0.22343 0.0
N1281 N 0.55945 0.29602 0.15654 0.0
H1282 H 0.57188 0.31721 0.22358 0.0
H1283 H 0.56217 0.32449 0.19508 0.0
H1284 H 0.55426 0.29131 0.13858 0.0
H1285 H 0.56606 0.31383 0.15961 0.0
H1286 H 0.57382 0.20998 0.21866 0.0
H1287 H 0.58025 0.23303 0.24089 0.0
H1288 H 0.54987 0.20044 0.18955 0.0
H1289 H 0.54501 0.20774 0.15996 0.0
C1290 C 0.99305 0.28952 0.82174 0.0
C1291 C 0.99506 0.31371 0.81537 0.0
C1292 C 0.98207 0.32754 0.85458 0.0
C1293 C 0.98054 0.30339 0.8611 0.0
N1294 N 0.98833 0.26189 0.85312 0.0
N1295 N 0.99539 0.35605 0.82638 0.0
C1296 C 0.9872 0.28452 0.84532 0.0
C1297 C 0.99084 0.33285 0.83206 0.0
N1298 N 0.9963 0.27129 0.80503 0.0
N1299 N 0.97438 0.34522 0.86962 0.0
H1300 H 0.00111 0.3605 0.80977 0.0
H1301 H 0.9951 0.37085 0.83855 0.0
H1302 H 0.9686 0.34208 0.88655 0.0
H1303 H 0.97238 0.36272 0.86491 0.0
H1304 H 0.99224 0.25323 0.80747 0.0
H1305 H 0.00187 0.27421 0.78798 0.0
H1306 H 0.99548 0.24782 0.84355 0.0
H1307 H 0.98377 0.25751 0.87015 0.0
C1308 C 0.4161 0.67027 0.30404 0.0
C1309 C 0.39862 0.65247 0.29392 0.0
C1310 C 0.40277 0.62974 0.3297 0.0
C1311 C 0.42033 0.64745 0.33979 0.0
N1312 N 0.43978 0.68713 0.33954 0.0
N1313 N 0.37037 0.61949 0.29941 0.0
C1314 C 0.42571 0.66859 0.32788 0.0
C1315 C 0.39037 0.63349 0.30749 0.0
N1316 N 0.42389 0.68846 0.29062 0.0
N1317 N 0.39858 0.60901 0.34089 0.0
H1318 H 0.36074 0.62226 0.2834 0.0
H1319 H 0.36209 0.60689 0.30964 0.0
H1320 H 0.40694 0.60599 0.35749 0.0
H1321 H 0.38799 0.59427 0.33308 0.0
H1322 H 0.43864 0.70029 0.29579 0.0
H1323 H 0.4163 0.6911 0.27359 0.0
H1324 H 0.44242 0.70397 0.33283 0.0
H1325 H 0.44727 0.68642 0.35697 0.0
C1326 C 0.00706 0.77556 0.69758 0.0
C1327 C 0.00052 0.75113 0.70069 0.0
C1328 C 0.01146 0.73973 0.66003 0.0
C1329 C 0.02068 0.76369 0.65803 0.0
N1330 N 0.02779 0.80461 0.67434 0.0
N1331 N -0.00271 0.7095 0.68598 0.0
C1332 C 0.01844 0.78173 0.6766 0.0
C1333 C 0.0026 0.73311 0.68208 0.0
N1334 N 0.00195 0.79281 0.71454 0.0
N1335 N 0.01129 0.7233 0.64086 0.0
H1336 H 0.99025 0.70392 0.70167 0.0
H1337 H 0.00117 0.6952 0.67441 0.0
H1338 H 0.0186 0.72716 0.62477 0.0
H1339 H 0.00244 0.70633 0.64013 0.0
H1340 H 0.00414 0.81117 0.7125 0.0
H1341 H 0.99371 0.78873 0.7301 0.0
H1342 H 0.0294 0.818 0.68821 0.0
H1343 H 0.03501 0.81002 0.65868 0.0
C1344 C 0.83152 0.3796 0.74073 0.0
C1345 C 0.81613 0.37462 0.71971 0.0
C1346 C 0.84892 0.38591 0.69488 0.0
C1347 C 0.86319 0.39399 0.71594 0.0
N1348 N 0.86833 0.3998 0.75899 0.0
N1349 N 0.80908 0.37517 0.67677 0.0
C1350 C 0.85464 0.391 0.73893 0.0
C1351 C 0.8246 0.37802 0.69672 0.0
N1352 N 0.82418 0.37287 0.76229 0.0
N1353 N 0.85869 0.38582 0.67313 0.0
H1354 H 0.79105 0.36961 0.67727 0.0
H1355 H 0.81353 0.38012 0.65993 0.0
H1356 H 0.87636 0.3919 0.67115 0.0
H1357 H 0.85002 0.37784 0.65737 0.0
H1358 H 0.83534 0.37382 0.77792 0.0
H1359 H 0.8074 0.36432 0.76414 0.0
H1360 H 0.86205 0.40087 0.77609 0.0
H1361 H 0.88574 0.40735 0.75839 0.0
C1362 C 0.66623 0.63489 0.30532 0.0
C1363 C 0.66919 0.65899 0.31514 0.0
C1364 C 0.62819 0.65634 0.32785 0.0
C1365 C 0.62493 0.63262 0.31707 0.0
N1366 N 0.63865 0.60147 0.29052 0.0
N1367 N 0.65191 0.69436 0.33131 0.0
C1368 C 0.64336 0.62246 0.30442 0.0
C1369 C 0.6498 0.67029 0.32501 0.0
N1370 N 0.68528 0.62382 0.29671 0.0
N1371 N 0.61097 0.66521 0.34141 0.0
H1372 H 0.66749 0.70506 0.32941 0.0
H1373 H 0.63772 0.70409 0.33659 0.0
H1374 H 0.5947 0.65568 0.34325 0.0
H1375 H 0.61346 0.68115 0.35217 0.0
H1376 H 0.68503 0.60542 0.2924 0.0
H1377 H 0.7019 0.63275 0.2951 0.0
H1378 H 0.65054 0.59454 0.2788 0.0
H1379 H 0.62194 0.59204 0.28883 0.0
C1380 C 0.34058 0.02776 0.20294 0.0
C1381 C 0.32557 0.02637 0.22233 0.0
C1382 C 0.35075 0.9973 0.24053 0.0
C1383 C 0.36454 0.99713 0.22016 0.0
N1384 N 0.37132 0.00968 0.18065 0.0
N1385 N 0.31436 0.00812 0.25827 0.0
C1386 C 0.35917 0.01175 0.20101 0.0
C1387 C 0.33004 0.01058 0.24072 0.0
N1388 N 0.33712 0.04448 0.1865 0.0
N1389 N 0.35799 0.98543 0.26006 0.0
H1390 H 0.29955 0.01831 0.25971 0.0
H1391 H 0.31502 0.99486 0.27048 0.0
H1392 H 0.37306 0.97546 0.26061 0.0
H1393 H 0.35032 0.98703 0.27647 0.0
H1394 H 0.349 0.0483 0.17351 0.0
H1395 H 0.32301 0.05572 0.18674 0.0
H1396 H 0.36661 0.01783 0.165 0.0
H1397 H 0.38522 0.99835 0.17876 0.0
C1398 C 0.1846 0.99128 0.69209 0.0
C1399 C 0.1955 0.99726 0.67088 0.0
C1400 C 0.15923 0.01562 0.65663 0.0
C1401 C 0.14962 0.01242 0.67914 0.0
N1402 N 0.15372 -0.00073 0.7193 0.0
N1403 N 0.19426 0.01598 0.63331 0.0
C1404 C 0.16234 0.00057 0.69708 0.0
C1405 C 0.18306 0.00958 0.65316 0.0
N1406 N 0.19554 0.97665 0.70742 0.0
N1407 N 0.14534 0.02402 0.63849 0.0
H1408 H 0.21131 0.01093 0.62975 0.0
H1409 H 0.1873 0.02738 0.62106 0.0
H1410 H 0.1278 0.02853 0.6405 0.0
H1411 H 0.15035 0.02465 0.62096 0.0
H1412 H 0.18743 0.96957 0.72187 0.0
H1413 H 0.2121 0.96991 0.7046 0.0
H1414 H 0.16348 0.9935 0.73401 0.0
H1415 H 0.13735 0.00558 0.7236 0.0
C1416 C 0.74224 0.81697 0.37102 0.0
C1417 C 0.72158 0.80083 0.36831 0.0
C1418 C 0.69656 0.83373 0.37894 0.0
C1419 C 0.7175 0.84897 0.38479 0.0
N1420 N 0.76048 0.85525 0.38808 0.0
N1421 N 0.67926 0.7929 0.37232 0.0
C1422 C 0.74043 0.8407 0.38112 0.0
C1423 C 0.6987 0.80899 0.37268 0.0
N1424 N 0.76344 0.80974 0.36336 0.0
N1425 N 0.67463 0.84298 0.37933 0.0
H1426 H 0.68 0.77455 0.36814 0.0
H1427 H 0.66275 0.79737 0.37809 0.0
H1428 H 0.67247 0.861 0.38415 0.0
H1429 H 0.65878 0.83341 0.37287 0.0
H1430 H 0.77861 0.82131 0.36261 0.0
H1431 H 0.76528 0.79253 0.35568 0.0
H1432 H 0.7777 0.84934 0.38859 0.0
H1433 H 0.75984 0.873 0.39481 0.0
C1434 C 0.65572 0.18547 0.03168 0.0
C1435 C 0.67637 0.20034 0.02777 0.0
C1436 C 0.70214 0.16852 0.03924 0.0
C1437 C 0.68163 0.15443 0.04494 0.0
N1438 N 0.63919 0.14977 0.049 0.0
N1439 N 0.71936 0.20728 0.0295 0.0
C1440 C 0.65846 0.16294 0.04172 0.0
C1441 C 0.69963 0.19223 0.03209 0.0
N1442 N 0.63351 0.19287 0.02571 0.0
N1443 N 0.72395 0.15889 0.04001 0.0
H1444 H 0.71845 0.22424 0.02293 0.0
H1445 H 0.73668 0.20365 0.03516 0.0
H1446 H 0.72656 0.14174 0.04557 0.0
H1447 H 0.73918 0.16701 0.03348 0.0
H1448 H 0.61783 0.18187 0.02544 0.0
H1449 H 0.63076 0.2098 0.01967 0.0
H1450 H 0.62218 0.15601 0.04973 0.0
H1451 H 0.64048 0.13294 0.05583 0.0
C1452 C 0.3499 0.66906 0.60115 0.0
C1453 C 0.33126 0.68176 0.61087 0.0
C1454 C 0.30415 0.64544 0.6047 0.0
C1455 C 0.32156 0.63406 0.59171 0.0
N1456 N 0.36107 0.63423 0.57735 0.0
N1457 N 0.28964 0.68301 0.61941 0.0
C1458 C 0.3446 0.64556 0.5901 0.0
C1459 C 0.3082 0.67012 0.61241 0.0
N1460 N 0.37275 0.67932 0.60306 0.0
N1461 N 0.28357 0.63269 0.60936 0.0
H1462 H 0.2914 0.70131 0.62447 0.0
H1463 H 0.27191 0.67611 0.61814 0.0
H1464 H 0.27981 0.61471 0.60346 0.0
H1465 H 0.2713 0.6392 0.62091 0.0
H1466 H 0.3876 0.6703 0.59842 0.0
H1467 H 0.37714 0.6964 0.6113 0.0
H1468 H 0.37718 0.64256 0.573 0.0
H1469 H 0.35811 0.61655 0.57015 0.0
C1470 C 0.27776 0.34308 0.038 0.0
C1471 C 0.25407 0.33466 0.0421 0.0
C1472 C 0.23799 0.36651 0.01901 0.0
C1473 C 0.2617 0.37542 0.01571 0.0
N1474 N 0.30409 0.37534 0.02548 0.0
N1475 N 0.21188 0.34037 0.04045 0.0
C1476 C 0.28157 0.36471 0.02638 0.0
C1477 C 0.23422 0.34698 0.03374 0.0
N1478 N 0.29653 0.32969 0.04401 0.0
N1479 N 0.21914 0.37633 0.00752 0.0
H1480 H 0.20857 0.32614 0.05123 0.0
H1481 H 0.19697 0.35007 0.03704 0.0
H1482 H 0.2212 0.39126 0.99738 0.0
H1483 H 0.20161 0.36892 0.00683 0.0
H1484 H 0.31382 0.33336 0.03893 0.0
H1485 H 0.29457 0.31366 0.05246 0.0
H1486 H 0.31902 0.36994 0.03515 0.0
H1487 H 0.30761 0.39089 0.0166 0.0
C1488 C 0.3553 0.76416 0.82967 0.0
C1489 C 0.35638 0.74234 0.81554 0.0
C1490 C 0.37029 0.72222 0.85092 0.0
C1491 C 0.36924 0.74405 0.86505 0.0
N1492 N 0.35634 0.78417 0.86957 0.0
N1493 N 0.36016 0.69951 0.81296 0.0
C1494 C 0.36028 0.76454 0.85492 0.0
C1495 C 0.36216 0.72096 0.82632 0.0
N1496 N 0.35001 0.78458 0.81883 0.0
N1497 N 0.38039 0.70313 0.86068 0.0
H1498 H 0.35546 0.69794 0.79461 0.0
H1499 H 0.36142 0.68297 0.82032 0.0
H1500 H 0.38615 0.70311 0.87874 0.0
H1501 H 0.38455 0.68783 0.85068 0.0
H1502 H 0.35163 0.80164 0.82756 0.0
H1503 H 0.34498 0.78462 0.80059 0.0
H1504 H 0.34786 0.79897 0.86377 0.0
H1505 H 0.35984 0.78484 0.88813 0.0
C1506 C 0.98712 0.64167 0.16841 0.0
C1507 C 0.97642 0.65971 0.18218 0.0
C1508 C 0.98852 0.68982 0.15447 0.0
C1509 C -0.00191 0.67154 0.14001 0.0
N1510 N 0.00398 0.62974 0.13093 0.0
N1511 N 0.96441 0.70027 0.18752 0.0
C1512 C -0.00331 0.64733 0.14635 0.0
C1513 C 0.97628 0.68358 0.1749 0.0
N1514 N 0.98836 0.61922 0.17661 0.0
N1515 N 0.99196 0.71329 0.14914 0.0
H1516 H 0.95642 0.69687 0.20338 0.0
H1517 H 0.96115 0.71711 0.18164 0.0
H1518 H 0.00039 0.71852 0.13404 0.0
H1519 H 0.988 0.72779 0.1604 0.0
H1520 H -0.0017 0.60602 0.16897 0.0
H1521 H 0.98049 0.61411 0.19205 0.0
H1522 H 0.00119 0.61146 0.13315 0.0
H1523 H 0.0114 0.63332 0.11482 0.0
C1524 C 0.60206 0.35897 0.68509 0.0
C1525 C 0.61409 0.34011 0.6953 0.0
C1526 C 0.60611 0.31509 0.65777 0.0
C1527 C 0.59143 0.33261 0.64883 0.0
N1528 N 0.57442 0.37092 0.6536 0.0
N1529 N 0.62413 0.29861 0.69284 0.0
C1530 C 0.5892 0.35457 0.66235 0.0
C1531 C 0.61552 0.31783 0.68195 0.0
N1532 N 0.60349 0.3812 0.6969 0.0
N1533 N 0.61087 0.29569 0.64319 0.0
H1534 H 0.63033 0.29926 0.7108 0.0
H1535 H 0.62298 0.28126 0.68474 0.0
H1536 H 0.60371 0.29272 0.62554 0.0
H1537 H 0.62358 0.28374 0.64784 0.0
H1538 H 0.59656 0.39622 0.68976 0.0
H1539 H 0.61339 0.38514 0.71322 0.0
H1540 H 0.56971 0.386 0.66359 0.0
H1541 H 0.56581 0.36876 0.63647 0.0
C1542 C 0.04312 0.29442 0.31821 0.0
C1543 C 0.04353 0.27205 0.30483 0.0
C1544 C 0.02639 0.25133 0.3377 0.0
C1545 C 0.02274 0.27392 0.34937 0.0
N1546 N 0.02571 0.31719 0.35015 0.0
N1547 N 0.03532 0.22914 0.30105 0.0
C1548 C 0.0309 0.29556 0.33966 0.0
C1549 C 0.03523 0.25043 0.31443 0.0
N1550 N 0.05423 0.31463 0.31029 0.0
N1551 N 0.02168 0.23081 0.3491 0.0
H1552 H 0.04286 0.22771 0.2845 0.0
H1553 H 0.02694 0.21312 0.3057 0.0
H1554 H 0.01532 0.23099 0.36621 0.0
H1555 H 0.02595 0.21387 0.34263 0.0
H1556 H 0.05677 0.33092 0.32048 0.0
H1557 H 0.06264 0.31475 0.29423 0.0
H1558 H 0.02844 0.33344 0.3423 0.0
H1559 H 0.01705 0.31886 0.36603 0.0
C1560 C 0.24927 0.55656 0.35185 0.0
C1561 C 0.27164 0.56004 0.3417 0.0
C1562 C 0.29238 0.54797 0.37838 0.0
C1563 C 0.27035 0.54712 0.38944 0.0
N1564 N 0.22799 0.55199 0.38791 0.0
N1565 N 0.31474 0.56083 0.3453 0.0
C1566 C 0.24876 0.5516 0.37644 0.0
C1567 C 0.29328 0.55617 0.35495 0.0
N1568 N 0.22856 0.558 0.33796 0.0
N1569 N 0.31234 0.54048 0.39019 0.0
H1570 H 0.31614 0.56583 0.32782 0.0
H1571 H 0.3312 0.5612 0.35499 0.0
H1572 H 0.31236 0.53455 0.40748 0.0
H1573 H 0.32839 0.53821 0.38228 0.0
H1574 H 0.21165 0.55327 0.34347 0.0
H1575 H 0.22831 0.56244 0.32015 0.0
H1576 H 0.21216 0.55783 0.38038 0.0
H1577 H 0.22688 0.54777 0.4057 0.0
C1578 C 0.22642 0.41912 0.78032 0.0
C1579 C 0.24348 0.41844 0.76271 0.0
C1580 C 0.27554 0.43252 0.793 0.0
C1581 C 0.25828 0.43448 0.81033 0.0
N1582 N 0.21705 0.4337 0.8201 0.0
N1583 N 0.28341 0.4276 0.75092 0.0
C1584 C 0.23362 0.42891 0.80388 0.0
C1585 C 0.26781 0.42613 0.76864 0.0
N1586 N 0.2034 0.41015 0.77455 0.0
N1587 N 0.29934 0.436 0.80002 0.0
H1588 H 0.27849 0.42243 0.73298 0.0
H1589 H 0.30075 0.43545 0.75361 0.0
H1590 H 0.30562 0.44109 0.81764 0.0
H1591 H 0.31293 0.43224 0.78884 0.0
H1592 H 0.19079 0.40755 0.78715 0.0
H1593 H 0.19719 0.40375 0.75724 0.0
H1594 H 0.1987 0.43252 0.81581 0.0
H1595 H 0.22166 0.44082 0.83756 0.0
C1596 C 0.76962 0.95772 0.60643 0.0
C1597 C 0.75498 0.96729 0.62392 0.0
C1598 C 0.72471 0.97479 0.59228 0.0
C1599 C 0.74039 0.96741 0.57478 0.0
N1600 N 0.77952 0.95607 0.56495 0.0
N1601 N 0.72077 0.98927 0.63339 0.0
C1602 C 0.76338 0.96009 0.58179 0.0
C1603 C 0.73305 0.97697 0.61684 0.0
N1604 N 0.78894 0.94549 0.6133 0.0
N1605 N 0.70167 0.97913 0.58547 0.0
H1606 H 0.72666 0.99195 0.65144 0.0
H1607 H 0.70598 0.9988 0.62888 0.0
H1608 H 0.69497 0.97787 0.56761 0.0
H1609 H 0.68867 0.98198 0.59762 0.0
H1610 H 0.79876 0.93596 0.60123 0.0
H1611 H 0.79382 0.94285 0.63116 0.0
H1612 H 0.79739 0.95326 0.56927 0.0
H1613 H 0.77567 0.9577 0.54668 0.0
C1614 C 0.7328 0.01429 0.25565 0.0
C1615 C 0.74242 0.03476 0.27021 0.0
C1616 C 0.74309 0.05818 0.23468 0.0
C1617 C 0.73097 0.0385 0.22073 0.0
N1618 N 0.70914 -0.00024 0.21949 0.0
N1619 N 0.75161 0.07768 0.27433 0.0
C1620 C 0.72424 0.01712 0.23169 0.0
C1621 C 0.74609 0.05718 0.25995 0.0
N1622 N 0.73294 0.99192 0.26416 0.0
N1623 N 0.75262 0.07743 0.22379 0.0
H1624 H 0.75318 0.07787 0.29299 0.0
H1625 H 0.75213 0.09477 0.26788 0.0
H1626 H 0.75139 0.07864 0.20526 0.0
H1627 H 0.76373 0.09109 0.23295 0.0
H1628 H 0.72831 0.97624 0.25338 0.0
H1629 H 0.73996 0.98882 0.28127 0.0
H1630 H 0.70183 0.98494 0.22755 0.0
H1631 H 0.70197 0.00142 0.20208 0.0
C1632 C 0.35643 0.30423 0.57498 0.0
C1633 C 0.34101 0.28352 0.56817 0.0
C1634 C 0.37502 0.26183 0.55511 0.0
C1635 C 0.39003 0.28318 0.56002 0.0
N1636 N 0.39459 0.32576 0.57072 0.0
N1637 N 0.33456 0.24348 0.54928 0.0
C1638 C 0.38063 0.30468 0.56895 0.0
C1639 C 0.35 0.26256 0.55746 0.0
N1640 N 0.348 0.32343 0.58735 0.0
N1641 N 0.38483 0.24073 0.54898 0.0
H1642 H 0.31627 0.24301 0.55158 0.0
H1643 H 0.33957 0.22878 0.5389 0.0
H1644 H 0.40307 0.23959 0.54695 0.0
H1645 H 0.3753 0.22407 0.54768 0.0
H1646 H 0.35894 0.33791 0.59516 0.0
H1647 H 0.33022 0.32412 0.59146 0.0
H1648 H 0.38805 0.34249 0.57451 0.0
H1649 H 0.41238 0.3269 0.56634 0.0
C1650 C 0.22199 0.69825 0.04772 0.0
C1651 C 0.23504 0.71921 0.04134 0.0
C1652 C 0.19838 0.74087 0.04023 0.0
C1653 C 0.18501 0.71912 0.04365 0.0
N1654 N 0.18334 0.6764 0.04794 0.0
N1655 N 0.23611 0.76027 0.03052 0.0
C1656 C 0.19662 0.69765 0.04692 0.0
C1657 C 0.22335 0.74051 0.03737 0.0
N1658 N 0.2338 0.67885 0.05442 0.0
N1659 N 0.18724 0.76191 0.04029 0.0
H1660 H 0.25464 0.76112 0.02979 0.0
H1661 H 0.22833 0.77537 0.02447 0.0
H1662 H 0.16897 0.76273 0.04234 0.0
H1663 H 0.19626 0.77874 0.04024 0.0
H1664 H 0.22553 0.66416 0.06188 0.0
H1665 H 0.25228 0.67815 0.0544 0.0
H1666 H 0.19058 0.65971 0.04734 0.0
H1667 H 0.16471 0.67512 0.04746 0.0
C1668 C 0.79395 0.20988 0.41253 0.0
C1669 C 0.77741 0.22499 0.40202 0.0
C1670 C 0.80725 0.2592 0.40784 0.0
C1671 C 0.82336 0.24431 0.41924 0.0
N1672 N 0.83097 0.20697 0.43658 0.0
N1673 N 0.76634 0.2648 0.394 0.0
C1674 C 0.81631 0.22011 0.42296 0.0
C1675 C 0.7835 0.2499 0.40089 0.0
N1676 N 0.78885 0.18558 0.41139 0.0
N1677 N 0.81486 0.28203 0.40314 0.0
H1678 H 0.74872 0.25861 0.38905 0.0
H1679 H 0.76894 0.28344 0.39517 0.0
H1680 H 0.83181 0.28978 0.40887 0.0
H1681 H 0.80497 0.29279 0.39232 0.0
H1682 H 0.80124 0.17338 0.41623 0.0
H1683 H 0.77281 0.17728 0.40369 0.0
H1684 H 0.82579 0.19013 0.44217 0.0
H1685 H 0.84772 0.21374 0.44405 0.0
C1686 C 0.59704 0.77906 0.99527 0.0
C1687 C 0.60908 0.76665 0.97724 0.0
C1688 C 0.57191 0.7428 0.96415 0.0
C1689 C 0.55937 0.75738 0.98002 0.0
N1690 N 0.55928 0.79186 0.00818 0.0
N1691 N 0.60736 0.73913 0.94209 0.0
C1692 C 0.57173 0.77619 0.99495 0.0
C1693 C 0.59639 0.74905 0.96107 0.0
N1694 N 0.60982 0.79284 0.01331 0.0
N1695 N 0.56051 0.7227 0.95239 0.0
H1696 H 0.62513 0.74357 0.93889 0.0
H1697 H 0.59827 0.72815 0.92831 0.0
H1698 H 0.54259 0.71753 0.95429 0.0
H1699 H 0.56934 0.71002 0.94252 0.0
H1700 H 0.60211 0.80027 0.02824 0.0
H1701 H 0.62846 0.79485 0.01468 0.0
H1702 H 0.56718 0.80749 0.01723 0.0
H1703 H 0.5407 0.79039 0.00848 0.0
C1704 C 0.57492 0.38899 0.27537 0.0
C1705 C 0.57808 0.37833 0.29757 0.0
C1706 C 0.56393 0.4139 0.31873 0.0
C1707 C 0.56269 0.42533 0.29684 0.0
N1708 N 0.56947 0.42539 0.2548 0.0
N1709 N 0.57791 0.38102 0.34075 0.0
C1710 C 0.56877 0.41328 0.27523 0.0
C1711 C 0.57332 0.39094 0.31938 0.0
N1712 N 0.57766 0.37581 0.25443 0.0
N1713 N 0.55528 0.42467 0.33871 0.0
H1714 H 0.58347 0.3637 0.34196 0.0
H1715 H 0.57769 0.39039 0.35737 0.0
H1716 H 0.54836 0.44154 0.33897 0.0
H1717 H 0.55313 0.4162 0.35453 0.0
H1718 H 0.57295 0.38149 0.23754 0.0
H1719 H 0.5833 0.35839 0.2539 0.0
H1720 H 0.57626 0.41861 0.23908 0.0
H1721 H 0.56477 0.44308 0.25398 0.0
C1722 C 0.05375 0.23709 0.73394 0.0
C1723 C 0.04099 0.24661 0.71444 0.0
C1724 C 0.03586 0.20662 0.69354 0.0
C1725 C 0.04582 0.19673 0.71429 0.0
N1726 N 0.06217 0.20183 0.75526 0.0
N1727 N 0.01643 0.23995 0.67728 0.0
C1728 C 0.05432 0.21177 0.73477 0.0
C1729 C 0.03127 0.2313 0.69453 0.0
N1730 N 0.06588 0.25228 0.75129 0.0
N1731 N 0.03102 0.19243 0.67281 0.0
H1732 H 0.01192 0.25774 0.67757 0.0
H1733 H 0.00676 0.22902 0.66383 0.0
H1734 H 0.03397 0.17418 0.67147 0.0
H1735 H 0.02616 0.19917 0.65642 0.0
H1736 H 0.07744 0.24652 0.76468 0.0
H1737 H 0.06614 0.27093 0.75102 0.0
H1738 H 0.06599 0.21166 0.77161 0.0
H1739 H 0.06326 0.18338 0.75638 0.0
C1740 C 0.40322 0.75837 0.24238 0.0
C1741 C 0.40238 0.74413 0.22043 0.0
C1742 C 0.42233 0.77727 0.20102 0.0
C1743 C 0.42334 0.79144 0.223 0.0
N1744 N 0.41898 0.79478 0.26554 0.0
N1745 N 0.41473 0.73795 0.18012 0.0
C1746 C 0.41508 0.78173 0.24401 0.0
C1747 C 0.4132 0.7529 0.20017 0.0
N1748 N 0.39236 0.74963 0.26153 0.0
N1749 N 0.4291 0.78746 0.18071 0.0
H1750 H 0.40711 0.72039 0.17822 0.0
H1751 H 0.42478 0.74237 0.16584 0.0
H1752 H 0.43659 0.80502 0.18077 0.0
H1753 H 0.42599 0.77914 0.16355 0.0
H1754 H 0.38977 0.75995 0.27713 0.0
H1755 H 0.38484 0.73207 0.26145 0.0
H1756 H 0.41555 0.78803 0.28196 0.0
H1757 H 0.42743 0.81202 0.26726 0.0
C1758 C 0.96351 0.63336 0.73059 0.0
C1759 C 0.96657 0.64004 0.75552 0.0
C1760 C 0.96993 0.59794 0.76424 0.0
C1761 C 0.96867 0.59152 0.73927 0.0
N1762 N 0.9676 0.60298 0.69849 0.0
N1763 N 0.97726 0.62965 0.79582 0.0
C1764 C 0.96645 0.60922 0.72237 0.0
C1765 C 0.97096 0.62258 0.77232 0.0
N1766 N 0.95685 0.64988 0.71491 0.0
N1767 N 0.96969 0.58044 0.78023 0.0
H1768 H 0.97865 0.64756 0.80245 0.0
H1769 H 0.98324 0.61802 0.80835 0.0
H1770 H 0.96963 0.56219 0.77506 0.0
H1771 H 0.96771 0.58383 0.79846 0.0
H1772 H 0.95189 0.64558 0.69686 0.0
H1773 H 0.95435 0.66769 0.72029 0.0
H1774 H 0.96878 0.61541 0.68548 0.0
H1775 H 0.96918 0.58535 0.69181 0.0
C1776 C 0.67292 0.38121 0.65122 0.0
C1777 C 0.69655 0.38859 0.66035 0.0
C1778 C 0.7048 0.40594 0.62241 0.0
C1779 C 0.68066 0.40003 0.61392 0.0
N1780 N 0.64046 0.38658 0.62189 0.0
N1781 N 0.73335 0.41242 0.65681 0.0
C1782 C 0.6643 0.38908 0.62888 0.0
C1783 C 0.71201 0.40232 0.64659 0.0
N1784 N 0.65912 0.36564 0.66323 0.0
N1785 N 0.72113 0.41393 0.60711 0.0
H1786 H 0.73917 0.41035 0.67457 0.0
H1787 H 0.74422 0.42467 0.64844 0.0
H1788 H 0.71669 0.41674 0.5892 0.0
H1789 H 0.73946 0.41585 0.6116 0.0
H1790 H 0.64314 0.35713 0.65569 0.0
H1791 H 0.66466 0.35945 0.67972 0.0
H1792 H 0.6274 0.38095 0.6331 0.0
H1793 H 0.63353 0.39228 0.60565 0.0
C1794 C 0.79188 0.63495 0.23948 0.0
C1795 C 0.7724 0.63252 0.25432 0.0
C1796 C 0.75247 0.60142 0.22585 0.0
C1797 C 0.77218 0.60338 0.21128 0.0
N1798 N 0.81311 0.61715 0.20714 0.0
N1799 N 0.73819 0.60845 0.26538 0.0
C1800 C 0.79276 0.61854 0.21914 0.0
C1801 C 0.75397 0.61412 0.24868 0.0
N1802 N 0.80876 0.65367 0.24393 0.0
N1803 N 0.73178 0.58859 0.21744 0.0
H1804 H 0.73937 0.61683 0.28263 0.0
H1805 H 0.72571 0.59375 0.26307 0.0
H1806 H 0.72971 0.57911 0.20074 0.0
H1807 H 0.716 0.58896 0.22623 0.0
H1808 H 0.8219 0.6578 0.23225 0.0
H1809 H 0.8086 0.66626 0.25844 0.0
H1810 H 0.82936 0.62618 0.21319 0.0
H1811 H 0.81428 0.6051 0.19232 0.0
C1812 C 0.21395 0.04946 0.31075 0.0
C1813 C 0.23755 0.04806 0.30332 0.0
C1814 C 0.2525 0.04396 0.34479 0.0
C1815 C 0.22867 0.04329 0.35187 0.0
N1816 N 0.1863 0.04152 0.34133 0.0
N1817 N 0.27858 0.03934 0.31227 0.0
C1818 C 0.20924 0.04488 0.33474 0.0
C1819 C 0.25666 0.04403 0.32007 0.0
N1820 N 0.19625 0.05614 0.29517 0.0
N1821 N 0.27125 0.04541 0.36174 0.0
H1822 H 0.28237 0.03908 0.29429 0.0
H1823 H 0.29238 0.03358 0.32332 0.0
H1824 H 0.26904 0.04533 0.38008 0.0
H1825 H 0.28898 0.04875 0.3578 0.0
H1826 H 0.17934 0.06003 0.30027 0.0
H1827 H 0.19904 0.05981 0.2775 0.0
H1828 H 0.1714 0.03999 0.32916 0.0
H1829 H 0.18224 0.03811 0.35877 0.0
C1830 C 0.31401 0.96631 0.75986 0.0
C1831 C 0.29144 0.97095 0.74893 0.0
C1832 C 0.27248 0.963 0.7861 0.0
C1833 C 0.29544 0.96165 0.7978 0.0
N1834 N 0.33841 0.96446 0.79681 0.0
N1835 N 0.24944 0.97646 0.75207 0.0
C1836 C 0.31633 0.96382 0.78493 0.0
C1837 C 0.27064 0.96978 0.76206 0.0
N1838 N 0.33307 0.96369 0.74611 0.0
N1839 N 0.25249 0.95759 0.79794 0.0
H1840 H 0.2474 0.98183 0.73461 0.0
H1841 H 0.23432 0.97855 0.76164 0.0
H1842 H 0.25326 0.95277 0.81565 0.0
H1843 H 0.23529 0.95585 0.78965 0.0
H1844 H 0.34938 0.95798 0.75262 0.0
H1845 H 0.33191 0.96499 0.72758 0.0
H1846 H 0.35424 0.96891 0.78889 0.0
H1847 H 0.34091 0.96232 0.81513 0.0
C1848 C 0.65671 0.65843 0.38997 0.0
C1849 C 0.6674 0.68207 0.39512 0.0
C1850 C 0.6324 0.69336 0.41615 0.0
C1851 C 0.62252 0.66933 0.41257 0.0
N1852 N 0.62699 0.62796 0.40003 0.0
N1853 N 0.66808 0.7202 0.418 0.0
C1854 C 0.63526 0.65153 0.40069 0.0
C1855 C 0.65602 0.699 0.40967 0.0
N1856 N 0.66641 0.64294 0.37403 0.0
N1857 N 0.61888 0.71107 0.4247 0.0
H1858 H 0.68568 0.72477 0.41424 0.0
H1859 H 0.66155 0.73212 0.43064 0.0
H1860 H 0.60138 0.70785 0.42947 0.0
H1861 H 0.62426 0.72927 0.42503 0.0
H1862 H 0.65791 0.62655 0.36744 0.0
H1863 H 0.68205 0.64728 0.36573 0.0
H1864 H 0.63652 0.61389 0.39352 0.0
H1865 H 0.6115 0.62223 0.40796 0.0
C1866 C 0.76276 0.25264 0.97979 0.0
C1867 C 0.75489 0.27576 0.98566 0.0
C1868 C 0.79413 0.29446 0.97796 0.0
C1869 C 0.80279 0.27125 0.97504 0.0
N1870 N 0.79634 0.22818 0.97342 0.0
N1871 N 0.76219 0.31882 0.99016 0.0
C1872 C 0.7873 0.25029 0.97575 0.0
C1873 C 0.7703 0.29674 0.9845 0.0
N1874 N 0.74679 0.233 0.97818 0.0
N1875 N 0.80871 0.31425 0.97427 0.0
H1876 H 0.74436 0.32136 0.99318 0.0
H1877 H 0.77314 0.33461 0.9928 0.0
H1878 H 0.82647 0.31329 0.97011 0.0
H1879 H 0.80294 0.33152 0.97367 0.0
H1880 H 0.75073 0.21593 0.97179 0.0
H1881 H 0.72886 0.23398 0.98166 0.0
H1882 H 0.78689 0.21221 0.97656 0.0
H1883 H 0.81397 0.22584 0.96943 0.0
C1884 C 0.25542 0.81021 0.60577 0.0
C1885 C 0.26799 0.79066 0.59689 0.0
C1886 C 0.23139 0.77276 0.57498 0.0
C1887 C 0.21911 0.79295 0.58271 0.0
N1888 N 0.22021 0.833 0.60148 0.0
N1889 N 0.26958 0.75657 0.56855 0.0
C1890 C 0.23143 0.81238 0.59685 0.0
C1891 C 0.25646 0.77292 0.58011 0.0
N1892 N 0.26599 0.826 0.62351 0.0
N1893 N 0.21898 0.75291 0.56379 0.0
H1894 H 0.28809 0.75636 0.57148 0.0
H1895 H 0.26251 0.7448 0.55434 0.0
H1896 H 0.20055 0.75187 0.55981 0.0
H1897 H 0.22663 0.73668 0.5603 0.0
H1898 H 0.25686 0.83897 0.63261 0.0
H1899 H 0.28353 0.825 0.63047 0.0
H1900 H 0.22877 0.84857 0.61001 0.0
H1901 H 0.20276 0.83524 0.59492 0.0
C1902 C 0.32836 0.24188 0.04162 0.0
C1903 C 0.31469 0.22599 0.05504 0.0
C1904 C 0.34908 0.20151 0.06015 0.0
C1905 C 0.36357 0.21943 0.05007 0.0
N1906 N 0.36775 0.25858 0.03422 0.0
N1907 N 0.31267 0.19207 0.07964 0.0
C1908 C 0.35341 0.24009 0.04145 0.0
C1909 C 0.32512 0.20599 0.06483 0.0
N1910 N 0.3173 0.25831 0.0285 0.0
N1911 N 0.35818 0.18012 0.065 0.0
H1912 H 0.29519 0.19491 0.08375 0.0
H1913 H 0.32032 0.17893 0.08939 0.0
H1914 H 0.37564 0.17628 0.06163 0.0
H1915 H 0.34783 0.16548 0.07023 0.0
H1916 H 0.32606 0.26873 0.01654 0.0
H1917 H 0.29884 0.25977 0.02764 0.0
H1918 H 0.36151 0.27518 0.03045 0.0
H1919 H 0.38626 0.25822 0.03396 0.0
C1920 C 0.38535 0.66476 0.67953 0.0
C1921 C 0.39259 0.67772 0.70165 0.0
C1922 C 0.41741 0.64525 0.71312 0.0
C1923 C 0.41133 0.63305 0.69036 0.0
N1924 N 0.3939 0.63354 0.64997 0.0
N1925 N 0.4193 0.6829 0.73731 0.0
C1926 C 0.39669 0.6436 0.67294 0.0
C1927 C 0.4098 0.66874 0.7178 0.0
N1928 N 0.36672 0.67185 0.66542 0.0
N1929 N 0.42948 0.63401 0.73066 0.0
H1930 H 0.4143 0.70028 0.74121 0.0
H1931 H 0.43369 0.67829 0.74834 0.0
H1932 H 0.43547 0.61684 0.72797 0.0
H1933 H 0.43193 0.64091 0.74841 0.0
H1934 H 0.35861 0.66119 0.65089 0.0
H1935 H 0.35781 0.68721 0.66957 0.0
H1936 H 0.38532 0.64171 0.63594 0.0
H1937 H 0.4022 0.61816 0.64446 0.0
C1938 C 0.96799 0.73878 0.27734 0.0
C1939 C 0.96133 0.72117 0.29331 0.0
C1940 C 0.962 0.7523 0.32623 0.0
C1941 C 0.96697 0.77 0.30984 0.0
N1942 N 0.96984 0.78079 0.26903 0.0
N1943 N 0.94778 0.71125 0.33167 0.0
C1944 C 0.96848 0.76344 0.28514 0.0
C1945 C 0.95713 0.72795 0.31743 0.0
N1946 N 0.975 0.73197 0.25511 0.0
N1947 N 0.96262 0.75868 0.35023 0.0
H1948 H 0.94396 0.69327 0.32577 0.0
H1949 H 0.94192 0.71556 0.34858 0.0
H1950 H 0.96596 0.77639 0.35725 0.0
H1951 H 0.96164 0.74632 0.36332 0.0
H1952 H 0.98258 0.74395 0.24378 0.0
H1953 H 0.97533 0.71408 0.24872 0.0
H1954 H 0.9683 0.77701 0.25054 0.0
H1955 H 0.97032 0.7991 0.27404 0.0
C1956 C 0.59109 0.25589 0.7676 0.0
C1957 C 0.60523 0.26465 0.78861 0.0
C1958 C 0.59996 0.22517 0.80501 0.0
C1959 C 0.58858 0.21578 0.78275 0.0
N1960 N 0.57693 0.22129 0.74131 0.0
N1961 N 0.62602 0.25695 0.82605 0.0
C1962 C 0.58507 0.2309 0.76361 0.0
C1963 C 0.61036 0.24915 0.80709 0.0
N1964 N 0.58267 0.27155 0.7518 0.0
N1965 N 0.60042 0.21132 0.82425 0.0
H1966 H 0.63407 0.27435 0.82814 0.0
H1967 H 0.63254 0.24564 0.83864 0.0
H1968 H 0.59288 0.19372 0.82334 0.0
H1969 H 0.60637 0.21791 0.84154 0.0
H1970 H 0.57029 0.26636 0.73749 0.0
H1971 H 0.58605 0.29012 0.75435 0.0
H1972 H 0.57667 0.23113 0.72613 0.0
H1973 H 0.57245 0.20301 0.73747 0.0
C1974 C 0.03776 0.36733 0.20714 0.0
C1975 C 0.03669 0.35402 0.22781 0.0
C1976 C 0.03352 0.3909 0.25305 0.0
C1977 C 0.03347 0.4041 0.23223 0.0
N1978 N 0.03138 0.40496 0.18919 0.0
N1979 N 0.02951 0.35186 0.2696 0.0
C1980 C 0.03436 0.39231 0.20916 0.0
C1981 C 0.03333 0.36543 0.25055 0.0
N1982 N 0.04258 0.35616 0.18572 0.0
N1983 N 0.03457 0.40278 0.27523 0.0
H1984 H 0.02957 0.33318 0.26841 0.0
H1985 H 0.0245 0.35884 0.28606 0.0
H1986 H 0.03425 0.42139 0.27774 0.0
H1987 H 0.0374 0.39445 0.29117 0.0
H1988 H 0.04623 0.36525 0.17058 0.0
H1989 H 0.04456 0.33775 0.18345 0.0
H1990 H 0.02933 0.39704 0.17181 0.0
H1991 H 0.02899 0.42334 0.19003 0.0
C1992 C 0.37049 0.58169 0.25105 0.0
C1993 C 0.35547 0.57004 0.2668 0.0
C1994 C 0.39027 0.55621 0.28905 0.0
C1995 C 0.40528 0.56648 0.27245 0.0
N1996 N 0.41 0.58629 0.23589 0.0
N1997 N 0.35023 0.54187 0.29721 0.0
C1998 C 0.39548 0.57846 0.25289 0.0
C1999 C 0.36514 0.556 0.28475 0.0
N2000 N 0.36098 0.5965 0.23502 0.0
N2001 N 0.40005 0.54737 0.30939 0.0
H2002 H 0.33167 0.5408 0.29411 0.0
H2003 H 0.35625 0.52944 0.30887 0.0
H2004 H 0.41844 0.54723 0.31329 0.0
H2005 H 0.39003 0.54221 0.32346 0.0
H2006 H 0.37124 0.6077 0.22493 0.0
H2007 H 0.34269 0.59874 0.23291 0.0
H2008 H 0.40368 0.59297 0.21995 0.0
H2009 H 0.42842 0.5846 0.23699 0.0
C2010 C 0.12373 0.41385 0.71466 0.0
C2011 C 0.13251 0.4051 0.69276 0.0
C2012 C 0.09325 0.40862 0.67193 0.0
C2013 C 0.08433 0.4163 0.69407 0.0
N2014 N 0.08914 0.42081 0.7372 0.0
N2015 N 0.12494 0.38997 0.65158 0.0
C2016 C 0.09898 0.41709 0.71567 0.0
C2017 C 0.11704 0.40122 0.67166 0.0
N2018 N 0.13922 0.42055 0.73411 0.0
N2019 N 0.07926 0.40919 0.65113 0.0
H2020 H 0.14225 0.38434 0.65085 0.0
H2021 H 0.11389 0.38443 0.63636 0.0
H2022 H 0.06156 0.41385 0.65079 0.0
H2023 H 0.08556 0.40647 0.63416 0.0
H2024 H 0.13412 0.42954 0.74962 0.0
H2025 H 0.15765 0.41932 0.73407 0.0
H2026 H 0.09838 0.41905 0.75363 0.0
H2027 H 0.07103 0.4234 0.7386 0.0
C2028 C 0.89324 0.98534 0.7205 0.0
C2029 C 0.88001 0.98814 0.69854 0.0
C2030 C 0.91578 0.00642 0.68216 0.0
C2031 C 0.92839 0.00575 0.70481 0.0
N2032 N 0.92904 0.99686 0.74635 0.0
N2033 N 0.87728 0.00532 0.66004 0.0
C2034 C 0.91711 0.99579 0.72424 0.0
C2035 C 0.89093 -0.00037 0.67972 0.0
N2036 N 0.88324 0.97208 0.73744 0.0
N2037 N 0.92764 0.01341 0.6629 0.0
H2038 H 0.85886 0.00132 0.65776 0.0
H2039 H 0.88373 0.01606 0.64703 0.0
H2040 H 0.94575 0.01908 0.66406 0.0
H2041 H 0.92007 0.01165 0.64537 0.0
H2042 H 0.8927 0.96723 0.75276 0.0
H2043 H 0.86579 0.9643 0.73529 0.0
H2044 H 0.921 0.99247 0.76188 0.0
H2045 H 0.9468 0.00358 0.74945 0.0
C2046 C 0.61512 0.98518 0.25484 0.0
C2047 C 0.6224 0.98529 0.2796 0.0
C2048 C 0.58396 0.96497 0.28738 0.0
C2049 C 0.57737 0.96339 0.26244 0.0
N2050 N 0.58808 0.96785 0.2219 0.0
N2051 N 0.61609 0.97074 0.31852 0.0
C2052 C 0.59342 0.97222 0.24599 0.0
C2053 C 0.60747 0.9739 0.29564 0.0
N2054 N 0.6283 0.99839 0.24 0.0
N2055 N 0.56751 0.95866 0.30325 0.0
H2056 H 0.63341 0.97652 0.32511 0.0
H2057 H 0.60693 0.96034 0.33022 0.0
H2058 H 0.55016 0.95177 0.29793 0.0
H2059 H 0.57043 0.96205 0.32173 0.0
H2060 H 0.62254 0.00111 0.22241 0.0
H2061 H 0.6441 0.00846 0.24581 0.0
H2062 H 0.60016 0.97156 0.20905 0.0
H2063 H 0.57225 0.95856 0.2148 0.0
C2064 C 0.28691 0.37659 0.56403 0.0
C2065 C 0.26775 0.36816 0.57729 0.0
C2066 C 0.24657 0.40406 0.56898 0.0
C2067 C 0.2672 0.41381 0.5587 0.0
N2068 N 0.30818 0.4108 0.54887 0.0
N2069 N 0.22987 0.37412 0.59395 0.0
C2070 C 0.28768 0.40044 0.55682 0.0
C2071 C 0.24751 0.38179 0.57994 0.0
N2072 N 0.30389 0.36143 0.55752 0.0
N2073 N 0.22608 0.41599 0.56805 0.0
H2074 H 0.22995 0.35788 0.60213 0.0
H2075 H 0.21605 0.38454 0.5989 0.0
H2076 H 0.22499 0.43254 0.56057 0.0
H2077 H 0.20972 0.40874 0.573 0.0
H2078 H 0.31703 0.36583 0.54592 0.0
H2079 H 0.30332 0.34346 0.56159 0.0
H2080 H 0.32449 0.40293 0.54988 0.0
H2081 H 0.30943 0.42814 0.54301 0.0
C2082 C 0.29404 0.63095 0.9801 0.0
C2083 C 0.30844 0.63637 0.00171 0.0
C2084 C 0.32438 0.59665 0.99753 0.0
C2085 C 0.30675 0.58986 0.97866 0.0
N2086 N 0.2728 0.59992 0.95348 0.0
N2087 N 0.33567 0.62333 0.03264 0.0
C2088 C 0.29118 0.6069 0.97012 0.0
C2089 C 0.3235 0.61909 0.01074 0.0
N2090 N 0.28338 0.64891 0.96893 0.0
N2091 N 0.34199 0.58166 0.00274 0.0
H2092 H 0.33497 0.63919 0.04327 0.0
H2093 H 0.34479 0.61031 0.04122 0.0
H2094 H 0.34317 0.56517 0.99325 0.0
H2095 H 0.35663 0.58661 0.01478 0.0
H2096 H 0.27449 0.64641 0.95198 0.0
H2097 H 0.28566 0.66686 0.97546 0.0
H2098 H 0.25933 0.61103 0.94872 0.0
H2099 H 0.26977 0.58242 0.94587 0.0
C2100 C 0.72499 0.09997 0.36257 0.0
C2101 C 0.70996 0.11771 0.3708 0.0
C2102 C 0.68777 0.08756 0.39219 0.0
C2103 C 0.70545 0.0712 0.3875 0.0
N2104 N 0.74235 0.06244 0.36991 0.0
N2105 N 0.67794 0.12911 0.3951 0.0
C2106 C 0.72431 0.07742 0.37287 0.0
C2107 C 0.69129 0.11166 0.38576 0.0
N2108 N 0.73968 0.10462 0.34464 0.0
N2109 N 0.66759 0.07996 0.40273 0.0
H2110 H 0.67988 0.147 0.39095 0.0
H2111 H 0.6661 0.12624 0.40837 0.0
H2112 H 0.66453 0.06237 0.40759 0.0
H2113 H 0.65298 0.09035 0.40455 0.0
H2114 H 0.74944 0.09164 0.33634 0.0
H2115 H 0.7402 0.12085 0.33638 0.0
H2116 H 0.75802 0.06751 0.36201 0.0
H2117 H 0.74262 0.04569 0.37704 0.0
C2118 C 0.70704 0.90081 0.99396 0.0
C2119 C 0.68795 0.88543 0.00088 0.0
C2120 C 0.67711 0.91685 0.02989 0.0
C2121 C 0.69722 0.93159 0.0243 0.0
N2122 N 0.73338 0.93673 0.00369 0.0
N2123 N 0.65822 0.87667 0.02896 0.0
C2124 C 0.71282 0.92332 0.00709 0.0
C2125 C 0.67391 0.89286 0.01983 0.0
N2126 N 0.719 0.89433 0.97431 0.0
N2127 N 0.66069 0.92599 0.04436 0.0
H2128 H 0.6558 0.8587 0.02255 0.0
H2129 H 0.64937 0.88036 0.04442 0.0
H2130 H 0.66242 0.94346 0.05226 0.0
H2131 H 0.64431 0.917 0.04687 0.0
H2132 H 0.7313 0.90583 0.96676 0.0
H2133 H 0.71534 0.87795 0.9644 0.0
H2134 H 0.74679 0.93058 0.99336 0.0
H2135 H 0.73788 0.95348 0.01267 0.0
C2136 C 0.57718 0.32031 0.39852 0.0
C2137 C 0.57822 0.29974 0.38257 0.0
C2138 C 0.5636 0.27393 0.4131 0.0
C2139 C 0.56042 0.29477 0.42807 0.0
N2140 N 0.5606 0.33791 0.43384 0.0
N2141 N 0.57102 0.25716 0.37336 0.0
C2142 C 0.56625 0.31801 0.42046 0.0
C2143 C 0.57115 0.27653 0.38953 0.0
N2144 N 0.58738 0.34194 0.39298 0.0
N2145 N 0.56004 0.25174 0.42172 0.0
H2146 H 0.57707 0.25843 0.35623 0.0
H2147 H 0.56368 0.24013 0.37631 0.0
H2148 H 0.55438 0.24925 0.43882 0.0
H2149 H 0.56427 0.23588 0.41271 0.0
H2150 H 0.58937 0.35711 0.40489 0.0
H2151 H 0.59617 0.34416 0.37734 0.0
H2152 H 0.56192 0.35519 0.42792 0.0
H2153 H 0.5526 0.33705 0.4501 0.0
C2154 C 0.00125 0.29616 0.60595 0.0
C2155 C 0.01052 0.31929 0.6154 0.0
C2156 C 1e-05 0.3363 0.57711 0.0
C2157 C 0.99058 0.3132 0.56773 0.0
N2158 N 0.97877 0.27189 0.57365 0.0
N2159 N 0.01571 0.36196 0.61199 0.0
C2160 C 0.99014 0.29335 0.58233 0.0
C2161 C 0.00888 0.33959 0.60159 0.0
N2162 N 0.00353 0.27678 0.61947 0.0
N2163 N 0.00102 0.35487 0.56237 0.0
H2164 H 0.02282 0.36482 0.62967 0.0
H2165 H 0.01296 0.37783 0.60381 0.0
H2166 H 0.99389 0.35326 0.54464 0.0
H2167 H 0.00995 0.37152 0.56712 0.0
H2168 H 0.0001 0.25903 0.6128 0.0
H2169 H 0.00995 0.27829 0.63741 0.0
H2170 H 0.97531 0.25749 0.58409 0.0
H2171 H 0.97128 0.26881 0.55614 0.0
C2172 C 0.35409 0.6827 0.10971 0.0
C2173 C 0.35478 0.70148 0.12804 0.0
C2174 C 0.37307 0.72947 0.1014 0.0
C2175 C 0.37458 0.71018 0.08406 0.0
N2176 N 0.36982 0.66778 0.07271 0.0
N2177 N 0.36958 0.74153 0.14315 0.0
C2178 C 0.36598 0.68658 0.08847 0.0
C2179 C 0.36542 0.72461 0.12437 0.0
N2180 N 0.34134 0.66146 0.11222 0.0
N2181 N 0.37869 0.75252 0.09584 0.0
H2182 H 0.36525 0.73854 0.16058 0.0
H2183 H 0.37964 0.75768 0.14205 0.0
H2184 H 0.38473 0.7568 0.07929 0.0
H2185 H 0.37538 0.76752 0.10681 0.0
H2186 H 0.33808 0.64804 0.09843 0.0
H2187 H 0.33221 0.65807 0.12743 0.0
H2188 H 0.36674 0.64989 0.07646 0.0
H2189 H 0.37783 0.67002 0.05662 0.0
C2190 C -0.00145 0.68693 0.87636 0.0
C2191 C 0.97381 0.69083 0.87363 0.0
C2192 C 0.96993 0.68213 0.91549 0.0
C2193 C 0.99515 0.68482 0.91964 0.0
N2194 N 0.02908 0.66977 0.90095 0.0
N2195 N 0.93555 0.69202 0.89098 0.0
C2196 C 0.00858 0.68157 0.89917 0.0
C2197 C 0.95935 0.68833 0.89329 0.0
N2198 N 0.0125 0.68809 0.8573 0.0
N2199 N 0.95659 0.66925 0.93034 0.0
H2200 H 0.92704 0.69669 0.87501 0.0
H2201 H 0.9249 0.69237 0.90559 0.0
H2202 H 0.96466 0.65943 0.94349 0.0
H2203 H 0.93829 0.66503 0.92699 0.0
H2204 H 0.03108 0.68811 0.85912 0.0
H2205 H 0.00572 0.69046 0.83991 0.0
H2206 H 0.03855 0.6647 0.88626 0.0
H2207 H 0.03464 0.66222 0.91677 0.0
C2208 C 0.58291 0.44953 0.71435 0.0
C2209 C 0.60228 0.45436 0.69987 0.0
C2210 C 0.57628 0.47596 0.67306 0.0
C2211 C 0.55757 0.4728 0.68867 0.0
N2212 N 0.54425 0.46065 0.72646 0.0
N2213 N 0.61881 0.47568 0.66793 0.0
C2214 C 0.56126 0.46081 0.71002 0.0
C2215 C 0.59936 0.46855 0.67987 0.0
N2216 N 0.58471 0.43322 0.73146 0.0
N2217 N 0.57182 0.48539 0.65143 0.0
H2218 H 0.63605 0.47091 0.67259 0.0
H2219 H 0.61827 0.48808 0.65483 0.0
H2220 H 0.55522 0.4913 0.64598 0.0
H2221 H 0.58395 0.48565 0.63813 0.0
H2222 H 0.57026 0.42695 0.74062 0.0
H2223 H 0.60007 0.42416 0.73497 0.0
H2224 H 0.54704 0.45449 0.7435 0.0
H2225 H 0.5281 0.46867 0.72392 0.0
C2226 C 0.90475 0.60832 0.29049 0.0
C2227 C 0.89071 0.61737 0.27157 0.0
C2228 C 0.91779 0.60227 0.24229 0.0
C2229 C 0.93241 0.59426 0.26134 0.0
N2230 N 0.94228 0.59253 0.30366 0.0
N2231 N 0.88518 0.62619 0.23005 0.0
C2232 C 0.92657 0.59808 0.28549 0.0
C2233 C 0.89768 0.61537 0.24762 0.0
N2234 N 0.89711 0.60937 0.31322 0.0
N2235 N 0.92292 0.59688 0.21909 0.0
H2236 H 0.86978 0.63508 0.23304 0.0
H2237 H 0.89086 0.62782 0.21287 0.0
H2238 H 0.93792 0.58796 0.21455 0.0
H2239 H 0.91163 0.59982 0.20427 0.0
H2240 H 0.90484 0.60047 0.3272 0.0
H2241 H 0.88209 0.61814 0.31796 0.0
H2242 H 0.94049 0.5973 0.32168 0.0
H2243 H 0.95823 0.58459 0.30067 0.0
C2244 C 0.11789 0.97205 0.27659 0.0
C2245 C 0.13734 0.97929 0.29342 0.0
C2246 C 0.11638 0.96007 0.32506 0.0
C2247 C 0.09608 0.95494 0.30874 0.0
N2248 N 0.07608 0.95823 0.26982 0.0
N2249 N 0.15447 0.98278 0.33419 0.0
C2250 C 0.09644 0.96155 0.28473 0.0
C2251 C 0.13651 0.97387 0.3178 0.0
N2252 N 0.12031 0.97428 0.25267 0.0
N2253 N 0.1165 0.95142 0.34735 0.0
H2254 H 0.16965 0.99267 0.32953 0.0
H2255 H 0.15364 0.98191 0.35262 0.0
H2256 H 0.10181 0.94183 0.35347 0.0
H2257 H 0.13164 0.95219 0.35916 0.0
H2258 H 0.10779 0.96699 0.23927 0.0
H2259 H 0.13591 0.98153 0.24597 0.0
H2260 H 0.07436 0.96527 0.25308 0.0
H2261 H 0.0602 0.94988 0.27485 0.0
C2262 C 0.39822 0.02724 0.72375 0.0
C2263 C 0.38474 0.03904 0.70631 0.0
C2264 C 0.42113 0.06235 0.69712 0.0
C2265 C 0.43373 0.05293 0.7168 0.0
N2266 N 0.43342 0.029 0.75118 0.0
N2267 N 0.38258 0.0698 0.67808 0.0
C2268 C 0.42207 0.03601 0.73073 0.0
C2269 C 0.396 0.05702 0.69327 0.0
N2270 N 0.3885 0.0071 0.73306 0.0
N2271 N 0.43328 0.076 0.68185 0.0
H2272 H 0.36415 0.06648 0.67482 0.0
H2273 H 0.38936 0.08492 0.67016 0.0
H2274 H 0.45167 0.08026 0.68416 0.0
H2275 H 0.42557 0.08132 0.66582 0.0
H2276 H 0.39827 0.99638 0.74404 0.0
H2277 H 0.37133 -0.00039 0.72781 0.0
H2278 H 0.42481 0.01884 0.76346 0.0
H2279 H 0.45087 0.03507 0.75705 0.0
C2280 C 0.70677 0.56229 0.44072 0.0
C2281 C 0.69149 0.57134 0.42279 0.0
C2282 C 0.66197 0.53765 0.42588 0.0
C2283 C 0.67813 0.5275 0.44223 0.0
N2284 N 0.7175 0.52784 0.46222 0.0
N2285 N 0.6563 0.56606 0.39545 0.0
C2286 C 0.70096 0.53924 0.44894 0.0
C2287 C 0.66963 0.55851 0.41446 0.0
N2288 N 0.72688 0.57569 0.44987 0.0
N2289 N 0.63902 0.52784 0.42195 0.0
H2290 H 0.66103 0.58151 0.38689 0.0
H2291 H 0.64157 0.55605 0.38691 0.0
H2292 H 0.63271 0.51268 0.43018 0.0
H2293 H 0.62565 0.53587 0.41225 0.0
H2294 H 0.73711 0.57143 0.46497 0.0
H2295 H 0.73259 0.59199 0.44333 0.0
H2296 H 0.7353 0.53426 0.46544 0.0
H2297 H 0.71406 0.51084 0.46839 0.0
C2298 C 0.70257 0.3894 0.06917 0.0
C2299 C 0.71549 0.37834 0.051 0.0
C2300 C 0.73623 0.41716 0.04482 0.0
C2301 C 0.72218 0.42851 0.0618 0.0
N2302 N 0.68863 0.42636 0.08657 0.0
N2303 N 0.7399 0.38264 0.01736 0.0
C2304 C 0.70429 0.41489 0.07289 0.0
C2305 C 0.73094 0.39252 0.03758 0.0
N2306 N 0.68962 0.37558 0.08367 0.0
N2307 N 0.75527 0.42964 0.03629 0.0
H2308 H 0.73572 0.36486 0.01094 0.0
H2309 H 0.74932 0.3927 0.00558 0.0
H2310 H 0.75997 0.44768 0.04129 0.0
H2311 H 0.76769 0.42155 0.02596 0.0
H2312 H 0.68205 0.38254 0.0989 0.0
H2313 H 0.68807 0.35688 0.08172 0.0
H2314 H 0.67368 0.41763 0.09307 0.0
H2315 H 0.68935 0.445 0.08964 0.0
C2316 C 0.28435 0.91986 0.55924 0.0
C2317 C 0.26737 0.90094 0.56341 0.0
C2318 C 0.235 0.92348 0.54655 0.0
C2319 C 0.25222 0.94132 0.5404 0.0
N2320 N 0.29345 0.95513 0.53758 0.0
N2321 N 0.22713 0.8827 0.55775 0.0
C2322 C 0.27697 0.93913 0.54581 0.0
C2323 C 0.24281 0.90221 0.55626 0.0
N2324 N 0.3073 0.91994 0.56899 0.0
N2325 N 0.21119 0.92713 0.54355 0.0
H2326 H 0.23223 0.86666 0.5644 0.0
H2327 H 0.20954 0.88159 0.55048 0.0
H2328 H 0.20482 0.94234 0.53613 0.0
H2329 H 0.19783 0.91607 0.55011 0.0
H2330 H 0.31979 0.93449 0.56882 0.0
H2331 H 0.31335 0.90629 0.57918 0.0
H2332 H 0.31174 0.9529 0.53854 0.0
H2333 H 0.28875 0.96973 0.52803 0.0
C2334 C 0.32171 0.10003 0.01802 0.0
C2335 C 0.29834 0.10639 0.02288 0.0
C2336 C 0.28158 0.0667 0.00653 0.0
C2337 C 0.30454 0.06132 -0.00057 0.0
N2338 N 0.3463 0.07279 0.99671 0.0
N2339 N 0.25577 0.09678 0.02116 0.0
C2340 C 0.32463 0.07789 0.0049 0.0
C2341 C 0.27819 0.08996 0.01702 0.0
N2342 N 0.34106 0.1152 0.02593 0.0
N2343 N 0.26314 0.04933 0.00361 0.0
H2344 H 0.25267 0.11309 0.03011 0.0
H2345 H 0.2401 0.08693 0.01469 0.0
H2346 H 0.26496 0.03221 0.99572 0.0
H2347 H 0.24656 0.0511 0.01057 0.0
H2348 H 0.35868 0.1106 0.02536 0.0
H2349 H 0.33954 0.13205 0.03455 0.0
H2350 H 0.36104 0.08513 0.99751 0.0
H2351 H 0.34926 0.05644 0.98774 0.0
C2352 C 0.46483 0.71213 0.59247 0.0
C2353 C 0.45239 0.69531 0.60593 0.0
C2354 C 0.45393 0.66399 0.57348 0.0
C2355 C 0.46746 0.68047 0.56056 0.0
N2356 N 0.48868 0.71913 0.55864 0.0
N2357 N 0.43846 0.6545 0.61152 0.0
C2358 C 0.47387 0.7042 0.5704 0.0
C2359 C 0.44782 0.67101 0.59704 0.0
N2360 N 0.46688 0.73592 0.60016 0.0
N2361 N 0.44662 0.64174 0.56306 0.0
H2362 H 0.43407 0.65896 0.62898 0.0
H2363 H 0.43686 0.63609 0.6071 0.0
H2364 H 0.4518 0.63549 0.54636 0.0
H2365 H 0.43428 0.62999 0.57021 0.0
H2366 H 0.47323 0.74951 0.58987 0.0
H2367 H 0.46046 0.74247 0.6162 0.0
H2368 H 0.49635 0.73553 0.56617 0.0
H2369 H 0.49469 0.71445 0.54186 0.0
C2370 C 0.02584 0.75016 0.40025 0.0
C2371 C 0.02185 0.72485 0.39652 0.0
C2372 C 0.04126 0.71969 0.43613 0.0
C2373 C 0.04312 0.745 0.44079 0.0
N2374 N 0.03568 0.78455 0.42866 0.0
N2375 N 0.02398 0.68527 0.41096 0.0
C2376 C 0.03513 0.76034 0.42316 0.0
C2377 C 0.02908 0.70953 0.41449 0.0
N2378 N 0.02083 0.76441 0.38186 0.0
N2379 N 0.05171 0.70544 0.45218 0.0
H2380 H 0.01636 0.677 0.39483 0.0
H2381 H 0.02602 0.67338 0.42439 0.0
H2382 H 0.06053 0.71222 0.46838 0.0
H2383 H 0.05333 0.68713 0.44877 0.0
H2384 H 0.02555 0.78275 0.38252 0.0
H2385 H 0.01331 0.75763 0.36511 0.0
H2386 H 0.02772 0.79655 0.41769 0.0
H2387 H 0.04284 0.79262 0.44506 0.0
C2388 C 0.56454 0.27819 0.92047 0.0
C2389 C 0.56873 0.26002 0.90267 0.0
C2390 C 0.55384 0.22908 0.92822 0.0
C2391 C 0.54764 0.24737 0.94494 0.0
N2392 N 0.54323 0.28931 0.95531 0.0
N2393 N 0.56384 0.2185 0.88759 0.0
C2394 C 0.55188 0.27194 0.94058 0.0
C2395 C 0.56248 0.23551 0.906 0.0
N2396 N 0.57363 0.30125 0.91875 0.0
N2397 N 0.552 0.20563 0.93382 0.0
H2398 H 0.56973 0.22255 0.87093 0.0
H2399 H 0.55716 0.20075 0.88804 0.0
H2400 H 0.5455 0.20025 0.94982 0.0
H2401 H 0.55869 0.19173 0.92355 0.0
H2402 H 0.57341 0.31467 0.93247 0.0
H2403 H 0.58345 0.30653 0.90456 0.0
H2404 H 0.54338 0.3073 0.95149 0.0
H2405 H 0.53403 0.28549 0.97037 0.0
C2406 C 0.01774 0.24982 0.11451 0.0
C2407 C 0.01695 0.27164 0.12876 0.0
C2408 C -0.00142 0.29057 0.09452 0.0
C2409 C -0.00211 0.26843 0.08068 0.0
N2410 N 0.00505 0.22641 0.07728 0.0
N2411 N 0.00555 0.31297 0.13206 0.0
C2412 C 0.00713 0.24788 0.09058 0.0
C2413 C 0.00733 0.29196 0.11874 0.0
N2414 N 0.02929 0.2313 0.12369 0.0
N2415 N 0.99008 0.31044 0.08479 0.0
H2416 H 0.01062 0.3158 0.15026 0.0
H2417 H 0.01062 0.3158 0.15026 0.0
H2418 H 0.98333 0.31052 0.06703 0.0
H2419 H 0.99018 0.32702 0.09451 0.0
H2420 H 0.03266 0.21571 0.11369 0.0
H2421 H 0.03706 0.23216 0.14116 0.0
H2422 H 0.00885 0.2101 0.08409 0.0
H2423 H -0.0017 0.22468 0.05943 0.0
loop_
_geom_bond_atom_site_label_1
_geom_bond_atom_site_label_2
_geom_bond_distance
_geom_bond_site_symmetry_2
_ccdc_geom_bond_type
O0 Cd1 2.300 . S
O0 C7 1.275 . S
Cd1 O0 2.300 . S
Cd1 O9 2.381 . S
Cd1 O10 2.378 . S
O2 Cd3 2.385 . S
O2 C7 1.255 . S
Cd3 O2 2.385 . S
Cd3 O4 2.317 . S
O4 Cd3 2.317 . S
O4 C5 1.232 . S
C5 O4 1.232 . S
C5 O6 1.218 . S
O6 C5 1.218 . S
C7 O0 1.275 . S
C7 O2 1.255 . S
C8 O9 1.258 . S
C8 O10 1.256 . S
O9 Cd1 2.381 . S
O9 C8 1.258 . S
O10 Cd1 2.378 . S
O10 C8 1.256 . S
O11 Cd12 2.300 . S
O11 C18 1.275 . S
Cd12 O11 2.300 . S
Cd12 O20 2.381 . S
Cd12 O21 2.378 . S
O13 Cd14 2.385 . S
O13 C18 1.255 . S
Cd14 O13 2.385 . S
Cd14 O15 2.317 . S
O15 Cd14 2.317 . S
O15 C16 1.232 . S
C16 O15 1.232 . S
C16 O17 1.218 . S
O17 C16 1.218 . S
C18 O11 1.275 . S
C18 O13 1.255 . S
C19 O20 1.258 . S
C19 O21 1.256 . S
O20 Cd12 2.381 . S
O20 C19 1.258 . S
O21 Cd12 2.378 . S
O21 C19 1.256 . S
O22 Cd23 2.300 . S
O22 C29 1.275 . S
Cd23 O22 2.300 . S
Cd23 O31 2.381 1_565 S
Cd23 O32 2.378 . S
O24 Cd25 2.385 . S
O24 C29 1.255 . S
Cd25 O24 2.385 . S
Cd25 O26 2.317 . S
O26 Cd25 2.317 . S
O26 C27 1.232 . S
C27 O26 1.232 . S
C27 O28 1.218 . S
O28 C27 1.218 . S
C29 O22 1.275 . S
C29 O24 1.255 . S
C30 O31 1.258 . S
C30 O32 1.256 1_545 S
O31 Cd23 2.381 1_545 S
O31 C30 1.258 . S
O32 Cd23 2.378 . S
O32 C30 1.256 1_565 S
O33 Cd34 2.300 . S
O33 C40 1.275 . S
Cd34 O33 2.300 . S
Cd34 O42 2.381 1_545 S
Cd34 O43 2.378 . S
O35 Cd36 2.385 . S
O35 C40 1.255 . S
Cd36 O35 2.385 . S
Cd36 O37 2.317 . S
O37 Cd36 2.317 . S
O37 C38 1.232 . S
C38 O37 1.232 . S
C38 O39 1.218 . S
O39 C38 1.218 . S
C40 O33 1.275 . S
C40 O35 1.255 . S
C41 O42 1.258 . S
C41 O43 1.256 1_565 S
O42 Cd34 2.381 1_565 S
O42 C41 1.258 . S
O43 Cd34 2.378 . S
O43 C41 1.256 1_545 S
O44 Cd45 2.300 . S
O44 C51 1.275 . S
Cd45 O44 2.300 . S
Cd45 O53 2.381 . S
Cd45 O54 2.378 . S
O46 Cd47 2.385 . S
O46 C51 1.255 . S
Cd47 O46 2.385 . S
Cd47 O48 2.317 . S
O48 Cd47 2.317 . S
O48 C49 1.232 . S
C49 O48 1.232 . S
C49 O50 1.218 . S
O50 C49 1.218 . S
C51 O44 1.275 . S
C51 O46 1.255 . S
C52 O53 1.258 . S
C52 O54 1.256 . S
O53 Cd45 2.381 . S
O53 C52 1.258 . S
O54 Cd45 2.378 . S
O54 C52 1.256 . S
O55 Cd56 2.300 . S
O55 C62 1.275 . S
Cd56 O55 2.300 . S
Cd56 O64 2.381 1_554 S
Cd56 O65 2.378 . S
O57 Cd58 2.385 . S
O57 C62 1.255 . S
Cd58 O57 2.385 . S
Cd58 O59 2.317 . S
O59 Cd58 2.317 . S
O59 C60 1.232 . S
C60 O59 1.232 . S
C60 O61 1.218 . S
O61 C60 1.218 . S
C62 O55 1.275 . S
C62 O57 1.255 . S
C63 O64 1.258 . S
C63 O65 1.256 1_556 S
O64 Cd56 2.381 1_556 S
O64 C63 1.258 . S
O65 Cd56 2.378 . S
O65 C63 1.256 1_554 S
O66 Cd67 2.300 . S
O66 C73 1.275 . S
Cd67 O66 2.300 . S
Cd67 O75 2.381 . S
Cd67 O76 2.378 . S
O68 Cd69 2.385 . S
O68 C73 1.255 . S
Cd69 O68 2.385 . S
Cd69 O70 2.317 . S
O70 Cd69 2.317 . S
O70 C71 1.232 . S
C71 O70 1.232 . S
C71 O72 1.218 . S
O72 C71 1.218 . S
C73 O66 1.275 . S
C73 O68 1.255 . S
C74 O75 1.258 . S
C74 O76 1.256 . S
O75 Cd67 2.381 . S
O75 C74 1.258 . S
O76 Cd67 2.378 . S
O76 C74 1.256 . S
O77 Cd78 2.300 . S
O77 C84 1.275 . S
Cd78 O77 2.300 . S
Cd78 O86 2.381 1_556 S
Cd78 O87 2.378 . S
O79 Cd80 2.385 . S
O79 C84 1.255 . S
Cd80 O79 2.385 . S
Cd80 O81 2.317 . S
O81 Cd80 2.317 . S
O81 C82 1.232 . S
C82 O81 1.232 . S
C82 O83 1.218 . S
O83 C82 1.218 . S
C84 O77 1.275 . S
C84 O79 1.255 . S
C85 O86 1.258 . S
C85 O87 1.256 1_554 S
O86 Cd78 2.381 1_554 S
O86 C85 1.258 . S
O87 Cd78 2.378 . S
O87 C85 1.256 1_556 S
O88 Cd89 2.300 . S
O88 C95 1.275 . S
Cd89 O88 2.300 . S
Cd89 O97 2.381 . S
Cd89 O98 2.378 . S
O90 Cd91 2.385 . S
O90 C95 1.255 . S
Cd91 O90 2.385 . S
Cd91 O92 2.317 . S
O92 Cd91 2.317 . S
O92 C93 1.232 . S
C93 O92 1.232 . S
C93 O94 1.218 . S
O94 C93 1.218 . S
C95 O88 1.275 . S
C95 O90 1.255 . S
C96 O97 1.258 . S
C96 O98 1.256 . S
O97 Cd89 2.381 . S
O97 C96 1.258 . S
O98 Cd89 2.378 . S
O98 C96 1.256 . S
O99 Cd100 2.300 . S
O99 C106 1.275 . S
Cd100 O99 2.300 . S
Cd100 O108 2.381 1_455 S
Cd100 O109 2.378 . S
O101 Cd102 2.385 . S
O101 C106 1.255 . S
Cd102 O101 2.385 . S
Cd102 O103 2.317 . S
O103 Cd102 2.317 . S
O103 C104 1.232 . S
C104 O103 1.232 . S
C104 O105 1.218 . S
O105 C104 1.218 . S
C106 O99 1.275 . S
C106 O101 1.255 . S
C107 O108 1.258 . S
C107 O109 1.256 1_655 S
O108 Cd100 2.381 1_655 S
O108 C107 1.258 . S
O109 Cd100 2.378 . S
O109 C107 1.256 1_455 S
O110 Cd111 2.300 . S
O110 C117 1.275 . S
Cd111 O110 2.300 . S
Cd111 O119 2.381 . S
Cd111 O120 2.378 . S
O112 Cd113 2.385 . S
O112 C117 1.255 . S
Cd113 O112 2.385 . S
Cd113 O114 2.317 . S
O114 Cd113 2.317 . S
O114 C115 1.232 . S
C115 O114 1.232 . S
C115 O116 1.218 . S
O116 C115 1.218 . S
C117 O110 1.275 . S
C117 O112 1.255 . S
C118 O119 1.258 . S
C118 O120 1.256 . S
O119 Cd111 2.381 . S
O119 C118 1.258 . S
O120 Cd111 2.378 . S
O120 C118 1.256 . S
O121 Cd122 2.300 . S
O121 C128 1.275 . S
Cd122 O121 2.300 . S
Cd122 O130 2.381 1_655 S
Cd122 O131 2.378 . S
O123 Cd124 2.385 . S
O123 C128 1.255 . S
Cd124 O123 2.385 . S
Cd124 O125 2.317 . S
O125 Cd124 2.317 . S
O125 C126 1.232 . S
C126 O125 1.232 . S
C126 O127 1.218 . S
O127 C126 1.218 . S
C128 O121 1.275 . S
C128 O123 1.255 . S
C129 O130 1.258 . S
C129 O131 1.256 1_455 S
O130 Cd122 2.381 1_455 S
O130 C129 1.258 . S
O131 Cd122 2.378 . S
O131 C129 1.256 1_655 S
O132 Cd133 2.300 . S
O132 C139 1.275 . S
Cd133 O132 2.300 . S
Cd133 O141 2.381 . S
Cd133 O142 2.378 . S
O134 Cd135 2.385 . S
O134 C139 1.255 . S
Cd135 O134 2.385 . S
Cd135 O136 2.317 . S
O136 Cd135 2.317 . S
O136 C137 1.232 . S
C137 O136 1.232 . S
C137 O138 1.218 . S
O138 C137 1.218 . S
C139 O132 1.275 . S
C139 O134 1.255 . S
C140 O141 1.258 . S
C140 O142 1.256 . S
O141 Cd133 2.381 . S
O141 C140 1.258 . S
O142 Cd133 2.378 . S
O142 C140 1.256 . S
O143 Cd144 2.300 . S
O143 C150 1.275 . S
Cd144 O143 2.300 . S
Cd144 O152 2.381 . S
Cd144 O153 2.378 . S
O145 Cd146 2.385 . S
O145 C150 1.255 . S
Cd146 O145 2.385 . S
Cd146 O147 2.317 . S
O147 Cd146 2.317 . S
O147 C148 1.232 . S
C148 O147 1.232 . S
C148 O149 1.218 . S
O149 C148 1.218 . S
C150 O143 1.275 . S
C150 O145 1.255 . S
C151 O152 1.258 . S
C151 O153 1.256 . S
O152 Cd144 2.381 . S
O152 C151 1.258 . S
O153 Cd144 2.378 . S
O153 C151 1.256 . S
O154 Cd155 2.300 1_545 S
O154 C161 1.275 . S
Cd155 O154 2.300 1_565 S
Cd155 O163 2.381 1_565 S
Cd155 O164 2.378 . S
O156 Cd157 2.385 . S
O156 C161 1.255 1_565 S
Cd157 O156 2.385 . S
Cd157 O158 2.317 . S
O158 Cd157 2.317 . S
O158 C159 1.232 . S
C159 O158 1.232 . S
C159 O160 1.218 . S
O160 C159 1.218 . S
C161 O154 1.275 . S
C161 O156 1.255 1_545 S
C162 O163 1.258 1_565 S
C162 O164 1.256 . S
O163 Cd155 2.381 1_545 S
O163 C162 1.258 1_545 S
O164 Cd155 2.378 . S
O164 C162 1.256 . S
O165 Cd166 2.300 1_565 S
O165 C172 1.275 . S
Cd166 O165 2.300 1_545 S
Cd166 O174 2.381 1_545 S
Cd166 O175 2.378 . S
O167 Cd168 2.385 . S
O167 C172 1.255 1_545 S
Cd168 O167 2.385 . S
Cd168 O169 2.317 . S
O169 Cd168 2.317 . S
O169 C170 1.232 . S
C170 O169 1.232 . S
C170 O171 1.218 . S
O171 C170 1.218 . S
C172 O165 1.275 . S
C172 O167 1.255 1_565 S
C173 O174 1.258 1_545 S
C173 O175 1.256 . S
O174 Cd166 2.381 1_565 S
O174 C173 1.258 1_565 S
O175 Cd166 2.378 . S
O175 C173 1.256 . S
O176 Cd177 2.300 . S
O176 C183 1.275 . S
Cd177 O176 2.300 . S
Cd177 O185 2.381 . S
Cd177 O186 2.378 . S
O178 Cd179 2.385 . S
O178 C183 1.255 . S
Cd179 O178 2.385 . S
Cd179 O180 2.317 . S
O180 Cd179 2.317 . S
O180 C181 1.232 . S
C181 O180 1.232 . S
C181 O182 1.218 . S
O182 C181 1.218 . S
C183 O176 1.275 . S
C183 O178 1.255 . S
C184 O185 1.258 . S
C184 O186 1.256 . S
O185 Cd177 2.381 . S
O185 C184 1.258 . S
O186 Cd177 2.378 . S
O186 C184 1.256 . S
O187 Cd188 2.300 1_556 S
O187 C194 1.275 . S
Cd188 O187 2.300 1_554 S
Cd188 O196 2.381 1_554 S
Cd188 O197 2.378 . S
O189 Cd190 2.385 . S
O189 C194 1.255 1_554 S
Cd190 O189 2.385 . S
Cd190 O191 2.317 . S
O191 Cd190 2.317 . S
O191 C192 1.232 . S
C192 O191 1.232 . S
C192 O193 1.218 . S
O193 C192 1.218 . S
C194 O187 1.275 . S
C194 O189 1.255 1_556 S
C195 O196 1.258 1_554 S
C195 O197 1.256 . S
O196 Cd188 2.381 1_556 S
O196 C195 1.258 1_556 S
O197 Cd188 2.378 . S
O197 C195 1.256 . S
O198 Cd199 2.300 . S
O198 C205 1.275 . S
Cd199 O198 2.300 . S
Cd199 O207 2.381 . S
Cd199 O208 2.378 . S
O200 Cd201 2.385 . S
O200 C205 1.255 . S
Cd201 O200 2.385 . S
Cd201 O202 2.317 . S
O202 Cd201 2.317 . S
O202 C203 1.232 . S
C203 O202 1.232 . S
C203 O204 1.218 . S
O204 C203 1.218 . S
C205 O198 1.275 . S
C205 O200 1.255 . S
C206 O207 1.258 . S
C206 O208 1.256 . S
O207 Cd199 2.381 . S
O207 C206 1.258 . S
O208 Cd199 2.378 . S
O208 C206 1.256 . S
O209 Cd210 2.300 1_554 S
O209 C216 1.275 . S
Cd210 O209 2.300 1_556 S
Cd210 O218 2.381 1_556 S
Cd210 O219 2.378 . S
O211 Cd212 2.385 . S
O211 C216 1.255 1_556 S
Cd212 O211 2.385 . S
Cd212 O213 2.317 . S
O213 Cd212 2.317 . S
O213 C214 1.232 . S
C214 O213 1.232 . S
C214 O215 1.218 . S
O215 C214 1.218 . S
C216 O209 1.275 . S
C216 O211 1.255 1_554 S
C217 O218 1.258 1_556 S
C217 O219 1.256 . S
O218 Cd210 2.381 1_554 S
O218 C217 1.258 1_554 S
O219 Cd210 2.378 . S
O219 C217 1.256 . S
O220 Cd221 2.300 . S
O220 C227 1.275 . S
Cd221 O220 2.300 . S
Cd221 O229 2.381 . S
Cd221 O230 2.378 . S
O222 Cd223 2.385 . S
O222 C227 1.255 . S
Cd223 O222 2.385 . S
Cd223 O224 2.317 . S
O224 Cd223 2.317 . S
O224 C225 1.232 . S
C225 O224 1.232 . S
C225 O226 1.218 . S
O226 C225 1.218 . S
C227 O220 1.275 . S
C227 O222 1.255 . S
C228 O229 1.258 . S
C228 O230 1.256 . S
O229 Cd221 2.381 . S
O229 C228 1.258 . S
O230 Cd221 2.378 . S
O230 C228 1.256 . S
O231 Cd232 2.300 1_655 S
O231 C238 1.275 . S
Cd232 O231 2.300 1_455 S
Cd232 O240 2.381 1_455 S
Cd232 O241 2.378 . S
O233 Cd234 2.385 . S
O233 C238 1.255 1_455 S
Cd234 O233 2.385 . S
Cd234 O235 2.317 . S
O235 Cd234 2.317 . S
O235 C236 1.232 . S
C236 O235 1.232 . S
C236 O237 1.218 . S
O237 C236 1.218 . S
C238 O231 1.275 . S
C238 O233 1.255 1_655 S
C239 O240 1.258 1_455 S
C239 O241 1.256 . S
O240 Cd232 2.381 1_655 S
O240 C239 1.258 1_655 S
O241 Cd232 2.378 . S
O241 C239 1.256 . S
O242 Cd243 2.300 . S
O242 C249 1.275 . S
Cd243 O242 2.300 . S
Cd243 O251 2.381 . S
Cd243 O252 2.378 . S
O244 Cd245 2.385 . S
O244 C249 1.255 . S
Cd245 O244 2.385 . S
Cd245 O246 2.317 . S
O246 Cd245 2.317 . S
O246 C247 1.232 . S
C247 O246 1.232 . S
C247 O248 1.218 . S
O248 C247 1.218 . S
C249 O242 1.275 . S
C249 O244 1.255 . S
C250 O251 1.258 . S
C250 O252 1.256 . S
O251 Cd243 2.381 . S
O251 C250 1.258 . S
O252 Cd243 2.378 . S
O252 C250 1.256 . S
O253 Cd254 2.300 1_455 S
O253 C260 1.275 . S
Cd254 O253 2.300 1_655 S
Cd254 O262 2.381 1_655 S
Cd254 O263 2.378 . S
O255 Cd256 2.385 . S
O255 C260 1.255 1_655 S
Cd256 O255 2.385 . S
Cd256 O257 2.317 . S
O257 Cd256 2.317 . S
O257 C258 1.232 . S
C258 O257 1.232 . S
C258 O259 1.218 . S
O259 C258 1.218 . S
C260 O253 1.275 . S
C260 O255 1.255 1_455 S
C261 O262 1.258 1_655 S
C261 O263 1.256 . S
O262 Cd254 2.381 1_455 S
O262 C261 1.258 1_455 S
O263 Cd254 2.378 . S
O263 C261 1.256 . S
C264 C265 1.384 . S
C264 H277 0.947 . S
C264 C299 1.382 . S
C265 C264 1.384 . S
C265 C266 1.378 . S
C266 C265 1.378 . S
C266 C267 1.378 . S
C266 H278 0.952 . S
C267 C266 1.378 . S
C267 H279 0.950 . S
C267 C298 1.383 . S
H268 C287 0.947 . S
H269 C288 0.946 . S
H270 C290 0.953 . S
H271 C291 0.945 . S
H272 C293 0.952 . S
H273 C294 0.949 . S
H274 C296 0.950 . S
H275 C297 0.948 . S
H276 C299 0.951 . S
H277 C264 0.947 . S
H278 C266 0.952 . S
H279 C267 0.950 . S
N280 C283 1.382 . S
N280 C285 1.363 . S
N281 C283 1.371 . S
N281 C284 1.372 . S
N282 C284 1.361 . S
N282 C285 1.377 . S
C283 N280 1.382 . S
C283 N281 1.371 . S
C283 C286 1.480 . S
C284 N281 1.372 . S
C284 N282 1.361 . S
C284 C292 1.457 . S
C285 N280 1.363 . S
C285 N282 1.377 . S
C285 C298 1.479 . S
C286 C283 1.480 . S
C286 C287 1.383 . S
C286 C291 1.385 . S
C287 H268 0.947 . S
C287 C286 1.383 . S
C287 C288 1.388 . S
C288 H269 0.946 . S
C288 C287 1.388 . S
C288 C289 1.384 . S
C289 C288 1.384 . S
C289 C290 1.377 . S
C290 H270 0.953 . S
C290 C289 1.377 . S
C290 C291 1.369 . S
C291 H271 0.945 . S
C291 C286 1.385 . S
C291 C290 1.369 . S
C292 C284 1.457 . S
C292 C293 1.372 . S
C292 C297 1.364 . S
C293 H272 0.952 . S
C293 C292 1.372 . S
C293 C294 1.389 . S
C294 H273 0.949 . S
C294 C293 1.389 . S
C294 C295 1.387 . S
C295 C294 1.387 . S
C295 C296 1.372 . S
C296 H274 0.950 . S
C296 C295 1.372 . S
C296 C297 1.379 . S
C297 H275 0.948 . S
C297 C292 1.364 . S
C297 C296 1.379 . S
C298 C267 1.383 . S
C298 C285 1.479 . S
C298 C299 1.398 . S
C299 C264 1.382 . S
C299 H276 0.951 . S
C299 C298 1.398 . S
C300 C301 1.384 . S
C300 H313 0.947 . S
C300 C335 1.382 . S
C301 C300 1.384 . S
C301 C302 1.378 . S
C302 C301 1.378 . S
C302 C303 1.378 . S
C302 H314 0.952 . S
C303 C302 1.378 . S
C303 H315 0.950 . S
C303 C334 1.383 . S
H304 C323 0.947 . S
H305 C324 0.946 1_554 S
H306 C326 0.953 . S
H307 C327 0.945 . S
H308 C329 0.952 . S
H309 C330 0.949 . S
H310 C332 0.950 . S
H311 C333 0.948 . S
H312 C335 0.951 . S
H313 C300 0.947 . S
H314 C302 0.952 . S
H315 C303 0.950 . S
N316 C319 1.382 . S
N316 C321 1.363 . S
N317 C319 1.371 . S
N317 C320 1.372 . S
N318 C320 1.361 . S
N318 C321 1.377 . S
C319 N316 1.382 . S
C319 N317 1.371 . S
C319 C322 1.480 . S
C320 N317 1.372 . S
C320 N318 1.361 . S
C320 C328 1.457 . S
C321 N316 1.363 . S
C321 N318 1.377 . S
C321 C334 1.479 . S
C322 C319 1.480 . S
C322 C323 1.383 . S
C322 C327 1.385 . S
C323 H304 0.947 . S
C323 C322 1.383 . S
C323 C324 1.388 . S
C324 H305 0.946 1_556 S
C324 C323 1.388 . S
C324 C325 1.384 . S
C325 C324 1.384 . S
C325 C326 1.377 . S
C326 H306 0.953 . S
C326 C325 1.377 . S
C326 C327 1.369 . S
C327 H307 0.945 . S
C327 C322 1.385 . S
C327 C326 1.369 . S
C328 C320 1.457 . S
C328 C329 1.372 . S
C328 C333 1.364 . S
C329 H308 0.952 . S
C329 C328 1.372 . S
C329 C330 1.389 . S
C330 H309 0.949 . S
C330 C329 1.389 . S
C330 C331 1.387 . S
C331 C330 1.387 . S
C331 C332 1.372 . S
C332 H310 0.950 . S
C332 C331 1.372 . S
C332 C333 1.379 . S
C333 H311 0.948 . S
C333 C328 1.364 . S
C333 C332 1.379 . S
C334 C303 1.383 . S
C334 C321 1.479 . S
C334 C335 1.398 . S
C335 C300 1.382 . S
C335 H312 0.951 . S
C335 C334 1.398 . S
C336 C337 1.384 . S
C336 H349 0.947 . S
C336 C371 1.382 . S
C337 C336 1.384 . S
C337 C338 1.378 . S
C338 C337 1.378 . S
C338 C339 1.378 . S
C338 H350 0.952 . S
C339 C338 1.378 . S
C339 H351 0.950 . S
C339 C370 1.383 . S
H340 C359 0.947 . S
H341 C360 0.946 . S
H342 C362 0.953 . S
H343 C363 0.945 . S
H344 C365 0.952 . S
H345 C366 0.949 . S
H346 C368 0.950 . S
H347 C369 0.948 . S
H348 C371 0.951 . S
H349 C336 0.947 . S
H350 C338 0.952 . S
H351 C339 0.950 . S
N352 C355 1.382 1_565 S
N352 C357 1.363 . S
N353 C355 1.371 . S
N353 C356 1.372 . S
N354 C356 1.361 1_565 S
N354 C357 1.377 . S
C355 N352 1.382 1_545 S
C355 N353 1.371 . S
C355 C358 1.480 . S
C356 N353 1.372 . S
C356 N354 1.361 1_545 S
C356 C364 1.457 . S
C357 N352 1.363 . S
C357 N354 1.377 . S
C357 C370 1.479 . S
C358 C355 1.480 . S
C358 C359 1.383 . S
C358 C363 1.385 . S
C359 H340 0.947 . S
C359 C358 1.383 . S
C359 C360 1.388 . S
C360 H341 0.946 . S
C360 C359 1.388 . S
C360 C361 1.384 . S
C361 C360 1.384 . S
C361 C362 1.377 . S
C362 H342 0.953 . S
C362 C361 1.377 . S
C362 C363 1.369 . S
C363 H343 0.945 . S
C363 C358 1.385 . S
C363 C362 1.369 . S
C364 C356 1.457 . S
C364 C365 1.372 . S
C364 C369 1.364 1_545 S
C365 H344 0.952 . S
C365 C364 1.372 . S
C365 C366 1.389 . S
C366 H345 0.949 . S
C366 C365 1.389 . S
C366 C367 1.387 . S
C367 C366 1.387 . S
C367 C368 1.372 1_545 S
C368 H346 0.950 . S
C368 C367 1.372 1_565 S
C368 C369 1.379 . S
C369 H347 0.948 . S
C369 C364 1.364 1_565 S
C369 C368 1.379 . S
C370 C339 1.383 . S
C370 C357 1.479 . S
C370 C371 1.398 . S
C371 C336 1.382 . S
C371 H348 0.951 . S
C371 C370 1.398 . S
C372 C373 1.384 . S
C372 H385 0.947 . S
C372 C407 1.382 . S
C373 C372 1.384 . S
C373 C374 1.378 . S
C374 C373 1.378 . S
C374 C375 1.378 . S
C374 H386 0.952 1_554 S
C375 C374 1.378 . S
C375 H387 0.950 . S
C375 C406 1.383 . S
H376 C395 0.947 . S
H377 C396 0.946 . S
H378 C398 0.953 . S
H379 C399 0.945 . S
H380 C401 0.952 . S
H381 C402 0.949 . S
H382 C404 0.950 . S
H383 C405 0.948 . S
H384 C407 0.951 . S
H385 C372 0.947 . S
H386 C374 0.952 1_556 S
H387 C375 0.950 . S
N388 C391 1.370 1_565 S
N388 C393 1.376 . S
N389 C391 1.371 . S
N389 C392 1.372 . S
N390 C392 1.361 1_565 S
N390 C393 1.377 . S
C391 N388 1.370 1_545 S
C391 N389 1.371 . S
C391 C394 1.480 . S
C392 N389 1.372 . S
C392 N390 1.361 1_545 S
C392 C400 1.457 . S
C393 N388 1.376 . S
C393 N390 1.377 . S
C393 C406 1.479 . S
C394 C391 1.480 . S
C394 C395 1.383 . S
C394 C399 1.385 . S
C395 H376 0.947 . S
C395 C394 1.383 . S
C395 C396 1.388 . S
C396 H377 0.946 . S
C396 C395 1.388 . S
C396 C397 1.384 . S
C397 C396 1.384 . S
C397 C398 1.377 . S
C398 H378 0.953 . S
C398 C397 1.377 . S
C398 C399 1.369 . S
C399 H379 0.945 . S
C399 C394 1.385 . S
C399 C398 1.369 . S
C400 C392 1.457 . S
C400 C401 1.372 . S
C400 C405 1.364 1_545 S
C401 H380 0.952 . S
C401 C400 1.372 . S
C401 C402 1.389 . S
C402 H381 0.949 . S
C402 C401 1.389 . S
C402 C403 1.387 . S
C403 C402 1.387 . S
C403 C404 1.372 1_545 S
C404 H382 0.950 . S
C404 C403 1.372 1_565 S
C404 C405 1.379 . S
C405 H383 0.948 . S
C405 C400 1.364 1_565 S
C405 C404 1.379 . S
C406 C375 1.383 . S
C406 C393 1.479 . S
C406 C407 1.398 . S
C407 C372 1.382 . S
C407 H384 0.951 . S
C407 C406 1.398 . S
C408 C409 1.384 . S
C408 H421 0.947 . S
C408 C443 1.382 . S
C409 C408 1.384 . S
C409 C410 1.378 . S
C410 C409 1.378 . S
C410 C411 1.378 . S
C410 H422 0.952 . S
C411 C410 1.378 . S
C411 H423 0.950 . S
C411 C442 1.383 . S
H412 C431 0.947 . S
H413 C432 0.946 . S
H414 C434 0.953 . S
H415 C435 0.945 . S
H416 C437 0.952 . S
H417 C438 0.949 . S
H418 C440 0.950 . S
H419 C441 0.948 . S
H420 C443 0.951 . S
H421 C408 0.947 . S
H422 C410 0.952 . S
H423 C411 0.950 . S
N424 C427 1.382 . S
N424 C429 1.363 . S
N425 C427 1.371 . S
N425 C428 1.372 . S
N426 C428 1.361 . S
N426 C429 1.377 . S
C427 N424 1.382 . S
C427 N425 1.371 . S
C427 C430 1.480 . S
C428 N425 1.372 . S
C428 N426 1.361 . S
C428 C436 1.457 . S
C429 N424 1.363 . S
C429 N426 1.377 . S
C429 C442 1.479 . S
C430 C427 1.480 . S
C430 C431 1.383 . S
C430 C435 1.385 . S
C431 H412 0.947 . S
C431 C430 1.383 . S
C431 C432 1.388 . S
C432 H413 0.946 . S
C432 C431 1.388 . S
C432 C433 1.384 . S
C433 C432 1.384 . S
C433 C434 1.377 . S
C434 H414 0.953 . S
C434 C433 1.377 . S
C434 C435 1.369 . S
C435 H415 0.945 . S
C435 C430 1.385 . S
C435 C434 1.369 . S
C436 C428 1.457 . S
C436 C437 1.372 . S
C436 C441 1.364 . S
C437 H416 0.952 . S
C437 C436 1.372 . S
C437 C438 1.389 . S
C438 H417 0.949 . S
C438 C437 1.389 . S
C438 C439 1.387 . S
C439 C438 1.387 . S
C439 C440 1.372 . S
C440 H418 0.950 . S
C440 C439 1.372 . S
C440 C441 1.379 . S
C441 H419 0.948 . S
C441 C436 1.364 . S
C441 C440 1.379 . S
C442 C411 1.383 . S
C442 C429 1.479 . S
C442 C443 1.398 . S
C443 C408 1.382 . S
C443 H420 0.951 . S
C443 C442 1.398 . S
C444 C445 1.384 . S
C444 H457 0.947 . S
C444 C479 1.382 . S
C445 C444 1.384 . S
C445 C446 1.378 . S
C446 C445 1.378 . S
C446 C447 1.378 . S
C446 H458 0.949 1_455 S
C447 C446 1.378 . S
C447 H459 0.950 . S
C447 C478 1.383 . S
H448 C467 0.947 . S
H449 C468 0.946 1_655 S
H450 C470 0.953 . S
H451 C471 0.945 . S
H452 C473 0.952 . S
H453 C474 0.949 . S
H454 C476 0.950 . S
H455 C477 0.948 . S
H456 C479 0.951 . S
H457 C444 0.947 . S
H458 C446 0.949 1_655 S
H459 C447 0.950 . S
N460 C463 1.416 . S
N460 C465 1.332 1_556 S
N461 C463 1.371 . S
N461 C464 1.372 . S
N462 C464 1.361 1_554 S
N462 C465 1.377 . S
C463 N460 1.416 . S
C463 N461 1.371 . S
C463 C466 1.480 . S
C464 N461 1.372 . S
C464 N462 1.361 1_556 S
C464 C472 1.458 1_556 S
C465 N460 1.332 1_554 S
C465 N462 1.377 . S
C465 C478 1.479 . S
C466 C463 1.480 . S
C466 C467 1.383 . S
C466 C471 1.385 . S
C467 H448 0.947 . S
C467 C466 1.383 . S
C467 C468 1.388 . S
C468 H449 0.946 1_455 S
C468 C467 1.388 . S
C468 C469 1.384 . S
C469 C468 1.384 . S
C469 C470 1.377 . S
C470 H450 0.953 . S
C470 C469 1.377 . S
C470 C471 1.369 . S
C471 H451 0.945 . S
C471 C466 1.385 . S
C471 C470 1.369 . S
C472 C464 1.458 1_554 S
C472 C473 1.342 1_554 S
C472 C477 1.393 . S
C473 H452 0.952 . S
C473 C472 1.342 1_556 S
C473 C474 1.389 . S
C474 H453 0.949 . S
C474 C473 1.389 . S
C474 C475 1.387 1_556 S
C475 C474 1.387 1_554 S
C475 C476 1.372 . S
C476 H454 0.950 . S
C476 C475 1.372 . S
C476 C477 1.379 . S
C477 H455 0.948 . S
C477 C472 1.393 . S
C477 C476 1.379 . S
C478 C447 1.383 . S
C478 C465 1.479 . S
C478 C479 1.398 . S
C479 C444 1.382 . S
C479 H456 0.951 . S
C479 C478 1.398 . S
C480 C481 1.384 . S
C480 H493 0.947 . S
C480 C515 1.382 . S
C481 C480 1.384 . S
C481 C482 1.378 . S
C482 C481 1.378 . S
C482 C483 1.378 . S
C482 H494 0.952 1_655 S
C483 C482 1.378 . S
C483 H495 0.950 . S
C483 C514 1.383 . S
H484 C503 0.947 . S
H485 C504 0.946 . S
H486 C506 0.953 . S
H487 C507 0.945 . S
H488 C509 0.952 . S
H489 C510 0.949 . S
H490 C512 0.950 . S
H491 C513 0.948 . S
H492 C515 0.951 . S
H493 C480 0.947 . S
H494 C482 0.952 1_455 S
H495 C483 0.950 . S
N496 C499 1.382 . S
N496 C501 1.363 . S
N497 C499 1.371 . S
N497 C500 1.372 . S
N498 C500 1.361 . S
N498 C501 1.377 . S
C499 N496 1.382 . S
C499 N497 1.371 . S
C499 C502 1.480 . S
C500 N497 1.372 . S
C500 N498 1.361 . S
C500 C508 1.457 . S
C501 N496 1.363 . S
C501 N498 1.377 . S
C501 C514 1.479 . S
C502 C499 1.480 . S
C502 C503 1.383 . S
C502 C507 1.385 . S
C503 H484 0.947 . S
C503 C502 1.383 . S
C503 C504 1.388 . S
C504 H485 0.946 . S
C504 C503 1.388 . S
C504 C505 1.384 . S
C505 C504 1.384 . S
C505 C506 1.377 . S
C506 H486 0.953 . S
C506 C505 1.377 . S
C506 C507 1.369 . S
C507 H487 0.945 . S
C507 C502 1.385 . S
C507 C506 1.369 . S
C508 C500 1.457 . S
C508 C509 1.372 . S
C508 C513 1.364 . S
C509 H488 0.952 . S
C509 C508 1.372 . S
C509 C510 1.389 . S
C510 H489 0.949 . S
C510 C509 1.389 . S
C510 C511 1.387 . S
C511 C510 1.387 . S
C511 C512 1.372 . S
C512 H490 0.950 . S
C512 C511 1.372 . S
C512 C513 1.379 . S
C513 H491 0.948 . S
C513 C508 1.364 . S
C513 C512 1.379 . S
C514 C483 1.383 . S
C514 C501 1.479 . S
C514 C515 1.398 . S
C515 C480 1.382 . S
C515 H492 0.951 . S
C515 C514 1.398 . S
C516 C517 1.384 . S
C516 H529 0.947 . S
C516 C551 1.382 . S
C517 C516 1.384 . S
C517 C518 1.378 . S
C518 C517 1.378 . S
C518 C519 1.378 . S
C518 H530 0.952 . S
C519 C518 1.378 . S
C519 H531 0.950 . S
C519 C550 1.383 . S
H520 C539 0.947 . S
H521 C540 0.946 . S
H522 C542 0.953 . S
H523 C543 0.945 . S
H524 C545 0.952 . S
H525 C546 0.949 . S
H526 C548 0.950 . S
H527 C549 0.948 . S
H528 C551 0.951 . S
H529 C516 0.947 . S
H530 C518 0.952 . S
H531 C519 0.950 . S
N532 C535 1.382 1_556 S
N532 C537 1.363 . S
N533 C535 1.371 . S
N533 C536 1.372 . S
N534 C536 1.361 1_556 S
N534 C537 1.377 . S
C535 N532 1.382 1_554 S
C535 N533 1.371 . S
C535 C538 1.480 . S
C536 N533 1.372 . S
C536 N534 1.361 1_554 S
C536 C544 1.457 . S
C537 N532 1.363 . S
C537 N534 1.377 . S
C537 C550 1.479 . S
C538 C535 1.480 . S
C538 C539 1.383 . S
C538 C543 1.385 . S
C539 H520 0.947 . S
C539 C538 1.383 . S
C539 C540 1.388 . S
C540 H521 0.946 . S
C540 C539 1.388 . S
C540 C541 1.384 . S
C541 C540 1.384 . S
C541 C542 1.377 . S
C542 H522 0.953 . S
C542 C541 1.377 . S
C542 C543 1.369 . S
C543 H523 0.945 . S
C543 C538 1.385 . S
C543 C542 1.369 . S
C544 C536 1.457 . S
C544 C545 1.372 . S
C544 C549 1.364 1_554 S
C545 H524 0.952 . S
C545 C544 1.372 . S
C545 C546 1.389 . S
C546 H525 0.949 . S
C546 C545 1.389 . S
C546 C547 1.387 . S
C547 C546 1.387 . S
C547 C548 1.372 1_554 S
C548 H526 0.950 . S
C548 C547 1.372 1_556 S
C548 C549 1.379 . S
C549 H527 0.948 . S
C549 C544 1.364 1_556 S
C549 C548 1.379 . S
C550 C519 1.383 . S
C550 C537 1.479 . S
C550 C551 1.398 . S
C551 C516 1.382 . S
C551 H528 0.951 . S
C551 C550 1.398 . S
C552 C553 1.384 . S
C552 H565 0.947 . S
C552 C587 1.382 . S
C553 C552 1.384 . S
C553 C554 1.378 . S
C554 C553 1.378 . S
C554 C555 1.378 . S
C554 H566 0.952 . S
C555 C554 1.378 . S
C555 H567 0.950 . S
C555 C586 1.383 . S
H556 C575 0.947 . S
H557 C576 0.946 . S
H558 C578 0.953 . S
H559 C579 0.945 . S
H560 C581 0.952 . S
H561 C582 0.949 . S
H562 C584 0.950 . S
H563 C585 0.948 . S
H564 C587 0.951 . S
H565 C552 0.947 . S
H566 C554 0.952 . S
H567 C555 0.950 . S
N568 C571 1.382 . S
N568 C573 1.363 . S
N569 C571 1.371 . S
N569 C572 1.372 . S
N570 C572 1.361 . S
N570 C573 1.377 . S
C571 N568 1.382 . S
C571 N569 1.371 . S
C571 C574 1.480 . S
C572 N569 1.372 . S
C572 N570 1.361 . S
C572 C580 1.457 . S
C573 N568 1.363 . S
C573 N570 1.377 . S
C573 C586 1.479 . S
C574 C571 1.480 . S
C574 C575 1.383 . S
C574 C579 1.385 . S
C575 H556 0.947 . S
C575 C574 1.383 . S
C575 C576 1.388 . S
C576 H557 0.946 . S
C576 C575 1.388 . S
C576 C577 1.384 . S
C577 C576 1.384 . S
C577 C578 1.377 . S
C578 H558 0.953 . S
C578 C577 1.377 . S
C578 C579 1.369 . S
C579 H559 0.945 . S
C579 C574 1.385 . S
C579 C578 1.369 . S
C580 C572 1.457 . S
C580 C581 1.372 . S
C580 C585 1.364 . S
C581 H560 0.952 . S
C581 C580 1.372 . S
C581 C582 1.389 . S
C582 H561 0.949 . S
C582 C581 1.389 . S
C582 C583 1.387 . S
C583 C582 1.387 . S
C583 C584 1.372 . S
C584 H562 0.950 . S
C584 C583 1.372 . S
C584 C585 1.379 . S
C585 H563 0.948 . S
C585 C580 1.364 . S
C585 C584 1.379 . S
C586 C555 1.383 . S
C586 C573 1.479 . S
C586 C587 1.398 . S
C587 C552 1.382 . S
C587 H564 0.951 . S
C587 C586 1.398 . S
C588 C589 1.384 . S
C588 H601 0.947 . S
C588 C623 1.382 . S
C589 C588 1.384 . S
C589 C590 1.378 . S
C590 C589 1.378 . S
C590 C591 1.378 . S
C590 H602 0.950 . S
C591 C590 1.378 . S
C591 H603 0.950 . S
C591 C622 1.383 . S
H592 C611 0.947 . S
H593 C612 0.946 1_565 S
H594 C614 0.953 . S
H595 C615 0.945 . S
H596 C617 0.952 . S
H597 C618 0.949 . S
H598 C620 0.950 . S
H599 C621 0.948 . S
H600 C623 0.951 . S
H601 C588 0.947 . S
H602 C590 0.950 . S
H603 C591 0.950 . S
N604 C607 1.416 . S
N604 C609 1.332 1_655 S
N605 C607 1.371 . S
N605 C608 1.372 . S
N606 C608 1.361 1_455 S
N606 C609 1.377 . S
C607 N604 1.416 . S
C607 N605 1.371 . S
C607 C610 1.480 . S
C608 N605 1.372 . S
C608 N606 1.361 1_655 S
C608 C616 1.458 1_655 S
C609 N604 1.332 1_455 S
C609 N606 1.377 . S
C609 C622 1.479 . S
C610 C607 1.480 . S
C610 C611 1.383 . S
C610 C615 1.385 . S
C611 H592 0.947 . S
C611 C610 1.383 . S
C611 C612 1.388 . S
C612 H593 0.946 1_545 S
C612 C611 1.388 . S
C612 C613 1.384 . S
C613 C612 1.384 . S
C613 C614 1.377 . S
C614 H594 0.953 . S
C614 C613 1.377 . S
C614 C615 1.369 . S
C615 H595 0.945 . S
C615 C610 1.385 . S
C615 C614 1.369 . S
C616 C608 1.458 1_455 S
C616 C617 1.341 1_455 S
C616 C621 1.394 . S
C617 H596 0.952 . S
C617 C616 1.341 1_655 S
C617 C618 1.389 . S
C618 H597 0.949 . S
C618 C617 1.389 . S
C618 C619 1.387 1_655 S
C619 C618 1.387 1_455 S
C619 C620 1.372 . S
C620 H598 0.950 . S
C620 C619 1.372 . S
C620 C621 1.379 . S
C621 H599 0.948 . S
C621 C616 1.394 . S
C621 C620 1.379 . S
C622 C591 1.383 . S
C622 C609 1.479 . S
C622 C623 1.398 . S
C623 C588 1.382 . S
C623 H600 0.951 . S
C623 C622 1.398 . S
C624 C625 1.384 . S
C624 H637 0.947 . S
C624 C659 1.382 . S
C625 C624 1.384 . S
C625 C626 1.378 . S
C626 C625 1.378 . S
C626 C627 1.378 . S
C626 H638 0.952 1_565 S
C627 C626 1.378 . S
C627 H639 0.950 . S
C627 C658 1.383 . S
H628 C647 0.947 . S
H629 C648 0.946 . S
H630 C650 0.953 . S
H631 C651 0.945 . S
H632 C653 0.952 . S
H633 C654 0.949 . S
H634 C656 0.950 . S
H635 C657 0.948 . S
H636 C659 0.951 . S
H637 C624 0.947 . S
H638 C626 0.952 1_545 S
H639 C627 0.950 . S
N640 C643 1.382 . S
N640 C645 1.363 . S
N641 C643 1.371 . S
N641 C644 1.372 . S
N642 C644 1.361 . S
N642 C645 1.377 . S
C643 N640 1.382 . S
C643 N641 1.371 . S
C643 C646 1.480 . S
C644 N641 1.372 . S
C644 N642 1.361 . S
C644 C652 1.457 . S
C645 N640 1.363 . S
C645 N642 1.377 . S
C645 C658 1.479 . S
C646 C643 1.480 . S
C646 C647 1.383 . S
C646 C651 1.385 . S
C647 H628 0.947 . S
C647 C646 1.383 . S
C647 C648 1.388 . S
C648 H629 0.946 . S
C648 C647 1.388 . S
C648 C649 1.384 . S
C649 C648 1.384 . S
C649 C650 1.377 . S
C650 H630 0.953 . S
C650 C649 1.377 . S
C650 C651 1.369 . S
C651 H631 0.945 . S
C651 C646 1.385 . S
C651 C650 1.369 . S
C652 C644 1.457 . S
C652 C653 1.372 . S
C652 C657 1.364 . S
C653 H632 0.952 . S
C653 C652 1.372 . S
C653 C654 1.389 . S
C654 H633 0.949 . S
C654 C653 1.389 . S
C654 C655 1.387 . S
C655 C654 1.387 . S
C655 C656 1.372 . S
C656 H634 0.950 . S
C656 C655 1.372 . S
C656 C657 1.379 . S
C657 H635 0.948 . S
C657 C652 1.364 . S
C657 C656 1.379 . S
C658 C627 1.383 . S
C658 C645 1.479 . S
C658 C659 1.398 . S
C659 C624 1.382 . S
C659 H636 0.951 . S
C659 C658 1.398 . S
C660 C661 1.384 . S
C660 H673 0.947 . S
C660 C695 1.382 . S
C661 C660 1.384 . S
C661 C662 1.378 . S
C662 C661 1.378 . S
C662 C663 1.378 . S
C662 H674 0.952 . S
C663 C662 1.378 . S
C663 H675 0.950 . S
C663 C694 1.383 . S
H664 C683 0.947 . S
H665 C684 0.946 . S
H666 C686 0.953 . S
H667 C687 0.945 . S
H668 C689 0.952 . S
H669 C690 0.949 . S
H670 C692 0.950 . S
H671 C693 0.948 . S
H672 C695 0.951 . S
H673 C660 0.947 . S
H674 C662 0.952 . S
H675 C663 0.950 . S
N676 C679 1.382 1_655 S
N676 C681 1.363 . S
N677 C679 1.371 . S
N677 C680 1.372 . S
N678 C680 1.361 1_655 S
N678 C681 1.377 . S
C679 N676 1.382 1_455 S
C679 N677 1.371 . S
C679 C682 1.480 . S
C680 N677 1.372 . S
C680 N678 1.361 1_455 S
C680 C688 1.457 . S
C681 N676 1.363 . S
C681 N678 1.377 . S
C681 C694 1.479 . S
C682 C679 1.480 . S
C682 C683 1.383 . S
C682 C687 1.385 . S
C683 H664 0.947 . S
C683 C682 1.383 . S
C683 C684 1.388 . S
C684 H665 0.946 . S
C684 C683 1.388 . S
C684 C685 1.384 . S
C685 C684 1.384 . S
C685 C686 1.377 . S
C686 H666 0.953 . S
C686 C685 1.377 . S
C686 C687 1.369 . S
C687 H667 0.945 . S
C687 C682 1.385 . S
C687 C686 1.369 . S
C688 C680 1.457 . S
C688 C689 1.372 . S
C688 C693 1.364 1_455 S
C689 H668 0.952 . S
C689 C688 1.372 . S
C689 C690 1.389 . S
C690 H669 0.949 . S
C690 C689 1.389 . S
C690 C691 1.387 . S
C691 C690 1.387 . S
C691 C692 1.372 1_455 S
C692 H670 0.950 . S
C692 C691 1.372 1_655 S
C692 C693 1.379 . S
C693 H671 0.948 . S
C693 C688 1.364 1_655 S
C693 C692 1.379 . S
C694 C663 1.383 . S
C694 C681 1.479 . S
C694 C695 1.398 . S
C695 C660 1.382 . S
C695 H672 0.951 . S
C695 C694 1.398 . S
C696 C697 1.384 . S
C696 H709 0.947 . S
C696 C731 1.382 . S
C697 C696 1.384 . S
C697 C698 1.378 . S
C698 C697 1.378 . S
C698 C699 1.378 . S
C698 H710 0.952 . S
C699 C698 1.378 . S
C699 H711 0.950 . S
C699 C730 1.383 . S
H700 C719 0.947 . S
H701 C720 0.946 . S
H702 C722 0.953 . S
H703 C723 0.945 . S
H704 C725 0.952 . S
H705 C726 0.949 . S
H706 C728 0.950 . S
H707 C729 0.948 . S
H708 C731 0.951 . S
H709 C696 0.947 . S
H710 C698 0.952 . S
H711 C699 0.950 . S
N712 C715 1.382 . S
N712 C717 1.363 . S
N713 C715 1.371 . S
N713 C716 1.372 . S
N714 C716 1.361 . S
N714 C717 1.377 . S
C715 N712 1.382 . S
C715 N713 1.371 . S
C715 C718 1.480 . S
C716 N713 1.372 . S
C716 N714 1.361 . S
C716 C724 1.457 . S
C717 N712 1.363 . S
C717 N714 1.377 . S
C717 C730 1.479 . S
C718 C715 1.480 . S
C718 C719 1.383 . S
C718 C723 1.385 . S
C719 H700 0.947 . S
C719 C718 1.383 . S
C719 C720 1.388 . S
C720 H701 0.946 . S
C720 C719 1.388 . S
C720 C721 1.384 . S
C721 C720 1.384 . S
C721 C722 1.377 . S
C722 H702 0.953 . S
C722 C721 1.377 . S
C722 C723 1.369 . S
C723 H703 0.945 . S
C723 C718 1.385 . S
C723 C722 1.369 . S
C724 C716 1.457 . S
C724 C725 1.372 . S
C724 C729 1.364 . S
C725 H704 0.952 . S
C725 C724 1.372 . S
C725 C726 1.389 . S
C726 H705 0.949 . S
C726 C725 1.389 . S
C726 C727 1.387 . S
C727 C726 1.387 . S
C727 C728 1.372 . S
C728 H706 0.950 . S
C728 C727 1.372 . S
C728 C729 1.379 . S
C729 H707 0.948 . S
C729 C724 1.364 . S
C729 C728 1.379 . S
C730 C699 1.383 . S
C730 C717 1.479 . S
C730 C731 1.398 . S
C731 C696 1.382 . S
C731 H708 0.951 . S
C731 C730 1.398 . S
C732 C733 1.384 . S
C732 H745 0.947 . S
C732 C767 1.382 . S
C733 C732 1.384 . S
C733 C734 1.378 . S
C734 C733 1.378 . S
C734 C735 1.378 . S
C734 H746 0.952 1_554 S
C735 C734 1.378 . S
C735 H747 0.950 . S
C735 C766 1.383 . S
H736 C755 0.947 . S
H737 C756 0.946 . S
H738 C758 0.953 . S
H739 C759 0.945 . S
H740 C761 0.952 . S
H741 C762 0.949 . S
H742 C764 0.950 . S
H743 C765 0.948 . S
H744 C767 0.951 . S
H745 C732 0.947 . S
H746 C734 0.952 1_556 S
H747 C735 0.950 . S
N748 C751 1.382 . S
N748 C753 1.363 . S
N749 C751 1.371 . S
N749 C752 1.372 . S
N750 C752 1.361 . S
N750 C753 1.377 . S
C751 N748 1.382 . S
C751 N749 1.371 . S
C751 C754 1.480 . S
C752 N749 1.372 . S
C752 N750 1.361 . S
C752 C760 1.457 . S
C753 N748 1.363 . S
C753 N750 1.377 . S
C753 C766 1.479 . S
C754 C751 1.480 . S
C754 C755 1.383 . S
C754 C759 1.385 . S
C755 H736 0.947 . S
C755 C754 1.383 . S
C755 C756 1.388 . S
C756 H737 0.946 . S
C756 C755 1.388 . S
C756 C757 1.384 . S
C757 C756 1.384 . S
C757 C758 1.377 . S
C758 H738 0.953 . S
C758 C757 1.377 . S
C758 C759 1.369 . S
C759 H739 0.945 . S
C759 C754 1.385 . S
C759 C758 1.369 . S
C760 C752 1.457 . S
C760 C761 1.372 . S
C760 C765 1.364 . S
C761 H740 0.952 . S
C761 C760 1.372 . S
C761 C762 1.389 . S
C762 H741 0.949 . S
C762 C761 1.389 . S
C762 C763 1.387 . S
C763 C762 1.387 . S
C763 C764 1.372 . S
C764 H742 0.950 . S
C764 C763 1.372 . S
C764 C765 1.379 . S
C765 H743 0.948 . S
C765 C760 1.364 . S
C765 C764 1.379 . S
C766 C735 1.383 . S
C766 C753 1.479 . S
C766 C767 1.398 . S
C767 C732 1.382 . S
C767 H744 0.951 . S
C767 C766 1.398 . S
C768 C769 1.384 . S
C768 H781 0.947 . S
C768 C803 1.382 . S
C769 C768 1.384 . S
C769 C770 1.378 . S
C770 C769 1.378 . S
C770 C771 1.378 . S
C770 H782 0.952 . S
C771 C770 1.378 . S
C771 H783 0.950 . S
C771 C802 1.383 . S
H772 C791 0.947 . S
H773 C792 0.946 . S
H774 C794 0.953 . S
H775 C795 0.945 . S
H776 C797 0.952 . S
H777 C798 0.949 . S
H778 C800 0.950 . S
H779 C801 0.948 . S
H780 C803 0.951 . S
H781 C768 0.947 . S
H782 C770 0.952 . S
H783 C771 0.950 . S
N784 C787 1.382 1_545 S
N784 C789 1.363 . S
N785 C787 1.371 . S
N785 C788 1.372 . S
N786 C788 1.361 1_545 S
N786 C789 1.377 . S
C787 N784 1.382 1_565 S
C787 N785 1.371 . S
C787 C790 1.480 . S
C788 N785 1.372 . S
C788 N786 1.361 1_565 S
C788 C796 1.457 . S
C789 N784 1.363 . S
C789 N786 1.377 . S
C789 C802 1.479 . S
C790 C787 1.480 . S
C790 C791 1.383 . S
C790 C795 1.385 . S
C791 H772 0.947 . S
C791 C790 1.383 . S
C791 C792 1.388 . S
C792 H773 0.946 . S
C792 C791 1.388 . S
C792 C793 1.384 . S
C793 C792 1.384 . S
C793 C794 1.377 . S
C794 H774 0.953 . S
C794 C793 1.377 . S
C794 C795 1.369 . S
C795 H775 0.945 . S
C795 C790 1.385 . S
C795 C794 1.369 . S
C796 C788 1.457 . S
C796 C797 1.372 . S
C796 C801 1.364 1_565 S
C797 H776 0.952 . S
C797 C796 1.372 . S
C797 C798 1.389 . S
C798 H777 0.949 . S
C798 C797 1.389 . S
C798 C799 1.387 . S
C799 C798 1.387 . S
C799 C800 1.372 1_565 S
C800 H778 0.950 . S
C800 C799 1.372 1_545 S
C800 C801 1.379 . S
C801 H779 0.948 . S
C801 C796 1.364 1_545 S
C801 C800 1.379 . S
C802 C771 1.383 . S
C802 C789 1.479 . S
C802 C803 1.398 . S
C803 C768 1.382 . S
C803 H780 0.951 . S
C803 C802 1.398 . S
C804 C805 1.384 . S
C804 H817 0.947 . S
C804 C839 1.382 . S
C805 C804 1.384 . S
C805 C806 1.378 . S
C806 C805 1.378 . S
C806 C807 1.378 . S
C806 H818 0.943 1_556 S
C807 C806 1.378 . S
C807 H819 0.950 . S
C807 C838 1.383 . S
H808 C827 0.947 . S
H809 C828 0.946 1_554 S
H810 C830 0.953 . S
H811 C831 0.945 . S
H812 C833 0.952 . S
H813 C834 0.949 . S
H814 C836 0.950 . S
H815 C837 0.948 . S
H816 C839 0.951 . S
H817 C804 0.947 . S
H818 C806 0.943 1_554 S
H819 C807 0.950 . S
N820 C823 1.383 . S
N820 C825 1.362 1_545 S
N821 C823 1.371 . S
N821 C824 1.376 . S
N822 C824 1.356 1_565 S
N822 C825 1.377 . S
C823 N820 1.383 . S
C823 N821 1.371 . S
C823 C826 1.480 . S
C824 N821 1.376 . S
C824 N822 1.356 1_545 S
C824 C832 1.457 1_545 S
C825 N820 1.362 1_565 S
C825 N822 1.377 . S
C825 C838 1.479 . S
C826 C823 1.480 . S
C826 C827 1.383 . S
C826 C831 1.385 . S
C827 H808 0.947 . S
C827 C826 1.383 . S
C827 C828 1.388 . S
C828 H809 0.946 1_556 S
C828 C827 1.388 . S
C828 C829 1.384 . S
C829 C828 1.384 . S
C829 C830 1.377 . S
C830 H810 0.953 . S
C830 C829 1.377 . S
C830 C831 1.369 . S
C831 H811 0.945 . S
C831 C826 1.385 . S
C831 C830 1.369 . S
C832 C824 1.457 1_565 S
C832 C833 1.372 1_565 S
C832 C837 1.364 . S
C833 H812 0.952 . S
C833 C832 1.372 1_545 S
C833 C834 1.389 . S
C834 H813 0.949 . S
C834 C833 1.389 . S
C834 C835 1.387 1_545 S
C835 C834 1.387 1_565 S
C835 C836 1.372 . S
C836 H814 0.950 . S
C836 C835 1.372 . S
C836 C837 1.379 . S
C837 H815 0.948 . S
C837 C832 1.364 . S
C837 C836 1.379 . S
C838 C807 1.383 . S
C838 C825 1.479 . S
C838 C839 1.398 . S
C839 C804 1.382 . S
C839 H816 0.951 . S
C839 C838 1.398 . S
C840 C841 1.384 . S
C840 H853 0.947 . S
C840 C875 1.382 . S
C841 C840 1.384 . S
C841 C842 1.378 . S
C842 C841 1.378 . S
C842 C843 1.378 . S
C842 H854 0.952 . S
C843 C842 1.378 . S
C843 H855 0.950 . S
C843 C874 1.383 . S
H844 C863 0.947 . S
H845 C864 0.946 . S
H846 C866 0.953 . S
H847 C867 0.945 . S
H848 C869 0.952 . S
H849 C870 0.949 . S
H850 C872 0.950 . S
H851 C873 0.948 . S
H852 C875 0.951 . S
H853 C840 0.947 . S
H854 C842 0.952 . S
H855 C843 0.950 . S
N856 C859 1.382 . S
N856 C861 1.363 . S
N857 C859 1.371 . S
N857 C860 1.372 . S
N858 C860 1.361 . S
N858 C861 1.377 . S
C859 N856 1.382 . S
C859 N857 1.371 . S
C859 C862 1.480 . S
C860 N857 1.372 . S
C860 N858 1.361 . S
C860 C868 1.457 . S
C861 N856 1.363 . S
C861 N858 1.377 . S
C861 C874 1.479 . S
C862 C859 1.480 . S
C862 C863 1.383 . S
C862 C867 1.385 . S
C863 H844 0.947 . S
C863 C862 1.383 . S
C863 C864 1.388 . S
C864 H845 0.946 . S
C864 C863 1.388 . S
C864 C865 1.384 . S
C865 C864 1.384 . S
C865 C866 1.377 . S
C866 H846 0.953 . S
C866 C865 1.377 . S
C866 C867 1.369 . S
C867 H847 0.945 . S
C867 C862 1.385 . S
C867 C866 1.369 . S
C868 C860 1.457 . S
C868 C869 1.372 . S
C868 C873 1.364 . S
C869 H848 0.952 . S
C869 C868 1.372 . S
C869 C870 1.389 . S
C870 H849 0.949 . S
C870 C869 1.389 . S
C870 C871 1.387 . S
C871 C870 1.387 . S
C871 C872 1.372 . S
C872 H850 0.950 . S
C872 C871 1.372 . S
C872 C873 1.379 . S
C873 H851 0.948 . S
C873 C868 1.364 . S
C873 C872 1.379 . S
C874 C843 1.383 . S
C874 C861 1.479 . S
C874 C875 1.398 . S
C875 C840 1.382 . S
C875 H852 0.951 . S
C875 C874 1.398 . S
C876 C877 1.384 . S
C876 H889 0.947 . S
C876 C911 1.382 . S
C877 C876 1.384 . S
C877 C878 1.378 . S
C878 C877 1.378 . S
C878 C879 1.378 . S
C878 H890 0.948 1_655 S
C879 C878 1.378 . S
C879 H891 0.950 . S
C879 C910 1.383 . S
H880 C899 0.947 . S
H881 C900 0.946 1_455 S
H882 C902 0.953 . S
H883 C903 0.945 . S
H884 C905 0.952 . S
H885 C906 0.949 . S
H886 C908 0.950 . S
H887 C909 0.948 . S
H888 C911 0.951 . S
H889 C876 0.947 . S
H890 C878 0.948 1_455 S
H891 C879 0.950 . S
N892 C895 1.384 . S
N892 C897 1.362 1_554 S
N893 C895 1.371 . S
N893 C896 1.377 . S
N894 C896 1.355 1_556 S
N894 C897 1.377 . S
C895 N892 1.384 . S
C895 N893 1.371 . S
C895 C898 1.480 . S
C896 N893 1.377 . S
C896 N894 1.355 1_554 S
C896 C904 1.457 1_554 S
C897 N892 1.362 1_556 S
C897 N894 1.377 . S
C897 C910 1.479 . S
C898 C895 1.480 . S
C898 C899 1.383 . S
C898 C903 1.385 . S
C899 H880 0.947 . S
C899 C898 1.383 . S
C899 C900 1.388 . S
C900 H881 0.946 1_655 S
C900 C899 1.388 . S
C900 C901 1.384 . S
C901 C900 1.384 . S
C901 C902 1.377 . S
C902 H882 0.953 . S
C902 C901 1.377 . S
C902 C903 1.369 . S
C903 H883 0.945 . S
C903 C898 1.385 . S
C903 C902 1.369 . S
C904 C896 1.457 1_556 S
C904 C905 1.372 1_556 S
C904 C909 1.364 . S
C905 H884 0.952 . S
C905 C904 1.372 1_554 S
C905 C906 1.389 . S
C906 H885 0.949 . S
C906 C905 1.389 . S
C906 C907 1.387 1_554 S
C907 C906 1.387 1_556 S
C907 C908 1.372 . S
C908 H886 0.950 . S
C908 C907 1.372 . S
C908 C909 1.379 . S
C909 H887 0.948 . S
C909 C904 1.364 . S
C909 C908 1.379 . S
C910 C879 1.383 . S
C910 C897 1.479 . S
C910 C911 1.398 . S
C911 C876 1.382 . S
C911 H888 0.951 . S
C911 C910 1.398 . S
C912 C913 1.384 . S
C912 H925 0.947 . S
C912 C947 1.382 . S
C913 C912 1.384 . S
C913 C914 1.378 . S
C914 C913 1.378 . S
C914 C915 1.378 . S
C914 H926 0.952 1_455 S
C915 C914 1.378 . S
C915 H927 0.950 . S
C915 C946 1.383 . S
H916 C935 0.947 . S
H917 C936 0.946 . S
H918 C938 0.953 . S
H919 C939 0.945 . S
H920 C941 0.952 . S
H921 C942 0.949 . S
H922 C944 0.950 . S
H923 C945 0.948 . S
H924 C947 0.951 . S
H925 C912 0.947 . S
H926 C914 0.952 1_655 S
H927 C915 0.950 . S
N928 C931 1.382 . S
N928 C933 1.363 . S
N929 C931 1.371 . S
N929 C932 1.372 . S
N930 C932 1.361 . S
N930 C933 1.377 . S
C931 N928 1.382 . S
C931 N929 1.371 . S
C931 C934 1.480 . S
C932 N929 1.372 . S
C932 N930 1.361 . S
C932 C940 1.457 . S
C933 N928 1.363 . S
C933 N930 1.377 . S
C933 C946 1.479 . S
C934 C931 1.480 . S
C934 C935 1.383 . S
C934 C939 1.385 . S
C935 H916 0.947 . S
C935 C934 1.383 . S
C935 C936 1.388 . S
C936 H917 0.946 . S
C936 C935 1.388 . S
C936 C937 1.384 . S
C937 C936 1.384 . S
C937 C938 1.377 . S
C938 H918 0.953 . S
C938 C937 1.377 . S
C938 C939 1.369 . S
C939 H919 0.945 . S
C939 C934 1.385 . S
C939 C938 1.369 . S
C940 C932 1.457 . S
C940 C941 1.372 . S
C940 C945 1.364 . S
C941 H920 0.952 . S
C941 C940 1.372 . S
C941 C942 1.389 . S
C942 H921 0.949 . S
C942 C941 1.389 . S
C942 C943 1.387 . S
C943 C942 1.387 . S
C943 C944 1.372 . S
C944 H922 0.950 . S
C944 C943 1.372 . S
C944 C945 1.379 . S
C945 H923 0.948 . S
C945 C940 1.364 . S
C945 C944 1.379 . S
C946 C915 1.383 . S
C946 C933 1.479 . S
C946 C947 1.398 . S
C947 C912 1.382 . S
C947 H924 0.951 . S
C947 C946 1.398 . S
C948 C949 1.384 . S
C948 H961 0.947 . S
C948 C983 1.382 . S
C949 C948 1.384 . S
C949 C950 1.378 . S
C950 C949 1.378 . S
C950 C951 1.378 . S
C950 H962 0.952 . S
C951 C950 1.378 . S
C951 H963 0.950 . S
C951 C982 1.383 . S
H952 C971 0.947 . S
H953 C972 0.946 . S
H954 C974 0.953 . S
H955 C975 0.945 . S
H956 C977 0.952 . S
H957 C978 0.949 . S
H958 C980 0.950 . S
H959 C981 0.948 . S
H960 C983 0.951 . S
H961 C948 0.947 . S
H962 C950 0.952 . S
H963 C951 0.950 . S
N964 C967 1.382 1_554 S
N964 C969 1.363 . S
N965 C967 1.371 . S
N965 C968 1.372 . S
N966 C968 1.361 1_554 S
N966 C969 1.377 . S
C967 N964 1.382 1_556 S
C967 N965 1.371 . S
C967 C970 1.480 . S
C968 N965 1.372 . S
C968 N966 1.361 1_556 S
C968 C976 1.457 . S
C969 N964 1.363 . S
C969 N966 1.377 . S
C969 C982 1.479 . S
C970 C967 1.480 . S
C970 C971 1.383 . S
C970 C975 1.385 . S
C971 H952 0.947 . S
C971 C970 1.383 . S
C971 C972 1.388 . S
C972 H953 0.946 . S
C972 C971 1.388 . S
C972 C973 1.384 . S
C973 C972 1.384 . S
C973 C974 1.377 . S
C974 H954 0.953 . S
C974 C973 1.377 . S
C974 C975 1.369 . S
C975 H955 0.945 . S
C975 C970 1.385 . S
C975 C974 1.369 . S
C976 C968 1.457 . S
C976 C977 1.372 . S
C976 C981 1.364 1_556 S
C977 H956 0.952 . S
C977 C976 1.372 . S
C977 C978 1.389 . S
C978 H957 0.949 . S
C978 C977 1.389 . S
C978 C979 1.387 . S
C979 C978 1.387 . S
C979 C980 1.372 1_556 S
C980 H958 0.950 . S
C980 C979 1.372 1_554 S
C980 C981 1.379 . S
C981 H959 0.948 . S
C981 C976 1.364 1_554 S
C981 C980 1.379 . S
C982 C951 1.383 . S
C982 C969 1.479 . S
C982 C983 1.398 . S
C983 C948 1.382 . S
C983 H960 0.951 . S
C983 C982 1.398 . S
C984 C985 1.384 . S
C984 H997 0.947 . S
C984 C1019 1.382 . S
C985 C984 1.384 . S
C985 C986 1.378 . S
C986 C985 1.378 . S
C986 C987 1.378 . S
C986 H998 0.952 . S
C987 C986 1.378 . S
C987 H999 0.950 . S
C987 C1018 1.383 . S
H988 C1007 0.947 . S
H989 C1008 0.946 . S
H990 C1010 0.953 . S
H991 C1011 0.945 . S
H992 C1013 0.952 . S
H993 C1014 0.949 . S
H994 C1016 0.950 . S
H995 C1017 0.948 . S
H996 C1019 0.951 . S
H997 C984 0.947 . S
H998 C986 0.952 . S
H999 C987 0.950 . S
N1000 C1003 1.382 . S
N1000 C1005 1.363 . S
N1001 C1003 1.371 . S
N1001 C1004 1.372 . S
N1002 C1004 1.361 . S
N1002 C1005 1.377 . S
C1003 N1000 1.382 . S
C1003 N1001 1.371 . S
C1003 C1006 1.480 . S
C1004 N1001 1.372 . S
C1004 N1002 1.361 . S
C1004 C1012 1.457 . S
C1005 N1000 1.363 . S
C1005 N1002 1.377 . S
C1005 C1018 1.479 . S
C1006 C1003 1.480 . S
C1006 C1007 1.383 . S
C1006 C1011 1.385 . S
C1007 H988 0.947 . S
C1007 C1006 1.383 . S
C1007 C1008 1.388 . S
C1008 H989 0.946 . S
C1008 C1007 1.388 . S
C1008 C1009 1.384 . S
C1009 C1008 1.384 . S
C1009 C1010 1.377 . S
C1010 H990 0.953 . S
C1010 C1009 1.377 . S
C1010 C1011 1.369 . S
C1011 H991 0.945 . S
C1011 C1006 1.385 . S
C1011 C1010 1.369 . S
C1012 C1004 1.457 . S
C1012 C1013 1.372 . S
C1012 C1017 1.364 . S
C1013 H992 0.952 . S
C1013 C1012 1.372 . S
C1013 C1014 1.389 . S
C1014 H993 0.949 . S
C1014 C1013 1.389 . S
C1014 C1015 1.387 . S
C1015 C1014 1.387 . S
C1015 C1016 1.372 . S
C1016 H994 0.950 . S
C1016 C1015 1.372 . S
C1016 C1017 1.379 . S
C1017 H995 0.948 . S
C1017 C1012 1.364 . S
C1017 C1016 1.379 . S
C1018 C987 1.383 . S
C1018 C1005 1.479 . S
C1018 C1019 1.398 . S
C1019 C984 1.382 . S
C1019 H996 0.951 . S
C1019 C1018 1.398 . S
C1020 C1021 1.384 . S
C1020 H1033 0.947 . S
C1020 C1055 1.382 . S
C1021 C1020 1.384 . S
C1021 C1022 1.378 . S
C1022 C1021 1.378 . S
C1022 C1023 1.378 . S
C1022 H1034 0.942 1_565 S
C1023 C1022 1.378 . S
C1023 H1035 0.950 . S
C1023 C1054 1.383 . S
H1024 C1043 0.947 . S
H1025 C1044 0.946 1_545 S
H1026 C1046 0.953 . S
H1027 C1047 0.945 . S
H1028 C1049 0.952 . S
H1029 C1050 0.949 . S
H1030 C1052 0.950 . S
H1031 C1053 0.948 . S
H1032 C1055 0.951 . S
H1033 C1020 0.947 . S
H1034 C1022 0.942 1_545 S
H1035 C1023 0.950 . S
N1036 C1039 1.384 . S
N1036 C1041 1.362 1_455 S
N1037 C1039 1.371 . S
N1037 C1040 1.376 . S
N1038 C1040 1.356 1_655 S
N1038 C1041 1.377 . S
C1039 N1036 1.384 . S
C1039 N1037 1.371 . S
C1039 C1042 1.480 . S
C1040 N1037 1.376 . S
C1040 N1038 1.356 1_455 S
C1040 C1048 1.457 1_455 S
C1041 N1036 1.362 1_655 S
C1041 N1038 1.377 . S
C1041 C1054 1.479 . S
C1042 C1039 1.480 . S
C1042 C1043 1.383 . S
C1042 C1047 1.385 . S
C1043 H1024 0.947 . S
C1043 C1042 1.383 . S
C1043 C1044 1.388 . S
C1044 H1025 0.946 1_565 S
C1044 C1043 1.388 . S
C1044 C1045 1.384 . S
C1045 C1044 1.384 . S
C1045 C1046 1.377 . S
C1046 H1026 0.953 . S
C1046 C1045 1.377 . S
C1046 C1047 1.369 . S
C1047 H1027 0.945 . S
C1047 C1042 1.385 . S
C1047 C1046 1.369 . S
C1048 C1040 1.457 1_655 S
C1048 C1049 1.372 1_655 S
C1048 C1053 1.364 . S
C1049 H1028 0.952 . S
C1049 C1048 1.372 1_455 S
C1049 C1050 1.389 . S
C1050 H1029 0.949 . S
C1050 C1049 1.389 . S
C1050 C1051 1.387 1_455 S
C1051 C1050 1.387 1_655 S
C1051 C1052 1.372 . S
C1052 H1030 0.950 . S
C1052 C1051 1.372 . S
C1052 C1053 1.379 . S
C1053 H1031 0.948 . S
C1053 C1048 1.364 . S
C1053 C1052 1.379 . S
C1054 C1023 1.383 . S
C1054 C1041 1.479 . S
C1054 C1055 1.398 . S
C1055 C1020 1.382 . S
C1055 H1032 0.951 . S
C1055 C1054 1.398 . S
C1056 C1057 1.384 . S
C1056 H1069 0.947 . S
C1056 C1091 1.382 . S
C1057 C1056 1.384 . S
C1057 C1058 1.378 . S
C1058 C1057 1.378 . S
C1058 C1059 1.378 . S
C1058 H1070 0.952 . S
C1059 C1058 1.378 . S
C1059 H1071 0.950 . S
C1059 C1090 1.383 . S
H1060 C1079 0.947 . S
H1061 C1080 0.946 1_565 S
H1062 C1082 0.953 . S
H1063 C1083 0.945 . S
H1064 C1085 0.952 . S
H1065 C1086 0.949 . S
H1066 C1088 0.950 . S
H1067 C1089 0.948 . S
H1068 C1091 0.951 . S
H1069 C1056 0.947 . S
H1070 C1058 0.952 . S
H1071 C1059 0.950 . S
N1072 C1075 1.382 . S
N1072 C1077 1.363 . S
N1073 C1075 1.371 . S
N1073 C1076 1.372 . S
N1074 C1076 1.361 . S
N1074 C1077 1.377 . S
C1075 N1072 1.382 . S
C1075 N1073 1.371 . S
C1075 C1078 1.480 . S
C1076 N1073 1.372 . S
C1076 N1074 1.361 . S
C1076 C1084 1.457 . S
C1077 N1072 1.363 . S
C1077 N1074 1.377 . S
C1077 C1090 1.479 . S
C1078 C1075 1.480 . S
C1078 C1079 1.383 . S
C1078 C1083 1.385 . S
C1079 H1060 0.947 . S
C1079 C1078 1.383 . S
C1079 C1080 1.388 . S
C1080 H1061 0.946 1_545 S
C1080 C1079 1.388 . S
C1080 C1081 1.384 . S
C1081 C1080 1.384 . S
C1081 C1082 1.377 . S
C1082 H1062 0.953 . S
C1082 C1081 1.377 . S
C1082 C1083 1.369 . S
C1083 H1063 0.945 . S
C1083 C1078 1.385 . S
C1083 C1082 1.369 . S
C1084 C1076 1.457 . S
C1084 C1085 1.372 . S
C1084 C1089 1.364 . S
C1085 H1064 0.952 . S
C1085 C1084 1.372 . S
C1085 C1086 1.389 . S
C1086 H1065 0.949 . S
C1086 C1085 1.389 . S
C1086 C1087 1.387 . S
C1087 C1086 1.387 . S
C1087 C1088 1.372 . S
C1088 H1066 0.950 . S
C1088 C1087 1.372 . S
C1088 C1089 1.379 . S
C1089 H1067 0.948 . S
C1089 C1084 1.364 . S
C1089 C1088 1.379 . S
C1090 C1059 1.383 . S
C1090 C1077 1.479 . S
C1090 C1091 1.398 . S
C1091 C1056 1.382 . S
C1091 H1068 0.951 . S
C1091 C1090 1.398 . S
C1092 C1093 1.384 . S
C1092 H1105 0.947 . S
C1092 C1127 1.382 . S
C1093 C1092 1.384 . S
C1093 C1094 1.378 . S
C1094 C1093 1.378 . S
C1094 C1095 1.378 . S
C1094 H1106 0.952 . S
C1095 C1094 1.378 . S
C1095 H1107 0.950 . S
C1095 C1126 1.383 . S
H1096 C1115 0.947 . S
H1097 C1116 0.946 . S
H1098 C1118 0.953 . S
H1099 C1119 0.945 . S
H1100 C1121 0.952 . S
H1101 C1122 0.949 . S
H1102 C1124 0.950 . S
H1103 C1125 0.948 . S
H1104 C1127 0.951 . S
H1105 C1092 0.947 . S
H1106 C1094 0.952 . S
H1107 C1095 0.950 . S
N1108 C1111 1.382 . S
N1108 C1113 1.363 1_455 S
N1109 C1111 1.371 . S
N1109 C1112 1.372 1_455 S
N1110 C1112 1.361 . S
N1110 C1113 1.377 . S
C1111 N1108 1.382 . S
C1111 N1109 1.371 . S
C1111 C1114 1.480 . S
C1112 N1109 1.372 1_655 S
C1112 N1110 1.361 . S
C1112 C1120 1.457 . S
C1113 N1108 1.363 1_655 S
C1113 N1110 1.377 . S
C1113 C1126 1.479 . S
C1114 C1111 1.480 . S
C1114 C1115 1.383 . S
C1114 C1119 1.385 . S
C1115 H1096 0.947 . S
C1115 C1114 1.383 . S
C1115 C1116 1.388 . S
C1116 H1097 0.946 . S
C1116 C1115 1.388 . S
C1116 C1117 1.384 . S
C1117 C1116 1.384 . S
C1117 C1118 1.377 . S
C1118 H1098 0.953 . S
C1118 C1117 1.377 . S
C1118 C1119 1.369 . S
C1119 H1099 0.945 . S
C1119 C1114 1.385 . S
C1119 C1118 1.369 . S
C1120 C1112 1.457 . S
C1120 C1121 1.372 1_655 S
C1120 C1125 1.364 . S
C1121 H1100 0.952 . S
C1121 C1120 1.372 1_455 S
C1121 C1122 1.389 . S
C1122 H1101 0.949 . S
C1122 C1121 1.389 . S
C1122 C1123 1.387 1_455 S
C1123 C1122 1.387 1_655 S
C1123 C1124 1.372 . S
C1124 H1102 0.950 . S
C1124 C1123 1.372 . S
C1124 C1125 1.379 . S
C1125 H1103 0.948 . S
C1125 C1120 1.364 . S
C1125 C1124 1.379 . S
C1126 C1095 1.383 . S
C1126 C1113 1.479 . S
C1126 C1127 1.398 . S
C1127 C1092 1.382 . S
C1127 H1104 0.951 . S
C1127 C1126 1.398 . S
C1128 C1129 1.363 . S
C1128 C1134 1.379 . S
C1128 N1136 1.356 . S
C1129 C1128 1.363 . S
C1129 C1135 1.363 . S
C1130 C1131 1.363 . S
C1130 C1135 1.379 . S
C1130 N1137 1.356 . S
C1131 C1130 1.363 . S
C1131 C1134 1.363 . S
N1132 C1134 1.356 . S
N1132 H1144 0.984 . S
N1132 H1145 0.985 . S
N1133 C1135 1.356 . S
N1133 H1138 0.984 . S
N1133 H1139 0.985 . S
C1134 C1128 1.379 . S
C1134 C1131 1.363 . S
C1134 N1132 1.356 . S
C1135 C1129 1.363 . S
C1135 C1130 1.379 . S
C1135 N1133 1.356 . S
N1136 C1128 1.356 . S
N1136 H1142 0.984 . S
N1136 H1143 0.984 . S
N1137 C1130 1.356 . S
N1137 H1140 0.984 . S
N1137 H1141 0.985 . S
H1138 N1133 0.984 . S
H1139 N1133 0.985 . S
H1140 N1137 0.984 . S
H1141 N1137 0.985 . S
H1142 N1136 0.984 . S
H1143 N1136 0.984 . S
H1144 N1132 0.984 . S
H1145 N1132 0.985 . S
C1146 C1147 1.363 . S
C1146 C1152 1.379 . S
C1146 N1154 1.356 . S
C1147 C1146 1.363 . S
C1147 C1153 1.363 . S
C1148 C1149 1.363 . S
C1148 C1153 1.379 . S
C1148 N1155 1.356 . S
C1149 C1148 1.363 . S
C1149 C1152 1.363 . S
N1150 C1152 1.356 . S
N1150 H1162 0.984 . S
N1150 H1163 0.985 . S
N1151 C1153 1.356 . S
N1151 H1156 0.984 . S
N1151 H1157 0.985 . S
C1152 C1146 1.379 . S
C1152 C1149 1.363 . S
C1152 N1150 1.356 . S
C1153 C1147 1.363 . S
C1153 C1148 1.379 . S
C1153 N1151 1.356 . S
N1154 C1146 1.356 . S
N1154 H1160 0.984 . S
N1154 H1161 0.984 . S
N1155 C1148 1.356 . S
N1155 H1158 0.984 . S
N1155 H1159 0.985 . S
H1156 N1151 0.984 . S
H1157 N1151 0.985 . S
H1158 N1155 0.984 . S
H1159 N1155 0.985 . S
H1160 N1154 0.984 . S
H1161 N1154 0.984 . S
H1162 N1150 0.984 . S
H1163 N1150 0.985 . S
C1164 C1165 1.363 . S
C1164 C1170 1.379 . S
C1164 N1172 1.356 . S
C1165 C1164 1.363 . S
C1165 C1171 1.363 1_545 S
C1166 C1167 1.363 1_565 S
C1166 C1171 1.379 . S
C1166 N1173 1.356 . S
C1167 C1166 1.363 1_545 S
C1167 C1170 1.363 . S
N1168 C1170 1.356 . S
N1168 H1180 0.984 . S
N1168 H1181 0.985 . S
N1169 C1171 1.356 . S
N1169 H1174 0.984 . S
N1169 H1175 0.985 . S
C1170 C1164 1.379 . S
C1170 C1167 1.363 . S
C1170 N1168 1.356 . S
C1171 C1165 1.363 1_565 S
C1171 C1166 1.379 . S
C1171 N1169 1.356 . S
N1172 C1164 1.356 . S
N1172 H1178 0.984 . S
N1172 H1179 0.984 . S
N1173 C1166 1.356 . S
N1173 H1176 0.984 . S
N1173 H1177 0.985 . S
H1174 N1169 0.984 . S
H1175 N1169 0.985 . S
H1176 N1173 0.984 . S
H1177 N1173 0.985 . S
H1178 N1172 0.984 . S
H1179 N1172 0.984 . S
H1180 N1168 0.984 . S
H1181 N1168 0.985 . S
C1182 C1183 1.363 . S
C1182 C1188 1.379 . S
C1182 N1190 1.356 . S
C1183 C1182 1.363 . S
C1183 C1189 1.363 . S
C1184 C1185 1.363 . S
C1184 C1189 1.379 . S
C1184 N1191 1.355 1_565 S
C1185 C1184 1.363 . S
C1185 C1188 1.363 . S
N1186 C1188 1.356 . S
N1186 H1198 0.984 . S
N1186 H1199 0.985 . S
N1187 C1189 1.356 1_545 S
N1187 H1192 0.984 . S
N1187 H1193 0.985 . S
C1188 C1182 1.379 . S
C1188 C1185 1.363 . S
C1188 N1186 1.356 . S
C1189 C1183 1.363 . S
C1189 C1184 1.379 . S
C1189 N1187 1.356 1_565 S
N1190 C1182 1.356 . S
N1190 H1196 0.984 . S
N1190 H1197 0.984 . S
N1191 C1184 1.355 1_545 S
N1191 H1194 0.983 1_545 S
N1191 H1195 0.987 . S
H1192 N1187 0.984 . S
H1193 N1187 0.985 . S
H1194 N1191 0.983 1_565 S
H1195 N1191 0.987 . S
H1196 N1190 0.984 . S
H1197 N1190 0.984 . S
H1198 N1186 0.984 . S
H1199 N1186 0.985 . S
C1200 C1201 1.363 . S
C1200 C1206 1.379 . S
C1200 N1208 1.356 . S
C1201 C1200 1.363 . S
C1201 C1207 1.363 . S
C1202 C1203 1.363 . S
C1202 C1207 1.379 . S
C1202 N1209 1.356 . S
C1203 C1202 1.363 . S
C1203 C1206 1.363 . S
N1204 C1206 1.356 . S
N1204 H1216 0.984 . S
N1204 H1217 0.985 . S
N1205 C1207 1.356 . S
N1205 H1210 0.984 . S
N1205 H1211 0.985 . S
C1206 C1200 1.379 . S
C1206 C1203 1.363 . S
C1206 N1204 1.356 . S
C1207 C1201 1.363 . S
C1207 C1202 1.379 . S
C1207 N1205 1.356 . S
N1208 C1200 1.356 . S
N1208 H1214 0.984 . S
N1208 H1215 0.984 . S
N1209 C1202 1.356 . S
N1209 H1212 0.984 . S
N1209 H1213 0.985 . S
H1210 N1205 0.984 . S
H1211 N1205 0.985 . S
H1212 N1209 0.984 . S
H1213 N1209 0.985 . S
H1214 N1208 0.984 . S
H1215 N1208 0.984 . S
H1216 N1204 0.984 . S
H1217 N1204 0.985 . S
C1218 C1219 1.363 . S
C1218 C1224 1.379 . S
C1218 N1226 1.356 . S
C1219 C1218 1.363 . S
C1219 C1225 1.363 1_556 S
C1220 C1221 1.363 . S
C1220 C1225 1.379 1_556 S
C1220 N1227 1.356 1_556 S
C1221 C1220 1.363 . S
C1221 C1224 1.363 . S
N1222 C1224 1.356 . S
N1222 H1234 0.984 . S
N1222 H1235 0.985 . S
N1223 C1225 1.356 . S
N1223 H1228 0.984 . S
N1223 H1229 0.985 . S
C1224 C1218 1.379 . S
C1224 C1221 1.363 . S
C1224 N1222 1.356 . S
C1225 C1219 1.363 1_554 S
C1225 C1220 1.379 1_554 S
C1225 N1223 1.356 . S
N1226 C1218 1.356 . S
N1226 H1232 0.984 . S
N1226 H1233 0.984 . S
N1227 C1220 1.356 1_554 S
N1227 H1230 0.971 1_554 S
N1227 H1231 0.985 . S
H1228 N1223 0.984 . S
H1229 N1223 0.985 . S
H1230 N1227 0.971 1_556 S
H1231 N1227 0.985 . S
H1232 N1226 0.984 . S
H1233 N1226 0.984 . S
H1234 N1222 0.984 . S
H1235 N1222 0.985 . S
C1236 C1237 1.363 . S
C1236 C1242 1.379 . S
C1236 N1244 1.356 . S
C1237 C1236 1.363 . S
C1237 C1243 1.363 . S
C1238 C1239 1.363 . S
C1238 C1243 1.379 . S
C1238 N1245 1.356 . S
C1239 C1238 1.363 . S
C1239 C1242 1.363 . S
N1240 C1242 1.356 . S
N1240 H1252 0.984 . S
N1240 H1253 0.985 . S
N1241 C1243 1.356 . S
N1241 H1246 0.984 . S
N1241 H1247 0.985 . S
C1242 C1236 1.379 . S
C1242 C1239 1.363 . S
C1242 N1240 1.356 . S
C1243 C1237 1.363 . S
C1243 C1238 1.379 . S
C1243 N1241 1.356 . S
N1244 C1236 1.356 . S
N1244 H1250 0.984 . S
N1244 H1251 0.984 . S
N1245 C1238 1.356 . S
N1245 H1248 0.984 . S
N1245 H1249 0.985 . S
H1246 N1241 0.984 . S
H1247 N1241 0.985 . S
H1248 N1245 0.984 . S
H1249 N1245 0.985 . S
H1250 N1244 0.984 . S
H1251 N1244 0.984 . S
H1252 N1240 0.984 . S
H1253 N1240 0.985 . S
C1254 C1255 1.363 . S
C1254 C1260 1.379 . S
C1254 N1262 1.356 . S
C1255 C1254 1.363 . S
C1255 C1261 1.363 1_554 S
C1256 C1257 1.363 1_556 S
C1256 C1261 1.379 . S
C1256 N1263 1.356 . S
C1257 C1256 1.363 1_554 S
C1257 C1260 1.363 . S
N1258 C1260 1.356 . S
N1258 H1270 0.984 . S
N1258 H1271 0.985 . S
N1259 C1261 1.356 . S
N1259 H1264 0.984 . S
N1259 H1265 0.985 . S
C1260 C1254 1.379 . S
C1260 C1257 1.363 . S
C1260 N1258 1.356 . S
C1261 C1255 1.363 1_556 S
C1261 C1256 1.379 . S
C1261 N1259 1.356 . S
N1262 C1254 1.356 . S
N1262 H1268 0.984 . S
N1262 H1269 0.984 . S
N1263 C1256 1.356 . S
N1263 H1266 0.984 . S
N1263 H1267 0.985 . S
H1264 N1259 0.984 . S
H1265 N1259 0.985 . S
H1266 N1263 0.984 . S
H1267 N1263 0.985 . S
H1268 N1262 0.984 . S
H1269 N1262 0.984 . S
H1270 N1258 0.984 . S
H1271 N1258 0.985 . S
C1272 C1273 1.363 . S
C1272 C1278 1.379 . S
C1272 N1280 1.356 . S
C1273 C1272 1.363 . S
C1273 C1279 1.363 . S
C1274 C1275 1.363 . S
C1274 C1279 1.379 . S
C1274 N1281 1.356 . S
C1275 C1274 1.363 . S
C1275 C1278 1.363 . S
N1276 C1278 1.356 . S
N1276 H1288 0.984 . S
N1276 H1289 0.985 . S
N1277 C1279 1.356 . S
N1277 H1282 0.984 . S
N1277 H1283 0.985 . S
C1278 C1272 1.379 . S
C1278 C1275 1.363 . S
C1278 N1276 1.356 . S
C1279 C1273 1.363 . S
C1279 C1274 1.379 . S
C1279 N1277 1.356 . S
N1280 C1272 1.356 . S
N1280 H1286 0.984 . S
N1280 H1287 0.984 . S
N1281 C1274 1.356 . S
N1281 H1284 0.984 . S
N1281 H1285 0.985 . S
H1282 N1277 0.984 . S
H1283 N1277 0.985 . S
H1284 N1281 0.984 . S
H1285 N1281 0.985 . S
H1286 N1280 0.984 . S
H1287 N1280 0.984 . S
H1288 N1276 0.984 . S
H1289 N1276 0.985 . S
C1290 C1291 1.363 . S
C1290 C1296 1.379 . S
C1290 N1298 1.356 . S
C1291 C1290 1.363 . S
C1291 C1297 1.363 . S
C1292 C1293 1.363 . S
C1292 C1297 1.379 . S
C1292 N1299 1.356 . S
C1293 C1292 1.363 . S
C1293 C1296 1.363 . S
N1294 C1296 1.356 . S
N1294 H1306 0.984 . S
N1294 H1307 0.985 . S
N1295 C1297 1.356 1_455 S
N1295 H1300 0.984 . S
N1295 H1301 0.985 . S
C1296 C1290 1.379 . S
C1296 C1293 1.363 . S
C1296 N1294 1.356 . S
C1297 C1291 1.363 . S
C1297 C1292 1.379 . S
C1297 N1295 1.356 1_655 S
N1298 C1290 1.356 . S
N1298 H1304 0.984 . S
N1298 H1305 0.984 . S
N1299 C1292 1.356 . S
N1299 H1302 0.984 . S
N1299 H1303 0.985 1_655 S
H1300 N1295 0.984 . S
H1301 N1295 0.985 . S
H1302 N1299 0.984 . S
H1303 N1299 0.985 1_455 S
H1304 N1298 0.984 . S
H1305 N1298 0.984 . S
H1306 N1294 0.984 . S
H1307 N1294 0.985 . S
C1308 C1309 1.363 . S
C1308 C1314 1.379 . S
C1308 N1316 1.356 . S
C1309 C1308 1.363 . S
C1309 C1315 1.363 . S
C1310 C1311 1.363 . S
C1310 C1315 1.379 . S
C1310 N1317 1.356 . S
C1311 C1310 1.363 . S
C1311 C1314 1.363 . S
N1312 C1314 1.356 . S
N1312 H1324 0.984 . S
N1312 H1325 0.985 . S
N1313 C1315 1.356 . S
N1313 H1318 0.984 . S
N1313 H1319 0.985 . S
C1314 C1308 1.379 . S
C1314 C1311 1.363 . S
C1314 N1312 1.356 . S
C1315 C1309 1.363 . S
C1315 C1310 1.379 . S
C1315 N1313 1.356 . S
N1316 C1308 1.356 . S
N1316 H1322 0.984 . S
N1316 H1323 0.984 . S
N1317 C1310 1.356 . S
N1317 H1320 0.984 . S
N1317 H1321 0.985 . S
H1318 N1313 0.984 . S
H1319 N1313 0.985 . S
H1320 N1317 0.984 . S
H1321 N1317 0.985 . S
H1322 N1316 0.984 . S
H1323 N1316 0.984 . S
H1324 N1312 0.984 . S
H1325 N1312 0.985 . S
C1326 C1327 1.360 1_655 S
C1326 C1332 1.378 1_655 S
C1326 N1334 1.360 . S
C1327 C1326 1.360 1_455 S
C1327 C1333 1.363 . S
C1328 C1329 1.363 . S
C1328 C1333 1.379 . S
C1328 N1335 1.356 . S
C1329 C1328 1.363 . S
C1329 C1332 1.363 . S
N1330 C1332 1.356 1_655 S
N1330 H1342 0.984 . S
N1330 H1343 0.985 . S
N1331 C1333 1.356 . S
N1331 H1336 0.984 . S
N1331 H1337 0.985 . S
C1332 C1326 1.378 1_455 S
C1332 C1329 1.363 . S
C1332 N1330 1.356 1_455 S
C1333 C1327 1.363 . S
C1333 C1328 1.379 . S
C1333 N1331 1.356 . S
N1334 C1326 1.360 . S
N1334 H1340 0.984 . S
N1334 H1341 0.984 . S
N1335 C1328 1.356 . S
N1335 H1338 0.984 . S
N1335 H1339 0.985 . S
H1336 N1331 0.984 . S
H1337 N1331 0.985 . S
H1338 N1335 0.984 . S
H1339 N1335 0.985 . S
H1340 N1334 0.984 . S
H1341 N1334 0.984 . S
H1342 N1330 0.984 . S
H1343 N1330 0.985 . S
C1344 C1345 1.363 . S
C1344 C1350 1.379 . S
C1344 N1352 1.356 . S
C1345 C1344 1.363 . S
C1345 C1351 1.363 . S
C1346 C1347 1.363 . S
C1346 C1351 1.379 . S
C1346 N1353 1.356 . S
C1347 C1346 1.363 . S
C1347 C1350 1.363 . S
N1348 C1350 1.356 . S
N1348 H1360 0.984 . S
N1348 H1361 0.985 . S
N1349 C1351 1.356 . S
N1349 H1354 0.984 . S
N1349 H1355 0.985 . S
C1350 C1344 1.379 . S
C1350 C1347 1.363 . S
C1350 N1348 1.356 . S
C1351 C1345 1.363 . S
C1351 C1346 1.379 . S
C1351 N1349 1.356 . S
N1352 C1344 1.356 . S
N1352 H1358 0.984 . S
N1352 H1359 0.984 . S
N1353 C1346 1.356 . S
N1353 H1356 0.984 . S
N1353 H1357 0.985 . S
H1354 N1349 0.984 . S
H1355 N1349 0.985 . S
H1356 N1353 0.984 . S
H1357 N1353 0.985 . S
H1358 N1352 0.984 . S
H1359 N1352 0.984 . S
H1360 N1348 0.984 . S
H1361 N1348 0.985 . S
C1362 C1363 1.363 . S
C1362 C1368 1.379 . S
C1362 N1370 1.356 . S
C1363 C1362 1.363 . S
C1363 C1369 1.363 . S
C1364 C1365 1.363 . S
C1364 C1369 1.379 . S
C1364 N1371 1.356 . S
C1365 C1364 1.363 . S
C1365 C1368 1.363 . S
N1366 C1368 1.356 . S
N1366 H1378 0.984 . S
N1366 H1379 0.985 . S
N1367 C1369 1.356 . S
N1367 H1372 0.984 . S
N1367 H1373 0.985 . S
C1368 C1362 1.379 . S
C1368 C1365 1.363 . S
C1368 N1366 1.356 . S
C1369 C1363 1.363 . S
C1369 C1364 1.379 . S
C1369 N1367 1.356 . S
N1370 C1362 1.356 . S
N1370 H1376 0.984 . S
N1370 H1377 0.984 . S
N1371 C1364 1.356 . S
N1371 H1374 0.984 . S
N1371 H1375 0.985 . S
H1372 N1367 0.984 . S
H1373 N1367 0.985 . S
H1374 N1371 0.984 . S
H1375 N1371 0.985 . S
H1376 N1370 0.984 . S
H1377 N1370 0.984 . S
H1378 N1366 0.984 . S
H1379 N1366 0.985 . S
C1380 C1381 1.363 1_545 S
C1380 C1386 1.379 . S
C1380 N1388 1.356 . S
C1381 C1380 1.363 1_565 S
C1381 C1387 1.363 . S
C1382 C1383 1.363 . S
C1382 C1387 1.379 . S
C1382 N1389 1.356 . S
C1383 C1382 1.363 . S
C1383 C1386 1.363 1_565 S
N1384 C1386 1.356 . S
N1384 H1396 0.984 . S
N1384 H1397 0.985 . S
N1385 C1387 1.356 . S
N1385 H1390 0.984 . S
N1385 H1391 0.985 . S
C1386 C1380 1.379 . S
C1386 C1383 1.363 1_545 S
C1386 N1384 1.356 . S
C1387 C1381 1.363 . S
C1387 C1382 1.379 . S
C1387 N1385 1.356 . S
N1388 C1380 1.356 . S
N1388 H1394 0.984 . S
N1388 H1395 0.984 . S
N1389 C1382 1.356 . S
N1389 H1392 0.984 . S
N1389 H1393 0.985 . S
H1390 N1385 0.984 . S
H1391 N1385 0.985 . S
H1392 N1389 0.984 . S
H1393 N1389 0.985 . S
H1394 N1388 0.984 . S
H1395 N1388 0.984 . S
H1396 N1384 0.984 . S
H1397 N1384 0.985 . S
C1398 C1399 1.363 . S
C1398 C1404 1.379 . S
C1398 N1406 1.356 1_545 S
C1399 C1398 1.363 . S
C1399 C1405 1.363 . S
C1400 C1401 1.363 . S
C1400 C1405 1.379 . S
C1400 N1407 1.356 . S
C1401 C1400 1.363 . S
C1401 C1404 1.363 . S
N1402 C1404 1.349 1_565 S
N1402 H1414 1.005 . S
N1402 H1415 0.973 1_565 S
N1403 C1405 1.356 . S
N1403 H1408 0.984 . S
N1403 H1409 0.985 . S
C1404 C1398 1.379 . S
C1404 C1401 1.363 . S
C1404 N1402 1.349 1_545 S
C1405 C1399 1.363 . S
C1405 C1400 1.379 . S
C1405 N1403 1.356 . S
N1406 C1398 1.356 1_565 S
N1406 H1412 0.984 . S
N1406 H1413 0.984 . S
N1407 C1400 1.356 . S
N1407 H1410 0.984 . S
N1407 H1411 0.985 . S
H1408 N1403 0.984 . S
H1409 N1403 0.985 . S
H1410 N1407 0.984 . S
H1411 N1407 0.985 . S
H1412 N1406 0.984 . S
H1413 N1406 0.984 . S
H1414 N1402 1.005 . S
H1415 N1402 0.973 1_545 S
C1416 C1417 1.363 . S
C1416 C1422 1.379 . S
C1416 N1424 1.356 . S
C1417 C1416 1.363 . S
C1417 C1423 1.363 . S
C1418 C1419 1.363 . S
C1418 C1423 1.379 . S
C1418 N1425 1.356 . S
C1419 C1418 1.363 . S
C1419 C1422 1.363 . S
N1420 C1422 1.356 . S
N1420 H1432 0.984 . S
N1420 H1433 0.985 . S
N1421 C1423 1.356 . S
N1421 H1426 0.984 . S
N1421 H1427 0.985 . S
C1422 C1416 1.379 . S
C1422 C1419 1.363 . S
C1422 N1420 1.356 . S
C1423 C1417 1.363 . S
C1423 C1418 1.379 . S
C1423 N1421 1.356 . S
N1424 C1416 1.356 . S
N1424 H1430 0.984 . S
N1424 H1431 0.984 . S
N1425 C1418 1.356 . S
N1425 H1428 0.984 . S
N1425 H1429 0.985 . S
H1426 N1421 0.984 . S
H1427 N1421 0.985 . S
H1428 N1425 0.984 . S
H1429 N1425 0.985 . S
H1430 N1424 0.984 . S
H1431 N1424 0.984 . S
H1432 N1420 0.984 . S
H1433 N1420 0.985 . S
C1434 C1435 1.363 1_556 S
C1434 C1440 1.379 1_556 S
C1434 N1442 1.356 . S
C1435 C1434 1.363 1_554 S
C1435 C1441 1.363 . S
C1436 C1437 1.363 . S
C1436 C1441 1.379 . S
C1436 N1443 1.356 . S
C1437 C1436 1.363 . S
C1437 C1440 1.363 . S
N1438 C1440 1.356 1_556 S
N1438 H1450 0.984 . S
N1438 H1451 1.007 . S
N1439 C1441 1.356 . S
N1439 H1444 0.984 . S
N1439 H1445 0.985 . S
C1440 C1434 1.379 1_554 S
C1440 C1437 1.363 . S
C1440 N1438 1.356 1_554 S
C1441 C1435 1.363 . S
C1441 C1436 1.379 . S
C1441 N1439 1.356 . S
N1442 C1434 1.356 . S
N1442 H1448 0.984 . S
N1442 H1449 0.984 . S
N1443 C1436 1.356 . S
N1443 H1446 0.984 . S
N1443 H1447 0.985 . S
H1444 N1439 0.984 . S
H1445 N1439 0.985 . S
H1446 N1443 0.984 . S
H1447 N1443 0.985 . S
H1448 N1442 0.984 . S
H1449 N1442 0.984 . S
H1450 N1438 0.984 . S
H1451 N1438 1.007 . S
C1452 C1453 1.363 . S
C1452 C1458 1.379 . S
C1452 N1460 1.356 . S
C1453 C1452 1.363 . S
C1453 C1459 1.363 . S
C1454 C1455 1.363 . S
C1454 C1459 1.379 . S
C1454 N1461 1.356 . S
C1455 C1454 1.363 . S
C1455 C1458 1.363 . S
N1456 C1458 1.356 . S
N1456 H1468 0.984 . S
N1456 H1469 0.985 . S
N1457 C1459 1.356 . S
N1457 H1462 0.984 . S
N1457 H1463 0.985 . S
C1458 C1452 1.379 . S
C1458 C1455 1.363 . S
C1458 N1456 1.356 . S
C1459 C1453 1.363 . S
C1459 C1454 1.379 . S
C1459 N1457 1.356 . S
N1460 C1452 1.356 . S
N1460 H1466 0.984 . S
N1460 H1467 0.984 . S
N1461 C1454 1.356 . S
N1461 H1464 0.984 . S
N1461 H1465 0.985 . S
H1462 N1457 0.984 . S
H1463 N1457 0.985 . S
H1464 N1461 0.984 . S
H1465 N1461 0.985 . S
H1466 N1460 0.984 . S
H1467 N1460 0.984 . S
H1468 N1456 0.984 . S
H1469 N1456 0.985 . S
C1470 C1471 1.363 . S
C1470 C1476 1.379 . S
C1470 N1478 1.356 . S
C1471 C1470 1.363 . S
C1471 C1477 1.363 1_556 S
C1472 C1473 1.363 1_554 S
C1472 C1477 1.379 . S
C1472 N1479 1.356 . S
C1473 C1472 1.363 1_556 S
C1473 C1476 1.363 . S
N1474 C1476 1.356 . S
N1474 H1486 0.984 . S
N1474 H1487 0.985 . S
N1475 C1477 1.356 . S
N1475 H1480 0.984 . S
N1475 H1481 0.985 . S
C1476 C1470 1.379 . S
C1476 C1473 1.363 . S
C1476 N1474 1.356 . S
C1477 C1471 1.363 1_554 S
C1477 C1472 1.379 . S
C1477 N1475 1.356 . S
N1478 C1470 1.356 . S
N1478 H1484 0.984 . S
N1478 H1485 0.984 . S
N1479 C1472 1.356 . S
N1479 H1482 0.984 . S
N1479 H1483 0.985 . S
H1480 N1475 0.984 . S
H1481 N1475 0.985 . S
H1482 N1479 0.984 . S
H1483 N1479 0.985 . S
H1484 N1478 0.984 . S
H1485 N1478 0.984 . S
H1486 N1474 0.984 . S
H1487 N1474 0.985 . S
C1488 C1489 1.363 . S
C1488 C1494 1.379 . S
C1488 N1496 1.356 . S
C1489 C1488 1.363 . S
C1489 C1495 1.363 . S
C1490 C1491 1.363 . S
C1490 C1495 1.379 . S
C1490 N1497 1.356 . S
C1491 C1490 1.363 . S
C1491 C1494 1.363 . S
N1492 C1494 1.356 . S
N1492 H1504 0.984 . S
N1492 H1505 0.985 . S
N1493 C1495 1.356 . S
N1493 H1498 0.984 . S
N1493 H1499 0.985 . S
C1494 C1488 1.379 . S
C1494 C1491 1.363 . S
C1494 N1492 1.356 . S
C1495 C1489 1.363 . S
C1495 C1490 1.379 . S
C1495 N1493 1.356 . S
N1496 C1488 1.356 . S
N1496 H1502 0.984 . S
N1496 H1503 0.984 . S
N1497 C1490 1.356 . S
N1497 H1500 0.984 . S
N1497 H1501 0.985 . S
H1498 N1493 0.984 . S
H1499 N1493 0.985 . S
H1500 N1497 0.984 . S
H1501 N1497 0.985 . S
H1502 N1496 0.984 . S
H1503 N1496 0.984 . S
H1504 N1492 0.984 . S
H1505 N1492 0.985 . S
C1506 C1507 1.363 . S
C1506 C1512 1.379 . S
C1506 N1514 1.356 . S
C1507 C1506 1.363 . S
C1507 C1513 1.363 . S
C1508 C1509 1.363 . S
C1508 C1513 1.379 . S
C1508 N1515 1.356 . S
C1509 C1508 1.363 . S
C1509 C1512 1.363 . S
N1510 C1512 1.356 . S
N1510 H1522 0.984 . S
N1510 H1523 0.985 . S
N1511 C1513 1.356 1_655 S
N1511 H1516 0.984 . S
N1511 H1517 0.985 . S
C1512 C1506 1.379 . S
C1512 C1509 1.363 . S
C1512 N1510 1.356 . S
C1513 C1507 1.363 . S
C1513 C1508 1.379 . S
C1513 N1511 1.356 1_455 S
N1514 C1506 1.356 . S
N1514 H1520 0.984 . S
N1514 H1521 0.984 . S
N1515 C1508 1.356 . S
N1515 H1518 0.984 . S
N1515 H1519 0.985 1_455 S
H1516 N1511 0.984 . S
H1517 N1511 0.985 . S
H1518 N1515 0.984 . S
H1519 N1515 0.985 1_655 S
H1520 N1514 0.984 . S
H1521 N1514 0.984 . S
H1522 N1510 0.984 . S
H1523 N1510 0.985 . S
C1524 C1525 1.363 . S
C1524 C1530 1.379 . S
C1524 N1532 1.356 . S
C1525 C1524 1.363 . S
C1525 C1531 1.363 . S
C1526 C1527 1.363 . S
C1526 C1531 1.379 . S
C1526 N1533 1.356 . S
C1527 C1526 1.363 . S
C1527 C1530 1.363 . S
N1528 C1530 1.356 . S
N1528 H1540 0.984 . S
N1528 H1541 0.985 . S
N1529 C1531 1.356 . S
N1529 H1534 0.984 . S
N1529 H1535 0.985 . S
C1530 C1524 1.379 . S
C1530 C1527 1.363 . S
C1530 N1528 1.356 . S
C1531 C1525 1.363 . S
C1531 C1526 1.379 . S
C1531 N1529 1.356 . S
N1532 C1524 1.356 . S
N1532 H1538 0.984 . S
N1532 H1539 0.984 . S
N1533 C1526 1.356 . S
N1533 H1536 0.984 . S
N1533 H1537 0.985 . S
H1534 N1529 0.984 . S
H1535 N1529 0.985 . S
H1536 N1533 0.984 . S
H1537 N1533 0.985 . S
H1538 N1532 0.984 . S
H1539 N1532 0.984 . S
H1540 N1528 0.984 . S
H1541 N1528 0.985 . S
C1542 C1543 1.363 1_455 S
C1542 C1548 1.379 . S
C1542 N1550 1.356 . S
C1543 C1542 1.363 1_655 S
C1543 C1549 1.363 . S
C1544 C1545 1.363 . S
C1544 C1549 1.379 . S
C1544 N1551 1.356 . S
C1545 C1544 1.363 . S
C1545 C1548 1.363 1_655 S
N1546 C1548 1.356 . S
N1546 H1558 0.984 . S
N1546 H1559 0.985 . S
N1547 C1549 1.356 . S
N1547 H1552 0.984 . S
N1547 H1553 0.985 . S
C1548 C1542 1.379 . S
C1548 C1545 1.363 1_455 S
C1548 N1546 1.356 . S
C1549 C1543 1.363 . S
C1549 C1544 1.379 . S
C1549 N1547 1.356 . S
N1550 C1542 1.356 . S
N1550 H1556 0.984 . S
N1550 H1557 0.984 . S
N1551 C1544 1.356 . S
N1551 H1554 0.984 . S
N1551 H1555 0.985 . S
H1552 N1547 0.984 . S
H1553 N1547 0.985 . S
H1554 N1551 0.984 . S
H1555 N1551 0.985 . S
H1556 N1550 0.984 . S
H1557 N1550 0.984 . S
H1558 N1546 0.984 . S
H1559 N1546 0.985 . S
C1560 C1561 1.363 . S
C1560 C1566 1.379 . S
C1560 N1568 1.356 . S
C1561 C1560 1.363 . S
C1561 C1567 1.363 . S
C1562 C1563 1.363 . S
C1562 C1567 1.379 . S
C1562 N1569 1.356 . S
C1563 C1562 1.363 . S
C1563 C1566 1.363 . S
N1564 C1566 1.356 . S
N1564 H1576 0.984 . S
N1564 H1577 0.985 . S
N1565 C1567 1.356 . S
N1565 H1570 0.984 . S
N1565 H1571 0.985 . S
C1566 C1560 1.379 . S
C1566 C1563 1.363 . S
C1566 N1564 1.356 . S
C1567 C1561 1.363 . S
C1567 C1562 1.379 . S
C1567 N1565 1.356 . S
N1568 C1560 1.356 . S
N1568 H1574 0.984 . S
N1568 H1575 0.984 . S
N1569 C1562 1.356 . S
N1569 H1572 0.984 . S
N1569 H1573 0.985 . S
H1570 N1565 0.984 . S
H1571 N1565 0.985 . S
H1572 N1569 0.984 . S
H1573 N1569 0.985 . S
H1574 N1568 0.984 . S
H1575 N1568 0.984 . S
H1576 N1564 0.984 . S
H1577 N1564 0.985 . S
C1578 C1579 1.363 . S
C1578 C1584 1.379 . S
C1578 N1586 1.356 . S
C1579 C1578 1.363 . S
C1579 C1585 1.363 . S
C1580 C1581 1.363 . S
C1580 C1585 1.379 . S
C1580 N1587 1.356 . S
C1581 C1580 1.363 . S
C1581 C1584 1.363 . S
N1582 C1584 1.356 . S
N1582 H1594 0.984 . S
N1582 H1595 0.985 . S
N1583 C1585 1.356 . S
N1583 H1588 0.984 . S
N1583 H1589 0.985 . S
C1584 C1578 1.379 . S
C1584 C1581 1.363 . S
C1584 N1582 1.356 . S
C1585 C1579 1.363 . S
C1585 C1580 1.379 . S
C1585 N1583 1.356 . S
N1586 C1578 1.356 . S
N1586 H1592 0.984 . S
N1586 H1593 0.984 . S
N1587 C1580 1.356 . S
N1587 H1590 0.984 . S
N1587 H1591 0.985 . S
H1588 N1583 0.984 . S
H1589 N1583 0.985 . S
H1590 N1587 0.984 . S
H1591 N1587 0.985 . S
H1592 N1586 0.984 . S
H1593 N1586 0.984 . S
H1594 N1582 0.984 . S
H1595 N1582 0.985 . S
C1596 C1597 1.363 . S
C1596 C1602 1.379 . S
C1596 N1604 1.356 . S
C1597 C1596 1.363 . S
C1597 C1603 1.363 1_565 S
C1598 C1599 1.363 . S
C1598 C1603 1.379 . S
C1598 N1605 1.356 . S
C1599 C1598 1.363 . S
C1599 C1602 1.363 1_545 S
N1600 C1602 1.356 . S
N1600 H1612 0.984 . S
N1600 H1613 0.985 . S
N1601 C1603 1.356 . S
N1601 H1606 0.984 . S
N1601 H1607 0.985 . S
C1602 C1596 1.379 . S
C1602 C1599 1.363 1_565 S
C1602 N1600 1.356 . S
C1603 C1597 1.363 1_545 S
C1603 C1598 1.379 . S
C1603 N1601 1.356 . S
N1604 C1596 1.356 . S
N1604 H1610 0.984 . S
N1604 H1611 0.984 . S
N1605 C1598 1.356 . S
N1605 H1608 0.984 . S
N1605 H1609 0.985 . S
H1606 N1601 0.984 . S
H1607 N1601 0.985 . S
H1608 N1605 0.984 . S
H1609 N1605 0.985 . S
H1610 N1604 0.984 . S
H1611 N1604 0.984 . S
H1612 N1600 0.984 . S
H1613 N1600 0.985 . S
C1614 C1615 1.363 1_565 S
C1614 C1620 1.379 . S
C1614 N1622 1.356 . S
C1615 C1614 1.363 1_545 S
C1615 C1621 1.363 . S
C1616 C1617 1.363 . S
C1616 C1621 1.379 . S
C1616 N1623 1.356 . S
C1617 C1616 1.363 . S
C1617 C1620 1.363 1_545 S
N1618 C1620 1.356 . S
N1618 H1630 0.984 . S
N1618 H1631 0.985 . S
N1619 C1621 1.356 . S
N1619 H1624 0.984 . S
N1619 H1625 0.985 . S
C1620 C1614 1.379 . S
C1620 C1617 1.363 1_565 S
C1620 N1618 1.356 . S
C1621 C1615 1.363 . S
C1621 C1616 1.379 . S
C1621 N1619 1.356 . S
N1622 C1614 1.356 . S
N1622 H1628 0.984 . S
N1622 H1629 0.995 . S
N1623 C1616 1.356 . S
N1623 H1626 0.984 . S
N1623 H1627 0.985 . S
H1624 N1619 0.984 . S
H1625 N1619 0.985 . S
H1626 N1623 0.984 . S
H1627 N1623 0.985 . S
H1628 N1622 0.984 . S
H1629 N1622 0.995 . S
H1630 N1618 0.984 . S
H1631 N1618 0.985 . S
C1632 C1633 1.363 . S
C1632 C1638 1.379 . S
C1632 N1640 1.356 . S
C1633 C1632 1.363 . S
C1633 C1639 1.363 . S
C1634 C1635 1.363 . S
C1634 C1639 1.379 . S
C1634 N1641 1.356 . S
C1635 C1634 1.363 . S
C1635 C1638 1.363 . S
N1636 C1638 1.356 . S
N1636 H1648 0.984 . S
N1636 H1649 0.985 . S
N1637 C1639 1.356 . S
N1637 H1642 0.984 . S
N1637 H1643 0.985 . S
C1638 C1632 1.379 . S
C1638 C1635 1.363 . S
C1638 N1636 1.356 . S
C1639 C1633 1.363 . S
C1639 C1634 1.379 . S
C1639 N1637 1.356 . S
N1640 C1632 1.356 . S
N1640 H1646 0.984 . S
N1640 H1647 0.984 . S
N1641 C1634 1.356 . S
N1641 H1644 0.984 . S
N1641 H1645 0.985 . S
H1642 N1637 0.984 . S
H1643 N1637 0.985 . S
H1644 N1641 0.984 . S
H1645 N1641 0.985 . S
H1646 N1640 0.984 . S
H1647 N1640 0.984 . S
H1648 N1636 0.984 . S
H1649 N1636 0.985 . S
C1650 C1651 1.363 . S
C1650 C1656 1.379 . S
C1650 N1658 1.356 . S
C1651 C1650 1.363 . S
C1651 C1657 1.363 . S
C1652 C1653 1.363 1_556 S
C1652 C1657 1.379 1_556 S
C1652 N1659 1.356 . S
C1653 C1652 1.363 1_554 S
C1653 C1656 1.363 . S
N1654 C1656 1.356 . S
N1654 H1666 0.984 . S
N1654 H1667 0.985 . S
N1655 C1657 1.356 . S
N1655 H1660 0.984 . S
N1655 H1661 0.986 1_554 S
C1656 C1650 1.379 . S
C1656 C1653 1.363 . S
C1656 N1654 1.356 . S
C1657 C1651 1.363 . S
C1657 C1652 1.379 1_554 S
C1657 N1655 1.356 . S
N1658 C1650 1.356 . S
N1658 H1664 0.984 . S
N1658 H1665 0.984 . S
N1659 C1652 1.356 . S
N1659 H1662 0.984 . S
N1659 H1663 0.985 . S
H1660 N1655 0.984 . S
H1661 N1655 0.986 1_556 S
H1662 N1659 0.984 . S
H1663 N1659 0.985 . S
H1664 N1658 0.984 . S
H1665 N1658 0.984 . S
H1666 N1654 0.984 . S
H1667 N1654 0.985 . S
C1668 C1669 1.363 . S
C1668 C1674 1.379 . S
C1668 N1676 1.356 . S
C1669 C1668 1.363 . S
C1669 C1675 1.363 . S
C1670 C1671 1.363 . S
C1670 C1675 1.379 . S
C1670 N1677 1.356 . S
C1671 C1670 1.363 . S
C1671 C1674 1.363 . S
N1672 C1674 1.356 . S
N1672 H1684 0.984 . S
N1672 H1685 0.985 . S
N1673 C1675 1.356 . S
N1673 H1678 0.984 . S
N1673 H1679 0.985 . S
C1674 C1668 1.379 . S
C1674 C1671 1.363 . S
C1674 N1672 1.356 . S
C1675 C1669 1.363 . S
C1675 C1670 1.379 . S
C1675 N1673 1.356 . S
N1676 C1668 1.356 . S
N1676 H1682 0.984 . S
N1676 H1683 0.984 . S
N1677 C1670 1.356 . S
N1677 H1680 0.984 . S
N1677 H1681 0.985 . S
H1678 N1673 0.984 . S
H1679 N1673 0.985 . S
H1680 N1677 0.984 . S
H1681 N1677 0.985 . S
H1682 N1676 0.984 . S
H1683 N1676 0.984 . S
H1684 N1672 0.984 . S
H1685 N1672 0.985 . S
C1686 C1687 1.363 1_554 S
C1686 C1692 1.379 . S
C1686 N1694 1.356 . S
C1687 C1686 1.363 1_556 S
C1687 C1693 1.363 . S
C1688 C1689 1.363 1_556 S
C1688 C1693 1.379 . S
C1688 N1695 1.356 . S
C1689 C1688 1.363 1_554 S
C1689 C1692 1.363 . S
N1690 C1692 1.356 . S
N1690 H1702 0.984 . S
N1690 H1703 0.985 . S
N1691 C1693 1.356 . S
N1691 H1696 0.984 . S
N1691 H1697 0.985 . S
C1692 C1686 1.379 . S
C1692 C1689 1.363 . S
C1692 N1690 1.356 . S
C1693 C1687 1.363 . S
C1693 C1688 1.379 . S
C1693 N1691 1.356 . S
N1694 C1686 1.356 . S
N1694 H1700 0.984 . S
N1694 H1701 0.984 . S
N1695 C1688 1.356 . S
N1695 H1698 0.984 . S
N1695 H1699 0.985 . S
H1696 N1691 0.984 . S
H1697 N1691 0.985 . S
H1698 N1695 0.984 . S
H1699 N1695 0.985 . S
H1700 N1694 0.984 . S
H1701 N1694 0.984 . S
H1702 N1690 0.984 . S
H1703 N1690 0.985 . S
C1704 C1705 1.363 . S
C1704 C1710 1.379 . S
C1704 N1712 1.356 . S
C1705 C1704 1.363 . S
C1705 C1711 1.363 . S
C1706 C1707 1.363 . S
C1706 C1711 1.379 . S
C1706 N1713 1.356 . S
C1707 C1706 1.363 . S
C1707 C1710 1.363 . S
N1708 C1710 1.356 . S
N1708 H1720 0.984 . S
N1708 H1721 0.985 . S
N1709 C1711 1.356 . S
N1709 H1714 0.984 . S
N1709 H1715 0.985 . S
C1710 C1704 1.379 . S
C1710 C1707 1.363 . S
C1710 N1708 1.356 . S
C1711 C1705 1.363 . S
C1711 C1706 1.379 . S
C1711 N1709 1.356 . S
N1712 C1704 1.356 . S
N1712 H1718 0.984 . S
N1712 H1719 0.984 . S
N1713 C1706 1.356 . S
N1713 H1716 0.984 . S
N1713 H1717 0.985 . S
H1714 N1709 0.984 . S
H1715 N1709 0.985 . S
H1716 N1713 0.984 . S
H1717 N1713 0.985 . S
H1718 N1712 0.984 . S
H1719 N1712 0.984 . S
H1720 N1708 0.984 . S
H1721 N1708 0.985 . S
C1722 C1723 1.363 . S
C1722 C1728 1.379 . S
C1722 N1730 1.356 . S
C1723 C1722 1.363 . S
C1723 C1729 1.363 . S
C1724 C1725 1.363 . S
C1724 C1729 1.379 . S
C1724 N1731 1.356 1_455 S
C1725 C1724 1.363 . S
C1725 C1728 1.363 . S
N1726 C1728 1.356 . S
N1726 H1738 0.984 . S
N1726 H1739 0.985 . S
N1727 C1729 1.356 . S
N1727 H1732 0.984 . S
N1727 H1733 0.985 . S
C1728 C1722 1.379 . S
C1728 C1725 1.363 . S
C1728 N1726 1.356 . S
C1729 C1723 1.363 . S
C1729 C1724 1.379 . S
C1729 N1727 1.356 . S
N1730 C1722 1.356 . S
N1730 H1736 0.984 . S
N1730 H1737 0.984 . S
N1731 C1724 1.356 1_655 S
N1731 H1734 0.984 . S
N1731 H1735 0.985 . S
H1732 N1727 0.984 . S
H1733 N1727 0.985 . S
H1734 N1731 0.984 . S
H1735 N1731 0.985 . S
H1736 N1730 0.984 . S
H1737 N1730 0.984 . S
H1738 N1726 0.984 . S
H1739 N1726 0.985 . S
C1740 C1741 1.363 . S
C1740 C1746 1.379 . S
C1740 N1748 1.356 . S
C1741 C1740 1.363 . S
C1741 C1747 1.363 . S
C1742 C1743 1.363 . S
C1742 C1747 1.379 . S
C1742 N1749 1.356 . S
C1743 C1742 1.363 . S
C1743 C1746 1.363 . S
N1744 C1746 1.356 . S
N1744 H1756 0.984 . S
N1744 H1757 0.985 . S
N1745 C1747 1.356 . S
N1745 H1750 0.984 . S
N1745 H1751 0.985 . S
C1746 C1740 1.379 . S
C1746 C1743 1.363 . S
C1746 N1744 1.356 . S
C1747 C1741 1.363 . S
C1747 C1742 1.379 . S
C1747 N1745 1.356 . S
N1748 C1740 1.356 . S
N1748 H1754 0.984 . S
N1748 H1755 0.984 . S
N1749 C1742 1.356 . S
N1749 H1752 0.984 . S
N1749 H1753 0.985 . S
H1750 N1745 0.984 . S
H1751 N1745 0.985 . S
H1752 N1749 0.984 . S
H1753 N1749 0.985 . S
H1754 N1748 0.984 . S
H1755 N1748 0.984 . S
H1756 N1744 0.984 . S
H1757 N1744 0.985 . S
C1758 C1759 1.363 . S
C1758 C1764 1.379 . S
C1758 N1766 1.356 . S
C1759 C1758 1.363 . S
C1759 C1765 1.363 1_655 S
C1760 C1761 1.363 . S
C1760 C1765 1.379 . S
C1760 N1767 1.356 . S
C1761 C1760 1.363 . S
C1761 C1764 1.363 1_455 S
N1762 C1764 1.356 . S
N1762 H1774 0.984 . S
N1762 H1775 0.985 . S
N1763 C1765 1.356 . S
N1763 H1768 0.984 . S
N1763 H1769 0.985 . S
C1764 C1758 1.379 . S
C1764 C1761 1.363 1_655 S
C1764 N1762 1.356 . S
C1765 C1759 1.363 1_455 S
C1765 C1760 1.379 . S
C1765 N1763 1.356 . S
N1766 C1758 1.356 . S
N1766 H1772 0.984 . S
N1766 H1773 0.984 . S
N1767 C1760 1.356 . S
N1767 H1770 0.984 . S
N1767 H1771 0.985 . S
H1768 N1763 0.984 . S
H1769 N1763 0.985 . S
H1770 N1767 0.984 . S
H1771 N1767 0.985 . S
H1772 N1766 0.984 . S
H1773 N1766 0.984 . S
H1774 N1762 0.984 . S
H1775 N1762 0.985 . S
C1776 C1777 1.363 . S
C1776 C1782 1.379 . S
C1776 N1784 1.356 . S
C1777 C1776 1.363 . S
C1777 C1783 1.363 . S
C1778 C1779 1.363 . S
C1778 C1783 1.379 . S
C1778 N1785 1.356 . S
C1779 C1778 1.363 . S
C1779 C1782 1.363 . S
N1780 C1782 1.356 . S
N1780 H1792 0.984 . S
N1780 H1793 0.985 . S
N1781 C1783 1.356 . S
N1781 H1786 0.984 . S
N1781 H1787 0.985 . S
C1782 C1776 1.379 . S
C1782 C1779 1.363 . S
C1782 N1780 1.356 . S
C1783 C1777 1.363 . S
C1783 C1778 1.379 . S
C1783 N1781 1.356 . S
N1784 C1776 1.356 . S
N1784 H1790 0.984 . S
N1784 H1791 0.984 . S
N1785 C1778 1.356 . S
N1785 H1788 0.984 . S
N1785 H1789 0.985 . S
H1786 N1781 0.984 . S
H1787 N1781 0.985 . S
H1788 N1785 0.984 . S
H1789 N1785 0.985 . S
H1790 N1784 0.984 . S
H1791 N1784 0.984 . S
H1792 N1780 0.984 . S
H1793 N1780 0.985 . S
C1794 C1795 1.363 . S
C1794 C1800 1.379 . S
C1794 N1802 1.356 . S
C1795 C1794 1.363 . S
C1795 C1801 1.363 . S
C1796 C1797 1.363 . S
C1796 C1801 1.379 . S
C1796 N1803 1.356 . S
C1797 C1796 1.363 . S
C1797 C1800 1.363 . S
N1798 C1800 1.356 . S
N1798 H1810 0.984 . S
N1798 H1811 0.985 . S
N1799 C1801 1.356 . S
N1799 H1804 0.984 . S
N1799 H1805 0.985 . S
C1800 C1794 1.379 . S
C1800 C1797 1.363 . S
C1800 N1798 1.356 . S
C1801 C1795 1.363 . S
C1801 C1796 1.379 . S
C1801 N1799 1.356 . S
N1802 C1794 1.356 . S
N1802 H1808 0.984 . S
N1802 H1809 0.984 . S
N1803 C1796 1.356 . S
N1803 H1806 0.984 . S
N1803 H1807 0.985 . S
H1804 N1799 0.984 . S
H1805 N1799 0.985 . S
H1806 N1803 0.984 . S
H1807 N1803 0.985 . S
H1808 N1802 0.984 . S
H1809 N1802 0.984 . S
H1810 N1798 0.984 . S
H1811 N1798 0.985 . S
C1812 C1813 1.363 . S
C1812 C1818 1.379 . S
C1812 N1820 1.356 . S
C1813 C1812 1.363 . S
C1813 C1819 1.363 1_545 S
C1814 C1815 1.363 . S
C1814 C1819 1.379 . S
C1814 N1821 1.356 . S
C1815 C1814 1.363 . S
C1815 C1818 1.363 1_565 S
N1816 C1818 1.356 . S
N1816 H1828 0.984 . S
N1816 H1829 0.985 . S
N1817 C1819 1.356 . S
N1817 H1822 0.984 . S
N1817 H1823 0.985 . S
C1818 C1812 1.379 . S
C1818 C1815 1.363 1_545 S
C1818 N1816 1.356 . S
C1819 C1813 1.363 1_565 S
C1819 C1814 1.379 . S
C1819 N1817 1.356 . S
N1820 C1812 1.356 . S
N1820 H1826 0.984 . S
N1820 H1827 0.984 . S
N1821 C1814 1.356 . S
N1821 H1824 0.984 . S
N1821 H1825 0.985 . S
H1822 N1817 0.984 . S
H1823 N1817 0.985 . S
H1824 N1821 0.984 . S
H1825 N1821 0.985 . S
H1826 N1820 0.984 . S
H1827 N1820 0.984 . S
H1828 N1816 0.984 . S
H1829 N1816 0.985 . S
C1830 C1831 1.363 1_545 S
C1830 C1836 1.379 . S
C1830 N1838 1.356 . S
C1831 C1830 1.363 1_565 S
C1831 C1837 1.363 . S
C1832 C1833 1.363 . S
C1832 C1837 1.379 . S
C1832 N1839 1.356 . S
C1833 C1832 1.363 . S
C1833 C1836 1.363 1_565 S
N1834 C1836 1.356 . S
N1834 H1846 0.984 . S
N1834 H1847 0.985 . S
N1835 C1837 1.356 . S
N1835 H1840 0.984 . S
N1835 H1841 0.985 . S
C1836 C1830 1.379 . S
C1836 C1833 1.363 1_545 S
C1836 N1834 1.356 . S
C1837 C1831 1.363 . S
C1837 C1832 1.379 . S
C1837 N1835 1.356 . S
N1838 C1830 1.356 . S
N1838 H1844 0.984 . S
N1838 H1845 0.984 . S
N1839 C1832 1.356 . S
N1839 H1842 0.984 . S
N1839 H1843 0.985 . S
H1840 N1835 0.984 . S
H1841 N1835 0.985 . S
H1842 N1839 0.984 . S
H1843 N1839 0.985 . S
H1844 N1838 0.984 . S
H1845 N1838 0.984 . S
H1846 N1834 0.984 . S
H1847 N1834 0.985 . S
C1848 C1849 1.363 . S
C1848 C1854 1.379 . S
C1848 N1856 1.356 . S
C1849 C1848 1.363 . S
C1849 C1855 1.363 . S
C1850 C1851 1.363 . S
C1850 C1855 1.379 . S
C1850 N1857 1.356 . S
C1851 C1850 1.363 . S
C1851 C1854 1.363 . S
N1852 C1854 1.356 . S
N1852 H1864 0.984 . S
N1852 H1865 0.985 . S
N1853 C1855 1.356 . S
N1853 H1858 0.984 . S
N1853 H1859 0.985 . S
C1854 C1848 1.379 . S
C1854 C1851 1.363 . S
C1854 N1852 1.356 . S
C1855 C1849 1.363 . S
C1855 C1850 1.379 . S
C1855 N1853 1.356 . S
N1856 C1848 1.356 . S
N1856 H1862 0.984 . S
N1856 H1863 0.984 . S
N1857 C1850 1.356 . S
N1857 H1860 0.984 . S
N1857 H1861 0.985 . S
H1858 N1853 0.984 . S
H1859 N1853 0.985 . S
H1860 N1857 0.984 . S
H1861 N1857 0.985 . S
H1862 N1856 0.984 . S
H1863 N1856 0.984 . S
H1864 N1852 0.984 . S
H1865 N1852 0.985 . S
C1866 C1867 1.363 . S
C1866 C1872 1.379 . S
C1866 N1874 1.356 . S
C1867 C1866 1.363 . S
C1867 C1873 1.363 1_556 S
C1868 C1869 1.363 1_554 S
C1868 C1873 1.379 . S
C1868 N1875 1.356 . S
C1869 C1868 1.363 1_556 S
C1869 C1872 1.363 . S
N1870 C1872 1.356 . S
N1870 H1882 0.984 . S
N1870 H1883 0.985 . S
N1871 C1873 1.356 . S
N1871 H1876 0.984 . S
N1871 H1877 0.985 . S
C1872 C1866 1.379 . S
C1872 C1869 1.363 . S
C1872 N1870 1.356 . S
C1873 C1867 1.363 1_554 S
C1873 C1868 1.379 . S
C1873 N1871 1.356 . S
N1874 C1866 1.356 . S
N1874 H1880 0.984 . S
N1874 H1881 0.984 . S
N1875 C1868 1.356 . S
N1875 H1878 0.984 . S
N1875 H1879 0.985 . S
H1876 N1871 0.984 . S
H1877 N1871 0.985 . S
H1878 N1875 0.984 . S
H1879 N1875 0.985 . S
H1880 N1874 0.984 . S
H1881 N1874 0.984 . S
H1882 N1870 0.984 . S
H1883 N1870 0.985 . S
C1884 C1885 1.363 . S
C1884 C1890 1.379 . S
C1884 N1892 1.356 . S
C1885 C1884 1.363 . S
C1885 C1891 1.363 . S
C1886 C1887 1.363 . S
C1886 C1891 1.379 . S
C1886 N1893 1.356 . S
C1887 C1886 1.363 . S
C1887 C1890 1.363 . S
N1888 C1890 1.356 . S
N1888 H1900 0.984 . S
N1888 H1901 0.985 . S
N1889 C1891 1.356 . S
N1889 H1894 0.984 . S
N1889 H1895 0.985 . S
C1890 C1884 1.379 . S
C1890 C1887 1.363 . S
C1890 N1888 1.356 . S
C1891 C1885 1.363 . S
C1891 C1886 1.379 . S
C1891 N1889 1.356 . S
N1892 C1884 1.356 . S
N1892 H1898 0.984 . S
N1892 H1899 0.984 . S
N1893 C1886 1.356 . S
N1893 H1896 0.984 . S
N1893 H1897 0.985 . S
H1894 N1889 0.984 . S
H1895 N1889 0.985 . S
H1896 N1893 0.984 . S
H1897 N1893 0.985 . S
H1898 N1892 0.984 . S
H1899 N1892 0.984 . S
H1900 N1888 0.984 . S
H1901 N1888 0.985 . S
C1902 C1903 1.363 1_556 S
C1902 C1908 1.379 . S
C1902 N1910 1.356 . S
C1903 C1902 1.363 1_554 S
C1903 C1909 1.363 . S
C1904 C1905 1.363 1_554 S
C1904 C1909 1.379 . S
C1904 N1911 1.356 . S
C1905 C1904 1.363 1_556 S
C1905 C1908 1.363 . S
N1906 C1908 1.356 . S
N1906 H1918 0.984 . S
N1906 H1919 0.985 . S
N1907 C1909 1.356 . S
N1907 H1912 0.984 . S
N1907 H1913 0.985 . S
C1908 C1902 1.379 . S
C1908 C1905 1.363 . S
C1908 N1906 1.356 . S
C1909 C1903 1.363 . S
C1909 C1904 1.379 . S
C1909 N1907 1.356 . S
N1910 C1902 1.356 . S
N1910 H1916 0.984 . S
N1910 H1917 0.984 . S
N1911 C1904 1.356 . S
N1911 H1914 0.984 . S
N1911 H1915 0.985 . S
H1912 N1907 0.984 . S
H1913 N1907 0.985 . S
H1914 N1911 0.984 . S
H1915 N1911 0.985 . S
H1916 N1910 0.984 . S
H1917 N1910 0.984 . S
H1918 N1906 0.984 . S
H1919 N1906 0.985 . S
C1920 C1921 1.363 . S
C1920 C1926 1.379 . S
C1920 N1928 1.356 . S
C1921 C1920 1.363 . S
C1921 C1927 1.363 . S
C1922 C1923 1.363 . S
C1922 C1927 1.379 . S
C1922 N1929 1.356 . S
C1923 C1922 1.363 . S
C1923 C1926 1.363 . S
N1924 C1926 1.356 . S
N1924 H1936 0.984 . S
N1924 H1937 0.985 . S
N1925 C1927 1.356 . S
N1925 H1930 0.984 . S
N1925 H1931 0.985 . S
C1926 C1920 1.379 . S
C1926 C1923 1.363 . S
C1926 N1924 1.356 . S
C1927 C1921 1.363 . S
C1927 C1922 1.379 . S
C1927 N1925 1.356 . S
N1928 C1920 1.356 . S
N1928 H1934 0.984 . S
N1928 H1935 0.984 . S
N1929 C1922 1.356 . S
N1929 H1932 0.984 . S
N1929 H1933 0.985 . S
H1930 N1925 0.984 . S
H1931 N1925 0.985 . S
H1932 N1929 0.984 . S
H1933 N1929 0.985 . S
H1934 N1928 0.984 . S
H1935 N1928 0.984 . S
H1936 N1924 0.984 . S
H1937 N1924 0.985 . S
C1938 C1939 1.363 . S
C1938 C1944 1.379 1_655 S
C1938 N1946 1.356 . S
C1939 C1938 1.363 . S
C1939 C1945 1.363 . S
C1940 C1941 1.363 . S
C1940 C1945 1.379 . S
C1940 N1947 1.356 . S
C1941 C1940 1.363 . S
C1941 C1944 1.363 1_655 S
N1942 C1944 1.356 . S
N1942 H1954 0.984 . S
N1942 H1955 0.985 . S
N1943 C1945 1.356 . S
N1943 H1948 0.984 . S
N1943 H1949 0.985 . S
C1944 C1938 1.379 1_455 S
C1944 C1941 1.363 1_455 S
C1944 N1942 1.356 . S
C1945 C1939 1.363 . S
C1945 C1940 1.379 . S
C1945 N1943 1.356 . S
N1946 C1938 1.356 . S
N1946 H1952 0.984 1_655 S
N1946 H1953 0.984 . S
N1947 C1940 1.356 . S
N1947 H1950 0.984 . S
N1947 H1951 0.985 . S
H1948 N1943 0.984 . S
H1949 N1943 0.985 . S
H1950 N1947 0.984 . S
H1951 N1947 0.985 . S
H1952 N1946 0.984 1_455 S
H1953 N1946 0.984 . S
H1954 N1942 0.984 . S
H1955 N1942 0.985 . S
C1956 C1957 1.363 . S
C1956 C1962 1.379 . S
C1956 N1964 1.356 . S
C1957 C1956 1.363 . S
C1957 C1963 1.363 . S
C1958 C1959 1.363 . S
C1958 C1963 1.379 . S
C1958 N1965 1.356 . S
C1959 C1958 1.363 . S
C1959 C1962 1.363 . S
N1960 C1962 1.356 . S
N1960 H1972 0.984 . S
N1960 H1973 0.985 . S
N1961 C1963 1.356 . S
N1961 H1966 0.984 . S
N1961 H1967 0.985 . S
C1962 C1956 1.379 . S
C1962 C1959 1.363 . S
C1962 N1960 1.356 . S
C1963 C1957 1.363 . S
C1963 C1958 1.379 . S
C1963 N1961 1.356 . S
N1964 C1956 1.356 . S
N1964 H1970 0.984 . S
N1964 H1971 0.984 . S
N1965 C1958 1.356 . S
N1965 H1968 0.984 . S
N1965 H1969 0.985 . S
H1966 N1961 0.984 . S
H1967 N1961 0.985 . S
H1968 N1965 0.984 . S
H1969 N1965 0.985 . S
H1970 N1964 0.984 . S
H1971 N1964 0.984 . S
H1972 N1960 0.984 . S
H1973 N1960 0.985 . S
C1974 C1975 1.363 . S
C1974 C1980 1.379 . S
C1974 N1982 1.356 . S
C1975 C1974 1.363 . S
C1975 C1981 1.363 1_455 S
C1976 C1977 1.363 . S
C1976 C1981 1.379 . S
C1976 N1983 1.356 . S
C1977 C1976 1.363 . S
C1977 C1980 1.363 1_655 S
N1978 C1980 1.356 . S
N1978 H1990 0.984 . S
N1978 H1991 0.985 1_455 S
N1979 C1981 1.356 . S
N1979 H1984 0.984 1_655 S
N1979 H1985 0.985 . S
C1980 C1974 1.379 . S
C1980 C1977 1.363 1_455 S
C1980 N1978 1.356 . S
C1981 C1975 1.363 1_655 S
C1981 C1976 1.379 . S
C1981 N1979 1.356 . S
N1982 C1974 1.356 . S
N1982 H1988 0.984 . S
N1982 H1989 0.984 . S
N1983 C1976 1.356 . S
N1983 H1986 0.984 . S
N1983 H1987 0.985 . S
H1984 N1979 0.984 1_455 S
H1985 N1979 0.985 . S
H1986 N1983 0.984 . S
H1987 N1983 0.985 . S
H1988 N1982 0.984 . S
H1989 N1982 0.984 . S
H1990 N1978 0.984 . S
H1991 N1978 0.985 1_655 S
C1992 C1993 1.363 . S
C1992 C1998 1.379 . S
C1992 N2000 1.356 . S
C1993 C1992 1.363 . S
C1993 C1999 1.363 . S
C1994 C1995 1.363 . S
C1994 C1999 1.379 . S
C1994 N2001 1.356 . S
C1995 C1994 1.363 . S
C1995 C1998 1.363 . S
N1996 C1998 1.356 . S
N1996 H2008 0.984 . S
N1996 H2009 0.985 . S
N1997 C1999 1.356 . S
N1997 H2002 0.984 . S
N1997 H2003 0.985 . S
C1998 C1992 1.379 . S
C1998 C1995 1.363 . S
C1998 N1996 1.356 . S
C1999 C1993 1.363 . S
C1999 C1994 1.379 . S
C1999 N1997 1.356 . S
N2000 C1992 1.356 . S
N2000 H2006 0.984 . S
N2000 H2007 0.984 . S
N2001 C1994 1.356 . S
N2001 H2004 0.984 . S
N2001 H2005 0.985 . S
H2002 N1997 0.984 . S
H2003 N1997 0.985 . S
H2004 N2001 0.984 . S
H2005 N2001 0.985 . S
H2006 N2000 0.984 . S
H2007 N2000 0.984 . S
H2008 N1996 0.984 . S
H2009 N1996 0.985 . S
C2010 C2011 1.363 . S
C2010 C2016 1.379 . S
C2010 N2018 1.356 . S
C2011 C2010 1.363 . S
C2011 C2017 1.363 . S
C2012 C2013 1.363 . S
C2012 C2017 1.379 . S
C2012 N2019 1.356 . S
C2013 C2012 1.363 . S
C2013 C2016 1.363 . S
N2014 C2016 1.356 . S
N2014 H2026 0.984 . S
N2014 H2027 0.985 . S
N2015 C2017 1.356 . S
N2015 H2020 0.984 . S
N2015 H2021 0.985 . S
C2016 C2010 1.379 . S
C2016 C2013 1.363 . S
C2016 N2014 1.356 . S
C2017 C2011 1.363 . S
C2017 C2012 1.379 . S
C2017 N2015 1.356 . S
N2018 C2010 1.356 . S
N2018 H2024 0.984 . S
N2018 H2025 0.984 . S
N2019 C2012 1.356 . S
N2019 H2022 0.984 . S
N2019 H2023 0.985 . S
H2020 N2015 0.984 . S
H2021 N2015 0.985 . S
H2022 N2019 0.984 . S
H2023 N2019 0.985 . S
H2024 N2018 0.984 . S
H2025 N2018 0.984 . S
H2026 N2014 0.984 . S
H2027 N2014 0.985 . S
C2028 C2029 1.363 1_565 S
C2028 C2034 1.379 . S
C2028 N2036 1.356 . S
C2029 C2028 1.363 1_545 S
C2029 C2035 1.363 . S
C2030 C2031 1.363 . S
C2030 C2035 1.379 . S
C2030 N2037 1.356 . S
C2031 C2030 1.363 . S
C2031 C2034 1.363 1_545 S
N2032 C2034 1.356 . S
N2032 H2044 0.984 . S
N2032 H2045 0.985 . S
N2033 C2035 1.356 . S
N2033 H2038 0.984 . S
N2033 H2039 0.985 . S
C2034 C2028 1.379 . S
C2034 C2031 1.363 1_565 S
C2034 N2032 1.356 . S
C2035 C2029 1.363 . S
C2035 C2030 1.379 . S
C2035 N2033 1.356 . S
N2036 C2028 1.356 . S
N2036 H2042 0.984 . S
N2036 H2043 0.984 . S
N2037 C2030 1.356 . S
N2037 H2040 0.984 . S
N2037 H2041 0.985 . S
H2038 N2033 0.984 . S
H2039 N2033 0.985 . S
H2040 N2037 0.984 . S
H2041 N2037 0.985 . S
H2042 N2036 0.984 . S
H2043 N2036 0.984 . S
H2044 N2032 0.984 . S
H2045 N2032 0.985 . S
C2046 C2047 1.363 . S
C2046 C2052 1.379 . S
C2046 N2054 1.356 1_565 S
C2047 C2046 1.363 . S
C2047 C2053 1.363 . S
C2048 C2049 1.363 . S
C2048 C2053 1.379 . S
C2048 N2055 1.356 . S
C2049 C2048 1.363 . S
C2049 C2052 1.363 . S
N2050 C2052 1.356 . S
N2050 H2062 0.984 1_565 S
N2050 H2063 0.985 . S
N2051 C2053 1.356 . S
N2051 H2056 0.984 . S
N2051 H2057 0.985 . S
C2052 C2046 1.379 . S
C2052 C2049 1.363 . S
C2052 N2050 1.356 . S
C2053 C2047 1.363 . S
C2053 C2048 1.379 . S
C2053 N2051 1.356 . S
N2054 C2046 1.356 1_545 S
N2054 H2060 0.984 . S
N2054 H2061 0.984 . S
N2055 C2048 1.356 . S
N2055 H2058 0.984 . S
N2055 H2059 0.985 . S
H2056 N2051 0.984 . S
H2057 N2051 0.985 . S
H2058 N2055 0.984 . S
H2059 N2055 0.985 . S
H2060 N2054 0.984 . S
H2061 N2054 0.984 . S
H2062 N2050 0.984 1_545 S
H2063 N2050 0.985 . S
C2064 C2065 1.363 . S
C2064 C2070 1.379 . S
C2064 N2072 1.356 . S
C2065 C2064 1.363 . S
C2065 C2071 1.363 . S
C2066 C2067 1.363 . S
C2066 C2071 1.379 . S
C2066 N2073 1.356 . S
C2067 C2066 1.363 . S
C2067 C2070 1.363 . S
N2068 C2070 1.356 . S
N2068 H2080 0.984 . S
N2068 H2081 0.985 . S
N2069 C2071 1.356 . S
N2069 H2074 0.984 . S
N2069 H2075 0.985 . S
C2070 C2064 1.379 . S
C2070 C2067 1.363 . S
C2070 N2068 1.356 . S
C2071 C2065 1.363 . S
C2071 C2066 1.379 . S
C2071 N2069 1.356 . S
N2072 C2064 1.356 . S
N2072 H2078 0.984 . S
N2072 H2079 0.984 . S
N2073 C2066 1.356 . S
N2073 H2076 0.984 . S
N2073 H2077 0.985 . S
H2074 N2069 0.984 . S
H2075 N2069 0.985 . S
H2076 N2073 0.984 . S
H2077 N2073 0.985 . S
H2078 N2072 0.984 . S
H2079 N2072 0.984 . S
H2080 N2068 0.984 . S
H2081 N2068 0.985 . S
C2082 C2083 1.363 . S
C2082 C2088 1.379 . S
C2082 N2090 1.356 . S
C2083 C2082 1.363 . S
C2083 C2089 1.363 . S
C2084 C2085 1.363 . S
C2084 C2089 1.379 . S
C2084 N2091 1.356 . S
C2085 C2084 1.363 . S
C2085 C2088 1.363 . S
N2086 C2088 1.356 . S
N2086 H2098 0.984 . S
N2086 H2099 0.985 . S
N2087 C2089 1.356 1_554 S
N2087 H2092 0.984 . S
N2087 H2093 0.985 . S
C2088 C2082 1.379 . S
C2088 C2085 1.363 . S
C2088 N2086 1.356 . S
C2089 C2083 1.363 . S
C2089 C2084 1.379 . S
C2089 N2087 1.356 1_556 S
N2090 C2082 1.356 . S
N2090 H2096 0.984 . S
N2090 H2097 0.984 . S
N2091 C2084 1.356 . S
N2091 H2094 0.984 . S
N2091 H2095 0.985 1_556 S
H2092 N2087 0.984 . S
H2093 N2087 0.985 . S
H2094 N2091 0.984 . S
H2095 N2091 0.985 1_554 S
H2096 N2090 0.984 . S
H2097 N2090 0.984 . S
H2098 N2086 0.984 . S
H2099 N2086 0.985 . S
C2100 C2101 1.363 . S
C2100 C2106 1.379 . S
C2100 N2108 1.356 . S
C2101 C2100 1.363 . S
C2101 C2107 1.363 . S
C2102 C2103 1.363 . S
C2102 C2107 1.379 . S
C2102 N2109 1.356 . S
C2103 C2102 1.363 . S
C2103 C2106 1.363 . S
N2104 C2106 1.356 . S
N2104 H2116 0.984 . S
N2104 H2117 0.985 . S
N2105 C2107 1.356 . S
N2105 H2110 0.984 . S
N2105 H2111 0.985 . S
C2106 C2100 1.379 . S
C2106 C2103 1.363 . S
C2106 N2104 1.356 . S
C2107 C2101 1.363 . S
C2107 C2102 1.379 . S
C2107 N2105 1.356 . S
N2108 C2100 1.356 . S
N2108 H2114 0.984 . S
N2108 H2115 0.984 . S
N2109 C2102 1.356 . S
N2109 H2112 0.984 . S
N2109 H2113 0.985 . S
H2110 N2105 0.984 . S
H2111 N2105 0.985 . S
H2112 N2109 0.984 . S
H2113 N2109 0.985 . S
H2114 N2108 0.984 . S
H2115 N2108 0.984 . S
H2116 N2104 0.984 . S
H2117 N2104 0.985 . S
C2118 C2119 1.363 1_556 S
C2118 C2124 1.379 . S
C2118 N2126 1.356 . S
C2119 C2118 1.363 1_554 S
C2119 C2125 1.363 . S
C2120 C2121 1.363 . S
C2120 C2125 1.379 . S
C2120 N2127 1.356 . S
C2121 C2120 1.363 . S
C2121 C2124 1.363 1_554 S
N2122 C2124 1.356 . S
N2122 H2134 0.984 . S
N2122 H2135 0.985 . S
N2123 C2125 1.356 . S
N2123 H2128 0.984 . S
N2123 H2129 0.985 . S
C2124 C2118 1.379 . S
C2124 C2121 1.363 1_556 S
C2124 N2122 1.356 . S
C2125 C2119 1.363 . S
C2125 C2120 1.379 . S
C2125 N2123 1.356 . S
N2126 C2118 1.356 . S
N2126 H2132 0.984 . S
N2126 H2133 0.984 . S
N2127 C2120 1.356 . S
N2127 H2130 0.984 . S
N2127 H2131 0.985 . S
H2128 N2123 0.984 . S
H2129 N2123 0.985 . S
H2130 N2127 0.984 . S
H2131 N2127 0.985 . S
H2132 N2126 0.984 . S
H2133 N2126 0.984 . S
H2134 N2122 0.984 . S
H2135 N2122 0.985 . S
C2136 C2137 1.363 . S
C2136 C2142 1.379 . S
C2136 N2144 1.356 . S
C2137 C2136 1.363 . S
C2137 C2143 1.363 . S
C2138 C2139 1.363 . S
C2138 C2143 1.379 . S
C2138 N2145 1.356 . S
C2139 C2138 1.363 . S
C2139 C2142 1.363 . S
N2140 C2142 1.356 . S
N2140 H2152 0.984 . S
N2140 H2153 0.985 . S
N2141 C2143 1.356 . S
N2141 H2146 0.984 . S
N2141 H2147 0.985 . S
C2142 C2136 1.379 . S
C2142 C2139 1.363 . S
C2142 N2140 1.356 . S
C2143 C2137 1.363 . S
C2143 C2138 1.379 . S
C2143 N2141 1.356 . S
N2144 C2136 1.356 . S
N2144 H2150 0.984 . S
N2144 H2151 0.984 . S
N2145 C2138 1.356 . S
N2145 H2148 0.984 . S
N2145 H2149 0.985 . S
H2146 N2141 0.984 . S
H2147 N2141 0.985 . S
H2148 N2145 0.984 . S
H2149 N2145 0.985 . S
H2150 N2144 0.984 . S
H2151 N2144 0.984 . S
H2152 N2140 0.984 . S
H2153 N2140 0.985 . S
C2154 C2155 1.363 . S
C2154 C2160 1.379 . S
C2154 N2162 1.356 1_655 S
C2155 C2154 1.363 . S
C2155 C2161 1.363 . S
C2156 C2157 1.363 . S
C2156 C2161 1.379 . S
C2156 N2163 1.356 . S
C2157 C2156 1.363 . S
C2157 C2160 1.363 . S
N2158 C2160 1.356 . S
N2158 H2170 0.984 1_655 S
N2158 H2171 0.985 . S
N2159 C2161 1.356 . S
N2159 H2164 0.984 . S
N2159 H2165 0.985 . S
C2160 C2154 1.379 . S
C2160 C2157 1.363 . S
C2160 N2158 1.356 . S
C2161 C2155 1.363 . S
C2161 C2156 1.379 . S
C2161 N2159 1.356 . S
N2162 C2154 1.356 1_455 S
N2162 H2168 0.984 . S
N2162 H2169 0.984 . S
N2163 C2156 1.356 . S
N2163 H2166 0.984 . S
N2163 H2167 0.985 . S
H2164 N2159 0.984 . S
H2165 N2159 0.985 . S
H2166 N2163 0.984 . S
H2167 N2163 0.985 . S
H2168 N2162 0.984 . S
H2169 N2162 0.984 . S
H2170 N2158 0.984 1_455 S
H2171 N2158 0.985 . S
C2172 C2173 1.363 . S
C2172 C2178 1.379 . S
C2172 N2180 1.356 . S
C2173 C2172 1.363 . S
C2173 C2179 1.363 . S
C2174 C2175 1.363 . S
C2174 C2179 1.379 . S
C2174 N2181 1.356 . S
C2175 C2174 1.363 . S
C2175 C2178 1.363 . S
N2176 C2178 1.356 . S
N2176 H2188 0.984 . S
N2176 H2189 0.985 . S
N2177 C2179 1.356 . S
N2177 H2182 0.984 . S
N2177 H2183 0.985 . S
C2178 C2172 1.379 . S
C2178 C2175 1.363 . S
C2178 N2176 1.356 . S
C2179 C2173 1.363 . S
C2179 C2174 1.379 . S
C2179 N2177 1.356 . S
N2180 C2172 1.356 . S
N2180 H2186 0.984 . S
N2180 H2187 0.984 . S
N2181 C2174 1.356 . S
N2181 H2184 0.984 . S
N2181 H2185 0.985 . S
H2182 N2177 0.984 . S
H2183 N2177 0.985 . S
H2184 N2181 0.984 . S
H2185 N2181 0.985 . S
H2186 N2180 0.984 . S
H2187 N2180 0.984 . S
H2188 N2176 0.984 . S
H2189 N2176 0.985 . S
C2190 C2191 1.363 . S
C2190 C2196 1.379 . S
C2190 N2198 1.356 . S
C2191 C2190 1.363 . S
C2191 C2197 1.363 1_455 S
C2192 C2193 1.363 1_655 S
C2192 C2197 1.379 . S
C2192 N2199 1.356 . S
C2193 C2192 1.363 1_455 S
C2193 C2196 1.363 . S
N2194 C2196 1.356 . S
N2194 H2206 0.984 . S
N2194 H2207 0.985 . S
N2195 C2197 1.356 . S
N2195 H2200 0.984 . S
N2195 H2201 0.985 . S
C2196 C2190 1.379 . S
C2196 C2193 1.363 . S
C2196 N2194 1.356 . S
C2197 C2191 1.363 1_655 S
C2197 C2192 1.379 . S
C2197 N2195 1.356 . S
N2198 C2190 1.356 . S
N2198 H2204 0.984 . S
N2198 H2205 0.984 . S
N2199 C2192 1.356 . S
N2199 H2202 0.984 . S
N2199 H2203 0.985 . S
H2200 N2195 0.984 . S
H2201 N2195 0.985 . S
H2202 N2199 0.984 . S
H2203 N2199 0.985 . S
H2204 N2198 0.984 . S
H2205 N2198 0.984 . S
H2206 N2194 0.984 . S
H2207 N2194 0.985 . S
C2208 C2209 1.363 . S
C2208 C2214 1.379 . S
C2208 N2216 1.356 . S
C2209 C2208 1.363 . S
C2209 C2215 1.363 . S
C2210 C2211 1.363 . S
C2210 C2215 1.379 . S
C2210 N2217 1.356 . S
C2211 C2210 1.363 . S
C2211 C2214 1.363 . S
N2212 C2214 1.356 . S
N2212 H2224 0.984 . S
N2212 H2225 0.985 . S
N2213 C2215 1.356 . S
N2213 H2218 0.984 . S
N2213 H2219 0.985 . S
C2214 C2208 1.379 . S
C2214 C2211 1.363 . S
C2214 N2212 1.356 . S
C2215 C2209 1.363 . S
C2215 C2210 1.379 . S
C2215 N2213 1.356 . S
N2216 C2208 1.356 . S
N2216 H2222 0.984 . S
N2216 H2223 0.984 . S
N2217 C2210 1.356 . S
N2217 H2220 0.984 . S
N2217 H2221 0.985 . S
H2218 N2213 0.984 . S
H2219 N2213 0.985 . S
H2220 N2217 0.984 . S
H2221 N2217 0.985 . S
H2222 N2216 0.984 . S
H2223 N2216 0.984 . S
H2224 N2212 0.984 . S
H2225 N2212 0.985 . S
C2226 C2227 1.363 . S
C2226 C2232 1.379 . S
C2226 N2234 1.356 . S
C2227 C2226 1.363 . S
C2227 C2233 1.363 . S
C2228 C2229 1.363 . S
C2228 C2233 1.379 . S
C2228 N2235 1.356 . S
C2229 C2228 1.363 . S
C2229 C2232 1.363 . S
N2230 C2232 1.356 . S
N2230 H2242 0.984 . S
N2230 H2243 0.985 . S
N2231 C2233 1.356 . S
N2231 H2236 0.984 . S
N2231 H2237 0.985 . S
C2232 C2226 1.379 . S
C2232 C2229 1.363 . S
C2232 N2230 1.356 . S
C2233 C2227 1.363 . S
C2233 C2228 1.379 . S
C2233 N2231 1.356 . S
N2234 C2226 1.356 . S
N2234 H2240 0.984 . S
N2234 H2241 0.984 . S
N2235 C2228 1.356 . S
N2235 H2238 0.984 . S
N2235 H2239 0.985 . S
H2236 N2231 0.984 . S
H2237 N2231 0.985 . S
H2238 N2235 0.984 . S
H2239 N2235 0.985 . S
H2240 N2234 0.984 . S
H2241 N2234 0.984 . S
H2242 N2230 0.984 . S
H2243 N2230 0.985 . S
C2244 C2245 1.363 . S
C2244 C2250 1.379 . S
C2244 N2252 1.356 . S
C2245 C2244 1.363 . S
C2245 C2251 1.363 1_565 S
C2246 C2247 1.363 1_545 S
C2246 C2251 1.379 . S
C2246 N2253 1.356 . S
C2247 C2246 1.363 1_565 S
C2247 C2250 1.363 . S
N2248 C2250 1.356 . S
N2248 H2260 0.984 . S
N2248 H2261 0.985 . S
N2249 C2251 1.356 . S
N2249 H2254 0.984 . S
N2249 H2255 0.985 . S
C2250 C2244 1.379 . S
C2250 C2247 1.363 . S
C2250 N2248 1.356 . S
C2251 C2245 1.363 1_545 S
C2251 C2246 1.379 . S
C2251 N2249 1.356 . S
N2252 C2244 1.356 . S
N2252 H2258 0.984 . S
N2252 H2259 0.984 . S
N2253 C2246 1.356 . S
N2253 H2256 0.984 . S
N2253 H2257 0.985 . S
H2254 N2249 0.984 . S
H2255 N2249 0.985 . S
H2256 N2253 0.984 . S
H2257 N2253 0.985 . S
H2258 N2252 0.984 . S
H2259 N2252 0.984 . S
H2260 N2248 0.984 . S
H2261 N2248 0.985 . S
C2262 C2263 1.363 . S
C2262 C2268 1.379 . S
C2262 N2270 1.356 1_545 S
C2263 C2262 1.363 . S
C2263 C2269 1.363 . S
C2264 C2265 1.363 . S
C2264 C2269 1.379 . S
C2264 N2271 1.356 . S
C2265 C2264 1.363 . S
C2265 C2268 1.363 . S
N2266 C2268 1.356 . S
N2266 H2278 0.984 1_545 S
N2266 H2279 0.985 . S
N2267 C2269 1.356 . S
N2267 H2272 0.984 . S
N2267 H2273 0.985 . S
C2268 C2262 1.379 . S
C2268 C2265 1.363 . S
C2268 N2266 1.356 . S
C2269 C2263 1.363 . S
C2269 C2264 1.379 . S
C2269 N2267 1.356 . S
N2270 C2262 1.356 1_565 S
N2270 H2276 0.984 . S
N2270 H2277 0.984 . S
N2271 C2264 1.356 . S
N2271 H2274 0.984 . S
N2271 H2275 0.985 . S
H2272 N2267 0.984 . S
H2273 N2267 0.985 . S
H2274 N2271 0.984 . S
H2275 N2271 0.985 . S
H2276 N2270 0.984 . S
H2277 N2270 0.984 . S
H2278 N2266 0.984 1_565 S
H2279 N2266 0.985 . S
C2280 C2281 1.363 . S
C2280 C2286 1.379 . S
C2280 N2288 1.356 . S
C2281 C2280 1.363 . S
C2281 C2287 1.363 . S
C2282 C2283 1.363 . S
C2282 C2287 1.379 . S
C2282 N2289 1.356 . S
C2283 C2282 1.363 . S
C2283 C2286 1.363 . S
N2284 C2286 1.356 . S
N2284 H2296 0.984 . S
N2284 H2297 0.985 . S
N2285 C2287 1.356 . S
N2285 H2290 0.984 . S
N2285 H2291 0.985 . S
C2286 C2280 1.379 . S
C2286 C2283 1.363 . S
C2286 N2284 1.356 . S
C2287 C2281 1.363 . S
C2287 C2282 1.379 . S
C2287 N2285 1.356 . S
N2288 C2280 1.356 . S
N2288 H2294 0.984 . S
N2288 H2295 0.984 . S
N2289 C2282 1.356 . S
N2289 H2292 0.984 . S
N2289 H2293 0.985 . S
H2290 N2285 0.984 . S
H2291 N2285 0.985 . S
H2292 N2289 0.984 . S
H2293 N2289 0.985 . S
H2294 N2288 0.984 . S
H2295 N2288 0.984 . S
H2296 N2284 0.984 . S
H2297 N2284 0.985 . S
C2298 C2299 1.363 . S
C2298 C2304 1.379 . S
C2298 N2306 1.356 . S
C2299 C2298 1.363 . S
C2299 C2305 1.363 . S
C2300 C2301 1.363 . S
C2300 C2305 1.379 . S
C2300 N2307 1.356 1_554 S
C2301 C2300 1.363 . S
C2301 C2304 1.363 . S
N2302 C2304 1.356 . S
N2302 H2314 0.984 . S
N2302 H2315 0.985 . S
N2303 C2305 1.356 1_556 S
N2303 H2308 0.984 . S
N2303 H2309 0.985 . S
C2304 C2298 1.379 . S
C2304 C2301 1.363 . S
C2304 N2302 1.356 . S
C2305 C2299 1.363 . S
C2305 C2300 1.379 . S
C2305 N2303 1.356 1_554 S
N2306 C2298 1.356 . S
N2306 H2312 0.984 . S
N2306 H2313 0.984 . S
N2307 C2300 1.356 1_556 S
N2307 H2310 0.984 1_556 S
N2307 H2311 0.985 . S
H2308 N2303 0.984 . S
H2309 N2303 0.985 . S
H2310 N2307 0.984 1_554 S
H2311 N2307 0.985 . S
H2312 N2306 0.984 . S
H2313 N2306 0.984 . S
H2314 N2302 0.984 . S
H2315 N2302 0.985 . S
C2316 C2317 1.363 . S
C2316 C2322 1.379 . S
C2316 N2324 1.356 . S
C2317 C2316 1.363 . S
C2317 C2323 1.363 . S
C2318 C2319 1.363 . S
C2318 C2323 1.379 . S
C2318 N2325 1.356 . S
C2319 C2318 1.363 . S
C2319 C2322 1.363 . S
N2320 C2322 1.356 . S
N2320 H2332 0.984 . S
N2320 H2333 0.985 . S
N2321 C2323 1.356 . S
N2321 H2326 0.984 . S
N2321 H2327 0.985 . S
C2322 C2316 1.379 . S
C2322 C2319 1.363 . S
C2322 N2320 1.356 . S
C2323 C2317 1.363 . S
C2323 C2318 1.379 . S
C2323 N2321 1.356 . S
N2324 C2316 1.356 . S
N2324 H2330 0.984 . S
N2324 H2331 0.984 . S
N2325 C2318 1.356 . S
N2325 H2328 0.984 . S
N2325 H2329 0.985 . S
H2326 N2321 0.984 . S
H2327 N2321 0.985 . S
H2328 N2325 0.984 . S
H2329 N2325 0.985 . S
H2330 N2324 0.984 . S
H2331 N2324 0.984 . S
H2332 N2320 0.984 . S
H2333 N2320 0.985 . S
C2334 C2335 1.363 1_554 S
C2334 C2340 1.379 . S
C2334 N2342 1.356 . S
C2335 C2334 1.363 1_556 S
C2335 C2341 1.363 . S
C2336 C2337 1.363 . S
C2336 C2341 1.379 . S
C2336 N2343 1.356 . S
C2337 C2336 1.363 . S
C2337 C2340 1.363 1_556 S
N2338 C2340 1.356 . S
N2338 H2350 0.984 . S
N2338 H2351 0.985 . S
N2339 C2341 1.356 . S
N2339 H2344 0.984 . S
N2339 H2345 0.985 . S
C2340 C2334 1.379 . S
C2340 C2337 1.363 1_554 S
C2340 N2338 1.356 . S
C2341 C2335 1.363 . S
C2341 C2336 1.379 . S
C2341 N2339 1.356 . S
N2342 C2334 1.356 . S
N2342 H2348 0.984 . S
N2342 H2349 0.984 . S
N2343 C2336 1.356 . S
N2343 H2346 0.984 . S
N2343 H2347 0.985 . S
H2344 N2339 0.984 . S
H2345 N2339 0.985 . S
H2346 N2343 0.984 . S
H2347 N2343 0.985 . S
H2348 N2342 0.984 . S
H2349 N2342 0.984 . S
H2350 N2338 0.984 . S
H2351 N2338 0.985 . S
C2352 C2353 1.363 . S
C2352 C2358 1.379 . S
C2352 N2360 1.356 . S
C2353 C2352 1.363 . S
C2353 C2359 1.363 . S
C2354 C2355 1.363 . S
C2354 C2359 1.379 . S
C2354 N2361 1.356 . S
C2355 C2354 1.363 . S
C2355 C2358 1.363 . S
N2356 C2358 1.356 . S
N2356 H2368 0.984 . S
N2356 H2369 0.985 . S
N2357 C2359 1.356 . S
N2357 H2362 0.984 . S
N2357 H2363 0.985 . S
C2358 C2352 1.379 . S
C2358 C2355 1.363 . S
C2358 N2356 1.356 . S
C2359 C2353 1.363 . S
C2359 C2354 1.379 . S
C2359 N2357 1.356 . S
N2360 C2352 1.356 . S
N2360 H2366 0.984 . S
N2360 H2367 0.984 . S
N2361 C2354 1.356 . S
N2361 H2364 0.984 . S
N2361 H2365 0.985 . S
H2362 N2357 0.984 . S
H2363 N2357 0.985 . S
H2364 N2361 0.984 . S
H2365 N2361 0.985 . S
H2366 N2360 0.984 . S
H2367 N2360 0.984 . S
H2368 N2356 0.984 . S
H2369 N2356 0.985 . S
C2370 C2371 1.363 . S
C2370 C2376 1.379 . S
C2370 N2378 1.356 . S
C2371 C2370 1.363 . S
C2371 C2377 1.363 . S
C2372 C2373 1.363 . S
C2372 C2377 1.379 . S
C2372 N2379 1.356 . S
C2373 C2372 1.363 . S
C2373 C2376 1.363 . S
N2374 C2376 1.356 . S
N2374 H2386 0.984 . S
N2374 H2387 0.985 . S
N2375 C2377 1.356 1_655 S
N2375 H2380 0.984 . S
N2375 H2381 0.985 . S
C2376 C2370 1.379 . S
C2376 C2373 1.363 . S
C2376 N2374 1.356 . S
C2377 C2371 1.363 . S
C2377 C2372 1.379 . S
C2377 N2375 1.356 1_455 S
N2378 C2370 1.356 . S
N2378 H2384 0.984 . S
N2378 H2385 0.984 . S
N2379 C2372 1.356 . S
N2379 H2382 0.984 . S
N2379 H2383 0.985 1_455 S
H2380 N2375 0.984 . S
H2381 N2375 0.985 . S
H2382 N2379 0.984 . S
H2383 N2379 0.985 1_655 S
H2384 N2378 0.984 . S
H2385 N2378 0.984 . S
H2386 N2374 0.984 . S
H2387 N2374 0.985 . S
C2388 C2389 1.363 . S
C2388 C2394 1.379 . S
C2388 N2396 1.356 . S
C2389 C2388 1.363 . S
C2389 C2395 1.363 . S
C2390 C2391 1.363 . S
C2390 C2395 1.379 . S
C2390 N2397 1.356 . S
C2391 C2390 1.363 . S
C2391 C2394 1.363 . S
N2392 C2394 1.356 . S
N2392 H2404 0.984 . S
N2392 H2405 0.985 . S
N2393 C2395 1.356 . S
N2393 H2398 0.984 . S
N2393 H2399 0.985 . S
C2394 C2388 1.379 . S
C2394 C2391 1.363 . S
C2394 N2392 1.356 . S
C2395 C2389 1.363 . S
C2395 C2390 1.379 . S
C2395 N2393 1.356 . S
N2396 C2388 1.356 . S
N2396 H2402 0.984 . S
N2396 H2403 0.984 . S
N2397 C2390 1.356 . S
N2397 H2400 0.984 . S
N2397 H2401 0.985 . S
H2398 N2393 0.984 . S
H2399 N2393 0.985 . S
H2400 N2397 0.984 . S
H2401 N2397 0.985 . S
H2402 N2396 0.984 . S
H2403 N2396 0.984 . S
H2404 N2392 0.984 . S
H2405 N2392 0.985 . S
C2406 C2407 1.363 1_455 S
C2406 C2412 1.379 . S
C2406 N2414 1.356 . S
C2407 C2406 1.363 1_655 S
C2407 C2413 1.363 . S
C2408 C2409 1.363 . S
C2408 C2413 1.379 . S
C2408 N2415 1.356 . S
C2409 C2408 1.363 . S
C2409 C2412 1.363 1_655 S
N2410 C2412 1.356 . S
N2410 H2422 0.984 . S
N2410 H2423 0.985 . S
N2411 C2413 1.356 . S
N2411 H2416 0.984 . S
N2411 H2417 0.985 . S
C2412 C2406 1.379 . S
C2412 C2409 1.363 1_455 S
C2412 N2410 1.356 . S
C2413 C2407 1.363 . S
C2413 C2408 1.379 . S
C2413 N2411 1.356 . S
N2414 C2406 1.356 . S
N2414 H2420 0.984 . S
N2414 H2421 0.984 . S
N2415 C2408 1.356 . S
N2415 H2418 0.984 . S
N2415 H2419 0.985 . S
H2416 N2411 0.984 . S
H2417 N2411 0.985 . S
H2418 N2415 0.984 . S
H2419 N2415 0.985 . S
H2420 N2414 0.984 . S
H2421 N2414 0.984 . S
H2422 N2410 0.984 . S
H2423 N2410 0.985 . S
C1131 C1117 1.873 . S
C1129 C8 1.891 . S
C1149 C985 1.657 . S
C1147 C19 1.608 . S
C1167 C1081 1.502 . S
C1165 C30 1.526 . S
C1185 C1021 2.021 . S
C1183 C41 1.978 . S
C1203 C769 1.895 . S
C1201 C52 1.890 . S
C1219 C63 1.978 . S
C1221 C805 2.028 . S
C1239 C697 1.657 . S
C1237 C74 1.609 . S
C1255 C85 1.528 . S
C1257 C733 1.520 . S
C1275 C949 1.893 . S
C1273 C96 1.890 . S
C1291 C107 1.974 . S
C1293 C877 2.024 . S
C1309 C118 1.610 . S
C1311 C841 1.658 . S
C1329 C913 1.521 . S
C1327 C129 1.525 . S
C1347 C661 1.900 . S
C1345 C140 1.879 . S
C1363 C151 1.573 . S
C1365 C553 1.647 . S
C1383 C625 1.529 . S
C1381 C162 1.510 . S
C1399 C173 1.923 . S
C1401 C589 2.020 . S
C1419 C337 1.900 . S
C1417 C184 1.879 . S
C1437 C397 2.001 . S
C1435 C195 1.928 . S
C1453 C206 1.574 . S
C1455 C265 1.647 . S
C1471 C217 1.512 . S
C1473 C325 1.490 . S
C1489 C228 1.873 . S
C1491 C517 1.905 . S
C1507 C239 1.922 . S
C1509 C445 2.019 . S
C1527 C409 1.647 . S
C1525 C250 1.572 . S
C1543 C261 1.510 . S
C1545 C481 1.526 . S
C1563 C295 1.365 . S
C1561 C7 1.425 . S
C1581 C331 1.410 . S
C1579 C18 1.512 . S
C1597 C29 1.389 . S
C1599 C367 1.345 . S
C1615 C40 1.112 . S
C1617 C403 1.083 . S
C1635 C439 1.357 . S
C1633 C51 1.416 . S
C1651 C62 1.111 . S
C1653 C475 1.103 . S
C1671 C511 1.429 . S
C1669 C73 1.511 . S
C1689 C547 1.345 . S
C1687 C84 1.388 . S
C1707 C583 1.360 . S
C1705 C95 1.418 . S
C1723 C106 1.111 . S
C1725 C619 1.103 . S
C1741 C117 1.509 . S
C1743 C655 1.427 . S
C1759 C128 1.384 . S
C1761 C691 1.341 . S
C1777 C139 1.269 . S
C1779 C727 1.333 . S
C1795 C150 1.290 . S
C1797 C763 1.380 . S
C1813 C161 1.234 . S
C1815 C799 1.303 . S
C1831 C172 1.020 . S
C1833 C835 1.079 . S
C1849 C183 1.271 . S
C1851 C871 1.334 . S
C1869 C907 1.076 . S
C1867 C194 1.017 . S
C1887 C943 1.383 . S
C1885 C205 1.293 . S
C1905 C979 1.304 . S
C1903 C216 1.235 . S
C1923 C1015 1.329 . S
C1921 C227 1.265 . S
C1939 C238 1.015 . S
C1941 C1051 1.074 . S
C1957 C249 1.292 . S
C1959 C1087 1.455 . S
C1975 C260 1.238 . S
C1977 C1123 1.362 . S
C1993 C5 1.522 . S
C1995 C577 1.821 . S
C2013 C685 1.787 . S
C2011 C16 1.508 . S
C2029 C27 1.335 1_545 S
C2031 C613 1.527 . S
C2049 C649 2.182 . S
C2047 C38 1.924 1_565 S
C2065 C49 1.524 . S
C2067 C289 1.827 . S
C2083 C60 1.933 1_556 S
C2085 C301 2.114 . S
C2101 C71 1.513 . S
C2103 C361 1.783 . S
C2119 C82 1.336 1_554 S
C2121 C373 1.503 . S
C2139 C433 1.822 . S
C2137 C93 1.524 . S
C2157 C505 2.182 . S
C2155 C104 1.925 1_655 S
C2173 C115 1.515 . S
C2175 C541 1.785 . S
C2191 C126 1.339 1_455 S
C2193 C469 1.533 . S
C2211 C1009 1.759 . S
C2209 C137 1.368 . S
C2229 C1093 1.787 . S
C2227 C148 1.221 . S
C2245 C159 1.167 . S
C2247 C1045 1.470 . S
C2265 C1057 2.177 . S
C2263 C170 1.524 . S
C2281 C181 1.372 . S
C2283 C721 1.761 . S
C2299 C192 1.522 . S
C2301 C757 2.096 . S
C2317 C203 1.223 . S
C2319 C793 1.705 . S
C2337 C829 1.479 . S
C2335 C214 1.164 . S
C2355 C865 1.762 . S
C2353 C225 1.372 . S
C2373 C937 2.099 . S
C2371 C236 1.525 . S
C2389 C247 1.227 . S
C2391 C973 1.708 . S
C2409 C901 1.476 . S
C2407 C258 1.163 . S
