# Generated by pormake.
# Topology pyr, (3,6)-cn, num edge types: 1
# Building blocks:
#     Node 0, Type 0, BuildingBlock: KAKCAD_clean_linker_0, # of connection points: 3
#     Node 1, Type 0, BuildingBlock: KAKCAD_clean_linker_0, # of connection points: 3
#     Node 2, Type 0, BuildingBlock: KAKCAD_clean_linker_0, # of connection points: 3
#     Node 3, Type 0, BuildingBlock: KAKCAD_clean_linker_0, # of connection points: 3
#     Node 4, Type 0, BuildingBlock: KAKCAD_clean_linker_0, # of connection points: 3
#     Node 5, Type 0, BuildingBlock: KAKCAD_clean_linker_0, # of connection points: 3
#     Node 6, Type 0, BuildingBlock: KAKCAD_clean_linker_0, # of connection points: 3
#     Node 7, Type 0, BuildingBlock: KAKCAD_clean_linker_0, # of connection points: 3
#     Node 8, Type 1, BuildingBlock: BETGAK_clean_sbu_0, # of connection points: 6
#     Node 9, Type 1, BuildingBlock: BETGAK_clean_sbu_0, # of connection points: 6
#     Node 10, Type 1, BuildingBlock: BETGAK_clean_sbu_0, # of connection points: 6
#     Node 11, Type 1, BuildingBlock: BETGAK_clean_sbu_0, # of connection points: 6
#     Edge 12, Type (0, 1), BuildingBlock: MIFKUJ_clean_linker_0, # of connection points: 2
#     Edge 13, Type (0, 1), BuildingBlock: MIFKUJ_clean_linker_0, # of connection points: 2
#     Edge 14, Type (0, 1), BuildingBlock: MIFKUJ_clean_linker_0, # of connection points: 2
#     Edge 15, Type (0, 1), BuildingBlock: MIFKUJ_clean_linker_0, # of connection points: 2
#     Edge 16, Type (0, 1), BuildingBlock: MIFKUJ_clean_linker_0, # of connection points: 2
#     Edge 17, Type (0, 1), BuildingBlock: MIFKUJ_clean_linker_0, # of connection points: 2
#     Edge 18, Type (0, 1), BuildingBlock: MIFKUJ_clean_linker_0, # of connection points: 2
#     Edge 19, Type (0, 1), BuildingBlock: MIFKUJ_clean_linker_0, # of connection points: 2
#     Edge 20, Type (0, 1), BuildingBlock: MIFKUJ_clean_linker_0, # of connection points: 2
#     Edge 21, Type (0, 1), BuildingBlock: MIFKUJ_clean_linker_0, # of connection points: 2
#     Edge 22, Type (0, 1), BuildingBlock: MIFKUJ_clean_linker_0, # of connection points: 2
#     Edge 23, Type (0, 1), BuildingBlock: MIFKUJ_clean_linker_0, # of connection points: 2
#     Edge 24, Type (0, 1), BuildingBlock: MIFKUJ_clean_linker_0, # of connection points: 2
#     Edge 25, Type (0, 1), BuildingBlock: MIFKUJ_clean_linker_0, # of connection points: 2
#     Edge 26, Type (0, 1), BuildingBlock: MIFKUJ_clean_linker_0, # of connection points: 2
#     Edge 27, Type (0, 1), BuildingBlock: MIFKUJ_clean_linker_0, # of connection points: 2
#     Edge 28, Type (0, 1), BuildingBlock: MIFKUJ_clean_linker_0, # of connection points: 2
#     Edge 29, Type (0, 1), BuildingBlock: MIFKUJ_clean_linker_0, # of connection points: 2
#     Edge 30, Type (0, 1), BuildingBlock: MIFKUJ_clean_linker_0, # of connection points: 2
#     Edge 31, Type (0, 1), BuildingBlock: MIFKUJ_clean_linker_0, # of connection points: 2
#     Edge 32, Type (0, 1), BuildingBlock: MIFKUJ_clean_linker_0, # of connection points: 2
#     Edge 33, Type (0, 1), BuildingBlock: MIFKUJ_clean_linker_0, # of connection points: 2
#     Edge 34, Type (0, 1), BuildingBlock: MIFKUJ_clean_linker_0, # of connection points: 2
#     Edge 35, Type (0, 1), BuildingBlock: MIFKUJ_clean_linker_0, # of connection points: 2
# Relax obj value: 0.071
# Max RMSD: 0.113
# Mean RMSD: 0.053
data_MOF--net-pyr--node1-BETGAK_clean_sbu_0--node2-KAKCAD_clean_linker_0--edge1-MIFKUJ_clean_linker_0
_symmetry_space_group_name_H-M    P1
_symmetry_Int_Tables_number       1
_symmetry_cell_setting            triclinic
loop_
_symmetry_equiv_pos_as_xyz
'x, y, z'
_cell_length_a     57.958604
_cell_length_b     61.31816
_cell_length_c     56.230328
_cell_angle_alpha  91.859773
_cell_angle_beta   88.643638
_cell_angle_gamma 98.234302
loop_
_atom_site_label
_atom_site_type_symbol
_atom_site_fract_x
_atom_site_fract_y
_atom_site_fract_z
_atom_type_partial_charge
C0 C 0.2335 0.22994 0.28837 0.0
C1 C 0.24648 0.22127 0.30555 0.0
C2 C 0.24392 0.23727 0.26696 0.0
C3 C 0.26777 0.23649 0.26229 0.0
C4 C 0.28091 0.22819 0.27978 0.0
C5 C 0.2703 0.22045 0.30113 0.0
C6 C 0.27829 0.24339 0.23878 0.0
C7 C 0.27031 0.26053 0.22681 0.0
C8 C 0.27734 0.26518 0.20326 0.0
C9 C 0.29388 0.2535 0.19205 0.0
C10 C 0.30265 0.23663 0.20389 0.0
C11 C 0.29467 0.23166 0.22721 0.0
C12 C 0.31869 0.22299 0.19139 0.0
C13 C 0.31481 0.21572 0.16766 0.0
C14 C 0.33739 0.21632 0.2034 0.0
C15 C 0.35162 0.2024 0.19208 0.0
C16 C 0.34746 0.19481 0.16849 0.0
C17 C 0.26543 0.28064 0.18987 0.0
C18 C 0.241 0.27891 0.19121 0.0
C19 C 0.27798 0.29688 0.17566 0.0
C20 C 0.26624 0.31133 0.16332 0.0
C21 C 0.24177 0.30952 0.16471 0.0
C22 C 0.22933 0.29315 0.17879 0.0
C23 C 0.32903 0.20181 0.15635 0.0
H24 H 0.21496 0.23021 0.29106 0.0
H25 H 0.23297 0.24285 0.25376 0.0
H26 H 0.29934 0.22752 0.27693 0.0
H27 H 0.28062 0.21371 0.31412 0.0
H28 H 0.25801 0.27002 0.23559 0.0
H29 H 0.30027 0.21782 0.23583 0.0
H30 H 0.29933 0.25705 0.17385 0.0
H31 H 0.30039 0.22031 0.15797 0.0
H32 H 0.34095 0.22177 0.22163 0.0
H33 H 0.36554 0.19718 0.20201 0.0
H34 H 0.23083 0.26636 0.20175 0.0
H35 H 0.29682 0.29855 0.17434 0.0
H36 H 0.32553 0.1965 0.13806 0.0
H37 H 0.21051 0.2915 0.18045 0.0
H38 H 0.27624 0.32376 0.1525 0.0
C39 C 0.34738 0.90183 0.66764 0.0
C40 C 0.37053 0.89916 0.67222 0.0
C41 C 0.33845 0.89789 0.64487 0.0
C42 C 0.35249 0.8914 0.62597 0.0
C43 C 0.37564 0.88865 0.63048 0.0
C44 C 0.38459 0.89251 0.65338 0.0
C45 C 0.34268 0.88733 0.60179 0.0
C46 C 0.32746 0.90105 0.59331 0.0
C47 C 0.31609 0.89618 0.57163 0.0
C48 C 0.32094 0.87786 0.55778 0.0
C49 C 0.33643 0.86414 0.5657 0.0
C50 C 0.34722 0.869 0.58777 0.0
C51 C 0.34026 0.84398 0.55168 0.0
C52 C 0.32152 0.83066 0.5406 0.0
C53 C 0.36252 0.83747 0.54999 0.0
C54 C 0.36584 0.81775 0.5382 0.0
C55 C 0.34699 0.80413 0.52764 0.0
C56 C 0.29771 0.90907 0.56444 0.0
C57 C 0.28182 0.91569 0.58154 0.0
C58 C 0.29497 0.91372 0.54043 0.0
C59 C 0.27631 0.92407 0.5336 0.0
C60 C 0.26006 0.9301 0.55066 0.0
C61 C 0.26332 0.92618 0.57475 0.0
C62 C 0.32487 0.811 0.52864 0.0
H63 H 0.33615 0.90727 0.68161 0.0
H64 H 0.32042 0.8998 0.64215 0.0
H65 H 0.38693 0.88375 0.61626 0.0
H66 H 0.40244 0.89015 0.65635 0.0
H67 H 0.32423 0.91548 0.6038 0.0
H68 H 0.35828 0.8579 0.59458 0.0
H69 H 0.31215 0.8739 0.54108 0.0
H70 H 0.30408 0.83504 0.54176 0.0
H71 H 0.37737 0.84748 0.55808 0.0
H72 H 0.38306 0.81284 0.53812 0.0
H73 H 0.28319 0.91214 0.60015 0.0
H74 H 0.30707 0.90908 0.52685 0.0
H75 H 0.31003 0.80101 0.52052 0.0
H76 H 0.25136 0.93095 0.58839 0.0
H77 H 0.27423 0.92673 0.51488 0.0
C78 C 0.73263 0.40909 0.87661 0.0
C79 C 0.75042 0.39732 0.88407 0.0
C80 C 0.71208 0.39835 0.86564 0.0
C81 C 0.70801 0.37523 0.86182 0.0
C82 C 0.72567 0.36343 0.86925 0.0
C83 C 0.74635 0.37416 0.87991 0.0
C84 C 0.68555 0.36349 0.85048 0.0
C85 C 0.67514 0.37272 0.83124 0.0
C86 C 0.65419 0.36228 0.82042 0.0
C87 C 0.64377 0.34158 0.8298 0.0
C88 C 0.65368 0.33148 0.84903 0.0
C89 C 0.67451 0.34296 0.85896 0.0
C90 C 0.64262 0.30911 0.85913 0.0
C91 C 0.61823 0.30213 0.85985 0.0
C92 C 0.65648 0.29447 0.86887 0.0
C93 C 0.64661 0.27431 0.87914 0.0
C94 C 0.62223 0.26745 0.88025 0.0
C95 C 0.64364 0.3731 0.79938 0.0
C96 C 0.64771 0.3962 0.79618 0.0
C97 C 0.62968 0.36074 0.78187 0.0
C98 C 0.62055 0.37086 0.76235 0.0
C99 C 0.6249 0.39397 0.75902 0.0
C100 C 0.6388 0.40626 0.77661 0.0
C101 C 0.60832 0.28187 0.87013 0.0
H102 H 0.73421 0.42674 0.87957 0.0
H103 H 0.69905 0.40826 0.8606 0.0
H104 H 0.72374 0.34571 0.86646 0.0
H105 H 0.75931 0.36406 0.88455 0.0
H106 H 0.68401 0.38795 0.82423 0.0
H107 H 0.68196 0.33617 0.87404 0.0
H108 H 0.62787 0.33322 0.82211 0.0
H109 H 0.60656 0.31258 0.85296 0.0
H110 H 0.67529 0.29838 0.86839 0.0
H111 H 0.65838 0.26392 0.88595 0.0
H112 H 0.65776 0.40692 0.80899 0.0
H113 H 0.62593 0.343 0.7829 0.0
H114 H 0.58953 0.27782 0.87055 0.0
H115 H 0.64327 0.42391 0.77534 0.0
H116 H 0.60982 0.36029 0.74994 0.0
C117 C 0.87122 0.64879 0.26089 0.0
C118 C 0.89544 0.64811 0.25889 0.0
C119 C 0.86127 0.65855 0.28106 0.0
C120 C 0.87517 0.66845 0.29988 0.0
C121 C 0.89943 0.66808 0.29773 0.0
C122 C 0.90933 0.65793 0.27777 0.0
C123 C 0.86437 0.67875 0.3217 0.0
C124 C 0.84362 0.66797 0.33248 0.0
C125 C 0.83327 0.67699 0.35297 0.0
C126 C 0.84422 0.69749 0.36243 0.0
C127 C 0.86482 0.7091 0.35219 0.0
C128 C 0.87472 0.69926 0.33184 0.0
C129 C 0.8757 0.73139 0.36294 0.0
C130 C 0.86194 0.74535 0.37562 0.0
C131 C 0.89991 0.73895 0.36115 0.0
C132 C 0.90982 0.75931 0.37174 0.0
C133 C 0.89603 0.77276 0.38495 0.0
C134 C 0.81111 0.66516 0.36465 0.0
C135 C 0.79373 0.65195 0.35129 0.0
C136 C 0.80681 0.66722 0.38941 0.0
C137 C 0.78603 0.65698 0.40022 0.0
C138 C 0.76859 0.64381 0.38691 0.0
C139 C 0.77302 0.64144 0.36217 0.0
C140 C 0.87191 0.76538 0.38662 0.0
H141 H 0.85978 0.64137 0.24699 0.0
H142 H 0.84258 0.65853 0.28178 0.0
H143 H 0.91082 0.67532 0.31175 0.0
H144 H 0.92803 0.65801 0.27701 0.0
H145 H 0.83594 0.65209 0.32523 0.0
H146 H 0.89019 0.70784 0.32332 0.0
H147 H 0.83652 0.7045 0.37803 0.0
H148 H 0.84321 0.74106 0.37701 0.0
H149 H 0.91148 0.72898 0.35197 0.0
H150 H 0.92847 0.76428 0.37008 0.0
H151 H 0.79587 0.6499 0.33222 0.0
H152 H 0.81962 0.67669 0.40076 0.0
H153 H 0.86056 0.77534 0.3962 0.0
H154 H 0.76057 0.63129 0.35101 0.0
H155 H 0.78364 0.65978 0.41915 0.0
C156 C 0.78463 0.80644 0.75317 0.0
C157 C 0.79297 0.82913 0.7543 0.0
C158 C 0.76835 0.7971 0.77005 0.0
C159 C 0.76006 0.81026 0.78839 0.0
C160 C 0.76778 0.83308 0.78893 0.0
C161 C 0.78397 0.84239 0.77206 0.0
C162 C 0.74487 0.8002 0.80798 0.0
C163 C 0.74968 0.7808 0.81822 0.0
C164 C 0.73756 0.77268 0.83876 0.0
C165 C 0.72033 0.78415 0.84906 0.0
C166 C 0.71492 0.8033 0.83871 0.0
C167 C 0.72706 0.81104 0.81805 0.0
C168 C 0.69797 0.81637 0.85034 0.0
C169 C 0.68098 0.82433 0.83692 0.0
C170 C 0.69987 0.8224 0.87461 0.0
C171 C 0.68566 0.83679 0.88502 0.0
C172 C 0.66908 0.84521 0.87145 0.0
C173 C 0.74444 0.75324 0.85029 0.0
C174 C 0.74815 0.73445 0.83658 0.0
C175 C 0.74919 0.75404 0.8747 0.0
C176 C 0.75854 0.73685 0.88496 0.0
C177 C 0.76317 0.71841 0.87105 0.0
C178 C 0.75729 0.71718 0.84686 0.0
C179 C 0.66655 0.83849 0.84742 0.0
H180 H 0.7913 0.79575 0.73977 0.0
H181 H 0.76257 0.77951 0.769 0.0
H182 H 0.76202 0.8437 0.80294 0.0
H183 H 0.78974 0.85999 0.77319 0.0
H184 H 0.76388 0.77268 0.81109 0.0
H185 H 0.72325 0.82608 0.81035 0.0
H186 H 0.71114 0.77818 0.86512 0.0
H187 H 0.67913 0.81986 0.81819 0.0
H188 H 0.71296 0.81665 0.88531 0.0
H189 H 0.68782 0.84157 0.90365 0.0
H190 H 0.74437 0.73332 0.81777 0.0
H191 H 0.74675 0.76843 0.88563 0.0
H192 H 0.65397 0.84482 0.83653 0.0
H193 H 0.76017 0.70304 0.83573 0.0
H194 H 0.76314 0.73854 0.90355 0.0
C195 C 0.67255 0.10538 0.37581 0.0
C196 C 0.66688 0.11973 0.35859 0.0
C197 C 0.67957 0.11354 0.3984 0.0
C198 C 0.68071 0.13613 0.4042 0.0
C199 C 0.67465 0.15037 0.38707 0.0
C200 C 0.66789 0.14227 0.36447 0.0
C201 C 0.68885 0.14511 0.42777 0.0
C202 C 0.70935 0.13955 0.43712 0.0
C203 C 0.71816 0.14928 0.45863 0.0
C204 C 0.70619 0.16482 0.47074 0.0
C205 C 0.68562 0.1706 0.46155 0.0
C206 C 0.67692 0.16033 0.44025 0.0
C207 C 0.67374 0.1881 0.47336 0.0
C208 C 0.67204 0.19025 0.49834 0.0
C209 C 0.66408 0.20301 0.45944 0.0
C210 C 0.65251 0.21926 0.4701 0.0
C211 C 0.65061 0.22127 0.49495 0.0
C212 C 0.74032 0.14368 0.46782 0.0
C213 C 0.74509 0.12185 0.46617 0.0
C214 C 0.75713 0.16012 0.47763 0.0
C215 C 0.77829 0.15484 0.48548 0.0
C216 C 0.78313 0.13302 0.48358 0.0
C217 C 0.76627 0.11661 0.47382 0.0
C218 C 0.6607 0.20684 0.50906 0.0
H219 H 0.672 0.08794 0.37165 0.0
H220 H 0.68406 0.10222 0.41135 0.0
H221 H 0.6756 0.16789 0.391 0.0
H222 H 0.6634 0.15364 0.35158 0.0
H223 H 0.71896 0.1283 0.42707 0.0
H224 H 0.66081 0.16423 0.43319 0.0
H225 H 0.71311 0.17268 0.48711 0.0
H226 H 0.67916 0.17897 0.50959 0.0
H227 H 0.66566 0.20235 0.44021 0.0
H228 H 0.64533 0.23054 0.45885 0.0
H229 H 0.73243 0.10875 0.45893 0.0
H230 H 0.75413 0.17716 0.47887 0.0
H231 H 0.65947 0.20818 0.52829 0.0
H232 H 0.76953 0.09969 0.47175 0.0
H233 H 0.79079 0.16783 0.49314 0.0
C234 C 0.27686 0.64967 0.17533 0.0
C235 C 0.27217 0.65226 0.15107 0.0
C236 C 0.29767 0.66023 0.18599 0.0
C237 C 0.31499 0.67381 0.1729 0.0
C238 C 0.31035 0.67609 0.14854 0.0
C239 C 0.28948 0.66572 0.13797 0.0
C240 C 0.33751 0.6856 0.18436 0.0
C241 C 0.34773 0.67677 0.20406 0.0
C242 C 0.36869 0.68735 0.21471 0.0
C243 C 0.3796 0.70754 0.20469 0.0
C244 C 0.37004 0.71715 0.18495 0.0
C245 C 0.34893 0.70588 0.17546 0.0
C246 C 0.3816 0.73891 0.17393 0.0
C247 C 0.39361 0.75657 0.18762 0.0
C248 C 0.38014 0.74258 0.14928 0.0
C249 C 0.38966 0.76281 0.13898 0.0
C250 C 0.40129 0.78067 0.15266 0.0
C251 C 0.37895 0.67701 0.23611 0.0
C252 C 0.36444 0.66592 0.25389 0.0
C253 C 0.40325 0.67759 0.23901 0.0
C254 C 0.41247 0.66733 0.25836 0.0
C255 C 0.39792 0.65623 0.27613 0.0
C256 C 0.37365 0.65596 0.27339 0.0
C257 C 0.40315 0.7769 0.17728 0.0
H258 H 0.26416 0.63977 0.18638 0.0
H259 H 0.29986 0.658 0.20476 0.0
H260 H 0.32304 0.68571 0.13724 0.0
H261 H 0.28716 0.66802 0.11922 0.0
H262 H 0.33969 0.66112 0.2108 0.0
H263 H 0.34089 0.71339 0.16127 0.0
H264 H 0.39559 0.71581 0.21232 0.0
H265 H 0.39519 0.75496 0.2066 0.0
H266 H 0.37173 0.72961 0.1376 0.0
H267 H 0.38808 0.7642 0.11998 0.0
H268 H 0.3457 0.66504 0.25293 0.0
H269 H 0.41533 0.68567 0.22598 0.0
H270 H 0.41159 0.78989 0.18891 0.0
H271 H 0.36149 0.64762 0.28618 0.0
H272 H 0.43121 0.66836 0.25947 0.0
C273 C 0.15701 0.28317 0.65507 0.0
C274 C 0.13281 0.27796 0.65149 0.0
C275 C 0.16677 0.3037 0.66517 0.0
C276 C 0.15274 0.31983 0.67243 0.0
C277 C 0.12848 0.31452 0.66925 0.0
C278 C 0.11873 0.29407 0.65879 0.0
C279 C 0.1636 0.34212 0.68263 0.0
C280 C 0.18439 0.35314 0.67235 0.0
C281 C 0.19557 0.37366 0.68152 0.0
C282 C 0.1851 0.38322 0.70165 0.0
C283 C 0.16409 0.37292 0.71249 0.0
C284 C 0.15355 0.35236 0.70254 0.0
C285 C 0.15339 0.3836 0.73425 0.0
C286 C 0.16746 0.39613 0.75144 0.0
C287 C 0.12899 0.38158 0.73813 0.0
C288 C 0.11916 0.39174 0.75813 0.0
C289 C 0.13326 0.40443 0.77519 0.0
C290 C 0.21807 0.38495 0.66995 0.0
C291 C 0.23404 0.37258 0.65829 0.0
C292 C 0.22388 0.40816 0.67012 0.0
C293 C 0.24459 0.41846 0.65906 0.0
C294 C 0.26019 0.40602 0.64707 0.0
C295 C 0.2545 0.38288 0.64694 0.0
C296 C 0.15764 0.40633 0.77138 0.0
H297 H 0.16861 0.27149 0.64963 0.0
H298 H 0.18547 0.30688 0.66743 0.0
H299 H 0.117 0.32639 0.6744 0.0
H300 H 0.10003 0.29079 0.65662 0.0
H301 H 0.19156 0.3458 0.65658 0.0
H302 H 0.13786 0.34389 0.71078 0.0
H303 H 0.19337 0.39884 0.70896 0.0
H304 H 0.18627 0.39788 0.74978 0.0
H305 H 0.1173 0.37246 0.72541 0.0
H306 H 0.10036 0.38995 0.75992 0.0
H307 H 0.23098 0.35475 0.65807 0.0
H308 H 0.21222 0.41858 0.67838 0.0
H309 H 0.16934 0.41545 0.78407 0.0
H310 H 0.26613 0.3726 0.63832 0.0
H311 H 0.2481 0.43629 0.65945 0.0
La312 La 0.01227 0.0345 0.49675 0.0
La313 La 0.01719 1.01392 0.54339 0.0
C314 C 1.00493 0.05945 0.46394 0.0
C315 C 0.02009 0.07799 0.45311 0.0
C316 C 0.02407 0.07746 0.42842 0.0
C317 C 0.04235 0.09168 0.41826 0.0
C318 C 0.05681 0.10679 0.43262 0.0
C319 C 0.05167 0.1085 0.45708 0.0
C320 C 0.03353 0.09411 0.46728 0.0
C321 C 0.05075 1.01684 0.50094 0.0
C322 C 0.03653 0.0642 0.54064 0.0
C323 C 0.02476 0.98903 0.5762 0.0
C324 C 0.01028 0.9698 0.58625 0.0
C325 C 0.98817 0.96249 0.57696 0.0
C326 C 0.9729 0.94629 0.58842 0.0
C327 C 0.97942 0.9372 0.60945 0.0
C328 C 1.00202 0.94392 0.6181 0.0
C329 C 0.01732 0.96015 0.60658 0.0
C330 C 0.9792 0.03223 0.53922 0.0
C331 C 0.99275 0.98426 0.49939 0.0
O332 O 0.01216 0.04038 0.46028 0.0
O333 O 0.99792 0.0622 0.48602 0.0
O334 O 0.04039 1.01798 0.48107 0.0
O335 O 0.04107 0.02731 0.51681 0.0
O336 O 0.02492 0.06349 0.5204 0.0
O337 O 0.03928 0.04559 0.55098 0.0
O338 O 0.01633 1.00755 0.57977 0.0
O339 O 0.0322 0.98667 0.55422 0.0
O340 O 0.98995 0.0316 0.55899 0.0
O341 O 0.98855 0.02132 0.52348 0.0
O342 O 1.00347 0.98492 0.52015 0.0
O343 O 0.99085 1.00278 0.48851 0.0
H344 H 0.01394 0.06514 0.41718 0.0
H345 H 0.04581 0.09025 0.39929 0.0
H346 H 0.0626 0.11998 0.46854 0.0
H347 H 0.03091 0.09485 0.48638 0.0
H348 H 0.98232 0.97 0.56145 0.0
H349 H 0.95554 0.94178 0.58147 0.0
H350 H 1.00765 0.93705 0.63412 0.0
H351 H 0.03431 0.96569 0.61401 0.0
La352 La 0.53206 0.03066 0.03095 0.0
La353 La 0.48818 1.01707 0.99898 0.0
C354 C 0.56831 0.0508 0.0495 0.0
C355 C 0.5776 0.05357 0.07366 0.0
C356 C 0.57613 0.03572 0.08893 0.0
C357 C 0.58449 0.03889 0.11206 0.0
C358 C 0.59426 0.06 0.12041 0.0
C359 C 0.59565 0.0778 0.105 0.0
C360 C 0.58746 0.07457 0.08183 0.0
C361 C 0.50585 0.99334 0.04728 0.0
C362 C 0.48412 0.04675 0.04541 0.0
C363 C 0.45278 0.99543 0.98025 0.0
C364 C 0.44621 0.98863 0.9558 0.0
C365 C 0.45577 1.00092 0.93642 0.0
C366 C 0.45058 0.9934 0.91317 0.0
C367 C 0.43595 0.97334 0.90892 0.0
C368 C 0.42642 0.96114 0.92848 0.0
C369 C 0.4315 0.96876 0.95171 0.0
C370 C 0.51451 0.0545 0.9829 0.0
C371 C 0.53615 1.00185 0.98363 0.0
O372 O 0.56708 0.03104 0.03951 0.0
O373 O 0.54962 0.05996 0.04603 0.0
O374 O 0.52491 1.0034 0.05655 0.0
O375 O 0.50257 1.00514 0.02984 0.0
O376 O 0.5071 0.05024 0.04711 0.0
O377 O 0.47312 0.03223 0.03009 0.0
O378 O 0.45458 1.01658 0.98567 0.0
O379 O 0.47008 0.98642 0.98834 0.0
O380 O 0.49544 0.04452 0.97354 0.0
O381 O 0.51775 0.04256 1.00021 0.0
O382 O 0.51324 0.99844 0.98167 0.0
O383 O 0.54699 1.01609 0.99931 0.0
H384 H 0.56844 0.01934 0.08306 0.0
H385 H 0.58339 0.02479 0.12335 0.0
H386 H 0.60264 0.09434 0.11097 0.0
H387 H 0.58856 0.08856 0.07036 0.0
H388 H 0.46742 1.01621 0.93924 0.0
H389 H 0.45798 1.00335 0.89855 0.0
H390 H 0.41542 0.94546 0.92588 0.0
H391 H 0.42428 0.95891 0.96649 0.0
La392 La 0.51564 0.50643 0.50022 0.0
La393 La 0.51135 0.54302 0.53094 0.0
C394 C 0.53239 0.47594 0.47781 0.0
C395 C 0.54056 0.45587 0.4857 0.0
C396 C 0.53288 0.44682 0.5076 0.0
C397 C 0.54261 0.42916 0.51627 0.0
C398 C 0.5601 0.4202 0.50311 0.0
C399 C 0.56731 0.42905 0.48089 0.0
C400 C 0.5577 0.44682 0.47234 0.0
C401 C 0.47399 0.50268 0.522 0.0
C402 C 0.53314 0.50541 0.55514 0.0
C403 C 0.49507 0.57373 0.55341 0.0
C404 C 0.4781 0.58791 0.54649 0.0
C405 C 0.48256 0.61064 0.55135 0.0
C406 C 0.46767 0.62455 0.54298 0.0
C407 C 0.44808 0.61592 0.52957 0.0
C408 C 0.44339 0.59307 0.52514 0.0
C409 C 0.4583 0.57919 0.53345 0.0
C410 C 0.55288 0.54622 0.50888 0.0
C411 C 0.49337 0.5438 0.47669 0.0
O412 O 0.51001 0.4767 0.48019 0.0
O413 O 0.54486 0.49426 0.48516 0.0
O414 O 0.47777 0.49672 0.50009 0.0
O415 O 0.4935 0.50992 0.53114 0.0
O416 O 0.53177 0.49616 0.53334 0.0
O417 O 0.52517 0.52443 0.55907 0.0
O418 O 0.51493 0.5765 0.54167 0.0
O419 O 0.487 0.55287 0.55573 0.0
O420 O 0.54948 0.5515 0.53108 0.0
O421 O 0.53321 0.53959 0.49984 0.0
O422 O 0.49102 0.55053 0.49927 0.0
O423 O 0.50543 0.52731 0.47208 0.0
H424 H 0.51967 0.45367 0.51821 0.0
H425 H 0.53675 0.42283 0.53347 0.0
H426 H 0.58033 0.42219 0.47001 0.0
H427 H 0.56388 0.45368 0.45545 0.0
H428 H 0.49777 0.61766 0.5613 0.0
H429 H 0.47148 0.64206 0.54705 0.0
H430 H 0.42851 0.58599 0.51474 0.0
H431 H 0.45457 0.56169 0.52925 0.0
La432 La 0.01499 0.50387 0.0266 0.0
La433 La 0.0102 0.54715 1.00367 0.0
C434 C 0.03005 0.46793 0.03169 0.0
C435 C 0.04697 0.45918 0.04667 0.0
C436 C 0.04021 0.43953 0.05864 0.0
C437 C 0.05664 0.42966 0.0707 0.0
C438 C 0.08027 0.43912 0.07075 0.0
C439 C 0.08679 0.45928 0.05948 0.0
C440 C 0.07032 0.46926 0.04767 0.0
C441 C 0.99654 0.53015 0.05892 0.0
C442 C 0.05447 0.54633 0.03586 0.0
C443 C 0.99588 0.58162 0.99054 0.0
C444 C 0.97349 0.58755 0.98288 0.0
C445 C 0.96048 0.57533 0.96489 0.0
C446 C 0.93972 0.58177 0.95737 0.0
C447 C 0.93149 0.60037 0.96786 0.0
C448 C 0.94424 0.61222 0.98624 0.0
C449 C 0.9651 0.6059 0.9936 0.0
C450 C 0.03521 0.52081 0.97861 0.0
C451 C 0.96855 0.5057 0.99763 0.0
O452 O 0.01074 0.47264 0.04204 0.0
O453 O 0.03883 0.48275 0.0164 0.0
O454 O 1.0011 0.51047 0.06281 0.0
O455 O 1.00254 0.53377 0.03745 0.0
O456 O 0.04842 0.52453 0.0365 0.0
O457 O 0.04107 0.55888 0.02529 0.0
O458 O 1.00604 0.56849 0.97624 0.0
O459 O 0.99685 0.57647 1.01287 0.0
O460 O 0.03998 0.54216 0.98018 0.0
O461 O 0.01666 0.51517 0.99071 0.0
O462 O 0.976 0.52712 0.99491 0.0
O463 O 0.98144 0.4931 1.00887 0.0
H464 H 0.0223 0.43151 0.05818 0.0
H465 H 0.05087 0.41439 0.07962 0.0
H466 H 0.10481 0.46697 0.05889 0.0
H467 H 0.0761 0.48449 0.03868 0.0
H468 H 0.96641 0.56093 0.95648 0.0
H469 H 0.9301 0.57221 0.94334 0.0
H470 H 0.93842 0.62674 0.99447 0.0
H471 H 0.97483 0.61551 1.00753 0.0
H472 H 0.24722 0.18005 0.32173 0.0
H473 H 0.21965 0.16067 0.35029 0.0
H474 H 0.19014 0.22045 0.36524 0.0
H475 H 0.21758 0.23986 0.33658 0.0
H476 H 0.19116 0.19023 0.40623 0.0
H477 H 0.16698 0.19229 0.32354 0.0
H478 H 0.17327 0.1867 0.28037 0.0
H479 H 0.17761 0.11829 0.29048 0.0
H480 H 0.1718 0.12362 0.3338 0.0
H481 H 0.07325 0.15081 0.43792 0.0
H482 H 0.10969 0.17044 0.42147 0.0
H483 H 0.12613 0.10945 0.38941 0.0
H484 H 0.08953 0.09005 0.40515 0.0
H485 H 0.13413 0.13948 0.35881 0.0
H486 H 0.15442 0.13463 0.43985 0.0
H487 H 0.14994 0.13856 0.48342 0.0
H488 H 0.15483 0.20877 0.47806 0.0
H489 H 0.15902 0.20524 0.43439 0.0
C490 C 0.23545 0.18923 0.33178 0.0
C491 C 0.2343 0.21135 0.32684 0.0
C492 C 0.21972 0.17817 0.34805 0.0
C493 C 0.2028 0.18914 0.35966 0.0
C494 C 0.20314 0.21176 0.35649 0.0
C495 C 0.21868 0.22277 0.34003 0.0
C496 C 0.18235 0.17639 0.37141 0.0
C497 C 0.17857 0.17919 0.39597 0.0
C498 C 0.16628 0.16171 0.35798 0.0
C499 C 0.16921 0.15841 0.3319 0.0
C500 C 0.16945 0.1761 0.31657 0.0
C501 C 0.17291 0.17298 0.29208 0.0
C502 C 0.17589 0.15216 0.28269 0.0
C503 C 0.17534 0.13441 0.29778 0.0
C504 C 0.17196 0.13748 0.3223 0.0
C505 C 0.0847 0.14168 0.42734 0.0
C506 C 0.07852 0.11901 0.42256 0.0
C507 C 0.10558 0.15284 0.41811 0.0
C508 C 0.12082 0.14138 0.40442 0.0
C509 C 0.11465 0.11868 0.39984 0.0
C510 C 0.09369 0.10763 0.40874 0.0
C511 C 0.1427 0.15309 0.3939 0.0
C512 C 0.14672 0.15025 0.36936 0.0
C513 C 0.1591 0.16739 0.40751 0.0
C514 C 0.15682 0.16965 0.4338 0.0
C515 C 0.15438 0.1509 0.44794 0.0
C516 C 0.15191 0.15306 0.47266 0.0
C517 C 0.15203 0.17389 0.4835 0.0
C518 C 0.15471 0.19263 0.46963 0.0
C519 C 0.15716 0.19057 0.44489 0.0
H520 H 0.15009 0.17552 0.50264 0.0
H521 H 0.17857 0.14977 0.26373 0.0
H522 H 0.41379 0.92011 0.6848 0.0
H523 H 0.42746 0.93085 0.72495 0.0
H524 H 0.36189 0.90031 0.75459 0.0
H525 H 0.34835 0.8889 0.71472 0.0
H526 H 0.37482 0.94464 0.76927 0.0
H527 H 0.40792 0.87679 0.76206 0.0
H528 H 0.43203 0.8508 0.74316 0.0
H529 H 0.49305 0.89911 0.75031 0.0
H530 H 0.46924 0.92552 0.76895 0.0
H531 H 0.39438 0.95268 0.89181 0.0
H532 H 0.38583 0.93888 0.85139 0.0
H533 H 0.4566 0.96231 0.82931 0.0
H534 H 0.46569 0.97514 0.8701 0.0
H535 H 0.44295 0.92301 0.8096 0.0
H536 H 0.41165 0.99075 0.81662 0.0
H537 H 0.38865 1.01812 0.83457 0.0
H538 H 0.32579 0.97237 0.82616 0.0
H539 H 0.34845 0.94459 0.80845 0.0
C540 C 0.40248 0.91524 0.69988 0.0
C541 C 0.37987 0.90385 0.69652 0.0
C542 C 0.41029 0.92146 0.72279 0.0
C543 C 0.39562 0.91644 0.74265 0.0
C544 C 0.37339 0.90447 0.73942 0.0
C545 C 0.36565 0.89808 0.71662 0.0
C546 C 0.40269 0.9249 0.76669 0.0
C547 C 0.38953 0.93971 0.77825 0.0
C548 C 0.42242 0.91907 0.7779 0.0
C549 C 0.43674 0.90322 0.76665 0.0
C550 C 0.42644 0.88196 0.75938 0.0
C551 C 0.44006 0.86713 0.74877 0.0
C552 C 0.46404 0.87333 0.74547 0.0
C553 C 0.47447 0.89435 0.75283 0.0
C554 C 0.46091 0.90925 0.76344 0.0
C555 C 0.40824 0.95467 0.87847 0.0
C556 C 0.43071 0.96512 0.88421 0.0
C557 C 0.40325 0.94699 0.85528 0.0
C558 C 0.42047 0.9499 0.83723 0.0
C559 C 0.44301 0.96001 0.84293 0.0
C560 C 0.44809 0.96755 0.8662 0.0
C561 C 0.4148 0.94249 0.81242 0.0
C562 C 0.42826 0.92799 0.80065 0.0
C563 C 0.39551 0.94884 0.8008 0.0
C564 C 0.38179 0.96552 0.8114 0.0
C565 C 0.39294 0.98646 0.81876 0.0
C566 C 0.37996 1.00206 0.82887 0.0
C567 C 0.35578 0.99697 0.83155 0.0
C568 C 0.34452 0.97628 0.82409 0.0
C569 C 0.35742 0.96061 0.814 0.0
H570 H 0.34576 1.00907 0.83937 0.0
H571 H 0.47456 0.86182 0.73726 0.0
H572 H 0.61707 0.43794 0.75416 0.0
H573 H 0.60308 0.45568 0.72047 0.0
H574 H 0.59454 0.39391 0.68086 0.0
H575 H 0.61022 0.37622 0.71396 0.0
H576 H 0.60707 0.42212 0.64986 0.0
H577 H 0.54666 0.42283 0.70917 0.0
H578 H 0.52929 0.43034 0.74852 0.0
H579 H 0.55214 0.49964 0.74151 0.0
H580 H 0.56989 0.49251 0.70222 0.0
H581 H 0.54055 0.46169 0.55776 0.0
H582 H 0.55462 0.44257 0.59074 0.0
H583 H 0.56297 0.50316 0.63269 0.0
H584 H 0.54754 0.52196 0.60001 0.0
H585 H 0.55004 0.47455 0.66222 0.0
H586 H 0.61137 0.47272 0.60234 0.0
H587 H 0.62709 0.46419 0.56248 0.0
H588 H 0.60038 0.3957 0.57003 0.0
H589 H 0.58441 0.40384 0.60991 0.0
C590 C 0.61263 0.42785 0.73836 0.0
C591 C 0.61518 0.40514 0.7377 0.0
C592 C 0.60401 0.43819 0.71882 0.0
C593 C 0.59686 0.42643 0.69755 0.0
C594 C 0.59955 0.40383 0.69668 0.0
C595 C 0.60844 0.39348 0.71614 0.0
C596 C 0.58695 0.43759 0.67644 0.0
C597 C 0.59437 0.43336 0.65279 0.0
C598 C 0.57047 0.45277 0.67929 0.0
C599 C 0.5598 0.45711 0.70287 0.0
C600 C 0.54811 0.43965 0.71609 0.0
C601 C 0.53818 0.44384 0.73837 0.0
C602 C 0.53967 0.46545 0.74754 0.0
C603 C 0.55103 0.48291 0.73441 0.0
C604 C 0.56101 0.47881 0.71212 0.0
C605 C 0.54547 0.4711 0.57389 0.0
C606 C 0.54286 0.49368 0.57564 0.0
C607 C 0.55389 0.46004 0.59303 0.0
C608 C 0.56084 0.47112 0.61478 0.0
C609 C 0.55806 0.49372 0.61654 0.0
C610 C 0.54921 0.50467 0.59754 0.0
C611 C 0.5704 0.45936 0.63567 0.0
C612 C 0.56283 0.46341 0.6593 0.0
C613 C 0.58659 0.4439 0.63275 0.0
C614 C 0.59658 0.43892 0.60902 0.0
C615 C 0.60883 0.45585 0.59548 0.0
C616 C 0.61778 0.45108 0.57289 0.0
C617 C 0.61472 0.42943 0.56373 0.0
C618 C 0.60275 0.41246 0.57716 0.0
C619 C 0.5938 0.41714 0.59977 0.0
H620 H 0.6217 0.42579 0.54627 0.0
H621 H 0.53197 0.46866 0.7648 0.0
H622 H 0.92968 0.62088 0.25761 0.0
H623 H 0.94642 0.6028 0.22331 0.0
H624 H 0.90288 0.63268 0.17655 0.0
H625 H 0.88533 0.64997 0.21106 0.0
H626 H 0.90465 0.5955 0.15823 0.0
H627 H 0.96697 0.64917 0.18464 0.0
H628 H 0.99494 0.66953 0.21267 0.0
H629 H 0.02332 0.61014 0.22554 0.0
H630 H 0.99532 0.58935 0.19781 0.0
H631 H 0.97282 0.56647 0.05398 0.0
H632 H 0.95595 0.58823 0.08597 0.0
H633 H 0.98209 0.5489 0.13849 0.0
H634 H 0.99846 0.52714 0.10686 0.0
H635 H 0.98971 0.59328 0.15164 0.0
H636 H 0.92498 0.54042 0.12403 0.0
H637 H 0.89798 0.52248 0.09368 0.0
H638 H 0.87562 0.58464 0.08009 0.0
H639 H 0.90274 0.603 0.11017 0.0
C640 C 0.92371 0.62378 0.24004 0.0
C641 C 0.9061 0.63716 0.23742 0.0
C642 C 0.93349 0.61344 0.22018 0.0
C643 C 0.92661 0.61653 0.19671 0.0
C644 C 0.90883 0.62977 0.19412 0.0
C645 C 0.89871 0.63978 0.21405 0.0
C646 C 0.93761 0.60582 0.17512 0.0
C647 C 0.92333 0.59545 0.1568 0.0
C648 C 0.96204 0.60526 0.17261 0.0
C649 C 0.97889 0.61766 0.18933 0.0
C650 C 0.97907 0.64042 0.19358 0.0
C651 C 0.99494 0.65204 0.20939 0.0
C652 C 0.01085 0.64112 0.22092 0.0
C653 C 0.01096 0.61856 0.21662 0.0
C654 C 0.99511 0.60686 0.20084 0.0
C655 C 0.97518 0.56262 0.07233 0.0
C656 C 0.9872 0.545 0.07767 0.0
C657 C 0.96534 0.57501 0.09073 0.0
C658 C 0.96753 0.57034 0.11499 0.0
C659 C 0.98002 0.55308 0.12016 0.0
C660 C 0.98941 0.54053 0.1019 0.0
C661 C 0.95674 0.58293 0.13512 0.0
C662 C 0.97107 0.59358 0.15313 0.0
C663 C 0.93248 0.58416 0.13706 0.0
C664 C 0.91606 0.57311 0.11916 0.0
C665 C 0.91443 0.55028 0.11444 0.0
C666 C 0.89909 0.54004 0.09731 0.0
C667 C 0.88514 0.55242 0.08492 0.0
C668 C 0.88646 0.57507 0.08968 0.0
C669 C 0.9018 0.5854 0.10678 0.0
H670 H 0.87328 0.54446 0.07166 0.0
H671 H 0.02313 0.65015 0.23315 0.0
H672 H 0.3948 0.19556 0.17059 0.0
H673 H 0.41835 0.16959 0.15161 0.0
H674 H 0.35659 0.13324 0.12045 0.0
H675 H 0.33283 0.15866 0.14004 0.0
H676 H 0.38347 0.10581 0.13811 0.0
H677 H 0.39482 0.16825 0.08751 0.0
H678 H 0.40512 0.20745 0.07798 0.0
H679 H 0.47447 0.20701 0.10298 0.0
H680 H 0.46449 0.16785 0.11297 0.0
H681 H 0.4366 0.04519 0.04737 0.0
H682 H 0.41404 0.0695 0.07039 0.0
H683 H 0.47728 0.10348 0.10094 0.0
H684 H 0.50006 0.07943 0.07782 0.0
H685 H 0.45047 0.13202 0.08484 0.0
H686 H 0.4393 0.06888 0.134 0.0
H687 H 0.42884 0.02954 0.14286 0.0
H688 H 0.35896 0.03114 0.11997 0.0
H689 H 0.3691 0.07043 0.11064 0.0
C690 C 0.3862 0.18193 0.15986 0.0
C691 C 0.36193 0.17925 0.15675 0.0
C692 C 0.39971 0.16721 0.14886 0.0
C693 C 0.38926 0.14961 0.13439 0.0
C694 C 0.36503 0.14674 0.13147 0.0
C695 C 0.35151 0.16143 0.14249 0.0
C696 C 0.40354 0.13416 0.12227 0.0
C697 C 0.39796 0.11151 0.12625 0.0
C698 C 0.42279 0.14164 0.10723 0.0
C699 C 0.42883 0.16518 0.10123 0.0
C700 C 0.41221 0.17656 0.09116 0.0
C701 C 0.418 0.19876 0.08564 0.0
C702 C 0.44041 0.20973 0.08993 0.0
C703 C 0.45711 0.1985 0.0997 0.0
C704 C 0.4514 0.1763 0.10528 0.0
C705 C 0.44574 0.05769 0.05914 0.0
C706 C 0.47018 0.06034 0.06069 0.0
C707 C 0.43278 0.07154 0.07236 0.0
C708 C 0.44396 0.08822 0.0875 0.0
C709 C 0.4683 0.09072 0.08935 0.0
C710 C 0.48128 0.07688 0.07616 0.0
C711 C 0.43037 0.10366 0.10062 0.0
C712 C 0.43606 0.12632 0.0968 0.0
C713 C 0.4112 0.09617 0.11575 0.0
C714 C 0.40503 0.07255 0.12142 0.0
C715 C 0.42175 0.0608 0.13067 0.0
C716 C 0.41587 0.03852 0.13582 0.0
C717 C 0.39327 0.02783 0.13193 0.0
C718 C 0.37647 0.03943 0.12295 0.0
C719 C 0.38227 0.06171 0.11775 0.0
H720 H 0.38875 1.01058 0.13592 0.0
H721 H 0.44487 0.22692 0.08564 0.0
H722 H 0.21553 0.92087 0.56826 0.0
H723 H 0.18116 0.93608 0.55634 0.0
H724 H 0.22244 0.97488 0.50376 0.0
H725 H 0.25733 0.96052 0.51646 0.0
H726 H 0.19378 0.99876 0.52615 0.0
H727 H 0.18623 0.92781 0.48756 0.0
H728 H 0.18539 0.8875 0.4844 0.0
H729 H 0.1267 0.87855 0.53291 0.0
H730 H 0.12739 0.91883 0.53663 0.0
H731 H 0.07225 0.99239 0.46845 0.0
H732 H 0.10901 0.97761 0.47302 0.0
H733 H 0.11476 1.00578 0.54433 0.0
H734 H 0.07803 0.02044 0.53991 0.0
H735 H 0.12134 0.9487 0.50589 0.0
H736 H 0.17182 0.0269 0.55203 0.0
H737 H 0.17304 0.06728 0.55128 0.0
H738 H 0.14737 0.06165 0.48002 0.0
H739 H 0.14628 0.02133 0.48023 0.0
C740 C 0.21743 0.93288 0.5544 0.0
C741 C 0.23922 0.93952 0.54335 0.0
C742 C 0.19767 0.94134 0.54738 0.0
C743 C 0.19917 0.95633 0.5289 0.0
C744 C 0.2209 0.96322 0.51798 0.0
C745 C 0.24077 0.95486 0.52511 0.0
C746 C 0.17801 0.96491 0.52124 0.0
C747 C 0.17799 0.98781 0.52163 0.0
C748 C 0.15755 0.95063 0.5148 0.0
C749 C 0.15697 0.92636 0.51249 0.0
C750 C 0.17324 0.91725 0.49768 0.0
C751 C 0.17278 0.89441 0.49577 0.0
C752 C 0.15603 0.88048 0.50848 0.0
C753 C 0.13967 0.88936 0.52308 0.0
C754 C 0.14007 0.9122 0.52507 0.0
C755 C 0.0814 0.99538 0.48507 0.0
C756 C 0.0725 1.00762 0.50379 0.0
C757 C 0.10228 0.98691 0.48768 0.0
C758 C 0.11462 0.99083 0.5089 0.0
C759 C 0.10558 1.00283 0.52771 0.0
C760 C 0.08462 1.01113 0.52519 0.0
C761 C 0.13701 0.98241 0.51156 0.0
C762 C 0.13723 0.95959 0.51025 0.0
C763 C 0.15777 0.99675 0.51659 0.0
C764 C 0.15879 0.02107 0.51624 0.0
C765 C 0.16654 0.03429 0.53617 0.0
C766 C 0.16719 0.05718 0.53585 0.0
C767 C 0.16024 0.06701 0.51563 0.0
C768 C 0.15267 0.05401 0.49569 0.0
C769 C 0.15201 0.03114 0.49592 0.0
H770 H 0.16077 0.0847 0.51534 0.0
H771 H 0.1557 0.86279 0.50698 0.0
H772 H 0.78072 0.38046 0.91469 0.0
H773 H 0.81639 0.39851 0.93271 0.0
H774 H 0.80716 0.45954 0.90091 0.0
H775 H 0.77237 0.44117 0.88118 0.0
H776 H 0.85016 0.45987 0.89991 0.0
H777 H 0.7972 0.44544 0.96538 0.0
H778 H 0.76894 0.4236 0.99188 0.0
H779 H 0.82052 0.38295 1.0085 0.0
H780 H 0.84901 0.4044 0.98187 0.0
H781 H 0.93644 0.52539 0.97273 0.0
H782 H 0.90002 0.50838 0.95444 0.0
H783 H 0.91146 0.44494 0.97868 0.0
H784 H 0.94766 0.46197 0.99739 0.0
H785 H 0.867 0.44696 0.98388 0.0
H786 H 0.91988 0.46355 0.91678 0.0
H787 H 0.94708 0.48803 0.89167 0.0
H788 H 0.89359 0.52809 0.88012 0.0
H789 H 0.86615 0.50396 0.90535 0.0
C790 C 0.78616 0.39765 0.91102 0.0
C791 C 0.77279 0.40894 0.89605 0.0
C792 C 0.80675 0.40826 0.92195 0.0
C793 C 0.81487 0.4309 0.91903 0.0
C794 C 0.80174 0.4422 0.90395 0.0
C795 C 0.7813 0.43153 0.89274 0.0
C796 C 0.83696 0.4426 0.93127 0.0
C797 C 0.85347 0.45714 0.9184 0.0
C798 C 0.84223 0.43935 0.95546 0.0
C799 C 0.82516 0.42638 0.97144 0.0
C800 C 0.80246 0.43175 0.97456 0.0
C801 C 0.78641 0.41945 0.98962 0.0
C802 C 0.79291 0.40186 1.00181 0.0
C803 C 0.8155 0.39656 0.99901 0.0
C804 C 0.83161 0.40879 0.98395 0.0
C805 C 0.93131 0.5078 0.97427 0.0
C806 C 0.9455 0.49526 0.98672 0.0
C807 C 0.91031 0.49793 0.96351 0.0
C808 C 0.90259 0.475 0.96449 0.0
C809 C 0.91657 0.46255 0.9773 0.0
C810 C 0.93754 0.47242 0.98809 0.0
C811 C 0.88016 0.464 0.95246 0.0
C812 C 0.86361 0.44962 0.96539 0.0
C813 C 0.87466 0.46772 0.92849 0.0
C814 C 0.89104 0.48205 0.91309 0.0
C815 C 0.91396 0.47763 0.90896 0.0
C816 C 0.92941 0.49144 0.8947 0.0
C817 C 0.92208 0.50963 0.88434 0.0
C818 C 0.89925 0.51401 0.88816 0.0
C819 C 0.88374 0.50025 0.90241 0.0
H820 H 0.93408 0.52031 0.87333 0.0
H821 H 0.78046 0.39236 1.01347 0.0
H822 H 0.76089 0.62985 0.43351 0.0
H823 H 0.72487 0.61351 0.45273 0.0
H824 H 0.68869 0.61427 0.38677 0.0
H825 H 0.72431 0.63237 0.36778 0.0
H826 H 0.66021 0.62333 0.41879 0.0
H827 H 0.70655 0.56499 0.41322 0.0
H828 H 0.74114 0.54648 0.41817 0.0
H829 H 0.73556 0.55547 0.49403 0.0
H830 H 0.7011 0.57428 0.48952 0.0
H831 H 0.55995 0.54957 0.46018 0.0
H832 H 0.59574 0.56485 0.43855 0.0
H833 H 0.63172 0.57654 0.50495 0.0
H834 H 0.59605 0.56143 0.52653 0.0
H835 H 0.65952 0.55988 0.47137 0.0
H836 H 0.61234 0.61871 0.47523 0.0
H837 H 0.57679 0.63536 0.46874 0.0
H838 H 0.58309 0.62276 0.39347 0.0
H839 H 0.61853 0.60576 0.39955 0.0
C840 C 0.74534 0.62697 0.42294 0.0
C841 C 0.74612 0.63274 0.39875 0.0
C842 C 0.72454 0.61708 0.43403 0.0
C843 C 0.70367 0.61194 0.42133 0.0
C844 C 0.7043 0.61776 0.39724 0.0
C845 C 0.72504 0.62797 0.38619 0.0
C846 C 0.68131 0.60088 0.43319 0.0
C847 C 0.66017 0.60923 0.42994 0.0
C848 C 0.68068 0.58254 0.44821 0.0
C849 C 0.70138 0.57123 0.45101 0.0
C850 C 0.7128 0.56315 0.43094 0.0
C851 C 0.73237 0.55259 0.43367 0.0
C852 C 0.74058 0.54985 0.45639 0.0
C853 C 0.7292 0.55762 0.47644 0.0
C854 C 0.70963 0.56822 0.47381 0.0
C855 C 0.57552 0.5553 0.47017 0.0
C856 C 0.57496 0.55427 0.4952 0.0
C857 C 0.59604 0.56419 0.45776 0.0
C858 C 0.61669 0.57221 0.46997 0.0
C859 C 0.61624 0.57061 0.49492 0.0
C860 C 0.59571 0.56195 0.50731 0.0
C861 C 0.63866 0.58242 0.457 0.0
C862 C 0.65966 0.57392 0.46009 0.0
C863 C 0.63909 0.60036 0.44157 0.0
C864 C 0.61794 0.61077 0.43787 0.0
C865 C 0.60605 0.61936 0.45731 0.0
C866 C 0.58594 0.62888 0.45371 0.0
C867 C 0.57765 0.63006 0.43072 0.0
C868 C 0.58951 0.6218 0.41128 0.0
C869 C 0.60962 0.61224 0.41479 0.0
H870 H 0.56207 0.63743 0.42796 0.0
H871 H 0.75573 0.54167 0.45847 0.0
H872 H 0.20256 0.2987 0.13863 0.0
H873 H 0.17897 0.32364 0.12101 0.0
H874 H 0.22823 0.37944 0.14397 0.0
H875 H 0.25178 0.35444 0.16217 0.0
H876 H 0.18344 0.38476 0.15571 0.0
H877 H 0.22463 0.36503 0.0856 0.0
H878 H 0.24026 0.33988 0.05629 0.0
H879 H 0.17075 0.30944 0.04027 0.0
H880 H 0.15469 0.3342 0.06973 0.0
H881 H 0.11961 0.45687 0.095 0.0
H882 H 0.15045 0.43757 0.10915 0.0
H883 H 0.11216 0.3755 0.08519 0.0
H884 H 0.08205 0.39472 0.06967 0.0
H885 H 0.15588 0.37705 0.07261 0.0
H886 H 0.11496 0.39337 0.14547 0.0
H887 H 0.0987 0.41751 0.17546 0.0
H888 H 0.16698 0.45338 0.1868 0.0
H889 H 0.1836 0.4296 0.15666 0.0
C890 C 0.20845 0.31628 0.13982 0.0
C891 C 0.22895 0.32464 0.15187 0.0
C892 C 0.19505 0.33051 0.12958 0.0
C893 C 0.20193 0.35339 0.13103 0.0
C894 C 0.22266 0.36182 0.1426 0.0
C895 C 0.23617 0.34754 0.15282 0.0
C896 C 0.18664 0.36837 0.12158 0.0
C897 C 0.17776 0.38342 0.13741 0.0
C898 C 0.17888 0.36626 0.09785 0.0
C899 C 0.18847 0.3514 0.08 0.0
C900 C 0.21268 0.35288 0.07595 0.0
C901 C 0.22161 0.3387 0.05928 0.0
C902 C 0.20651 0.32305 0.04645 0.0
C903 C 0.18243 0.32157 0.05022 0.0
C904 C 0.1734 0.33569 0.06688 0.0
C905 C 0.11779 0.43913 0.09259 0.0
C906 C 0.09824 0.42739 0.08119 0.0
C907 C 0.13536 0.42808 0.10094 0.0
C908 C 0.13355 0.40504 0.09844 0.0
C909 C 0.11395 0.39328 0.08734 0.0
C910 C 0.09655 0.40431 0.07875 0.0
C911 C 0.15218 0.39305 0.1069 0.0
C912 C 0.16174 0.3786 0.09085 0.0
C913 C 0.16044 0.39562 0.13047 0.0
C914 C 0.15047 0.40987 0.14862 0.0
C915 C 0.12647 0.40651 0.15423 0.0
C916 C 0.1172 0.42011 0.17128 0.0
C917 C 0.13179 0.43701 0.18297 0.0
C918 C 0.1557 0.44031 0.1777 0.0
C919 C 0.16505 0.42677 0.16065 0.0
H920 H 0.12458 0.44752 0.19617 0.0
H921 H 0.21346 0.31209 0.03356 0.0
H922 H 0.6389 0.24528 0.91764 0.0
H923 H 0.62249 0.21071 0.93577 0.0
H924 H 0.56461 0.2044 0.88826 0.0
H925 H 0.58092 0.23909 0.87001 0.0
H926 H 0.54737 0.19088 0.92846 0.0
H927 H 0.61393 0.17157 0.88472 0.0
H928 H 0.6554 0.17451 0.87259 0.0
H929 H 0.67376 0.16395 0.94443 0.0
H930 H 0.6324 0.16122 0.95705 0.0
H931 H 0.50335 0.07825 0.9459 0.0
H932 H 0.52212 0.11323 0.93064 0.0
H933 H 0.57453 0.11669 0.98417 0.0
H934 H 0.55558 0.08097 0.99955 0.0
H935 H 0.59531 0.13208 0.94313 0.0
H936 H 0.52853 0.15001 0.98649 0.0
H937 H 0.487 0.14677 0.99847 0.0
H938 H 0.46908 0.15989 0.92718 0.0
H939 H 0.51048 0.16292 0.91469 0.0
C940 C 0.62282 0.23658 0.91062 0.0
C941 C 0.61166 0.24561 0.89184 0.0
C942 C 0.6133 0.21644 0.9212 0.0
C943 C 0.5922 0.20401 0.91346 0.0
C944 C 0.58083 0.21313 0.89495 0.0
C945 C 0.59031 0.23334 0.88441 0.0
C946 C 0.58186 0.18196 0.92469 0.0
C947 C 0.55798 0.17803 0.93126 0.0
C948 C 0.59526 0.1648 0.9294 0.0
C949 C 0.62011 0.16643 0.92187 0.0
C950 C 0.62683 0.17003 0.89796 0.0
C951 C 0.65031 0.17164 0.89099 0.0
C952 C 0.66721 0.16948 0.90774 0.0
C953 C 0.66066 0.16566 0.93148 0.0
C954 C 0.6372 0.16406 0.93855 0.0
C955 C 0.51887 0.08631 0.95464 0.0
C956 C 0.52762 0.07638 0.97425 0.0
C957 C 0.52966 0.10669 0.94584 0.0
C958 C 0.54981 0.11849 0.95621 0.0
C959 C 0.55901 0.10842 0.9756 0.0
C960 C 0.54806 0.08783 0.98455 0.0
C961 C 0.56082 0.141 0.94663 0.0
C962 C 0.58477 0.14499 0.94036 0.0
C963 C 0.5475 0.15824 0.94217 0.0
C964 C 0.5226 0.1565 0.94961 0.0
C965 C 0.51571 0.15205 0.97333 0.0
C966 C 0.4922 0.15027 0.98021 0.0
C967 C 0.47541 0.15307 0.96358 0.0
C968 C 0.48211 0.1577 0.94004 0.0
C969 C 0.5056 0.15948 0.93305 0.0
H970 H 0.45721 0.15168 0.96895 0.0
H971 H 0.68538 0.17073 0.90231 0.0
H972 H 0.88833 0.78785 0.43075 0.0
H973 H 0.90488 0.82247 0.45049 0.0
H974 H 0.94338 0.84192 0.3862 0.0
H975 H 0.92783 0.80656 0.36694 0.0
H976 H 0.96967 0.857 0.41844 0.0
H977 H 0.88929 0.86328 0.40995 0.0
H978 H 0.84668 0.85281 0.41349 0.0
H979 H 0.85114 0.85409 0.48966 0.0
H980 H 0.89384 0.86431 0.48656 0.0
H981 H 0.98309 0.97414 0.45226 0.0
H982 H 0.96747 0.9384 0.43373 0.0
H983 H 0.96258 0.90885 0.5024 0.0
H984 H 0.97903 0.9444 0.52098 0.0
H985 H 0.91945 0.89988 0.46834 0.0
H986 H 1.00197 0.89516 0.47386 0.0
H987 H 0.04368 0.90878 0.4672 0.0
H988 H 0.03321 0.90814 0.39182 0.0
H989 H 0.99133 0.89485 0.39809 0.0
C990 C 0.9003 0.7995 0.42075 0.0
C991 C 0.90652 0.79425 0.39708 0.0
C992 C 0.9097 0.81959 0.43207 0.0
C993 C 0.92512 0.83564 0.41992 0.0
C994 C 0.93158 0.83022 0.3963 0.0
C995 C 0.9226 0.80986 0.38516 0.0
C996 C 0.93458 0.85778 0.43179 0.0
C997 C 0.95842 0.86633 0.42906 0.0
C998 C 0.92043 0.87049 0.44605 0.0
C999 C 0.89478 0.86433 0.44801 0.0
C1000 C 0.8812 0.86118 0.42745 0.0
C1001 C 0.85703 0.85531 0.42938 0.0
C1002 C 0.84622 0.85272 0.45178 0.0
C1003 C 0.85955 0.85606 0.47231 0.0
C1004 C 0.88373 0.86191 0.47048 0.0
C1005 C 0.97867 0.96009 0.46351 0.0
C1006 C 0.98238 0.96238 0.48824 0.0
C1007 C 0.96974 0.93955 0.45282 0.0
C1008 C 0.96371 0.9207 0.46654 0.0
C1009 C 0.96699 0.92301 0.4913 0.0
C1010 C 0.97649 0.94343 0.50194 0.0
C1011 C 0.95426 0.89869 0.45498 0.0
C1012 C 0.9305 0.89033 0.45772 0.0
C1013 C 0.96829 0.88646 0.44027 0.0
C1014 C 0.99347 0.89426 0.43647 0.0
C1015 C 0.00852 0.89814 0.45589 0.0
C1016 C 0.0322 0.90575 0.45218 0.0
C1017 C 0.04108 0.90939 0.42911 0.0
C1018 C 0.0263 0.90535 0.40969 0.0
C1019 C 1.00259 0.89777 0.41331 0.0
H1020 H 0.05942 0.91528 0.42627 0.0
H1021 H 0.82751 0.84818 0.45324 0.0
H1022 H 0.38409 0.79288 0.50119 0.0
H1023 H 0.3926 0.75585 0.49146 0.0
H1024 H 0.32536 0.72839 0.52016 0.0
H1025 H 0.3173 0.76534 0.53126 0.0
H1026 H 0.35733 0.71134 0.54037 0.0
H1027 H 0.34071 0.72032 0.4596 0.0
H1028 H 0.34138 0.73906 0.42141 0.0
H1029 H 0.41564 0.74102 0.41592 0.0
H1030 H 0.41546 0.72225 0.45406 0.0
H1031 H 0.40037 0.60992 0.52976 0.0
H1032 H 0.37503 0.63646 0.51865 0.0
H1033 H 0.43541 0.6821 0.49819 0.0
H1034 H 0.46077 0.65543 0.50857 0.0
H1035 H 0.39796 0.68421 0.4691 0.0
H1036 H 0.41409 0.68388 0.55403 0.0
H1037 H 0.41388 0.66601 0.59273 0.0
H1038 H 0.33951 0.6487 0.59001 0.0
H1039 H 0.33935 0.66625 0.55111 0.0
C1040 C 0.371 0.77898 0.50521 0.0
C1041 C 0.3502 0.7821 0.51739 0.0
C1042 C 0.37571 0.75778 0.49924 0.0
C1043 C 0.35956 0.73927 0.50494 0.0
C1044 C 0.33806 0.74242 0.51553 0.0
C1045 C 0.33343 0.76361 0.52175 0.0
C1046 C 0.36673 0.71699 0.50348 0.0
C1047 C 0.36551 0.7051 0.52449 0.0
C1048 C 0.37782 0.70897 0.48296 0.0
C1049 C 0.37807 0.71996 0.45979 0.0
C1050 C 0.3572 0.7248 0.45029 0.0
C1051 C 0.35749 0.73537 0.42861 0.0
C1052 C 0.37854 0.74119 0.41623 0.0
C1053 C 0.39934 0.73639 0.42547 0.0
C1054 C 0.39915 0.72571 0.44709 0.0
C1055 C 0.4082 0.62539 0.52234 0.0
C1056 C 0.43257 0.63081 0.52045 0.0
C1057 C 0.39371 0.64052 0.51603 0.0
C1058 C 0.4034 0.66132 0.5079 0.0
C1059 C 0.42761 0.66614 0.50447 0.0
C1060 C 0.44208 0.65104 0.51073 0.0
C1061 C 0.38891 0.67914 0.50605 0.0
C1062 C 0.38894 0.69018 0.48458 0.0
C1063 C 0.37666 0.68646 0.52612 0.0
C1064 C 0.37674 0.67611 0.54958 0.0
C1065 C 0.39772 0.67613 0.56163 0.0
C1066 C 0.39767 0.66608 0.5836 0.0
C1067 C 0.3767 0.65616 0.59379 0.0
C1068 C 0.35574 0.65634 0.58206 0.0
C1069 C 0.35571 0.66634 0.56006 0.0
H1070 H 0.37669 0.64838 0.61079 0.0
H1071 H 0.37873 0.74943 0.39948 0.0
H1072 H 0.79806 0.82076 0.70629 0.0
H1073 H 0.8296 0.8369 0.67966 0.0
H1074 H 0.86197 0.87543 0.73863 0.0
H1075 H 0.83078 0.85931 0.76526 0.0
H1076 H 0.86015 0.90015 0.70021 0.0
H1077 H 0.88301 0.82955 0.71699 0.0
H1078 H 0.87749 0.78898 0.71843 0.0
H1079 H 0.86879 0.7841 0.64273 0.0
H1080 H 0.87395 0.82467 0.64089 0.0
H1081 H 0.97216 0.93783 0.6576 0.0
H1082 H 0.94052 0.91688 0.68016 0.0
H1083 H 0.91454 0.88312 0.61563 0.0
H1084 H 0.94671 0.90359 0.5929 0.0
H1085 H 0.91114 0.85539 0.65357 0.0
H1086 H 0.89002 0.92564 0.63626 0.0
H1087 H 0.89532 0.96617 0.63441 0.0
H1088 H 0.89993 0.97169 0.71053 0.0
H1089 H 0.89501 0.93117 0.71281 0.0
C1090 C 0.81199 0.83256 0.71358 0.0
C1091 C 0.81184 0.83885 0.73786 0.0
C1092 C 0.82998 0.84177 0.69836 0.0
C1093 C 0.84818 0.85728 0.70721 0.0
C1094 C 0.84803 0.86357 0.73141 0.0
C1095 C 0.83011 0.85442 0.74658 0.0
C1096 C 0.86735 0.86732 0.69139 0.0
C1097 C 0.87143 0.89037 0.6902 0.0
C1098 C 0.8816 0.85451 0.67776 0.0
C1099 C 0.87861 0.83013 0.67884 0.0
C1100 C 0.87973 0.81982 0.70068 0.0
C1101 C 0.8767 0.79683 0.70157 0.0
C1102 C 0.87272 0.78397 0.6807 0.0
C1103 C 0.87183 0.79408 0.65889 0.0
C1104 C 0.87483 0.81707 0.65791 0.0
C1105 C 0.9601 0.92557 0.64823 0.0
C1106 C 0.9619 0.92247 0.62341 0.0
C1107 C 0.94187 0.91377 0.66114 0.0
C1108 C 0.92496 0.89876 0.64949 0.0
C1109 C 0.92733 0.89475 0.62491 0.0
C1110 C 0.94561 0.90656 0.61195 0.0
C1111 C 0.90422 0.88821 0.66288 0.0
C1112 C 0.89977 0.86514 0.6635 0.0
C1113 C 0.88952 0.90098 0.67596 0.0
C1114 C 0.89235 0.92536 0.67468 0.0
C1115 C 0.89234 0.9355 0.65259 0.0
C1116 C 0.89525 0.95847 0.65147 0.0
C1117 C 0.89802 0.9715 0.67234 0.0
C1118 C 0.89782 0.96158 0.69438 0.0
C1119 C 0.89495 0.93861 0.6956 0.0
H1120 H 0.90027 0.98929 0.67143 0.0
H1121 H 0.87038 0.76617 0.68142 0.0
H1122 H 0.63534 0.0839 0.34615 0.0
H1123 H 0.6231 0.07143 0.30595 0.0
H1124 H 0.67153 0.12422 0.27643 0.0
H1125 H 0.68341 0.13694 0.31651 0.0
H1126 H 0.63106 0.12242 0.25656 0.0
H1127 H 0.68152 0.06946 0.27383 0.0
H1128 H 0.6958 0.04081 0.29698 0.0
H1129 H 0.63007 0.99921 0.28912 0.0
H1130 H 0.61529 0.02775 0.26618 0.0
H1131 H 0.633 0.08699 0.1361 0.0
H1132 H 0.645 0.09491 0.17718 0.0
H1133 H 0.58691 0.04874 0.20192 0.0
H1134 H 0.57425 0.04119 0.16091 0.0
H1135 H 0.63038 0.04597 0.22449 0.0
H1136 H 0.58065 0.09934 0.20637 0.0
H1137 H 0.56736 0.12799 0.18244 0.0
H1138 H 0.63332 0.16896 0.19144 0.0
H1139 H 0.64713 0.14039 0.21513 0.0
C1140 C 0.64349 0.09266 0.33102 0.0
C1141 C 0.66024 0.11141 0.33437 0.0
C1142 C 0.63654 0.08553 0.30809 0.0
C1143 C 0.64653 0.09681 0.28817 0.0
C1144 C 0.66351 0.11533 0.29154 0.0
C1145 C 0.67027 0.12259 0.31441 0.0
C1146 C 0.63876 0.08993 0.2638 0.0
C1147 C 0.63122 0.10576 0.24949 0.0
C1148 C 0.63835 0.06804 0.25476 0.0
C1149 C 0.64722 0.05084 0.2685 0.0
C1150 C 0.67005 0.05428 0.2772 0.0
C1151 C 0.67824 0.03805 0.29025 0.0
C1152 C 0.66382 1.01823 0.29458 0.0
C1153 C 0.6412 1.01458 0.28579 0.0
C1154 C 0.63291 0.03077 0.27275 0.0
C1155 C 0.62266 0.0786 0.15025 0.0
C1156 C 0.60252 0.06361 0.14521 0.0
C1157 C 0.62965 0.08303 0.17368 0.0
C1158 C 0.61671 0.07251 0.19249 0.0
C1159 C 0.59712 0.05696 0.18757 0.0
C1160 C 0.58998 0.05263 0.16412 0.0
C1161 C 0.62313 0.07856 0.21734 0.0
C1162 C 0.63026 0.06259 0.23169 0.0
C1163 C 0.62333 0.10035 0.22641 0.0
C1164 C 0.615 0.11764 0.21234 0.0
C1165 C 0.59239 0.11438 0.20308 0.0
C1166 C 0.58475 0.13062 0.18959 0.0
C1167 C 0.59951 0.15026 0.18537 0.0
C1168 C 0.62192 0.15373 0.1947 0.0
C1169 C 0.62965 0.13753 0.20817 0.0
H1170 H 0.59356 0.16281 0.17492 0.0
H1171 H 0.6702 1.00568 0.30469 0.0
H1172 H 0.38153 0.65207 0.3233 0.0
H1173 H 0.3969 0.63388 0.35643 0.0
H1174 H 0.45244 0.61624 0.31091 0.0
H1175 H 0.43707 0.63431 0.27762 0.0
H1176 H 0.43671 0.58159 0.33794 0.0
H1177 H 0.46008 0.65859 0.35646 0.0
H1178 H 0.4543 0.69721 0.3646 0.0
H1179 H 0.40895 0.67735 0.42388 0.0
H1180 H 0.41421 0.63852 0.41591 0.0
H1181 H 0.50419 0.54249 0.42833 0.0
H1182 H 0.48907 0.5615 0.39586 0.0
H1183 H 0.4433 0.59021 0.44542 0.0
H1184 H 0.45957 0.57213 0.47819 0.0
H1185 H 0.45312 0.6193 0.41624 0.0
H1186 H 0.4271 0.54331 0.39854 0.0
H1187 H 0.43015 0.50396 0.39103 0.0
H1188 H 0.47616 0.52046 0.3313 0.0
H1189 H 0.4736 0.55994 0.33863 0.0
C1190 C 0.397 0.64431 0.32008 0.0
C1191 C 0.40781 0.64503 0.29716 0.0
C1192 C 0.40602 0.63392 0.3394 0.0
C1193 C 0.42626 0.62353 0.33687 0.0
C1194 C 0.43693 0.62399 0.31395 0.0
C1195 C 0.42809 0.63462 0.29469 0.0
C1196 C 0.43608 0.61207 0.35773 0.0
C1197 C 0.44055 0.59007 0.35491 0.0
C1198 C 0.44059 0.62232 0.38062 0.0
C1199 C 0.43734 0.64561 0.38541 0.0
C1200 C 0.44871 0.66242 0.3711 0.0
C1201 C 0.44557 0.68435 0.37572 0.0
C1202 C 0.43123 0.6897 0.3947 0.0
C1203 C 0.42003 0.67315 0.40916 0.0
C1204 C 0.4231 0.65119 0.40461 0.0
C1205 C 0.49081 0.55275 0.43246 0.0
C1206 C 0.48318 0.55534 0.45633 0.0
C1207 C 0.48183 0.56364 0.41354 0.0
C1208 C 0.46414 0.57723 0.41727 0.0
C1209 C 0.45669 0.57999 0.44126 0.0
C1210 C 0.46604 0.56942 0.46029 0.0
C1211 C 0.45384 0.58866 0.39654 0.0
C1212 C 0.44926 0.61069 0.39934 0.0
C1213 C 0.44875 0.57828 0.37376 0.0
C1214 C 0.45035 0.55459 0.36929 0.0
C1215 C 0.43798 0.53855 0.3839 0.0
C1216 C 0.43961 0.51623 0.37966 0.0
C1217 C 0.45339 0.50972 0.36074 0.0
C1218 C 0.46552 0.52553 0.34597 0.0
C1219 C 0.46398 0.54788 0.35014 0.0
H1220 H 0.45463 0.49243 0.35749 0.0
H1221 H 0.42885 0.70669 0.39823 0.0
H1222 H 0.09318 0.39006 0.80185 0.0
H1223 H 0.07652 0.40799 0.83633 0.0
H1224 H 0.13239 0.46233 0.83248 0.0
H1225 H 0.1492 0.44446 0.79806 0.0
H1226 H 0.12493 0.45427 0.877 0.0
H1227 H 0.07293 0.46408 0.81434 0.0
H1228 H 0.04592 0.45253 0.78157 0.0
H1229 H 1.0003 0.41243 0.8292 0.0
H1230 H 0.02721 0.42353 0.86221 0.0
H1231 H 0.07407 0.53243 0.95068 0.0
H1232 H 0.08991 0.51169 0.91777 0.0
H1233 H 0.0354 0.45721 0.92908 0.0
H1234 H 0.01939 0.47812 0.96221 0.0
H1235 H 0.04144 0.46388 0.88183 0.0
H1236 H 0.09287 0.45544 0.94486 0.0
H1237 H 0.11966 0.46765 0.97763 0.0
H1238 H 0.16631 0.50568 0.92915 0.0
H1239 H 0.13962 0.49397 0.89613 0.0
C1240 C 0.10191 0.40595 0.80805 0.0
C1241 C 0.12272 0.41561 0.79667 0.0
C1242 C 0.09224 0.41631 0.828 0.0
C1243 C 0.10279 0.43692 0.83727 0.0
C1244 C 0.12367 0.4465 0.82606 0.0
C1245 C 0.1334 0.43611 0.8062 0.0
C1246 C 0.09237 0.44839 0.85861 0.0
C1247 C 0.10672 0.45656 0.87775 0.0
C1248 C 0.0684 0.45114 0.86047 0.0
C1249 C 0.0522 0.44444 0.84068 0.0
C1250 C 0.05722 0.45266 0.81778 0.0
C1251 C 0.04192 0.44622 0.79917 0.0
C1252 C 0.02144 0.4317 0.80328 0.0
C1253 C 0.01619 0.42364 0.82603 0.0
C1254 C 0.03145 0.43001 0.8447 0.0
C1255 C 0.06549 0.51596 0.94636 0.0
C1256 C 0.04543 0.50704 0.95938 0.0
C1257 C 0.07466 0.50399 0.92742 0.0
C1258 C 0.06416 0.48257 0.92068 0.0
C1259 C 0.04404 0.4736 0.93366 0.0
C1260 C 0.03492 0.48557 0.9528 0.0
C1261 C 0.07407 0.46988 0.90003 0.0
C1262 C 0.05963 0.46151 0.88105 0.0
C1263 C 0.09797 0.46699 0.89828 0.0
C1264 C 0.11413 0.47398 0.91806 0.0
C1265 C 0.10876 0.46654 0.94121 0.0
C1266 C 0.12394 0.47335 0.95983 0.0
C1267 C 0.14465 0.48747 0.95549 0.0
C1268 C 0.15025 0.49476 0.93249 0.0
C1269 C 0.13511 0.48803 0.91381 0.0
H1270 H 0.15638 0.49273 0.96992 0.0
H1271 H 0.00961 0.42674 0.78886 0.0
H1272 H 0.68503 0.88227 0.89746 0.0
H1273 H 0.66258 0.91001 0.91443 0.0
H1274 H 0.59945 0.87316 0.8865 0.0
H1275 H 0.62207 0.84565 0.86886 0.0
H1276 H 0.59938 0.91521 0.88003 0.0
H1277 H 0.6139 0.87257 0.9466 0.0
H1278 H 0.63773 0.85484 0.97388 0.0
H1279 H 0.67571 0.91798 0.99343 0.0
H1280 H 0.6523 0.93606 0.96602 0.0
H1281 H 0.52024 0.96707 0.95382 0.0
H1282 H 0.54311 0.94192 0.93271 0.0
H1283 H 0.60654 0.98021 0.95803 0.0
H1284 H 0.58375 1.00524 0.97973 0.0
H1285 H 0.60633 0.93768 0.9654 0.0
H1286 H 0.58992 0.98016 0.89884 0.0
H1287 H 0.56447 0.99695 0.87241 0.0
H1288 H 0.52812 0.93288 0.85378 0.0
H1289 H 0.55317 0.91572 0.88033 0.0
C1290 C 0.66634 0.88002 0.89511 0.0
C1291 C 0.65524 0.86172 0.88206 0.0
C1292 C 0.65351 0.89587 0.90481 0.0
C1293 C 0.62923 0.8935 0.90212 0.0
C1294 C 0.61814 0.87534 0.88885 0.0
C1295 C 0.63104 0.85962 0.87883 0.0
C1296 C 0.61548 0.91 0.91314 0.0
C1297 C 0.60069 0.91993 0.89876 0.0
C1298 C 0.61746 0.91647 0.9375 0.0
C1299 C 0.63149 0.90564 0.95408 0.0
C1300 C 0.62745 0.88266 0.95659 0.0
C1301 C 0.64086 0.87255 0.9721 0.0
C1302 C 0.65826 0.88527 0.98534 0.0
C1303 C 0.66224 0.90814 0.98314 0.0
C1304 C 0.64889 0.91833 0.96764 0.0
C1305 C 0.53907 0.97039 0.95467 0.0
C1306 C 0.55015 0.98819 0.96855 0.0
C1307 C 0.55214 0.95598 0.94248 0.0
C1308 C 0.57656 0.95925 0.94363 0.0
C1309 C 0.5877 0.97736 0.95691 0.0
C1310 C 0.57464 0.9917 0.96925 0.0
C1311 C 0.59038 0.94302 0.93227 0.0
C1312 C 0.60512 0.93306 0.94663 0.0
C1313 C 0.58816 0.93639 0.90798 0.0
C1314 C 0.57331 0.94667 0.89173 0.0
C1315 C 0.57641 0.96966 0.88921 0.0
C1316 C 0.56207 0.97924 0.87419 0.0
C1317 C 0.54465 0.96599 0.86146 0.0
C1318 C 0.54161 0.94312 0.86366 0.0
C1319 C 0.55589 0.93346 0.87867 0.0
H1320 H 0.53355 0.97344 0.84987 0.0
H1321 H 0.66863 0.87741 0.99733 0.0
H1322 H 0.79047 0.09617 0.50665 0.0
H1323 H 0.82747 0.08555 0.51781 0.0
H1324 H 0.86388 0.14654 0.49122 0.0
H1325 H 0.82683 0.15673 0.47858 0.0
H1326 H 0.88658 0.1147 0.47789 0.0
H1327 H 0.85771 0.13834 0.55166 0.0
H1328 H 0.82923 0.14213 0.58426 0.0
H1329 H 0.82378 0.07289 0.59697 0.0
H1330 H 0.85197 0.0686 0.56421 0.0
H1331 H 0.96771 0.06587 0.5676 0.0
H1332 H 0.93894 0.09024 0.55985 0.0
H1333 H 0.92168 0.05424 0.49385 0.0
H1334 H 0.95114 0.03056 0.5011 0.0
H1335 H 0.89501 0.0833 0.55692 0.0
H1336 H 0.90437 0.08526 0.45287 0.0
H1337 H 0.93588 0.08566 0.42256 0.0
H1338 H 0.9862 0.11278 0.4743 0.0
H1339 H 0.95499 0.11285 0.50483 0.0
C1340 C 0.80632 0.10729 0.50296 0.0
C1341 C 0.80566 0.12728 0.49163 0.0
C1342 C 0.82748 0.10133 0.50968 0.0
C1343 C 0.84843 0.11542 0.50573 0.0
C1344 C 0.8479 0.13547 0.49457 0.0
C1345 C 0.82669 0.14136 0.48757 0.0
C1346 C 0.87081 0.10858 0.51259 0.0
C1347 C 0.88855 0.10802 0.49523 0.0
C1348 C 0.87381 0.1007 0.53553 0.0
C1349 C 0.8569 0.10314 0.55538 0.0
C1350 C 0.85034 0.12389 0.56131 0.0
C1351 C 0.83425 0.12613 0.57983 0.0
C1352 C 0.82469 0.10776 0.59266 0.0
C1353 C 0.83122 0.08711 0.58702 0.0
C1354 C 0.84728 0.08477 0.5685 0.0
C1355 C 0.95778 0.06327 0.55142 0.0
C1356 C 0.9615 0.04642 0.53492 0.0
C1357 C 0.9414 0.07719 0.547 0.0
C1358 C 0.92838 0.0743 0.52611 0.0
C1359 C 0.93193 0.05719 0.50978 0.0
C1360 C 0.94857 0.04352 0.51402 0.0
C1361 C 0.91021 0.08836 0.52183 0.0
C1362 C 0.89329 0.09034 0.53972 0.0
C1363 C 0.90849 0.09835 0.49972 0.0
C1364 C 0.92729 0.09895 0.4812 0.0
C1365 C 0.92212 0.09148 0.45775 0.0
C1366 C 0.93995 0.09157 0.44054 0.0
C1367 C 0.96303 0.09919 0.44651 0.0
C1368 C 0.96833 0.10682 0.4697 0.0
C1369 C 0.95057 0.10678 0.48697 0.0
H1370 H 0.97681 0.0992 0.43318 0.0
H1371 H 0.81223 0.10953 0.60699 0.0
H1372 H 0.24627 0.61109 0.15936 0.0
H1373 H 0.2103 0.59344 0.14064 0.0
H1374 H 0.21005 0.65005 0.09738 0.0
H1375 H 0.24585 0.6679 0.11621 0.0
H1376 H 0.16618 0.63634 0.11271 0.0
H1377 H 0.22591 0.5995 0.07504 0.0
H1378 H 0.25893 0.57816 0.07378 0.0
H1379 H 0.21685 0.52512 0.10932 0.0
H1380 H 0.18367 0.54627 0.11107 0.0
H1381 H 0.07723 0.58921 0.03263 0.0
H1382 H 0.11325 0.60644 0.05132 0.0
H1383 H 0.11906 0.5456 0.08547 0.0
H1384 H 0.08354 0.52804 0.06585 0.0
H1385 H 0.16023 0.5614 0.07553 0.0
H1386 H 0.10105 0.59678 0.11461 0.0
H1387 H 0.06754 0.61743 0.11807 0.0
H1388 H 0.10742 0.67218 0.08324 0.0
H1389 H 0.14109 0.65174 0.07931 0.0
C1390 C 0.23862 0.61997 0.14597 0.0
C1391 C 0.24955 0.64115 0.13951 0.0
C1392 C 0.21791 0.60965 0.13499 0.0
C1393 C 0.20706 0.62004 0.11711 0.0
C1394 C 0.21771 0.64133 0.11092 0.0
C1395 C 0.23854 0.65156 0.12171 0.0
C1396 C 0.18477 0.60894 0.105 0.0
C1397 C 0.16511 0.62005 0.10433 0.0
C1398 C 0.18249 0.58731 0.09448 0.0
C1399 C 0.20239 0.57457 0.0934 0.0
C1400 C 0.22376 0.58336 0.08275 0.0
C1401 C 0.24249 0.57128 0.08192 0.0
C1402 C 0.24001 0.55032 0.09152 0.0
C1403 C 0.21876 0.54137 0.10192 0.0
C1404 C 0.19998 0.55339 0.10282 0.0
C1405 C 0.08607 0.5794 0.04413 0.0
C1406 C 0.07696 0.55706 0.04759 0.0
C1407 C 0.10684 0.58944 0.05515 0.0
C1408 C 0.11926 0.5778 0.07065 0.0
C1409 C 0.11028 0.55537 0.07386 0.0
C1410 C 0.08967 0.54522 0.06256 0.0
C1411 C 0.14147 0.58878 0.08317 0.0
C1412 C 0.16118 0.57767 0.08392 0.0
C1413 C 0.14367 0.61029 0.09411 0.0
C1414 C 0.1235 0.62264 0.09645 0.0
C1415 C 0.10261 0.61317 0.10755 0.0
C1416 C 0.0836 0.62484 0.10961 0.0
C1417 C 0.08533 0.64608 0.10082 0.0
C1418 C 0.1061 0.65571 0.09001 0.0
C1419 C 0.12516 0.6441 0.08787 0.0
H1420 H 0.07059 0.65509 0.10243 0.0
H1421 H 0.25453 0.541 0.09086 0.0
H1422 H 0.27857 0.39547 0.60317 0.0
H1423 H 0.31402 0.41273 0.58307 0.0
H1424 H 0.32789 0.45846 0.6426 0.0
H1425 H 0.29179 0.44171 0.66236 0.0
H1426 H 0.34078 0.48028 0.60604 0.0
H1427 H 0.3583 0.41051 0.62939 0.0
H1428 H 0.35295 0.37012 0.63296 0.0
H1429 H 0.35658 0.36199 0.55689 0.0
H1430 H 0.36165 0.40235 0.55285 0.0
H1431 H 0.46212 0.51091 0.56918 0.0
H1432 H 0.42636 0.49592 0.59115 0.0
H1433 H 0.40064 0.45971 0.52798 0.0
H1434 H 0.43592 0.47493 0.50596 0.0
H1435 H 0.39519 0.4336 0.56798 0.0
H1436 H 0.37856 0.50506 0.54626 0.0
H1437 H 0.38663 0.54559 0.54478 0.0
H1438 H 0.38424 0.55047 0.62112 0.0
H1439 H 0.37658 0.50992 0.62307 0.0
C1440 C 0.28918 0.40914 0.61212 0.0
C1441 C 0.28215 0.41695 0.63463 0.0
C1442 C 0.30971 0.41903 0.60057 0.0
C1443 C 0.32444 0.43678 0.61132 0.0
C1444 C 0.31721 0.44485 0.63366 0.0
C1445 C 0.29642 0.43518 0.64506 0.0
C1446 C 0.34715 0.44681 0.5993 0.0
C1447 C 0.35274 0.46993 0.59808 0.0
C1448 C 0.36314 0.43372 0.58848 0.0
C1449 C 0.36012 0.40945 0.59082 0.0
C1450 C 0.3578 0.40011 0.61342 0.0
C1451 C 0.35484 0.37722 0.61553 0.0
C1452 C 0.35436 0.36349 0.59516 0.0
C1453 C 0.35691 0.37264 0.57265 0.0
C1454 C 0.35985 0.39552 0.57044 0.0
C1455 C 0.44877 0.49989 0.55992 0.0
C1456 C 0.45203 0.49425 0.53569 0.0
C1457 C 0.42825 0.49128 0.57253 0.0
C1458 C 0.41051 0.47657 0.56136 0.0
C1459 C 0.41388 0.47091 0.5372 0.0
C1460 C 0.43415 0.47975 0.52454 0.0
C1461 C 0.38857 0.46688 0.57463 0.0
C1462 C 0.38318 0.44384 0.57606 0.0
C1463 C 0.37305 0.48005 0.58597 0.0
C1464 C 0.37723 0.50443 0.58481 0.0
C1465 C 0.37993 0.51476 0.56274 0.0
C1466 C 0.38441 0.53774 0.56181 0.0
C1467 C 0.38601 0.55059 0.58284 0.0
C1468 C 0.38304 0.54049 0.60484 0.0
C1469 C 0.37862 0.51751 0.60587 0.0
H1470 H 0.38949 0.56838 0.58209 0.0
H1471 H 0.35207 0.34578 0.59683 0.0
H1472 H 0.75778 0.7011 0.91569 0.0
H1473 H 0.78162 0.67639 0.93367 0.0
H1474 H 0.82044 0.6724 0.86769 0.0
H1475 H 0.7972 0.69743 0.84976 0.0
H1476 H 0.81086 0.63181 0.88992 0.0
H1477 H 0.84171 0.70786 0.90951 0.0
H1478 H 0.83922 0.74524 0.92598 0.0
H1479 H 0.82017 0.71868 0.99458 0.0
H1480 H 0.82222 0.68108 0.9784 0.0
H1481 H 0.92033 0.60531 0.92175 0.0
H1482 H 0.88697 0.62071 0.90707 0.0
H1483 H 0.86131 0.62813 0.97915 0.0
H1484 H 0.89508 0.61319 0.99395 0.0
H1485 H 0.86005 0.66422 0.95681 0.0
H1486 H 0.83421 0.58839 0.9387 0.0
H1487 H 0.83765 0.55113 0.92247 0.0
H1488 H 0.84691 0.57625 0.85198 0.0
H1489 H 0.84392 0.61375 0.86782 0.0
C1490 C 0.77135 0.69492 0.90498 0.0
C1491 C 0.77565 0.70142 0.88131 0.0
C1492 C 0.78484 0.6807 0.91524 0.0
C1493 C 0.80289 0.67271 0.90204 0.0
C1494 C 0.80651 0.67829 0.87814 0.0
C1495 C 0.79312 0.69258 0.8679 0.0
C1496 C 0.81925 0.66002 0.91355 0.0
C1497 C 0.82169 0.63885 0.9045 0.0
C1498 C 0.83294 0.66906 0.93293 0.0
C1499 C 0.83184 0.69166 0.94268 0.0
C1500 C 0.8368 0.70998 0.92806 0.0
C1501 C 0.8355 0.73121 0.93734 0.0
C1502 C 0.82947 0.73433 0.96129 0.0
C1503 C 0.82479 0.71623 0.97602 0.0
C1504 C 0.82602 0.69497 0.9668 0.0
C1505 C 0.90737 0.60989 0.93443 0.0
C1506 C 0.91026 0.60804 0.95898 0.0
C1507 C 0.88825 0.61863 0.92603 0.0
C1508 C 0.87141 0.62531 0.94198 0.0
C1509 C 0.87406 0.62308 0.96651 0.0
C1510 C 0.89334 0.61457 0.97494 0.0
C1511 C 0.85194 0.63595 0.9331 0.0
C1512 C 0.84895 0.65686 0.94256 0.0
C1513 C 0.8377 0.62657 0.91419 0.0
C1514 C 0.83899 0.60394 0.90449 0.0
C1515 C 0.8371 0.586 0.91975 0.0
C1516 C 0.83897 0.56483 0.91062 0.0
C1517 C 0.84254 0.56133 0.88622 0.0
C1518 C 0.84415 0.57899 0.87089 0.0
C1519 C 0.84234 0.60021 0.87993 0.0
H1520 H 0.84404 0.54494 0.8792 0.0
H1521 H 0.82848 0.75077 0.96846 0.0
H1522 H 0.43939 0.81194 0.16606 0.0
H1523 H 0.45499 0.84679 0.14793 0.0
H1524 H 0.40214 0.83558 0.09467 0.0
H1525 H 0.38632 0.80076 0.11275 0.0
H1526 H 0.43984 0.85326 0.07277 0.0
H1527 H 0.40263 0.87547 0.14442 0.0
H1528 H 0.39388 0.8771 0.18752 0.0
H1529 H 0.46536 0.90295 0.20102 0.0
H1530 H 0.4746 0.9012 0.15799 0.0
H1531 H 0.46577 0.96567 0.03005 0.0
H1532 H 0.44669 0.93053 0.04637 0.0
H1533 H 0.49723 0.93656 0.10201 0.0
H1534 H 0.51588 0.97129 0.08603 0.0
H1535 H 0.45844 0.92173 0.12197 0.0
H1536 H 0.49566 0.89852 0.04999 0.0
H1537 H 0.50389 0.89738 1.00677 0.0
H1538 H 0.43173 0.874 0.99378 0.0
H1539 H 0.42302 0.87527 0.03695 0.0
C1540 C 0.43072 0.81679 0.15067 0.0
C1541 C 0.41122 0.80281 0.1413 0.0
C1542 C 0.43982 0.83708 0.14012 0.0
C1543 C 0.42984 0.84466 0.11975 0.0
C1544 C 0.41057 0.83065 0.1102 0.0
C1545 C 0.40145 0.81036 0.12072 0.0
C1546 C 0.43936 0.8669 0.10852 0.0
C1547 C 0.44355 0.8682 0.08367 0.0
C1548 C 0.44481 0.88693 0.12215 0.0
C1549 C 0.43935 0.88799 0.14801 0.0
C1550 C 0.41651 0.88135 0.1566 0.0
C1551 C 0.41146 0.88231 0.18101 0.0
C1552 C 0.42907 0.89006 0.197 0.0
C1553 C 0.45175 0.89691 0.18861 0.0
C1554 C 0.4569 0.89595 0.16421 0.0
C1555 C 0.47284 0.95953 0.04572 0.0
C1556 C 0.49265 0.97171 0.05646 0.0
C1557 C 0.46192 0.93915 0.05513 0.0
C1558 C 0.47036 0.93011 0.07564 0.0
C1559 C 0.48993 0.94258 0.08636 0.0
C1560 C 0.50078 0.96271 0.077 0.0
C1561 C 0.45923 0.90806 0.08627 0.0
C1562 C 0.45472 0.9068 0.11105 0.0
C1563 C 0.45345 0.88813 0.07257 0.0
C1564 C 0.45865 0.88723 0.04667 0.0
C1565 C 0.48153 0.89328 0.0379 0.0
C1566 C 0.48628 0.89259 1.01342 0.0
C1567 C 0.46834 0.88569 0.99754 0.0
C1568 C 0.44561 0.87938 1.00611 0.0
C1569 C 0.44075 0.88007 0.03058 0.0
H1570 H 0.47205 0.88517 0.97859 0.0
H1571 H 0.42512 0.89081 0.2159 0.0
H1572 H 0.09765 0.26921 0.61848 0.0
H1573 H 0.08184 0.23397 0.59945 0.0
H1574 H 0.12824 0.20107 0.6398 0.0
H1575 H 0.14458 0.23641 0.65827 0.0
H1576 H 0.12726 0.18291 0.59896 0.0
H1577 H 0.06459 0.19891 0.65072 0.0
H1578 H 0.03543 0.22084 0.66784 0.0
H1579 H 1.00443 0.2219 0.59936 0.0
H1580 H 0.0336 0.20019 0.58176 0.0
H1581 H 0.06825 0.07283 0.57699 0.0
H1582 H 0.08455 0.10854 0.59496 0.0
H1583 H 0.04482 0.14158 0.54733 0.0
H1584 H 0.02841 0.10594 0.52939 0.0
H1585 H 0.04224 0.1595 0.59134 0.0
H1586 H 0.10541 0.14234 0.54031 0.0
H1587 H 0.13494 0.12024 0.5243 0.0
H1588 H 0.16473 0.12048 0.59352 0.0
H1589 H 0.1352 0.14234 0.61001 0.0
C1590 C 0.10441 0.25448 0.62352 0.0
C1591 C 0.12248 0.25598 0.64014 0.0
C1592 C 0.09521 0.2341 0.61259 0.0
C1593 C 0.10332 0.21427 0.61825 0.0
C1594 C 0.12144 0.2158 0.63482 0.0
C1595 C 0.13086 0.23621 0.64549 0.0
C1596 C 0.09334 0.19214 0.60678 0.0
C1597 C 0.10862 0.17779 0.59771 0.0
C1598 C 0.06899 0.1851 0.60435 0.0
C1599 C 0.05142 0.19812 0.61488 0.0
C1600 C 0.05165 0.20395 0.63928 0.0
C1601 C 0.03511 0.21632 0.64908 0.0
C1602 C 0.01813 0.22281 0.63469 0.0
C1603 C 0.01762 0.21689 0.61048 0.0
C1604 C 0.03414 0.20454 0.60058 0.0
C1605 C 0.06301 0.08766 0.57021 0.0
C1606 C 0.04702 0.08623 0.55147 0.0
C1607 C 0.07249 0.10824 0.58049 0.0
C1608 C 0.06627 0.12816 0.57252 0.0
C1609 C 0.05013 0.12671 0.55396 0.0
C1610 C 0.0408 0.10617 0.54353 0.0
C1611 C 0.07616 0.15034 0.58372 0.0
C1612 C 0.06086 0.16467 0.59268 0.0
C1613 C 0.10047 0.15726 0.58628 0.0
C1614 C 0.11796 0.1438 0.57644 0.0
C1615 C 0.11812 0.1375 0.55216 0.0
C1616 C 0.13489 0.12506 0.54299 0.0
C1617 C 0.15168 0.11896 0.5579 0.0
C1618 C 0.1517 0.12522 0.582 0.0
C1619 C 0.13497 0.13764 0.59126 0.0
H1620 H 0.16475 0.10947 0.55079 0.0
H1621 H 1.00534 0.23239 0.6423 0.0
H1622 H 0.66684 0.25278 0.52833 0.0
H1623 H 0.64975 0.28624 0.53923 0.0
H1624 H 0.59019 0.26276 0.49608 0.0
H1625 H 0.60728 0.2296 0.48503 0.0
H1626 H 0.61223 0.302 0.48235 0.0
H1627 H 0.58432 0.2684 0.55565 0.0
H1628 H 0.58789 0.2503 0.59364 0.0
H1629 H 0.63419 0.30675 0.61915 0.0
H1630 H 0.63116 0.32507 0.58116 0.0
H1631 H 0.53783 0.38422 0.52626 0.0
H1632 H 0.55378 0.35068 0.53522 0.0
H1633 H 0.6213 0.37961 0.50877 0.0
H1634 H 0.60572 0.41343 0.50028 0.0
H1635 H 0.5948 0.33792 0.55979 0.0
H1636 H 0.63462 0.3424 0.46596 0.0
H1637 H 0.63003 0.36037 0.42804 0.0
H1638 H 0.5571 0.35995 0.44376 0.0
H1639 H 0.5612 0.34163 0.48153 0.0
C1640 C 0.64979 0.25455 0.52181 0.0
C1641 C 0.63845 0.23887 0.50564 0.0
C1642 C 0.64005 0.2736 0.52803 0.0
C1643 C 0.61879 0.277 0.51831 0.0
C1644 C 0.60668 0.26049 0.50364 0.0
C1645 C 0.61644 0.24161 0.49732 0.0
C1646 C 0.6107 0.29879 0.52047 0.0
C1647 C 0.6084 0.30975 0.49933 0.0
C1648 C 0.60587 0.309 0.54261 0.0
C1649 C 0.6077 0.29801 0.56545 0.0
C1650 C 0.59544 0.27687 0.56927 0.0
C1651 C 0.59732 0.26659 0.59083 0.0
C1652 C 0.61131 0.27734 0.60877 0.0
C1653 C 0.62339 0.29843 0.60522 0.0
C1654 C 0.62157 0.30877 0.58368 0.0
C1655 C 0.55625 0.38376 0.52305 0.0
C1656 C 0.5704 0.40131 0.51203 0.0
C1657 C 0.56534 0.3646 0.52829 0.0
C1658 C 0.58861 0.36269 0.52243 0.0
C1659 C 0.60324 0.3808 0.51327 0.0
C1660 C 0.59421 0.39996 0.50811 0.0
C1661 C 0.59637 0.3408 0.52171 0.0
C1662 C 0.59872 0.33 0.54295 0.0
C1663 C 0.60112 0.33049 0.49966 0.0
C1664 C 0.59829 0.34089 0.47666 0.0
C1665 C 0.61759 0.34605 0.46125 0.0
C1666 C 0.61508 0.3563 0.43979 0.0
C1667 C 0.5933 0.36137 0.43354 0.0
C1668 C 0.57397 0.35609 0.44866 0.0
C1669 C 0.57639 0.34578 0.4701 0.0
H1670 H 0.5914 0.36935 0.41695 0.0
H1671 H 0.61274 0.26936 0.62545 0.0
loop_
_geom_bond_atom_site_label_1
_geom_bond_atom_site_label_2
_geom_bond_distance
_geom_bond_site_symmetry_2
_ccdc_geom_bond_type
C0 C1 1.386 . S
C0 C2 1.397 . S
C0 H24 0.931 . S
C1 C0 1.386 . S
C1 C5 1.397 . S
C2 C0 1.397 . S
C2 C3 1.384 . S
C2 H25 0.930 . S
C3 C2 1.384 . S
C3 C4 1.377 . S
C3 C6 1.481 . S
C4 C3 1.377 . S
C4 C5 1.389 . S
C4 H26 0.929 . S
C5 C1 1.397 . S
C5 C4 1.389 . S
C5 H27 0.931 . S
C6 C3 1.481 . S
C6 C7 1.387 . S
C6 C11 1.390 . S
C7 C6 1.387 . S
C7 C8 1.401 . S
C7 H28 0.930 . S
C8 C7 1.401 . S
C8 C9 1.376 . S
C8 C17 1.511 . S
C9 C8 1.376 . S
C9 C10 1.392 . S
C9 H30 0.931 . S
C10 C9 1.392 . S
C10 C11 1.361 . S
C10 C12 1.500 . S
C11 C6 1.390 . S
C11 C10 1.361 . S
C11 H29 0.931 . S
C12 C10 1.500 . S
C12 C13 1.371 . S
C12 C14 1.365 . S
C13 C12 1.371 . S
C13 C23 1.386 . S
C13 H31 0.931 . S
C14 C12 1.365 . S
C14 C15 1.409 . S
C14 H32 0.929 . S
C15 C14 1.409 . S
C15 C16 1.380 . S
C15 H33 0.930 . S
C16 C15 1.380 . S
C16 C23 1.357 . S
C17 C8 1.511 . S
C17 C18 1.341 . S
C17 C19 1.371 . S
C18 C17 1.341 . S
C18 C22 1.394 . S
C18 H34 0.930 . S
C19 C17 1.371 . S
C19 C20 1.392 . S
C19 H35 0.931 . S
C20 C19 1.392 . S
C20 C21 1.331 . S
C20 H38 0.932 . S
C21 C20 1.331 . S
C21 C22 1.336 . S
C22 C18 1.394 . S
C22 C21 1.336 . S
C22 H37 0.929 . S
C23 C13 1.386 . S
C23 C16 1.357 . S
C23 H36 0.928 . S
H24 C0 0.931 . S
H25 C2 0.930 . S
H26 C4 0.929 . S
H27 C5 0.931 . S
H28 C7 0.930 . S
H29 C11 0.931 . S
H30 C9 0.931 . S
H31 C13 0.931 . S
H32 C14 0.929 . S
H33 C15 0.930 . S
H34 C18 0.930 . S
H35 C19 0.931 . S
H36 C23 0.928 . S
H37 C22 0.929 . S
H38 C20 0.932 . S
C39 C40 1.386 . S
C39 C41 1.397 . S
C39 H63 0.931 . S
C40 C39 1.386 . S
C40 C44 1.397 . S
C41 C39 1.397 . S
C41 C42 1.384 . S
C41 H64 0.930 . S
C42 C41 1.384 . S
C42 C43 1.377 . S
C42 C45 1.481 . S
C43 C42 1.377 . S
C43 C44 1.389 . S
C43 H65 0.929 . S
C44 C40 1.397 . S
C44 C43 1.389 . S
C44 H66 0.931 . S
C45 C42 1.481 . S
C45 C46 1.387 . S
C45 C50 1.390 . S
C46 C45 1.387 . S
C46 C47 1.401 . S
C46 H67 0.930 . S
C47 C46 1.401 . S
C47 C48 1.376 . S
C47 C56 1.511 . S
C48 C47 1.376 . S
C48 C49 1.392 . S
C48 H69 0.931 . S
C49 C48 1.392 . S
C49 C50 1.361 . S
C49 C51 1.500 . S
C50 C45 1.390 . S
C50 C49 1.361 . S
C50 H68 0.931 . S
C51 C49 1.500 . S
C51 C52 1.371 . S
C51 C53 1.365 . S
C52 C51 1.371 . S
C52 C62 1.386 . S
C52 H70 0.931 . S
C53 C51 1.365 . S
C53 C54 1.409 . S
C53 H71 0.929 . S
C54 C53 1.409 . S
C54 C55 1.380 . S
C54 H72 0.930 . S
C55 C54 1.380 . S
C55 C62 1.357 . S
C56 C47 1.511 . S
C56 C57 1.341 . S
C56 C58 1.371 . S
C57 C56 1.341 . S
C57 C61 1.394 . S
C57 H73 0.930 . S
C58 C56 1.371 . S
C58 C59 1.392 . S
C58 H74 0.931 . S
C59 C58 1.392 . S
C59 C60 1.331 . S
C59 H77 0.932 . S
C60 C59 1.331 . S
C60 C61 1.336 . S
C61 C57 1.394 . S
C61 C60 1.336 . S
C61 H76 0.929 . S
C62 C52 1.386 . S
C62 C55 1.357 . S
C62 H75 0.928 . S
H63 C39 0.931 . S
H64 C41 0.930 . S
H65 C43 0.929 . S
H66 C44 0.931 . S
H67 C46 0.930 . S
H68 C50 0.931 . S
H69 C48 0.931 . S
H70 C52 0.931 . S
H71 C53 0.929 . S
H72 C54 0.930 . S
H73 C57 0.930 . S
H74 C58 0.931 . S
H75 C62 0.928 . S
H76 C61 0.929 . S
H77 C59 0.932 . S
C78 C79 1.386 . S
C78 C80 1.397 . S
C78 H102 0.931 . S
C79 C78 1.386 . S
C79 C83 1.397 . S
C80 C78 1.397 . S
C80 C81 1.384 . S
C80 H103 0.930 . S
C81 C80 1.384 . S
C81 C82 1.377 . S
C81 C84 1.481 . S
C82 C81 1.377 . S
C82 C83 1.389 . S
C82 H104 0.929 . S
C83 C79 1.397 . S
C83 C82 1.389 . S
C83 H105 0.931 . S
C84 C81 1.481 . S
C84 C85 1.387 . S
C84 C89 1.390 . S
C85 C84 1.387 . S
C85 C86 1.401 . S
C85 H106 0.930 . S
C86 C85 1.401 . S
C86 C87 1.376 . S
C86 C95 1.511 . S
C87 C86 1.376 . S
C87 C88 1.392 . S
C87 H108 0.931 . S
C88 C87 1.392 . S
C88 C89 1.361 . S
C88 C90 1.500 . S
C89 C84 1.390 . S
C89 C88 1.361 . S
C89 H107 0.931 . S
C90 C88 1.500 . S
C90 C91 1.371 . S
C90 C92 1.365 . S
C91 C90 1.371 . S
C91 C101 1.386 . S
C91 H109 0.931 . S
C92 C90 1.365 . S
C92 C93 1.409 . S
C92 H110 0.929 . S
C93 C92 1.409 . S
C93 C94 1.380 . S
C93 H111 0.930 . S
C94 C93 1.380 . S
C94 C101 1.357 . S
C95 C86 1.511 . S
C95 C96 1.341 . S
C95 C97 1.371 . S
C96 C95 1.341 . S
C96 C100 1.394 . S
C96 H112 0.930 . S
C97 C95 1.371 . S
C97 C98 1.392 . S
C97 H113 0.931 . S
C98 C97 1.392 . S
C98 C99 1.331 . S
C98 H116 0.932 . S
C99 C98 1.331 . S
C99 C100 1.336 . S
C100 C96 1.394 . S
C100 C99 1.336 . S
C100 H115 0.929 . S
C101 C91 1.386 . S
C101 C94 1.357 . S
C101 H114 0.928 . S
H102 C78 0.931 . S
H103 C80 0.930 . S
H104 C82 0.929 . S
H105 C83 0.931 . S
H106 C85 0.930 . S
H107 C89 0.931 . S
H108 C87 0.931 . S
H109 C91 0.931 . S
H110 C92 0.929 . S
H111 C93 0.930 . S
H112 C96 0.930 . S
H113 C97 0.931 . S
H114 C101 0.928 . S
H115 C100 0.929 . S
H116 C98 0.932 . S
C117 C118 1.386 . S
C117 C119 1.397 . S
C117 H141 0.931 . S
C118 C117 1.386 . S
C118 C122 1.397 . S
C119 C117 1.397 . S
C119 C120 1.384 . S
C119 H142 0.930 . S
C120 C119 1.384 . S
C120 C121 1.377 . S
C120 C123 1.481 . S
C121 C120 1.377 . S
C121 C122 1.389 . S
C121 H143 0.929 . S
C122 C118 1.397 . S
C122 C121 1.389 . S
C122 H144 0.931 . S
C123 C120 1.481 . S
C123 C124 1.387 . S
C123 C128 1.390 . S
C124 C123 1.387 . S
C124 C125 1.401 . S
C124 H145 0.930 . S
C125 C124 1.401 . S
C125 C126 1.376 . S
C125 C134 1.511 . S
C126 C125 1.376 . S
C126 C127 1.392 . S
C126 H147 0.931 . S
C127 C126 1.392 . S
C127 C128 1.361 . S
C127 C129 1.500 . S
C128 C123 1.390 . S
C128 C127 1.361 . S
C128 H146 0.931 . S
C129 C127 1.500 . S
C129 C130 1.371 . S
C129 C131 1.365 . S
C130 C129 1.371 . S
C130 C140 1.386 . S
C130 H148 0.931 . S
C131 C129 1.365 . S
C131 C132 1.409 . S
C131 H149 0.929 . S
C132 C131 1.409 . S
C132 C133 1.380 . S
C132 H150 0.930 . S
C133 C132 1.380 . S
C133 C140 1.357 . S
C134 C125 1.511 . S
C134 C135 1.341 . S
C134 C136 1.371 . S
C135 C134 1.341 . S
C135 C139 1.394 . S
C135 H151 0.930 . S
C136 C134 1.371 . S
C136 C137 1.392 . S
C136 H152 0.931 . S
C137 C136 1.392 . S
C137 C138 1.331 . S
C137 H155 0.932 . S
C138 C137 1.331 . S
C138 C139 1.336 . S
C139 C135 1.394 . S
C139 C138 1.336 . S
C139 H154 0.929 . S
C140 C130 1.386 . S
C140 C133 1.357 . S
C140 H153 0.928 . S
H141 C117 0.931 . S
H142 C119 0.930 . S
H143 C121 0.929 . S
H144 C122 0.931 . S
H145 C124 0.930 . S
H146 C128 0.931 . S
H147 C126 0.931 . S
H148 C130 0.931 . S
H149 C131 0.929 . S
H150 C132 0.930 . S
H151 C135 0.930 . S
H152 C136 0.931 . S
H153 C140 0.928 . S
H154 C139 0.929 . S
H155 C137 0.932 . S
C156 C157 1.386 . S
C156 C158 1.397 . S
C156 H180 0.931 . S
C157 C156 1.386 . S
C157 C161 1.397 . S
C158 C156 1.397 . S
C158 C159 1.384 . S
C158 H181 0.930 . S
C159 C158 1.384 . S
C159 C160 1.377 . S
C159 C162 1.481 . S
C160 C159 1.377 . S
C160 C161 1.389 . S
C160 H182 0.929 . S
C161 C157 1.397 . S
C161 C160 1.389 . S
C161 H183 0.931 . S
C162 C159 1.481 . S
C162 C163 1.387 . S
C162 C167 1.390 . S
C163 C162 1.387 . S
C163 C164 1.401 . S
C163 H184 0.930 . S
C164 C163 1.401 . S
C164 C165 1.376 . S
C164 C173 1.511 . S
C165 C164 1.376 . S
C165 C166 1.392 . S
C165 H186 0.931 . S
C166 C165 1.392 . S
C166 C167 1.361 . S
C166 C168 1.500 . S
C167 C162 1.390 . S
C167 C166 1.361 . S
C167 H185 0.931 . S
C168 C166 1.500 . S
C168 C169 1.371 . S
C168 C170 1.365 . S
C169 C168 1.371 . S
C169 C179 1.386 . S
C169 H187 0.931 . S
C170 C168 1.365 . S
C170 C171 1.409 . S
C170 H188 0.929 . S
C171 C170 1.409 . S
C171 C172 1.380 . S
C171 H189 0.930 . S
C172 C171 1.380 . S
C172 C179 1.357 . S
C173 C164 1.511 . S
C173 C174 1.341 . S
C173 C175 1.371 . S
C174 C173 1.341 . S
C174 C178 1.394 . S
C174 H190 0.930 . S
C175 C173 1.371 . S
C175 C176 1.392 . S
C175 H191 0.931 . S
C176 C175 1.392 . S
C176 C177 1.331 . S
C176 H194 0.932 . S
C177 C176 1.331 . S
C177 C178 1.336 . S
C178 C174 1.394 . S
C178 C177 1.336 . S
C178 H193 0.929 . S
C179 C169 1.386 . S
C179 C172 1.357 . S
C179 H192 0.928 . S
H180 C156 0.931 . S
H181 C158 0.930 . S
H182 C160 0.929 . S
H183 C161 0.931 . S
H184 C163 0.930 . S
H185 C167 0.931 . S
H186 C165 0.931 . S
H187 C169 0.931 . S
H188 C170 0.929 . S
H189 C171 0.930 . S
H190 C174 0.930 . S
H191 C175 0.931 . S
H192 C179 0.928 . S
H193 C178 0.929 . S
H194 C176 0.932 . S
C195 C196 1.386 . S
C195 C197 1.397 . S
C195 H219 0.931 . S
C196 C195 1.386 . S
C196 C200 1.397 . S
C197 C195 1.397 . S
C197 C198 1.384 . S
C197 H220 0.930 . S
C198 C197 1.384 . S
C198 C199 1.377 . S
C198 C201 1.481 . S
C199 C198 1.377 . S
C199 C200 1.389 . S
C199 H221 0.929 . S
C200 C196 1.397 . S
C200 C199 1.389 . S
C200 H222 0.931 . S
C201 C198 1.481 . S
C201 C202 1.387 . S
C201 C206 1.390 . S
C202 C201 1.387 . S
C202 C203 1.401 . S
C202 H223 0.930 . S
C203 C202 1.401 . S
C203 C204 1.376 . S
C203 C212 1.511 . S
C204 C203 1.376 . S
C204 C205 1.392 . S
C204 H225 0.931 . S
C205 C204 1.392 . S
C205 C206 1.361 . S
C205 C207 1.500 . S
C206 C201 1.390 . S
C206 C205 1.361 . S
C206 H224 0.931 . S
C207 C205 1.500 . S
C207 C208 1.371 . S
C207 C209 1.365 . S
C208 C207 1.371 . S
C208 C218 1.386 . S
C208 H226 0.931 . S
C209 C207 1.365 . S
C209 C210 1.409 . S
C209 H227 0.929 . S
C210 C209 1.409 . S
C210 C211 1.380 . S
C210 H228 0.930 . S
C211 C210 1.380 . S
C211 C218 1.357 . S
C212 C203 1.511 . S
C212 C213 1.341 . S
C212 C214 1.371 . S
C213 C212 1.341 . S
C213 C217 1.394 . S
C213 H229 0.930 . S
C214 C212 1.371 . S
C214 C215 1.392 . S
C214 H230 0.931 . S
C215 C214 1.392 . S
C215 C216 1.331 . S
C215 H233 0.932 . S
C216 C215 1.331 . S
C216 C217 1.336 . S
C217 C213 1.394 . S
C217 C216 1.336 . S
C217 H232 0.929 . S
C218 C208 1.386 . S
C218 C211 1.357 . S
C218 H231 0.928 . S
H219 C195 0.931 . S
H220 C197 0.930 . S
H221 C199 0.929 . S
H222 C200 0.931 . S
H223 C202 0.930 . S
H224 C206 0.931 . S
H225 C204 0.931 . S
H226 C208 0.931 . S
H227 C209 0.929 . S
H228 C210 0.930 . S
H229 C213 0.930 . S
H230 C214 0.931 . S
H231 C218 0.928 . S
H232 C217 0.929 . S
H233 C215 0.932 . S
C234 C235 1.386 . S
C234 C236 1.397 . S
C234 H258 0.931 . S
C235 C234 1.386 . S
C235 C239 1.397 . S
C236 C234 1.397 . S
C236 C237 1.384 . S
C236 H259 0.930 . S
C237 C236 1.384 . S
C237 C238 1.377 . S
C237 C240 1.481 . S
C238 C237 1.377 . S
C238 C239 1.389 . S
C238 H260 0.929 . S
C239 C235 1.397 . S
C239 C238 1.389 . S
C239 H261 0.931 . S
C240 C237 1.481 . S
C240 C241 1.387 . S
C240 C245 1.390 . S
C241 C240 1.387 . S
C241 C242 1.401 . S
C241 H262 0.930 . S
C242 C241 1.401 . S
C242 C243 1.376 . S
C242 C251 1.511 . S
C243 C242 1.376 . S
C243 C244 1.392 . S
C243 H264 0.931 . S
C244 C243 1.392 . S
C244 C245 1.361 . S
C244 C246 1.500 . S
C245 C240 1.390 . S
C245 C244 1.361 . S
C245 H263 0.931 . S
C246 C244 1.500 . S
C246 C247 1.371 . S
C246 C248 1.365 . S
C247 C246 1.371 . S
C247 C257 1.386 . S
C247 H265 0.931 . S
C248 C246 1.365 . S
C248 C249 1.409 . S
C248 H266 0.929 . S
C249 C248 1.409 . S
C249 C250 1.380 . S
C249 H267 0.930 . S
C250 C249 1.380 . S
C250 C257 1.357 . S
C251 C242 1.511 . S
C251 C252 1.341 . S
C251 C253 1.371 . S
C252 C251 1.341 . S
C252 C256 1.394 . S
C252 H268 0.930 . S
C253 C251 1.371 . S
C253 C254 1.392 . S
C253 H269 0.931 . S
C254 C253 1.392 . S
C254 C255 1.331 . S
C254 H272 0.932 . S
C255 C254 1.331 . S
C255 C256 1.336 . S
C256 C252 1.394 . S
C256 C255 1.336 . S
C256 H271 0.929 . S
C257 C247 1.386 . S
C257 C250 1.357 . S
C257 H270 0.928 . S
H258 C234 0.931 . S
H259 C236 0.930 . S
H260 C238 0.929 . S
H261 C239 0.931 . S
H262 C241 0.930 . S
H263 C245 0.931 . S
H264 C243 0.931 . S
H265 C247 0.931 . S
H266 C248 0.929 . S
H267 C249 0.930 . S
H268 C252 0.930 . S
H269 C253 0.931 . S
H270 C257 0.928 . S
H271 C256 0.929 . S
H272 C254 0.932 . S
C273 C274 1.386 . S
C273 C275 1.397 . S
C273 H297 0.931 . S
C274 C273 1.386 . S
C274 C278 1.397 . S
C275 C273 1.397 . S
C275 C276 1.384 . S
C275 H298 0.930 . S
C276 C275 1.384 . S
C276 C277 1.377 . S
C276 C279 1.481 . S
C277 C276 1.377 . S
C277 C278 1.389 . S
C277 H299 0.929 . S
C278 C274 1.397 . S
C278 C277 1.389 . S
C278 H300 0.931 . S
C279 C276 1.481 . S
C279 C280 1.387 . S
C279 C284 1.390 . S
C280 C279 1.387 . S
C280 C281 1.401 . S
C280 H301 0.930 . S
C281 C280 1.401 . S
C281 C282 1.376 . S
C281 C290 1.511 . S
C282 C281 1.376 . S
C282 C283 1.392 . S
C282 H303 0.931 . S
C283 C282 1.392 . S
C283 C284 1.361 . S
C283 C285 1.500 . S
C284 C279 1.390 . S
C284 C283 1.361 . S
C284 H302 0.931 . S
C285 C283 1.500 . S
C285 C286 1.371 . S
C285 C287 1.365 . S
C286 C285 1.371 . S
C286 C296 1.386 . S
C286 H304 0.931 . S
C287 C285 1.365 . S
C287 C288 1.409 . S
C287 H305 0.929 . S
C288 C287 1.409 . S
C288 C289 1.380 . S
C288 H306 0.930 . S
C289 C288 1.380 . S
C289 C296 1.357 . S
C290 C281 1.511 . S
C290 C291 1.341 . S
C290 C292 1.371 . S
C291 C290 1.341 . S
C291 C295 1.394 . S
C291 H307 0.930 . S
C292 C290 1.371 . S
C292 C293 1.392 . S
C292 H308 0.931 . S
C293 C292 1.392 . S
C293 C294 1.331 . S
C293 H311 0.932 . S
C294 C293 1.331 . S
C294 C295 1.336 . S
C295 C291 1.394 . S
C295 C294 1.336 . S
C295 H310 0.929 . S
C296 C286 1.386 . S
C296 C289 1.357 . S
C296 H309 0.928 . S
H297 C273 0.931 . S
H298 C275 0.930 . S
H299 C277 0.929 . S
H300 C278 0.931 . S
H301 C280 0.930 . S
H302 C284 0.931 . S
H303 C282 0.931 . S
H304 C286 0.931 . S
H305 C287 0.929 . S
H306 C288 0.930 . S
H307 C291 0.930 . S
H308 C292 0.931 . S
H309 C296 0.928 . S
H310 C295 0.929 . S
H311 C293 0.932 . S
La312 C314 2.928 . S
La312 O332 2.521 . S
La312 O333 2.628 . S
La312 O334 2.554 1_545 S
La312 O335 2.757 1_545 S
La312 O336 2.470 . S
La312 O341 2.482 1_455 S
La312 O343 2.503 1_445 S
La313 C323 2.917 1_545 S
La313 O335 2.476 1_645 S
La313 O337 2.515 1_655 S
La313 O338 2.515 1_545 S
La313 O339 2.614 1_545 S
La313 O340 2.562 . S
La313 O341 2.764 . S
La313 O342 2.461 1_545 S
C314 La312 2.928 . S
C314 C315 1.503 . S
C314 O332 1.261 . S
C314 O333 1.243 . S
C315 C314 1.503 . S
C315 C316 1.394 . S
C315 C320 1.373 . S
C316 C315 1.394 . S
C316 C317 1.380 . S
C316 H344 0.930 . S
C317 C316 1.380 . S
C317 C318 1.376 . S
C317 H345 0.930 . S
C318 C317 1.376 . S
C318 C319 1.370 . S
C319 C318 1.370 . S
C319 C320 1.396 . S
C319 H346 0.929 . S
C320 C315 1.373 . S
C320 C319 1.396 . S
C320 H347 0.929 . S
C321 O334 1.240 . S
C321 O335 1.289 . S
C322 O336 1.258 . S
C322 O337 1.256 . S
C323 La313 2.917 1_565 S
C323 C324 1.503 . S
C323 O338 1.261 . S
C323 O339 1.243 . S
C324 C323 1.503 . S
C324 C325 1.394 . S
C324 C329 1.373 . S
C325 C324 1.394 . S
C325 C326 1.380 . S
C325 H348 0.930 . S
C326 C325 1.380 . S
C326 C327 1.376 . S
C326 H349 0.930 . S
C327 C326 1.376 . S
C327 C328 1.370 . S
C328 C327 1.370 . S
C328 C329 1.396 . S
C328 H350 0.929 . S
C329 C324 1.373 . S
C329 C328 1.396 . S
C329 H351 0.929 . S
C330 O340 1.240 . S
C330 O341 1.289 . S
C331 O342 1.258 . S
C331 O343 1.256 . S
O332 La312 2.521 . S
O332 C314 1.261 . S
O333 La312 2.628 . S
O333 C314 1.243 . S
O334 La312 2.554 1_565 S
O334 C321 1.240 . S
O335 La312 2.757 1_565 S
O335 La313 2.476 1_465 S
O335 C321 1.289 . S
O336 La312 2.470 . S
O336 C322 1.258 . S
O337 La313 2.515 1_455 S
O337 C322 1.256 . S
O338 La313 2.515 1_565 S
O338 C323 1.261 . S
O339 La313 2.614 1_565 S
O339 C323 1.243 . S
O340 La313 2.562 . S
O340 C330 1.240 . S
O341 La312 2.482 1_655 S
O341 La313 2.764 . S
O341 C330 1.289 . S
O342 La313 2.461 1_565 S
O342 C331 1.258 . S
O343 La312 2.503 1_665 S
O343 C331 1.256 . S
H344 C316 0.930 . S
H345 C317 0.930 . S
H346 C319 0.929 . S
H347 C320 0.929 . S
H348 C325 0.930 . S
H349 C326 0.930 . S
H350 C328 0.929 . S
H351 C329 0.929 . S
La352 C354 2.928 . S
La352 O372 2.521 . S
La352 O373 2.628 . S
La352 O374 2.554 1_545 S
La352 O375 2.757 1_545 S
La352 O376 2.470 . S
La352 O381 2.482 1_554 S
La352 O383 2.503 1_544 S
La353 C363 2.928 1_545 S
La353 O375 2.482 1_546 S
La353 O377 2.503 1_556 S
La353 O378 2.521 1_545 S
La353 O379 2.628 1_545 S
La353 O380 2.554 . S
La353 O381 2.757 . S
La353 O382 2.470 1_545 S
C354 La352 2.928 . S
C354 C355 1.503 . S
C354 O372 1.261 . S
C354 O373 1.243 . S
C355 C354 1.503 . S
C355 C356 1.394 . S
C355 C360 1.373 . S
C356 C355 1.394 . S
C356 C357 1.380 . S
C356 H384 0.930 . S
C357 C356 1.380 . S
C357 C358 1.376 . S
C357 H385 0.930 . S
C358 C357 1.376 . S
C358 C359 1.370 . S
C359 C358 1.370 . S
C359 C360 1.396 . S
C359 H386 0.929 . S
C360 C355 1.373 . S
C360 C359 1.396 . S
C360 H387 0.929 . S
C361 O374 1.240 . S
C361 O375 1.289 . S
C362 O376 1.258 . S
C362 O377 1.256 . S
C363 La353 2.928 1_565 S
C363 C364 1.503 . S
C363 O378 1.261 . S
C363 O379 1.243 . S
C364 C363 1.503 . S
C364 C365 1.394 . S
C364 C369 1.373 . S
C365 C364 1.394 . S
C365 C366 1.380 . S
C365 H388 0.930 . S
C366 C365 1.380 . S
C366 C367 1.376 . S
C366 H389 0.930 . S
C367 C366 1.376 . S
C367 C368 1.370 . S
C368 C367 1.370 . S
C368 C369 1.396 . S
C368 H390 0.929 . S
C369 C364 1.373 . S
C369 C368 1.396 . S
C369 H391 0.929 . S
C370 O380 1.240 . S
C370 O381 1.289 . S
C371 O382 1.258 . S
C371 O383 1.256 . S
O372 La352 2.521 . S
O372 C354 1.261 . S
O373 La352 2.628 . S
O373 C354 1.243 . S
O374 La352 2.554 1_565 S
O374 C361 1.240 . S
O375 La352 2.757 1_565 S
O375 La353 2.482 1_564 S
O375 C361 1.289 . S
O376 La352 2.470 . S
O376 C362 1.258 . S
O377 La353 2.503 1_554 S
O377 C362 1.256 . S
O378 La353 2.521 1_565 S
O378 C363 1.261 . S
O379 La353 2.628 1_565 S
O379 C363 1.243 . S
O380 La353 2.554 . S
O380 C370 1.240 . S
O381 La352 2.482 1_556 S
O381 La353 2.757 . S
O381 C370 1.289 . S
O382 La353 2.470 1_565 S
O382 C371 1.258 . S
O383 La352 2.503 1_566 S
O383 C371 1.256 . S
H384 C356 0.930 . S
H385 C357 0.930 . S
H386 C359 0.929 . S
H387 C360 0.929 . S
H388 C365 0.930 . S
H389 C366 0.930 . S
H390 C368 0.929 . S
H391 C369 0.929 . S
La392 C394 2.928 . S
La392 O412 2.521 . S
La392 O413 2.628 . S
La392 O414 2.554 . S
La392 O415 2.757 . S
La392 O416 2.470 . S
La392 O421 2.482 . S
La392 O423 2.503 . S
La393 C403 2.928 . S
La393 O415 2.482 . S
La393 O417 2.503 . S
La393 O418 2.521 . S
La393 O419 2.628 . S
La393 O420 2.554 . S
La393 O421 2.757 . S
La393 O422 2.470 . S
C394 La392 2.928 . S
C394 C395 1.503 . S
C394 O412 1.261 . S
C394 O413 1.243 . S
C395 C394 1.503 . S
C395 C396 1.394 . S
C395 C400 1.373 . S
C396 C395 1.394 . S
C396 C397 1.380 . S
C396 H424 0.930 . S
C397 C396 1.380 . S
C397 C398 1.376 . S
C397 H425 0.930 . S
C398 C397 1.376 . S
C398 C399 1.370 . S
C399 C398 1.370 . S
C399 C400 1.396 . S
C399 H426 0.929 . S
C400 C395 1.373 . S
C400 C399 1.396 . S
C400 H427 0.929 . S
C401 O414 1.240 . S
C401 O415 1.289 . S
C402 O416 1.258 . S
C402 O417 1.256 . S
C403 La393 2.928 . S
C403 C404 1.503 . S
C403 O418 1.261 . S
C403 O419 1.243 . S
C404 C403 1.503 . S
C404 C405 1.394 . S
C404 C409 1.373 . S
C405 C404 1.394 . S
C405 C406 1.380 . S
C405 H428 0.930 . S
C406 C405 1.380 . S
C406 C407 1.376 . S
C406 H429 0.930 . S
C407 C406 1.376 . S
C407 C408 1.370 . S
C408 C407 1.370 . S
C408 C409 1.396 . S
C408 H430 0.929 . S
C409 C404 1.373 . S
C409 C408 1.396 . S
C409 H431 0.929 . S
C410 O420 1.240 . S
C410 O421 1.289 . S
C411 O422 1.258 . S
C411 O423 1.256 . S
O412 La392 2.521 . S
O412 C394 1.261 . S
O413 La392 2.628 . S
O413 C394 1.243 . S
O414 La392 2.554 . S
O414 C401 1.240 . S
O415 La392 2.757 . S
O415 La393 2.482 . S
O415 C401 1.289 . S
O416 La392 2.470 . S
O416 C402 1.258 . S
O417 La393 2.503 . S
O417 C402 1.256 . S
O418 La393 2.521 . S
O418 C403 1.261 . S
O419 La393 2.628 . S
O419 C403 1.243 . S
O420 La393 2.554 . S
O420 C410 1.240 . S
O421 La392 2.482 . S
O421 La393 2.757 . S
O421 C410 1.289 . S
O422 La393 2.470 . S
O422 C411 1.258 . S
O423 La392 2.503 . S
O423 C411 1.256 . S
H424 C396 0.930 . S
H425 C397 0.930 . S
H426 C399 0.929 . S
H427 C400 0.929 . S
H428 C405 0.930 . S
H429 C406 0.930 . S
H430 C408 0.929 . S
H431 C409 0.929 . S
La432 C434 2.928 . S
La432 O452 2.521 . S
La432 O453 2.628 . S
La432 O454 2.554 1_455 S
La432 O455 2.757 1_455 S
La432 O456 2.470 . S
La432 O461 2.482 1_554 S
La432 O463 2.503 1_454 S
La433 C443 2.895 1_455 S
La433 O455 2.471 1_456 S
La433 O457 2.537 1_556 S
La433 O458 2.500 1_455 S
La433 O459 2.589 1_455 S
La433 O460 2.573 . S
La433 O461 2.779 . S
La433 O462 2.447 1_455 S
C434 La432 2.928 . S
C434 C435 1.503 . S
C434 O452 1.261 . S
C434 O453 1.243 . S
C435 C434 1.503 . S
C435 C436 1.394 . S
C435 C440 1.373 . S
C436 C435 1.394 . S
C436 C437 1.380 . S
C436 H464 0.930 . S
C437 C436 1.380 . S
C437 C438 1.376 . S
C437 H465 0.930 . S
C438 C437 1.376 . S
C438 C439 1.370 . S
C439 C438 1.370 . S
C439 C440 1.396 . S
C439 H466 0.929 . S
C440 C435 1.373 . S
C440 C439 1.396 . S
C440 H467 0.929 . S
C441 O454 1.240 . S
C441 O455 1.289 . S
C442 O456 1.258 . S
C442 O457 1.256 . S
C443 La433 2.895 1_655 S
C443 C444 1.503 . S
C443 O458 1.261 . S
C443 O459 1.243 . S
C444 C443 1.503 . S
C444 C445 1.394 . S
C444 C449 1.373 . S
C445 C444 1.394 . S
C445 C446 1.380 . S
C445 H468 0.930 . S
C446 C445 1.380 . S
C446 C447 1.376 . S
C446 H469 0.930 . S
C447 C446 1.376 . S
C447 C448 1.370 . S
C448 C447 1.370 . S
C448 C449 1.396 . S
C448 H470 0.929 . S
C449 C444 1.373 . S
C449 C448 1.396 . S
C449 H471 0.929 . S
C450 O460 1.240 . S
C450 O461 1.289 . S
C451 O462 1.258 . S
C451 O463 1.256 . S
O452 La432 2.521 . S
O452 C434 1.261 . S
O453 La432 2.628 . S
O453 C434 1.243 . S
O454 La432 2.554 1_655 S
O454 C441 1.240 . S
O455 La432 2.757 1_655 S
O455 La433 2.471 1_654 S
O455 C441 1.289 . S
O456 La432 2.470 . S
O456 C442 1.258 . S
O457 La433 2.537 1_554 S
O457 C442 1.256 . S
O458 La433 2.500 1_655 S
O458 C443 1.261 . S
O459 La433 2.589 1_655 S
O459 C443 1.243 . S
O460 La433 2.573 . S
O460 C450 1.240 . S
O461 La432 2.482 1_556 S
O461 La433 2.779 . S
O461 C450 1.289 . S
O462 La433 2.447 1_655 S
O462 C451 1.258 . S
O463 La432 2.503 1_656 S
O463 C451 1.256 . S
H464 C436 0.930 . S
H465 C437 0.930 . S
H466 C439 0.929 . S
H467 C440 0.929 . S
H468 C445 0.930 . S
H469 C446 0.930 . S
H470 C448 0.929 . S
H471 C449 0.929 . S
H472 C490 0.951 . S
H473 C492 0.951 . S
H474 C494 0.950 . S
H475 C495 0.950 . S
H476 C497 0.950 . S
H477 C500 0.950 . S
H478 C501 0.950 . S
H479 C503 0.950 . S
H480 C504 0.950 . S
H481 C505 0.951 . S
H482 C507 0.951 . S
H483 C509 0.950 . S
H484 C510 0.950 . S
H485 C512 0.950 . S
H486 C515 0.950 . S
H487 C516 0.950 . S
H488 C518 0.950 . S
H489 C519 0.950 . S
C490 H472 0.951 . S
C490 C491 1.366 . S
C490 C492 1.388 . S
C491 C490 1.366 . S
C491 C495 1.385 . S
C492 H473 0.951 . S
C492 C490 1.388 . S
C492 C493 1.366 . S
C493 C492 1.366 . S
C493 C494 1.414 . S
C493 C496 1.499 . S
C494 H474 0.950 . S
C494 C493 1.414 . S
C494 C495 1.374 . S
C495 H475 0.950 . S
C495 C491 1.385 . S
C495 C494 1.374 . S
C496 C493 1.499 . S
C496 C497 1.373 . S
C496 C498 1.389 . S
C497 H476 0.950 . S
C497 C496 1.373 . S
C497 C513 1.377 . S
C498 C496 1.389 . S
C498 C499 1.524 . S
C498 C512 1.377 . S
C499 C498 1.524 . S
C499 C500 1.397 . S
C499 C504 1.363 . S
C500 H477 0.950 . S
C500 C499 1.397 . S
C500 C501 1.334 . S
C501 H478 0.950 . S
C501 C500 1.334 . S
C501 C502 1.287 . S
C502 C501 1.287 . S
C502 C503 1.524 . S
C502 H521 0.913 . S
C503 H479 0.950 . S
C503 C502 1.524 . S
C503 C504 1.415 . S
C504 H480 0.950 . S
C504 C499 1.363 . S
C504 C503 1.415 . S
C505 H481 0.951 . S
C505 C506 1.366 . S
C505 C507 1.388 . S
C506 C505 1.366 . S
C506 C510 1.385 . S
C507 H482 0.951 . S
C507 C505 1.388 . S
C507 C508 1.366 . S
C508 C507 1.366 . S
C508 C509 1.414 . S
C508 C511 1.499 . S
C509 H483 0.950 . S
C509 C508 1.414 . S
C509 C510 1.374 . S
C510 H484 0.950 . S
C510 C506 1.385 . S
C510 C509 1.374 . S
C511 C508 1.499 . S
C511 C512 1.373 . S
C511 C513 1.389 . S
C512 H485 0.950 . S
C512 C498 1.377 . S
C512 C511 1.373 . S
C513 C497 1.377 . S
C513 C511 1.389 . S
C513 C514 1.524 . S
C514 C513 1.524 . S
C514 C515 1.397 . S
C514 C519 1.363 . S
C515 H486 0.950 . S
C515 C514 1.397 . S
C515 C516 1.334 . S
C516 H487 0.950 . S
C516 C515 1.334 . S
C516 C517 1.287 . S
C517 C516 1.287 . S
C517 C518 1.524 . S
C517 H520 0.999 . S
C518 H488 0.950 . S
C518 C517 1.524 . S
C518 C519 1.415 . S
C519 H489 0.950 . S
C519 C514 1.363 . S
C519 C518 1.415 . S
H520 C517 0.999 . S
H521 C502 0.913 . S
H522 C540 0.951 . S
H523 C542 0.951 . S
H524 C544 0.950 . S
H525 C545 0.950 . S
H526 C547 0.950 . S
H527 C550 0.950 . S
H528 C551 0.950 . S
H529 C553 0.950 . S
H530 C554 0.950 . S
H531 C555 0.951 . S
H532 C557 0.951 . S
H533 C559 0.950 . S
H534 C560 0.950 . S
H535 C562 0.950 . S
H536 C565 0.950 . S
H537 C566 0.984 . S
H538 C568 0.950 . S
H539 C569 0.950 . S
C540 H522 0.951 . S
C540 C541 1.366 . S
C540 C542 1.388 . S
C541 C540 1.366 . S
C541 C545 1.385 . S
C542 H523 0.951 . S
C542 C540 1.388 . S
C542 C543 1.366 . S
C543 C542 1.366 . S
C543 C544 1.414 . S
C543 C546 1.499 . S
C544 H524 0.950 . S
C544 C543 1.414 . S
C544 C545 1.374 . S
C545 H525 0.950 . S
C545 C541 1.385 . S
C545 C544 1.374 . S
C546 C543 1.499 . S
C546 C547 1.373 . S
C546 C548 1.389 . S
C547 H526 0.950 . S
C547 C546 1.373 . S
C547 C563 1.377 . S
C548 C546 1.389 . S
C548 C549 1.524 . S
C548 C562 1.377 . S
C549 C548 1.524 . S
C549 C550 1.397 . S
C549 C554 1.363 . S
C550 H527 0.950 . S
C550 C549 1.397 . S
C550 C551 1.334 . S
C551 H528 0.950 . S
C551 C550 1.334 . S
C551 C552 1.287 . S
C552 C551 1.287 . S
C552 C553 1.524 . S
C552 H571 0.913 . S
C553 H529 0.950 . S
C553 C552 1.524 . S
C553 C554 1.415 . S
C554 H530 0.950 . S
C554 C549 1.363 . S
C554 C553 1.415 . S
C555 H531 0.951 . S
C555 C556 1.366 . S
C555 C557 1.388 . S
C556 C555 1.366 . S
C556 C560 1.385 . S
C557 H532 0.951 . S
C557 C555 1.388 . S
C557 C558 1.366 . S
C558 C557 1.366 . S
C558 C559 1.414 . S
C558 C561 1.499 . S
C559 H533 0.950 . S
C559 C558 1.414 . S
C559 C560 1.374 . S
C560 H534 0.950 . S
C560 C556 1.385 . S
C560 C559 1.374 . S
C561 C558 1.499 . S
C561 C562 1.373 . S
C561 C563 1.389 . S
C562 H535 0.950 . S
C562 C548 1.377 . S
C562 C561 1.373 . S
C563 C547 1.377 . S
C563 C561 1.389 . S
C563 C564 1.524 . S
C564 C563 1.524 . S
C564 C565 1.397 . S
C564 C569 1.363 . S
C565 H536 0.950 . S
C565 C564 1.397 . S
C565 C566 1.334 . S
C566 H537 0.984 . S
C566 C565 1.334 . S
C566 C567 1.287 . S
C567 C566 1.287 . S
C567 C568 1.524 . S
C567 H570 0.999 1_565 S
C568 H538 0.950 . S
C568 C567 1.524 . S
C568 C569 1.415 . S
C569 H539 0.950 . S
C569 C564 1.363 . S
C569 C568 1.415 . S
H570 C567 0.999 1_545 S
H571 C552 0.913 . S
H572 C590 0.951 . S
H573 C592 0.951 . S
H574 C594 0.950 . S
H575 C595 0.950 . S
H576 C597 0.950 . S
H577 C600 0.950 . S
H578 C601 0.950 . S
H579 C603 0.950 . S
H580 C604 0.950 . S
H581 C605 0.951 . S
H582 C607 0.951 . S
H583 C609 0.950 . S
H584 C610 0.950 . S
H585 C612 0.950 . S
H586 C615 0.950 . S
H587 C616 0.950 . S
H588 C618 0.950 . S
H589 C619 0.950 . S
C590 H572 0.951 . S
C590 C591 1.366 . S
C590 C592 1.388 . S
C591 C590 1.366 . S
C591 C595 1.385 . S
C592 H573 0.951 . S
C592 C590 1.388 . S
C592 C593 1.366 . S
C593 C592 1.366 . S
C593 C594 1.414 . S
C593 C596 1.499 . S
C594 H574 0.950 . S
C594 C593 1.414 . S
C594 C595 1.374 . S
C595 H575 0.950 . S
C595 C591 1.385 . S
C595 C594 1.374 . S
C596 C593 1.499 . S
C596 C597 1.373 . S
C596 C598 1.389 . S
C597 H576 0.950 . S
C597 C596 1.373 . S
C597 C613 1.377 . S
C598 C596 1.389 . S
C598 C599 1.524 . S
C598 C612 1.377 . S
C599 C598 1.524 . S
C599 C600 1.397 . S
C599 C604 1.363 . S
C600 H577 0.950 . S
C600 C599 1.397 . S
C600 C601 1.334 . S
C601 H578 0.950 . S
C601 C600 1.334 . S
C601 C602 1.287 . S
C602 C601 1.287 . S
C602 C603 1.524 . S
C602 H621 0.913 . S
C603 H579 0.950 . S
C603 C602 1.524 . S
C603 C604 1.415 . S
C604 H580 0.950 . S
C604 C599 1.363 . S
C604 C603 1.415 . S
C605 H581 0.951 . S
C605 C606 1.366 . S
C605 C607 1.388 . S
C606 C605 1.366 . S
C606 C610 1.385 . S
C607 H582 0.951 . S
C607 C605 1.388 . S
C607 C608 1.366 . S
C608 C607 1.366 . S
C608 C609 1.414 . S
C608 C611 1.499 . S
C609 H583 0.950 . S
C609 C608 1.414 . S
C609 C610 1.374 . S
C610 H584 0.950 . S
C610 C606 1.385 . S
C610 C609 1.374 . S
C611 C608 1.499 . S
C611 C612 1.373 . S
C611 C613 1.389 . S
C612 H585 0.950 . S
C612 C598 1.377 . S
C612 C611 1.373 . S
C613 C597 1.377 . S
C613 C611 1.389 . S
C613 C614 1.524 . S
C614 C613 1.524 . S
C614 C615 1.397 . S
C614 C619 1.363 . S
C615 H586 0.950 . S
C615 C614 1.397 . S
C615 C616 1.334 . S
C616 H587 0.950 . S
C616 C615 1.334 . S
C616 C617 1.287 . S
C617 C616 1.287 . S
C617 C618 1.524 . S
C617 H620 0.999 . S
C618 H588 0.950 . S
C618 C617 1.524 . S
C618 C619 1.415 . S
C619 H589 0.950 . S
C619 C614 1.363 . S
C619 C618 1.415 . S
H620 C617 0.999 . S
H621 C602 0.913 . S
H622 C640 0.951 . S
H623 C642 0.951 . S
H624 C644 0.950 . S
H625 C645 0.950 . S
H626 C647 0.950 . S
H627 C650 0.950 . S
H628 C651 0.950 . S
H629 C653 0.950 1_455 S
H630 C654 0.950 . S
H631 C655 0.951 . S
H632 C657 0.951 . S
H633 C659 0.950 . S
H634 C660 0.950 . S
H635 C662 0.950 . S
H636 C665 0.950 . S
H637 C666 0.950 . S
H638 C668 0.950 . S
H639 C669 0.950 . S
C640 H622 0.951 . S
C640 C641 1.366 . S
C640 C642 1.388 . S
C641 C640 1.366 . S
C641 C645 1.385 . S
C642 H623 0.951 . S
C642 C640 1.388 . S
C642 C643 1.366 . S
C643 C642 1.366 . S
C643 C644 1.414 . S
C643 C646 1.499 . S
C644 H624 0.950 . S
C644 C643 1.414 . S
C644 C645 1.374 . S
C645 H625 0.950 . S
C645 C641 1.385 . S
C645 C644 1.374 . S
C646 C643 1.499 . S
C646 C647 1.373 . S
C646 C648 1.389 . S
C647 H626 0.950 . S
C647 C646 1.373 . S
C647 C663 1.377 . S
C648 C646 1.389 . S
C648 C649 1.524 . S
C648 C662 1.377 . S
C649 C648 1.524 . S
C649 C650 1.397 . S
C649 C654 1.363 . S
C650 H627 0.950 . S
C650 C649 1.397 . S
C650 C651 1.334 . S
C651 H628 0.950 . S
C651 C650 1.334 . S
C651 C652 1.287 . S
C652 C651 1.287 . S
C652 C653 1.524 . S
C652 H671 0.913 . S
C653 H629 0.950 1_655 S
C653 C652 1.524 . S
C653 C654 1.415 . S
C654 H630 0.950 . S
C654 C649 1.363 . S
C654 C653 1.415 . S
C655 H631 0.951 . S
C655 C656 1.366 . S
C655 C657 1.388 . S
C656 C655 1.366 . S
C656 C660 1.385 . S
C657 H632 0.951 . S
C657 C655 1.388 . S
C657 C658 1.366 . S
C658 C657 1.366 . S
C658 C659 1.414 . S
C658 C661 1.499 . S
C659 H633 0.950 . S
C659 C658 1.414 . S
C659 C660 1.374 . S
C660 H634 0.950 . S
C660 C656 1.385 . S
C660 C659 1.374 . S
C661 C658 1.499 . S
C661 C662 1.373 . S
C661 C663 1.389 . S
C662 H635 0.950 . S
C662 C648 1.377 . S
C662 C661 1.373 . S
C663 C647 1.377 . S
C663 C661 1.389 . S
C663 C664 1.524 . S
C664 C663 1.524 . S
C664 C665 1.397 . S
C664 C669 1.363 . S
C665 H636 0.950 . S
C665 C664 1.397 . S
C665 C666 1.334 . S
C666 H637 0.950 . S
C666 C665 1.334 . S
C666 C667 1.287 . S
C667 C666 1.287 . S
C667 C668 1.524 . S
C667 H670 0.999 . S
C668 H638 0.950 . S
C668 C667 1.524 . S
C668 C669 1.415 . S
C669 H639 0.950 . S
C669 C664 1.363 . S
C669 C668 1.415 . S
H670 C667 0.999 . S
H671 C652 0.913 . S
H672 C690 0.951 . S
H673 C692 0.951 . S
H674 C694 0.950 . S
H675 C695 0.950 . S
H676 C697 0.950 . S
H677 C700 0.950 . S
H678 C701 0.950 . S
H679 C703 0.950 . S
H680 C704 0.950 . S
H681 C705 0.951 . S
H682 C707 0.951 . S
H683 C709 0.950 . S
H684 C710 0.950 . S
H685 C712 0.950 . S
H686 C715 0.950 . S
H687 C716 0.950 . S
H688 C718 0.950 . S
H689 C719 0.950 . S
C690 H672 0.951 . S
C690 C691 1.366 . S
C690 C692 1.388 . S
C691 C690 1.366 . S
C691 C695 1.385 . S
C692 H673 0.951 . S
C692 C690 1.388 . S
C692 C693 1.366 . S
C693 C692 1.366 . S
C693 C694 1.414 . S
C693 C696 1.499 . S
C694 H674 0.950 . S
C694 C693 1.414 . S
C694 C695 1.374 . S
C695 H675 0.950 . S
C695 C691 1.385 . S
C695 C694 1.374 . S
C696 C693 1.499 . S
C696 C697 1.373 . S
C696 C698 1.389 . S
C697 H676 0.950 . S
C697 C696 1.373 . S
C697 C713 1.377 . S
C698 C696 1.389 . S
C698 C699 1.524 . S
C698 C712 1.377 . S
C699 C698 1.524 . S
C699 C700 1.397 . S
C699 C704 1.363 . S
C700 H677 0.950 . S
C700 C699 1.397 . S
C700 C701 1.334 . S
C701 H678 0.950 . S
C701 C700 1.334 . S
C701 C702 1.287 . S
C702 C701 1.287 . S
C702 C703 1.524 . S
C702 H721 0.913 . S
C703 H679 0.950 . S
C703 C702 1.524 . S
C703 C704 1.415 . S
C704 H680 0.950 . S
C704 C699 1.363 . S
C704 C703 1.415 . S
C705 H681 0.951 . S
C705 C706 1.366 . S
C705 C707 1.388 . S
C706 C705 1.366 . S
C706 C710 1.385 . S
C707 H682 0.951 . S
C707 C705 1.388 . S
C707 C708 1.366 . S
C708 C707 1.366 . S
C708 C709 1.414 . S
C708 C711 1.499 . S
C709 H683 0.950 . S
C709 C708 1.414 . S
C709 C710 1.374 . S
C710 H684 0.950 . S
C710 C706 1.385 . S
C710 C709 1.374 . S
C711 C708 1.499 . S
C711 C712 1.373 . S
C711 C713 1.389 . S
C712 H685 0.950 . S
C712 C698 1.377 . S
C712 C711 1.373 . S
C713 C697 1.377 . S
C713 C711 1.389 . S
C713 C714 1.524 . S
C714 C713 1.524 . S
C714 C715 1.397 . S
C714 C719 1.363 . S
C715 H686 0.950 . S
C715 C714 1.397 . S
C715 C716 1.334 . S
C716 H687 0.950 . S
C716 C715 1.334 . S
C716 C717 1.287 . S
C717 C716 1.287 . S
C717 C718 1.524 . S
C717 H720 0.999 . S
C718 H688 0.950 . S
C718 C717 1.524 . S
C718 C719 1.415 . S
C719 H689 0.950 . S
C719 C714 1.363 . S
C719 C718 1.415 . S
H720 C717 0.999 . S
H721 C702 0.913 . S
H722 C740 0.951 . S
H723 C742 0.951 . S
H724 C744 0.950 . S
H725 C745 0.950 . S
H726 C747 0.950 . S
H727 C750 0.950 . S
H728 C751 0.950 . S
H729 C753 0.950 . S
H730 C754 0.950 . S
H731 C755 0.951 . S
H732 C757 0.951 . S
H733 C759 0.950 . S
H734 C760 0.950 . S
H735 C762 0.950 . S
H736 C765 0.950 . S
H737 C766 0.950 . S
H738 C768 0.950 . S
H739 C769 0.950 . S
C740 H722 0.951 . S
C740 C741 1.366 . S
C740 C742 1.388 . S
C741 C740 1.366 . S
C741 C745 1.385 . S
C742 H723 0.951 . S
C742 C740 1.388 . S
C742 C743 1.366 . S
C743 C742 1.366 . S
C743 C744 1.414 . S
C743 C746 1.499 . S
C744 H724 0.950 . S
C744 C743 1.414 . S
C744 C745 1.374 . S
C745 H725 0.950 . S
C745 C741 1.385 . S
C745 C744 1.374 . S
C746 C743 1.499 . S
C746 C747 1.373 . S
C746 C748 1.389 . S
C747 H726 0.950 . S
C747 C746 1.373 . S
C747 C763 1.377 . S
C748 C746 1.389 . S
C748 C749 1.524 . S
C748 C762 1.377 . S
C749 C748 1.524 . S
C749 C750 1.397 . S
C749 C754 1.363 . S
C750 H727 0.950 . S
C750 C749 1.397 . S
C750 C751 1.334 . S
C751 H728 0.950 . S
C751 C750 1.334 . S
C751 C752 1.287 . S
C752 C751 1.287 . S
C752 C753 1.524 . S
C752 H771 0.913 . S
C753 H729 0.950 . S
C753 C752 1.524 . S
C753 C754 1.415 . S
C754 H730 0.950 . S
C754 C749 1.363 . S
C754 C753 1.415 . S
C755 H731 0.951 . S
C755 C756 1.366 . S
C755 C757 1.388 . S
C756 C755 1.366 . S
C756 C760 1.385 . S
C757 H732 0.951 . S
C757 C755 1.388 . S
C757 C758 1.366 . S
C758 C757 1.366 . S
C758 C759 1.414 . S
C758 C761 1.499 . S
C759 H733 0.950 . S
C759 C758 1.414 . S
C759 C760 1.374 . S
C760 H734 0.950 . S
C760 C756 1.385 . S
C760 C759 1.374 . S
C761 C758 1.499 . S
C761 C762 1.373 . S
C761 C763 1.389 . S
C762 H735 0.950 . S
C762 C748 1.377 . S
C762 C761 1.373 . S
C763 C747 1.377 . S
C763 C761 1.389 . S
C763 C764 1.524 . S
C764 C763 1.524 . S
C764 C765 1.397 . S
C764 C769 1.363 . S
C765 H736 0.950 . S
C765 C764 1.397 . S
C765 C766 1.334 1_565 S
C766 H737 0.950 . S
C766 C765 1.334 1_545 S
C766 C767 1.287 . S
C767 C766 1.287 . S
C767 C768 1.524 . S
C767 H770 0.999 . S
C768 H738 0.950 . S
C768 C767 1.524 . S
C768 C769 1.415 1_545 S
C769 H739 0.950 . S
C769 C764 1.363 . S
C769 C768 1.415 1_565 S
H770 C767 0.999 . S
H771 C752 0.913 . S
H772 C790 0.951 . S
H773 C792 0.951 . S
H774 C794 0.950 . S
H775 C795 0.950 . S
H776 C797 0.950 . S
H777 C800 0.950 . S
H778 C801 0.950 . S
H779 C803 0.950 . S
H780 C804 0.950 . S
H781 C805 0.951 . S
H782 C807 0.951 . S
H783 C809 0.950 . S
H784 C810 0.928 1_554 S
H785 C812 0.950 . S
H786 C815 0.950 . S
H787 C816 0.950 . S
H788 C818 0.950 . S
H789 C819 0.950 . S
C790 H772 0.951 . S
C790 C791 1.366 . S
C790 C792 1.388 . S
C791 C790 1.366 . S
C791 C795 1.385 . S
C792 H773 0.951 . S
C792 C790 1.388 . S
C792 C793 1.366 . S
C793 C792 1.366 . S
C793 C794 1.414 . S
C793 C796 1.499 . S
C794 H774 0.950 . S
C794 C793 1.414 . S
C794 C795 1.374 . S
C795 H775 0.950 . S
C795 C791 1.385 . S
C795 C794 1.374 . S
C796 C793 1.499 . S
C796 C797 1.373 . S
C796 C798 1.389 . S
C797 H776 0.950 . S
C797 C796 1.373 . S
C797 C813 1.377 . S
C798 C796 1.389 . S
C798 C799 1.524 . S
C798 C812 1.377 . S
C799 C798 1.524 . S
C799 C800 1.397 . S
C799 C804 1.363 . S
C800 H777 0.950 . S
C800 C799 1.397 . S
C800 C801 1.334 . S
C801 H778 0.950 . S
C801 C800 1.334 . S
C801 C802 1.287 . S
C802 C801 1.287 . S
C802 C803 1.524 . S
C802 H821 0.913 . S
C803 H779 0.950 . S
C803 C802 1.524 . S
C803 C804 1.415 . S
C804 H780 0.950 . S
C804 C799 1.363 . S
C804 C803 1.415 . S
C805 H781 0.951 . S
C805 C806 1.366 . S
C805 C807 1.388 . S
C806 C805 1.366 . S
C806 C810 1.385 . S
C807 H782 0.951 . S
C807 C805 1.388 . S
C807 C808 1.366 . S
C808 C807 1.366 . S
C808 C809 1.414 . S
C808 C811 1.499 . S
C809 H783 0.950 . S
C809 C808 1.414 . S
C809 C810 1.374 . S
C810 H784 0.928 1_556 S
C810 C806 1.385 . S
C810 C809 1.374 . S
C811 C808 1.499 . S
C811 C812 1.373 . S
C811 C813 1.389 . S
C812 H785 0.950 . S
C812 C798 1.377 . S
C812 C811 1.373 . S
C813 C797 1.377 . S
C813 C811 1.389 . S
C813 C814 1.524 . S
C814 C813 1.524 . S
C814 C815 1.397 . S
C814 C819 1.363 . S
C815 H786 0.950 . S
C815 C814 1.397 . S
C815 C816 1.334 . S
C816 H787 0.950 . S
C816 C815 1.334 . S
C816 C817 1.287 . S
C817 C816 1.287 . S
C817 C818 1.524 . S
C817 H820 0.999 . S
C818 H788 0.950 . S
C818 C817 1.524 . S
C818 C819 1.415 . S
C819 H789 0.950 . S
C819 C814 1.363 . S
C819 C818 1.415 . S
H820 C817 0.999 . S
H821 C802 0.913 . S
H822 C840 0.951 . S
H823 C842 0.951 . S
H824 C844 0.950 . S
H825 C845 0.950 . S
H826 C847 0.950 . S
H827 C850 0.950 . S
H828 C851 0.950 . S
H829 C853 0.950 . S
H830 C854 0.950 . S
H831 C855 0.951 . S
H832 C857 0.951 . S
H833 C859 0.950 . S
H834 C860 0.950 . S
H835 C862 0.950 . S
H836 C865 0.950 . S
H837 C866 0.950 . S
H838 C868 0.950 . S
H839 C869 0.950 . S
C840 H822 0.951 . S
C840 C841 1.366 . S
C840 C842 1.388 . S
C841 C840 1.366 . S
C841 C845 1.385 . S
C842 H823 0.951 . S
C842 C840 1.388 . S
C842 C843 1.366 . S
C843 C842 1.366 . S
C843 C844 1.414 . S
C843 C846 1.499 . S
C844 H824 0.950 . S
C844 C843 1.414 . S
C844 C845 1.374 . S
C845 H825 0.950 . S
C845 C841 1.385 . S
C845 C844 1.374 . S
C846 C843 1.499 . S
C846 C847 1.373 . S
C846 C848 1.389 . S
C847 H826 0.950 . S
C847 C846 1.373 . S
C847 C863 1.377 . S
C848 C846 1.389 . S
C848 C849 1.524 . S
C848 C862 1.377 . S
C849 C848 1.524 . S
C849 C850 1.397 . S
C849 C854 1.363 . S
C850 H827 0.950 . S
C850 C849 1.397 . S
C850 C851 1.334 . S
C851 H828 0.950 . S
C851 C850 1.334 . S
C851 C852 1.287 . S
C852 C851 1.287 . S
C852 C853 1.524 . S
C852 H871 0.913 . S
C853 H829 0.950 . S
C853 C852 1.524 . S
C853 C854 1.415 . S
C854 H830 0.950 . S
C854 C849 1.363 . S
C854 C853 1.415 . S
C855 H831 0.951 . S
C855 C856 1.366 . S
C855 C857 1.388 . S
C856 C855 1.366 . S
C856 C860 1.385 . S
C857 H832 0.951 . S
C857 C855 1.388 . S
C857 C858 1.366 . S
C858 C857 1.366 . S
C858 C859 1.414 . S
C858 C861 1.499 . S
C859 H833 0.950 . S
C859 C858 1.414 . S
C859 C860 1.374 . S
C860 H834 0.950 . S
C860 C856 1.385 . S
C860 C859 1.374 . S
C861 C858 1.499 . S
C861 C862 1.373 . S
C861 C863 1.389 . S
C862 H835 0.950 . S
C862 C848 1.377 . S
C862 C861 1.373 . S
C863 C847 1.377 . S
C863 C861 1.389 . S
C863 C864 1.524 . S
C864 C863 1.524 . S
C864 C865 1.397 . S
C864 C869 1.363 . S
C865 H836 0.950 . S
C865 C864 1.397 . S
C865 C866 1.334 . S
C866 H837 0.950 . S
C866 C865 1.334 . S
C866 C867 1.287 . S
C867 C866 1.287 . S
C867 C868 1.524 . S
C867 H870 0.999 . S
C868 H838 0.950 . S
C868 C867 1.524 . S
C868 C869 1.415 . S
C869 H839 0.950 . S
C869 C864 1.363 . S
C869 C868 1.415 . S
H870 C867 0.999 . S
H871 C852 0.913 . S
H872 C890 0.951 . S
H873 C892 0.951 . S
H874 C894 0.950 . S
H875 C895 0.950 . S
H876 C897 0.950 . S
H877 C900 0.950 . S
H878 C901 0.950 . S
H879 C903 0.950 . S
H880 C904 0.950 . S
H881 C905 0.951 . S
H882 C907 0.951 . S
H883 C909 0.950 . S
H884 C910 0.950 . S
H885 C912 0.950 . S
H886 C915 0.950 . S
H887 C916 0.950 . S
H888 C918 0.950 . S
H889 C919 0.950 . S
C890 H872 0.951 . S
C890 C891 1.366 . S
C890 C892 1.388 . S
C891 C890 1.366 . S
C891 C895 1.385 . S
C892 H873 0.951 . S
C892 C890 1.388 . S
C892 C893 1.366 . S
C893 C892 1.366 . S
C893 C894 1.414 . S
C893 C896 1.499 . S
C894 H874 0.950 . S
C894 C893 1.414 . S
C894 C895 1.374 . S
C895 H875 0.950 . S
C895 C891 1.385 . S
C895 C894 1.374 . S
C896 C893 1.499 . S
C896 C897 1.373 . S
C896 C898 1.389 . S
C897 H876 0.950 . S
C897 C896 1.373 . S
C897 C913 1.377 . S
C898 C896 1.389 . S
C898 C899 1.524 . S
C898 C912 1.377 . S
C899 C898 1.524 . S
C899 C900 1.397 . S
C899 C904 1.363 . S
C900 H877 0.950 . S
C900 C899 1.397 . S
C900 C901 1.334 . S
C901 H878 0.950 . S
C901 C900 1.334 . S
C901 C902 1.287 . S
C902 C901 1.287 . S
C902 C903 1.524 . S
C902 H921 0.913 . S
C903 H879 0.950 . S
C903 C902 1.524 . S
C903 C904 1.415 . S
C904 H880 0.950 . S
C904 C899 1.363 . S
C904 C903 1.415 . S
C905 H881 0.951 . S
C905 C906 1.366 . S
C905 C907 1.388 . S
C906 C905 1.366 . S
C906 C910 1.385 . S
C907 H882 0.951 . S
C907 C905 1.388 . S
C907 C908 1.366 . S
C908 C907 1.366 . S
C908 C909 1.414 . S
C908 C911 1.499 . S
C909 H883 0.950 . S
C909 C908 1.414 . S
C909 C910 1.374 . S
C910 H884 0.950 . S
C910 C906 1.385 . S
C910 C909 1.374 . S
C911 C908 1.499 . S
C911 C912 1.373 . S
C911 C913 1.389 . S
C912 H885 0.950 . S
C912 C898 1.377 . S
C912 C911 1.373 . S
C913 C897 1.377 . S
C913 C911 1.389 . S
C913 C914 1.524 . S
C914 C913 1.524 . S
C914 C915 1.397 . S
C914 C919 1.363 . S
C915 H886 0.950 . S
C915 C914 1.397 . S
C915 C916 1.334 . S
C916 H887 0.950 . S
C916 C915 1.334 . S
C916 C917 1.287 . S
C917 C916 1.287 . S
C917 C918 1.524 . S
C917 H920 0.999 . S
C918 H888 0.950 . S
C918 C917 1.524 . S
C918 C919 1.415 . S
C919 H889 0.950 . S
C919 C914 1.363 . S
C919 C918 1.415 . S
H920 C917 0.999 . S
H921 C902 0.913 . S
H922 C940 0.951 . S
H923 C942 0.951 . S
H924 C944 0.950 . S
H925 C945 0.950 . S
H926 C947 0.950 . S
H927 C950 0.950 . S
H928 C951 0.950 . S
H929 C953 0.950 . S
H930 C954 0.950 . S
H931 C955 0.951 . S
H932 C957 0.951 . S
H933 C959 0.950 . S
H934 C960 0.950 . S
H935 C962 0.950 . S
H936 C965 0.950 . S
H937 C966 0.950 . S
H938 C968 0.950 . S
H939 C969 0.950 . S
C940 H922 0.951 . S
C940 C941 1.366 . S
C940 C942 1.388 . S
C941 C940 1.366 . S
C941 C945 1.385 . S
C942 H923 0.951 . S
C942 C940 1.388 . S
C942 C943 1.366 . S
C943 C942 1.366 . S
C943 C944 1.414 . S
C943 C946 1.499 . S
C944 H924 0.950 . S
C944 C943 1.414 . S
C944 C945 1.374 . S
C945 H925 0.950 . S
C945 C941 1.385 . S
C945 C944 1.374 . S
C946 C943 1.499 . S
C946 C947 1.373 . S
C946 C948 1.389 . S
C947 H926 0.950 . S
C947 C946 1.373 . S
C947 C963 1.377 . S
C948 C946 1.389 . S
C948 C949 1.524 . S
C948 C962 1.377 . S
C949 C948 1.524 . S
C949 C950 1.397 . S
C949 C954 1.363 . S
C950 H927 0.950 . S
C950 C949 1.397 . S
C950 C951 1.334 . S
C951 H928 0.950 . S
C951 C950 1.334 . S
C951 C952 1.287 . S
C952 C951 1.287 . S
C952 C953 1.524 . S
C952 H971 0.913 . S
C953 H929 0.950 . S
C953 C952 1.524 . S
C953 C954 1.415 . S
C954 H930 0.950 . S
C954 C949 1.363 . S
C954 C953 1.415 . S
C955 H931 0.951 . S
C955 C956 1.366 . S
C955 C957 1.388 . S
C956 C955 1.366 . S
C956 C960 1.385 . S
C957 H932 0.951 . S
C957 C955 1.388 . S
C957 C958 1.366 . S
C958 C957 1.366 . S
C958 C959 1.414 . S
C958 C961 1.499 . S
C959 H933 0.950 . S
C959 C958 1.414 . S
C959 C960 1.374 . S
C960 H934 0.950 . S
C960 C956 1.385 . S
C960 C959 1.374 . S
C961 C958 1.499 . S
C961 C962 1.373 . S
C961 C963 1.389 . S
C962 H935 0.950 . S
C962 C948 1.377 . S
C962 C961 1.373 . S
C963 C947 1.377 . S
C963 C961 1.389 . S
C963 C964 1.524 . S
C964 C963 1.524 . S
C964 C965 1.397 . S
C964 C969 1.363 . S
C965 H936 0.950 . S
C965 C964 1.397 . S
C965 C966 1.334 . S
C966 H937 0.950 . S
C966 C965 1.334 . S
C966 C967 1.287 . S
C967 C966 1.287 . S
C967 C968 1.524 . S
C967 H970 0.999 . S
C968 H938 0.950 . S
C968 C967 1.524 . S
C968 C969 1.415 . S
C969 H939 0.950 . S
C969 C964 1.363 . S
C969 C968 1.415 . S
H970 C967 0.999 . S
H971 C952 0.913 . S
H972 C990 0.951 . S
H973 C992 0.951 . S
H974 C994 0.950 . S
H975 C995 0.950 . S
H976 C997 0.950 . S
H977 C1000 0.950 . S
H978 C1001 0.950 . S
H979 C1003 0.950 . S
H980 C1004 0.950 . S
H981 C1005 0.951 . S
H982 C1007 0.951 . S
H983 C1009 0.950 . S
H984 C1010 0.950 . S
H985 C1012 0.950 . S
H986 C1015 0.950 . S
H987 C1016 0.950 . S
H988 C1018 0.950 . S
H989 C1019 0.950 . S
C990 H972 0.951 . S
C990 C991 1.366 . S
C990 C992 1.388 . S
C991 C990 1.366 . S
C991 C995 1.385 . S
C992 H973 0.951 . S
C992 C990 1.388 . S
C992 C993 1.366 . S
C993 C992 1.366 . S
C993 C994 1.414 . S
C993 C996 1.499 . S
C994 H974 0.950 . S
C994 C993 1.414 . S
C994 C995 1.374 . S
C995 H975 0.950 . S
C995 C991 1.385 . S
C995 C994 1.374 . S
C996 C993 1.499 . S
C996 C997 1.373 . S
C996 C998 1.389 . S
C997 H976 0.950 . S
C997 C996 1.373 . S
C997 C1013 1.377 . S
C998 C996 1.389 . S
C998 C999 1.524 . S
C998 C1012 1.377 . S
C999 C998 1.524 . S
C999 C1000 1.397 . S
C999 C1004 1.363 . S
C1000 H977 0.950 . S
C1000 C999 1.397 . S
C1000 C1001 1.334 . S
C1001 H978 0.950 . S
C1001 C1000 1.334 . S
C1001 C1002 1.287 . S
C1002 C1001 1.287 . S
C1002 C1003 1.524 . S
C1002 H1021 0.913 . S
C1003 H979 0.950 . S
C1003 C1002 1.524 . S
C1003 C1004 1.415 . S
C1004 H980 0.950 . S
C1004 C999 1.363 . S
C1004 C1003 1.415 . S
C1005 H981 0.951 . S
C1005 C1006 1.366 . S
C1005 C1007 1.388 . S
C1006 C1005 1.366 . S
C1006 C1010 1.385 . S
C1007 H982 0.951 . S
C1007 C1005 1.388 . S
C1007 C1008 1.366 . S
C1008 C1007 1.366 . S
C1008 C1009 1.414 . S
C1008 C1011 1.499 . S
C1009 H983 0.950 . S
C1009 C1008 1.414 . S
C1009 C1010 1.374 . S
C1010 H984 0.950 . S
C1010 C1006 1.385 . S
C1010 C1009 1.374 . S
C1011 C1008 1.499 . S
C1011 C1012 1.373 . S
C1011 C1013 1.389 . S
C1012 H985 0.950 . S
C1012 C998 1.377 . S
C1012 C1011 1.373 . S
C1013 C997 1.377 . S
C1013 C1011 1.389 . S
C1013 C1014 1.524 . S
C1014 C1013 1.524 . S
C1014 C1015 1.397 . S
C1014 C1019 1.363 . S
C1015 H986 0.950 . S
C1015 C1014 1.397 . S
C1015 C1016 1.334 1_655 S
C1016 H987 0.950 . S
C1016 C1015 1.334 1_455 S
C1016 C1017 1.287 . S
C1017 C1016 1.287 . S
C1017 C1018 1.524 . S
C1017 H1020 0.999 . S
C1018 H988 0.950 . S
C1018 C1017 1.524 . S
C1018 C1019 1.415 1_455 S
C1019 H989 0.950 . S
C1019 C1014 1.363 . S
C1019 C1018 1.415 1_655 S
H1020 C1017 0.999 . S
H1021 C1002 0.913 . S
H1022 C1040 0.951 . S
H1023 C1042 0.951 . S
H1024 C1044 0.950 . S
H1025 C1045 0.950 . S
H1026 C1047 0.950 . S
H1027 C1050 0.950 . S
H1028 C1051 0.950 . S
H1029 C1053 0.950 . S
H1030 C1054 0.950 . S
H1031 C1055 0.951 . S
H1032 C1057 0.951 . S
H1033 C1059 0.950 . S
H1034 C1060 0.950 . S
H1035 C1062 0.950 . S
H1036 C1065 0.950 . S
H1037 C1066 0.950 . S
H1038 C1068 0.950 . S
H1039 C1069 0.950 . S
C1040 H1022 0.951 . S
C1040 C1041 1.366 . S
C1040 C1042 1.388 . S
C1041 C1040 1.366 . S
C1041 C1045 1.385 . S
C1042 H1023 0.951 . S
C1042 C1040 1.388 . S
C1042 C1043 1.366 . S
C1043 C1042 1.366 . S
C1043 C1044 1.414 . S
C1043 C1046 1.499 . S
C1044 H1024 0.950 . S
C1044 C1043 1.414 . S
C1044 C1045 1.374 . S
C1045 H1025 0.950 . S
C1045 C1041 1.385 . S
C1045 C1044 1.374 . S
C1046 C1043 1.499 . S
C1046 C1047 1.373 . S
C1046 C1048 1.389 . S
C1047 H1026 0.950 . S
C1047 C1046 1.373 . S
C1047 C1063 1.377 . S
C1048 C1046 1.389 . S
C1048 C1049 1.524 . S
C1048 C1062 1.377 . S
C1049 C1048 1.524 . S
C1049 C1050 1.397 . S
C1049 C1054 1.363 . S
C1050 H1027 0.950 . S
C1050 C1049 1.397 . S
C1050 C1051 1.334 . S
C1051 H1028 0.950 . S
C1051 C1050 1.334 . S
C1051 C1052 1.287 . S
C1052 C1051 1.287 . S
C1052 C1053 1.524 . S
C1052 H1071 0.913 . S
C1053 H1029 0.950 . S
C1053 C1052 1.524 . S
C1053 C1054 1.415 . S
C1054 H1030 0.950 . S
C1054 C1049 1.363 . S
C1054 C1053 1.415 . S
C1055 H1031 0.951 . S
C1055 C1056 1.366 . S
C1055 C1057 1.388 . S
C1056 C1055 1.366 . S
C1056 C1060 1.385 . S
C1057 H1032 0.951 . S
C1057 C1055 1.388 . S
C1057 C1058 1.366 . S
C1058 C1057 1.366 . S
C1058 C1059 1.414 . S
C1058 C1061 1.499 . S
C1059 H1033 0.950 . S
C1059 C1058 1.414 . S
C1059 C1060 1.374 . S
C1060 H1034 0.950 . S
C1060 C1056 1.385 . S
C1060 C1059 1.374 . S
C1061 C1058 1.499 . S
C1061 C1062 1.373 . S
C1061 C1063 1.389 . S
C1062 H1035 0.950 . S
C1062 C1048 1.377 . S
C1062 C1061 1.373 . S
C1063 C1047 1.377 . S
C1063 C1061 1.389 . S
C1063 C1064 1.524 . S
C1064 C1063 1.524 . S
C1064 C1065 1.397 . S
C1064 C1069 1.363 . S
C1065 H1036 0.950 . S
C1065 C1064 1.397 . S
C1065 C1066 1.334 . S
C1066 H1037 0.950 . S
C1066 C1065 1.334 . S
C1066 C1067 1.287 . S
C1067 C1066 1.287 . S
C1067 C1068 1.524 . S
C1067 H1070 0.999 . S
C1068 H1038 0.950 . S
C1068 C1067 1.524 . S
C1068 C1069 1.415 . S
C1069 H1039 0.950 . S
C1069 C1064 1.363 . S
C1069 C1068 1.415 . S
H1070 C1067 0.999 . S
H1071 C1052 0.913 . S
H1072 C1090 0.951 . S
H1073 C1092 0.951 . S
H1074 C1094 0.950 . S
H1075 C1095 0.950 . S
H1076 C1097 0.950 . S
H1077 C1100 0.950 . S
H1078 C1101 0.950 . S
H1079 C1103 0.950 . S
H1080 C1104 0.950 . S
H1081 C1105 0.951 . S
H1082 C1107 0.951 . S
H1083 C1109 0.950 . S
H1084 C1110 0.950 . S
H1085 C1112 0.950 . S
H1086 C1115 0.950 . S
H1087 C1116 0.950 . S
H1088 C1118 0.950 . S
H1089 C1119 0.950 . S
C1090 H1072 0.951 . S
C1090 C1091 1.366 . S
C1090 C1092 1.388 . S
C1091 C1090 1.366 . S
C1091 C1095 1.385 . S
C1092 H1073 0.951 . S
C1092 C1090 1.388 . S
C1092 C1093 1.366 . S
C1093 C1092 1.366 . S
C1093 C1094 1.414 . S
C1093 C1096 1.499 . S
C1094 H1074 0.950 . S
C1094 C1093 1.414 . S
C1094 C1095 1.374 . S
C1095 H1075 0.950 . S
C1095 C1091 1.385 . S
C1095 C1094 1.374 . S
C1096 C1093 1.499 . S
C1096 C1097 1.373 . S
C1096 C1098 1.389 . S
C1097 H1076 0.950 . S
C1097 C1096 1.373 . S
C1097 C1113 1.377 . S
C1098 C1096 1.389 . S
C1098 C1099 1.524 . S
C1098 C1112 1.377 . S
C1099 C1098 1.524 . S
C1099 C1100 1.397 . S
C1099 C1104 1.363 . S
C1100 H1077 0.950 . S
C1100 C1099 1.397 . S
C1100 C1101 1.334 . S
C1101 H1078 0.950 . S
C1101 C1100 1.334 . S
C1101 C1102 1.287 . S
C1102 C1101 1.287 . S
C1102 C1103 1.524 . S
C1102 H1121 0.913 . S
C1103 H1079 0.950 . S
C1103 C1102 1.524 . S
C1103 C1104 1.415 . S
C1104 H1080 0.950 . S
C1104 C1099 1.363 . S
C1104 C1103 1.415 . S
C1105 H1081 0.951 . S
C1105 C1106 1.366 . S
C1105 C1107 1.388 . S
C1106 C1105 1.366 . S
C1106 C1110 1.385 . S
C1107 H1082 0.951 . S
C1107 C1105 1.388 . S
C1107 C1108 1.366 . S
C1108 C1107 1.366 . S
C1108 C1109 1.414 . S
C1108 C1111 1.499 . S
C1109 H1083 0.950 . S
C1109 C1108 1.414 . S
C1109 C1110 1.374 . S
C1110 H1084 0.950 . S
C1110 C1106 1.385 . S
C1110 C1109 1.374 . S
C1111 C1108 1.499 . S
C1111 C1112 1.373 . S
C1111 C1113 1.389 . S
C1112 H1085 0.950 . S
C1112 C1098 1.377 . S
C1112 C1111 1.373 . S
C1113 C1097 1.377 . S
C1113 C1111 1.389 . S
C1113 C1114 1.524 . S
C1114 C1113 1.524 . S
C1114 C1115 1.397 . S
C1114 C1119 1.363 . S
C1115 H1086 0.950 . S
C1115 C1114 1.397 . S
C1115 C1116 1.334 . S
C1116 H1087 0.950 . S
C1116 C1115 1.334 . S
C1116 C1117 1.287 . S
C1117 C1116 1.287 . S
C1117 C1118 1.524 . S
C1117 H1120 0.999 . S
C1118 H1088 0.950 . S
C1118 C1117 1.524 . S
C1118 C1119 1.415 . S
C1119 H1089 0.950 . S
C1119 C1114 1.363 . S
C1119 C1118 1.415 . S
H1120 C1117 0.999 . S
H1121 C1102 0.913 . S
H1122 C1140 0.951 . S
H1123 C1142 0.951 . S
H1124 C1144 0.950 . S
H1125 C1145 0.950 . S
H1126 C1147 0.950 . S
H1127 C1150 0.950 . S
H1128 C1151 0.950 . S
H1129 C1153 0.950 . S
H1130 C1154 0.950 . S
H1131 C1155 0.951 . S
H1132 C1157 0.951 . S
H1133 C1159 0.950 . S
H1134 C1160 0.950 . S
H1135 C1162 0.950 . S
H1136 C1165 0.950 . S
H1137 C1166 0.950 . S
H1138 C1168 0.950 . S
H1139 C1169 0.950 . S
C1140 H1122 0.951 . S
C1140 C1141 1.366 . S
C1140 C1142 1.388 . S
C1141 C1140 1.366 . S
C1141 C1145 1.385 . S
C1142 H1123 0.951 . S
C1142 C1140 1.388 . S
C1142 C1143 1.366 . S
C1143 C1142 1.366 . S
C1143 C1144 1.414 . S
C1143 C1146 1.499 . S
C1144 H1124 0.950 . S
C1144 C1143 1.414 . S
C1144 C1145 1.374 . S
C1145 H1125 0.950 . S
C1145 C1141 1.385 . S
C1145 C1144 1.374 . S
C1146 C1143 1.499 . S
C1146 C1147 1.373 . S
C1146 C1148 1.389 . S
C1147 H1126 0.950 . S
C1147 C1146 1.373 . S
C1147 C1163 1.377 . S
C1148 C1146 1.389 . S
C1148 C1149 1.524 . S
C1148 C1162 1.377 . S
C1149 C1148 1.524 . S
C1149 C1150 1.397 . S
C1149 C1154 1.363 . S
C1150 H1127 0.950 . S
C1150 C1149 1.397 . S
C1150 C1151 1.334 . S
C1151 H1128 0.950 . S
C1151 C1150 1.334 . S
C1151 C1152 1.287 . S
C1152 C1151 1.287 . S
C1152 C1153 1.524 . S
C1152 H1171 0.913 . S
C1153 H1129 0.950 . S
C1153 C1152 1.524 . S
C1153 C1154 1.415 . S
C1154 H1130 0.950 . S
C1154 C1149 1.363 . S
C1154 C1153 1.415 . S
C1155 H1131 0.951 . S
C1155 C1156 1.366 . S
C1155 C1157 1.388 . S
C1156 C1155 1.366 . S
C1156 C1160 1.385 . S
C1157 H1132 0.951 . S
C1157 C1155 1.388 . S
C1157 C1158 1.366 . S
C1158 C1157 1.366 . S
C1158 C1159 1.414 . S
C1158 C1161 1.499 . S
C1159 H1133 0.950 . S
C1159 C1158 1.414 . S
C1159 C1160 1.374 . S
C1160 H1134 0.950 . S
C1160 C1156 1.385 . S
C1160 C1159 1.374 . S
C1161 C1158 1.499 . S
C1161 C1162 1.373 . S
C1161 C1163 1.389 . S
C1162 H1135 0.950 . S
C1162 C1148 1.377 . S
C1162 C1161 1.373 . S
C1163 C1147 1.377 . S
C1163 C1161 1.389 . S
C1163 C1164 1.524 . S
C1164 C1163 1.524 . S
C1164 C1165 1.397 . S
C1164 C1169 1.363 . S
C1165 H1136 0.950 . S
C1165 C1164 1.397 . S
C1165 C1166 1.334 . S
C1166 H1137 0.950 . S
C1166 C1165 1.334 . S
C1166 C1167 1.287 . S
C1167 C1166 1.287 . S
C1167 C1168 1.524 . S
C1167 H1170 0.999 . S
C1168 H1138 0.950 . S
C1168 C1167 1.524 . S
C1168 C1169 1.415 . S
C1169 H1139 0.950 . S
C1169 C1164 1.363 . S
C1169 C1168 1.415 . S
H1170 C1167 0.999 . S
H1171 C1152 0.913 . S
H1172 C1190 0.951 . S
H1173 C1192 0.951 . S
H1174 C1194 0.950 . S
H1175 C1195 0.950 . S
H1176 C1197 0.950 . S
H1177 C1200 0.950 . S
H1178 C1201 0.950 . S
H1179 C1203 0.950 . S
H1180 C1204 0.950 . S
H1181 C1205 0.951 . S
H1182 C1207 0.951 . S
H1183 C1209 0.950 . S
H1184 C1210 0.950 . S
H1185 C1212 0.950 . S
H1186 C1215 0.950 . S
H1187 C1216 0.950 . S
H1188 C1218 0.950 . S
H1189 C1219 0.950 . S
C1190 H1172 0.951 . S
C1190 C1191 1.366 . S
C1190 C1192 1.388 . S
C1191 C1190 1.366 . S
C1191 C1195 1.385 . S
C1192 H1173 0.951 . S
C1192 C1190 1.388 . S
C1192 C1193 1.366 . S
C1193 C1192 1.366 . S
C1193 C1194 1.414 . S
C1193 C1196 1.499 . S
C1194 H1174 0.950 . S
C1194 C1193 1.414 . S
C1194 C1195 1.374 . S
C1195 H1175 0.950 . S
C1195 C1191 1.385 . S
C1195 C1194 1.374 . S
C1196 C1193 1.499 . S
C1196 C1197 1.373 . S
C1196 C1198 1.389 . S
C1197 H1176 0.950 . S
C1197 C1196 1.373 . S
C1197 C1213 1.377 . S
C1198 C1196 1.389 . S
C1198 C1199 1.524 . S
C1198 C1212 1.377 . S
C1199 C1198 1.524 . S
C1199 C1200 1.397 . S
C1199 C1204 1.363 . S
C1200 H1177 0.950 . S
C1200 C1199 1.397 . S
C1200 C1201 1.334 . S
C1201 H1178 0.950 . S
C1201 C1200 1.334 . S
C1201 C1202 1.287 . S
C1202 C1201 1.287 . S
C1202 C1203 1.524 . S
C1202 H1221 0.913 . S
C1203 H1179 0.950 . S
C1203 C1202 1.524 . S
C1203 C1204 1.415 . S
C1204 H1180 0.950 . S
C1204 C1199 1.363 . S
C1204 C1203 1.415 . S
C1205 H1181 0.951 . S
C1205 C1206 1.366 . S
C1205 C1207 1.388 . S
C1206 C1205 1.366 . S
C1206 C1210 1.385 . S
C1207 H1182 0.951 . S
C1207 C1205 1.388 . S
C1207 C1208 1.366 . S
C1208 C1207 1.366 . S
C1208 C1209 1.414 . S
C1208 C1211 1.499 . S
C1209 H1183 0.950 . S
C1209 C1208 1.414 . S
C1209 C1210 1.374 . S
C1210 H1184 0.950 . S
C1210 C1206 1.385 . S
C1210 C1209 1.374 . S
C1211 C1208 1.499 . S
C1211 C1212 1.373 . S
C1211 C1213 1.389 . S
C1212 H1185 0.950 . S
C1212 C1198 1.377 . S
C1212 C1211 1.373 . S
C1213 C1197 1.377 . S
C1213 C1211 1.389 . S
C1213 C1214 1.524 . S
C1214 C1213 1.524 . S
C1214 C1215 1.397 . S
C1214 C1219 1.363 . S
C1215 H1186 0.950 . S
C1215 C1214 1.397 . S
C1215 C1216 1.334 . S
C1216 H1187 0.950 . S
C1216 C1215 1.334 . S
C1216 C1217 1.287 . S
C1217 C1216 1.287 . S
C1217 C1218 1.524 . S
C1217 H1220 0.999 . S
C1218 H1188 0.950 . S
C1218 C1217 1.524 . S
C1218 C1219 1.415 . S
C1219 H1189 0.950 . S
C1219 C1214 1.363 . S
C1219 C1218 1.415 . S
H1220 C1217 0.999 . S
H1221 C1202 0.913 . S
H1222 C1240 0.951 . S
H1223 C1242 0.951 . S
H1224 C1244 0.950 . S
H1225 C1245 0.950 . S
H1226 C1247 0.950 . S
H1227 C1250 0.950 . S
H1228 C1251 0.950 . S
H1229 C1253 0.950 1_655 S
H1230 C1254 0.950 . S
H1231 C1255 0.951 . S
H1232 C1257 0.951 . S
H1233 C1259 0.950 . S
H1234 C1260 0.950 . S
H1235 C1262 0.950 . S
H1236 C1265 0.950 . S
H1237 C1266 0.950 . S
H1238 C1268 0.950 . S
H1239 C1269 0.950 . S
C1240 H1222 0.951 . S
C1240 C1241 1.366 . S
C1240 C1242 1.388 . S
C1241 C1240 1.366 . S
C1241 C1245 1.385 . S
C1242 H1223 0.951 . S
C1242 C1240 1.388 . S
C1242 C1243 1.366 . S
C1243 C1242 1.366 . S
C1243 C1244 1.414 . S
C1243 C1246 1.499 . S
C1244 H1224 0.950 . S
C1244 C1243 1.414 . S
C1244 C1245 1.374 . S
C1245 H1225 0.950 . S
C1245 C1241 1.385 . S
C1245 C1244 1.374 . S
C1246 C1243 1.499 . S
C1246 C1247 1.373 . S
C1246 C1248 1.389 . S
C1247 H1226 0.950 . S
C1247 C1246 1.373 . S
C1247 C1263 1.377 . S
C1248 C1246 1.389 . S
C1248 C1249 1.524 . S
C1248 C1262 1.377 . S
C1249 C1248 1.524 . S
C1249 C1250 1.397 . S
C1249 C1254 1.363 . S
C1250 H1227 0.950 . S
C1250 C1249 1.397 . S
C1250 C1251 1.334 . S
C1251 H1228 0.950 . S
C1251 C1250 1.334 . S
C1251 C1252 1.287 . S
C1252 C1251 1.287 . S
C1252 C1253 1.524 . S
C1252 H1271 0.913 1_455 S
C1253 H1229 0.950 1_455 S
C1253 C1252 1.524 . S
C1253 C1254 1.415 . S
C1254 H1230 0.950 . S
C1254 C1249 1.363 . S
C1254 C1253 1.415 . S
C1255 H1231 0.951 . S
C1255 C1256 1.366 . S
C1255 C1257 1.388 . S
C1256 C1255 1.366 . S
C1256 C1260 1.385 . S
C1257 H1232 0.951 . S
C1257 C1255 1.388 . S
C1257 C1258 1.366 . S
C1258 C1257 1.366 . S
C1258 C1259 1.414 . S
C1258 C1261 1.499 . S
C1259 H1233 0.950 . S
C1259 C1258 1.414 . S
C1259 C1260 1.374 . S
C1260 H1234 0.950 . S
C1260 C1256 1.385 . S
C1260 C1259 1.374 . S
C1261 C1258 1.499 . S
C1261 C1262 1.373 . S
C1261 C1263 1.389 . S
C1262 H1235 0.950 . S
C1262 C1248 1.377 . S
C1262 C1261 1.373 . S
C1263 C1247 1.377 . S
C1263 C1261 1.389 . S
C1263 C1264 1.524 . S
C1264 C1263 1.524 . S
C1264 C1265 1.397 . S
C1264 C1269 1.363 . S
C1265 H1236 0.950 . S
C1265 C1264 1.397 . S
C1265 C1266 1.334 . S
C1266 H1237 0.950 . S
C1266 C1265 1.334 . S
C1266 C1267 1.287 . S
C1267 C1266 1.287 . S
C1267 C1268 1.524 . S
C1267 H1270 0.999 . S
C1268 H1238 0.950 . S
C1268 C1267 1.524 . S
C1268 C1269 1.415 . S
C1269 H1239 0.950 . S
C1269 C1264 1.363 . S
C1269 C1268 1.415 . S
H1270 C1267 0.999 . S
H1271 C1252 0.913 1_655 S
H1272 C1290 0.951 . S
H1273 C1292 0.951 . S
H1274 C1294 0.950 . S
H1275 C1295 0.950 . S
H1276 C1297 0.950 . S
H1277 C1300 0.950 . S
H1278 C1301 0.950 . S
H1279 C1303 0.950 . S
H1280 C1304 0.950 . S
H1281 C1305 0.951 . S
H1282 C1307 0.951 . S
H1283 C1309 0.950 . S
H1284 C1310 0.950 . S
H1285 C1312 0.950 . S
H1286 C1315 0.950 . S
H1287 C1316 0.950 . S
H1288 C1318 0.950 . S
H1289 C1319 0.950 . S
C1290 H1272 0.951 . S
C1290 C1291 1.366 . S
C1290 C1292 1.388 . S
C1291 C1290 1.366 . S
C1291 C1295 1.385 . S
C1292 H1273 0.951 . S
C1292 C1290 1.388 . S
C1292 C1293 1.366 . S
C1293 C1292 1.366 . S
C1293 C1294 1.414 . S
C1293 C1296 1.499 . S
C1294 H1274 0.950 . S
C1294 C1293 1.414 . S
C1294 C1295 1.374 . S
C1295 H1275 0.950 . S
C1295 C1291 1.385 . S
C1295 C1294 1.374 . S
C1296 C1293 1.499 . S
C1296 C1297 1.373 . S
C1296 C1298 1.389 . S
C1297 H1276 0.950 . S
C1297 C1296 1.373 . S
C1297 C1313 1.377 . S
C1298 C1296 1.389 . S
C1298 C1299 1.524 . S
C1298 C1312 1.377 . S
C1299 C1298 1.524 . S
C1299 C1300 1.397 . S
C1299 C1304 1.363 . S
C1300 H1277 0.950 . S
C1300 C1299 1.397 . S
C1300 C1301 1.334 . S
C1301 H1278 0.950 . S
C1301 C1300 1.334 . S
C1301 C1302 1.287 . S
C1302 C1301 1.287 . S
C1302 C1303 1.524 . S
C1302 H1321 0.913 . S
C1303 H1279 0.950 . S
C1303 C1302 1.524 . S
C1303 C1304 1.415 . S
C1304 H1280 0.950 . S
C1304 C1299 1.363 . S
C1304 C1303 1.415 . S
C1305 H1281 0.951 . S
C1305 C1306 1.366 . S
C1305 C1307 1.388 . S
C1306 C1305 1.366 . S
C1306 C1310 1.385 . S
C1307 H1282 0.951 . S
C1307 C1305 1.388 . S
C1307 C1308 1.366 . S
C1308 C1307 1.366 . S
C1308 C1309 1.414 . S
C1308 C1311 1.499 . S
C1309 H1283 0.950 . S
C1309 C1308 1.414 . S
C1309 C1310 1.374 . S
C1310 H1284 0.950 . S
C1310 C1306 1.385 . S
C1310 C1309 1.374 . S
C1311 C1308 1.499 . S
C1311 C1312 1.373 . S
C1311 C1313 1.389 . S
C1312 H1285 0.950 . S
C1312 C1298 1.377 . S
C1312 C1311 1.373 . S
C1313 C1297 1.377 . S
C1313 C1311 1.389 . S
C1313 C1314 1.524 . S
C1314 C1313 1.524 . S
C1314 C1315 1.397 . S
C1314 C1319 1.363 . S
C1315 H1286 0.950 . S
C1315 C1314 1.397 . S
C1315 C1316 1.334 . S
C1316 H1287 0.950 . S
C1316 C1315 1.334 . S
C1316 C1317 1.287 . S
C1317 C1316 1.287 . S
C1317 C1318 1.524 . S
C1317 H1320 0.999 . S
C1318 H1288 0.950 . S
C1318 C1317 1.524 . S
C1318 C1319 1.415 . S
C1319 H1289 0.950 . S
C1319 C1314 1.363 . S
C1319 C1318 1.415 . S
H1320 C1317 0.999 . S
H1321 C1302 0.913 . S
H1322 C1340 0.951 . S
H1323 C1342 0.951 . S
H1324 C1344 0.950 . S
H1325 C1345 0.950 . S
H1326 C1347 0.950 . S
H1327 C1350 0.950 . S
H1328 C1351 0.950 . S
H1329 C1353 0.950 . S
H1330 C1354 0.950 . S
H1331 C1355 0.951 . S
H1332 C1357 0.951 . S
H1333 C1359 0.950 . S
H1334 C1360 0.950 . S
H1335 C1362 0.950 . S
H1336 C1365 0.950 . S
H1337 C1366 0.950 . S
H1338 C1368 0.950 . S
H1339 C1369 0.950 . S
C1340 H1322 0.951 . S
C1340 C1341 1.366 . S
C1340 C1342 1.388 . S
C1341 C1340 1.366 . S
C1341 C1345 1.385 . S
C1342 H1323 0.951 . S
C1342 C1340 1.388 . S
C1342 C1343 1.366 . S
C1343 C1342 1.366 . S
C1343 C1344 1.414 . S
C1343 C1346 1.499 . S
C1344 H1324 0.950 . S
C1344 C1343 1.414 . S
C1344 C1345 1.374 . S
C1345 H1325 0.950 . S
C1345 C1341 1.385 . S
C1345 C1344 1.374 . S
C1346 C1343 1.499 . S
C1346 C1347 1.373 . S
C1346 C1348 1.389 . S
C1347 H1326 0.950 . S
C1347 C1346 1.373 . S
C1347 C1363 1.377 . S
C1348 C1346 1.389 . S
C1348 C1349 1.524 . S
C1348 C1362 1.377 . S
C1349 C1348 1.524 . S
C1349 C1350 1.397 . S
C1349 C1354 1.363 . S
C1350 H1327 0.950 . S
C1350 C1349 1.397 . S
C1350 C1351 1.334 . S
C1351 H1328 0.950 . S
C1351 C1350 1.334 . S
C1351 C1352 1.287 . S
C1352 C1351 1.287 . S
C1352 C1353 1.524 . S
C1352 H1371 0.913 . S
C1353 H1329 0.950 . S
C1353 C1352 1.524 . S
C1353 C1354 1.415 . S
C1354 H1330 0.950 . S
C1354 C1349 1.363 . S
C1354 C1353 1.415 . S
C1355 H1331 0.951 . S
C1355 C1356 1.366 . S
C1355 C1357 1.388 . S
C1356 C1355 1.366 . S
C1356 C1360 1.385 . S
C1357 H1332 0.951 . S
C1357 C1355 1.388 . S
C1357 C1358 1.366 . S
C1358 C1357 1.366 . S
C1358 C1359 1.414 . S
C1358 C1361 1.499 . S
C1359 H1333 0.950 . S
C1359 C1358 1.414 . S
C1359 C1360 1.374 . S
C1360 H1334 0.950 . S
C1360 C1356 1.385 . S
C1360 C1359 1.374 . S
C1361 C1358 1.499 . S
C1361 C1362 1.373 . S
C1361 C1363 1.389 . S
C1362 H1335 0.950 . S
C1362 C1348 1.377 . S
C1362 C1361 1.373 . S
C1363 C1347 1.377 . S
C1363 C1361 1.389 . S
C1363 C1364 1.524 . S
C1364 C1363 1.524 . S
C1364 C1365 1.397 . S
C1364 C1369 1.363 . S
C1365 H1336 0.950 . S
C1365 C1364 1.397 . S
C1365 C1366 1.334 . S
C1366 H1337 0.950 . S
C1366 C1365 1.334 . S
C1366 C1367 1.287 . S
C1367 C1366 1.287 . S
C1367 C1368 1.524 . S
C1367 H1370 0.999 . S
C1368 H1338 0.950 . S
C1368 C1367 1.524 . S
C1368 C1369 1.415 . S
C1369 H1339 0.950 . S
C1369 C1364 1.363 . S
C1369 C1368 1.415 . S
H1370 C1367 0.999 . S
H1371 C1352 0.913 . S
H1372 C1390 0.951 . S
H1373 C1392 0.951 . S
H1374 C1394 0.950 . S
H1375 C1395 0.950 . S
H1376 C1397 0.950 . S
H1377 C1400 0.950 . S
H1378 C1401 0.950 . S
H1379 C1403 0.950 . S
H1380 C1404 0.950 . S
H1381 C1405 0.951 . S
H1382 C1407 0.951 . S
H1383 C1409 0.950 . S
H1384 C1410 0.950 . S
H1385 C1412 0.950 . S
H1386 C1415 0.950 . S
H1387 C1416 0.950 . S
H1388 C1418 0.950 . S
H1389 C1419 0.950 . S
C1390 H1372 0.951 . S
C1390 C1391 1.366 . S
C1390 C1392 1.388 . S
C1391 C1390 1.366 . S
C1391 C1395 1.385 . S
C1392 H1373 0.951 . S
C1392 C1390 1.388 . S
C1392 C1393 1.366 . S
C1393 C1392 1.366 . S
C1393 C1394 1.414 . S
C1393 C1396 1.499 . S
C1394 H1374 0.950 . S
C1394 C1393 1.414 . S
C1394 C1395 1.374 . S
C1395 H1375 0.950 . S
C1395 C1391 1.385 . S
C1395 C1394 1.374 . S
C1396 C1393 1.499 . S
C1396 C1397 1.373 . S
C1396 C1398 1.389 . S
C1397 H1376 0.950 . S
C1397 C1396 1.373 . S
C1397 C1413 1.377 . S
C1398 C1396 1.389 . S
C1398 C1399 1.524 . S
C1398 C1412 1.377 . S
C1399 C1398 1.524 . S
C1399 C1400 1.397 . S
C1399 C1404 1.363 . S
C1400 H1377 0.950 . S
C1400 C1399 1.397 . S
C1400 C1401 1.334 . S
C1401 H1378 0.950 . S
C1401 C1400 1.334 . S
C1401 C1402 1.287 . S
C1402 C1401 1.287 . S
C1402 C1403 1.524 . S
C1402 H1421 0.913 . S
C1403 H1379 0.950 . S
C1403 C1402 1.524 . S
C1403 C1404 1.415 . S
C1404 H1380 0.950 . S
C1404 C1399 1.363 . S
C1404 C1403 1.415 . S
C1405 H1381 0.951 . S
C1405 C1406 1.366 . S
C1405 C1407 1.388 . S
C1406 C1405 1.366 . S
C1406 C1410 1.385 . S
C1407 H1382 0.951 . S
C1407 C1405 1.388 . S
C1407 C1408 1.366 . S
C1408 C1407 1.366 . S
C1408 C1409 1.414 . S
C1408 C1411 1.499 . S
C1409 H1383 0.950 . S
C1409 C1408 1.414 . S
C1409 C1410 1.374 . S
C1410 H1384 0.950 . S
C1410 C1406 1.385 . S
C1410 C1409 1.374 . S
C1411 C1408 1.499 . S
C1411 C1412 1.373 . S
C1411 C1413 1.389 . S
C1412 H1385 0.950 . S
C1412 C1398 1.377 . S
C1412 C1411 1.373 . S
C1413 C1397 1.377 . S
C1413 C1411 1.389 . S
C1413 C1414 1.524 . S
C1414 C1413 1.524 . S
C1414 C1415 1.397 . S
C1414 C1419 1.363 . S
C1415 H1386 0.950 . S
C1415 C1414 1.397 . S
C1415 C1416 1.334 . S
C1416 H1387 0.950 . S
C1416 C1415 1.334 . S
C1416 C1417 1.287 . S
C1417 C1416 1.287 . S
C1417 C1418 1.524 1_554 S
C1417 H1420 0.999 1_554 S
C1418 H1388 0.950 . S
C1418 C1417 1.524 1_556 S
C1418 C1419 1.415 1_556 S
C1419 H1389 0.950 . S
C1419 C1414 1.363 . S
C1419 C1418 1.415 1_554 S
H1420 C1417 0.999 1_556 S
H1421 C1402 0.913 . S
H1422 C1440 0.951 . S
H1423 C1442 0.951 . S
H1424 C1444 0.950 . S
H1425 C1445 0.950 . S
H1426 C1447 0.950 . S
H1427 C1450 0.950 . S
H1428 C1451 0.950 . S
H1429 C1453 0.950 . S
H1430 C1454 0.950 . S
H1431 C1455 0.951 . S
H1432 C1457 0.951 . S
H1433 C1459 0.950 . S
H1434 C1460 0.950 . S
H1435 C1462 0.950 . S
H1436 C1465 0.950 . S
H1437 C1466 0.950 . S
H1438 C1468 0.950 . S
H1439 C1469 0.950 . S
C1440 H1422 0.951 . S
C1440 C1441 1.366 . S
C1440 C1442 1.388 . S
C1441 C1440 1.366 . S
C1441 C1445 1.385 . S
C1442 H1423 0.951 . S
C1442 C1440 1.388 . S
C1442 C1443 1.366 . S
C1443 C1442 1.366 . S
C1443 C1444 1.414 . S
C1443 C1446 1.499 . S
C1444 H1424 0.950 . S
C1444 C1443 1.414 . S
C1444 C1445 1.374 . S
C1445 H1425 0.950 . S
C1445 C1441 1.385 . S
C1445 C1444 1.374 . S
C1446 C1443 1.499 . S
C1446 C1447 1.373 . S
C1446 C1448 1.389 . S
C1447 H1426 0.950 . S
C1447 C1446 1.373 . S
C1447 C1463 1.377 . S
C1448 C1446 1.389 . S
C1448 C1449 1.524 . S
C1448 C1462 1.377 . S
C1449 C1448 1.524 . S
C1449 C1450 1.397 . S
C1449 C1454 1.363 . S
C1450 H1427 0.950 . S
C1450 C1449 1.397 . S
C1450 C1451 1.334 . S
C1451 H1428 0.950 . S
C1451 C1450 1.334 . S
C1451 C1452 1.287 . S
C1452 C1451 1.287 . S
C1452 C1453 1.524 . S
C1452 H1471 0.913 . S
C1453 H1429 0.950 . S
C1453 C1452 1.524 . S
C1453 C1454 1.415 . S
C1454 H1430 0.950 . S
C1454 C1449 1.363 . S
C1454 C1453 1.415 . S
C1455 H1431 0.951 . S
C1455 C1456 1.366 . S
C1455 C1457 1.388 . S
C1456 C1455 1.366 . S
C1456 C1460 1.385 . S
C1457 H1432 0.951 . S
C1457 C1455 1.388 . S
C1457 C1458 1.366 . S
C1458 C1457 1.366 . S
C1458 C1459 1.414 . S
C1458 C1461 1.499 . S
C1459 H1433 0.950 . S
C1459 C1458 1.414 . S
C1459 C1460 1.374 . S
C1460 H1434 0.950 . S
C1460 C1456 1.385 . S
C1460 C1459 1.374 . S
C1461 C1458 1.499 . S
C1461 C1462 1.373 . S
C1461 C1463 1.389 . S
C1462 H1435 0.950 . S
C1462 C1448 1.377 . S
C1462 C1461 1.373 . S
C1463 C1447 1.377 . S
C1463 C1461 1.389 . S
C1463 C1464 1.524 . S
C1464 C1463 1.524 . S
C1464 C1465 1.397 . S
C1464 C1469 1.363 . S
C1465 H1436 0.950 . S
C1465 C1464 1.397 . S
C1465 C1466 1.334 . S
C1466 H1437 0.950 . S
C1466 C1465 1.334 . S
C1466 C1467 1.287 . S
C1467 C1466 1.287 . S
C1467 C1468 1.524 . S
C1467 H1470 0.999 . S
C1468 H1438 0.950 . S
C1468 C1467 1.524 . S
C1468 C1469 1.415 . S
C1469 H1439 0.950 . S
C1469 C1464 1.363 . S
C1469 C1468 1.415 . S
H1470 C1467 0.999 . S
H1471 C1452 0.913 . S
H1472 C1490 0.951 . S
H1473 C1492 0.951 . S
H1474 C1494 0.950 . S
H1475 C1495 0.950 . S
H1476 C1497 0.950 . S
H1477 C1500 0.950 . S
H1478 C1501 0.950 . S
H1479 C1503 0.950 . S
H1480 C1504 0.950 . S
H1481 C1505 0.951 . S
H1482 C1507 0.951 . S
H1483 C1509 0.950 . S
H1484 C1510 0.950 . S
H1485 C1512 0.950 . S
H1486 C1515 0.950 . S
H1487 C1516 0.950 . S
H1488 C1518 0.950 . S
H1489 C1519 0.950 . S
C1490 H1472 0.951 . S
C1490 C1491 1.366 . S
C1490 C1492 1.388 . S
C1491 C1490 1.366 . S
C1491 C1495 1.385 . S
C1492 H1473 0.951 . S
C1492 C1490 1.388 . S
C1492 C1493 1.366 . S
C1493 C1492 1.366 . S
C1493 C1494 1.414 . S
C1493 C1496 1.499 . S
C1494 H1474 0.950 . S
C1494 C1493 1.414 . S
C1494 C1495 1.374 . S
C1495 H1475 0.950 . S
C1495 C1491 1.385 . S
C1495 C1494 1.374 . S
C1496 C1493 1.499 . S
C1496 C1497 1.373 . S
C1496 C1498 1.389 . S
C1497 H1476 0.950 . S
C1497 C1496 1.373 . S
C1497 C1513 1.377 . S
C1498 C1496 1.389 . S
C1498 C1499 1.524 . S
C1498 C1512 1.377 . S
C1499 C1498 1.524 . S
C1499 C1500 1.397 . S
C1499 C1504 1.363 . S
C1500 H1477 0.950 . S
C1500 C1499 1.397 . S
C1500 C1501 1.334 . S
C1501 H1478 0.950 . S
C1501 C1500 1.334 . S
C1501 C1502 1.287 . S
C1502 C1501 1.287 . S
C1502 C1503 1.524 . S
C1502 H1521 0.913 . S
C1503 H1479 0.950 . S
C1503 C1502 1.524 . S
C1503 C1504 1.415 . S
C1504 H1480 0.950 . S
C1504 C1499 1.363 . S
C1504 C1503 1.415 . S
C1505 H1481 0.951 . S
C1505 C1506 1.366 . S
C1505 C1507 1.388 . S
C1506 C1505 1.366 . S
C1506 C1510 1.385 . S
C1507 H1482 0.951 . S
C1507 C1505 1.388 . S
C1507 C1508 1.366 . S
C1508 C1507 1.366 . S
C1508 C1509 1.414 . S
C1508 C1511 1.499 . S
C1509 H1483 0.950 . S
C1509 C1508 1.414 . S
C1509 C1510 1.374 . S
C1510 H1484 0.950 . S
C1510 C1506 1.385 . S
C1510 C1509 1.374 . S
C1511 C1508 1.499 . S
C1511 C1512 1.373 . S
C1511 C1513 1.389 . S
C1512 H1485 0.950 . S
C1512 C1498 1.377 . S
C1512 C1511 1.373 . S
C1513 C1497 1.377 . S
C1513 C1511 1.389 . S
C1513 C1514 1.524 . S
C1514 C1513 1.524 . S
C1514 C1515 1.397 . S
C1514 C1519 1.363 . S
C1515 H1486 0.950 . S
C1515 C1514 1.397 . S
C1515 C1516 1.334 . S
C1516 H1487 0.950 . S
C1516 C1515 1.334 . S
C1516 C1517 1.287 . S
C1517 C1516 1.287 . S
C1517 C1518 1.524 . S
C1517 H1520 0.999 . S
C1518 H1488 0.950 . S
C1518 C1517 1.524 . S
C1518 C1519 1.415 . S
C1519 H1489 0.950 . S
C1519 C1514 1.363 . S
C1519 C1518 1.415 . S
H1520 C1517 0.999 . S
H1521 C1502 0.913 . S
H1522 C1540 0.951 . S
H1523 C1542 0.951 . S
H1524 C1544 0.950 . S
H1525 C1545 0.950 . S
H1526 C1547 0.950 . S
H1527 C1550 0.950 . S
H1528 C1551 0.950 . S
H1529 C1553 0.950 . S
H1530 C1554 0.950 . S
H1531 C1555 0.951 . S
H1532 C1557 0.951 . S
H1533 C1559 0.950 . S
H1534 C1560 0.950 . S
H1535 C1562 0.950 . S
H1536 C1565 0.950 . S
H1537 C1566 0.950 . S
H1538 C1568 0.950 1_556 S
H1539 C1569 0.950 . S
C1540 H1522 0.951 . S
C1540 C1541 1.366 . S
C1540 C1542 1.388 . S
C1541 C1540 1.366 . S
C1541 C1545 1.385 . S
C1542 H1523 0.951 . S
C1542 C1540 1.388 . S
C1542 C1543 1.366 . S
C1543 C1542 1.366 . S
C1543 C1544 1.414 . S
C1543 C1546 1.499 . S
C1544 H1524 0.950 . S
C1544 C1543 1.414 . S
C1544 C1545 1.374 . S
C1545 H1525 0.950 . S
C1545 C1541 1.385 . S
C1545 C1544 1.374 . S
C1546 C1543 1.499 . S
C1546 C1547 1.373 . S
C1546 C1548 1.389 . S
C1547 H1526 0.950 . S
C1547 C1546 1.373 . S
C1547 C1563 1.377 . S
C1548 C1546 1.389 . S
C1548 C1549 1.524 . S
C1548 C1562 1.377 . S
C1549 C1548 1.524 . S
C1549 C1550 1.397 . S
C1549 C1554 1.363 . S
C1550 H1527 0.950 . S
C1550 C1549 1.397 . S
C1550 C1551 1.334 . S
C1551 H1528 0.950 . S
C1551 C1550 1.334 . S
C1551 C1552 1.287 . S
C1552 C1551 1.287 . S
C1552 C1553 1.524 . S
C1552 H1571 0.913 . S
C1553 H1529 0.950 . S
C1553 C1552 1.524 . S
C1553 C1554 1.415 . S
C1554 H1530 0.950 . S
C1554 C1549 1.363 . S
C1554 C1553 1.415 . S
C1555 H1531 0.951 . S
C1555 C1556 1.366 . S
C1555 C1557 1.388 . S
C1556 C1555 1.366 . S
C1556 C1560 1.385 . S
C1557 H1532 0.951 . S
C1557 C1555 1.388 . S
C1557 C1558 1.366 . S
C1558 C1557 1.366 . S
C1558 C1559 1.414 . S
C1558 C1561 1.499 . S
C1559 H1533 0.950 . S
C1559 C1558 1.414 . S
C1559 C1560 1.374 . S
C1560 H1534 0.950 . S
C1560 C1556 1.385 . S
C1560 C1559 1.374 . S
C1561 C1558 1.499 . S
C1561 C1562 1.373 . S
C1561 C1563 1.389 . S
C1562 H1535 0.950 . S
C1562 C1548 1.377 . S
C1562 C1561 1.373 . S
C1563 C1547 1.377 . S
C1563 C1561 1.389 . S
C1563 C1564 1.524 . S
C1564 C1563 1.524 . S
C1564 C1565 1.397 . S
C1564 C1569 1.363 . S
C1565 H1536 0.950 . S
C1565 C1564 1.397 . S
C1565 C1566 1.334 . S
C1566 H1537 0.950 . S
C1566 C1565 1.334 . S
C1566 C1567 1.287 . S
C1567 C1566 1.287 . S
C1567 C1568 1.524 . S
C1567 H1570 0.999 . S
C1568 H1538 0.950 1_554 S
C1568 C1567 1.524 . S
C1568 C1569 1.415 . S
C1569 H1539 0.950 . S
C1569 C1564 1.363 . S
C1569 C1568 1.415 . S
H1570 C1567 0.999 . S
H1571 C1552 0.913 . S
H1572 C1590 0.951 . S
H1573 C1592 0.951 . S
H1574 C1594 0.950 . S
H1575 C1595 0.950 . S
H1576 C1597 0.950 . S
H1577 C1600 0.950 . S
H1578 C1601 0.950 . S
H1579 C1603 0.950 . S
H1580 C1604 0.950 . S
H1581 C1605 0.951 . S
H1582 C1607 0.951 . S
H1583 C1609 0.950 . S
H1584 C1610 0.950 . S
H1585 C1612 0.950 . S
H1586 C1615 0.950 . S
H1587 C1616 0.950 . S
H1588 C1618 0.950 . S
H1589 C1619 0.950 . S
C1590 H1572 0.951 . S
C1590 C1591 1.366 . S
C1590 C1592 1.388 . S
C1591 C1590 1.366 . S
C1591 C1595 1.385 . S
C1592 H1573 0.951 . S
C1592 C1590 1.388 . S
C1592 C1593 1.366 . S
C1593 C1592 1.366 . S
C1593 C1594 1.414 . S
C1593 C1596 1.499 . S
C1594 H1574 0.950 . S
C1594 C1593 1.414 . S
C1594 C1595 1.374 . S
C1595 H1575 0.950 . S
C1595 C1591 1.385 . S
C1595 C1594 1.374 . S
C1596 C1593 1.499 . S
C1596 C1597 1.373 . S
C1596 C1598 1.389 . S
C1597 H1576 0.950 . S
C1597 C1596 1.373 . S
C1597 C1613 1.377 . S
C1598 C1596 1.389 . S
C1598 C1599 1.524 . S
C1598 C1612 1.377 . S
C1599 C1598 1.524 . S
C1599 C1600 1.397 . S
C1599 C1604 1.363 . S
C1600 H1577 0.950 . S
C1600 C1599 1.397 . S
C1600 C1601 1.334 . S
C1601 H1578 0.950 . S
C1601 C1600 1.334 . S
C1601 C1602 1.287 . S
C1602 C1601 1.287 . S
C1602 C1603 1.524 . S
C1602 H1621 0.913 . S
C1603 H1579 0.950 . S
C1603 C1602 1.524 . S
C1603 C1604 1.415 . S
C1604 H1580 0.950 . S
C1604 C1599 1.363 . S
C1604 C1603 1.415 . S
C1605 H1581 0.951 . S
C1605 C1606 1.366 . S
C1605 C1607 1.388 . S
C1606 C1605 1.366 . S
C1606 C1610 1.385 . S
C1607 H1582 0.951 . S
C1607 C1605 1.388 . S
C1607 C1608 1.366 . S
C1608 C1607 1.366 . S
C1608 C1609 1.414 . S
C1608 C1611 1.499 . S
C1609 H1583 0.950 . S
C1609 C1608 1.414 . S
C1609 C1610 1.374 . S
C1610 H1584 0.950 . S
C1610 C1606 1.385 . S
C1610 C1609 1.374 . S
C1611 C1608 1.499 . S
C1611 C1612 1.373 . S
C1611 C1613 1.389 . S
C1612 H1585 0.950 . S
C1612 C1598 1.377 . S
C1612 C1611 1.373 . S
C1613 C1597 1.377 . S
C1613 C1611 1.389 . S
C1613 C1614 1.524 . S
C1614 C1613 1.524 . S
C1614 C1615 1.397 . S
C1614 C1619 1.363 . S
C1615 H1586 0.950 . S
C1615 C1614 1.397 . S
C1615 C1616 1.334 . S
C1616 H1587 0.950 . S
C1616 C1615 1.334 . S
C1616 C1617 1.287 . S
C1617 C1616 1.287 . S
C1617 C1618 1.524 . S
C1617 H1620 0.999 . S
C1618 H1588 0.950 . S
C1618 C1617 1.524 . S
C1618 C1619 1.415 . S
C1619 H1589 0.950 . S
C1619 C1614 1.363 . S
C1619 C1618 1.415 . S
H1620 C1617 0.999 . S
H1621 C1602 0.913 . S
H1622 C1640 0.951 . S
H1623 C1642 0.951 . S
H1624 C1644 0.950 . S
H1625 C1645 0.950 . S
H1626 C1647 0.950 . S
H1627 C1650 0.950 . S
H1628 C1651 0.950 . S
H1629 C1653 0.950 . S
H1630 C1654 0.950 . S
H1631 C1655 0.951 . S
H1632 C1657 0.951 . S
H1633 C1659 0.950 . S
H1634 C1660 0.950 . S
H1635 C1662 0.950 . S
H1636 C1665 0.950 . S
H1637 C1666 0.950 . S
H1638 C1668 0.950 . S
H1639 C1669 0.950 . S
C1640 H1622 0.951 . S
C1640 C1641 1.366 . S
C1640 C1642 1.388 . S
C1641 C1640 1.366 . S
C1641 C1645 1.385 . S
C1642 H1623 0.951 . S
C1642 C1640 1.388 . S
C1642 C1643 1.366 . S
C1643 C1642 1.366 . S
C1643 C1644 1.414 . S
C1643 C1646 1.499 . S
C1644 H1624 0.950 . S
C1644 C1643 1.414 . S
C1644 C1645 1.374 . S
C1645 H1625 0.950 . S
C1645 C1641 1.385 . S
C1645 C1644 1.374 . S
C1646 C1643 1.499 . S
C1646 C1647 1.373 . S
C1646 C1648 1.389 . S
C1647 H1626 0.950 . S
C1647 C1646 1.373 . S
C1647 C1663 1.377 . S
C1648 C1646 1.389 . S
C1648 C1649 1.524 . S
C1648 C1662 1.377 . S
C1649 C1648 1.524 . S
C1649 C1650 1.397 . S
C1649 C1654 1.363 . S
C1650 H1627 0.950 . S
C1650 C1649 1.397 . S
C1650 C1651 1.334 . S
C1651 H1628 0.950 . S
C1651 C1650 1.334 . S
C1651 C1652 1.287 . S
C1652 C1651 1.287 . S
C1652 C1653 1.524 . S
C1652 H1671 0.913 . S
C1653 H1629 0.950 . S
C1653 C1652 1.524 . S
C1653 C1654 1.415 . S
C1654 H1630 0.950 . S
C1654 C1649 1.363 . S
C1654 C1653 1.415 . S
C1655 H1631 0.951 . S
C1655 C1656 1.366 . S
C1655 C1657 1.388 . S
C1656 C1655 1.366 . S
C1656 C1660 1.385 . S
C1657 H1632 0.951 . S
C1657 C1655 1.388 . S
C1657 C1658 1.366 . S
C1658 C1657 1.366 . S
C1658 C1659 1.414 . S
C1658 C1661 1.499 . S
C1659 H1633 0.950 . S
C1659 C1658 1.414 . S
C1659 C1660 1.374 . S
C1660 H1634 0.950 . S
C1660 C1656 1.385 . S
C1660 C1659 1.374 . S
C1661 C1658 1.499 . S
C1661 C1662 1.373 . S
C1661 C1663 1.389 . S
C1662 H1635 0.950 . S
C1662 C1648 1.377 . S
C1662 C1661 1.373 . S
C1663 C1647 1.377 . S
C1663 C1661 1.389 . S
C1663 C1664 1.524 . S
C1664 C1663 1.524 . S
C1664 C1665 1.397 . S
C1664 C1669 1.363 . S
C1665 H1636 0.950 . S
C1665 C1664 1.397 . S
C1665 C1666 1.334 . S
C1666 H1637 0.950 . S
C1666 C1665 1.334 . S
C1666 C1667 1.287 . S
C1667 C1666 1.287 . S
C1667 C1668 1.524 . S
C1667 H1670 0.999 . S
C1668 H1638 0.950 . S
C1668 C1667 1.524 . S
C1668 C1669 1.415 . S
C1669 H1639 0.950 . S
C1669 C1664 1.363 . S
C1669 C1668 1.415 . S
H1670 C1667 0.999 . S
H1671 C1652 0.913 . S
C491 C1 1.197 . S
C506 C318 1.231 . S
C541 C40 0.916 . S
C556 C367 0.914 . S
C606 C402 2.457 . S
C591 C99 2.510 . S
C641 C118 2.340 . S
C656 C441 2.277 . S
C706 C362 2.473 . S
C691 C16 2.395 . S
C756 C321 0.877 . S
C741 C60 0.900 . S
C806 C451 1.870 . S
C791 C79 1.921 . S
C856 C410 1.502 . S
C841 C138 1.533 . S
C891 C21 1.683 . S
C906 C438 1.738 . S
C956 C370 2.334 . S
C941 C94 2.418 . S
C991 C133 2.327 . S
C1006 C331 2.309 . S
C1041 C55 0.709 . S
C1056 C407 0.708 . S
C1106 C327 1.235 . S
C1091 C157 1.205 . S
C1141 C196 0.916 . S
C1156 C358 0.914 . S
C1191 C255 2.508 . S
C1206 C411 2.455 . S
C1241 C289 2.336 . S
C1256 C450 2.271 . S
C1291 C172 2.386 . S
C1306 C371 2.470 . S
C1356 C330 0.876 . S
C1341 C216 0.902 . S
C1406 C442 1.870 . S
C1391 C235 1.922 . S
C1456 C401 1.500 . S
C1441 C294 1.533 . S
C1491 C177 1.698 . S
C1506 C447 1.738 . S
C1556 C361 2.335 . S
C1541 C250 2.420 . S
C1606 C322 2.314 . S
C1591 C274 2.331 . S
C1641 C211 0.707 . S
C1656 C398 0.706 . S
