# Generated by pormake.
# Topology ptr, (4,4)-cn, num edge types: 1
# Building blocks:
#     Node 0, Type 0, BuildingBlock: UXUYUI_clean_sbu_0, # of connection points: 4
#     Node 1, Type 0, BuildingBlock: UXUYUI_clean_sbu_0, # of connection points: 4
#     Node 2, Type 0, BuildingBlock: UXUYUI_clean_sbu_0, # of connection points: 4
#     Node 3, Type 0, BuildingBlock: UXUYUI_clean_sbu_0, # of connection points: 4
#     Node 4, Type 0, BuildingBlock: UXUYUI_clean_sbu_0, # of connection points: 4
#     Node 5, Type 0, BuildingBlock: UXUYUI_clean_sbu_0, # of connection points: 4
#     Node 6, Type 0, BuildingBlock: UXUYUI_clean_sbu_0, # of connection points: 4
#     Node 7, Type 0, BuildingBlock: UXUYUI_clean_sbu_0, # of connection points: 4
#     Node 8, Type 0, BuildingBlock: UXUYUI_clean_sbu_0, # of connection points: 4
#     Node 9, Type 0, BuildingBlock: UXUYUI_clean_sbu_0, # of connection points: 4
#     Node 10, Type 0, BuildingBlock: UXUYUI_clean_sbu_0, # of connection points: 4
#     Node 11, Type 0, BuildingBlock: UXUYUI_clean_sbu_0, # of connection points: 4
#     Node 12, Type 0, BuildingBlock: UXUYUI_clean_sbu_0, # of connection points: 4
#     Node 13, Type 0, BuildingBlock: UXUYUI_clean_sbu_0, # of connection points: 4
#     Node 14, Type 0, BuildingBlock: UXUYUI_clean_sbu_0, # of connection points: 4
#     Node 15, Type 0, BuildingBlock: UXUYUI_clean_sbu_0, # of connection points: 4
#     Node 16, Type 0, BuildingBlock: UXUYUI_clean_sbu_0, # of connection points: 4
#     Node 17, Type 0, BuildingBlock: UXUYUI_clean_sbu_0, # of connection points: 4
#     Node 18, Type 1, BuildingBlock: NAWXER_clean_linker_0, # of connection points: 4
#     Node 19, Type 1, BuildingBlock: NAWXER_clean_linker_0, # of connection points: 4
#     Node 20, Type 1, BuildingBlock: NAWXER_clean_linker_0, # of connection points: 4
#     Node 21, Type 1, BuildingBlock: NAWXER_clean_linker_0, # of connection points: 4
#     Node 22, Type 1, BuildingBlock: NAWXER_clean_linker_0, # of connection points: 4
#     Node 23, Type 1, BuildingBlock: NAWXER_clean_linker_0, # of connection points: 4
#     Node 24, Type 1, BuildingBlock: NAWXER_clean_linker_0, # of connection points: 4
#     Node 25, Type 1, BuildingBlock: NAWXER_clean_linker_0, # of connection points: 4
#     Node 26, Type 1, BuildingBlock: NAWXER_clean_linker_0, # of connection points: 4
#     Node 27, Type 1, BuildingBlock: NAWXER_clean_linker_0, # of connection points: 4
#     Node 28, Type 1, BuildingBlock: NAWXER_clean_linker_0, # of connection points: 4
#     Node 29, Type 1, BuildingBlock: NAWXER_clean_linker_0, # of connection points: 4
#     Node 30, Type 1, BuildingBlock: NAWXER_clean_linker_0, # of connection points: 4
#     Node 31, Type 1, BuildingBlock: NAWXER_clean_linker_0, # of connection points: 4
#     Node 32, Type 1, BuildingBlock: NAWXER_clean_linker_0, # of connection points: 4
#     Node 33, Type 1, BuildingBlock: NAWXER_clean_linker_0, # of connection points: 4
#     Node 34, Type 1, BuildingBlock: NAWXER_clean_linker_0, # of connection points: 4
#     Node 35, Type 1, BuildingBlock: NAWXER_clean_linker_0, # of connection points: 4
#     Edge 36, Type (0, 1), BuildingBlock: EZIPEK_clean_linker_0, # of connection points: 2
#     Edge 37, Type (0, 1), BuildingBlock: EZIPEK_clean_linker_0, # of connection points: 2
#     Edge 38, Type (0, 1), BuildingBlock: EZIPEK_clean_linker_0, # of connection points: 2
#     Edge 39, Type (0, 1), BuildingBlock: EZIPEK_clean_linker_0, # of connection points: 2
#     Edge 40, Type (0, 1), BuildingBlock: EZIPEK_clean_linker_0, # of connection points: 2
#     Edge 41, Type (0, 1), BuildingBlock: EZIPEK_clean_linker_0, # of connection points: 2
#     Edge 42, Type (0, 1), BuildingBlock: EZIPEK_clean_linker_0, # of connection points: 2
#     Edge 43, Type (0, 1), BuildingBlock: EZIPEK_clean_linker_0, # of connection points: 2
#     Edge 44, Type (0, 1), BuildingBlock: EZIPEK_clean_linker_0, # of connection points: 2
#     Edge 45, Type (0, 1), BuildingBlock: EZIPEK_clean_linker_0, # of connection points: 2
#     Edge 46, Type (0, 1), BuildingBlock: EZIPEK_clean_linker_0, # of connection points: 2
#     Edge 47, Type (0, 1), BuildingBlock: EZIPEK_clean_linker_0, # of connection points: 2
#     Edge 48, Type (0, 1), BuildingBlock: EZIPEK_clean_linker_0, # of connection points: 2
#     Edge 49, Type (0, 1), BuildingBlock: EZIPEK_clean_linker_0, # of connection points: 2
#     Edge 50, Type (0, 1), BuildingBlock: EZIPEK_clean_linker_0, # of connection points: 2
#     Edge 51, Type (0, 1), BuildingBlock: EZIPEK_clean_linker_0, # of connection points: 2
#     Edge 52, Type (0, 1), BuildingBlock: EZIPEK_clean_linker_0, # of connection points: 2
#     Edge 53, Type (0, 1), BuildingBlock: EZIPEK_clean_linker_0, # of connection points: 2
#     Edge 54, Type (0, 1), BuildingBlock: EZIPEK_clean_linker_0, # of connection points: 2
#     Edge 55, Type (0, 1), BuildingBlock: EZIPEK_clean_linker_0, # of connection points: 2
#     Edge 56, Type (0, 1), BuildingBlock: EZIPEK_clean_linker_0, # of connection points: 2
#     Edge 57, Type (0, 1), BuildingBlock: EZIPEK_clean_linker_0, # of connection points: 2
#     Edge 58, Type (0, 1), BuildingBlock: EZIPEK_clean_linker_0, # of connection points: 2
#     Edge 59, Type (0, 1), BuildingBlock: EZIPEK_clean_linker_0, # of connection points: 2
#     Edge 60, Type (0, 1), BuildingBlock: EZIPEK_clean_linker_0, # of connection points: 2
#     Edge 61, Type (0, 1), BuildingBlock: EZIPEK_clean_linker_0, # of connection points: 2
#     Edge 62, Type (0, 1), BuildingBlock: EZIPEK_clean_linker_0, # of connection points: 2
#     Edge 63, Type (0, 1), BuildingBlock: EZIPEK_clean_linker_0, # of connection points: 2
#     Edge 64, Type (0, 1), BuildingBlock: EZIPEK_clean_linker_0, # of connection points: 2
#     Edge 65, Type (0, 1), BuildingBlock: EZIPEK_clean_linker_0, # of connection points: 2
#     Edge 66, Type (0, 1), BuildingBlock: EZIPEK_clean_linker_0, # of connection points: 2
#     Edge 67, Type (0, 1), BuildingBlock: EZIPEK_clean_linker_0, # of connection points: 2
#     Edge 68, Type (0, 1), BuildingBlock: EZIPEK_clean_linker_0, # of connection points: 2
#     Edge 69, Type (0, 1), BuildingBlock: EZIPEK_clean_linker_0, # of connection points: 2
#     Edge 70, Type (0, 1), BuildingBlock: EZIPEK_clean_linker_0, # of connection points: 2
#     Edge 71, Type (0, 1), BuildingBlock: EZIPEK_clean_linker_0, # of connection points: 2
#     Edge 72, Type (0, 1), BuildingBlock: EZIPEK_clean_linker_0, # of connection points: 2
#     Edge 73, Type (0, 1), BuildingBlock: EZIPEK_clean_linker_0, # of connection points: 2
#     Edge 74, Type (0, 1), BuildingBlock: EZIPEK_clean_linker_0, # of connection points: 2
#     Edge 75, Type (0, 1), BuildingBlock: EZIPEK_clean_linker_0, # of connection points: 2
#     Edge 76, Type (0, 1), BuildingBlock: EZIPEK_clean_linker_0, # of connection points: 2
#     Edge 77, Type (0, 1), BuildingBlock: EZIPEK_clean_linker_0, # of connection points: 2
#     Edge 78, Type (0, 1), BuildingBlock: EZIPEK_clean_linker_0, # of connection points: 2
#     Edge 79, Type (0, 1), BuildingBlock: EZIPEK_clean_linker_0, # of connection points: 2
#     Edge 80, Type (0, 1), BuildingBlock: EZIPEK_clean_linker_0, # of connection points: 2
#     Edge 81, Type (0, 1), BuildingBlock: EZIPEK_clean_linker_0, # of connection points: 2
#     Edge 82, Type (0, 1), BuildingBlock: EZIPEK_clean_linker_0, # of connection points: 2
#     Edge 83, Type (0, 1), BuildingBlock: EZIPEK_clean_linker_0, # of connection points: 2
#     Edge 84, Type (0, 1), BuildingBlock: EZIPEK_clean_linker_0, # of connection points: 2
#     Edge 85, Type (0, 1), BuildingBlock: EZIPEK_clean_linker_0, # of connection points: 2
#     Edge 86, Type (0, 1), BuildingBlock: EZIPEK_clean_linker_0, # of connection points: 2
#     Edge 87, Type (0, 1), BuildingBlock: EZIPEK_clean_linker_0, # of connection points: 2
#     Edge 88, Type (0, 1), BuildingBlock: EZIPEK_clean_linker_0, # of connection points: 2
#     Edge 89, Type (0, 1), BuildingBlock: EZIPEK_clean_linker_0, # of connection points: 2
#     Edge 90, Type (0, 1), BuildingBlock: EZIPEK_clean_linker_0, # of connection points: 2
#     Edge 91, Type (0, 1), BuildingBlock: EZIPEK_clean_linker_0, # of connection points: 2
#     Edge 92, Type (0, 1), BuildingBlock: EZIPEK_clean_linker_0, # of connection points: 2
#     Edge 93, Type (0, 1), BuildingBlock: EZIPEK_clean_linker_0, # of connection points: 2
#     Edge 94, Type (0, 1), BuildingBlock: EZIPEK_clean_linker_0, # of connection points: 2
#     Edge 95, Type (0, 1), BuildingBlock: EZIPEK_clean_linker_0, # of connection points: 2
#     Edge 96, Type (0, 1), BuildingBlock: EZIPEK_clean_linker_0, # of connection points: 2
#     Edge 97, Type (0, 1), BuildingBlock: EZIPEK_clean_linker_0, # of connection points: 2
#     Edge 98, Type (0, 1), BuildingBlock: EZIPEK_clean_linker_0, # of connection points: 2
#     Edge 99, Type (0, 1), BuildingBlock: EZIPEK_clean_linker_0, # of connection points: 2
#     Edge 100, Type (0, 1), BuildingBlock: EZIPEK_clean_linker_0, # of connection points: 2
#     Edge 101, Type (0, 1), BuildingBlock: EZIPEK_clean_linker_0, # of connection points: 2
#     Edge 102, Type (0, 1), BuildingBlock: EZIPEK_clean_linker_0, # of connection points: 2
#     Edge 103, Type (0, 1), BuildingBlock: EZIPEK_clean_linker_0, # of connection points: 2
#     Edge 104, Type (0, 1), BuildingBlock: EZIPEK_clean_linker_0, # of connection points: 2
#     Edge 105, Type (0, 1), BuildingBlock: EZIPEK_clean_linker_0, # of connection points: 2
#     Edge 106, Type (0, 1), BuildingBlock: EZIPEK_clean_linker_0, # of connection points: 2
#     Edge 107, Type (0, 1), BuildingBlock: EZIPEK_clean_linker_0, # of connection points: 2
# Relax obj value: 0.097
# Max RMSD: 0.293
# Mean RMSD: 0.120
data_MOF--net-ptr--node1-UXUYUI_clean_sbu_0--node2-NAWXER_clean_linker_0--edge1-EZIPEK_clean_linker_0
_symmetry_space_group_name_H-M    P1
_symmetry_Int_Tables_number       1
_symmetry_cell_setting            triclinic
loop_
_symmetry_equiv_pos_as_xyz
'x, y, z'
_cell_length_a     85.55594
_cell_length_b     85.554688
_cell_length_c     60.292279
_cell_angle_alpha  90.163208
_cell_angle_beta   89.8415
_cell_angle_gamma 120.19543
loop_
_atom_site_label
_atom_site_type_symbol
_atom_site_fract_x
_atom_site_fract_y
_atom_site_fract_z
_atom_type_partial_charge
Li0 Li 0.98751 0.32986 1.00024 0.0
Li1 Li 0.01752 0.34628 0.01559 0.0
Li2 Li 0.99553 0.35518 0.02617 0.0
Li3 Li 0.00897 0.36208 0.98893 0.0
C4 C 0.98267 0.31719 0.04363 0.0
N5 N 0.95839 0.28704 0.0674 0.0
C6 C 0.98482 0.30207 0.04471 0.0
C7 C 0.96824 0.31703 0.05478 0.0
C8 C 0.97238 0.28693 0.05676 0.0
C9 C 0.95609 0.30164 0.06667 0.0
C10 C 0.02491 0.33867 0.97572 0.0
C11 C 0.05647 0.35216 0.96623 0.0
N12 N 0.05367 0.3356 0.96026 0.0
C13 C 0.02231 0.32178 0.96946 0.0
C14 C 0.04209 0.354 0.97406 0.0
C15 C 0.03703 0.32051 0.96169 0.0
C16 C 0.97238 0.30571 0.96575 0.0
N17 N 0.96986 0.30718 0.98778 0.0
C18 C 0.94404 0.27735 0.98816 0.0
C19 C 0.956 0.2934 0.99908 0.0
C20 C 0.94654 0.27551 0.96552 0.0
C21 C 0.9609 0.28986 0.95426 0.0
H22 H 0.98339 0.31689 0.9571 0.0
H23 H 0.95402 0.2948 0.01647 0.0
C24 C 0.04972 0.35622 0.03911 0.0
N25 N 0.03619 0.3428 0.02707 0.0
C26 C 0.0622 0.35306 0.05015 0.0
C27 C 0.04677 0.32249 0.03577 0.0
C28 C 0.03462 0.32624 0.02501 0.0
C29 C 0.06052 0.33592 0.04878 0.0
H30 H 0.05043 0.36914 0.04077 0.0
H31 H 0.02356 0.31575 0.01561 0.0
C32 C 0.96619 0.34881 0.99801 0.0
N33 N 0.93235 0.34549 0.99956 0.0
C34 C 0.96368 0.36273 0.99005 0.0
C35 C 0.95148 0.33322 0.00674 0.0
C36 C 0.94647 0.3608 0.991 0.0
C37 C 0.93448 0.33178 0.00737 0.0
C38 C 0.02636 0.38921 0.01935 0.0
C39 C 0.01376 0.39452 0.01431 0.0
C40 C 0.04377 0.40221 0.02605 0.0
C41 C 0.01875 0.41272 0.01618 0.0
C42 C 0.04825 0.42029 0.0277 0.0
N43 N 0.03576 0.42513 0.02278 0.0
C44 C 0.00248 0.37446 0.06536 0.0
C45 C 0.97302 0.36516 0.05206 0.0
C46 C 0.00068 0.38484 0.08196 0.0
N47 N 0.98898 0.36535 0.0504 0.0
C48 C 0.97049 0.37505 0.06872 0.0
C49 C 0.98467 0.38547 0.08343 0.0
H50 H 0.01499 0.37429 0.06379 0.0
H51 H 0.96239 0.3578 0.04025 0.0
C52 C 0.00164 0.37615 0.95155 0.0
N53 N 0.01539 0.37871 0.96512 0.0
C54 C 0.00429 0.38915 0.93579 0.0
C55 C 0.03562 0.40656 0.94707 0.0
C56 C 0.03227 0.39335 0.96295 0.0
C57 C 0.02134 0.40473 0.93377 0.0
H58 H 0.98842 0.3643 0.95356 0.0
H59 H 0.04294 0.39511 0.97406 0.0
O60 O 0.99481 0.33219 0.03209 0.0
O61 O 0.01076 0.34016 0.98377 0.0
O62 O 0.98291 0.35037 0.99701 0.0
O63 O 0.02184 0.37146 0.01751 0.0
H64 H 0.9959 0.30194 0.03621 0.0
H65 H 0.96635 0.32859 0.05417 0.0
H66 H 0.97384 0.27511 0.05765 0.0
H67 H 0.94482 0.30131 0.0753 0.0
H68 H 0.06987 0.36389 0.96498 0.0
H69 H 0.0091 0.30977 0.97079 0.0
H70 H 0.04434 0.36712 0.97907 0.0
H71 H 0.03525 0.30753 0.95686 0.0
H72 H 0.93298 0.26649 0.99723 0.0
H73 H 0.9631 0.28882 0.93675 0.0
H74 H 0.07265 0.36363 0.06024 0.0
H75 H 0.04514 0.30912 0.03455 0.0
H76 H 0.97488 0.37493 0.98326 0.0
H77 H 0.95321 0.32249 0.01333 0.0
H78 H 0.94435 0.37147 0.98494 0.0
H79 H 0.92301 0.31981 0.01418 0.0
H80 H 0.00026 0.38471 0.00907 0.0
H81 H 0.05374 0.39839 0.02988 0.0
H82 H 0.00911 0.41698 0.01237 0.0
H83 H 0.06168 0.43049 0.03287 0.0
H84 H 0.01186 0.39271 0.09312 0.0
H85 H 0.95793 0.37523 0.06955 0.0
H86 H 0.99304 0.38732 0.9257 0.0
H87 H 0.04895 0.41844 0.94581 0.0
Li88 Li 0.66554 0.65481 0.99859 0.0
Li89 Li 0.65261 0.671 0.01565 0.0
Li90 Li 0.64149 0.6407 0.02578 0.0
Li91 Li 0.6337 0.6477 0.98928 0.0
C92 C 0.68358 0.67388 0.03556 0.0
N93 N 0.7185 0.70038 0.04581 0.0
C94 C 0.69315 0.68858 0.02136 0.0
C95 C 0.69176 0.67266 0.05499 0.0
C96 C 0.71079 0.70184 0.02682 0.0
C97 C 0.70943 0.68619 0.05988 0.0
C98 C 0.65847 0.68383 0.97089 0.0
C99 C 0.64449 0.69833 0.95165 0.0
N100 N 0.66109 0.71164 0.94494 0.0
C101 C 0.67538 0.69757 0.96361 0.0
C102 C 0.64288 0.68413 0.96472 0.0
C103 C 0.67642 0.71154 0.95059 0.0
C104 C 0.69006 0.66249 0.9644 0.0
N105 N 0.68656 0.65668 0.98575 0.0
C106 C 0.71414 0.65611 0.98783 0.0
C107 C 0.69807 0.65329 0.99753 0.0
C108 C 0.71823 0.66251 0.96597 0.0
C109 C 0.70596 0.66557 0.95412 0.0
H110 H 0.68058 0.66497 0.95546 0.0
H111 H 0.6949 0.6487 0.01451 0.0
C112 C 0.66157 0.69484 0.05096 0.0
N113 N 0.65863 0.6939 0.0287 0.0
C114 C 0.66613 0.71062 0.06267 0.0
C115 C 0.66476 0.72443 0.02837 0.0
C116 C 0.66004 0.70828 0.01733 0.0
C117 C 0.66781 0.72562 0.0513 0.0
H118 H 0.66026 0.68321 0.05969 0.0
H119 H 0.65749 0.70736 0.99979 0.0
C120 C 0.63616 0.61335 0.0011 0.0
N121 N 0.62169 0.57759 0.01324 0.0
C122 C 0.61766 0.60125 0.99859 0.0
C123 C 0.64734 0.60728 0.00963 0.0
C124 C 0.61059 0.58321 0.00485 0.0
C125 C 0.63974 0.58914 0.01572 0.0
C126 C 0.62028 0.66073 0.03118 0.0
C127 C 0.62059 0.6602 0.05434 0.0
C128 C 0.61387 0.67095 0.0207 0.0
C129 C 0.61473 0.67016 0.06664 0.0
C130 C 0.60815 0.68075 0.03359 0.0
N131 N 0.60871 0.68016 0.0561 0.0
C132 C 0.6133 0.61447 0.05115 0.0
C133 C 0.64221 0.61986 0.06227 0.0
C134 C 0.60496 0.60158 0.06776 0.0
N135 N 0.63158 0.62332 0.04879 0.0
C136 C 0.63438 0.60693 0.07908 0.0
C137 C 0.61556 0.59777 0.08191 0.0
H138 H 0.60524 0.61748 0.04008 0.0
H139 H 0.65671 0.62709 0.05988 0.0
C140 C 0.62161 0.63608 0.94624 0.0
N141 N 0.61616 0.63832 0.9666 0.0
C142 C 0.60886 0.62652 0.9298 0.0
C143 C 0.58522 0.62236 0.95541 0.0
C144 C 0.59845 0.63202 0.97138 0.0
C145 C 0.59045 0.61922 0.93456 0.0
H146 H 0.63581 0.64106 0.94314 0.0
H147 H 0.59456 0.63378 0.98788 0.0
O148 O 0.66629 0.66065 0.03062 0.0
O149 O 0.65717 0.6699 0.98339 0.0
O150 O 0.64323 0.63116 0.99578 0.0
O151 O 0.62649 0.65151 0.01886 0.0
H152 H 0.68703 0.68978 0.00634 0.0
H153 H 0.68453 0.66135 0.06618 0.0
H154 H 0.71834 0.71328 0.01596 0.0
H155 H 0.71593 0.68541 0.07487 0.0
H156 H 0.63255 0.69877 0.94686 0.0
H157 H 0.68759 0.69745 0.96793 0.0
H158 H 0.62969 0.67361 0.97004 0.0
H159 H 0.68942 0.72229 0.94493 0.0
H160 H 0.72339 0.6536 0.9973 0.0
H161 H 0.70878 0.67046 0.9372 0.0
H162 H 0.66834 0.71114 0.08041 0.0
H163 H 0.6659 0.73583 0.0192 0.0
H164 H 0.60882 0.60578 0.99211 0.0
H165 H 0.66168 0.61654 0.01178 0.0
H166 H 0.59628 0.57371 0.00313 0.0
H167 H 0.6482 0.58426 0.0225 0.0
H168 H 0.62563 0.65246 0.06274 0.0
H169 H 0.61341 0.67141 0.00281 0.0
H170 H 0.61505 0.67001 0.08457 0.0
H171 H 0.60329 0.68883 0.0257 0.0
H172 H 0.59038 0.59461 0.06957 0.0
H173 H 0.64284 0.60415 0.08977 0.0
H174 H 0.61322 0.62416 0.91389 0.0
H175 H 0.57106 0.61673 0.95953 0.0
Li176 Li 0.3537 0.9905 0.99121 0.0
Li177 Li 0.36147 0.00525 0.0277 0.0
Li178 Li 0.32928 0.98267 0.01736 0.0
Li179 Li 0.34399 0.01275 0.00137 0.0
C180 C 0.35629 0.96699 0.01868 0.0
N181 N 0.36866 0.94289 0.01401 0.0
C182 C 0.37394 0.97202 0.02489 0.0
C183 C 0.34484 0.94959 0.01045 0.0
C184 C 0.37997 0.95968 0.02232 0.0
C185 C 0.35137 0.93764 0.00811 0.0
C186 C 0.38421 0.03347 0.99807 0.0
C187 C 0.40007 0.06476 0.00944 0.0
N188 N 0.415 0.06727 0.99831 0.0
C189 C 0.39965 0.03641 0.98654 0.0
C190 C 0.38436 0.0478 0.00945 0.0
C191 C 0.41511 0.05358 0.98694 0.0
C192 C 0.35483 0.97585 0.94884 0.0
N193 N 0.36373 0.98305 0.96821 0.0
C194 C 0.39015 0.98347 0.95449 0.0
C195 C 0.38101 0.98679 0.97132 0.0
C196 C 0.38144 0.9764 0.93424 0.0
C197 C 0.3635 0.97231 0.93148 0.0
H198 H 0.34124 0.97338 0.94661 0.0
H199 H 0.3879 0.99294 0.98666 0.0
C200 C 0.37208 0.0066 0.07176 0.0
N201 N 0.37866 0.01253 0.05102 0.0
C202 C 0.38382 0.00858 0.08901 0.0
C203 C 0.4089 0.02334 0.06339 0.0
C204 C 0.3967 0.02102 0.04664 0.0
C205 C 0.40238 0.01668 0.08467 0.0
H206 H 0.35764 0.99957 0.07462 0.0
H207 H 0.40157 0.02503 0.02993 0.0
C208 C 0.31368 0.97676 0.97745 0.0
N209 N 0.27988 0.9513 0.96204 0.0
C210 C 0.30102 0.98186 0.97198 0.0
C211 C 0.30926 0.95877 0.97473 0.0
C212 C 0.28397 0.96878 0.9643 0.0
C213 C 0.29208 0.94608 0.96703 0.0
C214 C 0.33629 0.01788 0.04582 0.0
C215 C 0.31878 0.01467 0.04947 0.0
C216 C 0.35092 0.03279 0.05588 0.0
C217 C 0.31624 0.02676 0.06248 0.0
C218 C 0.34784 0.04455 0.0688 0.0
N219 N 0.33071 0.04134 0.07177 0.0
C220 C 0.30666 0.95113 0.04194 0.0
C221 C 0.29209 0.96619 0.02721 0.0
C222 C 0.2909 0.93895 0.05322 0.0
N223 N 0.30697 0.96448 0.02942 0.0
C224 C 0.27608 0.95433 0.03819 0.0
C225 C 0.27554 0.94073 0.0516 0.0
H226 H 0.3188 0.95033 0.04379 0.0
H227 H 0.29283 0.97716 0.01754 0.0
C228 C 0.35136 0.04318 0.97519 0.0
N229 N 0.33945 0.03078 0.98978 0.0
C230 C 0.34747 0.05545 0.96502 0.0
C231 C 0.31886 0.04163 0.98448 0.0
C232 C 0.32343 0.0298 0.99454 0.0
C233 C 0.33096 0.05458 0.96948 0.0
H234 H 0.36365 0.04323 0.97092 0.0
H235 H 0.31386 0.01933 0.00541 0.0
O236 O 0.35017 0.97894 0.02097 0.0
O237 O 0.369 0.01669 0.99797 0.0
O238 O 0.33036 0.98932 0.9853 0.0
O239 O 0.339 0.00604 0.03334 0.0
H240 H 0.38297 0.98536 0.03141 0.0
H241 H 0.33102 0.9453 0.00606 0.0
H242 H 0.39364 0.96345 0.02691 0.0
H243 H 0.34268 0.92416 0.00166 0.0
H244 H 0.40035 0.07596 0.01819 0.0
H245 H 0.39975 0.02556 0.97742 0.0
H246 H 0.37238 0.04593 0.01783 0.0
H247 H 0.42719 0.05601 0.97819 0.0
H248 H 0.40405 0.98687 0.95698 0.0
H249 H 0.35653 0.96696 0.9159 0.0
H250 H 0.37843 0.00316 0.10526 0.0
H251 H 0.42316 0.02943 0.05955 0.0
H252 H 0.30426 0.99575 0.97371 0.0
H253 H 0.319 0.95467 0.97851 0.0
H254 H 0.274 0.97252 0.96014 0.0
H255 H 0.28845 0.93209 0.96498 0.0
H256 H 0.30725 0.00304 0.04223 0.0
H257 H 0.36452 0.03521 0.05392 0.0
H258 H 0.30277 0.02451 0.06524 0.0
H259 H 0.35906 0.05619 0.07656 0.0
H260 H 0.29085 0.92862 0.06362 0.0
H261 H 0.26441 0.95605 0.0368 0.0
H262 H 0.35697 0.06517 0.95327 0.0
H263 H 0.30589 0.04048 0.98799 0.0
Li264 Li 0.02022 0.66943 0.01404 0.0
Li265 Li 0.99954 0.63831 0.02264 0.0
Li266 Li 0.01342 0.6478 0.98536 0.0
Li267 Li 0.99041 0.65507 0.99628 0.0
C268 C 0.04194 0.65577 0.02303 0.0
N269 N 0.07589 0.66962 0.04155 0.0
C270 C 0.04394 0.64966 0.04373 0.0
C271 C 0.05721 0.66883 0.01169 0.0
C272 C 0.06122 0.65685 0.05282 0.0
C273 C 0.07425 0.6757 0.02136 0.0
C274 C 0.99888 0.66875 0.04761 0.0
C275 C 0.99825 0.69273 0.06797 0.0
N276 N 0.00541 0.68897 0.08588 0.0
C277 C 0.00618 0.66508 0.06624 0.0
C278 C 0.99484 0.68266 0.04848 0.0
C279 C 0.00941 0.67547 0.08542 0.0
C280 C 0.04032 0.70744 0.01721 0.0
N281 N 0.03769 0.692 0.02705 0.0
C282 C 0.05686 0.70891 0.05725 0.0
C283 C 0.04576 0.69248 0.04666 0.0
C284 C 0.05947 0.72492 0.04767 0.0
C285 C 0.05125 0.72421 0.02734 0.0
H286 H 0.03347 0.70667 0.00184 0.0
H287 H 0.04305 0.68011 0.05462 0.0
C288 C 0.99848 0.60864 0.04274 0.0
N289 N 0.99164 0.6199 0.04428 0.0
C290 C 0.99503 0.59604 0.05939 0.0
C291 C 0.97685 0.60629 0.07841 0.0
C292 C 0.98062 0.61869 0.06132 0.0
C293 C 0.98443 0.5951 0.07763 0.0
H294 H 0.00715 0.60993 0.02893 0.0
H295 H 0.97525 0.62774 0.06199 0.0
C296 C 0.02013 0.6763 0.96188 0.0
N297 N 0.03201 0.68537 0.91866 0.0
C298 C 0.00765 0.67117 0.94457 0.0
C299 C 0.03863 0.68622 0.95726 0.0
C300 C 0.01393 0.67584 0.92282 0.0
C301 C 0.04437 0.69062 0.93528 0.0
C302 C 0.97036 0.61658 0.99545 0.0
C303 C 0.96396 0.60093 0.98261 0.0
C304 C 0.9591 0.61775 0.0114 0.0
C305 C 0.94632 0.58669 0.98587 0.0
C306 C 0.94154 0.60322 0.01417 0.0
N307 N 0.93557 0.58812 0.00145 0.0
C308 C 0.03734 0.64042 0.96017 0.0
C309 C 0.00978 0.63318 0.94293 0.0
C310 C 0.04251 0.6341 0.94176 0.0
N311 N 0.02137 0.64015 0.96024 0.0
C312 C 0.01444 0.62684 0.92416 0.0
C313 C 0.03153 0.62802 0.92252 0.0
H314 H 0.04588 0.64502 0.97468 0.0
H315 H 0.99669 0.6322 0.9439 0.0
C316 C 0.97534 0.67648 0.98669 0.0
N317 N 0.97213 0.65925 0.98491 0.0
C318 C 0.96359 0.6813 0.97697 0.0
C319 C 0.94545 0.65059 0.96366 0.0
C320 C 0.95761 0.64638 0.97351 0.0
C321 C 0.94851 0.66826 0.96525 0.0
H322 H 0.98738 0.6866 0.99505 0.0
H323 H 0.95572 0.63302 0.9714 0.0
O324 O 0.02513 0.64889 0.01387 0.0
O325 O 0.99569 0.65877 0.02864 0.0
O326 O 0.01426 0.67151 0.98323 0.0
O327 O 0.9877 0.6305 0.99265 0.0
H328 H 0.03228 0.63964 0.05281 0.0
H329 H 0.0559 0.67369 0.99567 0.0
H330 H 0.06296 0.65232 0.06887 0.0
H331 H 0.08617 0.68588 0.01282 0.0
H332 H 0.99523 0.70357 0.06885 0.0
H333 H 0.0097 0.65458 0.06577 0.0
H334 H 0.98911 0.68566 0.03429 0.0
H335 H 0.0152 0.67286 0.09988 0.0
H336 H 0.0629 0.70909 0.07308 0.0
H337 H 0.05297 0.73642 0.0197 0.0
H338 H 0.00101 0.5875 0.05843 0.0
H339 H 0.96857 0.60576 0.09233 0.0
H340 H 0.99328 0.66344 0.94784 0.0
H341 H 0.04845 0.69047 0.9705 0.0
H342 H 0.00443 0.67184 0.90923 0.0
H343 H 0.05866 0.69823 0.93144 0.0
H344 H 0.97257 0.5998 0.97027 0.0
H345 H 0.96381 0.62977 0.02148 0.0
H346 H 0.94117 0.57449 0.97604 0.0
H347 H 0.93267 0.60394 0.02643 0.0
H348 H 0.05468 0.63349 0.94358 0.0
H349 H 0.0042 0.62046 0.91155 0.0
H350 H 0.9664 0.69512 0.97817 0.0
H351 H 0.93403 0.64033 0.95441 0.0
Li352 Li 0.33535 0.35204 0.02127 0.0
Li353 Li 0.36569 0.35988 0.03052 0.0
Li354 Li 0.358 0.36704 0.99371 0.0
Li355 Li 0.34812 0.33557 0.00231 0.0
C356 C 0.35168 0.3875 0.0332 0.0
N357 N 0.34069 0.40929 0.05377 0.0
C358 C 0.35783 0.39425 0.05452 0.0
C359 C 0.34005 0.39195 0.02229 0.0
C360 C 0.3521 0.40522 0.06464 0.0
C361 C 0.33461 0.40294 0.03299 0.0
C362 C 0.33368 0.32953 0.05366 0.0
C363 C 0.30852 0.30563 0.0735 0.0
N364 N 0.31299 0.31649 0.09168 0.0
C365 C 0.33804 0.34043 0.07256 0.0
C366 C 0.31881 0.31198 0.05412 0.0
C367 C 0.3274 0.3336 0.09161 0.0
C368 C 0.29754 0.33613 0.02322 0.0
N369 N 0.31306 0.34806 0.03382 0.0
C370 C 0.29622 0.35085 0.06372 0.0
C371 C 0.31266 0.35543 0.0537 0.0
C372 C 0.28009 0.33835 0.05333 0.0
C373 C 0.28074 0.331 0.03279 0.0
H374 H 0.29823 0.33018 0.00766 0.0
H375 H 0.32505 0.36434 0.06228 0.0
C376 C 0.39645 0.38633 0.05151 0.0
N377 N 0.38393 0.36844 0.05247 0.0
C378 C 0.40931 0.39434 0.06822 0.0
C379 C 0.3967 0.36515 0.08611 0.0
C380 C 0.38406 0.35768 0.06896 0.0
C381 C 0.40923 0.38375 0.08593 0.0
H382 H 0.39601 0.39448 0.0381 0.0
H383 H 0.37404 0.34343 0.06914 0.0
C384 C 0.32941 0.34801 0.96881 0.0
N385 N 0.32178 0.35407 0.92627 0.0
C386 C 0.33352 0.34051 0.95066 0.0
C387 C 0.32122 0.3584 0.96537 0.0
C388 C 0.3296 0.34378 0.92927 0.0
C389 C 0.31753 0.36137 0.94372 0.0
C390 C 0.38674 0.35222 0.00275 0.0
C391 C 0.40309 0.36217 0.99139 0.0
C392 C 0.38428 0.33829 0.01701 0.0
C393 C 0.41673 0.35793 0.99438 0.0
C394 C 0.39825 0.33449 0.01955 0.0
N395 N 0.41405 0.3443 0.00828 0.0
C396 C 0.36985 0.40073 0.97185 0.0
C397 C 0.37413 0.37907 0.95225 0.0
C398 C 0.37895 0.41357 0.95529 0.0
N399 N 0.36776 0.38393 0.9701 0.0
C400 C 0.38321 0.39143 0.93527 0.0
C401 C 0.38591 0.40895 0.93695 0.0
H402 H 0.36504 0.40438 0.98643 0.0
H403 H 0.37264 0.36575 0.95158 0.0
C404 C 0.32576 0.29914 0.9911 0.0
N405 N 0.34295 0.31328 0.98914 0.0
C406 C 0.32065 0.28282 0.98027 0.0
C407 C 0.35098 0.29596 0.96548 0.0
C408 C 0.35547 0.31205 0.97645 0.0
C409 C 0.33337 0.28119 0.96729 0.0
H410 H 0.31591 0.30073 0.00057 0.0
H411 H 0.36879 0.32367 0.9743 0.0
O412 O 0.35719 0.37678 0.02302 0.0
O413 O 0.34388 0.33602 0.03481 0.0
O414 O 0.33345 0.34526 0.98984 0.0
O415 O 0.37339 0.35641 0.00027 0.0
H416 H 0.36677 0.39089 0.06327 0.0
H417 H 0.3352 0.38689 0.0058 0.0
H418 H 0.35668 0.41045 0.08117 0.0
H419 H 0.32554 0.40641 0.02478 0.0
H420 H 0.29695 0.29208 0.07407 0.0
H421 H 0.34929 0.35417 0.0724 0.0
H422 H 0.31524 0.30333 0.0397 0.0
H423 H 0.33055 0.34195 0.10629 0.0
H424 H 0.29606 0.35653 0.07974 0.0
H425 H 0.26844 0.32118 0.02453 0.0
H426 H 0.41888 0.40873 0.06772 0.0
H427 H 0.39642 0.3567 0.09962 0.0
H428 H 0.33985 0.33243 0.95303 0.0
H429 H 0.31774 0.36408 0.97926 0.0
H430 H 0.33282 0.33817 0.91506 0.0
H431 H 0.31127 0.36945 0.9408 0.0
H432 H 0.40521 0.37305 0.98039 0.0
H433 H 0.37173 0.3305 0.02599 0.0
H434 H 0.42946 0.3655 0.98567 0.0
H435 H 0.39654 0.32374 0.03051 0.0
H436 H 0.38107 0.4271 0.95708 0.0
H437 H 0.38866 0.38761 0.92139 0.0
H438 H 0.30688 0.27168 0.98171 0.0
H439 H 0.36099 0.29513 0.95531 0.0
Li440 Li 0.65093 0.98294 0.01557 0.0
Li441 Li 0.64078 0.00331 0.02696 0.0
Li442 Li 0.63579 0.99143 0.98928 0.0
Li443 Li 0.66633 0.01286 0.00038 0.0
C444 C 0.61337 0.96031 0.01233 0.0
N445 N 0.58824 0.9249 0.00196 0.0
C446 C 0.59629 0.95193 0.02227 0.0
C447 C 0.61767 0.9507 0.99708 0.0
C448 C 0.58377 0.93401 0.01682 0.0
C449 C 0.60478 0.93281 0.99207 0.0
C450 C 0.67352 0.00329 0.04898 0.0
C451 C 0.70091 0.00924 0.06758 0.0
N452 N 0.69085 0.99782 0.08416 0.0
C453 C 0.66347 0.99156 0.06616 0.0
C454 C 0.6924 0.01221 0.04968 0.0
C455 C 0.67247 0.98897 0.0838 0.0
C456 C 0.67133 0.96581 0.02077 0.0
N457 N 0.65538 0.96466 0.0264 0.0
C458 C 0.64839 0.94032 0.05128 0.0
C459 C 0.6438 0.95208 0.04109 0.0
C460 C 0.66501 0.94163 0.04629 0.0
C461 C 0.67645 0.9543 0.03058 0.0
H462 H 0.68035 0.97614 0.00929 0.0
H463 H 0.63139 0.95171 0.04562 0.0
C464 C 0.61556 0.01177 0.04318 0.0
N465 N 0.62981 0.01001 0.0496 0.0
C466 C 0.60516 0.01443 0.05896 0.0
C467 C 0.62447 0.01368 0.08767 0.0
C468 C 0.63474 0.01143 0.07127 0.0
C469 C 0.6093 0.01487 0.08153 0.0
H470 H 0.61194 0.01053 0.02582 0.0
H471 H 0.64628 0.01029 0.07594 0.0
C472 C 0.66312 0.9935 0.96256 0.0
N473 N 0.6746 0.00172 0.91907 0.0
C474 C 0.66135 0.00677 0.95121 0.0
C475 C 0.67074 0.98444 0.95178 0.0
C476 C 0.66723 0.01072 0.92924 0.0
C477 C 0.67645 0.98878 0.92979 0.0
C478 C 0.65003 0.03441 0.00267 0.0
C479 C 0.64336 0.04309 0.98937 0.0
C480 C 0.66155 0.04375 0.02037 0.0
C481 C 0.6484 0.06104 0.99393 0.0
C482 C 0.66625 0.06168 0.02438 0.0
N483 N 0.65964 0.06988 0.01119 0.0
C484 C 0.60787 0.99176 0.96711 0.0
C485 C 0.61753 0.97349 0.94878 0.0
C486 C 0.59533 0.98844 0.95044 0.0
N487 N 0.61874 0.98445 0.96589 0.0
C488 C 0.60517 0.96985 0.93162 0.0
C489 C 0.59404 0.97752 0.9324 0.0
H490 H 0.60912 0.00036 0.98098 0.0
H491 H 0.62629 0.96778 0.94829 0.0
C492 C 0.70227 0.02639 0.98939 0.0
N493 N 0.68919 0.03099 0.98937 0.0
C494 C 0.71878 0.03737 0.97885 0.0
C495 C 0.7081 0.05769 0.9685 0.0
C496 C 0.69177 0.04629 0.97921 0.0
C497 C 0.72167 0.05309 0.96808 0.0
H498 H 0.69957 0.0138 0.99688 0.0
H499 H 0.68097 0.04932 0.97852 0.0
O500 O 0.62562 0.97791 0.01737 0.0
O501 O 0.66499 0.0065 0.03193 0.0
O502 O 0.6579 0.98962 0.98428 0.0
O503 O 0.64506 0.0168 0.99842 0.0
H504 H 0.59274 0.95922 0.03406 0.0
H505 H 0.63078 0.95693 0.98916 0.0
H506 H 0.5705 0.92735 0.02439 0.0
H507 H 0.60792 0.92521 0.9803 0.0
H508 H 0.71551 0.01611 0.06836 0.0
H509 H 0.64884 0.98447 0.06583 0.0
H510 H 0.70042 0.02156 0.03673 0.0
H511 H 0.66484 0.9799 0.09718 0.0
H512 H 0.63937 0.93072 0.06348 0.0
H513 H 0.68942 0.95564 0.02655 0.0
H514 H 0.59354 0.01535 0.05374 0.0
H515 H 0.62802 0.01403 0.10496 0.0
H516 H 0.65558 0.01402 0.95923 0.0
H517 H 0.67229 0.97421 0.96039 0.0
H518 H 0.66598 0.02097 0.92028 0.0
H519 H 0.6824 0.98188 0.92126 0.0
H520 H 0.63441 0.03602 0.97565 0.0
H521 H 0.66684 0.0373 0.0309 0.0
H522 H 0.64336 0.06793 0.98374 0.0
H523 H 0.67516 0.06908 0.03799 0.0
H524 H 0.58687 0.9945 0.95143 0.0
H525 H 0.6044 0.96134 0.91785 0.0
H526 H 0.72897 0.03341 0.97852 0.0
H527 H 0.70994 0.06966 0.96004 0.0
Li528 Li 0.65501 0.669 0.33311 0.0
Li529 Li 0.68177 0.6822 0.35295 0.0
Li530 Li 0.65909 0.69079 0.36188 0.0
Li531 Li 0.67765 0.70063 0.32553 0.0
C532 C 0.64398 0.65005 0.37009 0.0
N533 N 0.61663 0.61515 0.37856 0.0
C534 C 0.64606 0.6354 0.36413 0.0
C535 C 0.62812 0.64699 0.38062 0.0
C536 C 0.63203 0.61784 0.36845 0.0
C537 C 0.61443 0.62923 0.38472 0.0
C538 C 0.69349 0.67686 0.31413 0.0
C539 C 0.72299 0.68849 0.29765 0.0
N540 N 0.7221 0.67242 0.30163 0.0
C541 C 0.69277 0.66039 0.31784 0.0
C542 C 0.70864 0.691 0.3038 0.0
C543 C 0.70742 0.65844 0.31151 0.0
C544 C 0.64528 0.64383 0.2992 0.0
N545 N 0.6381 0.64754 0.31722 0.0
C546 C 0.60921 0.62137 0.31008 0.0
C547 C 0.62034 0.63677 0.32273 0.0
C548 C 0.61655 0.61723 0.29171 0.0
C549 C 0.63473 0.62864 0.28623 0.0
H550 H 0.65923 0.6527 0.29474 0.0
H551 H 0.61478 0.64007 0.33686 0.0
C552 C 0.69289 0.66621 0.38496 0.0
N553 N 0.69913 0.67766 0.36732 0.0
C554 C 0.70434 0.66189 0.3964 0.0
C555 C 0.72864 0.68148 0.37168 0.0
C556 C 0.71671 0.68545 0.36071 0.0
C557 C 0.72237 0.66951 0.38964 0.0
H558 H 0.679 0.66044 0.39022 0.0
H559 H 0.72152 0.69475 0.34695 0.0
C560 C 0.63328 0.68155 0.32369 0.0
N561 N 0.59781 0.66373 0.30926 0.0
C562 C 0.62939 0.67828 0.30107 0.0
C563 C 0.61911 0.67578 0.33895 0.0
C564 C 0.61138 0.66921 0.29412 0.0
C565 C 0.60128 0.66682 0.33133 0.0
C566 C 0.70104 0.71479 0.36942 0.0
C567 C 0.6997 0.71213 0.39236 0.0
C568 C 0.71809 0.72466 0.35954 0.0
C569 C 0.71547 0.71936 0.40506 0.0
C570 C 0.73354 0.73172 0.37282 0.0
N571 N 0.73192 0.72892 0.39511 0.0
C572 C 0.65002 0.69551 0.40576 0.0
C573 C 0.64583 0.71254 0.37781 0.0
C574 C 0.64657 0.70484 0.42232 0.0
N575 N 0.65 0.69982 0.38407 0.0
C576 C 0.64205 0.722 0.39378 0.0
C577 C 0.64294 0.71853 0.41632 0.0
H578 H 0.65361 0.68547 0.41021 0.0
H579 H 0.6462 0.71584 0.36044 0.0
C580 C 0.67943 0.71423 0.28317 0.0
N581 N 0.68683 0.71905 0.30372 0.0
C582 C 0.68305 0.72743 0.26725 0.0
C583 C 0.70336 0.75017 0.2932 0.0
C584 C 0.69877 0.73658 0.30894 0.0
C585 C 0.69487 0.74569 0.27238 0.0
H586 H 0.67016 0.70017 0.27945 0.0
H587 H 0.70416 0.7401 0.32554 0.0
O588 O 0.65755 0.66733 0.36597 0.0
O589 O 0.67927 0.67902 0.32015 0.0
O590 O 0.65083 0.69008 0.33092 0.0
O591 O 0.68576 0.70741 0.35666 0.0
H592 H 0.65832 0.63757 0.35609 0.0
H593 H 0.62635 0.6582 0.38545 0.0
H594 H 0.63337 0.60636 0.36375 0.0
H595 H 0.60203 0.62664 0.39275 0.0
H596 H 0.73485 0.69934 0.28975 0.0
H597 H 0.68107 0.64928 0.32567 0.0
H598 H 0.70936 0.7038 0.3007 0.0
H599 H 0.70712 0.64583 0.31445 0.0
H600 H 0.59514 0.61279 0.31458 0.0
H601 H 0.64069 0.6258 0.27202 0.0
H602 H 0.69921 0.65268 0.41034 0.0
H603 H 0.74257 0.68763 0.36623 0.0
H604 H 0.64011 0.68243 0.28902 0.0
H605 H 0.6218 0.67797 0.35652 0.0
H606 H 0.60818 0.66648 0.27668 0.0
H607 H 0.59019 0.66223 0.34298 0.0
H608 H 0.68665 0.70435 0.40024 0.0
H609 H 0.71943 0.72648 0.34175 0.0
H610 H 0.71463 0.7173 0.42282 0.0
H611 H 0.74681 0.73927 0.36538 0.0
H612 H 0.64745 0.70196 0.43961 0.0
H613 H 0.63937 0.73257 0.38869 0.0
H614 H 0.67632 0.72349 0.25132 0.0
H615 H 0.71258 0.76414 0.29765 0.0
Li616 Li 0.2994 0.97674 0.32891 0.0
Li617 Li 0.30704 0.96891 0.36463 0.0
Li618 Li 0.31773 0.00152 0.35419 0.0
Li619 Li 0.32966 0.98501 0.33543 0.0
C620 C 0.27499 0.97409 0.36449 0.0
N621 N 0.23937 0.96036 0.37715 0.0
C622 C 0.26402 0.95565 0.36899 0.0
C623 C 0.26788 0.98558 0.36673 0.0
C624 C 0.24604 0.94896 0.37529 0.0
C625 C 0.24982 0.97837 0.37305 0.0
C626 C 0.30162 0.94754 0.31881 0.0
C627 C 0.30156 0.93812 0.28107 0.0
N628 N 0.28653 0.92196 0.28555 0.0
C629 C 0.28616 0.93086 0.32304 0.0
C630 C 0.30936 0.95127 0.29764 0.0
C631 C 0.27872 0.91811 0.30598 0.0
C632 C 0.28589 0.97414 0.28505 0.0
N633 N 0.28118 0.96744 0.30601 0.0
C634 C 0.25215 0.94439 0.29329 0.0
C635 C 0.26462 0.9529 0.31034 0.0
C636 C 0.25679 0.95091 0.27158 0.0
C637 C 0.27371 0.9662 0.26753 0.0
H638 H 0.29935 0.98515 0.28165 0.0
H639 H 0.26139 0.94722 0.32674 0.0
C640 C 0.29443 0.95808 0.40767 0.0
N641 N 0.29893 0.95262 0.38871 0.0
C642 C 0.28583 0.94584 0.42491 0.0
C643 C 0.2874 0.92285 0.40313 0.0
C644 C 0.29605 0.93557 0.38632 0.0
C645 C 0.28189 0.92794 0.42242 0.0
H646 H 0.2968 0.97172 0.40894 0.0
H647 H 0.29982 0.93167 0.37104 0.0
C648 C 0.31703 0.012 0.31148 0.0
N649 N 0.30845 0.03548 0.29077 0.0
C650 C 0.32866 0.02414 0.29554 0.0
C651 C 0.30104 0.0118 0.31686 0.0
C652 C 0.32409 0.03591 0.28527 0.0
C653 C 0.29693 0.02376 0.30622 0.0
C654 C 0.34843 0.99436 0.37169 0.0
C655 C 0.36312 0.01187 0.36915 0.0
C656 C 0.35141 0.98021 0.37717 0.0
C657 C 0.38064 0.0149 0.37193 0.0
C658 C 0.36914 0.98381 0.37982 0.0
N659 N 0.38326 0.00092 0.37715 0.0
C660 C 0.31444 0.02393 0.38541 0.0
C661 C 0.33636 0.03959 0.35736 0.0
C662 C 0.31902 0.04019 0.39602 0.0
N663 N 0.32315 0.02396 0.36651 0.0
C664 C 0.34132 0.05617 0.36738 0.0
C665 C 0.33267 0.05646 0.38701 0.0
H666 H 0.3042 0.01124 0.39244 0.0
H667 H 0.34328 0.03913 0.34255 0.0
C668 C 0.35383 0.9736 0.32071 0.0
N669 N 0.35097 0.98782 0.32223 0.0
C670 C 0.36924 0.97566 0.31001 0.0
C671 C 0.37856 0.00704 0.30315 0.0
C672 C 0.36295 0.00435 0.31387 0.0
C673 C 0.38166 0.99252 0.30101 0.0
H674 H 0.34402 0.96063 0.32757 0.0
H675 H 0.36027 0.01539 0.31545 0.0
O676 O 0.29283 0.98106 0.35905 0.0
O677 O 0.30912 0.96019 0.33528 0.0
O678 O 0.32152 0.00057 0.32182 0.0
O679 O 0.33124 0.99098 0.36818 0.0
H680 H 0.26923 0.94652 0.36732 0.0
H681 H 0.27624 -5e-05 0.36375 0.0
H682 H 0.23739 0.9347 0.37867 0.0
H683 H 0.24414 0.9871 0.37478 0.0
H684 H 0.30739 0.94081 0.26461 0.0
H685 H 0.27987 0.92785 0.33925 0.0
H686 H 0.32118 0.96421 0.29401 0.0
H687 H 0.26672 0.90516 0.30898 0.0
H688 H 0.23925 0.93245 0.29686 0.0
H689 H 0.27773 0.97141 0.25086 0.0
H690 H 0.28158 0.95005 0.4396 0.0
H691 H 0.28441 0.90906 0.4008 0.0
H692 H 0.34112 0.02449 0.29119 0.0
H693 H 0.29183 0.00244 0.32899 0.0
H694 H 0.33297 0.04539 0.27292 0.0
H695 H 0.28458 0.02372 0.31022 0.0
H696 H 0.361 0.02293 0.36479 0.0
H697 H 0.34015 0.96657 0.37906 0.0
H698 H 0.39216 0.02835 0.36986 0.0
H699 H 0.37167 0.97298 0.38391 0.0
H700 H 0.3122 0.04009 0.41123 0.0
H701 H 0.35198 0.06857 0.36019 0.0
H702 H 0.37137 0.96425 0.30853 0.0
H703 H 0.38798 0.02019 0.29632 0.0
Li704 Li 0.02424 0.32776 0.32316 0.0
Li705 Li 0.03219 0.3423 0.36051 0.0
Li706 Li 0.00063 0.31939 0.35072 0.0
Li707 Li 0.015 0.34869 0.33416 0.0
C708 C 0.01689 0.29831 0.34965 0.0
N709 N 0.00668 0.26237 0.34384 0.0
C710 C 0.02461 0.29048 0.36267 0.0
C711 C 0.00402 0.28788 0.33363 0.0
C712 C 0.01926 0.27228 0.35949 0.0
C713 C 0.99902 0.26974 0.33096 0.0
C714 C 0.04787 0.36884 0.31831 0.0
C715 C 0.05982 0.40095 0.31456 0.0
N716 N 0.06183 0.39957 0.29238 0.0
C717 C 0.05016 0.36776 0.2955 0.0
C718 C 0.05287 0.38558 0.32797 0.0
C719 C 0.05722 0.38345 0.28267 0.0
C720 C 0.02475 0.31401 0.28031 0.0
N721 N 0.03336 0.3196 0.30015 0.0
C722 C 0.05792 0.31636 0.28712 0.0
C723 C 0.0495 0.32065 0.30394 0.0
C724 C 0.04959 0.311 0.26633 0.0
C725 C 0.03268 0.30953 0.263 0.0
H726 H 0.01198 0.31346 0.2778 0.0
H727 H 0.056 0.32525 0.3199 0.0
C728 C 0.04633 0.33684 0.39893 0.0
N729 N 0.04934 0.3497 0.38366 0.0
C730 C 0.05901 0.34036 0.41551 0.0
C731 C 0.07721 0.37069 0.40106 0.0
C732 C 0.06434 0.36643 0.38441 0.0
C733 C 0.07475 0.35738 0.4165 0.0
H734 H 0.03426 0.32367 0.39785 0.0
H735 H 0.06646 0.37633 0.37188 0.0
C736 C 0.98333 0.32243 0.31373 0.0
N737 N 0.94959 0.31727 0.30341 0.0
C738 C 0.97474 0.32858 0.32813 0.0
C739 C 0.97475 0.31367 0.29407 0.0
C740 C 0.9577 0.32585 0.32263 0.0
C741 C 0.9577 0.31117 0.28915 0.0
C742 C 0.00791 0.35404 0.38023 0.0
C743 C 0.99087 0.34919 0.3888 0.0
C744 C 0.02298 0.37035 0.38673 0.0
C745 C 0.98916 0.36089 0.40352 0.0
C746 C 0.02072 0.38167 0.4015 0.0
N747 N 0.00399 0.37675 0.4095 0.0
C748 C 0.9793 0.30125 0.3866 0.0
C749 C 0.9648 0.28837 0.35238 0.0
C750 C 0.9639 0.28911 0.39837 0.0
N751 N 0.97937 0.30083 0.36408 0.0
C752 C 0.94904 0.276 0.3635 0.0
C753 C 0.94852 0.2765 0.38672 0.0
H754 H 0.99114 0.3113 0.39539 0.0
H755 H 0.96529 0.28821 0.33448 0.0
C756 C 0.00993 0.36639 0.29915 0.0
N757 N 0.01071 0.36675 0.32169 0.0
C758 C 0.00694 0.37875 0.28769 0.0
C759 C 0.00518 0.39148 0.32284 0.0
C760 C 0.00834 0.37891 0.33365 0.0
C761 C 0.00454 0.39144 0.29962 0.0
H762 H 0.01169 0.35646 0.29006 0.0
H763 H 0.00885 0.37895 0.35148 0.0
O764 O 0.02205 0.31613 0.35257 0.0
O765 O 0.04054 0.35354 0.33104 0.0
O766 O 0.0001 0.32503 0.31863 0.0
O767 O 0.00984 0.34261 0.36603 0.0
H768 H 0.03466 0.29839 0.37507 0.0
H769 H 0.99794 0.2937 0.32332 0.0
H770 H 0.02512 0.26604 0.36945 0.0
H771 H 0.98907 0.26151 0.31864 0.0
H772 H 0.06356 0.41395 0.32178 0.0
H773 H 0.04637 0.35494 0.28771 0.0
H774 H 0.05112 0.38667 0.34555 0.0
H775 H 0.05896 0.3828 0.26498 0.0
H776 H 0.07098 0.31761 0.2901 0.0
H777 H 0.026 0.30543 0.24706 0.0
H778 H 0.05674 0.32983 0.4272 0.0
H779 H 0.08924 0.38396 0.40145 0.0
H780 H 0.98114 0.33544 0.34334 0.0
H781 H 0.98119 0.30881 0.28272 0.0
H782 H 0.95092 0.33056 0.33363 0.0
H783 H 0.95091 0.3044 0.27399 0.0
H784 H 0.97907 0.33652 0.38415 0.0
H785 H 0.03624 0.37431 0.38029 0.0
H786 H 0.97604 0.35733 0.41022 0.0
H787 H 0.03226 0.39437 0.40657 0.0
H788 H 0.96384 0.28974 0.41631 0.0
H789 H 0.93733 0.26634 0.35414 0.0
H790 H 0.00647 0.37842 0.26974 0.0
H791 H 0.00331 0.40114 0.33243 0.0
Li792 Li 0.6808 0.00171 0.35311 0.0
Li793 Li 0.65956 0.96833 0.3615 0.0
Li794 Li 0.67468 0.9784 0.32606 0.0
Li795 Li 0.65154 0.98453 0.33511 0.0
C796 C 0.69799 0.97568 0.35155 0.0
N797 N 0.72143 0.96325 0.34169 0.0
C798 C 0.69314 0.95781 0.35629 0.0
C799 C 0.71486 0.98729 0.34207 0.0
C800 C 0.70516 0.95177 0.35113 0.0
C801 C 0.72649 0.98073 0.33712 0.0
C802 C 0.64096 0.98958 0.37315 0.0
C803 C 0.60931 0.97371 0.38281 0.0
N804 N 0.60931 0.9896 0.3822 0.0
C805 C 0.64069 0.00577 0.37273 0.0
C806 C 0.62518 0.97341 0.37829 0.0
C807 C 0.62453 0.00549 0.37731 0.0
C808 C 0.69477 0.03835 0.3639 0.0
N809 N 0.6974 0.02404 0.36625 0.0
C810 C 0.72325 0.04141 0.38909 0.0
C811 C 0.71132 0.02525 0.37841 0.0
C812 C 0.72063 0.05627 0.38731 0.0
C813 C 0.70627 0.05472 0.37448 0.0
H814 H 0.68362 0.03695 0.35398 0.0
H815 H 0.71302 0.01359 0.37998 0.0
C816 C 0.64297 0.93291 0.37913 0.0
N817 N 0.65228 0.95083 0.3842 0.0
C818 C 0.63951 0.92007 0.39553 0.0
C819 C 0.65485 0.94438 0.42209 0.0
C820 C 0.65801 0.95675 0.40518 0.0
C821 C 0.64577 0.92585 0.41716 0.0
H822 H 0.63884 0.92866 0.36221 0.0
H823 H 0.66555 0.97112 0.40858 0.0
C824 C 0.68693 0.01334 0.30661 0.0
N825 N 0.71109 0.03746 0.27603 0.0
C826 C 0.68077 0.0157 0.28613 0.0
C827 C 0.70536 0.02341 0.31162 0.0
C828 C 0.69321 0.0279 0.27087 0.0
C829 C 0.71736 0.0355 0.29593 0.0
C830 C 0.63989 0.95244 0.31249 0.0
C831 C 0.6443 0.96262 0.293 0.0
C832 C 0.62638 0.93423 0.31207 0.0
C833 C 0.63516 0.95441 0.2734 0.0
C834 C 0.61752 0.9265 0.29214 0.0
N835 N 0.62206 0.93666 0.27337 0.0
C836 C 0.67782 0.95182 0.30386 0.0
C837 C 0.69492 0.98015 0.28595 0.0
C838 C 0.68198 0.94325 0.28712 0.0
N839 N 0.68408 0.9699 0.3029 0.0
C840 C 0.69937 0.97209 0.26874 0.0
C841 C 0.69262 0.9534 0.2692 0.0
H842 H 0.66918 0.94395 0.31744 0.0
H843 H 0.69984 0.99445 0.28537 0.0
C844 C 0.63693 0.00376 0.31539 0.0
N845 N 0.63245 0.98715 0.3233 0.0
C846 C 0.62399 0.0064 0.3048 0.0
C847 C 0.60194 0.9749 0.31118 0.0
C848 C 0.61531 0.97287 0.32176 0.0
C849 C 0.60639 0.99178 0.30237 0.0
H850 H 0.65067 0.01486 0.317 0.0
H851 H 0.61213 0.95985 0.32834 0.0
O852 O 0.68619 0.98168 0.35594 0.0
O853 O 0.65642 0.98942 0.3678 0.0
O854 O 0.67486 0.0016 0.32182 0.0
O855 O 0.64872 0.96014 0.33192 0.0
H856 H 0.68016 0.94862 0.36362 0.0
H857 H 0.71892 0.00117 0.33844 0.0
H858 H 0.70152 0.93794 0.35456 0.0
H859 H 0.73953 0.98953 0.32962 0.0
H860 H 0.59697 0.96129 0.3867 0.0
H861 H 0.65275 0.01837 0.36864 0.0
H862 H 0.62514 0.96074 0.37847 0.0
H863 H 0.62407 0.01789 0.37689 0.0
H864 H 0.73424 0.04226 0.39891 0.0
H865 H 0.70396 0.066 0.37282 0.0
H866 H 0.63259 0.90583 0.39127 0.0
H867 H 0.65993 0.94919 0.43863 0.0
H868 H 0.66653 0.00819 0.28205 0.0
H869 H 0.71039 0.0219 0.32738 0.0
H870 H 0.68863 0.0298 0.25493 0.0
H871 H 0.73166 0.04332 0.29957 0.0
H872 H 0.65471 0.97668 0.29295 0.0
H873 H 0.62274 0.92615 0.327 0.0
H874 H 0.63848 0.96214 0.2582 0.0
H875 H 0.60703 0.91242 0.29158 0.0
H876 H 0.67658 0.92877 0.28784 0.0
H877 H 0.70765 0.98022 0.25504 0.0
H878 H 0.62774 0.01958 0.29813 0.0
H879 H 0.5884 0.96341 0.30952 0.0
Li880 Li 0.03259 0.69221 0.36201 0.0
Li881 Li -0.0001 0.68071 0.35414 0.0
Li882 Li 0.01691 0.66832 0.3345 0.0
Li883 Li 0.023 0.69834 0.3273 0.0
C884 C 0.01637 0.65616 0.37707 0.0
N885 N 0.02606 0.63347 0.39762 0.0
C886 C 0.00422 0.64255 0.39126 0.0
C887 C 0.03344 0.65823 0.37329 0.0
C888 C 0.00938 0.63122 0.40151 0.0
C889 C 0.03808 0.64663 0.38385 0.0
C890 C 0.02486 0.72357 0.35328 0.0
C891 C 0.01836 0.74572 0.33801 0.0
N892 N 0.03546 0.759 0.34298 0.0
C893 C 0.04231 0.73746 0.35843 0.0
C894 C 0.01272 0.72774 0.34317 0.0
C895 C 0.04743 0.75528 0.35304 0.0
C896 C 0.06754 0.71377 0.37961 0.0
N897 N 0.05012 0.70152 0.38487 0.0
C898 C 0.05716 0.70489 0.42353 0.0
C899 C 0.04478 0.69678 0.40626 0.0
C900 C 0.07502 0.71815 0.4186 0.0
C901 C 0.0803 0.72239 0.39637 0.0
H902 H 0.07131 0.71734 0.36244 0.0
H903 H 0.03079 0.68708 0.40991 0.0
C904 C 0.96397 0.65685 0.36625 0.0
N905 N 0.97748 0.67439 0.3673 0.0
C906 C 0.94743 0.65147 0.37663 0.0
C907 C 0.95904 0.68238 0.38873 0.0
C908 C 0.97537 0.68715 0.37817 0.0
C909 C 0.94494 0.66435 0.38807 0.0
H910 H 0.96617 0.64704 0.35755 0.0
H911 H 0.98644 0.70097 0.37883 0.0
C912 C 0.04954 0.69052 0.3129 0.0
N913 N 0.06675 0.69096 0.27386 0.0
C914 C 0.03989 0.68515 0.293 0.0
C915 C 0.06795 0.69611 0.31295 0.0
C916 C 0.04882 0.68548 0.27344 0.0
C917 C 0.07641 0.69622 0.29304 0.0
C918 C 0.98803 0.67438 0.30696 0.0
C919 C 0.98649 0.66569 0.28672 0.0
C920 C 0.97685 0.68158 0.31134 0.0
C921 C 0.97403 0.66468 0.27102 0.0
C922 C 0.96455 0.68028 0.29521 0.0
N923 N 0.96342 0.67195 0.27555 0.0
C924 C 0.99675 0.63389 0.31653 0.0
C925 C 0.02827 0.6445 0.31706 0.0
C926 C 0.99343 0.61821 0.30538 0.0
N927 N 0.01395 0.64673 0.32178 0.0
C928 C 0.02558 0.62908 0.30576 0.0
C929 C 0.00801 0.61588 0.2996 0.0
H930 H 0.98565 0.63605 0.32058 0.0
H931 H 0.04179 0.65485 0.32164 0.0
C932 C 0.04924 0.72885 0.30563 0.0
N933 N 0.03126 0.71653 0.3046 0.0
C934 C 0.05751 0.74179 0.28905 0.0
C935 C 0.02857 0.72953 0.27075 0.0
C936 C 0.02081 0.71681 0.28778 0.0
C937 C 0.04717 0.74198 0.27124 0.0
H938 H 0.05726 0.7283 0.31911 0.0
H939 H 0.00659 0.70702 0.28718 0.0
O940 O 0.01143 0.66725 0.3668 0.0
O941 O 0.01978 0.70599 0.35784 0.0
O942 O 0.04118 0.6906 0.33225 0.0
O943 O 0.0 0.67529 0.32261 0.0
H944 H 0.99093 0.64076 0.39428 0.0
H945 H 0.043 0.66866 0.36232 0.0
H946 H 0.00011 0.62062 0.41254 0.0
H947 H 0.05124 0.64807 0.38108 0.0
H948 H 0.00915 0.74911 0.33 0.0
H949 H 0.05186 0.73451 0.36632 0.0
H950 H 0.99916 0.71719 0.33915 0.0
H951 H 0.06093 0.76615 0.35679 0.0
H952 H 0.05273 0.70138 0.44056 0.0
H953 H 0.094 0.73261 0.3921 0.0
H954 H 0.93675 0.63745 0.37594 0.0
H955 H 0.95745 0.69257 0.39751 0.0
H956 H 0.02569 0.6809 0.29264 0.0
H957 H 0.07562 0.70033 0.32822 0.0
H958 H 0.04152 0.68141 0.25792 0.0
H959 H 0.09065 0.70052 0.29283 0.0
H960 H 0.99479 0.65975 0.28317 0.0
H961 H 0.97764 0.68812 0.32697 0.0
H962 H 0.97276 0.65807 0.25526 0.0
H963 H 0.95588 0.68587 0.29835 0.0
H964 H 0.97973 0.6082 0.30086 0.0
H965 H 0.03707 0.62757 0.30154 0.0
H966 H 0.07192 0.75126 0.28979 0.0
H967 H 0.02029 0.72942 0.25713 0.0
Li968 Li 0.31346 0.34323 0.36444 0.0
Li969 Li 0.32218 0.32077 0.35358 0.0
Li970 Li 0.33638 0.35096 0.33571 0.0
Li971 Li 0.30527 0.32841 0.32635 0.0
C972 C 0.34623 0.3529 0.38623 0.0
N973 N 0.3639 0.36904 0.42526 0.0
C974 C 0.34777 0.34249 0.40298 0.0
C975 C 0.35377 0.37152 0.38925 0.0
C976 C 0.35674 0.35091 0.42261 0.0
C977 C 0.36261 0.37942 0.40913 0.0
C978 C 0.28284 0.30323 0.3656 0.0
C979 C 0.25516 0.27454 0.36249 0.0
N980 N 0.25255 0.27471 0.38473 0.0
C981 C 0.27984 0.30314 0.38842 0.0
C982 C 0.27036 0.28886 0.35249 0.0
C983 C 0.26446 0.28859 0.39778 0.0
C984 C 0.29042 0.35406 0.38222 0.0
N985 N 0.30389 0.35084 0.38799 0.0
C986 C 0.29924 0.35414 0.42646 0.0
C987 C 0.30856 0.35101 0.4096 0.0
C988 C 0.28482 0.35676 0.42094 0.0
C989 C 0.28062 0.35707 0.39855 0.0
H990 H 0.28681 0.35355 0.36495 0.0
H991 H 0.31884 0.34782 0.41394 0.0
C992 C 0.34272 0.30395 0.35894 0.0
N993 N 0.32689 0.30288 0.36499 0.0
C994 C 0.34795 0.29244 0.36851 0.0
C995 C 0.3203 0.27874 0.39001 0.0
C996 C 0.31563 0.29051 0.38006 0.0
C997 C 0.33672 0.27985 0.38442 0.0
H998 H 0.35149 0.31408 0.34709 0.0
H999 H 0.30329 0.29009 0.38487 0.0
C1000 C 0.31992 0.37054 0.3262 0.0
N1001 N 0.33057 0.40411 0.30829 0.0
C1002 C 0.31606 0.37204 0.30406 0.0
C1003 C 0.32892 0.38605 0.33934 0.0
C1004 C 0.32164 0.38915 0.29528 0.0
C1005 C 0.33428 0.40292 0.32994 0.0
C1006 C 0.32429 0.31242 0.30848 0.0
C1007 C 0.33481 0.31481 0.28964 0.0
C1008 C 0.31043 0.29511 0.31418 0.0
C1009 C 0.33119 0.29979 0.27669 0.0
C1010 C 0.30725 0.28043 0.30082 0.0
N1011 N 0.3176 0.28306 0.2825 0.0
C1012 C 0.37399 0.37671 0.33402 0.0
C1013 C 0.35746 0.37372 0.30119 0.0
C1014 C 0.39013 0.38917 0.32365 0.0
N1015 N 0.3581 0.36934 0.3227 0.0
C1016 C 0.37321 0.38629 0.2903 0.0
C1017 C 0.38975 0.394 0.30155 0.0
H1018 H 0.3742 0.37256 0.35086 0.0
H1019 H 0.34478 0.36711 0.29233 0.0
C1020 C 0.27107 0.3182 0.30948 0.0
N1021 N 0.28744 0.3204 0.30381 0.0
C1022 C 0.25802 0.31433 0.29323 0.0
C1023 C 0.27881 0.31471 0.26566 0.0
C1024 C 0.29151 0.31869 0.28243 0.0
C1025 C 0.26199 0.31281 0.27103 0.0
H1026 H 0.26837 0.31999 0.32656 0.0
H1027 H 0.3048 0.32102 0.27826 0.0
O1028 O 0.33752 0.34488 0.36692 0.0
O1029 O 0.29765 0.31751 0.35605 0.0
O1030 O 0.31463 0.35393 0.33506 0.0
O1031 O 0.32766 0.32703 0.32122 0.0
H1032 H 0.34206 0.32806 0.40089 0.0
H1033 H 0.35283 0.37978 0.37637 0.0
H1034 H 0.358 0.34302 0.43574 0.0
H1035 H 0.36848 0.39382 0.41172 0.0
H1036 H 0.24542 0.26332 0.35255 0.0
H1037 H 0.28939 0.31406 0.39884 0.0
H1038 H 0.27234 0.28876 0.33477 0.0
H1039 H 0.26201 0.28833 0.41542 0.0
H1040 H 0.30266 0.3537 0.44363 0.0
H1041 H 0.26948 0.35898 0.39384 0.0
H1042 H 0.36075 0.29359 0.36397 0.0
H1043 H 0.31144 0.26917 0.40235 0.0
H1044 H 0.30896 0.36012 0.29374 0.0
H1045 H 0.33169 0.38506 0.35661 0.0
H1046 H 0.31886 0.39053 0.27813 0.0
H1047 H 0.34134 0.41506 0.33988 0.0
H1048 H 0.3456 0.32815 0.28504 0.0
H1049 H 0.3023 0.29302 0.3288 0.0
H1050 H 0.33917 0.30144 0.26201 0.0
H1051 H 0.29657 0.26695 0.30505 0.0
H1052 H 0.40278 0.39479 0.33262 0.0
H1053 H 0.3726 0.3896 0.27311 0.0
H1054 H 0.24517 0.31304 0.29781 0.0
H1055 H 0.28226 0.31374 0.24861 0.0
Li1056 Li 0.31835 0.00106 0.66906 0.0
Li1057 Li 0.34839 0.0174 0.68561 0.0
Li1058 Li 0.32581 0.02592 0.69429 0.0
Li1059 Li 0.34017 0.03189 0.65778 0.0
C1060 C 0.31554 0.98554 0.70793 0.0
N1061 N 0.29625 0.94964 0.72044 0.0
C1062 C 0.32352 0.97476 0.70668 0.0
C1063 C 0.29782 0.97811 0.71574 0.0
C1064 C 0.31353 0.95663 0.71304 0.0
C1065 C 0.28827 0.95991 0.72192 0.0
C1066 C 0.34726 0.0119 0.63284 0.0
C1067 C 0.37018 0.02551 0.6045 0.0
N1068 N 0.35717 0.01773 0.58866 0.0
C1069 C 0.33412 0.00403 0.61629 0.0
C1070 C 0.36544 0.02271 0.62693 0.0
C1071 C 0.33941 0.00713 0.59404 0.0
C1072 C 0.28395 0.97452 0.65196 0.0
N1073 N 0.30066 0.97798 0.6582 0.0
C1074 C 0.29445 0.94904 0.64503 0.0
C1075 C 0.30606 0.96567 0.65495 0.0
C1076 C 0.27726 0.94526 0.63822 0.0
C1077 C 0.2719 0.95806 0.64192 0.0
H1078 H 0.28018 0.98472 0.65409 0.0
H1079 H 0.31962 0.96901 0.65948 0.0
C1080 C 0.3674 0.015 0.72151 0.0
N1081 N 0.3667 0.01431 0.69899 0.0
C1082 C 0.37989 0.01208 0.73281 0.0
C1083 C 0.39066 0.00767 0.69749 0.0
C1084 C 0.37796 0.01073 0.68684 0.0
C1085 C 0.39159 0.00828 0.72072 0.0
H1086 H 0.35807 0.01762 0.73069 0.0
H1087 H 0.37688 0.00998 0.66898 0.0
C1088 C 0.30057 0.02512 0.6685 0.0
N1089 N 0.27396 0.03348 0.67785 0.0
C1090 C 0.30168 0.04076 0.65973 0.0
C1091 C 0.2859 0.01372 0.68197 0.0
C1092 C 0.28809 0.04475 0.66466 0.0
C1093 C 0.2726 0.01819 0.68653 0.0
C1094 C 0.36709 0.05103 0.69856 0.0
C1095 C 0.36645 0.05562 0.72068 0.0
C1096 C 0.38365 0.05503 0.68916 0.0
C1097 C 0.38238 0.06402 0.73309 0.0
C1098 C 0.39927 0.06337 0.70214 0.0
N1099 N 0.39832 0.06766 0.72365 0.0
C1100 C 0.31339 0.02839 0.7373 0.0
C1101 C 0.31917 0.05215 0.71242 0.0
C1102 C 0.31006 0.0373 0.75455 0.0
N1103 N 0.31799 0.03602 0.71681 0.0
C1104 C 0.31552 0.06127 0.72896 0.0
C1105 C 0.31129 0.05402 0.75042 0.0
H1106 H 0.31303 0.01577 0.74044 0.0
H1107 H 0.32359 0.05825 0.69625 0.0
C1108 C 0.33489 0.04538 0.6181 0.0
N1109 N 0.34769 0.04815 0.63339 0.0
C1110 C 0.33876 0.05795 0.60126 0.0
C1111 C 0.36934 0.0753 0.61517 0.0
C1112 C 0.36476 0.06257 0.63206 0.0
C1113 C 0.35605 0.0733 0.59999 0.0
H1114 H 0.32147 0.03371 0.6195 0.0
H1115 H 0.37466 0.06444 0.64443 0.0
O1116 O 0.32496 0.00323 0.70138 0.0
O1117 O 0.3423 0.00954 0.6547 0.0
O1118 O 0.31389 0.02112 0.66419 0.0
O1119 O 0.35157 0.04243 0.68628 0.0
H1120 H 0.33718 0.98023 0.70055 0.0
H1121 H 0.2915 0.98629 0.71702 0.0
H1122 H 0.31949 0.9481 0.71201 0.0
H1123 H 0.27452 0.95396 0.7279 0.0
H1124 H 0.38418 0.03394 0.59968 0.0
H1125 H 0.31996 0.99581 0.62054 0.0
H1126 H 0.37576 0.02912 0.63952 0.0
H1127 H 0.32938 0.00119 0.58106 0.0
H1128 H 0.29897 0.93944 0.64213 0.0
H1129 H 0.25874 0.95552 0.63657 0.0
H1130 H 0.38028 0.01254 0.75076 0.0
H1131 H 0.3995 0.00465 0.6878 0.0
H1132 H 0.31303 0.04989 0.64952 0.0
H1133 H 0.28488 0.00163 0.68898 0.0
H1134 H 0.28882 0.05685 0.65807 0.0
H1135 H 0.26122 0.00952 0.69701 0.0
H1136 H 0.35378 0.05264 0.72828 0.0
H1137 H 0.38437 0.05134 0.67217 0.0
H1138 H 0.38207 0.06759 0.75024 0.0
H1139 H 0.41214 0.06635 0.69515 0.0
H1140 H 0.30704 0.03149 0.77103 0.0
H1141 H 0.31679 0.07425 0.72535 0.0
H1142 H 0.32823 0.05601 0.58974 0.0
H1143 H 0.38283 0.087 0.61454 0.0
Li1144 Li 0.99952 0.31993 0.67082 0.0
Li1145 Li 0.98422 0.33265 0.68903 0.0
Li1146 Li 0.97589 0.30147 0.69709 0.0
Li1147 Li 0.96897 0.3106 0.65965 0.0
C1148 C 0.012 0.32399 0.71609 0.0
N1149 N 0.03872 0.32474 0.74251 0.0
C1150 C 0.02566 0.34038 0.72474 0.0
C1151 C 0.0118 0.30795 0.72114 0.0
C1152 C 0.03909 0.34049 0.73797 0.0
C1153 C 0.02546 0.30862 0.73446 0.0
C1154 C 0.00428 0.3521 0.65267 0.0
C1155 C 0.01817 0.37872 0.62962 0.0
N1156 N 0.03238 0.3866 0.64388 0.0
C1157 C 0.01902 0.36047 0.66709 0.0
C1158 C 0.00384 0.36128 0.63377 0.0
C1159 C 0.03309 0.37791 0.66237 0.0
C1160 C 0.02295 0.32767 0.63521 0.0
N1161 N 0.02202 0.32488 0.65751 0.0
C1162 C 0.05201 0.32948 0.65766 0.0
C1163 C 0.03616 0.32569 0.66883 0.0
C1164 C 0.05318 0.33229 0.63469 0.0
C1165 C 0.03845 0.33134 0.62339 0.0
H1166 H 0.01155 0.32695 0.62658 0.0
H1167 H 0.03527 0.3234 0.68643 0.0
C1168 C 0.98955 0.35448 0.72577 0.0
N1169 N 0.9866 0.35348 0.70354 0.0
C1170 C 0.99179 0.36941 0.73779 0.0
C1171 C 0.98787 0.38202 0.70379 0.0
C1172 C 0.98556 0.36674 0.69242 0.0
C1173 C 0.9911 0.38341 0.72671 0.0
H1174 H 0.99017 0.34364 0.73414 0.0
H1175 H 0.98301 0.36548 0.67477 0.0
C1176 C 0.98711 0.2876 0.65342 0.0
N1177 N 0.0044 0.27459 0.62681 0.0
C1178 C 0.98546 0.28756 0.63036 0.0
C1179 C 0.99734 0.2808 0.66296 0.0
C1180 C 0.99434 0.28096 0.61719 0.0
C1181 C 0.00605 0.27436 0.64922 0.0
C1182 C 0.94994 0.31889 0.69679 0.0
C1183 C 0.94651 0.31925 0.7194 0.0
C1184 C 0.94436 0.32744 0.68165 0.0
C1185 C 0.93764 0.32833 0.72654 0.0
C1186 C 0.93551 0.33635 0.68945 0.0
N1187 N 0.93239 0.33663 0.71155 0.0
C1188 C 0.96572 0.28769 0.74023 0.0
C1189 C 0.95832 0.26547 0.71223 0.0
C1190 C 0.95659 0.27428 0.75615 0.0
N1191 N 0.96612 0.28304 0.71874 0.0
C1192 C 0.9491 0.25163 0.72763 0.0
C1193 C 0.9479 0.25606 0.74974 0.0
H1194 H 0.97202 0.30181 0.74481 0.0
H1195 H 0.95877 0.26225 0.69497 0.0
C1196 C 0.9552 0.31003 0.61641 0.0
N1197 N 0.95181 0.30172 0.63649 0.0
C1198 C 0.94294 0.30189 0.59898 0.0
C1199 C 0.9239 0.27711 0.62347 0.0
C1200 C 0.93647 0.28571 0.64038 0.0
C1201 C 0.92727 0.28509 0.60244 0.0
H1202 H 0.96764 0.32266 0.61378 0.0
H1203 H 0.9343 0.2794 0.65649 0.0
O1204 O 0.99861 0.32367 0.7034 0.0
O1205 O 0.99033 0.33498 0.65685 0.0
O1206 O 0.97898 0.29454 0.66655 0.0
O1207 O 0.95927 0.31076 0.68953 0.0
H1208 H 0.02587 0.3529 0.7213 0.0
H1209 H 0.0013 0.29514 0.71478 0.0
H1210 H 0.04978 0.35309 0.74469 0.0
H1211 H 0.02551 0.29632 0.7384 0.0
H1212 H 0.018 0.38598 0.61505 0.0
H1213 H 0.01964 0.35358 0.68173 0.0
H1214 H 0.99252 0.355 0.62243 0.0
H1215 H 0.04458 0.38452 0.67339 0.0
H1216 H 0.0632 0.33012 0.66679 0.0
H1217 H 0.03898 0.33342 0.60562 0.0
H1218 H 0.99421 0.37013 0.75549 0.0
H1219 H 0.98724 0.39265 0.69485 0.0
H1220 H 0.97762 0.29279 0.62268 0.0
H1221 H 0.99866 0.28061 0.68076 0.0
H1222 H 0.9933 0.28098 0.59931 0.0
H1223 H 0.01415 0.26921 0.65637 0.0
H1224 H 0.95084 0.31279 0.73132 0.0
H1225 H 0.94706 0.3274 0.66411 0.0
H1226 H 0.93501 0.32883 0.744 0.0
H1227 H 0.93121 0.34313 0.67796 0.0
H1228 H 0.9558 0.27805 0.77311 0.0
H1229 H 0.94243 0.23765 0.72225 0.0
H1230 H 0.94587 0.3083 0.58285 0.0
H1231 H 0.91193 0.26412 0.62656 0.0
Li1232 Li 0.68341 0.68176 0.66681 0.0
Li1233 Li 0.66902 0.65208 0.68455 0.0
Li1234 Li 0.70141 0.67516 0.69358 0.0
Li1235 Li 0.69289 0.65949 0.65822 0.0
C1236 C 0.67473 0.686 0.71301 0.0
N1237 N 0.66599 0.70547 0.7422 0.0
C1238 C 0.65678 0.68182 0.71544 0.0
C1239 C 0.68819 0.69992 0.72581 0.0
C1240 C 0.65265 0.69186 0.73016 0.0
C1241 C 0.68352 0.70965 0.74036 0.0
C1242 C 0.65236 0.64564 0.64519 0.0
C1243 C 0.6284 0.61491 0.63923 0.0
N1244 N 0.61765 0.62115 0.63144 0.0
C1245 C 0.64112 0.65175 0.63697 0.0
C1246 C 0.64601 0.62707 0.64616 0.0
C1247 C 0.62361 0.63916 0.63014 0.0
C1248 C 0.68971 0.71077 0.63858 0.0
N1249 N 0.67841 0.69923 0.65433 0.0
C1250 C 0.65795 0.71028 0.64933 0.0
C1251 C 0.66275 0.69877 0.65981 0.0
C1252 C 0.66947 0.72239 0.6332 0.0
C1253 C 0.6856 0.72272 0.62796 0.0
H1254 H 0.70172 0.71042 0.63384 0.0
H1255 H 0.65363 0.68897 0.67165 0.0
C1256 C 0.64729 0.62141 0.71088 0.0
N1257 N 0.64699 0.63405 0.69756 0.0
C1258 C 0.63163 0.60882 0.72198 0.0
C1259 C 0.61567 0.62249 0.70538 0.0
C1260 C 0.63158 0.6347 0.69448 0.0
C1261 C 0.6157 0.6095 0.71945 0.0
H1262 H 0.65978 0.62133 0.7132 0.0
H1263 H 0.63171 0.64491 0.68386 0.0
C1264 C 0.72176 0.70407 0.66478 0.0
N1265 N 0.7479 0.74026 0.66759 0.0
C1266 C 0.73795 0.71076 0.65293 0.0
C1267 C 0.71882 0.71588 0.67782 0.0
C1268 C 0.75102 0.72907 0.65464 0.0
C1269 C 0.73219 0.7341 0.67908 0.0
C1270 C 0.69727 0.63781 0.68418 0.0
C1271 C 0.7159 0.64476 0.68603 0.0
C1272 C 0.68608 0.61985 0.67762 0.0
C1273 C 0.72306 0.63366 0.68099 0.0
C1274 C 0.69376 0.60919 0.67272 0.0
N1275 N 0.71194 0.61626 0.67447 0.0
C1276 C 0.71245 0.67674 0.73741 0.0
C1277 C 0.73682 0.69306 0.71243 0.0
C1278 C 0.72448 0.6798 0.75471 0.0
N1279 N 0.71878 0.6832 0.71675 0.0
C1280 C 0.74932 0.69648 0.72925 0.0
C1281 C 0.74312 0.6895 0.75051 0.0
H1282 H 0.69803 0.66864 0.74021 0.0
H1283 H 0.74153 0.69753 0.69576 0.0
C1284 C 0.69148 0.63663 0.62211 0.0
N1285 N 0.70218 0.65079 0.63562 0.0
C1286 C 0.69925 0.631 0.6058 0.0
C1287 C 0.72879 0.65473 0.61757 0.0
C1288 C 0.72049 0.6597 0.63378 0.0
C1289 C 0.71812 0.64029 0.6033 0.0
H1290 H 0.67697 0.62972 0.62395 0.0
H1291 H 0.72864 0.67061 0.64509 0.0
O1292 O 0.67902 0.67606 0.69897 0.0
O1293 O 0.66946 0.65778 0.65223 0.0
O1294 O 0.70887 0.68612 0.66341 0.0
O1295 O 0.6901 0.64866 0.68833 0.0
H1296 H 0.64614 0.67103 0.70596 0.0
H1297 H 0.70212 0.70321 0.72459 0.0
H1298 H 0.63882 0.68882 0.73203 0.0
H1299 H 0.69382 0.72049 0.75025 0.0
H1300 H 0.62326 0.6005 0.64011 0.0
H1301 H 0.64586 0.66606 0.63583 0.0
H1302 H 0.65447 0.6221 0.65259 0.0
H1303 H 0.61475 0.64371 0.62381 0.0
H1304 H 0.64527 0.70956 0.65347 0.0
H1305 H 0.69465 0.7318 0.61538 0.0
H1306 H 0.63201 0.59892 0.73278 0.0
H1307 H 0.60355 0.6233 0.70313 0.0
H1308 H 0.74044 0.70194 0.64251 0.0
H1309 H 0.7062 0.71111 0.68647 0.0
H1310 H 0.76363 0.73438 0.64563 0.0
H1311 H 0.73003 0.74335 0.68911 0.0
H1312 H 0.72478 0.65865 0.69095 0.0
H1313 H 0.67163 0.61422 0.67624 0.0
H1314 H 0.73747 0.6389 0.68216 0.0
H1315 H 0.68527 0.5953 0.6675 0.0
H1316 H 0.71934 0.67411 0.77094 0.0
H1317 H 0.76366 0.70382 0.72552 0.0
H1318 H 0.6907 0.6197 0.59511 0.0
H1319 H 0.7434 0.66204 0.61618 0.0
Li1320 Li 0.34635 0.33301 0.68488 0.0
Li1321 Li 0.32421 0.30098 0.69447 0.0
Li1322 Li 0.33846 0.30796 0.65766 0.0
Li1323 Li 0.31668 0.31607 0.66716 0.0
C1324 C 0.36143 0.30529 0.68368 0.0
N1325 N 0.38303 0.29081 0.67331 0.0
C1326 C 0.35586 0.28738 0.6892 0.0
C1327 C 0.37798 0.31585 0.67292 0.0
C1328 C 0.36699 0.28032 0.68384 0.0
C1329 C 0.38869 0.30827 0.66779 0.0
C1330 C 0.31642 0.32133 0.71998 0.0
C1331 C 0.29258 0.309 0.7473 0.0
N1332 N 0.3051 0.31701 0.76363 0.0
C1333 C 0.32905 0.32955 0.73701 0.0
C1334 C 0.29803 0.31107 0.72512 0.0
C1335 C 0.32306 0.32717 0.75898 0.0
C1336 C 0.35965 0.36837 0.7002 0.0
N1337 N 0.3641 0.35536 0.69694 0.0
C1338 C 0.39259 0.37341 0.71478 0.0
C1339 C 0.38018 0.35754 0.70392 0.0
C1340 C 0.38824 0.38695 0.7185 0.0
C1341 C 0.37166 0.38446 0.71096 0.0
H1342 H 0.34654 0.366 0.69504 0.0
H1343 H 0.38315 0.34677 0.70161 0.0
C1344 C 0.30249 0.26739 0.71654 0.0
N1345 N 0.31707 0.28433 0.71836 0.0
C1346 C 0.29884 0.25458 0.73306 0.0
C1347 C 0.32504 0.27702 0.75319 0.0
C1348 C 0.32822 0.28936 0.73626 0.0
C1349 C 0.31039 0.25936 0.75141 0.0
H1350 H 0.29413 0.2636 0.70189 0.0
H1351 H 0.34 0.30276 0.73694 0.0
C1352 C 0.33721 0.33985 0.6358 0.0
N1353 N 0.32933 0.35618 0.60159 0.0
C1354 C 0.33277 0.33179 0.61482 0.0
C1355 C 0.33772 0.35624 0.63936 0.0
C1356 C 0.32879 0.34024 0.59775 0.0
C1357 C 0.33369 0.36428 0.62186 0.0
C1358 C 0.29646 0.28109 0.65613 0.0
C1359 C 0.29484 0.27441 0.63456 0.0
C1360 C 0.28092 0.27732 0.66805 0.0
C1361 C 0.27767 0.26424 0.62517 0.0
C1362 C 0.26399 0.26713 0.65806 0.0
N1363 N 0.26273 0.26086 0.637 0.0
C1364 C 0.34103 0.28103 0.63484 0.0
C1365 C 0.35985 0.31037 0.61997 0.0
C1366 C 0.34637 0.27336 0.61821 0.0
N1367 N 0.34761 0.29917 0.63522 0.0
C1368 C 0.36552 0.30324 0.60293 0.0
C1369 C 0.35854 0.28452 0.60193 0.0
H1370 H 0.3314 0.27252 0.6473 0.0
H1371 H 0.36495 0.32477 0.62085 0.0
C1372 C 0.29266 0.32971 0.66702 0.0
N1373 N 0.29807 0.31972 0.65512 0.0
C1374 C 0.2803 0.33406 0.65799 0.0
C1375 C 0.27905 0.31746 0.62487 0.0
C1376 C 0.29154 0.3136 0.63441 0.0
C1377 C 0.27348 0.32792 0.63665 0.0
H1378 H 0.29831 0.33469 0.68328 0.0
H1379 H 0.29641 0.3062 0.62497 0.0
O1380 O 0.35043 0.31226 0.68805 0.0
O1381 O 0.32202 0.3232 0.69839 0.0
O1382 O 0.34114 0.33178 0.65273 0.0
O1383 O 0.31316 0.2911 0.66559 0.0
H1384 H 0.343 0.27893 0.69727 0.0
H1385 H 0.38234 0.32964 0.66818 0.0
H1386 H 0.36283 0.26646 0.68794 0.0
H1387 H 0.40147 0.31623 0.6593 0.0
H1388 H 0.27839 0.30102 0.75153 0.0
H1389 H 0.34335 0.33747 0.73336 0.0
H1390 H 0.28807 0.30478 0.71213 0.0
H1391 H 0.33269 0.33336 0.77233 0.0
H1392 H 0.40526 0.37498 0.72064 0.0
H1393 H 0.36793 0.39466 0.71384 0.0
H1394 H 0.28756 0.24094 0.73119 0.0
H1395 H 0.33429 0.28097 0.76706 0.0
H1396 H 0.33209 0.31899 0.61183 0.0
H1397 H 0.34113 0.36266 0.65548 0.0
H1398 H 0.3252 0.3341 0.58147 0.0
H1399 H 0.33396 0.37694 0.6244 0.0
H1400 H 0.30671 0.27725 0.62504 0.0
H1401 H 0.28193 0.28232 0.68477 0.0
H1402 H 0.27622 0.25909 0.60844 0.0
H1403 H 0.25186 0.26422 0.66704 0.0
H1404 H 0.34082 0.25886 0.6178 0.0
H1405 H 0.37499 0.31213 0.59053 0.0
H1406 H 0.27631 0.34232 0.66734 0.0
H1407 H 0.27416 0.31276 0.60823 0.0
Li1408 Li 0.6674 0.01556 0.68688 0.0
Li1409 Li 0.69787 0.02155 0.69543 0.0
Li1410 Li 0.69114 0.02919 0.65797 0.0
Li1411 Li 0.68043 0.99802 0.66897 0.0
C1412 C 0.68816 0.05402 0.68967 0.0
N1413 N 0.68418 0.08401 0.6939 0.0
C1414 C 0.69476 0.06506 0.70845 0.0
C1415 C 0.67979 0.0584 0.6729 0.0
C1416 C 0.69254 0.08011 0.71033 0.0
C1417 C 0.67785 0.07357 0.67537 0.0
C1418 C 0.67637 0.9946 0.72191 0.0
C1419 C 0.68884 0.98259 0.74816 0.0
N1420 N 0.68083 0.98663 0.76499 0.0
C1421 C 0.66813 0.99847 0.73945 0.0
C1422 C 0.68667 0.98644 0.72626 0.0
C1423 C 0.67059 0.99438 0.76112 0.0
C1424 C 0.63011 0.99856 0.6938 0.0
N1425 N 0.64606 0.01348 0.69933 0.0
C1426 C 0.63115 0.02272 0.72533 0.0
C1427 C 0.64686 0.02553 0.71471 0.0
C1428 C 0.61463 0.00729 0.72018 0.0
C1429 C 0.61408 0.99518 0.70409 0.0
H1430 H 0.62997 0.98907 0.68178 0.0
H1431 H 0.65973 0.03693 0.71937 0.0
C1432 C 0.73202 0.03222 0.7149 0.0
N1433 N 0.71538 0.03019 0.71841 0.0
C1434 C 0.74556 0.04071 0.73088 0.0
C1435 C 0.7244 0.04433 0.75395 0.0
C1436 C 0.71131 0.03584 0.73754 0.0
C1437 C 0.7418 0.04712 0.75043 0.0
H1438 H 0.73498 0.0279 0.69938 0.0
H1439 H 0.69809 0.03435 0.73968 0.0
C1440 C 0.65603 0.00857 0.63826 0.0
N1441 N 0.63489 0.00898 0.60391 0.0
C1442 C 0.65452 0.99927 0.61854 0.0
C1443 C 0.64644 0.01773 0.64066 0.0
C1444 C 0.64388 -0.00025 0.60132 0.0
C1445 C 0.63592 0.01787 0.62308 0.0
C1446 C 0.71431 0.01013 0.65541 0.0
C1447 C 0.71943 0.01405 0.63318 0.0
C1448 C 0.71776 0.99797 0.6668 0.0
C1449 C 0.72763 0.00547 0.62257 0.0
C1450 C 0.72595 0.98964 0.6556 0.0
N1451 N 0.73066 0.99352 0.63389 0.0
C1452 C 0.71395 0.06343 0.6403 0.0
C1453 C 0.69769 0.04119 0.61285 0.0
C1454 C 0.72349 0.07633 0.62402 0.0
N1455 N 0.70136 0.04626 0.6345 0.0
C1456 C 0.70705 0.05364 0.59599 0.0
C1457 C 0.72023 0.07136 0.60162 0.0
H1458 H 0.717 0.06697 0.65761 0.0
H1459 H 0.68814 0.02733 0.60865 0.0
C1460 C 0.66547 0.96037 0.67192 0.0
N1461 N 0.67423 0.97474 0.65805 0.0
C1462 C 0.65976 0.9429 0.66426 0.0
C1463 C 0.67232 0.95536 0.62825 0.0
C1464 C 0.6777 0.97258 0.63657 0.0
C1465 C 0.66317 0.94035 0.64219 0.0
H1466 H 0.66265 0.96244 0.68881 0.0
H1467 H 0.68444 0.9842 0.6258 0.0
O1468 O 0.69024 0.03922 0.68762 0.0
O1469 O 0.67435 0.99875 0.7006 0.0
O1470 O 0.6662 0.008 0.65541 0.0
O1471 O 0.70608 0.01823 0.66601 0.0
H1472 H 0.70147 0.06203 0.72149 0.0
H1473 H 0.67513 0.05038 0.65797 0.0
H1474 H 0.69749 0.08871 0.72484 0.0
H1475 H 0.67139 0.0771 0.66251 0.0
H1476 H 0.69686 0.97638 0.75177 0.0
H1477 H 0.66004 0.00469 0.73641 0.0
H1478 H 0.69294 0.98314 0.71288 0.0
H1479 H 0.66438 0.99741 0.77486 0.0
H1480 H 0.63192 0.03216 0.73789 0.0
H1481 H 0.60147 0.98309 0.69995 0.0
H1482 H 0.75897 0.04287 0.7277 0.0
H1483 H 0.72122 0.04933 0.76882 0.0
H1484 H 0.6616 0.99188 0.61646 0.0
H1485 H 0.64693 0.02451 0.656 0.0
H1486 H 0.64274 0.99275 0.58591 0.0
H1487 H 0.6285 0.02498 0.62471 0.0
H1488 H 0.71703 0.02354 0.62416 0.0
H1489 H 0.71407 0.99494 0.68405 0.0
H1490 H 0.73157 0.0083 0.60533 0.0
H1491 H 0.72857 0.9801 0.66416 0.0
H1492 H 0.73376 0.08987 0.62882 0.0
H1493 H 0.70448 0.04938 0.57881 0.0
H1494 H 0.65262 0.93149 0.67533 0.0
H1495 H 0.67503 0.95373 0.6111 0.0
Li1496 Li 0.97306 0.67367 0.6932 0.0
Li1497 Li 0.98077 0.65036 0.68494 0.0
Li1498 Li 0.99626 0.68007 0.66444 0.0
Li1499 Li 0.96498 0.65713 0.65693 0.0
C1500 C 0.00786 0.68591 0.71323 0.0
N1501 N 0.03057 0.70749 0.7467 0.0
C1502 C 0.00849 0.67827 0.73345 0.0
C1503 C 0.01912 0.70448 0.7099 0.0
C1504 C 0.01995 0.68942 0.75021 0.0
C1505 C 0.03042 0.71518 0.72705 0.0
C1506 C 0.94574 0.63173 0.69795 0.0
C1507 C 0.93121 0.59921 0.69973 0.0
N1508 N 0.92491 0.59959 0.72035 0.0
C1509 C 0.93898 0.63178 0.71907 0.0
C1510 C 0.94168 0.6153 0.6881 0.0
C1511 C 0.92852 0.61539 0.73015 0.0
C1512 C 0.9536 0.6895 0.71033 0.0
N1513 N 0.96442 0.68276 0.71607 0.0
C1514 C 0.95861 0.68437 0.75456 0.0
C1515 C 0.96721 0.68032 0.73767 0.0
C1516 C 0.94704 0.69091 0.74902 0.0
C1517 C 0.94485 0.69386 0.72668 0.0
H1518 H 0.95115 0.69077 0.69303 0.0
H1519 H 0.97524 0.67425 0.74177 0.0
C1520 C 0.99265 0.62488 0.68731 0.0
N1521 N 0.98433 0.63243 0.69866 0.0
C1522 C 0.99601 0.61227 0.69767 0.0
C1523 C 0.98196 0.61532 0.73102 0.0
C1524 C 0.97906 0.62798 0.72012 0.0
C1525 C 0.99063 0.60747 0.71976 0.0
H1526 H 0.99688 0.62884 0.67034 0.0
H1527 H 0.97279 0.63445 0.72888 0.0
C1528 C 0.97895 0.70086 0.65941 0.0
N1529 N 0.98715 0.73616 0.65295 0.0
C1530 C 0.97335 0.70564 0.6401 0.0
C1531 C 0.98846 0.71399 0.67557 0.0
C1532 C 0.97771 0.72357 0.63709 0.0
C1533 C 0.99253 0.73177 0.67198 0.0
C1534 C 0.9843 0.64739 0.63236 0.0
C1535 C 0.99211 0.65827 0.61371 0.0
C1536 C 0.97361 0.62866 0.62981 0.0
C1537 C 0.98879 0.65025 0.59274 0.0
C1538 C 0.9706 0.62115 0.60856 0.0
N1539 N 0.97817 0.63201 0.59062 0.0
C1540 C 0.03386 0.69834 0.65801 0.0
C1541 C 0.01839 0.70827 0.63448 0.0
C1542 C 0.05032 0.71023 0.64786 0.0
N1543 N 0.01836 0.69762 0.65122 0.0
C1544 C 0.03454 0.7204 0.62397 0.0
C1545 C 0.05065 0.72134 0.63062 0.0
H1546 H 0.03336 0.68949 0.67112 0.0
H1547 H 0.00585 0.70701 0.62886 0.0
C1548 C 0.93043 0.634 0.6379 0.0
N1549 N 0.94736 0.64811 0.63404 0.0
C1550 C 0.917 0.62881 0.6218 0.0
C1551 C 0.9388 0.65248 0.59793 0.0
C1552 C 0.95179 0.65722 0.61447 0.0
C1553 C 0.92114 0.63835 0.60175 0.0
H1554 H 0.92718 0.62722 0.65374 0.0
H1555 H 0.96527 0.66857 0.61202 0.0
O1556 O 0.99689 0.67511 0.69652 0.0
O1557 O 0.95621 0.64767 0.68698 0.0
O1558 O 0.97484 0.68335 0.66255 0.0
O1559 O 0.98714 0.65503 0.65299 0.0
H1560 H 0.00013 0.66391 0.73625 0.0
H1561 H 0.01932 0.71061 0.69418 0.0
H1562 H 0.02043 0.68369 0.76599 0.0
H1563 H 0.03913 0.72958 0.7247 0.0
H1564 H 0.92809 0.58642 0.69236 0.0
H1565 H 0.94177 0.64431 0.72685 0.0
H1566 H 0.94666 0.61501 0.67172 0.0
H1567 H 0.92327 0.61525 0.74654 0.0
H1568 H 0.9603 0.68169 0.77167 0.0
H1569 H 0.9358 0.69868 0.72195 0.0
H1570 H 0.00283 0.60644 0.68867 0.0
H1571 H 0.9778 0.61193 0.74815 0.0
H1572 H 0.9658 0.69563 0.62752 0.0
H1573 H 0.99237 0.71043 0.6909 0.0
H1574 H 0.97356 0.72747 0.62217 0.0
H1575 H -0.0001 0.74205 0.68436 0.0
H1576 H 0.00047 0.67277 0.61537 0.0
H1577 H 0.96771 0.62001 0.64408 0.0
H1578 H 0.99464 0.65852 0.57815 0.0
H1579 H 0.96227 0.60668 0.60634 0.0
H1580 H 0.0626 0.71065 0.6532 0.0
H1581 H 0.03444 0.72872 0.61051 0.0
H1582 H 0.90339 0.61795 0.62522 0.0
H1583 H 0.9423 0.66017 0.58266 0.0
C1584 C 0.21789 0.32857 0.12356 0.0
C1585 C 0.21545 0.31906 0.1037 0.0
C1586 C 0.20297 0.32516 0.13656 0.0
C1587 C 0.18544 0.31191 0.13009 0.0
C1588 C 0.19799 0.306 0.09702 0.0
C1589 C 0.18307 0.30248 0.11011 0.0
C1590 C 0.16942 0.3089 0.14294 0.0
C1591 C 0.20262 0.29537 0.18857 0.0
C1592 C 0.20821 0.30593 0.20793 0.0
C1593 C 0.18937 0.29536 0.17497 0.0
C1594 C 0.18182 0.30619 0.18038 0.0
C1595 C 0.20038 0.31638 0.2136 0.0
C1596 C 0.18727 0.31646 0.19999 0.0
C1597 C 0.16797 0.30677 0.16625 0.0
C1598 C 0.09265 0.29364 0.18462 0.0
C1599 C 0.09658 0.30421 0.20386 0.0
C1600 C 0.1067 0.29423 0.17202 0.0
C1601 C 0.12482 0.30557 0.17842 0.0
C1602 C 0.1146 0.31527 0.21044 0.0
C1603 C 0.1286 0.31588 0.19789 0.0
C1604 C 0.13999 0.30662 0.16536 0.0
C1605 C 0.11401 0.32944 0.12159 0.0
C1606 C 0.10678 0.31973 0.10189 0.0
C1607 C 0.12521 0.32586 0.13481 0.0
C1608 C 0.12911 0.31231 0.12868 0.0
C1609 C 0.11084 0.30638 0.09553 0.0
C1610 C 0.12203 0.30277 0.10879 0.0
C1611 C 0.14154 0.30893 0.14213 0.0
H1612 H 0.2313 0.33883 0.12877 0.0
H1613 H 0.20512 0.33312 0.15143 0.0
H1614 H 0.19594 0.29864 0.08164 0.0
H1615 H 0.16966 0.29243 0.10462 0.0
H1616 H 0.20851 0.28719 0.18402 0.0
H1617 H 0.18504 0.28692 0.16028 0.0
H1618 H 0.20455 0.32459 0.2285 0.0
H1619 H 0.18157 0.32481 0.20463 0.0
H1620 H 0.07878 0.28498 0.17941 0.0
H1621 H 0.10342 0.28581 0.15737 0.0
H1622 H 0.1178 0.32349 0.22529 0.0
H1623 H 0.14243 0.32462 0.20323 0.0
H1624 H 0.11108 0.33987 0.12661 0.0
H1625 H 0.13099 0.33383 0.14968 0.0
H1626 H 0.10537 0.29882 0.08032 0.0
H1627 H 0.1251 0.29248 0.10359 0.0
N1628 N 0.15609 0.30979 0.13182 0.0
N1629 N 0.15332 0.30576 0.17648 0.0
C1630 C 0.67341 0.89039 0.11919 0.0
C1631 C 0.68317 0.89694 0.09939 0.0
C1632 C 0.67661 0.87926 0.13305 0.0
C1633 C 0.68987 0.8748 0.1275 0.0
C1634 C 0.69625 0.89237 0.09362 0.0
C1635 C 0.69953 0.8813 0.10756 0.0
C1636 C 0.69267 0.86219 0.1414 0.0
C1637 C 0.70818 0.91072 0.18535 0.0
C1638 C 0.69716 0.90672 0.20419 0.0
C1639 C 0.70711 0.8967 0.1722 0.0
C1640 C 0.69494 0.87856 0.17775 0.0
C1641 C 0.68506 0.88867 0.20973 0.0
C1642 C 0.68403 0.8747 0.19669 0.0
C1643 C 0.69408 0.86344 0.16478 0.0
C1644 C 0.71243 0.80927 0.1955 0.0
C1645 C 0.69759 0.79776 0.20892 0.0
C1646 C 0.7112 0.82124 0.18081 0.0
C1647 C 0.69532 0.8222 0.17989 0.0
C1648 C 0.68159 0.7985 0.2075 0.0
C1649 C 0.6806 0.81089 0.19344 0.0
C1650 C 0.69433 0.83574 0.16591 0.0
C1651 C 0.67532 0.78637 0.12309 0.0
C1652 C 0.68517 0.78914 0.10344 0.0
C1653 C 0.67813 0.80106 0.1361 0.0
C1654 C 0.69116 0.81877 0.12997 0.0
C1655 C 0.69812 0.80678 0.09715 0.0
C1656 C 0.70107 0.8215 0.11032 0.0
C1657 C 0.69313 0.83453 0.14259 0.0
H1658 H 0.66316 0.89372 0.12374 0.0
H1659 H 0.66847 0.87388 0.14788 0.0
H1660 H 0.70385 0.89732 0.07833 0.0
H1661 H 0.70961 0.87781 0.10277 0.0
H1662 H 0.71766 0.92463 0.18098 0.0
H1663 H 0.71596 0.90001 0.15796 0.0
H1664 H 0.67651 0.88541 0.22427 0.0
H1665 H 0.67466 0.86083 0.20136 0.0
H1666 H 0.72495 0.80903 0.19651 0.0
H1667 H 0.72275 0.83008 0.17062 0.0
H1668 H 0.67001 0.78978 0.21773 0.0
H1669 H 0.66831 0.81159 0.19302 0.0
H1670 H 0.6651 0.77284 0.128 0.0
H1671 H 0.66959 0.79856 0.15045 0.0
H1672 H 0.70572 0.80914 0.08191 0.0
H1673 H 0.71094 0.83504 0.10503 0.0
N1674 N 0.69242 0.84786 0.13123 0.0
N1675 N 0.69474 0.85009 0.17611 0.0
C1676 C 0.1078 0.7853 0.12162 0.0
C1677 C 0.10185 0.78839 0.10135 0.0
C1678 C 0.1189 0.79981 0.13545 0.0
C1679 C 0.1239 0.81758 0.12937 0.0
C1680 C 0.10685 0.80607 0.09514 0.0
C1681 C 0.11784 0.82058 0.10905 0.0
C1682 C 0.13687 0.83321 0.14289 0.0
C1683 C 0.08855 0.8009 0.18753 0.0
C1684 C 0.09276 0.79417 0.2064 0.0
C1685 C 0.10242 0.81388 0.17421 0.0
C1686 C 0.12063 0.82018 0.17962 0.0
C1687 C 0.11088 0.80056 0.21188 0.0
C1688 C 0.1247 0.81353 0.19868 0.0
C1689 C 0.13565 0.83413 0.16619 0.0
C1690 C 0.19842 0.90856 0.18787 0.0
C1691 C 0.20409 0.90408 0.20745 0.0
C1692 C 0.18527 0.89491 0.1745 0.0
C1693 C 0.17785 0.87662 0.18041 0.0
C1694 C 0.19648 0.8859 0.21356 0.0
C1695 C 0.18341 0.87229 0.20021 0.0
C1696 C 0.16392 0.86184 0.16663 0.0
C1697 C 0.21398 0.88804 0.12429 0.0
C1698 C 0.21211 0.89547 0.10448 0.0
C1699 C 0.19879 0.87693 0.13715 0.0
C1700 C 0.18154 0.87333 0.13052 0.0
C1701 C 0.19492 0.89177 0.09768 0.0
C1702 C 0.17971 0.88068 0.11056 0.0
C1703 C 0.16525 0.86081 0.14338 0.0
H1704 H 0.10418 0.77171 0.12648 0.0
H1705 H 0.12396 0.79715 0.15056 0.0
H1706 H 0.10241 0.80863 0.07945 0.0
H1707 H 0.12177 0.83419 0.10385 0.0
H1708 H 0.07458 0.79612 0.18319 0.0
H1709 H 0.09896 0.8191 0.15986 0.0
H1710 H 0.11431 0.79551 0.22643 0.0
H1711 H 0.13862 0.81827 0.20324 0.0
H1712 H 0.20418 0.92257 0.18299 0.0
H1713 H 0.18086 0.89864 0.15963 0.0
H1714 H 0.20075 0.88225 0.22863 0.0
H1715 H 0.17781 0.85831 0.20521 0.0
H1716 H 0.22718 0.89069 0.12965 0.0
H1717 H 0.20049 0.87093 0.15207 0.0
H1718 H 0.19329 0.89738 0.08236 0.0
H1719 H 0.16651 0.87785 0.10497 0.0
N1720 N 0.15159 0.84664 0.13242 0.0
N1721 N 0.14924 0.84839 0.17709 0.0
C1722 C 0.3168 0.106 0.83559 0.0
C1723 C 0.3047 0.09891 0.81774 0.0
C1724 C 0.31655 0.11887 0.84966 0.0
C1725 C 0.30361 0.12426 0.84683 0.0
C1726 C 0.29177 0.10423 0.81482 0.0
C1727 C 0.29118 0.11671 0.8293 0.0
C1728 C 0.30418 0.13915 0.86023 0.0
C1729 C 0.29888 0.09766 0.90983 0.0
C1730 C 0.31485 0.10351 0.92202 0.0
C1731 C 0.29646 0.11001 0.89733 0.0
C1732 C 0.30994 0.12835 0.89698 0.0
C1733 C 0.3281 0.1219 0.9221 0.0
C1734 C 0.32557 0.13427 0.90985 0.0
C1735 C 0.308 0.14152 0.88322 0.0
C1736 C 0.30099 0.20638 0.90603 0.0
C1737 C 0.31673 0.21624 0.91873 0.0
C1738 C 0.29821 0.19116 0.8941 0.0
C1739 C 0.31112 0.18561 0.89478 0.0
C1740 C 0.3295 0.21057 0.91963 0.0
C1741 C 0.32664 0.19527 0.90788 0.0
C1742 C 0.30849 0.16961 0.88223 0.0
C1743 C 0.31879 0.21164 0.8305 0.0
C1744 C 0.30428 0.20671 0.81596 0.0
C1745 C 0.31866 0.19892 0.84507 0.0
C1746 C 0.30396 0.18111 0.84537 0.0
C1747 C 0.28948 0.18902 0.81638 0.0
C1748 C 0.28939 0.17626 0.83089 0.0
C1749 C 0.30442 0.16719 0.85938 0.0
H1750 H 0.32701 0.10221 0.83796 0.0
H1751 H 0.32698 0.12506 0.86215 0.0
H1752 H 0.28241 0.09901 0.80103 0.0
H1753 H 0.28124 0.1208 0.82648 0.0
H1754 H 0.28849 0.08351 0.90972 0.0
H1755 H 0.28416 0.10525 0.88779 0.0
H1756 H 0.34047 0.12663 0.93146 0.0
H1757 H 0.33607 0.14838 0.9099 0.0
H1758 H 0.29095 0.21053 0.90531 0.0
H1759 H 0.28596 0.18368 0.88445 0.0
H1760 H 0.34169 0.21801 0.92942 0.0
H1761 H 0.33671 0.19115 0.90873 0.0
H1762 H 0.33038 0.22521 0.83018 0.0
H1763 H 0.33028 0.20286 0.85564 0.0
H1764 H 0.27826 0.18501 0.80509 0.0
H1765 H 0.27804 0.16254 0.83067 0.0
N1766 N 0.30238 0.15205 0.84931 0.0
N1767 N 0.31017 0.15672 0.89324 0.0
C1768 C 0.90494 0.20198 0.90296 0.0
C1769 C 0.89824 0.21017 0.91735 0.0
C1770 C 0.893 0.18653 0.89097 0.0
C1771 C 0.87422 0.17932 0.89283 0.0
C1772 C 0.87952 0.20264 0.91982 0.0
C1773 C 0.8676 0.18733 0.90766 0.0
C1774 C 0.86125 0.16327 0.87986 0.0
C1775 C 0.89267 0.20594 0.82864 0.0
C1776 C 0.90225 0.20149 0.81344 0.0
C1777 C 0.88032 0.19288 0.84321 0.0
C1778 C 0.87757 0.17524 0.843 0.0
C1779 C 0.89961 0.18392 0.81321 0.0
C1780 C 0.88727 0.17086 0.82784 0.0
C1781 C 0.86338 0.16095 0.85703 0.0
C1782 C 0.79113 0.10221 0.82889 0.0
C1783 C 0.7959 0.0923 0.81463 0.0
C1784 C 0.80391 0.11495 0.84339 0.0
C1785 C 0.82161 0.11787 0.84392 0.0
C1786 C 0.81344 0.09492 0.81538 0.0
C1787 C 0.82627 0.10775 0.82983 0.0
C1788 C 0.83569 0.13269 0.85743 0.0
C1789 C 0.79583 0.09182 0.9053 0.0
C1790 C 0.78667 0.09853 0.91794 0.0
C1791 C 0.81113 0.10366 0.89299 0.0
C1792 C 0.81739 0.12233 0.89316 0.0
C1793 C 0.79309 0.11717 0.91841 0.0
C1794 C 0.80841 0.12899 0.90622 0.0
C1795 C 0.83341 0.13514 0.88013 0.0
H1796 H 0.91938 0.20758 0.90103 0.0
H1797 H 0.89847 0.18027 0.88023 0.0
H1798 H 0.87416 0.20877 0.93094 0.0
H1799 H 0.85319 0.18194 0.90957 0.0
H1800 H 0.89442 0.21939 0.8288 0.0
H1801 H 0.87257 0.19646 0.85419 0.0
H1802 H 0.90679 0.18026 0.80139 0.0
H1803 H 0.88515 0.15726 0.82716 0.0
H1804 H 0.77769 0.10045 0.82829 0.0
H1805 H 0.80013 0.12296 0.85361 0.0
H1806 H 0.81733 0.08747 0.8043 0.0
H1807 H 0.8399 0.10998 0.82977 0.0
H1808 H 0.79107 0.07746 0.90492 0.0
H1809 H 0.81809 0.09826 0.88344 0.0
H1810 H 0.78619 0.12253 0.92816 0.0
H1811 H 0.81307 0.14333 0.90669 0.0
N1812 N 0.84627 0.15032 0.89042 0.0
N1813 N 0.85061 0.14566 0.84679 0.0
C1814 C 0.79295 0.69485 0.90728 0.0
C1815 C 0.78456 0.6794 0.92073 0.0
C1816 C 0.80854 0.69885 0.8953 0.0
C1817 C 0.81573 0.68728 0.89633 0.0
C1818 C 0.79204 0.66816 0.92236 0.0
C1819 C 0.80754 0.6721 0.91029 0.0
C1820 C 0.83189 0.6909 0.8833 0.0
C1821 C 0.78935 0.68042 0.83196 0.0
C1822 C 0.7941 0.69476 0.81717 0.0
C1823 C 0.8022 0.68083 0.84656 0.0
C1824 C 0.81992 0.69572 0.84679 0.0
C1825 C 0.81169 0.70971 0.8175 0.0
C1826 C 0.82453 0.71014 0.83215 0.0
C1827 C 0.83412 0.69554 0.86056 0.0
C1828 C 0.89422 0.68383 0.83249 0.0
C1829 C 0.90244 0.69749 0.8165 0.0
C1830 C 0.88164 0.68381 0.8473 0.0
C1831 C 0.87739 0.69769 0.84669 0.0
C1832 C 0.89843 0.71149 0.81597 0.0
C1833 C 0.88595 0.71156 0.83094 0.0
C1834 C 0.86258 0.69668 0.86053 0.0
C1835 C 0.90484 0.70062 0.90754 0.0
C1836 C 0.89908 0.68477 0.91991 0.0
C1837 C 0.89229 0.70325 0.89581 0.0
C1838 C 0.87384 0.69004 0.89628 0.0
C1839 C 0.88062 0.67181 0.92089 0.0
C1840 C 0.86807 0.67449 0.90928 0.0
C1841 C 0.86042 0.69219 0.8833 0.0
H1842 H 0.78739 0.70372 0.90601 0.0
H1843 H 0.81491 0.71095 0.88521 0.0
H1844 H 0.78574 0.65623 0.93277 0.0
H1845 H 0.81294 0.66307 0.91153 0.0
H1846 H 0.77587 0.66869 0.8317 0.0
H1847 H 0.79844 0.66927 0.85716 0.0
H1848 H 0.81557 0.7208 0.80604 0.0
H1849 H 0.83817 0.72163 0.83183 0.0
H1850 H 0.89702 0.67281 0.8329 0.0
H1851 H 0.87475 0.67254 0.85862 0.0
H1852 H 0.90455 0.72203 0.80357 0.0
H1853 H 0.88269 0.72224 0.82992 0.0
H1854 H 0.91905 0.71079 0.90677 0.0
H1855 H 0.89699 0.71553 0.88627 0.0
H1856 H 0.87597 0.65954 0.93043 0.0
H1857 H 0.85389 0.6642 0.90999 0.0
N1858 N 0.84512 0.68936 0.89373 0.0
N1859 N 0.84941 0.69833 0.85014 0.0
C1860 C 0.76158 0.63371 0.44816 0.0
C1861 C 0.76895 0.65011 0.4366 0.0
C1862 C 0.77289 0.62912 0.4596 0.0
C1863 C 0.7917 0.64097 0.45973 0.0
C1864 C 0.78771 0.66184 0.43644 0.0
C1865 C 0.79902 0.65725 0.44784 0.0
C1866 C 0.80394 0.63644 0.47179 0.0
C1867 C 0.77304 0.64541 0.52632 0.0
C1868 C 0.76089 0.62947 0.53749 0.0
C1869 C 0.78569 0.64551 0.51157 0.0
C1870 C 0.78644 0.6297 0.50786 0.0
C1871 C 0.76129 0.61351 0.53333 0.0
C1872 C 0.77419 0.6137 0.51884 0.0
C1873 C 0.80095 0.63032 0.49395 0.0
C1874 C 0.87266 0.64358 0.52254 0.0
C1875 C 0.86772 0.62875 0.53651 0.0
C1876 C 0.86007 0.64361 0.50789 0.0
C1877 C 0.84239 0.62872 0.50688 0.0
C1878 C 0.8502 0.61371 0.53529 0.0
C1879 C 0.83757 0.61375 0.52065 0.0
C1880 C 0.82848 0.62966 0.49339 0.0
C1881 C 0.86851 0.62925 0.44595 0.0
C1882 C 0.87843 0.64551 0.43425 0.0
C1883 C 0.85302 0.62578 0.45775 0.0
C1884 C 0.84732 0.63859 0.45808 0.0
C1885 C 0.87252 0.6581 0.4341 0.0
C1886 C 0.857 0.65461 0.44582 0.0
C1887 C 0.83131 0.63546 0.47107 0.0
H1888 H 0.7471 0.62448 0.44827 0.0
H1889 H 0.76695 0.61627 0.46816 0.0
H1890 H 0.79357 0.67452 0.42751 0.0
H1891 H 0.81349 0.66654 0.4476 0.0
H1892 H 0.77294 0.65784 0.52936 0.0
H1893 H 0.79523 0.65807 0.50354 0.0
H1894 H 0.75198 0.60109 0.54179 0.0
H1895 H 0.77469 0.60142 0.51629 0.0
H1896 H 0.88607 0.65537 0.52352 0.0
H1897 H 0.86398 0.65557 0.498 0.0
H1898 H 0.84618 0.60225 0.54618 0.0
H1899 H 0.82394 0.60226 0.52037 0.0
H1900 H 0.87287 0.61935 0.44607 0.0
H1901 H 0.84552 0.61314 0.46665 0.0
H1902 H 0.88002 0.67069 0.42508 0.0
H1903 H 0.85279 0.66463 0.44573 0.0
N1904 N 0.819 0.63877 0.4612 0.0
N1905 N 0.81332 0.62715 0.5039 0.0
C1906 C 0.34436 0.22616 0.4538 0.0
C1907 C 0.35441 0.23336 0.43433 0.0
C1908 C 0.34712 0.2143 0.46682 0.0
C1909 C 0.36023 0.20975 0.46077 0.0
C1910 C 0.36733 0.2287 0.42803 0.0
C1911 C 0.37017 0.21689 0.44114 0.0
C1912 C 0.36261 0.19652 0.47393 0.0
C1913 C 0.37865 0.24426 0.51921 0.0
C1914 C 0.3671 0.24009 0.53756 0.0
C1915 C 0.3777 0.23037 0.50592 0.0
C1916 C 0.36516 0.2122 0.51086 0.0
C1917 C 0.35476 0.22199 0.54261 0.0
C1918 C 0.35387 0.20815 0.52946 0.0
C1919 C 0.36397 0.19721 0.49732 0.0
C1920 C 0.37554 0.13561 0.52068 0.0
C1921 C 0.36273 0.12761 0.53776 0.0
C1922 C 0.37542 0.1488 0.50712 0.0
C1923 C 0.36266 0.1543 0.51072 0.0
C1924 C 0.34985 0.13297 0.5411 0.0
C1925 C 0.34995 0.14635 0.52785 0.0
C1926 C 0.36282 0.1688 0.49733 0.0
C1927 C 0.3402 0.11994 0.45357 0.0
C1928 C 0.3514 0.12179 0.43558 0.0
C1929 C 0.34365 0.13502 0.46622 0.0
C1930 C 0.3584 0.15213 0.46108 0.0
C1931 C 0.36608 0.13886 0.43029 0.0
C1932 C 0.36947 0.154 0.44288 0.0
C1933 C 0.36165 0.16817 0.474 0.0
H1934 H 0.33421 0.22952 0.45872 0.0
H1935 H 0.33877 0.20845 0.4814 0.0
H1936 H 0.37511 0.23412 0.41295 0.0
H1937 H 0.38012 0.21334 0.43598 0.0
H1938 H 0.38832 0.2582 0.51522 0.0
H1939 H 0.38681 0.23379 0.49193 0.0
H1940 H 0.34582 0.2186 0.55679 0.0
H1941 H 0.3442 0.19425 0.53365 0.0
H1942 H 0.38567 0.13175 0.51802 0.0
H1943 H 0.38548 0.15496 0.49415 0.0
H1944 H 0.33993 0.12699 0.55426 0.0
H1945 H 0.34004 0.15045 0.53091 0.0
H1946 H 0.32876 0.10684 0.45774 0.0
H1947 H 0.33464 0.13335 0.47981 0.0
H1948 H 0.37478 0.14045 0.41637 0.0
H1949 H 0.38077 0.16713 0.43852 0.0
N1950 N 0.36165 0.18208 0.46314 0.0
N1951 N 0.36389 0.18325 0.5081 0.0
C1952 C 0.78838 0.12746 0.43315 0.0
C1953 C 0.76989 0.12162 0.43475 0.0
C1954 C 0.80096 0.14239 0.44535 0.0
C1955 C 0.79519 0.1515 0.4596 0.0
C1956 C 0.76413 0.13114 0.44832 0.0
C1957 C 0.77672 0.14599 0.4607 0.0
C1958 C 0.80861 0.16649 0.47348 0.0
C1959 C 0.77103 0.14283 0.54054 0.0
C1960 C 0.7668 0.12487 0.53747 0.0
C1961 C 0.78369 0.15648 0.5268 0.0
C1962 C 0.79227 0.15236 0.50975 0.0
C1963 C 0.77512 0.12064 0.52026 0.0
C1964 C 0.78793 0.13431 0.50669 0.0
C1965 C 0.80688 0.16718 0.49672 0.0
C1966 C 0.86862 0.24216 0.51921 0.0
C1967 C 0.87443 0.23786 0.53881 0.0
C1968 C 0.85554 0.22838 0.5059 0.0
C1969 C 0.8483 0.21014 0.51192 0.0
C1970 C 0.86694 0.21972 0.54507 0.0
C1971 C 0.85391 0.20598 0.5318 0.0
C1972 C 0.83479 0.19523 0.4979 0.0
C1973 C 0.88599 0.22253 0.45752 0.0
C1974 C 0.88428 0.2296 0.43731 0.0
C1975 C 0.87063 0.21109 0.46991 0.0
C1976 C 0.85337 0.20682 0.46244 0.0
C1977 C 0.86708 0.22519 0.42966 0.0
C1978 C 0.85172 0.21383 0.44211 0.0
C1979 C 0.83692 0.19404 0.47481 0.0
H1980 H 0.79302 0.12028 0.4227 0.0
H1981 H 0.81515 0.14649 0.44419 0.0
H1982 H 0.7499 0.12685 0.4496 0.0
H1983 H 0.77203 0.15304 0.47131 0.0
H1984 H 0.76481 0.14632 0.55387 0.0
H1985 H 0.78699 0.17032 0.52967 0.0
H1986 H 0.77214 0.10686 0.51786 0.0
H1987 H 0.79483 0.1308 0.49429 0.0
H1988 H 0.87426 0.25614 0.51423 0.0
H1989 H 0.85112 0.23196 0.49091 0.0
H1990 H 0.87129 0.21621 0.56017 0.0
H1991 H 0.84845 0.19204 0.53686 0.0
H1992 H 0.8992 0.22573 0.46353 0.0
H1993 H 0.87223 0.20536 0.48515 0.0
H1994 H 0.86557 0.2305 0.41402 0.0
H1995 H 0.83853 0.2105 0.43588 0.0
N1996 N 0.82364 0.17983 0.46348 0.0
N1997 N 0.81994 0.18164 0.50796 0.0
C1998 C 0.97212 0.53956 0.16283 0.0
C1999 C 0.98319 0.54647 0.14403 0.0
C2000 C 0.97361 0.52723 0.17657 0.0
C2001 C 0.98624 0.52177 0.17168 0.0
C2002 C 0.99581 0.54109 0.13916 0.0
C2003 C 0.99725 0.52873 0.15281 0.0
C2004 C 0.9873 0.50794 0.18519 0.0
C2005 C 0.0074 0.55647 0.22937 0.0
C2006 C 0.99604 0.55389 0.2475 0.0
C2007 C 0.00477 0.54174 0.21654 0.0
C2008 C 0.99071 0.52422 0.22164 0.0
C2009 C 0.98206 0.5364 0.25271 0.0
C2010 C 0.97953 0.52162 0.23998 0.0
C2011 C 0.98828 0.50853 0.20857 0.0
C2012 C 0.00433 0.44948 0.22956 0.0
C2013 C 0.99365 0.44222 0.24859 0.0
C2014 C 0.00248 0.46188 0.21649 0.0
C2015 C 0.98964 0.46691 0.22201 0.0
C2016 C 0.98104 0.44744 0.25439 0.0
C2017 C 0.97908 0.45975 0.2412 0.0
C2018 C 0.98798 0.4805 0.2087 0.0
C2019 C 0.9713 0.43348 0.16133 0.0
C2020 C 0.9843 0.43749 0.14469 0.0
C2021 C 0.97239 0.44725 0.17498 0.0
C2022 C 0.98635 0.46519 0.1719 0.0
C2023 C 0.99836 0.4554 0.14188 0.0
C2024 C 0.99925 0.46917 0.1552 0.0
C2025 C 0.98719 0.48005 0.1853 0.0
H2026 H 0.96225 0.54355 0.16668 0.0
H2027 H 0.96464 0.52169 0.19071 0.0
H2028 H 0.0044 0.5463 0.12464 0.0
H2029 H 0.00696 0.52459 0.14863 0.0
H2030 H 0.01831 0.56988 0.22523 0.0
H2031 H 0.01385 0.544 0.2028 0.0
H2032 H 0.97321 0.53421 0.26669 0.0
H2033 H 0.96874 0.50819 0.24431 0.0
H2034 H 0.01426 0.44571 0.22502 0.0
H2035 H 0.01133 0.46775 0.20232 0.0
H2036 H 0.97279 0.44202 0.26914 0.0
H2037 H 0.9693 0.46365 0.24596 0.0
H2038 H 0.96028 0.41976 0.16361 0.0
H2039 H 0.96218 0.44397 0.18761 0.0
H2040 H 0.00847 0.45873 0.12908 0.0
H2041 H 0.01005 0.48295 0.15254 0.0
N2042 N 0.98694 0.49379 0.17446 0.0
N2043 N 0.98843 0.49471 0.21946 0.0
C2044 C 0.46778 0.42768 0.1693 0.0
C2045 C 0.46075 0.43079 0.14989 0.0
C2046 C 0.48057 0.4423 0.18188 0.0
C2047 C 0.48637 0.46013 0.17517 0.0
C2048 C 0.46666 0.44855 0.1431 0.0
C2049 C 0.47946 0.46311 0.15556 0.0
C2050 C 0.50013 0.47587 0.18781 0.0
C2051 C 0.45091 0.44835 0.23086 0.0
C2052 C 0.45366 0.44253 0.25142 0.0
C2053 C 0.46567 0.45998 0.2177 0.0
C2054 C 0.4834 0.46558 0.22466 0.0
C2055 C 0.47133 0.44849 0.25875 0.0
C2056 C 0.48611 0.45996 0.24546 0.0
C2057 C 0.49918 0.47806 0.21094 0.0
C2058 C 0.55887 0.55499 0.22422 0.0
C2059 C 0.56961 0.55365 0.24113 0.0
C2060 C 0.54492 0.53962 0.21413 0.0
C2061 C 0.54063 0.52236 0.22128 0.0
C2062 C 0.56307 0.53619 0.25032 0.0
C2063 C 0.5491 0.52077 0.2402 0.0
C2064 C 0.5271 0.50604 0.20932 0.0
C2065 C 0.57464 0.53719 0.16384 0.0
C2066 C 0.57013 0.54326 0.14463 0.0
C2067 C 0.56099 0.52418 0.17734 0.0
C2068 C 0.54269 0.51732 0.17192 0.0
C2069 C 0.55192 0.53604 0.13887 0.0
C2070 C 0.5383 0.52312 0.15238 0.0
C2071 C 0.52793 0.50391 0.18618 0.0
H2072 H 0.46337 0.414 0.17465 0.0
H2073 H 0.48602 0.43969 0.19669 0.0
H2074 H 0.46138 0.45112 0.1281 0.0
H2075 H 0.48384 0.47674 0.15 0.0
H2076 H 0.43734 0.44401 0.22512 0.0
H2077 H 0.46318 0.4647 0.2022 0.0
H2078 H 0.47363 0.44418 0.27468 0.0
H2079 H 0.49965 0.46434 0.25133 0.0
H2080 H 0.56083 0.56782 0.21864 0.0
H2081 H 0.53752 0.54122 0.20062 0.0
H2082 H 0.56834 0.53406 0.2655 0.0
H2083 H 0.54514 0.50757 0.24697 0.0
H2084 H 0.58868 0.54257 0.16837 0.0
H2085 H 0.56473 0.51954 0.192 0.0
H2086 H 0.54826 0.54056 0.12403 0.0
H2087 H 0.52431 0.5179 0.14776 0.0
N2088 N 0.51438 0.48896 0.17635 0.0
N2089 N 0.51283 0.49299 0.22085 0.0
C2090 C 0.45372 0.01856 0.2385 0.0
C2091 C 0.44451 0.00339 0.25223 0.0
C2092 C 0.4686 0.02104 0.22607 0.0
C2093 C 0.47425 0.0082 0.22699 0.0
C2094 C 0.45041 0.99083 0.25366 0.0
C2095 C 0.46523 0.99326 0.24118 0.0
C2096 C 0.48975 0.01038 0.21366 0.0
C2097 C 0.44712 0.00235 0.1639 0.0
C2098 C 0.45246 0.01671 0.14899 0.0
C2099 C 0.45983 0.00179 0.17786 0.0
C2100 C 0.47802 0.01574 0.17733 0.0
C2101 C 0.47056 0.03069 0.14846 0.0
C2102 C 0.48326 0.03016 0.16248 0.0
C2103 C 0.49188 0.01469 0.19085 0.0
C2104 C 0.55242 0.00266 0.16329 0.0
C2105 C 0.56053 0.01635 0.1473 0.0
C2106 C 0.53935 0.00215 0.17769 0.0
C2107 C 0.53458 0.01566 0.17676 0.0
C2108 C 0.5558 0.02983 0.1463 0.0
C2109 C 0.54294 0.02949 0.16092 0.0
C2110 C 0.51975 0.0146 0.19062 0.0
C2111 C 0.5616 0.01795 0.23834 0.0
C2112 C 0.55532 0.00281 0.25217 0.0
C2113 C 0.54939 0.02056 0.22578 0.0
C2114 C 0.53078 0.00787 0.22667 0.0
C2115 C 0.53675 0.99037 0.25351 0.0
C2116 C 0.52456 0.99293 0.2409 0.0
C2117 C 0.51758 0.01025 0.21346 0.0
H2118 H 0.44935 0.02842 0.23738 0.0
H2119 H 0.47567 0.03296 0.21577 0.0
H2120 H 0.44341 0.97908 0.26426 0.0
H2121 H 0.46947 0.9833 0.24231 0.0
H2122 H 0.43322 0.99137 0.1643 0.0
H2123 H 0.45553 0.99023 0.18864 0.0
H2124 H 0.47489 0.04178 0.13689 0.0
H2125 H 0.49724 0.04094 0.16159 0.0
H2126 H 0.55578 0.99204 0.16411 0.0
H2127 H 0.53264 0.99091 0.18908 0.0
H2128 H 0.56184 0.04042 0.13394 0.0
H2129 H 0.53932 0.0399 0.15966 0.0
H2130 H 0.57592 0.02772 0.23729 0.0
H2131 H 0.55447 0.03246 0.21543 0.0
H2132 H 0.53174 0.97865 0.26418 0.0
H2133 H 0.51026 0.98308 0.24203 0.0
N2134 N 0.50262 0.00823 0.22401 0.0
N2135 N 0.50685 0.01674 0.1803 0.0
C2136 C 0.55334 0.00244 0.79005 0.0
C2137 C 0.55107 0.99319 0.77001 0.0
C2138 C 0.53829 0.9993 0.80256 0.0
C2139 C 0.52076 0.98664 0.79536 0.0
C2140 C 0.5336 0.98083 0.76253 0.0
C2141 C 0.51853 0.97764 0.77509 0.0
C2142 C 0.5047 0.98341 0.8083 0.0
C2143 C 0.53507 0.96442 0.8508 0.0
C2144 C 0.542 0.97471 0.8702 0.0
C2145 C 0.52234 0.96608 0.83805 0.0
C2146 C 0.51646 0.97809 0.84457 0.0
C2147 C 0.53596 0.98648 0.87687 0.0
C2148 C 0.52319 0.98807 0.86423 0.0
C2149 C 0.50303 0.98013 0.83137 0.0
C2150 C 0.42742 0.96486 0.85116 0.0
C2151 C 0.4309 0.97473 0.87094 0.0
C2152 C 0.44178 0.96655 0.8382 0.0
C2153 C 0.45976 0.97825 0.84482 0.0
C2154 C 0.4488 0.98619 0.87771 0.0
C2155 C 0.46312 0.98785 0.86481 0.0
C2156 C 0.4752 0.98024 0.83148 0.0
C2157 C 0.44777 0.00303 0.79026 0.0
C2158 C 0.44085 0.99392 0.77013 0.0
C2159 C 0.45947 0.99966 0.8028 0.0
C2160 C 0.46418 0.98694 0.79552 0.0
C2161 C 0.44579 0.98148 0.7626 0.0
C2162 C 0.45745 0.97808 0.77517 0.0
C2163 C 0.47688 0.98355 0.8084 0.0
H2164 H 0.56677 0.01213 0.79591 0.0
H2165 H 0.54034 0.00687 0.81776 0.0
H2166 H 0.53168 0.97365 0.74703 0.0
H2167 H 0.50513 0.96802 0.76909 0.0
H2168 H 0.53954 0.95518 0.84555 0.0
H2169 H 0.51703 0.95795 0.8232 0.0
H2170 H 0.54114 0.99443 0.89189 0.0
H2171 H 0.51875 0.99731 0.86965 0.0
H2172 H 0.41364 0.9559 0.84582 0.0
H2173 H 0.43884 0.95866 0.82312 0.0
H2174 H 0.45167 0.99385 0.89298 0.0
H2175 H 0.47686 0.99683 0.87032 0.0
H2176 H 0.44417 0.01277 0.79619 0.0
H2177 H 0.46496 0.00713 0.81806 0.0
H2178 H 0.44059 0.97442 0.74702 0.0
H2179 H 0.46111 0.96841 0.7691 0.0
N2180 N 0.49149 0.98486 0.79768 0.0
N2181 N 0.48841 0.97879 0.84207 0.0
C2182 C 0.99625 0.55307 0.79113 0.0
C2183 C 0.00378 0.55774 0.76984 0.0
C2184 C 0.99918 0.54137 0.80424 0.0
C2185 C 0.01007 0.53452 0.79643 0.0
C2186 C 0.01418 0.55051 0.76168 0.0
C2187 C 0.01728 0.53894 0.77489 0.0
C2188 C 0.01342 0.5222 0.81022 0.0
C2189 C 0.03832 0.57526 0.84572 0.0
C2190 C 0.02985 0.57461 0.86591 0.0
C2191 C 0.03473 0.55926 0.83509 0.0
C2192 C 0.02244 0.54239 0.84439 0.0
C2193 C 0.01797 0.55783 0.87555 0.0
C2194 C 0.01437 0.54181 0.86492 0.0
C2195 C 0.01812 0.52536 0.83293 0.0
C2196 C 0.03408 0.46696 0.8573 0.0
C2197 C 0.02274 0.45916 0.87577 0.0
C2198 C 0.03223 0.47927 0.84394 0.0
C2199 C 0.0192 0.48412 0.84909 0.0
C2200 C 0.00984 0.46416 0.88097 0.0
C2201 C 0.00823 0.47671 0.86788 0.0
C2202 C 0.01695 0.49696 0.83509 0.0
C2203 C 0.99482 0.44478 0.79704 0.0
C2204 C 0.00303 0.44654 0.77631 0.0
C2205 C 0.99789 0.46015 0.80883 0.0
C2206 C 0.00954 0.47752 0.80028 0.0
C2207 C 0.01435 0.46382 0.76752 0.0
C2208 C 0.01755 0.47919 0.7794 0.0
C2209 C 0.01275 0.49402 0.81227 0.0
H2210 H 0.98804 0.55844 0.79753 0.0
H2211 H 0.99288 0.53764 0.82045 0.0
H2212 H 0.02 0.55395 0.7452 0.0
H2213 H 0.02549 0.53362 0.76839 0.0
H2214 H 0.04762 0.58814 0.83817 0.0
H2215 H 0.0415 0.56007 0.81957 0.0
H2216 H 0.0114 0.55715 0.89119 0.0
H2217 H 0.00499 0.52896 0.87248 0.0
H2218 H 0.04421 0.46337 0.85316 0.0
H2219 H 0.04097 0.48504 0.82964 0.0
H2220 H 0.00104 0.45835 0.89521 0.0
H2221 H 0.99817 0.48036 0.87215 0.0
H2222 H 0.98594 0.43151 0.80395 0.0
H2223 H 0.99096 0.45842 0.82447 0.0
H2224 H 0.02072 0.46539 0.75149 0.0
H2225 H 0.02638 0.49241 0.77233 0.0
N2226 N 0.01116 0.50677 0.80074 0.0
N2227 N 0.01946 0.51249 0.84457 0.0
C2228 C 0.54084 0.56791 0.77937 0.0
C2229 C 0.55078 0.56123 0.7684 0.0
C2230 C 0.52537 0.55622 0.79149 0.0
C2231 C 0.51966 0.53771 0.79277 0.0
C2232 C 0.54496 0.54272 0.76945 0.0
C2233 C 0.52942 0.53102 0.78139 0.0
C2234 C 0.50338 0.52511 0.80554 0.0
C2235 C 0.5444 0.56033 0.85683 0.0
C2236 C 0.53896 0.57011 0.87034 0.0
C2237 C 0.53206 0.54702 0.84249 0.0
C2238 C 0.51414 0.54344 0.84127 0.0
C2239 C 0.52116 0.56674 0.86901 0.0
C2240 C 0.50881 0.55342 0.85464 0.0
C2241 C 0.50051 0.52817 0.82783 0.0
C2242 C 0.4418 0.45607 0.85739 0.0
C2243 C 0.43206 0.46115 0.87146 0.0
C2244 C 0.45459 0.4686 0.84272 0.0
C2245 C 0.45771 0.48637 0.84181 0.0
C2246 C 0.43491 0.47877 0.8704 0.0
C2247 C 0.44776 0.49135 0.85576 0.0
C2248 C 0.47255 0.50019 0.82803 0.0
C2249 C 0.43139 0.46039 0.7808 0.0
C2250 C 0.43761 0.45091 0.76799 0.0
C2251 C 0.44359 0.47556 0.79301 0.0
C2252 C 0.46215 0.48132 0.79272 0.0
C2253 C 0.45615 0.45683 0.76731 0.0
C2254 C 0.46834 0.47199 0.77951 0.0
C2255 C 0.47528 0.4973 0.80562 0.0
H2256 H 0.54512 0.58215 0.7786 0.0
H2257 H 0.51783 0.5616 0.79978 0.0
H2258 H 0.55248 0.53737 0.76103 0.0
H2259 H 0.52518 0.51678 0.78206 0.0
H2260 H 0.55804 0.56265 0.85791 0.0
H2261 H 0.53637 0.53912 0.83293 0.0
H2262 H 0.51675 0.57408 0.87951 0.0
H2263 H 0.49501 0.55071 0.85419 0.0
H2264 H 0.43988 0.44256 0.85824 0.0
H2265 H 0.46247 0.46457 0.83264 0.0
H2266 H 0.42758 0.48291 0.88135 0.0
H2267 H 0.45012 0.50503 0.85554 0.0
H2268 H 0.41711 0.45603 0.78133 0.0
H2269 H 0.43854 0.48283 0.80256 0.0
H2270 H 0.46112 0.44965 0.75742 0.0
H2271 H 0.4826 0.47627 0.77888 0.0
N2272 N 0.49067 0.5098 0.79532 0.0
N2273 N 0.48518 0.51559 0.83818 0.0
C2274 C 0.65278 0.77451 0.49773 0.0
C2275 C 0.63913 0.76628 0.48171 0.0
C2276 C 0.6531 0.78749 0.51212 0.0
C2277 C 0.63947 0.79208 0.51118 0.0
C2278 C 0.62552 0.77084 0.48066 0.0
C2279 C 0.6257 0.78364 0.49528 0.0
C2280 C 0.64033 0.80674 0.52526 0.0
C2281 C 0.63662 0.76474 0.57338 0.0
C2282 C 0.65286 0.77065 0.58497 0.0
C2283 C 0.63386 0.77705 0.56124 0.0
C2284 C 0.64727 0.79541 0.56073 0.0
C2285 C 0.66616 0.78902 0.58461 0.0
C2286 C 0.66329 0.80135 0.57278 0.0
C2287 C 0.64466 0.80864 0.54805 0.0
C2288 C 0.63315 0.86883 0.57849 0.0
C2289 C 0.64617 0.87565 0.59575 0.0
C2290 C 0.63256 0.85632 0.56304 0.0
C2291 C 0.64566 0.8511 0.56335 0.0
C2292 C 0.66038 0.87176 0.59403 0.0
C2293 C 0.65983 0.85931 0.57861 0.0
C2294 C 0.64418 0.83628 0.54913 0.0
C2295 C 0.65334 0.87963 0.49975 0.0
C2296 C 0.63982 0.87445 0.48364 0.0
C2297 C 0.65308 0.8668 0.51427 0.0
C2298 C 0.63917 0.84863 0.51302 0.0
C2299 C 0.62573 0.85642 0.48262 0.0
C2300 C 0.62546 0.84359 0.49715 0.0
C2301 C 0.63997 0.8345 0.52628 0.0
H2302 H 0.66352 0.77133 0.49856 0.0
H2303 H 0.66435 0.7943 0.52347 0.0
H2304 H 0.61499 0.76473 0.46824 0.0
H2305 H 0.61519 0.78713 0.49399 0.0
H2306 H 0.62618 0.75061 0.57361 0.0
H2307 H 0.62128 0.77227 0.55233 0.0
H2308 H 0.67875 0.7938 0.5935 0.0
H2309 H 0.67374 0.81548 0.57268 0.0
H2310 H 0.62334 0.87306 0.5763 0.0
H2311 H 0.62163 0.85051 0.5511 0.0
H2312 H 0.67226 0.87834 0.60437 0.0
H2313 H 0.67056 0.85609 0.57861 0.0
H2314 H 0.66442 0.89347 0.50055 0.0
H2315 H 0.66415 0.87096 0.52584 0.0
H2316 H 0.61527 0.85221 0.47015 0.0
H2317 H 0.61473 0.82963 0.49568 0.0
N2318 N 0.6381 0.81973 0.51532 0.0
N2319 N 0.64646 0.82332 0.55903 0.0
C2320 C 0.13299 0.7589 0.50305 0.0
C2321 C 0.12862 0.76393 0.48289 0.0
C2322 C 0.1461 0.77208 0.51697 0.0
C2323 C 0.15468 0.79048 0.51108 0.0
C2324 C 0.13763 0.78218 0.47667 0.0
C2325 C 0.15056 0.79532 0.4906 0.0
C2326 C 0.16797 0.80494 0.52582 0.0
C2327 C 0.11548 0.77747 0.56377 0.0
C2328 C 0.11653 0.76967 0.58372 0.0
C2329 C 0.13124 0.78932 0.55227 0.0
C2330 C 0.14823 0.79325 0.5604 0.0
C2331 C 0.13346 0.77381 0.59209 0.0
C2332 C 0.14922 0.7856 0.58053 0.0
C2333 C 0.16506 0.80611 0.54872 0.0
C2334 C 0.21112 0.87246 0.59193 0.0
C2335 C 0.22983 0.87943 0.59051 0.0
C2336 C 0.19929 0.85734 0.57942 0.0
C2337 C 0.20601 0.84908 0.56516 0.0
C2338 C 0.23658 0.87084 0.57691 0.0
C2339 C 0.22474 0.85569 0.56438 0.0
C2340 C 0.19329 0.83376 0.55104 0.0
C2341 C 0.23364 0.85705 0.48646 0.0
C2342 C 0.23631 0.87461 0.48724 0.0
C2343 C 0.22088 0.84362 0.50035 0.0
C2344 C 0.21084 0.84765 0.51539 0.0
C2345 C 0.22656 0.87878 0.50251 0.0
C2346 C 0.21385 0.86537 0.51646 0.0
C2347 C 0.19591 0.83289 0.52803 0.0
H2348 H 0.12616 0.74484 0.50805 0.0
H2349 H 0.1494 0.76792 0.53236 0.0
H2350 H 0.1344 0.78627 0.46116 0.0
H2351 H 0.15706 0.80937 0.48559 0.0
H2352 H 0.10248 0.77448 0.55724 0.0
H2353 H 0.13017 0.7955 0.53714 0.0
H2354 H 0.13444 0.76794 0.60754 0.0
H2355 H 0.1622 0.78867 0.58725 0.0
H2356 H 0.20573 0.87895 0.60241 0.0
H2357 H 0.1849 0.8524 0.58041 0.0
H2358 H 0.25101 0.87602 0.57577 0.0
H2359 H 0.23022 0.84927 0.55393 0.0
H2360 H 0.24097 0.85363 0.47458 0.0
H2361 H 0.2186 0.82999 0.49907 0.0
H2362 H 0.22837 0.89225 0.5031 0.0
H2363 H 0.20591 0.8687 0.52746 0.0
N2364 N 0.18324 0.81846 0.51641 0.0
N2365 N 0.17791 0.82038 0.56045 0.0
C2366 C 0.23883 0.36854 0.50367 0.0
C2367 C 0.2347 0.35864 0.48382 0.0
C2368 C 0.22496 0.3678 0.51683 0.0
C2369 C 0.20676 0.35681 0.51051 0.0
C2370 C 0.2166 0.34793 0.47735 0.0
C2371 C 0.20277 0.34705 0.49055 0.0
C2372 C 0.19172 0.35594 0.52375 0.0
C2373 C 0.21891 0.33471 0.56789 0.0
C2374 C 0.22547 0.34419 0.58787 0.0
C2375 C 0.20737 0.33775 0.55459 0.0
C2376 C 0.20262 0.35067 0.56081 0.0
C2377 C 0.22034 0.35669 0.59449 0.0
C2378 C 0.20897 0.3599 0.58104 0.0
C2379 C 0.19016 0.35382 0.54707 0.0
C2380 C 0.11413 0.3372 0.56413 0.0
C2381 C 0.11663 0.34655 0.58414 0.0
C2382 C 0.12903 0.33987 0.55163 0.0
C2383 C 0.1467 0.35226 0.55869 0.0
C2384 C 0.13423 0.35873 0.59143 0.0
C2385 C 0.14916 0.36153 0.57881 0.0
C2386 C 0.16263 0.35458 0.54609 0.0
C2387 C 0.13451 0.37324 0.49816 0.0
C2388 C 0.12642 0.36098 0.48056 0.0
C2389 C 0.14657 0.37167 0.51236 0.0
C2390 C 0.15084 0.35801 0.50884 0.0
C2391 C 0.1306 0.34725 0.47726 0.0
C2392 C 0.14287 0.34591 0.49113 0.0
C2393 C 0.16417 0.35659 0.52284 0.0
H2394 H 0.25277 0.37692 0.50884 0.0
H2395 H 0.22846 0.37589 0.53179 0.0
H2396 H 0.21319 0.34021 0.46207 0.0
H2397 H 0.18889 0.33861 0.4852 0.0
H2398 H 0.22261 0.32485 0.56273 0.0
H2399 H 0.20208 0.32989 0.53954 0.0
H2400 H 0.22524 0.36402 0.60997 0.0
H2401 H 0.20523 0.36968 0.58636 0.0
H2402 H 0.10063 0.3276 0.55841 0.0
H2403 H 0.1267 0.33192 0.53672 0.0
H2404 H 0.13638 0.36595 0.60694 0.0
H2405 H 0.16264 0.37093 0.58477 0.0
H2406 H 0.13155 0.38401 0.50081 0.0
H2407 H 0.1528 0.38129 0.52578 0.0
H2408 H 0.12453 0.33773 0.4637 0.0
H2409 H 0.14608 0.33534 0.48811 0.0
N2410 N 0.17857 0.35712 0.51262 0.0
N2411 N 0.17575 0.35339 0.55731 0.0
C2412 C 0.98237 0.41309 0.09128 0.0
C2413 C 0.98332 0.39802 0.09936 0.0
C2414 C 0.98549 0.40905 0.13744 0.0
C2415 C 0.98291 0.42318 0.12943 0.0
N2416 N 0.97433 0.43586 0.09933 0.0
N2417 N 0.98196 0.37955 0.13029 0.0
C2418 C 0.97992 0.42433 0.10651 0.0
C2419 C 0.9837 0.39534 0.12252 0.0
N2420 N 0.98472 0.41726 0.06919 0.0
N2421 N 0.99043 0.40913 0.159 0.0
H2422 H 0.98039 0.36912 0.11983 0.0
H2423 H 0.98035 0.37611 0.14703 0.0
H2424 H 0.99216 0.41908 0.17037 0.0
H2425 H 0.99435 0.40024 0.16508 0.0
H2426 H 0.98605 0.42918 0.06285 0.0
H2427 H 0.98718 0.40978 0.05744 0.0
H2428 H 0.97026 0.43593 0.08308 0.0
H2429 H 0.97197 0.44404 0.11008 0.0
C2430 C 0.6 0.56551 0.09456 0.0
C2431 C 0.60664 0.58401 0.09954 0.0
C2432 C 0.59114 0.57591 0.13551 0.0
C2433 C 0.58434 0.55739 0.13041 0.0
N2434 N 0.58508 0.53452 0.10782 0.0
N2435 N 0.61186 0.6073 0.12598 0.0
C2436 C 0.58971 0.55219 0.11077 0.0
C2437 C 0.60332 0.58936 0.1205 0.0
N2438 N 0.60299 0.56069 0.07402 0.0
N2439 N 0.5853 0.58055 0.15421 0.0
H2440 H 0.62058 0.61749 0.11516 0.0
H2441 H 0.61149 0.61209 0.14174 0.0
H2442 H 0.57679 0.57109 0.16589 0.0
H2443 H 0.58802 0.5936 0.15767 0.0
H2444 H 0.59674 0.54742 0.06829 0.0
H2445 H 0.61111 0.57013 0.06209 0.0
H2446 H 0.58996 0.53003 0.09494 0.0
H2447 H 0.57743 0.52445 0.11937 0.0
C2448 C 0.42081 0.02905 0.11945 0.0
C2449 C 0.41478 0.01648 0.10166 0.0
C2450 C 0.43428 0.00492 0.11416 0.0
C2451 C 0.43931 0.01654 0.13286 0.0
N2452 N 0.43544 0.03766 0.15543 0.0
N2453 N 0.41291 0.99013 0.08429 0.0
C2454 C 0.43202 0.02806 0.13613 0.0
C2455 C 0.42069 0.00372 0.09965 0.0
N2456 N 0.41628 0.04225 0.12001 0.0
N2457 N 0.44295 0.99548 0.10981 0.0
H2458 H 0.40288 0.98876 0.07332 0.0
H2459 H 0.41521 0.97929 0.08367 0.0
H2460 H 0.45297 0.99593 0.12006 0.0
H2461 H 0.44134 0.98841 0.09511 0.0
H2462 H 0.42182 0.05302 0.13116 0.0
H2463 H 0.40792 0.04323 0.10819 0.0
H2464 H 0.42902 0.04481 0.15986 0.0
H2465 H 0.44368 0.03732 0.16792 0.0
C2466 C 0.3946 0.95942 0.91562 0.0
C2467 C 0.39169 0.97433 0.91571 0.0
C2468 C 0.41103 0.98685 0.8829 0.0
C2469 C 0.41591 0.97335 0.88479 0.0
N2470 N 0.41326 0.94714 0.90318 0.0
N2471 N 0.39784 0.00298 0.90064 0.0
C2472 C 0.4078 0.95958 0.90108 0.0
C2473 C 0.39993 0.98816 0.8995 0.0
N2474 N 0.38459 0.94506 0.92933 0.0
N2475 N 0.41694 0.99831 0.86512 0.0
H2476 H 0.38955 0.00431 0.91229 0.0
H2477 H 0.40522 0.01452 0.89102 0.0
H2478 H 0.42526 0.9978 0.85279 0.0
H2479 H 0.41241 0.00726 0.86153 0.0
H2480 H 0.38475 0.93299 0.92865 0.0
H2481 H 0.37489 0.94464 0.94025 0.0
H2482 H 0.4095 0.93808 0.91632 0.0
H2483 H 0.4225 0.94653 0.8924 0.0
C2484 C 0.02714 0.43628 0.92727 0.0
C2485 C 0.02376 0.41943 0.91853 0.0
C2486 C 0.01963 0.42852 0.88149 0.0
C2487 C 0.02433 0.44584 0.88997 0.0
N2488 N 0.03707 0.46768 0.91964 0.0
N2489 N 0.02105 0.40118 0.88662 0.0
C2490 C 0.02953 0.45019 0.91248 0.0
C2491 C 0.02137 0.41609 0.89538 0.0
N2492 N 0.02706 0.43873 0.94969 0.0
N2493 N 0.01263 0.42356 0.86061 0.0
H2494 H 0.02257 0.39194 0.8963 0.0
H2495 H 0.02109 0.39897 0.86962 0.0
H2496 H 0.01075 0.43209 0.85002 0.0
H2497 H 0.00719 0.41044 0.85451 0.0
H2498 H 0.02751 0.45007 0.95678 0.0
H2499 H 0.02482 0.42876 0.96123 0.0
H2500 H 0.04272 0.47188 0.93534 0.0
H2501 H 0.03935 0.4783 0.90914 0.0
C2502 C 0.57262 0.61386 0.89949 0.0
C2503 C 0.57667 0.6068 0.91849 0.0
C2504 C 0.55432 0.57597 0.90717 0.0
C2505 C 0.55157 0.5829 0.88713 0.0
N2506 N 0.55935 0.60802 0.8627 0.0
N2507 N 0.57361 0.58118 0.93893 0.0
C2508 C 0.56104 0.60176 0.88287 0.0
C2509 C 0.56809 0.58785 0.92197 0.0
N2510 N 0.57955 0.6321 0.89764 0.0
N2511 N 0.54346 0.55808 0.91229 0.0
H2512 H 0.58362 0.58939 0.95025 0.0
H2513 H 0.56936 0.56751 0.94075 0.0
H2514 H 0.53331 0.54889 0.90176 0.0
H2515 H 0.54344 0.55265 0.92772 0.0
H2516 H 0.57567 0.63801 0.88538 0.0
H2517 H 0.58818 0.64132 0.90945 0.0
H2518 H 0.56736 0.62139 0.85763 0.0
H2519 H 0.55076 0.59955 0.8503 0.0
C2520 C 0.05044 0.61649 0.9026 0.0
C2521 C 0.03626 0.62047 0.9023 0.0
C2522 C 0.02228 0.59915 0.87158 0.0
C2523 C 0.03323 0.59155 0.87684 0.0
N2524 N 0.05907 0.59397 0.89615 0.0
N2525 N 0.0189 0.62554 0.87501 0.0
C2526 C 0.04784 0.60059 0.89186 0.0
C2527 C 0.02507 0.6148 0.88324 0.0
N2528 N 0.06724 0.62929 0.9095 0.0
N2529 N 0.00889 0.59114 0.8561 0.0
H2530 H 0.02269 0.6381 0.88213 0.0
H2531 H 0.01202 0.62304 0.86001 0.0
H2532 H 0.00677 0.57994 0.84679 0.0
H2533 H 0.9993 0.59503 0.85346 0.0
H2534 H 0.07851 0.62768 0.90832 0.0
H2535 H 0.07021 0.64246 0.91308 0.0
H2536 H 0.0688 0.59923 0.90866 0.0
H2537 H 0.05792 0.5826 0.88815 0.0
C2538 C 0.41628 0.43376 0.92463 0.0
C2539 C 0.39746 0.42287 0.92051 0.0
C2540 C 0.40127 0.43685 0.88394 0.0
C2541 C 0.41992 0.44836 0.88857 0.0
N2542 N 0.44485 0.45997 0.91427 0.0
N2543 N 0.37138 0.41542 0.89805 0.0
C2544 C 0.42733 0.44747 0.90923 0.0
C2545 C 0.38975 0.42483 0.90066 0.0
N2546 N 0.42368 0.43059 0.94296 0.0
N2547 N 0.39474 0.43711 0.86335 0.0
H2548 H 0.36262 0.40624 0.9098 0.0
H2549 H 0.36469 0.41757 0.88508 0.0
H2550 H 0.40272 0.44609 0.85094 0.0
H2551 H 0.38177 0.42775 0.85801 0.0
H2552 H 0.43754 0.4365 0.94555 0.0
H2553 H 0.416 0.42102 0.95499 0.0
H2554 H 0.45047 0.46138 0.92995 0.0
H2555 H 0.45353 0.46995 0.90321 0.0
C2556 C 0.5628 0.96103 0.91657 0.0
C2557 C 0.5812 0.97462 0.91424 0.0
C2558 C 0.57421 0.98511 0.87986 0.0
C2559 C 0.55555 0.97321 0.88391 0.0
N2560 N 0.53161 0.95002 0.90594 0.0
N2561 N 0.60479 2e-05 0.89444 0.0
C2562 C 0.5497 0.96105 0.9021 0.0
C2563 C 0.58707 0.98665 0.89592 0.0
N2564 N 0.55794 0.94808 0.93255 0.0
N2565 N 0.57959 0.99487 0.86063 0.0
H2566 H 0.6147 0.00116 0.90546 0.0
H2567 H 0.60959 0.01058 0.88308 0.0
H2568 H 0.57047 0.99432 0.84875 0.0
H2569 H 0.59301 0.00243 0.85554 0.0
H2570 H 0.54507 0.93677 0.93389 0.0
H2571 H 0.56723 0.94785 0.94352 0.0
H2572 H 0.52633 0.9424 0.92029 0.0
H2573 H 0.52168 0.94914 0.89516 0.0
C2574 C 0.57908 0.00049 0.10045 0.0
C2575 C 0.59702 0.01528 0.09871 0.0
C2576 C 0.5917 0.0297 0.13075 0.0
C2577 C 0.5732 0.01599 0.13069 0.0
N2578 N 0.54846 0.99035 0.1124 0.0
N2579 N 0.61959 0.04548 0.10976 0.0
C2580 C 0.56663 0.00193 0.11466 0.0
C2581 C 0.60314 0.03034 0.11321 0.0
N2582 N 0.57407 0.98477 0.0892 0.0
N2583 N 0.59846 0.04179 0.1479 0.0
H2584 H 0.62822 0.04656 0.09686 0.0
H2585 H 0.62394 0.05753 0.11841 0.0
H2586 H 0.59052 0.04161 0.16117 0.0
H2587 H 0.61221 0.05089 0.15 0.0
H2588 H 0.5617 0.97298 0.09166 0.0
H2589 H 0.58291 0.98289 0.07911 0.0
H2590 H 0.54289 0.9811 0.09942 0.0
H2591 H 0.5388 0.99116 0.12215 0.0
C2592 C 0.96897 0.56443 0.0951 0.0
C2593 C 0.98222 0.58302 0.0964 0.0
C2594 C 0.99304 0.57798 0.13177 0.0
C2595 C 0.98146 0.55912 0.1289 0.0
N2596 N 0.95883 0.53391 0.10783 0.0
N2597 N 0.0076 0.60775 0.11494 0.0
C2598 C 0.96939 0.55219 0.11066 0.0
C2599 C 0.99435 0.58993 0.1146 0.0
N2600 N 0.95591 0.55857 0.07909 0.0
N2601 N 0.00267 0.58443 0.15099 0.0
H2602 H 0.00871 0.61703 0.10297 0.0
H2603 H 0.0182 0.61317 0.12628 0.0
H2604 H 0.00219 0.57598 0.16375 0.0
H2605 H 0.00995 0.59808 0.15515 0.0
H2606 H 0.9448 0.54553 0.07848 0.0
H2607 H 0.95539 0.56722 0.06733 0.0
H2608 H 0.95134 0.5279 0.09357 0.0
H2609 H 0.95831 0.52456 0.11933 0.0
C2610 C 0.43984 0.39653 0.10314 0.0
C2611 C 0.4217 0.39262 0.10479 0.0
C2612 C 0.42857 0.40944 0.13978 0.0
C2613 C 0.44716 0.41561 0.13627 0.0
N2614 N 0.47097 0.41543 0.11505 0.0
N2615 N 0.39843 0.39536 0.12403 0.0
C2616 C 0.45292 0.40906 0.11822 0.0
C2617 C 0.41588 0.39884 0.12313 0.0
N2618 N 0.44444 0.38818 0.08717 0.0
N2619 N 0.42314 0.41378 0.15904 0.0
H2620 H 0.38861 0.38719 0.11249 0.0
H2621 H 0.39386 0.40132 0.13543 0.0
H2622 H 0.43219 0.42175 0.1714 0.0
H2623 H 0.40966 0.40833 0.16366 0.0
H2624 H 0.45703 0.3891 0.08622 0.0
H2625 H 0.43511 0.37904 0.07582 0.0
H2626 H 0.47631 0.41294 0.10085 0.0
H2627 H 0.48082 0.42404 0.12629 0.0
C2628 C 0.65603 0.74876 0.43489 0.0
C2629 C 0.64189 0.73047 0.43347 0.0
C2630 C 0.62678 0.73514 0.4653 0.0
C2631 C 0.63987 0.75386 0.46502 0.0
N2632 N 0.66485 0.77915 0.44659 0.0
N2633 N 0.61241 0.70676 0.44505 0.0
C2634 C 0.65391 0.76087 0.44896 0.0
C2635 C 0.62685 0.72377 0.44807 0.0
N2636 N 0.67177 0.75444 0.42338 0.0
N2637 N 0.61466 0.72813 0.48239 0.0
H2638 H 0.612 0.69808 0.43259 0.0
H2639 H 0.60027 0.70183 0.45366 0.0
H2640 H 0.61427 0.73604 0.49534 0.0
H2641 H 0.60604 0.71432 0.48473 0.0
H2642 H 0.68321 0.76712 0.42563 0.0
H2643 H 0.67407 0.74591 0.41322 0.0
H2644 H 0.67403 0.785 0.43359 0.0
H2645 H 0.66356 0.78855 0.45629 0.0
C2646 C 0.27832 0.9115 0.45822 0.0
C2647 C 0.27039 0.91415 0.43901 0.0
C2648 C 0.24045 0.88999 0.45069 0.0
C2649 C 0.24816 0.88823 0.47067 0.0
N2650 N 0.27375 0.89839 0.49502 0.0
N2651 N 0.24386 0.908 0.41813 0.0
C2652 C 0.26693 0.89929 0.47489 0.0
C2653 C 0.25143 0.90395 0.43556 0.0
N2654 N 0.29673 0.92037 0.46022 0.0
N2655 N 0.2227 0.878 0.44597 0.0
H2656 H 0.25146 0.91786 0.40635 0.0
H2657 H 0.23 0.90258 0.41619 0.0
H2658 H 0.21406 0.86786 0.45688 0.0
H2659 H 0.21683 0.87719 0.4306 0.0
H2660 H 0.30348 0.91768 0.47261 0.0
H2661 H 0.3054 0.92966 0.4485 0.0
H2662 H 0.28691 0.90739 0.50012 0.0
H2663 H 0.26584 0.88931 0.50739 0.0
C2664 C 0.10593 0.36343 0.42612 0.0
C2665 C 0.0889 0.36077 0.43314 0.0
C2666 C 0.09663 0.35894 0.4718 0.0
C2667 C 0.11403 0.36268 0.46483 0.0
N2668 N 0.13691 0.37346 0.43629 0.0
N2669 N 0.06987 0.36056 0.46286 0.0
C2670 C 0.11922 0.36657 0.44226 0.0
C2671 C 0.08484 0.36 0.45609 0.0
N2672 N 0.1091 0.3619 0.40421 0.0
N2673 N 0.09097 0.35349 0.49306 0.0
H2674 H 0.06112 0.36163 0.45176 0.0
H2675 H 0.06716 0.36176 0.47943 0.0
H2676 H 0.09907 0.35229 0.50503 0.0
H2677 H 0.07771 0.34868 0.49831 0.0
H2678 H 0.12057 0.36178 0.39861 0.0
H2679 H 0.09957 0.35899 0.39178 0.0
H2680 H 0.14173 0.37815 0.42037 0.0
H2681 H 0.14708 0.37624 0.44779 0.0
C2682 C 0.06846 0.32138 0.23173 0.0
C2683 C 0.05916 0.30777 0.24795 0.0
C2684 C 0.07285 0.29058 0.23359 0.0
C2685 C 0.08199 0.30411 0.21727 0.0
N2686 N 0.08538 0.32994 0.19721 0.0
N2687 N 0.04912 0.27771 0.26143 0.0
C2688 C 0.07872 0.31871 0.21516 0.0
C2689 C 0.06026 0.29177 0.24791 0.0
N2690 N 0.06826 0.33725 0.23285 0.0
N2691 N 0.07678 0.27704 0.236 0.0
H2692 H 0.03978 0.27823 0.27212 0.0
H2693 H 0.04798 0.26502 0.26072 0.0
H2694 H 0.08558 0.27548 0.22543 0.0
H2695 H 0.07223 0.26801 0.24922 0.0
H2696 H 0.07648 0.3485 0.22315 0.0
H2697 H 0.06079 0.3397 0.24461 0.0
H2698 H 0.08199 0.33974 0.19352 0.0
H2699 H 0.09304 0.32836 0.18484 0.0
C2700 C 0.69241 0.77306 0.26288 0.0
C2701 C 0.69724 0.76004 0.2565 0.0
C2702 C 0.70193 0.77137 0.21834 0.0
C2703 C 0.69885 0.78547 0.22532 0.0
N2704 N 0.69655 0.80267 0.25571 0.0
N2705 N 0.71104 0.74993 0.22935 0.0
C2706 C 0.69584 0.78727 0.24809 0.0
C2707 C 0.70341 0.76018 0.23457 0.0
N2708 N 0.68356 0.77135 0.28242 0.0
N2709 N 0.70252 0.76803 0.19627 0.0
H2710 H 0.71286 0.742 0.24101 0.0
H2711 H 0.71723 0.75081 0.21413 0.0
H2712 H 0.70085 0.77547 0.18379 0.0
H2713 H 0.70291 0.75676 0.19041 0.0
H2714 H 0.67829 0.77961 0.28665 0.0
H2715 H 0.67966 0.76054 0.29326 0.0
H2716 H 0.69602 0.80522 0.27254 0.0
H2717 H 0.69969 0.81369 0.2455 0.0
C2718 C 0.22768 0.9408 0.25127 0.0
C2719 C 0.24426 0.9409 0.25306 0.0
C2720 C 0.23593 0.92045 0.22114 0.0
C2721 C 0.21838 0.91825 0.22156 0.0
N2722 N 0.19677 0.92514 0.23786 0.0
N2723 N 0.26358 0.92937 0.24128 0.0
C2724 C 0.21406 0.92823 0.23672 0.0
C2725 C 0.24834 0.93048 0.23827 0.0
N2726 N 0.22511 0.95293 0.26321 0.0
N2727 N 0.24077 0.91307 0.20419 0.0
H2728 H 0.27307 0.9365 0.25358 0.0
H2729 H 0.26614 0.92029 0.23274 0.0
H2730 H 0.23196 0.90562 0.19137 0.0
H2731 H 0.25394 0.91574 0.2017 0.0
H2732 H 0.21405 0.95475 0.26106 0.0
H2733 H 0.23489 0.96237 0.27391 0.0
H2734 H 0.19226 0.9304 0.25028 0.0
H2735 H 0.18652 0.91628 0.2272 0.0
C2736 C 0.70987 0.93992 0.25217 0.0
C2737 C 0.69584 0.94407 0.25053 0.0
C2738 C 0.6859 0.9275 0.21536 0.0
C2739 C 0.69828 0.9213 0.21863 0.0
N2740 N 0.7218 0.92086 0.24007 0.0
N2741 N 0.66987 0.94146 0.23147 0.0
C2742 C 0.71037 0.92748 0.2369 0.0
C2743 C 0.6838 0.93795 0.23221 0.0
N2744 N 0.72274 0.94799 0.26829 0.0
N2745 N 0.67625 0.92341 0.19606 0.0
H2746 H 0.66819 0.94951 0.24318 0.0
H2747 H 0.65935 0.93559 0.22006 0.0
H2748 H 0.67734 0.91557 0.18353 0.0
H2749 H 0.66831 0.92895 0.1916 0.0
H2750 H 0.73433 0.94695 0.26918 0.0
H2751 H 0.72257 0.95699 0.27987 0.0
H2752 H 0.72941 0.92308 0.25438 0.0
H2753 H 0.72299 0.91226 0.22877 0.0
C2754 C 0.05988 0.77278 0.25452 0.0
C2755 C 0.05621 0.75472 0.25266 0.0
C2756 C 0.07262 0.76188 0.21732 0.0
C2757 C 0.07836 0.78039 0.22078 0.0
N2758 N 0.07817 0.80397 0.24254 0.0
N2759 N 0.05949 0.73185 0.23322 0.0
C2760 C 0.07201 0.78597 0.23922 0.0
C2761 C 0.0625 0.74913 0.23416 0.0
N2762 N 0.05165 0.7772 0.27084 0.0
N2763 N 0.07683 0.75656 0.19788 0.0
H2764 H 0.05172 0.72198 0.24491 0.0
H2765 H 0.06555 0.72751 0.22165 0.0
H2766 H 0.08444 0.76564 0.18537 0.0
H2767 H 0.07159 0.7431 0.19332 0.0
H2768 H 0.05232 0.78966 0.27192 0.0
H2769 H 0.04287 0.76784 0.28244 0.0
H2770 H 0.07584 0.8092 0.25696 0.0
H2771 H 0.08651 0.81391 0.23122 0.0
C2772 C 0.23263 0.2935 0.25113 0.0
C2773 C 0.24888 0.31035 0.25335 0.0
C2774 C 0.23988 0.32258 0.22238 0.0
C2775 C 0.22265 0.30664 0.22223 0.0
N2776 N 0.20171 0.2775 0.2378 0.0
N2777 N 0.2671 0.34182 0.24321 0.0
C2778 C 0.21879 0.29216 0.23686 0.0
C2779 C 0.25235 0.32512 0.23944 0.0
N2780 N 0.23059 0.27873 0.26235 0.0
N2781 N 0.24439 0.33515 0.20599 0.0
H2782 H 0.27653 0.34436 0.25565 0.0
H2783 H 0.26919 0.3535 0.23524 0.0
H2784 H 0.23558 0.33366 0.19315 0.0
H2785 H 0.25738 0.34616 0.20391 0.0
H2786 H 0.21985 0.26567 0.25973 0.0
H2787 H 0.24048 0.27926 0.27293 0.0
H2788 H 0.19752 0.2675 0.24988 0.0
H2789 H 0.19126 0.27594 0.22747 0.0
C2790 C 0.27354 0.37437 0.44239 0.0
C2791 C 0.27322 0.35785 0.43855 0.0
C2792 C 0.25066 0.34338 0.46801 0.0
C2793 C 0.24915 0.3591 0.46965 0.0
N2794 N 0.25759 0.389 0.45667 0.0
N2795 N 0.25955 0.32577 0.44532 0.0
C2796 C 0.26026 0.37453 0.45648 0.0
C2797 C 0.26133 0.34211 0.45081 0.0
N2798 N 0.28674 0.38996 0.43288 0.0
N2799 N 0.24209 0.32977 0.48314 0.0
H2800 H 0.26688 0.32413 0.43259 0.0
H2801 H 0.24963 0.31356 0.45205 0.0
H2802 H 0.23427 0.33033 0.49609 0.0
H2803 H 0.24415 0.31878 0.48415 0.0
H2804 H 0.28881 0.40272 0.43681 0.0
H2805 H 0.29669 0.3903 0.4225 0.0
H2806 H 0.26386 0.39973 0.44558 0.0
H2807 H 0.24805 0.38966 0.4668 0.0
C2808 C 0.63077 0.90724 0.45112 0.0
C2809 C 0.64407 0.91263 0.43424 0.0
C2810 C 0.65344 0.89187 0.44871 0.0
C2811 C 0.6412 0.88761 0.46666 0.0
N2812 N 0.6199 0.8928 0.48691 0.0
N2813 N 0.67012 0.91257 0.41889 0.0
C2814 C 0.6303 0.89573 0.46842 0.0
C2815 C 0.65599 0.90563 0.43356 0.0
N2816 N 0.6183 0.91275 0.45025 0.0
N2817 N 0.66221 0.88236 0.44574 0.0
H2818 H 0.67243 0.92261 0.4074 0.0
H2819 H 0.68045 0.9095 0.41929 0.0
H2820 H 0.66082 0.87224 0.45656 0.0
H2821 H 0.66969 0.8834 0.4316 0.0
H2822 H 0.60708 0.90777 0.46067 0.0
H2823 H 0.61837 0.92132 0.43793 0.0
H2824 H 0.61315 0.89981 0.49035 0.0
H2825 H 0.6191 0.88428 0.49976 0.0
C2826 C 0.1031 0.72634 0.4405 0.0
C2827 C 0.08794 0.72852 0.43665 0.0
C2828 C 0.09761 0.75065 0.46686 0.0
C2829 C 0.11401 0.7504 0.46848 0.0
N2830 N 0.13341 0.73939 0.45546 0.0
N2831 N 0.07207 0.74472 0.44389 0.0
C2832 C 0.11701 0.73852 0.45504 0.0
C2833 C 0.08546 0.74112 0.44932 0.0
N2834 N 0.10399 0.71242 0.43059 0.0
N2835 N 0.09356 0.75981 0.4823 0.0
H2836 H 0.06304 0.73833 0.43088 0.0
H2837 H 0.07093 0.75522 0.45098 0.0
H2838 H 0.10212 0.76684 0.4955 0.0
H2839 H 0.081 0.75898 0.48328 0.0
H2840 H 0.11377 0.70903 0.43443 0.0
H2841 H 0.09397 0.70321 0.41994 0.0
H2842 H 0.13712 0.73256 0.44424 0.0
H2843 H 0.14386 0.74801 0.46604 0.0
C2844 C 0.29296 0.05863 0.77994 0.0
C2845 C 0.30967 0.06478 0.76876 0.0
C2846 C 0.3225 0.09372 0.78834 0.0
C2847 C 0.30644 0.08696 0.80115 0.0
N2848 N 0.2778 0.06156 0.81234 0.0
N2849 N 0.34169 0.08628 0.76672 0.0
C2850 C 0.29206 0.06896 0.79791 0.0
C2851 C 0.32487 0.08175 0.77433 0.0
N2852 N 0.2778 0.04335 0.77288 0.0
N2853 N 0.33515 0.11173 0.7887 0.0
H2854 H 0.34412 0.07762 0.75696 0.0
H2855 H 0.35345 0.09775 0.77206 0.0
H2856 H 0.33366 0.12119 0.79801 0.0
H2857 H 0.34619 0.11756 0.77795 0.0
H2858 H 0.26491 0.03931 0.77894 0.0
H2859 H 0.27785 0.03556 0.75957 0.0
H2860 H 0.26783 0.04795 0.81205 0.0
H2861 H 0.27685 0.06861 0.82595 0.0
C2862 C 0.94437 0.23659 0.78269 0.0
C2863 C 0.93634 0.2417 0.76578 0.0
C2864 C 0.90616 0.21881 0.7785 0.0
C2865 C 0.91413 0.21497 0.79672 0.0
N2866 N 0.94055 0.22156 0.81805 0.0
N2867 N 0.90971 0.23997 0.74965 0.0
C2868 C 0.93319 0.22421 0.79934 0.0
C2869 C 0.91725 0.23342 0.76421 0.0
N2870 N 0.96262 0.24322 0.78249 0.0
N2871 N 0.88804 0.20818 0.77451 0.0
H2872 H 0.91734 0.25071 0.7389 0.0
H2873 H 0.896 0.23584 0.74953 0.0
H2874 H 0.87943 0.19734 0.78463 0.0
H2875 H 0.88181 0.20906 0.76014 0.0
H2876 H 0.96907 0.23858 0.79296 0.0
H2877 H 0.9712 0.25238 0.77061 0.0
H2878 H 0.95419 0.22933 0.82211 0.0
H2879 H 0.93277 0.21245 0.83045 0.0
C2880 C 0.76387 0.6797 0.76623 0.0
C2881 C 0.75607 0.69089 0.76778 0.0
C2882 C 0.77198 0.70351 0.80286 0.0
C2883 C 0.78098 0.6935 0.80021 0.0
N2884 N 0.78797 0.67447 0.77765 0.0
N2885 N 0.75429 0.71518 0.78568 0.0
C2886 C 0.77762 0.68225 0.7814 0.0
C2887 C 0.76055 0.70329 0.78561 0.0
N2888 N 0.75772 0.66621 0.75069 0.0
N2889 N 0.77397 0.71279 0.82213 0.0
H2890 H 0.74577 0.71526 0.7734 0.0
H2891 H 0.75861 0.72583 0.7969 0.0
H2892 H 0.78236 0.71336 0.83502 0.0
H2893 H 0.76631 0.71876 0.8261 0.0
H2894 H 0.76143 0.65634 0.75036 0.0
H2895 H 0.74764 0.66386 0.73924 0.0
H2896 H 0.78754 0.66782 0.76296 0.0
H2897 H 0.79816 0.67595 0.7884 0.0
C2898 C 0.73839 0.62827 0.59266 0.0
C2899 C 0.72701 0.63502 0.58602 0.0
C2900 C 0.73471 0.6337 0.54714 0.0
C2901 C 0.74824 0.62986 0.55413 0.0
N2902 N 0.76484 0.62609 0.58403 0.0
N2903 N 0.71593 0.64638 0.55706 0.0
C2904 C 0.75052 0.62768 0.57702 0.0
C2905 C 0.72545 0.6382 0.56325 0.0
N2906 N 0.73745 0.62224 0.61386 0.0
N2907 N 0.73054 0.6328 0.52513 0.0
H2908 H 0.70912 0.65011 0.56832 0.0
H2909 H 0.71605 0.65085 0.54098 0.0
H2910 H 0.73692 0.62932 0.51292 0.0
H2911 H 0.71961 0.63375 0.51926 0.0
H2912 H 0.74417 0.61557 0.61905 0.0
H2913 H 0.72852 0.62226 0.62567 0.0
H2914 H 0.76822 0.62647 0.60068 0.0
H2915 H 0.77437 0.62605 0.57325 0.0
C2916 C 0.36299 0.10491 0.59143 0.0
C2917 C 0.35968 0.0878 0.58376 0.0
C2918 C 0.35858 0.09674 0.54545 0.0
C2919 C 0.36316 0.11425 0.55307 0.0
N2920 N 0.37456 0.1364 0.5825 0.0
N2921 N 0.35843 0.06888 0.5533 0.0
C2922 C 0.36693 0.11878 0.57583 0.0
C2923 C 0.35878 0.08417 0.56067 0.0
N2924 N 0.36138 0.10768 0.61346 0.0
N2925 N 0.35323 0.09181 0.52398 0.0
H2926 H 0.35882 0.05953 0.56402 0.0
H2927 H 0.35952 0.06638 0.53661 0.0
H2928 H 0.3527 0.10053 0.51236 0.0
H2929 H 0.34788 0.07861 0.51818 0.0
H2930 H 0.36176 0.11929 0.6195 0.0
H2931 H 0.35786 0.09774 0.6255 0.0
H2932 H 0.37919 0.14066 0.59859 0.0
H2933 H 0.37798 0.147 0.57144 0.0
C2934 C 0.91917 0.26556 0.56841 0.0
C2935 C 0.9147 0.27521 0.58394 0.0
C2936 C 0.88409 0.26157 0.56857 0.0
C2937 C 0.88869 0.25219 0.55281 0.0
N2938 N 0.91143 0.24825 0.53421 0.0
N2939 N 0.8946 0.28559 0.596 0.0
C2940 C 0.90654 0.2552 0.55159 0.0
C2941 C 0.89766 0.27423 0.58309 0.0
N2942 N 0.93509 0.26555 0.57042 0.0
N2943 N 0.86659 0.2578 0.57027 0.0
H2944 H 0.9043 0.29498 0.60682 0.0
H2945 H 0.88315 0.28683 0.59465 0.0
H2946 H 0.85638 0.24892 0.55958 0.0
H2947 H 0.8619 0.26255 0.58308 0.0
H2948 H 0.93815 0.25709 0.56129 0.0
H2949 H 0.9448 0.27309 0.58237 0.0
H2950 H 0.92469 0.25146 0.53112 0.0
H2951 H 0.90244 0.24051 0.52167 0.0
C2952 C 0.3769 0.27164 0.58667 0.0
C2953 C 0.36329 0.27621 0.58345 0.0
C2954 C 0.35602 0.26129 0.54712 0.0
C2955 C 0.36773 0.25451 0.55184 0.0
N2956 N 0.38937 0.2528 0.57568 0.0
N2957 N 0.33945 0.27534 0.56128 0.0
C2958 C 0.37839 0.25976 0.57139 0.0
C2959 C 0.35289 0.27126 0.56369 0.0
N2960 N 0.38841 0.27876 0.60432 0.0
N2961 N 0.34793 0.25816 0.52678 0.0
H2962 H 0.33713 0.28311 0.57275 0.0
H2963 H 0.32992 0.27026 0.5486 0.0
H2964 H 0.34972 0.25062 0.51445 0.0
H2965 H 0.34064 0.26417 0.52141 0.0
H2966 H 0.39969 0.27737 0.60662 0.0
H2967 H 0.38748 0.28736 0.61589 0.0
H2968 H 0.39586 0.25428 0.59076 0.0
H2969 H 0.39135 0.24469 0.56438 0.0
C2970 C 0.75014 0.08903 0.58256 0.0
C2971 C 0.73175 0.08435 0.58427 0.0
C2972 C 0.73578 0.10444 0.55317 0.0
C2973 C 0.7546 0.11067 0.55329 0.0
N2974 N 0.7803 0.11125 0.57066 0.0
N2975 N 0.70739 0.08913 0.57331 0.0
C2976 C 0.76196 0.10359 0.56867 0.0
C2977 C 0.72461 0.09243 0.5701 0.0
N2978 N 0.7562 0.07921 0.59374 0.0
N2979 N 0.72853 0.10962 0.53654 0.0
H2980 H 0.6988 0.08036 0.58549 0.0
H2981 H 0.7021 0.09614 0.56511 0.0
H2982 H 0.73633 0.11837 0.52385 0.0
H2983 H 0.71468 0.10408 0.53424 0.0
H2984 H 0.76897 0.08079 0.59127 0.0
H2985 H 0.74789 0.06827 0.6039 0.0
H2986 H 0.78641 0.10793 0.58327 0.0
H2987 H 0.7895 0.12212 0.56101 0.0
C2988 C 0.90481 0.62463 0.56608 0.0
C2989 C 0.90667 0.63473 0.58559 0.0
C2990 C 0.88118 0.63833 0.57429 0.0
C2991 C 0.8805 0.62983 0.5538 0.0
N2992 N 0.89236 0.61622 0.52894 0.0
N2993 N 0.89844 0.65328 0.60725 0.0
C2994 C 0.89247 0.62327 0.54936 0.0
C2995 C 0.89528 0.64208 0.58949 0.0
N2996 N 0.91459 0.61607 0.56382 0.0
N2997 N 0.86817 0.64261 0.57933 0.0
H2998 H 0.90853 0.65625 0.61894 0.0
H2999 H 0.89204 0.66078 0.60953 0.0
H3000 H 0.85784 0.64047 0.5684 0.0
H3001 H 0.8667 0.64693 0.59495 0.0
H3002 H 0.91258 0.60701 0.55109 0.0
H3003 H 0.92387 0.61698 0.57568 0.0
H3004 H 0.90205 0.61306 0.52371 0.0
H3005 H 0.88314 0.61455 0.51656 0.0
C3006 C 0.91704 0.67996 0.7674 0.0
C3007 C 0.93579 0.69284 0.76636 0.0
C3008 C 0.93303 0.70808 0.79938 0.0
C3009 C 0.91403 0.69621 0.79908 0.0
N3010 N 0.88748 0.67318 0.78025 0.0
N3011 N 0.96135 0.7207 0.77911 0.0
C3012 C 0.90589 0.68281 0.78234 0.0
C3013 C 0.94374 0.70736 0.78174 0.0
N3014 N 0.90999 0.66463 0.7547 0.0
N3015 N 0.94087 0.71963 0.81686 0.0
H3016 H 0.96959 0.72054 0.76643 0.0
H3017 H 0.96738 0.73261 0.78836 0.0
H3018 H 0.93342 0.72055 0.83002 0.0
H3019 H 0.9548 0.72725 0.81924 0.0
H3020 H 0.89684 0.65385 0.75657 0.0
H3021 H 0.91772 0.66186 0.7437 0.0
H3022 H 0.88089 0.66466 0.76688 0.0
H3023 H 0.87878 0.67497 0.79074 0.0
C3024 C 0.31576 0.2344 0.76303 0.0
C3025 C 0.30819 0.24548 0.76774 0.0
C3026 C 0.29858 0.23162 0.8045 0.0
C3027 C 0.3052 0.21982 0.79923 0.0
N3028 N 0.31779 0.20799 0.77271 0.0
N3029 N 0.29043 0.25338 0.7913 0.0
C3030 C 0.3131 0.22062 0.77823 0.0
C3031 C 0.29902 0.24373 0.78803 0.0
N3032 N 0.32604 0.23749 0.74435 0.0
N3033 N 0.29229 0.2315 0.82541 0.0
H3034 H 0.29077 0.26259 0.77971 0.0
H3035 H 0.28192 0.25141 0.80467 0.0
H3036 H 0.29128 0.22244 0.83764 0.0
H3037 H 0.28913 0.24107 0.83115 0.0
H3038 H 0.33372 0.23138 0.74125 0.0
H3039 H 0.32802 0.24721 0.73254 0.0
H3040 H 0.32161 0.20649 0.7568 0.0
H3041 H 0.31663 0.19804 0.78366 0.0
C3042 C 0.76801 0.07697 0.76187 0.0
C3043 C 0.75646 0.05829 0.76631 0.0
C3044 C 0.77075 0.0618 0.8026 0.0
C3045 C 0.78285 0.08027 0.79767 0.0
N3046 N 0.79523 0.10492 0.77151 0.0
N3047 N 0.74826 0.03213 0.78895 0.0
C3048 C 0.78217 0.08768 0.77692 0.0
C3049 C 0.75826 0.05045 0.78613 0.0
N3050 N 0.76497 0.08463 0.74371 0.0
N3051 N 0.77091 0.05528 0.82323 0.0
H3052 H 0.73886 0.02351 0.77729 0.0
H3053 H 0.75018 0.02529 0.80195 0.0
H3054 H 0.78024 0.06309 0.83543 0.0
H3055 H 0.76116 0.04253 0.8288 0.0
H3056 H 0.77147 0.09851 0.74097 0.0
H3057 H 0.75492 0.07722 0.73204 0.0
H3058 H 0.79672 0.11038 0.75572 0.0
H3059 H 0.80554 0.1134 0.78234 0.0
C3060 C 0.06584 0.3222 0.08251 0.0
C3061 C 0.07239 0.33165 0.06218 0.0
C3062 C 0.10187 0.33419 0.06849 0.0
C3063 C 0.09486 0.32357 0.08794 0.0
N3064 N 0.06958 0.305 0.11181 0.0
N3065 N 0.09546 0.34441 0.03398 0.0
C3066 C 0.07665 0.31687 0.09449 0.0
C3067 C 0.09009 0.33702 0.05463 0.0
N3068 N 0.04949 0.31882 0.09067 0.0
N3069 N 0.11989 0.34205 0.06367 0.0
H3070 H 0.08727 0.34691 0.02353 0.0
H3071 H 0.10744 0.34679 0.02649 0.0
H3072 H 0.12889 0.34014 0.07332 0.0
H3073 H 0.12622 0.35154 0.05113 0.0
H3074 H 0.04488 0.31383 0.10654 0.0
H3075 H 0.04106 0.32233 0.08227 0.0
H3076 H 0.05589 0.29808 0.11587 0.0
H3077 H 0.07714 0.30089 0.12111 0.0
C3078 C 0.65942 0.74766 0.06688 0.0
C3079 C 0.67262 0.74249 0.06357 0.0
C3080 C 0.69394 0.76755 0.08714 0.0
C3081 C 0.68124 0.77352 0.089 0.0
N3082 N 0.6535 0.77164 0.0768 0.0
N3083 N 0.70356 0.7494 0.0667 0.0
C3084 C 0.66444 0.76428 0.0777 0.0
C3085 C 0.69025 0.75302 0.07255 0.0
N3086 N 0.64191 0.73635 0.06053 0.0
N3087 N 0.70919 0.77527 0.09994 0.0
H3088 H 0.70139 0.73895 0.0559 0.0
H3089 H 0.7171 0.75775 0.07091 0.0
H3090 H 0.71234 0.7859 0.1109 0.0
H3091 H 0.71793 0.77015 0.10109 0.0
H3092 H 0.63133 0.73851 0.06474 0.0
H3093 H 0.6376 0.72395 0.05273 0.0
H3094 H 0.64199 0.76645 0.0669 0.0
H3095 H 0.65682 0.78393 0.08431 0.0
C3096 C 0.24676 0.91133 0.05772 0.0
C3097 C 0.25923 0.92909 0.06505 0.0
C3098 C 0.23996 0.92533 0.0971 0.0
C3099 C 0.22825 0.90709 0.09075 0.0
N3100 N 0.22156 0.88173 0.06703 0.0
N3101 N 0.26938 0.9523 0.09314 0.0
C3102 C 0.23193 0.8998 0.07158 0.0
C3103 C 0.25629 0.93591 0.08515 0.0
N3104 N 0.24887 0.90567 0.03727 0.0
N3105 N 0.23518 0.93265 0.11418 0.0
H3106 H 0.28146 0.96057 0.08474 0.0
H3107 H 0.26896 0.95712 0.10887 0.0
H3108 H 0.22339 0.92525 0.12347 0.0
H3109 H 0.2421 0.94638 0.11805 0.0
H3110 H 0.2392 0.89364 0.02991 0.0
H3111 H 0.25974 0.91368 0.02683 0.0
H3112 H 0.22472 0.8752 0.05474 0.0
H3113 H 0.21047 0.8729 0.07668 0.0
C3114 C 0.32467 0.08032 0.96924 0.0
C3115 C 0.326 0.06662 0.95755 0.0
C3116 C 0.3209 0.07766 0.92242 0.0
C3117 C 0.31803 0.09035 0.9343 0.0
N3118 N 0.31349 0.10131 0.96924 0.0
N3119 N 0.32131 0.0496 0.92376 0.0
C3120 C 0.31881 0.09095 0.95781 0.0
C3121 C 0.3229 0.06449 0.93434 0.0
N3122 N 0.32967 0.08365 0.99104 0.0
N3123 N 0.3225 0.07865 0.89983 0.0
H3124 H 0.32234 0.03945 0.93198 0.0
H3125 H 0.3172 0.04644 0.90731 0.0
H3126 H 0.32143 0.08828 0.89042 0.0
H3127 H 0.32654 0.07098 0.89057 0.0
H3128 H 0.33082 0.09473 0.99972 0.0
H3129 H 0.33422 0.07628 0.99995 0.0
H3130 H 0.31201 0.10086 0.98642 0.0
H3131 H 0.30889 0.10911 0.96141 0.0
C3132 C 0.9222 0.25896 0.93724 0.0
C3133 C 0.93404 0.25865 0.95344 0.0
C3134 C 0.92129 0.22615 0.94733 0.0
C3135 C 0.91081 0.22689 0.92961 0.0
N3136 N 0.90381 0.24463 0.90483 0.0
N3137 N 0.94726 0.24281 0.97124 0.0
C3138 C 0.91198 0.24349 0.92373 0.0
C3139 C 0.93426 0.24247 0.95777 0.0
N3140 N 0.92026 0.27381 0.93527 0.0
N3141 N 0.91843 0.20981 0.95468 0.0
H3142 H 0.9571 0.25454 0.97907 0.0
H3143 H 0.94929 0.23186 0.9731 0.0
H3144 H 0.90898 0.19754 0.94752 0.0
H3145 H 0.92428 0.20831 0.96905 0.0
H3146 H 0.91042 0.27406 0.92538 0.0
H3147 H 0.92733 0.28534 0.94509 0.0
H3148 H 0.9058 0.25681 0.89848 0.0
H3149 H 0.89638 0.23364 0.89431 0.0
C3150 C 0.73508 0.65483 0.93806 0.0
C3151 C 0.73543 0.66627 0.95535 0.0
C3152 C 0.76833 0.68503 0.9517 0.0
C3153 C 0.76767 0.67477 0.93284 0.0
N3154 N 0.75019 0.65167 0.90578 0.0
N3155 N 0.7518 0.69382 0.9766 0.0
C3156 C 0.75097 0.66011 0.9254 0.0
C3157 C 0.75191 0.68179 0.96169 0.0
N3158 N 0.71966 0.6387 0.93413 0.0
N3159 N 0.78466 0.69754 0.9604 0.0
H3160 H 0.74006 0.69195 0.9843 0.0
H3161 H 0.7631 0.70636 0.97997 0.0
H3162 H 0.79699 0.7003 0.95349 0.0
H3163 H 0.78603 0.70406 0.97549 0.0
H3164 H 0.71912 0.62892 0.92332 0.0
H3165 H 0.70777 0.63434 0.94319 0.0
H3166 H 0.7381 0.64224 0.89831 0.0
H3167 H 0.76152 0.65521 0.89593 0.0
C3168 C 0.92412 0.67643 0.96618 0.0
C3169 C 0.93635 0.67326 0.95374 0.0
C3170 C 0.92368 0.67694 0.91908 0.0
C3171 C 0.91238 0.68144 0.93153 0.0
N3172 N 0.90413 0.68884 0.96664 0.0
N3173 N 0.95044 0.67407 0.9187 0.0
C3174 C 0.91328 0.68218 0.95503 0.0
C3175 C 0.93693 0.67457 0.93026 0.0
N3176 N 0.9224 0.67332 0.98853 0.0
N3177 N 0.92129 0.67424 0.89669 0.0
H3178 H 0.96047 0.67245 0.92632 0.0
H3179 H 0.95268 0.67689 0.90182 0.0
H3180 H 0.91169 0.67577 0.88784 0.0
H3181 H 0.92774 0.66898 0.88715 0.0
H3182 H 0.91232 0.67347 0.99809 0.0
H3183 H 0.93013 0.66913 0.9973 0.0
H3184 H 0.90574 0.69149 0.98361 0.0
H3185 H 0.89612 0.69325 0.959 0.0
C3186 C 0.32518 0.24858 0.96657 0.0
C3187 C 0.32816 0.26424 0.95496 0.0
C3188 C 0.32426 0.24866 0.91948 0.0
C3189 C 0.31996 0.2326 0.93115 0.0
N3190 N 0.31267 0.21612 0.96561 0.0
N3191 N 0.32686 0.27818 0.92081 0.0
C3192 C 0.31933 0.23221 0.95467 0.0
C3193 C 0.3266 0.26398 0.93151 0.0
N3194 N 0.32859 0.2495 0.98882 0.0
N3195 N 0.32683 0.24953 0.89702 0.0
H3196 H 0.32841 0.2896 0.92909 0.0
H3197 H 0.32388 0.27793 0.90403 0.0
H3198 H 0.32537 0.23864 0.88758 0.0
H3199 H 0.33192 0.26147 0.88799 0.0
H3200 H 0.3286 0.23907 0.99768 0.0
H3201 H 0.33293 0.26126 0.99814 0.0
H3202 H 0.31013 0.21472 0.9826 0.0
H3203 H 0.3081 0.20381 0.95742 0.0
C3204 C 0.75483 0.07593 0.96657 0.0
C3205 C 0.73851 0.0642 0.95529 0.0
C3206 C 0.75364 0.07523 0.91945 0.0
C3207 C 0.77022 0.08609 0.93072 0.0
N3208 N 0.7875 0.09435 0.9646 0.0
N3209 N 0.72296 0.04992 0.92133 0.0
C3210 C 0.77108 0.08572 0.9542 0.0
C3211 C 0.73808 0.06302 0.93179 0.0
N3212 N 0.75466 0.07816 0.98902 0.0
N3213 N 0.75258 0.0771 0.89706 0.0
H3214 H 0.71127 0.04073 0.92982 0.0
H3215 H 0.7225 0.04712 0.90444 0.0
H3216 H 0.76369 0.08586 0.88738 0.0
H3217 H 0.74044 0.07106 0.88834 0.0
H3218 H 0.76568 0.088 0.99786 0.0
H3219 H 0.74302 0.0711 0.99867 0.0
H3220 H 0.78917 0.09303 0.98145 0.0
H3221 H 0.7997 0.1016 0.95603 0.0
C3222 C 0.68275 0.93817 0.07702 0.0
C3223 C 0.67085 0.9305 0.0587 0.0
C3224 C 0.66714 0.90077 0.06689 0.0
C3225 C 0.67955 0.9086 0.08468 0.0
N3226 N 0.70156 0.93499 0.10461 0.0
N3227 N 0.65416 0.90558 0.03364 0.0
C3228 C 0.6881 0.92741 0.0891 0.0
C3229 C 0.66377 0.91209 0.05286 0.0
N3230 N 0.68839 0.95556 0.08336 0.0
N3231 N 0.65816 0.88243 0.06387 0.0
H3232 H 0.65136 0.91352 0.0231 0.0
H3233 H 0.65019 0.89283 0.02718 0.0
H3234 H 0.66061 0.87377 0.07347 0.0
H3235 H 0.64744 0.87563 0.05287 0.0
H3236 H 0.69522 0.96129 0.09809 0.0
H3237 H 0.6852 0.96403 0.07453 0.0
H3238 H 0.7097 0.94887 0.10696 0.0
H3239 H 0.70559 0.92744 0.11407 0.0
C3240 C 0.06135 0.7475 0.07566 0.0
C3241 C 0.0701 0.74224 0.05974 0.0
C3242 C 0.09963 0.76755 0.07065 0.0
C3243 C 0.09085 0.77302 0.08625 0.0
N3244 N 0.06356 0.77034 0.10153 0.0
N3245 N 0.09681 0.74841 0.03928 0.0
C3246 C 0.07174 0.76364 0.08809 0.0
C3247 C 0.08904 0.75267 0.05636 0.0
N3248 N 0.04319 0.73672 0.07932 0.0
N3249 N 0.11812 0.77627 0.07001 0.0
H3250 H 0.08947 0.73735 0.02882 0.0
H3251 H 0.11022 0.75649 0.03438 0.0
H3252 H 0.12632 0.78762 0.07967 0.0
H3253 H 0.12542 0.77173 0.06094 0.0
H3254 H 0.0363 0.73849 0.09245 0.0
H3255 H 0.03502 0.72526 0.06984 0.0
H3256 H 0.04967 0.7653 0.10191 0.0
H3257 H 0.07079 0.78186 0.11132 0.0
C3258 C 0.25661 0.31843 0.08097 0.0
C3259 C 0.26263 0.3323 0.06477 0.0
C3260 C 0.23749 0.33725 0.07376 0.0
C3261 C 0.23127 0.32313 0.08964 0.0
N3262 N 0.23293 0.29849 0.10646 0.0
N3263 N 0.25784 0.35316 0.04315 0.0
C3264 C 0.24024 0.31316 0.09265 0.0
C3265 C 0.25273 0.34116 0.06035 0.0
N3266 N 0.26685 0.31066 0.08554 0.0
N3267 N 0.2291 0.34722 0.07202 0.0
H3268 H 0.26925 0.35672 0.03342 0.0
H3269 H 0.25021 0.35869 0.03746 0.0
H3270 H 0.2175 0.34431 0.08097 0.0
H3271 H 0.23411 0.359 0.0627 0.0
H3272 H 0.26453 0.30211 0.09892 0.0
H3273 H 0.27839 0.3135 0.07652 0.0
H3274 H 0.23763 0.28943 0.10767 0.0
H3275 H 0.22126 0.29459 0.11581 0.0
C3276 C 0.73836 0.65178 0.39214 0.0
C3277 C 0.73462 0.66482 0.40142 0.0
C3278 C 0.75217 0.66706 0.43454 0.0
C3279 C 0.75701 0.65507 0.42453 0.0
N3280 N 0.75709 0.63794 0.39275 0.0
N3281 N 0.73995 0.68699 0.42961 0.0
C3282 C 0.75077 0.64796 0.40301 0.0
C3283 C 0.74209 0.67307 0.42213 0.0
N3284 N 0.7296 0.64267 0.3733 0.0
N3285 N 0.75678 0.67229 0.45613 0.0
H3286 H 0.73255 0.69168 0.42101 0.0
H3287 H 0.74667 0.69488 0.44337 0.0
H3288 H 0.76435 0.66833 0.46565 0.0
H3289 H 0.75196 0.67938 0.46517 0.0
H3290 H 0.73015 0.63159 0.36709 0.0
H3291 H 0.72061 0.64529 0.36468 0.0
H3292 H 0.75467 0.63407 0.37616 0.0
H3293 H 0.76595 0.63459 0.40036 0.0
C3294 C 0.33047 0.08435 0.39244 0.0
C3295 C 0.33825 0.07376 0.39859 0.0
C3296 C 0.35472 0.09469 0.42899 0.0
C3297 C 0.34755 0.1057 0.42223 0.0
N3298 N 0.33082 0.11279 0.396 0.0
N3299 N 0.35979 0.06991 0.42011 0.0
C3300 C 0.3361 0.10107 0.40344 0.0
C3301 C 0.35099 0.07926 0.41612 0.0
N3302 N 0.31728 0.0781 0.37656 0.0
N3303 N 0.36467 0.09876 0.44805 0.0
H3304 H 0.35717 0.05835 0.41127 0.0
H3305 H 0.37062 0.0743 0.431 0.0
H3306 H 0.36825 0.11033 0.45746 0.0
H3307 H 0.36846 0.09016 0.45537 0.0
H3308 H 0.30957 0.08407 0.37304 0.0
H3309 H 0.31315 0.06612 0.36777 0.0
H3310 H 0.32413 0.11121 0.38105 0.0
H3311 H 0.33424 0.1249 0.40404 0.0
C3312 C 0.92156 0.27144 0.40885 0.0
C3313 C 0.9317 0.26427 0.39898 0.0
C3314 C 0.90959 0.23399 0.41219 0.0
C3315 C 0.90055 0.24152 0.42398 0.0
N3316 N 0.89936 0.2677 0.43652 0.0
N3317 N 0.93709 0.2394 0.39377 0.0
C3318 C 0.90692 0.26034 0.42312 0.0
C3319 C 0.92618 0.24571 0.40129 0.0
N3320 N 0.92562 0.2887 0.40405 0.0
N3321 N 0.90205 0.21563 0.41087 0.0
H3322 H 0.94933 0.24757 0.38563 0.0
H3323 H 0.93477 0.22648 0.39717 0.0
H3324 H 0.88991 0.20661 0.41866 0.0
H3325 H 0.90699 0.20931 0.40057 0.0
H3326 H 0.91754 0.29402 0.40886 0.0
H3327 H 0.93621 0.29723 0.39355 0.0
H3328 H 0.90472 0.28158 0.43843 0.0
H3329 H 0.8886 0.26 0.44724 0.0
C3330 C 0.98459 0.39868 0.27679 0.0
C3331 C 0.00136 0.40467 0.28763 0.0
C3332 C 0.01185 0.43571 0.2756 0.0
C3333 C 0.99597 0.42934 0.26263 0.0
N3334 N 0.96834 0.40445 0.24814 0.0
N3335 N 0.03208 0.42823 0.29475 0.0
C3336 C 0.98259 0.41073 0.26251 0.0
C3337 C 0.01531 0.42303 0.2864 0.0
N3338 N 0.97046 0.38162 0.28056 0.0
N3339 N 0.02339 0.45388 0.27803 0.0
H3340 H 0.03518 0.41934 0.30275 0.0
H3341 H 0.04331 0.44098 0.29213 0.0
H3342 H 0.02125 0.46359 0.27045 0.0
H3343 H 0.03418 0.45935 0.28911 0.0
H3344 H 0.95737 0.37712 0.27495 0.0
H3345 H 0.97141 0.37244 0.29101 0.0
H3346 H 0.95927 0.39075 0.24555 0.0
H3347 H 0.96642 0.41284 0.23736 0.0
C3348 C 0.60383 0.58421 0.28413 0.0
C3349 C 0.60555 0.60098 0.27792 0.0
C3350 C 0.59182 0.58792 0.24211 0.0
C3351 C 0.58597 0.5704 0.25066 0.0
N3352 N 0.6002 0.55624 0.26986 0.0
N3353 N 0.60132 0.61906 0.25049 0.0
C3354 C 0.59576 0.56946 0.26908 0.0
C3355 C 0.59966 0.60296 0.2567 0.0
N3356 N 0.60994 0.5823 0.30427 0.0
N3357 N 0.59275 0.59056 0.21973 0.0
H3358 H 0.60703 0.63046 0.26072 0.0
H3359 H 0.59567 0.62054 0.2359 0.0
H3360 H 0.59017 0.58013 0.20864 0.0
H3361 H 0.59848 0.60333 0.2125 0.0
H3362 H 0.60732 0.5698 0.31029 0.0
H3363 H 0.61647 0.59294 0.31554 0.0
H3364 H 0.60875 0.55582 0.28183 0.0
H3365 H 0.59753 0.54741 0.25655 0.0
C3366 C 0.41447 0.00182 0.29982 0.0
C3367 C 0.39769 0.9949 0.28868 0.0
C3368 C 0.41132 0.99222 0.25415 0.0
C3369 C 0.42839 0.00044 0.26484 0.0
N3370 N 0.447 0.01511 0.29677 0.0
N3371 N 0.38021 0.98552 0.25495 0.0
C3372 C 0.43019 0.00579 0.28742 0.0
C3373 C 0.39612 0.99063 0.26575 0.0
N3374 N 0.41524 0.00421 0.32232 0.0
N3375 N 0.4096 0.98553 0.23309 0.0
H3376 H 0.36861 0.98374 0.26301 0.0
H3377 H 0.37877 0.98424 0.2378 0.0
H3378 H 0.42052 0.98678 0.2239 0.0
H3379 H 0.39722 0.9776 0.22527 0.0
H3380 H 0.42658 0.00733 0.33182 0.0
H3381 H 0.40404 0.00178 0.33185 0.0
H3382 H 0.44948 0.02114 0.31236 0.0
H3383 H 0.45879 0.01797 0.28828 0.0
C3384 C 0.59041 0.98969 0.2668 0.0
C3385 C 0.59287 0.99407 0.28972 0.0
C3386 C 0.57155 0.00522 0.28771 0.0
C3387 C 0.56826 -0.0002 0.26514 0.0
N3388 N 0.57228 0.98459 0.2338 0.0
N3389 N 0.58428 0.00356 0.32298 0.0
C3390 C 0.57705 0.99138 0.25484 0.0
C3391 C 0.58299 0.00114 0.30048 0.0
N3392 N 0.60123 0.98441 0.25635 0.0
N3393 N 0.56413 0.01471 0.29671 0.0
H3394 H 0.59277 0.00099 0.33277 0.0
H3395 H 0.57601 0.00682 0.33221 0.0
H3396 H 0.55545 0.01767 0.28794 0.0
H3397 H 0.56754 0.02079 0.31228 0.0
H3398 H 0.60159 0.98305 0.23923 0.0
H3399 H 0.61087 0.98257 0.26466 0.0
H3400 H 0.57666 0.97651 0.22626 0.0
H3401 H 0.56281 0.98591 0.22435 0.0
C3402 C 0.00701 0.58611 0.29633 0.0
C3403 C 0.00491 0.59993 0.28635 0.0
C3404 C 0.99502 0.58254 0.25178 0.0
C3405 C 0.99887 0.56962 0.26104 0.0
N3406 N 0.01152 0.56061 0.29071 0.0
N3407 N 0.00016 0.61305 0.25347 0.0
C3408 C 0.00569 0.5718 0.28295 0.0
C3409 C -0.00019 0.59864 0.26374 0.0
N3410 N 0.00972 0.58637 0.3187 0.0
N3411 N 0.98629 0.57917 0.23185 0.0
H3412 H 0.00378 0.62518 0.26159 0.0
H3413 H 0.99848 0.61359 0.23644 0.0
H3414 H 0.98242 0.56743 0.22265 0.0
H3415 H 0.98143 0.58719 0.22541 0.0
H3416 H 0.00941 0.57566 0.32726 0.0
H3417 H 0.01072 0.59662 0.32905 0.0
H3418 H 0.01842 0.56276 0.30564 0.0
H3419 H 0.01092 0.55005 0.28136 0.0
C3420 C 0.41432 0.42545 0.29215 0.0
C3421 C 0.40675 0.4065 0.28974 0.0
C3422 C 0.4311 0.41126 0.26411 0.0
C3423 C 0.43791 0.43017 0.26528 0.0
N3424 N 0.43589 0.45559 0.27896 0.0
N3425 N 0.40687 0.38095 0.27293 0.0
C3426 C 0.42952 0.43737 0.27899 0.0
C3427 C 0.4149 0.39928 0.27564 0.0
N3428 N 0.40703 0.432 0.30721 0.0
N3429 N 0.44031 0.40482 0.25216 0.0
H3430 H 0.39558 0.37172 0.282 0.0
H3431 H 0.41073 0.37475 0.26098 0.0
H3432 H 0.45179 0.41311 0.24275 0.0
H3433 H 0.43734 0.39145 0.2525 0.0
H3434 H 0.41295 0.44556 0.31165 0.0
H3435 H 0.39546 0.42369 0.31645 0.0
H3436 H 0.42928 0.46163 0.28645 0.0
H3437 H 0.44749 0.4648 0.27035 0.0
C3438 C 0.35401 0.27532 0.41477 0.0
C3439 C 0.34244 0.26834 0.39607 0.0
C3440 C 0.33888 0.23842 0.40223 0.0
C3441 C 0.35104 0.24559 0.42037 0.0
N3442 N 0.37259 0.27119 0.44182 0.0
N3443 N 0.32625 0.24444 0.36955 0.0
C3444 C 0.35936 0.26418 0.42599 0.0
C3445 C 0.3356 0.25022 0.38904 0.0
N3446 N 0.35933 0.29239 0.42227 0.0
N3447 N 0.33001 0.22022 0.39813 0.0
H3448 H 0.32341 0.25269 0.35965 0.0
H3449 H 0.32251 0.232 0.36226 0.0
H3450 H 0.33238 0.21121 0.4071 0.0
H3451 H 0.31944 0.21382 0.38685 0.0
H3452 H 0.36599 0.29753 0.43726 0.0
H3453 H 0.356 0.30111 0.41424 0.0
H3454 H 0.38056 0.28497 0.44507 0.0
H3455 H 0.37663 0.26334 0.45061 0.0
C3456 C 0.73188 0.07367 0.42286 0.0
C3457 C 0.73269 0.0733 0.39937 0.0
C3458 C 0.75582 0.10544 0.39912 0.0
C3459 C 0.75655 0.10517 0.42262 0.0
N3460 N 0.74744 0.08826 0.45685 0.0
N3461 N 0.74725 0.08797 0.3651 0.0
C3462 C 0.74514 0.08908 0.43453 0.0
C3463 C 0.74513 0.08897 0.38744 0.0
N3464 N 0.71814 0.05949 0.434 0.0
N3465 N 0.76496 0.1215 0.38802 0.0
H3466 H 0.73977 0.07612 0.35595 0.0
H3467 H 0.75748 0.09844 0.35595 0.0
H3468 H 0.7728 0.13385 0.39607 0.0
H3469 H 0.76345 0.12279 0.37111 0.0
H3470 H 0.71578 0.05983 0.4509 0.0
H3471 H 0.70804 0.04802 0.42601 0.0
H3472 H 0.74084 0.0763 0.46592 0.0
H3473 H 0.75713 0.09918 0.46605 0.0
C3474 C 0.92709 0.65762 0.42331 0.0
C3475 C 0.92771 0.65889 0.39983 0.0
C3476 C 0.89541 0.64899 0.3989 0.0
C3477 C 0.89528 0.6496 0.42242 0.0
N3478 N 0.91145 0.65703 0.45714 0.0
N3479 N 0.91335 0.65829 0.36522 0.0
C3480 C 0.91125 0.65457 0.43469 0.0
C3481 C 0.91209 0.65522 0.38757 0.0
N3482 N 0.94147 0.65884 0.43467 0.0
N3483 N 0.87951 0.64199 0.38745 0.0
H3484 H 0.92533 0.66278 0.35631 0.0
H3485 H 0.90293 0.65779 0.35577 0.0
H3486 H 0.86702 0.63727 0.39522 0.0
H3487 H 0.87846 0.6394 0.37047 0.0
H3488 H 0.94109 0.65607 0.45154 0.0
H3489 H 0.95334 0.66108 0.4269 0.0
H3490 H 0.9232 0.6626 0.46663 0.0
H3491 H 0.90011 0.6549 0.46613 0.0
C3492 C 0.39779 0.98744 0.74324 0.0
C3493 C 0.4044 0.00438 0.73258 0.0
C3494 C 0.43523 0.01361 0.74446 0.0
C3495 C 0.42833 0.99742 0.75692 0.0
N3496 N 0.40287 0.97007 0.77103 0.0
N3497 N 0.42878 0.03466 0.72537 0.0
C3498 C 0.40955 0.98461 0.75708 0.0
C3499 C 0.42297 0.01777 0.73377 0.0
N3500 N 0.38039 0.97389 0.73965 0.0
N3501 N 0.4535 0.02477 0.74236 0.0
H3502 H 0.42022 0.03816 0.71727 0.0
H3503 H 0.44173 0.04559 0.72792 0.0
H3504 H 0.46288 0.02219 0.75005 0.0
H3505 H 0.45939 0.03575 0.73159 0.0
H3506 H 0.37536 0.96065 0.74502 0.0
H3507 H 0.37135 0.97547 0.72964 0.0
H3508 H 0.38912 0.96137 0.77373 0.0
H3509 H 0.41107 0.96749 0.78138 0.0
C3510 C 0.01163 0.412 0.74735 0.0
C3511 C 0.99411 0.39969 0.73915 0.0
C3512 C 0.98279 0.41893 0.75366 0.0
C3513 C -0.00016 0.43025 0.76372 0.0
N3514 N 0.02951 0.43581 0.77366 0.0
N3515 N 0.96224 0.38961 0.73764 0.0
C3516 C 0.01401 0.4263 0.76156 0.0
C3517 C 0.97944 0.40264 0.74317 0.0
N3518 N 0.02611 0.41039 0.74098 0.0
N3519 N 0.96999 0.42403 0.7535 0.0
H3520 H 0.95924 0.37746 0.73 0.0
H3521 H 0.9508 0.39014 0.74233 0.0
H3522 H 0.97196 0.43591 0.76094 0.0
H3523 H 0.95807 0.41732 0.74437 0.0
H3524 H 0.03945 0.42008 0.74452 0.0
H3525 H 0.02495 0.4002 0.7304 0.0
H3526 H 0.03949 0.43226 0.77458 0.0
H3527 H 0.0317 0.4463 0.78442 0.0
C3528 C 0.58394 0.58318 0.72063 0.0
C3529 C 0.59913 0.59698 0.73202 0.0
C3530 C 0.58318 0.58625 0.76746 0.0
C3531 C 0.5674 0.57364 0.75585 0.0
N3532 N 0.55165 0.56217 0.72117 0.0
N3533 N 0.61218 0.61392 0.76567 0.0
C3534 C 0.56746 0.57267 0.73234 0.0
C3535 C 0.59848 0.59916 0.75529 0.0
N3536 N 0.58542 0.57975 0.6988 0.0
N3537 N 0.58377 0.58552 0.79008 0.0
H3538 H 0.62356 0.62379 0.75733 0.0
H3539 H 0.61151 0.61723 0.78215 0.0
H3540 H 0.57288 0.57618 0.79961 0.0
H3541 H 0.59555 0.59309 0.79924 0.0
H3542 H 0.57539 0.56864 0.69025 0.0
H3543 H 0.59732 0.58711 0.68969 0.0
H3544 H 0.55052 0.56241 0.704 0.0
H3545 H 0.53926 0.5544 0.72917 0.0
C3546 C 0.66371 0.74847 0.6324 0.0
C3547 C 0.66434 0.73423 0.62109 0.0
C3548 C 0.65832 0.7444 0.58586 0.0
C3549 C 0.65613 0.75763 0.59745 0.0
N3550 N 0.65283 0.76969 0.63225 0.0
N3551 N 0.65816 0.71607 0.58802 0.0
C3552 C 0.65765 0.7589 0.62091 0.0
C3553 C 0.66042 0.73142 0.59808 0.0
N3554 N 0.66956 0.7525 0.65385 0.0
N3555 N 0.65918 0.74467 0.5632 0.0
H3556 H 0.65922 0.70604 0.59652 0.0
H3557 H 0.65348 0.71246 0.57183 0.0
H3558 H 0.65802 0.75415 0.55358 0.0
H3559 H 0.6627 0.73655 0.55405 0.0
H3560 H 0.67122 0.76395 0.66211 0.0
H3561 H 0.67434 0.74534 0.66278 0.0
H3562 H 0.65193 0.76974 0.64948 0.0
H3563 H 0.64804 0.77731 0.62441 0.0
C3564 C 0.25514 0.91188 0.63787 0.0
C3565 C 0.26528 0.9283 0.62604 0.0
C3566 C 0.25153 0.91284 0.5911 0.0
C3567 C 0.24236 0.89618 0.60271 0.0
N3568 N 0.23739 0.87912 0.63633 0.0
N3569 N 0.2757 0.94413 0.59125 0.0
C3570 C 0.24472 0.89549 0.6259 0.0
C3571 C 0.26421 0.9287 0.60258 0.0
N3572 N 0.25509 0.91206 0.66055 0.0
N3573 N 0.24764 0.91359 0.56927 0.0
H3574 H 0.28507 0.9561 0.59909 0.0
H3575 H 0.277 0.9447 0.57405 0.0
H3576 H 0.23854 0.90224 0.56018 0.0
H3577 H 0.25232 0.92564 0.56058 0.0
H3578 H 0.24646 0.90092 0.67018 0.0
H3579 H 0.26276 0.92379 0.66985 0.0
H3580 H 0.24018 0.87756 0.65271 0.0
H3581 H 0.2296 0.86685 0.62807 0.0
C3582 C 0.07393 0.32219 0.61916 0.0
C3583 C 0.06977 0.33613 0.62236 0.0
C3584 C 0.0957 0.3566 0.59931 0.0
C3585 C 0.10074 0.34317 0.59774 0.0
N3586 N 0.09678 0.3145 0.60969 0.0
N3587 N 0.0784 0.36757 0.6191 0.0
C3588 C 0.09047 0.32633 0.60871 0.0
C3589 C 0.08116 0.35365 0.61348 0.0
N3590 N 0.06178 0.30485 0.62534 0.0
N3591 N 0.10435 0.37189 0.58665 0.0
H3592 H 0.06795 0.36595 0.62956 0.0
H3593 H 0.08739 0.38101 0.61503 0.0
H3594 H 0.11501 0.37451 0.57598 0.0
H3595 H 0.09997 0.38121 0.58526 0.0
H3596 H 0.0632 0.2938 0.62122 0.0
H3597 H 0.04944 0.30122 0.63291 0.0
H3598 H 0.09085 0.30288 0.61943 0.0
H3599 H 0.10893 0.31712 0.6024 0.0
C3600 C 0.24231 0.32255 0.62946 0.0
C3601 C 0.26123 0.33318 0.62593 0.0
C3602 C 0.25674 0.35251 0.5998 0.0
C3603 C 0.23777 0.34093 0.60185 0.0
N3604 N 0.2121 0.31463 0.61752 0.0
N3605 N 0.28683 0.35773 0.60756 0.0
C3606 C 0.23043 0.32591 0.6165 0.0
C3607 C 0.26856 0.34811 0.61115 0.0
N3608 N 0.23578 0.30939 0.64538 0.0
N3609 N 0.26339 0.3678 0.58713 0.0
H3610 H 0.29597 0.35554 0.6165 0.0
H3611 H 0.293 0.36731 0.59509 0.0
H3612 H 0.25517 0.37107 0.57784 0.0
H3613 H 0.27693 0.37789 0.58676 0.0
H3614 H 0.22235 0.30233 0.65049 0.0
H3615 H 0.24408 0.30623 0.65468 0.0
H3616 H 0.20584 0.3023 0.62579 0.0
H3617 H 0.20297 0.31714 0.60906 0.0
C3618 C 0.64028 0.91277 0.62152 0.0
C3619 C 0.65671 0.92187 0.6336 0.0
C3620 C 0.65957 0.89493 0.63078 0.0
C3621 C 0.64633 0.88826 0.61379 0.0
N3622 N 0.6162 0.88337 0.61033 0.0
N3623 N 0.68179 0.92116 0.65095 0.0
C3624 C 0.63417 0.89495 0.61376 0.0
C3625 C 0.6662 0.91274 0.63888 0.0
N3626 N 0.63049 0.92106 0.61738 0.0
N3627 N 0.66382 0.88345 0.64126 0.0
H3628 H 0.68709 0.93422 0.6573 0.0
H3629 H 0.69007 0.91559 0.65322 0.0
H3630 H 0.657 0.86963 0.63767 0.0
H3631 H 0.67216 0.88715 0.65516 0.0
H3632 H 0.61943 0.91558 0.60667 0.0
H3633 H 0.63406 0.93382 0.6236 0.0
H3634 H 0.60643 0.88716 0.61204 0.0
H3635 H 0.61098 0.86943 0.6092 0.0
C3636 C 0.07307 0.72713 0.60037 0.0
C3637 C 0.06779 0.73359 0.61899 0.0
C3638 C 0.09395 0.76394 0.61375 0.0
C3639 C 0.09982 0.75721 0.596 0.0
N3640 N 0.0967 0.73219 0.57409 0.0
N3641 N 0.07404 0.75717 0.64548 0.0
C3642 C 0.08985 0.73872 0.58977 0.0
C3643 C 0.0785 0.75174 0.6263 0.0
N3644 N 0.06179 0.71003 0.59254 0.0
N3645 N 0.10287 0.7821 0.61815 0.0
H3646 H 0.06256 0.7487 0.65479 0.0
H3647 H 0.08233 0.76959 0.65308 0.0
H3648 H 0.11444 0.7914 0.60956 0.0
H3649 H 0.09816 0.78818 0.62918 0.0
H3650 H 0.0638 0.70519 0.57758 0.0
H3651 H 0.04964 0.70096 0.60027 0.0
H3652 H 0.09116 0.7185 0.57051 0.0
H3653 H 0.10879 0.74037 0.56566 0.0
C3654 C 0.01012 0.60144 0.74518 0.0
C3655 C 0.99455 0.59463 0.73152 0.0
C3656 C 0.98497 0.5636 0.74301 0.0
C3657 C 0.00084 0.57037 0.75611 0.0
N3658 N 0.02963 0.59508 0.76797 0.0
N3659 N 0.96824 0.56953 0.715 0.0
C3660 C 0.01376 0.58913 0.75667 0.0
C3661 C 0.9823 0.57576 0.72969 0.0
N3662 N 0.02116 0.61973 0.74755 0.0
N3663 N 0.97227 0.5456 0.74379 0.0
H3664 H 0.96549 0.57807 0.70559 0.0
H3665 H 0.95992 0.55595 0.71101 0.0
H3666 H 0.97411 0.53619 0.75266 0.0
H3667 H 0.95948 0.54001 0.73675 0.0
H3668 H 0.03147 0.6257 0.75922 0.0
H3669 H 0.01944 0.62916 0.73858 0.0
H3670 H 0.04052 0.60823 0.7671 0.0
H3671 H 0.03246 0.58655 0.7773 0.0
C3672 C 0.40107 0.40266 0.75465 0.0
C3673 C 0.40071 0.40343 0.73116 0.0
C3674 C 0.42312 0.43579 0.73206 0.0
C3675 C 0.42468 0.43462 0.75534 0.0
N3676 N 0.41721 0.41667 0.78863 0.0
N3677 N 0.41281 0.41981 0.69705 0.0
C3678 C 0.4142 0.41797 0.76662 0.0
C3679 C 0.41213 0.41976 0.71971 0.0
N3680 N 0.38854 0.38744 0.76552 0.0
N3681 N 0.43175 0.4523 0.72189 0.0
H3682 H 0.40475 0.40837 0.68745 0.0
H3683 H 0.42229 0.43076 0.68778 0.0
H3684 H 0.44 0.46432 0.73041 0.0
H3685 H 0.42962 0.45432 0.70541 0.0
H3686 H 0.38679 0.38675 0.78265 0.0
H3687 H 0.37882 0.37587 0.7573 0.0
H3688 H 0.41148 0.40446 0.7972 0.0
H3689 H 0.4266 0.42764 0.79804 0.0
C3690 C 0.59321 0.99233 0.75181 0.0
C3691 C 0.59807 0.00333 0.73257 0.0
C3692 C 0.57262 0.00841 0.73846 0.0
C3693 C 0.56709 0.99648 0.75686 0.0
N3694 N 0.57024 0.97497 0.77936 0.0
N3695 N 0.59143 0.01987 0.70556 0.0
C3696 C 0.57686 0.98783 0.76307 0.0
C3697 C 0.58747 0.0108 0.72529 0.0
N3698 N 0.60448 0.98661 0.75964 0.0
N3699 N 0.56401 0.01788 0.73406 0.0
H3700 H 0.60246 0.02222 0.69574 0.0
H3701 H 0.58311 0.02394 0.69808 0.0
H3702 H 0.55292 0.01628 0.74316 0.0
H3703 H 0.56861 0.02826 0.72247 0.0
H3704 H 0.60282 0.98036 0.77495 0.0
H3705 H 0.61635 0.98923 0.75153 0.0
H3706 H 0.57561 0.96674 0.78304 0.0
H3707 H 0.55843 0.97151 0.7882 0.0
loop_
_geom_bond_atom_site_label_1
_geom_bond_atom_site_label_2
_geom_bond_distance
_geom_bond_site_symmetry_2
_ccdc_geom_bond_type
Li0 N17 1.990 1_554 S
Li0 O60 1.956 . S
Li0 O61 1.970 1_654 S
Li0 O62 1.963 . S
Li1 N25 1.990 . S
Li1 O60 1.970 1_455 S
Li1 O61 1.956 1_554 S
Li1 O63 1.961 . S
Li2 N47 1.990 . S
Li2 O60 1.961 . S
Li2 O62 1.982 . S
Li2 O63 1.970 1_655 S
Li3 N53 1.990 . S
Li3 O61 1.961 . S
Li3 O62 1.961 1_456 S
Li3 O63 1.956 1_556 S
C4 C6 1.388 . S
C4 C7 1.356 . S
C4 O60 1.325 . S
N5 C8 1.314 . S
N5 C9 1.279 . S
C6 C4 1.388 . S
C6 C8 1.355 . S
C6 H64 0.889 1_655 S
C7 C4 1.356 . S
C7 C9 1.358 . S
C7 H65 0.930 . S
C8 N5 1.314 . S
C8 C6 1.355 . S
C8 H66 0.929 . S
C9 N5 1.279 . S
C9 C7 1.358 . S
C9 H67 0.930 . S
C10 C13 1.348 . S
C10 C14 1.356 . S
C10 O61 1.325 . S
C11 N12 1.279 . S
C11 C14 1.358 . S
C11 H68 0.930 . S
N12 C11 1.279 . S
N12 C15 1.314 . S
C13 C10 1.348 . S
C13 C15 1.353 . S
C13 H69 0.929 1_455 S
C14 C10 1.356 . S
C14 C11 1.358 . S
C14 H70 0.930 . S
C15 N12 1.314 . S
C15 C13 1.353 . S
C15 H71 0.930 . S
C16 N17 1.314 . S
C16 C21 1.353 . S
C16 H22 0.930 . S
N17 Li0 1.990 1_556 S
N17 C16 1.314 . S
N17 C19 1.279 1_556 S
C18 C19 1.352 1_556 S
C18 C20 1.377 . S
C18 H72 0.915 1_556 S
C19 N17 1.279 1_554 S
C19 C18 1.352 1_554 S
C19 H23 0.930 . S
C20 C18 1.377 . S
C20 C21 1.348 . S
C21 C16 1.353 . S
C21 C20 1.348 . S
C21 H73 0.929 . S
H22 C16 0.930 . S
H23 C19 0.930 . S
C24 N25 1.314 . S
C24 C26 1.353 . S
C24 H30 0.930 . S
N25 Li1 1.990 . S
N25 C24 1.314 . S
N25 C28 1.279 . S
C26 C24 1.353 . S
C26 C29 1.348 . S
C26 H74 0.929 . S
C27 C28 1.358 . S
C27 C29 1.356 . S
C27 H75 0.930 . S
C28 N25 1.279 . S
C28 C27 1.358 . S
C28 H31 0.942 . S
C29 C26 1.348 . S
C29 C27 1.356 . S
H30 C24 0.930 . S
H31 C28 0.942 . S
C32 C34 1.348 . S
C32 C35 1.356 1_556 S
C32 O62 1.318 1_556 S
N33 C36 1.314 . S
N33 C37 1.279 . S
C34 C32 1.348 . S
C34 C36 1.353 . S
C34 H76 0.929 . S
C35 C32 1.356 1_554 S
C35 C37 1.358 1_554 S
C35 H77 0.930 . S
C36 N33 1.314 . S
C36 C34 1.353 . S
C36 H78 0.930 . S
C37 N33 1.279 . S
C37 C35 1.358 1_556 S
C37 H79 0.930 1_556 S
C38 C39 1.348 . S
C38 C40 1.356 . S
C38 O63 1.325 . S
C39 C38 1.348 . S
C39 C41 1.353 . S
C39 H80 0.929 . S
C40 C38 1.356 . S
C40 C42 1.358 . S
C40 H81 0.930 . S
C41 C39 1.353 . S
C41 N43 1.314 . S
C41 H82 0.930 . S
C42 C40 1.358 . S
C42 N43 1.279 . S
C42 H83 0.930 . S
N43 C41 1.314 . S
N43 C42 1.279 . S
C44 C46 1.353 . S
C44 N47 1.314 . S
C44 H50 0.930 . S
C45 N47 1.279 . S
C45 C48 1.358 . S
C45 H51 0.930 . S
C46 C44 1.353 . S
C46 C49 1.348 . S
C46 H84 0.929 . S
N47 Li2 1.990 . S
N47 C44 1.314 . S
N47 C45 1.279 . S
C48 C45 1.358 . S
C48 C49 1.356 . S
C48 H85 0.930 . S
C49 C46 1.348 . S
C49 C48 1.356 . S
H50 C44 0.930 . S
H51 C45 0.930 . S
C52 N53 1.314 . S
C52 C54 1.353 . S
C52 H58 0.930 . S
N53 Li3 1.990 . S
N53 C52 1.314 . S
N53 C56 1.279 . S
C54 C52 1.353 . S
C54 C57 1.348 . S
C54 H86 0.929 . S
C55 C56 1.358 . S
C55 C57 1.356 . S
C55 H87 0.930 . S
C56 N53 1.279 . S
C56 C55 1.358 . S
C56 H59 0.930 . S
C57 C54 1.348 . S
C57 C55 1.356 . S
H58 C52 0.930 . S
H59 C56 0.930 . S
O60 Li0 1.956 . S
O60 Li1 1.970 1_655 S
O60 Li2 1.961 . S
O60 C4 1.325 . S
O61 Li0 1.970 1_456 S
O61 Li1 1.956 1_556 S
O61 Li3 1.961 . S
O61 C10 1.325 . S
O62 Li0 1.963 . S
O62 Li2 1.982 . S
O62 Li3 1.961 1_654 S
O62 C32 1.318 1_554 S
O63 Li1 1.961 . S
O63 Li2 1.970 1_455 S
O63 Li3 1.956 1_554 S
O63 C38 1.325 . S
H64 C6 0.889 1_455 S
H65 C7 0.930 . S
H66 C8 0.929 . S
H67 C9 0.930 . S
H68 C11 0.930 . S
H69 C13 0.929 1_655 S
H70 C14 0.930 . S
H71 C15 0.930 . S
H72 C18 0.915 1_554 S
H73 C21 0.929 . S
H74 C26 0.929 . S
H75 C27 0.930 . S
H76 C34 0.929 . S
H77 C35 0.930 . S
H78 C36 0.930 . S
H79 C37 0.930 1_554 S
H80 C39 0.929 . S
H81 C40 0.930 . S
H82 C41 0.930 . S
H83 C42 0.930 . S
H84 C46 0.929 . S
H85 C48 0.930 . S
H86 C54 0.929 . S
H87 C55 0.930 . S
Li88 N105 1.982 1_554 S
Li88 O148 1.982 . S
Li88 O149 1.960 1_554 S
Li88 O150 1.959 1_554 S
Li89 N113 1.990 . S
Li89 O148 1.970 . S
Li89 O149 1.956 1_554 S
Li89 O151 1.961 . S
Li90 N135 1.990 . S
Li90 O148 1.961 . S
Li90 O150 1.956 1_554 S
Li90 O151 1.970 . S
Li91 N141 1.990 . S
Li91 O149 1.961 . S
Li91 O150 1.970 . S
Li91 O151 1.956 1_556 S
C92 C94 1.348 . S
C92 C95 1.356 . S
C92 O148 1.325 . S
N93 C96 1.314 . S
N93 C97 1.279 . S
C94 C92 1.348 . S
C94 C96 1.353 . S
C94 H152 0.929 . S
C95 C92 1.356 . S
C95 C97 1.358 . S
C95 H153 0.930 . S
C96 N93 1.314 . S
C96 C94 1.353 . S
C96 H154 0.930 . S
C97 N93 1.279 . S
C97 C95 1.358 . S
C97 H155 0.930 . S
C98 C101 1.348 . S
C98 C102 1.356 . S
C98 O149 1.325 . S
C99 N100 1.279 . S
C99 C102 1.358 . S
C99 H156 0.930 . S
N100 C99 1.279 . S
N100 C103 1.314 . S
C101 C98 1.348 . S
C101 C103 1.353 . S
C101 H157 0.929 . S
C102 C98 1.356 . S
C102 C99 1.358 . S
C102 H158 0.930 . S
C103 N100 1.314 . S
C103 C101 1.353 . S
C103 H159 0.930 . S
C104 N105 1.314 . S
C104 C109 1.353 . S
C104 H110 0.930 . S
N105 Li88 1.982 1_556 S
N105 C104 1.314 . S
N105 C107 1.298 . S
C106 C107 1.374 . S
C106 C108 1.356 . S
C106 H160 0.941 . S
C107 N105 1.298 . S
C107 C106 1.374 . S
C107 H111 0.894 1_556 S
C108 C106 1.356 . S
C108 C109 1.348 . S
C109 C104 1.353 . S
C109 C108 1.348 . S
C109 H161 0.929 . S
H110 C104 0.930 . S
H111 C107 0.894 1_554 S
C112 N113 1.314 . S
C112 C114 1.353 . S
C112 H118 0.930 . S
N113 Li89 1.990 . S
N113 C112 1.314 . S
N113 C116 1.279 . S
C114 C112 1.353 . S
C114 C117 1.348 . S
C114 H162 0.929 . S
C115 C116 1.358 . S
C115 C117 1.356 . S
C115 H163 0.930 . S
C116 N113 1.279 . S
C116 C115 1.358 . S
C116 H119 0.930 . S
C117 C114 1.348 . S
C117 C115 1.356 . S
H118 C112 0.930 . S
H119 C116 0.930 . S
C120 C122 1.348 . S
C120 C123 1.356 . S
C120 O150 1.325 . S
N121 C124 1.314 . S
N121 C125 1.279 . S
C122 C120 1.348 . S
C122 C124 1.353 . S
C122 H164 0.929 . S
C123 C120 1.356 . S
C123 C125 1.358 . S
C123 H165 0.930 1_556 S
C124 N121 1.314 . S
C124 C122 1.353 . S
C124 H166 0.930 . S
C125 N121 1.279 . S
C125 C123 1.358 . S
C125 H167 0.930 . S
C126 C127 1.348 . S
C126 C128 1.356 . S
C126 O151 1.325 . S
C127 C126 1.348 . S
C127 C129 1.353 . S
C127 H168 0.929 . S
C128 C126 1.356 . S
C128 C130 1.358 . S
C128 H169 0.930 . S
C129 C127 1.353 . S
C129 N131 1.314 . S
C129 H170 0.930 . S
C130 C128 1.358 . S
C130 N131 1.279 . S
C130 H171 0.930 . S
N131 C129 1.314 . S
N131 C130 1.279 . S
C132 C134 1.353 . S
C132 N135 1.314 . S
C132 H138 0.930 . S
C133 N135 1.279 . S
C133 C136 1.358 . S
C133 H139 0.930 . S
C134 C132 1.353 . S
C134 C137 1.348 . S
C134 H172 0.929 . S
N135 Li90 1.990 . S
N135 C132 1.314 . S
N135 C133 1.279 . S
C136 C133 1.358 . S
C136 C137 1.356 . S
C136 H173 0.930 . S
C137 C134 1.348 . S
C137 C136 1.356 . S
H138 C132 0.930 . S
H139 C133 0.930 . S
C140 N141 1.314 . S
C140 C142 1.353 . S
C140 H146 0.930 . S
N141 Li91 1.990 . S
N141 C140 1.314 . S
N141 C144 1.279 . S
C142 C140 1.353 . S
C142 C145 1.348 . S
C142 H174 0.929 . S
C143 C144 1.358 . S
C143 C145 1.356 . S
C143 H175 0.930 . S
C144 N141 1.279 . S
C144 C143 1.358 . S
C144 H147 0.930 . S
C145 C142 1.348 . S
C145 C143 1.356 . S
H146 C140 0.930 . S
H147 C144 0.930 . S
O148 Li88 1.982 . S
O148 Li89 1.970 . S
O148 Li90 1.961 . S
O148 C92 1.325 . S
O149 Li88 1.960 1_556 S
O149 Li89 1.956 1_556 S
O149 Li91 1.961 . S
O149 C98 1.325 . S
O150 Li88 1.959 1_556 S
O150 Li90 1.956 1_556 S
O150 Li91 1.970 . S
O150 C120 1.325 . S
O151 Li89 1.961 . S
O151 Li90 1.970 . S
O151 Li91 1.956 1_554 S
O151 C126 1.325 . S
H152 C94 0.929 . S
H153 C95 0.930 . S
H154 C96 0.930 . S
H155 C97 0.930 . S
H156 C99 0.930 . S
H157 C101 0.929 . S
H158 C102 0.930 . S
H159 C103 0.930 . S
H160 C106 0.941 . S
H161 C109 0.929 . S
H162 C114 0.929 . S
H163 C115 0.930 . S
H164 C122 0.929 . S
H165 C123 0.930 1_554 S
H166 C124 0.930 . S
H167 C125 0.930 . S
H168 C127 0.929 . S
H169 C128 0.930 . S
H170 C129 0.930 . S
H171 C130 0.930 . S
H172 C134 0.929 . S
H173 C136 0.930 . S
H174 C142 0.929 . S
H175 C143 0.930 . S
Li176 N193 1.990 . S
Li176 O236 1.956 1_556 S
Li176 O237 1.959 1_566 S
Li176 O238 1.961 . S
Li177 N201 1.990 . S
Li177 O236 1.970 1_545 S
Li177 O237 1.986 . S
Li177 O239 1.961 . S
Li178 N223 1.990 . S
Li178 O236 1.961 . S
Li178 O238 1.956 1_554 S
Li178 O239 1.970 1_565 S
Li179 N229 1.990 1_554 S
Li179 O237 1.964 . S
Li179 O238 1.970 1_544 S
Li179 O239 1.956 . S
C180 C182 1.348 . S
C180 C183 1.356 . S
C180 O236 1.325 . S
N181 C184 1.314 . S
N181 C185 1.279 . S
C182 C180 1.348 . S
C182 C184 1.353 . S
C182 H240 0.929 . S
C183 C180 1.356 . S
C183 C185 1.358 . S
C183 H241 0.930 . S
C184 N181 1.314 . S
C184 C182 1.353 . S
C184 H242 0.930 . S
C185 N181 1.279 . S
C185 C183 1.358 . S
C185 H243 0.930 . S
C186 C189 1.348 . S
C186 C190 1.356 1_556 S
C186 O237 1.317 1_556 S
C187 N188 1.279 . S
C187 C190 1.358 1_556 S
C187 H244 0.930 1_556 S
N188 C187 1.279 . S
N188 C191 1.314 . S
C189 C186 1.348 . S
C189 C191 1.353 . S
C189 H245 0.929 . S
C190 C186 1.356 1_554 S
C190 C187 1.358 1_554 S
C190 H246 0.930 . S
C191 N188 1.314 . S
C191 C189 1.353 . S
C191 H247 0.930 . S
C192 N193 1.314 . S
C192 C197 1.353 . S
C192 H198 0.930 . S
N193 Li176 1.990 . S
N193 C192 1.314 . S
N193 C195 1.279 . S
C194 C195 1.358 . S
C194 C196 1.356 . S
C194 H248 0.930 . S
C195 N193 1.279 . S
C195 C194 1.358 . S
C195 H199 0.930 . S
C196 C194 1.356 . S
C196 C197 1.348 . S
C197 C192 1.353 . S
C197 C196 1.348 . S
C197 H249 0.929 . S
H198 C192 0.930 . S
H199 C195 0.930 . S
C200 N201 1.314 . S
C200 C202 1.353 . S
C200 H206 0.930 . S
N201 Li177 1.990 . S
N201 C200 1.314 . S
N201 C204 1.279 . S
C202 C200 1.353 . S
C202 C205 1.348 . S
C202 H250 0.929 . S
C203 C204 1.358 . S
C203 C205 1.356 . S
C203 H251 0.930 . S
C204 N201 1.279 . S
C204 C203 1.358 . S
C204 H207 0.930 . S
C205 C202 1.348 . S
C205 C203 1.356 . S
H206 C200 0.930 . S
H207 C204 0.930 . S
C208 C210 1.389 . S
C208 C211 1.356 . S
C208 O238 1.325 . S
N209 C212 1.314 . S
N209 C213 1.279 . S
C210 C208 1.389 . S
C210 C212 1.355 . S
C210 H252 0.888 1_565 S
C211 C208 1.356 . S
C211 C213 1.358 . S
C211 H253 0.930 . S
C212 N209 1.314 . S
C212 C210 1.355 . S
C212 H254 0.930 . S
C213 N209 1.279 . S
C213 C211 1.358 . S
C213 H255 0.930 . S
C214 C215 1.348 . S
C214 C216 1.356 . S
C214 O239 1.325 . S
C215 C214 1.348 . S
C215 C217 1.353 . S
C215 H256 0.929 1_545 S
C216 C214 1.356 . S
C216 C218 1.358 . S
C216 H257 0.930 . S
C217 C215 1.353 . S
C217 N219 1.314 . S
C217 H258 0.930 . S
C218 C216 1.358 . S
C218 N219 1.279 . S
C218 H259 0.930 . S
N219 C217 1.314 . S
N219 C218 1.279 . S
C220 C222 1.353 . S
C220 N223 1.314 . S
C220 H226 0.930 . S
C221 N223 1.279 . S
C221 C224 1.358 . S
C221 H227 0.943 . S
C222 C220 1.353 . S
C222 C225 1.348 . S
C222 H260 0.929 . S
N223 Li178 1.990 . S
N223 C220 1.314 . S
N223 C221 1.279 . S
C224 C221 1.358 . S
C224 C225 1.356 . S
C224 H261 0.930 . S
C225 C222 1.348 . S
C225 C224 1.356 . S
H226 C220 0.930 . S
H227 C221 0.943 . S
C228 N229 1.314 . S
C228 C230 1.353 . S
C228 H234 0.930 . S
N229 Li179 1.990 1_556 S
N229 C228 1.314 . S
N229 C232 1.279 1_556 S
C230 C228 1.353 . S
C230 C233 1.348 . S
C230 H262 0.929 . S
C231 C232 1.352 1_556 S
C231 C233 1.376 . S
C231 H263 0.916 1_556 S
C232 N229 1.279 1_554 S
C232 C231 1.352 1_554 S
C232 H235 0.930 . S
C233 C230 1.348 . S
C233 C231 1.376 . S
H234 C228 0.930 . S
H235 C232 0.930 . S
O236 Li176 1.956 1_554 S
O236 Li177 1.970 1_565 S
O236 Li178 1.961 . S
O236 C180 1.325 . S
O237 Li176 1.959 1_544 S
O237 Li177 1.986 . S
O237 Li179 1.964 . S
O237 C186 1.317 1_554 S
O238 Li176 1.961 . S
O238 Li178 1.956 1_556 S
O238 Li179 1.970 1_566 S
O238 C208 1.325 . S
O239 Li177 1.961 . S
O239 Li178 1.970 1_545 S
O239 Li179 1.956 . S
O239 C214 1.325 . S
H240 C182 0.929 . S
H241 C183 0.930 . S
H242 C184 0.930 . S
H243 C185 0.930 . S
H244 C187 0.930 1_554 S
H245 C189 0.929 . S
H246 C190 0.930 . S
H247 C191 0.930 . S
H248 C194 0.930 . S
H249 C197 0.929 . S
H250 C202 0.929 . S
H251 C203 0.930 . S
H252 C210 0.888 1_545 S
H253 C211 0.930 . S
H254 C212 0.930 . S
H255 C213 0.930 . S
H256 C215 0.929 1_565 S
H257 C216 0.930 . S
H258 C217 0.930 . S
H259 C218 0.930 . S
H260 C222 0.929 . S
H261 C224 0.930 . S
H262 C230 0.929 . S
H263 C231 0.916 1_554 S
Li264 N281 1.990 . S
Li264 O324 1.956 . S
Li264 O325 1.970 1_455 S
Li264 O326 1.961 1_554 S
Li265 N289 1.990 . S
Li265 O324 1.970 1_655 S
Li265 O325 1.956 . S
Li265 O327 2.008 . S
Li266 N311 1.990 . S
Li266 O324 1.961 1_556 S
Li266 O326 1.956 . S
Li266 O327 1.950 1_456 S
Li267 N317 1.990 1_554 S
Li267 O325 1.961 . S
Li267 O326 1.970 1_654 S
Li267 O327 1.958 . S
C268 C270 1.348 . S
C268 C271 1.356 . S
C268 O324 1.325 . S
N269 C272 1.314 . S
N269 C273 1.279 . S
C270 C268 1.348 . S
C270 C272 1.353 . S
C270 H328 0.929 . S
C271 C268 1.356 . S
C271 C273 1.358 . S
C271 H329 0.930 1_554 S
C272 N269 1.314 . S
C272 C270 1.353 . S
C272 H330 0.930 . S
C273 N269 1.279 . S
C273 C271 1.358 . S
C273 H331 0.930 . S
C274 C277 1.341 1_655 S
C274 C278 1.356 . S
C274 O325 1.325 . S
C275 N276 1.279 . S
C275 C278 1.358 . S
C275 H332 0.930 . S
N276 C275 1.279 . S
N276 C279 1.314 . S
C277 C274 1.341 1_455 S
C277 C279 1.342 1_455 S
C277 H333 0.948 . S
C278 C274 1.356 . S
C278 C275 1.358 . S
C278 H334 0.930 . S
C279 N276 1.314 . S
C279 C277 1.342 1_655 S
C279 H335 0.930 1_655 S
C280 N281 1.314 . S
C280 C285 1.353 . S
C280 H286 0.930 . S
N281 Li264 1.990 . S
N281 C280 1.314 . S
N281 C283 1.279 . S
C282 C283 1.358 . S
C282 C284 1.356 . S
C282 H336 0.930 . S
C283 N281 1.279 . S
C283 C282 1.358 . S
C283 H287 0.930 . S
C284 C282 1.356 . S
C284 C285 1.348 . S
C285 C280 1.353 . S
C285 C284 1.348 . S
C285 H337 0.929 . S
H286 C280 0.930 . S
H287 C283 0.930 . S
C288 N289 1.314 . S
C288 C290 1.353 . S
C288 H294 0.930 . S
N289 Li265 1.990 . S
N289 C288 1.314 . S
N289 C292 1.279 . S
C290 C288 1.353 . S
C290 C293 1.348 . S
C290 H338 0.929 . S
C291 C292 1.358 . S
C291 C293 1.356 . S
C291 H339 0.930 . S
C292 N289 1.279 . S
C292 C291 1.358 . S
C292 H295 0.930 . S
C293 C290 1.348 . S
C293 C291 1.356 . S
H294 C288 0.930 . S
H295 C292 0.930 . S
C296 C298 1.328 1_455 S
C296 C299 1.356 . S
C296 O326 1.325 . S
N297 C300 1.314 . S
N297 C301 1.279 . S
C298 C296 1.328 1_655 S
C298 C300 1.353 1_655 S
C298 H340 0.950 . S
C299 C296 1.356 . S
C299 C301 1.358 . S
C299 H341 0.930 . S
C300 N297 1.314 . S
C300 C298 1.353 1_455 S
C300 H342 0.930 1_455 S
C301 N297 1.279 . S
C301 C299 1.358 . S
C301 H343 0.930 . S
C302 C303 1.348 . S
C302 C304 1.356 1_556 S
C302 O327 1.312 1_556 S
C303 C302 1.348 . S
C303 C305 1.353 . S
C303 H344 0.929 . S
C304 C302 1.356 1_554 S
C304 C306 1.358 . S
C304 H345 0.930 . S
C305 C303 1.353 . S
C305 N307 1.314 . S
C305 H346 0.930 . S
C306 C304 1.358 . S
C306 N307 1.279 1_554 S
C306 H347 0.930 . S
N307 C305 1.314 . S
N307 C306 1.279 1_556 S
C308 C310 1.353 . S
C308 N311 1.314 . S
C308 H314 0.930 . S
C309 N311 1.279 . S
C309 C312 1.358 . S
C309 H315 0.930 . S
C310 C308 1.353 . S
C310 C313 1.348 . S
C310 H348 0.929 . S
N311 Li266 1.990 . S
N311 C308 1.314 . S
N311 C309 1.279 . S
C312 C309 1.358 . S
C312 C313 1.356 . S
C312 H349 0.930 . S
C313 C310 1.348 . S
C313 C312 1.356 . S
H314 C308 0.930 . S
H315 C309 0.930 . S
C316 N317 1.314 . S
C316 C318 1.353 . S
C316 H322 0.930 1_556 S
N317 Li267 1.990 1_556 S
N317 C316 1.314 . S
N317 C320 1.279 . S
C318 C316 1.353 . S
C318 C321 1.348 . S
C318 H350 0.929 . S
C319 C320 1.358 . S
C319 C321 1.356 . S
C319 H351 0.930 . S
C320 N317 1.279 . S
C320 C319 1.358 . S
C320 H323 0.930 . S
C321 C318 1.348 . S
C321 C319 1.356 . S
H322 C316 0.930 1_554 S
H323 C320 0.930 . S
O324 Li264 1.956 . S
O324 Li265 1.970 1_455 S
O324 Li266 1.961 1_554 S
O324 C268 1.325 . S
O325 Li264 1.970 1_655 S
O325 Li265 1.956 . S
O325 Li267 1.961 . S
O325 C274 1.325 . S
O326 Li264 1.961 1_556 S
O326 Li266 1.956 . S
O326 Li267 1.970 1_456 S
O326 C296 1.325 . S
O327 Li265 2.008 . S
O327 Li266 1.950 1_654 S
O327 Li267 1.958 . S
O327 C302 1.312 1_554 S
H328 C270 0.929 . S
H329 C271 0.930 1_556 S
H330 C272 0.930 . S
H331 C273 0.930 . S
H332 C275 0.930 . S
H333 C277 0.948 . S
H334 C278 0.930 . S
H335 C279 0.930 1_455 S
H336 C282 0.930 . S
H337 C285 0.929 . S
H338 C290 0.929 . S
H339 C291 0.930 . S
H340 C298 0.950 . S
H341 C299 0.930 . S
H342 C300 0.930 1_655 S
H343 C301 0.930 . S
H344 C303 0.929 . S
H345 C304 0.930 . S
H346 C305 0.930 . S
H347 C306 0.930 . S
H348 C310 0.929 . S
H349 C312 0.930 . S
H350 C318 0.929 . S
H351 C319 0.930 . S
Li352 N369 1.990 . S
Li352 O412 1.956 . S
Li352 O413 1.970 . S
Li352 O414 1.961 1_554 S
Li353 N377 1.990 . S
Li353 O412 1.970 . S
Li353 O413 1.956 . S
Li353 O415 1.961 1_554 S
Li354 N399 1.990 . S
Li354 O412 1.961 1_556 S
Li354 O414 1.956 . S
Li354 O415 1.970 . S
Li355 N405 1.994 . S
Li355 O413 1.950 1_556 S
Li355 O414 1.974 . S
Li355 O415 1.956 . S
C356 C358 1.348 . S
C356 C359 1.356 . S
C356 O412 1.325 . S
N357 C360 1.314 . S
N357 C361 1.279 . S
C358 C356 1.348 . S
C358 C360 1.353 . S
C358 H416 0.929 . S
C359 C356 1.356 . S
C359 C361 1.358 . S
C359 H417 0.930 . S
C360 N357 1.314 . S
C360 C358 1.353 . S
C360 H418 0.930 . S
C361 N357 1.279 . S
C361 C359 1.358 . S
C361 H419 0.930 . S
C362 C365 1.348 . S
C362 C366 1.356 . S
C362 O413 1.325 . S
C363 N364 1.279 . S
C363 C366 1.358 . S
C363 H420 0.930 . S
N364 C363 1.279 . S
N364 C367 1.314 . S
C365 C362 1.348 . S
C365 C367 1.353 . S
C365 H421 0.929 . S
C366 C362 1.356 . S
C366 C363 1.358 . S
C366 H422 0.930 . S
C367 N364 1.314 . S
C367 C365 1.353 . S
C367 H423 0.930 . S
C368 N369 1.314 . S
C368 C373 1.353 . S
C368 H374 0.930 . S
N369 Li352 1.990 . S
N369 C368 1.314 . S
N369 C371 1.279 . S
C370 C371 1.358 . S
C370 C372 1.356 . S
C370 H424 0.930 . S
C371 N369 1.279 . S
C371 C370 1.358 . S
C371 H375 0.930 . S
C372 C370 1.356 . S
C372 C373 1.348 . S
C373 C368 1.353 . S
C373 C372 1.348 . S
C373 H425 0.929 . S
H374 C368 0.930 . S
H375 C371 0.930 . S
C376 N377 1.314 . S
C376 C378 1.353 . S
C376 H382 0.930 . S
N377 Li353 1.990 . S
N377 C376 1.314 . S
N377 C380 1.279 . S
C378 C376 1.353 . S
C378 C381 1.348 . S
C378 H426 0.929 . S
C379 C380 1.358 . S
C379 C381 1.356 . S
C379 H427 0.930 . S
C380 N377 1.279 . S
C380 C379 1.358 . S
C380 H383 0.930 . S
C381 C378 1.348 . S
C381 C379 1.356 . S
H382 C376 0.930 . S
H383 C380 0.930 . S
C384 C386 1.348 . S
C384 C387 1.356 . S
C384 O414 1.325 . S
N385 C388 1.314 . S
N385 C389 1.279 . S
C386 C384 1.348 . S
C386 C388 1.353 . S
C386 H428 0.929 . S
C387 C384 1.356 . S
C387 C389 1.358 . S
C387 H429 0.930 . S
C388 N385 1.314 . S
C388 C386 1.353 . S
C388 H430 0.930 . S
C389 N385 1.279 . S
C389 C387 1.358 . S
C389 H431 0.930 . S
C390 C391 1.348 . S
C390 C392 1.356 1_556 S
C390 O415 1.325 . S
C391 C390 1.348 . S
C391 C393 1.353 . S
C391 H432 0.929 . S
C392 C390 1.356 1_554 S
C392 C394 1.358 1_554 S
C392 H433 0.930 . S
C393 C391 1.353 . S
C393 N395 1.314 . S
C393 H434 0.930 . S
C394 C392 1.358 1_556 S
C394 N395 1.279 . S
C394 H435 0.930 1_556 S
N395 C393 1.314 . S
N395 C394 1.279 . S
C396 C398 1.353 . S
C396 N399 1.314 . S
C396 H402 0.930 . S
C397 N399 1.279 . S
C397 C400 1.358 . S
C397 H403 0.930 . S
C398 C396 1.353 . S
C398 C401 1.348 . S
C398 H436 0.929 . S
N399 Li354 1.990 . S
N399 C396 1.314 . S
N399 C397 1.279 . S
C400 C397 1.358 . S
C400 C401 1.356 . S
C400 H437 0.930 . S
C401 C398 1.348 . S
C401 C400 1.356 . S
H402 C396 0.930 . S
H403 C397 0.930 . S
C404 N405 1.314 . S
C404 C406 1.353 . S
C404 H410 0.930 1_556 S
N405 Li355 1.994 . S
N405 C404 1.314 . S
N405 C408 1.279 . S
C406 C404 1.353 . S
C406 C409 1.348 . S
C406 H438 0.929 . S
C407 C408 1.358 . S
C407 C409 1.356 . S
C407 H439 0.930 . S
C408 N405 1.279 . S
C408 C407 1.358 . S
C408 H411 0.930 . S
C409 C406 1.348 . S
C409 C407 1.356 . S
H410 C404 0.930 1_554 S
H411 C408 0.930 . S
O412 Li352 1.956 . S
O412 Li353 1.970 . S
O412 Li354 1.961 1_554 S
O412 C356 1.325 . S
O413 Li352 1.970 . S
O413 Li353 1.956 . S
O413 Li355 1.950 1_554 S
O413 C362 1.325 . S
O414 Li352 1.961 1_556 S
O414 Li354 1.956 . S
O414 Li355 1.974 . S
O414 C384 1.325 . S
O415 Li353 1.961 1_556 S
O415 Li354 1.970 . S
O415 Li355 1.956 . S
O415 C390 1.325 . S
H416 C358 0.929 . S
H417 C359 0.930 . S
H418 C360 0.930 . S
H419 C361 0.930 . S
H420 C363 0.930 . S
H421 C365 0.929 . S
H422 C366 0.930 . S
H423 C367 0.930 . S
H424 C370 0.930 . S
H425 C373 0.929 . S
H426 C378 0.929 . S
H427 C379 0.930 . S
H428 C386 0.929 . S
H429 C387 0.930 . S
H430 C388 0.930 . S
H431 C389 0.930 . S
H432 C391 0.929 . S
H433 C392 0.930 . S
H434 C393 0.930 . S
H435 C394 0.930 1_554 S
H436 C398 0.929 . S
H437 C400 0.930 . S
H438 C406 0.929 . S
H439 C407 0.930 . S
Li440 N457 1.990 . S
Li440 O500 1.956 . S
Li440 O501 1.970 1_565 S
Li440 O502 1.961 1_554 S
Li441 N465 1.990 . S
Li441 O500 1.970 1_545 S
Li441 O501 1.956 . S
Li441 O503 1.961 . S
Li442 N487 1.990 . S
Li442 O500 1.961 1_556 S
Li442 O502 1.956 . S
Li442 O503 1.970 1_566 S
Li443 N493 1.990 1_554 S
Li443 O501 1.961 . S
Li443 O502 1.970 1_544 S
Li443 O503 1.956 . S
C444 C446 1.348 . S
C444 C447 1.356 . S
C444 O500 1.325 . S
N445 C448 1.314 . S
N445 C449 1.279 . S
C446 C444 1.348 . S
C446 C448 1.353 . S
C446 H504 0.929 . S
C447 C444 1.356 . S
C447 C449 1.358 . S
C447 H505 0.930 1_554 S
C448 N445 1.314 . S
C448 C446 1.353 . S
C448 H506 0.930 . S
C449 N445 1.279 . S
C449 C447 1.358 . S
C449 H507 0.930 . S
C450 C453 1.328 1_545 S
C450 C454 1.356 . S
C450 O501 1.325 . S
C451 N452 1.279 . S
C451 C454 1.358 . S
C451 H508 0.930 . S
N452 C451 1.279 . S
N452 C455 1.314 . S
C453 C450 1.328 1_565 S
C453 C455 1.353 1_565 S
C453 H509 0.950 . S
C454 C450 1.356 . S
C454 C451 1.358 . S
C454 H510 0.930 . S
C455 N452 1.314 . S
C455 C453 1.353 1_545 S
C455 H511 0.930 1_545 S
C456 N457 1.314 . S
C456 C461 1.353 . S
C456 H462 0.930 . S
N457 Li440 1.990 . S
N457 C456 1.314 . S
N457 C459 1.279 . S
C458 C459 1.358 . S
C458 C460 1.356 . S
C458 H512 0.930 . S
C459 N457 1.279 . S
C459 C458 1.358 . S
C459 H463 0.930 . S
C460 C458 1.356 . S
C460 C461 1.348 . S
C461 C456 1.353 . S
C461 C460 1.348 . S
C461 H513 0.929 . S
H462 C456 0.930 . S
H463 C459 0.930 . S
C464 N465 1.314 . S
C464 C466 1.353 . S
C464 H470 0.930 . S
N465 Li441 1.990 . S
N465 C464 1.314 . S
N465 C468 1.279 . S
C466 C464 1.353 . S
C466 C469 1.348 . S
C466 H514 0.929 . S
C467 C468 1.358 . S
C467 C469 1.356 . S
C467 H515 0.930 . S
C468 N465 1.279 . S
C468 C467 1.358 . S
C468 H471 0.930 . S
C469 C466 1.348 . S
C469 C467 1.356 . S
H470 C464 0.930 . S
H471 C468 0.930 . S
C472 C474 1.341 1_565 S
C472 C475 1.356 . S
C472 O502 1.325 . S
N473 C476 1.314 . S
N473 C477 1.279 . S
C474 C472 1.341 1_545 S
C474 C476 1.342 1_545 S
C474 H516 0.947 . S
C475 C472 1.356 . S
C475 C477 1.358 . S
C475 H517 0.930 . S
C476 N473 1.314 . S
C476 C474 1.342 1_565 S
C476 H518 0.930 1_565 S
C477 N473 1.279 . S
C477 C475 1.358 . S
C477 H519 0.930 . S
C478 C479 1.348 . S
C478 C480 1.356 1_556 S
C478 O503 1.325 1_556 S
C479 C478 1.348 . S
C479 C481 1.353 . S
C479 H520 0.929 . S
C480 C478 1.356 1_554 S
C480 C482 1.358 . S
C480 H521 0.930 . S
C481 C479 1.353 . S
C481 N483 1.314 . S
C481 H522 0.930 . S
C482 C480 1.358 . S
C482 N483 1.279 1_554 S
C482 H523 0.930 . S
N483 C481 1.314 . S
N483 C482 1.279 1_556 S
C484 C486 1.353 . S
C484 N487 1.314 . S
C484 H490 0.930 . S
C485 N487 1.279 . S
C485 C488 1.358 . S
C485 H491 0.930 . S
C486 C484 1.353 . S
C486 C489 1.348 . S
C486 H524 0.929 . S
N487 Li442 1.990 . S
N487 C484 1.314 . S
N487 C485 1.279 . S
C488 C485 1.358 . S
C488 C489 1.356 . S
C488 H525 0.930 . S
C489 C486 1.348 . S
C489 C488 1.356 . S
H490 C484 0.930 . S
H491 C485 0.930 . S
C492 N493 1.322 . S
C492 C494 1.362 . S
C492 H498 0.913 1_556 S
N493 Li443 1.990 1_556 S
N493 C492 1.322 . S
N493 C496 1.279 . S
C494 C492 1.362 . S
C494 C497 1.348 . S
C494 H526 0.929 . S
C495 C496 1.358 . S
C495 C497 1.356 . S
C495 H527 0.930 . S
C496 N493 1.279 . S
C496 C495 1.358 . S
C496 H499 0.930 . S
C497 C494 1.348 . S
C497 C495 1.356 . S
H498 C492 0.913 1_554 S
H499 C496 0.930 . S
O500 Li440 1.956 . S
O500 Li441 1.970 1_565 S
O500 Li442 1.961 1_554 S
O500 C444 1.325 . S
O501 Li440 1.970 1_545 S
O501 Li441 1.956 . S
O501 Li443 1.961 . S
O501 C450 1.325 . S
O502 Li440 1.961 1_556 S
O502 Li442 1.956 . S
O502 Li443 1.970 1_566 S
O502 C472 1.325 . S
O503 Li441 1.961 . S
O503 Li442 1.970 1_544 S
O503 Li443 1.956 . S
O503 C478 1.325 1_554 S
H504 C446 0.929 . S
H505 C447 0.930 1_556 S
H506 C448 0.930 . S
H507 C449 0.930 . S
H508 C451 0.930 . S
H509 C453 0.950 . S
H510 C454 0.930 . S
H511 C455 0.930 1_565 S
H512 C458 0.930 . S
H513 C461 0.929 . S
H514 C466 0.929 . S
H515 C467 0.930 . S
H516 C474 0.947 . S
H517 C475 0.930 . S
H518 C476 0.930 1_545 S
H519 C477 0.930 . S
H520 C479 0.929 . S
H521 C480 0.930 . S
H522 C481 0.930 . S
H523 C482 0.930 . S
H524 C486 0.929 . S
H525 C488 0.930 . S
H526 C494 0.929 . S
H527 C495 0.930 . S
Li528 N545 1.990 . S
Li528 O588 1.956 . S
Li528 O589 1.970 . S
Li528 O590 1.961 . S
Li529 N553 1.990 . S
Li529 O588 1.970 . S
Li529 O589 1.956 . S
Li529 O591 1.961 . S
Li530 N575 1.990 . S
Li530 O588 1.961 . S
Li530 O590 1.956 . S
Li530 O591 1.970 . S
Li531 N581 1.990 . S
Li531 O589 1.961 . S
Li531 O590 1.970 . S
Li531 O591 1.956 . S
C532 C534 1.348 . S
C532 C535 1.356 . S
C532 O588 1.325 . S
N533 C536 1.314 . S
N533 C537 1.279 . S
C534 C532 1.348 . S
C534 C536 1.353 . S
C534 H592 0.929 . S
C535 C532 1.356 . S
C535 C537 1.358 . S
C535 H593 0.930 . S
C536 N533 1.314 . S
C536 C534 1.353 . S
C536 H594 0.930 . S
C537 N533 1.279 . S
C537 C535 1.358 . S
C537 H595 0.930 . S
C538 C541 1.348 . S
C538 C542 1.356 . S
C538 O589 1.325 . S
C539 N540 1.279 . S
C539 C542 1.358 . S
C539 H596 0.930 . S
N540 C539 1.279 . S
N540 C543 1.314 . S
C541 C538 1.348 . S
C541 C543 1.353 . S
C541 H597 0.929 . S
C542 C538 1.356 . S
C542 C539 1.358 . S
C542 H598 0.930 . S
C543 N540 1.314 . S
C543 C541 1.353 . S
C543 H599 0.930 . S
C544 N545 1.314 . S
C544 C549 1.353 . S
C544 H550 0.930 . S
N545 Li528 1.990 . S
N545 C544 1.314 . S
N545 C547 1.279 . S
C546 C547 1.358 . S
C546 C548 1.356 . S
C546 H600 0.930 . S
C547 N545 1.279 . S
C547 C546 1.358 . S
C547 H551 0.930 . S
C548 C546 1.356 . S
C548 C549 1.348 . S
C549 C544 1.353 . S
C549 C548 1.348 . S
C549 H601 0.929 . S
H550 C544 0.930 . S
H551 C547 0.930 . S
C552 N553 1.314 . S
C552 C554 1.353 . S
C552 H558 0.930 . S
N553 Li529 1.990 . S
N553 C552 1.314 . S
N553 C556 1.279 . S
C554 C552 1.353 . S
C554 C557 1.348 . S
C554 H602 0.929 . S
C555 C556 1.358 . S
C555 C557 1.356 . S
C555 H603 0.930 . S
C556 N553 1.279 . S
C556 C555 1.358 . S
C556 H559 0.930 . S
C557 C554 1.348 . S
C557 C555 1.356 . S
H558 C552 0.930 . S
H559 C556 0.930 . S
C560 C562 1.348 . S
C560 C563 1.356 . S
C560 O590 1.325 . S
N561 C564 1.314 . S
N561 C565 1.279 . S
C562 C560 1.348 . S
C562 C564 1.353 . S
C562 H604 0.929 . S
C563 C560 1.356 . S
C563 C565 1.358 . S
C563 H605 0.930 . S
C564 N561 1.314 . S
C564 C562 1.353 . S
C564 H606 0.930 . S
C565 N561 1.279 . S
C565 C563 1.358 . S
C565 H607 0.930 . S
C566 C567 1.348 . S
C566 C568 1.356 . S
C566 O591 1.325 . S
C567 C566 1.348 . S
C567 C569 1.353 . S
C567 H608 0.929 . S
C568 C566 1.356 . S
C568 C570 1.358 . S
C568 H609 0.930 . S
C569 C567 1.353 . S
C569 N571 1.314 . S
C569 H610 0.930 . S
C570 C568 1.358 . S
C570 N571 1.279 . S
C570 H611 0.930 . S
N571 C569 1.314 . S
N571 C570 1.279 . S
C572 C574 1.353 . S
C572 N575 1.314 . S
C572 H578 0.930 . S
C573 N575 1.279 . S
C573 C576 1.358 . S
C573 H579 0.930 . S
C574 C572 1.353 . S
C574 C577 1.348 . S
C574 H612 0.929 . S
N575 Li530 1.990 . S
N575 C572 1.314 . S
N575 C573 1.279 . S
C576 C573 1.358 . S
C576 C577 1.356 . S
C576 H613 0.930 . S
C577 C574 1.348 . S
C577 C576 1.356 . S
H578 C572 0.930 . S
H579 C573 0.930 . S
C580 N581 1.314 . S
C580 C582 1.353 . S
C580 H586 0.930 . S
N581 Li531 1.990 . S
N581 C580 1.314 . S
N581 C584 1.279 . S
C582 C580 1.353 . S
C582 C585 1.348 . S
C582 H614 0.929 . S
C583 C584 1.358 . S
C583 C585 1.356 . S
C583 H615 0.930 . S
C584 N581 1.279 . S
C584 C583 1.358 . S
C584 H587 0.930 . S
C585 C582 1.348 . S
C585 C583 1.356 . S
H586 C580 0.930 . S
H587 C584 0.930 . S
O588 Li528 1.956 . S
O588 Li529 1.970 . S
O588 Li530 1.961 . S
O588 C532 1.325 . S
O589 Li528 1.970 . S
O589 Li529 1.956 . S
O589 Li531 1.961 . S
O589 C538 1.325 . S
O590 Li528 1.961 . S
O590 Li530 1.956 . S
O590 Li531 1.970 . S
O590 C560 1.325 . S
O591 Li529 1.961 . S
O591 Li530 1.970 . S
O591 Li531 1.956 . S
O591 C566 1.325 . S
H592 C534 0.929 . S
H593 C535 0.930 . S
H594 C536 0.930 . S
H595 C537 0.930 . S
H596 C539 0.930 . S
H597 C541 0.929 . S
H598 C542 0.930 . S
H599 C543 0.930 . S
H600 C546 0.930 . S
H601 C549 0.929 . S
H602 C554 0.929 . S
H603 C555 0.930 . S
H604 C562 0.929 . S
H605 C563 0.930 . S
H606 C564 0.930 . S
H607 C565 0.930 . S
H608 C567 0.929 . S
H609 C568 0.930 . S
H610 C569 0.930 . S
H611 C570 0.930 . S
H612 C574 0.929 . S
H613 C576 0.930 . S
H614 C582 0.929 . S
H615 C583 0.930 . S
Li616 N633 1.990 . S
Li616 O676 1.956 . S
Li616 O677 1.970 . S
Li616 O678 1.961 . S
Li617 N641 1.990 . S
Li617 O676 1.970 . S
Li617 O677 1.956 . S
Li617 O679 1.961 . S
Li618 N663 1.990 . S
Li618 O676 1.961 1_545 S
Li618 O678 1.956 1_545 S
Li618 O679 1.970 1_545 S
Li619 N669 1.990 . S
Li619 O677 1.961 . S
Li619 O678 1.970 . S
Li619 O679 1.956 . S
C620 C622 1.348 . S
C620 C623 1.356 . S
C620 O676 1.325 . S
N621 C624 1.314 . S
N621 C625 1.279 . S
C622 C620 1.348 . S
C622 C624 1.353 . S
C622 H680 0.929 . S
C623 C620 1.356 . S
C623 C625 1.358 . S
C623 H681 0.930 1_565 S
C624 N621 1.314 . S
C624 C622 1.353 . S
C624 H682 0.930 . S
C625 N621 1.279 . S
C625 C623 1.358 . S
C625 H683 0.942 . S
C626 C629 1.348 . S
C626 C630 1.356 . S
C626 O677 1.325 . S
C627 N628 1.279 . S
C627 C630 1.358 . S
C627 H684 0.930 . S
N628 C627 1.279 . S
N628 C631 1.314 . S
C629 C626 1.348 . S
C629 C631 1.353 . S
C629 H685 0.929 . S
C630 C626 1.356 . S
C630 C627 1.358 . S
C630 H686 0.930 . S
C631 N628 1.314 . S
C631 C629 1.353 . S
C631 H687 0.930 . S
C632 N633 1.314 . S
C632 C637 1.353 . S
C632 H638 0.930 . S
N633 Li616 1.990 . S
N633 C632 1.314 . S
N633 C635 1.279 . S
C634 C635 1.358 . S
C634 C636 1.356 . S
C634 H688 0.930 . S
C635 N633 1.279 . S
C635 C634 1.358 . S
C635 H639 0.930 . S
C636 C634 1.356 . S
C636 C637 1.348 . S
C637 C632 1.353 . S
C637 C636 1.348 . S
C637 H689 0.929 . S
H638 C632 0.930 . S
H639 C635 0.930 . S
C640 N641 1.314 . S
C640 C642 1.353 . S
C640 H646 0.930 . S
N641 Li617 1.990 . S
N641 C640 1.314 . S
N641 C644 1.279 . S
C642 C640 1.353 . S
C642 C645 1.348 . S
C642 H690 0.929 . S
C643 C644 1.358 . S
C643 C645 1.356 . S
C643 H691 0.930 . S
C644 N641 1.279 . S
C644 C643 1.358 . S
C644 H647 0.930 . S
C645 C642 1.348 . S
C645 C643 1.356 . S
H646 C640 0.930 . S
H647 C644 0.930 . S
C648 C650 1.348 . S
C648 C651 1.356 . S
C648 O678 1.325 1_545 S
N649 C652 1.314 . S
N649 C653 1.279 . S
C650 C648 1.348 . S
C650 C652 1.353 . S
C650 H692 0.929 . S
C651 C648 1.356 . S
C651 C653 1.358 . S
C651 H693 0.930 . S
C652 N649 1.314 . S
C652 C650 1.353 . S
C652 H694 0.930 . S
C653 N649 1.279 . S
C653 C651 1.358 . S
C653 H695 0.930 . S
C654 C655 1.348 1_565 S
C654 C656 1.356 . S
C654 O679 1.325 . S
C655 C654 1.348 1_545 S
C655 C657 1.353 . S
C655 H696 0.929 . S
C656 C654 1.356 . S
C656 C658 1.358 . S
C656 H697 0.930 . S
C657 C655 1.353 . S
C657 N659 1.314 . S
C657 H698 0.930 . S
C658 C656 1.358 . S
C658 N659 1.279 1_565 S
C658 H699 0.930 . S
N659 C657 1.314 . S
N659 C658 1.279 1_545 S
C660 C662 1.353 . S
C660 N663 1.314 . S
C660 H666 0.930 . S
C661 N663 1.279 . S
C661 C664 1.358 . S
C661 H667 0.930 . S
C662 C660 1.353 . S
C662 C665 1.348 . S
C662 H700 0.929 . S
N663 Li618 1.990 . S
N663 C660 1.314 . S
N663 C661 1.279 . S
C664 C661 1.358 . S
C664 C665 1.356 . S
C664 H701 0.930 . S
C665 C662 1.348 . S
C665 C664 1.356 . S
H666 C660 0.930 . S
H667 C661 0.930 . S
C668 N669 1.314 . S
C668 C670 1.353 . S
C668 H674 0.930 . S
N669 Li619 1.990 . S
N669 C668 1.314 . S
N669 C672 1.279 . S
C670 C668 1.353 . S
C670 C673 1.348 . S
C670 H702 0.929 . S
C671 C672 1.358 . S
C671 C673 1.356 . S
C671 H703 0.930 1_565 S
C672 N669 1.279 . S
C672 C671 1.358 . S
C672 H675 0.942 . S
C673 C670 1.348 . S
C673 C671 1.356 . S
H674 C668 0.930 . S
H675 C672 0.942 . S
O676 Li616 1.956 . S
O676 Li617 1.970 . S
O676 Li618 1.961 1_565 S
O676 C620 1.325 . S
O677 Li616 1.970 . S
O677 Li617 1.956 . S
O677 Li619 1.961 . S
O677 C626 1.325 . S
O678 Li616 1.961 . S
O678 Li618 1.956 1_565 S
O678 Li619 1.970 . S
O678 C648 1.325 1_565 S
O679 Li617 1.961 . S
O679 Li618 1.970 1_565 S
O679 Li619 1.956 . S
O679 C654 1.325 . S
H680 C622 0.929 . S
H681 C623 0.930 1_545 S
H682 C624 0.930 . S
H683 C625 0.942 . S
H684 C627 0.930 . S
H685 C629 0.929 . S
H686 C630 0.930 . S
H687 C631 0.930 . S
H688 C634 0.930 . S
H689 C637 0.929 . S
H690 C642 0.929 . S
H691 C643 0.930 . S
H692 C650 0.929 . S
H693 C651 0.930 . S
H694 C652 0.930 . S
H695 C653 0.930 . S
H696 C655 0.929 . S
H697 C656 0.930 . S
H698 C657 0.930 . S
H699 C658 0.930 . S
H700 C662 0.929 . S
H701 C664 0.930 . S
H702 C670 0.929 . S
H703 C671 0.930 1_545 S
Li704 N721 1.990 . S
Li704 O764 1.956 . S
Li704 O765 1.970 . S
Li704 O766 1.961 . S
Li705 N729 1.990 . S
Li705 O764 1.970 . S
Li705 O765 1.956 . S
Li705 O767 1.961 . S
Li706 N751 2.015 . S
Li706 O764 1.921 1_655 S
Li706 O766 1.956 1_655 S
Li706 O767 1.970 1_655 S
Li707 N757 1.990 . S
Li707 O765 1.961 . S
Li707 O766 1.970 . S
Li707 O767 1.956 . S
C708 C710 1.348 . S
C708 C711 1.356 . S
C708 O764 1.325 . S
N709 C712 1.314 . S
N709 C713 1.279 . S
C710 C708 1.348 . S
C710 C712 1.353 . S
C710 H768 0.929 . S
C711 C708 1.356 . S
C711 C713 1.358 . S
C711 H769 0.960 . S
C712 N709 1.314 . S
C712 C710 1.353 . S
C712 H770 0.930 . S
C713 N709 1.279 . S
C713 C711 1.358 . S
C713 H771 0.930 . S
C714 C717 1.348 . S
C714 C718 1.356 . S
C714 O765 1.325 . S
C715 N716 1.279 . S
C715 C718 1.358 . S
C715 H772 0.930 . S
N716 C715 1.279 . S
N716 C719 1.314 . S
C717 C714 1.348 . S
C717 C719 1.353 . S
C717 H773 0.929 . S
C718 C714 1.356 . S
C718 C715 1.358 . S
C718 H774 0.930 . S
C719 N716 1.314 . S
C719 C717 1.353 . S
C719 H775 0.930 . S
C720 N721 1.314 . S
C720 C725 1.353 . S
C720 H726 0.930 . S
N721 Li704 1.990 . S
N721 C720 1.314 . S
N721 C723 1.279 . S
C722 C723 1.358 . S
C722 C724 1.356 . S
C722 H776 0.930 . S
C723 N721 1.279 . S
C723 C722 1.358 . S
C723 H727 0.930 . S
C724 C722 1.356 . S
C724 C725 1.348 . S
C725 C720 1.353 . S
C725 C724 1.348 . S
C725 H777 0.929 . S
H726 C720 0.930 . S
H727 C723 0.930 . S
C728 N729 1.314 . S
C728 C730 1.353 . S
C728 H734 0.930 . S
N729 Li705 1.990 . S
N729 C728 1.314 . S
N729 C732 1.279 . S
C730 C728 1.353 . S
C730 C733 1.348 . S
C730 H778 0.929 . S
C731 C732 1.358 . S
C731 C733 1.356 . S
C731 H779 0.930 . S
C732 N729 1.279 . S
C732 C731 1.358 . S
C732 H735 0.930 . S
C733 C730 1.348 . S
C733 C731 1.356 . S
H734 C728 0.930 . S
H735 C732 0.930 . S
C736 C738 1.348 . S
C736 C739 1.356 . S
C736 O766 1.325 1_655 S
N737 C740 1.314 . S
N737 C741 1.279 . S
C738 C736 1.348 . S
C738 C740 1.353 . S
C738 H780 0.929 . S
C739 C736 1.356 . S
C739 C741 1.358 . S
C739 H781 0.930 . S
C740 N737 1.314 . S
C740 C738 1.353 . S
C740 H782 0.930 . S
C741 N737 1.279 . S
C741 C739 1.358 . S
C741 H783 0.930 . S
C742 C743 1.348 1_455 S
C742 C744 1.356 . S
C742 O767 1.325 . S
C743 C742 1.348 1_655 S
C743 C745 1.353 . S
C743 H784 0.929 . S
C744 C742 1.356 . S
C744 C746 1.358 . S
C744 H785 0.930 . S
C745 C743 1.353 . S
C745 N747 1.314 . S
C745 H786 0.930 . S
C746 C744 1.358 . S
C746 N747 1.279 1_455 S
C746 H787 0.930 . S
N747 C745 1.314 . S
N747 C746 1.279 1_655 S
C748 C750 1.353 . S
C748 N751 1.314 . S
C748 H754 0.930 . S
C749 N751 1.279 . S
C749 C752 1.358 . S
C749 H755 0.930 . S
C750 C748 1.353 . S
C750 C753 1.348 . S
C750 H788 0.929 . S
N751 Li706 2.015 . S
N751 C748 1.314 . S
N751 C749 1.279 . S
C752 C749 1.358 . S
C752 C753 1.356 . S
C752 H789 0.930 . S
C753 C750 1.348 . S
C753 C752 1.356 . S
H754 C748 0.930 . S
H755 C749 0.930 . S
C756 N757 1.314 . S
C756 C758 1.353 . S
C756 H762 0.930 . S
N757 Li707 1.990 . S
N757 C756 1.314 . S
N757 C760 1.279 . S
C758 C756 1.353 . S
C758 C761 1.348 . S
C758 H790 0.929 . S
C759 C760 1.358 . S
C759 C761 1.356 . S
C759 H791 0.957 . S
C760 N757 1.279 . S
C760 C759 1.358 . S
C760 H763 0.930 . S
C761 C758 1.348 . S
C761 C759 1.356 . S
H762 C756 0.930 . S
H763 C760 0.930 . S
O764 Li704 1.956 . S
O764 Li705 1.970 . S
O764 Li706 1.921 1_455 S
O764 C708 1.325 . S
O765 Li704 1.970 . S
O765 Li705 1.956 . S
O765 Li707 1.961 . S
O765 C714 1.325 . S
O766 Li704 1.961 . S
O766 Li706 1.956 1_455 S
O766 Li707 1.970 . S
O766 C736 1.325 1_455 S
O767 Li705 1.961 . S
O767 Li706 1.970 1_455 S
O767 Li707 1.956 . S
O767 C742 1.325 . S
H768 C710 0.929 . S
H769 C711 0.960 . S
H770 C712 0.930 . S
H771 C713 0.930 . S
H772 C715 0.930 . S
H773 C717 0.929 . S
H774 C718 0.930 . S
H775 C719 0.930 . S
H776 C722 0.930 . S
H777 C725 0.929 . S
H778 C730 0.929 . S
H779 C731 0.930 . S
H780 C738 0.929 . S
H781 C739 0.930 . S
H782 C740 0.930 . S
H783 C741 0.930 . S
H784 C743 0.929 . S
H785 C744 0.930 . S
H786 C745 0.930 . S
H787 C746 0.930 . S
H788 C750 0.929 . S
H789 C752 0.930 . S
H790 C758 0.929 . S
H791 C759 0.957 . S
Li792 N809 1.990 . S
Li792 O852 1.956 1_545 S
Li792 O853 1.970 1_545 S
Li792 O854 1.961 1_545 S
Li793 N817 1.990 . S
Li793 O852 1.970 . S
Li793 O853 1.956 . S
Li793 O855 1.961 . S
Li794 N839 1.990 . S
Li794 O852 1.961 . S
Li794 O854 1.956 . S
Li794 O855 1.970 . S
Li795 N845 1.990 . S
Li795 O853 1.961 . S
Li795 O854 1.970 . S
Li795 O855 1.956 . S
C796 C798 1.348 . S
C796 C799 1.356 . S
C796 O852 1.325 . S
N797 C800 1.314 . S
N797 C801 1.279 . S
C798 C796 1.348 . S
C798 C800 1.353 . S
C798 H856 0.929 . S
C799 C796 1.356 . S
C799 C801 1.358 . S
C799 H857 0.930 . S
C800 N797 1.314 . S
C800 C798 1.353 . S
C800 H858 0.930 . S
C801 N797 1.279 . S
C801 C799 1.358 . S
C801 H859 0.930 . S
C802 C805 1.348 1_565 S
C802 C806 1.356 . S
C802 O853 1.325 . S
C803 N804 1.279 1_565 S
C803 C806 1.358 . S
C803 H860 0.930 . S
N804 C803 1.279 1_545 S
N804 C807 1.314 . S
C805 C802 1.348 1_545 S
C805 C807 1.353 . S
C805 H861 0.929 . S
C806 C802 1.356 . S
C806 C803 1.358 . S
C806 H862 0.930 . S
C807 N804 1.314 . S
C807 C805 1.353 . S
C807 H863 0.930 . S
C808 N809 1.314 . S
C808 C813 1.353 . S
C808 H814 0.930 . S
N809 Li792 1.990 . S
N809 C808 1.314 . S
N809 C811 1.279 . S
C810 C811 1.358 . S
C810 C812 1.356 . S
C810 H864 0.930 . S
C811 N809 1.279 . S
C811 C810 1.358 . S
C811 H815 0.930 . S
C812 C810 1.356 . S
C812 C813 1.348 . S
C813 C808 1.353 . S
C813 C812 1.348 . S
C813 H865 0.929 . S
H814 C808 0.930 . S
H815 C811 0.930 . S
C816 N817 1.314 . S
C816 C818 1.353 . S
C816 H822 0.930 . S
N817 Li793 1.990 . S
N817 C816 1.314 . S
N817 C820 1.279 . S
C818 C816 1.353 . S
C818 C821 1.348 . S
C818 H866 0.929 . S
C819 C820 1.358 . S
C819 C821 1.356 . S
C819 H867 0.930 . S
C820 N817 1.279 . S
C820 C819 1.358 . S
C820 H823 0.930 . S
C821 C818 1.348 . S
C821 C819 1.356 . S
H822 C816 0.930 . S
H823 C820 0.930 . S
C824 C826 1.348 . S
C824 C827 1.356 . S
C824 O854 1.325 1_545 S
N825 C828 1.314 . S
N825 C829 1.279 . S
C826 C824 1.348 . S
C826 C828 1.353 . S
C826 H868 0.929 . S
C827 C824 1.356 . S
C827 C829 1.358 . S
C827 H869 0.930 . S
C828 N825 1.314 . S
C828 C826 1.353 . S
C828 H870 0.930 . S
C829 N825 1.279 . S
C829 C827 1.358 . S
C829 H871 0.930 . S
C830 C831 1.348 . S
C830 C832 1.356 . S
C830 O855 1.325 . S
C831 C830 1.348 . S
C831 C833 1.353 . S
C831 H872 0.929 . S
C832 C830 1.356 . S
C832 C834 1.358 . S
C832 H873 0.930 . S
C833 C831 1.353 . S
C833 N835 1.314 . S
C833 H874 0.930 . S
C834 C832 1.358 . S
C834 N835 1.279 . S
C834 H875 0.930 . S
N835 C833 1.314 . S
N835 C834 1.279 . S
C836 C838 1.353 . S
C836 N839 1.314 . S
C836 H842 0.930 . S
C837 N839 1.279 . S
C837 C840 1.358 . S
C837 H843 0.930 . S
C838 C836 1.353 . S
C838 C841 1.348 . S
C838 H876 0.929 . S
N839 Li794 1.990 . S
N839 C836 1.314 . S
N839 C837 1.279 . S
C840 C837 1.358 . S
C840 C841 1.356 . S
C840 H877 0.930 . S
C841 C838 1.348 . S
C841 C840 1.356 . S
H842 C836 0.930 . S
H843 C837 0.930 . S
C844 N845 1.314 . S
C844 C846 1.389 . S
C844 H850 0.930 1_565 S
N845 Li795 1.990 . S
N845 C844 1.314 . S
N845 C848 1.279 . S
C846 C844 1.389 . S
C846 C849 1.370 . S
C846 H878 0.874 1_565 S
C847 C848 1.358 . S
C847 C849 1.356 . S
C847 H879 0.930 . S
C848 N845 1.279 . S
C848 C847 1.358 . S
C848 H851 0.930 . S
C849 C846 1.370 . S
C849 C847 1.356 . S
H850 C844 0.930 1_545 S
H851 C848 0.930 . S
O852 Li792 1.956 1_565 S
O852 Li793 1.970 . S
O852 Li794 1.961 . S
O852 C796 1.325 . S
O853 Li792 1.970 1_565 S
O853 Li793 1.956 . S
O853 Li795 1.961 . S
O853 C802 1.325 . S
O854 Li792 1.961 1_565 S
O854 Li794 1.956 . S
O854 Li795 1.970 . S
O854 C824 1.325 1_565 S
O855 Li793 1.961 . S
O855 Li794 1.970 . S
O855 Li795 1.956 . S
O855 C830 1.325 . S
H856 C798 0.929 . S
H857 C799 0.930 . S
H858 C800 0.930 . S
H859 C801 0.930 . S
H860 C803 0.930 . S
H861 C805 0.929 . S
H862 C806 0.930 . S
H863 C807 0.930 . S
H864 C810 0.930 . S
H865 C813 0.929 . S
H866 C818 0.929 . S
H867 C819 0.930 . S
H868 C826 0.929 . S
H869 C827 0.930 . S
H870 C828 0.930 . S
H871 C829 0.930 . S
H872 C831 0.929 . S
H873 C832 0.930 . S
H874 C833 0.930 . S
H875 C834 0.930 . S
H876 C838 0.929 . S
H877 C840 0.930 . S
H878 C846 0.874 1_545 S
H879 C847 0.930 . S
Li880 N897 1.990 . S
Li880 O940 1.956 . S
Li880 O941 1.970 . S
Li880 O942 1.961 . S
Li881 N905 1.990 . S
Li881 O940 1.970 1_655 S
Li881 O941 1.956 1_655 S
Li881 O943 1.961 1_655 S
Li882 N927 1.990 . S
Li882 O940 1.961 . S
Li882 O942 1.956 . S
Li882 O943 1.970 . S
Li883 N933 1.990 . S
Li883 O941 1.961 . S
Li883 O942 1.970 . S
Li883 O943 1.956 . S
C884 C886 1.348 1_455 S
C884 C887 1.356 . S
C884 O940 1.325 . S
N885 C888 1.314 . S
N885 C889 1.279 1_655 S
C886 C884 1.348 1_655 S
C886 C888 1.353 . S
C886 H944 0.929 . S
C887 C884 1.356 . S
C887 C889 1.358 . S
C887 H945 0.930 . S
C888 N885 1.314 . S
C888 C886 1.353 . S
C888 H946 0.930 . S
C889 N885 1.279 1_455 S
C889 C887 1.358 . S
C889 H947 0.930 . S
C890 C893 1.348 . S
C890 C894 1.356 . S
C890 O941 1.325 . S
C891 N892 1.279 . S
C891 C894 1.358 . S
C891 H948 0.930 . S
N892 C891 1.279 . S
N892 C895 1.314 . S
C893 C890 1.348 . S
C893 C895 1.353 . S
C893 H949 0.929 . S
C894 C890 1.356 . S
C894 C891 1.358 . S
C894 H950 0.930 . S
C895 N892 1.314 . S
C895 C893 1.353 . S
C895 H951 0.930 . S
C896 N897 1.314 . S
C896 C901 1.353 . S
C896 H902 0.930 . S
N897 Li880 1.990 . S
N897 C896 1.314 . S
N897 C899 1.279 . S
C898 C899 1.358 . S
C898 C900 1.356 . S
C898 H952 0.930 . S
C899 N897 1.279 . S
C899 C898 1.358 . S
C899 H903 0.930 . S
C900 C898 1.356 . S
C900 C901 1.348 . S
C901 C896 1.353 . S
C901 C900 1.348 . S
C901 H953 0.929 . S
H902 C896 0.930 . S
H903 C899 0.930 . S
C904 N905 1.314 . S
C904 C906 1.353 . S
C904 H910 0.930 . S
N905 Li881 1.990 . S
N905 C904 1.314 . S
N905 C908 1.279 . S
C906 C904 1.353 . S
C906 C909 1.348 . S
C906 H954 0.929 . S
C907 C908 1.358 . S
C907 C909 1.356 . S
C907 H955 0.930 . S
C908 N905 1.279 . S
C908 C907 1.358 . S
C908 H911 0.930 . S
C909 C906 1.348 . S
C909 C907 1.356 . S
H910 C904 0.930 . S
H911 C908 0.930 . S
C912 C914 1.348 . S
C912 C915 1.356 . S
C912 O942 1.325 . S
N913 C916 1.314 . S
N913 C917 1.279 . S
C914 C912 1.348 . S
C914 C916 1.353 . S
C914 H956 0.929 . S
C915 C912 1.356 . S
C915 C917 1.358 . S
C915 H957 0.930 . S
C916 N913 1.314 . S
C916 C914 1.353 . S
C916 H958 0.930 . S
C917 N913 1.279 . S
C917 C915 1.358 . S
C917 H959 0.930 . S
C918 C919 1.348 . S
C918 C920 1.356 . S
C918 O943 1.325 1_655 S
C919 C918 1.348 . S
C919 C921 1.353 . S
C919 H960 0.929 . S
C920 C918 1.356 . S
C920 C922 1.358 . S
C920 H961 0.930 . S
C921 C919 1.353 . S
C921 N923 1.314 . S
C921 H962 0.930 . S
C922 C920 1.358 . S
C922 N923 1.279 . S
C922 H963 0.930 . S
N923 C921 1.314 . S
N923 C922 1.279 . S
C924 C926 1.355 . S
C924 N927 1.314 . S
C924 H930 0.930 1_455 S
C925 N927 1.279 . S
C925 C928 1.358 . S
C925 H931 0.930 . S
C926 C924 1.355 . S
C926 C929 1.344 . S
C926 H964 0.931 1_455 S
N927 Li882 1.990 . S
N927 C924 1.314 . S
N927 C925 1.279 . S
C928 C925 1.358 . S
C928 C929 1.356 . S
C928 H965 0.930 . S
C929 C926 1.344 . S
C929 C928 1.356 . S
H930 C924 0.930 1_655 S
H931 C925 0.930 . S
C932 N933 1.314 . S
C932 C934 1.353 . S
C932 H938 0.930 . S
N933 Li883 1.990 . S
N933 C932 1.314 . S
N933 C936 1.279 . S
C934 C932 1.353 . S
C934 C937 1.348 . S
C934 H966 0.929 . S
C935 C936 1.358 . S
C935 C937 1.356 . S
C935 H967 0.930 . S
C936 N933 1.279 . S
C936 C935 1.358 . S
C936 H939 0.930 . S
C937 C934 1.348 . S
C937 C935 1.356 . S
H938 C932 0.930 . S
H939 C936 0.930 . S
O940 Li880 1.956 . S
O940 Li881 1.970 1_455 S
O940 Li882 1.961 . S
O940 C884 1.325 . S
O941 Li880 1.970 . S
O941 Li881 1.956 1_455 S
O941 Li883 1.961 . S
O941 C890 1.325 . S
O942 Li880 1.961 . S
O942 Li882 1.956 . S
O942 Li883 1.970 . S
O942 C912 1.325 . S
O943 Li881 1.961 1_455 S
O943 Li882 1.970 . S
O943 Li883 1.956 . S
O943 C918 1.325 1_455 S
H944 C886 0.929 . S
H945 C887 0.930 . S
H946 C888 0.930 . S
H947 C889 0.930 . S
H948 C891 0.930 . S
H949 C893 0.929 . S
H950 C894 0.930 . S
H951 C895 0.930 . S
H952 C898 0.930 . S
H953 C901 0.929 . S
H954 C906 0.929 . S
H955 C907 0.930 . S
H956 C914 0.929 . S
H957 C915 0.930 . S
H958 C916 0.930 . S
H959 C917 0.930 . S
H960 C919 0.929 . S
H961 C920 0.930 . S
H962 C921 0.930 . S
H963 C922 0.930 . S
H964 C926 0.931 1_655 S
H965 C928 0.930 . S
H966 C934 0.929 . S
H967 C935 0.930 . S
Li968 N985 1.990 . S
Li968 O1028 1.956 . S
Li968 O1029 1.970 . S
Li968 O1030 1.961 . S
Li969 N993 1.990 . S
Li969 O1028 1.970 . S
Li969 O1029 1.956 . S
Li969 O1031 1.961 . S
Li970 N1015 1.990 . S
Li970 O1028 1.961 . S
Li970 O1030 1.956 . S
Li970 O1031 1.970 . S
Li971 N1021 1.990 . S
Li971 O1029 1.961 . S
Li971 O1030 1.970 . S
Li971 O1031 1.956 . S
C972 C974 1.348 . S
C972 C975 1.356 . S
C972 O1028 1.325 . S
N973 C976 1.314 . S
N973 C977 1.279 . S
C974 C972 1.348 . S
C974 C976 1.353 . S
C974 H1032 0.929 . S
C975 C972 1.356 . S
C975 C977 1.358 . S
C975 H1033 0.930 . S
C976 N973 1.314 . S
C976 C974 1.353 . S
C976 H1034 0.930 . S
C977 N973 1.279 . S
C977 C975 1.358 . S
C977 H1035 0.930 . S
C978 C981 1.348 . S
C978 C982 1.356 . S
C978 O1029 1.325 . S
C979 N980 1.279 . S
C979 C982 1.358 . S
C979 H1036 0.930 . S
N980 C979 1.279 . S
N980 C983 1.314 . S
C981 C978 1.348 . S
C981 C983 1.353 . S
C981 H1037 0.929 . S
C982 C978 1.356 . S
C982 C979 1.358 . S
C982 H1038 0.930 . S
C983 N980 1.314 . S
C983 C981 1.353 . S
C983 H1039 0.930 . S
C984 N985 1.314 . S
C984 C989 1.353 . S
C984 H990 0.930 . S
N985 Li968 1.990 . S
N985 C984 1.314 . S
N985 C987 1.279 . S
C986 C987 1.358 . S
C986 C988 1.356 . S
C986 H1040 0.930 . S
C987 N985 1.279 . S
C987 C986 1.358 . S
C987 H991 0.930 . S
C988 C986 1.356 . S
C988 C989 1.348 . S
C989 C984 1.353 . S
C989 C988 1.348 . S
C989 H1041 0.929 . S
H990 C984 0.930 . S
H991 C987 0.930 . S
C992 N993 1.314 . S
C992 C994 1.353 . S
C992 H998 0.930 . S
N993 Li969 1.990 . S
N993 C992 1.314 . S
N993 C996 1.279 . S
C994 C992 1.353 . S
C994 C997 1.348 . S
C994 H1042 0.929 . S
C995 C996 1.358 . S
C995 C997 1.356 . S
C995 H1043 0.930 . S
C996 N993 1.279 . S
C996 C995 1.358 . S
C996 H999 0.930 . S
C997 C994 1.348 . S
C997 C995 1.356 . S
H998 C992 0.930 . S
H999 C996 0.930 . S
C1000 C1002 1.348 . S
C1000 C1003 1.356 . S
C1000 O1030 1.325 . S
N1001 C1004 1.314 . S
N1001 C1005 1.279 . S
C1002 C1000 1.348 . S
C1002 C1004 1.353 . S
C1002 H1044 0.929 . S
C1003 C1000 1.356 . S
C1003 C1005 1.358 . S
C1003 H1045 0.930 . S
C1004 N1001 1.314 . S
C1004 C1002 1.353 . S
C1004 H1046 0.930 . S
C1005 N1001 1.279 . S
C1005 C1003 1.358 . S
C1005 H1047 0.930 . S
C1006 C1007 1.348 . S
C1006 C1008 1.356 . S
C1006 O1031 1.325 . S
C1007 C1006 1.348 . S
C1007 C1009 1.353 . S
C1007 H1048 0.929 . S
C1008 C1006 1.356 . S
C1008 C1010 1.358 . S
C1008 H1049 0.930 . S
C1009 C1007 1.353 . S
C1009 N1011 1.314 . S
C1009 H1050 0.930 . S
C1010 C1008 1.358 . S
C1010 N1011 1.279 . S
C1010 H1051 0.930 . S
N1011 C1009 1.314 . S
N1011 C1010 1.279 . S
C1012 C1014 1.353 . S
C1012 N1015 1.314 . S
C1012 H1018 0.930 . S
C1013 N1015 1.279 . S
C1013 C1016 1.358 . S
C1013 H1019 0.930 . S
C1014 C1012 1.353 . S
C1014 C1017 1.348 . S
C1014 H1052 0.929 . S
N1015 Li970 1.990 . S
N1015 C1012 1.314 . S
N1015 C1013 1.279 . S
C1016 C1013 1.358 . S
C1016 C1017 1.356 . S
C1016 H1053 0.930 . S
C1017 C1014 1.348 . S
C1017 C1016 1.356 . S
H1018 C1012 0.930 . S
H1019 C1013 0.930 . S
C1020 N1021 1.314 . S
C1020 C1022 1.353 . S
C1020 H1026 0.930 . S
N1021 Li971 1.990 . S
N1021 C1020 1.314 . S
N1021 C1024 1.279 . S
C1022 C1020 1.353 . S
C1022 C1025 1.348 . S
C1022 H1054 0.929 . S
C1023 C1024 1.358 . S
C1023 C1025 1.356 . S
C1023 H1055 0.930 . S
C1024 N1021 1.279 . S
C1024 C1023 1.358 . S
C1024 H1027 0.930 . S
C1025 C1022 1.348 . S
C1025 C1023 1.356 . S
H1026 C1020 0.930 . S
H1027 C1024 0.930 . S
O1028 Li968 1.956 . S
O1028 Li969 1.970 . S
O1028 Li970 1.961 . S
O1028 C972 1.325 . S
O1029 Li968 1.970 . S
O1029 Li969 1.956 . S
O1029 Li971 1.961 . S
O1029 C978 1.325 . S
O1030 Li968 1.961 . S
O1030 Li970 1.956 . S
O1030 Li971 1.970 . S
O1030 C1000 1.325 . S
O1031 Li969 1.961 . S
O1031 Li970 1.970 . S
O1031 Li971 1.956 . S
O1031 C1006 1.325 . S
H1032 C974 0.929 . S
H1033 C975 0.930 . S
H1034 C976 0.930 . S
H1035 C977 0.930 . S
H1036 C979 0.930 . S
H1037 C981 0.929 . S
H1038 C982 0.930 . S
H1039 C983 0.930 . S
H1040 C986 0.930 . S
H1041 C989 0.929 . S
H1042 C994 0.929 . S
H1043 C995 0.930 . S
H1044 C1002 0.929 . S
H1045 C1003 0.930 . S
H1046 C1004 0.930 . S
H1047 C1005 0.930 . S
H1048 C1007 0.929 . S
H1049 C1008 0.930 . S
H1050 C1009 0.930 . S
H1051 C1010 0.930 . S
H1052 C1014 0.929 . S
H1053 C1016 0.930 . S
H1054 C1022 0.929 . S
H1055 C1023 0.930 . S
Li1056 N1073 2.014 . S
Li1056 O1116 1.956 1_565 S
Li1056 O1117 1.970 1_565 S
Li1056 O1118 1.922 1_565 S
Li1057 N1081 1.990 . S
Li1057 O1116 1.970 . S
Li1057 O1117 1.956 . S
Li1057 O1119 1.961 . S
Li1058 N1103 1.990 . S
Li1058 O1116 1.961 . S
Li1058 O1118 1.956 . S
Li1058 O1119 1.970 . S
Li1059 N1109 1.990 . S
Li1059 O1117 1.961 . S
Li1059 O1118 1.970 . S
Li1059 O1119 1.956 . S
C1060 C1062 1.348 . S
C1060 C1063 1.356 . S
C1060 O1116 1.325 1_565 S
N1061 C1064 1.314 . S
N1061 C1065 1.279 . S
C1062 C1060 1.348 . S
C1062 C1064 1.353 . S
C1062 H1120 0.929 . S
C1063 C1060 1.356 . S
C1063 C1065 1.358 . S
C1063 H1121 0.930 . S
C1064 N1061 1.314 . S
C1064 C1062 1.353 . S
C1064 H1122 0.930 . S
C1065 N1061 1.279 . S
C1065 C1063 1.358 . S
C1065 H1123 0.930 . S
C1066 C1069 1.348 1_545 S
C1066 C1070 1.356 . S
C1066 O1117 1.325 . S
C1067 N1068 1.279 1_545 S
C1067 C1070 1.358 . S
C1067 H1124 0.930 . S
N1068 C1067 1.279 1_565 S
N1068 C1071 1.314 . S
C1069 C1066 1.348 1_565 S
C1069 C1071 1.353 . S
C1069 H1125 0.929 . S
C1070 C1066 1.356 . S
C1070 C1067 1.358 . S
C1070 H1126 0.930 . S
C1071 N1068 1.314 . S
C1071 C1069 1.353 . S
C1071 H1127 0.930 . S
C1072 N1073 1.314 . S
C1072 C1077 1.353 . S
C1072 H1078 0.930 . S
N1073 Li1056 2.014 . S
N1073 C1072 1.314 . S
N1073 C1075 1.279 . S
C1074 C1075 1.358 . S
C1074 C1076 1.356 . S
C1074 H1128 0.930 . S
C1075 N1073 1.279 . S
C1075 C1074 1.358 . S
C1075 H1079 0.930 . S
C1076 C1074 1.356 . S
C1076 C1077 1.348 . S
C1077 C1072 1.353 . S
C1077 C1076 1.348 . S
C1077 H1129 0.929 . S
H1078 C1072 0.930 . S
H1079 C1075 0.930 . S
C1080 N1081 1.314 . S
C1080 C1082 1.353 . S
C1080 H1086 0.930 . S
N1081 Li1057 1.990 . S
N1081 C1080 1.314 . S
N1081 C1084 1.279 . S
C1082 C1080 1.353 . S
C1082 C1085 1.348 . S
C1082 H1130 0.929 . S
C1083 C1084 1.358 . S
C1083 C1085 1.356 . S
C1083 H1131 0.958 . S
C1084 N1081 1.279 . S
C1084 C1083 1.358 . S
C1084 H1087 0.930 . S
C1085 C1082 1.348 . S
C1085 C1083 1.356 . S
H1086 C1080 0.930 . S
H1087 C1084 0.930 . S
C1088 C1090 1.348 . S
C1088 C1091 1.356 . S
C1088 O1118 1.325 . S
N1089 C1092 1.314 . S
N1089 C1093 1.279 . S
C1090 C1088 1.348 . S
C1090 C1092 1.353 . S
C1090 H1132 0.929 . S
C1091 C1088 1.356 . S
C1091 C1093 1.358 . S
C1091 H1133 0.961 . S
C1092 N1089 1.314 . S
C1092 C1090 1.353 . S
C1092 H1134 0.930 . S
C1093 N1089 1.279 . S
C1093 C1091 1.358 . S
C1093 H1135 0.930 . S
C1094 C1095 1.348 . S
C1094 C1096 1.356 . S
C1094 O1119 1.325 . S
C1095 C1094 1.348 . S
C1095 C1097 1.353 . S
C1095 H1136 0.929 . S
C1096 C1094 1.356 . S
C1096 C1098 1.358 . S
C1096 H1137 0.930 . S
C1097 C1095 1.353 . S
C1097 N1099 1.314 . S
C1097 H1138 0.930 . S
C1098 C1096 1.358 . S
C1098 N1099 1.279 . S
C1098 H1139 0.930 . S
N1099 C1097 1.314 . S
N1099 C1098 1.279 . S
C1100 C1102 1.353 . S
C1100 N1103 1.314 . S
C1100 H1106 0.930 . S
C1101 N1103 1.279 . S
C1101 C1104 1.358 . S
C1101 H1107 0.930 . S
C1102 C1100 1.353 . S
C1102 C1105 1.348 . S
C1102 H1140 0.929 . S
N1103 Li1058 1.990 . S
N1103 C1100 1.314 . S
N1103 C1101 1.279 . S
C1104 C1101 1.358 . S
C1104 C1105 1.356 . S
C1104 H1141 0.930 . S
C1105 C1102 1.348 . S
C1105 C1104 1.356 . S
H1106 C1100 0.930 . S
H1107 C1101 0.930 . S
C1108 N1109 1.314 . S
C1108 C1110 1.353 . S
C1108 H1114 0.930 . S
N1109 Li1059 1.990 . S
N1109 C1108 1.314 . S
N1109 C1112 1.279 . S
C1110 C1108 1.353 . S
C1110 C1113 1.348 . S
C1110 H1142 0.929 . S
C1111 C1112 1.358 . S
C1111 C1113 1.356 . S
C1111 H1143 0.930 . S
C1112 N1109 1.279 . S
C1112 C1111 1.358 . S
C1112 H1115 0.930 . S
C1113 C1110 1.348 . S
C1113 C1111 1.356 . S
H1114 C1108 0.930 . S
H1115 C1112 0.930 . S
O1116 Li1056 1.956 1_545 S
O1116 Li1057 1.970 . S
O1116 Li1058 1.961 . S
O1116 C1060 1.325 1_545 S
O1117 Li1056 1.970 1_545 S
O1117 Li1057 1.956 . S
O1117 Li1059 1.961 . S
O1117 C1066 1.325 . S
O1118 Li1056 1.922 1_545 S
O1118 Li1058 1.956 . S
O1118 Li1059 1.970 . S
O1118 C1088 1.325 . S
O1119 Li1057 1.961 . S
O1119 Li1058 1.970 . S
O1119 Li1059 1.956 . S
O1119 C1094 1.325 . S
H1120 C1062 0.929 . S
H1121 C1063 0.930 . S
H1122 C1064 0.930 . S
H1123 C1065 0.930 . S
H1124 C1067 0.930 . S
H1125 C1069 0.929 . S
H1126 C1070 0.930 . S
H1127 C1071 0.930 . S
H1128 C1074 0.930 . S
H1129 C1077 0.929 . S
H1130 C1082 0.929 . S
H1131 C1083 0.958 . S
H1132 C1090 0.929 . S
H1133 C1091 0.961 . S
H1134 C1092 0.930 . S
H1135 C1093 0.930 . S
H1136 C1095 0.929 . S
H1137 C1096 0.930 . S
H1138 C1097 0.930 . S
H1139 C1098 0.930 . S
H1140 C1102 0.929 . S
H1141 C1104 0.930 . S
H1142 C1110 0.929 . S
H1143 C1111 0.930 . S
Li1144 N1161 1.990 . S
Li1144 O1204 1.956 1_455 S
Li1144 O1205 1.970 1_455 S
Li1144 O1206 1.961 1_455 S
Li1145 N1169 1.990 . S
Li1145 O1204 1.970 . S
Li1145 O1205 1.956 . S
Li1145 O1207 1.961 . S
Li1146 N1191 1.990 . S
Li1146 O1204 1.961 . S
Li1146 O1206 1.956 . S
Li1146 O1207 1.970 . S
Li1147 N1197 1.990 . S
Li1147 O1205 1.961 . S
Li1147 O1206 1.970 . S
Li1147 O1207 1.956 . S
C1148 C1150 1.348 . S
C1148 C1151 1.356 . S
C1148 O1204 1.325 1_455 S
N1149 C1152 1.314 . S
N1149 C1153 1.279 . S
C1150 C1148 1.348 . S
C1150 C1152 1.353 . S
C1150 H1208 0.929 . S
C1151 C1148 1.356 . S
C1151 C1153 1.358 . S
C1151 H1209 0.930 . S
C1152 N1149 1.314 . S
C1152 C1150 1.353 . S
C1152 H1210 0.930 . S
C1153 N1149 1.279 . S
C1153 C1151 1.358 . S
C1153 H1211 0.930 . S
C1154 C1157 1.348 1_655 S
C1154 C1158 1.356 . S
C1154 O1205 1.325 . S
C1155 N1156 1.279 1_655 S
C1155 C1158 1.358 . S
C1155 H1212 0.930 . S
N1156 C1155 1.279 1_455 S
N1156 C1159 1.314 . S
C1157 C1154 1.348 1_455 S
C1157 C1159 1.353 . S
C1157 H1213 0.929 . S
C1158 C1154 1.356 . S
C1158 C1155 1.358 . S
C1158 H1214 0.930 . S
C1159 N1156 1.314 . S
C1159 C1157 1.353 . S
C1159 H1215 0.930 . S
C1160 N1161 1.314 . S
C1160 C1165 1.353 . S
C1160 H1166 0.930 . S
N1161 Li1144 1.990 . S
N1161 C1160 1.314 . S
N1161 C1163 1.279 . S
C1162 C1163 1.358 . S
C1162 C1164 1.356 . S
C1162 H1216 0.930 . S
C1163 N1161 1.279 . S
C1163 C1162 1.358 . S
C1163 H1167 0.930 . S
C1164 C1162 1.356 . S
C1164 C1165 1.348 . S
C1165 C1160 1.353 . S
C1165 C1164 1.348 . S
C1165 H1217 0.929 . S
H1166 C1160 0.930 . S
H1167 C1163 0.930 . S
C1168 N1169 1.314 . S
C1168 C1170 1.353 . S
C1168 H1174 0.930 . S
N1169 Li1145 1.990 . S
N1169 C1168 1.314 . S
N1169 C1172 1.279 . S
C1170 C1168 1.353 . S
C1170 C1173 1.348 . S
C1170 H1218 0.929 . S
C1171 C1172 1.358 . S
C1171 C1173 1.356 . S
C1171 H1219 0.930 1_655 S
C1172 N1169 1.279 . S
C1172 C1171 1.358 . S
C1172 H1175 0.942 . S
C1173 C1170 1.348 . S
C1173 C1171 1.356 . S
H1174 C1168 0.930 . S
H1175 C1172 0.942 . S
C1176 C1178 1.348 . S
C1176 C1179 1.356 . S
C1176 O1206 1.325 . S
N1177 C1180 1.314 . S
N1177 C1181 1.279 . S
C1178 C1176 1.348 . S
C1178 C1180 1.353 . S
C1178 H1220 0.929 . S
C1179 C1176 1.356 . S
C1179 C1181 1.358 . S
C1179 H1221 0.930 1_655 S
C1180 N1177 1.314 . S
C1180 C1178 1.353 . S
C1180 H1222 0.930 . S
C1181 N1177 1.279 . S
C1181 C1179 1.358 . S
C1181 H1223 0.942 . S
C1182 C1183 1.348 . S
C1182 C1184 1.356 . S
C1182 O1207 1.325 . S
C1183 C1182 1.348 . S
C1183 C1185 1.353 . S
C1183 H1224 0.929 . S
C1184 C1182 1.356 . S
C1184 C1186 1.358 . S
C1184 H1225 0.930 . S
C1185 C1183 1.353 . S
C1185 N1187 1.314 . S
C1185 H1226 0.930 . S
C1186 C1184 1.358 . S
C1186 N1187 1.279 . S
C1186 H1227 0.930 . S
N1187 C1185 1.314 . S
N1187 C1186 1.279 . S
C1188 C1190 1.353 . S
C1188 N1191 1.314 . S
C1188 H1194 0.930 . S
C1189 N1191 1.279 . S
C1189 C1192 1.358 . S
C1189 H1195 0.930 . S
C1190 C1188 1.353 . S
C1190 C1193 1.348 . S
C1190 H1228 0.929 . S
N1191 Li1146 1.990 . S
N1191 C1188 1.314 . S
N1191 C1189 1.279 . S
C1192 C1189 1.358 . S
C1192 C1193 1.356 . S
C1192 H1229 0.930 . S
C1193 C1190 1.348 . S
C1193 C1192 1.356 . S
H1194 C1188 0.930 . S
H1195 C1189 0.930 . S
C1196 N1197 1.314 . S
C1196 C1198 1.353 . S
C1196 H1202 0.930 . S
N1197 Li1147 1.990 . S
N1197 C1196 1.314 . S
N1197 C1200 1.279 . S
C1198 C1196 1.353 . S
C1198 C1201 1.348 . S
C1198 H1230 0.929 . S
C1199 C1200 1.358 . S
C1199 C1201 1.356 . S
C1199 H1231 0.930 . S
C1200 N1197 1.279 . S
C1200 C1199 1.358 . S
C1200 H1203 0.930 . S
C1201 C1198 1.348 . S
C1201 C1199 1.356 . S
H1202 C1196 0.930 . S
H1203 C1200 0.930 . S
O1204 Li1144 1.956 1_655 S
O1204 Li1145 1.970 . S
O1204 Li1146 1.961 . S
O1204 C1148 1.325 1_655 S
O1205 Li1144 1.970 1_655 S
O1205 Li1145 1.956 . S
O1205 Li1147 1.961 . S
O1205 C1154 1.325 . S
O1206 Li1144 1.961 1_655 S
O1206 Li1146 1.956 . S
O1206 Li1147 1.970 . S
O1206 C1176 1.325 . S
O1207 Li1145 1.961 . S
O1207 Li1146 1.970 . S
O1207 Li1147 1.956 . S
O1207 C1182 1.325 . S
H1208 C1150 0.929 . S
H1209 C1151 0.930 . S
H1210 C1152 0.930 . S
H1211 C1153 0.930 . S
H1212 C1155 0.930 . S
H1213 C1157 0.929 . S
H1214 C1158 0.930 . S
H1215 C1159 0.930 . S
H1216 C1162 0.930 . S
H1217 C1165 0.929 . S
H1218 C1170 0.929 . S
H1219 C1171 0.930 1_455 S
H1220 C1178 0.929 . S
H1221 C1179 0.930 1_455 S
H1222 C1180 0.930 . S
H1223 C1181 0.942 . S
H1224 C1183 0.929 . S
H1225 C1184 0.930 . S
H1226 C1185 0.930 . S
H1227 C1186 0.930 . S
H1228 C1190 0.929 . S
H1229 C1192 0.930 . S
H1230 C1198 0.929 . S
H1231 C1199 0.930 . S
Li1232 N1249 1.990 . S
Li1232 O1292 1.956 . S
Li1232 O1293 1.970 . S
Li1232 O1294 1.961 . S
Li1233 N1257 1.990 . S
Li1233 O1292 1.970 . S
Li1233 O1293 1.956 . S
Li1233 O1295 1.961 . S
Li1234 N1279 1.990 . S
Li1234 O1292 1.961 . S
Li1234 O1294 1.956 . S
Li1234 O1295 1.970 . S
Li1235 N1285 1.990 . S
Li1235 O1293 1.961 . S
Li1235 O1294 1.970 . S
Li1235 O1295 1.956 . S
C1236 C1238 1.348 . S
C1236 C1239 1.356 . S
C1236 O1292 1.325 . S
N1237 C1240 1.314 . S
N1237 C1241 1.279 . S
C1238 C1236 1.348 . S
C1238 C1240 1.353 . S
C1238 H1296 0.929 . S
C1239 C1236 1.356 . S
C1239 C1241 1.358 . S
C1239 H1297 0.930 . S
C1240 N1237 1.314 . S
C1240 C1238 1.353 . S
C1240 H1298 0.930 . S
C1241 N1237 1.279 . S
C1241 C1239 1.358 . S
C1241 H1299 0.930 . S
C1242 C1245 1.348 . S
C1242 C1246 1.356 . S
C1242 O1293 1.325 . S
C1243 N1244 1.279 . S
C1243 C1246 1.358 . S
C1243 H1300 0.930 . S
N1244 C1243 1.279 . S
N1244 C1247 1.314 . S
C1245 C1242 1.348 . S
C1245 C1247 1.353 . S
C1245 H1301 0.929 . S
C1246 C1242 1.356 . S
C1246 C1243 1.358 . S
C1246 H1302 0.930 . S
C1247 N1244 1.314 . S
C1247 C1245 1.353 . S
C1247 H1303 0.930 . S
C1248 N1249 1.314 . S
C1248 C1253 1.353 . S
C1248 H1254 0.930 . S
N1249 Li1232 1.990 . S
N1249 C1248 1.314 . S
N1249 C1251 1.279 . S
C1250 C1251 1.358 . S
C1250 C1252 1.356 . S
C1250 H1304 0.930 . S
C1251 N1249 1.279 . S
C1251 C1250 1.358 . S
C1251 H1255 0.930 . S
C1252 C1250 1.356 . S
C1252 C1253 1.348 . S
C1253 C1248 1.353 . S
C1253 C1252 1.348 . S
C1253 H1305 0.929 . S
H1254 C1248 0.930 . S
H1255 C1251 0.930 . S
C1256 N1257 1.314 . S
C1256 C1258 1.353 . S
C1256 H1262 0.930 . S
N1257 Li1233 1.990 . S
N1257 C1256 1.314 . S
N1257 C1260 1.279 . S
C1258 C1256 1.353 . S
C1258 C1261 1.348 . S
C1258 H1306 0.929 . S
C1259 C1260 1.358 . S
C1259 C1261 1.356 . S
C1259 H1307 0.930 . S
C1260 N1257 1.279 . S
C1260 C1259 1.358 . S
C1260 H1263 0.930 . S
C1261 C1258 1.348 . S
C1261 C1259 1.356 . S
H1262 C1256 0.930 . S
H1263 C1260 0.930 . S
C1264 C1266 1.348 . S
C1264 C1267 1.356 . S
C1264 O1294 1.325 . S
N1265 C1268 1.314 . S
N1265 C1269 1.279 . S
C1266 C1264 1.348 . S
C1266 C1268 1.353 . S
C1266 H1308 0.929 . S
C1267 C1264 1.356 . S
C1267 C1269 1.358 . S
C1267 H1309 0.930 . S
C1268 N1265 1.314 . S
C1268 C1266 1.353 . S
C1268 H1310 0.930 . S
C1269 N1265 1.279 . S
C1269 C1267 1.358 . S
C1269 H1311 0.930 . S
C1270 C1271 1.348 . S
C1270 C1272 1.356 . S
C1270 O1295 1.325 . S
C1271 C1270 1.348 . S
C1271 C1273 1.353 . S
C1271 H1312 0.929 . S
C1272 C1270 1.356 . S
C1272 C1274 1.358 . S
C1272 H1313 0.930 . S
C1273 C1271 1.353 . S
C1273 N1275 1.314 . S
C1273 H1314 0.930 . S
C1274 C1272 1.358 . S
C1274 N1275 1.279 . S
C1274 H1315 0.930 . S
N1275 C1273 1.314 . S
N1275 C1274 1.279 . S
C1276 C1278 1.353 . S
C1276 N1279 1.314 . S
C1276 H1282 0.930 . S
C1277 N1279 1.279 . S
C1277 C1280 1.358 . S
C1277 H1283 0.930 . S
C1278 C1276 1.353 . S
C1278 C1281 1.348 . S
C1278 H1316 0.929 . S
N1279 Li1234 1.990 . S
N1279 C1276 1.314 . S
N1279 C1277 1.279 . S
C1280 C1277 1.358 . S
C1280 C1281 1.356 . S
C1280 H1317 0.930 . S
C1281 C1278 1.348 . S
C1281 C1280 1.356 . S
H1282 C1276 0.930 . S
H1283 C1277 0.930 . S
C1284 N1285 1.314 . S
C1284 C1286 1.353 . S
C1284 H1290 0.930 . S
N1285 Li1235 1.990 . S
N1285 C1284 1.314 . S
N1285 C1288 1.279 . S
C1286 C1284 1.353 . S
C1286 C1289 1.348 . S
C1286 H1318 0.929 . S
C1287 C1288 1.358 . S
C1287 C1289 1.356 . S
C1287 H1319 0.930 . S
C1288 N1285 1.279 . S
C1288 C1287 1.358 . S
C1288 H1291 0.930 . S
C1289 C1286 1.348 . S
C1289 C1287 1.356 . S
H1290 C1284 0.930 . S
H1291 C1288 0.930 . S
O1292 Li1232 1.956 . S
O1292 Li1233 1.970 . S
O1292 Li1234 1.961 . S
O1292 C1236 1.325 . S
O1293 Li1232 1.970 . S
O1293 Li1233 1.956 . S
O1293 Li1235 1.961 . S
O1293 C1242 1.325 . S
O1294 Li1232 1.961 . S
O1294 Li1234 1.956 . S
O1294 Li1235 1.970 . S
O1294 C1264 1.325 . S
O1295 Li1233 1.961 . S
O1295 Li1234 1.970 . S
O1295 Li1235 1.956 . S
O1295 C1270 1.325 . S
H1296 C1238 0.929 . S
H1297 C1239 0.930 . S
H1298 C1240 0.930 . S
H1299 C1241 0.930 . S
H1300 C1243 0.930 . S
H1301 C1245 0.929 . S
H1302 C1246 0.930 . S
H1303 C1247 0.930 . S
H1304 C1250 0.930 . S
H1305 C1253 0.929 . S
H1306 C1258 0.929 . S
H1307 C1259 0.930 . S
H1308 C1266 0.929 . S
H1309 C1267 0.930 . S
H1310 C1268 0.930 . S
H1311 C1269 0.930 . S
H1312 C1271 0.929 . S
H1313 C1272 0.930 . S
H1314 C1273 0.930 . S
H1315 C1274 0.930 . S
H1316 C1278 0.929 . S
H1317 C1280 0.930 . S
H1318 C1286 0.929 . S
H1319 C1287 0.930 . S
Li1320 N1337 1.990 . S
Li1320 O1380 1.956 . S
Li1320 O1381 1.970 . S
Li1320 O1382 1.961 . S
Li1321 N1345 1.990 . S
Li1321 O1380 1.970 . S
Li1321 O1381 1.956 . S
Li1321 O1383 1.961 . S
Li1322 N1367 1.990 . S
Li1322 O1380 1.961 . S
Li1322 O1382 1.956 . S
Li1322 O1383 1.970 . S
Li1323 N1373 1.990 . S
Li1323 O1381 1.961 . S
Li1323 O1382 1.970 . S
Li1323 O1383 1.956 . S
C1324 C1326 1.348 . S
C1324 C1327 1.356 . S
C1324 O1380 1.325 . S
N1325 C1328 1.314 . S
N1325 C1329 1.279 . S
C1326 C1324 1.348 . S
C1326 C1328 1.353 . S
C1326 H1384 0.929 . S
C1327 C1324 1.356 . S
C1327 C1329 1.358 . S
C1327 H1385 0.930 . S
C1328 N1325 1.314 . S
C1328 C1326 1.353 . S
C1328 H1386 0.930 . S
C1329 N1325 1.279 . S
C1329 C1327 1.358 . S
C1329 H1387 0.930 . S
C1330 C1333 1.348 . S
C1330 C1334 1.356 . S
C1330 O1381 1.325 . S
C1331 N1332 1.279 . S
C1331 C1334 1.358 . S
C1331 H1388 0.930 . S
N1332 C1331 1.279 . S
N1332 C1335 1.314 . S
C1333 C1330 1.348 . S
C1333 C1335 1.353 . S
C1333 H1389 0.929 . S
C1334 C1330 1.356 . S
C1334 C1331 1.358 . S
C1334 H1390 0.930 . S
C1335 N1332 1.314 . S
C1335 C1333 1.353 . S
C1335 H1391 0.930 . S
C1336 N1337 1.314 . S
C1336 C1341 1.353 . S
C1336 H1342 0.930 . S
N1337 Li1320 1.990 . S
N1337 C1336 1.314 . S
N1337 C1339 1.279 . S
C1338 C1339 1.358 . S
C1338 C1340 1.356 . S
C1338 H1392 0.930 . S
C1339 N1337 1.279 . S
C1339 C1338 1.358 . S
C1339 H1343 0.930 . S
C1340 C1338 1.356 . S
C1340 C1341 1.348 . S
C1341 C1336 1.353 . S
C1341 C1340 1.348 . S
C1341 H1393 0.929 . S
H1342 C1336 0.930 . S
H1343 C1339 0.930 . S
C1344 N1345 1.314 . S
C1344 C1346 1.353 . S
C1344 H1350 0.930 . S
N1345 Li1321 1.990 . S
N1345 C1344 1.314 . S
N1345 C1348 1.279 . S
C1346 C1344 1.353 . S
C1346 C1349 1.348 . S
C1346 H1394 0.929 . S
C1347 C1348 1.358 . S
C1347 C1349 1.356 . S
C1347 H1395 0.930 . S
C1348 N1345 1.279 . S
C1348 C1347 1.358 . S
C1348 H1351 0.930 . S
C1349 C1346 1.348 . S
C1349 C1347 1.356 . S
H1350 C1344 0.930 . S
H1351 C1348 0.930 . S
C1352 C1354 1.348 . S
C1352 C1355 1.356 . S
C1352 O1382 1.325 . S
N1353 C1356 1.314 . S
N1353 C1357 1.279 . S
C1354 C1352 1.348 . S
C1354 C1356 1.353 . S
C1354 H1396 0.929 . S
C1355 C1352 1.356 . S
C1355 C1357 1.358 . S
C1355 H1397 0.930 . S
C1356 N1353 1.314 . S
C1356 C1354 1.353 . S
C1356 H1398 0.930 . S
C1357 N1353 1.279 . S
C1357 C1355 1.358 . S
C1357 H1399 0.930 . S
C1358 C1359 1.348 . S
C1358 C1360 1.356 . S
C1358 O1383 1.325 . S
C1359 C1358 1.348 . S
C1359 C1361 1.353 . S
C1359 H1400 0.929 . S
C1360 C1358 1.356 . S
C1360 C1362 1.358 . S
C1360 H1401 0.930 . S
C1361 C1359 1.353 . S
C1361 N1363 1.314 . S
C1361 H1402 0.930 . S
C1362 C1360 1.358 . S
C1362 N1363 1.279 . S
C1362 H1403 0.930 . S
N1363 C1361 1.314 . S
N1363 C1362 1.279 . S
C1364 C1366 1.353 . S
C1364 N1367 1.314 . S
C1364 H1370 0.930 . S
C1365 N1367 1.279 . S
C1365 C1368 1.358 . S
C1365 H1371 0.930 . S
C1366 C1364 1.353 . S
C1366 C1369 1.348 . S
C1366 H1404 0.929 . S
N1367 Li1322 1.990 . S
N1367 C1364 1.314 . S
N1367 C1365 1.279 . S
C1368 C1365 1.358 . S
C1368 C1369 1.356 . S
C1368 H1405 0.930 . S
C1369 C1366 1.348 . S
C1369 C1368 1.356 . S
H1370 C1364 0.930 . S
H1371 C1365 0.930 . S
C1372 N1373 1.314 . S
C1372 C1374 1.353 . S
C1372 H1378 0.930 . S
N1373 Li1323 1.990 . S
N1373 C1372 1.314 . S
N1373 C1376 1.279 . S
C1374 C1372 1.353 . S
C1374 C1377 1.348 . S
C1374 H1406 0.929 . S
C1375 C1376 1.358 . S
C1375 C1377 1.356 . S
C1375 H1407 0.930 . S
C1376 N1373 1.279 . S
C1376 C1375 1.358 . S
C1376 H1379 0.930 . S
C1377 C1374 1.348 . S
C1377 C1375 1.356 . S
H1378 C1372 0.930 . S
H1379 C1376 0.930 . S
O1380 Li1320 1.956 . S
O1380 Li1321 1.970 . S
O1380 Li1322 1.961 . S
O1380 C1324 1.325 . S
O1381 Li1320 1.970 . S
O1381 Li1321 1.956 . S
O1381 Li1323 1.961 . S
O1381 C1330 1.325 . S
O1382 Li1320 1.961 . S
O1382 Li1322 1.956 . S
O1382 Li1323 1.970 . S
O1382 C1352 1.325 . S
O1383 Li1321 1.961 . S
O1383 Li1322 1.970 . S
O1383 Li1323 1.956 . S
O1383 C1358 1.325 . S
H1384 C1326 0.929 . S
H1385 C1327 0.930 . S
H1386 C1328 0.930 . S
H1387 C1329 0.930 . S
H1388 C1331 0.930 . S
H1389 C1333 0.929 . S
H1390 C1334 0.930 . S
H1391 C1335 0.930 . S
H1392 C1338 0.930 . S
H1393 C1341 0.929 . S
H1394 C1346 0.929 . S
H1395 C1347 0.930 . S
H1396 C1354 0.929 . S
H1397 C1355 0.930 . S
H1398 C1356 0.930 . S
H1399 C1357 0.930 . S
H1400 C1359 0.929 . S
H1401 C1360 0.930 . S
H1402 C1361 0.930 . S
H1403 C1362 0.930 . S
H1404 C1366 0.929 . S
H1405 C1368 0.930 . S
H1406 C1374 0.929 . S
H1407 C1375 0.930 . S
Li1408 N1425 1.990 . S
Li1408 O1468 1.956 . S
Li1408 O1469 1.970 . S
Li1408 O1470 1.961 . S
Li1409 N1433 1.990 . S
Li1409 O1468 1.970 . S
Li1409 O1469 1.956 . S
Li1409 O1471 1.961 . S
Li1410 N1455 1.990 . S
Li1410 O1468 1.961 . S
Li1410 O1470 1.956 . S
Li1410 O1471 1.970 . S
Li1411 N1461 1.990 . S
Li1411 O1469 1.961 1_565 S
Li1411 O1470 1.970 1_565 S
Li1411 O1471 1.956 1_565 S
C1412 C1414 1.348 . S
C1412 C1415 1.356 . S
C1412 O1468 1.325 . S
N1413 C1416 1.314 . S
N1413 C1417 1.279 . S
C1414 C1412 1.348 . S
C1414 C1416 1.353 . S
C1414 H1472 0.929 . S
C1415 C1412 1.356 . S
C1415 C1417 1.358 . S
C1415 H1473 0.930 . S
C1416 N1413 1.314 . S
C1416 C1414 1.353 . S
C1416 H1474 0.930 . S
C1417 N1413 1.279 . S
C1417 C1415 1.358 . S
C1417 H1475 0.930 . S
C1418 C1421 1.348 . S
C1418 C1422 1.356 . S
C1418 O1469 1.325 1_565 S
C1419 N1420 1.279 . S
C1419 C1422 1.358 . S
C1419 H1476 0.930 . S
N1420 C1419 1.279 . S
N1420 C1423 1.314 . S
C1421 C1418 1.348 . S
C1421 C1423 1.353 . S
C1421 H1477 0.929 . S
C1422 C1418 1.356 . S
C1422 C1419 1.358 . S
C1422 H1478 0.930 . S
C1423 N1420 1.314 . S
C1423 C1421 1.353 . S
C1423 H1479 0.930 . S
C1424 N1425 1.314 . S
C1424 C1429 1.354 . S
C1424 H1430 0.930 1_545 S
N1425 Li1408 1.990 . S
N1425 C1424 1.314 . S
N1425 C1427 1.279 . S
C1426 C1427 1.358 . S
C1426 C1428 1.356 . S
C1426 H1480 0.930 . S
C1427 N1425 1.279 . S
C1427 C1426 1.358 . S
C1427 H1431 0.930 . S
C1428 C1426 1.356 . S
C1428 C1429 1.345 . S
C1429 C1424 1.354 . S
C1429 C1428 1.345 . S
C1429 H1481 0.931 1_545 S
H1430 C1424 0.930 1_565 S
H1431 C1427 0.930 . S
C1432 N1433 1.314 . S
C1432 C1434 1.353 . S
C1432 H1438 0.930 . S
N1433 Li1409 1.990 . S
N1433 C1432 1.314 . S
N1433 C1436 1.279 . S
C1434 C1432 1.353 . S
C1434 C1437 1.348 . S
C1434 H1482 0.929 . S
C1435 C1436 1.358 . S
C1435 C1437 1.356 . S
C1435 H1483 0.930 . S
C1436 N1433 1.279 . S
C1436 C1435 1.358 . S
C1436 H1439 0.930 . S
C1437 C1434 1.348 . S
C1437 C1435 1.356 . S
H1438 C1432 0.930 . S
H1439 C1436 0.930 . S
C1440 C1442 1.348 1_545 S
C1440 C1443 1.356 . S
C1440 O1470 1.325 . S
N1441 C1444 1.314 . S
N1441 C1445 1.279 1_565 S
C1442 C1440 1.348 1_565 S
C1442 C1444 1.353 . S
C1442 H1484 0.929 . S
C1443 C1440 1.356 . S
C1443 C1445 1.358 . S
C1443 H1485 0.930 . S
C1444 N1441 1.314 . S
C1444 C1442 1.353 . S
C1444 H1486 0.930 . S
C1445 N1441 1.279 1_545 S
C1445 C1443 1.358 . S
C1445 H1487 0.930 . S
C1446 C1447 1.348 . S
C1446 C1448 1.356 . S
C1446 O1471 1.325 . S
C1447 C1446 1.348 . S
C1447 C1449 1.353 . S
C1447 H1488 0.929 . S
C1448 C1446 1.356 . S
C1448 C1450 1.358 . S
C1448 H1489 0.930 . S
C1449 C1447 1.353 . S
C1449 N1451 1.314 . S
C1449 H1490 0.930 . S
C1450 C1448 1.358 . S
C1450 N1451 1.279 . S
C1450 H1491 0.930 . S
N1451 C1449 1.314 . S
N1451 C1450 1.279 . S
C1452 C1454 1.353 . S
C1452 N1455 1.314 . S
C1452 H1458 0.930 . S
C1453 N1455 1.279 . S
C1453 C1456 1.358 . S
C1453 H1459 0.930 . S
C1454 C1452 1.353 . S
C1454 C1457 1.348 . S
C1454 H1492 0.929 . S
N1455 Li1410 1.990 . S
N1455 C1452 1.314 . S
N1455 C1453 1.279 . S
C1456 C1453 1.358 . S
C1456 C1457 1.356 . S
C1456 H1493 0.930 . S
C1457 C1454 1.348 . S
C1457 C1456 1.356 . S
H1458 C1452 0.930 . S
H1459 C1453 0.930 . S
C1460 N1461 1.314 . S
C1460 C1462 1.353 . S
C1460 H1466 0.930 . S
N1461 Li1411 1.990 . S
N1461 C1460 1.314 . S
N1461 C1464 1.279 . S
C1462 C1460 1.353 . S
C1462 C1465 1.348 . S
C1462 H1494 0.929 . S
C1463 C1464 1.358 . S
C1463 C1465 1.356 . S
C1463 H1495 0.930 . S
C1464 N1461 1.279 . S
C1464 C1463 1.358 . S
C1464 H1467 0.930 . S
C1465 C1462 1.348 . S
C1465 C1463 1.356 . S
H1466 C1460 0.930 . S
H1467 C1464 0.930 . S
O1468 Li1408 1.956 . S
O1468 Li1409 1.970 . S
O1468 Li1410 1.961 . S
O1468 C1412 1.325 . S
O1469 Li1408 1.970 . S
O1469 Li1409 1.956 . S
O1469 Li1411 1.961 1_545 S
O1469 C1418 1.325 1_545 S
O1470 Li1408 1.961 . S
O1470 Li1410 1.956 . S
O1470 Li1411 1.970 1_545 S
O1470 C1440 1.325 . S
O1471 Li1409 1.961 . S
O1471 Li1410 1.970 . S
O1471 Li1411 1.956 1_545 S
O1471 C1446 1.325 . S
H1472 C1414 0.929 . S
H1473 C1415 0.930 . S
H1474 C1416 0.930 . S
H1475 C1417 0.930 . S
H1476 C1419 0.930 . S
H1477 C1421 0.929 . S
H1478 C1422 0.930 . S
H1479 C1423 0.930 . S
H1480 C1426 0.930 . S
H1481 C1429 0.931 1_565 S
H1482 C1434 0.929 . S
H1483 C1435 0.930 . S
H1484 C1442 0.929 . S
H1485 C1443 0.930 . S
H1486 C1444 0.930 . S
H1487 C1445 0.930 . S
H1488 C1447 0.929 . S
H1489 C1448 0.930 . S
H1490 C1449 0.930 . S
H1491 C1450 0.930 . S
H1492 C1454 0.929 . S
H1493 C1456 0.930 . S
H1494 C1462 0.929 . S
H1495 C1463 0.930 . S
Li1496 N1513 1.990 . S
Li1496 O1556 1.956 . S
Li1496 O1557 1.970 . S
Li1496 O1558 1.961 . S
Li1497 N1521 1.990 . S
Li1497 O1556 1.970 . S
Li1497 O1557 1.956 . S
Li1497 O1559 1.961 . S
Li1498 N1543 1.990 . S
Li1498 O1556 1.961 1_455 S
Li1498 O1558 1.956 1_455 S
Li1498 O1559 1.970 1_455 S
Li1499 N1549 1.990 . S
Li1499 O1557 1.961 . S
Li1499 O1558 1.970 . S
Li1499 O1559 1.956 . S
C1500 C1502 1.348 . S
C1500 C1503 1.356 . S
C1500 O1556 1.325 1_455 S
N1501 C1504 1.314 . S
N1501 C1505 1.279 . S
C1502 C1500 1.348 . S
C1502 C1504 1.353 . S
C1502 H1560 0.929 . S
C1503 C1500 1.356 . S
C1503 C1505 1.358 . S
C1503 H1561 0.930 . S
C1504 N1501 1.314 . S
C1504 C1502 1.353 . S
C1504 H1562 0.930 . S
C1505 N1501 1.279 . S
C1505 C1503 1.358 . S
C1505 H1563 0.930 . S
C1506 C1509 1.348 . S
C1506 C1510 1.356 . S
C1506 O1557 1.325 . S
C1507 N1508 1.279 . S
C1507 C1510 1.358 . S
C1507 H1564 0.930 . S
N1508 C1507 1.279 . S
N1508 C1511 1.314 . S
C1509 C1506 1.348 . S
C1509 C1511 1.353 . S
C1509 H1565 0.929 . S
C1510 C1506 1.356 . S
C1510 C1507 1.358 . S
C1510 H1566 0.930 . S
C1511 N1508 1.314 . S
C1511 C1509 1.353 . S
C1511 H1567 0.930 . S
C1512 N1513 1.314 . S
C1512 C1517 1.353 . S
C1512 H1518 0.930 . S
N1513 Li1496 1.990 . S
N1513 C1512 1.314 . S
N1513 C1515 1.279 . S
C1514 C1515 1.358 . S
C1514 C1516 1.356 . S
C1514 H1568 0.930 . S
C1515 N1513 1.279 . S
C1515 C1514 1.358 . S
C1515 H1519 0.930 . S
C1516 C1514 1.356 . S
C1516 C1517 1.348 . S
C1517 C1512 1.353 . S
C1517 C1516 1.348 . S
C1517 H1569 0.929 . S
H1518 C1512 0.930 . S
H1519 C1515 0.930 . S
C1520 N1521 1.314 . S
C1520 C1522 1.388 . S
C1520 H1526 0.930 1_655 S
N1521 Li1497 1.990 . S
N1521 C1520 1.314 . S
N1521 C1524 1.279 . S
C1522 C1520 1.388 . S
C1522 C1525 1.370 . S
C1522 H1570 0.875 1_655 S
C1523 C1524 1.358 . S
C1523 C1525 1.356 . S
C1523 H1571 0.930 . S
C1524 N1521 1.279 . S
C1524 C1523 1.358 . S
C1524 H1527 0.930 . S
C1525 C1522 1.370 . S
C1525 C1523 1.356 . S
H1526 C1520 0.930 1_455 S
H1527 C1524 0.930 . S
C1528 C1530 1.348 . S
C1528 C1531 1.356 . S
C1528 O1558 1.325 . S
N1529 C1532 1.314 . S
N1529 C1533 1.279 . S
C1530 C1528 1.348 . S
C1530 C1532 1.353 . S
C1530 H1572 0.929 . S
C1531 C1528 1.356 . S
C1531 C1533 1.358 . S
C1531 H1573 0.930 . S
C1532 N1529 1.314 . S
C1532 C1530 1.353 . S
C1532 H1574 0.930 . S
C1533 N1529 1.279 . S
C1533 C1531 1.358 . S
C1533 H1575 0.930 . S
C1534 C1535 1.348 1_655 S
C1534 C1536 1.356 . S
C1534 O1559 1.325 . S
C1535 C1534 1.348 1_455 S
C1535 C1537 1.353 . S
C1535 H1576 0.929 . S
C1536 C1534 1.356 . S
C1536 C1538 1.358 . S
C1536 H1577 0.930 . S
C1537 C1535 1.353 . S
C1537 N1539 1.314 . S
C1537 H1578 0.930 . S
C1538 C1536 1.358 . S
C1538 N1539 1.279 1_655 S
C1538 H1579 0.930 . S
N1539 C1537 1.314 . S
N1539 C1538 1.279 1_455 S
C1540 C1542 1.353 . S
C1540 N1543 1.314 . S
C1540 H1546 0.930 . S
C1541 N1543 1.279 . S
C1541 C1544 1.358 . S
C1541 H1547 0.930 . S
C1542 C1540 1.353 . S
C1542 C1545 1.348 . S
C1542 H1580 0.929 . S
N1543 Li1498 1.990 . S
N1543 C1540 1.314 . S
N1543 C1541 1.279 . S
C1544 C1541 1.358 . S
C1544 C1545 1.356 . S
C1544 H1581 0.930 . S
C1545 C1542 1.348 . S
C1545 C1544 1.356 . S
H1546 C1540 0.930 . S
H1547 C1541 0.930 . S
C1548 N1549 1.314 . S
C1548 C1550 1.353 . S
C1548 H1554 0.930 . S
N1549 Li1499 1.990 . S
N1549 C1548 1.314 . S
N1549 C1552 1.279 . S
C1550 C1548 1.353 . S
C1550 C1553 1.348 . S
C1550 H1582 0.929 . S
C1551 C1552 1.358 . S
C1551 C1553 1.356 . S
C1551 H1583 0.930 . S
C1552 N1549 1.279 . S
C1552 C1551 1.358 . S
C1552 H1555 0.930 . S
C1553 C1550 1.348 . S
C1553 C1551 1.356 . S
H1554 C1548 0.930 . S
H1555 C1552 0.930 . S
O1556 Li1496 1.956 . S
O1556 Li1497 1.970 . S
O1556 Li1498 1.961 1_655 S
O1556 C1500 1.325 1_655 S
O1557 Li1496 1.970 . S
O1557 Li1497 1.956 . S
O1557 Li1499 1.961 . S
O1557 C1506 1.325 . S
O1558 Li1496 1.961 . S
O1558 Li1498 1.956 1_655 S
O1558 Li1499 1.970 . S
O1558 C1528 1.325 . S
O1559 Li1497 1.961 . S
O1559 Li1498 1.970 1_655 S
O1559 Li1499 1.956 . S
O1559 C1534 1.325 . S
H1560 C1502 0.929 . S
H1561 C1503 0.930 . S
H1562 C1504 0.930 . S
H1563 C1505 0.930 . S
H1564 C1507 0.930 . S
H1565 C1509 0.929 . S
H1566 C1510 0.930 . S
H1567 C1511 0.930 . S
H1568 C1514 0.930 . S
H1569 C1517 0.929 . S
H1570 C1522 0.875 1_455 S
H1571 C1523 0.930 . S
H1572 C1530 0.929 . S
H1573 C1531 0.930 . S
H1574 C1532 0.930 . S
H1575 C1533 0.930 . S
H1576 C1535 0.929 . S
H1577 C1536 0.930 . S
H1578 C1537 0.930 . S
H1579 C1538 0.930 . S
H1580 C1542 0.929 . S
H1581 C1544 0.930 . S
H1582 C1550 0.929 . S
H1583 C1551 0.930 . S
C1584 C1585 1.384 . S
C1584 C1586 1.384 . S
C1584 H1612 0.931 . S
C1585 C1584 1.384 . S
C1585 C1588 1.382 . S
C1586 C1584 1.384 . S
C1586 C1587 1.381 . S
C1586 H1613 0.930 . S
C1587 C1586 1.381 . S
C1587 C1589 1.381 . S
C1587 C1590 1.487 . S
C1588 C1585 1.382 . S
C1588 C1589 1.387 . S
C1588 H1614 0.930 . S
C1589 C1587 1.381 . S
C1589 C1588 1.387 . S
C1589 H1615 0.931 . S
C1590 C1587 1.487 . S
C1590 C1597 1.399 . S
C1590 N1628 1.343 . S
C1591 C1592 1.384 . S
C1591 C1593 1.384 . S
C1591 H1616 0.931 . S
C1592 C1591 1.384 . S
C1592 C1595 1.382 . S
C1593 C1591 1.384 . S
C1593 C1594 1.381 . S
C1593 H1617 0.930 . S
C1594 C1593 1.381 . S
C1594 C1596 1.381 . S
C1594 C1597 1.487 . S
C1595 C1592 1.382 . S
C1595 C1596 1.387 . S
C1595 H1618 0.930 . S
C1596 C1594 1.381 . S
C1596 C1595 1.387 . S
C1596 H1619 0.931 . S
C1597 C1590 1.399 . S
C1597 C1594 1.487 . S
C1597 N1629 1.343 . S
C1598 C1599 1.384 . S
C1598 C1600 1.384 . S
C1598 H1620 0.931 . S
C1599 C1598 1.384 . S
C1599 C1602 1.382 . S
C1600 C1598 1.384 . S
C1600 C1601 1.381 . S
C1600 H1621 0.930 . S
C1601 C1600 1.381 . S
C1601 C1603 1.381 . S
C1601 C1604 1.487 . S
C1602 C1599 1.382 . S
C1602 C1603 1.387 . S
C1602 H1622 0.930 . S
C1603 C1601 1.381 . S
C1603 C1602 1.387 . S
C1603 H1623 0.931 . S
C1604 C1601 1.487 . S
C1604 C1611 1.399 . S
C1604 N1629 1.343 . S
C1605 C1606 1.384 . S
C1605 C1607 1.384 . S
C1605 H1624 0.931 . S
C1606 C1605 1.384 . S
C1606 C1609 1.382 . S
C1607 C1605 1.384 . S
C1607 C1608 1.381 . S
C1607 H1625 0.930 . S
C1608 C1607 1.381 . S
C1608 C1610 1.381 . S
C1608 C1611 1.487 . S
C1609 C1606 1.382 . S
C1609 C1610 1.387 . S
C1609 H1626 0.930 . S
C1610 C1608 1.381 . S
C1610 C1609 1.387 . S
C1610 H1627 0.931 . S
C1611 C1604 1.399 . S
C1611 C1608 1.487 . S
C1611 N1628 1.343 . S
H1612 C1584 0.931 . S
H1613 C1586 0.930 . S
H1614 C1588 0.930 . S
H1615 C1589 0.931 . S
H1616 C1591 0.931 . S
H1617 C1593 0.930 . S
H1618 C1595 0.930 . S
H1619 C1596 0.931 . S
H1620 C1598 0.931 . S
H1621 C1600 0.930 . S
H1622 C1602 0.930 . S
H1623 C1603 0.931 . S
H1624 C1605 0.931 . S
H1625 C1607 0.930 . S
H1626 C1609 0.930 . S
H1627 C1610 0.931 . S
N1628 C1590 1.343 . S
N1628 C1611 1.343 . S
N1629 C1597 1.343 . S
N1629 C1604 1.343 . S
C1630 C1631 1.384 . S
C1630 C1632 1.384 . S
C1630 H1658 0.931 . S
C1631 C1630 1.384 . S
C1631 C1634 1.382 . S
C1632 C1630 1.384 . S
C1632 C1633 1.381 . S
C1632 H1659 0.930 . S
C1633 C1632 1.381 . S
C1633 C1635 1.381 . S
C1633 C1636 1.487 . S
C1634 C1631 1.382 . S
C1634 C1635 1.387 . S
C1634 H1660 0.930 . S
C1635 C1633 1.381 . S
C1635 C1634 1.387 . S
C1635 H1661 0.931 . S
C1636 C1633 1.487 . S
C1636 C1643 1.399 . S
C1636 N1674 1.343 . S
C1637 C1638 1.384 . S
C1637 C1639 1.384 . S
C1637 H1662 0.931 . S
C1638 C1637 1.384 . S
C1638 C1641 1.382 . S
C1639 C1637 1.384 . S
C1639 C1640 1.381 . S
C1639 H1663 0.930 . S
C1640 C1639 1.381 . S
C1640 C1642 1.381 . S
C1640 C1643 1.487 . S
C1641 C1638 1.382 . S
C1641 C1642 1.387 . S
C1641 H1664 0.930 . S
C1642 C1640 1.381 . S
C1642 C1641 1.387 . S
C1642 H1665 0.931 . S
C1643 C1636 1.399 . S
C1643 C1640 1.487 . S
C1643 N1675 1.343 . S
C1644 C1645 1.384 . S
C1644 C1646 1.384 . S
C1644 H1666 0.931 . S
C1645 C1644 1.384 . S
C1645 C1648 1.382 . S
C1646 C1644 1.384 . S
C1646 C1647 1.381 . S
C1646 H1667 0.930 . S
C1647 C1646 1.381 . S
C1647 C1649 1.381 . S
C1647 C1650 1.487 . S
C1648 C1645 1.382 . S
C1648 C1649 1.387 . S
C1648 H1668 0.930 . S
C1649 C1647 1.381 . S
C1649 C1648 1.387 . S
C1649 H1669 0.931 . S
C1650 C1647 1.487 . S
C1650 C1657 1.399 . S
C1650 N1675 1.343 . S
C1651 C1652 1.384 . S
C1651 C1653 1.384 . S
C1651 H1670 0.931 . S
C1652 C1651 1.384 . S
C1652 C1655 1.382 . S
C1653 C1651 1.384 . S
C1653 C1654 1.381 . S
C1653 H1671 0.930 . S
C1654 C1653 1.381 . S
C1654 C1656 1.381 . S
C1654 C1657 1.487 . S
C1655 C1652 1.382 . S
C1655 C1656 1.387 . S
C1655 H1672 0.930 . S
C1656 C1654 1.381 . S
C1656 C1655 1.387 . S
C1656 H1673 0.931 . S
C1657 C1650 1.399 . S
C1657 C1654 1.487 . S
C1657 N1674 1.343 . S
H1658 C1630 0.931 . S
H1659 C1632 0.930 . S
H1660 C1634 0.930 . S
H1661 C1635 0.931 . S
H1662 C1637 0.931 . S
H1663 C1639 0.930 . S
H1664 C1641 0.930 . S
H1665 C1642 0.931 . S
H1666 C1644 0.931 . S
H1667 C1646 0.930 . S
H1668 C1648 0.930 . S
H1669 C1649 0.931 . S
H1670 C1651 0.931 . S
H1671 C1653 0.930 . S
H1672 C1655 0.930 . S
H1673 C1656 0.931 . S
N1674 C1636 1.343 . S
N1674 C1657 1.343 . S
N1675 C1643 1.343 . S
N1675 C1650 1.343 . S
C1676 C1677 1.384 . S
C1676 C1678 1.384 . S
C1676 H1704 0.931 . S
C1677 C1676 1.384 . S
C1677 C1680 1.382 . S
C1678 C1676 1.384 . S
C1678 C1679 1.381 . S
C1678 H1705 0.930 . S
C1679 C1678 1.381 . S
C1679 C1681 1.381 . S
C1679 C1682 1.487 . S
C1680 C1677 1.382 . S
C1680 C1681 1.387 . S
C1680 H1706 0.930 . S
C1681 C1679 1.381 . S
C1681 C1680 1.387 . S
C1681 H1707 0.931 . S
C1682 C1679 1.487 . S
C1682 C1689 1.399 . S
C1682 N1720 1.343 . S
C1683 C1684 1.384 . S
C1683 C1685 1.384 . S
C1683 H1708 0.931 . S
C1684 C1683 1.384 . S
C1684 C1687 1.382 . S
C1685 C1683 1.384 . S
C1685 C1686 1.381 . S
C1685 H1709 0.930 . S
C1686 C1685 1.381 . S
C1686 C1688 1.381 . S
C1686 C1689 1.487 . S
C1687 C1684 1.382 . S
C1687 C1688 1.387 . S
C1687 H1710 0.930 . S
C1688 C1686 1.381 . S
C1688 C1687 1.387 . S
C1688 H1711 0.931 . S
C1689 C1682 1.399 . S
C1689 C1686 1.487 . S
C1689 N1721 1.343 . S
C1690 C1691 1.384 . S
C1690 C1692 1.384 . S
C1690 H1712 0.931 . S
C1691 C1690 1.384 . S
C1691 C1694 1.382 . S
C1692 C1690 1.384 . S
C1692 C1693 1.381 . S
C1692 H1713 0.930 . S
C1693 C1692 1.381 . S
C1693 C1695 1.381 . S
C1693 C1696 1.487 . S
C1694 C1691 1.382 . S
C1694 C1695 1.387 . S
C1694 H1714 0.930 . S
C1695 C1693 1.381 . S
C1695 C1694 1.387 . S
C1695 H1715 0.931 . S
C1696 C1693 1.487 . S
C1696 C1703 1.399 . S
C1696 N1721 1.343 . S
C1697 C1698 1.384 . S
C1697 C1699 1.384 . S
C1697 H1716 0.931 . S
C1698 C1697 1.384 . S
C1698 C1701 1.382 . S
C1699 C1697 1.384 . S
C1699 C1700 1.381 . S
C1699 H1717 0.930 . S
C1700 C1699 1.381 . S
C1700 C1702 1.381 . S
C1700 C1703 1.487 . S
C1701 C1698 1.382 . S
C1701 C1702 1.387 . S
C1701 H1718 0.930 . S
C1702 C1700 1.381 . S
C1702 C1701 1.387 . S
C1702 H1719 0.931 . S
C1703 C1696 1.399 . S
C1703 C1700 1.487 . S
C1703 N1720 1.343 . S
H1704 C1676 0.931 . S
H1705 C1678 0.930 . S
H1706 C1680 0.930 . S
H1707 C1681 0.931 . S
H1708 C1683 0.931 . S
H1709 C1685 0.930 . S
H1710 C1687 0.930 . S
H1711 C1688 0.931 . S
H1712 C1690 0.931 . S
H1713 C1692 0.930 . S
H1714 C1694 0.930 . S
H1715 C1695 0.931 . S
H1716 C1697 0.931 . S
H1717 C1699 0.930 . S
H1718 C1701 0.930 . S
H1719 C1702 0.931 . S
N1720 C1682 1.343 . S
N1720 C1703 1.343 . S
N1721 C1689 1.343 . S
N1721 C1696 1.343 . S
C1722 C1723 1.384 . S
C1722 C1724 1.384 . S
C1722 H1750 0.931 . S
C1723 C1722 1.384 . S
C1723 C1726 1.382 . S
C1724 C1722 1.384 . S
C1724 C1725 1.381 . S
C1724 H1751 0.930 . S
C1725 C1724 1.381 . S
C1725 C1727 1.381 . S
C1725 C1728 1.487 . S
C1726 C1723 1.382 . S
C1726 C1727 1.387 . S
C1726 H1752 0.930 . S
C1727 C1725 1.381 . S
C1727 C1726 1.387 . S
C1727 H1753 0.931 . S
C1728 C1725 1.487 . S
C1728 C1735 1.399 . S
C1728 N1766 1.343 . S
C1729 C1730 1.384 . S
C1729 C1731 1.384 . S
C1729 H1754 0.931 . S
C1730 C1729 1.384 . S
C1730 C1733 1.382 . S
C1731 C1729 1.384 . S
C1731 C1732 1.381 . S
C1731 H1755 0.930 . S
C1732 C1731 1.381 . S
C1732 C1734 1.381 . S
C1732 C1735 1.487 . S
C1733 C1730 1.382 . S
C1733 C1734 1.387 . S
C1733 H1756 0.930 . S
C1734 C1732 1.381 . S
C1734 C1733 1.387 . S
C1734 H1757 0.931 . S
C1735 C1728 1.399 . S
C1735 C1732 1.487 . S
C1735 N1767 1.343 . S
C1736 C1737 1.384 . S
C1736 C1738 1.384 . S
C1736 H1758 0.931 . S
C1737 C1736 1.384 . S
C1737 C1740 1.382 . S
C1738 C1736 1.384 . S
C1738 C1739 1.381 . S
C1738 H1759 0.930 . S
C1739 C1738 1.381 . S
C1739 C1741 1.381 . S
C1739 C1742 1.487 . S
C1740 C1737 1.382 . S
C1740 C1741 1.387 . S
C1740 H1760 0.930 . S
C1741 C1739 1.381 . S
C1741 C1740 1.387 . S
C1741 H1761 0.931 . S
C1742 C1739 1.487 . S
C1742 C1749 1.399 . S
C1742 N1767 1.343 . S
C1743 C1744 1.384 . S
C1743 C1745 1.384 . S
C1743 H1762 0.931 . S
C1744 C1743 1.384 . S
C1744 C1747 1.382 . S
C1745 C1743 1.384 . S
C1745 C1746 1.381 . S
C1745 H1763 0.930 . S
C1746 C1745 1.381 . S
C1746 C1748 1.381 . S
C1746 C1749 1.487 . S
C1747 C1744 1.382 . S
C1747 C1748 1.387 . S
C1747 H1764 0.930 . S
C1748 C1746 1.381 . S
C1748 C1747 1.387 . S
C1748 H1765 0.931 . S
C1749 C1742 1.399 . S
C1749 C1746 1.487 . S
C1749 N1766 1.343 . S
H1750 C1722 0.931 . S
H1751 C1724 0.930 . S
H1752 C1726 0.930 . S
H1753 C1727 0.931 . S
H1754 C1729 0.931 . S
H1755 C1731 0.930 . S
H1756 C1733 0.930 . S
H1757 C1734 0.931 . S
H1758 C1736 0.931 . S
H1759 C1738 0.930 . S
H1760 C1740 0.930 . S
H1761 C1741 0.931 . S
H1762 C1743 0.931 . S
H1763 C1745 0.930 . S
H1764 C1747 0.930 . S
H1765 C1748 0.931 . S
N1766 C1728 1.343 . S
N1766 C1749 1.343 . S
N1767 C1735 1.343 . S
N1767 C1742 1.343 . S
C1768 C1769 1.384 . S
C1768 C1770 1.384 . S
C1768 H1796 0.931 . S
C1769 C1768 1.384 . S
C1769 C1772 1.382 . S
C1770 C1768 1.384 . S
C1770 C1771 1.381 . S
C1770 H1797 0.930 . S
C1771 C1770 1.381 . S
C1771 C1773 1.381 . S
C1771 C1774 1.487 . S
C1772 C1769 1.382 . S
C1772 C1773 1.387 . S
C1772 H1798 0.930 . S
C1773 C1771 1.381 . S
C1773 C1772 1.387 . S
C1773 H1799 0.931 . S
C1774 C1771 1.487 . S
C1774 C1781 1.399 . S
C1774 N1812 1.343 . S
C1775 C1776 1.384 . S
C1775 C1777 1.384 . S
C1775 H1800 0.931 . S
C1776 C1775 1.384 . S
C1776 C1779 1.382 . S
C1777 C1775 1.384 . S
C1777 C1778 1.381 . S
C1777 H1801 0.930 . S
C1778 C1777 1.381 . S
C1778 C1780 1.381 . S
C1778 C1781 1.487 . S
C1779 C1776 1.382 . S
C1779 C1780 1.387 . S
C1779 H1802 0.930 . S
C1780 C1778 1.381 . S
C1780 C1779 1.387 . S
C1780 H1803 0.931 . S
C1781 C1774 1.399 . S
C1781 C1778 1.487 . S
C1781 N1813 1.343 . S
C1782 C1783 1.384 . S
C1782 C1784 1.384 . S
C1782 H1804 0.931 . S
C1783 C1782 1.384 . S
C1783 C1786 1.382 . S
C1784 C1782 1.384 . S
C1784 C1785 1.381 . S
C1784 H1805 0.930 . S
C1785 C1784 1.381 . S
C1785 C1787 1.381 . S
C1785 C1788 1.487 . S
C1786 C1783 1.382 . S
C1786 C1787 1.387 . S
C1786 H1806 0.930 . S
C1787 C1785 1.381 . S
C1787 C1786 1.387 . S
C1787 H1807 0.931 . S
C1788 C1785 1.487 . S
C1788 C1795 1.399 . S
C1788 N1813 1.343 . S
C1789 C1790 1.384 . S
C1789 C1791 1.384 . S
C1789 H1808 0.931 . S
C1790 C1789 1.384 . S
C1790 C1793 1.382 . S
C1791 C1789 1.384 . S
C1791 C1792 1.381 . S
C1791 H1809 0.930 . S
C1792 C1791 1.381 . S
C1792 C1794 1.381 . S
C1792 C1795 1.487 . S
C1793 C1790 1.382 . S
C1793 C1794 1.387 . S
C1793 H1810 0.930 . S
C1794 C1792 1.381 . S
C1794 C1793 1.387 . S
C1794 H1811 0.931 . S
C1795 C1788 1.399 . S
C1795 C1792 1.487 . S
C1795 N1812 1.343 . S
H1796 C1768 0.931 . S
H1797 C1770 0.930 . S
H1798 C1772 0.930 . S
H1799 C1773 0.931 . S
H1800 C1775 0.931 . S
H1801 C1777 0.930 . S
H1802 C1779 0.930 . S
H1803 C1780 0.931 . S
H1804 C1782 0.931 . S
H1805 C1784 0.930 . S
H1806 C1786 0.930 . S
H1807 C1787 0.931 . S
H1808 C1789 0.931 . S
H1809 C1791 0.930 . S
H1810 C1793 0.930 . S
H1811 C1794 0.931 . S
N1812 C1774 1.343 . S
N1812 C1795 1.343 . S
N1813 C1781 1.343 . S
N1813 C1788 1.343 . S
C1814 C1815 1.384 . S
C1814 C1816 1.384 . S
C1814 H1842 0.931 . S
C1815 C1814 1.384 . S
C1815 C1818 1.382 . S
C1816 C1814 1.384 . S
C1816 C1817 1.381 . S
C1816 H1843 0.930 . S
C1817 C1816 1.381 . S
C1817 C1819 1.381 . S
C1817 C1820 1.487 . S
C1818 C1815 1.382 . S
C1818 C1819 1.387 . S
C1818 H1844 0.930 . S
C1819 C1817 1.381 . S
C1819 C1818 1.387 . S
C1819 H1845 0.931 . S
C1820 C1817 1.487 . S
C1820 C1827 1.399 . S
C1820 N1858 1.343 . S
C1821 C1822 1.384 . S
C1821 C1823 1.384 . S
C1821 H1846 0.931 . S
C1822 C1821 1.384 . S
C1822 C1825 1.382 . S
C1823 C1821 1.384 . S
C1823 C1824 1.381 . S
C1823 H1847 0.930 . S
C1824 C1823 1.381 . S
C1824 C1826 1.381 . S
C1824 C1827 1.487 . S
C1825 C1822 1.382 . S
C1825 C1826 1.387 . S
C1825 H1848 0.930 . S
C1826 C1824 1.381 . S
C1826 C1825 1.387 . S
C1826 H1849 0.931 . S
C1827 C1820 1.399 . S
C1827 C1824 1.487 . S
C1827 N1859 1.343 . S
C1828 C1829 1.384 . S
C1828 C1830 1.384 . S
C1828 H1850 0.931 . S
C1829 C1828 1.384 . S
C1829 C1832 1.382 . S
C1830 C1828 1.384 . S
C1830 C1831 1.381 . S
C1830 H1851 0.930 . S
C1831 C1830 1.381 . S
C1831 C1833 1.381 . S
C1831 C1834 1.487 . S
C1832 C1829 1.382 . S
C1832 C1833 1.387 . S
C1832 H1852 0.930 . S
C1833 C1831 1.381 . S
C1833 C1832 1.387 . S
C1833 H1853 0.931 . S
C1834 C1831 1.487 . S
C1834 C1841 1.399 . S
C1834 N1859 1.343 . S
C1835 C1836 1.384 . S
C1835 C1837 1.384 . S
C1835 H1854 0.931 . S
C1836 C1835 1.384 . S
C1836 C1839 1.382 . S
C1837 C1835 1.384 . S
C1837 C1838 1.381 . S
C1837 H1855 0.930 . S
C1838 C1837 1.381 . S
C1838 C1840 1.381 . S
C1838 C1841 1.487 . S
C1839 C1836 1.382 . S
C1839 C1840 1.387 . S
C1839 H1856 0.930 . S
C1840 C1838 1.381 . S
C1840 C1839 1.387 . S
C1840 H1857 0.931 . S
C1841 C1834 1.399 . S
C1841 C1838 1.487 . S
C1841 N1858 1.343 . S
H1842 C1814 0.931 . S
H1843 C1816 0.930 . S
H1844 C1818 0.930 . S
H1845 C1819 0.931 . S
H1846 C1821 0.931 . S
H1847 C1823 0.930 . S
H1848 C1825 0.930 . S
H1849 C1826 0.931 . S
H1850 C1828 0.931 . S
H1851 C1830 0.930 . S
H1852 C1832 0.930 . S
H1853 C1833 0.931 . S
H1854 C1835 0.931 . S
H1855 C1837 0.930 . S
H1856 C1839 0.930 . S
H1857 C1840 0.931 . S
N1858 C1820 1.343 . S
N1858 C1841 1.343 . S
N1859 C1827 1.343 . S
N1859 C1834 1.343 . S
C1860 C1861 1.384 . S
C1860 C1862 1.384 . S
C1860 H1888 0.931 . S
C1861 C1860 1.384 . S
C1861 C1864 1.382 . S
C1862 C1860 1.384 . S
C1862 C1863 1.381 . S
C1862 H1889 0.930 . S
C1863 C1862 1.381 . S
C1863 C1865 1.381 . S
C1863 C1866 1.487 . S
C1864 C1861 1.382 . S
C1864 C1865 1.387 . S
C1864 H1890 0.930 . S
C1865 C1863 1.381 . S
C1865 C1864 1.387 . S
C1865 H1891 0.931 . S
C1866 C1863 1.487 . S
C1866 C1873 1.399 . S
C1866 N1904 1.343 . S
C1867 C1868 1.384 . S
C1867 C1869 1.384 . S
C1867 H1892 0.931 . S
C1868 C1867 1.384 . S
C1868 C1871 1.382 . S
C1869 C1867 1.384 . S
C1869 C1870 1.381 . S
C1869 H1893 0.930 . S
C1870 C1869 1.381 . S
C1870 C1872 1.381 . S
C1870 C1873 1.487 . S
C1871 C1868 1.382 . S
C1871 C1872 1.387 . S
C1871 H1894 0.930 . S
C1872 C1870 1.381 . S
C1872 C1871 1.387 . S
C1872 H1895 0.931 . S
C1873 C1866 1.399 . S
C1873 C1870 1.487 . S
C1873 N1905 1.343 . S
C1874 C1875 1.384 . S
C1874 C1876 1.384 . S
C1874 H1896 0.931 . S
C1875 C1874 1.384 . S
C1875 C1878 1.382 . S
C1876 C1874 1.384 . S
C1876 C1877 1.381 . S
C1876 H1897 0.930 . S
C1877 C1876 1.381 . S
C1877 C1879 1.381 . S
C1877 C1880 1.487 . S
C1878 C1875 1.382 . S
C1878 C1879 1.387 . S
C1878 H1898 0.930 . S
C1879 C1877 1.381 . S
C1879 C1878 1.387 . S
C1879 H1899 0.931 . S
C1880 C1877 1.487 . S
C1880 C1887 1.399 . S
C1880 N1905 1.343 . S
C1881 C1882 1.384 . S
C1881 C1883 1.384 . S
C1881 H1900 0.931 . S
C1882 C1881 1.384 . S
C1882 C1885 1.382 . S
C1883 C1881 1.384 . S
C1883 C1884 1.381 . S
C1883 H1901 0.930 . S
C1884 C1883 1.381 . S
C1884 C1886 1.381 . S
C1884 C1887 1.487 . S
C1885 C1882 1.382 . S
C1885 C1886 1.387 . S
C1885 H1902 0.930 . S
C1886 C1884 1.381 . S
C1886 C1885 1.387 . S
C1886 H1903 0.931 . S
C1887 C1880 1.399 . S
C1887 C1884 1.487 . S
C1887 N1904 1.343 . S
H1888 C1860 0.931 . S
H1889 C1862 0.930 . S
H1890 C1864 0.930 . S
H1891 C1865 0.931 . S
H1892 C1867 0.931 . S
H1893 C1869 0.930 . S
H1894 C1871 0.930 . S
H1895 C1872 0.931 . S
H1896 C1874 0.931 . S
H1897 C1876 0.930 . S
H1898 C1878 0.930 . S
H1899 C1879 0.931 . S
H1900 C1881 0.931 . S
H1901 C1883 0.930 . S
H1902 C1885 0.930 . S
H1903 C1886 0.931 . S
N1904 C1866 1.343 . S
N1904 C1887 1.343 . S
N1905 C1873 1.343 . S
N1905 C1880 1.343 . S
C1906 C1907 1.384 . S
C1906 C1908 1.384 . S
C1906 H1934 0.931 . S
C1907 C1906 1.384 . S
C1907 C1910 1.382 . S
C1908 C1906 1.384 . S
C1908 C1909 1.381 . S
C1908 H1935 0.930 . S
C1909 C1908 1.381 . S
C1909 C1911 1.381 . S
C1909 C1912 1.487 . S
C1910 C1907 1.382 . S
C1910 C1911 1.387 . S
C1910 H1936 0.930 . S
C1911 C1909 1.381 . S
C1911 C1910 1.387 . S
C1911 H1937 0.931 . S
C1912 C1909 1.487 . S
C1912 C1919 1.399 . S
C1912 N1950 1.343 . S
C1913 C1914 1.384 . S
C1913 C1915 1.384 . S
C1913 H1938 0.931 . S
C1914 C1913 1.384 . S
C1914 C1917 1.382 . S
C1915 C1913 1.384 . S
C1915 C1916 1.381 . S
C1915 H1939 0.930 . S
C1916 C1915 1.381 . S
C1916 C1918 1.381 . S
C1916 C1919 1.487 . S
C1917 C1914 1.382 . S
C1917 C1918 1.387 . S
C1917 H1940 0.930 . S
C1918 C1916 1.381 . S
C1918 C1917 1.387 . S
C1918 H1941 0.931 . S
C1919 C1912 1.399 . S
C1919 C1916 1.487 . S
C1919 N1951 1.343 . S
C1920 C1921 1.384 . S
C1920 C1922 1.384 . S
C1920 H1942 0.931 . S
C1921 C1920 1.384 . S
C1921 C1924 1.382 . S
C1922 C1920 1.384 . S
C1922 C1923 1.381 . S
C1922 H1943 0.930 . S
C1923 C1922 1.381 . S
C1923 C1925 1.381 . S
C1923 C1926 1.487 . S
C1924 C1921 1.382 . S
C1924 C1925 1.387 . S
C1924 H1944 0.930 . S
C1925 C1923 1.381 . S
C1925 C1924 1.387 . S
C1925 H1945 0.931 . S
C1926 C1923 1.487 . S
C1926 C1933 1.399 . S
C1926 N1951 1.343 . S
C1927 C1928 1.384 . S
C1927 C1929 1.384 . S
C1927 H1946 0.931 . S
C1928 C1927 1.384 . S
C1928 C1931 1.382 . S
C1929 C1927 1.384 . S
C1929 C1930 1.381 . S
C1929 H1947 0.930 . S
C1930 C1929 1.381 . S
C1930 C1932 1.381 . S
C1930 C1933 1.487 . S
C1931 C1928 1.382 . S
C1931 C1932 1.387 . S
C1931 H1948 0.930 . S
C1932 C1930 1.381 . S
C1932 C1931 1.387 . S
C1932 H1949 0.931 . S
C1933 C1926 1.399 . S
C1933 C1930 1.487 . S
C1933 N1950 1.343 . S
H1934 C1906 0.931 . S
H1935 C1908 0.930 . S
H1936 C1910 0.930 . S
H1937 C1911 0.931 . S
H1938 C1913 0.931 . S
H1939 C1915 0.930 . S
H1940 C1917 0.930 . S
H1941 C1918 0.931 . S
H1942 C1920 0.931 . S
H1943 C1922 0.930 . S
H1944 C1924 0.930 . S
H1945 C1925 0.931 . S
H1946 C1927 0.931 . S
H1947 C1929 0.930 . S
H1948 C1931 0.930 . S
H1949 C1932 0.931 . S
N1950 C1912 1.343 . S
N1950 C1933 1.343 . S
N1951 C1919 1.343 . S
N1951 C1926 1.343 . S
C1952 C1953 1.384 . S
C1952 C1954 1.384 . S
C1952 H1980 0.931 . S
C1953 C1952 1.384 . S
C1953 C1956 1.382 . S
C1954 C1952 1.384 . S
C1954 C1955 1.381 . S
C1954 H1981 0.930 . S
C1955 C1954 1.381 . S
C1955 C1957 1.381 . S
C1955 C1958 1.487 . S
C1956 C1953 1.382 . S
C1956 C1957 1.387 . S
C1956 H1982 0.930 . S
C1957 C1955 1.381 . S
C1957 C1956 1.387 . S
C1957 H1983 0.931 . S
C1958 C1955 1.487 . S
C1958 C1965 1.399 . S
C1958 N1996 1.343 . S
C1959 C1960 1.384 . S
C1959 C1961 1.384 . S
C1959 H1984 0.931 . S
C1960 C1959 1.384 . S
C1960 C1963 1.382 . S
C1961 C1959 1.384 . S
C1961 C1962 1.381 . S
C1961 H1985 0.930 . S
C1962 C1961 1.381 . S
C1962 C1964 1.381 . S
C1962 C1965 1.487 . S
C1963 C1960 1.382 . S
C1963 C1964 1.387 . S
C1963 H1986 0.930 . S
C1964 C1962 1.381 . S
C1964 C1963 1.387 . S
C1964 H1987 0.931 . S
C1965 C1958 1.399 . S
C1965 C1962 1.487 . S
C1965 N1997 1.343 . S
C1966 C1967 1.384 . S
C1966 C1968 1.384 . S
C1966 H1988 0.931 . S
C1967 C1966 1.384 . S
C1967 C1970 1.382 . S
C1968 C1966 1.384 . S
C1968 C1969 1.381 . S
C1968 H1989 0.930 . S
C1969 C1968 1.381 . S
C1969 C1971 1.381 . S
C1969 C1972 1.487 . S
C1970 C1967 1.382 . S
C1970 C1971 1.387 . S
C1970 H1990 0.930 . S
C1971 C1969 1.381 . S
C1971 C1970 1.387 . S
C1971 H1991 0.931 . S
C1972 C1969 1.487 . S
C1972 C1979 1.399 . S
C1972 N1997 1.343 . S
C1973 C1974 1.384 . S
C1973 C1975 1.384 . S
C1973 H1992 0.931 . S
C1974 C1973 1.384 . S
C1974 C1977 1.382 . S
C1975 C1973 1.384 . S
C1975 C1976 1.381 . S
C1975 H1993 0.930 . S
C1976 C1975 1.381 . S
C1976 C1978 1.381 . S
C1976 C1979 1.487 . S
C1977 C1974 1.382 . S
C1977 C1978 1.387 . S
C1977 H1994 0.930 . S
C1978 C1976 1.381 . S
C1978 C1977 1.387 . S
C1978 H1995 0.931 . S
C1979 C1972 1.399 . S
C1979 C1976 1.487 . S
C1979 N1996 1.343 . S
H1980 C1952 0.931 . S
H1981 C1954 0.930 . S
H1982 C1956 0.930 . S
H1983 C1957 0.931 . S
H1984 C1959 0.931 . S
H1985 C1961 0.930 . S
H1986 C1963 0.930 . S
H1987 C1964 0.931 . S
H1988 C1966 0.931 . S
H1989 C1968 0.930 . S
H1990 C1970 0.930 . S
H1991 C1971 0.931 . S
H1992 C1973 0.931 . S
H1993 C1975 0.930 . S
H1994 C1977 0.930 . S
H1995 C1978 0.931 . S
N1996 C1958 1.343 . S
N1996 C1979 1.343 . S
N1997 C1965 1.343 . S
N1997 C1972 1.343 . S
C1998 C1999 1.384 . S
C1998 C2000 1.384 . S
C1998 H2026 0.931 . S
C1999 C1998 1.384 . S
C1999 C2002 1.382 1_655 S
C2000 C1998 1.384 . S
C2000 C2001 1.403 . S
C2000 H2027 0.930 . S
C2001 C2000 1.403 . S
C2001 C2003 1.370 1_655 S
C2001 C2004 1.473 1_655 S
C2002 C1999 1.382 1_455 S
C2002 C2003 1.387 . S
C2002 H2028 0.930 . S
C2003 C2001 1.370 1_455 S
C2003 C2002 1.387 . S
C2003 H2029 0.931 . S
C2004 C2001 1.473 1_455 S
C2004 C2011 1.399 1_455 S
C2004 N2042 1.318 . S
C2005 C2006 1.384 . S
C2005 C2007 1.384 . S
C2005 H2030 0.931 . S
C2006 C2005 1.384 . S
C2006 C2009 1.382 1_455 S
C2007 C2005 1.384 . S
C2007 C2008 1.384 . S
C2007 H2031 0.930 . S
C2008 C2007 1.384 . S
C2008 C2010 1.373 1_455 S
C2008 C2011 1.495 1_455 S
C2009 C2006 1.382 1_655 S
C2009 C2010 1.387 . S
C2009 H2032 0.930 . S
C2010 C2008 1.373 1_655 S
C2010 C2009 1.387 . S
C2010 H2033 0.931 . S
C2011 C2004 1.399 1_655 S
C2011 C2008 1.495 1_655 S
C2011 N2043 1.362 . S
C2012 C2013 1.384 . S
C2012 C2014 1.384 . S
C2012 H2034 0.931 . S
C2013 C2012 1.384 . S
C2013 C2016 1.382 1_455 S
C2014 C2012 1.384 . S
C2014 C2015 1.419 . S
C2014 H2035 0.930 . S
C2015 C2014 1.419 . S
C2015 C2017 1.362 1_455 S
C2015 C2018 1.473 1_455 S
C2016 C2013 1.382 1_655 S
C2016 C2017 1.387 . S
C2016 H2036 0.930 . S
C2017 C2015 1.362 1_655 S
C2017 C2016 1.387 . S
C2017 H2037 0.931 . S
C2018 C2015 1.473 1_655 S
C2018 C2025 1.399 1_655 S
C2018 N2043 1.318 . S
C2019 C2020 1.384 . S
C2019 C2021 1.384 . S
C2019 H2038 0.931 . S
C2020 C2019 1.384 . S
C2020 C2023 1.382 1_655 S
C2021 C2019 1.384 . S
C2021 C2022 1.381 . S
C2021 H2039 0.930 . S
C2022 C2021 1.381 . S
C2022 C2024 1.382 1_655 S
C2022 C2025 1.495 1_655 S
C2023 C2020 1.382 1_455 S
C2023 C2024 1.387 . S
C2023 H2040 0.930 . S
C2024 C2022 1.382 1_455 S
C2024 C2023 1.387 . S
C2024 H2041 0.931 . S
C2025 C2018 1.399 1_455 S
C2025 C2022 1.495 1_455 S
C2025 N2042 1.362 . S
H2026 C1998 0.931 . S
H2027 C2000 0.930 . S
H2028 C2002 0.930 . S
H2029 C2003 0.931 . S
H2030 C2005 0.931 . S
H2031 C2007 0.930 . S
H2032 C2009 0.930 . S
H2033 C2010 0.931 . S
H2034 C2012 0.931 . S
H2035 C2014 0.930 . S
H2036 C2016 0.930 . S
H2037 C2017 0.931 . S
H2038 C2019 0.931 . S
H2039 C2021 0.930 . S
H2040 C2023 0.930 . S
H2041 C2024 0.931 . S
N2042 C2004 1.318 . S
N2042 C2025 1.362 . S
N2043 C2011 1.362 . S
N2043 C2018 1.318 . S
C2044 C2045 1.384 . S
C2044 C2046 1.384 . S
C2044 H2072 0.931 . S
C2045 C2044 1.384 . S
C2045 C2048 1.382 . S
C2046 C2044 1.384 . S
C2046 C2047 1.381 . S
C2046 H2073 0.930 . S
C2047 C2046 1.381 . S
C2047 C2049 1.381 . S
C2047 C2050 1.487 . S
C2048 C2045 1.382 . S
C2048 C2049 1.387 . S
C2048 H2074 0.930 . S
C2049 C2047 1.381 . S
C2049 C2048 1.387 . S
C2049 H2075 0.931 . S
C2050 C2047 1.487 . S
C2050 C2057 1.399 . S
C2050 N2088 1.343 . S
C2051 C2052 1.384 . S
C2051 C2053 1.384 . S
C2051 H2076 0.931 . S
C2052 C2051 1.384 . S
C2052 C2055 1.382 . S
C2053 C2051 1.384 . S
C2053 C2054 1.381 . S
C2053 H2077 0.930 . S
C2054 C2053 1.381 . S
C2054 C2056 1.381 . S
C2054 C2057 1.487 . S
C2055 C2052 1.382 . S
C2055 C2056 1.387 . S
C2055 H2078 0.930 . S
C2056 C2054 1.381 . S
C2056 C2055 1.387 . S
C2056 H2079 0.931 . S
C2057 C2050 1.399 . S
C2057 C2054 1.487 . S
C2057 N2089 1.343 . S
C2058 C2059 1.384 . S
C2058 C2060 1.384 . S
C2058 H2080 0.931 . S
C2059 C2058 1.384 . S
C2059 C2062 1.382 . S
C2060 C2058 1.384 . S
C2060 C2061 1.381 . S
C2060 H2081 0.930 . S
C2061 C2060 1.381 . S
C2061 C2063 1.381 . S
C2061 C2064 1.487 . S
C2062 C2059 1.382 . S
C2062 C2063 1.387 . S
C2062 H2082 0.930 . S
C2063 C2061 1.381 . S
C2063 C2062 1.387 . S
C2063 H2083 0.931 . S
C2064 C2061 1.487 . S
C2064 C2071 1.399 . S
C2064 N2089 1.343 . S
C2065 C2066 1.384 . S
C2065 C2067 1.384 . S
C2065 H2084 0.931 . S
C2066 C2065 1.384 . S
C2066 C2069 1.382 . S
C2067 C2065 1.384 . S
C2067 C2068 1.381 . S
C2067 H2085 0.930 . S
C2068 C2067 1.381 . S
C2068 C2070 1.381 . S
C2068 C2071 1.487 . S
C2069 C2066 1.382 . S
C2069 C2070 1.387 . S
C2069 H2086 0.930 . S
C2070 C2068 1.381 . S
C2070 C2069 1.387 . S
C2070 H2087 0.931 . S
C2071 C2064 1.399 . S
C2071 C2068 1.487 . S
C2071 N2088 1.343 . S
H2072 C2044 0.931 . S
H2073 C2046 0.930 . S
H2074 C2048 0.930 . S
H2075 C2049 0.931 . S
H2076 C2051 0.931 . S
H2077 C2053 0.930 . S
H2078 C2055 0.930 . S
H2079 C2056 0.931 . S
H2080 C2058 0.931 . S
H2081 C2060 0.930 . S
H2082 C2062 0.930 . S
H2083 C2063 0.931 . S
H2084 C2065 0.931 . S
H2085 C2067 0.930 . S
H2086 C2069 0.930 . S
H2087 C2070 0.931 . S
N2088 C2050 1.343 . S
N2088 C2071 1.343 . S
N2089 C2057 1.343 . S
N2089 C2064 1.343 . S
C2090 C2091 1.384 1_545 S
C2090 C2092 1.384 . S
C2090 H2118 0.931 . S
C2091 C2090 1.384 1_565 S
C2091 C2094 1.382 . S
C2092 C2090 1.384 . S
C2092 C2093 1.381 1_545 S
C2092 H2119 0.930 . S
C2093 C2092 1.381 1_565 S
C2093 C2095 1.381 . S
C2093 C2096 1.487 . S
C2094 C2091 1.382 . S
C2094 C2095 1.387 . S
C2094 H2120 0.930 . S
C2095 C2093 1.381 . S
C2095 C2094 1.387 . S
C2095 H2121 0.931 . S
C2096 C2093 1.487 . S
C2096 C2103 1.399 1_565 S
C2096 N2134 1.343 . S
C2097 C2098 1.384 1_565 S
C2097 C2099 1.384 . S
C2097 H2122 0.931 . S
C2098 C2097 1.384 1_545 S
C2098 C2101 1.382 . S
C2099 C2097 1.384 . S
C2099 C2100 1.381 1_565 S
C2099 H2123 0.930 . S
C2100 C2099 1.381 1_545 S
C2100 C2102 1.381 . S
C2100 C2103 1.487 . S
C2101 C2098 1.382 . S
C2101 C2102 1.387 . S
C2101 H2124 0.930 . S
C2102 C2100 1.381 . S
C2102 C2101 1.387 . S
C2102 H2125 0.931 . S
C2103 C2096 1.399 1_545 S
C2103 C2100 1.487 . S
C2103 N2135 1.343 . S
C2104 C2105 1.384 1_565 S
C2104 C2106 1.384 . S
C2104 H2126 0.931 . S
C2105 C2104 1.384 1_545 S
C2105 C2108 1.382 . S
C2106 C2104 1.384 . S
C2106 C2107 1.381 1_565 S
C2106 H2127 0.930 . S
C2107 C2106 1.381 1_545 S
C2107 C2109 1.381 . S
C2107 C2110 1.487 . S
C2108 C2105 1.382 . S
C2108 C2109 1.387 . S
C2108 H2128 0.930 . S
C2109 C2107 1.381 . S
C2109 C2108 1.387 . S
C2109 H2129 0.931 . S
C2110 C2107 1.487 . S
C2110 C2117 1.399 1_545 S
C2110 N2135 1.343 . S
C2111 C2112 1.384 1_545 S
C2111 C2113 1.384 . S
C2111 H2130 0.931 . S
C2112 C2111 1.384 1_565 S
C2112 C2115 1.382 . S
C2113 C2111 1.384 . S
C2113 C2114 1.381 1_545 S
C2113 H2131 0.930 . S
C2114 C2113 1.381 1_565 S
C2114 C2116 1.381 . S
C2114 C2117 1.487 . S
C2115 C2112 1.382 . S
C2115 C2116 1.387 . S
C2115 H2132 0.930 . S
C2116 C2114 1.381 . S
C2116 C2115 1.387 . S
C2116 H2133 0.931 . S
C2117 C2110 1.399 1_565 S
C2117 C2114 1.487 . S
C2117 N2134 1.343 . S
H2118 C2090 0.931 . S
H2119 C2092 0.930 . S
H2120 C2094 0.930 . S
H2121 C2095 0.931 . S
H2122 C2097 0.931 . S
H2123 C2099 0.930 . S
H2124 C2101 0.930 . S
H2125 C2102 0.931 . S
H2126 C2104 0.931 . S
H2127 C2106 0.930 . S
H2128 C2108 0.930 . S
H2129 C2109 0.931 . S
H2130 C2111 0.931 . S
H2131 C2113 0.930 . S
H2132 C2115 0.930 . S
H2133 C2116 0.931 . S
N2134 C2096 1.343 . S
N2134 C2117 1.343 . S
N2135 C2103 1.343 . S
N2135 C2110 1.343 . S
C2136 C2137 1.384 . S
C2136 C2138 1.384 . S
C2136 H2164 0.931 . S
C2137 C2136 1.384 . S
C2137 C2140 1.382 1_545 S
C2138 C2136 1.384 . S
C2138 C2139 1.385 . S
C2138 H2165 0.930 . S
C2139 C2138 1.385 . S
C2139 C2141 1.372 1_545 S
C2139 C2142 1.495 1_545 S
C2140 C2137 1.382 1_565 S
C2140 C2141 1.387 . S
C2140 H2166 0.930 . S
C2141 C2139 1.372 1_565 S
C2141 C2140 1.387 . S
C2141 H2167 0.931 . S
C2142 C2139 1.495 1_565 S
C2142 C2149 1.399 1_565 S
C2142 N2180 1.362 . S
C2143 C2144 1.384 . S
C2143 C2145 1.384 . S
C2143 H2168 0.931 . S
C2144 C2143 1.384 . S
C2144 C2147 1.382 1_565 S
C2145 C2143 1.384 . S
C2145 C2146 1.403 . S
C2145 H2169 0.930 . S
C2146 C2145 1.403 . S
C2146 C2148 1.370 1_565 S
C2146 C2149 1.473 1_565 S
C2147 C2144 1.382 1_545 S
C2147 C2148 1.387 . S
C2147 H2170 0.930 . S
C2148 C2146 1.370 1_545 S
C2148 C2147 1.387 . S
C2148 H2171 0.931 . S
C2149 C2142 1.399 1_545 S
C2149 C2146 1.473 1_545 S
C2149 N2181 1.318 . S
C2150 C2151 1.384 . S
C2150 C2152 1.384 . S
C2150 H2172 0.931 . S
C2151 C2150 1.384 . S
C2151 C2154 1.382 1_565 S
C2152 C2150 1.384 . S
C2152 C2153 1.381 . S
C2152 H2173 0.930 . S
C2153 C2152 1.381 . S
C2153 C2155 1.382 1_565 S
C2153 C2156 1.495 1_565 S
C2154 C2151 1.382 1_545 S
C2154 C2155 1.387 . S
C2154 H2174 0.930 . S
C2155 C2153 1.382 1_545 S
C2155 C2154 1.387 . S
C2155 H2175 0.931 . S
C2156 C2153 1.495 1_545 S
C2156 C2163 1.399 1_545 S
C2156 N2181 1.362 . S
C2157 C2158 1.384 . S
C2157 C2159 1.384 . S
C2157 H2176 0.931 . S
C2158 C2157 1.384 . S
C2158 C2161 1.382 1_545 S
C2159 C2157 1.384 . S
C2159 C2160 1.419 . S
C2159 H2177 0.930 . S
C2160 C2159 1.419 . S
C2160 C2162 1.362 1_545 S
C2160 C2163 1.473 1_545 S
C2161 C2158 1.382 1_565 S
C2161 C2162 1.387 . S
C2161 H2178 0.930 . S
C2162 C2160 1.362 1_565 S
C2162 C2161 1.387 . S
C2162 H2179 0.931 . S
C2163 C2156 1.399 1_565 S
C2163 C2160 1.473 1_565 S
C2163 N2180 1.318 . S
H2164 C2136 0.931 . S
H2165 C2138 0.930 . S
H2166 C2140 0.930 . S
H2167 C2141 0.931 . S
H2168 C2143 0.931 . S
H2169 C2145 0.930 . S
H2170 C2147 0.930 . S
H2171 C2148 0.931 . S
H2172 C2150 0.931 . S
H2173 C2152 0.930 . S
H2174 C2154 0.930 . S
H2175 C2155 0.931 . S
H2176 C2157 0.931 . S
H2177 C2159 0.930 . S
H2178 C2161 0.930 . S
H2179 C2162 0.931 . S
N2180 C2142 1.362 . S
N2180 C2163 1.318 . S
N2181 C2149 1.318 . S
N2181 C2156 1.362 . S
C2182 C2183 1.384 . S
C2182 C2184 1.384 . S
C2182 H2210 0.931 . S
C2183 C2182 1.384 . S
C2183 C2186 1.382 1_655 S
C2184 C2182 1.384 . S
C2184 C2185 1.424 . S
C2184 H2211 0.930 . S
C2185 C2184 1.424 . S
C2185 C2187 1.360 1_655 S
C2185 C2188 1.465 . S
C2186 C2183 1.382 1_455 S
C2186 C2187 1.387 . S
C2186 H2212 0.930 . S
C2187 C2185 1.360 1_455 S
C2187 C2186 1.387 . S
C2187 H2213 0.931 . S
C2188 C2185 1.465 . S
C2188 C2195 1.399 . S
C2188 N2226 1.327 1_655 S
C2189 C2190 1.384 . S
C2189 C2191 1.384 . S
C2189 H2214 0.931 . S
C2190 C2189 1.384 . S
C2190 C2193 1.382 1_455 S
C2191 C2189 1.384 . S
C2191 C2192 1.382 . S
C2191 H2215 0.930 . S
C2192 C2191 1.382 . S
C2192 C2194 1.379 1_455 S
C2192 C2195 1.496 1_455 S
C2193 C2190 1.382 1_655 S
C2193 C2194 1.387 . S
C2193 H2216 0.930 . S
C2194 C2192 1.379 1_655 S
C2194 C2193 1.387 . S
C2194 H2217 0.931 . S
C2195 C2188 1.399 . S
C2195 C2192 1.496 1_655 S
C2195 N2227 1.360 . S
C2196 C2197 1.384 . S
C2196 C2198 1.384 . S
C2196 H2218 0.931 . S
C2197 C2196 1.384 . S
C2197 C2200 1.382 1_455 S
C2198 C2196 1.384 . S
C2198 C2199 1.408 . S
C2198 H2219 0.930 . S
C2199 C2198 1.408 . S
C2199 C2201 1.368 1_455 S
C2199 C2202 1.472 1_455 S
C2200 C2197 1.382 1_655 S
C2200 C2201 1.387 . S
C2200 H2220 0.930 . S
C2201 C2199 1.368 1_655 S
C2201 C2200 1.387 . S
C2201 H2221 0.931 . S
C2202 C2199 1.472 1_655 S
C2202 C2209 1.399 1_655 S
C2202 N2227 1.320 . S
C2203 C2204 1.384 . S
C2203 C2205 1.384 . S
C2203 H2222 0.931 . S
C2204 C2203 1.384 . S
C2204 C2207 1.382 1_655 S
C2205 C2203 1.384 . S
C2205 C2206 1.386 . S
C2205 H2223 0.930 . S
C2206 C2205 1.386 . S
C2206 C2208 1.370 1_655 S
C2206 C2209 1.496 1_655 S
C2207 C2204 1.382 1_455 S
C2207 C2208 1.387 . S
C2207 H2224 0.930 . S
C2208 C2206 1.370 1_455 S
C2208 C2207 1.387 . S
C2208 H2225 0.931 . S
C2209 C2202 1.399 1_455 S
C2209 C2206 1.496 1_455 S
C2209 N2226 1.360 . S
H2210 C2182 0.931 . S
H2211 C2184 0.930 . S
H2212 C2186 0.930 . S
H2213 C2187 0.931 . S
H2214 C2189 0.931 . S
H2215 C2191 0.930 . S
H2216 C2193 0.930 . S
H2217 C2194 0.931 . S
H2218 C2196 0.931 . S
H2219 C2198 0.930 . S
H2220 C2200 0.930 . S
H2221 C2201 0.931 . S
H2222 C2203 0.931 . S
H2223 C2205 0.930 . S
H2224 C2207 0.930 . S
H2225 C2208 0.931 . S
N2226 C2188 1.327 1_455 S
N2226 C2209 1.360 . S
N2227 C2195 1.360 . S
N2227 C2202 1.320 . S
C2228 C2229 1.384 . S
C2228 C2230 1.384 . S
C2228 H2256 0.931 . S
C2229 C2228 1.384 . S
C2229 C2232 1.382 . S
C2230 C2228 1.384 . S
C2230 C2231 1.381 . S
C2230 H2257 0.930 . S
C2231 C2230 1.381 . S
C2231 C2233 1.381 . S
C2231 C2234 1.487 . S
C2232 C2229 1.382 . S
C2232 C2233 1.387 . S
C2232 H2258 0.930 . S
C2233 C2231 1.381 . S
C2233 C2232 1.387 . S
C2233 H2259 0.931 . S
C2234 C2231 1.487 . S
C2234 C2241 1.399 . S
C2234 N2272 1.343 . S
C2235 C2236 1.384 . S
C2235 C2237 1.384 . S
C2235 H2260 0.931 . S
C2236 C2235 1.384 . S
C2236 C2239 1.382 . S
C2237 C2235 1.384 . S
C2237 C2238 1.381 . S
C2237 H2261 0.930 . S
C2238 C2237 1.381 . S
C2238 C2240 1.381 . S
C2238 C2241 1.487 . S
C2239 C2236 1.382 . S
C2239 C2240 1.387 . S
C2239 H2262 0.930 . S
C2240 C2238 1.381 . S
C2240 C2239 1.387 . S
C2240 H2263 0.931 . S
C2241 C2234 1.399 . S
C2241 C2238 1.487 . S
C2241 N2273 1.343 . S
C2242 C2243 1.384 . S
C2242 C2244 1.384 . S
C2242 H2264 0.931 . S
C2243 C2242 1.384 . S
C2243 C2246 1.382 . S
C2244 C2242 1.384 . S
C2244 C2245 1.381 . S
C2244 H2265 0.930 . S
C2245 C2244 1.381 . S
C2245 C2247 1.381 . S
C2245 C2248 1.487 . S
C2246 C2243 1.382 . S
C2246 C2247 1.387 . S
C2246 H2266 0.930 . S
C2247 C2245 1.381 . S
C2247 C2246 1.387 . S
C2247 H2267 0.931 . S
C2248 C2245 1.487 . S
C2248 C2255 1.399 . S
C2248 N2273 1.343 . S
C2249 C2250 1.384 . S
C2249 C2251 1.384 . S
C2249 H2268 0.931 . S
C2250 C2249 1.384 . S
C2250 C2253 1.382 . S
C2251 C2249 1.384 . S
C2251 C2252 1.381 . S
C2251 H2269 0.930 . S
C2252 C2251 1.381 . S
C2252 C2254 1.381 . S
C2252 C2255 1.487 . S
C2253 C2250 1.382 . S
C2253 C2254 1.387 . S
C2253 H2270 0.930 . S
C2254 C2252 1.381 . S
C2254 C2253 1.387 . S
C2254 H2271 0.931 . S
C2255 C2248 1.399 . S
C2255 C2252 1.487 . S
C2255 N2272 1.343 . S
H2256 C2228 0.931 . S
H2257 C2230 0.930 . S
H2258 C2232 0.930 . S
H2259 C2233 0.931 . S
H2260 C2235 0.931 . S
H2261 C2237 0.930 . S
H2262 C2239 0.930 . S
H2263 C2240 0.931 . S
H2264 C2242 0.931 . S
H2265 C2244 0.930 . S
H2266 C2246 0.930 . S
H2267 C2247 0.931 . S
H2268 C2249 0.931 . S
H2269 C2251 0.930 . S
H2270 C2253 0.930 . S
H2271 C2254 0.931 . S
N2272 C2234 1.343 . S
N2272 C2255 1.343 . S
N2273 C2241 1.343 . S
N2273 C2248 1.343 . S
C2274 C2275 1.384 . S
C2274 C2276 1.384 . S
C2274 H2302 0.931 . S
C2275 C2274 1.384 . S
C2275 C2278 1.382 . S
C2276 C2274 1.384 . S
C2276 C2277 1.381 . S
C2276 H2303 0.930 . S
C2277 C2276 1.381 . S
C2277 C2279 1.381 . S
C2277 C2280 1.487 . S
C2278 C2275 1.382 . S
C2278 C2279 1.387 . S
C2278 H2304 0.930 . S
C2279 C2277 1.381 . S
C2279 C2278 1.387 . S
C2279 H2305 0.931 . S
C2280 C2277 1.487 . S
C2280 C2287 1.399 . S
C2280 N2318 1.343 . S
C2281 C2282 1.384 . S
C2281 C2283 1.384 . S
C2281 H2306 0.931 . S
C2282 C2281 1.384 . S
C2282 C2285 1.382 . S
C2283 C2281 1.384 . S
C2283 C2284 1.381 . S
C2283 H2307 0.930 . S
C2284 C2283 1.381 . S
C2284 C2286 1.381 . S
C2284 C2287 1.487 . S
C2285 C2282 1.382 . S
C2285 C2286 1.387 . S
C2285 H2308 0.930 . S
C2286 C2284 1.381 . S
C2286 C2285 1.387 . S
C2286 H2309 0.931 . S
C2287 C2280 1.399 . S
C2287 C2284 1.487 . S
C2287 N2319 1.343 . S
C2288 C2289 1.384 . S
C2288 C2290 1.384 . S
C2288 H2310 0.931 . S
C2289 C2288 1.384 . S
C2289 C2292 1.382 . S
C2290 C2288 1.384 . S
C2290 C2291 1.381 . S
C2290 H2311 0.930 . S
C2291 C2290 1.381 . S
C2291 C2293 1.381 . S
C2291 C2294 1.487 . S
C2292 C2289 1.382 . S
C2292 C2293 1.387 . S
C2292 H2312 0.930 . S
C2293 C2291 1.381 . S
C2293 C2292 1.387 . S
C2293 H2313 0.931 . S
C2294 C2291 1.487 . S
C2294 C2301 1.399 . S
C2294 N2319 1.343 . S
C2295 C2296 1.384 . S
C2295 C2297 1.384 . S
C2295 H2314 0.931 . S
C2296 C2295 1.384 . S
C2296 C2299 1.382 . S
C2297 C2295 1.384 . S
C2297 C2298 1.381 . S
C2297 H2315 0.930 . S
C2298 C2297 1.381 . S
C2298 C2300 1.381 . S
C2298 C2301 1.487 . S
C2299 C2296 1.382 . S
C2299 C2300 1.387 . S
C2299 H2316 0.930 . S
C2300 C2298 1.381 . S
C2300 C2299 1.387 . S
C2300 H2317 0.931 . S
C2301 C2294 1.399 . S
C2301 C2298 1.487 . S
C2301 N2318 1.343 . S
H2302 C2274 0.931 . S
H2303 C2276 0.930 . S
H2304 C2278 0.930 . S
H2305 C2279 0.931 . S
H2306 C2281 0.931 . S
H2307 C2283 0.930 . S
H2308 C2285 0.930 . S
H2309 C2286 0.931 . S
H2310 C2288 0.931 . S
H2311 C2290 0.930 . S
H2312 C2292 0.930 . S
H2313 C2293 0.931 . S
H2314 C2295 0.931 . S
H2315 C2297 0.930 . S
H2316 C2299 0.930 . S
H2317 C2300 0.931 . S
N2318 C2280 1.343 . S
N2318 C2301 1.343 . S
N2319 C2287 1.343 . S
N2319 C2294 1.343 . S
C2320 C2321 1.384 . S
C2320 C2322 1.384 . S
C2320 H2348 0.931 . S
C2321 C2320 1.384 . S
C2321 C2324 1.382 . S
C2322 C2320 1.384 . S
C2322 C2323 1.381 . S
C2322 H2349 0.930 . S
C2323 C2322 1.381 . S
C2323 C2325 1.381 . S
C2323 C2326 1.487 . S
C2324 C2321 1.382 . S
C2324 C2325 1.387 . S
C2324 H2350 0.930 . S
C2325 C2323 1.381 . S
C2325 C2324 1.387 . S
C2325 H2351 0.931 . S
C2326 C2323 1.487 . S
C2326 C2333 1.399 . S
C2326 N2364 1.343 . S
C2327 C2328 1.384 . S
C2327 C2329 1.384 . S
C2327 H2352 0.931 . S
C2328 C2327 1.384 . S
C2328 C2331 1.382 . S
C2329 C2327 1.384 . S
C2329 C2330 1.381 . S
C2329 H2353 0.930 . S
C2330 C2329 1.381 . S
C2330 C2332 1.381 . S
C2330 C2333 1.487 . S
C2331 C2328 1.382 . S
C2331 C2332 1.387 . S
C2331 H2354 0.930 . S
C2332 C2330 1.381 . S
C2332 C2331 1.387 . S
C2332 H2355 0.931 . S
C2333 C2326 1.399 . S
C2333 C2330 1.487 . S
C2333 N2365 1.343 . S
C2334 C2335 1.384 . S
C2334 C2336 1.384 . S
C2334 H2356 0.931 . S
C2335 C2334 1.384 . S
C2335 C2338 1.382 . S
C2336 C2334 1.384 . S
C2336 C2337 1.381 . S
C2336 H2357 0.930 . S
C2337 C2336 1.381 . S
C2337 C2339 1.381 . S
C2337 C2340 1.487 . S
C2338 C2335 1.382 . S
C2338 C2339 1.387 . S
C2338 H2358 0.930 . S
C2339 C2337 1.381 . S
C2339 C2338 1.387 . S
C2339 H2359 0.931 . S
C2340 C2337 1.487 . S
C2340 C2347 1.399 . S
C2340 N2365 1.343 . S
C2341 C2342 1.384 . S
C2341 C2343 1.384 . S
C2341 H2360 0.931 . S
C2342 C2341 1.384 . S
C2342 C2345 1.382 . S
C2343 C2341 1.384 . S
C2343 C2344 1.381 . S
C2343 H2361 0.930 . S
C2344 C2343 1.381 . S
C2344 C2346 1.381 . S
C2344 C2347 1.487 . S
C2345 C2342 1.382 . S
C2345 C2346 1.387 . S
C2345 H2362 0.930 . S
C2346 C2344 1.381 . S
C2346 C2345 1.387 . S
C2346 H2363 0.931 . S
C2347 C2340 1.399 . S
C2347 C2344 1.487 . S
C2347 N2364 1.343 . S
H2348 C2320 0.931 . S
H2349 C2322 0.930 . S
H2350 C2324 0.930 . S
H2351 C2325 0.931 . S
H2352 C2327 0.931 . S
H2353 C2329 0.930 . S
H2354 C2331 0.930 . S
H2355 C2332 0.931 . S
H2356 C2334 0.931 . S
H2357 C2336 0.930 . S
H2358 C2338 0.930 . S
H2359 C2339 0.931 . S
H2360 C2341 0.931 . S
H2361 C2343 0.930 . S
H2362 C2345 0.930 . S
H2363 C2346 0.931 . S
N2364 C2326 1.343 . S
N2364 C2347 1.343 . S
N2365 C2333 1.343 . S
N2365 C2340 1.343 . S
C2366 C2367 1.384 . S
C2366 C2368 1.384 . S
C2366 H2394 0.931 . S
C2367 C2366 1.384 . S
C2367 C2370 1.382 . S
C2368 C2366 1.384 . S
C2368 C2369 1.381 . S
C2368 H2395 0.930 . S
C2369 C2368 1.381 . S
C2369 C2371 1.381 . S
C2369 C2372 1.487 . S
C2370 C2367 1.382 . S
C2370 C2371 1.387 . S
C2370 H2396 0.930 . S
C2371 C2369 1.381 . S
C2371 C2370 1.387 . S
C2371 H2397 0.931 . S
C2372 C2369 1.487 . S
C2372 C2379 1.399 . S
C2372 N2410 1.343 . S
C2373 C2374 1.384 . S
C2373 C2375 1.384 . S
C2373 H2398 0.931 . S
C2374 C2373 1.384 . S
C2374 C2377 1.382 . S
C2375 C2373 1.384 . S
C2375 C2376 1.381 . S
C2375 H2399 0.930 . S
C2376 C2375 1.381 . S
C2376 C2378 1.381 . S
C2376 C2379 1.487 . S
C2377 C2374 1.382 . S
C2377 C2378 1.387 . S
C2377 H2400 0.930 . S
C2378 C2376 1.381 . S
C2378 C2377 1.387 . S
C2378 H2401 0.931 . S
C2379 C2372 1.399 . S
C2379 C2376 1.487 . S
C2379 N2411 1.343 . S
C2380 C2381 1.384 . S
C2380 C2382 1.384 . S
C2380 H2402 0.931 . S
C2381 C2380 1.384 . S
C2381 C2384 1.382 . S
C2382 C2380 1.384 . S
C2382 C2383 1.381 . S
C2382 H2403 0.930 . S
C2383 C2382 1.381 . S
C2383 C2385 1.381 . S
C2383 C2386 1.487 . S
C2384 C2381 1.382 . S
C2384 C2385 1.387 . S
C2384 H2404 0.930 . S
C2385 C2383 1.381 . S
C2385 C2384 1.387 . S
C2385 H2405 0.931 . S
C2386 C2383 1.487 . S
C2386 C2393 1.399 . S
C2386 N2411 1.343 . S
C2387 C2388 1.384 . S
C2387 C2389 1.384 . S
C2387 H2406 0.931 . S
C2388 C2387 1.384 . S
C2388 C2391 1.382 . S
C2389 C2387 1.384 . S
C2389 C2390 1.381 . S
C2389 H2407 0.930 . S
C2390 C2389 1.381 . S
C2390 C2392 1.381 . S
C2390 C2393 1.487 . S
C2391 C2388 1.382 . S
C2391 C2392 1.387 . S
C2391 H2408 0.930 . S
C2392 C2390 1.381 . S
C2392 C2391 1.387 . S
C2392 H2409 0.931 . S
C2393 C2386 1.399 . S
C2393 C2390 1.487 . S
C2393 N2410 1.343 . S
H2394 C2366 0.931 . S
H2395 C2368 0.930 . S
H2396 C2370 0.930 . S
H2397 C2371 0.931 . S
H2398 C2373 0.931 . S
H2399 C2375 0.930 . S
H2400 C2377 0.930 . S
H2401 C2378 0.931 . S
H2402 C2380 0.931 . S
H2403 C2382 0.930 . S
H2404 C2384 0.930 . S
H2405 C2385 0.931 . S
H2406 C2387 0.931 . S
H2407 C2389 0.930 . S
H2408 C2391 0.930 . S
H2409 C2392 0.931 . S
N2410 C2372 1.343 . S
N2410 C2393 1.343 . S
N2411 C2379 1.343 . S
N2411 C2386 1.343 . S
C2412 C2413 1.363 . S
C2412 C2418 1.379 . S
C2412 N2420 1.356 . S
C2413 C2412 1.363 . S
C2413 C2419 1.363 . S
C2414 C2415 1.363 . S
C2414 C2419 1.379 . S
C2414 N2421 1.356 . S
C2415 C2414 1.363 . S
C2415 C2418 1.363 . S
N2416 C2418 1.356 1_455 S
N2416 H2428 0.984 . S
N2416 H2429 0.985 . S
N2417 C2419 1.356 . S
N2417 H2422 0.984 . S
N2417 H2423 0.985 . S
C2418 C2412 1.379 . S
C2418 C2415 1.363 . S
C2418 N2416 1.356 1_655 S
C2419 C2413 1.363 . S
C2419 C2414 1.379 . S
C2419 N2417 1.356 . S
N2420 C2412 1.356 . S
N2420 H2426 0.984 . S
N2420 H2427 0.984 . S
N2421 C2414 1.356 . S
N2421 H2424 0.984 . S
N2421 H2425 0.985 . S
H2422 N2417 0.984 . S
H2423 N2417 0.985 . S
H2424 N2421 0.984 . S
H2425 N2421 0.985 . S
H2426 N2420 0.984 . S
H2427 N2420 0.984 . S
H2428 N2416 0.984 . S
H2429 N2416 0.985 . S
C2430 C2431 1.363 . S
C2430 C2436 1.379 . S
C2430 N2438 1.356 . S
C2431 C2430 1.363 . S
C2431 C2437 1.363 . S
C2432 C2433 1.363 . S
C2432 C2437 1.379 . S
C2432 N2439 1.356 . S
C2433 C2432 1.363 . S
C2433 C2436 1.363 . S
N2434 C2436 1.356 . S
N2434 H2446 0.984 . S
N2434 H2447 0.985 . S
N2435 C2437 1.356 . S
N2435 H2440 0.984 . S
N2435 H2441 0.985 . S
C2436 C2430 1.379 . S
C2436 C2433 1.363 . S
C2436 N2434 1.356 . S
C2437 C2431 1.363 . S
C2437 C2432 1.379 . S
C2437 N2435 1.356 . S
N2438 C2430 1.356 . S
N2438 H2444 0.984 . S
N2438 H2445 0.984 . S
N2439 C2432 1.356 . S
N2439 H2442 0.984 . S
N2439 H2443 0.985 . S
H2440 N2435 0.984 . S
H2441 N2435 0.985 . S
H2442 N2439 0.984 . S
H2443 N2439 0.985 . S
H2444 N2438 0.984 . S
H2445 N2438 0.984 . S
H2446 N2434 0.984 . S
H2447 N2434 0.985 . S
C2448 C2449 1.363 . S
C2448 C2454 1.379 . S
C2448 N2456 1.356 . S
C2449 C2448 1.363 . S
C2449 C2455 1.363 . S
C2450 C2451 1.363 1_565 S
C2450 C2455 1.379 1_565 S
C2450 N2457 1.356 . S
C2451 C2450 1.363 1_545 S
C2451 C2454 1.363 . S
N2452 C2454 1.356 . S
N2452 H2464 0.984 . S
N2452 H2465 0.985 . S
N2453 C2455 1.356 1_565 S
N2453 H2458 0.984 1_565 S
N2453 H2459 0.985 . S
C2454 C2448 1.379 . S
C2454 C2451 1.363 . S
C2454 N2452 1.356 . S
C2455 C2449 1.363 . S
C2455 C2450 1.379 1_545 S
C2455 N2453 1.356 1_545 S
N2456 C2448 1.356 . S
N2456 H2462 0.984 . S
N2456 H2463 0.984 . S
N2457 C2450 1.356 . S
N2457 H2460 0.984 . S
N2457 H2461 0.985 . S
H2458 N2453 0.984 1_545 S
H2459 N2453 0.985 . S
H2460 N2457 0.984 . S
H2461 N2457 0.985 . S
H2462 N2456 0.984 . S
H2463 N2456 0.984 . S
H2464 N2452 0.984 . S
H2465 N2452 0.985 . S
C2466 C2467 1.363 . S
C2466 C2472 1.379 . S
C2466 N2474 1.356 . S
C2467 C2466 1.363 . S
C2467 C2473 1.363 . S
C2468 C2469 1.363 1_545 S
C2468 C2473 1.379 1_545 S
C2468 N2475 1.356 . S
C2469 C2468 1.363 1_565 S
C2469 C2472 1.363 . S
N2470 C2472 1.356 . S
N2470 H2482 0.984 . S
N2470 H2483 0.985 . S
N2471 C2473 1.356 1_545 S
N2471 H2476 0.984 1_545 S
N2471 H2477 0.985 . S
C2472 C2466 1.379 . S
C2472 C2469 1.363 . S
C2472 N2470 1.356 . S
C2473 C2467 1.363 . S
C2473 C2468 1.379 1_565 S
C2473 N2471 1.356 1_565 S
N2474 C2466 1.356 . S
N2474 H2480 0.984 . S
N2474 H2481 0.984 . S
N2475 C2468 1.356 . S
N2475 H2478 0.984 . S
N2475 H2479 0.985 . S
H2476 N2471 0.984 1_565 S
H2477 N2471 0.985 . S
H2478 N2475 0.984 . S
H2479 N2475 0.985 . S
H2480 N2474 0.984 . S
H2481 N2474 0.984 . S
H2482 N2470 0.984 . S
H2483 N2470 0.985 . S
C2484 C2485 1.363 . S
C2484 C2490 1.379 . S
C2484 N2492 1.356 . S
C2485 C2484 1.363 . S
C2485 C2491 1.363 . S
C2486 C2487 1.363 . S
C2486 C2491 1.379 . S
C2486 N2493 1.356 . S
C2487 C2486 1.363 . S
C2487 C2490 1.363 . S
N2488 C2490 1.356 . S
N2488 H2500 0.984 . S
N2488 H2501 0.985 . S
N2489 C2491 1.356 . S
N2489 H2494 0.984 . S
N2489 H2495 0.985 . S
C2490 C2484 1.379 . S
C2490 C2487 1.363 . S
C2490 N2488 1.356 . S
C2491 C2485 1.363 . S
C2491 C2486 1.379 . S
C2491 N2489 1.356 . S
N2492 C2484 1.356 . S
N2492 H2498 0.984 . S
N2492 H2499 0.984 . S
N2493 C2486 1.356 . S
N2493 H2496 1.002 . S
N2493 H2497 0.985 . S
H2494 N2489 0.984 . S
H2495 N2489 0.985 . S
H2496 N2493 1.002 . S
H2497 N2493 0.985 . S
H2498 N2492 0.984 . S
H2499 N2492 0.984 . S
H2500 N2488 0.984 . S
H2501 N2488 0.985 . S
C2502 C2503 1.363 . S
C2502 C2508 1.379 . S
C2502 N2510 1.356 . S
C2503 C2502 1.363 . S
C2503 C2509 1.363 . S
C2504 C2505 1.363 . S
C2504 C2509 1.379 . S
C2504 N2511 1.356 . S
C2505 C2504 1.363 . S
C2505 C2508 1.363 . S
N2506 C2508 1.356 . S
N2506 H2518 0.984 . S
N2506 H2519 0.985 . S
N2507 C2509 1.356 . S
N2507 H2512 0.984 . S
N2507 H2513 0.985 . S
C2508 C2502 1.379 . S
C2508 C2505 1.363 . S
C2508 N2506 1.356 . S
C2509 C2503 1.363 . S
C2509 C2504 1.379 . S
C2509 N2507 1.356 . S
N2510 C2502 1.356 . S
N2510 H2516 0.984 . S
N2510 H2517 0.984 . S
N2511 C2504 1.356 . S
N2511 H2514 0.984 . S
N2511 H2515 0.985 . S
H2512 N2507 0.984 . S
H2513 N2507 0.985 . S
H2514 N2511 0.984 . S
H2515 N2511 0.985 . S
H2516 N2510 0.984 . S
H2517 N2510 0.984 . S
H2518 N2506 0.984 . S
H2519 N2506 0.985 . S
C2520 C2521 1.363 . S
C2520 C2526 1.379 . S
C2520 N2528 1.356 . S
C2521 C2520 1.363 . S
C2521 C2527 1.363 . S
C2522 C2523 1.363 . S
C2522 C2527 1.379 . S
C2522 N2529 1.356 . S
C2523 C2522 1.363 . S
C2523 C2526 1.363 . S
N2524 C2526 1.356 . S
N2524 H2536 0.984 . S
N2524 H2537 0.985 . S
N2525 C2527 1.356 . S
N2525 H2530 0.984 . S
N2525 H2531 0.985 . S
C2526 C2520 1.379 . S
C2526 C2523 1.363 . S
C2526 N2524 1.356 . S
C2527 C2521 1.363 . S
C2527 C2522 1.379 . S
C2527 N2525 1.356 . S
N2528 C2520 1.356 . S
N2528 H2534 0.984 . S
N2528 H2535 0.984 . S
N2529 C2522 1.356 . S
N2529 H2532 0.984 1_455 S
N2529 H2533 1.020 . S
H2530 N2525 0.984 . S
H2531 N2525 0.985 . S
H2532 N2529 0.984 1_655 S
H2533 N2529 1.020 . S
H2534 N2528 0.984 . S
H2535 N2528 0.984 . S
H2536 N2524 0.984 . S
H2537 N2524 0.985 . S
C2538 C2539 1.363 . S
C2538 C2544 1.379 . S
C2538 N2546 1.356 . S
C2539 C2538 1.363 . S
C2539 C2545 1.363 . S
C2540 C2541 1.363 . S
C2540 C2545 1.379 . S
C2540 N2547 1.356 . S
C2541 C2540 1.363 . S
C2541 C2544 1.363 . S
N2542 C2544 1.356 . S
N2542 H2554 0.984 . S
N2542 H2555 0.985 . S
N2543 C2545 1.356 . S
N2543 H2548 0.984 . S
N2543 H2549 0.985 . S
C2544 C2538 1.379 . S
C2544 C2541 1.363 . S
C2544 N2542 1.356 . S
C2545 C2539 1.363 . S
C2545 C2540 1.379 . S
C2545 N2543 1.356 . S
N2546 C2538 1.356 . S
N2546 H2552 0.984 . S
N2546 H2553 0.984 . S
N2547 C2540 1.356 . S
N2547 H2550 0.984 . S
N2547 H2551 0.985 . S
H2548 N2543 0.984 . S
H2549 N2543 0.985 . S
H2550 N2547 0.984 . S
H2551 N2547 0.985 . S
H2552 N2546 0.984 . S
H2553 N2546 0.984 . S
H2554 N2542 0.984 . S
H2555 N2542 0.985 . S
C2556 C2557 1.363 . S
C2556 C2562 1.379 . S
C2556 N2564 1.356 . S
C2557 C2556 1.363 . S
C2557 C2563 1.363 . S
C2558 C2559 1.363 . S
C2558 C2563 1.379 . S
C2558 N2565 1.356 1_565 S
C2559 C2558 1.363 . S
C2559 C2562 1.363 . S
N2560 C2562 1.356 . S
N2560 H2572 0.984 . S
N2560 H2573 0.985 . S
N2561 C2563 1.356 . S
N2561 H2566 0.984 . S
N2561 H2567 0.985 1_565 S
C2562 C2556 1.379 . S
C2562 C2559 1.363 . S
C2562 N2560 1.356 . S
C2563 C2557 1.363 . S
C2563 C2558 1.379 . S
C2563 N2561 1.356 . S
N2564 C2556 1.356 . S
N2564 H2570 0.984 . S
N2564 H2571 0.984 . S
N2565 C2558 1.356 1_545 S
N2565 H2568 0.984 . S
N2565 H2569 0.985 . S
H2566 N2561 0.984 . S
H2567 N2561 0.985 1_545 S
H2568 N2565 0.984 . S
H2569 N2565 0.985 . S
H2570 N2564 0.984 . S
H2571 N2564 0.984 . S
H2572 N2560 0.984 . S
H2573 N2560 0.985 . S
C2574 C2575 1.363 . S
C2574 C2580 1.379 . S
C2574 N2582 1.356 . S
C2575 C2574 1.363 . S
C2575 C2581 1.363 . S
C2576 C2577 1.363 . S
C2576 C2581 1.379 . S
C2576 N2583 1.356 . S
C2577 C2576 1.363 . S
C2577 C2580 1.363 . S
N2578 C2580 1.357 . S
N2578 H2590 0.985 1_545 S
N2578 H2591 0.984 1_545 S
N2579 C2581 1.356 . S
N2579 H2584 0.984 . S
N2579 H2585 0.985 . S
C2580 C2574 1.379 . S
C2580 C2577 1.363 . S
C2580 N2578 1.357 . S
C2581 C2575 1.363 . S
C2581 C2576 1.379 . S
C2581 N2579 1.356 . S
N2582 C2574 1.356 . S
N2582 H2588 0.984 . S
N2582 H2589 0.984 . S
N2583 C2576 1.356 . S
N2583 H2586 0.984 . S
N2583 H2587 0.985 . S
H2584 N2579 0.984 . S
H2585 N2579 0.985 . S
H2586 N2583 0.984 . S
H2587 N2583 0.985 . S
H2588 N2582 0.984 . S
H2589 N2582 0.984 . S
H2590 N2578 0.985 1_565 S
H2591 N2578 0.984 1_565 S
C2592 C2593 1.363 . S
C2592 C2598 1.379 . S
C2592 N2600 1.356 . S
C2593 C2592 1.363 . S
C2593 C2599 1.363 . S
C2594 C2595 1.363 . S
C2594 C2599 1.379 . S
C2594 N2601 1.356 1_655 S
C2595 C2594 1.363 . S
C2595 C2598 1.363 . S
N2596 C2598 1.356 . S
N2596 H2608 0.984 . S
N2596 H2609 0.985 . S
N2597 C2599 1.356 . S
N2597 H2602 0.984 . S
N2597 H2603 0.985 1_655 S
C2598 C2592 1.379 . S
C2598 C2595 1.363 . S
C2598 N2596 1.356 . S
C2599 C2593 1.363 . S
C2599 C2594 1.379 . S
C2599 N2597 1.356 . S
N2600 C2592 1.356 . S
N2600 H2606 0.984 . S
N2600 H2607 0.984 . S
N2601 C2594 1.356 1_455 S
N2601 H2604 0.984 . S
N2601 H2605 0.985 . S
H2602 N2597 0.984 . S
H2603 N2597 0.985 1_455 S
H2604 N2601 0.984 . S
H2605 N2601 0.985 . S
H2606 N2600 0.984 . S
H2607 N2600 0.984 . S
H2608 N2596 0.984 . S
H2609 N2596 0.985 . S
C2610 C2611 1.363 . S
C2610 C2616 1.379 . S
C2610 N2618 1.356 . S
C2611 C2610 1.363 . S
C2611 C2617 1.363 . S
C2612 C2613 1.363 . S
C2612 C2617 1.379 . S
C2612 N2619 1.356 . S
C2613 C2612 1.363 . S
C2613 C2616 1.363 . S
N2614 C2616 1.356 . S
N2614 H2626 0.984 . S
N2614 H2627 0.985 . S
N2615 C2617 1.356 . S
N2615 H2620 0.984 . S
N2615 H2621 0.985 . S
C2616 C2610 1.379 . S
C2616 C2613 1.363 . S
C2616 N2614 1.356 . S
C2617 C2611 1.363 . S
C2617 C2612 1.379 . S
C2617 N2615 1.356 . S
N2618 C2610 1.356 . S
N2618 H2624 0.984 . S
N2618 H2625 0.984 . S
N2619 C2612 1.356 . S
N2619 H2622 0.984 . S
N2619 H2623 0.985 . S
H2620 N2615 0.984 . S
H2621 N2615 0.985 . S
H2622 N2619 0.984 . S
H2623 N2619 0.985 . S
H2624 N2618 0.984 . S
H2625 N2618 0.984 . S
H2626 N2614 0.984 . S
H2627 N2614 0.985 . S
C2628 C2629 1.363 . S
C2628 C2634 1.379 . S
C2628 N2636 1.356 . S
C2629 C2628 1.363 . S
C2629 C2635 1.363 . S
C2630 C2631 1.363 . S
C2630 C2635 1.379 . S
C2630 N2637 1.356 . S
C2631 C2630 1.363 . S
C2631 C2634 1.363 . S
N2632 C2634 1.356 . S
N2632 H2644 0.984 . S
N2632 H2645 0.985 . S
N2633 C2635 1.356 . S
N2633 H2638 0.984 . S
N2633 H2639 0.985 . S
C2634 C2628 1.379 . S
C2634 C2631 1.363 . S
C2634 N2632 1.356 . S
C2635 C2629 1.363 . S
C2635 C2630 1.379 . S
C2635 N2633 1.356 . S
N2636 C2628 1.356 . S
N2636 H2642 0.984 . S
N2636 H2643 0.984 . S
N2637 C2630 1.356 . S
N2637 H2640 0.984 . S
N2637 H2641 0.985 . S
H2638 N2633 0.984 . S
H2639 N2633 0.985 . S
H2640 N2637 0.984 . S
H2641 N2637 0.985 . S
H2642 N2636 0.984 . S
H2643 N2636 0.984 . S
H2644 N2632 0.984 . S
H2645 N2632 0.985 . S
C2646 C2647 1.363 . S
C2646 C2652 1.379 . S
C2646 N2654 1.356 . S
C2647 C2646 1.363 . S
C2647 C2653 1.363 . S
C2648 C2649 1.363 . S
C2648 C2653 1.379 . S
C2648 N2655 1.356 . S
C2649 C2648 1.363 . S
C2649 C2652 1.363 . S
N2650 C2652 1.356 . S
N2650 H2662 0.984 . S
N2650 H2663 0.985 . S
N2651 C2653 1.356 . S
N2651 H2656 0.984 . S
N2651 H2657 0.985 . S
C2652 C2646 1.379 . S
C2652 C2649 1.363 . S
C2652 N2650 1.356 . S
C2653 C2647 1.363 . S
C2653 C2648 1.379 . S
C2653 N2651 1.356 . S
N2654 C2646 1.356 . S
N2654 H2660 0.984 . S
N2654 H2661 0.984 . S
N2655 C2648 1.356 . S
N2655 H2658 0.984 . S
N2655 H2659 0.985 . S
H2656 N2651 0.984 . S
H2657 N2651 0.985 . S
H2658 N2655 0.984 . S
H2659 N2655 0.985 . S
H2660 N2654 0.984 . S
H2661 N2654 0.984 . S
H2662 N2650 0.984 . S
H2663 N2650 0.985 . S
C2664 C2665 1.363 . S
C2664 C2670 1.379 . S
C2664 N2672 1.356 . S
C2665 C2664 1.363 . S
C2665 C2671 1.363 . S
C2666 C2667 1.363 . S
C2666 C2671 1.379 . S
C2666 N2673 1.356 . S
C2667 C2666 1.363 . S
C2667 C2670 1.363 . S
N2668 C2670 1.356 . S
N2668 H2680 0.984 . S
N2668 H2681 0.985 . S
N2669 C2671 1.356 . S
N2669 H2674 0.984 . S
N2669 H2675 0.985 . S
C2670 C2664 1.379 . S
C2670 C2667 1.363 . S
C2670 N2668 1.356 . S
C2671 C2665 1.363 . S
C2671 C2666 1.379 . S
C2671 N2669 1.356 . S
N2672 C2664 1.356 . S
N2672 H2678 0.984 . S
N2672 H2679 0.984 . S
N2673 C2666 1.356 . S
N2673 H2676 0.984 . S
N2673 H2677 0.985 . S
H2674 N2669 0.984 . S
H2675 N2669 0.985 . S
H2676 N2673 0.984 . S
H2677 N2673 0.985 . S
H2678 N2672 0.984 . S
H2679 N2672 0.984 . S
H2680 N2668 0.984 . S
H2681 N2668 0.985 . S
C2682 C2683 1.363 . S
C2682 C2688 1.379 . S
C2682 N2690 1.356 . S
C2683 C2682 1.363 . S
C2683 C2689 1.363 . S
C2684 C2685 1.363 . S
C2684 C2689 1.379 . S
C2684 N2691 1.356 . S
C2685 C2684 1.363 . S
C2685 C2688 1.363 . S
N2686 C2688 1.356 . S
N2686 H2698 0.984 . S
N2686 H2699 0.985 . S
N2687 C2689 1.356 . S
N2687 H2692 0.984 . S
N2687 H2693 0.985 . S
C2688 C2682 1.379 . S
C2688 C2685 1.363 . S
C2688 N2686 1.356 . S
C2689 C2683 1.363 . S
C2689 C2684 1.379 . S
C2689 N2687 1.356 . S
N2690 C2682 1.356 . S
N2690 H2696 0.984 . S
N2690 H2697 0.984 . S
N2691 C2684 1.356 . S
N2691 H2694 0.984 . S
N2691 H2695 0.985 . S
H2692 N2687 0.984 . S
H2693 N2687 0.985 . S
H2694 N2691 0.984 . S
H2695 N2691 0.985 . S
H2696 N2690 0.984 . S
H2697 N2690 0.984 . S
H2698 N2686 0.984 . S
H2699 N2686 0.985 . S
C2700 C2701 1.363 . S
C2700 C2706 1.379 . S
C2700 N2708 1.356 . S
C2701 C2700 1.363 . S
C2701 C2707 1.363 . S
C2702 C2703 1.363 . S
C2702 C2707 1.379 . S
C2702 N2709 1.356 . S
C2703 C2702 1.363 . S
C2703 C2706 1.363 . S
N2704 C2706 1.356 . S
N2704 H2716 0.984 . S
N2704 H2717 0.985 . S
N2705 C2707 1.356 . S
N2705 H2710 0.984 . S
N2705 H2711 0.985 . S
C2706 C2700 1.379 . S
C2706 C2703 1.363 . S
C2706 N2704 1.356 . S
C2707 C2701 1.363 . S
C2707 C2702 1.379 . S
C2707 N2705 1.356 . S
N2708 C2700 1.356 . S
N2708 H2714 0.984 . S
N2708 H2715 0.984 . S
N2709 C2702 1.356 . S
N2709 H2712 0.984 . S
N2709 H2713 0.985 . S
H2710 N2705 0.984 . S
H2711 N2705 0.985 . S
H2712 N2709 0.984 . S
H2713 N2709 0.985 . S
H2714 N2708 0.984 . S
H2715 N2708 0.984 . S
H2716 N2704 0.984 . S
H2717 N2704 0.985 . S
C2718 C2719 1.363 . S
C2718 C2724 1.379 . S
C2718 N2726 1.356 . S
C2719 C2718 1.363 . S
C2719 C2725 1.363 . S
C2720 C2721 1.363 . S
C2720 C2725 1.379 . S
C2720 N2727 1.356 . S
C2721 C2720 1.363 . S
C2721 C2724 1.363 . S
N2722 C2724 1.356 . S
N2722 H2734 0.984 . S
N2722 H2735 0.985 . S
N2723 C2725 1.356 . S
N2723 H2728 0.984 . S
N2723 H2729 0.985 . S
C2724 C2718 1.379 . S
C2724 C2721 1.363 . S
C2724 N2722 1.356 . S
C2725 C2719 1.363 . S
C2725 C2720 1.379 . S
C2725 N2723 1.356 . S
N2726 C2718 1.356 . S
N2726 H2732 0.984 . S
N2726 H2733 0.984 . S
N2727 C2720 1.356 . S
N2727 H2730 0.984 . S
N2727 H2731 0.985 . S
H2728 N2723 0.984 . S
H2729 N2723 0.985 . S
H2730 N2727 0.984 . S
H2731 N2727 0.985 . S
H2732 N2726 0.984 . S
H2733 N2726 0.984 . S
H2734 N2722 0.984 . S
H2735 N2722 0.985 . S
C2736 C2737 1.363 . S
C2736 C2742 1.379 . S
C2736 N2744 1.356 . S
C2737 C2736 1.363 . S
C2737 C2743 1.363 . S
C2738 C2739 1.363 . S
C2738 C2743 1.379 . S
C2738 N2745 1.356 . S
C2739 C2738 1.363 . S
C2739 C2742 1.363 . S
N2740 C2742 1.356 . S
N2740 H2752 0.984 . S
N2740 H2753 0.985 . S
N2741 C2743 1.356 . S
N2741 H2746 0.984 . S
N2741 H2747 0.985 . S
C2742 C2736 1.379 . S
C2742 C2739 1.363 . S
C2742 N2740 1.356 . S
C2743 C2737 1.363 . S
C2743 C2738 1.379 . S
C2743 N2741 1.356 . S
N2744 C2736 1.356 . S
N2744 H2750 0.984 . S
N2744 H2751 0.984 . S
N2745 C2738 1.356 . S
N2745 H2748 0.984 . S
N2745 H2749 0.985 . S
H2746 N2741 0.984 . S
H2747 N2741 0.985 . S
H2748 N2745 0.984 . S
H2749 N2745 0.985 . S
H2750 N2744 0.984 . S
H2751 N2744 0.984 . S
H2752 N2740 0.984 . S
H2753 N2740 0.985 . S
C2754 C2755 1.363 . S
C2754 C2760 1.379 . S
C2754 N2762 1.356 . S
C2755 C2754 1.363 . S
C2755 C2761 1.363 . S
C2756 C2757 1.363 . S
C2756 C2761 1.379 . S
C2756 N2763 1.356 . S
C2757 C2756 1.363 . S
C2757 C2760 1.363 . S
N2758 C2760 1.356 . S
N2758 H2770 0.984 . S
N2758 H2771 0.985 . S
N2759 C2761 1.356 . S
N2759 H2764 0.984 . S
N2759 H2765 0.985 . S
C2760 C2754 1.379 . S
C2760 C2757 1.363 . S
C2760 N2758 1.356 . S
C2761 C2755 1.363 . S
C2761 C2756 1.379 . S
C2761 N2759 1.356 . S
N2762 C2754 1.356 . S
N2762 H2768 0.984 . S
N2762 H2769 0.984 . S
N2763 C2756 1.356 . S
N2763 H2766 0.984 . S
N2763 H2767 0.985 . S
H2764 N2759 0.984 . S
H2765 N2759 0.985 . S
H2766 N2763 0.984 . S
H2767 N2763 0.985 . S
H2768 N2762 0.984 . S
H2769 N2762 0.984 . S
H2770 N2758 0.984 . S
H2771 N2758 0.985 . S
C2772 C2773 1.363 . S
C2772 C2778 1.379 . S
C2772 N2780 1.356 . S
C2773 C2772 1.363 . S
C2773 C2779 1.363 . S
C2774 C2775 1.363 . S
C2774 C2779 1.379 . S
C2774 N2781 1.356 . S
C2775 C2774 1.363 . S
C2775 C2778 1.363 . S
N2776 C2778 1.356 . S
N2776 H2788 0.984 . S
N2776 H2789 0.985 . S
N2777 C2779 1.356 . S
N2777 H2782 0.984 . S
N2777 H2783 0.985 . S
C2778 C2772 1.379 . S
C2778 C2775 1.363 . S
C2778 N2776 1.356 . S
C2779 C2773 1.363 . S
C2779 C2774 1.379 . S
C2779 N2777 1.356 . S
N2780 C2772 1.356 . S
N2780 H2786 0.984 . S
N2780 H2787 0.984 . S
N2781 C2774 1.356 . S
N2781 H2784 0.984 . S
N2781 H2785 0.985 . S
H2782 N2777 0.984 . S
H2783 N2777 0.985 . S
H2784 N2781 0.984 . S
H2785 N2781 0.985 . S
H2786 N2780 0.984 . S
H2787 N2780 0.984 . S
H2788 N2776 0.984 . S
H2789 N2776 0.985 . S
C2790 C2791 1.363 . S
C2790 C2796 1.379 . S
C2790 N2798 1.356 . S
C2791 C2790 1.363 . S
C2791 C2797 1.363 . S
C2792 C2793 1.363 . S
C2792 C2797 1.379 . S
C2792 N2799 1.356 . S
C2793 C2792 1.363 . S
C2793 C2796 1.363 . S
N2794 C2796 1.356 . S
N2794 H2806 0.984 . S
N2794 H2807 0.985 . S
N2795 C2797 1.356 . S
N2795 H2800 0.984 . S
N2795 H2801 0.985 . S
C2796 C2790 1.379 . S
C2796 C2793 1.363 . S
C2796 N2794 1.356 . S
C2797 C2791 1.363 . S
C2797 C2792 1.379 . S
C2797 N2795 1.356 . S
N2798 C2790 1.356 . S
N2798 H2804 0.984 . S
N2798 H2805 0.984 . S
N2799 C2792 1.356 . S
N2799 H2802 0.984 . S
N2799 H2803 0.985 . S
H2800 N2795 0.984 . S
H2801 N2795 0.985 . S
H2802 N2799 0.984 . S
H2803 N2799 0.985 . S
H2804 N2798 0.984 . S
H2805 N2798 0.984 . S
H2806 N2794 0.984 . S
H2807 N2794 0.985 . S
C2808 C2809 1.363 . S
C2808 C2814 1.379 . S
C2808 N2816 1.356 . S
C2809 C2808 1.363 . S
C2809 C2815 1.363 . S
C2810 C2811 1.363 . S
C2810 C2815 1.379 . S
C2810 N2817 1.356 . S
C2811 C2810 1.363 . S
C2811 C2814 1.363 . S
N2812 C2814 1.356 . S
N2812 H2824 0.984 . S
N2812 H2825 0.985 . S
N2813 C2815 1.356 . S
N2813 H2818 0.984 . S
N2813 H2819 0.985 . S
C2814 C2808 1.379 . S
C2814 C2811 1.363 . S
C2814 N2812 1.356 . S
C2815 C2809 1.363 . S
C2815 C2810 1.379 . S
C2815 N2813 1.356 . S
N2816 C2808 1.356 . S
N2816 H2822 0.984 . S
N2816 H2823 0.984 . S
N2817 C2810 1.356 . S
N2817 H2820 0.984 . S
N2817 H2821 0.985 . S
H2818 N2813 0.984 . S
H2819 N2813 0.985 . S
H2820 N2817 0.984 . S
H2821 N2817 0.985 . S
H2822 N2816 0.984 . S
H2823 N2816 0.984 . S
H2824 N2812 0.984 . S
H2825 N2812 0.985 . S
C2826 C2827 1.363 . S
C2826 C2832 1.379 . S
C2826 N2834 1.356 . S
C2827 C2826 1.363 . S
C2827 C2833 1.363 . S
C2828 C2829 1.363 . S
C2828 C2833 1.379 . S
C2828 N2835 1.356 . S
C2829 C2828 1.363 . S
C2829 C2832 1.363 . S
N2830 C2832 1.356 . S
N2830 H2842 0.984 . S
N2830 H2843 0.985 . S
N2831 C2833 1.356 . S
N2831 H2836 0.984 . S
N2831 H2837 0.985 . S
C2832 C2826 1.379 . S
C2832 C2829 1.363 . S
C2832 N2830 1.356 . S
C2833 C2827 1.363 . S
C2833 C2828 1.379 . S
C2833 N2831 1.356 . S
N2834 C2826 1.356 . S
N2834 H2840 0.984 . S
N2834 H2841 0.984 . S
N2835 C2828 1.356 . S
N2835 H2838 0.984 . S
N2835 H2839 0.985 . S
H2836 N2831 0.984 . S
H2837 N2831 0.985 . S
H2838 N2835 0.984 . S
H2839 N2835 0.985 . S
H2840 N2834 0.984 . S
H2841 N2834 0.984 . S
H2842 N2830 0.984 . S
H2843 N2830 0.985 . S
C2844 C2845 1.363 . S
C2844 C2850 1.379 . S
C2844 N2852 1.356 . S
C2845 C2844 1.363 . S
C2845 C2851 1.363 . S
C2846 C2847 1.363 . S
C2846 C2851 1.379 . S
C2846 N2853 1.356 . S
C2847 C2846 1.363 . S
C2847 C2850 1.363 . S
N2848 C2850 1.356 . S
N2848 H2860 0.984 . S
N2848 H2861 0.985 . S
N2849 C2851 1.356 . S
N2849 H2854 0.984 . S
N2849 H2855 0.985 . S
C2850 C2844 1.379 . S
C2850 C2847 1.363 . S
C2850 N2848 1.356 . S
C2851 C2845 1.363 . S
C2851 C2846 1.379 . S
C2851 N2849 1.356 . S
N2852 C2844 1.356 . S
N2852 H2858 0.984 . S
N2852 H2859 0.984 . S
N2853 C2846 1.356 . S
N2853 H2856 0.984 . S
N2853 H2857 0.985 . S
H2854 N2849 0.984 . S
H2855 N2849 0.985 . S
H2856 N2853 0.984 . S
H2857 N2853 0.985 . S
H2858 N2852 0.984 . S
H2859 N2852 0.984 . S
H2860 N2848 0.984 . S
H2861 N2848 0.985 . S
C2862 C2863 1.363 . S
C2862 C2868 1.379 . S
C2862 N2870 1.356 . S
C2863 C2862 1.363 . S
C2863 C2869 1.363 . S
C2864 C2865 1.363 . S
C2864 C2869 1.379 . S
C2864 N2871 1.356 . S
C2865 C2864 1.363 . S
C2865 C2868 1.363 . S
N2866 C2868 1.356 . S
N2866 H2878 0.984 . S
N2866 H2879 0.985 . S
N2867 C2869 1.356 . S
N2867 H2872 0.984 . S
N2867 H2873 0.985 . S
C2868 C2862 1.379 . S
C2868 C2865 1.363 . S
C2868 N2866 1.356 . S
C2869 C2863 1.363 . S
C2869 C2864 1.379 . S
C2869 N2867 1.356 . S
N2870 C2862 1.356 . S
N2870 H2876 0.984 . S
N2870 H2877 0.984 . S
N2871 C2864 1.356 . S
N2871 H2874 0.984 . S
N2871 H2875 0.985 . S
H2872 N2867 0.984 . S
H2873 N2867 0.985 . S
H2874 N2871 0.984 . S
H2875 N2871 0.985 . S
H2876 N2870 0.984 . S
H2877 N2870 0.984 . S
H2878 N2866 0.984 . S
H2879 N2866 0.985 . S
C2880 C2881 1.363 . S
C2880 C2886 1.379 . S
C2880 N2888 1.356 . S
C2881 C2880 1.363 . S
C2881 C2887 1.363 . S
C2882 C2883 1.363 . S
C2882 C2887 1.379 . S
C2882 N2889 1.356 . S
C2883 C2882 1.363 . S
C2883 C2886 1.363 . S
N2884 C2886 1.356 . S
N2884 H2896 0.984 . S
N2884 H2897 0.985 . S
N2885 C2887 1.356 . S
N2885 H2890 0.984 . S
N2885 H2891 0.985 . S
C2886 C2880 1.379 . S
C2886 C2883 1.363 . S
C2886 N2884 1.356 . S
C2887 C2881 1.363 . S
C2887 C2882 1.379 . S
C2887 N2885 1.356 . S
N2888 C2880 1.356 . S
N2888 H2894 0.984 . S
N2888 H2895 0.984 . S
N2889 C2882 1.356 . S
N2889 H2892 0.984 . S
N2889 H2893 0.985 . S
H2890 N2885 0.984 . S
H2891 N2885 0.985 . S
H2892 N2889 0.984 . S
H2893 N2889 0.985 . S
H2894 N2888 0.984 . S
H2895 N2888 0.984 . S
H2896 N2884 0.984 . S
H2897 N2884 0.985 . S
C2898 C2899 1.363 . S
C2898 C2904 1.379 . S
C2898 N2906 1.356 . S
C2899 C2898 1.363 . S
C2899 C2905 1.363 . S
C2900 C2901 1.363 . S
C2900 C2905 1.379 . S
C2900 N2907 1.356 . S
C2901 C2900 1.363 . S
C2901 C2904 1.363 . S
N2902 C2904 1.356 . S
N2902 H2914 0.984 . S
N2902 H2915 0.985 . S
N2903 C2905 1.356 . S
N2903 H2908 0.984 . S
N2903 H2909 0.985 . S
C2904 C2898 1.379 . S
C2904 C2901 1.363 . S
C2904 N2902 1.356 . S
C2905 C2899 1.363 . S
C2905 C2900 1.379 . S
C2905 N2903 1.356 . S
N2906 C2898 1.356 . S
N2906 H2912 0.984 . S
N2906 H2913 0.984 . S
N2907 C2900 1.356 . S
N2907 H2910 0.984 . S
N2907 H2911 0.985 . S
H2908 N2903 0.984 . S
H2909 N2903 0.985 . S
H2910 N2907 0.984 . S
H2911 N2907 0.985 . S
H2912 N2906 0.984 . S
H2913 N2906 0.984 . S
H2914 N2902 0.984 . S
H2915 N2902 0.985 . S
C2916 C2917 1.363 . S
C2916 C2922 1.379 . S
C2916 N2924 1.356 . S
C2917 C2916 1.363 . S
C2917 C2923 1.363 . S
C2918 C2919 1.363 . S
C2918 C2923 1.379 . S
C2918 N2925 1.356 . S
C2919 C2918 1.363 . S
C2919 C2922 1.363 . S
N2920 C2922 1.356 . S
N2920 H2932 0.984 . S
N2920 H2933 0.985 . S
N2921 C2923 1.356 . S
N2921 H2926 0.984 . S
N2921 H2927 0.985 . S
C2922 C2916 1.379 . S
C2922 C2919 1.363 . S
C2922 N2920 1.356 . S
C2923 C2917 1.363 . S
C2923 C2918 1.379 . S
C2923 N2921 1.356 . S
N2924 C2916 1.356 . S
N2924 H2930 0.984 . S
N2924 H2931 0.984 . S
N2925 C2918 1.356 . S
N2925 H2928 0.984 . S
N2925 H2929 0.985 . S
H2926 N2921 0.984 . S
H2927 N2921 0.985 . S
H2928 N2925 0.984 . S
H2929 N2925 0.985 . S
H2930 N2924 0.984 . S
H2931 N2924 0.984 . S
H2932 N2920 0.984 . S
H2933 N2920 0.985 . S
C2934 C2935 1.363 . S
C2934 C2940 1.379 . S
C2934 N2942 1.356 . S
C2935 C2934 1.363 . S
C2935 C2941 1.363 . S
C2936 C2937 1.363 . S
C2936 C2941 1.379 . S
C2936 N2943 1.356 . S
C2937 C2936 1.363 . S
C2937 C2940 1.363 . S
N2938 C2940 1.356 . S
N2938 H2950 0.984 . S
N2938 H2951 0.985 . S
N2939 C2941 1.356 . S
N2939 H2944 0.984 . S
N2939 H2945 0.985 . S
C2940 C2934 1.379 . S
C2940 C2937 1.363 . S
C2940 N2938 1.356 . S
C2941 C2935 1.363 . S
C2941 C2936 1.379 . S
C2941 N2939 1.356 . S
N2942 C2934 1.356 . S
N2942 H2948 0.984 . S
N2942 H2949 0.984 . S
N2943 C2936 1.356 . S
N2943 H2946 0.984 . S
N2943 H2947 0.985 . S
H2944 N2939 0.984 . S
H2945 N2939 0.985 . S
H2946 N2943 0.984 . S
H2947 N2943 0.985 . S
H2948 N2942 0.984 . S
H2949 N2942 0.984 . S
H2950 N2938 0.984 . S
H2951 N2938 0.985 . S
C2952 C2953 1.363 . S
C2952 C2958 1.379 . S
C2952 N2960 1.356 . S
C2953 C2952 1.363 . S
C2953 C2959 1.363 . S
C2954 C2955 1.363 . S
C2954 C2959 1.379 . S
C2954 N2961 1.356 . S
C2955 C2954 1.363 . S
C2955 C2958 1.363 . S
N2956 C2958 1.356 . S
N2956 H2968 0.984 . S
N2956 H2969 0.985 . S
N2957 C2959 1.356 . S
N2957 H2962 0.984 . S
N2957 H2963 0.985 . S
C2958 C2952 1.379 . S
C2958 C2955 1.363 . S
C2958 N2956 1.356 . S
C2959 C2953 1.363 . S
C2959 C2954 1.379 . S
C2959 N2957 1.356 . S
N2960 C2952 1.356 . S
N2960 H2966 0.984 . S
N2960 H2967 0.984 . S
N2961 C2954 1.356 . S
N2961 H2964 0.984 . S
N2961 H2965 0.985 . S
H2962 N2957 0.984 . S
H2963 N2957 0.985 . S
H2964 N2961 0.984 . S
H2965 N2961 0.985 . S
H2966 N2960 0.984 . S
H2967 N2960 0.984 . S
H2968 N2956 0.984 . S
H2969 N2956 0.985 . S
C2970 C2971 1.363 . S
C2970 C2976 1.379 . S
C2970 N2978 1.356 . S
C2971 C2970 1.363 . S
C2971 C2977 1.363 . S
C2972 C2973 1.363 . S
C2972 C2977 1.379 . S
C2972 N2979 1.356 . S
C2973 C2972 1.363 . S
C2973 C2976 1.363 . S
N2974 C2976 1.356 . S
N2974 H2986 0.984 . S
N2974 H2987 0.985 . S
N2975 C2977 1.356 . S
N2975 H2980 0.984 . S
N2975 H2981 0.985 . S
C2976 C2970 1.379 . S
C2976 C2973 1.363 . S
C2976 N2974 1.356 . S
C2977 C2971 1.363 . S
C2977 C2972 1.379 . S
C2977 N2975 1.356 . S
N2978 C2970 1.356 . S
N2978 H2984 0.984 . S
N2978 H2985 0.984 . S
N2979 C2972 1.356 . S
N2979 H2982 0.984 . S
N2979 H2983 0.985 . S
H2980 N2975 0.984 . S
H2981 N2975 0.985 . S
H2982 N2979 0.984 . S
H2983 N2979 0.985 . S
H2984 N2978 0.984 . S
H2985 N2978 0.984 . S
H2986 N2974 0.984 . S
H2987 N2974 0.985 . S
C2988 C2989 1.363 . S
C2988 C2994 1.379 . S
C2988 N2996 1.356 . S
C2989 C2988 1.363 . S
C2989 C2995 1.363 . S
C2990 C2991 1.363 . S
C2990 C2995 1.379 . S
C2990 N2997 1.356 . S
C2991 C2990 1.363 . S
C2991 C2994 1.363 . S
N2992 C2994 1.356 . S
N2992 H3004 0.984 . S
N2992 H3005 0.985 . S
N2993 C2995 1.356 . S
N2993 H2998 0.984 . S
N2993 H2999 0.985 . S
C2994 C2988 1.379 . S
C2994 C2991 1.363 . S
C2994 N2992 1.356 . S
C2995 C2989 1.363 . S
C2995 C2990 1.379 . S
C2995 N2993 1.356 . S
N2996 C2988 1.356 . S
N2996 H3002 0.984 . S
N2996 H3003 0.984 . S
N2997 C2990 1.356 . S
N2997 H3000 0.984 . S
N2997 H3001 0.985 . S
H2998 N2993 0.984 . S
H2999 N2993 0.985 . S
H3000 N2997 0.984 . S
H3001 N2997 0.985 . S
H3002 N2996 0.984 . S
H3003 N2996 0.984 . S
H3004 N2992 0.984 . S
H3005 N2992 0.985 . S
C3006 C3007 1.363 . S
C3006 C3012 1.379 . S
C3006 N3014 1.356 . S
C3007 C3006 1.363 . S
C3007 C3013 1.363 . S
C3008 C3009 1.363 . S
C3008 C3013 1.379 . S
C3008 N3015 1.356 . S
C3009 C3008 1.363 . S
C3009 C3012 1.363 . S
N3010 C3012 1.356 . S
N3010 H3022 0.984 . S
N3010 H3023 0.985 . S
N3011 C3013 1.356 . S
N3011 H3016 0.984 . S
N3011 H3017 0.985 . S
C3012 C3006 1.379 . S
C3012 C3009 1.363 . S
C3012 N3010 1.356 . S
C3013 C3007 1.363 . S
C3013 C3008 1.379 . S
C3013 N3011 1.356 . S
N3014 C3006 1.356 . S
N3014 H3020 0.984 . S
N3014 H3021 0.984 . S
N3015 C3008 1.356 . S
N3015 H3018 0.984 . S
N3015 H3019 0.985 . S
H3016 N3011 0.984 . S
H3017 N3011 0.985 . S
H3018 N3015 0.984 . S
H3019 N3015 0.985 . S
H3020 N3014 0.984 . S
H3021 N3014 0.984 . S
H3022 N3010 0.984 . S
H3023 N3010 0.985 . S
C3024 C3025 1.363 . S
C3024 C3030 1.379 . S
C3024 N3032 1.356 . S
C3025 C3024 1.363 . S
C3025 C3031 1.363 . S
C3026 C3027 1.363 . S
C3026 C3031 1.379 . S
C3026 N3033 1.356 . S
C3027 C3026 1.363 . S
C3027 C3030 1.363 . S
N3028 C3030 1.356 . S
N3028 H3040 0.984 . S
N3028 H3041 0.985 . S
N3029 C3031 1.356 . S
N3029 H3034 0.984 . S
N3029 H3035 0.985 . S
C3030 C3024 1.379 . S
C3030 C3027 1.363 . S
C3030 N3028 1.356 . S
C3031 C3025 1.363 . S
C3031 C3026 1.379 . S
C3031 N3029 1.356 . S
N3032 C3024 1.356 . S
N3032 H3038 0.984 . S
N3032 H3039 0.984 . S
N3033 C3026 1.356 . S
N3033 H3036 0.984 . S
N3033 H3037 0.985 . S
H3034 N3029 0.984 . S
H3035 N3029 0.985 . S
H3036 N3033 0.984 . S
H3037 N3033 0.985 . S
H3038 N3032 0.984 . S
H3039 N3032 0.984 . S
H3040 N3028 0.984 . S
H3041 N3028 0.985 . S
C3042 C3043 1.363 . S
C3042 C3048 1.379 . S
C3042 N3050 1.356 . S
C3043 C3042 1.363 . S
C3043 C3049 1.363 . S
C3044 C3045 1.363 . S
C3044 C3049 1.379 . S
C3044 N3051 1.356 . S
C3045 C3044 1.363 . S
C3045 C3048 1.363 . S
N3046 C3048 1.356 . S
N3046 H3058 0.984 . S
N3046 H3059 0.985 . S
N3047 C3049 1.356 . S
N3047 H3052 0.984 . S
N3047 H3053 0.985 . S
C3048 C3042 1.379 . S
C3048 C3045 1.363 . S
C3048 N3046 1.356 . S
C3049 C3043 1.363 . S
C3049 C3044 1.379 . S
C3049 N3047 1.356 . S
N3050 C3042 1.356 . S
N3050 H3056 0.984 . S
N3050 H3057 0.984 . S
N3051 C3044 1.356 . S
N3051 H3054 0.984 . S
N3051 H3055 0.985 . S
H3052 N3047 0.984 . S
H3053 N3047 0.985 . S
H3054 N3051 0.984 . S
H3055 N3051 0.985 . S
H3056 N3050 0.984 . S
H3057 N3050 0.984 . S
H3058 N3046 0.984 . S
H3059 N3046 0.985 . S
C3060 C3061 1.363 . S
C3060 C3066 1.379 . S
C3060 N3068 1.356 . S
C3061 C3060 1.363 . S
C3061 C3067 1.363 . S
C3062 C3063 1.363 . S
C3062 C3067 1.379 . S
C3062 N3069 1.356 . S
C3063 C3062 1.363 . S
C3063 C3066 1.363 . S
N3064 C3066 1.356 . S
N3064 H3076 0.984 . S
N3064 H3077 0.985 . S
N3065 C3067 1.356 . S
N3065 H3070 0.984 . S
N3065 H3071 0.985 . S
C3066 C3060 1.379 . S
C3066 C3063 1.363 . S
C3066 N3064 1.356 . S
C3067 C3061 1.363 . S
C3067 C3062 1.379 . S
C3067 N3065 1.356 . S
N3068 C3060 1.356 . S
N3068 H3074 0.984 . S
N3068 H3075 0.984 . S
N3069 C3062 1.356 . S
N3069 H3072 0.984 . S
N3069 H3073 0.985 . S
H3070 N3065 0.984 . S
H3071 N3065 0.985 . S
H3072 N3069 0.984 . S
H3073 N3069 0.985 . S
H3074 N3068 0.984 . S
H3075 N3068 0.984 . S
H3076 N3064 0.984 . S
H3077 N3064 0.985 . S
C3078 C3079 1.363 . S
C3078 C3084 1.379 . S
C3078 N3086 1.356 . S
C3079 C3078 1.363 . S
C3079 C3085 1.363 . S
C3080 C3081 1.363 . S
C3080 C3085 1.379 . S
C3080 N3087 1.356 . S
C3081 C3080 1.363 . S
C3081 C3084 1.363 . S
N3082 C3084 1.356 . S
N3082 H3094 0.984 . S
N3082 H3095 0.985 . S
N3083 C3085 1.356 . S
N3083 H3088 0.984 . S
N3083 H3089 0.985 . S
C3084 C3078 1.379 . S
C3084 C3081 1.363 . S
C3084 N3082 1.356 . S
C3085 C3079 1.363 . S
C3085 C3080 1.379 . S
C3085 N3083 1.356 . S
N3086 C3078 1.356 . S
N3086 H3092 0.984 . S
N3086 H3093 0.984 . S
N3087 C3080 1.356 . S
N3087 H3090 0.984 . S
N3087 H3091 0.985 . S
H3088 N3083 0.984 . S
H3089 N3083 0.985 . S
H3090 N3087 0.984 . S
H3091 N3087 0.985 . S
H3092 N3086 0.984 . S
H3093 N3086 0.984 . S
H3094 N3082 0.984 . S
H3095 N3082 0.985 . S
C3096 C3097 1.363 . S
C3096 C3102 1.379 . S
C3096 N3104 1.356 . S
C3097 C3096 1.363 . S
C3097 C3103 1.363 . S
C3098 C3099 1.363 . S
C3098 C3103 1.379 . S
C3098 N3105 1.356 . S
C3099 C3098 1.363 . S
C3099 C3102 1.363 . S
N3100 C3102 1.356 . S
N3100 H3112 0.984 . S
N3100 H3113 0.985 . S
N3101 C3103 1.356 . S
N3101 H3106 0.984 . S
N3101 H3107 0.985 . S
C3102 C3096 1.379 . S
C3102 C3099 1.363 . S
C3102 N3100 1.356 . S
C3103 C3097 1.363 . S
C3103 C3098 1.379 . S
C3103 N3101 1.356 . S
N3104 C3096 1.356 . S
N3104 H3110 0.984 . S
N3104 H3111 0.984 . S
N3105 C3098 1.356 . S
N3105 H3108 0.984 . S
N3105 H3109 0.985 . S
H3106 N3101 0.984 . S
H3107 N3101 0.985 . S
H3108 N3105 0.984 . S
H3109 N3105 0.985 . S
H3110 N3104 0.984 . S
H3111 N3104 0.984 . S
H3112 N3100 0.984 . S
H3113 N3100 0.985 . S
C3114 C3115 1.363 . S
C3114 C3120 1.379 . S
C3114 N3122 1.356 . S
C3115 C3114 1.363 . S
C3115 C3121 1.363 . S
C3116 C3117 1.363 . S
C3116 C3121 1.379 . S
C3116 N3123 1.356 . S
C3117 C3116 1.363 . S
C3117 C3120 1.363 . S
N3118 C3120 1.356 . S
N3118 H3130 0.984 . S
N3118 H3131 0.985 . S
N3119 C3121 1.356 . S
N3119 H3124 0.984 . S
N3119 H3125 0.985 . S
C3120 C3114 1.379 . S
C3120 C3117 1.363 . S
C3120 N3118 1.356 . S
C3121 C3115 1.363 . S
C3121 C3116 1.379 . S
C3121 N3119 1.356 . S
N3122 C3114 1.356 . S
N3122 H3128 0.984 1_556 S
N3122 H3129 0.984 . S
N3123 C3116 1.356 . S
N3123 H3126 0.984 . S
N3123 H3127 0.985 . S
H3124 N3119 0.984 . S
H3125 N3119 0.985 . S
H3126 N3123 0.984 . S
H3127 N3123 0.985 . S
H3128 N3122 0.984 1_554 S
H3129 N3122 0.984 . S
H3130 N3118 0.984 . S
H3131 N3118 0.985 . S
C3132 C3133 1.363 . S
C3132 C3138 1.379 . S
C3132 N3140 1.356 . S
C3133 C3132 1.363 . S
C3133 C3139 1.363 . S
C3134 C3135 1.363 . S
C3134 C3139 1.379 . S
C3134 N3141 1.356 . S
C3135 C3134 1.363 . S
C3135 C3138 1.363 . S
N3136 C3138 1.356 . S
N3136 H3148 0.984 . S
N3136 H3149 0.985 . S
N3137 C3139 1.356 . S
N3137 H3142 0.984 . S
N3137 H3143 0.985 1_556 S
C3138 C3132 1.379 . S
C3138 C3135 1.363 . S
C3138 N3136 1.356 . S
C3139 C3133 1.363 . S
C3139 C3134 1.379 . S
C3139 N3137 1.356 . S
N3140 C3132 1.356 . S
N3140 H3146 0.984 . S
N3140 H3147 0.984 . S
N3141 C3134 1.356 . S
N3141 H3144 0.984 . S
N3141 H3145 0.985 . S
H3142 N3137 0.984 . S
H3143 N3137 0.985 1_554 S
H3144 N3141 0.984 . S
H3145 N3141 0.985 . S
H3146 N3140 0.984 . S
H3147 N3140 0.984 . S
H3148 N3136 0.984 . S
H3149 N3136 0.985 . S
C3150 C3151 1.363 . S
C3150 C3156 1.379 . S
C3150 N3158 1.356 . S
C3151 C3150 1.363 . S
C3151 C3157 1.363 . S
C3152 C3153 1.363 . S
C3152 C3157 1.379 . S
C3152 N3159 1.356 . S
C3153 C3152 1.363 . S
C3153 C3156 1.363 . S
N3154 C3156 1.356 . S
N3154 H3166 0.984 . S
N3154 H3167 0.985 . S
N3155 C3157 1.356 . S
N3155 H3160 0.984 . S
N3155 H3161 0.985 . S
C3156 C3150 1.379 . S
C3156 C3153 1.363 . S
C3156 N3154 1.356 . S
C3157 C3151 1.363 . S
C3157 C3152 1.379 . S
C3157 N3155 1.356 . S
N3158 C3150 1.356 . S
N3158 H3164 0.984 . S
N3158 H3165 0.984 . S
N3159 C3152 1.356 . S
N3159 H3162 0.984 . S
N3159 H3163 0.985 . S
H3160 N3155 0.984 . S
H3161 N3155 0.985 . S
H3162 N3159 0.984 . S
H3163 N3159 0.985 . S
H3164 N3158 0.984 . S
H3165 N3158 0.984 . S
H3166 N3154 0.984 . S
H3167 N3154 0.985 . S
C3168 C3169 1.363 . S
C3168 C3174 1.379 . S
C3168 N3176 1.356 . S
C3169 C3168 1.363 . S
C3169 C3175 1.363 . S
C3170 C3171 1.363 . S
C3170 C3175 1.379 . S
C3170 N3177 1.356 . S
C3171 C3170 1.363 . S
C3171 C3174 1.363 . S
N3172 C3174 1.356 . S
N3172 H3184 0.984 . S
N3172 H3185 0.985 . S
N3173 C3175 1.356 . S
N3173 H3178 0.984 . S
N3173 H3179 0.985 . S
C3174 C3168 1.379 . S
C3174 C3171 1.363 . S
C3174 N3172 1.356 . S
C3175 C3169 1.363 . S
C3175 C3170 1.379 . S
C3175 N3173 1.356 . S
N3176 C3168 1.356 . S
N3176 H3182 0.984 1_556 S
N3176 H3183 0.984 . S
N3177 C3170 1.356 . S
N3177 H3180 0.984 . S
N3177 H3181 0.985 . S
H3178 N3173 0.984 . S
H3179 N3173 0.985 . S
H3180 N3177 0.984 . S
H3181 N3177 0.985 . S
H3182 N3176 0.984 1_554 S
H3183 N3176 0.984 . S
H3184 N3172 0.984 . S
H3185 N3172 0.985 . S
C3186 C3187 1.363 . S
C3186 C3192 1.379 . S
C3186 N3194 1.356 . S
C3187 C3186 1.363 . S
C3187 C3193 1.363 . S
C3188 C3189 1.363 . S
C3188 C3193 1.379 . S
C3188 N3195 1.356 . S
C3189 C3188 1.363 . S
C3189 C3192 1.363 . S
N3190 C3192 1.356 . S
N3190 H3202 0.984 . S
N3190 H3203 0.985 . S
N3191 C3193 1.356 . S
N3191 H3196 0.984 . S
N3191 H3197 0.985 . S
C3192 C3186 1.379 . S
C3192 C3189 1.363 . S
C3192 N3190 1.356 . S
C3193 C3187 1.363 . S
C3193 C3188 1.379 . S
C3193 N3191 1.356 . S
N3194 C3186 1.356 . S
N3194 H3200 0.984 . S
N3194 H3201 0.984 . S
N3195 C3188 1.356 . S
N3195 H3198 0.984 . S
N3195 H3199 0.985 . S
H3196 N3191 0.984 . S
H3197 N3191 0.985 . S
H3198 N3195 0.984 . S
H3199 N3195 0.985 . S
H3200 N3194 0.984 . S
H3201 N3194 0.984 . S
H3202 N3190 0.984 . S
H3203 N3190 0.985 . S
C3204 C3205 1.363 . S
C3204 C3210 1.379 . S
C3204 N3212 1.356 . S
C3205 C3204 1.363 . S
C3205 C3211 1.363 . S
C3206 C3207 1.363 . S
C3206 C3211 1.379 . S
C3206 N3213 1.356 . S
C3207 C3206 1.363 . S
C3207 C3210 1.363 . S
N3208 C3210 1.356 . S
N3208 H3220 0.984 . S
N3208 H3221 0.985 . S
N3209 C3211 1.356 . S
N3209 H3214 0.984 . S
N3209 H3215 0.985 . S
C3210 C3204 1.379 . S
C3210 C3207 1.363 . S
C3210 N3208 1.356 . S
C3211 C3205 1.363 . S
C3211 C3206 1.379 . S
C3211 N3209 1.356 . S
N3212 C3204 1.356 . S
N3212 H3218 0.984 . S
N3212 H3219 0.984 . S
N3213 C3206 1.356 . S
N3213 H3216 0.984 . S
N3213 H3217 0.985 . S
H3214 N3209 0.984 . S
H3215 N3209 0.985 . S
H3216 N3213 0.984 . S
H3217 N3213 0.985 . S
H3218 N3212 0.984 . S
H3219 N3212 0.984 . S
H3220 N3208 0.984 . S
H3221 N3208 0.985 . S
C3222 C3223 1.363 . S
C3222 C3228 1.379 . S
C3222 N3230 1.356 . S
C3223 C3222 1.363 . S
C3223 C3229 1.363 . S
C3224 C3225 1.363 . S
C3224 C3229 1.379 . S
C3224 N3231 1.356 . S
C3225 C3224 1.363 . S
C3225 C3228 1.363 . S
N3226 C3228 1.356 . S
N3226 H3238 0.984 . S
N3226 H3239 0.985 . S
N3227 C3229 1.356 . S
N3227 H3232 0.984 . S
N3227 H3233 0.985 . S
C3228 C3222 1.379 . S
C3228 C3225 1.363 . S
C3228 N3226 1.356 . S
C3229 C3223 1.363 . S
C3229 C3224 1.379 . S
C3229 N3227 1.356 . S
N3230 C3222 1.356 . S
N3230 H3236 0.984 . S
N3230 H3237 0.984 . S
N3231 C3224 1.356 . S
N3231 H3234 0.984 . S
N3231 H3235 0.985 . S
H3232 N3227 0.984 . S
H3233 N3227 0.985 . S
H3234 N3231 0.984 . S
H3235 N3231 0.985 . S
H3236 N3230 0.984 . S
H3237 N3230 0.984 . S
H3238 N3226 0.984 . S
H3239 N3226 0.985 . S
C3240 C3241 1.363 . S
C3240 C3246 1.379 . S
C3240 N3248 1.356 . S
C3241 C3240 1.363 . S
C3241 C3247 1.363 . S
C3242 C3243 1.363 . S
C3242 C3247 1.379 . S
C3242 N3249 1.356 . S
C3243 C3242 1.363 . S
C3243 C3246 1.363 . S
N3244 C3246 1.356 . S
N3244 H3256 0.984 . S
N3244 H3257 0.985 . S
N3245 C3247 1.356 . S
N3245 H3250 0.984 . S
N3245 H3251 0.985 . S
C3246 C3240 1.379 . S
C3246 C3243 1.363 . S
C3246 N3244 1.356 . S
C3247 C3241 1.363 . S
C3247 C3242 1.379 . S
C3247 N3245 1.356 . S
N3248 C3240 1.356 . S
N3248 H3254 0.984 . S
N3248 H3255 0.984 . S
N3249 C3242 1.356 . S
N3249 H3252 0.984 . S
N3249 H3253 0.985 . S
H3250 N3245 0.984 . S
H3251 N3245 0.985 . S
H3252 N3249 0.984 . S
H3253 N3249 0.985 . S
H3254 N3248 0.984 . S
H3255 N3248 0.984 . S
H3256 N3244 0.984 . S
H3257 N3244 0.985 . S
C3258 C3259 1.363 . S
C3258 C3264 1.379 . S
C3258 N3266 1.356 . S
C3259 C3258 1.363 . S
C3259 C3265 1.363 . S
C3260 C3261 1.363 . S
C3260 C3265 1.379 . S
C3260 N3267 1.356 . S
C3261 C3260 1.363 . S
C3261 C3264 1.363 . S
N3262 C3264 1.356 . S
N3262 H3274 0.984 . S
N3262 H3275 0.985 . S
N3263 C3265 1.356 . S
N3263 H3268 0.984 . S
N3263 H3269 0.985 . S
C3264 C3258 1.379 . S
C3264 C3261 1.363 . S
C3264 N3262 1.356 . S
C3265 C3259 1.363 . S
C3265 C3260 1.379 . S
C3265 N3263 1.356 . S
N3266 C3258 1.356 . S
N3266 H3272 0.984 . S
N3266 H3273 0.984 . S
N3267 C3260 1.356 . S
N3267 H3270 0.984 . S
N3267 H3271 0.985 . S
H3268 N3263 0.984 . S
H3269 N3263 0.985 . S
H3270 N3267 0.984 . S
H3271 N3267 0.985 . S
H3272 N3266 0.984 . S
H3273 N3266 0.984 . S
H3274 N3262 0.984 . S
H3275 N3262 0.985 . S
C3276 C3277 1.363 . S
C3276 C3282 1.379 . S
C3276 N3284 1.356 . S
C3277 C3276 1.363 . S
C3277 C3283 1.363 . S
C3278 C3279 1.363 . S
C3278 C3283 1.379 . S
C3278 N3285 1.356 . S
C3279 C3278 1.363 . S
C3279 C3282 1.363 . S
N3280 C3282 1.356 . S
N3280 H3292 0.984 . S
N3280 H3293 0.985 . S
N3281 C3283 1.356 . S
N3281 H3286 0.984 . S
N3281 H3287 0.985 . S
C3282 C3276 1.379 . S
C3282 C3279 1.363 . S
C3282 N3280 1.356 . S
C3283 C3277 1.363 . S
C3283 C3278 1.379 . S
C3283 N3281 1.356 . S
N3284 C3276 1.356 . S
N3284 H3290 0.984 . S
N3284 H3291 0.984 . S
N3285 C3278 1.356 . S
N3285 H3288 0.984 . S
N3285 H3289 0.985 . S
H3286 N3281 0.984 . S
H3287 N3281 0.985 . S
H3288 N3285 0.984 . S
H3289 N3285 0.985 . S
H3290 N3284 0.984 . S
H3291 N3284 0.984 . S
H3292 N3280 0.984 . S
H3293 N3280 0.985 . S
C3294 C3295 1.363 . S
C3294 C3300 1.379 . S
C3294 N3302 1.356 . S
C3295 C3294 1.363 . S
C3295 C3301 1.363 . S
C3296 C3297 1.363 . S
C3296 C3301 1.379 . S
C3296 N3303 1.356 . S
C3297 C3296 1.363 . S
C3297 C3300 1.363 . S
N3298 C3300 1.356 . S
N3298 H3310 0.984 . S
N3298 H3311 0.985 . S
N3299 C3301 1.356 . S
N3299 H3304 0.984 . S
N3299 H3305 0.985 . S
C3300 C3294 1.379 . S
C3300 C3297 1.363 . S
C3300 N3298 1.356 . S
C3301 C3295 1.363 . S
C3301 C3296 1.379 . S
C3301 N3299 1.356 . S
N3302 C3294 1.356 . S
N3302 H3308 0.984 . S
N3302 H3309 0.984 . S
N3303 C3296 1.356 . S
N3303 H3306 0.984 . S
N3303 H3307 0.985 . S
H3304 N3299 0.984 . S
H3305 N3299 0.985 . S
H3306 N3303 0.984 . S
H3307 N3303 0.985 . S
H3308 N3302 0.984 . S
H3309 N3302 0.984 . S
H3310 N3298 0.984 . S
H3311 N3298 0.985 . S
C3312 C3313 1.363 . S
C3312 C3318 1.379 . S
C3312 N3320 1.356 . S
C3313 C3312 1.363 . S
C3313 C3319 1.363 . S
C3314 C3315 1.363 . S
C3314 C3319 1.379 . S
C3314 N3321 1.356 . S
C3315 C3314 1.363 . S
C3315 C3318 1.363 . S
N3316 C3318 1.356 . S
N3316 H3328 0.984 . S
N3316 H3329 0.985 . S
N3317 C3319 1.356 . S
N3317 H3322 0.984 . S
N3317 H3323 0.985 . S
C3318 C3312 1.379 . S
C3318 C3315 1.363 . S
C3318 N3316 1.356 . S
C3319 C3313 1.363 . S
C3319 C3314 1.379 . S
C3319 N3317 1.356 . S
N3320 C3312 1.356 . S
N3320 H3326 0.984 . S
N3320 H3327 0.984 . S
N3321 C3314 1.356 . S
N3321 H3324 0.984 . S
N3321 H3325 0.985 . S
H3322 N3317 0.984 . S
H3323 N3317 0.985 . S
H3324 N3321 0.984 . S
H3325 N3321 0.985 . S
H3326 N3320 0.984 . S
H3327 N3320 0.984 . S
H3328 N3316 0.984 . S
H3329 N3316 0.985 . S
C3330 C3331 1.363 1_655 S
C3330 C3336 1.379 . S
C3330 N3338 1.356 . S
C3331 C3330 1.363 1_455 S
C3331 C3337 1.363 . S
C3332 C3333 1.363 . S
C3332 C3337 1.379 . S
C3332 N3339 1.356 . S
C3333 C3332 1.363 . S
C3333 C3336 1.363 1_455 S
N3334 C3336 1.356 . S
N3334 H3346 0.984 . S
N3334 H3347 0.985 . S
N3335 C3337 1.356 . S
N3335 H3340 0.984 . S
N3335 H3341 0.985 . S
C3336 C3330 1.379 . S
C3336 C3333 1.363 1_655 S
C3336 N3334 1.356 . S
C3337 C3331 1.363 . S
C3337 C3332 1.379 . S
C3337 N3335 1.356 . S
N3338 C3330 1.356 . S
N3338 H3344 0.984 . S
N3338 H3345 0.984 . S
N3339 C3332 1.356 . S
N3339 H3342 0.984 . S
N3339 H3343 0.985 . S
H3340 N3335 0.984 . S
H3341 N3335 0.985 . S
H3342 N3339 0.984 . S
H3343 N3339 0.985 . S
H3344 N3338 0.984 . S
H3345 N3338 0.984 . S
H3346 N3334 0.984 . S
H3347 N3334 0.985 . S
C3348 C3349 1.363 . S
C3348 C3354 1.379 . S
C3348 N3356 1.356 . S
C3349 C3348 1.363 . S
C3349 C3355 1.363 . S
C3350 C3351 1.363 . S
C3350 C3355 1.379 . S
C3350 N3357 1.356 . S
C3351 C3350 1.363 . S
C3351 C3354 1.363 . S
N3352 C3354 1.356 . S
N3352 H3364 0.984 . S
N3352 H3365 0.985 . S
N3353 C3355 1.356 . S
N3353 H3358 0.984 . S
N3353 H3359 0.985 . S
C3354 C3348 1.379 . S
C3354 C3351 1.363 . S
C3354 N3352 1.356 . S
C3355 C3349 1.363 . S
C3355 C3350 1.379 . S
C3355 N3353 1.356 . S
N3356 C3348 1.356 . S
N3356 H3362 0.984 . S
N3356 H3363 0.984 . S
N3357 C3350 1.356 . S
N3357 H3360 0.984 . S
N3357 H3361 0.985 . S
H3358 N3353 0.984 . S
H3359 N3353 0.985 . S
H3360 N3357 0.984 . S
H3361 N3357 0.985 . S
H3362 N3356 0.984 . S
H3363 N3356 0.984 . S
H3364 N3352 0.984 . S
H3365 N3352 0.985 . S
C3366 C3367 1.363 . S
C3366 C3372 1.379 . S
C3366 N3374 1.356 . S
C3367 C3366 1.363 . S
C3367 C3373 1.363 . S
C3368 C3369 1.363 . S
C3368 C3373 1.379 . S
C3368 N3375 1.356 . S
C3369 C3368 1.363 . S
C3369 C3372 1.363 . S
N3370 C3372 1.356 1_545 S
N3370 H3382 0.984 . S
N3370 H3383 0.985 . S
N3371 C3373 1.356 . S
N3371 H3376 0.984 . S
N3371 H3377 0.985 . S
C3372 C3366 1.379 . S
C3372 C3369 1.363 . S
C3372 N3370 1.356 1_565 S
C3373 C3367 1.363 . S
C3373 C3368 1.379 . S
C3373 N3371 1.356 . S
N3374 C3366 1.356 . S
N3374 H3380 0.984 . S
N3374 H3381 0.984 . S
N3375 C3368 1.356 . S
N3375 H3378 0.984 . S
N3375 H3379 0.985 . S
H3376 N3371 0.984 . S
H3377 N3371 0.985 . S
H3378 N3375 0.984 . S
H3379 N3375 0.985 . S
H3380 N3374 0.984 . S
H3381 N3374 0.984 . S
H3382 N3370 0.984 . S
H3383 N3370 0.985 . S
C3384 C3385 1.363 . S
C3384 C3390 1.379 . S
C3384 N3392 1.356 . S
C3385 C3384 1.363 . S
C3385 C3391 1.363 . S
C3386 C3387 1.363 1_545 S
C3386 C3391 1.379 1_545 S
C3386 N3393 1.356 . S
C3387 C3386 1.363 1_565 S
C3387 C3390 1.363 . S
N3388 C3390 1.356 . S
N3388 H3400 0.984 . S
N3388 H3401 0.985 . S
N3389 C3391 1.356 1_545 S
N3389 H3394 0.946 1_545 S
N3389 H3395 0.985 . S
C3390 C3384 1.379 . S
C3390 C3387 1.363 . S
C3390 N3388 1.356 . S
C3391 C3385 1.363 . S
C3391 C3386 1.379 1_565 S
C3391 N3389 1.356 1_565 S
N3392 C3384 1.356 . S
N3392 H3398 0.984 . S
N3392 H3399 0.984 . S
N3393 C3386 1.356 . S
N3393 H3396 0.984 . S
N3393 H3397 0.985 . S
H3394 N3389 0.946 1_565 S
H3395 N3389 0.985 . S
H3396 N3393 0.984 . S
H3397 N3393 0.985 . S
H3398 N3392 0.984 . S
H3399 N3392 0.984 . S
H3400 N3388 0.984 . S
H3401 N3388 0.985 . S
C3402 C3403 1.363 . S
C3402 C3408 1.360 . S
C3402 N3410 1.356 . S
C3403 C3402 1.363 . S
C3403 C3409 1.363 . S
C3404 C3405 1.363 . S
C3404 C3409 1.379 . S
C3404 N3411 1.356 . S
C3405 C3404 1.363 . S
C3405 C3408 1.376 . S
N3406 C3408 1.373 1_655 S
N3406 H3418 0.984 . S
N3406 H3419 0.985 . S
N3407 C3409 1.356 . S
N3407 H3412 0.984 . S
N3407 H3413 0.985 . S
C3408 C3402 1.360 . S
C3408 C3405 1.376 . S
C3408 N3406 1.373 1_455 S
C3409 C3403 1.363 . S
C3409 C3404 1.379 . S
C3409 N3407 1.356 . S
N3410 C3402 1.356 . S
N3410 H3416 0.984 1_455 S
N3410 H3417 0.984 . S
N3411 C3404 1.356 . S
N3411 H3414 0.984 . S
N3411 H3415 0.985 . S
H3412 N3407 0.984 . S
H3413 N3407 0.985 . S
H3414 N3411 0.984 . S
H3415 N3411 0.985 . S
H3416 N3410 0.984 1_655 S
H3417 N3410 0.984 . S
H3418 N3406 0.984 . S
H3419 N3406 0.985 . S
C3420 C3421 1.363 . S
C3420 C3426 1.379 . S
C3420 N3428 1.356 . S
C3421 C3420 1.363 . S
C3421 C3427 1.363 . S
C3422 C3423 1.363 . S
C3422 C3427 1.379 . S
C3422 N3429 1.356 . S
C3423 C3422 1.363 . S
C3423 C3426 1.363 . S
N3424 C3426 1.356 . S
N3424 H3436 0.984 . S
N3424 H3437 0.985 . S
N3425 C3427 1.356 . S
N3425 H3430 0.984 . S
N3425 H3431 0.985 . S
C3426 C3420 1.379 . S
C3426 C3423 1.363 . S
C3426 N3424 1.356 . S
C3427 C3421 1.363 . S
C3427 C3422 1.379 . S
C3427 N3425 1.356 . S
N3428 C3420 1.356 . S
N3428 H3434 0.984 . S
N3428 H3435 0.984 . S
N3429 C3422 1.356 . S
N3429 H3432 0.984 . S
N3429 H3433 0.985 . S
H3430 N3425 0.984 . S
H3431 N3425 0.985 . S
H3432 N3429 0.984 . S
H3433 N3429 0.985 . S
H3434 N3428 0.984 . S
H3435 N3428 0.984 . S
H3436 N3424 0.984 . S
H3437 N3424 0.985 . S
C3438 C3439 1.363 . S
C3438 C3444 1.379 . S
C3438 N3446 1.356 . S
C3439 C3438 1.363 . S
C3439 C3445 1.363 . S
C3440 C3441 1.363 . S
C3440 C3445 1.379 . S
C3440 N3447 1.356 . S
C3441 C3440 1.363 . S
C3441 C3444 1.363 . S
N3442 C3444 1.356 . S
N3442 H3454 0.984 . S
N3442 H3455 0.985 . S
N3443 C3445 1.356 . S
N3443 H3448 0.984 . S
N3443 H3449 0.985 . S
C3444 C3438 1.379 . S
C3444 C3441 1.363 . S
C3444 N3442 1.356 . S
C3445 C3439 1.363 . S
C3445 C3440 1.379 . S
C3445 N3443 1.356 . S
N3446 C3438 1.356 . S
N3446 H3452 0.984 . S
N3446 H3453 0.984 . S
N3447 C3440 1.356 . S
N3447 H3450 0.984 . S
N3447 H3451 0.985 . S
H3448 N3443 0.984 . S
H3449 N3443 0.985 . S
H3450 N3447 0.984 . S
H3451 N3447 0.985 . S
H3452 N3446 0.984 . S
H3453 N3446 0.984 . S
H3454 N3442 0.984 . S
H3455 N3442 0.985 . S
C3456 C3457 1.363 . S
C3456 C3462 1.379 . S
C3456 N3464 1.356 . S
C3457 C3456 1.363 . S
C3457 C3463 1.363 . S
C3458 C3459 1.363 . S
C3458 C3463 1.379 . S
C3458 N3465 1.356 . S
C3459 C3458 1.363 . S
C3459 C3462 1.363 . S
N3460 C3462 1.356 . S
N3460 H3472 0.984 . S
N3460 H3473 0.985 . S
N3461 C3463 1.356 . S
N3461 H3466 0.984 . S
N3461 H3467 0.985 . S
C3462 C3456 1.379 . S
C3462 C3459 1.363 . S
C3462 N3460 1.356 . S
C3463 C3457 1.363 . S
C3463 C3458 1.379 . S
C3463 N3461 1.356 . S
N3464 C3456 1.356 . S
N3464 H3470 0.984 . S
N3464 H3471 0.984 . S
N3465 C3458 1.356 . S
N3465 H3468 0.984 . S
N3465 H3469 0.985 . S
H3466 N3461 0.984 . S
H3467 N3461 0.985 . S
H3468 N3465 0.984 . S
H3469 N3465 0.985 . S
H3470 N3464 0.984 . S
H3471 N3464 0.984 . S
H3472 N3460 0.984 . S
H3473 N3460 0.985 . S
C3474 C3475 1.363 . S
C3474 C3480 1.379 . S
C3474 N3482 1.356 . S
C3475 C3474 1.363 . S
C3475 C3481 1.363 . S
C3476 C3477 1.363 . S
C3476 C3481 1.379 . S
C3476 N3483 1.356 . S
C3477 C3476 1.363 . S
C3477 C3480 1.363 . S
N3478 C3480 1.356 . S
N3478 H3490 0.984 . S
N3478 H3491 0.985 . S
N3479 C3481 1.356 . S
N3479 H3484 0.984 . S
N3479 H3485 0.985 . S
C3480 C3474 1.379 . S
C3480 C3477 1.363 . S
C3480 N3478 1.356 . S
C3481 C3475 1.363 . S
C3481 C3476 1.379 . S
C3481 N3479 1.356 . S
N3482 C3474 1.356 . S
N3482 H3488 0.984 . S
N3482 H3489 0.984 . S
N3483 C3476 1.356 . S
N3483 H3486 0.984 . S
N3483 H3487 0.985 . S
H3484 N3479 0.984 . S
H3485 N3479 0.985 . S
H3486 N3483 0.984 . S
H3487 N3483 0.985 . S
H3488 N3482 0.984 . S
H3489 N3482 0.984 . S
H3490 N3478 0.984 . S
H3491 N3478 0.985 . S
C3492 C3493 1.363 1_565 S
C3492 C3498 1.379 . S
C3492 N3500 1.356 . S
C3493 C3492 1.363 1_545 S
C3493 C3499 1.363 . S
C3494 C3495 1.363 . S
C3494 C3499 1.379 . S
C3494 N3501 1.356 . S
C3495 C3494 1.363 . S
C3495 C3498 1.363 1_545 S
N3496 C3498 1.356 . S
N3496 H3508 0.984 . S
N3496 H3509 0.985 . S
N3497 C3499 1.356 . S
N3497 H3502 0.984 . S
N3497 H3503 0.985 . S
C3498 C3492 1.379 . S
C3498 C3495 1.363 1_565 S
C3498 N3496 1.356 . S
C3499 C3493 1.363 . S
C3499 C3494 1.379 . S
C3499 N3497 1.356 . S
N3500 C3492 1.356 . S
N3500 H3506 0.984 . S
N3500 H3507 0.984 . S
N3501 C3494 1.356 . S
N3501 H3504 0.984 . S
N3501 H3505 0.985 . S
H3502 N3497 0.984 . S
H3503 N3497 0.985 . S
H3504 N3501 0.984 . S
H3505 N3501 0.985 . S
H3506 N3500 0.984 . S
H3507 N3500 0.984 . S
H3508 N3496 0.984 . S
H3509 N3496 0.985 . S
C3510 C3511 1.363 1_455 S
C3510 C3516 1.379 . S
C3510 N3518 1.356 . S
C3511 C3510 1.363 1_655 S
C3511 C3517 1.363 . S
C3512 C3513 1.363 . S
C3512 C3517 1.379 . S
C3512 N3519 1.356 . S
C3513 C3512 1.363 . S
C3513 C3516 1.363 1_655 S
N3514 C3516 1.356 . S
N3514 H3526 0.984 . S
N3514 H3527 0.985 . S
N3515 C3517 1.356 . S
N3515 H3520 0.984 . S
N3515 H3521 0.985 . S
C3516 C3510 1.379 . S
C3516 C3513 1.363 1_455 S
C3516 N3514 1.356 . S
C3517 C3511 1.363 . S
C3517 C3512 1.379 . S
C3517 N3515 1.356 . S
N3518 C3510 1.356 . S
N3518 H3524 0.984 . S
N3518 H3525 0.984 . S
N3519 C3512 1.356 . S
N3519 H3522 0.984 . S
N3519 H3523 0.985 . S
H3520 N3515 0.984 . S
H3521 N3515 0.985 . S
H3522 N3519 0.984 . S
H3523 N3519 0.985 . S
H3524 N3518 0.984 . S
H3525 N3518 0.984 . S
H3526 N3514 0.984 . S
H3527 N3514 0.985 . S
C3528 C3529 1.363 . S
C3528 C3534 1.379 . S
C3528 N3536 1.356 . S
C3529 C3528 1.363 . S
C3529 C3535 1.363 . S
C3530 C3531 1.363 . S
C3530 C3535 1.379 . S
C3530 N3537 1.356 . S
C3531 C3530 1.363 . S
C3531 C3534 1.363 . S
N3532 C3534 1.356 . S
N3532 H3544 0.984 . S
N3532 H3545 0.985 . S
N3533 C3535 1.356 . S
N3533 H3538 0.984 . S
N3533 H3539 0.985 . S
C3534 C3528 1.379 . S
C3534 C3531 1.363 . S
C3534 N3532 1.356 . S
C3535 C3529 1.363 . S
C3535 C3530 1.379 . S
C3535 N3533 1.356 . S
N3536 C3528 1.356 . S
N3536 H3542 0.984 . S
N3536 H3543 0.984 . S
N3537 C3530 1.356 . S
N3537 H3540 0.984 . S
N3537 H3541 0.985 . S
H3538 N3533 0.984 . S
H3539 N3533 0.985 . S
H3540 N3537 0.984 . S
H3541 N3537 0.985 . S
H3542 N3536 0.984 . S
H3543 N3536 0.984 . S
H3544 N3532 0.984 . S
H3545 N3532 0.985 . S
C3546 C3547 1.363 . S
C3546 C3552 1.379 . S
C3546 N3554 1.356 . S
C3547 C3546 1.363 . S
C3547 C3553 1.363 . S
C3548 C3549 1.363 . S
C3548 C3553 1.379 . S
C3548 N3555 1.356 . S
C3549 C3548 1.363 . S
C3549 C3552 1.363 . S
N3550 C3552 1.356 . S
N3550 H3562 0.984 . S
N3550 H3563 0.985 . S
N3551 C3553 1.356 . S
N3551 H3556 0.984 . S
N3551 H3557 0.985 . S
C3552 C3546 1.379 . S
C3552 C3549 1.363 . S
C3552 N3550 1.356 . S
C3553 C3547 1.363 . S
C3553 C3548 1.379 . S
C3553 N3551 1.356 . S
N3554 C3546 1.356 . S
N3554 H3560 0.984 . S
N3554 H3561 0.984 . S
N3555 C3548 1.356 . S
N3555 H3558 0.984 . S
N3555 H3559 0.985 . S
H3556 N3551 0.984 . S
H3557 N3551 0.985 . S
H3558 N3555 0.984 . S
H3559 N3555 0.985 . S
H3560 N3554 0.984 . S
H3561 N3554 0.984 . S
H3562 N3550 0.984 . S
H3563 N3550 0.985 . S
C3564 C3565 1.363 . S
C3564 C3570 1.379 . S
C3564 N3572 1.356 . S
C3565 C3564 1.363 . S
C3565 C3571 1.363 . S
C3566 C3567 1.363 . S
C3566 C3571 1.379 . S
C3566 N3573 1.356 . S
C3567 C3566 1.363 . S
C3567 C3570 1.363 . S
N3568 C3570 1.356 . S
N3568 H3580 0.984 . S
N3568 H3581 0.985 . S
N3569 C3571 1.356 . S
N3569 H3574 0.984 . S
N3569 H3575 0.985 . S
C3570 C3564 1.379 . S
C3570 C3567 1.363 . S
C3570 N3568 1.356 . S
C3571 C3565 1.363 . S
C3571 C3566 1.379 . S
C3571 N3569 1.356 . S
N3572 C3564 1.356 . S
N3572 H3578 0.984 . S
N3572 H3579 0.984 . S
N3573 C3566 1.356 . S
N3573 H3576 0.984 . S
N3573 H3577 0.985 . S
H3574 N3569 0.984 . S
H3575 N3569 0.985 . S
H3576 N3573 0.984 . S
H3577 N3573 0.985 . S
H3578 N3572 0.984 . S
H3579 N3572 0.984 . S
H3580 N3568 0.984 . S
H3581 N3568 0.985 . S
C3582 C3583 1.363 . S
C3582 C3588 1.379 . S
C3582 N3590 1.356 . S
C3583 C3582 1.363 . S
C3583 C3589 1.363 . S
C3584 C3585 1.363 . S
C3584 C3589 1.379 . S
C3584 N3591 1.356 . S
C3585 C3584 1.363 . S
C3585 C3588 1.363 . S
N3586 C3588 1.356 . S
N3586 H3598 0.984 . S
N3586 H3599 0.985 . S
N3587 C3589 1.356 . S
N3587 H3592 0.984 . S
N3587 H3593 0.985 . S
C3588 C3582 1.379 . S
C3588 C3585 1.363 . S
C3588 N3586 1.356 . S
C3589 C3583 1.363 . S
C3589 C3584 1.379 . S
C3589 N3587 1.356 . S
N3590 C3582 1.356 . S
N3590 H3596 0.984 . S
N3590 H3597 0.984 . S
N3591 C3584 1.356 . S
N3591 H3594 0.984 . S
N3591 H3595 0.985 . S
H3592 N3587 0.984 . S
H3593 N3587 0.985 . S
H3594 N3591 0.984 . S
H3595 N3591 0.985 . S
H3596 N3590 0.984 . S
H3597 N3590 0.984 . S
H3598 N3586 0.984 . S
H3599 N3586 0.985 . S
C3600 C3601 1.363 . S
C3600 C3606 1.379 . S
C3600 N3608 1.356 . S
C3601 C3600 1.363 . S
C3601 C3607 1.363 . S
C3602 C3603 1.363 . S
C3602 C3607 1.379 . S
C3602 N3609 1.356 . S
C3603 C3602 1.363 . S
C3603 C3606 1.363 . S
N3604 C3606 1.356 . S
N3604 H3616 0.984 . S
N3604 H3617 0.985 . S
N3605 C3607 1.356 . S
N3605 H3610 0.984 . S
N3605 H3611 0.985 . S
C3606 C3600 1.379 . S
C3606 C3603 1.363 . S
C3606 N3604 1.356 . S
C3607 C3601 1.363 . S
C3607 C3602 1.379 . S
C3607 N3605 1.356 . S
N3608 C3600 1.356 . S
N3608 H3614 0.984 . S
N3608 H3615 0.984 . S
N3609 C3602 1.356 . S
N3609 H3612 0.984 . S
N3609 H3613 0.985 . S
H3610 N3605 0.984 . S
H3611 N3605 0.985 . S
H3612 N3609 0.984 . S
H3613 N3609 0.985 . S
H3614 N3608 0.984 . S
H3615 N3608 0.984 . S
H3616 N3604 0.984 . S
H3617 N3604 0.985 . S
C3618 C3619 1.363 . S
C3618 C3624 1.379 . S
C3618 N3626 1.356 . S
C3619 C3618 1.363 . S
C3619 C3625 1.363 . S
C3620 C3621 1.363 . S
C3620 C3625 1.379 . S
C3620 N3627 1.356 . S
C3621 C3620 1.363 . S
C3621 C3624 1.363 . S
N3622 C3624 1.356 . S
N3622 H3634 0.984 . S
N3622 H3635 0.985 . S
N3623 C3625 1.356 . S
N3623 H3628 0.984 . S
N3623 H3629 0.985 . S
C3624 C3618 1.379 . S
C3624 C3621 1.363 . S
C3624 N3622 1.356 . S
C3625 C3619 1.363 . S
C3625 C3620 1.379 . S
C3625 N3623 1.356 . S
N3626 C3618 1.356 . S
N3626 H3632 0.984 . S
N3626 H3633 0.984 . S
N3627 C3620 1.356 . S
N3627 H3630 0.984 . S
N3627 H3631 0.985 . S
H3628 N3623 0.984 . S
H3629 N3623 0.985 . S
H3630 N3627 0.984 . S
H3631 N3627 0.985 . S
H3632 N3626 0.984 . S
H3633 N3626 0.984 . S
H3634 N3622 0.984 . S
H3635 N3622 0.985 . S
C3636 C3637 1.363 . S
C3636 C3642 1.379 . S
C3636 N3644 1.356 . S
C3637 C3636 1.363 . S
C3637 C3643 1.363 . S
C3638 C3639 1.363 . S
C3638 C3643 1.379 . S
C3638 N3645 1.356 . S
C3639 C3638 1.363 . S
C3639 C3642 1.363 . S
N3640 C3642 1.356 . S
N3640 H3652 0.984 . S
N3640 H3653 0.985 . S
N3641 C3643 1.356 . S
N3641 H3646 0.984 . S
N3641 H3647 0.985 . S
C3642 C3636 1.379 . S
C3642 C3639 1.363 . S
C3642 N3640 1.356 . S
C3643 C3637 1.363 . S
C3643 C3638 1.379 . S
C3643 N3641 1.356 . S
N3644 C3636 1.356 . S
N3644 H3650 0.984 . S
N3644 H3651 0.984 . S
N3645 C3638 1.356 . S
N3645 H3648 0.984 . S
N3645 H3649 0.985 . S
H3646 N3641 0.984 . S
H3647 N3641 0.985 . S
H3648 N3645 0.984 . S
H3649 N3645 0.985 . S
H3650 N3644 0.984 . S
H3651 N3644 0.984 . S
H3652 N3640 0.984 . S
H3653 N3640 0.985 . S
C3654 C3655 1.363 1_455 S
C3654 C3660 1.379 . S
C3654 N3662 1.356 . S
C3655 C3654 1.363 1_655 S
C3655 C3661 1.363 . S
C3656 C3657 1.363 . S
C3656 C3661 1.379 . S
C3656 N3663 1.356 . S
C3657 C3656 1.363 . S
C3657 C3660 1.363 1_655 S
N3658 C3660 1.356 . S
N3658 H3670 0.984 . S
N3658 H3671 0.985 . S
N3659 C3661 1.356 . S
N3659 H3664 0.984 . S
N3659 H3665 0.985 . S
C3660 C3654 1.379 . S
C3660 C3657 1.363 1_455 S
C3660 N3658 1.356 . S
C3661 C3655 1.363 . S
C3661 C3656 1.379 . S
C3661 N3659 1.356 . S
N3662 C3654 1.356 . S
N3662 H3668 0.984 . S
N3662 H3669 0.984 . S
N3663 C3656 1.356 . S
N3663 H3666 0.984 . S
N3663 H3667 0.985 . S
H3664 N3659 0.984 . S
H3665 N3659 0.985 . S
H3666 N3663 0.984 . S
H3667 N3663 0.985 . S
H3668 N3662 0.984 . S
H3669 N3662 0.984 . S
H3670 N3658 0.984 . S
H3671 N3658 0.985 . S
C3672 C3673 1.363 . S
C3672 C3678 1.379 . S
C3672 N3680 1.356 . S
C3673 C3672 1.363 . S
C3673 C3679 1.363 . S
C3674 C3675 1.363 . S
C3674 C3679 1.379 . S
C3674 N3681 1.356 . S
C3675 C3674 1.363 . S
C3675 C3678 1.363 . S
N3676 C3678 1.356 . S
N3676 H3688 0.984 . S
N3676 H3689 0.985 . S
N3677 C3679 1.356 . S
N3677 H3682 0.984 . S
N3677 H3683 0.985 . S
C3678 C3672 1.379 . S
C3678 C3675 1.363 . S
C3678 N3676 1.356 . S
C3679 C3673 1.363 . S
C3679 C3674 1.379 . S
C3679 N3677 1.356 . S
N3680 C3672 1.356 . S
N3680 H3686 0.984 . S
N3680 H3687 0.984 . S
N3681 C3674 1.356 . S
N3681 H3684 0.984 . S
N3681 H3685 0.985 . S
H3682 N3677 0.984 . S
H3683 N3677 0.985 . S
H3684 N3681 0.984 . S
H3685 N3681 0.985 . S
H3686 N3680 0.984 . S
H3687 N3680 0.984 . S
H3688 N3676 0.984 . S
H3689 N3676 0.985 . S
C3690 C3691 1.363 . S
C3690 C3696 1.379 . S
C3690 N3698 1.356 . S
C3691 C3690 1.363 . S
C3691 C3697 1.363 . S
C3692 C3693 1.364 . S
C3692 C3697 1.377 . S
C3692 N3699 1.357 1_545 S
C3693 C3692 1.364 . S
C3693 C3696 1.363 . S
N3694 C3696 1.356 . S
N3694 H3706 0.984 . S
N3694 H3707 0.985 . S
N3695 C3697 1.374 . S
N3695 H3700 0.970 . S
N3695 H3701 0.987 1_545 S
C3696 C3690 1.379 . S
C3696 C3693 1.363 . S
C3696 N3694 1.356 . S
C3697 C3691 1.363 . S
C3697 C3692 1.377 . S
C3697 N3695 1.374 . S
N3698 C3690 1.356 . S
N3698 H3704 0.984 . S
N3698 H3705 0.984 . S
N3699 C3692 1.357 1_565 S
N3699 H3702 0.984 . S
N3699 H3703 0.985 . S
H3700 N3695 0.970 . S
H3701 N3695 0.987 1_565 S
H3702 N3699 0.984 . S
H3703 N3699 0.985 . S
H3704 N3698 0.984 . S
H3705 N3698 0.984 . S
H3706 N3694 0.984 . S
H3707 N3694 0.985 . S
C2413 C49 1.640 . S
C2415 C2020 1.721 . S
C2431 C137 1.629 . S
C2433 C2066 1.642 . S
C2451 C2098 1.734 . S
C2449 C205 1.666 . S
C2467 C196 1.640 . S
C2469 C2151 1.721 . S
C2485 C57 1.661 . S
C2487 C2197 1.753 . S
C2503 C145 1.629 . S
C2505 C2236 1.648 . S
C2521 C313 1.651 . S
C2523 C2190 1.732 . S
C2541 C2243 1.647 . S
C2539 C401 1.630 . S
C2559 C2144 1.739 . S
C2557 C489 1.658 . S
C2575 C469 1.651 . S
C2577 C2105 1.718 . S
C2595 C1999 1.739 . S
C2593 C293 1.658 . S
C2611 C381 1.630 . S
C2613 C2045 1.641 . S
C2629 C577 1.692 . S
C2631 C2275 1.701 . S
C2647 C645 1.670 . S
C2649 C2342 1.654 . S
C2667 C2388 1.628 . S
C2665 C733 1.634 . S
C2683 C724 1.612 . S
C2685 C1599 1.618 . S
C2701 C585 1.674 . S
C2703 C1645 1.679 . S
C2719 C636 1.679 . S
C2721 C1691 1.675 . S
C2737 C841 1.612 . S
C2739 C1638 1.616 . S
C2755 C937 1.683 . S
C2757 C1684 1.678 . S
C2775 C1592 1.680 . S
C2773 C1025 1.676 . S
C2793 C2367 1.696 . S
C2791 C988 1.697 . S
C2811 C2296 1.634 . S
C2809 C821 1.633 . S
C2829 C2321 1.656 . S
C2827 C900 1.674 . S
C2845 C1105 1.612 . S
C2847 C1723 1.625 . S
C2863 C1193 1.679 . S
C2865 C1776 1.684 . S
C2881 C1281 1.674 . S
C2883 C1822 1.687 . S
C2899 C1289 1.692 . S
C2901 C1868 1.702 . S
C2919 C1921 1.627 . S
C2917 C1113 1.634 . S
C2937 C1967 1.654 . S
C2935 C1201 1.670 . S
C2955 C1914 1.697 . S
C2953 C1369 1.698 . S
C2973 C1960 1.656 . S
C2971 C1457 1.674 . S
C2989 C1553 1.633 . S
C2991 C1875 1.633 . S
C3009 C1829 1.623 . S
C3007 C1516 1.612 . S
C3025 C1349 1.677 . S
C3027 C1744 1.688 . S
C3045 C1783 1.687 . S
C3043 C1437 1.683 . S
C3063 C1606 1.750 . S
C3061 C29 1.730 . S
C3079 C117 1.619 . S
C3081 C1652 1.600 . S
C3099 C1698 1.780 . S
C3097 C225 1.769 . S
C3117 C1730 1.722 . S
C3115 C233 1.730 . S
C3135 C1769 1.750 . S
C3133 C20 1.769 . S
C3153 C1815 1.574 . S
C3151 C108 1.619 . S
C3169 C321 1.733 . S
C3171 C1836 1.726 . S
C3187 C409 1.621 . S
C3189 C1737 1.573 . S
C3205 C497 1.777 . S
C3207 C1790 1.757 . S
C3223 C460 1.734 . S
C3225 C1631 1.754 . S
C3243 C1677 1.786 . S
C3241 C284 1.777 . S
C3259 C372 1.621 . S
C3261 C1585 1.599 . S
C3279 C1861 1.564 . S
C3277 C557 1.607 . S
C3295 C665 1.671 . S
C3297 C1928 1.644 . S
C3313 C753 1.673 . S
C3315 C1974 1.643 . S
C3333 C2013 1.238 . S
C3331 C761 1.231 . S
C3349 C548 1.592 . S
C3351 C2059 1.578 . S
C3367 C673 1.235 . S
C3369 C2091 1.237 . S
C3385 C849 1.231 . S
C3387 C2112 1.227 . S
C3403 C929 1.243 . S
C3405 C2006 1.248 . S
C3423 C2052 1.582 . S
C3421 C1017 1.599 . S
C3439 C997 1.617 . S
C3441 C1907 1.596 . S
C3457 C812 1.672 . S
C3459 C1953 1.640 . S
C3477 C1882 1.622 . S
C3475 C909 1.674 . S
C3495 C2158 1.238 . S
C3493 C1085 1.231 . S
C3511 C1173 1.235 . S
C3513 C2204 1.240 . S
C3529 C1261 1.592 . S
C3531 C2229 1.553 . S
C3549 C2282 1.564 . S
C3547 C1252 1.607 . S
C3567 C2335 1.643 . S
C3565 C1076 1.673 . S
C3583 C1164 1.671 . S
C3585 C2381 1.644 . S
C3601 C1377 1.617 . S
C3603 C2374 1.596 . S
C3619 C1465 1.674 . S
C3621 C2289 1.622 . S
C3639 C2328 1.640 . S
C3637 C1545 1.672 . S
C3657 C2183 1.235 . S
C3655 C1525 1.227 . S
C3675 C2250 1.557 . S
C3673 C1340 1.598 . S
C3691 C1428 1.243 . S
C3693 C2137 1.248 . S
