# Generated by pormake.
# Topology anh, (6,3)-cn, num edge types: 1
# Building blocks:
#     Node 0, Type 0, BuildingBlock: PAMTUU_clean_sbu_0, # of connection points: 6
#     Node 1, Type 0, BuildingBlock: PAMTUU_clean_sbu_0, # of connection points: 6
#     Node 2, Type 0, BuildingBlock: PAMTUU_clean_sbu_0, # of connection points: 6
#     Node 3, Type 1, BuildingBlock: VETTIZ_charged_linker_0, # of connection points: 3
#     Node 4, Type 1, BuildingBlock: VETTIZ_charged_linker_0, # of connection points: 3
#     Node 5, Type 1, BuildingBlock: VETTIZ_charged_linker_0, # of connection points: 3
#     Node 6, Type 1, BuildingBlock: VETTIZ_charged_linker_0, # of connection points: 3
#     Node 7, Type 1, BuildingBlock: VETTIZ_charged_linker_0, # of connection points: 3
#     Node 8, Type 1, BuildingBlock: VETTIZ_charged_linker_0, # of connection points: 3
#     Edge 9, Type (0, 1), BuildingBlock: MIFKUJ_clean_linker_0, # of connection points: 2
#     Edge 10, Type (0, 1), BuildingBlock: MIFKUJ_clean_linker_0, # of connection points: 2
#     Edge 11, Type (0, 1), BuildingBlock: MIFKUJ_clean_linker_0, # of connection points: 2
#     Edge 12, Type (0, 1), BuildingBlock: MIFKUJ_clean_linker_0, # of connection points: 2
#     Edge 13, Type (0, 1), BuildingBlock: MIFKUJ_clean_linker_0, # of connection points: 2
#     Edge 14, Type (0, 1), BuildingBlock: MIFKUJ_clean_linker_0, # of connection points: 2
#     Edge 15, Type (0, 1), BuildingBlock: MIFKUJ_clean_linker_0, # of connection points: 2
#     Edge 16, Type (0, 1), BuildingBlock: MIFKUJ_clean_linker_0, # of connection points: 2
#     Edge 17, Type (0, 1), BuildingBlock: MIFKUJ_clean_linker_0, # of connection points: 2
#     Edge 18, Type (0, 1), BuildingBlock: MIFKUJ_clean_linker_0, # of connection points: 2
#     Edge 19, Type (0, 1), BuildingBlock: MIFKUJ_clean_linker_0, # of connection points: 2
#     Edge 20, Type (0, 1), BuildingBlock: MIFKUJ_clean_linker_0, # of connection points: 2
#     Edge 21, Type (0, 1), BuildingBlock: MIFKUJ_clean_linker_0, # of connection points: 2
#     Edge 22, Type (0, 1), BuildingBlock: MIFKUJ_clean_linker_0, # of connection points: 2
#     Edge 23, Type (0, 1), BuildingBlock: MIFKUJ_clean_linker_0, # of connection points: 2
#     Edge 24, Type (0, 1), BuildingBlock: MIFKUJ_clean_linker_0, # of connection points: 2
#     Edge 25, Type (0, 1), BuildingBlock: MIFKUJ_clean_linker_0, # of connection points: 2
#     Edge 26, Type (0, 1), BuildingBlock: MIFKUJ_clean_linker_0, # of connection points: 2
# Relax obj value: 0.204
# Max RMSD: 0.185
# Mean RMSD: 0.152
data_MOF--net-anh--node1-PAMTUU_clean_sbu_0--node2-VETTIZ_charged_linker_0--edge1-MIFKUJ_clean_linker_0
_symmetry_space_group_name_H-M    P1
_symmetry_Int_Tables_number       1
_symmetry_cell_setting            triclinic
loop_
_symmetry_equiv_pos_as_xyz
'x, y, z'
_cell_length_a     44.904413
_cell_length_b     44.98096
_cell_length_c     82.773944
_cell_angle_alpha  92.808873
_cell_angle_beta   90.854051
_cell_angle_gamma 119.75467
loop_
_atom_site_label
_atom_site_type_symbol
_atom_site_fract_x
_atom_site_fract_y
_atom_site_fract_z
_atom_type_partial_charge
Tb0 Tb 0.08388 0.60506 0.16039 0.0
Tb1 Tb 0.1253 0.56364 0.16092 0.0
C2 C 0.10398 0.58166 0.12867 0.0
C3 C 1.01183 0.61573 0.16825 0.0
C4 C 0.94414 0.56923 0.1761 0.0
C5 C 0.95044 0.59031 0.16308 0.0
C6 C 0.98407 0.61336 0.15918 0.0
C7 C 1.00548 0.59676 0.18206 0.0
C8 C 0.97195 0.57377 0.18596 0.0
C9 C 1.04598 0.63122 0.1614 0.0
O10 O 1.04296 0.55031 0.15755 0.0
O11 O 0.07247 0.52382 0.16577 0.0
O12 O 0.13239 0.58793 0.18498 0.0
O13 O 0.08171 0.5877 0.18454 0.0
O14 O 0.15851 0.55017 0.14935 0.0
O15 O 0.13704 0.52964 0.17213 0.0
O16 O 0.16661 0.61761 0.15956 0.0
O17 O 0.13756 0.64719 0.16436 0.0
O18 O 0.10468 0.60794 0.13658 0.0
O19 O 0.10264 0.55649 0.13655 0.0
C20 C 1.04313 0.52266 0.16222 0.0
O21 O 0.07188 0.64043 0.17169 0.0
O22 O 1.04765 0.61404 0.1486 0.0
C23 C 0.10763 0.589 0.19259 0.0
C24 C 0.19456 0.54416 0.16858 0.0
C25 C 0.26021 0.5627 0.18177 0.0
C26 C 0.2305 0.53727 0.18858 0.0
C27 C 0.198 0.52799 0.18199 0.0
C28 C 0.2242 0.57029 0.16207 0.0
C29 C 0.25664 0.57937 0.16856 0.0
C30 C 0.16005 0.53387 0.16168 0.0
C31 C 0.16662 0.64685 0.16246 0.0
H32 H 0.92954 0.58714 0.15514 0.0
H33 H 0.98838 0.62733 0.14836 0.0
H34 H 1.02638 0.5978 0.18922 0.0
H35 H 0.96785 0.55817 0.19617 0.0
H36 H 0.23238 0.52409 0.19881 0.0
H37 H 0.17553 0.50792 0.1873 0.0
H38 H 0.22248 0.58342 0.15177 0.0
H39 H 0.27894 0.5985 0.16276 0.0
Tb40 Tb 0.56623 0.0512 0.49027 0.0
Tb41 Tb 0.64875 0.09295 0.49648 0.0
C42 C 0.61522 0.07455 0.46116 0.0
C43 C 0.47696 0.9876 0.4963 0.0
C44 C 0.43206 0.93138 0.51375 0.0
C45 C 0.46086 0.93236 0.50673 0.0
C46 C 0.48324 0.96032 0.49819 0.0
C47 C 0.44846 0.98689 0.50334 0.0
C48 C 0.42625 0.95909 0.51204 0.0
C49 C 0.50175 1.01845 0.48854 0.0
O50 O 0.579 1.00969 0.48837 0.0
O51 O 0.63472 1.03875 0.49877 0.0
O52 O 0.625 0.09761 0.5184 0.0
O53 O 0.57856 0.04466 0.51476 0.0
O54 O 0.6989 0.12773 0.49024 0.0
O55 O 0.68953 0.10114 0.51224 0.0
O56 O 0.63717 0.13458 0.49288 0.0
O57 O 0.5785 0.10505 0.49479 0.0
O58 O 0.58646 0.07044 0.46699 0.0
O59 O 0.6402 0.07709 0.4707 0.0
C60 C 0.60679 1.00971 0.49389 0.0
O61 O 0.5198 0.045 0.49859 0.0
O62 O 0.52061 1.01458 0.47769 0.0
C63 C 0.59992 0.07071 0.5244 0.0
C64 C 0.7338 0.15829 0.51321 0.0
C65 C 0.77652 0.22548 0.52674 0.0
C66 C 0.79033 0.20428 0.52232 0.0
C67 C 0.76911 0.17099 0.51548 0.0
C68 C 0.71945 0.17794 0.51903 0.0
C69 C 0.74058 0.21117 0.52581 0.0
C70 C 0.71218 0.12557 0.50397 0.0
C71 C 0.60766 0.13425 0.49406 0.0
H72 H 0.46583 0.91125 0.50755 0.0
H73 H 0.5055 0.96064 0.49314 0.0
H74 H 0.44369 1.0081 0.50231 0.0
H75 H 0.4046 0.95938 0.51747 0.0
H76 H 0.81775 0.21404 0.52328 0.0
H77 H 0.78045 0.15578 0.51131 0.0
H78 H 0.69207 0.16825 0.51757 0.0
H79 H 0.72873 0.22636 0.52909 0.0
Tb80 Tb 0.60056 0.54804 0.82351 0.0
Tb81 Tb 0.64209 0.63047 0.82973 0.0
C82 C 0.62212 0.5946 0.79479 0.0
C83 C 0.57887 0.45873 0.82716 0.0
C84 C 0.59651 0.41356 0.84142 0.0
C85 C 0.61869 0.43757 0.83081 0.0
C86 C 0.61008 0.46006 0.82384 0.0
C87 C 0.55666 0.43478 0.83771 0.0
C88 C 0.56544 0.41252 0.84483 0.0
C89 C 0.57021 0.48361 0.82073 0.0
O90 O 0.65495 0.56189 0.82089 0.0
O91 O 0.68215 0.61634 0.83322 0.0
O92 O 0.6202 0.6091 0.8525 0.0
O93 O 0.6223 0.56003 0.84795 0.0
O94 O 0.6578 0.67896 0.82121 0.0
O95 O 0.67443 0.67393 0.845 0.0
O96 O 0.58824 0.61872 0.82656 0.0
O97 O 0.56 0.56058 0.82936 0.0
O98 O 0.59641 0.56822 0.8009 0.0
O99 O 0.64711 0.61844 0.80431 0.0
C100 C 0.68303 0.58895 0.82738 0.0
O101 O 0.56334 0.50095 0.83165 0.0
O102 O 0.58977 0.50309 0.80973 0.0
C103 C 0.6207 0.5825 0.85795 0.0
C104 C 0.66071 0.71733 0.84192 0.0
C105 C 0.63165 0.75888 0.84908 0.0
C106 C 0.66566 0.77349 0.8441 0.0
C107 C 0.68003 0.75276 0.84046 0.0
C108 C 0.62788 0.70305 0.84813 0.0
C109 C 0.61344 0.72366 0.85169 0.0
C110 C 0.67271 0.69473 0.8351 0.0
C111 C 0.55959 0.58965 0.82852 0.0
H112 H 0.64248 0.43862 0.82762 0.0
H113 H 0.62795 0.47849 0.81589 0.0
H114 H 0.53265 0.43361 0.8406 0.0
H115 H 0.54793 0.39459 0.85306 0.0
H116 H 0.68044 0.80061 0.84216 0.0
H117 H 0.70546 0.7641 0.8357 0.0
H118 H 0.61261 0.67564 0.8493 0.0
H119 H 0.58706 0.71145 0.85529 0.0
C120 C 0.69539 0.17321 0.18351 0.0
C121 C 0.72609 0.20053 0.19154 0.0
C122 C 0.72989 0.19986 0.20838 0.0
C123 C 0.67496 0.14689 0.20924 0.0
C124 C 0.67017 0.14629 0.19266 0.0
C125 C 0.63605 0.1141 0.18688 0.0
H126 H 0.49541 0.96141 0.21004 0.0
C127 C 0.64533 0.11622 0.21565 0.0
C128 C 0.6219 0.09595 0.20267 0.0
H129 H 0.5096 0.99481 0.16149 0.0
H130 H 0.56332 0.04749 0.17073 0.0
H131 H 0.57186 0.98301 0.21955 0.0
H132 H 0.51044 1.031 0.22541 0.0
H133 H 0.5374 0.04484 0.2429 0.0
H134 H 0.50786 0.99956 0.23866 0.0
H135 H 0.53834 0.97007 0.23366 0.0
H136 H 0.58195 1.0026 0.23923 0.0
C137 C 0.64343 0.0917 0.17482 0.0
C138 C 0.612 0.12536 0.17934 0.0
C139 C 0.64421 0.10355 0.27685 0.0
C140 C 0.62097 0.07836 0.28681 0.0
C141 C 0.59144 0.04989 0.27937 0.0
C142 C 0.58529 0.04631 0.26255 0.0
C143 C 0.60863 0.07158 0.25277 0.0
C144 C 0.63747 0.0996 0.25996 0.0
C145 C 0.65937 0.12377 0.2476 0.0
C146 C 0.63858 0.1059 0.23184 0.0
C147 C 0.60903 0.07533 0.23499 0.0
C148 C 0.69461 0.1251 0.24813 0.0
C149 C 0.66119 0.15874 0.25149 0.0
C150 C 0.50999 0.97961 0.20121 0.0
C151 C 0.49802 0.97307 0.18496 0.0
C152 C 0.51793 0.99866 0.17413 0.0
C153 C 0.54918 1.02922 0.17948 0.0
C154 C 0.56069 1.035 0.19596 0.0
C155 C 0.5403 1.01013 0.20636 0.0
C156 C 0.55339 1.02 0.22356 0.0
C157 C 0.58565 0.05423 0.22211 0.0
C158 C 0.59107 0.06391 0.2059 0.0
C159 C 0.56167 0.99253 0.22947 0.0
C160 C 0.52596 1.02387 0.23325 0.0
H161 H 0.71022 0.17573 0.22989 0.0
H162 H 0.69146 0.17257 0.17054 0.0
H163 H 0.60895 0.14331 0.18796 0.0
H164 H 0.58615 0.10324 0.17631 0.0
H165 H 0.62258 0.13866 0.1681 0.0
H166 H 0.66228 0.0855 0.18033 0.0
H167 H 0.65426 0.10531 0.16368 0.0
H168 H 0.61989 0.06718 0.17127 0.0
H169 H 0.66736 0.12566 0.28203 0.0
H170 H 0.57259 1.03036 0.28657 0.0
H171 H 0.5624 1.02381 0.25788 0.0
H172 H 0.69238 0.1011 0.25251 0.0
H173 H 0.71364 0.14676 0.25636 0.0
H174 H 0.70528 0.12703 0.23601 0.0
H175 H 0.63625 0.15491 0.25581 0.0
H176 H 0.66598 0.17402 0.24081 0.0
H177 H 0.6812 0.17427 0.26114 0.0
H178 H 0.75262 0.22002 0.21494 0.0
C179 C 0.70493 0.17377 0.21712 0.0
C180 C 0.60738 0.66103 0.51594 0.0
C181 C 0.61027 0.69132 0.52408 0.0
C182 C 0.6138 0.69429 0.54106 0.0
C183 C 0.612 0.63934 0.54187 0.0
C184 C 0.60865 0.63535 0.52515 0.0
C185 C 0.60708 0.6015 0.51933 0.0
H186 H 0.61794 0.4592 0.54267 0.0
C187 C 0.61284 0.60941 0.54833 0.0
C188 C 0.61036 0.58661 0.53527 0.0
H189 H 0.60104 0.4768 0.4936 0.0
H190 H 0.60194 0.53017 0.50304 0.0
H191 H 0.67243 0.53599 0.55477 0.0
H192 H 0.563 0.47394 0.55609 0.0
H193 H 0.57532 0.50002 0.5741 0.0
H194 H 0.59125 0.47057 0.57047 0.0
H195 H 0.65133 0.50094 0.56759 0.0
H196 H 0.66154 0.54389 0.57416 0.0
C197 C 0.63742 0.60949 0.50853 0.0
C198 C 0.57221 0.57795 0.51037 0.0
C199 C 0.62071 0.60541 0.60979 0.0
C200 C 0.62121 0.5813 0.61988 0.0
C201 C 0.62107 0.55222 0.61261 0.0
C202 C 0.62007 0.54699 0.59572 0.0
C203 C 0.61891 0.57091 0.58576 0.0
C204 C 0.61933 0.59955 0.59286 0.0
C205 C 0.6177 0.62202 0.58039 0.0
C206 C 0.61565 0.60189 0.56462 0.0
C207 C 0.61657 0.57213 0.56786 0.0
C208 C 0.65151 0.65715 0.58232 0.0
C209 C 0.5844 0.62381 0.58281 0.0
C210 C 0.61473 0.47451 0.53384 0.0
C211 C 0.60992 0.46364 0.51737 0.0
C212 C 0.605 0.48439 0.50641 0.0
C213 C 0.60558 0.5154 0.51188 0.0
C214 C 0.61048 0.52578 0.52858 0.0
C215 C 0.61441 0.50467 0.53909 0.0
C216 C 0.61684 0.51685 0.55642 0.0
C217 C 0.61493 0.54931 0.55493 0.0
C218 C 0.61147 0.55561 0.53858 0.0
C219 C 0.65219 0.52467 0.56377 0.0
C220 C 0.58524 0.489 0.56484 0.0
H221 H 0.61718 0.67356 0.56272 0.0
H222 H 0.60482 0.65779 0.50286 0.0
H223 H 0.55088 0.5748 0.51807 0.0
H224 H 0.56844 0.55209 0.50731 0.0
H225 H 0.57012 0.58899 0.49897 0.0
H226 H 0.66208 0.62822 0.51503 0.0
H227 H 0.63503 0.62071 0.49725 0.0
H228 H 0.63887 0.5862 0.50512 0.0
H229 H 0.62064 0.62798 0.61494 0.0
H230 H 0.62204 0.53351 0.62003 0.0
H231 H 0.62024 0.52438 0.59113 0.0
H232 H 0.67302 0.65453 0.58755 0.0
H233 H 0.64854 0.6758 0.59045 0.0
H234 H 0.66079 0.66847 0.57059 0.0
H235 H 0.56329 0.59894 0.58659 0.0
H236 H 0.57409 0.62839 0.57159 0.0
H237 H 0.58852 0.64392 0.59234 0.0
H238 H 0.61594 0.7167 0.5477 0.0
C239 C 0.61455 0.6689 0.54985 0.0
C240 C 0.2057 0.58295 0.85066 0.0
C241 C 0.23305 0.58086 0.85869 0.0
C242 C 0.2326 0.57943 0.8756 0.0
C243 C 0.17946 0.58152 0.87654 0.0
C244 C 0.17881 0.58291 0.85989 0.0
C245 C 0.14646 0.58364 0.8541 0.0
H246 H 0.9974 0.58361 0.87769 0.0
C247 C 0.14859 0.58133 0.88299 0.0
C248 C 0.12834 0.58237 0.86998 0.0
H249 H 1.02839 0.58757 0.82844 0.0
H250 H 0.07957 0.58529 0.83775 0.0
H251 H 1.01192 0.52634 0.88663 0.0
H252 H 0.07012 0.63603 0.8935 0.0
H253 H 0.0756 0.62044 0.91165 0.0
H254 H 1.03308 0.61001 0.90472 0.0
H255 H 1.00361 0.5494 0.90253 0.0
H256 H 1.03382 0.53443 0.90544 0.0
C257 C 0.12435 0.55179 0.84263 0.0
C258 C 0.15733 0.61728 0.8459 0.0
C259 C 0.13513 0.57858 0.94426 0.0
C260 C 0.10866 0.57574 0.9541 0.0
C261 C 0.07921 0.57379 0.94678 0.0
C262 C 0.07626 0.57509 0.92997 0.0
C263 C 0.10285 0.57792 0.92019 0.0
C264 C 0.13141 0.57912 0.92737 0.0
C265 C 0.15607 0.58006 0.91499 0.0
C266 C 0.13803 0.58014 0.89922 0.0
C267 C 0.10712 0.57927 0.9024 0.0
C268 C 0.15847 0.54688 0.91597 0.0
C269 C 0.19052 0.614 0.91843 0.0
C270 C 1.01513 0.58446 0.86874 0.0
C271 C 1.00851 0.58642 0.85231 0.0
C272 C 1.03241 0.5862 0.84125 0.0
C273 C 1.06225 0.58499 0.84665 0.0
C274 C 0.06842 0.58352 0.86333 0.0
C275 C 1.04441 0.58302 0.87386 0.0
C276 C 1.05306 0.58062 0.89105 0.0
C277 C 0.08653 0.58047 0.88953 0.0
C278 C 0.09642 0.58209 0.87327 0.0
C279 C 1.02415 0.54613 0.89686 0.0
C280 C 1.05805 0.61321 0.90088 0.0
H281 H 0.20865 0.57896 0.89726 0.0
H282 H 0.20498 0.58397 0.83764 0.0
H283 H 0.17516 0.6397 0.85413 0.0
H284 H 0.13505 0.62038 0.84282 0.0
H285 H 0.17067 0.61803 0.8346 0.0
H286 H 0.11914 0.52807 0.84851 0.0
H287 H 0.13774 0.55294 0.8313 0.0
H288 H 0.09929 0.54941 0.83937 0.0
H289 H 0.15786 0.57964 0.94956 0.0
H290 H 1.05859 0.57172 0.95414 0.0
H291 H 1.0533 0.57396 0.9253 0.0
H292 H 0.13515 0.52588 0.92108 0.0
H293 H 0.18089 0.55149 0.92376 0.0
H294 H 0.15985 0.53597 0.9039 0.0
H295 H 0.18588 0.63541 0.92218 0.0
H296 H 0.20617 0.62266 0.90768 0.0
H297 H 0.20601 0.61163 0.92835 0.0
H298 H 0.25294 0.57808 0.88215 0.0
C299 C 0.20653 0.57992 0.88443 0.0
C300 C 0.95003 0.53459 0.45849 0.0
C301 C 0.92029 0.51189 0.44911 0.0
C302 C 0.92192 0.50976 0.43213 0.0
C303 C 0.98319 0.55001 0.43439 0.0
C304 C 0.98106 0.5528 0.45098 0.0
C305 C 1.01551 0.57375 0.45961 0.0
H306 H 0.18771 0.65636 0.45743 0.0
C307 C 1.01994 0.56937 0.43073 0.0
C308 C 1.03887 0.58287 0.4455 0.0
H309 H 0.12509 0.63807 0.49913 0.0
H310 H 0.0741 0.60911 0.48185 0.0
H311 H 0.13873 0.58211 0.4368 0.0
H312 H 0.1477 0.68189 0.43705 0.0
H313 H 0.13504 0.66399 0.41713 0.0
H314 H 0.1758 0.67204 0.42575 0.0
H315 H 0.17599 0.61996 0.43077 0.0
H316 H 0.14049 0.594 0.41668 0.0
C317 C 1.02113 0.55075 0.47131 0.0
C318 C 1.0168 0.60595 0.468 0.0
C319 C 1.0567 0.57594 0.37261 0.0
C320 C 0.08887 0.59336 0.36569 0.0
C321 C 0.11857 0.61264 0.37583 0.0
C322 C 0.11635 0.6143 0.39267 0.0
C323 C 0.08404 0.59675 0.39945 0.0
C324 C 1.05484 0.57833 0.38946 0.0
C325 C 1.02262 0.56256 0.39882 0.0
C326 C 1.03731 0.57494 0.41603 0.0
C327 C 0.07333 0.59436 0.41632 0.0
C328 C 1.00521 0.52303 0.39609 0.0
C329 C 1.0 0.5777 0.39342 0.0
C330 C 0.16306 0.64622 0.46289 0.0
C331 C 0.16069 0.64936 0.47979 0.0
C332 C 0.1279 0.63543 0.48626 0.0
C333 C 0.09817 0.61897 0.47615 0.0
C334 C 0.10106 0.61652 0.45933 0.0
C335 C 0.13307 0.63015 0.45293 0.0
C336 C 0.13107 0.62645 0.43471 0.0
C337 C 0.09244 0.60723 0.43131 0.0
C338 C 0.07518 0.60155 0.44579 0.0
C339 C 0.14755 0.60465 0.42932 0.0
C340 C 0.14843 0.66284 0.42821 0.0
H341 H 0.9531 0.52566 0.41176 0.0
H342 H 0.94991 0.53591 0.4716 0.0
H343 H 1.00443 0.61635 0.46004 0.0
H344 H 1.04325 0.62734 0.47057 0.0
H345 H 1.00297 0.59968 0.47945 0.0
H346 H 1.00447 0.52297 0.46773 0.0
H347 H 1.01535 0.55514 0.48391 0.0
H348 H 1.04753 0.55483 0.47127 0.0
H349 H 1.03343 0.5613 0.36505 0.0
H350 H 0.14359 0.62614 0.37069 0.0
H351 H 0.13987 0.62916 0.39976 0.0
H352 H 1.02473 0.51475 0.39496 0.0
H353 H 0.98857 0.51368 0.38482 0.0
H354 H 0.98992 0.50939 0.40634 0.0
H355 H 1.0161 0.6056 0.3917 0.0
H356 H 0.9815 0.57585 0.4025 0.0
H357 H 0.98575 0.56492 0.38176 0.0
H358 H 0.89928 0.49215 0.42469 0.0
C359 C 0.95321 0.52896 0.42469 0.0
C360 C 0.46246 0.91102 0.78658 0.0
C361 C 0.45093 0.88053 0.77686 0.0
C362 C 0.45206 0.88221 0.75988 0.0
C363 C 0.48172 0.94446 0.76298 0.0
C364 C 0.47842 0.94242 0.77951 0.0
C365 C 0.49827 0.97667 0.78868 0.0
H366 H 0.60902 0.14643 0.78956 0.0
C367 C 0.50478 0.98098 0.75993 0.0
C368 C 0.51474 0.99971 0.77499 0.0
H369 H 0.55956 0.08515 0.82983 0.0
H370 H 0.5309 1.03444 0.81181 0.0
H371 H 0.6258 0.09075 0.77077 0.0
H372 H 0.54294 0.1124 0.76605 0.0
H373 H 0.55306 0.10486 0.74642 0.0
H374 H 0.58504 0.14045 0.7592 0.0
H375 H 0.63091 0.1285 0.76187 0.0
H376 H 0.61583 0.08853 0.74999 0.0
C377 C 0.52541 0.97575 0.80024 0.0
C378 C 0.47221 0.98451 0.79722 0.0
C379 C 0.53655 1.01727 0.70261 0.0
C380 C 0.55913 0.04893 0.69627 0.0
C381 C 0.57781 0.07801 0.70712 0.0
C382 C 0.57386 0.07574 0.72383 0.0
C383 C 0.55121 0.044 0.72992 0.0
C384 C 0.53316 1.01537 0.71938 0.0
C385 C 0.5115 0.98346 0.72813 0.0
C386 C 0.51852 0.99799 0.74559 0.0
C387 C 0.54194 1.03346 0.74655 0.0
C388 C 0.52522 0.95827 0.72485 0.0
C389 C 0.47346 0.96888 0.72261 0.0
C390 C 0.5926 0.12188 0.79447 0.0
C391 C 0.58662 0.11958 0.81112 0.0
C392 C 0.56444 0.08742 0.81705 0.0
C393 C 0.54773 0.05805 0.80653 0.0
C394 C 0.5532 0.06078 0.78986 0.0
C395 C 0.57545 0.09222 0.78407 0.0
C396 C 0.57706 0.09017 0.76591 0.0
C397 C 0.5521 0.05228 0.76183 0.0
C398 C 0.53841 1.03538 0.77592 0.0
C399 C 0.6143 0.1002 0.76178 0.0
C400 C 0.56413 0.11327 0.75891 0.0
H401 H 0.46842 0.91388 0.73993 0.0
H402 H 0.46298 0.91098 0.79966 0.0
H403 H 0.44795 0.97417 0.78971 0.0
H404 H 0.48148 1.01228 0.7991 0.0
H405 H 0.46554 0.97266 0.80905 0.0
H406 H 0.53389 0.95792 0.79518 0.0
H407 H 0.51487 0.967 0.81224 0.0
H408 H 0.54939 1.0007 0.80201 0.0
H409 H 0.52161 0.99439 0.69471 0.0
H410 H 0.59598 0.10257 0.70272 0.0
H411 H 0.58883 0.09879 0.73138 0.0
H412 H 0.55322 0.97228 0.72275 0.0
H413 H 0.51202 0.94077 0.71396 0.0
H414 H 0.52276 0.94286 0.73526 0.0
H415 H 0.46717 0.98986 0.72226 0.0
H416 H 0.45542 0.95058 0.73092 0.0
H417 H 0.4681 0.95593 0.71028 0.0
H418 H 0.44329 0.85905 0.75211 0.0
C419 C 0.46712 0.91407 0.75287 0.0
C420 C 0.60732 0.39296 0.1173 0.0
C421 C 0.63463 0.39062 0.11066 0.0
C422 C 0.64062 0.39563 0.0941 0.0
C423 C 0.59719 0.4127 0.09216 0.0
C424 C 0.58989 0.40517 0.10812 0.0
C425 C 0.5672 0.41786 0.11493 0.0
H426 H 0.49831 0.51975 0.10925 0.0
C427 C 0.57906 0.43092 0.08707 0.0
C428 C 0.56179 0.43418 0.10047 0.0
H429 H 0.50347 0.46671 0.15046 0.0
H430 H 0.52661 0.43808 0.13407 0.0
H431 H 0.573 0.53861 0.09501 0.0
H432 H 0.46983 0.45656 0.08451 0.0
H433 H 0.49143 0.45965 0.0666 0.0
H434 H 0.48687 0.49547 0.07424 0.0
H435 H 0.53854 0.54341 0.08669 0.0
H436 H 0.56415 0.53281 0.07386 0.0
C437 C 0.58732 0.44464 0.1293 0.0
C438 C 0.53327 0.38635 0.11948 0.0
C439 C 0.59174 0.47529 0.03063 0.0
C440 C 0.5774 0.49273 0.02287 0.0
C441 C 0.55525 0.501 0.03135 0.0
C442 C 0.54783 0.49255 0.04739 0.0
C443 C 0.5627 0.47565 0.05508 0.0
C444 C 0.58366 0.4666 0.04666 0.0
C445 C 0.59597 0.4475 0.05678 0.0
C446 C 0.57831 0.44607 0.07249 0.0
C447 C 0.55969 0.46351 0.0715 0.0
C448 C 0.63557 0.46931 0.05901 0.0
C449 C 0.58282 0.41135 0.04848 0.0
C450 C 0.50487 0.50226 0.11474 0.0
C451 C 0.49968 0.49594 0.13123 0.0
C452 C 0.5073 0.47206 0.13781 0.0
C453 C 0.52092 0.45559 0.12828 0.0
C454 C 0.52748 0.46335 0.11203 0.0
C455 C 0.51868 0.48564 0.10538 0.0
C456 C 0.52644 0.4897 0.08774 0.0
C457 C 0.54336 0.46783 0.08525 0.0
C458 C 0.54402 0.45274 0.09955 0.0
C459 C 0.55176 0.52813 0.08557 0.0
C460 C 0.49203 0.47483 0.07768 0.0
H461 H 0.62837 0.4114 0.07237 0.0
H462 H 0.60264 0.38971 0.13008 0.0
H463 H 0.52515 0.36452 0.11029 0.0
H464 H 0.51154 0.39135 0.11978 0.0
H465 H 0.53634 0.37752 0.13137 0.0
H466 H 0.61559 0.45639 0.12833 0.0
H467 H 0.58072 0.43269 0.14111 0.0
H468 H 0.58316 0.46689 0.12966 0.0
H469 H 0.60856 0.4683 0.02431 0.0
H470 H 0.54409 0.51459 0.02564 0.0
H471 H 0.53109 0.49986 0.05323 0.0
H472 H 0.64422 0.49722 0.05967 0.0
H473 H 0.64828 0.46405 0.04873 0.0
H474 H 0.64557 0.46527 0.07046 0.0
H475 H 0.55564 0.40009 0.044 0.0
H476 H 0.583 0.39298 0.05678 0.0
H477 H 0.5983 0.41247 0.03794 0.0
H478 H 0.66178 0.39413 0.0888 0.0
C479 C 0.62169 0.40635 0.08472 0.0
H480 H 0.32081 0.62411 0.18508 0.0
H481 H 0.37849 0.63116 0.1855 0.0
H482 H 0.33519 0.5226 0.19051 0.0
H483 H 0.27783 0.51518 0.18976 0.0
H484 H 0.40276 0.5623 0.20459 0.0
H485 H 0.33608 0.54807 0.15369 0.0
H486 H 0.30565 0.56746 0.13571 0.0
H487 H 0.39688 0.66593 0.13464 0.0
H488 H 0.42764 0.6472 0.15285 0.0
H489 H 0.45027 0.46865 0.15336 0.0
H490 H 0.42666 0.49781 0.16972 0.0
H491 H 0.49529 0.59334 0.14902 0.0
H492 H 0.51899 0.56405 0.13246 0.0
H493 H 0.43253 0.58185 0.14709 0.0
H494 H 0.50358 0.5837 0.18985 0.0
H495 H 0.53232 0.56232 0.20765 0.0
H496 H 0.43475 0.48755 0.22437 0.0
H497 H 0.40533 0.50807 0.20649 0.0
C498 C 0.3237 0.60192 0.18672 0.0
C499 C 0.29471 0.56894 0.18692 0.0
C500 C 0.35666 0.60608 0.18714 0.0
C501 C 0.36093 0.57729 0.18774 0.0
C502 C 0.3324 0.54514 0.19006 0.0
C503 C 0.2995 0.54094 0.18959 0.0
C504 C 0.39253 0.57845 0.18216 0.0
C505 C 0.40978 0.56697 0.1921 0.0
C506 C 0.40213 0.58549 0.16599 0.0
C507 C 0.38399 0.59641 0.15472 0.0
C508 C 0.34957 0.57388 0.14965 0.0
C509 C 0.33227 0.58475 0.13944 0.0
C510 C 0.34931 0.61793 0.13406 0.0
C511 C 0.38371 0.64027 0.13884 0.0
C512 C 0.40107 0.62956 0.14911 0.0
C513 C 0.46079 0.49599 0.1525 0.0
C514 C 0.48637 0.51406 0.1416 0.0
C515 C 0.44747 0.51272 0.16196 0.0
C516 C 0.45969 0.54794 0.16084 0.0
C517 C 0.4857 0.56622 0.15017 0.0
C518 C 0.49896 0.54942 0.14062 0.0
C519 C 0.44204 0.56416 0.16931 0.0
C520 C 0.42711 0.57873 0.15983 0.0
C521 C 0.43474 0.55994 0.1859 0.0
C522 C 0.45222 0.54746 0.19678 0.0
C523 C 0.48821 0.56257 0.19725 0.0
C524 C 0.50463 0.5506 0.20737 0.0
C525 C 0.48537 0.5236 0.21713 0.0
C526 C 0.44964 0.50851 0.21681 0.0
C527 C 0.43308 0.52036 0.20671 0.0
H528 H 0.49814 0.51436 0.22495 0.0
H529 H 0.33587 0.62632 0.12617 0.0
H530 H 0.76799 0.27224 0.5463 0.0
H531 H 0.79043 0.33239 0.54064 0.0
H532 H 0.85844 0.32519 0.50657 0.0
H533 H 0.83568 0.26544 0.51146 0.0
H534 H 0.8705 0.40006 0.5287 0.0
H535 H 0.80851 0.31512 0.47406 0.0
H536 H 0.76885 0.25337 0.46743 0.0
H537 H 0.70894 0.25047 0.50793 0.0
H538 H 0.74708 0.31234 0.51411 0.0
H539 H 0.88646 0.44301 0.44272 0.0
H540 H 0.85347 0.40054 0.46183 0.0
H541 H 0.8547 0.47958 0.49406 0.0
H542 H 0.88854 0.52255 0.47495 0.0
H543 H 0.79833 0.37368 0.47816 0.0
H544 H 0.8751 0.46895 0.53161 0.0
H545 H 0.92839 0.52467 0.53691 0.0
H546 H 0.97334 0.50208 0.49605 0.0
H547 H 0.92043 0.44643 0.49055 0.0
C548 C 0.7886 0.28375 0.53802 0.0
C549 C 0.79896 0.26344 0.52887 0.0
C550 C 0.80172 0.31831 0.535 0.0
C551 C 0.82548 0.33277 0.52295 0.0
C552 C 0.84001 0.3143 0.5159 0.0
C553 C 0.82678 0.27985 0.51875 0.0
C554 C 0.82734 0.36132 0.51414 0.0
C555 C 0.85396 0.3948 0.51801 0.0
C556 C 0.80661 0.3539 0.49983 0.0
C557 C 0.78058 0.31816 0.4946 0.0
C558 C 0.78629 0.30138 0.48125 0.0
C559 C 0.76408 0.26635 0.47756 0.0
C560 C 0.73622 0.24792 0.48718 0.0
C561 C 0.73012 0.26468 0.50029 0.0
C562 C 0.75188 0.29975 0.50384 0.0
C563 C 0.87839 0.45118 0.45351 0.0
C564 C 0.89047 0.4861 0.45749 0.0
C565 C 0.85963 0.42685 0.4645 0.0
C566 C 0.85249 0.43707 0.47958 0.0
C567 C 0.86065 0.47131 0.48265 0.0
C568 C 0.87975 0.49576 0.4717 0.0
C569 C 0.84157 0.41293 0.49265 0.0
C570 C 0.81354 0.37985 0.48941 0.0
C571 C 0.86181 0.4206 0.50724 0.0
C572 C 0.89376 0.45384 0.51058 0.0
C573 C 0.89641 0.47597 0.52378 0.0
C574 C 0.92652 0.50754 0.5268 0.0
C575 C 0.95418 0.51704 0.51676 0.0
C576 C 0.95186 0.4949 0.50374 0.0
C577 C 0.92183 0.46337 0.50066 0.0
H578 H 0.97746 0.54149 0.5191 0.0
H579 H 0.71956 0.22065 0.48453 0.0
H580 H 0.63561 0.8025 0.82656 0.0
H581 H 0.59568 0.82298 0.82178 0.0
H582 H 0.54455 0.77936 0.86533 0.0
H583 H 0.58469 0.75826 0.87024 0.0
H584 H 0.50101 0.754 0.83757 0.0
H585 H 0.57686 0.86195 0.86337 0.0
H586 H 0.63176 0.9143 0.87107 0.0
H587 H 0.64254 0.94291 0.82187 0.0
H588 H 0.58799 0.89047 0.81379 0.0
H589 H 0.41745 0.85339 0.80458 0.0
H590 H 0.43628 0.82522 0.82353 0.0
H591 H 0.49572 0.81167 0.78653 0.0
H592 H 0.478 0.84038 0.76775 0.0
H593 H 0.52594 0.86727 0.81955 0.0
H594 H 0.45651 0.74658 0.79509 0.0
H595 H 0.40031 0.69448 0.7889 0.0
H596 H 0.37578 0.69383 0.83891 0.0
H597 H 0.43182 0.74564 0.84533 0.0
C598 C 0.61676 0.79827 0.8355 0.0
C599 C 0.61308 0.77838 0.8487 0.0
C600 C 0.5938 0.80995 0.83271 0.0
C601 C 0.56684 0.80218 0.84308 0.0
C602 C 0.56475 0.78486 0.85701 0.0
C603 C 0.58774 0.77302 0.85982 0.0
C604 C 0.53862 0.80791 0.8378 0.0
C605 C 0.50614 0.779 0.83412 0.0
C606 C 0.5453 0.84044 0.83324 0.0
C607 C 0.57826 0.87214 0.83797 0.0
C608 C 0.59103 0.87926 0.85416 0.0
C609 C 0.62209 0.909 0.8586 0.0
C610 C 0.64063 0.93191 0.84697 0.0
C611 C 0.62812 0.92515 0.83087 0.0
C612 C 0.59708 0.89545 0.82636 0.0
C613 C 0.43316 0.84286 0.80024 0.0
C614 C 0.44706 0.85003 0.78482 0.0
C615 C 0.44384 0.82677 0.81109 0.0
C616 C 0.46767 0.81689 0.80642 0.0
C617 C 0.4772 0.81911 0.79028 0.0
C618 C 0.46678 0.83537 0.77949 0.0
C619 C 0.4894 0.81319 0.81873 0.0
C620 C 0.52056 0.84261 0.82365 0.0
C621 C 0.48142 0.78134 0.82459 0.0
C622 C 0.448 0.75014 0.82063 0.0
C623 C 0.43896 0.73539 0.80471 0.0
C624 C 0.40723 0.70579 0.80117 0.0
C625 C 0.38442 0.69079 0.81348 0.0
C626 C 0.3934 0.70527 0.82936 0.0
C627 C 0.42517 0.73471 0.83296 0.0
H628 H 0.35981 0.66797 0.81069 0.0
H629 H 0.66467 0.95492 0.85043 0.0
H630 H 0.92726 0.50351 0.1817 0.0
H631 H 0.8702 0.45255 0.17853 0.0
H632 H 0.82568 0.51666 0.17094 0.0
H633 H 0.88257 0.56775 0.17408 0.0
H634 H 0.78468 0.45659 0.18919 0.0
H635 H 0.8572 0.48869 0.13998 0.0
H636 H 0.90666 0.49265 0.12556 0.0
H637 H 0.87228 0.38679 0.13301 0.0
H638 H 0.82324 0.38253 0.14778 0.0
H639 H 0.66731 0.43868 0.1347 0.0
H640 H 0.71351 0.44662 0.15285 0.0
H641 H 0.70976 0.35579 0.13061 0.0
H642 H 0.66344 0.34866 0.11156 0.0
H643 H 0.77166 0.4009 0.1343 0.0
H644 H 0.69104 0.36009 0.17287 0.0
H645 H 0.64007 0.34747 0.18833 0.0
H646 H 0.68585 0.45373 0.20465 0.0
H647 H 0.73687 0.46719 0.18909 0.0
C648 C 0.9052 0.50683 0.17983 0.0
C649 C 0.90939 0.53959 0.17784 0.0
C650 C 0.87268 0.47764 0.17802 0.0
C651 C 0.84393 0.48087 0.17433 0.0
C652 C 0.84767 0.51369 0.17376 0.0
C653 C 0.88016 0.54283 0.17543 0.0
C654 C 0.81076 0.45082 0.16878 0.0
C655 C 0.78154 0.44401 0.17727 0.0
C656 C 0.80701 0.43235 0.15385 0.0
C657 C 0.83681 0.43541 0.14511 0.0
C658 C 0.86042 0.46639 0.13865 0.0
C659 C 0.88837 0.46868 0.13041 0.0
C660 C 0.89265 0.44 0.12836 0.0
C661 C 0.86905 0.40902 0.1346 0.0
C662 C 0.84123 0.40669 0.14295 0.0
C663 C 0.67579 0.41993 0.13385 0.0
C664 C 0.6615 0.39273 0.12193 0.0
C665 C 0.70204 0.42422 0.14441 0.0
C666 C 0.71442 0.40105 0.14363 0.0
C667 C 0.70021 0.37365 0.13168 0.0
C668 C 0.67394 0.36961 0.1208 0.0
C669 C 0.74512 0.40912 0.15403 0.0
C670 C 0.77413 0.41186 0.14655 0.0
C671 C 0.74854 0.42225 0.17029 0.0
C672 C 0.71796 0.41462 0.17981 0.0
C673 C 0.69023 0.38083 0.17969 0.0
C674 C 0.66129 0.37352 0.18849 0.0
C675 C 0.65974 0.39977 0.19749 0.0
C676 C 0.68714 0.43339 0.19772 0.0
C677 C 0.71615 0.44086 0.18895 0.0
H678 H 0.6373 0.39405 0.20428 0.0
H679 H 0.91429 0.44182 0.12197 0.0
H680 H 0.36229 0.90132 0.51185 0.0
H681 H 0.32088 0.84567 0.52063 0.0
H682 H 0.40268 0.83409 0.54179 0.0
H683 H 0.44471 0.89093 0.53337 0.0
H684 H 0.36569 0.78362 0.52005 0.0
H685 H 0.33801 0.82587 0.56621 0.0
H686 H 0.3273 0.86497 0.58388 0.0
H687 H 0.23788 0.84102 0.55432 0.0
H688 H 0.24828 0.80223 0.5363 0.0
H689 H 0.17237 0.63744 0.51104 0.0
H690 H 0.22233 0.67417 0.52929 0.0
H691 H 0.27012 0.74172 0.49096 0.0
H692 H 0.22014 0.70684 0.47305 0.0
H693 H 0.24758 0.74787 0.53677 0.0
H694 H 0.35169 0.76044 0.49162 0.0
H695 H 0.36189 0.72201 0.47321 0.0
H696 H 0.29926 0.63682 0.50144 0.0
H697 H 0.28908 0.67481 0.5202 0.0
C698 C 0.37158 0.88774 0.51895 0.0
C699 C 0.4069 0.90041 0.5217 0.0
C700 C 0.34773 0.85581 0.52405 0.0
C701 C 0.35861 0.83576 0.53202 0.0
C702 C 0.39373 0.84922 0.53574 0.0
C703 C 0.41768 0.88145 0.53074 0.0
C704 C 0.33379 0.79885 0.53316 0.0
C705 C 0.34008 0.77547 0.52412 0.0
C706 C 0.30074 0.78782 0.53906 0.0
C707 C 0.29388 0.81088 0.54992 0.0
C708 C 0.3161 0.82898 0.56344 0.0
C709 C 0.31009 0.85113 0.57352 0.0
C710 C 0.28189 0.85543 0.57024 0.0
C711 C 0.25964 0.83757 0.55688 0.0
C712 C 0.26553 0.81538 0.54675 0.0
C713 C 0.19349 0.66017 0.5065 0.0
C714 C 0.19212 0.66912 0.49051 0.0
C715 C 0.22206 0.68087 0.51692 0.0
C716 C 0.24992 0.71026 0.51136 0.0
C717 C 0.24905 0.71868 0.49535 0.0
C718 C 0.22044 0.69851 0.48507 0.0
C719 C 0.2791 0.73458 0.52225 0.0
C720 C 0.27359 0.75546 0.53351 0.0
C721 C 0.31292 0.74334 0.51847 0.0
C722 C 0.31971 0.72057 0.50738 0.0
C723 C 0.34039 0.7336 0.49404 0.0
C724 C 0.34608 0.71186 0.48349 0.0
C725 C 0.33125 0.67701 0.48616 0.0
C726 C 0.31072 0.66382 0.49939 0.0
C727 C 0.30495 0.68545 0.50997 0.0
H728 H 0.33565 0.66021 0.47797 0.0
H729 H 0.27731 0.87262 0.57805 0.0
H730 H 0.65928 0.42403 0.85204 0.0
H731 H 0.67468 0.37985 0.85659 0.0
H732 H 0.56778 0.30214 0.85118 0.0
H733 H 0.55252 0.34562 0.84559 0.0
H734 H 0.6105 0.29029 0.87521 0.0
H735 H 0.60775 0.32398 0.81928 0.0
H736 H 0.62861 0.36619 0.79839 0.0
H737 H 0.73106 0.3843 0.80686 0.0
H738 H 0.71095 0.34314 0.82825 0.0
H739 H 0.55098 0.1369 0.83187 0.0
H740 H 0.57043 0.1917 0.84669 0.0
H741 H 0.67282 0.2282 0.82998 0.0
H742 H 0.65269 0.17323 0.81443 0.0
H743 H 0.65541 0.27103 0.82372 0.0
H744 H 0.65439 0.22255 0.87238 0.0
H745 H 0.6352 0.18004 0.8931 0.0
H746 H 0.54522 0.18906 0.89939 0.0
H747 H 0.56351 0.23121 0.87853 0.0
C748 C 0.63911 0.39756 0.85192 0.0
C749 C 0.60489 0.38827 0.84793 0.0
C750 C 0.64788 0.37248 0.85481 0.0
C751 C 0.62234 0.33784 0.85412 0.0
C752 C 0.5878 0.32885 0.85187 0.0
C753 C 0.57913 0.3538 0.84865 0.0
C754 C 0.6313 0.31049 0.85248 0.0
C755 C 0.62064 0.28597 0.86409 0.0
C756 C 0.646 0.30595 0.83826 0.0
C757 C 0.658 0.33104 0.82557 0.0
C758 C 0.63482 0.33742 0.81688 0.0
C759 C 0.6465 0.36113 0.80494 0.0
C760 C 0.68118 0.37807 0.80135 0.0
C761 C 0.70424 0.37134 0.80971 0.0
C762 C 0.69276 0.34797 0.8218 0.0
C763 C 0.57787 0.15626 0.83172 0.0
C764 C 0.60034 0.15097 0.82199 0.0
C765 C 0.58913 0.18758 0.84036 0.0
C766 C 0.62334 0.2141 0.83975 0.0
C767 C 0.64636 0.20813 0.83072 0.0
C768 C 0.63488 0.17686 0.8218 0.0
C769 C 0.63276 0.24926 0.84608 0.0
C770 C 0.6468 0.27551 0.8353 0.0
C771 C 0.62169 0.25547 0.86119 0.0
C772 C 0.61041 0.23015 0.87385 0.0
C773 C 0.63041 0.21537 0.87811 0.0
C774 C 0.61969 0.19132 0.8899 0.0
C775 C 0.58902 0.18187 0.89756 0.0
C776 C 0.56902 0.19647 0.89347 0.0
C777 C 0.57961 0.22053 0.88168 0.0
H778 H 0.58076 0.16323 0.90668 0.0
H779 H 0.69016 0.39633 0.79206 0.0
H780 H 0.55341 0.94296 0.48666 0.0
H781 H 0.55269 0.8886 0.48944 0.0
H782 H 0.65818 0.94407 0.50733 0.0
H783 H 0.65917 0.99844 0.50434 0.0
H784 H 0.65133 0.89316 0.48834 0.0
H785 H 0.58442 0.89816 0.53211 0.0
H786 H 0.53736 0.90276 0.54476 0.0
H787 H 0.46313 0.81247 0.51662 0.0
H788 H 0.50977 0.80757 0.50363 0.0
H789 H 0.66272 0.75771 0.52448 0.0
H790 H 0.66076 0.8089 0.51747 0.0
H791 H 0.55569 0.74547 0.49981 0.0
H792 H 0.55769 0.6939 0.50708 0.0
H793 H 0.55993 0.7985 0.51707 0.0
H794 H 0.62587 0.79178 0.47405 0.0
H795 H 0.67235 0.7866 0.46113 0.0
H796 H 0.74758 0.87959 0.4872 0.0
H797 H 0.70154 0.8851 0.50045 0.0
C798 C 0.57658 0.94379 0.49117 0.0
C799 C 0.60636 0.97576 0.49525 0.0
C800 C 0.57607 0.91232 0.4929 0.0
C801 C 0.60524 0.91136 0.49888 0.0
C802 C 0.63511 0.94333 0.50272 0.0
C803 C 0.63563 0.97477 0.50101 0.0
C804 C 0.60491 0.87753 0.50105 0.0
C805 C 0.63147 0.87277 0.49483 0.0
C806 C 0.57866 0.84973 0.50904 0.0
C807 C 0.5506 0.8527 0.51678 0.0
C808 C 0.55807 0.87944 0.52852 0.0
C809 C 0.53147 0.88208 0.53577 0.0
C810 C 0.49729 0.85795 0.53148 0.0
C811 C 0.48962 0.83115 0.51992 0.0
C812 C 0.51613 0.82842 0.51262 0.0
C813 C 0.63946 0.75444 0.51861 0.0
C814 C 0.61071 0.72117 0.51596 0.0
C815 C 0.63827 0.78404 0.51463 0.0
C816 C 0.60816 0.78187 0.50785 0.0
C817 C 0.57945 0.74853 0.50493 0.0
C818 C 0.58073 0.71874 0.50886 0.0
C819 C 0.60657 0.81432 0.50451 0.0
C820 C 0.57971 0.81883 0.51052 0.0
C821 C 0.63246 0.84188 0.49627 0.0
C822 C 0.66024 0.83867 0.48836 0.0
C823 C 0.65233 0.81098 0.47713 0.0
C824 C 0.6786 0.80801 0.46972 0.0
C825 C 0.7129 0.8327 0.47337 0.0
C826 C 0.72099 0.86046 0.4844 0.0
C827 C 0.69482 0.86354 0.49185 0.0
H828 H 0.7332 0.83037 0.46762 0.0
H829 H 0.47674 0.8599 0.53717 0.0
H830 H 0.70249 0.54683 0.81045 0.0
H831 H 0.75708 0.54707 0.81235 0.0
H832 H 0.79444 0.62901 0.84979 0.0
H833 H 0.74076 0.6302 0.84713 0.0
H834 H 0.84553 0.64232 0.83418 0.0
H835 H 0.76471 0.53328 0.85486 0.0
H836 H 0.71233 0.47655 0.85357 0.0
H837 H 0.74585 0.44653 0.81056 0.0
H838 H 0.79843 0.50306 0.81167 0.0
H839 H 0.98253 0.62401 0.86761 0.0
H840 H 0.9292 0.62414 0.8618 0.0
H841 H 0.90777 0.55447 0.82003 0.0
H842 H 0.96139 0.55381 0.82602 0.0
H843 H 0.84954 0.53439 0.83596 0.0
H844 H 0.93295 0.64184 0.81703 0.0
H845 H 0.98548 0.69859 0.81849 0.0
H846 H 0.94699 0.73206 0.85841 0.0
H847 H 0.8944 0.67533 0.85734 0.0
C848 C 0.72229 0.56496 0.8191 0.0
C849 C 0.71665 0.58847 0.82862 0.0
C850 C 0.75378 0.56486 0.82035 0.0
C851 C 0.78062 0.58751 0.83156 0.0
C852 C 0.77487 0.61108 0.841 0.0
C853 C 0.74375 0.61169 0.8395 0.0
C854 C 0.81458 0.58723 0.83339 0.0
C855 C 0.84601 0.61855 0.83481 0.0
C856 C 0.81657 0.55659 0.83375 0.0
C857 C 0.7853 0.52241 0.83328 0.0
C858 C 0.76082 0.51453 0.84513 0.0
C859 C 0.73109 0.48234 0.84443 0.0
C860 C 0.72565 0.45779 0.83198 0.0
C861 C 0.75004 0.46539 0.82024 0.0
C862 C 0.77986 0.49748 0.82092 0.0
C863 C 0.96669 0.60865 0.85712 0.0
C864 C 0.97684 0.58878 0.84737 0.0
C865 C 0.93595 0.60897 0.85371 0.0
C866 C 0.91382 0.58953 0.84033 0.0
C867 C 0.92395 0.56984 0.83043 0.0
C868 C 0.95501 0.56971 0.83379 0.0
C869 C 0.88015 0.58943 0.83704 0.0
C870 C 0.84889 0.5581 0.83535 0.0
C871 C 0.87831 0.62006 0.83653 0.0
C872 C 0.90986 0.65422 0.83719 0.0
C873 C 0.93579 0.66122 0.8262 0.0
C874 C 0.96557 0.6934 0.82695 0.0
C875 C 0.96961 0.71889 0.83856 0.0
C876 C 0.94384 0.71227 0.84943 0.0
C877 C 0.91403 0.68012 0.84875 0.0
H878 H 0.99268 0.74379 0.83912 0.0
H879 H 0.7026 0.43289 0.8314 0.0
H880 H 0.23269 0.65753 0.16708 0.0
H881 H 0.28745 0.71181 0.16991 0.0
H882 H 0.23392 0.76787 0.16351 0.0
H883 H 0.17894 0.71365 0.16101 0.0
H884 H 0.29489 0.79459 0.14569 0.0
H885 H 0.2639 0.76588 0.20062 0.0
H886 H 0.2472 0.72812 0.22337 0.0
H887 H 0.3401 0.72333 0.22018 0.0
H888 H 0.35714 0.76071 0.19726 0.0
H889 H 0.43861 0.96275 0.16851 0.0
H890 H 0.38325 0.90946 0.16413 0.0
H891 H 0.42677 0.8535 0.18582 0.0
H892 H 0.48115 0.907 0.19102 0.0
H893 H 0.36921 0.82603 0.19562 0.0
H894 H 0.40111 0.85079 0.14102 0.0
H895 H 0.41894 0.88468 0.11691 0.0
H896 H 0.3276 0.89276 0.11741 0.0
H897 H 0.30941 0.85924 0.14165 0.0
C898 C 0.23235 0.68131 0.16625 0.0
C899 C 0.20074 0.68059 0.16383 0.0
C900 C 0.26399 0.71265 0.16792 0.0
C901 C 0.26553 0.74467 0.16701 0.0
C902 C 0.23407 0.74398 0.16428 0.0
C903 C 0.20234 0.71267 0.1629 0.0
C904 C 0.29961 0.77857 0.16917 0.0
C905 C 0.3109 0.80159 0.15671 0.0
C906 C 0.32166 0.78797 0.18325 0.0
C907 C 0.31164 0.76584 0.19714 0.0
C908 C 0.28065 0.75658 0.2047 0.0
C909 C 0.27114 0.73528 0.21764 0.0
C910 C 0.29253 0.72327 0.22319 0.0
C911 C 0.32354 0.73263 0.21585 0.0
C912 C 0.33315 0.7539 0.2029 0.0
C913 C 0.43657 0.93901 0.17211 0.0
C914 C 0.46496 0.93963 0.18002 0.0
C915 C 0.40457 0.90808 0.16954 0.0
C916 C 0.39981 0.87619 0.17434 0.0
C917 C 0.42862 0.87699 0.18195 0.0
C918 C 0.46022 0.90791 0.18484 0.0
C919 C 0.36517 0.84244 0.17202 0.0
C920 C 0.35355 0.81931 0.1845 0.0
C921 C 0.34322 0.83259 0.15777 0.0
C922 C 0.3541 0.85285 0.14326 0.0
C923 C 0.38495 0.86001 0.13606 0.0
C924 C 0.3951 0.87912 0.12236 0.0
C925 C 0.37447 0.89096 0.11566 0.0
C926 C 0.34359 0.88363 0.12263 0.0
C927 C 0.33334 0.86456 0.13634 0.0
H928 H 0.38237 0.90573 0.10505 0.0
H929 H 0.28512 0.70677 0.2332 0.0
H930 H 0.66207 0.20053 0.49387 0.0
H931 H 0.66181 0.25521 0.49638 0.0
H932 H 0.55199 0.19991 0.49912 0.0
H933 H 0.55207 0.14529 0.49655 0.0
H934 H 0.57469 0.25658 0.47948 0.0
H935 H 0.60339 0.2367 0.53271 0.0
H936 H 0.63761 0.22496 0.55227 0.0
H937 H 0.72787 0.31895 0.54227 0.0
H938 H 0.69447 0.33072 0.52222 0.0
H939 H 0.55593 0.4012 0.50519 0.0
H940 H 0.55443 0.34614 0.50076 0.0
H941 H 0.66272 0.39591 0.51371 0.0
H942 H 0.66335 0.45028 0.51918 0.0
H943 H 0.64062 0.34071 0.52522 0.0
H944 H 0.61854 0.36095 0.47157 0.0
H945 H 0.58994 0.37356 0.44943 0.0
H946 H 0.49477 0.28261 0.45747 0.0
H947 H 0.52273 0.26968 0.47979 0.0
C948 C 0.63785 0.19991 0.49503 0.0
C949 C 0.60725 0.16801 0.49511 0.0
C950 C 0.63773 0.23137 0.49653 0.0
C951 C 0.60701 0.23232 0.49823 0.0
C952 C 0.57624 0.20047 0.49791 0.0
C953 C 0.57636 0.16898 0.49647 0.0
C954 C 0.60717 0.26632 0.50068 0.0
C955 C 0.58876 0.27474 0.48963 0.0
C956 C 0.62646 0.29114 0.51353 0.0
C957 C 0.64645 0.28443 0.52582 0.0
C958 C 0.63061 0.25472 0.53455 0.0
C959 C 0.64988 0.24803 0.54571 0.0
C960 C 0.68495 0.27109 0.54843 0.0
C961 C 0.70076 0.301 0.54007 0.0
C962 C 0.68167 0.30768 0.52879 0.0
C963 C 0.57955 0.40052 0.50681 0.0
C964 C 0.60992 0.43068 0.51225 0.0
C965 C 0.57881 0.36873 0.5042 0.0
C966 C 0.60864 0.36588 0.50648 0.0
C967 C 0.63906 0.39637 0.51176 0.0
C968 C 0.63958 0.4279 0.51474 0.0
C969 C 0.60814 0.33149 0.50392 0.0
C970 C 0.62651 0.32283 0.515 0.0
C971 C 0.5896 0.30684 0.49082 0.0
C972 C 0.57264 0.31457 0.47747 0.0
C973 C 0.59145 0.34378 0.46869 0.0
C974 C 0.57537 0.35096 0.4561 0.0
C975 C 0.54054 0.32895 0.45208 0.0
C976 C 0.52174 0.29967 0.46062 0.0
C977 C 0.53769 0.29238 0.47323 0.0
H978 H 0.52813 0.33455 0.44232 0.0
H979 H 0.69985 0.26587 0.55706 0.0
H980 H 0.54589 0.64337 0.82617 0.0
H981 H 0.49122 0.64265 0.82885 0.0
H982 H 0.44113 0.53522 0.83778 0.0
H983 H 0.49537 0.53562 0.8346 0.0
H984 H 0.39826 0.54195 0.82063 0.0
H985 H 0.46723 0.60844 0.86723 0.0
H986 H 0.51503 0.65544 0.88375 0.0
H987 H 0.49156 0.72812 0.86379 0.0
H988 H 0.44524 0.68206 0.84637 0.0
H989 H 0.24811 0.52881 0.85767 0.0
H990 H 0.30171 0.53068 0.85043 0.0
H991 H 0.34097 0.63326 0.83544 0.0
H992 H 0.2871 0.6315 0.84276 0.0
H993 H 0.38897 0.63071 0.85443 0.0
H994 H 0.32038 0.56369 0.80778 0.0
H995 H 0.27017 0.51597 0.79281 0.0
H996 H 0.29022 0.44329 0.8153 0.0
H997 H 0.34031 0.49057 0.83059 0.0
C998 C 0.52327 0.61946 0.82868 0.0
C999 C 0.5257 0.58953 0.83014 0.0
C1000 C 0.4917 0.61913 0.83035 0.0
C1001 C 0.46119 0.58897 0.83382 0.0
C1002 C 0.46364 0.55904 0.83512 0.0
C1003 C 0.49509 0.5593 0.83334 0.0
C1004 C 0.42692 0.58826 0.83598 0.0
C1005 C 0.39653 0.56131 0.82822 0.0
C1006 C 0.4236 0.61367 0.84553 0.0
C1007 C 0.45302 0.64175 0.85526 0.0
C1008 C 0.47282 0.63456 0.86605 0.0
C1009 C 0.49978 0.66111 0.87555 0.0
C1010 C 0.5067 0.69487 0.87467 0.0
C1011 C 0.48677 0.70215 0.86422 0.0
C1012 C 0.46025 0.67584 0.85447 0.0
C1013 C 0.26771 0.55147 0.85234 0.0
C1014 C 0.26252 0.57966 0.85047 0.0
C1015 C 0.29871 0.55261 0.84826 0.0
C1016 C 0.32614 0.5822 0.84226 0.0
C1017 C 0.3207 0.61012 0.84002 0.0
C1018 C 0.28946 0.60889 0.84398 0.0
C1019 C 0.36072 0.58447 0.83918 0.0
C1020 C 0.39101 0.61159 0.84677 0.0
C1021 C 0.36397 0.55917 0.82962 0.0
C1022 C 0.33391 0.53068 0.82044 0.0
C1023 C 0.31392 0.53752 0.80963 0.0
C1024 C 0.28551 0.51055 0.80107 0.0
C1025 C 0.27696 0.47662 0.80313 0.0
C1026 C 0.29685 0.46959 0.81373 0.0
C1027 C 0.32528 0.49646 0.82234 0.0
H1028 H 0.25495 0.45577 0.79649 0.0
H1029 H 0.52726 0.71533 0.8822 0.0
H1030 H 1.03271 0.45874 0.16959 0.0
H1031 H 0.9789 0.40527 0.17248 0.0
H1032 H 0.92172 0.45584 0.16154 0.0
H1033 H 0.97566 0.50971 0.15875 0.0
H1034 H 0.89034 0.41428 0.18476 0.0
H1035 H 0.93149 0.39712 0.1341 0.0
H1036 H 0.97223 0.39398 0.11548 0.0
H1037 H 0.97333 0.31533 0.14242 0.0
H1038 H 0.93282 0.31824 0.16134 0.0
H1039 H 0.72793 0.25652 0.1776 0.0
H1040 H 0.77893 0.30998 0.17057 0.0
H1041 H 0.84313 0.26701 0.18188 0.0
H1042 H 0.79231 0.21382 0.18878 0.0
H1043 H 0.86937 0.30504 0.157 0.0
H1044 H 0.83669 0.32826 0.20929 0.0
H1045 H 0.7957 0.32945 0.22848 0.0
H1046 H 0.77836 0.39475 0.19829 0.0
H1047 H 0.81916 0.39371 0.17884 0.0
C1048 C 1.0088 0.45871 0.16769 0.0
C1049 C 1.00928 0.48919 0.16374 0.0
C1050 C 0.97761 0.42767 0.16929 0.0
C1051 C 0.94529 0.42546 0.16698 0.0
C1052 C 0.94573 0.45604 0.16331 0.0
C1053 C 0.97695 0.48714 0.16163 0.0
C1054 C 0.91147 0.39162 0.16842 0.0
C1055 C 0.88569 0.39071 0.17832 0.0
C1056 C 0.90478 0.3598 0.16059 0.0
C1057 C 0.92918 0.35804 0.14921 0.0
C1058 C 0.94046 0.37923 0.13611 0.0
C1059 C 0.96355 0.3775 0.12549 0.0
C1060 C 0.9754 0.3545 0.12777 0.0
C1061 C 0.96414 0.33315 0.14067 0.0
C1062 C 0.94108 0.3348 0.15134 0.0
C1063 C 0.75276 0.25802 0.1781 0.0
C1064 C 0.75546 0.23007 0.18344 0.0
C1065 C 0.7823 0.28909 0.17433 0.0
C1066 C 0.8158 0.29356 0.17584 0.0
C1067 C 0.81817 0.26501 0.1805 0.0
C1068 C 0.78878 0.23419 0.18436 0.0
C1069 C 0.8483 0.32787 0.17323 0.0
C1070 C 0.87386 0.32881 0.16318 0.0
C1071 C 0.85485 0.35968 0.18091 0.0
C1072 C 0.83091 0.36095 0.19264 0.0
C1073 C 0.82413 0.34288 0.20676 0.0
C1074 C 0.80095 0.34352 0.21766 0.0
C1075 C 0.7845 0.36225 0.2146 0.0
C1076 C 0.79127 0.38043 0.20064 0.0
C1077 C 0.81447 0.37991 0.18971 0.0
H1078 H 0.7665 0.36265 0.22303 0.0
H1079 H 0.99328 0.3532 0.11954 0.0
H1080 H 0.08045 0.52528 0.10739 0.0
H1081 H 0.08245 0.52383 0.07788 0.0
H1082 H 0.13424 0.63452 0.07995 0.0
H1083 H 0.1303 0.63584 0.10937 0.0
H1084 H 0.09312 0.61435 0.05612 0.0
H1085 H 0.17549 0.58304 0.07251 0.0
H1086 H 0.19801 0.55061 0.08648 0.0
H1087 H 0.12463 0.45788 0.0596 0.0
H1088 H 0.10136 0.48968 0.04561 0.0
H1089 H 0.15753 0.6243 0.97547 0.0
H1090 H 0.15845 0.62499 0.00525 0.0
H1091 H 1.06679 0.52566 0.00265 0.0
H1092 H 1.06512 0.52544 0.97294 0.0
H1093 H 0.13033 0.54107 0.02611 0.0
H1094 H 1.04818 0.57746 0.01075 0.0
H1095 H 1.03184 0.61435 0.99638 0.0
H1096 H 0.1145 0.70391 0.02152 0.0
H1097 H 0.13166 0.66752 0.03584 0.0
C1098 C 0.09224 0.5493 0.10154 0.0
C1099 C 0.10528 0.58067 0.11073 0.0
C1100 C 0.09365 0.54849 0.08462 0.0
C1101 C 0.10921 0.57911 0.07652 0.0
C1102 C 0.12209 0.61046 0.08576 0.0
C1103 C 0.1199 0.61122 0.10263 0.0
C1104 C 0.11149 0.57851 0.05845 0.0
C1105 C 0.10174 0.59859 0.04969 0.0
C1106 C 0.12251 0.55791 0.04977 0.0
C1107 C 0.13647 0.53869 0.05813 0.0
C1108 C 0.164 0.55569 0.06966 0.0
C1109 C 0.17692 0.53743 0.07756 0.0
C1110 C 0.1627 0.50219 0.07396 0.0
C1111 C 0.13558 0.48516 0.0624 0.0
C1112 C 0.12254 0.5033 0.05446 0.0
C1113 C 0.13784 0.60251 0.98129 0.0
C1114 C 0.11127 0.57481 0.97196 0.0
C1115 C 0.13833 0.60295 -0.00174 0.0
C1116 C 0.11268 0.57537 0.00613 0.0
C1117 C 0.08685 0.54713 0.9968 0.0
C1118 C 0.08588 0.54706 0.97988 0.0
C1119 C 0.11184 0.57663 0.02409 0.0
C1120 C 0.12188 0.55676 0.03273 0.0
C1121 C 0.10194 0.59801 0.03269 0.0
C1122 C 0.09144 0.61982 0.0242 0.0
C1123 C 1.06308 0.60504 0.01308 0.0
C1124 C 1.05362 0.62585 0.00497 0.0
C1125 C 0.07219 0.66147 0.00799 0.0
C1126 C 0.10018 0.67633 0.01916 0.0
C1127 C 0.10977 0.65562 0.02728 0.0
H1128 H 1.06482 0.67754 0.00171 0.0
H1129 H 0.17274 0.4881 0.08009 0.0
H1130 H 0.67404 0.09407 0.4445 0.0
H1131 H 0.68097 0.09957 0.41531 0.0
H1132 H 0.57291 0.06455 0.40826 0.0
H1133 H 0.56603 0.05998 0.43735 0.0
H1134 H 0.658 0.05768 0.38988 0.0
H1135 H 0.55683 0.09973 0.37706 0.0
H1136 H 0.53344 0.13296 0.39095 0.0
H1137 H 0.62593 0.1881 0.42096 0.0
H1138 H 0.65007 0.15556 0.40711 0.0
H1139 H 0.60682 1.02688 0.30715 0.0
H1140 H 0.61131 1.03066 0.33658 0.0
H1141 H 0.65446 0.1404 0.33717 0.0
H1142 H 0.64813 0.13655 0.30758 0.0
H1143 H 0.61032 0.11785 0.35923 0.0
H1144 H 0.70383 0.1014 0.34634 0.0
H1145 H 0.73413 0.07466 0.33287 0.0
H1146 H 0.66963 0.98033 0.3549 0.0
H1147 H 0.6386 1.00635 0.36833 0.0
C1148 C 0.65176 0.08757 0.43674 0.0
C1149 C 0.61953 0.07681 0.44335 0.0
C1150 C 0.65573 0.09068 0.42001 0.0
C1151 C 0.62761 0.08305 0.40949 0.0
C1152 C 0.59526 0.07147 0.41606 0.0
C1153 C 0.59134 0.06868 0.43276 0.0
C1154 C 0.63181 0.0868 0.39166 0.0
C1155 C 0.64762 0.07091 0.38321 0.0
C1156 C 0.61927 0.10493 0.38288 0.0
C1157 C 0.60512 0.12496 0.39113 0.0
C1158 C 0.57224 0.11906 0.38657 0.0
C1159 C 0.55884 0.13775 0.39445 0.0
C1160 C 0.57814 0.16255 0.40686 0.0
C1161 C 0.61095 0.1688 0.41138 0.0
C1162 C 0.62449 0.15021 0.40353 0.0
C1163 C 0.61707 0.05189 0.31347 0.0
C1164 C 0.62681 0.08138 0.30485 0.0
C1165 C 0.6201 0.05406 0.33039 0.0
C1166 C 0.63363 0.08587 0.33924 0.0
C1167 C 0.64398 0.1155 0.33069 0.0
C1168 C 0.64067 0.11331 0.31371 0.0
C1169 C 0.63555 0.0878 0.35738 0.0
C1170 C 0.62088 0.10477 0.3659 0.0
C1171 C 0.65009 0.07155 0.36627 0.0
C1172 C 0.66871 0.05577 0.35825 0.0
C1173 C 0.69594 0.07488 0.34823 0.0
C1174 C 0.71327 0.05986 0.34061 0.0
C1175 C 0.70376 1.0258 0.34301 0.0
C1176 C 0.67695 1.0067 0.35305 0.0
C1177 C 0.65951 1.02159 0.36069 0.0
H1178 H 0.71721 1.01421 0.3371 0.0
H1179 H 0.5677 0.17697 0.41295 0.0
H1180 H 0.66653 0.64818 0.77708 0.0
H1181 H 0.66847 0.64974 0.74748 0.0
H1182 H 0.58268 0.5465 0.7424 0.0
H1183 H 0.58047 0.54473 0.77178 0.0
H1184 H 0.63495 0.55521 0.7229 0.0
H1185 H 0.5715 0.61347 0.73572 0.0
H1186 H 0.56267 0.65821 0.74946 0.0
H1187 H 0.65179 0.73639 0.72786 0.0
H1188 H 0.66143 0.69209 0.71416 0.0
H1189 H 0.58266 0.53312 0.64091 0.0
H1190 H 0.58499 0.53919 0.67043 0.0
H1191 H 0.66296 0.64565 0.66931 0.0
H1192 H 0.66019 0.63979 0.6396 0.0
H1193 H 0.62006 0.63924 0.69215 0.0
H1194 H 0.68309 0.58273 0.67847 0.0
H1195 H 0.69384 0.5392 0.66483 0.0
H1196 H 0.60922 0.4596 0.68831 0.0
H1197 H 0.59763 0.50261 0.70192 0.0
C1198 C 0.64802 0.62585 0.76966 0.0
C1199 C 0.62333 0.59635 0.77686 0.0
C1200 C 0.64908 0.62682 0.75273 0.0
C1201 C 0.62561 0.59826 0.74268 0.0
C1202 C 0.60107 0.56884 0.74987 0.0
C1203 C 0.59979 0.56795 0.76672 0.0
C1204 C 0.62674 0.59847 0.72467 0.0
C1205 C 0.63136 0.57338 0.71617 0.0
C1206 C 0.62323 0.62288 0.71588 0.0
C1207 C 0.61741 0.64949 0.72407 0.0
C1208 C 0.58939 0.64022 0.73402 0.0
C1209 C 0.5842 0.66549 0.74177 0.0
C1210 C 0.60672 0.70013 0.73957 0.0
C1211 C 0.63441 0.70955 0.72957 0.0
C1212 C 0.63973 0.68438 0.72181 0.0
C1213 C 0.60039 0.55783 0.64693 0.0
C1214 C 0.62154 0.58586 0.63788 0.0
C1215 C 0.60174 0.56128 0.66385 0.0
C1216 C 0.62473 0.59269 0.67222 0.0
C1217 C 0.64513 0.62108 0.6632 0.0
C1218 C 0.64351 0.61772 0.6462 0.0
C1219 C 0.62762 0.59551 0.69032 0.0
C1220 C 0.62388 0.62118 0.69885 0.0
C1221 C 0.63232 0.57184 0.69919 0.0
C1222 C 0.63932 0.54589 0.69111 0.0
C1223 C 0.66662 0.55592 0.68064 0.0
C1224 C 0.67289 0.53134 0.67292 0.0
C1225 C 0.65218 0.49665 0.67567 0.0
C1226 C 0.62521 0.48648 0.68618 0.0
C1227 C 0.61881 0.51095 0.69391 0.0
H1228 H 0.65707 0.47766 0.66969 0.0
H1229 H 0.60265 0.71966 0.74558 0.0
H1230 H 0.6188 0.12421 0.54676 0.0
H1231 H 0.61135 0.12143 0.57596 0.0
H1232 H 0.56681 1.01126 0.57095 0.0
H1233 H 0.57215 1.01388 0.54166 0.0
H1234 H 0.53255 1.02395 0.59089 0.0
H1235 H 0.65374 0.0707 0.58607 0.0
H1236 H 0.7114 0.11107 0.57705 0.0
H1237 H 0.70888 0.19465 0.60312 0.0
H1238 H 0.65098 0.15483 0.61212 0.0
H1239 H 0.5589 1.00158 0.67389 0.0
H1240 H 0.5653 1.00612 0.64471 0.0
H1241 H 0.57738 0.10743 0.64918 0.0
H1242 H 0.56932 0.10263 0.67825 0.0
H1243 H 0.62821 0.10005 0.63013 0.0
H1244 H 0.50548 0.04906 0.63522 0.0
H1245 H 0.44908 1.00586 0.64436 0.0
H1246 H 0.45738 0.92602 0.61783 0.0
H1247 H 0.51411 0.96872 0.60873 0.0
C1248 C 0.60743 0.09946 0.55194 0.0
C1249 C 0.59612 0.06927 0.54202 0.0
C1250 C 0.60338 0.09787 0.56864 0.0
C1251 C 0.58915 0.06617 0.57578 0.0
C1252 C 0.57784 1.03602 0.56579 0.0
C1253 C 0.58098 1.03753 0.54906 0.0
C1254 C 0.58553 0.06423 0.5936 0.0
C1255 C 0.55371 1.04031 0.59941 0.0
C1256 C 0.61287 0.08589 0.60484 0.0
C1257 C 0.6479 0.10982 0.59965 0.0
C1258 C 0.66541 0.09772 0.58981 0.0
C1259 C 0.69814 0.1205 0.5847 0.0
C1260 C 0.71375 0.15542 0.58947 0.0
C1261 C 0.69673 0.1676 0.59942 0.0
C1262 C 0.66397 0.14493 0.60454 0.0
C1263 C 0.56237 1.02466 0.6687 0.0
C1264 C 0.56347 0.0517 0.6785 0.0
C1265 C 0.56632 1.02728 0.65203 0.0
C1266 C 0.57179 0.05709 0.64486 0.0
C1267 C 0.57338 0.0843 0.65455 0.0
C1268 C 0.56894 0.08153 0.67119 0.0
C1269 C 0.57551 0.05972 0.6272 0.0
C1270 C 0.60726 0.08375 0.62149 0.0
C1271 C 0.5484 1.0377 0.61605 0.0
C1272 C 0.5142 1.01205 0.62143 0.0
C1273 C 0.49542 1.02226 0.63145 0.0
C1274 C 0.46337 0.99787 0.63661 0.0
C1275 C 0.44969 0.96321 0.63172 0.0
C1276 C 0.46802 0.95287 0.62163 0.0
C1277 C 0.50011 0.97716 0.61646 0.0
H1278 H 0.42487 0.94436 0.63572 0.0
H1279 H 0.73908 0.17302 0.58549 0.0
H1280 H 0.63471 0.62967 0.88341 0.0
H1281 H 0.63431 0.62021 0.91238 0.0
H1282 H 0.60166 0.51353 0.90068 0.0
H1283 H 0.6033 0.52306 0.87196 0.0
H1284 H 0.58698 0.58303 0.93153 0.0
H1285 H 0.63158 0.48128 0.92708 0.0
H1286 H 0.66957 0.46861 0.91047 0.0
H1287 H 0.72778 0.57444 0.89964 0.0
H1288 H 0.69047 0.58787 0.91637 0.0
H1289 H 0.53238 0.48223 -0.00206 0.0
H1290 H 0.54559 0.50249 0.97072 0.0
H1291 H 0.65388 0.5472 0.98273 0.0
H1292 H 0.64058 0.52602 0.00994 0.0
H1293 H 0.64108 0.51946 0.95342 0.0
H1294 H 0.615 0.59725 0.98172 0.0
H1295 H 0.58196 0.61565 -0.00109 0.0
H1296 H 0.49756 0.56938 0.9637 0.0
H1297 H 0.5299 0.55024 0.94639 0.0
C1298 C 0.62758 0.60427 0.88707 0.0
C1299 C 0.6194 0.57721 0.87544 0.0
C1300 C 0.62734 0.59888 0.9036 0.0
C1301 C 0.61869 0.56632 0.90872 0.0
C1302 C 0.60948 0.53912 0.89707 0.0
C1303 C 0.61023 0.54458 0.88062 0.0
C1304 C 0.61831 0.56018 0.9262 0.0
C1305 C 0.599 0.56934 0.93634 0.0
C1306 C 0.63485 0.54321 0.93264 0.0
C1307 C 0.65805 0.53552 0.92292 0.0
C1308 C 0.65264 0.50191 0.92126 0.0
C1309 C 0.67402 0.49458 0.91179 0.0
C1310 C 0.70102 0.52069 0.90397 0.0
C1311 C 0.7068 0.55422 0.90567 0.0
C1312 C 0.68552 0.5617 0.91513 0.0
C1313 C 0.55899 0.4963 0.99474 0.0
C1314 C 0.58549 0.50281 0.00604 0.0
C1315 C 0.56654 0.50802 0.97922 0.0
C1316 C 0.60077 0.52711 0.97479 0.0
C1317 C 0.62729 0.5327 0.98591 0.0
C1318 C 0.61969 0.52055 0.00141 0.0
C1319 C 0.60864 0.54113 0.95855 0.0
C1320 C 0.62941 0.53351 0.94867 0.0
C1321 C 0.59435 0.56048 0.95249 0.0
C1322 C 0.57482 0.57212 0.96281 0.0
C1323 C 0.58932 0.59081 0.97769 0.0
C1324 C 0.57071 0.60139 0.98745 0.0
C1325 C 0.53766 0.59364 0.98241 0.0
C1326 C 0.52317 0.57535 0.96759 0.0
C1327 C 0.54164 0.56467 0.95779 0.0
H1328 H 0.5233 0.60186 0.98999 0.0
H1329 H 0.71748 0.51494 0.89662 0.0
H1330 H 0.14786 0.5765 0.21315 0.0
H1331 H 0.14568 0.57488 0.24262 0.0
H1332 H 1.06679 0.6031 0.24183 0.0
H1333 H 1.06808 0.60372 0.2124 0.0
H1334 H 0.15784 0.61978 0.26647 0.0
H1335 H 1.01064 0.56532 0.2704 0.0
H1336 H 0.95761 0.52764 0.25385 0.0
H1337 H 1.00726 0.47797 0.23022 0.0
H1338 H 1.06039 0.51498 0.24678 0.0
H1339 H 0.12118 0.64683 0.34647 0.0
H1340 H 0.1254 0.64427 0.31706 0.0
H1341 H 1.06773 0.53357 0.31565 0.0
H1342 H 1.06225 0.53624 0.34501 0.0
H1343 H 1.04621 0.55271 0.29199 0.0
H1344 H 0.15783 0.58079 0.31182 0.0
H1345 H 0.2123 0.61294 0.32806 0.0
H1346 H 0.23617 0.70418 0.30404 0.0
H1347 H 0.18161 0.67268 0.28782 0.0
C1348 C 0.1301 0.58243 0.21927 0.0
C1349 C 0.1079 0.58991 0.21045 0.0
C1350 C 0.12892 0.58154 0.23611 0.0
C1351 C 0.10566 0.58829 0.24441 0.0
C1352 C 0.08436 0.59697 0.23566 0.0
C1353 C 0.08522 0.59745 0.21883 0.0
C1354 C 0.10343 0.58607 0.26222 0.0
C1355 C 0.13346 0.60507 0.27206 0.0
C1356 C 0.07174 0.56611 0.2695 0.0
C1357 C 1.0396 0.54317 0.25975 0.0
C1358 C 1.01018 0.54623 0.26174 0.0
C1359 C 0.98011 0.52501 0.25234 0.0
C1360 C 0.9791 0.5005 0.24096 0.0
C1361 C 1.0081 0.49704 0.239 0.0
C1362 C 1.03821 0.51815 0.24838 0.0
C1363 C 0.10953 0.622 0.33984 0.0
C1364 C 0.09153 0.59172 0.34794 0.0
C1365 C 0.11207 0.62052 0.32306 0.0
C1366 C 0.09744 0.58869 0.31413 0.0
C1367 C 0.07926 0.55842 0.32225 0.0
C1368 C 0.07616 0.55993 0.339 0.0
C1369 C 0.10057 0.58704 0.29631 0.0
C1370 C 0.07066 0.56731 0.28644 0.0
C1371 C 0.13256 0.60541 0.289 0.0
C1372 C 0.16548 0.62442 0.29869 0.0
C1373 C 0.17459 0.60776 0.31008 0.0
C1374 C 0.2055 0.62587 0.31927 0.0
C1375 C 0.22765 0.6606 0.31711 0.0
C1376 C 0.21897 0.67728 0.30572 0.0
C1377 C 0.18808 0.65931 0.29651 0.0
H1378 H 0.25157 0.67457 0.32424 0.0
H1379 H 0.95583 0.48415 0.23367 0.0
loop_
_geom_bond_atom_site_label_1
_geom_bond_atom_site_label_2
_geom_bond_distance
_geom_bond_site_symmetry_2
_ccdc_geom_bond_type
Tb0 C9 2.764 1_455 S
Tb0 O10 2.325 1_455 S
Tb0 O13 2.303 . S
Tb0 O17 2.322 . S
Tb0 O18 2.349 . S
Tb0 O21 2.415 1_455 S
Tb0 O22 2.399 1_455 S
Tb1 O11 2.322 . S
Tb1 O12 2.349 . S
Tb1 O14 2.415 . S
Tb1 O15 2.399 . S
Tb1 O16 2.325 . S
Tb1 O19 2.303 . S
Tb1 C30 2.764 . S
C2 O18 1.261 . S
C2 O19 1.257 . S
C3 C6 1.358 . S
C3 C7 1.332 . S
C3 C9 1.504 . S
C4 C5 1.373 . S
C4 C8 1.308 . S
C5 C4 1.373 . S
C5 C6 1.429 . S
C5 H32 0.932 . S
C6 C3 1.358 . S
C6 C5 1.429 . S
C6 H33 0.930 . S
C7 C3 1.332 . S
C7 C8 1.394 . S
C7 H34 0.932 . S
C8 C4 1.308 . S
C8 C7 1.394 . S
C8 H35 0.929 . S
C9 Tb0 2.764 1_655 S
C9 C3 1.504 . S
C9 O21 1.239 . S
C9 O22 1.263 . S
O10 Tb0 2.325 1_655 S
O10 C20 1.236 . S
O11 Tb1 2.322 . S
O11 C20 1.257 1_455 S
O12 Tb1 2.349 . S
O12 C23 1.261 . S
O13 Tb0 2.303 . S
O13 C23 1.257 . S
O14 Tb1 2.415 . S
O14 C30 1.239 . S
O15 Tb1 2.399 . S
O15 C30 1.263 . S
O16 Tb1 2.325 . S
O16 C31 1.236 . S
O17 Tb0 2.322 . S
O17 C31 1.257 . S
O18 Tb0 2.349 . S
O18 C2 1.261 . S
O19 Tb1 2.303 . S
O19 C2 1.257 . S
C20 O10 1.236 . S
C20 O11 1.257 1_655 S
O21 Tb0 2.415 1_655 S
O21 C9 1.239 . S
O22 Tb0 2.399 1_655 S
O22 C9 1.263 . S
C23 O12 1.261 . S
C23 O13 1.257 . S
C24 C27 1.358 . S
C24 C28 1.332 . S
C24 C30 1.504 . S
C25 C26 1.373 . S
C25 C29 1.308 . S
C26 C25 1.373 . S
C26 C27 1.429 . S
C26 H36 0.932 . S
C27 C24 1.358 . S
C27 C26 1.429 . S
C27 H37 0.930 . S
C28 C24 1.332 . S
C28 C29 1.394 . S
C28 H38 0.932 . S
C29 C25 1.308 . S
C29 C28 1.394 . S
C29 H39 0.929 . S
C30 Tb1 2.764 . S
C30 O14 1.239 . S
C30 O15 1.263 . S
C30 C24 1.504 . S
C31 O16 1.236 . S
C31 O17 1.257 . S
H32 C5 0.932 . S
H33 C6 0.930 . S
H34 C7 0.932 . S
H35 C8 0.929 . S
H36 C26 0.932 . S
H37 C27 0.930 . S
H38 C28 0.932 . S
H39 C29 0.929 . S
Tb40 C49 2.764 1_545 S
Tb40 O50 2.325 1_545 S
Tb40 O53 2.303 . S
Tb40 O57 2.322 . S
Tb40 O58 2.349 . S
Tb40 O61 2.415 1_545 S
Tb40 O62 2.399 1_545 S
Tb41 O51 2.322 1_545 S
Tb41 O52 2.349 . S
Tb41 O54 2.415 . S
Tb41 O55 2.399 . S
Tb41 O56 2.325 . S
Tb41 O59 2.303 . S
Tb41 C70 2.764 . S
C42 O58 1.261 . S
C42 O59 1.257 . S
C43 C46 1.358 . S
C43 C47 1.332 . S
C43 C49 1.504 . S
C44 C45 1.373 . S
C44 C48 1.308 . S
C45 C44 1.373 . S
C45 C46 1.429 . S
C45 H72 0.932 . S
C46 C43 1.358 . S
C46 C45 1.429 . S
C46 H73 0.930 . S
C47 C43 1.332 . S
C47 C48 1.394 . S
C47 H74 0.932 . S
C48 C44 1.308 . S
C48 C47 1.394 . S
C48 H75 0.929 . S
C49 Tb40 2.764 1_565 S
C49 C43 1.504 . S
C49 O61 1.239 . S
C49 O62 1.263 . S
O50 Tb40 2.325 1_565 S
O50 C60 1.236 . S
O51 Tb41 2.322 1_565 S
O51 C60 1.257 . S
O52 Tb41 2.349 . S
O52 C63 1.261 . S
O53 Tb40 2.303 . S
O53 C63 1.257 . S
O54 Tb41 2.415 . S
O54 C70 1.239 . S
O55 Tb41 2.399 . S
O55 C70 1.263 . S
O56 Tb41 2.325 . S
O56 C71 1.236 . S
O57 Tb40 2.322 . S
O57 C71 1.257 . S
O58 Tb40 2.349 . S
O58 C42 1.261 . S
O59 Tb41 2.303 . S
O59 C42 1.257 . S
C60 O50 1.236 . S
C60 O51 1.257 . S
O61 Tb40 2.415 1_565 S
O61 C49 1.239 . S
O62 Tb40 2.399 1_565 S
O62 C49 1.263 . S
C63 O52 1.261 . S
C63 O53 1.257 . S
C64 C67 1.358 . S
C64 C68 1.332 . S
C64 C70 1.504 . S
C65 C66 1.373 . S
C65 C69 1.308 . S
C66 C65 1.373 . S
C66 C67 1.429 . S
C66 H76 0.932 . S
C67 C64 1.358 . S
C67 C66 1.429 . S
C67 H77 0.930 . S
C68 C64 1.332 . S
C68 C69 1.394 . S
C68 H78 0.932 . S
C69 C65 1.308 . S
C69 C68 1.394 . S
C69 H79 0.929 . S
C70 Tb41 2.764 . S
C70 O54 1.239 . S
C70 O55 1.263 . S
C70 C64 1.504 . S
C71 O56 1.236 . S
C71 O57 1.257 . S
H72 C45 0.932 . S
H73 C46 0.930 . S
H74 C47 0.932 . S
H75 C48 0.929 . S
H76 C66 0.932 . S
H77 C67 0.930 . S
H78 C68 0.932 . S
H79 C69 0.929 . S
Tb80 C89 2.764 . S
Tb80 O90 2.325 . S
Tb80 O93 2.303 . S
Tb80 O97 2.322 . S
Tb80 O98 2.349 . S
Tb80 O101 2.415 . S
Tb80 O102 2.399 . S
Tb81 O91 2.322 . S
Tb81 O92 2.349 . S
Tb81 O94 2.415 . S
Tb81 O95 2.399 . S
Tb81 O96 2.325 . S
Tb81 O99 2.303 . S
Tb81 C110 2.764 . S
C82 O98 1.261 . S
C82 O99 1.257 . S
C83 C86 1.358 . S
C83 C87 1.332 . S
C83 C89 1.504 . S
C84 C85 1.373 . S
C84 C88 1.308 . S
C85 C84 1.373 . S
C85 C86 1.429 . S
C85 H112 0.932 . S
C86 C83 1.358 . S
C86 C85 1.429 . S
C86 H113 0.930 . S
C87 C83 1.332 . S
C87 C88 1.394 . S
C87 H114 0.932 . S
C88 C84 1.308 . S
C88 C87 1.394 . S
C88 H115 0.929 . S
C89 Tb80 2.764 . S
C89 C83 1.504 . S
C89 O101 1.239 . S
C89 O102 1.263 . S
O90 Tb80 2.325 . S
O90 C100 1.236 . S
O91 Tb81 2.322 . S
O91 C100 1.257 . S
O92 Tb81 2.349 . S
O92 C103 1.261 . S
O93 Tb80 2.303 . S
O93 C103 1.257 . S
O94 Tb81 2.415 . S
O94 C110 1.239 . S
O95 Tb81 2.399 . S
O95 C110 1.263 . S
O96 Tb81 2.325 . S
O96 C111 1.236 . S
O97 Tb80 2.322 . S
O97 C111 1.257 . S
O98 Tb80 2.349 . S
O98 C82 1.261 . S
O99 Tb81 2.303 . S
O99 C82 1.257 . S
C100 O90 1.236 . S
C100 O91 1.257 . S
O101 Tb80 2.415 . S
O101 C89 1.239 . S
O102 Tb80 2.399 . S
O102 C89 1.263 . S
C103 O92 1.261 . S
C103 O93 1.257 . S
C104 C107 1.358 . S
C104 C108 1.332 . S
C104 C110 1.504 . S
C105 C106 1.373 . S
C105 C109 1.308 . S
C106 C105 1.373 . S
C106 C107 1.429 . S
C106 H116 0.932 . S
C107 C104 1.358 . S
C107 C106 1.429 . S
C107 H117 0.930 . S
C108 C104 1.332 . S
C108 C109 1.394 . S
C108 H118 0.932 . S
C109 C105 1.308 . S
C109 C108 1.394 . S
C109 H119 0.929 . S
C110 Tb81 2.764 . S
C110 O94 1.239 . S
C110 O95 1.263 . S
C110 C104 1.504 . S
C111 O96 1.236 . S
C111 O97 1.257 . S
H112 C85 0.932 . S
H113 C86 0.930 . S
H114 C87 0.932 . S
H115 C88 0.929 . S
H116 C106 0.932 . S
H117 C107 0.930 . S
H118 C108 0.932 . S
H119 C109 0.929 . S
C120 C121 1.391 . S
C120 C124 1.391 . S
C120 H162 0.948 . S
C121 C120 1.391 . S
C121 C122 1.391 . S
C122 C121 1.391 . S
C122 H178 0.947 . S
C122 C179 1.392 . S
C123 C124 1.391 . S
C123 C127 1.397 . S
C123 C179 1.419 . S
C124 C120 1.391 . S
C124 C123 1.391 . S
C124 C125 1.399 . S
C125 C124 1.399 . S
C125 C128 1.396 . S
C125 C137 1.453 . S
C125 C138 1.684 . S
H126 C150 0.948 . S
C127 C123 1.397 . S
C127 C128 1.394 . S
C127 C146 1.723 . S
C128 C125 1.396 . S
C128 C127 1.394 . S
C128 C158 1.724 1_545 S
H129 C152 0.947 . S
H130 C153 0.948 . S
H131 C159 0.982 . S
H132 C160 0.979 . S
H133 C160 0.980 . S
H134 C160 0.983 . S
H135 C159 0.979 . S
H136 C159 0.977 . S
C137 C125 1.453 . S
C137 H166 0.982 . S
C137 H167 0.979 . S
C137 H168 0.977 . S
C138 C125 1.684 . S
C138 H163 0.979 . S
C138 H164 0.980 . S
C138 H165 0.983 . S
C139 C140 1.391 . S
C139 C144 1.391 . S
C139 H169 0.948 . S
C140 C139 1.391 . S
C140 C141 1.391 . S
C141 C140 1.391 . S
C141 C142 1.392 . S
C141 H170 0.947 1_545 S
C142 C141 1.392 . S
C142 C143 1.418 . S
C142 H171 0.948 1_545 S
C143 C142 1.418 . S
C143 C144 1.391 . S
C143 C147 1.397 . S
C144 C139 1.391 . S
C144 C143 1.391 . S
C144 C145 1.399 . S
C145 C144 1.399 . S
C145 C146 1.396 . S
C145 C148 1.453 . S
C145 C149 1.684 . S
C146 C127 1.723 . S
C146 C145 1.396 . S
C146 C147 1.394 . S
C147 C143 1.397 . S
C147 C146 1.394 . S
C147 C157 1.723 1_545 S
C148 C145 1.453 . S
C148 H172 0.982 . S
C148 H173 0.979 . S
C148 H174 0.977 . S
C149 C145 1.684 . S
C149 H175 0.979 . S
C149 H176 0.980 . S
C149 H177 0.983 . S
C150 H126 0.948 . S
C150 C151 1.391 . S
C150 C155 1.391 . S
C151 C150 1.391 . S
C151 C152 1.391 . S
C152 H129 0.947 . S
C152 C151 1.391 . S
C152 C153 1.392 . S
C153 H130 0.948 . S
C153 C152 1.392 . S
C153 C154 1.419 . S
C154 C153 1.419 . S
C154 C155 1.391 . S
C154 C158 1.396 . S
C155 C150 1.391 . S
C155 C154 1.391 . S
C155 C156 1.399 . S
C156 C155 1.399 . S
C156 C157 1.396 . S
C156 C159 1.453 . S
C156 C160 1.684 . S
C157 C147 1.723 1_565 S
C157 C156 1.396 . S
C157 C158 1.393 . S
C158 C128 1.724 1_565 S
C158 C154 1.396 . S
C158 C157 1.393 . S
C159 H131 0.982 . S
C159 H135 0.979 . S
C159 H136 0.977 . S
C159 C156 1.453 . S
C160 H132 0.979 . S
C160 H133 0.980 . S
C160 H134 0.983 . S
C160 C156 1.684 . S
H161 C179 0.948 . S
H162 C120 0.948 . S
H163 C138 0.979 . S
H164 C138 0.980 . S
H165 C138 0.983 . S
H166 C137 0.982 . S
H167 C137 0.979 . S
H168 C137 0.977 . S
H169 C139 0.948 . S
H170 C141 0.947 1_565 S
H171 C142 0.948 1_565 S
H172 C148 0.982 . S
H173 C148 0.979 . S
H174 C148 0.977 . S
H175 C149 0.979 . S
H176 C149 0.980 . S
H177 C149 0.983 . S
H178 C122 0.947 . S
C179 C122 1.392 . S
C179 C123 1.419 . S
C179 H161 0.948 . S
C180 C181 1.391 . S
C180 C184 1.391 . S
C180 H222 0.948 . S
C181 C180 1.391 . S
C181 C182 1.391 . S
C182 C181 1.391 . S
C182 H238 0.947 . S
C182 C239 1.392 . S
C183 C184 1.391 . S
C183 C187 1.397 . S
C183 C239 1.419 . S
C184 C180 1.391 . S
C184 C183 1.391 . S
C184 C185 1.399 . S
C185 C184 1.399 . S
C185 C188 1.396 . S
C185 C197 1.453 . S
C185 C198 1.684 . S
H186 C210 0.948 . S
C187 C183 1.397 . S
C187 C188 1.394 . S
C187 C206 1.723 . S
C188 C185 1.396 . S
C188 C187 1.394 . S
C188 C218 1.723 . S
H189 C212 0.947 . S
H190 C213 0.948 . S
H191 C219 0.982 . S
H192 C220 0.979 . S
H193 C220 0.980 . S
H194 C220 0.983 . S
H195 C219 0.979 . S
H196 C219 0.977 . S
C197 C185 1.453 . S
C197 H226 0.982 . S
C197 H227 0.979 . S
C197 H228 0.977 . S
C198 C185 1.684 . S
C198 H223 0.979 . S
C198 H224 0.980 . S
C198 H225 0.983 . S
C199 C200 1.391 . S
C199 C204 1.391 . S
C199 H229 0.948 . S
C200 C199 1.391 . S
C200 C201 1.391 . S
C201 C200 1.391 . S
C201 C202 1.392 . S
C201 H230 0.947 . S
C202 C201 1.392 . S
C202 C203 1.419 . S
C202 H231 0.948 . S
C203 C202 1.419 . S
C203 C204 1.391 . S
C203 C207 1.397 . S
C204 C199 1.391 . S
C204 C203 1.391 . S
C204 C205 1.399 . S
C205 C204 1.399 . S
C205 C206 1.396 . S
C205 C208 1.453 . S
C205 C209 1.684 . S
C206 C187 1.723 . S
C206 C205 1.396 . S
C206 C207 1.394 . S
C207 C203 1.397 . S
C207 C206 1.394 . S
C207 C217 1.723 . S
C208 C205 1.453 . S
C208 H232 0.982 . S
C208 H233 0.979 . S
C208 H234 0.977 . S
C209 C205 1.684 . S
C209 H235 0.979 . S
C209 H236 0.980 . S
C209 H237 0.983 . S
C210 H186 0.948 . S
C210 C211 1.391 . S
C210 C215 1.391 . S
C211 C210 1.391 . S
C211 C212 1.391 . S
C212 H189 0.947 . S
C212 C211 1.391 . S
C212 C213 1.392 . S
C213 H190 0.948 . S
C213 C212 1.392 . S
C213 C214 1.419 . S
C214 C213 1.419 . S
C214 C215 1.391 . S
C214 C218 1.397 . S
C215 C210 1.391 . S
C215 C214 1.391 . S
C215 C216 1.399 . S
C216 C215 1.399 . S
C216 C217 1.396 . S
C216 C219 1.453 . S
C216 C220 1.684 . S
C217 C207 1.723 . S
C217 C216 1.396 . S
C217 C218 1.394 . S
C218 C188 1.723 . S
C218 C214 1.397 . S
C218 C217 1.394 . S
C219 H191 0.982 . S
C219 H195 0.979 . S
C219 H196 0.977 . S
C219 C216 1.453 . S
C220 H192 0.979 . S
C220 H193 0.980 . S
C220 H194 0.983 . S
C220 C216 1.684 . S
H221 C239 0.948 . S
H222 C180 0.948 . S
H223 C198 0.979 . S
H224 C198 0.980 . S
H225 C198 0.983 . S
H226 C197 0.982 . S
H227 C197 0.979 . S
H228 C197 0.977 . S
H229 C199 0.948 . S
H230 C201 0.947 . S
H231 C202 0.948 . S
H232 C208 0.982 . S
H233 C208 0.979 . S
H234 C208 0.977 . S
H235 C209 0.979 . S
H236 C209 0.980 . S
H237 C209 0.983 . S
H238 C182 0.947 . S
C239 C182 1.392 . S
C239 C183 1.419 . S
C239 H221 0.948 . S
C240 C241 1.391 . S
C240 C244 1.391 . S
C240 H282 0.948 . S
C241 C240 1.391 . S
C241 C242 1.391 . S
C242 C241 1.391 . S
C242 H298 0.947 . S
C242 C299 1.392 . S
C243 C244 1.391 . S
C243 C247 1.397 . S
C243 C299 1.419 . S
C244 C240 1.391 . S
C244 C243 1.391 . S
C244 C245 1.399 . S
C245 C244 1.399 . S
C245 C248 1.396 . S
C245 C257 1.453 . S
C245 C258 1.684 . S
H246 C270 0.948 . S
C247 C243 1.397 . S
C247 C248 1.394 . S
C247 C266 1.723 . S
C248 C245 1.396 . S
C248 C247 1.394 . S
C248 C278 1.723 . S
H249 C272 0.947 . S
H250 C273 0.948 . S
H251 C279 0.982 . S
H252 C280 0.979 1_455 S
H253 C280 0.987 . S
H254 C280 0.983 . S
H255 C279 0.979 . S
H256 C279 0.977 . S
C257 C245 1.453 . S
C257 H286 0.982 . S
C257 H287 0.979 . S
C257 H288 0.977 . S
C258 C245 1.684 . S
C258 H283 0.979 . S
C258 H284 0.980 . S
C258 H285 0.983 . S
C259 C260 1.391 . S
C259 C264 1.391 . S
C259 H289 0.948 . S
C260 C259 1.391 . S
C260 C261 1.391 . S
C261 C260 1.391 . S
C261 C262 1.392 . S
C261 H290 0.947 . S
C262 C261 1.392 . S
C262 C263 1.419 . S
C262 H291 0.948 . S
C263 C262 1.419 . S
C263 C264 1.391 . S
C263 C267 1.397 . S
C264 C259 1.391 . S
C264 C263 1.391 . S
C264 C265 1.399 . S
C265 C264 1.399 . S
C265 C266 1.396 . S
C265 C268 1.453 . S
C265 C269 1.684 . S
C266 C247 1.723 . S
C266 C265 1.396 . S
C266 C267 1.394 . S
C267 C263 1.397 . S
C267 C266 1.394 . S
C267 C277 1.723 . S
C268 C265 1.453 . S
C268 H292 0.982 . S
C268 H293 0.979 . S
C268 H294 0.977 . S
C269 C265 1.684 . S
C269 H295 0.979 . S
C269 H296 0.980 . S
C269 H297 0.983 . S
C270 H246 0.948 . S
C270 C271 1.391 . S
C270 C275 1.391 . S
C271 C270 1.391 . S
C271 C272 1.391 . S
C272 H249 0.947 . S
C272 C271 1.391 . S
C272 C273 1.392 1_655 S
C273 H250 0.948 . S
C273 C272 1.392 1_455 S
C273 C274 1.419 . S
C274 C273 1.419 . S
C274 C275 1.391 1_455 S
C274 C278 1.397 . S
C275 C270 1.391 . S
C275 C274 1.391 1_655 S
C275 C276 1.393 1_655 S
C276 C275 1.393 1_455 S
C276 C277 1.420 . S
C276 C279 1.444 1_455 S
C276 C280 1.672 1_455 S
C277 C267 1.723 . S
C277 C276 1.420 . S
C277 C278 1.394 . S
C278 C248 1.723 . S
C278 C274 1.397 . S
C278 C277 1.394 . S
C279 H251 0.982 . S
C279 H255 0.979 . S
C279 H256 0.977 . S
C279 C276 1.444 1_655 S
C280 H252 0.979 1_655 S
C280 H253 0.987 . S
C280 H254 0.983 . S
C280 C276 1.672 1_655 S
H281 C299 0.948 . S
H282 C240 0.948 . S
H283 C258 0.979 . S
H284 C258 0.980 . S
H285 C258 0.983 . S
H286 C257 0.982 . S
H287 C257 0.979 . S
H288 C257 0.977 . S
H289 C259 0.948 . S
H290 C261 0.947 . S
H291 C262 0.948 . S
H292 C268 0.982 . S
H293 C268 0.979 . S
H294 C268 0.977 . S
H295 C269 0.979 . S
H296 C269 0.980 . S
H297 C269 0.983 . S
H298 C242 0.947 . S
C299 C242 1.392 . S
C299 C243 1.419 . S
C299 H281 0.948 . S
C300 C301 1.391 . S
C300 C304 1.391 . S
C300 H342 0.948 . S
C301 C300 1.391 . S
C301 C302 1.391 . S
C302 C301 1.391 . S
C302 H358 0.947 . S
C302 C359 1.392 . S
C303 C304 1.391 . S
C303 C307 1.397 . S
C303 C359 1.419 . S
C304 C300 1.391 . S
C304 C303 1.391 . S
C304 C305 1.399 . S
C305 C304 1.399 . S
C305 C308 1.396 . S
C305 C317 1.453 . S
C305 C318 1.684 . S
H306 C330 0.948 . S
C307 C303 1.397 . S
C307 C308 1.394 . S
C307 C326 1.723 . S
C308 C305 1.396 . S
C308 C307 1.394 . S
C308 C338 1.723 1_655 S
H309 C332 0.947 . S
H310 C333 0.948 . S
H311 C339 0.982 . S
H312 C340 0.979 . S
H313 C340 0.980 . S
H314 C340 0.983 . S
H315 C339 0.979 . S
H316 C339 0.977 . S
C317 C305 1.453 . S
C317 H346 0.982 1_655 S
C317 H347 0.979 . S
C317 H348 0.977 1_655 S
C318 C305 1.684 . S
C318 H343 0.979 . S
C318 H344 0.980 . S
C318 H345 0.983 . S
C319 C320 1.391 1_655 S
C319 C324 1.391 . S
C319 H349 0.948 . S
C320 C319 1.391 1_455 S
C320 C321 1.391 . S
C321 C320 1.391 . S
C321 C322 1.392 . S
C321 H350 0.947 . S
C322 C321 1.392 . S
C322 C323 1.419 . S
C322 H351 0.948 . S
C323 C322 1.419 . S
C323 C324 1.391 1_455 S
C323 C327 1.397 . S
C324 C319 1.391 . S
C324 C323 1.391 1_655 S
C324 C325 1.399 . S
C325 C324 1.399 . S
C325 C326 1.396 . S
C325 C328 1.453 . S
C325 C329 1.684 . S
C326 C307 1.723 . S
C326 C325 1.396 . S
C326 C327 1.394 1_655 S
C327 C323 1.397 . S
C327 C326 1.394 1_455 S
C327 C337 1.723 . S
C328 C325 1.453 . S
C328 H352 0.982 . S
C328 H353 0.979 . S
C328 H354 0.977 . S
C329 C325 1.684 . S
C329 H355 0.979 . S
C329 H356 0.980 . S
C329 H357 0.983 . S
C330 H306 0.948 . S
C330 C331 1.391 . S
C330 C335 1.391 . S
C331 C330 1.391 . S
C331 C332 1.391 . S
C332 H309 0.947 . S
C332 C331 1.391 . S
C332 C333 1.392 . S
C333 H310 0.948 . S
C333 C332 1.392 . S
C333 C334 1.419 . S
C334 C333 1.419 . S
C334 C335 1.391 . S
C334 C338 1.397 . S
C335 C330 1.391 . S
C335 C334 1.391 . S
C335 C336 1.399 . S
C336 C335 1.399 . S
C336 C337 1.396 . S
C336 C339 1.453 . S
C336 C340 1.684 . S
C337 C327 1.723 . S
C337 C336 1.396 . S
C337 C338 1.394 . S
C338 C308 1.723 1_455 S
C338 C334 1.397 . S
C338 C337 1.394 . S
C339 H311 0.982 . S
C339 H315 0.979 . S
C339 H316 0.977 . S
C339 C336 1.453 . S
C340 H312 0.979 . S
C340 H313 0.980 . S
C340 H314 0.983 . S
C340 C336 1.684 . S
H341 C359 0.948 . S
H342 C300 0.948 . S
H343 C318 0.979 . S
H344 C318 0.980 . S
H345 C318 0.983 . S
H346 C317 0.982 1_455 S
H347 C317 0.979 . S
H348 C317 0.977 1_455 S
H349 C319 0.948 . S
H350 C321 0.947 . S
H351 C322 0.948 . S
H352 C328 0.982 . S
H353 C328 0.979 . S
H354 C328 0.977 . S
H355 C329 0.979 . S
H356 C329 0.980 . S
H357 C329 0.983 . S
H358 C302 0.947 . S
C359 C302 1.392 . S
C359 C303 1.419 . S
C359 H341 0.948 . S
C360 C361 1.391 . S
C360 C364 1.391 . S
C360 H402 0.948 . S
C361 C360 1.391 . S
C361 C362 1.391 . S
C362 C361 1.391 . S
C362 H418 0.947 . S
C362 C419 1.392 . S
C363 C364 1.391 . S
C363 C367 1.397 . S
C363 C419 1.419 . S
C364 C360 1.391 . S
C364 C363 1.391 . S
C364 C365 1.399 . S
C365 C364 1.399 . S
C365 C368 1.396 . S
C365 C377 1.453 1_565 S
C365 C378 1.684 . S
H366 C390 0.948 . S
C367 C363 1.397 . S
C367 C368 1.394 . S
C367 C386 1.723 . S
C368 C365 1.396 . S
C368 C367 1.394 . S
C368 C398 1.723 1_565 S
H369 C392 0.947 . S
H370 C393 0.948 . S
H371 C399 0.982 . S
H372 C400 0.979 . S
H373 C400 0.980 . S
H374 C400 0.983 . S
H375 C399 0.979 . S
H376 C399 0.977 . S
C377 C365 1.453 1_545 S
C377 H406 0.982 . S
C377 H407 0.979 1_545 S
C377 H408 0.977 . S
C378 C365 1.684 . S
C378 H403 0.979 . S
C378 H404 0.941 1_565 S
C378 H405 0.983 . S
C379 C380 1.391 . S
C379 C384 1.391 . S
C379 H409 0.948 . S
C380 C379 1.391 . S
C380 C381 1.391 1_565 S
C381 C380 1.391 1_545 S
C381 C382 1.392 . S
C381 H410 0.947 . S
C382 C381 1.392 . S
C382 C383 1.419 . S
C382 H411 0.948 . S
C383 C382 1.419 . S
C383 C384 1.391 1_545 S
C383 C387 1.397 . S
C384 C379 1.391 . S
C384 C383 1.391 1_565 S
C384 C385 1.399 . S
C385 C384 1.399 . S
C385 C386 1.396 . S
C385 C388 1.453 . S
C385 C389 1.684 . S
C386 C367 1.723 . S
C386 C385 1.396 . S
C386 C387 1.394 1_565 S
C387 C383 1.397 . S
C387 C386 1.394 1_545 S
C387 C397 1.723 . S
C388 C385 1.453 . S
C388 H412 0.982 . S
C388 H413 0.979 . S
C388 H414 0.977 . S
C389 C385 1.684 . S
C389 H415 0.979 . S
C389 H416 0.980 . S
C389 H417 0.983 . S
C390 H366 0.948 . S
C390 C391 1.391 . S
C390 C395 1.391 . S
C391 C390 1.391 . S
C391 C392 1.391 . S
C392 H369 0.947 . S
C392 C391 1.391 . S
C392 C393 1.392 . S
C393 H370 0.948 . S
C393 C392 1.392 . S
C393 C394 1.419 . S
C394 C393 1.419 . S
C394 C395 1.391 . S
C394 C398 1.397 . S
C395 C390 1.391 . S
C395 C394 1.391 . S
C395 C396 1.399 . S
C396 C395 1.399 . S
C396 C397 1.396 . S
C396 C399 1.453 . S
C396 C400 1.684 . S
C397 C387 1.723 . S
C397 C396 1.396 . S
C397 C398 1.394 . S
C398 C368 1.723 1_545 S
C398 C394 1.397 . S
C398 C397 1.394 . S
C399 H371 0.982 . S
C399 H375 0.979 . S
C399 H376 0.977 . S
C399 C396 1.453 . S
C400 H372 0.979 . S
C400 H373 0.980 . S
C400 H374 0.983 . S
C400 C396 1.684 . S
H401 C419 0.948 . S
H402 C360 0.948 . S
H403 C378 0.979 . S
H404 C378 0.941 1_545 S
H405 C378 0.983 . S
H406 C377 0.982 . S
H407 C377 0.979 1_565 S
H408 C377 0.977 . S
H409 C379 0.948 . S
H410 C381 0.947 . S
H411 C382 0.948 . S
H412 C388 0.982 . S
H413 C388 0.979 . S
H414 C388 0.977 . S
H415 C389 0.979 . S
H416 C389 0.980 . S
H417 C389 0.983 . S
H418 C362 0.947 . S
C419 C362 1.392 . S
C419 C363 1.419 . S
C419 H401 0.948 . S
C420 C421 1.391 . S
C420 C424 1.391 . S
C420 H462 0.948 . S
C421 C420 1.391 . S
C421 C422 1.391 . S
C422 C421 1.391 . S
C422 H478 0.947 . S
C422 C479 1.392 . S
C423 C424 1.391 . S
C423 C427 1.397 . S
C423 C479 1.419 . S
C424 C420 1.391 . S
C424 C423 1.391 . S
C424 C425 1.399 . S
C425 C424 1.399 . S
C425 C428 1.396 . S
C425 C437 1.453 . S
C425 C438 1.684 . S
H426 C450 0.948 . S
C427 C423 1.397 . S
C427 C428 1.394 . S
C427 C446 1.723 . S
C428 C425 1.396 . S
C428 C427 1.394 . S
C428 C458 1.723 . S
H429 C452 0.947 . S
H430 C453 0.948 . S
H431 C459 0.982 . S
H432 C460 0.979 . S
H433 C460 0.980 . S
H434 C460 0.983 . S
H435 C459 0.979 . S
H436 C459 0.977 . S
C437 C425 1.453 . S
C437 H466 0.982 . S
C437 H467 0.979 . S
C437 H468 0.977 . S
C438 C425 1.684 . S
C438 H463 0.979 . S
C438 H464 0.980 . S
C438 H465 0.983 . S
C439 C440 1.391 . S
C439 C444 1.391 . S
C439 H469 0.948 . S
C440 C439 1.391 . S
C440 C441 1.391 . S
C441 C440 1.391 . S
C441 C442 1.392 . S
C441 H470 0.947 . S
C442 C441 1.392 . S
C442 C443 1.419 . S
C442 H471 0.948 . S
C443 C442 1.419 . S
C443 C444 1.391 . S
C443 C447 1.397 . S
C444 C439 1.391 . S
C444 C443 1.391 . S
C444 C445 1.399 . S
C445 C444 1.399 . S
C445 C446 1.396 . S
C445 C448 1.453 . S
C445 C449 1.684 . S
C446 C427 1.723 . S
C446 C445 1.396 . S
C446 C447 1.394 . S
C447 C443 1.397 . S
C447 C446 1.394 . S
C447 C457 1.723 . S
C448 C445 1.453 . S
C448 H472 0.982 . S
C448 H473 0.979 . S
C448 H474 0.977 . S
C449 C445 1.684 . S
C449 H475 0.979 . S
C449 H476 0.980 . S
C449 H477 0.983 . S
C450 H426 0.948 . S
C450 C451 1.391 . S
C450 C455 1.391 . S
C451 C450 1.391 . S
C451 C452 1.391 . S
C452 H429 0.947 . S
C452 C451 1.391 . S
C452 C453 1.392 . S
C453 H430 0.948 . S
C453 C452 1.392 . S
C453 C454 1.419 . S
C454 C453 1.419 . S
C454 C455 1.391 . S
C454 C458 1.397 . S
C455 C450 1.391 . S
C455 C454 1.391 . S
C455 C456 1.399 . S
C456 C455 1.399 . S
C456 C457 1.396 . S
C456 C459 1.453 . S
C456 C460 1.684 . S
C457 C447 1.723 . S
C457 C456 1.396 . S
C457 C458 1.394 . S
C458 C428 1.723 . S
C458 C454 1.397 . S
C458 C457 1.394 . S
C459 H431 0.982 . S
C459 H435 0.979 . S
C459 H436 0.977 . S
C459 C456 1.453 . S
C460 H432 0.979 . S
C460 H433 0.980 . S
C460 H434 0.983 . S
C460 C456 1.684 . S
H461 C479 0.948 . S
H462 C420 0.948 . S
H463 C438 0.979 . S
H464 C438 0.980 . S
H465 C438 0.983 . S
H466 C437 0.982 . S
H467 C437 0.979 . S
H468 C437 0.977 . S
H469 C439 0.948 . S
H470 C441 0.947 . S
H471 C442 0.948 . S
H472 C448 0.982 . S
H473 C448 0.979 . S
H474 C448 0.977 . S
H475 C449 0.979 . S
H476 C449 0.980 . S
H477 C449 0.983 . S
H478 C422 0.947 . S
C479 C422 1.392 . S
C479 C423 1.419 . S
C479 H461 0.948 . S
H480 C498 0.951 . S
H481 C500 0.951 . S
H482 C502 0.950 . S
H483 C503 0.950 . S
H484 C505 0.950 . S
H485 C508 0.950 . S
H486 C509 0.950 . S
H487 C511 0.950 . S
H488 C512 0.950 . S
H489 C513 0.951 . S
H490 C515 0.951 . S
H491 C517 0.950 . S
H492 C518 0.950 . S
H493 C520 0.950 . S
H494 C523 0.950 . S
H495 C524 0.950 . S
H496 C526 0.950 . S
H497 C527 0.950 . S
C498 H480 0.951 . S
C498 C499 1.366 . S
C498 C500 1.388 . S
C499 C498 1.366 . S
C499 C503 1.385 . S
C500 H481 0.951 . S
C500 C498 1.388 . S
C500 C501 1.366 . S
C501 C500 1.366 . S
C501 C502 1.414 . S
C501 C504 1.499 . S
C502 H482 0.950 . S
C502 C501 1.414 . S
C502 C503 1.374 . S
C503 H483 0.950 . S
C503 C499 1.385 . S
C503 C502 1.374 . S
C504 C501 1.499 . S
C504 C505 1.373 . S
C504 C506 1.389 . S
C505 H484 0.950 . S
C505 C504 1.373 . S
C505 C521 1.377 . S
C506 C504 1.389 . S
C506 C507 1.524 . S
C506 C520 1.377 . S
C507 C506 1.524 . S
C507 C508 1.397 . S
C507 C512 1.363 . S
C508 H485 0.950 . S
C508 C507 1.397 . S
C508 C509 1.334 . S
C509 H486 0.950 . S
C509 C508 1.334 . S
C509 C510 1.287 . S
C510 C509 1.287 . S
C510 C511 1.524 . S
C510 H529 0.913 . S
C511 H487 0.950 . S
C511 C510 1.524 . S
C511 C512 1.415 . S
C512 H488 0.950 . S
C512 C507 1.363 . S
C512 C511 1.415 . S
C513 H489 0.951 . S
C513 C514 1.366 . S
C513 C515 1.388 . S
C514 C513 1.366 . S
C514 C518 1.385 . S
C515 H490 0.951 . S
C515 C513 1.388 . S
C515 C516 1.366 . S
C516 C515 1.366 . S
C516 C517 1.414 . S
C516 C519 1.499 . S
C517 H491 0.950 . S
C517 C516 1.414 . S
C517 C518 1.374 . S
C518 H492 0.950 . S
C518 C514 1.385 . S
C518 C517 1.374 . S
C519 C516 1.499 . S
C519 C520 1.373 . S
C519 C521 1.389 . S
C520 H493 0.950 . S
C520 C506 1.377 . S
C520 C519 1.373 . S
C521 C505 1.377 . S
C521 C519 1.389 . S
C521 C522 1.524 . S
C522 C521 1.524 . S
C522 C523 1.397 . S
C522 C527 1.363 . S
C523 H494 0.950 . S
C523 C522 1.397 . S
C523 C524 1.334 . S
C524 H495 0.950 . S
C524 C523 1.334 . S
C524 C525 1.287 . S
C525 C524 1.287 . S
C525 C526 1.524 . S
C525 H528 0.999 . S
C526 H496 0.950 . S
C526 C525 1.524 . S
C526 C527 1.415 . S
C527 H497 0.950 . S
C527 C522 1.363 . S
C527 C526 1.415 . S
H528 C525 0.999 . S
H529 C510 0.913 . S
H530 C548 0.951 . S
H531 C550 0.951 . S
H532 C552 0.950 . S
H533 C553 0.950 . S
H534 C555 0.950 . S
H535 C558 0.950 . S
H536 C559 0.950 . S
H537 C561 0.950 . S
H538 C562 0.950 . S
H539 C563 0.951 . S
H540 C565 0.951 . S
H541 C567 0.950 . S
H542 C568 0.950 . S
H543 C570 0.950 . S
H544 C573 0.950 . S
H545 C574 0.950 . S
H546 C576 0.950 . S
H547 C577 0.950 . S
C548 H530 0.951 . S
C548 C549 1.366 . S
C548 C550 1.388 . S
C549 C548 1.366 . S
C549 C553 1.385 . S
C550 H531 0.951 . S
C550 C548 1.388 . S
C550 C551 1.366 . S
C551 C550 1.366 . S
C551 C552 1.414 . S
C551 C554 1.499 . S
C552 H532 0.950 . S
C552 C551 1.414 . S
C552 C553 1.374 . S
C553 H533 0.950 . S
C553 C549 1.385 . S
C553 C552 1.374 . S
C554 C551 1.499 . S
C554 C555 1.373 . S
C554 C556 1.389 . S
C555 H534 0.950 . S
C555 C554 1.373 . S
C555 C571 1.377 . S
C556 C554 1.389 . S
C556 C557 1.524 . S
C556 C570 1.377 . S
C557 C556 1.524 . S
C557 C558 1.397 . S
C557 C562 1.363 . S
C558 H535 0.950 . S
C558 C557 1.397 . S
C558 C559 1.334 . S
C559 H536 0.950 . S
C559 C558 1.334 . S
C559 C560 1.287 . S
C560 C559 1.287 . S
C560 C561 1.524 . S
C560 H579 0.913 . S
C561 H537 0.950 . S
C561 C560 1.524 . S
C561 C562 1.415 . S
C562 H538 0.950 . S
C562 C557 1.363 . S
C562 C561 1.415 . S
C563 H539 0.951 . S
C563 C564 1.366 . S
C563 C565 1.388 . S
C564 C563 1.366 . S
C564 C568 1.385 . S
C565 H540 0.951 . S
C565 C563 1.388 . S
C565 C566 1.366 . S
C566 C565 1.366 . S
C566 C567 1.414 . S
C566 C569 1.499 . S
C567 H541 0.950 . S
C567 C566 1.414 . S
C567 C568 1.374 . S
C568 H542 0.950 . S
C568 C564 1.385 . S
C568 C567 1.374 . S
C569 C566 1.499 . S
C569 C570 1.373 . S
C569 C571 1.389 . S
C570 H543 0.950 . S
C570 C556 1.377 . S
C570 C569 1.373 . S
C571 C555 1.377 . S
C571 C569 1.389 . S
C571 C572 1.524 . S
C572 C571 1.524 . S
C572 C573 1.397 . S
C572 C577 1.363 . S
C573 H544 0.950 . S
C573 C572 1.397 . S
C573 C574 1.334 . S
C574 H545 0.950 . S
C574 C573 1.334 . S
C574 C575 1.287 . S
C575 C574 1.287 . S
C575 C576 1.524 . S
C575 H578 0.999 . S
C576 H546 0.950 . S
C576 C575 1.524 . S
C576 C577 1.415 . S
C577 H547 0.950 . S
C577 C572 1.363 . S
C577 C576 1.415 . S
H578 C575 0.999 . S
H579 C560 0.913 . S
H580 C598 0.951 . S
H581 C600 0.951 . S
H582 C602 0.950 . S
H583 C603 0.950 . S
H584 C605 0.950 . S
H585 C608 0.950 . S
H586 C609 0.950 . S
H587 C611 0.950 . S
H588 C612 0.950 . S
H589 C613 0.951 . S
H590 C615 0.951 . S
H591 C617 0.950 . S
H592 C618 0.950 . S
H593 C620 0.950 . S
H594 C623 0.950 . S
H595 C624 0.950 . S
H596 C626 0.950 . S
H597 C627 0.950 . S
C598 H580 0.951 . S
C598 C599 1.366 . S
C598 C600 1.388 . S
C599 C598 1.366 . S
C599 C603 1.385 . S
C600 H581 0.951 . S
C600 C598 1.388 . S
C600 C601 1.366 . S
C601 C600 1.366 . S
C601 C602 1.414 . S
C601 C604 1.499 . S
C602 H582 0.950 . S
C602 C601 1.414 . S
C602 C603 1.374 . S
C603 H583 0.950 . S
C603 C599 1.385 . S
C603 C602 1.374 . S
C604 C601 1.499 . S
C604 C605 1.373 . S
C604 C606 1.389 . S
C605 H584 0.950 . S
C605 C604 1.373 . S
C605 C621 1.377 . S
C606 C604 1.389 . S
C606 C607 1.524 . S
C606 C620 1.377 . S
C607 C606 1.524 . S
C607 C608 1.397 . S
C607 C612 1.363 . S
C608 H585 0.950 . S
C608 C607 1.397 . S
C608 C609 1.334 . S
C609 H586 0.950 . S
C609 C608 1.334 . S
C609 C610 1.287 . S
C610 C609 1.287 . S
C610 C611 1.524 . S
C610 H629 0.913 . S
C611 H587 0.950 . S
C611 C610 1.524 . S
C611 C612 1.415 . S
C612 H588 0.950 . S
C612 C607 1.363 . S
C612 C611 1.415 . S
C613 H589 0.951 . S
C613 C614 1.366 . S
C613 C615 1.388 . S
C614 C613 1.366 . S
C614 C618 1.385 . S
C615 H590 0.951 . S
C615 C613 1.388 . S
C615 C616 1.366 . S
C616 C615 1.366 . S
C616 C617 1.414 . S
C616 C619 1.499 . S
C617 H591 0.950 . S
C617 C616 1.414 . S
C617 C618 1.374 . S
C618 H592 0.950 . S
C618 C614 1.385 . S
C618 C617 1.374 . S
C619 C616 1.499 . S
C619 C620 1.373 . S
C619 C621 1.389 . S
C620 H593 0.950 . S
C620 C606 1.377 . S
C620 C619 1.373 . S
C621 C605 1.377 . S
C621 C619 1.389 . S
C621 C622 1.524 . S
C622 C621 1.524 . S
C622 C623 1.397 . S
C622 C627 1.363 . S
C623 H594 0.950 . S
C623 C622 1.397 . S
C623 C624 1.334 . S
C624 H595 0.950 . S
C624 C623 1.334 . S
C624 C625 1.287 . S
C625 C624 1.287 . S
C625 C626 1.524 . S
C625 H628 0.999 . S
C626 H596 0.950 . S
C626 C625 1.524 . S
C626 C627 1.415 . S
C627 H597 0.950 . S
C627 C622 1.363 . S
C627 C626 1.415 . S
H628 C625 0.999 . S
H629 C610 0.913 . S
H630 C648 0.951 . S
H631 C650 0.951 . S
H632 C652 0.950 . S
H633 C653 0.950 . S
H634 C655 0.950 . S
H635 C658 0.950 . S
H636 C659 0.950 . S
H637 C661 0.950 . S
H638 C662 0.950 . S
H639 C663 0.951 . S
H640 C665 0.951 . S
H641 C667 0.950 . S
H642 C668 0.950 . S
H643 C670 0.950 . S
H644 C673 0.950 . S
H645 C674 0.950 . S
H646 C676 0.950 . S
H647 C677 0.950 . S
C648 H630 0.951 . S
C648 C649 1.366 . S
C648 C650 1.388 . S
C649 C648 1.366 . S
C649 C653 1.385 . S
C650 H631 0.951 . S
C650 C648 1.388 . S
C650 C651 1.366 . S
C651 C650 1.366 . S
C651 C652 1.414 . S
C651 C654 1.499 . S
C652 H632 0.950 . S
C652 C651 1.414 . S
C652 C653 1.374 . S
C653 H633 0.950 . S
C653 C649 1.385 . S
C653 C652 1.374 . S
C654 C651 1.499 . S
C654 C655 1.373 . S
C654 C656 1.389 . S
C655 H634 0.950 . S
C655 C654 1.373 . S
C655 C671 1.377 . S
C656 C654 1.389 . S
C656 C657 1.524 . S
C656 C670 1.377 . S
C657 C656 1.524 . S
C657 C658 1.397 . S
C657 C662 1.363 . S
C658 H635 0.950 . S
C658 C657 1.397 . S
C658 C659 1.334 . S
C659 H636 0.950 . S
C659 C658 1.334 . S
C659 C660 1.287 . S
C660 C659 1.287 . S
C660 C661 1.524 . S
C660 H679 0.913 . S
C661 H637 0.950 . S
C661 C660 1.524 . S
C661 C662 1.415 . S
C662 H638 0.950 . S
C662 C657 1.363 . S
C662 C661 1.415 . S
C663 H639 0.951 . S
C663 C664 1.366 . S
C663 C665 1.388 . S
C664 C663 1.366 . S
C664 C668 1.385 . S
C665 H640 0.951 . S
C665 C663 1.388 . S
C665 C666 1.366 . S
C666 C665 1.366 . S
C666 C667 1.414 . S
C666 C669 1.499 . S
C667 H641 0.950 . S
C667 C666 1.414 . S
C667 C668 1.374 . S
C668 H642 0.950 . S
C668 C664 1.385 . S
C668 C667 1.374 . S
C669 C666 1.499 . S
C669 C670 1.373 . S
C669 C671 1.389 . S
C670 H643 0.950 . S
C670 C656 1.377 . S
C670 C669 1.373 . S
C671 C655 1.377 . S
C671 C669 1.389 . S
C671 C672 1.524 . S
C672 C671 1.524 . S
C672 C673 1.397 . S
C672 C677 1.363 . S
C673 H644 0.950 . S
C673 C672 1.397 . S
C673 C674 1.334 . S
C674 H645 0.950 . S
C674 C673 1.334 . S
C674 C675 1.287 . S
C675 C674 1.287 . S
C675 C676 1.524 . S
C675 H678 0.999 . S
C676 H646 0.950 . S
C676 C675 1.524 . S
C676 C677 1.415 . S
C677 H647 0.950 . S
C677 C672 1.363 . S
C677 C676 1.415 . S
H678 C675 0.999 . S
H679 C660 0.913 . S
H680 C698 0.951 . S
H681 C700 0.951 . S
H682 C702 0.950 . S
H683 C703 0.950 . S
H684 C705 0.950 . S
H685 C708 0.950 . S
H686 C709 0.950 . S
H687 C711 0.950 . S
H688 C712 0.950 . S
H689 C713 0.951 . S
H690 C715 0.951 . S
H691 C717 0.950 . S
H692 C718 0.950 . S
H693 C720 0.950 . S
H694 C723 0.950 . S
H695 C724 0.950 . S
H696 C726 0.950 . S
H697 C727 0.950 . S
C698 H680 0.951 . S
C698 C699 1.366 . S
C698 C700 1.388 . S
C699 C698 1.366 . S
C699 C703 1.385 . S
C700 H681 0.951 . S
C700 C698 1.388 . S
C700 C701 1.366 . S
C701 C700 1.366 . S
C701 C702 1.414 . S
C701 C704 1.499 . S
C702 H682 0.950 . S
C702 C701 1.414 . S
C702 C703 1.374 . S
C703 H683 0.950 . S
C703 C699 1.385 . S
C703 C702 1.374 . S
C704 C701 1.499 . S
C704 C705 1.373 . S
C704 C706 1.389 . S
C705 H684 0.950 . S
C705 C704 1.373 . S
C705 C721 1.377 . S
C706 C704 1.389 . S
C706 C707 1.524 . S
C706 C720 1.377 . S
C707 C706 1.524 . S
C707 C708 1.397 . S
C707 C712 1.363 . S
C708 H685 0.950 . S
C708 C707 1.397 . S
C708 C709 1.334 . S
C709 H686 0.950 . S
C709 C708 1.334 . S
C709 C710 1.287 . S
C710 C709 1.287 . S
C710 C711 1.524 . S
C710 H729 0.913 . S
C711 H687 0.950 . S
C711 C710 1.524 . S
C711 C712 1.415 . S
C712 H688 0.950 . S
C712 C707 1.363 . S
C712 C711 1.415 . S
C713 H689 0.951 . S
C713 C714 1.366 . S
C713 C715 1.388 . S
C714 C713 1.366 . S
C714 C718 1.385 . S
C715 H690 0.951 . S
C715 C713 1.388 . S
C715 C716 1.366 . S
C716 C715 1.366 . S
C716 C717 1.414 . S
C716 C719 1.499 . S
C717 H691 0.950 . S
C717 C716 1.414 . S
C717 C718 1.374 . S
C718 H692 0.950 . S
C718 C714 1.385 . S
C718 C717 1.374 . S
C719 C716 1.499 . S
C719 C720 1.373 . S
C719 C721 1.389 . S
C720 H693 0.950 . S
C720 C706 1.377 . S
C720 C719 1.373 . S
C721 C705 1.377 . S
C721 C719 1.389 . S
C721 C722 1.524 . S
C722 C721 1.524 . S
C722 C723 1.397 . S
C722 C727 1.363 . S
C723 H694 0.950 . S
C723 C722 1.397 . S
C723 C724 1.334 . S
C724 H695 0.950 . S
C724 C723 1.334 . S
C724 C725 1.287 . S
C725 C724 1.287 . S
C725 C726 1.524 . S
C725 H728 0.999 . S
C726 H696 0.950 . S
C726 C725 1.524 . S
C726 C727 1.415 . S
C727 H697 0.950 . S
C727 C722 1.363 . S
C727 C726 1.415 . S
H728 C725 0.999 . S
H729 C710 0.913 . S
H730 C748 0.951 . S
H731 C750 0.951 . S
H732 C752 0.950 . S
H733 C753 0.950 . S
H734 C755 0.950 . S
H735 C758 0.950 . S
H736 C759 0.950 . S
H737 C761 0.950 . S
H738 C762 0.950 . S
H739 C763 0.951 . S
H740 C765 0.951 . S
H741 C767 0.950 . S
H742 C768 0.950 . S
H743 C770 0.950 . S
H744 C773 0.950 . S
H745 C774 0.950 . S
H746 C776 0.950 . S
H747 C777 0.950 . S
C748 H730 0.951 . S
C748 C749 1.366 . S
C748 C750 1.388 . S
C749 C748 1.366 . S
C749 C753 1.385 . S
C750 H731 0.951 . S
C750 C748 1.388 . S
C750 C751 1.366 . S
C751 C750 1.366 . S
C751 C752 1.414 . S
C751 C754 1.499 . S
C752 H732 0.950 . S
C752 C751 1.414 . S
C752 C753 1.374 . S
C753 H733 0.950 . S
C753 C749 1.385 . S
C753 C752 1.374 . S
C754 C751 1.499 . S
C754 C755 1.373 . S
C754 C756 1.389 . S
C755 H734 0.950 . S
C755 C754 1.373 . S
C755 C771 1.377 . S
C756 C754 1.389 . S
C756 C757 1.524 . S
C756 C770 1.377 . S
C757 C756 1.524 . S
C757 C758 1.397 . S
C757 C762 1.363 . S
C758 H735 0.950 . S
C758 C757 1.397 . S
C758 C759 1.334 . S
C759 H736 0.950 . S
C759 C758 1.334 . S
C759 C760 1.287 . S
C760 C759 1.287 . S
C760 C761 1.524 . S
C760 H779 0.913 . S
C761 H737 0.950 . S
C761 C760 1.524 . S
C761 C762 1.415 . S
C762 H738 0.950 . S
C762 C757 1.363 . S
C762 C761 1.415 . S
C763 H739 0.951 . S
C763 C764 1.366 . S
C763 C765 1.388 . S
C764 C763 1.366 . S
C764 C768 1.385 . S
C765 H740 0.951 . S
C765 C763 1.388 . S
C765 C766 1.366 . S
C766 C765 1.366 . S
C766 C767 1.414 . S
C766 C769 1.499 . S
C767 H741 0.950 . S
C767 C766 1.414 . S
C767 C768 1.374 . S
C768 H742 0.950 . S
C768 C764 1.385 . S
C768 C767 1.374 . S
C769 C766 1.499 . S
C769 C770 1.373 . S
C769 C771 1.389 . S
C770 H743 0.950 . S
C770 C756 1.377 . S
C770 C769 1.373 . S
C771 C755 1.377 . S
C771 C769 1.389 . S
C771 C772 1.524 . S
C772 C771 1.524 . S
C772 C773 1.397 . S
C772 C777 1.363 . S
C773 H744 0.950 . S
C773 C772 1.397 . S
C773 C774 1.334 . S
C774 H745 0.950 . S
C774 C773 1.334 . S
C774 C775 1.287 . S
C775 C774 1.287 . S
C775 C776 1.524 . S
C775 H778 0.999 . S
C776 H746 0.950 . S
C776 C775 1.524 . S
C776 C777 1.415 . S
C777 H747 0.950 . S
C777 C772 1.363 . S
C777 C776 1.415 . S
H778 C775 0.999 . S
H779 C760 0.913 . S
H780 C798 0.951 . S
H781 C800 0.951 . S
H782 C802 0.950 . S
H783 C803 0.950 . S
H784 C805 0.950 . S
H785 C808 0.950 . S
H786 C809 0.950 . S
H787 C811 0.950 . S
H788 C812 0.950 . S
H789 C813 0.951 . S
H790 C815 0.951 . S
H791 C817 0.950 . S
H792 C818 0.950 . S
H793 C820 0.950 . S
H794 C823 0.950 . S
H795 C824 0.950 . S
H796 C826 0.950 . S
H797 C827 0.950 . S
C798 H780 0.951 . S
C798 C799 1.366 . S
C798 C800 1.388 . S
C799 C798 1.366 . S
C799 C803 1.385 . S
C800 H781 0.951 . S
C800 C798 1.388 . S
C800 C801 1.366 . S
C801 C800 1.366 . S
C801 C802 1.414 . S
C801 C804 1.499 . S
C802 H782 0.950 . S
C802 C801 1.414 . S
C802 C803 1.374 . S
C803 H783 0.950 . S
C803 C799 1.385 . S
C803 C802 1.374 . S
C804 C801 1.499 . S
C804 C805 1.373 . S
C804 C806 1.389 . S
C805 H784 0.950 . S
C805 C804 1.373 . S
C805 C821 1.377 . S
C806 C804 1.389 . S
C806 C807 1.524 . S
C806 C820 1.377 . S
C807 C806 1.524 . S
C807 C808 1.397 . S
C807 C812 1.363 . S
C808 H785 0.950 . S
C808 C807 1.397 . S
C808 C809 1.334 . S
C809 H786 0.950 . S
C809 C808 1.334 . S
C809 C810 1.287 . S
C810 C809 1.287 . S
C810 C811 1.524 . S
C810 H829 0.913 . S
C811 H787 0.950 . S
C811 C810 1.524 . S
C811 C812 1.415 . S
C812 H788 0.950 . S
C812 C807 1.363 . S
C812 C811 1.415 . S
C813 H789 0.951 . S
C813 C814 1.366 . S
C813 C815 1.388 . S
C814 C813 1.366 . S
C814 C818 1.385 . S
C815 H790 0.951 . S
C815 C813 1.388 . S
C815 C816 1.366 . S
C816 C815 1.366 . S
C816 C817 1.414 . S
C816 C819 1.499 . S
C817 H791 0.950 . S
C817 C816 1.414 . S
C817 C818 1.374 . S
C818 H792 0.950 . S
C818 C814 1.385 . S
C818 C817 1.374 . S
C819 C816 1.499 . S
C819 C820 1.373 . S
C819 C821 1.389 . S
C820 H793 0.950 . S
C820 C806 1.377 . S
C820 C819 1.373 . S
C821 C805 1.377 . S
C821 C819 1.389 . S
C821 C822 1.524 . S
C822 C821 1.524 . S
C822 C823 1.397 . S
C822 C827 1.363 . S
C823 H794 0.950 . S
C823 C822 1.397 . S
C823 C824 1.334 . S
C824 H795 0.950 . S
C824 C823 1.334 . S
C824 C825 1.287 . S
C825 C824 1.287 . S
C825 C826 1.524 . S
C825 H828 0.999 . S
C826 H796 0.950 . S
C826 C825 1.524 . S
C826 C827 1.415 . S
C827 H797 0.950 . S
C827 C822 1.363 . S
C827 C826 1.415 . S
H828 C825 0.999 . S
H829 C810 0.913 . S
H830 C848 0.951 . S
H831 C850 0.951 . S
H832 C852 0.950 . S
H833 C853 0.950 . S
H834 C855 0.950 . S
H835 C858 0.950 . S
H836 C859 0.950 . S
H837 C861 0.950 . S
H838 C862 0.950 . S
H839 C863 0.951 . S
H840 C865 0.951 . S
H841 C867 0.950 . S
H842 C868 0.950 . S
H843 C870 0.950 . S
H844 C873 0.950 . S
H845 C874 0.950 . S
H846 C876 0.950 . S
H847 C877 0.950 . S
C848 H830 0.951 . S
C848 C849 1.366 . S
C848 C850 1.388 . S
C849 C848 1.366 . S
C849 C853 1.385 . S
C850 H831 0.951 . S
C850 C848 1.388 . S
C850 C851 1.366 . S
C851 C850 1.366 . S
C851 C852 1.414 . S
C851 C854 1.499 . S
C852 H832 0.950 . S
C852 C851 1.414 . S
C852 C853 1.374 . S
C853 H833 0.950 . S
C853 C849 1.385 . S
C853 C852 1.374 . S
C854 C851 1.499 . S
C854 C855 1.373 . S
C854 C856 1.389 . S
C855 H834 0.950 . S
C855 C854 1.373 . S
C855 C871 1.377 . S
C856 C854 1.389 . S
C856 C857 1.524 . S
C856 C870 1.377 . S
C857 C856 1.524 . S
C857 C858 1.397 . S
C857 C862 1.363 . S
C858 H835 0.950 . S
C858 C857 1.397 . S
C858 C859 1.334 . S
C859 H836 0.950 . S
C859 C858 1.334 . S
C859 C860 1.287 . S
C860 C859 1.287 . S
C860 C861 1.524 . S
C860 H879 0.913 . S
C861 H837 0.950 . S
C861 C860 1.524 . S
C861 C862 1.415 . S
C862 H838 0.950 . S
C862 C857 1.363 . S
C862 C861 1.415 . S
C863 H839 0.951 . S
C863 C864 1.366 . S
C863 C865 1.388 . S
C864 C863 1.366 . S
C864 C868 1.385 . S
C865 H840 0.951 . S
C865 C863 1.388 . S
C865 C866 1.366 . S
C866 C865 1.366 . S
C866 C867 1.414 . S
C866 C869 1.499 . S
C867 H841 0.950 . S
C867 C866 1.414 . S
C867 C868 1.374 . S
C868 H842 0.950 . S
C868 C864 1.385 . S
C868 C867 1.374 . S
C869 C866 1.499 . S
C869 C870 1.373 . S
C869 C871 1.389 . S
C870 H843 0.950 . S
C870 C856 1.377 . S
C870 C869 1.373 . S
C871 C855 1.377 . S
C871 C869 1.389 . S
C871 C872 1.524 . S
C872 C871 1.524 . S
C872 C873 1.397 . S
C872 C877 1.363 . S
C873 H844 0.950 . S
C873 C872 1.397 . S
C873 C874 1.334 . S
C874 H845 0.950 . S
C874 C873 1.334 . S
C874 C875 1.287 . S
C875 C874 1.287 . S
C875 C876 1.524 . S
C875 H878 0.999 . S
C876 H846 0.950 . S
C876 C875 1.524 . S
C876 C877 1.415 . S
C877 H847 0.950 . S
C877 C872 1.363 . S
C877 C876 1.415 . S
H878 C875 0.999 . S
H879 C860 0.913 . S
H880 C898 0.951 . S
H881 C900 0.951 . S
H882 C902 0.950 . S
H883 C903 0.950 . S
H884 C905 0.950 . S
H885 C908 0.950 . S
H886 C909 0.950 . S
H887 C911 0.950 . S
H888 C912 0.950 . S
H889 C913 0.951 . S
H890 C915 0.951 . S
H891 C917 0.950 . S
H892 C918 0.950 . S
H893 C920 0.950 . S
H894 C923 0.950 . S
H895 C924 0.950 . S
H896 C926 0.950 . S
H897 C927 0.950 . S
C898 H880 0.951 . S
C898 C899 1.366 . S
C898 C900 1.388 . S
C899 C898 1.366 . S
C899 C903 1.385 . S
C900 H881 0.951 . S
C900 C898 1.388 . S
C900 C901 1.366 . S
C901 C900 1.366 . S
C901 C902 1.414 . S
C901 C904 1.499 . S
C902 H882 0.950 . S
C902 C901 1.414 . S
C902 C903 1.374 . S
C903 H883 0.950 . S
C903 C899 1.385 . S
C903 C902 1.374 . S
C904 C901 1.499 . S
C904 C905 1.373 . S
C904 C906 1.389 . S
C905 H884 0.950 . S
C905 C904 1.373 . S
C905 C921 1.377 . S
C906 C904 1.389 . S
C906 C907 1.524 . S
C906 C920 1.377 . S
C907 C906 1.524 . S
C907 C908 1.397 . S
C907 C912 1.363 . S
C908 H885 0.950 . S
C908 C907 1.397 . S
C908 C909 1.334 . S
C909 H886 0.950 . S
C909 C908 1.334 . S
C909 C910 1.287 . S
C910 C909 1.287 . S
C910 C911 1.524 . S
C910 H929 0.913 . S
C911 H887 0.950 . S
C911 C910 1.524 . S
C911 C912 1.415 . S
C912 H888 0.950 . S
C912 C907 1.363 . S
C912 C911 1.415 . S
C913 H889 0.951 . S
C913 C914 1.366 . S
C913 C915 1.388 . S
C914 C913 1.366 . S
C914 C918 1.385 . S
C915 H890 0.951 . S
C915 C913 1.388 . S
C915 C916 1.366 . S
C916 C915 1.366 . S
C916 C917 1.414 . S
C916 C919 1.499 . S
C917 H891 0.950 . S
C917 C916 1.414 . S
C917 C918 1.374 . S
C918 H892 0.950 . S
C918 C914 1.385 . S
C918 C917 1.374 . S
C919 C916 1.499 . S
C919 C920 1.373 . S
C919 C921 1.389 . S
C920 H893 0.950 . S
C920 C906 1.377 . S
C920 C919 1.373 . S
C921 C905 1.377 . S
C921 C919 1.389 . S
C921 C922 1.524 . S
C922 C921 1.524 . S
C922 C923 1.397 . S
C922 C927 1.363 . S
C923 H894 0.950 . S
C923 C922 1.397 . S
C923 C924 1.334 . S
C924 H895 0.950 . S
C924 C923 1.334 . S
C924 C925 1.287 . S
C925 C924 1.287 . S
C925 C926 1.524 . S
C925 H928 0.999 . S
C926 H896 0.950 . S
C926 C925 1.524 . S
C926 C927 1.415 . S
C927 H897 0.950 . S
C927 C922 1.363 . S
C927 C926 1.415 . S
H928 C925 0.999 . S
H929 C910 0.913 . S
H930 C948 0.951 . S
H931 C950 0.951 . S
H932 C952 0.950 . S
H933 C953 0.950 . S
H934 C955 0.950 . S
H935 C958 0.950 . S
H936 C959 0.950 . S
H937 C961 0.950 . S
H938 C962 0.950 . S
H939 C963 0.951 . S
H940 C965 0.951 . S
H941 C967 0.950 . S
H942 C968 0.950 . S
H943 C970 0.950 . S
H944 C973 0.950 . S
H945 C974 0.950 . S
H946 C976 0.950 . S
H947 C977 0.950 . S
C948 H930 0.951 . S
C948 C949 1.366 . S
C948 C950 1.388 . S
C949 C948 1.366 . S
C949 C953 1.385 . S
C950 H931 0.951 . S
C950 C948 1.388 . S
C950 C951 1.366 . S
C951 C950 1.366 . S
C951 C952 1.414 . S
C951 C954 1.499 . S
C952 H932 0.950 . S
C952 C951 1.414 . S
C952 C953 1.374 . S
C953 H933 0.950 . S
C953 C949 1.385 . S
C953 C952 1.374 . S
C954 C951 1.499 . S
C954 C955 1.373 . S
C954 C956 1.389 . S
C955 H934 0.950 . S
C955 C954 1.373 . S
C955 C971 1.377 . S
C956 C954 1.389 . S
C956 C957 1.524 . S
C956 C970 1.377 . S
C957 C956 1.524 . S
C957 C958 1.397 . S
C957 C962 1.363 . S
C958 H935 0.950 . S
C958 C957 1.397 . S
C958 C959 1.334 . S
C959 H936 0.950 . S
C959 C958 1.334 . S
C959 C960 1.287 . S
C960 C959 1.287 . S
C960 C961 1.524 . S
C960 H979 0.913 . S
C961 H937 0.950 . S
C961 C960 1.524 . S
C961 C962 1.415 . S
C962 H938 0.950 . S
C962 C957 1.363 . S
C962 C961 1.415 . S
C963 H939 0.951 . S
C963 C964 1.366 . S
C963 C965 1.388 . S
C964 C963 1.366 . S
C964 C968 1.385 . S
C965 H940 0.951 . S
C965 C963 1.388 . S
C965 C966 1.366 . S
C966 C965 1.366 . S
C966 C967 1.414 . S
C966 C969 1.499 . S
C967 H941 0.950 . S
C967 C966 1.414 . S
C967 C968 1.374 . S
C968 H942 0.950 . S
C968 C964 1.385 . S
C968 C967 1.374 . S
C969 C966 1.499 . S
C969 C970 1.373 . S
C969 C971 1.389 . S
C970 H943 0.950 . S
C970 C956 1.377 . S
C970 C969 1.373 . S
C971 C955 1.377 . S
C971 C969 1.389 . S
C971 C972 1.524 . S
C972 C971 1.524 . S
C972 C973 1.397 . S
C972 C977 1.363 . S
C973 H944 0.950 . S
C973 C972 1.397 . S
C973 C974 1.334 . S
C974 H945 0.950 . S
C974 C973 1.334 . S
C974 C975 1.287 . S
C975 C974 1.287 . S
C975 C976 1.524 . S
C975 H978 0.999 . S
C976 H946 0.950 . S
C976 C975 1.524 . S
C976 C977 1.415 . S
C977 H947 0.950 . S
C977 C972 1.363 . S
C977 C976 1.415 . S
H978 C975 0.999 . S
H979 C960 0.913 . S
H980 C998 0.951 . S
H981 C1000 0.951 . S
H982 C1002 0.950 . S
H983 C1003 0.950 . S
H984 C1005 0.950 . S
H985 C1008 0.950 . S
H986 C1009 0.950 . S
H987 C1011 0.950 . S
H988 C1012 0.950 . S
H989 C1013 0.951 . S
H990 C1015 0.951 . S
H991 C1017 0.950 . S
H992 C1018 0.950 . S
H993 C1020 0.950 . S
H994 C1023 0.950 . S
H995 C1024 0.950 . S
H996 C1026 0.950 . S
H997 C1027 0.950 . S
C998 H980 0.951 . S
C998 C999 1.366 . S
C998 C1000 1.388 . S
C999 C998 1.366 . S
C999 C1003 1.385 . S
C1000 H981 0.951 . S
C1000 C998 1.388 . S
C1000 C1001 1.366 . S
C1001 C1000 1.366 . S
C1001 C1002 1.414 . S
C1001 C1004 1.499 . S
C1002 H982 0.950 . S
C1002 C1001 1.414 . S
C1002 C1003 1.374 . S
C1003 H983 0.950 . S
C1003 C999 1.385 . S
C1003 C1002 1.374 . S
C1004 C1001 1.499 . S
C1004 C1005 1.373 . S
C1004 C1006 1.389 . S
C1005 H984 0.950 . S
C1005 C1004 1.373 . S
C1005 C1021 1.377 . S
C1006 C1004 1.389 . S
C1006 C1007 1.524 . S
C1006 C1020 1.377 . S
C1007 C1006 1.524 . S
C1007 C1008 1.397 . S
C1007 C1012 1.363 . S
C1008 H985 0.950 . S
C1008 C1007 1.397 . S
C1008 C1009 1.334 . S
C1009 H986 0.950 . S
C1009 C1008 1.334 . S
C1009 C1010 1.287 . S
C1010 C1009 1.287 . S
C1010 C1011 1.524 . S
C1010 H1029 0.913 . S
C1011 H987 0.950 . S
C1011 C1010 1.524 . S
C1011 C1012 1.415 . S
C1012 H988 0.950 . S
C1012 C1007 1.363 . S
C1012 C1011 1.415 . S
C1013 H989 0.951 . S
C1013 C1014 1.366 . S
C1013 C1015 1.388 . S
C1014 C1013 1.366 . S
C1014 C1018 1.385 . S
C1015 H990 0.951 . S
C1015 C1013 1.388 . S
C1015 C1016 1.366 . S
C1016 C1015 1.366 . S
C1016 C1017 1.414 . S
C1016 C1019 1.499 . S
C1017 H991 0.950 . S
C1017 C1016 1.414 . S
C1017 C1018 1.374 . S
C1018 H992 0.950 . S
C1018 C1014 1.385 . S
C1018 C1017 1.374 . S
C1019 C1016 1.499 . S
C1019 C1020 1.373 . S
C1019 C1021 1.389 . S
C1020 H993 0.950 . S
C1020 C1006 1.377 . S
C1020 C1019 1.373 . S
C1021 C1005 1.377 . S
C1021 C1019 1.389 . S
C1021 C1022 1.524 . S
C1022 C1021 1.524 . S
C1022 C1023 1.397 . S
C1022 C1027 1.363 . S
C1023 H994 0.950 . S
C1023 C1022 1.397 . S
C1023 C1024 1.334 . S
C1024 H995 0.950 . S
C1024 C1023 1.334 . S
C1024 C1025 1.287 . S
C1025 C1024 1.287 . S
C1025 C1026 1.524 . S
C1025 H1028 0.999 . S
C1026 H996 0.950 . S
C1026 C1025 1.524 . S
C1026 C1027 1.415 . S
C1027 H997 0.950 . S
C1027 C1022 1.363 . S
C1027 C1026 1.415 . S
H1028 C1025 0.999 . S
H1029 C1010 0.913 . S
H1030 C1048 0.951 . S
H1031 C1050 0.951 . S
H1032 C1052 0.950 . S
H1033 C1053 0.950 . S
H1034 C1055 0.950 . S
H1035 C1058 0.950 . S
H1036 C1059 0.950 . S
H1037 C1061 0.950 . S
H1038 C1062 0.950 . S
H1039 C1063 0.951 . S
H1040 C1065 0.951 . S
H1041 C1067 0.950 . S
H1042 C1068 0.950 . S
H1043 C1070 0.950 . S
H1044 C1073 0.950 . S
H1045 C1074 0.950 . S
H1046 C1076 0.950 . S
H1047 C1077 0.950 . S
C1048 H1030 0.951 . S
C1048 C1049 1.366 . S
C1048 C1050 1.388 . S
C1049 C1048 1.366 . S
C1049 C1053 1.385 . S
C1050 H1031 0.951 . S
C1050 C1048 1.388 . S
C1050 C1051 1.366 . S
C1051 C1050 1.366 . S
C1051 C1052 1.414 . S
C1051 C1054 1.499 . S
C1052 H1032 0.950 . S
C1052 C1051 1.414 . S
C1052 C1053 1.374 . S
C1053 H1033 0.950 . S
C1053 C1049 1.385 . S
C1053 C1052 1.374 . S
C1054 C1051 1.499 . S
C1054 C1055 1.373 . S
C1054 C1056 1.389 . S
C1055 H1034 0.950 . S
C1055 C1054 1.373 . S
C1055 C1071 1.377 . S
C1056 C1054 1.389 . S
C1056 C1057 1.524 . S
C1056 C1070 1.377 . S
C1057 C1056 1.524 . S
C1057 C1058 1.397 . S
C1057 C1062 1.363 . S
C1058 H1035 0.950 . S
C1058 C1057 1.397 . S
C1058 C1059 1.334 . S
C1059 H1036 0.950 . S
C1059 C1058 1.334 . S
C1059 C1060 1.287 . S
C1060 C1059 1.287 . S
C1060 C1061 1.524 . S
C1060 H1079 0.913 . S
C1061 H1037 0.950 . S
C1061 C1060 1.524 . S
C1061 C1062 1.415 . S
C1062 H1038 0.950 . S
C1062 C1057 1.363 . S
C1062 C1061 1.415 . S
C1063 H1039 0.951 . S
C1063 C1064 1.366 . S
C1063 C1065 1.388 . S
C1064 C1063 1.366 . S
C1064 C1068 1.385 . S
C1065 H1040 0.951 . S
C1065 C1063 1.388 . S
C1065 C1066 1.366 . S
C1066 C1065 1.366 . S
C1066 C1067 1.414 . S
C1066 C1069 1.499 . S
C1067 H1041 0.950 . S
C1067 C1066 1.414 . S
C1067 C1068 1.374 . S
C1068 H1042 0.950 . S
C1068 C1064 1.385 . S
C1068 C1067 1.374 . S
C1069 C1066 1.499 . S
C1069 C1070 1.373 . S
C1069 C1071 1.389 . S
C1070 H1043 0.950 . S
C1070 C1056 1.377 . S
C1070 C1069 1.373 . S
C1071 C1055 1.377 . S
C1071 C1069 1.389 . S
C1071 C1072 1.524 . S
C1072 C1071 1.524 . S
C1072 C1073 1.397 . S
C1072 C1077 1.363 . S
C1073 H1044 0.950 . S
C1073 C1072 1.397 . S
C1073 C1074 1.334 . S
C1074 H1045 0.950 . S
C1074 C1073 1.334 . S
C1074 C1075 1.287 . S
C1075 C1074 1.287 . S
C1075 C1076 1.524 . S
C1075 H1078 0.999 . S
C1076 H1046 0.950 . S
C1076 C1075 1.524 . S
C1076 C1077 1.415 . S
C1077 H1047 0.950 . S
C1077 C1072 1.363 . S
C1077 C1076 1.415 . S
H1078 C1075 0.999 . S
H1079 C1060 0.913 . S
H1080 C1098 0.951 . S
H1081 C1100 0.951 . S
H1082 C1102 0.950 . S
H1083 C1103 0.950 . S
H1084 C1105 0.950 . S
H1085 C1108 0.950 . S
H1086 C1109 0.950 . S
H1087 C1111 0.950 . S
H1088 C1112 0.950 . S
H1089 C1113 0.951 . S
H1090 C1115 0.951 . S
H1091 C1117 0.950 . S
H1092 C1118 0.950 . S
H1093 C1120 0.950 . S
H1094 C1123 0.950 . S
H1095 C1124 0.950 1_655 S
H1096 C1126 0.950 . S
H1097 C1127 0.950 . S
C1098 H1080 0.951 . S
C1098 C1099 1.366 . S
C1098 C1100 1.388 . S
C1099 C1098 1.366 . S
C1099 C1103 1.385 . S
C1100 H1081 0.951 . S
C1100 C1098 1.388 . S
C1100 C1101 1.366 . S
C1101 C1100 1.366 . S
C1101 C1102 1.414 . S
C1101 C1104 1.499 . S
C1102 H1082 0.950 . S
C1102 C1101 1.414 . S
C1102 C1103 1.374 . S
C1103 H1083 0.950 . S
C1103 C1099 1.385 . S
C1103 C1102 1.374 . S
C1104 C1101 1.499 . S
C1104 C1105 1.373 . S
C1104 C1106 1.389 . S
C1105 H1084 0.950 . S
C1105 C1104 1.373 . S
C1105 C1121 1.377 . S
C1106 C1104 1.389 . S
C1106 C1107 1.524 . S
C1106 C1120 1.377 . S
C1107 C1106 1.524 . S
C1107 C1108 1.397 . S
C1107 C1112 1.363 . S
C1108 H1085 0.950 . S
C1108 C1107 1.397 . S
C1108 C1109 1.334 . S
C1109 H1086 0.950 . S
C1109 C1108 1.334 . S
C1109 C1110 1.287 . S
C1110 C1109 1.287 . S
C1110 C1111 1.524 . S
C1110 H1129 0.913 . S
C1111 H1087 0.950 . S
C1111 C1110 1.524 . S
C1111 C1112 1.415 . S
C1112 H1088 0.950 . S
C1112 C1107 1.363 . S
C1112 C1111 1.415 . S
C1113 H1089 0.951 . S
C1113 C1114 1.366 . S
C1113 C1115 1.388 1_556 S
C1114 C1113 1.366 . S
C1114 C1118 1.385 . S
C1115 H1090 0.951 . S
C1115 C1113 1.388 1_554 S
C1115 C1116 1.366 . S
C1116 C1115 1.366 . S
C1116 C1117 1.414 . S
C1116 C1119 1.499 . S
C1117 H1091 0.950 . S
C1117 C1116 1.414 . S
C1117 C1118 1.374 1_554 S
C1118 H1092 0.950 . S
C1118 C1114 1.385 . S
C1118 C1117 1.374 1_556 S
C1119 C1116 1.499 . S
C1119 C1120 1.373 . S
C1119 C1121 1.389 . S
C1120 H1093 0.950 . S
C1120 C1106 1.377 . S
C1120 C1119 1.373 . S
C1121 C1105 1.377 . S
C1121 C1119 1.389 . S
C1121 C1122 1.524 . S
C1122 C1121 1.524 . S
C1122 C1123 1.397 . S
C1122 C1127 1.363 . S
C1123 H1094 0.950 . S
C1123 C1122 1.397 . S
C1123 C1124 1.334 . S
C1124 H1095 0.950 1_455 S
C1124 C1123 1.334 . S
C1124 C1125 1.287 . S
C1125 C1124 1.287 . S
C1125 C1126 1.524 . S
C1125 H1128 0.999 . S
C1126 H1096 0.950 . S
C1126 C1125 1.524 . S
C1126 C1127 1.415 . S
C1127 H1097 0.950 . S
C1127 C1122 1.363 . S
C1127 C1126 1.415 . S
H1128 C1125 0.999 . S
H1129 C1110 0.913 . S
H1130 C1148 0.951 . S
H1131 C1150 0.951 . S
H1132 C1152 0.950 1_565 S
H1133 C1153 0.950 1_565 S
H1134 C1155 0.950 1_565 S
H1135 C1158 0.950 . S
H1136 C1159 0.950 . S
H1137 C1161 0.950 . S
H1138 C1162 0.950 . S
H1139 C1163 0.951 1_565 S
H1140 C1165 0.951 1_565 S
H1141 C1167 0.950 . S
H1142 C1168 0.950 . S
H1143 C1170 0.950 . S
H1144 C1173 0.950 . S
H1145 C1174 0.950 . S
H1146 C1176 0.950 . S
H1147 C1177 0.950 . S
C1148 H1130 0.951 . S
C1148 C1149 1.366 . S
C1148 C1150 1.388 . S
C1149 C1148 1.366 . S
C1149 C1153 1.385 . S
C1150 H1131 0.951 . S
C1150 C1148 1.388 . S
C1150 C1151 1.366 . S
C1151 C1150 1.366 . S
C1151 C1152 1.414 . S
C1151 C1154 1.499 . S
C1152 H1132 0.950 1_545 S
C1152 C1151 1.414 . S
C1152 C1153 1.374 . S
C1153 H1133 0.950 1_545 S
C1153 C1149 1.385 . S
C1153 C1152 1.374 . S
C1154 C1151 1.499 . S
C1154 C1155 1.373 . S
C1154 C1156 1.389 . S
C1155 H1134 0.950 1_545 S
C1155 C1154 1.373 . S
C1155 C1171 1.377 . S
C1156 C1154 1.389 . S
C1156 C1157 1.524 . S
C1156 C1170 1.377 . S
C1157 C1156 1.524 . S
C1157 C1158 1.397 . S
C1157 C1162 1.363 . S
C1158 H1135 0.950 . S
C1158 C1157 1.397 . S
C1158 C1159 1.334 . S
C1159 H1136 0.950 . S
C1159 C1158 1.334 . S
C1159 C1160 1.287 . S
C1160 C1159 1.287 . S
C1160 C1161 1.524 . S
C1160 H1179 0.913 . S
C1161 H1137 0.950 . S
C1161 C1160 1.524 . S
C1161 C1162 1.415 . S
C1162 H1138 0.950 . S
C1162 C1157 1.363 . S
C1162 C1161 1.415 . S
C1163 H1139 0.951 1_545 S
C1163 C1164 1.366 . S
C1163 C1165 1.388 . S
C1164 C1163 1.366 . S
C1164 C1168 1.385 . S
C1165 H1140 0.951 1_545 S
C1165 C1163 1.388 . S
C1165 C1166 1.366 . S
C1166 C1165 1.366 . S
C1166 C1167 1.414 . S
C1166 C1169 1.499 . S
C1167 H1141 0.950 . S
C1167 C1166 1.414 . S
C1167 C1168 1.374 . S
C1168 H1142 0.950 . S
C1168 C1164 1.385 . S
C1168 C1167 1.374 . S
C1169 C1166 1.499 . S
C1169 C1170 1.373 . S
C1169 C1171 1.389 . S
C1170 H1143 0.950 . S
C1170 C1156 1.377 . S
C1170 C1169 1.373 . S
C1171 C1155 1.377 . S
C1171 C1169 1.389 . S
C1171 C1172 1.524 1_545 S
C1172 C1171 1.524 1_565 S
C1172 C1173 1.397 1_565 S
C1172 C1177 1.363 . S
C1173 H1144 0.950 . S
C1173 C1172 1.397 1_545 S
C1173 C1174 1.334 1_545 S
C1174 H1145 0.950 . S
C1174 C1173 1.334 1_565 S
C1174 C1175 1.287 . S
C1175 C1174 1.287 . S
C1175 C1176 1.524 . S
C1175 H1178 0.999 . S
C1176 H1146 0.950 . S
C1176 C1175 1.524 . S
C1176 C1177 1.415 . S
C1177 H1147 0.950 . S
C1177 C1172 1.363 . S
C1177 C1176 1.415 . S
H1178 C1175 0.999 . S
H1179 C1160 0.913 . S
H1180 C1198 0.951 . S
H1181 C1200 0.951 . S
H1182 C1202 0.950 . S
H1183 C1203 0.950 . S
H1184 C1205 0.950 . S
H1185 C1208 0.950 . S
H1186 C1209 0.950 . S
H1187 C1211 0.950 . S
H1188 C1212 0.950 . S
H1189 C1213 0.951 . S
H1190 C1215 0.951 . S
H1191 C1217 0.950 . S
H1192 C1218 0.950 . S
H1193 C1220 0.950 . S
H1194 C1223 0.950 . S
H1195 C1224 0.950 . S
H1196 C1226 0.950 . S
H1197 C1227 0.950 . S
C1198 H1180 0.951 . S
C1198 C1199 1.366 . S
C1198 C1200 1.388 . S
C1199 C1198 1.366 . S
C1199 C1203 1.385 . S
C1200 H1181 0.951 . S
C1200 C1198 1.388 . S
C1200 C1201 1.366 . S
C1201 C1200 1.366 . S
C1201 C1202 1.414 . S
C1201 C1204 1.499 . S
C1202 H1182 0.950 . S
C1202 C1201 1.414 . S
C1202 C1203 1.374 . S
C1203 H1183 0.950 . S
C1203 C1199 1.385 . S
C1203 C1202 1.374 . S
C1204 C1201 1.499 . S
C1204 C1205 1.373 . S
C1204 C1206 1.389 . S
C1205 H1184 0.950 . S
C1205 C1204 1.373 . S
C1205 C1221 1.377 . S
C1206 C1204 1.389 . S
C1206 C1207 1.524 . S
C1206 C1220 1.377 . S
C1207 C1206 1.524 . S
C1207 C1208 1.397 . S
C1207 C1212 1.363 . S
C1208 H1185 0.950 . S
C1208 C1207 1.397 . S
C1208 C1209 1.334 . S
C1209 H1186 0.950 . S
C1209 C1208 1.334 . S
C1209 C1210 1.287 . S
C1210 C1209 1.287 . S
C1210 C1211 1.524 . S
C1210 H1229 0.913 . S
C1211 H1187 0.950 . S
C1211 C1210 1.524 . S
C1211 C1212 1.415 . S
C1212 H1188 0.950 . S
C1212 C1207 1.363 . S
C1212 C1211 1.415 . S
C1213 H1189 0.951 . S
C1213 C1214 1.366 . S
C1213 C1215 1.388 . S
C1214 C1213 1.366 . S
C1214 C1218 1.385 . S
C1215 H1190 0.951 . S
C1215 C1213 1.388 . S
C1215 C1216 1.366 . S
C1216 C1215 1.366 . S
C1216 C1217 1.414 . S
C1216 C1219 1.499 . S
C1217 H1191 0.950 . S
C1217 C1216 1.414 . S
C1217 C1218 1.374 . S
C1218 H1192 0.950 . S
C1218 C1214 1.385 . S
C1218 C1217 1.374 . S
C1219 C1216 1.499 . S
C1219 C1220 1.373 . S
C1219 C1221 1.389 . S
C1220 H1193 0.950 . S
C1220 C1206 1.377 . S
C1220 C1219 1.373 . S
C1221 C1205 1.377 . S
C1221 C1219 1.389 . S
C1221 C1222 1.524 . S
C1222 C1221 1.524 . S
C1222 C1223 1.397 . S
C1222 C1227 1.363 . S
C1223 H1194 0.950 . S
C1223 C1222 1.397 . S
C1223 C1224 1.334 . S
C1224 H1195 0.950 . S
C1224 C1223 1.334 . S
C1224 C1225 1.287 . S
C1225 C1224 1.287 . S
C1225 C1226 1.524 . S
C1225 H1228 0.999 . S
C1226 H1196 0.950 . S
C1226 C1225 1.524 . S
C1226 C1227 1.415 . S
C1227 H1197 0.950 . S
C1227 C1222 1.363 . S
C1227 C1226 1.415 . S
H1228 C1225 0.999 . S
H1229 C1210 0.913 . S
H1230 C1248 0.951 . S
H1231 C1250 0.951 . S
H1232 C1252 0.950 . S
H1233 C1253 0.967 . S
H1234 C1255 0.950 . S
H1235 C1258 0.950 . S
H1236 C1259 0.950 . S
H1237 C1261 0.950 . S
H1238 C1262 0.950 . S
H1239 C1263 0.951 . S
H1240 C1265 0.951 . S
H1241 C1267 0.950 . S
H1242 C1268 0.950 . S
H1243 C1270 0.950 . S
H1244 C1273 0.950 . S
H1245 C1274 0.950 . S
H1246 C1276 0.950 . S
H1247 C1277 0.950 . S
C1248 H1230 0.951 . S
C1248 C1249 1.366 . S
C1248 C1250 1.388 . S
C1249 C1248 1.366 . S
C1249 C1253 1.364 1_545 S
C1250 H1231 0.951 . S
C1250 C1248 1.388 . S
C1250 C1251 1.366 . S
C1251 C1250 1.366 . S
C1251 C1252 1.414 1_545 S
C1251 C1254 1.499 . S
C1252 H1232 0.950 . S
C1252 C1251 1.414 1_565 S
C1252 C1253 1.377 . S
C1253 H1233 0.967 . S
C1253 C1249 1.364 1_565 S
C1253 C1252 1.377 . S
C1254 C1251 1.499 . S
C1254 C1255 1.373 1_545 S
C1254 C1256 1.389 . S
C1255 H1234 0.950 . S
C1255 C1254 1.373 1_565 S
C1255 C1271 1.377 . S
C1256 C1254 1.389 . S
C1256 C1257 1.524 . S
C1256 C1270 1.377 . S
C1257 C1256 1.524 . S
C1257 C1258 1.397 . S
C1257 C1262 1.363 . S
C1258 H1235 0.950 . S
C1258 C1257 1.397 . S
C1258 C1259 1.334 . S
C1259 H1236 0.950 . S
C1259 C1258 1.334 . S
C1259 C1260 1.287 . S
C1260 C1259 1.287 . S
C1260 C1261 1.524 . S
C1260 H1279 0.913 . S
C1261 H1237 0.950 . S
C1261 C1260 1.524 . S
C1261 C1262 1.415 . S
C1262 H1238 0.950 . S
C1262 C1257 1.363 . S
C1262 C1261 1.415 . S
C1263 H1239 0.951 . S
C1263 C1264 1.366 . S
C1263 C1265 1.388 . S
C1264 C1263 1.366 . S
C1264 C1268 1.385 1_565 S
C1265 H1240 0.951 . S
C1265 C1263 1.388 . S
C1265 C1266 1.349 1_565 S
C1266 C1265 1.349 1_545 S
C1266 C1267 1.428 . S
C1266 C1269 1.502 . S
C1267 H1241 0.950 . S
C1267 C1266 1.428 . S
C1267 C1268 1.374 . S
C1268 H1242 0.950 . S
C1268 C1264 1.385 1_545 S
C1268 C1267 1.374 . S
C1269 C1266 1.502 . S
C1269 C1270 1.373 . S
C1269 C1271 1.389 1_545 S
C1270 H1243 0.950 . S
C1270 C1256 1.377 . S
C1270 C1269 1.373 . S
C1271 C1255 1.377 . S
C1271 C1269 1.389 1_565 S
C1271 C1272 1.524 . S
C1272 C1271 1.524 . S
C1272 C1273 1.397 . S
C1272 C1277 1.363 . S
C1273 H1244 0.950 . S
C1273 C1272 1.397 . S
C1273 C1274 1.334 . S
C1274 H1245 0.950 . S
C1274 C1273 1.334 . S
C1274 C1275 1.287 . S
C1275 C1274 1.287 . S
C1275 C1276 1.524 . S
C1275 H1278 0.999 . S
C1276 H1246 0.950 . S
C1276 C1275 1.524 . S
C1276 C1277 1.415 . S
C1277 H1247 0.950 . S
C1277 C1272 1.363 . S
C1277 C1276 1.415 . S
H1278 C1275 0.999 . S
H1279 C1260 0.913 . S
H1280 C1298 0.951 . S
H1281 C1300 0.951 . S
H1282 C1302 0.950 . S
H1283 C1303 0.950 . S
H1284 C1305 0.950 . S
H1285 C1308 0.950 . S
H1286 C1309 0.950 . S
H1287 C1311 0.950 . S
H1288 C1312 0.950 . S
H1289 C1313 0.951 . S
H1290 C1315 0.951 . S
H1291 C1317 0.950 . S
H1292 C1318 0.950 . S
H1293 C1320 0.950 . S
H1294 C1323 0.950 . S
H1295 C1324 0.950 . S
H1296 C1326 0.950 . S
H1297 C1327 0.950 . S
C1298 H1280 0.951 . S
C1298 C1299 1.366 . S
C1298 C1300 1.388 . S
C1299 C1298 1.366 . S
C1299 C1303 1.385 . S
C1300 H1281 0.951 . S
C1300 C1298 1.388 . S
C1300 C1301 1.366 . S
C1301 C1300 1.366 . S
C1301 C1302 1.414 . S
C1301 C1304 1.499 . S
C1302 H1282 0.950 . S
C1302 C1301 1.414 . S
C1302 C1303 1.374 . S
C1303 H1283 0.950 . S
C1303 C1299 1.385 . S
C1303 C1302 1.374 . S
C1304 C1301 1.499 . S
C1304 C1305 1.373 . S
C1304 C1306 1.389 . S
C1305 H1284 0.950 . S
C1305 C1304 1.373 . S
C1305 C1321 1.377 . S
C1306 C1304 1.389 . S
C1306 C1307 1.524 . S
C1306 C1320 1.377 . S
C1307 C1306 1.524 . S
C1307 C1308 1.397 . S
C1307 C1312 1.363 . S
C1308 H1285 0.950 . S
C1308 C1307 1.397 . S
C1308 C1309 1.334 . S
C1309 H1286 0.950 . S
C1309 C1308 1.334 . S
C1309 C1310 1.287 . S
C1310 C1309 1.287 . S
C1310 C1311 1.524 . S
C1310 H1329 0.913 . S
C1311 H1287 0.950 . S
C1311 C1310 1.524 . S
C1311 C1312 1.415 . S
C1312 H1288 0.950 . S
C1312 C1307 1.363 . S
C1312 C1311 1.415 . S
C1313 H1289 0.951 . S
C1313 C1314 1.366 . S
C1313 C1315 1.388 1_554 S
C1314 C1313 1.366 . S
C1314 C1318 1.385 . S
C1315 H1290 0.951 . S
C1315 C1313 1.388 1_556 S
C1315 C1316 1.366 . S
C1316 C1315 1.366 . S
C1316 C1317 1.414 . S
C1316 C1319 1.499 . S
C1317 H1291 0.950 . S
C1317 C1316 1.414 . S
C1317 C1318 1.374 1_556 S
C1318 H1292 0.950 . S
C1318 C1314 1.385 . S
C1318 C1317 1.374 1_554 S
C1319 C1316 1.499 . S
C1319 C1320 1.373 . S
C1319 C1321 1.389 . S
C1320 H1293 0.950 . S
C1320 C1306 1.377 . S
C1320 C1319 1.373 . S
C1321 C1305 1.377 . S
C1321 C1319 1.389 . S
C1321 C1322 1.524 . S
C1322 C1321 1.524 . S
C1322 C1323 1.397 . S
C1322 C1327 1.363 . S
C1323 H1294 0.950 . S
C1323 C1322 1.397 . S
C1323 C1324 1.334 . S
C1324 H1295 0.950 . S
C1324 C1323 1.334 . S
C1324 C1325 1.287 . S
C1325 C1324 1.287 . S
C1325 C1326 1.524 . S
C1325 H1328 0.999 . S
C1326 H1296 0.950 . S
C1326 C1325 1.524 . S
C1326 C1327 1.415 . S
C1327 H1297 0.950 . S
C1327 C1322 1.363 . S
C1327 C1326 1.415 . S
H1328 C1325 0.999 . S
H1329 C1310 0.913 . S
H1330 C1348 0.951 . S
H1331 C1350 0.951 . S
H1332 C1352 0.950 . S
H1333 C1353 0.950 . S
H1334 C1355 0.950 . S
H1335 C1358 0.950 . S
H1336 C1359 0.950 . S
H1337 C1361 0.950 . S
H1338 C1362 0.950 . S
H1339 C1363 0.951 . S
H1340 C1365 0.951 . S
H1341 C1367 0.950 . S
H1342 C1368 0.950 . S
H1343 C1370 0.950 . S
H1344 C1373 0.950 . S
H1345 C1374 0.950 . S
H1346 C1376 0.950 . S
H1347 C1377 0.950 . S
C1348 H1330 0.951 . S
C1348 C1349 1.366 . S
C1348 C1350 1.388 . S
C1349 C1348 1.366 . S
C1349 C1353 1.385 . S
C1350 H1331 0.951 . S
C1350 C1348 1.388 . S
C1350 C1351 1.366 . S
C1351 C1350 1.366 . S
C1351 C1352 1.414 . S
C1351 C1354 1.499 . S
C1352 H1332 0.950 . S
C1352 C1351 1.414 . S
C1352 C1353 1.374 . S
C1353 H1333 0.950 . S
C1353 C1349 1.385 . S
C1353 C1352 1.374 . S
C1354 C1351 1.499 . S
C1354 C1355 1.373 . S
C1354 C1356 1.389 1_455 S
C1355 H1334 0.950 . S
C1355 C1354 1.373 . S
C1355 C1371 1.377 . S
C1356 C1354 1.389 1_655 S
C1356 C1357 1.524 . S
C1356 C1370 1.377 . S
C1357 C1356 1.524 . S
C1357 C1358 1.397 . S
C1357 C1362 1.363 . S
C1358 H1335 0.950 . S
C1358 C1357 1.397 . S
C1358 C1359 1.334 . S
C1359 H1336 0.950 . S
C1359 C1358 1.334 . S
C1359 C1360 1.287 . S
C1360 C1359 1.287 . S
C1360 C1361 1.524 . S
C1360 H1379 0.913 . S
C1361 H1337 0.950 . S
C1361 C1360 1.524 . S
C1361 C1362 1.415 . S
C1362 H1338 0.950 . S
C1362 C1357 1.363 . S
C1362 C1361 1.415 . S
C1363 H1339 0.951 . S
C1363 C1364 1.366 . S
C1363 C1365 1.388 1_655 S
C1364 C1363 1.366 . S
C1364 C1368 1.385 1_655 S
C1365 H1340 0.951 . S
C1365 C1363 1.388 1_455 S
C1365 C1366 1.366 . S
C1366 C1365 1.366 . S
C1366 C1367 1.414 . S
C1366 C1369 1.499 . S
C1367 H1341 0.950 . S
C1367 C1366 1.414 . S
C1367 C1368 1.374 . S
C1368 H1342 0.950 . S
C1368 C1364 1.385 1_455 S
C1368 C1367 1.374 . S
C1369 C1366 1.499 . S
C1369 C1370 1.373 1_455 S
C1369 C1371 1.389 . S
C1370 H1343 0.950 . S
C1370 C1356 1.377 . S
C1370 C1369 1.373 1_655 S
C1371 C1355 1.377 . S
C1371 C1369 1.389 . S
C1371 C1372 1.524 . S
C1372 C1371 1.524 . S
C1372 C1373 1.397 . S
C1372 C1377 1.363 . S
C1373 H1344 0.950 . S
C1373 C1372 1.397 . S
C1373 C1374 1.334 . S
C1374 H1345 0.950 . S
C1374 C1373 1.334 . S
C1374 C1375 1.287 . S
C1375 C1374 1.287 . S
C1375 C1376 1.524 . S
C1375 H1378 0.999 . S
C1376 H1346 0.950 . S
C1376 C1375 1.524 . S
C1376 C1377 1.415 . S
C1377 H1347 0.950 . S
C1377 C1372 1.363 . S
C1377 C1376 1.415 . S
H1378 C1375 0.999 . S
H1379 C1360 0.913 . S
C499 C25 0.297 . S
C514 C451 0.251 . S
C549 C65 0.263 . S
C564 C301 0.365 . S
C599 C105 0.317 . S
C614 C361 0.342 . S
C649 C4 0.297 . S
C664 C421 0.356 . S
C714 C331 0.230 . S
C699 C44 0.282 . S
C764 C391 0.290 . S
C749 C84 0.329 . S
C799 C60 2.823 . S
C814 C181 2.682 . S
C849 C100 3.033 . S
C864 C271 3.023 . S
C899 C31 3.039 . S
C914 C151 3.035 . S
C964 C211 3.023 . S
C949 C71 3.023 . S
C1014 C241 2.687 . S
C999 C111 2.815 . S
C1049 C20 2.819 . S
C1064 C121 2.685 . S
C1114 C260 1.768 . S
C1099 C2 1.727 . S
C1149 C42 1.739 . S
C1164 C140 1.744 . S
C1199 C82 1.739 . S
C1214 C200 1.756 . S
C1264 C380 1.068 . S
C1249 C63 1.071 . S
C1314 C440 1.105 . S
C1299 C103 1.100 . S
C1349 C23 1.070 . S
C1364 C320 1.067 1_655 S
