# Generated by pormake.
# Topology pyr, (3,6)-cn, num edge types: 1
# Building blocks:
#     Node 0, Type 0, BuildingBlock: INOVEN_clean_linker_0, # of connection points: 3
#     Node 1, Type 0, BuildingBlock: INOVEN_clean_linker_0, # of connection points: 3
#     Node 2, Type 0, BuildingBlock: INOVEN_clean_linker_0, # of connection points: 3
#     Node 3, Type 0, BuildingBlock: INOVEN_clean_linker_0, # of connection points: 3
#     Node 4, Type 0, BuildingBlock: INOVEN_clean_linker_0, # of connection points: 3
#     Node 5, Type 0, BuildingBlock: INOVEN_clean_linker_0, # of connection points: 3
#     Node 6, Type 0, BuildingBlock: INOVEN_clean_linker_0, # of connection points: 3
#     Node 7, Type 0, BuildingBlock: INOVEN_clean_linker_0, # of connection points: 3
#     Node 8, Type 1, BuildingBlock: LEVNOQ01_clean_sbu_1, # of connection points: 6
#     Node 9, Type 1, BuildingBlock: LEVNOQ01_clean_sbu_1, # of connection points: 6
#     Node 10, Type 1, BuildingBlock: LEVNOQ01_clean_sbu_1, # of connection points: 6
#     Node 11, Type 1, BuildingBlock: LEVNOQ01_clean_sbu_1, # of connection points: 6
#     Edge 12, Type (0, 1), BuildingBlock: AJUNOK_clean_linker_0, # of connection points: 2
#     Edge 13, Type (0, 1), BuildingBlock: AJUNOK_clean_linker_0, # of connection points: 2
#     Edge 14, Type (0, 1), BuildingBlock: AJUNOK_clean_linker_0, # of connection points: 2
#     Edge 15, Type (0, 1), BuildingBlock: AJUNOK_clean_linker_0, # of connection points: 2
#     Edge 16, Type (0, 1), BuildingBlock: AJUNOK_clean_linker_0, # of connection points: 2
#     Edge 17, Type (0, 1), BuildingBlock: AJUNOK_clean_linker_0, # of connection points: 2
#     Edge 18, Type (0, 1), BuildingBlock: AJUNOK_clean_linker_0, # of connection points: 2
#     Edge 19, Type (0, 1), BuildingBlock: AJUNOK_clean_linker_0, # of connection points: 2
#     Edge 20, Type (0, 1), BuildingBlock: AJUNOK_clean_linker_0, # of connection points: 2
#     Edge 21, Type (0, 1), BuildingBlock: AJUNOK_clean_linker_0, # of connection points: 2
#     Edge 22, Type (0, 1), BuildingBlock: AJUNOK_clean_linker_0, # of connection points: 2
#     Edge 23, Type (0, 1), BuildingBlock: AJUNOK_clean_linker_0, # of connection points: 2
#     Edge 24, Type (0, 1), BuildingBlock: AJUNOK_clean_linker_0, # of connection points: 2
#     Edge 25, Type (0, 1), BuildingBlock: AJUNOK_clean_linker_0, # of connection points: 2
#     Edge 26, Type (0, 1), BuildingBlock: AJUNOK_clean_linker_0, # of connection points: 2
#     Edge 27, Type (0, 1), BuildingBlock: AJUNOK_clean_linker_0, # of connection points: 2
#     Edge 28, Type (0, 1), BuildingBlock: AJUNOK_clean_linker_0, # of connection points: 2
#     Edge 29, Type (0, 1), BuildingBlock: AJUNOK_clean_linker_0, # of connection points: 2
#     Edge 30, Type (0, 1), BuildingBlock: AJUNOK_clean_linker_0, # of connection points: 2
#     Edge 31, Type (0, 1), BuildingBlock: AJUNOK_clean_linker_0, # of connection points: 2
#     Edge 32, Type (0, 1), BuildingBlock: AJUNOK_clean_linker_0, # of connection points: 2
#     Edge 33, Type (0, 1), BuildingBlock: AJUNOK_clean_linker_0, # of connection points: 2
#     Edge 34, Type (0, 1), BuildingBlock: AJUNOK_clean_linker_0, # of connection points: 2
#     Edge 35, Type (0, 1), BuildingBlock: AJUNOK_clean_linker_0, # of connection points: 2
# Relax obj value: 0.081
# Max RMSD: 0.167
# Mean RMSD: 0.130
data_MOF--net-pry--node1-LEVNOQ01_clean_sbu_1--node2-INOVEN_clean_linker_0--edge1-AJUNOK_clean_linker_0
_symmetry_space_group_name_H-M    P1
_symmetry_Int_Tables_number       1
_symmetry_cell_setting            triclinic
loop_
_symmetry_equiv_pos_as_xyz
'x, y, z'
_cell_length_a     26.677057
_cell_length_b     26.359677
_cell_length_c     26.854356
_cell_angle_alpha  92.940266
_cell_angle_beta   92.076384
_cell_angle_gamma 98.290119
loop_
_atom_site_label
_atom_site_type_symbol
_atom_site_fract_x
_atom_site_fract_y
_atom_site_fract_z
_atom_type_partial_charge
H0 H 0.07068 0.17582 0.19075 0.0
H1 H 0.19058 0.08361 0.20293 0.0
H2 H 0.17828 0.17625 0.07602 0.0
N3 N 0.09996 0.22177 0.10971 0.0
N4 N 0.12367 0.25409 0.08323 0.0
C5 C 0.104 0.16227 0.17621 0.0
C6 C 0.12803 0.12678 0.20254 0.0
C7 C 0.12293 0.18167 0.13164 0.0
C8 C 0.16497 0.16244 0.11116 0.0
C9 C 0.18936 0.1254 0.13546 0.0
C10 C 0.17078 0.10898 0.18174 0.0
H11 H 0.3705 0.85091 0.57459 0.0
H12 H 0.46388 0.85891 0.70923 0.0
H13 H 0.3578 0.96541 0.69163 0.0
N14 N 0.31592 0.92118 0.60319 0.0
N15 N 0.29075 0.95252 0.62245 0.0
C16 C 0.38431 0.87069 0.60993 0.0
C17 C 0.42194 0.85249 0.63849 0.0
C18 C 0.36019 0.91038 0.62908 0.0
C19 C 0.37632 0.93444 0.67647 0.0
C20 C 0.41483 0.91734 0.70547 0.0
C21 C 0.43704 0.87557 0.68617 0.0
H22 H 0.57643 0.32328 0.86694 0.0
H23 H 0.68313 0.34474 0.99311 0.0
H24 H 0.68699 0.45877 0.8841 0.0
N25 N 0.61328 0.40637 0.82371 0.0
N26 N 0.63911 0.44062 0.80171 0.0
C27 C 0.60799 0.34618 0.88802 0.0
C28 C 0.62757 0.32879 0.93174 0.0
C29 C 0.62958 0.39265 0.8708 0.0
C30 C 0.66942 0.42311 0.89841 0.0
C31 C 0.68902 0.40621 0.94259 0.0
C32 C 0.66801 0.35863 0.95921 0.0
H33 H 0.82576 0.54126 0.40549 0.0
H34 H 0.82664 0.67865 0.50232 0.0
H35 H 0.93186 0.67545 0.38856 0.0
N36 N 0.88668 0.58695 0.34288 0.0
N37 N 0.92012 0.60994 0.31754 0.0
C38 C 0.83996 0.57983 0.4191 0.0
C39 C 0.81929 0.60467 0.46014 0.0
C40 C 0.87881 0.60575 0.3921 0.0
C41 C 0.90277 0.65442 0.40982 0.0
C42 C 0.88446 0.67954 0.45058 0.0
C43 C 0.84273 0.65523 0.47479 0.0
H44 H 0.85351 0.95819 0.81687 0.0
H45 H 0.95584 0.84611 0.82301 0.0
H46 H 0.86096 0.87057 0.94647 0.0
N47 N 0.81169 0.94101 0.90185 0.0
N48 N 0.79441 0.93392 0.94397 0.0
C49 C 0.87031 0.92956 0.83671 0.0
C50 C 0.90741 0.90443 0.81409 0.0
C51 C 0.85325 0.91771 0.88399 0.0
C52 C 0.87426 0.88003 0.90999 0.0
C53 C 0.9112 0.85335 0.88842 0.0
C54 C 0.92832 0.86677 0.84063 0.0
H55 H 0.5759 0.17071 0.35199 0.0
H56 H 0.68546 0.06609 0.35311 0.0
H57 H 0.68763 0.18342 0.47208 0.0
N58 N 0.60422 0.22187 0.4326 0.0
N59 N 0.61587 0.24884 0.47193 0.0
C60 C 0.60653 0.15495 0.37041 0.0
C61 C 0.62551 0.11297 0.34798 0.0
C62 C 0.62728 0.17948 0.41517 0.0
C63 C 0.67001 0.16325 0.43832 0.0
C64 C 0.6914 0.12226 0.41565 0.0
C65 C 0.66867 0.0971 0.37077 0.0
H66 H 0.4432 0.72219 0.1976 0.0
H67 H 0.31519 0.73303 0.09996 0.0
H68 H 0.32285 0.59579 0.17811 0.0
N69 N 0.40201 0.63788 0.23658 0.0
N70 N 0.37294 0.61265 0.26452 0.0
C71 C 0.4077 0.70467 0.17896 0.0
C72 C 0.38383 0.73064 0.14334 0.0
C73 C 0.38375 0.65761 0.1932 0.0
C74 C 0.33899 0.63385 0.16828 0.0
C75 C 0.31393 0.66027 0.13338 0.0
C76 C 0.33586 0.70969 0.12284 0.0
H77 H 0.04231 0.34845 0.63997 0.0
H78 H 0.14694 0.37218 0.52178 0.0
H79 H 0.16525 0.4712 0.65521 0.0
N80 N 0.08584 0.42517 0.69945 0.0
N81 N 0.10879 0.46316 0.72439 0.0
C82 C 0.07322 0.37154 0.62279 0.0
C83 C 0.09064 0.3554 0.57667 0.0
C84 C 0.09934 0.41409 0.65016 0.0
C85 C 0.14304 0.44102 0.6316 0.0
C86 C 0.1615 0.4261 0.5859 0.0
C87 C 0.13348 0.38453 0.55729 0.0
O88 O 0.95332 0.03852 0.63194 0.0
Mg89 Mg 0.01489 0.05739 0.5875 0.0
O90 O 0.96468 0.97492 0.58011 0.0
Mg91 Mg 0.99205 0.01747 0.50212 0.0
O92 O 0.01757 0.10451 0.52993 0.0
O93 O 0.04834 0.12888 0.60818 0.0
O94 O 0.0271 0.05632 0.42386 0.0
O95 O 0.9095 0.04444 0.49483 0.0
Mg96 Mg 0.95122 0.98281 0.41845 0.0
O97 O 0.96394 0.93086 0.47163 0.0
O98 O 0.00352 -0.00315 0.36463 0.0
O99 O 0.89123 0.02596 0.4155 0.0
O100 O 0.91568 0.91246 0.4007 0.0
C101 C 0.09406 -0.00454 0.56067 0.0
C102 C 0.94948 -0.00921 0.62235 0.0
C103 C 0.03824 0.13966 0.56303 0.0
C104 C 0.03004 0.03886 0.37833 0.0
C105 C 0.88028 0.04606 0.45639 0.0
C106 C 0.93551 0.89797 0.4409 0.0
O107 O 0.07078 0.0112 0.59695 0.0
O108 O 0.07461 -0.00453 0.51644 0.0
O109 O 0.41731 0.10432 0.10685 0.0
Mg110 Mg 0.48708 0.11351 0.07415 0.0
O111 O 0.40493 0.04719 0.04456 0.0
Mg112 Mg 0.49303 0.03085 0.03021 0.0
O113 O 0.52397 0.11083 0.00694 0.0
O114 O 0.46693 0.16179 0.02128 0.0
O115 O 0.57618 0.01058 0.01162 0.0
O116 O 0.46742 0.00847 0.94467 0.0
Mg117 Mg 0.49538 0.90189 0.99994 0.0
O118 O 0.46527 0.95055 0.05243 0.0
O119 O 0.57487 0.92575 0.99999 0.0
O120 O 0.47065 0.92437 0.9294 0.0
O121 O 0.46484 0.95018 0.0531 0.0
C122 C 0.54472 0.08453 0.14529 0.0
C123 C 0.38679 0.07425 0.07884 0.0
C124 C 0.50484 0.15127 0.9971 0.0
C125 C 0.5987 0.97124 1.0025 0.0
C126 C 0.4622 0.96779 0.9151 0.0
C127 C 0.44096 0.93756 0.09103 0.0
O128 O 0.54307 0.12952 0.1315 0.0
O129 O 0.52412 0.04577 0.11703 0.0
O130 O 0.48678 0.63893 0.64494 0.0
Mg131 Mg 0.46009 0.56518 0.66284 0.0
O132 O 0.47614 0.62141 0.56316 0.0
Mg133 Mg 0.49096 0.53386 0.54931 0.0
O134 O 0.50993 0.52813 0.62848 0.0
O135 O 0.50722 0.53355 0.71076 0.0
O136 O 0.50586 0.45092 0.53588 0.0
O137 O 0.58137 0.55585 0.54164 0.0
Mg138 Mg 0.53265 0.53963 0.44312 0.0
O139 O 0.46186 0.53643 0.46894 0.0
O140 O 0.54289 0.46239 0.46359 0.0
O141 O 0.5985 0.58422 0.46788 0.0
O142 O 0.5029 0.61053 0.45885 0.0
C143 C 0.37355 0.50889 0.59305 0.0
C144 C 0.47976 0.65327 0.60141 0.0
C145 C 0.52911 0.52024 0.67111 0.0
C146 C 0.52965 0.43443 0.49957 0.0
C147 C 0.61338 0.57524 0.51092 0.0
C148 C 0.46123 0.58073 0.4527 0.0
O149 O 0.38603 0.53106 0.63579 0.0
O150 O 0.40584 0.50566 0.5596 0.0
O151 O 0.01401 0.43617 0.08996 0.0
Mg152 Mg 0.01153 0.50986 0.11861 0.0
O153 O 0.03473 0.4699 0.01889 0.0
Mg154 Mg 0.00343 0.55318 0.00934 0.0
O155 O 0.98126 0.56999 0.08967 0.0
O156 O 0.93122 0.50332 0.11112 0.0
O157 O 0.97721 0.63852 0.99085 0.0
O158 O 0.92356 0.50727 0.99728 0.0
Mg159 Mg 0.95929 0.56821 0.90933 0.0
O160 O 0.02598 0.54302 0.93096 0.0
O161 O 0.98308 0.64594 0.90893 0.0
O162 O 0.88926 0.55206 0.94253 0.0
O163 O 0.97542 0.50436 0.86948 0.0
C164 C 0.10661 0.57994 0.06887 0.0
C165 C 0.0319 0.43197 0.04764 0.0
C166 C 0.94207 0.55193 0.11277 0.0
C167 C 0.97815 0.66613 0.95195 0.0
C168 C 0.88469 0.51953 0.97533 0.0
C169 C 0.01735 0.50801 0.89547 0.0
O170 O 0.08409 0.55069 0.10021 0.0
O171 O 0.08341 0.59187 0.02976 0.0
C172 C 0.1032 0.05447 0.25932 0.0
C173 C 0.10787 0.10722 0.25111 0.0
C174 C 0.08089 0.03415 0.30209 0.0
C175 C 0.06221 0.06524 0.33951 0.0
H176 H 0.1151 0.02805 0.23145 0.0
H177 H 0.07678 -0.00707 0.30507 0.0
S178 S 0.06942 0.2069 0.33896 0.0
N179 N 0.09537 0.19109 0.28652 0.0
N180 N 0.05288 0.15265 0.36647 0.0
C181 C 0.06871 0.11849 0.33317 0.0
C182 C 0.0914 0.13937 0.28916 0.0
C183 C 0.38947 0.94672 0.79086 0.0
C184 C 0.42804 0.93942 0.75765 0.0
C185 C 0.40083 0.96132 0.8417 0.0
C186 C 0.45117 0.96987 0.861 0.0
H187 H 0.35 0.93817 0.77821 0.0
H188 H 0.36994 0.96269 0.86661 0.0
S189 S 0.56617 0.96077 0.78976 0.0
N190 N 0.51891 0.94596 0.74773 0.0
N191 N 0.53985 0.97288 0.84297 0.0
C192 C 0.49004 0.96549 0.82787 0.0
C193 C 0.47862 0.95039 0.77634 0.0
C194 C 0.63962 0.50492 0.74162 0.0
C195 C 0.6234 0.45473 0.7546 0.0
C196 C 0.61494 0.52522 0.70238 0.0
C197 C 0.57339 0.49545 0.67647 0.0
H198 H 0.66739 0.53007 0.76532 0.0
H199 H 0.62275 0.56623 0.69796 0.0
S200 S 0.52816 0.35761 0.68528 0.0
N201 N 0.57191 0.37214 0.73093 0.0
N202 N 0.52677 0.41091 0.65588 0.0
C203 C 0.56388 0.44286 0.68252 0.0
C204 C 0.58785 0.4223 0.72309 0.0
C205 C 0.88364 0.5717 0.23628 0.0
C206 C 0.92493 0.59688 0.26635 0.0
C207 C 0.88857 0.56142 0.18515 0.0
C208 C 0.93481 0.57583 0.16243 0.0
H209 H 0.84745 0.55981 0.25231 0.0
H210 H 0.85655 0.54011 0.16351 0.0
S211 S 0.05413 0.64217 0.22676 0.0
N212 N 0.01255 0.63655 0.27096 0.0
N213 N 0.02306 0.61639 0.17514 0.0
C214 C 0.97609 0.60209 0.19237 0.0
C215 C 0.97073 0.61271 0.24429 0.0
C216 C 0.2714 0.14165 0.08979 0.0
C217 C 0.23634 0.10722 0.11437 0.0
C218 C 0.31784 0.12832 0.07418 0.0
C219 C 0.33205 0.07985 0.08206 0.0
H220 H 0.26453 0.18057 0.08479 0.0
H221 H 0.34432 0.15752 0.0582 0.0
S222 S 0.25397 0.9732 0.1406 0.0
N223 N 0.21843 0.01965 0.14153 0.0
N224 N 0.30686 -0.00366 0.11431 0.0
C225 C 0.29706 0.04408 0.10456 0.0
C226 C 0.24916 0.05731 0.12016 0.0
C227 C 0.21851 0.93877 0.55891 0.0
C228 C 0.24428 0.96393 0.60222 0.0
C229 C 0.16998 0.94971 0.54389 0.0
C230 C 0.14646 0.98548 0.57212 0.0
H231 H 0.23524 0.91019 0.53738 0.0
H232 H 0.15034 0.92925 0.51119 0.0
S233 S 0.20212 0.06243 0.68649 0.0
N234 N 0.24493 0.02592 0.67105 0.0
N235 N 0.1556 0.04795 0.64373 0.0
C236 C 0.17354 0.01145 0.61448 0.0
C237 C 0.22196 0.00018 0.62921 0.0
C238 C 0.77868 0.4096 0.97194 0.0
C239 C 0.73612 0.43498 0.96602 0.0
C240 C 0.82727 0.43745 0.98004 0.0
C241 C 0.83438 0.49131 0.98198 0.0
H242 H 0.775 0.36824 0.96601 0.0
H243 H 0.8596 0.41683 0.98033 0.0
S244 S 0.73496 0.57562 0.97818 0.0
N245 N 0.70362 0.51675 0.97031 0.0
N246 N 0.79541 0.569 0.98465 0.0
C247 C 0.79195 0.51697 0.98085 0.0
C248 C 0.74255 0.48878 0.97308 0.0
C249 C 0.7545 0.60737 0.52762 0.0
C250 C 0.76965 0.58326 0.48302 0.0
C251 C 0.70368 0.60152 0.54128 0.0
C252 C 0.66687 0.5673 0.51388 0.0
H253 H 0.78104 0.6338 0.55111 0.0
H254 H 0.69279 0.62624 0.57122 0.0
S255 S 0.68589 0.47918 0.40669 0.0
N256 N 0.74164 0.5146 0.41824 0.0
N257 N 0.64946 0.4987 0.44965 0.0
C258 C 0.68263 0.5354 0.4759 0.0
C259 C 0.73312 0.54417 0.45909 0.0
C260 C 0.1306 0.34546 0.06738 0.0
C261 C 0.10163 0.29631 0.06449 0.0
C262 C 0.1091 0.38949 0.05559 0.0
C263 C 0.05793 0.3861 0.039 0.0
H264 H 0.16943 0.35026 0.0821 0.0
H265 H 0.13167 0.42687 0.06321 0.0
S266 S 0.96796 0.26529 0.01643 0.0
N267 N 0.02054 0.24604 0.03795 0.0
N268 N 0.98039 0.32851 0.01544 0.0
C269 C 0.02961 0.33661 0.03244 0.0
C270 C 0.05129 0.29178 0.04513 0.0
C271 C 0.59877 0.23444 0.92319 0.0
C272 C 0.60192 0.28174 0.95083 0.0
C273 C 0.56771 0.19091 0.93827 0.0
C274 C 0.53847 0.19486 0.98034 0.0
H275 H 0.61952 0.23158 0.88944 0.0
H276 H 0.56541 0.15484 0.91643 0.0
S277 S 0.53838 0.30899 0.06722 0.0
N278 N 0.57638 0.32916 0.02297 0.0
N279 N 0.51956 0.24766 0.05246 0.0
C280 C 0.54388 0.24136 0.00938 0.0
C281 C 0.57517 0.28497 0.9942 0.0
C282 C 0.86211 0.76537 0.43893 0.0
C283 C 0.89779 0.73576 0.45667 0.0
C284 C 0.87456 0.81821 0.43616 0.0
C285 C 0.92305 0.8436 0.45148 0.0
H286 H 0.82487 0.74716 0.42494 0.0
H287 H 0.84619 0.83921 0.42062 0.0
S288 S 0.02941 0.78378 0.50341 0.0
N289 N 0.98325 0.73517 0.49123 0.0
N290 N 0.00637 0.83588 0.48738 0.0
C291 C 0.95863 0.81493 0.47143 0.0
C292 C 0.94615 0.7605 0.47342 0.0
C293 C 0.41431 0.76009 0.64965 0.0
C294 C 0.4356 0.802 0.62384 0.0
C295 C 0.4256 0.71126 0.63779 0.0
C296 C 0.45989 0.70249 0.60064 0.0
H297 H 0.38908 0.7652 0.67967 0.0
H298 H 0.40916 0.68027 0.65987 0.0
S299 S 0.51945 0.79897 0.51715 0.0
N300 N 0.48663 0.83166 0.55503 0.0
N301 N 0.51045 0.73897 0.53413 0.0
C302 C 0.47891 0.74348 0.57212 0.0
C303 C 0.46628 0.79363 0.58362 0.0
C304 C 0.88184 0.91743 0.72472 0.0
C305 C 0.92088 0.91664 0.7616 0.0
C306 C 0.89165 0.93737 0.6777 0.0
C307 C 0.94106 0.95694 0.66516 0.0
H308 H 0.84281 0.90456 0.73314 0.0
H309 H 0.85998 0.94 0.65205 0.0
S310 S 0.05756 0.96155 0.74651 0.0
N311 N 0.01158 0.93537 0.78083 0.0
N312 N 0.03005 0.97223 0.69269 0.0
C313 C 0.98087 0.95394 0.70056 0.0
C314 C 0.97087 0.93378 0.74856 0.0
C315 C 0.63417 0.08292 0.25818 0.0
C316 C 0.60275 0.09108 0.29809 0.0
C317 C 0.61459 0.07663 0.20839 0.0
C318 C 0.56299 0.07805 0.19693 0.0
H319 H 0.67475 0.08545 0.26488 0.0
H320 H 0.6405 0.0739 0.17856 0.0
S321 S 0.46289 0.08828 0.28731 0.0
N322 N 0.51549 0.09121 0.32239 0.0
N323 N 0.47986 0.08178 0.22907 0.0
C324 C 0.53049 0.08139 0.2364 0.0
C325 C 0.55004 0.08708 0.28693 0.0
C326 C 0.36292 0.59225 0.35107 0.0
C327 C 0.39261 0.59548 0.30892 0.0
C328 C 0.38472 0.58558 0.39816 0.0
C329 C 0.43661 0.5824 0.40354 0.0
H330 H 0.3235 0.59777 0.34792 0.0
H331 H 0.36163 0.58513 0.43056 0.0
S332 S 0.52872 0.58233 0.30268 0.0
N333 N 0.47447 0.5888 0.27421 0.0
N334 N 0.51618 0.57906 0.36211 0.0
C335 C 0.46584 0.5828 0.36086 0.0
C336 C 0.44358 0.58851 0.31348 0.0
C337 C 0.1001 0.52479 0.79154 0.0
C338 C 0.09817 0.47361 0.77436 0.0
C339 C 0.0812 0.53656 0.83771 0.0
C340 C 0.05977 0.49708 0.86703 0.0
H341 H 0.11214 0.55551 0.76738 0.0
H342 H 0.07742 0.57624 0.84744 0.0
S343 S 0.06213 0.35814 0.8454 0.0
N344 N 0.08544 0.38386 0.79472 0.0
N345 N 0.04893 0.4064 0.88196 0.0
C346 C 0.06449 0.4463 0.85346 0.0
C347 C 0.08371 0.43427 0.80651 0.0
C348 C 0.7336 0.94335 0.00805 0.0
C349 C 0.75008 0.95378 0.96009 0.0
C350 C 0.68616 0.95396 0.02344 0.0
C351 C 0.65346 0.97636 0.99176 0.0
H352 H 0.75654 0.92411 0.03293 0.0
H353 H 0.67369 0.9418 0.05947 0.0
S354 S 0.67997 0.01523 0.86338 0.0
N355 N 0.7309 -0.00898 0.8816 0.0
N356 N 0.64207 0.01116 0.91082 0.0
C357 C 0.67066 -0.01013 0.94459 0.0
C358 C 0.71891 0.97864 0.92863 0.0
C359 C 0.78432 0.1251 0.40748 0.0
C360 C 0.74109 0.10958 0.43428 0.0
C361 C 0.83039 0.10744 0.41825 0.0
C362 C 0.83537 0.07354 0.45636 0.0
H363 H 0.78187 0.14935 0.37636 0.0
H364 H 0.86189 0.11842 0.39477 0.0
S365 S 0.73417 0.02416 0.54003 0.0
N366 N 0.70655 0.06088 0.50272 0.0
N367 N 0.7935 0.02739 0.52307 0.0
C368 C 0.79323 0.05999 0.48555 0.0
C369 C 0.74594 0.07803 0.4744 0.0
C370 C 0.22937 0.61054 0.14447 0.0
C371 C 0.26238 0.63886 0.11324 0.0
C372 C 0.18005 0.59138 0.12869 0.0
C373 C 0.16027 0.60077 0.08133 0.0
H374 H 0.24084 0.60403 0.18241 0.0
H375 H 0.15698 0.5699 0.15506 0.0
S376 S 0.231 0.67302 0.98432 0.0
N377 N 0.2728 0.67405 0.03133 0.0
N378 N 0.17773 0.64067 1.00262 0.0
C379 C 0.19251 0.62932 0.04921 0.0
C380 C 0.24396 0.64784 0.065 0.0
C381 C 0.23136 0.501 0.58936 0.0
C382 C 0.21415 0.44902 0.57461 0.0
C383 C 0.28305 0.52015 0.59404 0.0
C384 C 0.31966 0.48903 0.58164 0.0
H385 H 0.20477 0.52645 0.60046 0.0
H386 H 0.29453 0.55941 0.60854 0.0
S387 S 0.29569 0.3532 0.53332 0.0
N388 N 0.23883 0.36805 0.54374 0.0
N389 N 0.33593 0.40599 0.54813 0.0
C390 C 0.30336 0.43874 0.56205 0.0
C391 C 0.2506 0.41836 0.55926 0.0
C392 C 0.98085 0.8035 0.91664 0.0
C393 C 0.92904 0.80904 0.91407 0.0
C394 C -0.00246 0.7592 0.93495 0.0
C395 C 0.96339 0.71865 0.9523 0.0
H396 H 0.00863 0.83278 0.90256 0.0
H397 H 0.03725 0.75521 0.9326 0.0
S398 S 0.82381 0.71326 0.95373 0.0
N399 N 0.84368 0.76944 0.93121 0.0
N400 N 0.87531 0.68717 0.96576 0.0
C401 C 0.91185 0.72466 0.95207 0.0
C402 C 0.89467 0.76951 0.93309 0.0
C403 C 0.41864 0.82163 0.16618 0.0
C404 C 0.40616 0.78154 0.12942 0.0
C405 C 0.42986 0.87229 0.15265 0.0
C406 C 0.42875 0.88388 0.10233 0.0
H407 H 0.4175 0.81408 0.20544 0.0
H408 H 0.43893 0.90266 0.18173 0.0
S409 S 0.39626 0.79157 0.99273 0.0
N410 N 0.3955 0.75564 0.04125 0.0
N411 N 0.41014 0.8514 0.01586 0.0
C412 C 0.41607 0.84393 0.06528 0.0
C413 C 0.40677 0.79244 0.07898 0.0
C414 C 0.11068 0.26966 0.54892 0.0
C415 C 0.07344 0.30171 0.55712 0.0
C416 C 0.09827 0.21625 0.54629 0.0
C417 C 0.04814 0.1932 0.55068 0.0
H418 H 0.15046 0.28555 0.54937 0.0
H419 H 0.12852 0.19292 0.54438 0.0
S420 S 0.93523 0.2581 0.56489 0.0
N421 N 0.98302 0.30553 0.56373 0.0
N422 N 0.96026 0.20451 0.55838 0.0
C423 C 0.00985 0.22406 0.5543 0.0
C424 C 0.02233 0.27859 0.5575 0.0
C425 C 0.60846 0.32829 0.52111 0.0
C426 C 0.58891 0.29085 0.48354 0.0
C427 C 0.58674 0.3736 0.52881 0.0
C428 C 0.54474 0.38272 0.49911 0.0
H429 H 0.64214 0.32355 0.54308 0.0
H430 H 0.60449 0.40281 0.55631 0.0
S431 S 0.47437 0.29423 0.40072 0.0
N432 N 0.52067 0.26386 0.42026 0.0
N433 N 0.48156 0.34931 0.43417 0.0
C434 C 0.52302 0.3445 0.46353 0.0
C435 C 0.54455 0.29836 0.45592 0.0
loop_
_geom_bond_atom_site_label_1
_geom_bond_atom_site_label_2
_geom_bond_distance
_geom_bond_site_symmetry_2
_ccdc_geom_bond_type
H0 C5 0.929 . S
H1 C10 0.931 . S
H2 C8 0.930 . S
N3 N4 1.234 . S
N3 C7 1.453 . S
N4 N3 1.234 . S
C5 H0 0.929 . S
C5 C6 1.373 . S
C5 C7 1.368 . S
C6 C5 1.373 . S
C6 C10 1.397 . S
C7 N3 1.453 . S
C7 C5 1.368 . S
C7 C8 1.373 . S
C8 H2 0.930 . S
C8 C7 1.373 . S
C8 C9 1.371 . S
C9 C8 1.371 . S
C9 C10 1.383 . S
C10 H1 0.931 . S
C10 C6 1.397 . S
C10 C9 1.383 . S
H11 C16 0.929 . S
H12 C21 0.931 . S
H13 C19 0.930 . S
N14 N15 1.234 . S
N14 C18 1.453 . S
N15 N14 1.234 . S
C16 H11 0.929 . S
C16 C17 1.373 . S
C16 C18 1.368 . S
C17 C16 1.373 . S
C17 C21 1.397 . S
C18 N14 1.453 . S
C18 C16 1.368 . S
C18 C19 1.373 . S
C19 H13 0.930 . S
C19 C18 1.373 . S
C19 C20 1.371 . S
C20 C19 1.371 . S
C20 C21 1.383 . S
C21 H12 0.931 . S
C21 C17 1.397 . S
C21 C20 1.383 . S
H22 C27 0.929 . S
H23 C32 0.931 . S
H24 C30 0.930 . S
N25 N26 1.234 . S
N25 C29 1.453 . S
N26 N25 1.234 . S
C27 H22 0.929 . S
C27 C28 1.373 . S
C27 C29 1.368 . S
C28 C27 1.373 . S
C28 C32 1.397 . S
C29 N25 1.453 . S
C29 C27 1.368 . S
C29 C30 1.373 . S
C30 H24 0.930 . S
C30 C29 1.373 . S
C30 C31 1.371 . S
C31 C30 1.371 . S
C31 C32 1.383 . S
C32 H23 0.931 . S
C32 C28 1.397 . S
C32 C31 1.383 . S
H33 C38 0.929 . S
H34 C43 0.931 . S
H35 C41 0.930 . S
N36 N37 1.234 . S
N36 C40 1.453 . S
N37 N36 1.234 . S
C38 H33 0.929 . S
C38 C39 1.373 . S
C38 C40 1.368 . S
C39 C38 1.373 . S
C39 C43 1.397 . S
C40 N36 1.453 . S
C40 C38 1.368 . S
C40 C41 1.373 . S
C41 H35 0.930 . S
C41 C40 1.373 . S
C41 C42 1.371 . S
C42 C41 1.371 . S
C42 C43 1.383 . S
C43 H34 0.931 . S
C43 C39 1.397 . S
C43 C42 1.383 . S
H44 C49 0.929 . S
H45 C54 0.931 . S
H46 C52 0.930 . S
N47 N48 1.234 . S
N47 C51 1.453 . S
N48 N47 1.234 . S
C49 H44 0.929 . S
C49 C50 1.373 . S
C49 C51 1.368 . S
C50 C49 1.373 . S
C50 C54 1.397 . S
C51 N47 1.453 . S
C51 C49 1.368 . S
C51 C52 1.373 . S
C52 H46 0.930 . S
C52 C51 1.373 . S
C52 C53 1.371 . S
C53 C52 1.371 . S
C53 C54 1.383 . S
C54 H45 0.931 . S
C54 C50 1.397 . S
C54 C53 1.383 . S
H55 C60 0.929 . S
H56 C65 0.931 . S
H57 C63 0.930 . S
N58 N59 1.234 . S
N58 C62 1.453 . S
N59 N58 1.234 . S
C60 H55 0.929 . S
C60 C61 1.373 . S
C60 C62 1.368 . S
C61 C60 1.373 . S
C61 C65 1.397 . S
C62 N58 1.453 . S
C62 C60 1.368 . S
C62 C63 1.373 . S
C63 H57 0.930 . S
C63 C62 1.373 . S
C63 C64 1.371 . S
C64 C63 1.371 . S
C64 C65 1.383 . S
C65 H56 0.931 . S
C65 C61 1.397 . S
C65 C64 1.383 . S
H66 C71 0.929 . S
H67 C76 0.931 . S
H68 C74 0.930 . S
N69 N70 1.234 . S
N69 C73 1.453 . S
N70 N69 1.234 . S
C71 H66 0.929 . S
C71 C72 1.373 . S
C71 C73 1.368 . S
C72 C71 1.373 . S
C72 C76 1.397 . S
C73 N69 1.453 . S
C73 C71 1.368 . S
C73 C74 1.373 . S
C74 H68 0.930 . S
C74 C73 1.373 . S
C74 C75 1.371 . S
C75 C74 1.371 . S
C75 C76 1.383 . S
C76 H67 0.931 . S
C76 C72 1.397 . S
C76 C75 1.383 . S
H77 C82 0.929 . S
H78 C87 0.931 . S
H79 C85 0.930 . S
N80 N81 1.234 . S
N80 C84 1.453 . S
N81 N80 1.234 . S
C82 H77 0.929 . S
C82 C83 1.373 . S
C82 C84 1.368 . S
C83 C82 1.373 . S
C83 C87 1.397 . S
C84 N80 1.453 . S
C84 C82 1.368 . S
C84 C85 1.373 . S
C85 H79 0.930 . S
C85 C84 1.373 . S
C85 C86 1.371 . S
C86 C85 1.371 . S
C86 C87 1.383 . S
C87 H78 0.931 . S
C87 C83 1.397 . S
C87 C86 1.383 . S
O88 Mg89 1.990 . S
O88 C102 1.253 1_445 S
Mg89 O88 1.990 . S
Mg89 O92 2.180 . S
Mg89 O93 2.117 . S
Mg89 O107 2.030 . S
O90 Mg91 2.072 1_665 S
O90 C102 1.260 . S
Mg91 O90 2.072 1_445 S
Mg91 O92 2.099 . S
Mg91 O94 2.079 . S
Mg91 O95 2.072 1_455 S
Mg91 O97 2.099 1_445 S
Mg91 O108 2.079 . S
O92 Mg89 2.180 . S
O92 Mg91 2.099 . S
O92 C103 1.279 . S
O93 Mg89 2.117 . S
O93 C103 1.250 . S
O94 Mg91 2.079 . S
O94 C104 1.264 . S
O95 Mg91 2.072 1_655 S
O95 C105 1.260 . S
Mg96 O97 2.180 . S
Mg96 O98 2.030 1_565 S
Mg96 O99 1.990 1_565 S
Mg96 O100 2.117 . S
O97 Mg91 2.099 1_665 S
O97 Mg96 2.180 . S
O97 C106 1.279 . S
O98 Mg96 2.030 1_545 S
O98 C104 1.248 1_655 S
O99 Mg96 1.990 1_545 S
O99 C105 1.253 . S
O100 Mg96 2.117 . S
O100 C106 1.250 . S
C101 O107 1.248 1_565 S
C101 O108 1.264 1_565 S
C102 O88 1.253 1_665 S
C102 O90 1.260 . S
C103 O92 1.279 . S
C103 O93 1.250 . S
C104 O94 1.264 . S
C104 O98 1.248 1_455 S
C105 O95 1.260 . S
C105 O99 1.253 . S
C106 O97 1.279 . S
C106 O100 1.250 . S
O107 Mg89 2.030 . S
O107 C101 1.248 1_545 S
O108 Mg91 2.079 . S
O108 C101 1.264 1_545 S
O109 Mg110 1.990 . S
O109 C123 1.253 . S
Mg110 O109 1.990 . S
Mg110 O113 2.180 . S
Mg110 O114 2.117 . S
Mg110 O128 2.030 . S
O111 Mg112 2.072 . S
O111 C123 1.260 . S
Mg112 O111 2.072 . S
Mg112 O113 2.099 . S
Mg112 O115 2.079 . S
Mg112 O116 2.072 1_554 S
Mg112 O118 2.099 1_545 S
Mg112 O129 2.079 . S
O113 Mg110 2.180 . S
O113 Mg112 2.099 . S
O113 C124 1.279 1_554 S
O114 Mg110 2.117 . S
O114 C124 1.250 1_554 S
O115 Mg112 2.079 . S
O115 C125 1.264 1_544 S
O116 Mg112 2.072 1_556 S
O116 C126 1.260 1_545 S
Mg117 O118 2.180 1_556 S
Mg117 O119 2.030 . S
Mg117 O120 1.990 . S
Mg117 O121 2.117 1_556 S
O118 Mg112 2.099 1_565 S
O118 Mg117 2.180 1_554 S
O118 C127 1.279 . S
O119 Mg117 2.030 . S
O119 C125 1.248 . S
O120 Mg117 1.990 . S
O120 C126 1.253 . S
O121 Mg117 2.117 1_554 S
O121 C127 1.250 . S
C122 O128 1.248 . S
C122 O129 1.264 . S
C123 O109 1.253 . S
C123 O111 1.260 . S
C124 O113 1.279 1_556 S
C124 O114 1.250 1_556 S
C125 O115 1.264 1_566 S
C125 O119 1.248 . S
C126 O116 1.260 1_565 S
C126 O120 1.253 . S
C127 O118 1.279 . S
C127 O121 1.250 . S
O128 Mg110 2.030 . S
O128 C122 1.248 . S
O129 Mg112 2.079 . S
O129 C122 1.264 . S
O130 Mg131 1.990 . S
O130 C144 1.253 . S
Mg131 O130 1.990 . S
Mg131 O134 2.180 . S
Mg131 O135 2.117 . S
Mg131 O149 2.030 . S
O132 Mg133 2.072 . S
O132 C144 1.260 . S
Mg133 O132 2.072 . S
Mg133 O134 2.099 . S
Mg133 O136 2.079 . S
Mg133 O137 2.072 . S
Mg133 O139 2.099 . S
Mg133 O150 2.079 . S
O134 Mg131 2.180 . S
O134 Mg133 2.099 . S
O134 C145 1.279 . S
O135 Mg131 2.117 . S
O135 C145 1.250 . S
O136 Mg133 2.079 . S
O136 C146 1.264 . S
O137 Mg133 2.072 . S
O137 C147 1.260 . S
Mg138 O139 2.180 . S
Mg138 O140 2.030 . S
Mg138 O141 1.990 . S
Mg138 O142 2.117 . S
O139 Mg133 2.099 . S
O139 Mg138 2.180 . S
O139 C148 1.279 . S
O140 Mg138 2.030 . S
O140 C146 1.248 . S
O141 Mg138 1.990 . S
O141 C147 1.253 . S
O142 Mg138 2.117 . S
O142 C148 1.250 . S
C143 O149 1.248 . S
C143 O150 1.264 . S
C144 O130 1.253 . S
C144 O132 1.260 . S
C145 O134 1.279 . S
C145 O135 1.250 . S
C146 O136 1.264 . S
C146 O140 1.248 . S
C147 O137 1.260 . S
C147 O141 1.253 . S
C148 O139 1.279 . S
C148 O142 1.250 . S
O149 Mg131 2.030 . S
O149 C143 1.248 . S
O150 Mg133 2.079 . S
O150 C143 1.264 . S
O151 Mg152 1.990 . S
O151 C165 1.253 . S
Mg152 O151 1.990 . S
Mg152 O155 2.180 . S
Mg152 O156 2.117 1_455 S
Mg152 O170 2.030 . S
O153 Mg154 2.072 . S
O153 C165 1.260 . S
Mg154 O153 2.072 . S
Mg154 O155 2.099 . S
Mg154 O157 2.079 1_554 S
Mg154 O158 2.072 1_454 S
Mg154 O160 2.099 1_554 S
Mg154 O171 2.079 . S
O155 Mg152 2.180 . S
O155 Mg154 2.099 . S
O155 C166 1.279 1_455 S
O156 Mg152 2.117 1_655 S
O156 C166 1.250 . S
O157 Mg154 2.079 1_556 S
O157 C167 1.264 1_455 S
O158 Mg154 2.072 1_656 S
O158 C168 1.260 . S
Mg159 O160 2.180 1_655 S
Mg159 O161 2.030 . S
Mg159 O162 1.990 . S
Mg159 O163 2.117 1_655 S
O160 Mg154 2.099 1_556 S
O160 Mg159 2.180 1_455 S
O160 C169 1.279 . S
O161 Mg159 2.030 . S
O161 C167 1.248 . S
O162 Mg159 1.990 . S
O162 C168 1.253 . S
O163 Mg159 2.117 1_455 S
O163 C169 1.250 . S
C164 O170 1.248 . S
C164 O171 1.264 . S
C165 O151 1.253 . S
C165 O153 1.260 . S
C166 O155 1.279 1_655 S
C166 O156 1.250 . S
C167 O157 1.264 1_655 S
C167 O161 1.248 . S
C168 O158 1.260 . S
C168 O162 1.253 . S
C169 O160 1.279 . S
C169 O163 1.250 . S
O170 Mg152 2.030 . S
O170 C164 1.248 . S
O171 Mg154 2.079 . S
O171 C164 1.264 . S
C172 C173 1.369 . S
C172 C174 1.419 . S
C172 H176 0.930 . S
C173 C172 1.369 . S
C173 C182 1.429 . S
C174 C172 1.419 . S
C174 C175 1.363 . S
C174 H177 0.929 . S
C175 C174 1.363 . S
C175 C181 1.428 . S
H176 C172 0.930 . S
H177 C174 0.929 . S
S178 N179 1.613 . S
S178 N180 1.610 . S
N179 S178 1.613 . S
N179 C182 1.350 . S
N180 S178 1.610 . S
N180 C181 1.351 . S
C181 C175 1.428 . S
C181 N180 1.351 . S
C181 C182 1.434 . S
C182 C173 1.429 . S
C182 N179 1.350 . S
C182 C181 1.434 . S
C183 C184 1.369 . S
C183 C185 1.419 . S
C183 H187 0.930 . S
C184 C183 1.369 . S
C184 C193 1.429 . S
C185 C183 1.419 . S
C185 C186 1.363 . S
C185 H188 0.929 . S
C186 C185 1.363 . S
C186 C192 1.428 . S
H187 C183 0.930 . S
H188 C185 0.929 . S
S189 N190 1.613 . S
S189 N191 1.610 . S
N190 S189 1.613 . S
N190 C193 1.350 . S
N191 S189 1.610 . S
N191 C192 1.351 . S
C192 C186 1.428 . S
C192 N191 1.351 . S
C192 C193 1.434 . S
C193 C184 1.429 . S
C193 N190 1.350 . S
C193 C192 1.434 . S
C194 C195 1.369 . S
C194 C196 1.419 . S
C194 H198 0.930 . S
C195 C194 1.369 . S
C195 C204 1.429 . S
C196 C194 1.419 . S
C196 C197 1.363 . S
C196 H199 0.929 . S
C197 C196 1.363 . S
C197 C203 1.428 . S
H198 C194 0.930 . S
H199 C196 0.929 . S
S200 N201 1.613 . S
S200 N202 1.610 . S
N201 S200 1.613 . S
N201 C204 1.350 . S
N202 S200 1.610 . S
N202 C203 1.351 . S
C203 C197 1.428 . S
C203 N202 1.351 . S
C203 C204 1.434 . S
C204 C195 1.429 . S
C204 N201 1.350 . S
C204 C203 1.434 . S
C205 C206 1.369 . S
C205 C207 1.419 . S
C205 H209 0.930 . S
C206 C205 1.369 . S
C206 C215 1.429 . S
C207 C205 1.419 . S
C207 C208 1.363 . S
C207 H210 0.929 . S
C208 C207 1.363 . S
C208 C214 1.428 . S
H209 C205 0.930 . S
H210 C207 0.929 . S
S211 N212 1.613 . S
S211 N213 1.610 . S
N212 S211 1.613 . S
N212 C215 1.350 1_455 S
N213 S211 1.610 . S
N213 C214 1.351 1_455 S
C214 C208 1.428 . S
C214 N213 1.351 1_655 S
C214 C215 1.434 . S
C215 C206 1.429 . S
C215 N212 1.350 1_655 S
C215 C214 1.434 . S
C216 C217 1.369 . S
C216 C218 1.419 . S
C216 H220 0.930 . S
C217 C216 1.369 . S
C217 C226 1.429 . S
C218 C216 1.419 . S
C218 C219 1.363 . S
C218 H221 0.929 . S
C219 C218 1.363 . S
C219 C225 1.428 . S
H220 C216 0.930 . S
H221 C218 0.929 . S
S222 N223 1.613 1_565 S
S222 N224 1.610 1_565 S
N223 S222 1.613 1_545 S
N223 C226 1.350 . S
N224 S222 1.610 1_545 S
N224 C225 1.351 . S
C225 C219 1.428 . S
C225 N224 1.351 . S
C225 C226 1.434 . S
C226 C217 1.429 . S
C226 N223 1.350 . S
C226 C225 1.434 . S
C227 C228 1.369 . S
C227 C229 1.419 . S
C227 H231 0.930 . S
C228 C227 1.369 . S
C228 C237 1.428 . S
C229 C227 1.419 . S
C229 C230 1.363 . S
C229 H232 0.929 . S
C230 C229 1.363 . S
C230 C236 1.428 1_565 S
H231 C227 0.930 . S
H232 C229 0.929 . S
S233 N234 1.613 . S
S233 N235 1.610 . S
N234 S233 1.613 . S
N234 C237 1.350 1_545 S
N235 S233 1.610 . S
N235 C236 1.351 . S
C236 C230 1.428 1_545 S
C236 N235 1.351 . S
C236 C237 1.434 1_545 S
C237 C228 1.428 . S
C237 N234 1.350 1_565 S
C237 C236 1.434 1_565 S
C238 C239 1.369 . S
C238 C240 1.419 . S
C238 H242 0.930 . S
C239 C238 1.369 . S
C239 C248 1.429 . S
C240 C238 1.419 . S
C240 C241 1.363 . S
C240 H243 0.929 . S
C241 C240 1.363 . S
C241 C247 1.428 . S
H242 C238 0.930 . S
H243 C240 0.929 . S
S244 N245 1.613 . S
S244 N246 1.610 . S
N245 S244 1.613 . S
N245 C248 1.350 . S
N246 S244 1.610 . S
N246 C247 1.351 . S
C247 C241 1.428 . S
C247 N246 1.351 . S
C247 C248 1.434 . S
C248 C239 1.429 . S
C248 N245 1.350 . S
C248 C247 1.434 . S
C249 C250 1.369 . S
C249 C251 1.419 . S
C249 H253 0.930 . S
C250 C249 1.369 . S
C250 C259 1.429 . S
C251 C249 1.419 . S
C251 C252 1.363 . S
C251 H254 0.929 . S
C252 C251 1.363 . S
C252 C258 1.428 . S
H253 C249 0.930 . S
H254 C251 0.929 . S
S255 N256 1.613 . S
S255 N257 1.610 . S
N256 S255 1.613 . S
N256 C259 1.350 . S
N257 S255 1.610 . S
N257 C258 1.351 . S
C258 C252 1.428 . S
C258 N257 1.351 . S
C258 C259 1.434 . S
C259 C250 1.429 . S
C259 N256 1.350 . S
C259 C258 1.434 . S
C260 C261 1.369 . S
C260 C262 1.419 . S
C260 H264 0.930 . S
C261 C260 1.369 . S
C261 C270 1.429 . S
C262 C260 1.419 . S
C262 C263 1.363 . S
C262 H265 0.929 . S
C263 C262 1.363 . S
C263 C269 1.428 . S
H264 C260 0.930 . S
H265 C262 0.929 . S
S266 N267 1.613 1_656 S
S266 N268 1.610 1_556 S
N267 S266 1.613 1_454 S
N267 C270 1.350 . S
N268 S266 1.610 1_554 S
N268 C269 1.351 1_655 S
C269 C263 1.428 . S
C269 N268 1.351 1_455 S
C269 C270 1.434 . S
C270 C261 1.429 . S
C270 N267 1.350 . S
C270 C269 1.434 . S
C271 C272 1.369 . S
C271 C273 1.419 . S
C271 H275 0.930 . S
C272 C271 1.369 . S
C272 C281 1.429 . S
C273 C271 1.419 . S
C273 C274 1.363 . S
C273 H276 0.929 . S
C274 C273 1.363 . S
C274 C280 1.428 . S
H275 C271 0.930 . S
H276 C273 0.929 . S
S277 N278 1.613 . S
S277 N279 1.610 . S
N278 S277 1.613 . S
N278 C281 1.350 1_554 S
N279 S277 1.610 . S
N279 C280 1.351 1_554 S
C280 C274 1.428 . S
C280 N279 1.351 1_556 S
C280 C281 1.434 . S
C281 C272 1.429 . S
C281 N278 1.350 1_556 S
C281 C280 1.434 . S
C282 C283 1.369 . S
C282 C284 1.419 . S
C282 H286 0.930 . S
C283 C282 1.369 . S
C283 C292 1.429 . S
C284 C282 1.419 . S
C284 C285 1.363 . S
C284 H287 0.929 . S
C285 C284 1.363 . S
C285 C291 1.428 . S
H286 C282 0.930 . S
H287 C284 0.929 . S
S288 N289 1.613 1_455 S
S288 N290 1.610 . S
N289 S288 1.613 1_655 S
N289 C292 1.350 . S
N290 S288 1.610 . S
N290 C291 1.351 1_455 S
C291 C285 1.428 . S
C291 N290 1.351 1_655 S
C291 C292 1.434 . S
C292 C283 1.429 . S
C292 N289 1.350 . S
C292 C291 1.434 . S
C293 C294 1.369 . S
C293 C295 1.419 . S
C293 H297 0.930 . S
C294 C293 1.369 . S
C294 C303 1.429 . S
C295 C293 1.419 . S
C295 C296 1.363 . S
C295 H298 0.929 . S
C296 C295 1.363 . S
C296 C302 1.428 . S
H297 C293 0.930 . S
H298 C295 0.929 . S
S299 N300 1.613 . S
S299 N301 1.610 . S
N300 S299 1.613 . S
N300 C303 1.350 . S
N301 S299 1.610 . S
N301 C302 1.351 . S
C302 C296 1.428 . S
C302 N301 1.351 . S
C302 C303 1.434 . S
C303 C294 1.429 . S
C303 N300 1.350 . S
C303 C302 1.434 . S
C304 C305 1.369 . S
C304 C306 1.419 . S
C304 H308 0.930 . S
C305 C304 1.369 . S
C305 C314 1.429 . S
C306 C304 1.419 . S
C306 C307 1.363 . S
C306 H309 0.929 . S
C307 C306 1.363 . S
C307 C313 1.428 1_655 S
H308 C304 0.930 . S
H309 C306 0.929 . S
S310 N311 1.613 . S
S310 N312 1.610 . S
N311 S310 1.613 . S
N311 C314 1.350 1_455 S
N312 S310 1.610 . S
N312 C313 1.351 . S
C313 C307 1.428 1_455 S
C313 N312 1.351 . S
C313 C314 1.434 1_455 S
C314 C305 1.429 . S
C314 N311 1.350 1_655 S
C314 C313 1.434 1_655 S
C315 C316 1.369 . S
C315 C317 1.419 . S
C315 H319 0.930 . S
C316 C315 1.369 . S
C316 C325 1.429 . S
C317 C315 1.419 . S
C317 C318 1.363 . S
C317 H320 0.929 . S
C318 C317 1.363 . S
C318 C324 1.428 . S
H319 C315 0.930 . S
H320 C317 0.929 . S
S321 N322 1.613 . S
S321 N323 1.610 . S
N322 S321 1.613 . S
N322 C325 1.350 . S
N323 S321 1.610 . S
N323 C324 1.351 . S
C324 C318 1.428 . S
C324 N323 1.351 . S
C324 C325 1.434 . S
C325 C316 1.429 . S
C325 N322 1.350 . S
C325 C324 1.434 . S
C326 C327 1.369 . S
C326 C328 1.419 . S
C326 H330 0.930 . S
C327 C326 1.369 . S
C327 C336 1.429 . S
C328 C326 1.419 . S
C328 C329 1.363 . S
C328 H331 0.929 . S
C329 C328 1.363 . S
C329 C335 1.428 . S
H330 C326 0.930 . S
H331 C328 0.929 . S
S332 N333 1.613 . S
S332 N334 1.610 . S
N333 S332 1.613 . S
N333 C336 1.350 . S
N334 S332 1.610 . S
N334 C335 1.351 . S
C335 C329 1.428 . S
C335 N334 1.351 . S
C335 C336 1.434 . S
C336 C327 1.429 . S
C336 N333 1.350 . S
C336 C335 1.434 . S
C337 C338 1.369 . S
C337 C339 1.419 . S
C337 H341 0.930 . S
C338 C337 1.369 . S
C338 C347 1.429 . S
C339 C337 1.419 . S
C339 C340 1.363 . S
C339 H342 0.929 . S
C340 C339 1.363 . S
C340 C346 1.428 . S
H341 C337 0.930 . S
H342 C339 0.929 . S
S343 N344 1.613 . S
S343 N345 1.610 . S
N344 S343 1.613 . S
N344 C347 1.350 . S
N345 S343 1.610 . S
N345 C346 1.351 . S
C346 C340 1.428 . S
C346 N345 1.351 . S
C346 C347 1.434 . S
C347 C338 1.429 . S
C347 N344 1.350 . S
C347 C346 1.434 . S
C348 C349 1.369 . S
C348 C350 1.419 1_556 S
C348 H352 0.930 1_556 S
C349 C348 1.369 . S
C349 C358 1.429 . S
C350 C348 1.419 1_554 S
C350 C351 1.363 1_554 S
C350 H353 0.929 . S
C351 C350 1.363 1_556 S
C351 C357 1.428 . S
H352 C348 0.930 1_554 S
H353 C350 0.929 . S
S354 N355 1.613 1_545 S
S354 N356 1.610 . S
N355 S354 1.613 1_565 S
N355 C358 1.350 . S
N356 S354 1.610 . S
N356 C357 1.351 1_545 S
C357 C351 1.428 . S
C357 N356 1.351 1_565 S
C357 C358 1.434 . S
C358 C349 1.429 . S
C358 N355 1.350 . S
C358 C357 1.434 . S
C359 C360 1.369 . S
C359 C361 1.419 . S
C359 H363 0.930 . S
C360 C359 1.369 . S
C360 C369 1.429 . S
C361 C359 1.419 . S
C361 C362 1.363 . S
C361 H364 0.929 . S
C362 C361 1.363 . S
C362 C368 1.428 . S
H363 C359 0.930 . S
H364 C361 0.929 . S
S365 N366 1.613 . S
S365 N367 1.610 . S
N366 S365 1.613 . S
N366 C369 1.350 . S
N367 S365 1.610 . S
N367 C368 1.351 . S
C368 C362 1.428 . S
C368 N367 1.351 . S
C368 C369 1.434 . S
C369 C360 1.429 . S
C369 N366 1.350 . S
C369 C368 1.434 . S
C370 C371 1.369 . S
C370 C372 1.419 . S
C370 H374 0.930 . S
C371 C370 1.369 . S
C371 C380 1.429 . S
C372 C370 1.419 . S
C372 C373 1.363 . S
C372 H375 0.929 . S
C373 C372 1.363 . S
C373 C379 1.428 . S
H374 C370 0.930 . S
H375 C372 0.929 . S
S376 N377 1.613 . S
S376 N378 1.610 . S
N377 S376 1.613 . S
N377 C380 1.350 . S
N378 S376 1.610 . S
N378 C379 1.351 . S
C379 C373 1.428 . S
C379 N378 1.351 . S
C379 C380 1.434 . S
C380 C371 1.429 . S
C380 N377 1.350 . S
C380 C379 1.434 . S
C381 C382 1.369 . S
C381 C383 1.419 . S
C381 H385 0.930 . S
C382 C381 1.369 . S
C382 C391 1.429 . S
C383 C381 1.419 . S
C383 C384 1.363 . S
C383 H386 0.929 . S
C384 C383 1.363 . S
C384 C390 1.428 . S
H385 C381 0.930 . S
H386 C383 0.929 . S
S387 N388 1.613 . S
S387 N389 1.610 . S
N388 S387 1.613 . S
N388 C391 1.350 . S
N389 S387 1.610 . S
N389 C390 1.351 . S
C390 C384 1.428 . S
C390 N389 1.351 . S
C390 C391 1.434 . S
C391 C382 1.429 . S
C391 N388 1.350 . S
C391 C390 1.434 . S
C392 C393 1.369 . S
C392 C394 1.419 . S
C392 H396 0.930 1_655 S
C393 C392 1.369 . S
C393 C402 1.429 . S
C394 C392 1.419 . S
C394 C395 1.363 . S
C394 H397 0.929 1_655 S
C395 C394 1.363 . S
C395 C401 1.428 . S
H396 C392 0.930 1_455 S
H397 C394 0.929 1_455 S
S398 N399 1.613 . S
S398 N400 1.610 . S
N399 S398 1.613 . S
N399 C402 1.350 . S
N400 S398 1.610 . S
N400 C401 1.351 . S
C401 C395 1.428 . S
C401 N400 1.351 . S
C401 C402 1.434 . S
C402 C393 1.429 . S
C402 N399 1.350 . S
C402 C401 1.434 . S
C403 C404 1.369 . S
C403 C405 1.419 . S
C403 H407 0.930 . S
C404 C403 1.369 . S
C404 C413 1.429 . S
C405 C403 1.419 . S
C405 C406 1.363 . S
C405 H408 0.929 . S
C406 C405 1.363 . S
C406 C412 1.428 . S
H407 C403 0.930 . S
H408 C405 0.929 . S
S409 N410 1.613 1_556 S
S409 N411 1.610 1_556 S
N410 S409 1.613 1_554 S
N410 C413 1.350 . S
N411 S409 1.610 1_554 S
N411 C412 1.351 . S
C412 C406 1.428 . S
C412 N411 1.351 . S
C412 C413 1.434 . S
C413 C404 1.429 . S
C413 N410 1.350 . S
C413 C412 1.434 . S
C414 C415 1.369 . S
C414 C416 1.419 . S
C414 H418 0.930 . S
C415 C414 1.369 . S
C415 C424 1.429 . S
C416 C414 1.419 . S
C416 C417 1.363 . S
C416 H419 0.929 . S
C417 C416 1.363 . S
C417 C423 1.428 . S
H418 C414 0.930 . S
H419 C416 0.929 . S
S420 N421 1.613 . S
S420 N422 1.610 . S
N421 S420 1.613 . S
N421 C424 1.350 1_655 S
N422 S420 1.610 . S
N422 C423 1.351 1_655 S
C423 C417 1.428 . S
C423 N422 1.351 1_455 S
C423 C424 1.434 . S
C424 C415 1.429 . S
C424 N421 1.350 1_455 S
C424 C423 1.434 . S
C425 C426 1.369 . S
C425 C427 1.419 . S
C425 H429 0.930 . S
C426 C425 1.369 . S
C426 C435 1.429 . S
C427 C425 1.419 . S
C427 C428 1.363 . S
C427 H430 0.929 . S
C428 C427 1.363 . S
C428 C434 1.428 . S
H429 C425 0.930 . S
H430 C427 0.929 . S
S431 N432 1.613 . S
S431 N433 1.610 . S
N432 S431 1.613 . S
N432 C435 1.350 . S
N433 S431 1.610 . S
N433 C434 1.351 . S
C434 C428 1.428 . S
C434 N433 1.351 . S
C434 C435 1.434 . S
C435 C426 1.429 . S
C435 N432 1.350 . S
C435 C434 1.434 . S
C173 C6 1.710 . S
C175 C104 1.668 . S
C184 C20 1.708 . S
C186 C126 1.651 . S
C197 C145 1.022 . S
C195 N26 1.214 . S
C206 N37 1.603 . S
C208 C166 1.281 . S
C219 C123 1.966 . S
C217 C9 2.037 . S
C230 C101 1.381 . S
C228 N15 1.438 . S
C241 C168 1.281 . S
C239 C31 1.317 . S
C252 C147 1.321 . S
C250 C39 1.422 . S
C261 N4 1.660 . S
C263 C165 1.625 . S
C274 C124 1.343 . S
C272 C28 1.660 . S
C283 C42 1.472 . S
C285 C106 1.328 . S
C294 C17 1.602 . S
C296 C144 1.563 . S
C307 C102 1.705 . S
C305 C50 1.812 . S
C316 C61 1.448 . S
C318 C122 1.442 . S
C327 N70 1.439 . S
C329 C148 1.188 . S
C338 N81 1.421 . S
C340 C169 1.139 . S
C349 N48 1.513 . S
C351 C125 1.484 . S
C362 C105 1.932 . S
C360 C64 1.962 . S
C373 C164 1.179 . S
C371 C75 1.255 . S
C384 C143 1.421 . S
C382 C86 1.434 . S
C393 C53 1.743 . S
C395 C167 1.674 . S
C406 C127 1.075 . S
C404 C72 1.305 . S
C417 C103 1.379 . S
C415 C83 1.552 . S
C426 N59 1.507 . S
C428 C146 1.476 . S
