# Generated by pormake.
# Topology rtl, (3,6)-cn, num edge types: 1
# Building blocks:
#     Node 0, Type 0, BuildingBlock: KAKCAD_clean_linker_0, # of connection points: 3
#     Node 1, Type 0, BuildingBlock: KAKCAD_clean_linker_0, # of connection points: 3
#     Node 2, Type 0, BuildingBlock: KAKCAD_clean_linker_0, # of connection points: 3
#     Node 3, Type 0, BuildingBlock: KAKCAD_clean_linker_0, # of connection points: 3
#     Node 4, Type 1, BuildingBlock: VOLQOD_clean_sbu_1, # of connection points: 6
#     Node 5, Type 1, BuildingBlock: VOLQOD_clean_sbu_1, # of connection points: 6
#     Edge 6, Type (0, 1), BuildingBlock: FUNLAD_clean_linker_1, # of connection points: 2
#     Edge 7, Type (0, 1), BuildingBlock: FUNLAD_clean_linker_1, # of connection points: 2
#     Edge 8, Type (0, 1), BuildingBlock: FUNLAD_clean_linker_1, # of connection points: 2
#     Edge 9, Type (0, 1), BuildingBlock: FUNLAD_clean_linker_1, # of connection points: 2
#     Edge 10, Type (0, 1), BuildingBlock: FUNLAD_clean_linker_1, # of connection points: 2
#     Edge 11, Type (0, 1), BuildingBlock: FUNLAD_clean_linker_1, # of connection points: 2
#     Edge 12, Type (0, 1), BuildingBlock: FUNLAD_clean_linker_1, # of connection points: 2
#     Edge 13, Type (0, 1), BuildingBlock: FUNLAD_clean_linker_1, # of connection points: 2
#     Edge 14, Type (0, 1), BuildingBlock: FUNLAD_clean_linker_1, # of connection points: 2
#     Edge 15, Type (0, 1), BuildingBlock: FUNLAD_clean_linker_1, # of connection points: 2
#     Edge 16, Type (0, 1), BuildingBlock: FUNLAD_clean_linker_1, # of connection points: 2
#     Edge 17, Type (0, 1), BuildingBlock: FUNLAD_clean_linker_1, # of connection points: 2
# Relax obj value: 0.078
# Max RMSD: 0.156
# Mean RMSD: 0.088
data_MOF--net-rtl--node1-VOLQOD_clean_sbu_1--node2-KAKCAD_clean_linker_0--edge1-FUNLAD_clean_linker_1
_symmetry_space_group_name_H-M    P1
_symmetry_Int_Tables_number       1
_symmetry_cell_setting            triclinic
loop_
_symmetry_equiv_pos_as_xyz
'x, y, z'
_cell_length_a     46.449829
_cell_length_b     40.296125
_cell_length_c     30.072877
_cell_angle_alpha  89.861252
_cell_angle_beta   90.315762
_cell_angle_gamma 90.13194
loop_
_atom_site_label
_atom_site_type_symbol
_atom_site_fract_x
_atom_site_fract_y
_atom_site_fract_z
_atom_type_partial_charge
C0 C 0.0958 0.75342 0.84739 0.0
C1 C 0.08649 0.78646 0.84894 0.0
C2 C 0.10114 0.7358 0.88677 0.0
C3 C 0.09807 0.75128 0.92844 0.0
C4 C 0.08912 0.78466 0.92951 0.0
C5 C 0.08313 0.80188 0.89033 0.0
C6 C 0.1055 0.73368 0.97069 0.0
C7 C 0.1285 0.71103 0.97257 0.0
C8 C 0.1378 0.69785 0.01344 0.0
C9 C 0.12412 0.70747 0.05282 0.0
C10 C 0.10102 0.72979 0.05161 0.0
C11 C 0.09128 0.74181 0.01036 0.0
C12 C 0.08911 0.74343 0.09343 0.0
C13 C 0.08366 0.72293 0.13036 0.0
C14 C 0.08429 0.77772 0.09709 0.0
C15 C 0.07471 0.79133 0.13686 0.0
C16 C 0.06997 0.771 0.17419 0.0
C17 C 0.16354 0.67642 0.01538 0.0
C18 C 0.16523 0.64766 0.98926 0.0
C19 C 0.18689 0.68516 0.04281 0.0
C20 C 0.21177 0.66582 0.04347 0.0
C21 C 0.21359 0.6372 0.01704 0.0
C22 C 0.18995 0.62792 0.9906 0.0
C23 C 0.07392 0.73661 0.1703 0.0
H24 H 0.09872 0.74117 0.8157 0.0
H25 H 0.10771 0.71011 0.88444 0.0
H26 H 0.0875 0.79803 0.96056 0.0
H27 H 0.07682 0.82769 0.89243 0.0
H28 H 0.14038 0.70506 0.94276 0.0
H29 H 0.07294 0.75836 0.00948 0.0
H30 H 0.13218 0.69845 0.08451 0.0
H31 H 0.08694 0.69637 0.12836 0.0
H32 H 0.08851 0.79425 0.06942 0.0
H33 H 0.07092 0.8178 0.13808 0.0
H34 H 0.14738 0.64043 0.96804 0.0
H35 H 0.18608 0.70729 0.06314 0.0
H36 H 0.07001 0.7204 0.19843 0.0
H37 H 0.19087 0.6058 0.97024 0.0
H38 H 0.22947 0.67315 0.06492 0.0
C39 C 0.61127 0.75847 0.66129 0.0
C40 C 0.61074 0.72394 0.66758 0.0
C41 C 0.6194 0.77208 0.62035 0.0
C42 C 0.62735 0.75133 0.58498 0.0
C43 C 0.62764 0.71682 0.59178 0.0
C44 C 0.61954 0.70327 0.63257 0.0
C45 C 0.63529 0.76535 0.54096 0.0
C46 C 0.65349 0.79316 0.53778 0.0
C47 C 0.66232 0.80516 0.49603 0.0
C48 C 0.65214 0.78949 0.45725 0.0
C49 C 0.63406 0.76164 0.45994 0.0
C50 C 0.62562 0.74989 0.50181 0.0
C51 C 0.6252 0.74359 0.41922 0.0
C52 C 0.61377 0.76062 0.38235 0.0
C53 C 0.62845 0.709 0.41703 0.0
C54 C 0.6203 0.6917 0.37883 0.0
C55 C 0.60826 0.7085 0.34233 0.0
C56 C 0.68388 0.83235 0.49306 0.0
C57 C 0.68208 0.86043 0.52057 0.0
C58 C 0.70715 0.82971 0.4636 0.0
C59 C 0.72849 0.85412 0.46242 0.0
C60 C 0.72715 0.8817 0.49092 0.0
C61 C 0.70341 0.88499 0.51922 0.0
C62 C 0.60522 0.74321 0.34425 0.0
H63 H 0.60491 0.77496 0.68788 0.0
H64 H 0.61895 0.79877 0.61612 0.0
H65 H 0.63447 0.70021 0.56562 0.0
H66 H 0.62066 0.67662 0.63661 0.0
H67 H 0.66193 0.80442 0.56785 0.0
H68 H 0.61135 0.72861 0.50386 0.0
H69 H 0.65894 0.79838 0.42491 0.0
H70 H 0.61115 0.78731 0.3832 0.0
H71 H 0.63761 0.69533 0.44474 0.0
H72 H 0.62308 0.66502 0.37802 0.0
H73 H 0.66421 0.86334 0.54322 0.0
H74 H 0.70928 0.80832 0.44213 0.0
H75 H 0.59667 0.75703 0.31626 0.0
H76 H 0.70172 0.9062 0.54112 0.0
H77 H 0.74597 0.85127 0.43911 0.0
C78 C 0.88156 0.22402 0.16744 0.0
C79 C 0.91151 0.2211 0.17209 0.0
C80 C 0.86945 0.23611 0.12808 0.0
C81 C 0.88707 0.24592 0.09253 0.0
C82 C 0.91713 0.24446 0.09789 0.0
C83 C 0.92927 0.23227 0.13731 0.0
C84 C 0.87397 0.25561 0.04926 0.0
C85 C 0.84869 0.27465 0.0479 0.0
C86 C 0.83434 0.28071 0.00749 0.0
C87 C 0.84567 0.26783 0.96795 0.0
C88 C 0.87105 0.24902 0.96873 0.0
C89 C 0.88526 0.24335 0.00931 0.0
C90 C 0.88126 0.23235 0.92807 0.0
C91 C 0.86277 0.21092 0.9047 0.0
C92 C 0.90997 0.23572 0.91436 0.0
C93 C 0.9201 0.21768 0.878 0.0
C94 C 0.90174 0.19557 0.85535 0.0
C95 C 0.80659 0.29873 0.0071 0.0
C96 C 0.78493 0.29006 0.03742 0.0
C97 C 0.80137 0.32424 0.9762 0.0
C98 C 0.77506 0.34107 0.97604 0.0
C99 C 0.75346 0.33244 0.00663 0.0
C100 C 0.75856 0.30656 0.03691 0.0
C101 C 0.87305 0.19238 0.86901 0.0
H102 H 0.86737 0.21577 0.19376 0.0
H103 H 0.84621 0.23654 0.12495 0.0
H104 H 0.93128 0.25246 0.07141 0.0
H105 H 0.95248 0.23152 0.14016 0.0
H106 H 0.83996 0.28458 0.07846 0.0
H107 H 0.90415 0.22759 0.01001 0.0
H108 H 0.8343 0.27157 0.93676 0.0
H109 H 0.84065 0.2076 0.91509 0.0
H110 H 0.92463 0.25194 0.93218 0.0
H111 H 0.94251 0.22011 0.86877 0.0
H112 H 0.78824 0.27013 0.06114 0.0
H113 H 0.8177 0.3313 0.95238 0.0
H114 H 0.85861 0.1753 0.85222 0.0
H115 H 0.74216 0.29925 0.06049 0.0
H116 H 0.77155 0.36031 0.95144 0.0
C117 C 0.39115 0.27673 0.3369 0.0
C118 C 0.41985 0.28607 0.33001 0.0
C119 C 0.38255 0.26342 0.37765 0.0
C120 C 0.40267 0.25829 0.41219 0.0
C121 C 0.43165 0.26689 0.4047 0.0
C122 C 0.44013 0.28082 0.36415 0.0
C123 C 0.3933 0.24446 0.45589 0.0
C124 C 0.37094 0.22093 0.45797 0.0
C125 C 0.36096 0.20904 0.49897 0.0
C126 C 0.37401 0.22006 0.53841 0.0
C127 C 0.39633 0.24365 0.53726 0.0
C128 C 0.40583 0.25568 0.49587 0.0
C129 C 0.40863 0.25721 0.57923 0.0
C130 C 0.39054 0.2655 0.61483 0.0
C131 C 0.43839 0.26286 0.58359 0.0
C132 C 0.44969 0.27714 0.62228 0.0
C133 C 0.43151 0.28642 0.65724 0.0
C134 C 0.33562 0.18672 0.50053 0.0
C135 C 0.31025 0.19555 0.4779 0.0
C136 C 0.33639 0.15694 0.52488 0.0
C137 C 0.31217 0.13622 0.52626 0.0
C138 C 0.28662 0.14544 0.50441 0.0
C139 C 0.28594 0.1752 0.47996 0.0
C140 C 0.40182 0.27983 0.65345 0.0
H141 H 0.37513 0.2806 0.31108 0.0
H142 H 0.35996 0.2578 0.38222 0.0
H143 H 0.4479 0.26266 0.43002 0.0
H144 H 0.4626 0.28704 0.35937 0.0
H145 H 0.36116 0.21164 0.42765 0.0
H146 H 0.42218 0.27488 0.49499 0.0
H147 H 0.36625 0.21085 0.57006 0.0
H148 H 0.3675 0.26161 0.6125 0.0
H149 H 0.45295 0.25629 0.55703 0.0
H150 H 0.47267 0.28158 0.62451 0.0
H151 H 0.30911 0.21844 0.459 0.0
H152 H 0.3558 0.14956 0.54238 0.0
H153 H 0.38717 0.2856 0.68015 0.0
H154 H 0.26679 0.18256 0.46181 0.0
H155 H 0.31325 0.11322 0.54492 0.0
O156 O 0.93796 0.00674 0.49138 0.0
Zn157 Zn 0.97468 0.0338 0.49624 0.0
O158 O 0.00854 0.00539 0.50434 0.0
Zn159 Zn 0.02685 0.01491 0.56174 0.0
Zn160 Zn 0.99653 0.9589 0.50256 0.0
Zn161 Zn 0.03618 0.01372 0.45676 0.0
O162 O 0.06642 0.03484 0.55359 0.0
O163 O 0.074 0.0304 0.48093 0.0
O164 O 0.97009 0.06462 0.54816 0.0
O165 O 0.00334 0.0478 0.59672 0.0
O166 O 0.03122 0.97309 0.59824 0.0
O167 O 0.00756 0.93505 0.55882 0.0
O168 O 0.01463 0.93474 0.45137 0.0
O169 O 0.97824 0.06165 0.4409 0.0
O170 O 0.04332 0.97257 0.42086 0.0
O171 O 0.0212 0.0483 0.41416 0.0
C172 C 0.93335 0.97555 0.49153 0.0
C173 C 0.08252 0.03839 0.51979 0.0
C174 C 0.0219 0.94357 0.59308 0.0
C175 C 0.98217 0.06634 0.58615 0.0
C176 C 0.03295 0.94335 0.42218 0.0
C177 C 0.99798 0.06489 0.41196 0.0
O178 O 0.95378 0.9548 0.49533 0.0
O179 O 0.56676 0.51089 0.00065 0.0
Zn180 Zn 0.53198 0.54055 -0.00019 0.0
O181 O 0.49644 0.5142 0.99715 0.0
Zn182 Zn 0.47508 0.5257 0.94307 0.0
Zn183 Zn 0.50557 0.46658 0.99711 0.0
Zn184 Zn 0.47278 0.52437 0.04883 0.0
O185 O 0.43618 0.54479 0.95722 0.0
O186 O 0.43328 0.53988 0.03069 0.0
O187 O 0.53575 0.57038 0.94615 0.0
O188 O 0.49656 0.55919 0.90615 0.0
O189 O 0.46864 0.48529 0.9051 0.0
O190 O 0.48953 0.444 0.94227 0.0
O191 O 0.48973 0.44344 0.05172 0.0
O192 O 0.5333 0.56931 0.05461 0.0
O193 O 0.46815 0.48436 0.088 0.0
O194 O 0.49093 0.56009 0.08639 0.0
C195 C 0.57 0.47958 0.99908 0.0
C196 C 0.42225 0.5477 0.99328 0.0
C197 C 0.47549 0.45485 0.90875 0.0
C198 C 0.52013 0.5748 0.91171 0.0
C199 C 0.47565 0.45413 0.08499 0.0
C200 C 0.51514 0.57488 0.08527 0.0
O201 O 0.54855 0.45985 0.99732 0.0
H202 H 0.26464 0.0966 0.5057 0.0
C203 C 0.26117 0.12327 0.50611 0.0
H204 H 0.23068 0.16182 0.51007 0.0
H205 H 0.12422 0.09087 0.42646 0.0
H206 H 0.1345 0.13344 0.37192 0.0
H207 H 0.17899 0.16677 0.37676 0.0
H208 H 0.21324 0.15801 0.43654 0.0
C209 C 0.23422 0.1352 0.50876 0.0
C210 C 0.20839 0.11336 0.50515 0.0
C211 C 0.1889 0.1182 0.46924 0.0
C212 C 0.16366 0.09832 0.46572 0.0
C213 C 0.14409 0.10462 0.43035 0.0
C214 C 0.14966 0.1291 0.39878 0.0
C215 C 0.17466 0.14791 0.40155 0.0
C216 C 0.19412 0.14265 0.43623 0.0
H217 H 0.11538 0.06696 0.55672 0.0
C218 C 0.11107 0.05388 0.52581 0.0
H219 H 0.12689 0.04034 0.46286 0.0
H220 H 0.23905 0.10021 0.58149 0.0
H221 H 0.23057 0.05511 0.63324 0.0
H222 H 0.19002 0.01633 0.622 0.0
H223 H 0.15723 0.02309 0.55966 0.0
C224 C 0.13124 0.05315 0.49395 0.0
C225 C 0.15826 0.07302 0.49752 0.0
C226 C 0.1783 0.06735 0.53254 0.0
C227 C 0.20282 0.08833 0.53731 0.0
C228 C 0.22104 0.08391 0.57478 0.0
C229 C 0.21627 0.05827 0.605 0.0
C230 C 0.19336 0.03654 0.5988 0.0
C231 C 0.17455 0.04089 0.56306 0.0
H232 H 0.23767 0.58986 0.01526 0.0
C233 C 0.23994 0.61668 0.01698 0.0
H234 H 0.26864 0.65729 0.01762 0.0
H235 H 0.37824 0.59073 0.09666 0.0
H236 H 0.36537 0.62929 0.15477 0.0
H237 H 0.31899 0.6589 0.15249 0.0
H238 H 0.28539 0.65047 0.09169 0.0
C239 C 0.26632 0.63045 0.01684 0.0
C240 C 0.29306 0.61023 0.01929 0.0
C241 C 0.31212 0.61471 0.05581 0.0
C242 C 0.33849 0.59692 0.05778 0.0
C243 C 0.35762 0.60296 0.0938 0.0
C244 C 0.35055 0.62513 0.12744 0.0
C245 C 0.32446 0.64185 0.12611 0.0
C246 C 0.30541 0.63683 0.09085 0.0
H247 H 0.38667 0.57529 0.96177 0.0
C248 C 0.39294 0.56147 0.99135 0.0
H249 H 0.38025 0.54354 0.05421 0.0
H250 H 0.26342 0.59852 0.94142 0.0
H251 H 0.27415 0.55633 0.88682 0.0
H252 H 0.31643 0.51994 0.8959 0.0
H253 H 0.34875 0.52645 0.95888 0.0
C254 C 0.37404 0.55735 0.02459 0.0
C255 C 0.34542 0.57398 0.02381 0.0
C256 C 0.32556 0.56805 0.98864 0.0
C257 C 0.29997 0.58724 0.98528 0.0
C258 C 0.28214 0.58322 0.94729 0.0
C259 C 0.2882 0.55927 0.91539 0.0
C260 C 0.31208 0.53892 0.92036 0.0
C261 C 0.33061 0.54314 0.95647 0.0
H262 H 0.74484 0.93233 0.50151 0.0
C263 C 0.75032 0.90714 0.4919 0.0
H264 H 0.78412 0.87435 0.47564 0.0
H265 H 0.87429 0.97503 0.40371 0.0
H266 H 0.85669 0.95157 0.3343 0.0
H267 H 0.81339 0.91598 0.33294 0.0
H268 H 0.78744 0.90361 0.40087 0.0
C269 C 0.77802 0.89952 0.4842 0.0
C270 C 0.8014 0.92478 0.48473 0.0
C271 C 0.81611 0.93201 0.44466 0.0
C272 C 0.84108 0.95244 0.4454 0.0
C273 C 0.85543 0.95924 0.40497 0.0
C274 C 0.84547 0.94608 0.36493 0.0
C275 C 0.82109 0.92605 0.36416 0.0
C276 C 0.80647 0.91905 0.40342 0.0
H277 H 0.90143 0.93562 0.48397 0.0
C278 C 0.90387 0.96237 0.48724 0.0
H279 H 0.88175 0.00804 0.49345 0.0
H280 H 0.77833 0.91618 0.56797 0.0
H281 H 0.795 0.94162 0.63631 0.0
H282 H 0.83726 0.97883 0.63672 0.0
H283 H 0.86327 0.99052 0.56858 0.0
C284 C 0.88021 0.98141 0.48845 0.0
C285 C 0.85134 0.96548 0.48621 0.0
C286 C 0.83559 0.96015 0.52578 0.0
C287 C 0.81081 0.93932 0.52527 0.0
C288 C 0.7967 0.9326 0.56596 0.0
C289 C 0.80617 0.94689 0.60558 0.0
C290 C 0.82999 0.96779 0.60584 0.0
C291 C 0.84472 0.97429 0.56654 0.0
H292 H 0.70675 0.33503 0.01957 0.0
C293 C 0.72506 0.34908 0.00711 0.0
H294 H 0.73904 0.39597 0.98365 0.0
H295 H 0.61569 0.43866 0.91424 0.0
H296 H 0.64235 0.4348 0.84527 0.0
H297 H 0.69196 0.41309 0.84466 0.0
H298 H 0.71526 0.3952 0.91297 0.0
C299 C 0.72119 0.38099 0.99546 0.0
C300 C 0.69207 0.39628 0.99659 0.0
C301 C 0.67891 0.40683 0.95634 0.0
C302 C 0.65029 0.41928 0.95664 0.0
C303 C 0.63745 0.42921 0.91592 0.0
C304 C 0.65248 0.42705 0.87608 0.0
C305 C 0.68041 0.41482 0.87574 0.0
C306 C 0.69355 0.40469 0.91524 0.0
H307 H 0.61738 0.48375 0.99949 0.0
C308 C 0.59952 0.46626 0.99881 0.0
H309 H 0.58756 0.41553 0.99737 0.0
H310 H 0.71266 0.38375 0.08071 0.0
H311 H 0.68594 0.38783 0.1495 0.0
H312 H 0.63545 0.40672 0.14935 0.0
H313 H 0.61153 0.4221 0.08037 0.0
C314 C 0.60496 0.4336 0.99746 0.0
C315 C 0.63499 0.42119 0.99717 0.0
C316 C 0.64833 0.41139 0.03754 0.0
C317 C 0.67712 0.39952 0.03741 0.0
C318 C 0.69044 0.3916 0.07857 0.0
C319 C 0.67543 0.39413 0.11839 0.0
C320 C 0.64703 0.40484 0.11833 0.0
C321 C 0.63356 0.41354 0.0785 0.0
H322 H 0.04695 0.77027 0.23869 0.0
C323 C 0.06044 0.78527 0.21705 0.0
H324 H 0.08245 0.83094 0.20951 0.0
H325 H 0.99834 0.91624 0.32374 0.0
H326 H 0.98197 0.93102 0.24958 0.0
H327 H 0.99934 0.90054 0.18395 0.0
H328 H 0.03302 0.855 0.19216 0.0
C329 C 0.06841 0.81584 0.23007 0.0
C330 C 0.05629 0.83184 0.27017 0.0
C331 C 0.03676 0.85851 0.2647 0.0
C332 C 0.02707 0.87636 0.30239 0.0
C333 C 0.00701 0.90241 0.29611 0.0
C334 C 0.99727 0.911 0.25374 0.0
C335 C 0.00702 0.89383 0.21681 0.0
C336 C 0.02645 0.86781 0.22201 0.0
H337 H 0.05624 0.9286 0.36186 0.0
C338 C 0.0414 0.91986 0.38721 0.0
H339 H 0.01581 0.87949 0.40919 0.0
H340 H 0.09327 0.78143 0.29233 0.0
H341 H 0.10856 0.76583 0.36675 0.0
H342 H 0.09124 0.7965 0.43226 0.0
H343 H 0.05859 0.84312 0.42366 0.0
C344 C 0.03027 0.88917 0.38399 0.0
C345 C 0.03741 0.86787 0.34537 0.0
C346 C 0.05575 0.84014 0.3511 0.0
C347 C 0.06544 0.82221 0.31337 0.0
C348 C 0.0848 0.79552 0.31985 0.0
C349 C 0.09384 0.78639 0.3624 0.0
C350 C 0.08411 0.80368 0.39928 0.0
C351 C 0.06538 0.83036 0.3939 0.0
H352 H 0.60359 0.72579 0.74044 0.0
C353 C 0.60153 0.71018 0.71114 0.0
H354 H 0.58682 0.66383 0.68678 0.0
H355 H 0.60061 0.58257 0.86299 0.0
H356 H 0.64292 0.56425 0.82325 0.0
H357 H 0.65819 0.59233 0.75429 0.0
H358 H 0.63109 0.63882 0.72452 0.0
C359 C 0.58982 0.67979 0.71544 0.0
C360 C 0.58213 0.66566 0.75951 0.0
C361 C 0.59847 0.6389 0.77689 0.0
C362 C 0.58989 0.62301 0.81695 0.0
C363 C 0.60627 0.59582 0.83296 0.0
C364 C 0.63063 0.585 0.81045 0.0
C365 C 0.6392 0.60079 0.7716 0.0
C366 C 0.6234 0.6274 0.75483 0.0
H367 H 0.51661 0.59903 0.84617 0.0
C368 C 0.52974 0.59745 0.87616 0.0
H369 H 0.56827 0.6128 0.90774 0.0
H370 H 0.54564 0.716 0.735 0.0
H371 H 0.5048 0.73619 0.77678 0.0
H372 H 0.4917 0.71078 0.84862 0.0
H373 H 0.51913 0.66462 0.87872 0.0
C374 C 0.5544 0.61486 0.87865 0.0
C375 C 0.56497 0.63396 0.83957 0.0
C376 C 0.54948 0.66185 0.82342 0.0
C377 C 0.55774 0.67735 0.78288 0.0
C378 C 0.54091 0.70394 0.76628 0.0
C379 C 0.51732 0.7157 0.78985 0.0
C380 C 0.50989 0.70133 0.83023 0.0
C381 C 0.5257 0.67472 0.84699 0.0
H382 H 0.90866 0.20274 0.24125 0.0
C383 C 0.92305 0.20513 0.21297 0.0
H384 H 0.9631 0.18973 0.18679 0.0
H385 H 0.97308 0.16197 0.40606 0.0
H386 H 0.97308 0.2219 0.41391 0.0
H387 H 0.9661 0.25823 0.34859 0.0
H388 H 0.95895 0.23483 0.27504 0.0
C389 C 0.94888 0.1902 0.21527 0.0
C390 C 0.9563 0.16883 0.25402 0.0
C391 C 0.96086 0.18294 0.29663 0.0
C392 C 0.96525 0.16201 0.33416 0.0
C393 C 0.96959 0.17672 0.37641 0.0
C394 C 0.96971 0.21108 0.38138 0.0
C395 C 0.96575 0.23154 0.34461 0.0
C396 C 0.96147 0.21778 0.30263 0.0
H397 H 0.01078 0.08923 0.34929 0.0
C398 C 0.99384 0.08764 0.37404 0.0
H399 H 0.9528 0.10488 0.3933 0.0
H400 H 0.94954 0.13385 0.17652 0.0
H401 H 0.94966 0.07404 0.16862 0.0
H402 H 0.95627 0.03768 0.23395 0.0
H403 H 0.96295 0.06091 0.30745 0.0
C404 C 0.96965 0.10537 0.3684 0.0
C405 C 0.96554 0.12708 0.32886 0.0
C406 C 0.96144 0.11296 0.2861 0.0
C407 C 0.95716 0.1339 0.24855 0.0
C408 C 0.95295 0.11918 0.20624 0.0
C409 C 0.95289 0.08483 0.2012 0.0
C410 C 0.95665 0.06437 0.23797 0.0
C411 C 0.96071 0.07809 0.28 0.0
H412 H 0.46712 0.29994 0.70317 0.0
C413 C 0.44421 0.30311 0.6968 0.0
H414 H 0.40656 0.32841 0.71711 0.0
H415 H 0.44472 0.35749 0.9137 0.0
H416 H 0.41103 0.31233 0.92589 0.0
H417 H 0.3919 0.27984 0.86284 0.0
H418 H 0.40621 0.29245 0.78714 0.0
C419 C 0.4293 0.32396 0.72284 0.0
C420 C 0.44304 0.34169 0.76079 0.0
C421 C 0.43479 0.33372 0.80486 0.0
C422 C 0.44609 0.3522 0.84126 0.0
C423 C 0.437 0.34411 0.88485 0.0
C424 C 0.41766 0.31824 0.89233 0.0
C425 C 0.40686 0.29997 0.85683 0.0
C426 C 0.41522 0.30751 0.81354 0.0
H427 H 0.45413 0.44236 0.84544 0.0
C428 C 0.46701 0.4322 0.87252 0.0
H429 H 0.48726 0.38922 0.89822 0.0
H430 H 0.46253 0.36472 0.6803 0.0
H431 H 0.49846 0.40745 0.66862 0.0
H432 H 0.52092 0.43635 0.73222 0.0
H433 H 0.50705 0.42312 0.80787 0.0
C434 C 0.47496 0.40017 0.8711 0.0
C435 C 0.46567 0.37858 0.83349 0.0
C436 C 0.47515 0.38535 0.78961 0.0
C437 C 0.46327 0.36749 0.75309 0.0
C438 C 0.47166 0.37645 0.70944 0.0
C439 C 0.49217 0.40111 0.70221 0.0
C440 C 0.50474 0.41748 0.73799 0.0
C441 C 0.49641 0.4098 0.78123 0.0
H442 H 0.61049 0.66544 0.29723 0.0
C443 C 0.59961 0.68894 0.30277 0.0
H444 H 0.56582 0.72024 0.28079 0.0
H445 H 0.56177 0.66346 0.08495 0.0
H446 H 0.57768 0.72002 0.0721 0.0
H447 H 0.59011 0.7567 0.13493 0.0
H448 H 0.58642 0.73716 0.21103 0.0
C449 C 0.57756 0.6973 0.27586 0.0
C450 C 0.56884 0.67548 0.23816 0.0
C451 C 0.57135 0.68721 0.19388 0.0
C452 C 0.56466 0.66587 0.15762 0.0
C453 C 0.56695 0.67842 0.11374 0.0
C454 C 0.57601 0.71087 0.10587 0.0
C455 C 0.58298 0.73153 0.14124 0.0
C456 C 0.58074 0.71999 0.18479 0.0
H457 H 0.50543 0.60422 0.14509 0.0
C458 C 0.52223 0.59819 0.12142 0.0
H459 H 0.5658 0.60523 0.10381 0.0
H460 H 0.55625 0.64701 0.31879 0.0
H461 H 0.54263 0.58975 0.33187 0.0
H462 H 0.53672 0.5508 0.2693 0.0
H463 H 0.54351 0.56917 0.19337 0.0
C464 C 0.54885 0.61057 0.12749 0.0
C465 C 0.55577 0.63271 0.16571 0.0
C466 C 0.55348 0.62088 0.21008 0.0
C467 C 0.5589 0.64268 0.24629 0.0
C468 C 0.55407 0.63103 0.29013 0.0
C469 C 0.54599 0.59827 0.29812 0.0
C470 C 0.54252 0.5764 0.2629 0.0
C471 C 0.54623 0.5874 0.21937 0.0
H472 H 0.90343 0.14899 0.81717 0.0
C473 C 0.9124 0.17389 0.81946 0.0
H474 H 0.94044 0.20896 0.79046 0.0
H475 H 0.02293 0.10754 0.69696 0.0
H476 H 0.05531 0.13693 0.74655 0.0
H477 H 0.03667 0.17688 0.80124 0.0
H478 H 0.98561 0.18809 0.80618 0.0
C479 C 0.93165 0.18398 0.78905 0.0
C480 C 0.94279 0.16074 0.75469 0.0
C481 C 0.97273 0.15398 0.75289 0.0
C482 C 0.9834 0.13023 0.72221 0.0
C483 C 0.0135 0.12475 0.72023 0.0
C484 C 0.03239 0.14153 0.74846 0.0
C485 C 0.02191 0.16406 0.77919 0.0
C486 C 0.99248 0.1703 0.78158 0.0
H487 H 0.9578 0.11077 0.60552 0.0
C488 C 0.97108 0.09065 0.61822 0.0
H489 H 0.9889 0.06774 0.67513 0.0
H490 H 0.88526 0.17316 0.74162 0.0
H491 H 0.85228 0.14105 0.69603 0.0
H492 H 0.86963 0.09355 0.65211 0.0
H493 H 0.92015 0.0789 0.65207 0.0
C494 C 0.97561 0.08777 0.66222 0.0
C495 C 0.96407 0.11256 0.69423 0.0
C496 C 0.93403 0.11887 0.69669 0.0
C497 C 0.92362 0.14424 0.72514 0.0
C498 C 0.89402 0.15256 0.72314 0.0
C499 C 0.87488 0.13455 0.69675 0.0
C500 C 0.88467 0.10797 0.67181 0.0
C501 C 0.91384 0.10007 0.67171 0.0
H502 H 0.41585 0.29397 0.25744 0.0
C503 C 0.42784 0.3014 0.28697 0.0
H504 H 0.45864 0.33479 0.31319 0.0
H505 H 0.52206 0.37378 0.1374 0.0
H506 H 0.55946 0.34397 0.17719 0.0
H507 H 0.54845 0.31298 0.24587 0.0
H508 H 0.50002 0.31196 0.27552 0.0
C509 C 0.44687 0.32648 0.28394 0.0
C510 C 0.45279 0.34357 0.24089 0.0
C511 C 0.48108 0.34326 0.22338 0.0
C512 C 0.48731 0.36056 0.18323 0.0
C513 C 0.51598 0.36069 0.16737 0.0
C514 C 0.5377 0.34368 0.1899 0.0
C515 C 0.53151 0.32627 0.2286 0.0
C516 C 0.5036 0.32596 0.2453 0.0
H517 H 0.45838 0.44275 0.15119 0.0
C518 C 0.46805 0.4317 0.1219 0.0
H519 H 0.48255 0.38728 0.09239 0.0
H520 H 0.39694 0.35371 0.26788 0.0
H521 H 0.35889 0.37971 0.22514 0.0
H522 H 0.36842 0.40301 0.15071 0.0
H523 H 0.41641 0.40138 0.11943 0.0
C524 C 0.47235 0.39873 0.12091 0.0
C525 C 0.46513 0.3777 0.16023 0.0
C526 C 0.4365 0.37646 0.17645 0.0
C527 C 0.43055 0.36071 0.21777 0.0
C528 C 0.40238 0.36317 0.23535 0.0
C529 C 0.38033 0.3784 0.21134 0.0
C530 C 0.38573 0.39167 0.16957 0.0
C531 C 0.41344 0.39083 0.15219 0.0
H532 H 0.09771 0.80295 0.781 0.0
C533 C 0.08197 0.80545 0.80739 0.0
H534 H 0.04359 0.82792 0.8286 0.0
H535 H 0.04798 0.96034 0.72238 0.0
H536 H 0.04944 0.97898 0.79875 0.0
H537 H 0.05553 0.93906 0.86034 0.0
H538 H 0.05965 0.88027 0.84593 0.0
C539 C 0.05945 0.82603 0.80227 0.0
C540 C 0.05724 0.84976 0.76433 0.0
C541 C 0.05581 0.88429 0.77334 0.0
C542 C 0.05331 0.90744 0.73776 0.0
C543 C 0.05065 0.94164 0.74791 0.0
C544 C 0.05137 0.95275 0.7917 0.0
C545 C 0.05473 0.93028 0.82636 0.0
C546 C 0.05696 0.89648 0.81753 0.0
H547 H 0.01254 0.89736 0.62948 0.0
C548 C 0.02708 0.91851 0.62783 0.0
H549 H 0.06398 0.94167 0.65459 0.0
H550 H 0.05467 0.78527 0.73497 0.0
H551 H 0.05761 0.76686 0.6585 0.0
H552 H 0.06099 0.80737 0.59709 0.0
H553 H 0.06028 0.86648 0.6118 0.0
C554 C 0.04935 0.92063 0.65635 0.0
C555 C 0.05325 0.89615 0.69313 0.0
C556 C 0.0561 0.86173 0.68407 0.0
C557 C 0.05665 0.83842 0.71967 0.0
C558 C 0.05625 0.80412 0.70946 0.0
C559 C 0.05763 0.79318 0.66563 0.0
C560 C 0.05935 0.81598 0.63105 0.0
C561 C 0.05862 0.84987 0.63996 0.0
loop_
_geom_bond_atom_site_label_1
_geom_bond_atom_site_label_2
_geom_bond_distance
_geom_bond_site_symmetry_2
_ccdc_geom_bond_type
C0 C1 1.386 . S
C0 C2 1.397 . S
C0 H24 0.931 . S
C1 C0 1.386 . S
C1 C5 1.397 . S
C2 C0 1.397 . S
C2 C3 1.384 . S
C2 H25 0.930 . S
C3 C2 1.384 . S
C3 C4 1.377 . S
C3 C6 1.481 . S
C4 C3 1.377 . S
C4 C5 1.389 . S
C4 H26 0.929 . S
C5 C1 1.397 . S
C5 C4 1.389 . S
C5 H27 0.931 . S
C6 C3 1.481 . S
C6 C7 1.387 . S
C6 C11 1.390 1_556 S
C7 C6 1.387 . S
C7 C8 1.401 1_556 S
C7 H28 0.930 . S
C8 C7 1.401 1_554 S
C8 C9 1.376 . S
C8 C17 1.511 . S
C9 C8 1.376 . S
C9 C10 1.392 . S
C9 H30 0.931 . S
C10 C9 1.392 . S
C10 C11 1.361 . S
C10 C12 1.500 . S
C11 C6 1.390 1_554 S
C11 C10 1.361 . S
C11 H29 0.931 . S
C12 C10 1.500 . S
C12 C13 1.371 . S
C12 C14 1.365 . S
C13 C12 1.371 . S
C13 C23 1.386 . S
C13 H31 0.931 . S
C14 C12 1.365 . S
C14 C15 1.409 . S
C14 H32 0.929 . S
C15 C14 1.409 . S
C15 C16 1.380 . S
C15 H33 0.930 . S
C16 C15 1.380 . S
C16 C23 1.357 . S
C17 C8 1.511 . S
C17 C18 1.341 1_554 S
C17 C19 1.371 . S
C18 C17 1.341 1_556 S
C18 C22 1.394 . S
C18 H34 0.930 . S
C19 C17 1.371 . S
C19 C20 1.392 . S
C19 H35 0.931 . S
C20 C19 1.392 . S
C20 C21 1.331 . S
C20 H38 0.932 . S
C21 C20 1.331 . S
C21 C22 1.336 1_554 S
C22 C18 1.394 . S
C22 C21 1.336 1_556 S
C22 H37 0.929 . S
C23 C13 1.386 . S
C23 C16 1.357 . S
C23 H36 0.928 . S
H24 C0 0.931 . S
H25 C2 0.930 . S
H26 C4 0.929 . S
H27 C5 0.931 . S
H28 C7 0.930 . S
H29 C11 0.931 . S
H30 C9 0.931 . S
H31 C13 0.931 . S
H32 C14 0.929 . S
H33 C15 0.930 . S
H34 C18 0.930 . S
H35 C19 0.931 . S
H36 C23 0.928 . S
H37 C22 0.929 . S
H38 C20 0.932 . S
C39 C40 1.386 . S
C39 C41 1.397 . S
C39 H63 0.931 . S
C40 C39 1.386 . S
C40 C44 1.397 . S
C41 C39 1.397 . S
C41 C42 1.384 . S
C41 H64 0.930 . S
C42 C41 1.384 . S
C42 C43 1.377 . S
C42 C45 1.481 . S
C43 C42 1.377 . S
C43 C44 1.389 . S
C43 H65 0.929 . S
C44 C40 1.397 . S
C44 C43 1.389 . S
C44 H66 0.931 . S
C45 C42 1.481 . S
C45 C46 1.387 . S
C45 C50 1.390 . S
C46 C45 1.387 . S
C46 C47 1.401 . S
C46 H67 0.930 . S
C47 C46 1.401 . S
C47 C48 1.376 . S
C47 C56 1.511 . S
C48 C47 1.376 . S
C48 C49 1.392 . S
C48 H69 0.931 . S
C49 C48 1.392 . S
C49 C50 1.361 . S
C49 C51 1.500 . S
C50 C45 1.390 . S
C50 C49 1.361 . S
C50 H68 0.931 . S
C51 C49 1.500 . S
C51 C52 1.371 . S
C51 C53 1.365 . S
C52 C51 1.371 . S
C52 C62 1.386 . S
C52 H70 0.931 . S
C53 C51 1.365 . S
C53 C54 1.409 . S
C53 H71 0.929 . S
C54 C53 1.409 . S
C54 C55 1.380 . S
C54 H72 0.930 . S
C55 C54 1.380 . S
C55 C62 1.357 . S
C56 C47 1.511 . S
C56 C57 1.341 . S
C56 C58 1.371 . S
C57 C56 1.341 . S
C57 C61 1.394 . S
C57 H73 0.930 . S
C58 C56 1.371 . S
C58 C59 1.392 . S
C58 H74 0.931 . S
C59 C58 1.392 . S
C59 C60 1.331 . S
C59 H77 0.932 . S
C60 C59 1.331 . S
C60 C61 1.336 . S
C61 C57 1.394 . S
C61 C60 1.336 . S
C61 H76 0.929 . S
C62 C52 1.386 . S
C62 C55 1.357 . S
C62 H75 0.928 . S
H63 C39 0.931 . S
H64 C41 0.930 . S
H65 C43 0.929 . S
H66 C44 0.931 . S
H67 C46 0.930 . S
H68 C50 0.931 . S
H69 C48 0.931 . S
H70 C52 0.931 . S
H71 C53 0.929 . S
H72 C54 0.930 . S
H73 C57 0.930 . S
H74 C58 0.931 . S
H75 C62 0.928 . S
H76 C61 0.929 . S
H77 C59 0.932 . S
C78 C79 1.386 . S
C78 C80 1.397 . S
C78 H102 0.931 . S
C79 C78 1.386 . S
C79 C83 1.397 . S
C80 C78 1.397 . S
C80 C81 1.384 . S
C80 H103 0.930 . S
C81 C80 1.384 . S
C81 C82 1.377 . S
C81 C84 1.481 . S
C82 C81 1.377 . S
C82 C83 1.389 . S
C82 H104 0.929 . S
C83 C79 1.397 . S
C83 C82 1.389 . S
C83 H105 0.931 . S
C84 C81 1.481 . S
C84 C85 1.387 . S
C84 C89 1.390 . S
C85 C84 1.387 . S
C85 C86 1.401 . S
C85 H106 0.930 . S
C86 C85 1.401 . S
C86 C87 1.376 1_554 S
C86 C95 1.511 . S
C87 C86 1.376 1_556 S
C87 C88 1.392 . S
C87 H108 0.931 . S
C88 C87 1.392 . S
C88 C89 1.361 1_556 S
C88 C90 1.500 . S
C89 C84 1.390 . S
C89 C88 1.361 1_554 S
C89 H107 0.931 . S
C90 C88 1.500 . S
C90 C91 1.371 . S
C90 C92 1.365 . S
C91 C90 1.371 . S
C91 C101 1.386 . S
C91 H109 0.931 . S
C92 C90 1.365 . S
C92 C93 1.409 . S
C92 H110 0.929 . S
C93 C92 1.409 . S
C93 C94 1.380 . S
C93 H111 0.930 . S
C94 C93 1.380 . S
C94 C101 1.357 . S
C95 C86 1.511 . S
C95 C96 1.341 . S
C95 C97 1.371 1_554 S
C96 C95 1.341 . S
C96 C100 1.394 . S
C96 H112 0.930 . S
C97 C95 1.371 1_556 S
C97 C98 1.392 . S
C97 H113 0.931 . S
C98 C97 1.392 . S
C98 C99 1.331 1_556 S
C98 H116 0.932 . S
C99 C98 1.331 1_554 S
C99 C100 1.336 . S
C100 C96 1.394 . S
C100 C99 1.336 . S
C100 H115 0.929 . S
C101 C91 1.386 . S
C101 C94 1.357 . S
C101 H114 0.928 . S
H102 C78 0.931 . S
H103 C80 0.930 . S
H104 C82 0.929 . S
H105 C83 0.931 . S
H106 C85 0.930 . S
H107 C89 0.931 . S
H108 C87 0.931 . S
H109 C91 0.931 . S
H110 C92 0.929 . S
H111 C93 0.930 . S
H112 C96 0.930 . S
H113 C97 0.931 . S
H114 C101 0.928 . S
H115 C100 0.929 . S
H116 C98 0.932 . S
C117 C118 1.386 . S
C117 C119 1.397 . S
C117 H141 0.931 . S
C118 C117 1.386 . S
C118 C122 1.397 . S
C119 C117 1.397 . S
C119 C120 1.384 . S
C119 H142 0.930 . S
C120 C119 1.384 . S
C120 C121 1.377 . S
C120 C123 1.481 . S
C121 C120 1.377 . S
C121 C122 1.389 . S
C121 H143 0.929 . S
C122 C118 1.397 . S
C122 C121 1.389 . S
C122 H144 0.931 . S
C123 C120 1.481 . S
C123 C124 1.387 . S
C123 C128 1.390 . S
C124 C123 1.387 . S
C124 C125 1.401 . S
C124 H145 0.930 . S
C125 C124 1.401 . S
C125 C126 1.376 . S
C125 C134 1.511 . S
C126 C125 1.376 . S
C126 C127 1.392 . S
C126 H147 0.931 . S
C127 C126 1.392 . S
C127 C128 1.361 . S
C127 C129 1.500 . S
C128 C123 1.390 . S
C128 C127 1.361 . S
C128 H146 0.931 . S
C129 C127 1.500 . S
C129 C130 1.371 . S
C129 C131 1.365 . S
C130 C129 1.371 . S
C130 C140 1.386 . S
C130 H148 0.931 . S
C131 C129 1.365 . S
C131 C132 1.409 . S
C131 H149 0.929 . S
C132 C131 1.409 . S
C132 C133 1.380 . S
C132 H150 0.930 . S
C133 C132 1.380 . S
C133 C140 1.357 . S
C134 C125 1.511 . S
C134 C135 1.341 . S
C134 C136 1.371 . S
C135 C134 1.341 . S
C135 C139 1.394 . S
C135 H151 0.930 . S
C136 C134 1.371 . S
C136 C137 1.392 . S
C136 H152 0.931 . S
C137 C136 1.392 . S
C137 C138 1.331 . S
C137 H155 0.932 . S
C138 C137 1.331 . S
C138 C139 1.336 . S
C139 C135 1.394 . S
C139 C138 1.336 . S
C139 H154 0.929 . S
C140 C130 1.386 . S
C140 C133 1.357 . S
C140 H153 0.928 . S
H141 C117 0.931 . S
H142 C119 0.930 . S
H143 C121 0.929 . S
H144 C122 0.931 . S
H145 C124 0.930 . S
H146 C128 0.931 . S
H147 C126 0.931 . S
H148 C130 0.931 . S
H149 C131 0.929 . S
H150 C132 0.930 . S
H151 C135 0.930 . S
H152 C136 0.931 . S
H153 C140 0.928 . S
H154 C139 0.929 . S
H155 C137 0.932 . S
O156 Zn157 1.953 1_565 S
O156 C172 1.225 . S
Zn157 O156 1.953 1_545 S
Zn157 O158 1.949 1_655 S
Zn157 O164 1.919 . S
Zn157 O169 1.924 . S
O158 Zn157 1.949 1_455 S
O158 Zn159 1.923 . S
O158 Zn160 1.950 1_445 S
O158 Zn161 1.945 . S
Zn159 O158 1.923 . S
Zn159 O162 1.933 . S
Zn159 O165 1.941 . S
Zn159 O166 1.965 1_545 S
Zn160 O158 1.950 1_665 S
Zn160 O167 1.938 1_655 S
Zn160 O168 1.906 1_655 S
Zn160 O178 1.953 . S
Zn161 O158 1.945 . S
Zn161 O163 1.932 . S
Zn161 O170 1.977 1_545 S
Zn161 O171 1.910 1_455 S
O162 Zn159 1.933 . S
O162 C173 1.226 . S
O163 Zn161 1.932 . S
O163 C173 1.307 . S
O164 Zn157 1.919 . S
O164 C175 1.253 . S
O165 Zn159 1.941 . S
O165 C175 1.283 1_455 S
O166 Zn159 1.965 1_565 S
O166 C174 1.303 . S
O167 Zn160 1.938 1_455 S
O167 C174 1.247 . S
O168 Zn160 1.906 1_455 S
O168 C176 1.304 . S
O169 Zn157 1.924 . S
O169 C177 1.311 . S
O170 Zn161 1.977 1_565 S
O170 C176 1.272 . S
O171 Zn161 1.910 1_655 S
O171 C177 1.231 . S
C172 O156 1.225 . S
C172 O178 1.298 . S
C173 O162 1.226 . S
C173 O163 1.307 . S
C174 O166 1.303 . S
C174 O167 1.247 . S
C175 O164 1.253 . S
C175 O165 1.283 1_655 S
C176 O168 1.304 . S
C176 O170 1.272 . S
C177 O169 1.311 . S
C177 O171 1.231 . S
O178 Zn160 1.953 . S
O178 C172 1.298 . S
O179 Zn180 1.953 . S
O179 C195 1.225 1_556 S
Zn180 O179 1.953 . S
Zn180 O181 1.949 1_556 S
Zn180 O187 1.919 . S
Zn180 O192 1.924 1_556 S
O181 Zn180 1.949 1_554 S
O181 Zn182 1.923 1_554 S
O181 Zn183 1.950 . S
O181 Zn184 1.945 . S
Zn182 O181 1.923 1_556 S
Zn182 O185 1.933 . S
Zn182 O188 1.941 . S
Zn182 O189 1.965 . S
Zn183 O181 1.950 . S
Zn183 O190 1.938 1_554 S
Zn183 O191 1.906 . S
Zn183 O201 1.953 . S
Zn184 O181 1.945 . S
Zn184 O186 1.932 . S
Zn184 O193 1.977 . S
Zn184 O194 1.910 . S
O185 Zn182 1.933 . S
O185 C196 1.226 1_556 S
O186 Zn184 1.932 . S
O186 C196 1.307 . S
O187 Zn180 1.919 . S
O187 C198 1.253 . S
O188 Zn182 1.941 . S
O188 C198 1.283 . S
O189 Zn182 1.965 . S
O189 C197 1.303 . S
O190 Zn183 1.938 1_556 S
O190 C197 1.247 . S
O191 Zn183 1.906 . S
O191 C199 1.304 . S
O192 Zn180 1.924 1_554 S
O192 C200 1.311 . S
O193 Zn184 1.977 . S
O193 C199 1.272 . S
O194 Zn184 1.910 . S
O194 C200 1.231 . S
C195 O179 1.225 1_554 S
C195 O201 1.298 . S
C196 O185 1.226 1_554 S
C196 O186 1.307 . S
C197 O189 1.303 . S
C197 O190 1.247 . S
C198 O187 1.253 . S
C198 O188 1.283 . S
C199 O191 1.304 . S
C199 O193 1.272 . S
C200 O192 1.311 . S
C200 O194 1.231 . S
O201 Zn183 1.953 . S
O201 C195 1.298 . S
H202 C203 0.951 . S
C203 H202 0.951 . S
C203 C209 1.265 . S
H204 C209 0.950 . S
H205 C213 0.949 . S
H206 C214 0.950 . S
H207 C215 0.951 . S
H208 C216 0.951 . S
C209 C203 1.265 . S
C209 H204 0.950 . S
C209 C210 1.478 . S
C210 C209 1.478 . S
C210 C211 1.397 . S
C210 C227 1.394 . S
C211 C210 1.397 . S
C211 C212 1.438 . S
C211 C216 1.429 . S
C212 C211 1.438 . S
C212 C213 1.428 . S
C212 C225 1.394 . S
C213 H205 0.949 . S
C213 C212 1.428 . S
C213 C214 1.345 . S
C214 H206 0.950 . S
C214 C213 1.345 . S
C214 C215 1.424 . S
C215 H207 0.951 . S
C215 C214 1.424 . S
C215 C216 1.347 . S
C216 H208 0.951 . S
C216 C211 1.429 . S
C216 C215 1.347 . S
H217 C218 0.951 . S
C218 H217 0.951 . S
C218 C224 1.265 . S
H219 C224 0.950 . S
H220 C228 0.949 . S
H221 C229 0.950 . S
H222 C230 0.951 . S
H223 C231 0.951 . S
C224 C218 1.265 . S
C224 H219 0.950 . S
C224 C225 1.478 . S
C225 C212 1.394 . S
C225 C224 1.478 . S
C225 C226 1.397 . S
C226 C225 1.397 . S
C226 C227 1.438 . S
C226 C231 1.429 . S
C227 C210 1.394 . S
C227 C226 1.438 . S
C227 C228 1.428 . S
C228 H220 0.949 . S
C228 C227 1.428 . S
C228 C229 1.345 . S
C229 H221 0.950 . S
C229 C228 1.345 . S
C229 C230 1.424 . S
C230 H222 0.951 . S
C230 C229 1.424 . S
C230 C231 1.347 . S
C231 H223 0.951 . S
C231 C226 1.429 . S
C231 C230 1.347 . S
H232 C233 0.951 . S
C233 H232 0.951 . S
C233 C239 1.265 . S
H234 C239 0.950 . S
H235 C243 0.949 . S
H236 C244 0.950 . S
H237 C245 0.951 . S
H238 C246 0.951 . S
C239 C233 1.265 . S
C239 H234 0.950 . S
C239 C240 1.478 . S
C240 C239 1.478 . S
C240 C241 1.397 . S
C240 C257 1.394 1_554 S
C241 C240 1.397 . S
C241 C242 1.438 . S
C241 C246 1.429 . S
C242 C241 1.438 . S
C242 C243 1.428 . S
C242 C255 1.394 . S
C243 H235 0.949 . S
C243 C242 1.428 . S
C243 C244 1.345 . S
C244 H236 0.950 . S
C244 C243 1.345 . S
C244 C245 1.424 . S
C245 H237 0.951 . S
C245 C244 1.424 . S
C245 C246 1.347 . S
C246 H238 0.951 . S
C246 C241 1.429 . S
C246 C245 1.347 . S
H247 C248 0.951 . S
C248 H247 0.951 . S
C248 C254 1.265 . S
H249 C254 0.950 . S
H250 C258 0.949 . S
H251 C259 0.950 . S
H252 C260 0.951 . S
H253 C261 0.951 . S
C254 C248 1.265 . S
C254 H249 0.950 . S
C254 C255 1.478 . S
C255 C242 1.394 . S
C255 C254 1.478 . S
C255 C256 1.397 1_554 S
C256 C255 1.397 1_556 S
C256 C257 1.438 . S
C256 C261 1.429 . S
C257 C240 1.394 1_556 S
C257 C256 1.438 . S
C257 C258 1.428 . S
C258 H250 0.949 . S
C258 C257 1.428 . S
C258 C259 1.345 . S
C259 H251 0.950 . S
C259 C258 1.345 . S
C259 C260 1.424 . S
C260 H252 0.951 . S
C260 C259 1.424 . S
C260 C261 1.347 . S
C261 H253 0.951 . S
C261 C256 1.429 . S
C261 C260 1.347 . S
H262 C263 0.951 . S
C263 H262 0.951 . S
C263 C269 1.265 . S
H264 C269 0.950 . S
H265 C273 0.949 . S
H266 C274 0.950 . S
H267 C275 0.951 . S
H268 C276 0.951 . S
C269 C263 1.265 . S
C269 H264 0.950 . S
C269 C270 1.478 . S
C270 C269 1.478 . S
C270 C271 1.397 . S
C270 C287 1.394 . S
C271 C270 1.397 . S
C271 C272 1.438 . S
C271 C276 1.429 . S
C272 C271 1.438 . S
C272 C273 1.428 . S
C272 C285 1.394 . S
C273 H265 0.949 . S
C273 C272 1.428 . S
C273 C274 1.345 . S
C274 H266 0.950 . S
C274 C273 1.345 . S
C274 C275 1.424 . S
C275 H267 0.951 . S
C275 C274 1.424 . S
C275 C276 1.347 . S
C276 H268 0.951 . S
C276 C271 1.429 . S
C276 C275 1.347 . S
H277 C278 0.951 . S
C278 H277 0.951 . S
C278 C284 1.265 . S
H279 C284 0.950 . S
H280 C288 0.949 . S
H281 C289 0.950 . S
H282 C290 0.951 . S
H283 C291 0.951 . S
C284 C278 1.265 . S
C284 H279 0.950 . S
C284 C285 1.478 . S
C285 C272 1.394 . S
C285 C284 1.478 . S
C285 C286 1.397 . S
C286 C285 1.397 . S
C286 C287 1.438 . S
C286 C291 1.429 . S
C287 C270 1.394 . S
C287 C286 1.438 . S
C287 C288 1.428 . S
C288 H280 0.949 . S
C288 C287 1.428 . S
C288 C289 1.345 . S
C289 H281 0.950 . S
C289 C288 1.345 . S
C289 C290 1.424 . S
C290 H282 0.951 . S
C290 C289 1.424 . S
C290 C291 1.347 . S
C291 H283 0.951 . S
C291 C286 1.429 . S
C291 C290 1.347 . S
H292 C293 0.951 . S
C293 H292 0.951 . S
C293 C299 1.265 . S
H294 C299 0.950 . S
H295 C303 0.949 . S
H296 C304 0.950 . S
H297 C305 0.951 . S
H298 C306 0.951 . S
C299 C293 1.265 . S
C299 H294 0.950 . S
C299 C300 1.478 . S
C300 C299 1.478 . S
C300 C301 1.397 1_554 S
C300 C317 1.394 . S
C301 C300 1.397 1_556 S
C301 C302 1.438 . S
C301 C306 1.429 . S
C302 C301 1.438 . S
C302 C303 1.428 . S
C302 C315 1.394 1_556 S
C303 H295 0.949 . S
C303 C302 1.428 . S
C303 C304 1.345 . S
C304 H296 0.950 . S
C304 C303 1.345 . S
C304 C305 1.424 . S
C305 H297 0.951 . S
C305 C304 1.424 . S
C305 C306 1.347 . S
C306 H298 0.951 . S
C306 C301 1.429 . S
C306 C305 1.347 . S
H307 C308 0.951 . S
C308 H307 0.951 . S
C308 C314 1.265 . S
H309 C314 0.950 . S
H310 C318 0.949 . S
H311 C319 0.950 . S
H312 C320 0.951 . S
H313 C321 0.951 . S
C314 C308 1.265 . S
C314 H309 0.950 . S
C314 C315 1.478 . S
C315 C302 1.394 1_554 S
C315 C314 1.478 . S
C315 C316 1.397 . S
C316 C315 1.397 . S
C316 C317 1.438 . S
C316 C321 1.429 . S
C317 C300 1.394 . S
C317 C316 1.438 . S
C317 C318 1.428 . S
C318 H310 0.949 . S
C318 C317 1.428 . S
C318 C319 1.345 . S
C319 H311 0.950 . S
C319 C318 1.345 . S
C319 C320 1.424 . S
C320 H312 0.951 . S
C320 C319 1.424 . S
C320 C321 1.347 . S
C321 H313 0.951 . S
C321 C316 1.429 . S
C321 C320 1.347 . S
H322 C323 0.951 . S
C323 H322 0.951 . S
C323 C329 1.265 . S
H324 C329 0.950 . S
H325 C333 0.949 . S
H326 C334 0.950 . S
H327 C335 0.951 . S
H328 C336 0.951 . S
C329 C323 1.265 . S
C329 H324 0.950 . S
C329 C330 1.478 . S
C330 C329 1.478 . S
C330 C331 1.397 . S
C330 C347 1.394 . S
C331 C330 1.397 . S
C331 C332 1.438 . S
C331 C336 1.429 . S
C332 C331 1.438 . S
C332 C333 1.428 . S
C332 C345 1.394 . S
C333 H325 0.949 . S
C333 C332 1.428 . S
C333 C334 1.345 . S
C334 H326 0.950 . S
C334 C333 1.345 . S
C334 C335 1.424 . S
C335 H327 0.951 . S
C335 C334 1.424 . S
C335 C336 1.347 . S
C336 H328 0.951 . S
C336 C331 1.429 . S
C336 C335 1.347 . S
H337 C338 0.951 . S
C338 H337 0.951 . S
C338 C344 1.265 . S
H339 C344 0.950 . S
H340 C348 0.949 . S
H341 C349 0.950 . S
H342 C350 0.951 . S
H343 C351 0.951 . S
C344 C338 1.265 . S
C344 H339 0.950 . S
C344 C345 1.478 . S
C345 C332 1.394 . S
C345 C344 1.478 . S
C345 C346 1.397 . S
C346 C345 1.397 . S
C346 C347 1.438 . S
C346 C351 1.429 . S
C347 C330 1.394 . S
C347 C346 1.438 . S
C347 C348 1.428 . S
C348 H340 0.949 . S
C348 C347 1.428 . S
C348 C349 1.345 . S
C349 H341 0.950 . S
C349 C348 1.345 . S
C349 C350 1.424 . S
C350 H342 0.951 . S
C350 C349 1.424 . S
C350 C351 1.347 . S
C351 H343 0.951 . S
C351 C346 1.429 . S
C351 C350 1.347 . S
H352 C353 0.951 . S
C353 H352 0.951 . S
C353 C359 1.265 . S
H354 C359 0.950 . S
H355 C363 0.949 . S
H356 C364 0.950 . S
H357 C365 0.951 . S
H358 C366 0.951 . S
C359 C353 1.265 . S
C359 H354 0.950 . S
C359 C360 1.478 . S
C360 C359 1.478 . S
C360 C361 1.397 . S
C360 C377 1.394 . S
C361 C360 1.397 . S
C361 C362 1.438 . S
C361 C366 1.429 . S
C362 C361 1.438 . S
C362 C363 1.428 . S
C362 C375 1.394 . S
C363 H355 0.949 . S
C363 C362 1.428 . S
C363 C364 1.345 . S
C364 H356 0.950 . S
C364 C363 1.345 . S
C364 C365 1.424 . S
C365 H357 0.951 . S
C365 C364 1.424 . S
C365 C366 1.347 . S
C366 H358 0.951 . S
C366 C361 1.429 . S
C366 C365 1.347 . S
H367 C368 0.951 . S
C368 H367 0.951 . S
C368 C374 1.265 . S
H369 C374 0.950 . S
H370 C378 0.949 . S
H371 C379 0.950 . S
H372 C380 0.951 . S
H373 C381 0.951 . S
C374 C368 1.265 . S
C374 H369 0.950 . S
C374 C375 1.478 . S
C375 C362 1.394 . S
C375 C374 1.478 . S
C375 C376 1.397 . S
C376 C375 1.397 . S
C376 C377 1.438 . S
C376 C381 1.429 . S
C377 C360 1.394 . S
C377 C376 1.438 . S
C377 C378 1.428 . S
C378 H370 0.949 . S
C378 C377 1.428 . S
C378 C379 1.345 . S
C379 H371 0.950 . S
C379 C378 1.345 . S
C379 C380 1.424 . S
C380 H372 0.951 . S
C380 C379 1.424 . S
C380 C381 1.347 . S
C381 H373 0.951 . S
C381 C376 1.429 . S
C381 C380 1.347 . S
H382 C383 0.951 . S
C383 H382 0.951 . S
C383 C389 1.265 . S
H384 C389 0.950 . S
H385 C393 0.949 . S
H386 C394 0.950 . S
H387 C395 0.951 . S
H388 C396 0.951 . S
C389 C383 1.265 . S
C389 H384 0.950 . S
C389 C390 1.478 . S
C390 C389 1.478 . S
C390 C391 1.397 . S
C390 C407 1.394 . S
C391 C390 1.397 . S
C391 C392 1.438 . S
C391 C396 1.429 . S
C392 C391 1.438 . S
C392 C393 1.428 . S
C392 C405 1.394 . S
C393 H385 0.949 . S
C393 C392 1.428 . S
C393 C394 1.345 . S
C394 H386 0.950 . S
C394 C393 1.345 . S
C394 C395 1.424 . S
C395 H387 0.951 . S
C395 C394 1.424 . S
C395 C396 1.347 . S
C396 H388 0.951 . S
C396 C391 1.429 . S
C396 C395 1.347 . S
H397 C398 0.951 . S
C398 H397 0.951 . S
C398 C404 1.265 . S
H399 C404 0.950 . S
H400 C408 0.949 . S
H401 C409 0.950 . S
H402 C410 0.951 . S
H403 C411 0.951 . S
C404 C398 1.265 . S
C404 H399 0.950 . S
C404 C405 1.478 . S
C405 C392 1.394 . S
C405 C404 1.478 . S
C405 C406 1.397 . S
C406 C405 1.397 . S
C406 C407 1.438 . S
C406 C411 1.429 . S
C407 C390 1.394 . S
C407 C406 1.438 . S
C407 C408 1.428 . S
C408 H400 0.949 . S
C408 C407 1.428 . S
C408 C409 1.345 . S
C409 H401 0.950 . S
C409 C408 1.345 . S
C409 C410 1.424 . S
C410 H402 0.951 . S
C410 C409 1.424 . S
C410 C411 1.347 . S
C411 H403 0.951 . S
C411 C406 1.429 . S
C411 C410 1.347 . S
H412 C413 0.951 . S
C413 H412 0.951 . S
C413 C419 1.265 . S
H414 C419 0.950 . S
H415 C423 0.949 . S
H416 C424 0.950 . S
H417 C425 0.951 . S
H418 C426 0.951 . S
C419 C413 1.265 . S
C419 H414 0.950 . S
C419 C420 1.478 . S
C420 C419 1.478 . S
C420 C421 1.397 . S
C420 C437 1.394 . S
C421 C420 1.397 . S
C421 C422 1.438 . S
C421 C426 1.429 . S
C422 C421 1.438 . S
C422 C423 1.428 . S
C422 C435 1.394 . S
C423 H415 0.949 . S
C423 C422 1.428 . S
C423 C424 1.345 . S
C424 H416 0.950 . S
C424 C423 1.345 . S
C424 C425 1.424 . S
C425 H417 0.951 . S
C425 C424 1.424 . S
C425 C426 1.347 . S
C426 H418 0.951 . S
C426 C421 1.429 . S
C426 C425 1.347 . S
H427 C428 0.951 . S
C428 H427 0.951 . S
C428 C434 1.265 . S
H429 C434 0.950 . S
H430 C438 0.949 . S
H431 C439 0.950 . S
H432 C440 0.951 . S
H433 C441 0.951 . S
C434 C428 1.265 . S
C434 H429 0.950 . S
C434 C435 1.478 . S
C435 C422 1.394 . S
C435 C434 1.478 . S
C435 C436 1.397 . S
C436 C435 1.397 . S
C436 C437 1.438 . S
C436 C441 1.429 . S
C437 C420 1.394 . S
C437 C436 1.438 . S
C437 C438 1.428 . S
C438 H430 0.949 . S
C438 C437 1.428 . S
C438 C439 1.345 . S
C439 H431 0.950 . S
C439 C438 1.345 . S
C439 C440 1.424 . S
C440 H432 0.951 . S
C440 C439 1.424 . S
C440 C441 1.347 . S
C441 H433 0.951 . S
C441 C436 1.429 . S
C441 C440 1.347 . S
H442 C443 0.951 . S
C443 H442 0.951 . S
C443 C449 1.265 . S
H444 C449 0.950 . S
H445 C453 0.949 . S
H446 C454 0.950 . S
H447 C455 0.951 . S
H448 C456 0.951 . S
C449 C443 1.265 . S
C449 H444 0.950 . S
C449 C450 1.478 . S
C450 C449 1.478 . S
C450 C451 1.397 . S
C450 C467 1.394 . S
C451 C450 1.397 . S
C451 C452 1.438 . S
C451 C456 1.429 . S
C452 C451 1.438 . S
C452 C453 1.428 . S
C452 C465 1.394 . S
C453 H445 0.949 . S
C453 C452 1.428 . S
C453 C454 1.345 . S
C454 H446 0.950 . S
C454 C453 1.345 . S
C454 C455 1.424 . S
C455 H447 0.951 . S
C455 C454 1.424 . S
C455 C456 1.347 . S
C456 H448 0.951 . S
C456 C451 1.429 . S
C456 C455 1.347 . S
H457 C458 0.951 . S
C458 H457 0.951 . S
C458 C464 1.265 . S
H459 C464 0.950 . S
H460 C468 0.949 . S
H461 C469 0.950 . S
H462 C470 0.951 . S
H463 C471 0.951 . S
C464 C458 1.265 . S
C464 H459 0.950 . S
C464 C465 1.478 . S
C465 C452 1.394 . S
C465 C464 1.478 . S
C465 C466 1.397 . S
C466 C465 1.397 . S
C466 C467 1.438 . S
C466 C471 1.429 . S
C467 C450 1.394 . S
C467 C466 1.438 . S
C467 C468 1.428 . S
C468 H460 0.949 . S
C468 C467 1.428 . S
C468 C469 1.345 . S
C469 H461 0.950 . S
C469 C468 1.345 . S
C469 C470 1.424 . S
C470 H462 0.951 . S
C470 C469 1.424 . S
C470 C471 1.347 . S
C471 H463 0.951 . S
C471 C466 1.429 . S
C471 C470 1.347 . S
H472 C473 0.951 . S
C473 H472 0.951 . S
C473 C479 1.265 . S
H474 C479 0.950 . S
H475 C483 0.949 . S
H476 C484 0.950 . S
H477 C485 0.951 . S
H478 C486 0.951 . S
C479 C473 1.265 . S
C479 H474 0.950 . S
C479 C480 1.478 . S
C480 C479 1.478 . S
C480 C481 1.397 . S
C480 C497 1.394 . S
C481 C480 1.397 . S
C481 C482 1.438 . S
C481 C486 1.429 1_655 S
C482 C481 1.438 . S
C482 C483 1.428 1_655 S
C482 C495 1.394 . S
C483 H475 0.949 . S
C483 C482 1.428 1_455 S
C483 C484 1.345 . S
C484 H476 0.950 . S
C484 C483 1.345 . S
C484 C485 1.424 . S
C485 H477 0.951 . S
C485 C484 1.424 . S
C485 C486 1.347 . S
C486 H478 0.951 . S
C486 C481 1.429 1_455 S
C486 C485 1.347 . S
H487 C488 0.951 . S
C488 H487 0.951 . S
C488 C494 1.265 . S
H489 C494 0.950 . S
H490 C498 0.949 . S
H491 C499 0.950 . S
H492 C500 0.951 . S
H493 C501 0.951 . S
C494 C488 1.265 . S
C494 H489 0.950 . S
C494 C495 1.478 . S
C495 C482 1.394 . S
C495 C494 1.478 . S
C495 C496 1.397 . S
C496 C495 1.397 . S
C496 C497 1.438 . S
C496 C501 1.429 . S
C497 C480 1.394 . S
C497 C496 1.438 . S
C497 C498 1.428 . S
C498 H490 0.949 . S
C498 C497 1.428 . S
C498 C499 1.345 . S
C499 H491 0.950 . S
C499 C498 1.345 . S
C499 C500 1.424 . S
C500 H492 0.951 . S
C500 C499 1.424 . S
C500 C501 1.347 . S
C501 H493 0.951 . S
C501 C496 1.429 . S
C501 C500 1.347 . S
H502 C503 0.951 . S
C503 H502 0.951 . S
C503 C509 1.265 . S
H504 C509 0.950 . S
H505 C513 0.949 . S
H506 C514 0.950 . S
H507 C515 0.951 . S
H508 C516 0.951 . S
C509 C503 1.265 . S
C509 H504 0.950 . S
C509 C510 1.478 . S
C510 C509 1.478 . S
C510 C511 1.397 . S
C510 C527 1.394 . S
C511 C510 1.397 . S
C511 C512 1.438 . S
C511 C516 1.429 . S
C512 C511 1.438 . S
C512 C513 1.428 . S
C512 C525 1.394 . S
C513 H505 0.949 . S
C513 C512 1.428 . S
C513 C514 1.345 . S
C514 H506 0.950 . S
C514 C513 1.345 . S
C514 C515 1.424 . S
C515 H507 0.951 . S
C515 C514 1.424 . S
C515 C516 1.347 . S
C516 H508 0.951 . S
C516 C511 1.429 . S
C516 C515 1.347 . S
H517 C518 0.951 . S
C518 H517 0.951 . S
C518 C524 1.265 . S
H519 C524 0.950 . S
H520 C528 0.949 . S
H521 C529 0.950 . S
H522 C530 0.951 . S
H523 C531 0.951 . S
C524 C518 1.265 . S
C524 H519 0.950 . S
C524 C525 1.478 . S
C525 C512 1.394 . S
C525 C524 1.478 . S
C525 C526 1.397 . S
C526 C525 1.397 . S
C526 C527 1.438 . S
C526 C531 1.429 . S
C527 C510 1.394 . S
C527 C526 1.438 . S
C527 C528 1.428 . S
C528 H520 0.949 . S
C528 C527 1.428 . S
C528 C529 1.345 . S
C529 H521 0.950 . S
C529 C528 1.345 . S
C529 C530 1.424 . S
C530 H522 0.951 . S
C530 C529 1.424 . S
C530 C531 1.347 . S
C531 H523 0.951 . S
C531 C526 1.429 . S
C531 C530 1.347 . S
H532 C533 0.951 . S
C533 H532 0.951 . S
C533 C539 1.265 . S
H534 C539 0.950 . S
H535 C543 0.949 . S
H536 C544 0.950 . S
H537 C545 0.951 . S
H538 C546 0.951 . S
C539 C533 1.265 . S
C539 H534 0.950 . S
C539 C540 1.478 . S
C540 C539 1.478 . S
C540 C541 1.397 . S
C540 C557 1.394 . S
C541 C540 1.397 . S
C541 C542 1.438 . S
C541 C546 1.429 . S
C542 C541 1.438 . S
C542 C543 1.428 . S
C542 C555 1.394 . S
C543 H535 0.949 . S
C543 C542 1.428 . S
C543 C544 1.345 . S
C544 H536 0.950 . S
C544 C543 1.345 . S
C544 C545 1.424 . S
C545 H537 0.951 . S
C545 C544 1.424 . S
C545 C546 1.347 . S
C546 H538 0.951 . S
C546 C541 1.429 . S
C546 C545 1.347 . S
H547 C548 0.951 1_655 S
C548 H547 0.951 1_455 S
C548 C554 1.265 . S
H549 C554 0.950 . S
H550 C558 0.949 . S
H551 C559 0.950 . S
H552 C560 0.951 . S
H553 C561 0.951 . S
C554 C548 1.265 . S
C554 H549 0.950 . S
C554 C555 1.478 . S
C555 C542 1.394 . S
C555 C554 1.478 . S
C555 C556 1.397 . S
C556 C555 1.397 . S
C556 C557 1.438 . S
C556 C561 1.429 . S
C557 C540 1.394 . S
C557 C556 1.438 . S
C557 C558 1.428 . S
C558 H550 0.949 . S
C558 C557 1.428 . S
C558 C559 1.345 . S
C559 H551 0.950 . S
C559 C558 1.345 . S
C559 C560 1.424 . S
C560 H552 0.951 . S
C560 C559 1.424 . S
C560 C561 1.347 . S
C561 H553 0.951 . S
C561 C556 1.429 . S
C561 C560 1.347 . S
C218 C173 1.655 . S
C203 C138 1.641 . S
C233 C21 1.647 . S
C248 C196 1.654 . S
C263 C60 1.662 . S
C278 C172 1.668 . S
C293 C99 1.584 . S
C308 C195 1.637 . S
C338 C176 1.656 . S
C323 C16 1.664 . S
C368 C198 1.604 . S
C353 C40 1.653 . S
C383 C79 1.606 . S
C398 C177 1.560 . S
C413 C133 1.608 . S
C428 C197 1.554 . S
C458 C200 1.559 . S
C443 C55 1.609 . S
C488 C175 1.648 . S
C473 C94 1.595 . S
C518 C199 1.611 . S
C503 C118 1.663 . S
C533 C1 1.597 . S
C548 C174 1.625 . S
