# Generated by pormake.
# Topology anh, (6,3)-cn, num edge types: 1
# Building blocks:
#     Node 0, Type 0, BuildingBlock: CUKXOW_clean_sbu_0, # of connection points: 6
#     Node 1, Type 0, BuildingBlock: CUKXOW_clean_sbu_0, # of connection points: 6
#     Node 2, Type 0, BuildingBlock: CUKXOW_clean_sbu_0, # of connection points: 6
#     Node 3, Type 1, BuildingBlock: ESEHIV_clean_linker_0, # of connection points: 3
#     Node 4, Type 1, BuildingBlock: ESEHIV_clean_linker_0, # of connection points: 3
#     Node 5, Type 1, BuildingBlock: ESEHIV_clean_linker_0, # of connection points: 3
#     Node 6, Type 1, BuildingBlock: ESEHIV_clean_linker_0, # of connection points: 3
#     Node 7, Type 1, BuildingBlock: ESEHIV_clean_linker_0, # of connection points: 3
#     Node 8, Type 1, BuildingBlock: ESEHIV_clean_linker_0, # of connection points: 3
#     Edge 9, Type (0, 1), BuildingBlock: EZIPEK_clean_linker_0, # of connection points: 2
#     Edge 10, Type (0, 1), BuildingBlock: EZIPEK_clean_linker_0, # of connection points: 2
#     Edge 11, Type (0, 1), BuildingBlock: EZIPEK_clean_linker_0, # of connection points: 2
#     Edge 12, Type (0, 1), BuildingBlock: EZIPEK_clean_linker_0, # of connection points: 2
#     Edge 13, Type (0, 1), BuildingBlock: EZIPEK_clean_linker_0, # of connection points: 2
#     Edge 14, Type (0, 1), BuildingBlock: EZIPEK_clean_linker_0, # of connection points: 2
#     Edge 15, Type (0, 1), BuildingBlock: EZIPEK_clean_linker_0, # of connection points: 2
#     Edge 16, Type (0, 1), BuildingBlock: EZIPEK_clean_linker_0, # of connection points: 2
#     Edge 17, Type (0, 1), BuildingBlock: EZIPEK_clean_linker_0, # of connection points: 2
#     Edge 18, Type (0, 1), BuildingBlock: EZIPEK_clean_linker_0, # of connection points: 2
#     Edge 19, Type (0, 1), BuildingBlock: EZIPEK_clean_linker_0, # of connection points: 2
#     Edge 20, Type (0, 1), BuildingBlock: EZIPEK_clean_linker_0, # of connection points: 2
#     Edge 21, Type (0, 1), BuildingBlock: EZIPEK_clean_linker_0, # of connection points: 2
#     Edge 22, Type (0, 1), BuildingBlock: EZIPEK_clean_linker_0, # of connection points: 2
#     Edge 23, Type (0, 1), BuildingBlock: EZIPEK_clean_linker_0, # of connection points: 2
#     Edge 24, Type (0, 1), BuildingBlock: EZIPEK_clean_linker_0, # of connection points: 2
#     Edge 25, Type (0, 1), BuildingBlock: EZIPEK_clean_linker_0, # of connection points: 2
#     Edge 26, Type (0, 1), BuildingBlock: EZIPEK_clean_linker_0, # of connection points: 2
# Relax obj value: 0.144
# Max RMSD: 0.195
# Mean RMSD: 0.144
data_MOF--net-anh--node1-CUKXOW_clean_sbu_0--node2-ESEHIV_clean_linker_0--edge1-EZIPEK_clean_linker_0
_symmetry_space_group_name_H-M    P1
_symmetry_Int_Tables_number       1
_symmetry_cell_setting            triclinic
loop_
_symmetry_equiv_pos_as_xyz
'x, y, z'
_cell_length_a     19.244962
_cell_length_b     18.357997
_cell_length_c     35.905314
_cell_angle_alpha  94.731308
_cell_angle_beta   90.397625
_cell_angle_gamma 112.93407
loop_
_atom_site_label
_atom_site_type_symbol
_atom_site_fract_x
_atom_site_fract_y
_atom_site_fract_z
_atom_type_partial_charge
Tb0 Tb 0.085 0.59024 0.14929 0.0
C1 C 0.06487 0.52553 0.22844 0.0
Tb2 Tb 1.01249 0.4193 0.15279 0.0
O3 O 0.98135 0.60296 0.12999 0.0
O4 O 0.97076 0.51306 0.16264 0.0
O5 O 0.09847 0.58785 0.20943 0.0
C6 C 0.90665 0.27365 0.16243 0.0
O7 O 1.02374 0.45411 0.21229 0.0
C8 C 0.16197 0.46458 0.13827 0.0
C9 C 1.02357 0.48308 0.07582 0.0
O10 O 0.95813 0.31926 0.18703 0.0
O11 O 0.91805 0.30868 0.13196 0.0
O12 O 0.10865 0.39529 0.12881 0.0
O13 O 0.13015 0.50196 0.15866 0.0
O14 O 0.97834 0.43149 0.09696 0.0
O15 O 0.08099 0.54575 0.09086 0.0
C16 C 0.19028 0.7408 0.14846 0.0
O17 O 0.18441 0.67916 0.12645 0.0
O18 O 0.13566 0.71676 0.17146 0.0
C19 C 0.93197 0.54057 0.1432 0.0
Tb20 Tb 0.46312 0.97515 0.49714 0.0
C21 C 0.53752 0.99813 0.42052 0.0
Tb22 Tb 0.62902 0.06088 0.49831 0.0
O23 O 0.44351 0.07455 0.47654 0.0
O24 O 0.53788 0.0956 0.51055 0.0
O25 O 0.47875 0.95186 0.43809 0.0
C26 C 0.76257 0.17708 0.48896 0.0
O27 O 0.59907 0.05032 0.43866 0.0
C28 C 0.5885 0.909 0.50636 0.0
C29 C 0.5535 0.03837 0.57607 0.0
O30 O 0.74808 0.10172 0.4835 0.0
O31 O 0.7023 0.18644 0.4997 0.0
O32 O 0.65173 0.96443 0.51968 0.0
O33 O 0.55468 0.9391 0.48564 0.0
O34 O 0.61759 0.06843 0.55848 0.0
O35 O 0.48748 1.00226 0.55754 0.0
C36 C 0.32426 0.8681 0.50827 0.0
O37 O 0.33975 0.93019 0.48996 0.0
O38 O 0.38763 0.8654 0.51869 0.0
C39 C 0.50656 0.12881 0.49057 0.0
Tb40 Tb 0.53056 0.56202 0.82883 0.0
C41 C 0.60327 0.59864 0.90737 0.0
Tb42 Tb 0.68925 0.63067 0.83326 0.0
O43 O 0.53076 0.45915 0.85518 0.0
O44 O 0.61362 0.51179 0.81894 0.0
O45 O 0.54902 0.60556 0.88755 0.0
C46 C 0.83538 0.6628 0.82639 0.0
O47 O 0.6633 0.59586 0.89052 0.0
C48 C 0.63266 0.74057 0.8437 0.0
C49 C 0.60723 0.58189 0.75273 0.0
O50 O 0.79328 0.62254 0.85154 0.0
O51 O 0.79519 0.68616 0.80526 0.0
O52 O 0.69234 0.74195 0.86111 0.0
O53 O 0.60865 0.67928 0.82078 0.0
O54 O 0.67234 0.60758 0.77228 0.0
O55 O 0.54193 0.56151 0.76904 0.0
C56 C 0.38249 0.51958 0.8242 0.0
O57 O 0.4316 0.59129 0.83251 0.0
O58 O 0.41705 0.47285 0.81665 0.0
C59 C 0.59043 0.45658 0.84017 0.0
H60 H 0.43328 0.91559 0.25067 0.0
H61 H 0.66656 0.07423 0.26066 0.0
H62 H 0.54484 0.02752 0.15439 0.0
C63 C 0.48376 0.95319 0.23762 0.0
C64 C 0.48074 0.96413 0.19946 0.0
C65 C 0.54975 0.99409 0.25974 0.0
C66 C 0.61552 0.04247 0.24335 0.0
C67 C 0.61473 0.05344 0.20518 0.0
C68 C 0.54657 0.0161 0.18344 0.0
H69 H 0.60788 0.6696 0.58439 0.0
H70 H 0.57104 0.42457 0.58774 0.0
H71 H 0.53909 0.51053 0.48337 0.0
C72 C 0.59471 0.61132 0.56981 0.0
C73 C 0.57478 0.59859 0.53139 0.0
C74 C 0.59098 0.54848 0.5904 0.0
C75 C 0.57372 0.47316 0.57175 0.0
C76 C 0.55717 0.45882 0.53302 0.0
C77 C 0.55589 0.52168 0.51283 0.0
H78 H 0.91732 0.49737 0.90094 0.0
H79 H 0.08175 0.39858 0.92067 0.0
H80 H 0.06647 0.48484 0.81492 0.0
C81 C 0.95835 0.47468 0.89034 0.0
C82 C 0.98481 0.4894 0.85421 0.0
C83 C 0.9942 0.44302 0.91479 0.0
C84 C 0.05044 0.41826 0.9014 0.0
C85 C 0.07782 0.4357 0.86582 0.0
C86 C 0.04223 0.46698 0.84157 0.0
H87 H 0.98445 0.40405 0.38174 0.0
H88 H 0.14835 0.643 0.40324 0.0
H89 H 0.03168 0.51567 0.49457 0.0
C90 C 1.01655 0.45426 0.4015 0.0
C91 C 1.00321 0.4507 0.43985 0.0
C92 C 0.06743 0.52411 0.38829 0.0
C93 C 0.10878 0.589 0.41357 0.0
C94 C 0.09708 0.58569 0.45199 0.0
C95 C 0.04286 0.51719 0.46503 0.0
H96 H 0.5953 0.19397 0.74313 0.0
H97 H 0.60528 0.96436 0.74077 0.0
H98 H 0.61997 0.10084 0.84642 0.0
C99 C 0.60199 0.14764 0.75786 0.0
C100 C 0.60978 0.15659 0.79697 0.0
C101 C 0.59997 0.07864 0.73754 0.0
C102 C 0.60687 0.01804 0.75653 0.0
C103 C 0.61375 0.02533 0.79576 0.0
C104 C 0.61532 0.09501 0.81614 0.0
H105 H 0.45402 0.53452 0.06466 0.0
H106 H 0.68058 0.54808 0.07244 0.0
H107 H 0.54463 0.50246 0.17008 0.0
C108 C 0.49951 0.53184 0.08175 0.0
C109 C 0.48756 0.51618 0.1195 0.0
C110 C 0.56865 0.54425 0.06521 0.0
C111 C 0.62811 0.5396 0.08602 0.0
C112 C 0.62196 0.5248 0.12376 0.0
C113 C 0.55068 0.51321 0.14087 0.0
C114 C 0.30129 0.54885 0.12383 0.0
C115 C 0.24786 0.48073 0.13882 0.0
C116 C 0.3544 0.4349 0.14556 0.0
C117 C 0.40846 0.50718 0.13373 0.0
N118 N 0.43151 0.64238 0.12357 0.0
N119 N 0.23163 0.3665 0.17197 0.0
C120 C 0.38103 0.56706 0.12714 0.0
C121 C 0.27703 0.42611 0.15213 0.0
N122 N 0.27622 0.59278 0.10284 0.0
N123 N 0.37538 0.37279 0.14897 0.0
H124 H 0.17686 0.35983 0.17843 0.0
H125 H 0.25098 0.32924 0.18529 0.0
H126 H 0.43028 0.37692 0.14478 0.0
H127 H 0.3371 0.31589 0.15323 0.0
H128 H 0.31226 0.63853 0.0882 0.0
H129 H 0.21922 0.57545 0.09572 0.0
H130 H 0.41463 0.68949 0.12207 0.0
H131 H 0.48978 0.65862 0.12656 0.0
C132 C 0.90057 0.26758 0.49208 0.0
C133 C 0.82768 0.24092 0.4746 0.0
C134 C 0.86822 0.35525 0.43807 0.0
C135 C 0.9431 0.37914 0.45286 0.0
N136 N 0.03398 0.34833 0.48815 0.0
N137 N 0.75122 0.24371 0.42177 0.0
C138 C 0.96049 0.33255 0.47831 0.0
C139 C 0.81419 0.28002 0.4448 0.0
N140 N 0.91212 0.23216 0.52217 0.0
N141 N 0.84757 0.40541 0.41886 0.0
H142 H 0.71247 0.18618 0.42464 0.0
H143 H 0.7425 0.26702 0.39749 0.0
H144 H 0.8844 0.46325 0.41507 0.0
H145 H 0.79172 0.39248 0.41046 0.0
H146 H 0.96208 0.25455 0.53859 0.0
H147 H 0.8697 0.18312 0.53213 0.0
H148 H 0.05016 0.31188 0.50385 0.0
H149 H 0.07931 0.39379 0.47771 0.0
C150 C 0.56481 0.83366 0.84351 0.0
C151 C 0.62861 0.81625 0.83428 0.0
C152 C 0.68884 0.94647 0.81001 0.0
C153 C 0.62137 0.95921 0.81438 0.0
N154 N 0.49159 0.91211 0.83193 0.0
N155 N 0.74421 0.84945 0.80088 0.0
C156 C 0.55837 0.90229 0.8305 0.0
C157 C 0.68901 0.87106 0.8156 0.0
N158 N 0.51099 0.78523 0.86502 0.0
N159 N 0.7529 1.00669 0.80038 0.0
H160 H 0.7443 0.79311 0.8021 0.0
H161 H 0.78508 0.8842 0.78373 0.0
H162 H 0.75463 0.06296 0.79619 0.0
H163 H 0.8057 1.00329 0.80034 0.0
H164 H 0.46679 0.79865 0.87573 0.0
H165 H 0.514 0.73443 0.87466 0.0
H166 H 0.44128 0.86849 0.83935 0.0
H167 H 0.48537 0.96223 0.82335 0.0
C168 C 0.78594 0.45772 0.13644 0.0
C169 C 0.84841 0.53034 0.14812 0.0
C170 C 0.75589 0.5955 0.15433 0.0
C171 C 0.69402 0.52315 0.14218 0.0
N172 N 0.64936 0.38167 0.13091 0.0
N173 N 0.88578 0.66189 0.1793 0.0
C174 C 0.70914 0.45315 0.13659 0.0
C175 C 0.83093 0.59713 0.16047 0.0
N176 N 0.80001 0.3937 0.12283 0.0
N177 N 0.74352 0.66399 0.1586 0.0
H178 H 0.93934 0.66362 0.18586 0.0
H179 H 0.87581 0.70977 0.19201 0.0
H180 H 0.68952 0.66428 0.15631 0.0
H181 H 0.78678 0.72028 0.16248 0.0
H182 H 0.75934 0.34181 0.10965 0.0
H183 H 0.85423 0.39505 0.12292 0.0
H184 H 0.65455 0.32721 0.13025 0.0
H185 H 0.59359 0.37723 0.13063 0.0
C186 C 0.24678 0.7292 0.52143 0.0
C187 C 0.24948 0.80083 0.5086 0.0
C188 C 0.12861 0.72794 0.47442 0.0
C189 C 0.13999 0.65675 0.47777 0.0
N190 N 0.20939 0.58849 0.50582 0.0
N191 N 0.18024 0.87236 0.48461 0.0
C192 C 0.19771 0.65646 0.50246 0.0
C193 C 0.18567 0.80161 0.48903 0.0
N194 N 0.29 0.73108 0.55203 0.0
N195 N 0.06351 0.72417 0.45726 0.0
H196 H 0.2156 0.92503 0.49975 0.0
H197 H 0.14006 0.87894 0.46721 0.0
H198 H 1.0205 0.67028 0.44736 0.0
H199 H 0.04945 0.77289 0.45493 0.0
H200 H 0.28589 0.68018 0.56435 0.0
H201 H 0.32186 0.7843 0.56785 0.0
H202 H 0.25622 0.58786 0.52034 0.0
H203 H 0.17553 0.53376 0.49197 0.0
C204 C 0.53435 0.31414 0.81396 0.0
C205 C 0.59702 0.37898 0.83149 0.0
C206 C 0.66903 0.29393 0.83129 0.0
C207 C 0.60377 0.22837 0.81644 0.0
N208 N 0.46916 0.17145 0.80434 0.0
N209 N 0.71997 0.42757 0.86278 0.0
C210 C 0.53454 0.23707 0.8118 0.0
C211 C 0.6633 0.36797 0.84208 0.0
N212 N 0.47718 0.32674 0.79661 0.0
N213 N 0.73664 0.28622 0.83379 0.0
H214 H 0.71674 0.48179 0.87121 0.0
H215 H 0.76701 0.42111 0.87406 0.0
H216 H 0.74212 0.23247 0.82685 0.0
H217 H 0.78772 0.33371 0.84092 0.0
H218 H 0.43324 0.28199 0.78083 0.0
H219 H 0.4793 0.38342 0.79357 0.0
H220 H 0.41607 0.17418 0.80373 0.0
H221 H 0.46774 0.11382 0.80276 0.0
C222 C 0.52038 0.77216 0.52799 0.0
C223 C 0.57494 0.82242 0.50513 0.0
C224 C 0.62261 0.71623 0.49185 0.0
C225 C 0.56551 0.66584 0.51368 0.0
N226 N 0.4456 0.63741 0.54143 0.0
N227 N 0.66947 0.83665 0.45947 0.0
C228 C 0.50904 0.69096 0.5275 0.0
C229 C 0.623 0.79228 0.48491 0.0
N230 N 0.48475 0.80348 0.5532 0.0
N231 N 0.6785 0.69325 0.47945 0.0
H232 H 0.67185 0.8927 0.45437 0.0
H233 H 0.70085 0.81544 0.44141 0.0
H234 H 0.67817 0.63736 0.48319 0.0
H235 H 0.72666 0.73066 0.46718 0.0
H236 H 0.45066 0.77125 0.5735 0.0
H237 H 0.49701 0.864 0.55646 0.0
H238 H 0.40015 0.65143 0.54969 0.0
H239 H 0.4357 0.5772 0.54087 0.0
C240 C 0.88279 0.57451 0.79224 0.0
C241 C 0.90054 0.64725 0.81418 0.0
C242 C 1.00285 0.62856 0.84573 0.0
C243 C 0.96703 0.54639 0.83373 0.0
N244 N 0.88125 0.44163 0.79073 0.0
N245 N 0.98562 0.75268 0.85603 0.0
C246 C 0.91061 0.51953 0.80468 0.0
C247 C 0.96511 0.67835 0.83823 0.0
N248 N 0.83604 0.55728 0.76123 0.0
N249 N 0.07173 0.65796 0.86421 0.0
H250 H 0.95815 0.78952 0.84961 0.0
H251 H 1.02717 0.77602 0.87746 0.0
H252 H 0.10139 0.62236 0.86873 0.0
H253 H 0.10223 0.71827 0.87167 0.0
H254 H 0.82375 0.50656 0.74282 0.0
H255 H 0.81623 0.59867 0.7523 0.0
H256 H 0.83415 0.41705 0.77235 0.0
H257 H 0.90255 0.40085 0.79893 0.0
C258 C 0.32204 0.82507 0.13051 0.0
C259 C 0.25911 0.81759 0.15258 0.0
C260 C 0.3416 0.93458 0.19296 0.0
C261 C 0.40594 0.92396 0.17829 0.0
N262 N 0.45682 0.85892 0.13103 0.0
N263 N 0.20563 0.88043 0.19905 0.0
C264 C 0.39631 0.8703 0.14594 0.0
C265 C 0.2677 0.87754 0.18194 0.0
N266 N 0.31063 0.79093 0.09458 0.0
N267 N 0.35165 1.0005 0.2166 0.0
H268 H 0.15105 0.84922 0.18762 0.0
H269 H 0.20832 0.91441 0.22413 0.0
H270 H 0.40501 0.04472 0.22361 0.0
H271 H 0.30762 0.01543 0.22627 0.0
H272 H 0.35416 0.79901 0.07622 0.0
H273 H 0.25677 0.76404 0.0817 0.0
H274 H 0.45213 0.81819 0.10824 0.0
H275 H 0.5114 0.88586 0.14285 0.0
C276 C 0.46894 0.23338 0.52436 0.0
C277 C 0.51578 0.21353 0.49852 0.0
C278 C 0.58541 0.35568 0.49107 0.0
C279 C 0.53655 0.37524 0.51573 0.0
N280 N 0.41912 0.33075 0.54715 0.0
N281 N 0.6038 0.25431 0.44959 0.0
C282 C 0.4741 0.31319 0.52949 0.0
C283 C 0.56944 0.27425 0.47948 0.0
N284 N 0.42135 0.17679 0.5451 0.0
N285 N 0.6493 0.41421 0.48019 0.0
H286 H 0.59376 0.19554 0.44054 0.0
H287 H 0.63603 0.29557 0.4318 0.0
H288 H 0.66307 0.47437 0.48784 0.0
H289 H 0.69132 0.40256 0.46587 0.0
H290 H 0.39212 0.1898 0.56724 0.0
H291 H 0.4159 0.11779 0.54242 0.0
H292 H 0.36875 0.28758 0.55484 0.0
H293 H 0.42053 0.38835 0.55053 0.0
C294 C 0.29017 0.52037 0.87148 0.0
C295 C 0.3046 0.4912 0.83594 0.0
C296 C 0.17099 0.40552 0.8263 0.0
C297 C 0.15595 0.44694 0.8582 0.0
N298 N 0.20248 0.5592 0.90587 0.0
N299 N 0.25887 0.40872 0.77783 0.0
C300 C 0.2157 0.50842 0.87953 0.0
C301 C 0.24517 0.43367 0.81289 0.0
N302 N 0.34668 0.55699 0.89828 0.0
N303 N 0.11443 0.33996 0.80899 0.0
H304 H 0.31249 0.42916 0.76691 0.0
H305 H 0.21627 0.37273 0.75851 0.0
H306 H 0.05959 0.31834 0.81854 0.0
H307 H 0.12337 0.30331 0.78749 0.0
H308 H 0.33629 0.57224 0.92569 0.0
H309 H 0.40214 0.56285 0.89484 0.0
H310 H 0.2457 0.60965 0.91879 0.0
H311 H 0.14913 0.55703 0.91204 0.0
C312 C 0.77971 0.24555 0.18961 0.0
C313 C 0.83085 0.21625 0.17185 0.0
C314 C 0.73688 0.07937 0.17245 0.0
C315 C 0.6854 0.1089 0.18945 0.0
N316 N 0.65101 0.21926 0.20716 0.0
N317 N 0.85416 0.10773 0.14023 0.0
C318 C 0.7049 0.19187 0.19587 0.0
C319 C 0.80805 0.1338 0.16128 0.0
N320 N 0.80293 0.32469 0.20111 0.0
N321 N 0.71862 0.99927 0.16818 0.0
H322 H 0.90738 0.14578 0.13263 0.0
H323 H 0.83793 0.04969 0.12817 0.0
H324 H 0.66614 0.95787 0.17478 0.0
H325 H 0.75656 0.97379 0.16006 0.0
H326 H 0.77196 0.34825 0.21826 0.0
H327 H 0.85535 0.36717 0.19534 0.0
H328 H 0.65854 0.27872 0.20839 0.0
H329 H 0.59586 0.18152 0.21215 0.0
C330 C 0.98971 0.39535 0.01502 0.0
C331 C 1.00802 0.47135 0.0348 0.0
C332 C 1.01227 0.52924 0.97565 0.0
C333 C 0.98758 0.45224 0.95601 0.0
N334 N 0.93388 0.31039 0.95831 0.0
N335 N 1.01169 0.60441 0.03374 0.0
C336 C 0.96951 0.38467 0.97626 0.0
C337 C 1.01133 0.53632 0.0151 0.0
N338 N 0.99665 0.33479 0.03232 0.0
N339 N 0.04158 0.59633 0.95734 0.0
H340 H 1.00817 0.61148 0.06258 0.0
H341 H 1.00654 0.65014 0.02007 0.0
H342 H 0.04674 0.59581 0.92862 0.0
H343 H 0.06817 0.65292 0.97125 0.0
H344 H 0.99063 0.28079 0.01801 0.0
H345 H 1.01683 0.34114 0.05989 0.0
H346 H 0.9135 0.25918 0.97237 0.0
H347 H 0.91794 0.3011 0.9299 0.0
C348 C 0.51715 0.04824 0.36058 0.0
C349 C 0.53539 0.99242 0.37919 0.0
C350 C 0.55878 0.93374 0.31908 0.0
C351 C 0.54667 0.99389 0.30098 0.0
N352 N 0.52233 0.11364 0.30413 0.0
N353 N 0.5784 0.88539 0.37765 0.0
C354 C 0.52812 0.05267 0.32166 0.0
C355 C 0.5573 0.93579 0.35882 0.0
N356 N 0.48685 0.09523 0.37999 0.0
N357 N 0.57041 0.87415 0.29814 0.0
H358 H 0.57444 0.88291 0.4065 0.0
H359 H 0.60328 0.84887 0.36519 0.0
H360 H 0.57442 0.87263 0.26914 0.0
H361 H 0.57173 0.82385 0.30899 0.0
H362 H 0.46476 0.13124 0.36754 0.0
H363 H 0.47754 0.09305 0.40847 0.0
H364 H 0.5183 0.16356 0.31828 0.0
H365 H 0.52689 0.11754 0.27537 0.0
C366 C 0.64793 0.53776 0.69118 0.0
C367 C 0.60687 0.57661 0.71128 0.0
C368 C 0.54899 0.58796 0.65246 0.0
C369 C 0.59796 0.55969 0.6321 0.0
N370 N 0.70662 0.52461 0.63306 0.0
N371 N 0.53412 0.65813 0.70967 0.0
C372 C 0.65145 0.53979 0.65175 0.0
C373 C 0.56222 0.60775 0.69152 0.0
N374 N 0.67977 0.49491 0.70916 0.0
N375 N 0.48732 0.5919 0.6351 0.0
H376 H 0.54584 0.67776 0.738 0.0
H377 H 0.50668 0.68748 0.6956 0.0
H378 H 0.47174 0.57194 0.60709 0.0
H379 H 0.44676 0.60584 0.64965 0.0
H380 H 0.70401 0.45943 0.69498 0.0
H381 H 0.6747 0.4878 0.73766 0.0
H382 H 0.75076 0.51664 0.64674 0.0
H383 H 0.71266 0.52823 0.60435 0.0
C384 C 0.50807 0.99343 0.64079 0.0
C385 C 0.55664 0.0511 0.61791 0.0
C386 C 0.63578 0.12285 0.67353 0.0
C387 C 0.58545 0.0684 0.69638 0.0
N388 N 0.46136 0.96735 0.70277 0.0
N389 N 0.64564 0.18724 0.61687 0.0
C390 C 0.51796 1.00818 0.68034 0.0
C391 C 0.61434 0.12086 0.63557 0.0
N392 N 0.45368 0.92356 0.62571 0.0
N393 N 0.70472 0.17564 0.68772 0.0
H394 H 0.62556 0.19144 0.59039 0.0
H395 H 0.68383 0.24127 0.62967 0.0
H396 H 0.72356 0.17755 0.71524 0.0
H397 H 0.74579 0.21175 0.67103 0.0
H398 H 0.42681 0.87585 0.64146 0.0
H399 H 0.4365 0.91037 0.59776 0.0
H400 H 0.40766 0.92915 0.69234 0.0
H401 H 0.46501 0.97787 0.73184 0.0
C402 C 0.64434 0.64272 0.9755 0.0
C403 C 0.59325 0.58699 0.94805 0.0
C404 C 0.53306 0.5003 -0.00281 0.0
C405 C 0.57818 0.55943 0.02492 0.0
N406 N 0.66776 0.69369 0.04098 0.0
N407 N 0.47468 0.47246 0.93551 0.0
C408 C 0.63164 0.6326 0.01424 0.0
C409 C 0.53323 0.51888 0.95964 0.0
N410 N 0.70438 0.70593 0.96473 0.0
N411 N 0.49183 0.42503 0.00634 0.0
H412 H 0.46902 0.48426 0.90823 0.0
H413 H 0.42645 0.42743 0.94404 0.0
H414 H 0.49162 0.40805 0.03337 0.0
H415 H 0.46451 0.37745 0.98638 0.0
H416 H 0.7483 0.74306 0.98313 0.0
H417 H 0.71272 0.71866 0.93695 0.0
H418 H 0.70147 0.75096 0.0348 0.0
H419 H 0.65853 0.68921 0.06944 0.0
C420 C 1.01176 0.54553 0.2896 0.0
C421 C 0.07103 0.53554 0.26953 0.0
C422 C 0.12997 0.52041 0.32745 0.0
C423 C 0.07147 0.53203 0.34762 0.0
N424 N 0.96609 0.57224 0.34981 0.0
N425 N 0.19276 0.527 0.26858 0.0
C426 C 1.01514 0.54968 0.32924 0.0
C427 C 0.13236 0.52751 0.28829 0.0
N428 N 0.95126 0.54884 0.27066 0.0
N429 N 0.18144 0.49985 0.34558 0.0
H430 H 0.19537 0.53059 0.23973 0.0
H431 H 0.24261 0.52901 0.28095 0.0
H432 H 0.18206 0.49574 0.37439 0.0
H433 H 0.22064 0.48213 0.33201 0.0
H434 H 0.90183 0.54593 0.28329 0.0
H435 H 0.9485 0.54986 0.24168 0.0
H436 H 0.9288 0.59371 0.33834 0.0
H437 H 0.96688 0.57601 0.37896 0.0
loop_
_geom_bond_atom_site_label_1
_geom_bond_atom_site_label_2
_geom_bond_distance
_geom_bond_site_symmetry_2
_ccdc_geom_bond_type
Tb0 O3 2.453 1_455 S
Tb0 O4 2.596 1_455 S
Tb0 O5 2.374 . S
Tb0 O13 2.343 . S
Tb0 O15 2.353 . S
Tb0 O17 2.427 . S
Tb0 O18 2.513 . S
C1 O5 1.251 . S
C1 O7 1.263 . S
Tb2 O4 2.343 . S
Tb2 O7 2.353 1_655 S
Tb2 O10 2.427 . S
Tb2 O11 2.513 . S
Tb2 O12 2.453 1_655 S
Tb2 O13 2.596 1_655 S
Tb2 O14 2.374 1_655 S
O3 Tb0 2.453 1_655 S
O3 C19 1.245 . S
O4 Tb0 2.596 1_655 S
O4 Tb2 2.343 . S
O4 C19 1.259 . S
O5 Tb0 2.374 . S
O5 C1 1.251 . S
C6 O10 1.275 . S
C6 O11 1.246 . S
O7 C1 1.263 . S
O7 Tb2 2.353 1_455 S
C8 O12 1.245 . S
C8 O13 1.259 . S
C9 O14 1.250 . S
C9 O15 1.263 . S
O10 Tb2 2.427 . S
O10 C6 1.275 . S
O11 Tb2 2.513 . S
O11 C6 1.246 . S
O12 Tb2 2.453 1_455 S
O12 C8 1.245 . S
O13 Tb0 2.343 . S
O13 Tb2 2.596 1_455 S
O13 C8 1.259 . S
O14 Tb2 2.374 1_455 S
O14 C9 1.250 . S
O15 Tb0 2.353 . S
O15 C9 1.263 . S
C16 O17 1.275 . S
C16 O18 1.246 . S
O17 Tb0 2.427 . S
O17 C16 1.275 . S
O18 Tb0 2.513 . S
O18 C16 1.246 . S
C19 O3 1.245 . S
C19 O4 1.259 . S
Tb20 O23 2.453 . S
Tb20 O24 2.596 . S
Tb20 O25 2.374 . S
Tb20 O33 2.343 1_545 S
Tb20 O35 2.353 . S
Tb20 O37 2.427 1_545 S
Tb20 O38 2.513 1_545 S
C21 O25 1.251 . S
C21 O27 1.263 . S
Tb22 O24 2.343 . S
Tb22 O27 2.353 . S
Tb22 O30 2.427 . S
Tb22 O31 2.513 . S
Tb22 O32 2.453 1_545 S
Tb22 O33 2.596 1_545 S
Tb22 O34 2.374 . S
O23 Tb20 2.453 . S
O23 C39 1.245 . S
O24 Tb20 2.596 . S
O24 Tb22 2.343 . S
O24 C39 1.259 . S
O25 Tb20 2.374 . S
O25 C21 1.251 . S
C26 O30 1.275 . S
C26 O31 1.246 . S
O27 C21 1.263 . S
O27 Tb22 2.353 . S
C28 O32 1.245 . S
C28 O33 1.259 . S
C29 O34 1.250 . S
C29 O35 1.263 . S
O30 Tb22 2.427 . S
O30 C26 1.275 . S
O31 Tb22 2.513 . S
O31 C26 1.246 . S
O32 Tb22 2.453 1_565 S
O32 C28 1.245 . S
O33 Tb20 2.343 1_565 S
O33 Tb22 2.596 1_565 S
O33 C28 1.259 . S
O34 Tb22 2.374 . S
O34 C29 1.250 . S
O35 Tb20 2.353 . S
O35 C29 1.263 . S
C36 O37 1.275 . S
C36 O38 1.246 . S
O37 Tb20 2.427 1_565 S
O37 C36 1.275 . S
O38 Tb20 2.513 1_565 S
O38 C36 1.246 . S
C39 O23 1.245 . S
C39 O24 1.259 . S
Tb40 O43 2.453 . S
Tb40 O44 2.596 . S
Tb40 O45 2.374 . S
Tb40 O53 2.343 . S
Tb40 O55 2.353 . S
Tb40 O57 2.427 . S
Tb40 O58 2.513 . S
C41 O45 1.251 . S
C41 O47 1.263 . S
Tb42 O44 2.343 . S
Tb42 O47 2.353 . S
Tb42 O50 2.427 . S
Tb42 O51 2.513 . S
Tb42 O52 2.453 . S
Tb42 O53 2.596 . S
Tb42 O54 2.374 . S
O43 Tb40 2.453 . S
O43 C59 1.245 . S
O44 Tb40 2.596 . S
O44 Tb42 2.343 . S
O44 C59 1.259 . S
O45 Tb40 2.374 . S
O45 C41 1.251 . S
C46 O50 1.275 . S
C46 O51 1.246 . S
O47 C41 1.263 . S
O47 Tb42 2.353 . S
C48 O52 1.245 . S
C48 O53 1.259 . S
C49 O54 1.250 . S
C49 O55 1.263 . S
O50 Tb42 2.427 . S
O50 C46 1.275 . S
O51 Tb42 2.513 . S
O51 C46 1.246 . S
O52 Tb42 2.453 . S
O52 C48 1.245 . S
O53 Tb40 2.343 . S
O53 Tb42 2.596 . S
O53 C48 1.259 . S
O54 Tb42 2.374 . S
O54 C49 1.250 . S
O55 Tb40 2.353 . S
O55 C49 1.263 . S
C56 O57 1.275 . S
C56 O58 1.246 . S
O57 Tb40 2.427 . S
O57 C56 1.275 . S
O58 Tb40 2.513 . S
O58 C56 1.246 . S
C59 O43 1.245 . S
C59 O44 1.259 . S
H60 C63 0.931 . S
H61 C66 0.928 . S
H62 C68 0.930 . S
C63 H60 0.931 . S
C63 C64 1.413 . S
C63 C65 1.360 1_565 S
C64 C63 1.413 . S
C64 C68 1.429 1_565 S
C65 C63 1.360 1_545 S
C65 C66 1.372 . S
C66 H61 0.928 . S
C66 C65 1.372 . S
C66 C67 1.404 . S
C67 C66 1.404 . S
C67 C68 1.391 . S
C68 H62 0.930 . S
C68 C64 1.429 1_545 S
C68 C67 1.391 . S
H69 C72 0.931 . S
H70 C75 0.928 . S
H71 C77 0.930 . S
C72 H69 0.931 . S
C72 C73 1.413 . S
C72 C74 1.360 . S
C73 C72 1.413 . S
C73 C77 1.429 . S
C74 C72 1.360 . S
C74 C75 1.372 . S
C75 H70 0.928 . S
C75 C74 1.372 . S
C75 C76 1.404 . S
C76 C75 1.404 . S
C76 C77 1.391 . S
C77 H71 0.930 . S
C77 C73 1.429 . S
C77 C76 1.391 . S
H78 C81 0.931 1_655 S
H79 C84 0.928 . S
H80 C86 0.930 . S
C81 H78 0.931 1_455 S
C81 C82 1.413 . S
C81 C83 1.360 . S
C82 C81 1.413 . S
C82 C86 1.429 . S
C83 C81 1.360 . S
C83 C84 1.372 . S
C84 H79 0.928 . S
C84 C83 1.372 . S
C84 C85 1.404 . S
C85 C84 1.404 . S
C85 C86 1.391 . S
C86 H80 0.930 . S
C86 C82 1.429 . S
C86 C85 1.391 . S
H87 C90 0.931 . S
H88 C93 0.928 . S
H89 C95 0.930 . S
C90 H87 0.931 . S
C90 C91 1.413 . S
C90 C92 1.363 . S
C91 C90 1.413 . S
C91 C95 1.429 1_655 S
C92 C90 1.363 . S
C92 C93 1.369 1_655 S
C93 H88 0.928 . S
C93 C92 1.369 1_455 S
C93 C94 1.404 . S
C94 C93 1.404 . S
C94 C95 1.391 . S
C95 H89 0.930 . S
C95 C91 1.429 1_455 S
C95 C94 1.391 . S
H96 C99 0.931 . S
H97 C102 0.928 . S
H98 C104 0.930 . S
C99 H96 0.931 . S
C99 C100 1.413 . S
C99 C101 1.360 . S
C100 C99 1.413 . S
C100 C104 1.429 . S
C101 C99 1.360 . S
C101 C102 1.372 1_545 S
C102 H97 0.928 . S
C102 C101 1.372 1_565 S
C102 C103 1.404 . S
C103 C102 1.404 . S
C103 C104 1.391 1_565 S
C104 H98 0.930 . S
C104 C100 1.429 . S
C104 C103 1.391 1_545 S
H105 C108 0.931 . S
H106 C111 0.928 . S
H107 C113 0.930 . S
C108 H105 0.931 . S
C108 C109 1.413 . S
C108 C110 1.360 . S
C109 C108 1.413 . S
C109 C113 1.429 . S
C110 C108 1.360 . S
C110 C111 1.372 . S
C111 H106 0.928 . S
C111 C110 1.372 . S
C111 C112 1.404 . S
C112 C111 1.404 . S
C112 C113 1.391 . S
C113 H107 0.930 . S
C113 C109 1.429 . S
C113 C112 1.391 . S
C114 C115 1.363 . S
C114 C120 1.379 . S
C114 N122 1.356 . S
C115 C114 1.363 . S
C115 C121 1.363 . S
C116 C117 1.363 . S
C116 C121 1.379 . S
C116 N123 1.356 . S
C117 C116 1.363 . S
C117 C120 1.363 . S
N118 C120 1.356 . S
N118 H130 0.984 . S
N118 H131 0.985 . S
N119 C121 1.356 . S
N119 H124 0.984 . S
N119 H125 0.985 . S
C120 C114 1.379 . S
C120 C117 1.363 . S
C120 N118 1.356 . S
C121 C115 1.363 . S
C121 C116 1.379 . S
C121 N119 1.356 . S
N122 C114 1.356 . S
N122 H128 0.984 . S
N122 H129 0.984 . S
N123 C116 1.356 . S
N123 H126 0.984 . S
N123 H127 0.985 . S
H124 N119 0.984 . S
H125 N119 0.985 . S
H126 N123 0.984 . S
H127 N123 0.985 . S
H128 N122 0.984 . S
H129 N122 0.984 . S
H130 N118 0.984 . S
H131 N118 0.985 . S
C132 C133 1.363 . S
C132 C138 1.379 . S
C132 N140 1.356 . S
C133 C132 1.363 . S
C133 C139 1.363 . S
C134 C135 1.363 . S
C134 C139 1.379 . S
C134 N141 1.356 . S
C135 C134 1.363 . S
C135 C138 1.363 . S
N136 C138 1.356 . S
N136 H148 0.984 . S
N136 H149 0.985 . S
N137 C139 1.356 . S
N137 H142 0.984 . S
N137 H143 0.985 . S
C138 C132 1.379 . S
C138 C135 1.363 . S
C138 N136 1.356 . S
C139 C133 1.363 . S
C139 C134 1.379 . S
C139 N137 1.356 . S
N140 C132 1.356 . S
N140 H146 0.984 . S
N140 H147 0.984 . S
N141 C134 1.356 . S
N141 H144 0.984 . S
N141 H145 0.985 . S
H142 N137 0.984 . S
H143 N137 0.985 . S
H144 N141 0.984 . S
H145 N141 0.985 . S
H146 N140 0.984 . S
H147 N140 0.984 . S
H148 N136 0.984 . S
H149 N136 0.985 . S
C150 C151 1.363 . S
C150 C156 1.379 . S
C150 N158 1.356 . S
C151 C150 1.363 . S
C151 C157 1.363 . S
C152 C153 1.363 . S
C152 C157 1.379 . S
C152 N159 1.356 . S
C153 C152 1.363 . S
C153 C156 1.363 . S
N154 C156 1.356 . S
N154 H166 0.984 . S
N154 H167 0.985 . S
N155 C157 1.356 . S
N155 H160 0.984 . S
N155 H161 0.985 . S
C156 C150 1.379 . S
C156 C153 1.363 . S
C156 N154 1.356 . S
C157 C151 1.363 . S
C157 C152 1.379 . S
C157 N155 1.356 . S
N158 C150 1.356 . S
N158 H164 0.984 . S
N158 H165 0.984 . S
N159 C152 1.356 . S
N159 H162 0.984 . S
N159 H163 0.985 . S
H160 N155 0.984 . S
H161 N155 0.985 . S
H162 N159 0.984 . S
H163 N159 0.985 . S
H164 N158 0.984 . S
H165 N158 0.984 . S
H166 N154 0.984 . S
H167 N154 0.985 . S
C168 C169 1.363 . S
C168 C174 1.379 . S
C168 N176 1.356 . S
C169 C168 1.363 . S
C169 C175 1.363 . S
C170 C171 1.363 . S
C170 C175 1.379 . S
C170 N177 1.356 . S
C171 C170 1.363 . S
C171 C174 1.363 . S
N172 C174 1.356 . S
N172 H184 0.984 . S
N172 H185 0.985 . S
N173 C175 1.356 . S
N173 H178 0.984 . S
N173 H179 0.985 . S
C174 C168 1.379 . S
C174 C171 1.363 . S
C174 N172 1.356 . S
C175 C169 1.363 . S
C175 C170 1.379 . S
C175 N173 1.356 . S
N176 C168 1.356 . S
N176 H182 0.984 . S
N176 H183 0.984 . S
N177 C170 1.356 . S
N177 H180 0.984 . S
N177 H181 0.985 . S
H178 N173 0.984 . S
H179 N173 0.985 . S
H180 N177 0.984 . S
H181 N177 0.985 . S
H182 N176 0.984 . S
H183 N176 0.984 . S
H184 N172 0.984 . S
H185 N172 0.985 . S
C186 C187 1.363 . S
C186 C192 1.379 . S
C186 N194 1.356 . S
C187 C186 1.363 . S
C187 C193 1.363 . S
C188 C189 1.363 . S
C188 C193 1.379 . S
C188 N195 1.356 . S
C189 C188 1.363 . S
C189 C192 1.363 . S
N190 C192 1.356 . S
N190 H202 0.984 . S
N190 H203 0.985 . S
N191 C193 1.356 . S
N191 H196 0.984 . S
N191 H197 0.985 . S
C192 C186 1.379 . S
C192 C189 1.363 . S
C192 N190 1.356 . S
C193 C187 1.363 . S
C193 C188 1.379 . S
C193 N191 1.356 . S
N194 C186 1.356 . S
N194 H200 0.984 . S
N194 H201 0.984 . S
N195 C188 1.356 . S
N195 H198 0.984 . S
N195 H199 0.985 . S
H196 N191 0.984 . S
H197 N191 0.985 . S
H198 N195 0.984 . S
H199 N195 0.985 . S
H200 N194 0.984 . S
H201 N194 0.984 . S
H202 N190 0.984 . S
H203 N190 0.985 . S
C204 C205 1.363 . S
C204 C210 1.379 . S
C204 N212 1.356 . S
C205 C204 1.363 . S
C205 C211 1.363 . S
C206 C207 1.363 . S
C206 C211 1.379 . S
C206 N213 1.356 . S
C207 C206 1.363 . S
C207 C210 1.363 . S
N208 C210 1.356 . S
N208 H220 0.984 . S
N208 H221 0.985 . S
N209 C211 1.356 . S
N209 H214 0.984 . S
N209 H215 0.985 . S
C210 C204 1.379 . S
C210 C207 1.363 . S
C210 N208 1.356 . S
C211 C205 1.363 . S
C211 C206 1.379 . S
C211 N209 1.356 . S
N212 C204 1.356 . S
N212 H218 0.984 . S
N212 H219 0.984 . S
N213 C206 1.356 . S
N213 H216 0.984 . S
N213 H217 0.985 . S
H214 N209 0.984 . S
H215 N209 0.985 . S
H216 N213 0.984 . S
H217 N213 0.985 . S
H218 N212 0.984 . S
H219 N212 0.984 . S
H220 N208 0.984 . S
H221 N208 0.985 . S
C222 C223 1.363 . S
C222 C228 1.379 . S
C222 N230 1.356 . S
C223 C222 1.363 . S
C223 C229 1.363 . S
C224 C225 1.363 . S
C224 C229 1.379 . S
C224 N231 1.356 . S
C225 C224 1.363 . S
C225 C228 1.363 . S
N226 C228 1.356 . S
N226 H238 0.984 . S
N226 H239 0.985 . S
N227 C229 1.356 . S
N227 H232 0.984 . S
N227 H233 0.985 . S
C228 C222 1.379 . S
C228 C225 1.363 . S
C228 N226 1.356 . S
C229 C223 1.363 . S
C229 C224 1.379 . S
C229 N227 1.356 . S
N230 C222 1.356 . S
N230 H236 0.984 . S
N230 H237 0.984 . S
N231 C224 1.356 . S
N231 H234 0.984 . S
N231 H235 0.985 . S
H232 N227 0.984 . S
H233 N227 0.985 . S
H234 N231 0.984 . S
H235 N231 0.985 . S
H236 N230 0.984 . S
H237 N230 0.984 . S
H238 N226 0.984 . S
H239 N226 0.985 . S
C240 C241 1.363 . S
C240 C246 1.379 . S
C240 N248 1.356 . S
C241 C240 1.363 . S
C241 C247 1.363 . S
C242 C243 1.363 . S
C242 C247 1.379 . S
C242 N249 1.356 1_655 S
C243 C242 1.363 . S
C243 C246 1.363 . S
N244 C246 1.356 . S
N244 H256 0.984 . S
N244 H257 0.985 . S
N245 C247 1.356 . S
N245 H250 0.984 . S
N245 H251 0.985 . S
C246 C240 1.379 . S
C246 C243 1.363 . S
C246 N244 1.356 . S
C247 C241 1.363 . S
C247 C242 1.379 . S
C247 N245 1.356 . S
N248 C240 1.356 . S
N248 H254 0.984 . S
N248 H255 0.984 . S
N249 C242 1.356 1_455 S
N249 H252 0.984 . S
N249 H253 0.985 . S
H250 N245 0.984 . S
H251 N245 0.985 . S
H252 N249 0.984 . S
H253 N249 0.985 . S
H254 N248 0.984 . S
H255 N248 0.984 . S
H256 N244 0.984 . S
H257 N244 0.985 . S
C258 C259 1.363 . S
C258 C264 1.379 . S
C258 N266 1.356 . S
C259 C258 1.363 . S
C259 C265 1.363 . S
C260 C261 1.363 . S
C260 C265 1.379 . S
C260 N267 1.356 . S
C261 C260 1.363 . S
C261 C264 1.363 . S
N262 C264 1.356 . S
N262 H274 0.984 . S
N262 H275 0.985 . S
N263 C265 1.356 . S
N263 H268 0.984 . S
N263 H269 0.985 . S
C264 C258 1.379 . S
C264 C261 1.363 . S
C264 N262 1.356 . S
C265 C259 1.363 . S
C265 C260 1.379 . S
C265 N263 1.356 . S
N266 C258 1.356 . S
N266 H272 0.984 . S
N266 H273 0.984 . S
N267 C260 1.356 . S
N267 H270 0.984 . S
N267 H271 0.985 . S
H268 N263 0.984 . S
H269 N263 0.985 . S
H270 N267 0.984 . S
H271 N267 0.985 . S
H272 N266 0.984 . S
H273 N266 0.984 . S
H274 N262 0.984 . S
H275 N262 0.985 . S
C276 C277 1.363 . S
C276 C282 1.379 . S
C276 N284 1.356 . S
C277 C276 1.363 . S
C277 C283 1.363 . S
C278 C279 1.363 . S
C278 C283 1.379 . S
C278 N285 1.356 . S
C279 C278 1.363 . S
C279 C282 1.363 . S
N280 C282 1.356 . S
N280 H292 0.984 . S
N280 H293 0.985 . S
N281 C283 1.356 . S
N281 H286 0.984 . S
N281 H287 0.985 . S
C282 C276 1.379 . S
C282 C279 1.363 . S
C282 N280 1.356 . S
C283 C277 1.363 . S
C283 C278 1.379 . S
C283 N281 1.356 . S
N284 C276 1.356 . S
N284 H290 0.984 . S
N284 H291 0.984 . S
N285 C278 1.356 . S
N285 H288 0.984 . S
N285 H289 0.985 . S
H286 N281 0.984 . S
H287 N281 0.985 . S
H288 N285 0.984 . S
H289 N285 0.985 . S
H290 N284 0.984 . S
H291 N284 0.984 . S
H292 N280 0.984 . S
H293 N280 0.985 . S
C294 C295 1.363 . S
C294 C300 1.379 . S
C294 N302 1.356 . S
C295 C294 1.363 . S
C295 C301 1.363 . S
C296 C297 1.363 . S
C296 C301 1.379 . S
C296 N303 1.356 . S
C297 C296 1.363 . S
C297 C300 1.363 . S
N298 C300 1.356 . S
N298 H310 0.984 . S
N298 H311 0.985 . S
N299 C301 1.356 . S
N299 H304 0.984 . S
N299 H305 0.985 . S
C300 C294 1.379 . S
C300 C297 1.363 . S
C300 N298 1.356 . S
C301 C295 1.363 . S
C301 C296 1.379 . S
C301 N299 1.356 . S
N302 C294 1.356 . S
N302 H308 0.984 . S
N302 H309 0.984 . S
N303 C296 1.356 . S
N303 H306 0.984 . S
N303 H307 0.985 . S
H304 N299 0.984 . S
H305 N299 0.985 . S
H306 N303 0.984 . S
H307 N303 0.985 . S
H308 N302 0.984 . S
H309 N302 0.984 . S
H310 N298 0.984 . S
H311 N298 0.985 . S
C312 C313 1.363 . S
C312 C318 1.379 . S
C312 N320 1.356 . S
C313 C312 1.363 . S
C313 C319 1.363 . S
C314 C315 1.363 . S
C314 C319 1.379 . S
C314 N321 1.356 . S
C315 C314 1.363 . S
C315 C318 1.363 . S
N316 C318 1.356 . S
N316 H328 0.984 . S
N316 H329 0.985 . S
N317 C319 1.356 . S
N317 H322 0.984 . S
N317 H323 0.985 . S
C318 C312 1.379 . S
C318 C315 1.363 . S
C318 N316 1.356 . S
C319 C313 1.363 . S
C319 C314 1.379 . S
C319 N317 1.356 . S
N320 C312 1.356 . S
N320 H326 0.984 . S
N320 H327 0.984 . S
N321 C314 1.356 . S
N321 H324 0.984 . S
N321 H325 0.985 . S
H322 N317 0.984 . S
H323 N317 0.985 . S
H324 N321 0.984 . S
H325 N321 0.985 . S
H326 N320 0.984 . S
H327 N320 0.984 . S
H328 N316 0.984 . S
H329 N316 0.985 . S
C330 C331 1.363 . S
C330 C336 1.379 1_554 S
C330 N338 1.356 . S
C331 C330 1.363 . S
C331 C337 1.363 . S
C332 C333 1.378 . S
C332 C337 1.357 1_556 S
C332 N339 1.369 . S
C333 C332 1.378 . S
C333 C336 1.363 . S
N334 C336 1.356 . S
N334 H346 0.984 . S
N334 H347 0.985 . S
N335 C337 1.356 . S
N335 H340 0.984 . S
N335 H341 0.985 . S
C336 C330 1.379 1_556 S
C336 C333 1.363 . S
C336 N334 1.356 . S
C337 C331 1.363 . S
C337 C332 1.357 1_554 S
C337 N335 1.356 . S
N338 C330 1.356 . S
N338 H344 0.984 . S
N338 H345 0.984 . S
N339 C332 1.369 . S
N339 H342 0.984 . S
N339 H343 0.985 . S
H340 N335 0.984 . S
H341 N335 0.985 . S
H342 N339 0.984 . S
H343 N339 0.985 . S
H344 N338 0.984 . S
H345 N338 0.984 . S
H346 N334 0.984 . S
H347 N334 0.985 . S
C348 C349 1.363 . S
C348 C354 1.379 . S
C348 N356 1.356 . S
C349 C348 1.363 . S
C349 C355 1.363 1_545 S
C350 C351 1.363 1_565 S
C350 C355 1.379 . S
C350 N357 1.356 . S
C351 C350 1.363 1_545 S
C351 C354 1.363 . S
N352 C354 1.356 . S
N352 H364 0.984 . S
N352 H365 0.985 . S
N353 C355 1.356 . S
N353 H358 0.984 . S
N353 H359 0.985 . S
C354 C348 1.379 . S
C354 C351 1.363 . S
C354 N352 1.356 . S
C355 C349 1.363 1_565 S
C355 C350 1.379 . S
C355 N353 1.356 . S
N356 C348 1.356 . S
N356 H362 0.984 . S
N356 H363 0.984 . S
N357 C350 1.356 . S
N357 H360 0.984 . S
N357 H361 0.985 . S
H358 N353 0.984 . S
H359 N353 0.985 . S
H360 N357 0.984 . S
H361 N357 0.985 . S
H362 N356 0.984 . S
H363 N356 0.984 . S
H364 N352 0.984 . S
H365 N352 0.985 . S
C366 C367 1.363 . S
C366 C372 1.379 . S
C366 N374 1.356 . S
C367 C366 1.363 . S
C367 C373 1.363 . S
C368 C369 1.363 . S
C368 C373 1.379 . S
C368 N375 1.356 . S
C369 C368 1.363 . S
C369 C372 1.363 . S
N370 C372 1.356 . S
N370 H382 0.984 . S
N370 H383 0.985 . S
N371 C373 1.356 . S
N371 H376 0.984 . S
N371 H377 0.985 . S
C372 C366 1.379 . S
C372 C369 1.363 . S
C372 N370 1.356 . S
C373 C367 1.363 . S
C373 C368 1.379 . S
C373 N371 1.356 . S
N374 C366 1.356 . S
N374 H380 0.984 . S
N374 H381 0.984 . S
N375 C368 1.356 . S
N375 H378 0.984 . S
N375 H379 0.985 . S
H376 N371 0.984 . S
H377 N371 0.985 . S
H378 N375 0.984 . S
H379 N375 0.985 . S
H380 N374 0.984 . S
H381 N374 0.984 . S
H382 N370 0.984 . S
H383 N370 0.985 . S
C384 C385 1.363 1_565 S
C384 C390 1.379 . S
C384 N392 1.356 . S
C385 C384 1.363 1_545 S
C385 C391 1.363 . S
C386 C387 1.363 . S
C386 C391 1.379 . S
C386 N393 1.356 . S
C387 C386 1.363 . S
C387 C390 1.363 1_545 S
N388 C390 1.356 . S
N388 H400 0.984 . S
N388 H401 0.985 . S
N389 C391 1.356 . S
N389 H394 0.984 . S
N389 H395 0.985 . S
C390 C384 1.379 . S
C390 C387 1.363 1_565 S
C390 N388 1.356 . S
C391 C385 1.363 . S
C391 C386 1.379 . S
C391 N389 1.356 . S
N392 C384 1.356 . S
N392 H398 0.984 . S
N392 H399 0.984 . S
N393 C386 1.356 . S
N393 H396 0.984 . S
N393 H397 0.985 . S
H394 N389 0.984 . S
H395 N389 0.985 . S
H396 N393 0.984 . S
H397 N393 0.985 . S
H398 N392 0.984 . S
H399 N392 0.984 . S
H400 N388 0.984 . S
H401 N388 0.985 . S
C402 C403 1.363 . S
C402 C408 1.379 1_556 S
C402 N410 1.356 . S
C403 C402 1.363 . S
C403 C409 1.363 . S
C404 C405 1.363 1_556 S
C404 C409 1.379 . S
C404 N411 1.356 1_556 S
C405 C404 1.363 1_554 S
C405 C408 1.363 . S
N406 C408 1.356 . S
N406 H418 0.984 . S
N406 H419 0.985 . S
N407 C409 1.356 . S
N407 H412 0.984 . S
N407 H413 0.985 . S
C408 C402 1.379 1_554 S
C408 C405 1.363 . S
C408 N406 1.356 . S
C409 C403 1.363 . S
C409 C404 1.379 . S
C409 N407 1.356 . S
N410 C402 1.356 . S
N410 H416 0.984 . S
N410 H417 0.984 . S
N411 C404 1.356 1_554 S
N411 H414 0.984 . S
N411 H415 0.985 . S
H412 N407 0.984 . S
H413 N407 0.985 . S
H414 N411 0.984 . S
H415 N411 0.985 . S
H416 N410 0.984 . S
H417 N410 0.984 . S
H418 N406 0.984 . S
H419 N406 0.985 . S
C420 C421 1.363 1_655 S
C420 C426 1.379 . S
C420 N428 1.356 . S
C421 C420 1.363 1_455 S
C421 C427 1.363 . S
C422 C423 1.360 1_455 S
C422 C427 1.379 . S
C422 N429 1.356 . S
C423 C422 1.360 1_655 S
C423 C426 1.365 . S
N424 C426 1.356 . S
N424 H436 0.984 . S
N424 H437 0.985 . S
N425 C427 1.356 . S
N425 H430 0.984 . S
N425 H431 0.985 . S
C426 C420 1.379 . S
C426 C423 1.365 . S
C426 N424 1.356 . S
C427 C421 1.363 . S
C427 C422 1.379 . S
C427 N425 1.356 . S
N428 C420 1.356 . S
N428 H434 0.984 . S
N428 H435 0.984 . S
N429 C422 1.356 . S
N429 H432 0.984 . S
N429 H433 0.985 . S
H430 N425 0.984 . S
H431 N425 0.985 . S
H432 N429 0.984 . S
H433 N429 0.985 . S
H434 N428 0.984 . S
H435 N428 0.984 . S
H436 N424 0.984 . S
H437 N424 0.985 . S
C115 C8 1.879 . S
C117 C109 1.926 . S
C133 C26 1.358 . S
C135 C91 1.392 . S
C151 C48 1.476 . S
C153 C103 1.524 . S
C169 C19 1.789 . S
C171 C112 1.869 . S
C189 C94 1.432 . S
C187 C36 1.388 . S
C207 C100 1.649 . S
C205 C59 1.542 . S
C223 C28 1.496 . S
C225 C73 1.542 . S
C241 C46 1.147 . S
C243 C82 1.190 1_655 S
C259 C16 1.428 . S
C261 C64 1.473 . S
C279 C76 1.613 . S
C277 C39 1.535 . S
C297 C85 1.091 . S
C295 C56 1.039 . S
C313 C6 1.432 . S
C315 C67 1.449 . S
C333 C83 1.452 . S
C331 C9 1.408 . S
C349 C21 1.488 . S
C351 C65 1.510 . S
C367 C49 1.465 . S
C369 C74 1.486 . S
C387 C101 1.470 . S
C385 C29 1.455 . S
C405 C110 1.585 . S
C403 C41 1.564 . S
C421 C1 1.492 . S
C423 C92 1.511 . S
