# Generated by pormake.
# Topology zzz, (3,6)-cn, num edge types: 1
# Building blocks:
#     Node 0, Type 0, BuildingBlock: BETDAH_clean_linker_0, # of connection points: 3
#     Node 1, Type 0, BuildingBlock: BETDAH_clean_linker_0, # of connection points: 3
#     Node 2, Type 0, BuildingBlock: BETDAH_clean_linker_0, # of connection points: 3
#     Node 3, Type 0, BuildingBlock: BETDAH_clean_linker_0, # of connection points: 3
#     Node 4, Type 0, BuildingBlock: BETDAH_clean_linker_0, # of connection points: 3
#     Node 5, Type 0, BuildingBlock: BETDAH_clean_linker_0, # of connection points: 3
#     Node 6, Type 0, BuildingBlock: BETDAH_clean_linker_0, # of connection points: 3
#     Node 7, Type 0, BuildingBlock: BETDAH_clean_linker_0, # of connection points: 3
#     Node 8, Type 1, BuildingBlock: CUKXOW_clean_sbu_0, # of connection points: 6
#     Node 9, Type 1, BuildingBlock: CUKXOW_clean_sbu_0, # of connection points: 6
#     Node 10, Type 1, BuildingBlock: CUKXOW_clean_sbu_0, # of connection points: 6
#     Node 11, Type 1, BuildingBlock: CUKXOW_clean_sbu_0, # of connection points: 6
#     Edge 12, Type (0, 1), BuildingBlock: MIFKUJ_clean_linker_0, # of connection points: 2
#     Edge 13, Type (0, 1), BuildingBlock: MIFKUJ_clean_linker_0, # of connection points: 2
#     Edge 14, Type (0, 1), BuildingBlock: MIFKUJ_clean_linker_0, # of connection points: 2
#     Edge 15, Type (0, 1), BuildingBlock: MIFKUJ_clean_linker_0, # of connection points: 2
#     Edge 16, Type (0, 1), BuildingBlock: MIFKUJ_clean_linker_0, # of connection points: 2
#     Edge 17, Type (0, 1), BuildingBlock: MIFKUJ_clean_linker_0, # of connection points: 2
#     Edge 18, Type (0, 1), BuildingBlock: MIFKUJ_clean_linker_0, # of connection points: 2
#     Edge 19, Type (0, 1), BuildingBlock: MIFKUJ_clean_linker_0, # of connection points: 2
#     Edge 20, Type (0, 1), BuildingBlock: MIFKUJ_clean_linker_0, # of connection points: 2
#     Edge 21, Type (0, 1), BuildingBlock: MIFKUJ_clean_linker_0, # of connection points: 2
#     Edge 22, Type (0, 1), BuildingBlock: MIFKUJ_clean_linker_0, # of connection points: 2
#     Edge 23, Type (0, 1), BuildingBlock: MIFKUJ_clean_linker_0, # of connection points: 2
#     Edge 24, Type (0, 1), BuildingBlock: MIFKUJ_clean_linker_0, # of connection points: 2
#     Edge 25, Type (0, 1), BuildingBlock: MIFKUJ_clean_linker_0, # of connection points: 2
#     Edge 26, Type (0, 1), BuildingBlock: MIFKUJ_clean_linker_0, # of connection points: 2
#     Edge 27, Type (0, 1), BuildingBlock: MIFKUJ_clean_linker_0, # of connection points: 2
#     Edge 28, Type (0, 1), BuildingBlock: MIFKUJ_clean_linker_0, # of connection points: 2
#     Edge 29, Type (0, 1), BuildingBlock: MIFKUJ_clean_linker_0, # of connection points: 2
#     Edge 30, Type (0, 1), BuildingBlock: MIFKUJ_clean_linker_0, # of connection points: 2
#     Edge 31, Type (0, 1), BuildingBlock: MIFKUJ_clean_linker_0, # of connection points: 2
#     Edge 32, Type (0, 1), BuildingBlock: MIFKUJ_clean_linker_0, # of connection points: 2
#     Edge 33, Type (0, 1), BuildingBlock: MIFKUJ_clean_linker_0, # of connection points: 2
#     Edge 34, Type (0, 1), BuildingBlock: MIFKUJ_clean_linker_0, # of connection points: 2
#     Edge 35, Type (0, 1), BuildingBlock: MIFKUJ_clean_linker_0, # of connection points: 2
# Relax obj value: 0.071
# Max RMSD: 0.117
# Mean RMSD: 0.084
data_MOF--net-zzz--node1-CUKXOW_clean_sbu_0--node2-BETDAH_clean_linker_0--edge1-MIFKUJ_clean_linker_0
_symmetry_space_group_name_H-M    P1
_symmetry_Int_Tables_number       1
_symmetry_cell_setting            triclinic
loop_
_symmetry_equiv_pos_as_xyz
'x, y, z'
_cell_length_a     66.010343
_cell_length_b     67.935356
_cell_length_c     20.183307
_cell_angle_alpha  92.842101
_cell_angle_beta   87.011927
_cell_angle_gamma 93.809953
loop_
_atom_site_label
_atom_site_type_symbol
_atom_site_fract_x
_atom_site_fract_y
_atom_site_fract_z
_atom_type_partial_charge
H0 H 0.81717 0.5525 0.11602 0.0
H1 H 0.76063 0.53331 0.03066 0.0
H2 H 0.76354 0.54288 0.24278 0.0
C3 C 0.80089 0.54928 0.12195 0.0
C4 C 0.79167 0.54879 0.18592 0.0
C5 C 0.78991 0.54353 0.06591 0.0
C6 C 0.76904 0.53815 0.07381 0.0
C7 C 0.75938 0.53846 0.13792 0.0
C8 C 0.77085 0.54346 0.19349 0.0
N9 N 0.73842 0.53298 0.14893 0.0
C10 C 0.72468 0.5306 0.09905 0.0
H11 H 0.96283 0.81951 0.04231 0.0
H12 H 0.96798 0.76162 0.95013 0.0
H13 H 0.94451 0.76846 0.15322 0.0
C14 C 0.96044 0.80358 0.04474 0.0
C15 C 0.95267 0.79545 0.10376 0.0
C16 C 0.96614 0.79152 0.98967 0.0
C17 C 0.96354 0.77092 0.99287 0.0
C18 C 0.95556 0.76255 0.05224 0.0
C19 C 0.95025 0.7749 0.10731 0.0
N20 N 0.95297 0.74186 0.0592 0.0
C21 C 0.96074 0.72786 0.01415 0.0
H22 H 0.67563 0.96738 0.04456 0.0
H23 H 0.73669 0.95935 0.96967 0.0
H24 H 0.72123 0.95598 0.1796 0.0
C25 C 0.69118 0.96439 0.05366 0.0
C26 C 0.6967 0.9621 0.11858 0.0
C27 C 0.70545 0.96346 0.00018 0.0
C28 C 0.72563 0.95981 0.01118 0.0
C29 C 0.73132 0.95689 0.07632 0.0
C30 C 0.71671 0.95776 0.12949 0.0
N31 N 0.7516 0.95352 0.09052 0.0
C32 C 0.76842 0.95836 0.0488 0.0
H33 H 0.54019 0.6951 0.09796 0.0
H34 H 0.55982 0.74484 0.98155 0.0
H35 H 0.58501 0.73808 0.17151 0.0
C36 C 0.54904 0.709 0.09247 0.0
C37 C 0.56231 0.71557 0.14163 0.0
C38 C 0.54829 0.71917 0.03405 0.0
C39 C 0.56018 0.73697 0.02682 0.0
C40 C 0.57307 0.74412 0.07754 0.0
C41 C 0.57457 0.73299 0.13366 0.0
N42 N 0.58525 0.76204 0.07258 0.0
C43 C 0.57935 0.77825 0.04075 0.0
H44 H 0.19598 0.49818 0.26861 0.0
H45 H 0.25039 0.48268 0.35486 0.0
H46 H 0.24589 0.47871 0.14225 0.0
C47 C 0.21149 0.49383 0.26215 0.0
C48 C 0.21966 0.48914 0.19835 0.0
C49 C 0.22237 0.49143 0.31852 0.0
C50 C 0.24211 0.48491 0.31117 0.0
C51 C 0.25074 0.48067 0.24703 0.0
C52 C 0.23932 0.48243 0.19124 0.0
N53 N 0.27057 0.47396 0.2368 0.0
C54 C 0.28581 0.47816 0.28109 0.0
H55 H 0.04776 0.18657 0.31104 0.0
H56 H 0.05538 0.24149 0.42498 0.0
H57 H 0.07727 0.2373 0.21981 0.0
C58 C 0.05316 0.20201 0.3144 0.0
C59 C 0.06291 0.21062 0.25891 0.0
C60 C 0.05032 0.21303 0.37418 0.0
C61 C 0.0573 0.23301 0.37845 0.0
C62 C 0.06701 0.24183 0.32234 0.0
C63 C 0.06986 0.23052 0.26296 0.0
N64 N 0.07429 0.26192 0.32409 0.0
C65 C 0.06534 0.27648 0.36398 0.0
H66 H 0.32653 0.03638 0.29189 0.0
H67 H 0.27059 0.05364 0.38872 0.0
H68 H 0.28077 0.05844 0.17679 0.0
C69 C 0.31151 0.0418 0.28887 0.0
C70 C 0.30498 0.04674 0.22746 0.0
C71 C 0.29935 0.04448 0.34694 0.0
C72 C 0.27997 0.05154 0.34359 0.0
C73 C 0.27311 0.05642 0.28169 0.0
C74 C 0.28591 0.05446 0.22419 0.0
N75 N 0.25362 0.06359 0.27557 0.0
C76 C 0.23715 0.05959 0.31966 0.0
H77 H 0.44908 0.32864 0.29772 0.0
H78 H 0.45331 0.2711 0.37323 0.0
H79 H 0.43796 0.27701 0.17029 0.0
C80 C 0.44722 0.31269 0.29085 0.0
C81 C 0.44274 0.30427 0.22829 0.0
C82 C 0.45116 0.30087 0.34307 0.0
C83 C 0.44996 0.28021 0.33313 0.0
C84 C 0.44464 0.27153 0.27087 0.0
C85 C 0.44134 0.28367 0.21872 0.0
N86 N 0.44293 0.25078 0.25782 0.0
C87 C 0.44641 0.23675 0.303 0.0
Tb88 Tb 0.9991 0.99174 0.62212 0.0
C89 C 0.04589 0.00461 0.64201 0.0
Tb90 Tb 0.01133 0.01446 0.75105 0.0
O91 O 0.98754 0.01858 0.58465 0.0
O92 O 0.01083 0.02025 0.65011 0.0
O93 O 0.0324 0.99345 0.60751 0.0
C94 C 0.01617 0.04539 0.83604 0.0
O95 O 0.04059 0.01568 0.6955 0.0
C96 C 0.01269 0.97607 0.75283 0.0
C97 C 0.96477 1.00036 0.73279 0.0
O98 O 0.02526 0.02905 0.83813 0.0
O99 O 0.00408 0.04408 0.78721 0.0
O100 O 0.0222 0.98833 0.79404 0.0
O101 O 0.00048 0.98553 0.72304 0.0
O102 O 0.97801 0.01239 0.76535 0.0
O103 O 0.97037 0.98902 0.68033 0.0
C104 C 0.99368 0.96291 0.52933 0.0
O105 O 0.98513 0.97961 0.53129 0.0
O106 O 0.00541 0.9627 0.57864 0.0
C107 C 0.99889 0.03033 0.62214 0.0
Tb108 Tb 0.50226 0.02597 0.65153 0.0
C109 C 0.52746 0.99412 0.5757 0.0
Tb110 Tb 0.50431 0.98575 0.71542 0.0
O111 O 0.53493 0.03195 0.65991 0.0
O112 O 0.51824 0.01449 0.72794 0.0
O113 O 0.5168 0.00975 0.56847 0.0
C114 C 0.51716 0.95411 0.76967 0.0
O115 O 0.52632 0.9842 0.63103 0.0
C116 C 0.47091 0.98991 0.65484 0.0
C117 C 0.47776 0.01715 0.78883 0.0
O118 O 0.50902 0.95414 0.71252 0.0
O119 O 0.51792 0.97188 0.79668 0.0
O120 O 0.4721 0.97783 0.70224 0.0
O121 O 0.48851 0.99704 0.63852 0.0
O122 O 0.48787 0.00118 0.79583 0.0
O123 O 0.47996 0.02783 0.73521 0.0
C124 C 0.49268 0.05977 0.60246 0.0
O125 O 0.48676 0.04221 0.57998 0.0
O126 O 0.50401 0.05828 0.65233 0.0
C127 C 0.53597 0.02068 0.70949 0.0
Tb128 Tb 0.51734 0.52023 0.61951 0.0
C129 C 0.46982 0.50784 0.62391 0.0
Tb130 Tb 0.49821 0.49562 0.73339 0.0
O131 O 0.53024 0.4943 0.56799 0.0
O132 O 0.50451 0.49122 0.63071 0.0
O133 O 0.48492 0.51985 0.60011 0.0
C134 C 0.4882 0.46511 0.80945 0.0
O135 O 0.47241 0.49512 0.67025 0.0
C136 C 0.4975 0.53404 0.75301 0.0
C137 C 0.54563 0.50827 0.72996 0.0
O138 O 0.48047 0.48221 0.81648 0.0
O139 O 0.50163 0.46532 0.76032 0.0
O140 O 0.48466 0.52153 0.78223 0.0
O141 O 0.51116 0.52465 0.72249 0.0
O142 O 0.53059 0.49616 0.75361 0.0
O143 O 0.54295 0.52099 0.6837 0.0
C144 C 0.52732 0.55042 0.54199 0.0
O145 O 0.53678 0.53426 0.54154 0.0
O146 O 0.51216 0.54947 0.58551 0.0
C147 C 0.51813 0.48186 0.60018 0.0
Tb148 Tb 0.98964 0.50256 0.62602 0.0
C149 C 0.00295 0.45998 0.6477 0.0
Tb150 Tb 0.01576 0.49705 0.74457 0.0
O151 O 0.01565 0.49693 0.55734 0.0
O152 O 0.01992 0.5101 0.65186 0.0
O153 O 0.99089 0.47071 0.61563 0.0
C154 C 0.04761 0.48926 0.81206 0.0
O155 O 0.01398 0.46729 0.69755 0.0
C156 C 0.97677 0.49635 0.77423 0.0
C157 C 0.00154 0.5389 0.72417 0.0
O158 O 0.04573 0.48548 0.74904 0.0
O159 O 0.03163 0.49759 0.83719 0.0
O160 O 0.9904 0.49964 0.8183 0.0
O161 O 0.98528 0.4905 0.72021 0.0
O162 O 0.01661 0.52913 0.74497 0.0
O163 O 0.9877 0.53039 0.68469 0.0
C164 C 0.95978 0.51008 0.54915 0.0
O165 O 0.9773 0.51993 0.55092 0.0
O166 O 0.95923 0.49582 0.58972 0.0
C167 C 0.02886 0.50314 0.60041 0.0
H168 H 0.23426 0.04434 0.44138 0.0
H169 H 0.20272 0.03473 0.50532 0.0
H170 H 0.16756 0.05423 0.34926 0.0
H171 H 0.19906 0.06411 0.28625 0.0
H172 H 0.15109 0.06517 0.46766 0.0
H173 H 0.17545 0.00528 0.36341 0.0
H174 H 0.20045 0.9803 0.33651 0.0
H175 H 0.20244 0.96887 0.54334 0.0
H176 H 0.17764 0.99398 0.57154 0.0
H177 H 0.05982 0.99994 0.51277 0.0
H178 H 0.09414 0.00883 0.4668 0.0
H179 H 0.11412 0.02374 0.66396 0.0
H180 H 0.07969 0.01554 0.71031 0.0
H181 H 0.13854 0.99572 0.53286 0.0
H182 H 0.11684 0.05958 0.63549 0.0
H183 H 0.09001 0.08295 0.65827 0.0
H184 H 0.08212 0.08563 0.44918 0.0
H185 H 0.10858 0.0618 0.42531 0.0
C186 C 0.21974 0.04669 0.42137 0.0
C187 C 0.21886 0.0549 0.35936 0.0
C188 C 0.20178 0.04115 0.45758 0.0
C189 C 0.18275 0.04357 0.43174 0.0
C190 C 0.18203 0.05224 0.37024 0.0
C191 C 0.19997 0.05782 0.33425 0.0
C192 C 0.16358 0.03659 0.46752 0.0
C193 C 0.14843 0.04999 0.48186 0.0
C194 C 0.16003 0.0168 0.48652 0.0
C195 C 0.17487 0.00165 0.46963 0.0
C196 C 0.18134 0.99754 0.40319 0.0
C197 C 0.19545 0.98335 0.3877 0.0
C198 C 0.20308 0.97305 0.43821 0.0
C199 C 0.19655 0.97688 0.50429 0.0
C200 C 0.18246 0.99108 0.52005 0.0
C201 C 0.07159 0.00482 0.54644 0.0
C202 C 0.06708 0.00716 0.61509 0.0
C203 C 0.09113 0.00993 0.52009 0.0
C204 C 0.10648 0.0171 0.56208 0.0
C205 C 0.10235 0.01839 0.63088 0.0
C206 C 0.08272 0.0137 0.65718 0.0
C207 C 0.12645 0.02435 0.53334 0.0
C208 C 0.14152 0.01097 0.51962 0.0
C209 C 0.12997 0.0441 0.51487 0.0
C210 C 0.11443 0.05872 0.52873 0.0
C211 C 0.10921 0.06498 0.59444 0.0
C212 C 0.09411 0.07832 0.60755 0.0
C213 C 0.08431 0.0857 0.55524 0.0
C214 C 0.08967 0.07982 0.48965 0.0
C215 C 0.1047 0.06638 0.47631 0.0
H216 H 0.07261 0.09599 0.56562 0.0
H217 H 0.214 0.96206 0.42612 0.0
H218 H 0.47661 0.23403 0.38687 0.0
H219 H 0.48385 0.20463 0.44567 0.0
H220 H 0.43118 0.17305 0.36423 0.0
H221 H 0.42384 0.20253 0.30663 0.0
H222 H 0.43412 0.16408 0.48978 0.0
H223 H 0.47864 0.16691 0.29545 0.0
H224 H 0.50447 0.18172 0.21696 0.0
H225 H 0.54759 0.18773 0.36993 0.0
H226 H 0.5219 0.17319 0.44966 0.0
H227 H 0.46356 0.06511 0.51533 0.0
H228 H 0.4549 0.09639 0.47142 0.0
H229 H 0.50156 0.12765 0.58464 0.0
H230 H 0.51003 0.0965 0.62957 0.0
H231 H 0.50184 0.13706 0.44706 0.0
H232 H 0.4559 0.13196 0.63978 0.0
H233 H 0.42957 0.11514 0.71182 0.0
H234 H 0.38841 0.11121 0.55315 0.0
H235 H 0.41461 0.12779 0.47981 0.0
C236 C 0.4665 0.22084 0.38255 0.0
C237 C 0.44971 0.22033 0.34273 0.0
C238 C 0.47067 0.20406 0.41569 0.0
C239 C 0.4582 0.18653 0.40865 0.0
C240 C 0.441 0.18637 0.37044 0.0
C241 C 0.43683 0.20315 0.33755 0.0
C242 C 0.46349 0.16812 0.43868 0.0
C243 C 0.44887 0.15811 0.47996 0.0
C244 C 0.4828 0.16037 0.4264 0.0
C245 C 0.49827 0.16919 0.37872 0.0
C246 C 0.49357 0.17156 0.31252 0.0
C247 C 0.5082 0.17987 0.26778 0.0
C248 C 0.52764 0.18573 0.28851 0.0
C249 C 0.53251 0.18323 0.354 0.0
C250 C 0.51793 0.17495 0.39898 0.0
C251 C 0.47192 0.07868 0.53084 0.0
C252 C 0.48744 0.07847 0.57575 0.0
C253 C 0.46693 0.0965 0.50595 0.0
C254 C 0.47756 0.1143 0.52507 0.0
C255 C 0.4932 0.11406 0.5694 0.0
C256 C 0.49797 0.0963 0.59508 0.0
C257 C 0.47252 0.13315 0.49811 0.0
C258 C 0.48717 0.14318 0.4572 0.0
C259 C 0.45315 0.14072 0.50991 0.0
C260 C 0.43729 0.13095 0.55411 0.0
C261 C 0.44129 0.12737 0.62007 0.0
C262 C 0.42638 0.11791 0.66118 0.0
C263 C 0.40734 0.11206 0.63703 0.0
C264 C 0.40317 0.11573 0.57177 0.0
C265 C 0.41804 0.12518 0.53043 0.0
H266 H 0.39582 0.10473 0.66892 0.0
H267 H 0.53895 0.19215 0.25378 0.0
H268 H 0.31781 0.50273 0.24982 0.0
H269 H 0.34833 0.50978 0.31335 0.0
H270 H 0.32294 0.47139 0.46487 0.0
H271 H 0.29222 0.46451 0.40124 0.0
H272 H 0.34184 0.50551 0.51795 0.0
H273 H 0.35735 0.45466 0.35352 0.0
H274 H 0.36003 0.43899 0.24084 0.0
H275 H 0.4014 0.48664 0.17763 0.0
H276 H 0.39874 0.50275 0.28977 0.0
H277 H 0.43449 0.48773 0.66483 0.0
H278 H 0.40213 0.48517 0.6108 0.0
H279 H 0.42742 0.52402 0.46074 0.0
H280 H 0.45993 0.52664 0.51424 0.0
H281 H 0.40835 0.49024 0.40805 0.0
H282 H 0.39358 0.54049 0.57516 0.0
H283 H 0.39111 0.55549 0.6888 0.0
H284 H 0.34863 0.50826 0.7483 0.0
H285 H 0.35108 0.49281 0.63517 0.0
C286 C 0.31876 0.49597 0.297 0.0
C287 C 0.30296 0.48308 0.32105 0.0
C288 C 0.33615 0.49993 0.33305 0.0
C289 C 0.33798 0.4909 0.39336 0.0
C290 C 0.32181 0.47846 0.41839 0.0
C291 C 0.30438 0.47451 0.38218 0.0
C292 C 0.35708 0.49395 0.42886 0.0
C293 C 0.35636 0.50196 0.4943 0.0
C294 C 0.37605 0.48965 0.39739 0.0
C295 C 0.37767 0.48001 0.32987 0.0
C296 C 0.36688 0.46189 0.31544 0.0
C297 C 0.36842 0.45291 0.2517 0.0
C298 C 0.38083 0.46184 0.20206 0.0
C299 C 0.39176 0.47976 0.21611 0.0
C300 C 0.39025 0.48881 0.27976 0.0
C301 C 0.43317 0.49586 0.6206 0.0
C302 C 0.44985 0.50733 0.59368 0.0
C303 C 0.41461 0.49445 0.59001 0.0
C304 C 0.41237 0.50449 0.53203 0.0
C305 C 0.42887 0.51617 0.50554 0.0
C306 C 0.44742 0.51769 0.5363 0.0
C307 C 0.39316 0.50191 0.49705 0.0
C308 C 0.39385 0.49389 0.43167 0.0
C309 C 0.3742 0.50612 0.52875 0.0
C310 C 0.37267 0.51539 0.59682 0.0
C311 C 0.38385 0.53321 0.6126 0.0
C312 C 0.38243 0.54181 0.67691 0.0
C313 C 0.36977 0.53281 0.72579 0.0
C314 C 0.35846 0.5152 0.71041 0.0
C315 C 0.35984 0.50653 0.64618 0.0
H316 H 0.36868 0.53949 0.77554 0.0
H317 H 0.38202 0.45486 0.15275 0.0
H318 H 0.04138 0.30111 0.31119 0.0
H319 H 0.02778 0.33092 0.36506 0.0
H320 H 0.05538 0.31883 0.54676 0.0
H321 H 0.06887 0.2888 0.49262 0.0
H322 H 0.01686 0.33214 0.56977 0.0
H323 H 0.07849 0.35171 0.4487 0.0
H324 H 0.10266 0.35395 0.35163 0.0
H325 H 0.05916 0.38266 0.24549 0.0
H326 H 0.03459 0.38032 0.34164 0.0
H327 H 0.02053 0.43133 0.71139 0.0
H328 H 0.02755 0.39815 0.66765 0.0
H329 H 0.99786 0.40844 0.48836 0.0
H330 H 0.99067 0.44162 0.53166 0.0
H331 H 0.0369 0.3957 0.46604 0.0
H332 H 0.97561 0.37694 0.59154 0.0
H333 H 0.9525 0.37537 0.69134 0.0
H334 H 0.9966 0.34595 0.79251 0.0
H335 H 0.02013 0.34761 0.69357 0.0
C336 C 0.0443 0.30477 0.36285 0.0
C337 C 0.0561 0.29293 0.39813 0.0
C338 C 0.03662 0.32177 0.39345 0.0
C339 C 0.0408 0.3272 0.45963 0.0
C340 C 0.05202 0.3149 0.49566 0.0
C341 C 0.05973 0.29785 0.46487 0.0
C342 C 0.03421 0.34619 0.48986 0.0
C343 C 0.02141 0.34607 0.54762 0.0
C344 C 0.03993 0.36432 0.46025 0.0
C345 C 0.05461 0.36563 0.40212 0.0
C346 C 0.074 0.35832 0.40442 0.0
C347 C 0.08778 0.35964 0.34961 0.0
C348 C 0.08242 0.36838 0.29235 0.0
C349 C 0.06327 0.37585 0.28983 0.0
C350 C 0.04941 0.37454 0.34448 0.0
C351 C 0.01521 0.42646 0.66304 0.0
C352 C 0.00508 0.43915 0.62492 0.0
C353 C 0.01918 0.40746 0.63828 0.0
C354 C 0.01318 0.40087 0.57488 0.0
C355 C 0.00257 0.41328 0.53748 0.0
C356 C 0.99842 0.4322 0.56244 0.0
C357 C 0.01936 0.38166 0.54552 0.0
C358 C 0.03223 0.38176 0.48803 0.0
C359 C 0.01383 0.36361 0.57575 0.0
C360 C 0.99972 0.36258 0.63533 0.0
C361 C 0.98047 0.3703 0.63526 0.0
C362 C 0.96727 0.36936 0.69164 0.0
C363 C 0.9731 0.36061 0.74829 0.0
C364 C 0.99212 0.35275 0.74862 0.0
C365 C 0.00538 0.35367 0.69237 0.0
H366 H 0.96286 0.35989 0.79189 0.0
H367 H 0.09313 0.36941 0.25 0.0
H368 H 0.78342 0.93999 0.93683 0.0
H369 H 0.81602 0.94839 0.87709 0.0
H370 H 0.82753 0.99729 0.01788 0.0
H371 H 0.79483 0.98901 0.07677 0.0
H372 H 0.8385 0.00779 0.89442 0.0
H373 H 0.8496 0.95383 0.02977 0.0
H374 H 0.84365 0.92055 0.07325 0.0
H375 H 0.85539 0.89451 0.87795 0.0
H376 H 0.8611 0.92767 0.83308 0.0
H377 H 0.94648 0.02098 0.83743 0.0
H378 H 0.9119 0.01514 0.88538 0.0
H379 H 0.90035 0.96826 0.73757 0.0
H380 H 0.93478 0.97388 0.68951 0.0
H381 H 0.88915 0.95696 0.86211 0.0
H382 H 0.87921 0.0116 0.72809 0.0
H383 H 0.88633 0.04512 0.68748 0.0
H384 H 0.87348 0.07012 0.88354 0.0
H385 H 0.86657 0.03672 0.92555 0.0
C386 C 0.79291 0.9526 0.95436 0.0
C387 C 0.78686 0.96389 0.01101 0.0
C388 C 0.81152 0.95735 0.92057 0.0
C389 C 0.82435 0.97334 0.9435 0.0
C390 C 0.81791 0.98491 -0.00071 0.0
C391 C 0.79931 0.98017 0.03293 0.0
C392 C 0.84471 0.9777 0.91062 0.0
C393 C 0.84965 0.99673 0.88794 0.0
C394 C 0.85916 0.9632 0.90119 0.0
C395 C 0.85553 0.94324 0.92793 0.0
C396 C 0.85071 0.94101 0.99596 0.0
C397 C 0.84742 0.92217 0.02088 0.0
C398 C 0.84907 0.90543 0.97835 0.0
C399 C 0.85406 0.9075 0.91081 0.0
C400 C 0.85733 0.92631 0.88561 0.0
C401 C 0.93654 0.00953 0.81479 0.0
C402 C 0.94347 0.99787 0.7597 0.0
C403 C 0.91675 0.00626 0.84212 0.0
C404 C 0.90352 0.99131 0.81486 0.0
C405 C 0.91031 0.97986 0.75942 0.0
C406 C 0.93001 0.98316 0.73191 0.0
C407 C 0.88291 0.98699 0.84571 0.0
C408 C 0.87795 0.96798 0.86822 0.0
C409 C 0.86852 0.00154 0.85529 0.0
C410 C 0.87257 0.02164 0.83009 0.0
C411 C 0.87807 0.02424 0.76267 0.0
C412 C 0.88203 0.04322 0.73937 0.0
C413 C 0.88041 0.05973 0.78293 0.0
C414 C 0.87476 0.05731 0.84987 0.0
C415 C 0.8708 0.03836 0.87344 0.0
H416 H 0.88349 0.07442 0.7648 0.0
H417 H 0.84655 0.89085 0.99776 0.0
H418 H 0.58604 0.78983 0.91482 0.0
H419 H 0.57681 0.821 0.87123 0.0
H420 H 0.55097 0.83836 0.06459 0.0
H421 H 0.55995 0.80708 0.10754 0.0
H422 H 0.52629 0.84607 0.97405 0.0
H423 H 0.59651 0.86055 0.00606 0.0
H424 H 0.63343 0.85658 0.99864 0.0
H425 H 0.63364 0.85721 0.78597 0.0
H426 H 0.59666 0.86102 0.79212 0.0
H427 H 0.52585 0.94981 0.8985 0.0
H428 H 0.53734 0.92021 0.94686 0.0
H429 H 0.53745 0.8899 0.75409 0.0
H430 H 0.52533 0.91916 0.7059 0.0
H431 H 0.57564 0.89031 0.84871 0.0
H432 H 0.50242 0.87466 0.82626 0.0
H433 H 0.46657 0.88254 0.84493 0.0
H434 H 0.47387 0.88767 0.05539 0.0
H435 H 0.50988 0.88011 0.03777 0.0
C436 C 0.57835 0.80036 0.94763 0.0
C437 C 0.57357 0.79625 0.01415 0.0
C438 C 0.57324 0.81819 0.92302 0.0
C439 C 0.5634 0.83216 0.96484 0.0
C440 C 0.55856 0.82785 0.0314 0.0
C441 C 0.56366 0.81004 0.05588 0.0
C442 C 0.55756 0.85095 0.9387 0.0
C443 C 0.53719 0.85579 0.94728 0.0
C444 C 0.57169 0.86375 0.90374 0.0
C445 C 0.59378 0.8608 0.89952 0.0
C446 C 0.60439 0.85959 0.95767 0.0
C447 C 0.62534 0.85745 0.95371 0.0
C448 C 0.63586 0.85657 0.89186 0.0
C449 C 0.62546 0.85785 0.83383 0.0
C450 C 0.6045 0.86001 0.83752 0.0
C451 C 0.52834 0.93682 0.86658 0.0
C452 C 0.52461 0.93665 0.79867 0.0
C453 C 0.5349 0.92 0.89415 0.0
C454 C 0.53819 0.90298 0.85387 0.0
C455 C 0.53498 0.90295 0.78576 0.0
C456 C 0.52799 0.9196 0.75847 0.0
C457 C 0.54447 0.88497 0.88309 0.0
C458 C 0.56487 0.88043 0.87536 0.0
C459 C 0.53051 0.87267 0.92007 0.0
C460 C 0.50887 0.87708 0.93064 0.0
C461 C 0.49643 0.87768 0.87644 0.0
C462 C 0.47607 0.88204 0.88684 0.0
C463 C 0.46796 0.88567 0.9513 0.0
C464 C 0.48018 0.88489 0.00549 0.0
C465 C 0.50056 0.88056 0.99533 0.0
H466 H 0.4522 0.88903 0.95926 0.0
H467 H 0.65209 0.85495 0.8889 0.0
H468 H 0.71129 0.49728 0.03268 0.0
H469 H 0.68231 0.49359 0.96038 0.0
H470 H 0.67403 0.55602 0.98853 0.0
H471 H 0.70284 0.55958 0.06123 0.0
H472 H 0.63908 0.53477 0.00961 0.0
H473 H 0.69285 0.53713 0.84138 0.0
H474 H 0.72471 0.52744 0.78331 0.0
H475 H 0.6982 0.46871 0.74696 0.0
H476 H 0.66626 0.47797 0.80568 0.0
H477 H 0.58106 0.52794 0.68787 0.0
H478 H 0.61317 0.5314 0.74365 0.0
H479 H 0.58741 0.49411 0.8974 0.0
H480 H 0.55521 0.49052 0.8421 0.0
H481 H 0.63998 0.50449 0.78067 0.0
H482 H 0.60356 0.51553 0.04569 0.0
H483 H 0.57232 0.52782 0.10079 0.0
H484 H 0.56541 0.56461 0.9375 0.0
H485 H 0.59676 0.55274 0.88191 0.0
C486 C 0.70338 0.51018 0.0224 0.0
C487 C 0.70909 0.52869 0.0517 0.0
C488 C 0.68692 0.5081 0.98118 0.0
C489 C 0.67609 0.52456 0.96888 0.0
C490 C 0.68218 0.54315 0.99741 0.0
C491 C 0.69861 0.5452 0.03854 0.0
C492 C 0.6577 0.52224 0.92951 0.0
C493 C 0.6393 0.52815 0.95955 0.0
C494 C 0.65805 0.51381 0.86395 0.0
C495 C 0.67722 0.5082 0.82849 0.0
C496 C 0.69387 0.5221 0.82149 0.0
C497 C 0.71193 0.5167 0.78836 0.0
C498 C 0.71349 0.49746 0.76161 0.0
C499 C 0.69697 0.4836 0.76778 0.0
C500 C 0.67888 0.48892 0.80093 0.0
C501 C 0.58224 0.52035 0.73332 0.0
C502 C 0.5655 0.5091 0.76088 0.0
C503 C 0.60063 0.52227 0.76488 0.0
C504 C 0.60255 0.51317 0.82484 0.0
C505 C 0.58613 0.5014 0.8514 0.0
C506 C 0.56776 0.49934 0.81964 0.0
C507 C 0.6214 0.51675 0.86129 0.0
C508 C 0.63982 0.51105 0.83079 0.0
C509 C 0.62118 0.5257 0.92607 0.0
C510 C 0.60238 0.53306 0.95933 0.0
C511 C 0.5954 0.52628 0.02166 0.0
C512 C 0.57767 0.53318 0.05298 0.0
C513 C 0.56684 0.54694 0.02257 0.0
C514 C 0.57376 0.55389 0.96088 0.0
C515 C 0.59149 0.54705 0.92939 0.0
H516 H 0.55311 0.55225 0.04682 0.0
H517 H 0.72749 0.49331 0.73596 0.0
H518 H 0.94741 0.71418 0.89549 0.0
H519 H 0.95725 0.68393 0.83369 0.0
H520 H 0.00018 0.67478 0.98171 0.0
H521 H 0.9905 0.70515 0.04274 0.0
H522 H 0.01522 0.66469 0.85685 0.0
H523 H 0.95347 0.65191 0.99112 0.0
H524 H 0.91814 0.65709 0.03054 0.0
H525 H 0.89802 0.64435 0.83316 0.0
H526 H 0.9333 0.63935 0.79241 0.0
H527 H 0.02254 0.56047 0.81965 0.0
H528 H 0.01814 0.59469 0.8582 0.0
H529 H 0.97288 0.59913 0.71384 0.0
H530 H 0.9768 0.56489 0.67623 0.0
H531 H 0.95951 0.61262 0.83016 0.0
H532 H 0.02123 0.62267 0.69717 0.0
H533 H 0.05654 0.61695 0.65905 0.0
H534 H 0.07692 0.63433 0.85319 0.0
H535 H 0.04168 0.63989 0.89276 0.0
C536 C 0.9592 0.70584 0.9138 0.0
C537 C 0.96826 0.71173 0.97339 0.0
C538 C 0.96476 0.68859 0.87883 0.0
C539 C 0.97926 0.67698 0.90365 0.0
C540 C 0.98899 0.68351 0.9617 0.0
C541 C 0.98345 0.70077 0.99652 0.0
C542 C 0.98315 0.65732 0.87229 0.0
C543 C 0.0031 0.65324 0.85128 0.0
C544 C 0.96725 0.64252 0.86415 0.0
C545 C 0.94604 0.64548 0.8886 0.0
C546 C 0.94153 0.65037 0.95604 0.0
C547 C 0.92151 0.65324 0.97864 0.0
C548 C 0.90585 0.65111 0.93434 0.0
C549 C 0.91017 0.64604 0.86739 0.0
C550 C 0.93017 0.64317 0.84452 0.0
C551 C 0.01179 0.56879 0.79572 0.0
C552 C 0.99997 0.55993 0.74505 0.0
C553 C 0.00937 0.58839 0.81756 0.0
C554 C 0.99531 0.59955 0.78847 0.0
C555 C 0.9838 0.59082 0.73704 0.0
C556 C 0.98608 0.57122 0.7156 0.0
C557 C 0.99162 0.6199 0.81426 0.0
C558 C 0.97167 0.6241 0.83474 0.0
C559 C 0.00754 0.63474 0.82184 0.0
C560 C 0.02878 0.63153 0.79807 0.0
C561 C 0.03322 0.62513 0.73188 0.0
C562 C 0.05323 0.62194 0.70998 0.0
C563 C 0.06896 0.62523 0.75371 0.0
C564 C 0.06472 0.63177 0.81939 0.0
C565 C 0.04473 0.63497 0.84155 0.0
H566 H 0.08444 0.62275 0.73667 0.0
H567 H 0.89036 0.65333 0.95193 0.0
H568 H 0.06888 0.20388 0.48414 0.0
H569 H 0.0576 0.17676 0.5559 0.0
H570 H 0.00027 0.17044 0.46144 0.0
H571 H 0.01164 0.19733 0.38916 0.0
H572 H 0.99851 0.16019 0.60298 0.0
H573 H 0.03287 0.14602 0.38875 0.0
H574 H 0.06065 0.15059 0.30322 0.0
H575 H 0.10383 0.13549 0.44132 0.0
H576 H 0.0763 0.13124 0.52803 0.0
H577 H 0.9741 0.05512 0.56741 0.0
H578 H 0.9808 0.09073 0.55296 0.0
H579 H 0.03706 0.08949 0.65172 0.0
H580 H 0.03031 0.05419 0.66739 0.0
H581 H 0.04015 0.10494 0.52109 0.0
H582 H 0.00361 0.11329 0.73059 0.0
H583 H 0.97481 0.10797 0.81188 0.0
H584 H 0.93505 0.13285 0.68141 0.0
H585 H 0.96357 0.13816 0.59893 0.0
C586 C 0.0535 0.19736 0.48126 0.0
C587 C 0.04105 0.20263 0.43166 0.0
C588 C 0.04711 0.18184 0.52192 0.0
C589 C 0.02818 0.17155 0.51346 0.0
C590 C 0.01485 0.1783 0.46902 0.0
C591 C 0.02133 0.19365 0.42787 0.0
C592 C 0.02407 0.15168 0.53983 0.0
C593 C 0.0076 0.14809 0.58539 0.0
C594 C 0.03601 0.13596 0.51685 0.0
C595 C 0.05259 0.13852 0.46497 0.0
C596 C 0.04832 0.14387 0.40099 0.0
C597 C 0.064 0.14639 0.3523 0.0
C598 C 0.084 0.14342 0.36689 0.0
C599 C 0.08834 0.13785 0.43014 0.0
C600 C 0.0727 0.13538 0.47907 0.0
C601 C 0.98771 0.06256 0.58683 0.0
C602 C 0.00172 0.05194 0.61811 0.0
C603 C 0.99147 0.08284 0.5789 0.0
C604 C 0.00939 0.09267 0.6015 0.0
C605 C 0.02313 0.08216 0.63421 0.0
C606 C 0.01923 0.06201 0.64302 0.0
C607 C 0.01477 0.11339 0.58513 0.0
C608 C 0.03137 0.11709 0.54041 0.0
C609 C 0.00288 0.12907 0.60878 0.0
C610 C 0.9857 0.12596 0.65829 0.0
C611 C 0.98869 0.11747 0.71893 0.0
C612 C 0.97243 0.1145 0.7653 0.0
C613 C 0.95311 0.12001 0.75171 0.0
C614 C 0.95003 0.12858 0.69182 0.0
C615 C 0.96624 0.13161 0.64529 0.0
H616 H 0.94053 0.11768 0.78766 0.0
H617 H 0.09613 0.14536 0.32912 0.0
H618 H 0.29902 0.00967 0.40712 0.0
H619 H 0.3252 0.00087 0.48045 0.0
H620 H 0.34844 0.06167 0.49312 0.0
H621 H 0.32203 0.07053 0.42128 0.0
H622 H 0.36965 0.018 0.41859 0.0
H623 H 0.3467 0.06064 0.61684 0.0
H624 H 0.31871 0.06846 0.69779 0.0
H625 H 0.31214 0.00789 0.75118 0.0
H626 H 0.33992 0.99969 0.66978 0.0
H627 H 0.4656 0.01246 0.54952 0.0
H628 H 0.4337 0.02375 0.514 0.0
H629 H 0.40059 0.98811 0.66017 0.0
H630 H 0.43268 0.97896 0.70092 0.0
H631 H 0.38231 0.0186 0.65875 0.0
H632 H 0.40651 0.97536 0.48155 0.0
H633 H 0.43034 0.96246 0.3943 0.0
H634 H 0.43095 0.01684 0.2943 0.0
H635 H 0.40736 0.03019 0.38147 0.0
C636 C 0.30891 0.02129 0.42915 0.0
C637 C 0.30836 0.04081 0.40993 0.0
C638 C 0.32395 0.01625 0.47043 0.0
C639 C 0.33859 0.03067 0.49249 0.0
C640 C 0.33698 0.05044 0.47782 0.0
C641 C 0.32184 0.05551 0.43715 0.0
C642 C 0.3577 0.02458 0.51772 0.0
C643 C 0.37263 0.0183 0.47102 0.0
C644 C 0.36109 0.02437 0.58595 0.0
C645 C 0.34512 0.02952 0.6367 0.0
C646 C 0.33917 0.04898 0.64549 0.0
C647 C 0.32336 0.05348 0.69144 0.0
C648 C 0.31351 0.03863 0.72901 0.0
C649 C 0.31969 0.01933 0.72165 0.0
C650 C 0.33546 0.01476 0.67571 0.0
C651 C 0.45155 0.00764 0.57535 0.0
C652 C 0.45165 0.99538 0.62911 0.0
C653 C 0.43322 0.01365 0.55397 0.0
C654 C 0.41453 0.00656 0.58354 0.0
C655 C 0.41469 0.99393 0.63656 0.0
C656 C 0.43306 0.98853 0.65943 0.0
C657 C 0.39486 0.01222 0.55938 0.0
C658 C 0.37965 0.01833 0.60612 0.0
C659 C 0.39102 0.0118 0.49075 0.0
C660 C 0.40533 0.00385 0.43846 0.0
C661 C 0.41185 0.98463 0.44124 0.0
C662 C 0.4253 0.97723 0.39175 0.0
C663 C 0.4322 0.98884 0.3389 0.0
C664 C 0.42563 0.00787 0.33533 0.0
C665 C 0.41221 0.01536 0.38475 0.0
H666 H 0.44261 0.98309 0.30065 0.0
H667 H 0.30113 0.04208 0.76403 0.0
H668 H 0.48882 0.29977 0.38992 0.0
H669 H 0.50526 0.32557 0.46178 0.0
H670 H 0.44773 0.35167 0.50019 0.0
H671 H 0.43141 0.32597 0.42848 0.0
H672 H 0.5061 0.36221 0.41924 0.0
H673 H 0.4485 0.38126 0.63823 0.0
H674 H 0.42627 0.36357 0.72085 0.0
H675 H 0.46489 0.31501 0.70484 0.0
H676 H 0.48733 0.33232 0.62201 0.0
H677 H 0.50188 0.46439 0.49018 0.0
H678 H 0.49499 0.4289 0.46594 0.0
H679 H 0.52169 0.41629 0.6487 0.0
H680 H 0.5287 0.45187 0.67244 0.0
H681 H 0.48585 0.39537 0.63473 0.0
H682 H 0.54677 0.40732 0.50085 0.0
H683 H 0.56992 0.4237 0.41772 0.0
H684 H 0.52735 0.4084 0.26681 0.0
H685 H 0.50376 0.39231 0.34927 0.0
C686 C 0.47955 0.31041 0.41664 0.0
C687 C 0.45889 0.31095 0.40404 0.0
C688 C 0.48896 0.32524 0.4572 0.0
C689 C 0.47776 0.34061 0.48612 0.0
C690 C 0.45666 0.33986 0.47917 0.0
C691 C 0.44731 0.32516 0.43827 0.0
C692 C 0.48832 0.35926 0.51119 0.0
C693 C 0.5019 0.36934 0.46682 0.0
C694 C 0.48296 0.3685 0.5734 0.0
C695 C 0.46956 0.35807 0.62359 0.0
C696 C 0.45232 0.36685 0.65253 0.0
C697 C 0.43966 0.35688 0.69936 0.0
C698 C 0.4442 0.33823 0.71823 0.0
C699 C 0.46137 0.32945 0.69011 0.0
C700 C 0.47401 0.33929 0.64298 0.0
C701 C 0.5065 0.45395 0.52447 0.0
C702 C 0.51575 0.46064 0.58305 0.0
C703 C 0.50259 0.43374 0.51075 0.0
C704 C 0.50796 0.41992 0.55531 0.0
C705 C 0.51741 0.42667 0.61369 0.0
C706 C 0.52138 0.44692 0.62725 0.0
C707 C 0.50303 0.3985 0.54164 0.0
C708 C 0.49041 0.38804 0.58786 0.0
C709 C 0.50935 0.38881 0.48112 0.0
C710 C 0.52343 0.3987 0.43147 0.0
C711 C 0.54226 0.40761 0.4501 0.0
C712 C 0.55547 0.41684 0.40305 0.0
C713 C 0.55009 0.41713 0.33706 0.0
C714 C 0.53149 0.4082 0.31796 0.0
C715 C 0.5182 0.39902 0.36484 0.0
H716 H 0.56036 0.42425 0.30071 0.0
H717 H 0.4344 0.33057 0.75459 0.0
H718 H 0.20822 0.4618 0.39608 0.0
H719 H 0.17833 0.46314 0.47301 0.0
H720 H 0.18003 0.52636 0.45934 0.0
H721 H 0.2097 0.52499 0.38147 0.0
H722 H 0.16387 0.51077 0.58884 0.0
H723 H 0.15427 0.50552 0.35094 0.0
H724 H 0.15912 0.49116 0.23691 0.0
H725 H 0.13703 0.43421 0.30286 0.0
H726 H 0.13192 0.44828 0.41728 0.0
H727 H 0.05881 0.53176 0.62086 0.0
H728 H 0.09533 0.52934 0.59719 0.0
H729 H 0.08474 0.46718 0.54453 0.0
H730 H 0.0481 0.47027 0.56179 0.0
H731 H 0.10733 0.48109 0.45683 0.0
H732 H 0.10969 0.49149 0.69711 0.0
H733 H 0.10433 0.50957 0.80535 0.0
H734 H 0.1403 0.55965 0.73409 0.0
H735 H 0.1455 0.54232 0.62504 0.0
C736 C 0.2029 0.47607 0.41257 0.0
C737 C 0.21124 0.49331 0.38349 0.0
C738 C 0.18575 0.47681 0.456 0.0
C739 C 0.1769 0.49482 0.47112 0.0
C740 C 0.18672 0.51235 0.44848 0.0
C741 C 0.20371 0.51158 0.40436 0.0
C742 C 0.15568 0.49493 0.49844 0.0
C743 C 0.15138 0.50426 0.56056 0.0
C744 C 0.13955 0.48647 0.46105 0.0
C745 C 0.14298 0.47788 0.3927 0.0
C746 C 0.15063 0.4899 0.3412 0.0
C747 C 0.15336 0.48184 0.27648 0.0
C748 C 0.14853 0.46177 0.26273 0.0
C749 C 0.14083 0.44974 0.31362 0.0
C750 C 0.13796 0.45776 0.37836 0.0
C751 C 0.06444 0.51761 0.60444 0.0
C752 C 0.05086 0.50125 0.59211 0.0
C753 C 0.08535 0.51613 0.59187 0.0
C754 C 0.09307 0.49797 0.56999 0.0
C755 C 0.07932 0.4814 0.56096 0.0
C756 C 0.0584 0.48312 0.57071 0.0
C757 C 0.11499 0.49654 0.54929 0.0
C758 C 0.11956 0.48715 0.48712 0.0
C759 C 0.13123 0.50524 0.58672 0.0
C760 C 0.1279 0.5156 0.65258 0.0
C761 C 0.11634 0.5064 0.70429 0.0
C762 C 0.11335 0.5165 0.7658 0.0
C763 C 0.12199 0.53563 0.77656 0.0
C764 C 0.13362 0.54481 0.72575 0.0
C765 C 0.13658 0.53488 0.66405 0.0
H766 H 0.11966 0.54334 0.82429 0.0
H767 H 0.15067 0.45556 0.21261 0.0
H768 H 0.00307 0.81068 0.9813 0.0
H769 H 0.01265 0.83788 0.90954 0.0
H770 H 0.95951 0.823 0.7968 0.0
H771 H 0.94954 0.79601 0.87084 0.0
H772 H 0.02019 0.84885 0.78759 0.0
H773 H 0.93668 0.8682 0.77855 0.0
H774 H 0.90301 0.85993 0.83258 0.0
H775 H 0.93138 0.84478 0.00816 0.0
H776 H 0.9651 0.85296 0.95525 0.0
H777 H 0.02154 0.94592 0.66454 0.0
H778 H 0.01356 0.91054 0.67747 0.0
H779 H 0.99075 0.92296 0.8786 0.0
H780 H 0.99746 0.95843 0.86358 0.0
H781 H 0.96624 0.89636 0.82096 0.0
H782 H 0.03891 0.90584 0.84056 0.0
H783 H 0.07396 0.91625 0.80276 0.0
H784 H 0.06937 0.8762 0.632 0.0
H785 H 0.03418 0.86573 0.66846 0.0
C786 C 0.99401 0.81262 0.93913 0.0
C787 C 0.9756 0.80138 0.93138 0.0
C788 C 0.99944 0.82821 0.89814 0.0
C789 C 0.98654 0.83278 0.84873 0.0
C790 C 0.96951 0.8199 0.83533 0.0
C791 C 0.96393 0.80436 0.87704 0.0
C792 C 0.98912 0.85271 0.82113 0.0
C793 C 0.00827 0.85914 0.79372 0.0
C794 C 0.9737 0.86631 0.83037 0.0
C795 C 0.95346 0.86106 0.86262 0.0
C796 C 0.93572 0.8631 0.82866 0.0
C797 C 0.91661 0.85841 0.8591 0.0
C798 C 0.91505 0.85177 0.92371 0.0
C799 C 0.93259 0.84986 0.95808 0.0
C800 C 0.95171 0.85455 0.92788 0.0
C801 C 0.01431 0.94106 0.71064 0.0
C802 C 0.00959 0.95478 0.76242 0.0
C803 C 0.01009 0.92085 0.71852 0.0
C804 C 0.00156 0.91405 0.77906 0.0
C805 C 0.99717 0.92784 0.83124 0.0
C806 C 0.00118 0.94805 0.82298 0.0
C807 C 0.99744 0.8926 0.78907 0.0
C808 C 0.97798 0.88593 0.81295 0.0
C809 C 0.01273 0.87896 0.77864 0.0
C810 C 0.03387 0.88518 0.7568 0.0
C811 C 0.04534 0.89937 0.79471 0.0
C812 C 0.06523 0.90526 0.77358 0.0
C813 C 0.07386 0.89694 0.7149 0.0
C814 C 0.06264 0.88266 0.67735 0.0
C815 C 0.04274 0.87674 0.69824 0.0
H816 H 0.08926 0.90152 0.69862 0.0
H817 H 0.90024 0.84815 0.94718 0.0
H818 H 0.69979 0.99929 0.95702 0.0
H819 H 0.67417 0.00583 0.88009 0.0
H820 H 0.66841 0.94383 0.82069 0.0
H821 H 0.69342 0.93722 0.90128 0.0
H822 H 0.6629 0.00345 0.76303 0.0
H823 H 0.6174 0.92973 0.80801 0.0
H824 H 0.61588 0.90233 0.88428 0.0
H825 H 0.64027 0.94162 0.03783 0.0
H826 H 0.64149 0.96931 0.96296 0.0
H827 H 0.56839 0.01389 0.62587 0.0
H828 H 0.60016 1.00007 0.65154 0.0
H829 H 0.57805 0.99471 0.85538 0.0
H830 H 0.54561 0.00726 0.82829 0.0
H831 H 0.59849 0.96538 0.8243 0.0
H832 H 0.61127 0.03476 0.79463 0.0
H833 H 0.61331 0.0663 0.73847 0.0
H834 H 0.65378 0.04243 0.58621 0.0
H835 H 0.65161 0.01058 0.64066 0.0
C836 C 0.6938 0.98723 0.92506 0.0
C837 C 0.69849 0.9678 0.93476 0.0
C838 C 0.679 0.99092 0.8813 0.0
C839 C 0.66881 0.97522 0.84609 0.0
C840 C 0.67566 0.95611 0.8487 0.0
C841 C 0.69021 0.95236 0.89375 0.0
C842 C 0.64937 0.97875 0.81583 0.0
C843 C 0.64885 0.99495 0.77562 0.0
C844 C 0.63089 0.96795 0.83348 0.0
C845 C 0.62987 0.9515 0.87948 0.0
C846 C 0.62238 0.93251 0.85811 0.0
C847 C 0.62154 0.91693 0.90113 0.0
C848 C 0.62807 0.92018 0.96574 0.0
C849 C 0.63526 0.93908 0.98772 0.0
C850 C 0.63601 0.95473 0.94504 0.0
C851 C 0.57034 0.00968 0.6761 0.0
C852 C 0.55478 0.01188 0.72554 0.0
C853 C 0.58851 0.00186 0.69075 0.0
C854 C 0.59182 0.99687 0.75579 0.0
C855 C 0.57596 0.99853 0.80483 0.0
C856 C 0.55749 0.00579 0.7896 0.0
C857 C 0.61194 0.99053 0.7733 0.0
C858 C 0.61256 0.97369 0.81057 0.0
C859 C 0.63042 0.00132 0.75559 0.0
C860 C 0.63107 0.0202 0.7213 0.0
C861 C 0.6204 0.03615 0.74872 0.0
C862 C 0.62162 0.0541 0.71729 0.0
C863 C 0.63369 0.05638 0.65888 0.0
C864 C 0.64449 0.04067 0.63159 0.0
C865 C 0.6432 0.02264 0.66254 0.0
H866 H 0.63464 0.07029 0.63466 0.0
H867 H 0.6275 0.90806 0.99875 0.0
H868 H 0.50852 0.70594 0.03539 0.0
H869 H 0.49507 0.6777 0.96773 0.0
H870 H 0.55024 0.67983 0.84351 0.0
H871 H 0.56383 0.70807 0.91155 0.0
H872 H 0.51243 0.66457 0.77729 0.0
H873 H 0.5529 0.65459 0.9656 0.0
H874 H 0.56197 0.65978 0.08255 0.0
H875 H 0.50244 0.63681 0.1472 0.0
H876 H 0.49296 0.63168 0.03055 0.0
H877 H 0.52599 0.5613 0.70446 0.0
H878 H 0.52958 0.59667 0.735 0.0
H879 H 0.47666 0.59051 0.86877 0.0
H880 H 0.47263 0.55523 0.83685 0.0
H881 H 0.51127 0.60867 0.92721 0.0
H882 H 0.47255 0.61404 0.73794 0.0
H883 H 0.46299 0.60965 0.62155 0.0
H884 H 0.51833 0.64153 0.55797 0.0
H885 H 0.52855 0.64565 0.67379 0.0
C886 C 0.51732 0.70103 0.99155 0.0
C887 C 0.53726 0.70902 0.97892 0.0
C888 C 0.50969 0.68483 0.9532 0.0
C889 C 0.52186 0.67647 0.90162 0.0
C890 C 0.54065 0.68608 0.88326 0.0
C891 C 0.54835 0.7023 0.92187 0.0
C892 C 0.51682 0.65599 0.87641 0.0
C893 C 0.51233 0.65228 0.80965 0.0
C894 C 0.51641 0.64008 0.91925 0.0
C895 C 0.52215 0.64297 0.98941 0.0
C896 C 0.5417 0.65078 0.00477 0.0
C897 C 0.54694 0.65365 0.07097 0.0
C898 C 0.53277 0.64869 0.12225 0.0
C899 C 0.51338 0.6407 0.10741 0.0
C900 C 0.50808 0.63778 0.04128 0.0
C901 C 0.51487 0.56757 0.73926 0.0
C902 C 0.49896 0.55556 0.76806 0.0
C903 C 0.51694 0.58776 0.75668 0.0
C904 C 0.50332 0.5962 0.80389 0.0
C905 C 0.48728 0.58427 0.83206 0.0
C906 C 0.48501 0.56415 0.81384 0.0
C907 C 0.5068 0.61708 0.82775 0.0
C908 C 0.51118 0.62089 0.89458 0.0
C909 C 0.50716 0.63297 0.78476 0.0
C910 C 0.50143 0.62995 0.71466 0.0
C911 C 0.48286 0.61984 0.69909 0.0
C912 C 0.47729 0.61745 0.63318 0.0
C913 C 0.49005 0.6253 0.58238 0.0
C914 C 0.50848 0.63544 0.59734 0.0
C915 C 0.51419 0.63778 0.66312 0.0
H916 H 0.48562 0.62356 0.53144 0.0
H917 H 0.5368 0.65101 0.17344 0.0
H918 H 0.79275 0.50905 0.99314 0.0
H919 H 0.82174 0.50095 0.91839 0.0
H920 H 0.84339 0.56229 0.92411 0.0
H921 H 0.81459 0.57036 -0.00049 0.0
H922 H 0.84406 0.51192 0.80039 0.0
H923 H 0.89168 0.56392 0.9717 0.0
H924 H 0.88958 0.58011 0.08387 0.0
H925 H 0.84878 0.53263 0.1518 0.0
H926 H 0.85071 0.51613 0.04003 0.0
H927 H 0.95057 0.51342 0.69733 0.0
H928 H 0.91531 0.52057 0.72641 0.0
H929 H 0.91887 0.49267 0.91272 0.0
H930 H 0.95426 0.48594 0.8838 0.0
H931 H 0.90456 0.5265 0.93478 0.0
H932 H 0.89108 0.47254 0.77616 0.0
H933 H 0.89312 0.45462 0.66702 0.0
H934 H 0.86538 0.50164 0.57861 0.0
H935 H 0.86374 0.52014 0.68664 0.0
C936 C 0.80312 0.52093 0.97559 0.0
C937 C 0.8016 0.54029 0.00229 0.0
C938 C 0.81974 0.51628 0.93316 0.0
C939 C 0.83492 0.53096 0.9171 0.0
C940 C 0.83194 0.55072 0.93669 0.0
C941 C 0.81544 0.55534 0.97934 0.0
C942 C 0.85525 0.52526 0.89139 0.0
C943 C 0.85737 0.51518 0.82931 0.0
C944 C 0.87248 0.5292 0.92994 0.0
C945 C 0.87117 0.53893 0.99736 0.0
C946 C 0.88227 0.55695 0.0106 0.0
C947 C 0.8811 0.56617 0.07405 0.0
C948 C 0.86899 0.55744 0.12478 0.0
C949 C 0.85809 0.53941 0.11232 0.0
C950 C 0.85916 0.53015 0.04888 0.0
C951 C 0.94358 0.5082 0.74321 0.0
C952 C 0.95492 0.4987 0.78757 0.0
C953 C 0.92345 0.51242 0.76016 0.0
C954 C 0.91428 0.50698 0.82154 0.0
C955 C 0.92556 0.49703 0.86508 0.0
C956 C 0.94573 0.49312 0.84853 0.0
C957 C 0.89364 0.513 0.84334 0.0
C958 C 0.8914 0.52326 0.90509 0.0
C959 C 0.87637 0.50894 0.80467 0.0
C960 C 0.87751 0.49785 0.73949 0.0
C961 C 0.88565 0.47919 0.7333 0.0
C962 C 0.88674 0.46892 0.67157 0.0
C963 C 0.87948 0.47703 0.61582 0.0
C964 C 0.8711 0.49542 0.6217 0.0
C965 C 0.87012 0.50582 0.68315 0.0
H966 H 0.88031 0.46905 0.5681 0.0
H967 H 0.86808 0.56466 0.17372 0.0
H968 H 0.04316 0.2148 0.14681 0.0
H969 H 0.038 0.18941 0.05741 0.0
H970 H 0.08038 0.1536 0.14357 0.0
H971 H 0.08519 0.17876 0.23373 0.0
H972 H 0.07923 0.15208 0.99185 0.0
H973 H 0.03825 0.14469 0.19868 0.0
H974 H 0.01593 0.15806 0.28943 0.0
H975 H 0.97229 0.17021 0.14879 0.0
H976 H 0.99465 0.15737 0.05695 0.0
H977 H 0.04642 0.05233 0.92227 0.0
H978 H 0.05619 0.08369 0.98094 0.0
H979 H 0.00653 0.11081 0.89811 0.0
H980 H 0.99686 0.07952 0.83851 0.0
H981 H 0.01083 0.11908 0.03782 0.0
H982 H 0.04947 0.12181 0.83217 0.0
H983 H 0.07206 0.1093 0.74081 0.0
H984 H 0.11978 0.10619 0.87592 0.0
H985 H 0.09733 0.11838 0.96843 0.0
C986 C 0.05198 0.20188 0.14486 0.0
C987 C 0.06458 0.19861 0.1965 0.0
C988 C 0.04902 0.18742 0.09406 0.0
C989 C 0.05879 0.1697 0.09429 0.0
C990 C 0.07289 0.16729 0.14239 0.0
C991 C 0.07559 0.18159 0.19375 0.0
C992 C 0.05153 0.15242 0.05292 0.0
C993 C 0.06434 0.14478 0.00183 0.0
C994 C 0.03196 0.14319 0.06568 0.0
C995 C 0.01821 0.1503 0.12094 0.0
C996 C 0.02398 0.15037 0.18708 0.0
C997 C 0.01132 0.15783 0.23871 0.0
C998 C 0.99273 0.16501 0.22487 0.0
C999 C 0.98672 0.16468 0.1594 0.0
C1000 C 0.99938 0.15732 0.10753 0.0
C1001 C 0.03749 0.06493 0.91716 0.0
C1002 C 0.02087 0.06358 0.87622 0.0
C1003 C 0.04314 0.08282 0.95027 0.0
C1004 C 0.03216 0.09953 0.94325 0.0
C1005 C 0.01517 0.09805 0.90396 0.0
C1006 C 0.00967 0.08022 0.87016 0.0
C1007 C 0.03859 0.11854 0.97686 0.0
C1008 C 0.02562 0.12648 0.02696 0.0
C1009 C 0.05799 0.12801 0.96295 0.0
C1010 C 0.07165 0.12084 0.9074 0.0
C1011 C 0.06472 0.1183 0.84256 0.0
C1012 C 0.07751 0.11129 0.79052 0.0
C1013 C 0.09733 0.1069 0.80258 0.0
C1014 C 0.10441 0.10957 0.86668 0.0
C1015 C 0.09167 0.11655 0.91894 0.0
H1016 H 0.10723 0.10148 0.76225 0.0
H1017 H 0.98295 0.1708 0.26491 0.0
H1018 H 0.32092 0.07479 0.14382 0.0
H1019 H 0.34992 0.07144 0.06352 0.0
H1020 H 0.34953 0.00937 0.10042 0.0
H1021 H 0.3209 0.0128 0.18104 0.0
H1022 H 0.38607 0.02815 0.11965 0.0
H1023 H 0.33577 0.0262 0.95236 0.0
H1024 H 0.30772 0.03965 0.89654 0.0
H1025 H 0.346 0.0911 0.84886 0.0
H1026 H 0.37417 0.07816 0.90566 0.0
H1027 H 0.4586 0.99323 0.88063 0.0
H1028 H 0.42903 1.00021 0.95334 0.0
H1029 H 0.43104 0.05952 0.88463 0.0
H1030 H 0.46021 0.05236 0.80986 0.0
H1031 H 0.3943 0.04504 0.88323 0.0
H1032 H 0.44439 0.04845 0.04563 0.0
H1033 H 0.47245 0.03811 0.10918 0.0
H1034 H 0.43554 0.98729 0.17156 0.0
H1035 H 0.40735 0.99715 0.10762 0.0
C1036 C 0.32667 0.06035 0.13296 0.0
C1037 C 0.3188 0.04404 0.1683 0.0
C1038 C 0.34325 0.05845 0.0874 0.0
C1039 C 0.35194 0.04016 0.07631 0.0
C1040 C 0.34315 0.02363 0.10855 0.0
C1041 C 0.32675 0.02556 0.15419 0.0
C1042 C 0.3713 0.03843 0.03643 0.0
C1043 C 0.38782 0.03158 0.06763 0.0
C1044 C 0.3738 0.0438 0.9696 0.0
C1045 C 0.357 0.05132 0.93408 0.0
C1046 C 0.33816 0.04046 0.9305 0.0
C1047 C 0.32223 0.04801 0.89873 0.0
C1048 C 0.32503 0.0663 0.86968 0.0
C1049 C 0.34382 0.07699 0.87174 0.0
C1050 C 0.35977 0.06956 0.90373 0.0
C1051 C 0.453 0.00788 0.88189 0.0
C1052 C 0.46178 0.02226 0.83961 0.0
C1053 C 0.43608 0.01188 0.92364 0.0
C1054 C 0.42787 0.03048 0.92507 0.0
C1055 C 0.43704 0.04505 0.88435 0.0
C1056 C 0.45378 0.04096 0.84185 0.0
C1057 C 0.40904 0.03429 0.96603 0.0
C1058 C 0.39264 0.04163 0.93525 0.0
C1059 C 0.40671 0.02965 0.03373 0.0
C1060 C 0.42381 0.02346 0.07121 0.0
C1061 C 0.44232 0.03496 0.07231 0.0
C1062 C 0.45824 0.0292 0.10855 0.0
C1063 C 0.4558 0.01203 0.14428 0.0
C1064 C 0.43743 1.00057 0.14381 0.0
C1065 C 0.42147 0.00625 0.10761 0.0
H1066 H 0.46812 0.00763 0.17245 0.0
H1067 H 0.31267 0.07215 0.84523 0.0
H1068 H 0.46522 0.30268 0.1118 0.0
H1069 H 0.47013 0.32859 0.03116 0.0
H1070 H 0.42442 0.36162 0.13887 0.0
H1071 H 0.41965 0.33583 0.22024 0.0
H1072 H 0.42469 0.36311 0.99373 0.0
H1073 H 0.46779 0.37398 0.178 0.0
H1074 H 0.4924 0.36508 0.25749 0.0
H1075 H 0.53621 0.35462 0.09693 0.0
H1076 H 0.51168 0.3631 0.01629 0.0
H1077 H 0.45731 0.46131 0.90399 0.0
H1078 H 0.44706 0.43205 0.96731 0.0
H1079 H 0.49537 0.40079 0.86657 0.0
H1080 H 0.50555 0.42989 0.80283 0.0
H1081 H 0.49314 0.39778 0.0055 0.0
H1082 H 0.44937 0.39048 0.82168 0.0
H1083 H 0.42438 0.40169 0.74761 0.0
H1084 H 0.38103 0.40728 0.91252 0.0
H1085 H 0.40597 0.39663 0.98802 0.0
C1086 C 0.45576 0.31515 0.11696 0.0
C1087 C 0.44209 0.31734 0.1721 0.0
C1088 C 0.45865 0.32996 0.07118 0.0
C1089 C 0.44775 0.34704 0.07958 0.0
C1090 C 0.43292 0.34851 0.13161 0.0
C1091 C 0.43025 0.33384 0.17798 0.0
C1092 C 0.45356 0.36426 0.03914 0.0
C1093 C 0.43958 0.37081 0.99648 0.0
C1094 C 0.47304 0.37417 0.04281 0.0
C1095 C 0.4878 0.36891 0.09104 0.0
C1096 C 0.48258 0.36955 0.15956 0.0
C1097 C 0.49653 0.36464 0.20485 0.0
C1098 C 0.51584 0.35925 0.18227 0.0
C1099 C 0.52123 0.35876 0.11434 0.0
C1100 C 0.50731 0.36362 0.06881 0.0
C1101 C 0.46572 0.44819 0.89553 0.0
C1102 C 0.48222 0.44781 0.84881 0.0
C1103 C 0.45982 0.4315 0.93142 0.0
C1104 C 0.47041 0.41426 0.92122 0.0
C1105 C 0.48703 0.41396 0.87506 0.0
C1106 C 0.49281 0.43056 0.83877 0.0
C1107 C 0.46435 0.39661 0.95945 0.0
C1108 C 0.4783 0.39001 0.0021 0.0
C1109 C 0.44477 0.38686 0.95624 0.0
C1110 C 0.42963 0.39295 0.91068 0.0
C1111 C 0.43459 0.39429 0.84233 0.0
C1112 C 0.42042 0.40054 0.80006 0.0
C1113 C 0.40114 0.40521 0.82535 0.0
C1114 C 0.39598 0.40366 0.893 0.0
C1115 C 0.41014 0.39754 0.93558 0.0
H1116 H 0.39018 0.41001 0.7925 0.0
H1117 H 0.52665 0.35551 0.21743 0.0
H1118 H 0.21504 0.46155 0.09566 0.0
H1119 H 0.18835 0.4594 0.015 0.0
H1120 H 0.16737 0.51497 0.09383 0.0
H1121 H 0.19441 0.5177 0.17252 0.0
H1122 H 0.14022 0.4735 0.09746 0.0
H1123 H 0.18116 0.52155 0.96541 0.0
H1124 H 0.21189 0.53291 0.89977 0.0
H1125 H 0.20492 0.4818 0.767 0.0
H1126 H 0.17432 0.46997 0.83266 0.0
H1127 H 0.0569 0.50361 0.9353 0.0
H1128 H 0.08805 0.49965 0.99214 0.0
H1129 H 0.10959 0.46203 0.82826 0.0
H1130 H 0.07861 0.46652 0.77023 0.0
H1131 H 0.13818 0.48919 0.86053 0.0
H1132 H 0.09497 0.44327 0.97906 0.0
H1133 H 0.0647 0.43014 0.04327 0.0
H1134 H 0.0762 0.47375 0.20042 0.0
H1135 H 0.10634 0.48739 0.13672 0.0
C1136 C 0.20525 0.47368 0.09405 0.0
C1137 C 0.20666 0.4897 0.14088 0.0
C1138 C 0.18999 0.47236 0.04823 0.0
C1139 C 0.17601 0.48702 0.04891 0.0
C1140 C 0.17814 0.50358 0.09268 0.0
C1141 C 0.1935 0.50504 0.13773 0.0
C1142 C 0.15748 0.48387 0.01133 0.0
C1143 C 0.13963 0.477 0.04572 0.0
C1144 C 0.15715 0.48772 0.94341 0.0
C1145 C 0.17569 0.4947 0.90466 0.0
C1146 C 0.18637 0.51257 0.92288 0.0
C1147 C 0.20371 0.51915 0.88549 0.0
C1148 C 0.21042 0.50804 0.82944 0.0
C1149 C 0.19976 0.49036 0.81057 0.0
C1150 C 0.18242 0.48371 0.84786 0.0
C1151 C 0.06819 0.49432 0.91186 0.0
C1152 C 0.0655 0.48543 0.84851 0.0
C1153 C 0.08592 0.49196 0.94445 0.0
C1154 C 0.10105 0.48037 0.91472 0.0
C1155 C 0.09807 0.47097 0.85214 0.0
C1156 C 0.08041 0.47353 0.81915 0.0
C1157 C 0.12053 0.47935 0.94718 0.0
C1158 C 0.13864 0.48536 0.91198 0.0
C1159 C 0.12114 0.47448 0.0144 0.0
C1160 C 0.10285 0.46647 0.05271 0.0
C1161 C 0.09094 0.4502 0.02699 0.0
C1162 C 0.07382 0.44264 0.06338 0.0
C1163 C 0.0685 0.45113 0.12581 0.0
C1164 C 0.08032 0.4672 0.15201 0.0
C1165 C 0.09743 0.47485 0.11579 0.0
H1166 H 0.05526 0.44523 0.15394 0.0
H1167 H 0.22382 0.51316 0.80049 0.0
H1168 H 0.92953 0.82714 0.11388 0.0
H1169 H 0.9326 0.85469 0.19622 0.0
H1170 H 0.97217 0.82197 0.30677 0.0
H1171 H 0.96911 0.79434 0.22426 0.0
H1172 H 0.94871 0.84676 0.38883 0.0
H1173 H 0.99305 0.84959 0.19558 0.0
H1174 H 0.00355 0.849 0.07652 0.0
H1175 H 0.96912 0.89926 0.05057 0.0
H1176 H 0.95802 0.89989 0.16936 0.0
H1177 H 0.00846 0.92671 0.53115 0.0
H1178 H 0.99831 0.89714 0.46384 0.0
H1179 H 0.95764 0.93063 0.36029 0.0
H1180 H 0.96788 0.96041 0.42749 0.0
H1181 H 0.98072 0.90536 0.27707 0.0
H1182 H 0.93851 0.90205 0.48068 0.0
H1183 H 0.93406 0.90335 0.60289 0.0
H1184 H 0.97037 0.85347 0.61135 0.0
H1185 H 0.97522 0.85201 0.48911 0.0
C1186 C 0.93832 0.82562 0.15697 0.0
C1187 C 0.94932 0.80884 0.16253 0.0
C1188 C 0.94009 0.84133 0.20381 0.0
C1189 C 0.95298 0.84048 0.25656 0.0
C1190 C 0.96221 0.82289 0.26617 0.0
C1191 C 0.96041 0.80711 0.21923 0.0
C1192 C 0.9591 0.85875 0.29527 0.0
C1193 C 0.95576 0.85955 0.36452 0.0
C1194 C 0.96845 0.87536 0.26334 0.0
C1195 C 0.97453 0.87467 0.19133 0.0
C1196 C 0.98749 0.86036 0.16437 0.0
C1197 C 0.9936 0.86006 0.09698 0.0
C1198 C 0.9871 0.87416 0.05615 0.0
C1199 C 0.97421 0.8884 0.08238 0.0
C1200 C 0.96797 0.88872 0.14972 0.0
C1201 C 0.99752 0.92781 0.49354 0.0
C1202 C 0.98888 0.94576 0.48439 0.0
C1203 C 0.99165 0.91091 0.4555 0.0
C1204 C 0.977 0.91169 0.40799 0.0
C1205 C 0.96889 0.92977 0.39708 0.0
C1206 C 0.97474 0.94671 0.4353 0.0
C1207 C 0.96997 0.89353 0.37034 0.0
C1208 C 0.97334 0.89269 0.30122 0.0
C1209 C 0.96111 0.87678 0.40259 0.0
C1210 C 0.95732 0.87699 0.47577 0.0
C1211 C 0.94555 0.89137 0.5086 0.0
C1212 C 0.94297 0.89214 0.57786 0.0
C1213 C 0.95198 0.87853 0.61484 0.0
C1214 C 0.96341 0.864 0.5826 0.0
C1215 C 0.96604 0.86316 0.51332 0.0
H1216 H 0.9501 0.87926 0.66846 0.0
H1217 H 0.99209 0.87408 0.0042 0.0
H1218 H 0.68663 0.93917 0.2254 0.0
H1219 H 0.65863 0.94356 0.309 0.0
H1220 H 0.64437 0.99675 0.21768 0.0
H1221 H 0.67247 0.99278 0.13619 0.0
H1222 H 0.641 0.00187 0.34729 0.0
H1223 H 0.61765 0.95186 0.18448 0.0
H1224 H 0.61848 0.92028 0.11891 0.0
H1225 H 0.61492 0.88856 0.29826 0.0
H1226 H 0.61407 0.91997 0.36502 0.0
H1227 H 0.53956 0.01347 0.4626 0.0
H1228 H 0.56868 0.00673 0.38669 0.0
H1229 H 0.58018 0.95622 0.4972 0.0
H1230 H 0.55104 0.96256 0.57231 0.0
H1231 H 0.58595 0.94871 0.36467 0.0
H1232 H 0.60502 1.00013 0.52611 0.0
H1233 H 0.60167 0.03223 0.58688 0.0
H1234 H 0.61301 0.06225 0.40531 0.0
H1235 H 0.61568 0.0303 0.34289 0.0
C1236 C 0.6777 0.95194 0.22416 0.0
C1237 C 0.68151 0.96548 0.17392 0.0
C1238 C 0.66163 0.95435 0.2714 0.0
C1239 C 0.64919 0.97031 0.26881 0.0
C1240 C 0.65367 0.98429 0.22053 0.0
C1241 C 0.66966 0.98192 0.17371 0.0
C1242 C 0.63101 0.97232 0.3144 0.0
C1243 C 0.6289 0.99029 0.35077 0.0
C1244 C 0.61536 0.95711 0.31973 0.0
C1245 C 0.61603 0.93825 0.27971 0.0
C1246 C 0.6172 0.93816 0.20992 0.0
C1247 C 0.61764 0.92029 0.17254 0.0
C1248 C 0.61688 0.90244 0.20435 0.0
C1249 C 0.61557 0.9024 0.27367 0.0
C1250 C 0.61506 0.92022 0.31132 0.0
C1251 C 0.54805 0.00072 0.47003 0.0
C1252 C 0.54304 0.98866 0.52385 0.0
C1253 C 0.56475 0.99696 0.42687 0.0
C1254 C 0.57678 0.98117 0.43712 0.0
C1255 C 0.57115 0.96852 0.48858 0.0
C1256 C 0.55448 0.97223 0.53158 0.0
C1257 C 0.59581 0.97837 0.39654 0.0
C1258 C 0.5981 0.96024 0.36147 0.0
C1259 C 0.61154 0.99352 0.39191 0.0
C1260 C 0.61035 0.01277 0.4297 0.0
C1261 C 0.60662 0.01355 0.49901 0.0
C1262 C 0.6048 0.03171 0.53374 0.0
C1263 C 0.60713 0.04924 0.50004 0.0
C1264 C 0.6112 0.04865 0.43138 0.0
C1265 C 0.6128 0.03051 0.39625 0.0
H1266 H 0.60581 0.06328 0.52716 0.0
H1267 H 0.61722 0.88863 0.17527 0.0
H1268 H 0.53354 0.70756 0.23862 0.0
H1269 H 0.53289 0.68087 0.31608 0.0
H1270 H 0.59328 0.66712 0.24433 0.0
H1271 H 0.594 0.6941 0.16719 0.0
H1272 H 0.56446 0.63508 0.23716 0.0
H1273 H 0.58724 0.68415 0.39993 0.0
H1274 H 0.58705 0.71581 0.46511 0.0
H1275 H 0.52665 0.70033 0.5432 0.0
H1276 H 0.52634 0.66873 0.47753 0.0
H1277 H 0.56156 0.55624 0.4619 0.0
H1278 H 0.57205 0.58557 0.39934 0.0
H1279 H 0.51684 0.61222 0.46811 0.0
H1280 H 0.50667 0.58334 0.53279 0.0
H1281 H 0.54862 0.63808 0.48021 0.0
H1282 H 0.52279 0.59242 0.31136 0.0
H1283 H 0.52024 0.5611 0.24432 0.0
H1284 H 0.58246 0.5706 0.17398 0.0
H1285 H 0.58549 0.60188 0.24157 0.0
C1286 C 0.54693 0.69928 0.24135 0.0
C1287 C 0.56395 0.70298 0.19817 0.0
C1288 C 0.54655 0.68404 0.28531 0.0
C1289 C 0.56309 0.67211 0.28612 0.0
C1290 C 0.58044 0.67627 0.24469 0.0
C1291 C 0.58093 0.69173 0.20127 0.0
C1292 C 0.5612 0.65413 0.3251 0.0
C1293 C 0.56143 0.63569 0.29056 0.0
C1294 C 0.55666 0.65502 0.39433 0.0
C1295 C 0.55675 0.67408 0.4336 0.0
C1296 C 0.57386 0.68756 0.43059 0.0
C1297 C 0.57385 0.70549 0.46768 0.0
C1298 C 0.55684 0.71009 0.50823 0.0
C1299 C 0.53982 0.69675 0.5118 0.0
C1300 C 0.53974 0.67881 0.47473 0.0
C1301 C 0.55169 0.56838 0.46355 0.0
C1302 C 0.53333 0.56759 0.50204 0.0
C1303 C 0.55766 0.58509 0.42776 0.0
C1304 C 0.54521 0.6011 0.42929 0.0
C1305 C 0.52677 0.60015 0.46718 0.0
C1306 C 0.52091 0.5836 0.50356 0.0
C1307 C 0.55131 0.61902 0.3921 0.0
C1308 C 0.55189 0.63743 0.42696 0.0
C1309 C 0.55618 0.61813 0.32292 0.0
C1310 C 0.55446 0.59933 0.28235 0.0
C1311 C 0.536 0.58773 0.28216 0.0
C1312 C 0.53445 0.57001 0.24397 0.0
C1313 C 0.55121 0.56382 0.20523 0.0
C1314 C 0.56952 0.57539 0.20427 0.0
C1315 C 0.57116 0.59311 0.24252 0.0
H1316 H 0.54996 0.55007 0.17589 0.0
H1317 H 0.55687 0.72398 0.53693 0.0
H1318 H 0.79185 0.52436 0.28869 0.0
H1319 H 0.81908 0.52271 0.36513 0.0
H1320 H 0.8487 0.57593 0.28801 0.0
H1321 H 0.82154 0.57754 0.21092 0.0
H1322 H 0.87244 0.54565 0.27333 0.0
H1323 H 0.83179 0.57412 0.45115 0.0
H1324 H 0.80146 0.57803 0.526 0.0
H1325 H 0.80603 0.51973 0.59452 0.0
H1326 H 0.83616 0.51532 0.51919 0.0
H1327 H 0.95758 0.54236 0.47581 0.0
H1328 H 0.9277 0.55268 0.42278 0.0
H1329 H 0.89312 0.50043 0.48786 0.0
H1330 H 0.92273 0.49037 0.54281 0.0
H1331 H 0.87228 0.53333 0.51332 0.0
H1332 H 0.91065 0.50378 0.33011 0.0
H1333 H 0.94024 0.49887 0.25287 0.0
H1334 H 0.93898 0.5584 0.19172 0.0
H1335 H 0.90958 0.56379 0.26949 0.0
C1336 C 0.80372 0.53616 0.28995 0.0
C1337 C 0.8047 0.551 0.24362 0.0
C1338 C 0.81931 0.53519 0.33363 0.0
C1339 C 0.83596 0.54915 0.33199 0.0
C1340 C 0.83602 0.56496 0.28981 0.0
C1341 C 0.82051 0.56589 0.24593 0.0
C1342 C 0.85461 0.54547 0.36583 0.0
C1343 C 0.87253 0.54347 0.32617 0.0
C1344 C 0.85446 0.54181 0.4342 0.0
C1345 C 0.83618 0.54434 0.4791 0.0
C1346 C 0.82622 0.56206 0.48168 0.0
C1347 C 0.80907 0.56438 0.52429 0.0
C1348 C 0.8018 0.54913 0.56489 0.0
C1349 C 0.81167 0.53153 0.56301 0.0
C1350 C 0.8288 0.52912 0.52041 0.0
C1351 C 0.94361 0.53305 0.47843 0.0
C1352 C 0.94239 0.51557 0.51307 0.0
C1353 C 0.92659 0.53895 0.4482 0.0
C1354 C 0.90821 0.52732 0.45168 0.0
C1355 C 0.9071 0.50971 0.4855 0.0
C1356 C 0.92404 0.5039 0.51619 0.0
C1357 C 0.89001 0.53356 0.42064 0.0
C1358 C 0.87221 0.53588 0.4607 0.0
C1359 C 0.89018 0.53742 0.35243 0.0
C1360 C 0.90811 0.53429 0.30649 0.0
C1361 C 0.91684 0.51592 0.30088 0.0
C1362 C 0.93355 0.51303 0.25684 0.0
C1363 C 0.94155 0.52834 0.21764 0.0
C1364 C 0.93282 0.54658 0.2223 0.0
C1365 C 0.91614 0.54956 0.26639 0.0
H1366 H 0.95446 0.52606 0.18348 0.0
H1367 H 0.78853 0.55096 0.5979 0.0
loop_
_geom_bond_atom_site_label_1
_geom_bond_atom_site_label_2
_geom_bond_distance
_geom_bond_site_symmetry_2
_ccdc_geom_bond_type
H0 C3 0.929 . S
H1 C6 0.929 1_556 S
H2 C8 0.930 . S
C3 H0 0.929 . S
C3 C4 1.398 . S
C3 C5 1.396 . S
C4 C3 1.398 . S
C4 C8 1.407 . S
C5 C3 1.396 . S
C5 C6 1.394 . S
C6 H1 0.929 1_554 S
C6 C5 1.394 . S
C6 C7 1.382 . S
C7 C6 1.382 . S
C7 C8 1.392 . S
C7 N9 1.420 . S
C8 H2 0.930 . S
C8 C4 1.407 . S
C8 C7 1.392 . S
N9 C7 1.420 . S
N9 C10 1.244 . S
C10 N9 1.244 . S
H11 C14 0.929 . S
H12 C17 0.929 . S
H13 C19 0.930 . S
C14 H11 0.929 . S
C14 C15 1.398 . S
C14 C16 1.396 1_554 S
C15 C14 1.398 . S
C15 C19 1.407 . S
C16 C14 1.396 1_556 S
C16 C17 1.394 . S
C17 H12 0.929 . S
C17 C16 1.394 . S
C17 C18 1.382 1_556 S
C18 C17 1.382 1_554 S
C18 C19 1.392 . S
C18 N20 1.420 . S
C19 H13 0.930 . S
C19 C15 1.407 . S
C19 C18 1.392 . S
N20 C18 1.420 . S
N20 C21 1.244 1_554 S
C21 N20 1.244 1_556 S
H22 C25 0.929 . S
H23 C28 0.929 1_556 S
H24 C30 0.930 . S
C25 H22 0.929 . S
C25 C26 1.398 . S
C25 C27 1.396 . S
C26 C25 1.398 . S
C26 C30 1.407 . S
C27 C25 1.396 . S
C27 C28 1.394 . S
C28 H23 0.929 1_554 S
C28 C27 1.394 . S
C28 C29 1.382 . S
C29 C28 1.382 . S
C29 C30 1.392 . S
C29 N31 1.420 . S
C30 H24 0.930 . S
C30 C26 1.407 . S
C30 C29 1.392 . S
N31 C29 1.420 . S
N31 C32 1.244 . S
C32 N31 1.244 . S
H33 C36 0.929 . S
H34 C39 0.929 1_556 S
H35 C41 0.930 . S
C36 H33 0.929 . S
C36 C37 1.398 . S
C36 C38 1.396 . S
C37 C36 1.398 . S
C37 C41 1.407 . S
C38 C36 1.396 . S
C38 C39 1.394 . S
C39 H34 0.929 1_554 S
C39 C38 1.394 . S
C39 C40 1.382 . S
C40 C39 1.382 . S
C40 C41 1.392 . S
C40 N42 1.420 . S
C41 H35 0.930 . S
C41 C37 1.407 . S
C41 C40 1.392 . S
N42 C40 1.420 . S
N42 C43 1.244 . S
C43 N42 1.244 . S
H44 C47 0.929 . S
H45 C50 0.929 . S
H46 C52 0.930 . S
C47 H44 0.929 . S
C47 C48 1.398 . S
C47 C49 1.396 . S
C48 C47 1.398 . S
C48 C52 1.407 . S
C49 C47 1.396 . S
C49 C50 1.394 . S
C50 H45 0.929 . S
C50 C49 1.394 . S
C50 C51 1.382 . S
C51 C50 1.382 . S
C51 C52 1.392 . S
C51 N53 1.420 . S
C52 H46 0.930 . S
C52 C48 1.407 . S
C52 C51 1.392 . S
N53 C51 1.420 . S
N53 C54 1.244 . S
C54 N53 1.244 . S
H55 C58 0.929 . S
H56 C61 0.929 . S
H57 C63 0.930 . S
C58 H55 0.929 . S
C58 C59 1.398 . S
C58 C60 1.396 . S
C59 C58 1.398 . S
C59 C63 1.407 . S
C60 C58 1.396 . S
C60 C61 1.394 . S
C61 H56 0.929 . S
C61 C60 1.394 . S
C61 C62 1.382 . S
C62 C61 1.382 . S
C62 C63 1.392 . S
C62 N64 1.420 . S
C63 H57 0.930 . S
C63 C59 1.407 . S
C63 C62 1.392 . S
N64 C62 1.420 . S
N64 C65 1.244 . S
C65 N64 1.244 . S
H66 C69 0.929 . S
H67 C72 0.929 . S
H68 C74 0.930 . S
C69 H66 0.929 . S
C69 C70 1.398 . S
C69 C71 1.396 . S
C70 C69 1.398 . S
C70 C74 1.407 . S
C71 C69 1.396 . S
C71 C72 1.394 . S
C72 H67 0.929 . S
C72 C71 1.394 . S
C72 C73 1.382 . S
C73 C72 1.382 . S
C73 C74 1.392 . S
C73 N75 1.420 . S
C74 H68 0.930 . S
C74 C70 1.407 . S
C74 C73 1.392 . S
N75 C73 1.420 . S
N75 C76 1.244 . S
C76 N75 1.244 . S
H77 C80 0.929 . S
H78 C83 0.929 . S
H79 C85 0.930 . S
C80 H77 0.929 . S
C80 C81 1.398 . S
C80 C82 1.396 . S
C81 C80 1.398 . S
C81 C85 1.407 . S
C82 C80 1.396 . S
C82 C83 1.394 . S
C83 H78 0.929 . S
C83 C82 1.394 . S
C83 C84 1.382 . S
C84 C83 1.382 . S
C84 C85 1.392 . S
C84 N86 1.420 . S
C85 H79 0.930 . S
C85 C81 1.407 . S
C85 C84 1.392 . S
N86 C84 1.420 . S
N86 C87 1.244 . S
C87 N86 1.244 . S
Tb88 O91 2.453 1_565 S
Tb88 O92 2.596 1_665 S
Tb88 O93 2.374 1_665 S
Tb88 O101 2.343 1_655 S
Tb88 O103 2.353 1_565 S
Tb88 O105 2.427 . S
Tb88 O106 2.513 1_655 S
C89 O93 1.251 . S
C89 O95 1.263 . S
Tb90 O92 2.343 . S
Tb90 O95 2.353 . S
Tb90 O98 2.427 . S
Tb90 O99 2.513 . S
Tb90 O100 2.453 1_545 S
Tb90 O101 2.596 1_545 S
Tb90 O102 2.374 1_455 S
O91 Tb88 2.453 1_545 S
O91 C107 1.245 1_655 S
O92 Tb88 2.596 1_445 S
O92 Tb90 2.343 . S
O92 C107 1.259 . S
O93 Tb88 2.374 1_445 S
O93 C89 1.251 . S
C94 O98 1.275 . S
C94 O99 1.246 . S
O95 C89 1.263 . S
O95 Tb90 2.353 . S
C96 O100 1.245 . S
C96 O101 1.259 . S
C97 O102 1.250 . S
C97 O103 1.263 . S
O98 Tb90 2.427 . S
O98 C94 1.275 . S
O99 Tb90 2.513 . S
O99 C94 1.246 . S
O100 Tb90 2.453 1_565 S
O100 C96 1.245 . S
O101 Tb88 2.343 1_455 S
O101 Tb90 2.596 1_565 S
O101 C96 1.259 . S
O102 Tb90 2.374 1_655 S
O102 C97 1.250 . S
O103 Tb88 2.353 1_545 S
O103 C97 1.263 . S
C104 O105 1.275 . S
C104 O106 1.246 1_655 S
O105 Tb88 2.427 . S
O105 C104 1.275 . S
O106 Tb88 2.513 1_455 S
O106 C104 1.246 1_455 S
C107 O91 1.245 1_455 S
C107 O92 1.259 . S
Tb108 O111 2.453 . S
Tb108 O112 2.596 1_545 S
Tb108 O113 2.374 . S
Tb108 O121 2.343 . S
Tb108 O123 2.353 . S
Tb108 O125 2.427 . S
Tb108 O126 2.513 . S
C109 O113 1.204 1_565 S
C109 O115 1.299 . S
Tb110 O112 2.343 . S
Tb110 O115 2.353 . S
Tb110 O118 2.427 . S
Tb110 O119 2.513 . S
Tb110 O120 2.453 . S
Tb110 O121 2.596 1_565 S
Tb110 O122 2.374 . S
O111 Tb108 2.453 . S
O111 C127 1.245 . S
O112 Tb108 2.596 1_565 S
O112 Tb110 2.343 . S
O112 C127 1.259 1_565 S
O113 Tb108 2.374 . S
O113 C109 1.204 1_545 S
C114 O118 1.275 . S
C114 O119 1.246 . S
O115 C109 1.299 . S
O115 Tb110 2.353 . S
C116 O120 1.245 1_545 S
C116 O121 1.259 . S
C117 O122 1.250 1_545 S
C117 O123 1.263 . S
O118 Tb110 2.427 . S
O118 C114 1.275 . S
O119 Tb110 2.513 . S
O119 C114 1.246 . S
O120 Tb110 2.453 . S
O120 C116 1.245 1_565 S
O121 Tb108 2.343 . S
O121 Tb110 2.596 1_545 S
O121 C116 1.259 . S
O122 Tb110 2.374 . S
O122 C117 1.250 1_565 S
O123 Tb108 2.353 . S
O123 C117 1.263 . S
C124 O125 1.275 . S
C124 O126 1.246 . S
O125 Tb108 2.427 . S
O125 C124 1.275 . S
O126 Tb108 2.513 . S
O126 C124 1.246 . S
C127 O111 1.245 . S
C127 O112 1.259 1_545 S
Tb128 O131 2.453 . S
Tb128 O132 2.596 . S
Tb128 O133 2.374 . S
Tb128 O141 2.343 . S
Tb128 O143 2.353 . S
Tb128 O145 2.427 . S
Tb128 O146 2.513 . S
C129 O133 1.251 . S
C129 O135 1.263 . S
Tb130 O132 2.343 . S
Tb130 O135 2.353 . S
Tb130 O138 2.427 . S
Tb130 O139 2.513 . S
Tb130 O140 2.453 . S
Tb130 O141 2.596 . S
Tb130 O142 2.374 . S
O131 Tb128 2.453 . S
O131 C147 1.245 . S
O132 Tb128 2.596 . S
O132 Tb130 2.343 . S
O132 C147 1.259 . S
O133 Tb128 2.374 . S
O133 C129 1.251 . S
C134 O138 1.275 . S
C134 O139 1.246 . S
O135 C129 1.263 . S
O135 Tb130 2.353 . S
C136 O140 1.245 . S
C136 O141 1.259 . S
C137 O142 1.250 . S
C137 O143 1.263 . S
O138 Tb130 2.427 . S
O138 C134 1.275 . S
O139 Tb130 2.513 . S
O139 C134 1.246 . S
O140 Tb130 2.453 . S
O140 C136 1.245 . S
O141 Tb128 2.343 . S
O141 Tb130 2.596 . S
O141 C136 1.259 . S
O142 Tb130 2.374 . S
O142 C137 1.250 . S
O143 Tb128 2.353 . S
O143 C137 1.263 . S
C144 O145 1.275 . S
C144 O146 1.246 . S
O145 Tb128 2.427 . S
O145 C144 1.275 . S
O146 Tb128 2.513 . S
O146 C144 1.246 . S
C147 O131 1.245 . S
C147 O132 1.259 . S
Tb148 O151 2.453 1_655 S
Tb148 O152 2.596 1_655 S
Tb148 O153 2.374 1_655 S
Tb148 O161 2.343 . S
Tb148 O163 2.353 1_655 S
Tb148 O165 2.427 . S
Tb148 O166 2.513 . S
C149 O153 1.251 . S
C149 O155 1.263 . S
Tb150 O152 2.343 . S
Tb150 O155 2.353 . S
Tb150 O158 2.427 . S
Tb150 O159 2.513 . S
Tb150 O160 2.453 1_455 S
Tb150 O161 2.596 1_455 S
Tb150 O162 2.374 . S
O151 Tb148 2.453 1_455 S
O151 C167 1.245 . S
O152 Tb148 2.596 1_455 S
O152 Tb150 2.343 . S
O152 C167 1.259 . S
O153 Tb148 2.374 1_455 S
O153 C149 1.251 . S
C154 O158 1.275 . S
C154 O159 1.246 . S
O155 C149 1.263 . S
O155 Tb150 2.353 . S
C156 O160 1.245 . S
C156 O161 1.259 . S
C157 O162 1.250 . S
C157 O163 1.263 . S
O158 Tb150 2.427 . S
O158 C154 1.275 . S
O159 Tb150 2.513 . S
O159 C154 1.246 . S
O160 Tb150 2.453 1_655 S
O160 C156 1.245 . S
O161 Tb148 2.343 . S
O161 Tb150 2.596 1_655 S
O161 C156 1.259 . S
O162 Tb150 2.374 . S
O162 C157 1.250 . S
O163 Tb148 2.353 1_455 S
O163 C157 1.263 . S
C164 O165 1.275 . S
C164 O166 1.246 . S
O165 Tb148 2.427 . S
O165 C164 1.275 . S
O166 Tb148 2.513 . S
O166 C164 1.246 . S
C167 O151 1.245 . S
C167 O152 1.259 . S
H168 C186 0.951 . S
H169 C188 0.951 . S
H170 C190 0.950 . S
H171 C191 0.950 . S
H172 C193 0.950 . S
H173 C196 0.950 . S
H174 C197 0.950 . S
H175 C199 0.950 . S
H176 C200 0.950 . S
H177 C201 0.951 . S
H178 C203 0.951 . S
H179 C205 0.950 . S
H180 C206 0.950 . S
H181 C208 0.950 . S
H182 C211 0.950 . S
H183 C212 0.950 . S
H184 C214 0.950 . S
H185 C215 0.950 . S
C186 H168 0.951 . S
C186 C187 1.366 . S
C186 C188 1.388 . S
C187 C186 1.366 . S
C187 C191 1.385 . S
C188 H169 0.951 . S
C188 C186 1.388 . S
C188 C189 1.366 . S
C189 C188 1.366 . S
C189 C190 1.414 . S
C189 C192 1.499 . S
C190 H170 0.950 . S
C190 C189 1.414 . S
C190 C191 1.374 . S
C191 H171 0.950 . S
C191 C187 1.385 . S
C191 C190 1.374 . S
C192 C189 1.499 . S
C192 C193 1.373 . S
C192 C194 1.389 . S
C193 H172 0.950 . S
C193 C192 1.373 . S
C193 C209 1.377 . S
C194 C192 1.389 . S
C194 C195 1.515 1_545 S
C194 C208 1.377 . S
C195 C194 1.515 1_565 S
C195 C196 1.401 . S
C195 C200 1.369 . S
C196 H173 0.950 . S
C196 C195 1.401 . S
C196 C197 1.334 . S
C197 H174 0.950 . S
C197 C196 1.334 . S
C197 C198 1.287 . S
C198 C197 1.287 . S
C198 C199 1.524 . S
C198 H217 0.913 . S
C199 H175 0.950 . S
C199 C198 1.524 . S
C199 C200 1.415 . S
C200 H176 0.950 . S
C200 C195 1.369 . S
C200 C199 1.415 . S
C201 H177 0.951 . S
C201 C202 1.366 . S
C201 C203 1.388 . S
C202 C201 1.366 . S
C202 C206 1.385 . S
C203 H178 0.951 . S
C203 C201 1.388 . S
C203 C204 1.366 . S
C204 C203 1.366 . S
C204 C205 1.414 . S
C204 C207 1.499 . S
C205 H179 0.950 . S
C205 C204 1.414 . S
C205 C206 1.374 . S
C206 H180 0.950 . S
C206 C202 1.385 . S
C206 C205 1.374 . S
C207 C204 1.499 . S
C207 C208 1.373 . S
C207 C209 1.389 . S
C208 H181 0.950 . S
C208 C194 1.377 . S
C208 C207 1.373 . S
C209 C193 1.377 . S
C209 C207 1.389 . S
C209 C210 1.524 . S
C210 C209 1.524 . S
C210 C211 1.397 . S
C210 C215 1.363 . S
C211 H182 0.950 . S
C211 C210 1.397 . S
C211 C212 1.334 . S
C212 H183 0.950 . S
C212 C211 1.334 . S
C212 C213 1.287 . S
C213 C212 1.287 . S
C213 C214 1.524 . S
C213 H216 0.999 . S
C214 H184 0.950 . S
C214 C213 1.524 . S
C214 C215 1.415 . S
C215 H185 0.950 . S
C215 C210 1.363 . S
C215 C214 1.415 . S
H216 C213 0.999 . S
H217 C198 0.913 . S
H218 C236 0.951 . S
H219 C238 0.951 . S
H220 C240 0.950 . S
H221 C241 0.950 . S
H222 C243 0.950 . S
H223 C246 0.950 . S
H224 C247 0.950 . S
H225 C249 0.950 . S
H226 C250 0.950 . S
H227 C251 0.951 . S
H228 C253 0.951 . S
H229 C255 0.950 . S
H230 C256 0.950 . S
H231 C258 0.950 . S
H232 C261 0.950 . S
H233 C262 0.950 . S
H234 C264 0.950 . S
H235 C265 0.950 . S
C236 H218 0.951 . S
C236 C237 1.366 . S
C236 C238 1.388 . S
C237 C236 1.366 . S
C237 C241 1.385 . S
C238 H219 0.951 . S
C238 C236 1.388 . S
C238 C239 1.366 . S
C239 C238 1.366 . S
C239 C240 1.414 . S
C239 C242 1.499 . S
C240 H220 0.950 . S
C240 C239 1.414 . S
C240 C241 1.374 . S
C241 H221 0.950 . S
C241 C237 1.385 . S
C241 C240 1.374 . S
C242 C239 1.499 . S
C242 C243 1.373 . S
C242 C244 1.389 . S
C243 H222 0.950 . S
C243 C242 1.373 . S
C243 C259 1.377 . S
C244 C242 1.389 . S
C244 C245 1.524 . S
C244 C258 1.377 . S
C245 C244 1.524 . S
C245 C246 1.397 . S
C245 C250 1.363 . S
C246 H223 0.950 . S
C246 C245 1.397 . S
C246 C247 1.334 . S
C247 H224 0.950 . S
C247 C246 1.334 . S
C247 C248 1.287 . S
C248 C247 1.287 . S
C248 C249 1.524 . S
C248 H267 0.913 . S
C249 H225 0.950 . S
C249 C248 1.524 . S
C249 C250 1.415 . S
C250 H226 0.950 . S
C250 C245 1.363 . S
C250 C249 1.415 . S
C251 H227 0.951 . S
C251 C252 1.366 . S
C251 C253 1.388 . S
C252 C251 1.366 . S
C252 C256 1.385 . S
C253 H228 0.951 . S
C253 C251 1.388 . S
C253 C254 1.366 . S
C254 C253 1.366 . S
C254 C255 1.414 . S
C254 C257 1.499 . S
C255 H229 0.950 . S
C255 C254 1.414 . S
C255 C256 1.374 . S
C256 H230 0.950 . S
C256 C252 1.385 . S
C256 C255 1.374 . S
C257 C254 1.499 . S
C257 C258 1.373 . S
C257 C259 1.389 . S
C258 H231 0.950 . S
C258 C244 1.377 . S
C258 C257 1.373 . S
C259 C243 1.377 . S
C259 C257 1.389 . S
C259 C260 1.524 . S
C260 C259 1.524 . S
C260 C261 1.397 . S
C260 C265 1.363 . S
C261 H232 0.950 . S
C261 C260 1.397 . S
C261 C262 1.334 . S
C262 H233 0.950 . S
C262 C261 1.334 . S
C262 C263 1.287 . S
C263 C262 1.287 . S
C263 C264 1.524 . S
C263 H266 0.999 . S
C264 H234 0.950 . S
C264 C263 1.524 . S
C264 C265 1.415 . S
C265 H235 0.950 . S
C265 C260 1.363 . S
C265 C264 1.415 . S
H266 C263 0.999 . S
H267 C248 0.913 . S
H268 C286 0.951 . S
H269 C288 0.951 . S
H270 C290 0.950 . S
H271 C291 0.950 . S
H272 C293 0.950 . S
H273 C296 0.950 . S
H274 C297 0.950 . S
H275 C299 0.950 . S
H276 C300 0.950 . S
H277 C301 0.951 . S
H278 C303 0.951 . S
H279 C305 0.950 . S
H280 C306 0.950 . S
H281 C308 0.950 . S
H282 C311 0.950 . S
H283 C312 0.950 . S
H284 C314 0.950 . S
H285 C315 0.950 . S
C286 H268 0.951 . S
C286 C287 1.366 . S
C286 C288 1.388 . S
C287 C286 1.366 . S
C287 C291 1.385 . S
C288 H269 0.951 . S
C288 C286 1.388 . S
C288 C289 1.366 . S
C289 C288 1.366 . S
C289 C290 1.414 . S
C289 C292 1.499 . S
C290 H270 0.950 . S
C290 C289 1.414 . S
C290 C291 1.374 . S
C291 H271 0.950 . S
C291 C287 1.385 . S
C291 C290 1.374 . S
C292 C289 1.499 . S
C292 C293 1.373 . S
C292 C294 1.389 . S
C293 H272 0.950 . S
C293 C292 1.373 . S
C293 C309 1.377 . S
C294 C292 1.389 . S
C294 C295 1.524 . S
C294 C308 1.377 . S
C295 C294 1.524 . S
C295 C296 1.397 . S
C295 C300 1.363 . S
C296 H273 0.950 . S
C296 C295 1.397 . S
C296 C297 1.334 . S
C297 H274 0.950 . S
C297 C296 1.334 . S
C297 C298 1.287 . S
C298 C297 1.287 . S
C298 C299 1.524 . S
C298 H317 0.913 . S
C299 H275 0.950 . S
C299 C298 1.524 . S
C299 C300 1.415 . S
C300 H276 0.950 . S
C300 C295 1.363 . S
C300 C299 1.415 . S
C301 H277 0.951 . S
C301 C302 1.366 . S
C301 C303 1.388 . S
C302 C301 1.366 . S
C302 C306 1.385 . S
C303 H278 0.951 . S
C303 C301 1.388 . S
C303 C304 1.366 . S
C304 C303 1.366 . S
C304 C305 1.414 . S
C304 C307 1.499 . S
C305 H279 0.950 . S
C305 C304 1.414 . S
C305 C306 1.374 . S
C306 H280 0.950 . S
C306 C302 1.385 . S
C306 C305 1.374 . S
C307 C304 1.499 . S
C307 C308 1.373 . S
C307 C309 1.389 . S
C308 H281 0.950 . S
C308 C294 1.377 . S
C308 C307 1.373 . S
C309 C293 1.377 . S
C309 C307 1.389 . S
C309 C310 1.524 . S
C310 C309 1.524 . S
C310 C311 1.397 . S
C310 C315 1.363 . S
C311 H282 0.950 . S
C311 C310 1.397 . S
C311 C312 1.334 . S
C312 H283 0.950 . S
C312 C311 1.334 . S
C312 C313 1.287 . S
C313 C312 1.287 . S
C313 C314 1.524 . S
C313 H316 0.999 . S
C314 H284 0.950 . S
C314 C313 1.524 . S
C314 C315 1.415 . S
C315 H285 0.950 . S
C315 C310 1.363 . S
C315 C314 1.415 . S
H316 C313 0.999 . S
H317 C298 0.913 . S
H318 C336 0.951 . S
H319 C338 0.951 . S
H320 C340 0.950 . S
H321 C341 0.950 . S
H322 C343 0.950 . S
H323 C346 0.950 . S
H324 C347 0.950 . S
H325 C349 0.950 . S
H326 C350 0.950 . S
H327 C351 0.951 . S
H328 C353 0.951 . S
H329 C355 0.950 . S
H330 C356 0.950 . S
H331 C358 0.950 . S
H332 C361 0.950 . S
H333 C362 0.950 . S
H334 C364 0.950 . S
H335 C365 0.950 . S
C336 H318 0.951 . S
C336 C337 1.366 . S
C336 C338 1.388 . S
C337 C336 1.366 . S
C337 C341 1.385 . S
C338 H319 0.951 . S
C338 C336 1.388 . S
C338 C339 1.366 . S
C339 C338 1.366 . S
C339 C340 1.414 . S
C339 C342 1.499 . S
C340 H320 0.950 . S
C340 C339 1.414 . S
C340 C341 1.374 . S
C341 H321 0.950 . S
C341 C337 1.385 . S
C341 C340 1.374 . S
C342 C339 1.499 . S
C342 C343 1.373 . S
C342 C344 1.389 . S
C343 H322 0.950 . S
C343 C342 1.373 . S
C343 C359 1.377 . S
C344 C342 1.389 . S
C344 C345 1.524 . S
C344 C358 1.377 . S
C345 C344 1.524 . S
C345 C346 1.397 . S
C345 C350 1.363 . S
C346 H323 0.950 . S
C346 C345 1.397 . S
C346 C347 1.334 . S
C347 H324 0.950 . S
C347 C346 1.334 . S
C347 C348 1.287 . S
C348 C347 1.287 . S
C348 C349 1.524 . S
C348 H367 0.913 . S
C349 H325 0.950 . S
C349 C348 1.524 . S
C349 C350 1.415 . S
C350 H326 0.950 . S
C350 C345 1.363 . S
C350 C349 1.415 . S
C351 H327 0.951 . S
C351 C352 1.366 . S
C351 C353 1.388 . S
C352 C351 1.366 . S
C352 C356 1.385 . S
C353 H328 0.951 . S
C353 C351 1.388 . S
C353 C354 1.366 . S
C354 C353 1.366 . S
C354 C355 1.414 . S
C354 C357 1.499 . S
C355 H329 0.950 . S
C355 C354 1.414 . S
C355 C356 1.374 . S
C356 H330 0.950 . S
C356 C352 1.385 . S
C356 C355 1.374 . S
C357 C354 1.499 . S
C357 C358 1.373 . S
C357 C359 1.389 . S
C358 H331 0.950 . S
C358 C344 1.377 . S
C358 C357 1.373 . S
C359 C343 1.377 . S
C359 C357 1.389 . S
C359 C360 1.524 1_455 S
C360 C359 1.524 1_655 S
C360 C361 1.397 . S
C360 C365 1.363 . S
C361 H332 0.950 . S
C361 C360 1.397 . S
C361 C362 1.334 . S
C362 H333 0.950 . S
C362 C361 1.334 . S
C362 C363 1.287 . S
C363 C362 1.287 . S
C363 C364 1.524 . S
C363 H366 0.999 . S
C364 H334 0.950 . S
C364 C363 1.524 . S
C364 C365 1.415 . S
C365 H335 0.950 . S
C365 C360 1.363 . S
C365 C364 1.415 . S
H366 C363 0.999 . S
H367 C348 0.913 . S
H368 C386 0.951 . S
H369 C388 0.951 . S
H370 C390 0.957 . S
H371 C391 0.950 . S
H372 C393 0.950 . S
H373 C396 0.950 . S
H374 C397 0.950 . S
H375 C399 0.950 . S
H376 C400 0.950 1_556 S
H377 C401 0.951 . S
H378 C403 0.951 . S
H379 C405 0.950 . S
H380 C406 0.950 . S
H381 C408 0.950 . S
H382 C411 0.950 . S
H383 C412 0.950 . S
H384 C414 0.950 . S
H385 C415 0.950 . S
C386 H368 0.951 . S
C386 C387 1.366 . S
C386 C388 1.388 . S
C387 C386 1.366 . S
C387 C391 1.385 . S
C388 H369 0.951 . S
C388 C386 1.388 . S
C388 C389 1.366 . S
C389 C388 1.366 . S
C389 C390 1.414 . S
C389 C392 1.499 . S
C390 H370 0.957 . S
C390 C389 1.414 . S
C390 C391 1.374 . S
C391 H371 0.950 . S
C391 C387 1.385 . S
C391 C390 1.374 . S
C392 C389 1.499 . S
C392 C393 1.373 . S
C392 C394 1.389 . S
C393 H372 0.950 . S
C393 C392 1.373 . S
C393 C409 1.377 . S
C394 C392 1.389 . S
C394 C395 1.524 . S
C394 C408 1.377 . S
C395 C394 1.524 . S
C395 C396 1.397 1_556 S
C395 C400 1.363 1_556 S
C396 H373 0.950 . S
C396 C395 1.397 1_554 S
C396 C397 1.334 . S
C397 H374 0.950 . S
C397 C396 1.334 . S
C397 C398 1.287 . S
C398 C397 1.287 . S
C398 C399 1.524 . S
C398 H417 0.913 . S
C399 H375 0.950 . S
C399 C398 1.524 . S
C399 C400 1.415 . S
C400 H376 0.950 1_554 S
C400 C395 1.363 1_554 S
C400 C399 1.415 . S
C401 H377 0.951 . S
C401 C402 1.366 1_545 S
C401 C403 1.388 . S
C402 C401 1.366 1_565 S
C402 C406 1.385 . S
C403 H378 0.951 . S
C403 C401 1.388 . S
C403 C404 1.366 1_545 S
C404 C403 1.366 1_565 S
C404 C405 1.414 . S
C404 C407 1.499 . S
C405 H379 0.950 . S
C405 C404 1.414 . S
C405 C406 1.374 . S
C406 H380 0.950 . S
C406 C402 1.385 . S
C406 C405 1.374 . S
C407 C404 1.499 . S
C407 C408 1.373 . S
C407 C409 1.389 . S
C408 H381 0.950 . S
C408 C394 1.377 . S
C408 C407 1.373 . S
C409 C393 1.377 . S
C409 C407 1.389 . S
C409 C410 1.551 . S
C410 C409 1.551 . S
C410 C411 1.425 . S
C410 C415 1.314 1_565 S
C411 H382 0.950 . S
C411 C410 1.425 . S
C411 C412 1.334 . S
C412 H383 0.950 . S
C412 C411 1.334 . S
C412 C413 1.287 1_565 S
C413 C412 1.287 1_545 S
C413 C414 1.524 . S
C413 H416 0.999 . S
C414 H384 0.950 . S
C414 C413 1.524 . S
C414 C415 1.415 . S
C415 H385 0.950 . S
C415 C410 1.314 1_545 S
C415 C414 1.415 . S
H416 C413 0.999 . S
H417 C398 0.913 . S
H418 C436 0.951 . S
H419 C438 0.951 . S
H420 C440 0.950 . S
H421 C441 0.950 . S
H422 C443 0.950 . S
H423 C446 0.950 . S
H424 C447 0.950 . S
H425 C449 0.950 . S
H426 C450 0.950 . S
H427 C451 0.951 . S
H428 C453 0.951 . S
H429 C455 0.950 . S
H430 C456 0.950 . S
H431 C458 0.950 . S
H432 C461 0.950 . S
H433 C462 0.950 . S
H434 C464 0.950 1_554 S
H435 C465 0.950 1_554 S
C436 H418 0.951 . S
C436 C437 1.366 1_556 S
C436 C438 1.388 . S
C437 C436 1.366 1_554 S
C437 C441 1.385 . S
C438 H419 0.951 . S
C438 C436 1.388 . S
C438 C439 1.366 . S
C439 C438 1.366 . S
C439 C440 1.414 1_556 S
C439 C442 1.499 . S
C440 H420 0.950 . S
C440 C439 1.414 1_554 S
C440 C441 1.374 . S
C441 H421 0.950 . S
C441 C437 1.385 . S
C441 C440 1.374 . S
C442 C439 1.499 . S
C442 C443 1.373 . S
C442 C444 1.389 . S
C443 H422 0.950 . S
C443 C442 1.373 . S
C443 C459 1.377 . S
C444 C442 1.389 . S
C444 C445 1.524 . S
C444 C458 1.377 . S
C445 C444 1.524 . S
C445 C446 1.397 . S
C445 C450 1.363 . S
C446 H423 0.950 . S
C446 C445 1.397 . S
C446 C447 1.334 . S
C447 H424 0.950 . S
C447 C446 1.334 . S
C447 C448 1.287 . S
C448 C447 1.287 . S
C448 C449 1.524 . S
C448 H467 0.913 . S
C449 H425 0.950 . S
C449 C448 1.524 . S
C449 C450 1.415 . S
C450 H426 0.950 . S
C450 C445 1.363 . S
C450 C449 1.415 . S
C451 H427 0.951 . S
C451 C452 1.366 . S
C451 C453 1.388 . S
C452 C451 1.366 . S
C452 C456 1.385 . S
C453 H428 0.951 . S
C453 C451 1.388 . S
C453 C454 1.366 . S
C454 C453 1.366 . S
C454 C455 1.414 . S
C454 C457 1.499 . S
C455 H429 0.950 . S
C455 C454 1.414 . S
C455 C456 1.374 . S
C456 H430 0.950 . S
C456 C452 1.385 . S
C456 C455 1.374 . S
C457 C454 1.499 . S
C457 C458 1.373 . S
C457 C459 1.389 . S
C458 H431 0.950 . S
C458 C444 1.377 . S
C458 C457 1.373 . S
C459 C443 1.377 . S
C459 C457 1.389 . S
C459 C460 1.524 . S
C460 C459 1.524 . S
C460 C461 1.397 . S
C460 C465 1.363 . S
C461 H432 0.950 . S
C461 C460 1.397 . S
C461 C462 1.334 . S
C462 H433 0.950 . S
C462 C461 1.334 . S
C462 C463 1.287 . S
C463 C462 1.287 . S
C463 C464 1.524 . S
C463 H466 0.999 . S
C464 H434 0.950 1_556 S
C464 C463 1.524 . S
C464 C465 1.415 . S
C465 H435 0.950 1_556 S
C465 C460 1.363 . S
C465 C464 1.415 . S
H466 C463 0.999 . S
H467 C448 0.913 . S
H468 C486 0.951 . S
H469 C488 0.951 . S
H470 C490 0.950 1_554 S
H471 C491 0.950 . S
H472 C493 0.950 . S
H473 C496 0.950 . S
H474 C497 0.950 . S
H475 C499 0.950 . S
H476 C500 0.950 . S
H477 C501 0.951 . S
H478 C503 0.951 . S
H479 C505 0.950 . S
H480 C506 0.950 . S
H481 C508 0.950 . S
H482 C511 0.950 . S
H483 C512 0.950 . S
H484 C514 0.950 . S
H485 C515 0.950 . S
C486 H468 0.951 . S
C486 C487 1.366 1_556 S
C486 C488 1.388 . S
C487 C486 1.366 1_554 S
C487 C491 1.385 . S
C488 H469 0.951 . S
C488 C486 1.388 . S
C488 C489 1.366 . S
C489 C488 1.366 . S
C489 C490 1.414 . S
C489 C492 1.499 . S
C490 H470 0.950 1_556 S
C490 C489 1.414 . S
C490 C491 1.374 1_556 S
C491 H471 0.950 . S
C491 C487 1.385 . S
C491 C490 1.374 1_554 S
C492 C489 1.499 . S
C492 C493 1.373 . S
C492 C494 1.389 . S
C493 H472 0.950 . S
C493 C492 1.373 . S
C493 C509 1.377 . S
C494 C492 1.389 . S
C494 C495 1.524 . S
C494 C508 1.377 . S
C495 C494 1.524 . S
C495 C496 1.397 . S
C495 C500 1.363 . S
C496 H473 0.950 . S
C496 C495 1.397 . S
C496 C497 1.334 . S
C497 H474 0.950 . S
C497 C496 1.334 . S
C497 C498 1.287 . S
C498 C497 1.287 . S
C498 C499 1.524 . S
C498 H517 0.913 . S
C499 H475 0.950 . S
C499 C498 1.524 . S
C499 C500 1.415 . S
C500 H476 0.950 . S
C500 C495 1.363 . S
C500 C499 1.415 . S
C501 H477 0.951 . S
C501 C502 1.366 . S
C501 C503 1.388 . S
C502 C501 1.366 . S
C502 C506 1.385 . S
C503 H478 0.951 . S
C503 C501 1.388 . S
C503 C504 1.366 . S
C504 C503 1.366 . S
C504 C505 1.414 . S
C504 C507 1.499 . S
C505 H479 0.950 . S
C505 C504 1.414 . S
C505 C506 1.374 . S
C506 H480 0.950 . S
C506 C502 1.385 . S
C506 C505 1.374 . S
C507 C504 1.499 . S
C507 C508 1.373 . S
C507 C509 1.389 . S
C508 H481 0.950 . S
C508 C494 1.377 . S
C508 C507 1.373 . S
C509 C493 1.377 . S
C509 C507 1.389 . S
C509 C510 1.524 . S
C510 C509 1.524 . S
C510 C511 1.397 . S
C510 C515 1.363 1_556 S
C511 H482 0.950 . S
C511 C510 1.397 . S
C511 C512 1.334 . S
C512 H483 0.950 . S
C512 C511 1.334 . S
C512 C513 1.287 1_556 S
C513 C512 1.287 1_554 S
C513 C514 1.524 . S
C513 H516 0.999 . S
C514 H484 0.950 . S
C514 C513 1.524 . S
C514 C515 1.415 . S
C515 H485 0.950 . S
C515 C510 1.363 1_554 S
C515 C514 1.415 . S
H516 C513 0.999 . S
H517 C498 0.913 . S
H518 C536 0.951 . S
H519 C538 0.951 . S
H520 C540 0.950 1_554 S
H521 C541 0.950 . S
H522 C543 0.950 . S
H523 C546 0.950 . S
H524 C547 0.950 . S
H525 C549 0.950 . S
H526 C550 0.950 . S
H527 C551 0.951 . S
H528 C553 0.951 . S
H529 C555 0.950 . S
H530 C556 0.950 . S
H531 C558 0.950 . S
H532 C561 0.950 . S
H533 C562 0.950 . S
H534 C564 0.950 . S
H535 C565 0.994 1_554 S
C536 H518 0.951 . S
C536 C537 1.366 . S
C536 C538 1.388 . S
C537 C536 1.366 . S
C537 C541 1.385 1_556 S
C538 H519 0.951 . S
C538 C536 1.388 . S
C538 C539 1.366 . S
C539 C538 1.366 . S
C539 C540 1.414 . S
C539 C542 1.499 . S
C540 H520 0.950 1_556 S
C540 C539 1.414 . S
C540 C541 1.374 1_556 S
C541 H521 0.950 . S
C541 C537 1.385 1_554 S
C541 C540 1.374 1_554 S
C542 C539 1.499 . S
C542 C543 1.373 . S
C542 C544 1.389 . S
C543 H522 0.950 . S
C543 C542 1.373 . S
C543 C559 1.377 . S
C544 C542 1.389 . S
C544 C545 1.524 . S
C544 C558 1.377 . S
C545 C544 1.524 . S
C545 C546 1.397 . S
C545 C550 1.363 . S
C546 H523 0.950 . S
C546 C545 1.397 . S
C546 C547 1.334 . S
C547 H524 0.950 . S
C547 C546 1.334 . S
C547 C548 1.287 . S
C548 C547 1.287 . S
C548 C549 1.524 . S
C548 H567 0.913 . S
C549 H525 0.950 . S
C549 C548 1.524 . S
C549 C550 1.415 . S
C550 H526 0.950 . S
C550 C545 1.363 . S
C550 C549 1.415 . S
C551 H527 0.951 . S
C551 C552 1.366 . S
C551 C553 1.388 . S
C552 C551 1.366 . S
C552 C556 1.385 . S
C553 H528 0.951 . S
C553 C551 1.388 . S
C553 C554 1.366 . S
C554 C553 1.366 . S
C554 C555 1.414 . S
C554 C557 1.499 . S
C555 H529 0.950 . S
C555 C554 1.414 . S
C555 C556 1.374 . S
C556 H530 0.950 . S
C556 C552 1.385 . S
C556 C555 1.374 . S
C557 C554 1.499 . S
C557 C558 1.373 . S
C557 C559 1.389 . S
C558 H531 0.950 . S
C558 C544 1.377 . S
C558 C557 1.373 . S
C559 C543 1.377 . S
C559 C557 1.389 . S
C559 C560 1.524 1_655 S
C560 C559 1.524 1_455 S
C560 C561 1.397 . S
C560 C565 1.363 . S
C561 H532 0.950 . S
C561 C560 1.397 . S
C561 C562 1.334 . S
C562 H533 0.950 . S
C562 C561 1.334 . S
C562 C563 1.287 . S
C563 C562 1.287 . S
C563 C564 1.524 1_556 S
C563 H566 0.999 . S
C564 H534 0.950 . S
C564 C563 1.524 1_554 S
C564 C565 1.415 1_554 S
C565 H535 0.994 1_556 S
C565 C560 1.363 . S
C565 C564 1.415 1_556 S
H566 C563 0.999 . S
H567 C548 0.913 . S
H568 C586 0.951 . S
H569 C588 0.951 . S
H570 C590 0.950 . S
H571 C591 0.950 . S
H572 C593 0.950 . S
H573 C596 0.950 . S
H574 C597 0.950 . S
H575 C599 0.950 . S
H576 C600 0.950 . S
H577 C601 0.951 . S
H578 C603 0.951 1_655 S
H579 C605 0.950 . S
H580 C606 0.950 . S
H581 C608 0.950 . S
H582 C611 0.950 . S
H583 C612 0.950 . S
H584 C614 0.950 . S
H585 C615 0.950 . S
C586 H568 0.951 . S
C586 C587 1.366 . S
C586 C588 1.388 . S
C587 C586 1.366 . S
C587 C591 1.385 . S
C588 H569 0.951 . S
C588 C586 1.388 . S
C588 C589 1.366 . S
C589 C588 1.366 . S
C589 C590 1.414 . S
C589 C592 1.499 . S
C590 H570 0.950 . S
C590 C589 1.414 . S
C590 C591 1.374 . S
C591 H571 0.950 . S
C591 C587 1.385 . S
C591 C590 1.374 . S
C592 C589 1.499 . S
C592 C593 1.373 . S
C592 C594 1.389 . S
C593 H572 0.950 . S
C593 C592 1.373 . S
C593 C609 1.377 . S
C594 C592 1.389 . S
C594 C595 1.524 . S
C594 C608 1.377 . S
C595 C594 1.524 . S
C595 C596 1.397 . S
C595 C600 1.363 . S
C596 H573 0.950 . S
C596 C595 1.397 . S
C596 C597 1.334 . S
C597 H574 0.950 . S
C597 C596 1.334 . S
C597 C598 1.287 . S
C598 C597 1.287 . S
C598 C599 1.524 . S
C598 H617 0.913 . S
C599 H575 0.950 . S
C599 C598 1.524 . S
C599 C600 1.415 . S
C600 H576 0.950 . S
C600 C595 1.363 . S
C600 C599 1.415 . S
C601 H577 0.951 . S
C601 C602 1.366 1_655 S
C601 C603 1.388 1_655 S
C602 C601 1.366 1_455 S
C602 C606 1.385 . S
C603 H578 0.951 1_455 S
C603 C601 1.388 1_455 S
C603 C604 1.366 . S
C604 C603 1.366 . S
C604 C605 1.414 . S
C604 C607 1.499 . S
C605 H579 0.950 . S
C605 C604 1.414 . S
C605 C606 1.374 . S
C606 H580 0.950 . S
C606 C602 1.385 . S
C606 C605 1.374 . S
C607 C604 1.499 . S
C607 C608 1.373 . S
C607 C609 1.389 . S
C608 H581 0.950 . S
C608 C594 1.377 . S
C608 C607 1.373 . S
C609 C593 1.377 . S
C609 C607 1.389 . S
C609 C610 1.535 . S
C610 C609 1.535 . S
C610 C611 1.401 . S
C610 C615 1.349 1_455 S
C611 H582 0.950 . S
C611 C610 1.401 . S
C611 C612 1.334 1_455 S
C612 H583 0.950 . S
C612 C611 1.334 1_655 S
C612 C613 1.287 . S
C613 C612 1.287 . S
C613 C614 1.524 . S
C613 H616 0.999 . S
C614 H584 0.950 . S
C614 C613 1.524 . S
C614 C615 1.415 . S
C615 H585 0.950 . S
C615 C610 1.349 1_655 S
C615 C614 1.415 . S
H616 C613 0.999 . S
H617 C598 0.913 . S
H618 C636 0.951 . S
H619 C638 0.951 . S
H620 C640 0.950 . S
H621 C641 0.950 . S
H622 C643 0.950 . S
H623 C646 0.950 . S
H624 C647 0.950 . S
H625 C649 0.950 1_565 S
H626 C650 0.950 1_565 S
H627 C651 0.951 . S
H628 C653 0.951 . S
H629 C655 0.950 1_565 S
H630 C656 0.950 . S
H631 C658 0.950 . S
H632 C661 0.950 . S
H633 C662 0.950 . S
H634 C664 0.950 . S
H635 C665 0.950 . S
C636 H618 0.951 . S
C636 C637 1.366 . S
C636 C638 1.388 . S
C637 C636 1.366 . S
C637 C641 1.385 . S
C638 H619 0.951 . S
C638 C636 1.388 . S
C638 C639 1.366 . S
C639 C638 1.366 . S
C639 C640 1.414 . S
C639 C642 1.499 . S
C640 H620 0.950 . S
C640 C639 1.414 . S
C640 C641 1.374 . S
C641 H621 0.950 . S
C641 C637 1.385 . S
C641 C640 1.374 . S
C642 C639 1.499 . S
C642 C643 1.373 . S
C642 C644 1.389 . S
C643 H622 0.950 . S
C643 C642 1.373 . S
C643 C659 1.377 . S
C644 C642 1.389 . S
C644 C645 1.524 . S
C644 C658 1.377 . S
C645 C644 1.524 . S
C645 C646 1.397 . S
C645 C650 1.363 . S
C646 H623 0.950 . S
C646 C645 1.397 . S
C646 C647 1.334 . S
C647 H624 0.950 . S
C647 C646 1.334 . S
C647 C648 1.287 . S
C648 C647 1.287 . S
C648 C649 1.524 . S
C648 H667 0.913 . S
C649 H625 0.950 1_545 S
C649 C648 1.524 . S
C649 C650 1.415 . S
C650 H626 0.950 1_545 S
C650 C645 1.363 . S
C650 C649 1.415 . S
C651 H627 0.951 . S
C651 C652 1.366 . S
C651 C653 1.388 . S
C652 C651 1.366 . S
C652 C656 1.385 1_545 S
C653 H628 0.951 . S
C653 C651 1.388 . S
C653 C654 1.366 . S
C654 C653 1.366 . S
C654 C655 1.414 . S
C654 C657 1.499 . S
C655 H629 0.950 1_545 S
C655 C654 1.414 . S
C655 C656 1.374 1_545 S
C656 H630 0.950 . S
C656 C652 1.385 1_565 S
C656 C655 1.374 1_565 S
C657 C654 1.499 . S
C657 C658 1.373 . S
C657 C659 1.389 . S
C658 H631 0.950 . S
C658 C644 1.377 . S
C658 C657 1.373 . S
C659 C643 1.377 . S
C659 C657 1.389 . S
C659 C660 1.524 . S
C660 C659 1.524 . S
C660 C661 1.397 . S
C660 C665 1.363 . S
C661 H632 0.950 . S
C661 C660 1.397 . S
C661 C662 1.334 . S
C662 H633 0.950 . S
C662 C661 1.334 . S
C662 C663 1.287 . S
C663 C662 1.287 . S
C663 C664 1.524 . S
C663 H666 0.999 . S
C664 H634 0.950 . S
C664 C663 1.524 . S
C664 C665 1.415 . S
C665 H635 0.950 . S
C665 C660 1.363 . S
C665 C664 1.415 . S
H666 C663 0.999 . S
H667 C648 0.913 . S
H668 C686 0.951 . S
H669 C688 0.951 . S
H670 C690 0.950 . S
H671 C691 0.950 . S
H672 C693 0.950 . S
H673 C696 0.950 . S
H674 C697 0.950 . S
H675 C699 0.950 . S
H676 C700 0.950 . S
H677 C701 0.951 . S
H678 C703 0.951 . S
H679 C705 0.950 . S
H680 C706 0.950 . S
H681 C708 0.950 . S
H682 C711 0.950 . S
H683 C712 0.950 . S
H684 C714 0.950 . S
H685 C715 0.950 . S
C686 H668 0.951 . S
C686 C687 1.366 . S
C686 C688 1.388 . S
C687 C686 1.366 . S
C687 C691 1.385 . S
C688 H669 0.951 . S
C688 C686 1.388 . S
C688 C689 1.366 . S
C689 C688 1.366 . S
C689 C690 1.414 . S
C689 C692 1.499 . S
C690 H670 0.950 . S
C690 C689 1.414 . S
C690 C691 1.374 . S
C691 H671 0.950 . S
C691 C687 1.385 . S
C691 C690 1.374 . S
C692 C689 1.499 . S
C692 C693 1.373 . S
C692 C694 1.389 . S
C693 H672 0.950 . S
C693 C692 1.373 . S
C693 C709 1.377 . S
C694 C692 1.389 . S
C694 C695 1.524 . S
C694 C708 1.377 . S
C695 C694 1.524 . S
C695 C696 1.397 . S
C695 C700 1.363 . S
C696 H673 0.950 . S
C696 C695 1.397 . S
C696 C697 1.334 . S
C697 H674 0.950 . S
C697 C696 1.334 . S
C697 C698 1.287 . S
C698 C697 1.287 . S
C698 C699 1.524 . S
C698 H717 0.913 . S
C699 H675 0.950 . S
C699 C698 1.524 . S
C699 C700 1.415 . S
C700 H676 0.950 . S
C700 C695 1.363 . S
C700 C699 1.415 . S
C701 H677 0.951 . S
C701 C702 1.366 . S
C701 C703 1.388 . S
C702 C701 1.366 . S
C702 C706 1.385 . S
C703 H678 0.951 . S
C703 C701 1.388 . S
C703 C704 1.366 . S
C704 C703 1.366 . S
C704 C705 1.414 . S
C704 C707 1.499 . S
C705 H679 0.950 . S
C705 C704 1.414 . S
C705 C706 1.374 . S
C706 H680 0.950 . S
C706 C702 1.385 . S
C706 C705 1.374 . S
C707 C704 1.499 . S
C707 C708 1.373 . S
C707 C709 1.389 . S
C708 H681 0.950 . S
C708 C694 1.377 . S
C708 C707 1.373 . S
C709 C693 1.377 . S
C709 C707 1.389 . S
C709 C710 1.524 . S
C710 C709 1.524 . S
C710 C711 1.397 . S
C710 C715 1.363 . S
C711 H682 0.950 . S
C711 C710 1.397 . S
C711 C712 1.334 . S
C712 H683 0.950 . S
C712 C711 1.334 . S
C712 C713 1.287 . S
C713 C712 1.287 . S
C713 C714 1.524 . S
C713 H716 0.999 . S
C714 H684 0.950 . S
C714 C713 1.524 . S
C714 C715 1.415 . S
C715 H685 0.950 . S
C715 C710 1.363 . S
C715 C714 1.415 . S
H716 C713 0.999 . S
H717 C698 0.913 . S
H718 C736 0.951 . S
H719 C738 0.951 . S
H720 C740 0.950 . S
H721 C741 0.950 . S
H722 C743 0.950 . S
H723 C746 0.950 . S
H724 C747 0.950 . S
H725 C749 0.950 . S
H726 C750 0.950 . S
H727 C751 0.951 . S
H728 C753 0.951 . S
H729 C755 0.950 . S
H730 C756 0.950 . S
H731 C758 0.950 . S
H732 C761 0.950 . S
H733 C762 0.950 . S
H734 C764 0.950 . S
H735 C765 0.950 . S
C736 H718 0.951 . S
C736 C737 1.366 . S
C736 C738 1.388 . S
C737 C736 1.366 . S
C737 C741 1.385 . S
C738 H719 0.951 . S
C738 C736 1.388 . S
C738 C739 1.366 . S
C739 C738 1.366 . S
C739 C740 1.414 . S
C739 C742 1.499 . S
C740 H720 0.950 . S
C740 C739 1.414 . S
C740 C741 1.374 . S
C741 H721 0.950 . S
C741 C737 1.385 . S
C741 C740 1.374 . S
C742 C739 1.499 . S
C742 C743 1.373 . S
C742 C744 1.389 . S
C743 H722 0.950 . S
C743 C742 1.373 . S
C743 C759 1.377 . S
C744 C742 1.389 . S
C744 C745 1.524 . S
C744 C758 1.377 . S
C745 C744 1.524 . S
C745 C746 1.397 . S
C745 C750 1.363 . S
C746 H723 0.950 . S
C746 C745 1.397 . S
C746 C747 1.334 . S
C747 H724 0.950 . S
C747 C746 1.334 . S
C747 C748 1.287 . S
C748 C747 1.287 . S
C748 C749 1.524 . S
C748 H767 0.913 . S
C749 H725 0.950 . S
C749 C748 1.524 . S
C749 C750 1.415 . S
C750 H726 0.950 . S
C750 C745 1.363 . S
C750 C749 1.415 . S
C751 H727 0.951 . S
C751 C752 1.366 . S
C751 C753 1.388 . S
C752 C751 1.366 . S
C752 C756 1.385 . S
C753 H728 0.951 . S
C753 C751 1.388 . S
C753 C754 1.366 . S
C754 C753 1.366 . S
C754 C755 1.414 . S
C754 C757 1.499 . S
C755 H729 0.950 . S
C755 C754 1.414 . S
C755 C756 1.374 . S
C756 H730 0.950 . S
C756 C752 1.385 . S
C756 C755 1.374 . S
C757 C754 1.499 . S
C757 C758 1.373 . S
C757 C759 1.389 . S
C758 H731 0.950 . S
C758 C744 1.377 . S
C758 C757 1.373 . S
C759 C743 1.377 . S
C759 C757 1.389 . S
C759 C760 1.524 . S
C760 C759 1.524 . S
C760 C761 1.397 . S
C760 C765 1.363 . S
C761 H732 0.950 . S
C761 C760 1.397 . S
C761 C762 1.334 . S
C762 H733 0.950 . S
C762 C761 1.334 . S
C762 C763 1.287 . S
C763 C762 1.287 . S
C763 C764 1.524 . S
C763 H766 0.999 . S
C764 H734 0.950 . S
C764 C763 1.524 . S
C764 C765 1.415 . S
C765 H735 0.950 . S
C765 C760 1.363 . S
C765 C764 1.415 . S
H766 C763 0.999 . S
H767 C748 0.913 . S
H768 C786 0.951 1_554 S
H769 C788 0.951 . S
H770 C790 0.950 . S
H771 C791 0.950 . S
H772 C793 0.950 . S
H773 C796 0.950 . S
H774 C797 0.950 . S
H775 C799 0.950 . S
H776 C800 0.950 . S
H777 C801 0.951 1_455 S
H778 C803 0.951 . S
H779 C805 0.950 . S
H780 C806 0.950 . S
H781 C808 0.950 . S
H782 C811 0.950 . S
H783 C812 0.950 . S
H784 C814 0.950 . S
H785 C815 0.950 . S
C786 H768 0.951 1_556 S
C786 C787 1.366 . S
C786 C788 1.388 . S
C787 C786 1.366 . S
C787 C791 1.385 . S
C788 H769 0.951 . S
C788 C786 1.388 . S
C788 C789 1.366 . S
C789 C788 1.366 . S
C789 C790 1.414 . S
C789 C792 1.499 . S
C790 H770 0.950 . S
C790 C789 1.414 . S
C790 C791 1.374 . S
C791 H771 0.950 . S
C791 C787 1.385 . S
C791 C790 1.374 . S
C792 C789 1.499 . S
C792 C793 1.373 . S
C792 C794 1.389 . S
C793 H772 0.950 . S
C793 C792 1.373 . S
C793 C809 1.377 . S
C794 C792 1.389 . S
C794 C795 1.524 . S
C794 C808 1.377 . S
C795 C794 1.524 . S
C795 C796 1.397 . S
C795 C800 1.363 . S
C796 H773 0.950 . S
C796 C795 1.397 . S
C796 C797 1.334 . S
C797 H774 0.950 . S
C797 C796 1.334 . S
C797 C798 1.287 . S
C798 C797 1.287 . S
C798 C799 1.524 1_556 S
C798 H817 0.913 . S
C799 H775 0.950 . S
C799 C798 1.524 1_554 S
C799 C800 1.415 1_554 S
C800 H776 0.950 . S
C800 C795 1.363 . S
C800 C799 1.415 1_556 S
C801 H777 0.951 1_655 S
C801 C802 1.366 . S
C801 C803 1.388 . S
C802 C801 1.366 . S
C802 C806 1.385 . S
C803 H778 0.951 . S
C803 C801 1.388 . S
C803 C804 1.366 . S
C804 C803 1.366 . S
C804 C805 1.414 . S
C804 C807 1.499 . S
C805 H779 0.950 . S
C805 C804 1.414 . S
C805 C806 1.374 . S
C806 H780 0.950 . S
C806 C802 1.385 . S
C806 C805 1.374 . S
C807 C804 1.499 . S
C807 C808 1.373 . S
C807 C809 1.389 . S
C808 H781 0.950 . S
C808 C794 1.377 . S
C808 C807 1.373 . S
C809 C793 1.377 . S
C809 C807 1.389 . S
C809 C810 1.524 1_655 S
C810 C809 1.524 1_455 S
C810 C811 1.397 . S
C810 C815 1.363 . S
C811 H782 0.950 . S
C811 C810 1.397 . S
C811 C812 1.334 . S
C812 H783 0.950 . S
C812 C811 1.334 . S
C812 C813 1.287 . S
C813 C812 1.287 . S
C813 C814 1.524 . S
C813 H816 0.999 . S
C814 H784 0.950 . S
C814 C813 1.524 . S
C814 C815 1.415 . S
C815 H785 0.950 . S
C815 C810 1.363 . S
C815 C814 1.415 . S
H816 C813 0.999 . S
H817 C798 0.913 . S
H818 C836 0.951 . S
H819 C838 0.950 1_554 S
H820 C840 0.950 . S
H821 C841 0.950 . S
H822 C843 0.950 . S
H823 C846 0.950 . S
H824 C847 0.950 . S
H825 C849 0.950 . S
H826 C850 0.950 . S
H827 C851 0.951 . S
H828 C853 0.951 . S
H829 C855 0.950 . S
H830 C856 0.950 . S
H831 C858 0.950 . S
H832 C861 0.950 . S
H833 C862 0.950 . S
H834 C864 0.950 . S
H835 C865 0.950 . S
C836 H818 0.951 . S
C836 C837 1.366 1_554 S
C836 C838 1.387 1_554 S
C837 C836 1.366 1_556 S
C837 C841 1.385 . S
C838 H819 0.950 1_556 S
C838 C836 1.387 1_556 S
C838 C839 1.367 . S
C839 C838 1.367 . S
C839 C840 1.414 . S
C839 C842 1.499 . S
C840 H820 0.950 . S
C840 C839 1.414 . S
C840 C841 1.374 . S
C841 H821 0.950 . S
C841 C837 1.385 . S
C841 C840 1.374 . S
C842 C839 1.499 . S
C842 C843 1.373 . S
C842 C844 1.389 . S
C843 H822 0.950 . S
C843 C842 1.373 . S
C843 C859 1.377 . S
C844 C842 1.389 . S
C844 C845 1.524 . S
C844 C858 1.377 . S
C845 C844 1.524 . S
C845 C846 1.397 . S
C845 C850 1.363 1_556 S
C846 H823 0.950 . S
C846 C845 1.397 . S
C846 C847 1.334 . S
C847 H824 0.950 . S
C847 C846 1.334 . S
C847 C848 1.287 1_556 S
C848 C847 1.287 1_554 S
C848 C849 1.524 . S
C848 H867 0.913 . S
C849 H825 0.950 . S
C849 C848 1.524 . S
C849 C850 1.415 . S
C850 H826 0.950 . S
C850 C845 1.363 1_554 S
C850 C849 1.415 . S
C851 H827 0.951 . S
C851 C852 1.366 . S
C851 C853 1.388 . S
C852 C851 1.366 . S
C852 C856 1.385 . S
C853 H828 0.951 . S
C853 C851 1.388 . S
C853 C854 1.366 . S
C854 C853 1.366 . S
C854 C855 1.414 . S
C854 C857 1.499 . S
C855 H829 0.950 . S
C855 C854 1.414 . S
C855 C856 1.374 . S
C856 H830 0.950 . S
C856 C852 1.385 . S
C856 C855 1.374 . S
C857 C854 1.499 . S
C857 C858 1.373 . S
C857 C859 1.389 . S
C858 H831 0.950 . S
C858 C844 1.377 . S
C858 C857 1.373 . S
C859 C843 1.377 . S
C859 C857 1.389 . S
C859 C860 1.524 1_565 S
C860 C859 1.524 1_545 S
C860 C861 1.397 . S
C860 C865 1.363 . S
C861 H832 0.950 . S
C861 C860 1.397 . S
C861 C862 1.334 . S
C862 H833 0.950 . S
C862 C861 1.334 . S
C862 C863 1.287 . S
C863 C862 1.287 . S
C863 C864 1.524 . S
C863 H866 0.999 . S
C864 H834 0.950 . S
C864 C863 1.524 . S
C864 C865 1.415 . S
C865 H835 0.950 . S
C865 C860 1.363 . S
C865 C864 1.415 . S
H866 C863 0.999 . S
H867 C848 0.913 . S
H868 C886 0.951 . S
H869 C888 0.951 1_554 S
H870 C890 0.950 . S
H871 C891 0.950 . S
H872 C893 0.950 . S
H873 C896 0.950 1_556 S
H874 C897 0.950 . S
H875 C899 0.950 . S
H876 C900 0.950 . S
H877 C901 0.951 . S
H878 C903 0.951 . S
H879 C905 0.950 . S
H880 C906 0.950 . S
H881 C908 0.950 . S
H882 C911 0.950 . S
H883 C912 0.950 . S
H884 C914 0.950 . S
H885 C915 0.950 . S
C886 H868 0.951 . S
C886 C887 1.366 1_554 S
C886 C888 1.388 1_554 S
C887 C886 1.366 1_556 S
C887 C891 1.385 . S
C888 H869 0.951 1_556 S
C888 C886 1.388 1_556 S
C888 C889 1.366 . S
C889 C888 1.366 . S
C889 C890 1.414 . S
C889 C892 1.499 . S
C890 H870 0.950 . S
C890 C889 1.414 . S
C890 C891 1.374 . S
C891 H871 0.950 . S
C891 C887 1.385 . S
C891 C890 1.374 . S
C892 C889 1.499 . S
C892 C893 1.373 . S
C892 C894 1.389 . S
C893 H872 0.950 . S
C893 C892 1.373 . S
C893 C909 1.377 . S
C894 C892 1.389 . S
C894 C895 1.524 1_556 S
C894 C908 1.377 . S
C895 C894 1.524 1_554 S
C895 C896 1.397 . S
C895 C900 1.363 . S
C896 H873 0.950 1_554 S
C896 C895 1.397 . S
C896 C897 1.334 . S
C897 H874 0.950 . S
C897 C896 1.334 . S
C897 C898 1.287 . S
C898 C897 1.287 . S
C898 C899 1.524 . S
C898 H917 0.913 . S
C899 H875 0.950 . S
C899 C898 1.524 . S
C899 C900 1.415 . S
C900 H876 0.950 . S
C900 C895 1.363 . S
C900 C899 1.415 . S
C901 H877 0.951 . S
C901 C902 1.366 . S
C901 C903 1.388 . S
C902 C901 1.366 . S
C902 C906 1.385 . S
C903 H878 0.951 . S
C903 C901 1.388 . S
C903 C904 1.366 . S
C904 C903 1.366 . S
C904 C905 1.414 . S
C904 C907 1.499 . S
C905 H879 0.950 . S
C905 C904 1.414 . S
C905 C906 1.374 . S
C906 H880 0.950 . S
C906 C902 1.385 . S
C906 C905 1.374 . S
C907 C904 1.499 . S
C907 C908 1.373 . S
C907 C909 1.389 . S
C908 H881 0.950 . S
C908 C894 1.377 . S
C908 C907 1.373 . S
C909 C893 1.377 . S
C909 C907 1.389 . S
C909 C910 1.524 . S
C910 C909 1.524 . S
C910 C911 1.397 . S
C910 C915 1.363 . S
C911 H882 0.950 . S
C911 C910 1.397 . S
C911 C912 1.334 . S
C912 H883 0.950 . S
C912 C911 1.334 . S
C912 C913 1.287 . S
C913 C912 1.287 . S
C913 C914 1.524 . S
C913 H916 0.999 . S
C914 H884 0.950 . S
C914 C913 1.524 . S
C914 C915 1.415 . S
C915 H885 0.950 . S
C915 C910 1.363 . S
C915 C914 1.415 . S
H916 C913 0.999 . S
H917 C898 0.913 . S
H918 C936 0.951 . S
H919 C938 0.951 1_554 S
H920 C940 0.950 . S
H921 C941 0.950 . S
H922 C943 0.950 . S
H923 C946 0.950 1_556 S
H924 C947 0.950 . S
H925 C949 0.950 . S
H926 C950 0.950 . S
H927 C951 0.951 . S
H928 C953 0.951 . S
H929 C955 0.950 . S
H930 C956 0.950 . S
H931 C958 0.950 . S
H932 C961 0.950 . S
H933 C962 0.950 . S
H934 C964 0.950 . S
H935 C965 0.950 . S
C936 H918 0.951 . S
C936 C937 1.366 1_554 S
C936 C938 1.388 1_554 S
C937 C936 1.366 1_556 S
C937 C941 1.385 . S
C938 H919 0.951 1_556 S
C938 C936 1.388 1_556 S
C938 C939 1.366 . S
C939 C938 1.366 . S
C939 C940 1.414 . S
C939 C942 1.499 . S
C940 H920 0.950 . S
C940 C939 1.414 . S
C940 C941 1.374 . S
C941 H921 0.950 . S
C941 C937 1.385 . S
C941 C940 1.374 . S
C942 C939 1.499 . S
C942 C943 1.373 . S
C942 C944 1.389 . S
C943 H922 0.950 . S
C943 C942 1.373 . S
C943 C959 1.377 . S
C944 C942 1.389 . S
C944 C945 1.524 1_556 S
C944 C958 1.377 . S
C945 C944 1.524 1_554 S
C945 C946 1.397 . S
C945 C950 1.363 . S
C946 H923 0.950 1_554 S
C946 C945 1.397 . S
C946 C947 1.334 . S
C947 H924 0.950 . S
C947 C946 1.334 . S
C947 C948 1.287 . S
C948 C947 1.287 . S
C948 C949 1.524 . S
C948 H967 0.913 . S
C949 H925 0.950 . S
C949 C948 1.524 . S
C949 C950 1.415 . S
C950 H926 0.950 . S
C950 C945 1.363 . S
C950 C949 1.415 . S
C951 H927 0.951 . S
C951 C952 1.366 . S
C951 C953 1.388 . S
C952 C951 1.366 . S
C952 C956 1.385 . S
C953 H928 0.951 . S
C953 C951 1.388 . S
C953 C954 1.366 . S
C954 C953 1.366 . S
C954 C955 1.414 . S
C954 C957 1.499 . S
C955 H929 0.950 . S
C955 C954 1.414 . S
C955 C956 1.374 . S
C956 H930 0.950 . S
C956 C952 1.385 . S
C956 C955 1.374 . S
C957 C954 1.499 . S
C957 C958 1.373 . S
C957 C959 1.389 . S
C958 H931 0.950 . S
C958 C944 1.377 . S
C958 C957 1.373 . S
C959 C943 1.377 . S
C959 C957 1.389 . S
C959 C960 1.524 . S
C960 C959 1.524 . S
C960 C961 1.397 . S
C960 C965 1.363 . S
C961 H932 0.950 . S
C961 C960 1.397 . S
C961 C962 1.334 . S
C962 H933 0.950 . S
C962 C961 1.334 . S
C962 C963 1.287 . S
C963 C962 1.287 . S
C963 C964 1.524 . S
C963 H966 0.999 . S
C964 H934 0.950 . S
C964 C963 1.524 . S
C964 C965 1.415 . S
C965 H935 0.950 . S
C965 C960 1.363 . S
C965 C964 1.415 . S
H966 C963 0.999 . S
H967 C948 0.913 . S
H968 C986 0.951 . S
H969 C988 0.951 . S
H970 C990 0.950 . S
H971 C991 0.950 . S
H972 C993 0.950 . S
H973 C996 0.950 . S
H974 C997 0.950 . S
H975 C999 0.950 . S
H976 C1000 0.950 . S
H977 C1001 0.951 . S
H978 C1003 0.951 . S
H979 C1005 0.950 . S
H980 C1006 0.950 . S
H981 C1008 0.950 . S
H982 C1011 0.950 . S
H983 C1012 0.950 . S
H984 C1014 0.950 . S
H985 C1015 0.950 1_554 S
C986 H968 0.951 . S
C986 C987 1.366 . S
C986 C988 1.388 . S
C987 C986 1.366 . S
C987 C991 1.385 . S
C988 H969 0.951 . S
C988 C986 1.388 . S
C988 C989 1.366 . S
C989 C988 1.366 . S
C989 C990 1.414 . S
C989 C992 1.499 . S
C990 H970 0.950 . S
C990 C989 1.414 . S
C990 C991 1.374 . S
C991 H971 0.950 . S
C991 C987 1.385 . S
C991 C990 1.374 . S
C992 C989 1.499 . S
C992 C993 1.373 . S
C992 C994 1.389 . S
C993 H972 0.950 . S
C993 C992 1.373 . S
C993 C1009 1.377 1_554 S
C994 C992 1.389 . S
C994 C995 1.524 . S
C994 C1008 1.377 . S
C995 C994 1.524 . S
C995 C996 1.397 . S
C995 C1000 1.363 1_455 S
C996 H973 0.950 . S
C996 C995 1.397 . S
C996 C997 1.334 1_455 S
C997 H974 0.950 . S
C997 C996 1.334 1_655 S
C997 C998 1.287 . S
C998 C997 1.287 . S
C998 C999 1.524 . S
C998 H1017 0.913 . S
C999 H975 0.950 . S
C999 C998 1.524 . S
C999 C1000 1.415 . S
C1000 H976 0.950 . S
C1000 C995 1.363 1_655 S
C1000 C999 1.415 . S
C1001 H977 0.951 . S
C1001 C1002 1.366 . S
C1001 C1003 1.388 . S
C1002 C1001 1.366 . S
C1002 C1006 1.385 . S
C1003 H978 0.951 . S
C1003 C1001 1.388 . S
C1003 C1004 1.366 . S
C1004 C1003 1.366 . S
C1004 C1005 1.414 . S
C1004 C1007 1.499 . S
C1005 H979 0.950 . S
C1005 C1004 1.414 . S
C1005 C1006 1.374 . S
C1006 H980 0.950 . S
C1006 C1002 1.385 . S
C1006 C1005 1.374 . S
C1007 C1004 1.499 . S
C1007 C1008 1.373 1_556 S
C1007 C1009 1.389 . S
C1008 H981 0.950 . S
C1008 C994 1.377 . S
C1008 C1007 1.373 1_554 S
C1009 C993 1.377 1_556 S
C1009 C1007 1.389 . S
C1009 C1010 1.524 . S
C1010 C1009 1.524 . S
C1010 C1011 1.397 . S
C1010 C1015 1.363 . S
C1011 H982 0.950 . S
C1011 C1010 1.397 . S
C1011 C1012 1.334 . S
C1012 H983 0.950 . S
C1012 C1011 1.334 . S
C1012 C1013 1.287 . S
C1013 C1012 1.287 . S
C1013 C1014 1.524 . S
C1013 H1016 0.999 . S
C1014 H984 0.950 . S
C1014 C1013 1.524 . S
C1014 C1015 1.415 . S
C1015 H985 0.950 1_556 S
C1015 C1010 1.363 . S
C1015 C1014 1.415 . S
H1016 C1013 0.999 . S
H1017 C998 0.913 . S
H1018 C1036 0.951 . S
H1019 C1038 0.951 . S
H1020 C1040 0.950 . S
H1021 C1041 0.950 . S
H1022 C1043 0.950 . S
H1023 C1046 0.950 . S
H1024 C1047 0.950 . S
H1025 C1049 0.950 . S
H1026 C1050 0.950 . S
H1027 C1051 0.951 1_565 S
H1028 C1053 0.951 1_565 S
H1029 C1055 0.950 . S
H1030 C1056 0.950 . S
H1031 C1058 0.950 . S
H1032 C1061 0.950 . S
H1033 C1062 0.950 . S
H1034 C1064 0.950 . S
H1035 C1065 0.950 . S
C1036 H1018 0.951 . S
C1036 C1037 1.366 . S
C1036 C1038 1.388 . S
C1037 C1036 1.366 . S
C1037 C1041 1.385 . S
C1038 H1019 0.951 . S
C1038 C1036 1.388 . S
C1038 C1039 1.366 . S
C1039 C1038 1.366 . S
C1039 C1040 1.414 . S
C1039 C1042 1.499 . S
C1040 H1020 0.950 . S
C1040 C1039 1.414 . S
C1040 C1041 1.374 . S
C1041 H1021 0.950 . S
C1041 C1037 1.385 . S
C1041 C1040 1.374 . S
C1042 C1039 1.499 . S
C1042 C1043 1.373 . S
C1042 C1044 1.389 1_554 S
C1043 H1022 0.950 . S
C1043 C1042 1.373 . S
C1043 C1059 1.377 . S
C1044 C1042 1.389 1_556 S
C1044 C1045 1.524 . S
C1044 C1058 1.377 . S
C1045 C1044 1.524 . S
C1045 C1046 1.397 . S
C1045 C1050 1.363 . S
C1046 H1023 0.950 . S
C1046 C1045 1.397 . S
C1046 C1047 1.334 . S
C1047 H1024 0.950 . S
C1047 C1046 1.334 . S
C1047 C1048 1.287 . S
C1048 C1047 1.287 . S
C1048 C1049 1.524 . S
C1048 H1067 0.913 . S
C1049 H1025 0.950 . S
C1049 C1048 1.524 . S
C1049 C1050 1.415 . S
C1050 H1026 0.950 . S
C1050 C1045 1.363 . S
C1050 C1049 1.415 . S
C1051 H1027 0.951 1_545 S
C1051 C1052 1.366 . S
C1051 C1053 1.388 . S
C1052 C1051 1.366 . S
C1052 C1056 1.385 . S
C1053 H1028 0.951 1_545 S
C1053 C1051 1.388 . S
C1053 C1054 1.366 . S
C1054 C1053 1.366 . S
C1054 C1055 1.414 . S
C1054 C1057 1.499 . S
C1055 H1029 0.950 . S
C1055 C1054 1.414 . S
C1055 C1056 1.374 . S
C1056 H1030 0.950 . S
C1056 C1052 1.385 . S
C1056 C1055 1.374 . S
C1057 C1054 1.499 . S
C1057 C1058 1.373 . S
C1057 C1059 1.389 1_556 S
C1058 H1031 0.950 . S
C1058 C1044 1.377 . S
C1058 C1057 1.373 . S
C1059 C1043 1.377 . S
C1059 C1057 1.389 1_554 S
C1059 C1060 1.524 . S
C1060 C1059 1.524 . S
C1060 C1061 1.397 . S
C1060 C1065 1.363 1_545 S
C1061 H1032 0.950 . S
C1061 C1060 1.397 . S
C1061 C1062 1.334 . S
C1062 H1033 0.950 . S
C1062 C1061 1.334 . S
C1062 C1063 1.287 1_545 S
C1063 C1062 1.287 1_565 S
C1063 C1064 1.524 . S
C1063 H1066 0.999 . S
C1064 H1034 0.950 . S
C1064 C1063 1.524 . S
C1064 C1065 1.415 . S
C1065 H1035 0.950 . S
C1065 C1060 1.363 1_565 S
C1065 C1064 1.415 . S
H1066 C1063 0.999 . S
H1067 C1048 0.913 . S
H1068 C1086 0.951 . S
H1069 C1088 0.951 . S
H1070 C1090 0.950 . S
H1071 C1091 0.950 . S
H1072 C1093 0.950 . S
H1073 C1096 0.950 . S
H1074 C1097 0.950 . S
H1075 C1099 0.950 . S
H1076 C1100 0.950 . S
H1077 C1101 0.951 . S
H1078 C1103 0.951 . S
H1079 C1105 0.950 . S
H1080 C1106 0.950 . S
H1081 C1108 0.950 . S
H1082 C1111 0.950 . S
H1083 C1112 0.950 . S
H1084 C1114 0.939 1_554 S
H1085 C1115 0.950 . S
C1086 H1068 0.951 . S
C1086 C1087 1.366 . S
C1086 C1088 1.388 . S
C1087 C1086 1.366 . S
C1087 C1091 1.385 . S
C1088 H1069 0.951 . S
C1088 C1086 1.388 . S
C1088 C1089 1.366 . S
C1089 C1088 1.366 . S
C1089 C1090 1.414 . S
C1089 C1092 1.499 . S
C1090 H1070 0.950 . S
C1090 C1089 1.414 . S
C1090 C1091 1.374 . S
C1091 H1071 0.950 . S
C1091 C1087 1.385 . S
C1091 C1090 1.374 . S
C1092 C1089 1.499 . S
C1092 C1093 1.373 . S
C1092 C1094 1.389 . S
C1093 H1072 0.950 . S
C1093 C1092 1.373 . S
C1093 C1109 1.377 1_554 S
C1094 C1092 1.389 . S
C1094 C1095 1.524 . S
C1094 C1108 1.377 1_554 S
C1095 C1094 1.524 . S
C1095 C1096 1.397 . S
C1095 C1100 1.363 1_554 S
C1096 H1073 0.950 . S
C1096 C1095 1.397 . S
C1096 C1097 1.334 . S
C1097 H1074 0.950 . S
C1097 C1096 1.334 . S
C1097 C1098 1.287 . S
C1098 C1097 1.287 . S
C1098 C1099 1.524 1_554 S
C1098 H1117 0.913 . S
C1099 H1075 0.950 . S
C1099 C1098 1.524 1_556 S
C1099 C1100 1.415 . S
C1100 H1076 0.950 . S
C1100 C1095 1.363 1_556 S
C1100 C1099 1.415 . S
C1101 H1077 0.951 . S
C1101 C1102 1.366 . S
C1101 C1103 1.388 . S
C1102 C1101 1.366 . S
C1102 C1106 1.385 . S
C1103 H1078 0.951 . S
C1103 C1101 1.388 . S
C1103 C1104 1.366 . S
C1104 C1103 1.366 . S
C1104 C1105 1.414 . S
C1104 C1107 1.499 . S
C1105 H1079 0.950 . S
C1105 C1104 1.414 . S
C1105 C1106 1.374 . S
C1106 H1080 0.950 . S
C1106 C1102 1.385 . S
C1106 C1105 1.374 . S
C1107 C1104 1.499 . S
C1107 C1108 1.373 . S
C1107 C1109 1.389 . S
C1108 H1081 0.950 . S
C1108 C1094 1.377 1_556 S
C1108 C1107 1.373 . S
C1109 C1093 1.377 1_556 S
C1109 C1107 1.389 . S
C1109 C1110 1.524 . S
C1110 C1109 1.524 . S
C1110 C1111 1.397 . S
C1110 C1115 1.363 1_556 S
C1111 H1082 0.950 . S
C1111 C1110 1.397 . S
C1111 C1112 1.334 . S
C1112 H1083 0.950 . S
C1112 C1111 1.334 . S
C1112 C1113 1.287 . S
C1113 C1112 1.287 . S
C1113 C1114 1.540 . S
C1113 H1116 0.999 . S
C1114 H1084 0.939 1_556 S
C1114 C1113 1.540 . S
C1114 C1115 1.411 1_556 S
C1115 H1085 0.950 . S
C1115 C1110 1.363 1_554 S
C1115 C1114 1.411 1_554 S
H1116 C1113 0.999 . S
H1117 C1098 0.913 . S
H1118 C1136 0.951 . S
H1119 C1138 0.951 . S
H1120 C1140 0.950 . S
H1121 C1141 0.950 . S
H1122 C1143 0.950 . S
H1123 C1146 0.950 . S
H1124 C1147 0.950 . S
H1125 C1149 0.950 . S
H1126 C1150 0.950 . S
H1127 C1151 0.951 . S
H1128 C1153 0.951 . S
H1129 C1155 0.950 . S
H1130 C1156 0.950 . S
H1131 C1158 0.950 . S
H1132 C1161 0.950 . S
H1133 C1162 0.950 1_556 S
H1134 C1164 0.950 . S
H1135 C1165 0.950 . S
C1136 H1118 0.951 . S
C1136 C1137 1.366 . S
C1136 C1138 1.388 . S
C1137 C1136 1.366 . S
C1137 C1141 1.385 . S
C1138 H1119 0.951 . S
C1138 C1136 1.388 . S
C1138 C1139 1.366 . S
C1139 C1138 1.366 . S
C1139 C1140 1.414 . S
C1139 C1142 1.499 . S
C1140 H1120 0.950 . S
C1140 C1139 1.414 . S
C1140 C1141 1.374 . S
C1141 H1121 0.950 . S
C1141 C1137 1.385 . S
C1141 C1140 1.374 . S
C1142 C1139 1.499 . S
C1142 C1143 1.373 . S
C1142 C1144 1.389 1_554 S
C1143 H1122 0.950 . S
C1143 C1142 1.373 . S
C1143 C1159 1.377 . S
C1144 C1142 1.389 1_556 S
C1144 C1145 1.524 . S
C1144 C1158 1.377 . S
C1145 C1144 1.524 . S
C1145 C1146 1.397 1_556 S
C1145 C1150 1.363 . S
C1146 H1123 0.950 . S
C1146 C1145 1.397 1_554 S
C1146 C1147 1.334 . S
C1147 H1124 0.950 . S
C1147 C1146 1.334 . S
C1147 C1148 1.287 1_554 S
C1148 C1147 1.287 1_556 S
C1148 C1149 1.524 . S
C1148 H1167 0.913 . S
C1149 H1125 0.950 . S
C1149 C1148 1.524 . S
C1149 C1150 1.415 . S
C1150 H1126 0.950 . S
C1150 C1145 1.363 . S
C1150 C1149 1.415 . S
C1151 H1127 0.951 . S
C1151 C1152 1.366 . S
C1151 C1153 1.388 . S
C1152 C1151 1.366 . S
C1152 C1156 1.385 . S
C1153 H1128 0.951 . S
C1153 C1151 1.388 . S
C1153 C1154 1.366 . S
C1154 C1153 1.366 . S
C1154 C1155 1.414 . S
C1154 C1157 1.499 . S
C1155 H1129 0.950 . S
C1155 C1154 1.414 . S
C1155 C1156 1.374 . S
C1156 H1130 0.950 . S
C1156 C1152 1.385 . S
C1156 C1155 1.374 . S
C1157 C1154 1.499 . S
C1157 C1158 1.373 . S
C1157 C1159 1.389 1_556 S
C1158 H1131 0.950 . S
C1158 C1144 1.377 . S
C1158 C1157 1.373 . S
C1159 C1143 1.377 . S
C1159 C1157 1.389 1_554 S
C1159 C1160 1.524 . S
C1160 C1159 1.524 . S
C1160 C1161 1.397 1_554 S
C1160 C1165 1.363 . S
C1161 H1132 0.950 . S
C1161 C1160 1.397 1_556 S
C1161 C1162 1.334 1_556 S
C1162 H1133 0.950 1_554 S
C1162 C1161 1.334 1_554 S
C1162 C1163 1.287 . S
C1163 C1162 1.287 . S
C1163 C1164 1.524 . S
C1163 H1166 0.999 . S
C1164 H1134 0.950 . S
C1164 C1163 1.524 . S
C1164 C1165 1.415 . S
C1165 H1135 0.950 . S
C1165 C1160 1.363 . S
C1165 C1164 1.415 . S
H1166 C1163 0.999 . S
H1167 C1148 0.913 . S
H1168 C1186 0.951 . S
H1169 C1188 0.951 . S
H1170 C1190 0.950 . S
H1171 C1191 0.950 . S
H1172 C1193 0.950 . S
H1173 C1196 0.950 . S
H1174 C1197 0.950 . S
H1175 C1199 0.950 . S
H1176 C1200 0.965 . S
H1177 C1201 0.951 . S
H1178 C1203 0.951 . S
H1179 C1205 0.950 . S
H1180 C1206 0.950 . S
H1181 C1208 0.950 . S
H1182 C1211 0.950 . S
H1183 C1212 0.950 . S
H1184 C1214 0.950 . S
H1185 C1215 0.950 . S
C1186 H1168 0.951 . S
C1186 C1187 1.366 . S
C1186 C1188 1.388 . S
C1187 C1186 1.366 . S
C1187 C1191 1.385 . S
C1188 H1169 0.951 . S
C1188 C1186 1.388 . S
C1188 C1189 1.366 . S
C1189 C1188 1.366 . S
C1189 C1190 1.414 . S
C1189 C1192 1.499 . S
C1190 H1170 0.950 . S
C1190 C1189 1.414 . S
C1190 C1191 1.374 . S
C1191 H1171 0.950 . S
C1191 C1187 1.385 . S
C1191 C1190 1.374 . S
C1192 C1189 1.499 . S
C1192 C1193 1.373 . S
C1192 C1194 1.389 . S
C1193 H1172 0.950 . S
C1193 C1192 1.373 . S
C1193 C1209 1.377 . S
C1194 C1192 1.389 . S
C1194 C1195 1.524 . S
C1194 C1208 1.377 . S
C1195 C1194 1.524 . S
C1195 C1196 1.397 1_655 S
C1195 C1200 1.364 . S
C1196 H1173 0.950 . S
C1196 C1195 1.397 1_455 S
C1196 C1197 1.334 . S
C1197 H1174 0.950 . S
C1197 C1196 1.334 . S
C1197 C1198 1.287 . S
C1198 C1197 1.287 . S
C1198 C1199 1.524 . S
C1198 H1217 0.913 . S
C1199 H1175 0.950 . S
C1199 C1198 1.524 . S
C1199 C1200 1.400 1_455 S
C1200 H1176 0.965 . S
C1200 C1195 1.364 . S
C1200 C1199 1.400 1_655 S
C1201 H1177 0.951 . S
C1201 C1202 1.366 . S
C1201 C1203 1.388 . S
C1202 C1201 1.366 . S
C1202 C1206 1.385 . S
C1203 H1178 0.951 . S
C1203 C1201 1.388 . S
C1203 C1204 1.366 . S
C1204 C1203 1.366 . S
C1204 C1205 1.414 . S
C1204 C1207 1.499 . S
C1205 H1179 0.950 . S
C1205 C1204 1.414 . S
C1205 C1206 1.374 . S
C1206 H1180 0.950 . S
C1206 C1202 1.385 . S
C1206 C1205 1.374 . S
C1207 C1204 1.499 . S
C1207 C1208 1.373 . S
C1207 C1209 1.389 . S
C1208 H1181 0.950 . S
C1208 C1194 1.377 . S
C1208 C1207 1.373 . S
C1209 C1193 1.377 . S
C1209 C1207 1.389 . S
C1209 C1210 1.524 . S
C1210 C1209 1.524 . S
C1210 C1211 1.397 . S
C1210 C1215 1.363 . S
C1211 H1182 0.950 . S
C1211 C1210 1.397 . S
C1211 C1212 1.334 . S
C1212 H1183 0.950 . S
C1212 C1211 1.334 . S
C1212 C1213 1.287 . S
C1213 C1212 1.287 . S
C1213 C1214 1.524 . S
C1213 H1216 0.999 . S
C1214 H1184 0.950 . S
C1214 C1213 1.524 . S
C1214 C1215 1.415 . S
C1215 H1185 0.950 . S
C1215 C1210 1.363 . S
C1215 C1214 1.415 . S
H1216 C1213 0.999 . S
H1217 C1198 0.913 . S
H1218 C1236 0.951 . S
H1219 C1238 0.951 . S
H1220 C1240 0.950 . S
H1221 C1241 0.950 . S
H1222 C1243 0.950 1_545 S
H1223 C1246 0.950 . S
H1224 C1247 0.950 . S
H1225 C1249 0.950 . S
H1226 C1250 0.950 . S
H1227 C1251 0.951 . S
H1228 C1253 0.935 1_545 S
H1229 C1255 0.950 . S
H1230 C1256 0.950 . S
H1231 C1258 0.950 . S
H1232 C1261 0.950 . S
H1233 C1262 0.950 . S
H1234 C1264 0.950 . S
H1235 C1265 0.950 . S
C1236 H1218 0.951 . S
C1236 C1237 1.366 . S
C1236 C1238 1.388 . S
C1237 C1236 1.366 . S
C1237 C1241 1.385 . S
C1238 H1219 0.951 . S
C1238 C1236 1.388 . S
C1238 C1239 1.366 . S
C1239 C1238 1.366 . S
C1239 C1240 1.414 . S
C1239 C1242 1.499 . S
C1240 H1220 0.950 . S
C1240 C1239 1.414 . S
C1240 C1241 1.374 . S
C1241 H1221 0.950 . S
C1241 C1237 1.385 . S
C1241 C1240 1.374 . S
C1242 C1239 1.499 . S
C1242 C1243 1.373 . S
C1242 C1244 1.389 . S
C1243 H1222 0.950 1_565 S
C1243 C1242 1.373 . S
C1243 C1259 1.377 . S
C1244 C1242 1.389 . S
C1244 C1245 1.524 . S
C1244 C1258 1.377 . S
C1245 C1244 1.524 . S
C1245 C1246 1.397 . S
C1245 C1250 1.363 . S
C1246 H1223 0.950 . S
C1246 C1245 1.397 . S
C1246 C1247 1.334 . S
C1247 H1224 0.950 . S
C1247 C1246 1.334 . S
C1247 C1248 1.287 . S
C1248 C1247 1.287 . S
C1248 C1249 1.524 . S
C1248 H1267 0.913 . S
C1249 H1225 0.950 . S
C1249 C1248 1.524 . S
C1249 C1250 1.415 . S
C1250 H1226 0.950 . S
C1250 C1245 1.363 . S
C1250 C1249 1.415 . S
C1251 H1227 0.951 . S
C1251 C1252 1.366 1_545 S
C1251 C1253 1.381 1_545 S
C1252 C1251 1.366 1_565 S
C1252 C1256 1.385 . S
C1253 H1228 0.935 1_565 S
C1253 C1251 1.381 1_565 S
C1253 C1254 1.388 . S
C1254 C1253 1.388 . S
C1254 C1255 1.414 . S
C1254 C1257 1.499 . S
C1255 H1229 0.950 . S
C1255 C1254 1.414 . S
C1255 C1256 1.374 . S
C1256 H1230 0.950 . S
C1256 C1252 1.385 . S
C1256 C1255 1.374 . S
C1257 C1254 1.499 . S
C1257 C1258 1.373 . S
C1257 C1259 1.389 . S
C1258 H1231 0.950 . S
C1258 C1244 1.377 . S
C1258 C1257 1.373 . S
C1259 C1243 1.377 . S
C1259 C1257 1.389 . S
C1259 C1260 1.524 1_565 S
C1260 C1259 1.524 1_545 S
C1260 C1261 1.397 . S
C1260 C1265 1.363 . S
C1261 H1232 0.950 . S
C1261 C1260 1.397 . S
C1261 C1262 1.334 . S
C1262 H1233 0.950 . S
C1262 C1261 1.334 . S
C1262 C1263 1.287 . S
C1263 C1262 1.287 . S
C1263 C1264 1.524 . S
C1263 H1266 0.999 . S
C1264 H1234 0.950 . S
C1264 C1263 1.524 . S
C1264 C1265 1.415 . S
C1265 H1235 0.950 . S
C1265 C1260 1.363 . S
C1265 C1264 1.415 . S
H1266 C1263 0.999 . S
H1267 C1248 0.913 . S
H1268 C1286 0.951 . S
H1269 C1288 0.951 . S
H1270 C1290 0.950 . S
H1271 C1291 0.950 . S
H1272 C1293 0.950 . S
H1273 C1296 0.950 . S
H1274 C1297 0.950 . S
H1275 C1299 0.950 . S
H1276 C1300 0.950 . S
H1277 C1301 0.951 . S
H1278 C1303 0.951 . S
H1279 C1305 0.950 . S
H1280 C1306 0.950 . S
H1281 C1308 0.950 . S
H1282 C1311 0.950 . S
H1283 C1312 0.950 . S
H1284 C1314 0.950 . S
H1285 C1315 0.950 . S
C1286 H1268 0.951 . S
C1286 C1287 1.366 . S
C1286 C1288 1.388 . S
C1287 C1286 1.366 . S
C1287 C1291 1.385 . S
C1288 H1269 0.951 . S
C1288 C1286 1.388 . S
C1288 C1289 1.366 . S
C1289 C1288 1.366 . S
C1289 C1290 1.414 . S
C1289 C1292 1.499 . S
C1290 H1270 0.950 . S
C1290 C1289 1.414 . S
C1290 C1291 1.374 . S
C1291 H1271 0.950 . S
C1291 C1287 1.385 . S
C1291 C1290 1.374 . S
C1292 C1289 1.499 . S
C1292 C1293 1.373 . S
C1292 C1294 1.389 . S
C1293 H1272 0.950 . S
C1293 C1292 1.373 . S
C1293 C1309 1.377 . S
C1294 C1292 1.389 . S
C1294 C1295 1.524 . S
C1294 C1308 1.377 . S
C1295 C1294 1.524 . S
C1295 C1296 1.397 . S
C1295 C1300 1.363 . S
C1296 H1273 0.950 . S
C1296 C1295 1.397 . S
C1296 C1297 1.334 . S
C1297 H1274 0.950 . S
C1297 C1296 1.334 . S
C1297 C1298 1.287 . S
C1298 C1297 1.287 . S
C1298 C1299 1.524 . S
C1298 H1317 0.913 . S
C1299 H1275 0.950 . S
C1299 C1298 1.524 . S
C1299 C1300 1.415 . S
C1300 H1276 0.950 . S
C1300 C1295 1.363 . S
C1300 C1299 1.415 . S
C1301 H1277 0.951 . S
C1301 C1302 1.366 . S
C1301 C1303 1.388 . S
C1302 C1301 1.366 . S
C1302 C1306 1.385 . S
C1303 H1278 0.951 . S
C1303 C1301 1.388 . S
C1303 C1304 1.366 . S
C1304 C1303 1.366 . S
C1304 C1305 1.414 . S
C1304 C1307 1.499 . S
C1305 H1279 0.950 . S
C1305 C1304 1.414 . S
C1305 C1306 1.374 . S
C1306 H1280 0.950 . S
C1306 C1302 1.385 . S
C1306 C1305 1.374 . S
C1307 C1304 1.499 . S
C1307 C1308 1.373 . S
C1307 C1309 1.389 . S
C1308 H1281 0.950 . S
C1308 C1294 1.377 . S
C1308 C1307 1.373 . S
C1309 C1293 1.377 . S
C1309 C1307 1.389 . S
C1309 C1310 1.524 . S
C1310 C1309 1.524 . S
C1310 C1311 1.397 . S
C1310 C1315 1.363 . S
C1311 H1282 0.950 . S
C1311 C1310 1.397 . S
C1311 C1312 1.334 . S
C1312 H1283 0.950 . S
C1312 C1311 1.334 . S
C1312 C1313 1.287 . S
C1313 C1312 1.287 . S
C1313 C1314 1.524 . S
C1313 H1316 0.999 . S
C1314 H1284 0.950 . S
C1314 C1313 1.524 . S
C1314 C1315 1.415 . S
C1315 H1285 0.950 . S
C1315 C1310 1.363 . S
C1315 C1314 1.415 . S
H1316 C1313 0.999 . S
H1317 C1298 0.913 . S
H1318 C1336 0.951 . S
H1319 C1338 0.951 . S
H1320 C1340 0.950 . S
H1321 C1341 0.950 . S
H1322 C1343 0.950 . S
H1323 C1346 0.950 . S
H1324 C1347 0.950 . S
H1325 C1349 0.950 . S
H1326 C1350 0.950 . S
H1327 C1351 0.951 . S
H1328 C1353 0.951 . S
H1329 C1355 0.950 . S
H1330 C1356 0.950 . S
H1331 C1358 0.950 . S
H1332 C1361 0.950 . S
H1333 C1362 0.950 . S
H1334 C1364 0.950 . S
H1335 C1365 0.950 . S
C1336 H1318 0.951 . S
C1336 C1337 1.366 . S
C1336 C1338 1.388 . S
C1337 C1336 1.366 . S
C1337 C1341 1.385 . S
C1338 H1319 0.951 . S
C1338 C1336 1.388 . S
C1338 C1339 1.366 . S
C1339 C1338 1.366 . S
C1339 C1340 1.414 . S
C1339 C1342 1.499 . S
C1340 H1320 0.950 . S
C1340 C1339 1.414 . S
C1340 C1341 1.374 . S
C1341 H1321 0.950 . S
C1341 C1337 1.385 . S
C1341 C1340 1.374 . S
C1342 C1339 1.499 . S
C1342 C1343 1.373 . S
C1342 C1344 1.389 . S
C1343 H1322 0.950 . S
C1343 C1342 1.373 . S
C1343 C1359 1.377 . S
C1344 C1342 1.389 . S
C1344 C1345 1.524 . S
C1344 C1358 1.377 . S
C1345 C1344 1.524 . S
C1345 C1346 1.397 . S
C1345 C1350 1.363 . S
C1346 H1323 0.950 . S
C1346 C1345 1.397 . S
C1346 C1347 1.334 . S
C1347 H1324 0.950 . S
C1347 C1346 1.334 . S
C1347 C1348 1.287 . S
C1348 C1347 1.287 . S
C1348 C1349 1.524 . S
C1348 H1367 0.913 . S
C1349 H1325 0.950 . S
C1349 C1348 1.524 . S
C1349 C1350 1.415 . S
C1350 H1326 0.950 . S
C1350 C1345 1.363 . S
C1350 C1349 1.415 . S
C1351 H1327 0.951 . S
C1351 C1352 1.366 . S
C1351 C1353 1.388 . S
C1352 C1351 1.366 . S
C1352 C1356 1.385 . S
C1353 H1328 0.951 . S
C1353 C1351 1.388 . S
C1353 C1354 1.366 . S
C1354 C1353 1.366 . S
C1354 C1355 1.414 . S
C1354 C1357 1.499 . S
C1355 H1329 0.950 . S
C1355 C1354 1.414 . S
C1355 C1356 1.374 . S
C1356 H1330 0.950 . S
C1356 C1352 1.385 . S
C1356 C1355 1.374 . S
C1357 C1354 1.499 . S
C1357 C1358 1.373 . S
C1357 C1359 1.389 . S
C1358 H1331 0.950 . S
C1358 C1344 1.377 . S
C1358 C1357 1.373 . S
C1359 C1343 1.377 . S
C1359 C1357 1.389 . S
C1359 C1360 1.524 . S
C1360 C1359 1.524 . S
C1360 C1361 1.397 . S
C1360 C1365 1.363 . S
C1361 H1332 0.950 . S
C1361 C1360 1.397 . S
C1361 C1362 1.334 . S
C1362 H1333 0.950 . S
C1362 C1361 1.334 . S
C1362 C1363 1.287 . S
C1363 C1362 1.287 . S
C1363 C1364 1.524 . S
C1363 H1366 0.999 . S
C1364 H1334 0.950 . S
C1364 C1363 1.524 . S
C1364 C1365 1.415 . S
C1365 H1335 0.950 . S
C1365 C1360 1.363 . S
C1365 C1364 1.415 . S
H1366 C1363 0.999 . S
H1367 C1348 0.913 . S
C187 C76 1.585 . S
C202 C89 1.610 . S
C252 C124 1.634 . S
C237 C87 1.594 . S
C302 C129 1.286 . S
C287 C54 1.267 . S
C352 C149 1.404 . S
C337 C65 1.382 . S
C402 C97 1.611 1_565 S
C387 C32 1.590 1_556 S
C437 C43 1.603 . S
C452 C114 1.634 . S
C487 C10 1.270 . S
C502 C137 1.286 . S
C537 C21 1.388 . S
C552 C157 1.404 1_655 S
C602 C107 1.089 . S
C587 C60 1.083 . S
C652 C116 0.783 . S
C637 C71 0.780 . S
C702 C147 1.206 . S
C687 C82 1.198 . S
C737 C49 0.839 . S
C752 C167 0.836 . S
C787 C16 1.078 . S
C802 C96 1.090 1_655 S
C852 C127 0.783 1_565 S
C837 C27 0.781 1_556 S
C902 C136 1.205 . S
C887 C38 1.191 1_556 S
C937 C5 0.838 1_556 S
C952 C156 0.836 . S
C987 C59 1.466 . S
C1002 C94 1.481 . S
C1037 C70 1.404 . S
C1052 C117 1.455 . S
C1102 C134 1.602 . S
C1087 C81 1.562 . S
C1152 C154 1.605 . S
C1137 C48 1.577 . S
C1187 C15 1.459 . S
C1202 C104 1.482 . S
C1252 C109 1.468 . S
C1237 C26 1.397 . S
C1302 C144 1.602 . S
C1287 C37 1.548 . S
C1337 C4 1.573 . S
C1352 C164 1.605 . S
