# Generated by pormake.
# Topology tsx, (6,3)-cn, num edge types: 1
# Building blocks:
#     Node 0, Type 0, BuildingBlock: LEVNOQ01_clean_sbu_1, # of connection points: 6
#     Node 1, Type 0, BuildingBlock: LEVNOQ01_clean_sbu_1, # of connection points: 6
#     Node 2, Type 1, BuildingBlock: ESEHIV_clean_linker_0, # of connection points: 3
#     Node 3, Type 1, BuildingBlock: ESEHIV_clean_linker_0, # of connection points: 3
#     Node 4, Type 1, BuildingBlock: ESEHIV_clean_linker_0, # of connection points: 3
#     Node 5, Type 1, BuildingBlock: ESEHIV_clean_linker_0, # of connection points: 3
#     Edge 6, Type (0, 1), BuildingBlock: UVAHIK_clean_linker_0, # of connection points: 2
#     Edge 7, Type (0, 1), BuildingBlock: UVAHIK_clean_linker_0, # of connection points: 2
#     Edge 8, Type (0, 1), BuildingBlock: UVAHIK_clean_linker_0, # of connection points: 2
#     Edge 9, Type (0, 1), BuildingBlock: UVAHIK_clean_linker_0, # of connection points: 2
#     Edge 10, Type (0, 1), BuildingBlock: UVAHIK_clean_linker_0, # of connection points: 2
#     Edge 11, Type (0, 1), BuildingBlock: UVAHIK_clean_linker_0, # of connection points: 2
#     Edge 12, Type (0, 1), BuildingBlock: UVAHIK_clean_linker_0, # of connection points: 2
#     Edge 13, Type (0, 1), BuildingBlock: UVAHIK_clean_linker_0, # of connection points: 2
#     Edge 14, Type (0, 1), BuildingBlock: UVAHIK_clean_linker_0, # of connection points: 2
#     Edge 15, Type (0, 1), BuildingBlock: UVAHIK_clean_linker_0, # of connection points: 2
#     Edge 16, Type (0, 1), BuildingBlock: UVAHIK_clean_linker_0, # of connection points: 2
#     Edge 17, Type (0, 1), BuildingBlock: UVAHIK_clean_linker_0, # of connection points: 2
# Relax obj value: 0.130
# Max RMSD: 0.158
# Mean RMSD: 0.120
data_MOF--net-tsx--node1-LEVNOQ01_clean_sbu_1--node2-ESEHIV_clean_linker_0--edge1-UVAHIK_clean_linker_0
_symmetry_space_group_name_H-M    P1
_symmetry_Int_Tables_number       1
_symmetry_cell_setting            triclinic
loop_
_symmetry_equiv_pos_as_xyz
'x, y, z'
_cell_length_a     22.36849
_cell_length_b     27.094086
_cell_length_c     44.991401
_cell_angle_alpha  97.508982
_cell_angle_beta   90.428147
_cell_angle_gamma 90.838389
loop_
_atom_site_label
_atom_site_type_symbol
_atom_site_fract_x
_atom_site_fract_y
_atom_site_fract_z
_atom_type_partial_charge
O0 O 0.16119 0.05532 0.07819 0.0
Mg1 Mg 0.2007 0.05383 0.03545 0.0
O2 O 0.06874 0.04025 0.06078 0.0
Mg3 Mg 0.06742 0.04229 0.00874 0.0
O4 O 0.15007 0.0938 0.00974 0.0
O5 O 0.24397 0.11526 0.02272 0.0
O6 O 0.06652 0.04313 0.95658 0.0
O7 O 0.01266 0.11669 0.01709 0.0
Mg8 Mg 0.93425 0.0297 0.98191 0.0
O9 O 0.9853 0.99029 0.00755 0.0
O10 O 0.97399 0.02598 0.93935 0.0
O11 O 0.91713 0.1 0.00559 0.0
O12 O 0.89184 0.96778 0.99393 0.0
C13 C 0.17553 0.95315 0.00193 0.0
C14 C 0.10628 0.04645 0.08261 0.0
C15 C 0.19489 0.1246 0.00944 0.0
C16 C 0.02885 0.03462 0.93493 0.0
C17 C 0.95811 0.13007 0.0163 0.0
C18 C 0.94063 0.9594 0.00773 0.0
O19 O 0.21684 0.98286 0.01269 0.0
O20 O 0.12163 0.96783 0.00035 0.0
O21 O 0.65469 0.5591 0.58022 0.0
Mg22 Mg 0.69498 0.55615 0.53779 0.0
O23 O 0.56351 0.54243 0.56165 0.0
Mg24 Mg 0.56521 0.54361 0.50965 0.0
O25 O 0.6474 0.59654 0.51095 0.0
O26 O 0.74097 0.61641 0.52594 0.0
O27 O 0.56638 0.54346 0.4576 0.0
O28 O 0.50911 0.61741 0.51667 0.0
Mg29 Mg 0.43223 0.52862 0.48129 0.0
O30 O 0.48373 0.49135 0.50782 0.0
O31 O 0.4748 0.52457 0.43942 0.0
O32 O 0.41419 0.59933 0.50428 0.0
O33 O 0.39143 0.46618 0.49387 0.0
C34 C 0.6738 0.45456 0.50544 0.0
C35 C 0.59974 0.5496 0.58396 0.0
C36 C 0.69342 0.62644 0.5116 0.0
C37 C 0.52973 0.53394 0.4356 0.0
C38 C 0.45438 0.63008 0.51514 0.0
C39 C 0.44021 0.45947 0.50814 0.0
O40 O 0.71426 0.48479 0.51654 0.0
O41 O 0.62011 0.46908 0.50263 0.0
H42 H 0.92312 0.01994 0.39652 0.0
H43 H 0.09208 0.94639 0.39127 0.0
H44 H 0.0111 0.98937 0.47718 0.0
C45 C 0.96004 0.00375 0.40741 0.0
C46 C 0.96164 0.00706 0.43882 0.0
C47 C 0.00687 0.98193 0.39002 0.0
C48 C 0.05485 0.96181 0.40449 0.0
C49 C 0.05674 0.96365 0.43592 0.0
C50 C 0.01006 0.98694 0.45296 0.0
H51 H 0.9321 0.02123 0.61002 0.0
H52 H 0.08555 0.11883 0.62532 0.0
H53 H 0.01595 0.07978 0.5359 0.0
C54 C 0.96625 0.0445 0.60165 0.0
C55 C 0.96883 0.04807 0.57076 0.0
C56 C 0.00818 0.07023 0.62158 0.0
C57 C 0.05192 0.10005 0.61025 0.0
C58 C 0.05482 0.10417 0.57954 0.0
C59 C 0.01363 0.0774 0.55972 0.0
H60 H 0.43146 0.51414 0.89224 0.0
H61 H 0.59401 0.43209 0.89184 0.0
H62 H 0.51208 0.48815 0.9757 0.0
C63 C 0.46574 0.49667 0.90426 0.0
C64 C 0.46579 0.50318 0.93572 0.0
C65 C 0.51206 0.47144 0.88826 0.0
C66 C 0.55785 0.45122 0.90416 0.0
C67 C 0.55827 0.45651 0.93572 0.0
C68 C 0.51218 0.48312 0.9514 0.0
H69 H 0.44077 0.51728 0.11379 0.0
H70 H 0.5874 0.62216 0.12405 0.0
H71 H 0.50943 0.57774 0.03673 0.0
C72 C 0.47202 0.54161 0.10418 0.0
C73 C 0.47017 0.54414 0.07317 0.0
C74 C 0.51372 0.5701 0.12279 0.0
C75 C 0.55336 0.60161 0.11004 0.0
C76 C 0.55199 0.60499 0.07917 0.0
C77 C 0.51014 0.5761 0.06067 0.0
C78 C 0.24039 0.18692 0.98067 0.0
C79 C 0.19109 0.17138 0.99631 0.0
C80 C 0.24766 0.23679 0.97661 0.0
C81 C 0.26168 0.34636 0.97292 0.0
H82 H 0.24725 0.41429 0.05381 0.0
C83 C 0.38497 0.53009 0.03607 0.0
C84 C 0.42812 0.51098 0.05418 0.0
C85 C 0.3411 0.49842 0.02102 0.0
C86 C 0.25009 0.39657 0.03084 0.0
H87 H 0.10841 0.19426 0.01793 0.0
H88 H 0.12001 0.28188 0.01037 0.0
H89 H 0.18911 0.33866 0.03869 0.0
H90 H 0.46111 0.44419 0.06995 0.0
H91 H 0.3847 0.38914 0.04382 0.0
H92 H 0.32767 0.40244 0.96652 0.0
C93 C 0.15329 0.2556 0.00125 0.0
C94 C 0.21657 0.35322 0.02203 0.0
C95 C 0.14601 0.20539 0.0052 0.0
C96 C 0.42816 0.45976 0.05619 0.0
C97 C 0.38467 0.42838 0.04129 0.0
C98 C 0.29535 0.38986 0.98182 0.0
C99 C 0.20605 0.27235 0.98852 0.0
C100 C 0.22468 0.32586 0.99356 0.0
C101 C 0.34031 0.44753 0.02405 0.0
C102 C 0.29189 0.41364 0.01134 0.0
H103 H 0.2759 0.16124 0.97376 0.0
H104 H 0.28907 0.24798 0.96692 0.0
H105 H 0.26826 0.32666 0.95068 0.0
H106 H 0.38363 0.56964 0.0347 0.0
H107 H 0.30679 0.51378 0.00799 0.0
C108 C 0.14629 0.86252 0.98804 0.0
C109 C 0.19069 0.90001 0.99393 0.0
C110 C 0.16201 0.81209 0.98446 0.0
C111 C 0.23155 0.71331 0.95913 0.0
H112 H 0.33046 0.67567 0.02354 0.0
C113 C 0.43932 0.57767 0.9714 0.0
C114 C 0.42069 0.5359 0.9516 0.0
C115 C 0.39873 0.6148 0.98123 0.0
C116 C 0.30283 0.68545 0.00538 0.0
H117 H 0.28648 0.91373 0.99906 0.0
H118 H 0.31306 0.82665 0.99326 0.0
H119 H 0.28144 0.75623 0.02966 0.0
H120 H 0.34454 0.49779 0.92852 0.0
H121 H 0.27291 0.56205 0.94645 0.0
H122 H 0.25641 0.6444 0.93388 0.0
C123 C 0.26632 0.83614 0.99176 0.0
C124 C 0.27448 0.73135 0.00899 0.0
C125 C 0.25092 0.88605 0.99493 0.0
C126 C 0.35994 0.53 0.94361 0.0
C127 C 0.31914 0.56691 0.95369 0.0
C128 C 0.26052 0.66751 0.95535 0.0
C129 C 0.22209 0.79876 0.98714 0.0
C130 C 0.24037 0.74634 0.98552 0.0
C131 C 0.33848 0.61058 0.97177 0.0
C132 C 0.29834 0.65392 0.97803 0.0
H133 H 0.09951 0.87203 0.98716 0.0
H134 H 0.12728 0.78364 0.98064 0.0
H135 H 0.20576 0.72435 0.94068 0.0
H136 H 0.48604 0.5833 0.97763 0.0
H137 H 0.41553 0.64809 0.99484 0.0
C138 C 0.95433 0.86897 0.00407 0.0
C139 C 0.94331 0.91411 0.02207 0.0
C140 C 0.93056 0.8244 0.01177 0.0
C141 C 0.83959 0.77024 0.06944 0.0
H142 H 0.74715 0.71102 0.00012 0.0
C143 C 0.6094 0.68483 0.08195 0.0
C144 C 0.5975 0.63688 0.06697 0.0
C145 C 0.66011 0.71143 0.0752 0.0
C146 C 0.77331 0.72652 0.01957 0.0
H147 H 0.90449 0.94828 0.06338 0.0
H148 H 0.86341 0.87095 0.07715 0.0
H149 H 0.83068 0.76725 0.99348 0.0
H150 H 0.62686 0.5805 0.03169 0.0
H151 H 0.71557 0.62804 0.01922 0.0
H152 H 0.77973 0.73164 0.09563 0.0
C153 C 0.89065 0.86918 0.05725 0.0
C154 C 0.82153 0.75849 0.01582 0.0
C155 C 0.91445 0.91363 0.04952 0.0
C156 C 0.63493 0.61752 0.04346 0.0
C157 C 0.68581 0.64446 0.03653 0.0
C158 C 0.79118 0.73862 0.07318 0.0
C159 C 0.89503 0.82462 0.03745 0.0
C160 C 0.85389 0.78214 0.04084 0.0
C161 C 0.69989 0.69086 0.05316 0.0
C162 C 0.75629 0.71793 0.0484 0.0
H163 H 0.97572 0.86881 0.98252 0.0
H164 H 0.93573 0.79055 0.99636 0.0
H165 H 0.86416 0.78713 0.08909 0.0
H166 H 0.58073 0.70088 0.09987 0.0
H167 H 0.66897 0.74775 0.08775 0.0
C168 C 0.88654 0.19283 0.03886 0.0
C169 C 0.94126 0.1824 0.02452 0.0
C170 C 0.85985 0.23894 0.03838 0.0
C171 C 0.85143 0.32651 0.98451 0.0
H172 H 0.72794 0.38401 0.03779 0.0
C173 C 0.63095 0.38849 0.94025 0.0
C174 C 0.60792 0.43498 0.95181 0.0
C175 C 0.68045 0.36947 0.95357 0.0
C176 C 0.76292 0.36905 0.02286 0.0
H177 H 0.01317 0.213 0.00039 0.0
H178 H 0.96752 0.29429 0.00021 0.0
H179 H 0.80569 0.33353 0.05706 0.0
H180 H 0.61794 0.49719 0.98727 0.0
H181 H 0.70401 0.46273 0.01122 0.0
H182 H 0.8072 0.35994 0.95005 0.0
C183 C 0.94499 0.26675 0.01172 0.0
C184 C 0.80724 0.33998 0.03382 0.0
C185 C 0.97174 0.22047 0.01225 0.0
C186 C 0.63434 0.46113 0.97787 0.0
C187 C 0.68377 0.44165 0.99148 0.0
C188 C 0.80718 0.35529 0.97361 0.0
C189 C 0.88716 0.27541 0.02326 0.0
C190 C 0.8505 0.31662 0.01442 0.0
C191 C 0.70791 0.39606 0.97904 0.0
C192 C 0.76104 0.37497 0.99233 0.0
H193 H 0.86209 0.1639 0.04836 0.0
H194 H 0.81523 0.24397 0.04733 0.0
H195 H 0.88351 0.30889 0.96879 0.0
H196 H 0.61081 0.36669 0.92075 0.0
H197 H 0.69713 0.33358 0.94398 0.0
C198 C 0.64858 0.70816 0.50491 0.0
C199 C 0.69304 0.67274 0.49778 0.0
C200 C 0.65835 0.75772 0.49998 0.0
C201 C 0.71995 0.85767 0.51734 0.0
H202 H 0.83925 0.89718 0.46256 0.0
C203 C 0.94491 0.97562 0.53247 0.0
C204 C 0.92616 0.01901 0.55007 0.0
C205 C 0.90313 0.94387 0.51619 0.0
C206 C 0.80529 0.88701 0.4778 0.0
H207 H 0.77958 0.65944 0.47748 0.0
H208 H 0.79706 0.74478 0.469 0.0
H209 H 0.78216 0.81974 0.44937 0.0
H210 H 0.85061 0.06555 0.56318 0.0
H211 H 0.77694 0.00979 0.53461 0.0
H212 H 0.74487 0.92388 0.54627 0.0
C213 C 0.75431 0.73534 0.47805 0.0
C214 C 0.77267 0.84259 0.47034 0.0
C215 C 0.74455 0.6862 0.48305 0.0
C216 C 0.86566 0.03187 0.54987 0.0
C217 C 0.82376 0.00013 0.53356 0.0
C218 C 0.75194 0.90237 0.52457 0.0
C219 C 0.7129 0.7724 0.48795 0.0
C220 C 0.73229 0.8258 0.49088 0.0
C221 C 0.84186 0.955 0.51734 0.0
C222 C 0.79727 0.91603 0.50566 0.0
H223 H 0.6091 0.69864 0.51685 0.0
H224 H 0.62503 0.78506 0.50749 0.0
H225 H 0.68962 0.84621 0.53387 0.0
H226 H 0.99143 0.96501 0.53255 0.0
H227 H 0.91837 0.90904 0.50429 0.0
C228 C 0.64568 0.36377 0.49051 0.0
C229 C 0.68931 0.40116 0.49879 0.0
C230 C 0.66102 0.31326 0.48776 0.0
C231 C 0.72882 0.21381 0.46577 0.0
H232 H 0.82407 0.1744 0.53096 0.0
C233 C 0.93389 0.07687 0.47772 0.0
C234 C 0.91592 0.03682 0.45644 0.0
C235 C 0.89279 0.11279 0.48889 0.0
C236 C 0.79744 0.18464 0.51258 0.0
H237 H 0.78365 0.41442 0.50949 0.0
H238 H 0.80949 0.32734 0.50503 0.0
H239 H 0.77699 0.25577 0.53672 0.0
H240 H 0.83998 -0.00046 0.43271 0.0
H241 H 0.76763 0.06188 0.45262 0.0
H242 H 0.75265 0.14449 0.44072 0.0
C243 C 0.76351 0.33689 0.50101 0.0
C244 C 0.77027 0.23111 0.51595 0.0
C245 C 0.74859 0.3869 0.50334 0.0
C246 C 0.85504 0.03065 0.44875 0.0
C247 C 0.81378 0.06645 0.46003 0.0
C248 C 0.75658 0.16746 0.46224 0.0
C249 C 0.71988 0.29956 0.49373 0.0
C250 C 0.73754 0.24682 0.4922 0.0
C251 C 0.83275 0.10927 0.47905 0.0
C252 C 0.79312 0.1531 0.48521 0.0
H253 H 0.59963 0.37345 0.48689 0.0
H254 H 0.62671 0.28498 0.48183 0.0
H255 H 0.70406 0.22519 0.44709 0.0
H256 H 0.98064 0.08271 0.48382 0.0
H257 H 0.90936 0.14525 0.50337 0.0
C258 C 0.45633 0.36956 0.50551 0.0
C259 C 0.4443 0.4149 0.52306 0.0
C260 C 0.43363 0.32499 0.51369 0.0
C261 C 0.34381 0.27105 0.57174 0.0
H262 H 0.25128 0.21072 0.50273 0.0
C263 C 0.11508 0.18284 0.58478 0.0
C264 C 0.10264 0.13565 0.56888 0.0
C265 C 0.16584 0.20969 0.57841 0.0
C266 C 0.2775 0.22648 0.5221 0.0
H267 H 0.40499 0.4496 0.56412 0.0
H268 H 0.36571 0.37223 0.57873 0.0
H269 H 0.33397 0.26748 0.49576 0.0
H270 H 0.13132 0.08081 0.53258 0.0
H271 H 0.22029 0.12865 0.52094 0.0
H272 H 0.28494 0.23202 0.59817 0.0
C273 C 0.39293 0.37034 0.55882 0.0
C274 C 0.32523 0.25877 0.51816 0.0
C275 C 0.41569 0.4148 0.5506 0.0
C276 C 0.13992 0.11717 0.54512 0.0
C277 C 0.19089 0.14433 0.53862 0.0
C278 C 0.29594 0.23899 0.57567 0.0
C279 C 0.39817 0.32546 0.53941 0.0
C280 C 0.35762 0.28279 0.54306 0.0
C281 C 0.2052 0.19011 0.55589 0.0
C282 C 0.26105 0.21783 0.55101 0.0
H283 H 0.47755 0.36909 0.4839 0.0
H284 H 0.43938 0.29088 0.49858 0.0
H285 H 0.36836 0.28834 0.5913 0.0
H286 H 0.08636 0.19837 0.60281 0.0
H287 H 0.17477 0.24561 0.59144 0.0
C288 C 0.46797 0.72073 0.51148 0.0
C289 C 0.43643 0.68227 0.52285 0.0
C290 C 0.44123 0.76696 0.51059 0.0
C291 C 0.30296 0.84008 0.53144 0.0
H292 H 0.30875 0.86474 0.44855 0.0
C293 C 0.13308 0.96525 0.47781 0.0
C294 C 0.10813 0.94183 0.45063 0.0
C295 C 0.18249 0.9448 0.49085 0.0
C296 C 0.30699 0.85869 0.47186 0.0
H297 H 0.35518 0.66303 0.54479 0.0
H298 H 0.30856 0.74305 0.54329 0.0
H299 H 0.38278 0.81154 0.46731 0.0
H300 H 0.1145 0.87757 0.41658 0.0
H301 H 0.20064 0.84273 0.43893 0.0
H302 H 0.22435 0.88484 0.53515 0.0
C303 C 0.35386 0.7383 0.53522 0.0
C304 C 0.34997 0.8287 0.48279 0.0
C305 C 0.38044 0.69222 0.53597 0.0
C306 C 0.13335 0.89735 0.43707 0.0
C307 C 0.18282 0.87733 0.44988 0.0
C308 C 0.25992 0.87029 0.52048 0.0
C309 C 0.38254 0.77528 0.52104 0.0
C310 C 0.34698 0.81723 0.51234 0.0
C311 C 0.20822 0.9009 0.47678 0.0
C312 C 0.26005 0.87799 0.4902 0.0
H313 H 0.51062 0.7137 0.5007 0.0
H314 H 0.46479 0.79489 0.49983 0.0
H315 H 0.29986 0.83247 0.55442 0.0
H316 H 0.11518 -0.0002 0.48876 0.0
H317 H 0.20114 0.96368 0.51164 0.0
C318 C 0.12922 0.04755 0.13716 0.0
C319 C 0.08736 0.03989 0.11345 0.0
C320 C 0.11426 0.03734 0.16578 0.0
C321 C 0.08452 0.98153 0.21773 0.0
H322 H 0.93838 0.02868 0.25675 0.0
C323 C 0.02747 0.94184 0.33742 0.0
C324 C 0.00753 0.98294 0.357 0.0
C325 C 0.03086 0.94401 0.30657 0.0
C326 C 0.97937 0.01523 0.24612 0.0
H327 H 0.99607 0.01659 0.10164 0.0
H328 H 0.9697 -0.00086 0.15209 0.0
H329 H 0.95663 0.04263 0.20491 0.0
H330 H 0.97561 0.05858 0.35932 0.0
H331 H 0.98131 0.06223 0.30568 0.0
H332 H 0.10832 0.95546 0.25903 0.0
C333 C 0.01424 0.01304 0.14825 0.0
C334 C 0.98952 0.02283 0.21636 0.0
C335 C 0.02935 0.02308 0.11939 0.0
C336 C 0.99008 0.02588 0.34488 0.0
C337 C 0.99333 0.02799 0.31407 0.0
C338 C 0.07427 0.97371 0.24736 0.0
C339 C 0.05697 0.01929 0.17161 0.0
C340 C 0.04286 0.00703 0.20208 0.0
C341 C 0.01432 0.98729 0.29456 0.0
C342 C 0.02212 0.99131 0.26212 0.0
H343 H 0.1742 0.06075 0.13359 0.0
H344 H 0.14779 0.04358 0.18342 0.0
H345 H 0.12567 0.96824 0.20719 0.0
H346 H 0.04053 0.90798 0.34596 0.0
H347 H 0.0466 0.91179 0.29211 0.0
C348 C 0.03731 0.99034 0.8836 0.0
C349 C 0.04801 0.03358 0.90374 0.0
C350 C 0.04235 0.99131 0.85281 0.0
C351 C 0.08974 0.0691 0.79422 0.0
H352 H 0.95928 -0.00258 0.7495 0.0
C353 C 0.02066 0.10645 0.67551 0.0
C354 C 0.00913 0.06477 0.65402 0.0
C355 C 0.02859 0.10093 0.7057 0.0
C356 C 0.99638 0.01716 0.76156 0.0
H357 H 0.07464 0.11123 0.90811 0.0
H358 H 0.08176 0.11373 0.85402 0.0
H359 H 0.97235 0.99033 0.8024 0.0
H360 H 0.99558 0.9847 0.64754 0.0
H361 H 0.00846 0.9751 0.70049 0.0
H362 H 0.11237 0.09703 0.75325 0.0
C363 C 0.07098 0.0786 0.86189 0.0
C364 C 0.00418 0.01295 0.79192 0.0
C365 C 0.06699 0.0773 0.89285 0.0
C366 C 0.00363 0.01759 0.66359 0.0
C367 C 0.01134 0.01209 0.69387 0.0
C368 C 0.08163 0.07359 0.76382 0.0
C369 C 0.05656 0.03598 0.84147 0.0
C370 C 0.05086 0.03892 0.80872 0.0
C371 C 0.02479 0.05364 0.71518 0.0
C372 C 0.03464 0.04784 0.74721 0.0
H373 H 0.02261 0.95622 0.89166 0.0
H374 H 0.0327 0.95743 0.83786 0.0
H375 H 0.12654 0.08919 0.80632 0.0
H376 H 0.02428 0.14341 0.6689 0.0
H377 H 0.03761 0.13377 0.72166 0.0
C378 C 0.6205 0.55089 0.6386 0.0
C379 C 0.57976 0.54227 0.61446 0.0
C380 C 0.6058 0.53808 0.66663 0.0
C381 C 0.57983 0.47195 0.71412 0.0
H382 H 0.44009 0.51945 0.75892 0.0
C383 C 0.56942 0.47971 0.84152 0.0
C384 C 0.51502 0.46986 0.85515 0.0
C385 C 0.57192 0.48175 0.81074 0.0
C386 C 0.47874 0.50504 0.74649 0.0
H387 H 0.4902 0.51551 0.60139 0.0
H388 H 0.46407 0.49385 0.65108 0.0
H389 H 0.45241 0.53718 0.70727 0.0
H390 H 0.42079 0.45306 0.84697 0.0
H391 H 0.42521 0.45657 0.79295 0.0
H392 H 0.60684 0.44034 0.75309 0.0
C393 C 0.50764 0.5102 0.64787 0.0
C394 C 0.48576 0.51531 0.71697 0.0
C395 C 0.52259 0.5227 0.61951 0.0
C396 C 0.46327 0.46121 0.83714 0.0
C397 C 0.46578 0.46327 0.80625 0.0
C398 C 0.57267 0.46142 0.74341 0.0
C399 C 0.54984 0.51663 0.67142 0.0
C400 C 0.53733 0.50015 0.70091 0.0
C401 C 0.5201 0.47395 0.79274 0.0
C402 C 0.52302 0.47917 0.76029 0.0
H403 H 0.66471 0.5663 0.63571 0.0
H404 H 0.63869 0.54441 0.68459 0.0
H405 H 0.61946 0.45898 0.70198 0.0
H406 H 0.60986 0.48758 0.85479 0.0
H407 H 0.61429 0.49108 0.80121 0.0
C408 C 0.53891 0.49066 0.38413 0.0
C409 C 0.55008 0.53329 0.40468 0.0
C410 C 0.54508 0.49236 0.35349 0.0
C411 C 0.59611 0.57074 0.29602 0.0
H412 H 0.4645 0.50231 0.25047 0.0
C413 C 0.53002 0.60761 0.17637 0.0
C414 C 0.51827 0.56544 0.15527 0.0
C415 C 0.53799 0.60286 0.20667 0.0
C416 C 0.50187 0.52117 0.26279 0.0
H417 H 0.57897 0.61047 0.41002 0.0
H418 H 0.58794 0.6143 0.35613 0.0
H419 H 0.4756 0.49469 0.30337 0.0
H420 H 0.50563 0.48519 0.14957 0.0
H421 H 0.51824 0.47711 0.20259 0.0
H422 H 0.62091 0.59837 0.25522 0.0
C423 C 0.57591 0.5791 0.36358 0.0
C424 C 0.50854 0.51663 0.29313 0.0
C425 C 0.57086 0.57703 0.39441 0.0
C426 C 0.51361 0.51852 0.16527 0.0
C427 C 0.52116 0.51384 0.19561 0.0
C428 C 0.58907 0.57562 0.26561 0.0
C429 C 0.56084 0.53721 0.34274 0.0
C430 C 0.55584 0.54117 0.31015 0.0
C431 C 0.53384 0.55591 0.21657 0.0
C432 C 0.54188 0.5508 0.24873 0.0
H433 H 0.52292 0.45653 0.39173 0.0
H434 H 0.53494 0.459 0.33816 0.0
H435 H 0.63324 0.58986 0.30838 0.0
H436 H 0.53297 0.64439 0.16946 0.0
H437 H 0.5467 0.63601 0.22242 0.0
loop_
_geom_bond_atom_site_label_1
_geom_bond_atom_site_label_2
_geom_bond_distance
_geom_bond_site_symmetry_2
_ccdc_geom_bond_type
O0 Mg1 1.990 . S
O0 C14 1.253 . S
Mg1 O0 1.990 . S
Mg1 O4 2.180 . S
Mg1 O5 2.117 . S
Mg1 O19 2.030 1_545 S
O2 Mg3 2.072 . S
O2 C14 1.260 . S
Mg3 O2 2.072 . S
Mg3 O4 2.099 . S
Mg3 O6 2.079 1_554 S
Mg3 O7 2.072 . S
Mg3 O9 2.099 1_444 S
Mg3 O20 2.079 1_544 S
O4 Mg1 2.180 . S
O4 Mg3 2.099 . S
O4 C15 1.279 . S
O5 Mg1 2.117 . S
O5 C15 1.250 . S
O6 Mg3 2.079 1_556 S
O6 C16 1.264 . S
O7 Mg3 2.072 . S
O7 C17 1.260 1_455 S
Mg8 O9 2.180 1_545 S
Mg8 O10 2.030 . S
Mg8 O11 1.990 . S
Mg8 O12 2.117 1_545 S
O9 Mg3 2.099 1_666 S
O9 Mg8 2.180 1_565 S
O9 C18 1.279 1_556 S
O10 Mg8 2.030 . S
O10 C16 1.248 1_655 S
O11 Mg8 1.990 . S
O11 C17 1.253 1_556 S
O12 Mg8 2.117 1_565 S
O12 C18 1.250 1_556 S
C13 O19 1.248 . S
C13 O20 1.264 1_554 S
C14 O0 1.253 . S
C14 O2 1.260 . S
C15 O4 1.279 . S
C15 O5 1.250 . S
C16 O6 1.264 . S
C16 O10 1.248 1_455 S
C17 O7 1.260 1_655 S
C17 O11 1.253 1_554 S
C18 O9 1.279 1_554 S
C18 O12 1.250 1_554 S
O19 Mg1 2.030 1_565 S
O19 C13 1.248 . S
O20 Mg3 2.079 1_566 S
O20 C13 1.264 1_556 S
O21 Mg22 1.990 . S
O21 C35 1.253 . S
Mg22 O21 1.990 . S
Mg22 O25 2.180 . S
Mg22 O26 2.117 . S
Mg22 O40 2.030 . S
O23 Mg24 2.072 . S
O23 C35 1.260 . S
Mg24 O23 2.072 . S
Mg24 O25 2.099 . S
Mg24 O27 2.079 . S
Mg24 O28 2.072 . S
Mg24 O30 2.099 . S
Mg24 O41 2.079 . S
O25 Mg22 2.180 . S
O25 Mg24 2.099 . S
O25 C36 1.279 . S
O26 Mg22 2.117 . S
O26 C36 1.250 . S
O27 Mg24 2.079 . S
O27 C37 1.264 . S
O28 Mg24 2.072 . S
O28 C38 1.260 . S
Mg29 O30 2.180 . S
Mg29 O31 2.030 . S
Mg29 O32 1.990 . S
Mg29 O33 2.117 . S
O30 Mg24 2.099 . S
O30 Mg29 2.180 . S
O30 C39 1.279 . S
O31 Mg29 2.030 . S
O31 C37 1.248 . S
O32 Mg29 1.990 . S
O32 C38 1.253 . S
O33 Mg29 2.117 . S
O33 C39 1.250 . S
C34 O40 1.248 . S
C34 O41 1.264 . S
C35 O21 1.253 . S
C35 O23 1.260 . S
C36 O25 1.279 . S
C36 O26 1.250 . S
C37 O27 1.264 . S
C37 O31 1.248 . S
C38 O28 1.260 . S
C38 O32 1.253 . S
C39 O30 1.279 . S
C39 O33 1.250 . S
O40 Mg22 2.030 . S
O40 C34 1.248 . S
O41 Mg24 2.079 . S
O41 C34 1.264 . S
H42 C45 0.931 1_655 S
H43 C48 0.928 . S
H44 C50 0.930 . S
C45 H42 0.931 1_455 S
C45 C46 1.413 . S
C45 C47 1.369 . S
C46 C45 1.413 . S
C46 C50 1.429 . S
C47 C45 1.369 . S
C47 C48 1.362 1_545 S
C48 H43 0.928 . S
C48 C47 1.362 1_565 S
C48 C49 1.404 . S
C49 C48 1.404 . S
C49 C50 1.391 1_565 S
C50 H44 0.930 . S
C50 C46 1.429 . S
C50 C49 1.391 1_545 S
H51 C54 0.931 . S
H52 C57 0.928 . S
H53 C59 0.930 . S
C54 H51 0.931 . S
C54 C55 1.413 . S
C54 C56 1.360 1_655 S
C55 C54 1.413 . S
C55 C59 1.437 . S
C56 C54 1.360 1_455 S
C56 C57 1.372 . S
C57 H52 0.928 . S
C57 C56 1.372 . S
C57 C58 1.404 . S
C58 C57 1.404 . S
C58 C59 1.382 1_455 S
C59 H53 0.930 . S
C59 C55 1.437 . S
C59 C58 1.382 1_655 S
H60 C63 0.931 . S
H61 C66 0.928 . S
H62 C68 0.930 . S
C63 H60 0.931 . S
C63 C64 1.413 . S
C63 C65 1.360 . S
C64 C63 1.413 . S
C64 C68 1.429 . S
C65 C63 1.360 . S
C65 C66 1.372 . S
C66 H61 0.928 . S
C66 C65 1.372 . S
C66 C67 1.404 . S
C67 C66 1.404 . S
C67 C68 1.391 . S
C68 H62 0.930 . S
C68 C64 1.429 . S
C68 C67 1.391 . S
H69 C72 0.931 . S
H70 C75 0.928 . S
H71 C77 0.930 . S
C72 H69 0.931 . S
C72 C73 1.413 . S
C72 C74 1.360 . S
C73 C72 1.413 . S
C73 C77 1.429 . S
C74 C72 1.360 . S
C74 C75 1.372 . S
C75 H70 0.928 . S
C75 C74 1.372 . S
C75 C76 1.404 . S
C76 C75 1.404 . S
C76 C77 1.391 . S
C77 H71 0.930 . S
C77 C73 1.429 . S
C77 C76 1.391 . S
C78 C79 1.349 . S
C78 C80 1.327 . S
C78 H103 0.950 . S
C79 C78 1.349 . S
C79 C95 1.337 1_554 S
C80 C78 1.327 . S
C80 C99 1.429 . S
C80 H104 0.950 . S
C81 C98 1.574 . S
C81 C100 1.368 . S
C81 H105 0.949 . S
H82 C86 0.949 . S
C83 C84 1.349 . S
C83 C85 1.327 . S
C83 H106 0.950 . S
C84 C83 1.349 . S
C84 C96 1.349 . S
C85 C83 1.327 . S
C85 C101 1.429 . S
C85 H107 0.950 . S
C86 H82 0.949 . S
C86 C94 1.574 . S
C86 C102 1.368 . S
H87 C95 0.964 . S
H88 C93 0.950 1_556 S
H89 C94 0.949 . S
H90 C96 0.950 . S
H91 C97 0.950 . S
H92 C98 0.949 . S
C93 H88 0.950 1_554 S
C93 C95 1.325 1_554 S
C93 C99 1.429 . S
C94 C86 1.574 . S
C94 H89 0.949 . S
C94 C100 1.368 . S
C95 C79 1.337 1_556 S
C95 H87 0.964 . S
C95 C93 1.325 1_556 S
C96 C84 1.349 . S
C96 H90 0.950 . S
C96 C97 1.327 . S
C97 H91 0.950 . S
C97 C96 1.327 . S
C97 C101 1.429 . S
C98 C81 1.574 . S
C98 H92 0.949 . S
C98 C102 1.368 . S
C99 C80 1.429 . S
C99 C93 1.429 . S
C99 C100 1.523 . S
C100 C81 1.368 . S
C100 C94 1.368 . S
C100 C99 1.523 . S
C101 C85 1.429 . S
C101 C97 1.429 . S
C101 C102 1.523 . S
C102 C86 1.368 . S
C102 C98 1.368 . S
C102 C101 1.523 . S
H103 C78 0.950 . S
H104 C80 0.950 . S
H105 C81 0.949 . S
H106 C83 0.950 . S
H107 C85 0.950 . S
C108 C109 1.349 . S
C108 C110 1.327 . S
C108 H133 0.950 . S
C109 C108 1.349 . S
C109 C125 1.349 1_554 S
C110 C108 1.327 . S
C110 C129 1.429 1_554 S
C110 H134 0.950 . S
C111 C128 1.574 . S
C111 C130 1.368 . S
C111 H135 0.949 . S
H112 C116 0.949 . S
C113 C114 1.349 . S
C113 C115 1.327 . S
C113 H136 0.950 . S
C114 C113 1.349 . S
C114 C126 1.349 . S
C115 C113 1.327 . S
C115 C131 1.429 . S
C115 H137 0.950 . S
C116 H112 0.949 . S
C116 C124 1.574 . S
C116 C132 1.368 . S
H117 C125 0.950 . S
H118 C123 0.950 . S
H119 C124 0.949 1_554 S
H120 C126 0.950 . S
H121 C127 0.950 . S
H122 C128 0.949 . S
C123 H118 0.950 . S
C123 C125 1.327 . S
C123 C129 1.429 . S
C124 C116 1.574 . S
C124 H119 0.949 1_556 S
C124 C130 1.368 . S
C125 C109 1.349 1_556 S
C125 H117 0.950 . S
C125 C123 1.327 . S
C126 C114 1.349 . S
C126 H120 0.950 . S
C126 C127 1.327 . S
C127 H121 0.950 . S
C127 C126 1.327 . S
C127 C131 1.429 . S
C128 C111 1.574 . S
C128 H122 0.949 . S
C128 C132 1.368 . S
C129 C110 1.429 1_556 S
C129 C123 1.429 . S
C129 C130 1.523 . S
C130 C111 1.368 . S
C130 C124 1.368 . S
C130 C129 1.523 . S
C131 C115 1.429 . S
C131 C127 1.429 . S
C131 C132 1.523 . S
C132 C116 1.368 . S
C132 C128 1.368 . S
C132 C131 1.523 . S
H133 C108 0.950 . S
H134 C110 0.950 . S
H135 C111 0.949 . S
H136 C113 0.950 . S
H137 C115 0.950 . S
C138 C139 1.349 1_556 S
C138 C140 1.327 1_556 S
C138 H163 0.950 . S
C139 C138 1.349 1_554 S
C139 C155 1.349 . S
C140 C138 1.327 1_554 S
C140 C159 1.429 . S
C140 H164 0.950 1_554 S
C141 C158 1.574 . S
C141 C160 1.368 . S
C141 H165 0.949 . S
H142 C146 0.949 . S
C143 C144 1.349 . S
C143 C145 1.327 . S
C143 H166 0.950 . S
C144 C143 1.349 . S
C144 C156 1.349 . S
C145 C143 1.327 . S
C145 C161 1.429 . S
C145 H167 0.950 . S
C146 H142 0.949 . S
C146 C154 1.574 . S
C146 C162 1.368 . S
H147 C155 0.950 . S
H148 C153 0.950 . S
H149 C154 0.955 . S
H150 C156 0.950 . S
H151 C157 0.950 . S
H152 C158 0.949 . S
C153 H148 0.950 . S
C153 C155 1.327 . S
C153 C159 1.429 . S
C154 C146 1.574 . S
C154 H149 0.955 . S
C154 C160 1.368 . S
C155 C139 1.349 . S
C155 H147 0.950 . S
C155 C153 1.327 . S
C156 C144 1.349 . S
C156 H150 0.950 . S
C156 C157 1.327 . S
C157 H151 0.950 . S
C157 C156 1.327 . S
C157 C161 1.429 . S
C158 C141 1.574 . S
C158 H152 0.949 . S
C158 C162 1.368 . S
C159 C140 1.429 . S
C159 C153 1.429 . S
C159 C160 1.523 . S
C160 C141 1.368 . S
C160 C154 1.368 . S
C160 C159 1.523 . S
C161 C145 1.429 . S
C161 C157 1.429 . S
C161 C162 1.523 . S
C162 C146 1.368 . S
C162 C158 1.368 . S
C162 C161 1.523 . S
H163 C138 0.950 . S
H164 C140 0.950 1_556 S
H165 C141 0.949 . S
H166 C143 0.950 . S
H167 C145 0.950 . S
C168 C169 1.349 . S
C168 C170 1.327 . S
C168 H193 0.950 . S
C169 C168 1.349 . S
C169 C185 1.349 1_554 S
C170 C168 1.327 . S
C170 C189 1.429 1_554 S
C170 H194 0.950 . S
C171 C188 1.574 . S
C171 C190 1.368 . S
C171 H195 0.949 . S
H172 C176 0.949 . S
C173 C174 1.349 . S
C173 C175 1.327 . S
C173 H196 0.950 . S
C174 C173 1.349 . S
C174 C186 1.349 . S
C175 C173 1.327 . S
C175 C191 1.429 . S
C175 H197 0.950 . S
C176 H172 0.949 . S
C176 C184 1.574 . S
C176 C192 1.368 . S
H177 C185 0.950 . S
H178 C183 0.950 . S
H179 C184 0.949 1_554 S
H180 C186 0.950 . S
H181 C187 0.950 . S
H182 C188 0.949 . S
C183 H178 0.950 . S
C183 C185 1.327 . S
C183 C189 1.429 . S
C184 C176 1.574 . S
C184 H179 0.949 1_556 S
C184 C190 1.368 . S
C185 C169 1.349 1_556 S
C185 H177 0.950 . S
C185 C183 1.327 . S
C186 C174 1.349 . S
C186 H180 0.950 . S
C186 C187 1.327 . S
C187 H181 0.950 . S
C187 C186 1.327 . S
C187 C191 1.429 . S
C188 C171 1.574 . S
C188 H182 0.949 . S
C188 C192 1.368 . S
C189 C170 1.429 1_556 S
C189 C183 1.429 . S
C189 C190 1.523 . S
C190 C171 1.368 . S
C190 C184 1.368 . S
C190 C189 1.523 . S
C191 C175 1.429 . S
C191 C187 1.429 . S
C191 C192 1.523 . S
C192 C176 1.368 . S
C192 C188 1.368 . S
C192 C191 1.523 . S
H193 C168 0.950 . S
H194 C170 0.950 . S
H195 C171 0.949 . S
H196 C173 0.950 . S
H197 C175 0.950 . S
C198 C199 1.349 . S
C198 C200 1.327 . S
C198 H223 0.950 . S
C199 C198 1.349 . S
C199 C215 1.349 . S
C200 C198 1.327 . S
C200 C219 1.429 . S
C200 H224 0.950 . S
C201 C218 1.574 . S
C201 C220 1.368 . S
C201 H225 0.949 . S
H202 C206 0.949 . S
C203 C204 1.349 1_565 S
C203 C205 1.327 . S
C203 H226 0.950 . S
C204 C203 1.349 1_545 S
C204 C216 1.349 . S
C205 C203 1.327 . S
C205 C221 1.429 . S
C205 H227 0.950 . S
C206 H202 0.949 . S
C206 C214 1.574 . S
C206 C222 1.368 . S
H207 C215 0.950 . S
H208 C213 0.950 . S
H209 C214 0.949 . S
H210 C216 0.950 . S
H211 C217 0.950 . S
H212 C218 0.949 . S
C213 H208 0.950 . S
C213 C215 1.327 . S
C213 C219 1.429 . S
C214 C206 1.574 . S
C214 H209 0.949 . S
C214 C220 1.368 . S
C215 C199 1.349 . S
C215 H207 0.950 . S
C215 C213 1.327 . S
C216 C204 1.349 . S
C216 H210 0.950 . S
C216 C217 1.327 1_545 S
C217 H211 0.950 . S
C217 C216 1.327 1_565 S
C217 C221 1.429 . S
C218 C201 1.574 . S
C218 H212 0.949 . S
C218 C222 1.368 . S
C219 C200 1.429 . S
C219 C213 1.429 . S
C219 C220 1.523 . S
C220 C201 1.368 . S
C220 C214 1.368 . S
C220 C219 1.523 . S
C221 C205 1.429 . S
C221 C217 1.429 . S
C221 C222 1.523 . S
C222 C206 1.368 . S
C222 C218 1.368 . S
C222 C221 1.523 . S
H223 C198 0.950 . S
H224 C200 0.950 . S
H225 C201 0.949 . S
H226 C203 0.950 . S
H227 C205 0.950 . S
C228 C229 1.349 . S
C228 C230 1.327 . S
C228 H253 0.950 . S
C229 C228 1.349 . S
C229 C245 1.349 . S
C230 C228 1.327 . S
C230 C249 1.429 . S
C230 H254 0.950 . S
C231 C248 1.574 . S
C231 C250 1.368 . S
C231 H255 0.949 . S
H232 C236 0.949 . S
C233 C234 1.349 . S
C233 C235 1.327 . S
C233 H256 0.950 1_655 S
C234 C233 1.349 . S
C234 C246 1.349 . S
C235 C233 1.327 . S
C235 C251 1.429 . S
C235 H257 0.950 . S
C236 H232 0.949 . S
C236 C244 1.574 . S
C236 C252 1.368 . S
H237 C245 0.950 . S
H238 C243 0.950 . S
H239 C244 0.949 . S
H240 C246 0.950 . S
H241 C247 0.950 . S
H242 C248 0.949 . S
C243 H238 0.950 . S
C243 C245 1.327 . S
C243 C249 1.429 . S
C244 C236 1.574 . S
C244 H239 0.949 . S
C244 C250 1.368 . S
C245 C229 1.349 . S
C245 H237 0.950 . S
C245 C243 1.327 . S
C246 C234 1.349 . S
C246 H240 0.950 . S
C246 C247 1.327 . S
C247 H241 0.950 . S
C247 C246 1.327 . S
C247 C251 1.429 . S
C248 C231 1.574 . S
C248 H242 0.949 . S
C248 C252 1.368 . S
C249 C230 1.429 . S
C249 C243 1.429 . S
C249 C250 1.523 . S
C250 C231 1.368 . S
C250 C244 1.368 . S
C250 C249 1.523 . S
C251 C235 1.429 . S
C251 C247 1.429 . S
C251 C252 1.523 . S
C252 C236 1.368 . S
C252 C248 1.368 . S
C252 C251 1.523 . S
H253 C228 0.950 . S
H254 C230 0.950 . S
H255 C231 0.949 . S
H256 C233 0.950 1_455 S
H257 C235 0.950 . S
C258 C259 1.349 . S
C258 C260 1.327 . S
C258 H283 0.950 . S
C259 C258 1.349 . S
C259 C275 1.349 . S
C260 C258 1.327 . S
C260 C279 1.429 . S
C260 H284 0.950 . S
C261 C278 1.574 . S
C261 C280 1.368 . S
C261 H285 0.949 . S
H262 C266 0.949 . S
C263 C264 1.349 . S
C263 C265 1.327 . S
C263 H286 0.950 . S
C264 C263 1.349 . S
C264 C276 1.349 . S
C265 C263 1.327 . S
C265 C281 1.429 . S
C265 H287 0.950 . S
C266 H262 0.949 . S
C266 C274 1.574 . S
C266 C282 1.368 . S
H267 C275 0.950 . S
H268 C273 0.950 . S
H269 C274 0.949 . S
H270 C276 0.950 . S
H271 C277 0.950 . S
H272 C278 0.949 . S
C273 H268 0.950 . S
C273 C275 1.327 . S
C273 C279 1.429 . S
C274 C266 1.574 . S
C274 H269 0.949 . S
C274 C280 1.368 . S
C275 C259 1.349 . S
C275 H267 0.950 . S
C275 C273 1.327 . S
C276 C264 1.349 . S
C276 H270 0.950 . S
C276 C277 1.327 . S
C277 H271 0.950 . S
C277 C276 1.327 . S
C277 C281 1.429 . S
C278 C261 1.574 . S
C278 H272 0.949 . S
C278 C282 1.368 . S
C279 C260 1.429 . S
C279 C273 1.429 . S
C279 C280 1.523 . S
C280 C261 1.368 . S
C280 C274 1.368 . S
C280 C279 1.523 . S
C281 C265 1.429 . S
C281 C277 1.429 . S
C281 C282 1.523 . S
C282 C266 1.368 . S
C282 C278 1.368 . S
C282 C281 1.523 . S
H283 C258 0.950 . S
H284 C260 0.950 . S
H285 C261 0.949 . S
H286 C263 0.950 . S
H287 C265 0.950 . S
C288 C289 1.349 . S
C288 C290 1.327 . S
C288 H313 0.950 . S
C289 C288 1.349 . S
C289 C305 1.349 . S
C290 C288 1.327 . S
C290 C309 1.429 . S
C290 H314 0.950 . S
C291 C308 1.574 . S
C291 C310 1.368 . S
C291 H315 0.949 . S
H292 C296 0.949 . S
C293 C294 1.349 . S
C293 C295 1.327 . S
C293 H316 0.950 . S
C294 C293 1.349 . S
C294 C306 1.349 . S
C295 C293 1.327 . S
C295 C311 1.429 . S
C295 H317 0.950 . S
C296 H292 0.949 . S
C296 C304 1.574 . S
C296 C312 1.368 . S
H297 C305 0.950 . S
H298 C303 0.950 . S
H299 C304 0.949 . S
H300 C306 0.950 . S
H301 C307 0.950 . S
H302 C308 0.949 . S
C303 H298 0.950 . S
C303 C305 1.327 . S
C303 C309 1.429 . S
C304 C296 1.574 . S
C304 H299 0.949 . S
C304 C310 1.368 . S
C305 C289 1.349 . S
C305 H297 0.950 . S
C305 C303 1.327 . S
C306 C294 1.349 . S
C306 H300 0.950 . S
C306 C307 1.327 . S
C307 H301 0.950 . S
C307 C306 1.327 . S
C307 C311 1.429 . S
C308 C291 1.574 . S
C308 H302 0.949 . S
C308 C312 1.368 . S
C309 C290 1.429 . S
C309 C303 1.429 . S
C309 C310 1.523 . S
C310 C291 1.368 . S
C310 C304 1.368 . S
C310 C309 1.523 . S
C311 C295 1.429 . S
C311 C307 1.429 . S
C311 C312 1.523 . S
C312 C296 1.368 . S
C312 C308 1.368 . S
C312 C311 1.523 . S
H313 C288 0.950 . S
H314 C290 0.950 . S
H315 C291 0.949 . S
H316 C293 0.950 . S
H317 C295 0.950 . S
C318 C319 1.349 . S
C318 C320 1.327 . S
C318 H343 0.950 . S
C319 C318 1.349 . S
C319 C335 1.349 1_545 S
C320 C318 1.327 . S
C320 C339 1.429 . S
C320 H344 0.950 1_455 S
C321 C338 1.574 . S
C321 C340 1.368 1_565 S
C321 H345 0.949 . S
H322 C326 0.949 1_655 S
C323 C324 1.349 1_565 S
C323 C325 1.327 . S
C323 H346 0.950 . S
C324 C323 1.349 1_545 S
C324 C336 1.349 . S
C325 C323 1.327 . S
C325 C341 1.429 1_565 S
C325 H347 0.950 . S
C326 H322 0.949 1_455 S
C326 C334 1.574 . S
C326 C342 1.368 . S
H327 C335 0.950 . S
H328 C333 0.950 . S
H329 C334 0.949 1_655 S
H330 C336 0.950 1_655 S
H331 C337 0.950 1_655 S
H332 C338 0.949 . S
C333 H328 0.950 . S
C333 C335 1.327 . S
C333 C339 1.429 1_565 S
C334 C326 1.574 . S
C334 H329 0.949 1_455 S
C334 C340 1.368 . S
C335 C319 1.349 1_565 S
C335 H327 0.950 . S
C335 C333 1.327 . S
C336 C324 1.349 . S
C336 H330 0.950 1_455 S
C336 C337 1.327 . S
C337 H331 0.950 1_455 S
C337 C336 1.327 . S
C337 C341 1.429 . S
C338 C321 1.574 . S
C338 H332 0.949 . S
C338 C342 1.368 1_565 S
C339 C320 1.429 . S
C339 C333 1.429 1_545 S
C339 C340 1.523 . S
C340 C321 1.368 1_545 S
C340 C334 1.368 . S
C340 C339 1.523 . S
C341 C325 1.429 1_545 S
C341 C337 1.429 . S
C341 C342 1.523 . S
C342 C326 1.368 . S
C342 C338 1.368 1_545 S
C342 C341 1.523 . S
H343 C318 0.950 . S
H344 C320 0.950 1_655 S
H345 C321 0.949 . S
H346 C323 0.950 . S
H347 C325 0.950 . S
C348 C349 1.349 . S
C348 C350 1.327 . S
C348 H373 0.950 1_445 S
C349 C348 1.349 . S
C349 C365 1.349 . S
C350 C348 1.327 . S
C350 C369 1.430 . S
C350 H374 0.948 1_445 S
C351 C368 1.574 . S
C351 C370 1.368 . S
C351 H375 0.949 . S
H352 C356 0.949 . S
C353 C354 1.349 . S
C353 C355 1.327 . S
C353 H376 0.950 . S
C354 C353 1.349 . S
C354 C366 1.349 1_455 S
C355 C353 1.327 . S
C355 C371 1.429 . S
C355 H377 0.950 . S
C356 H352 0.949 . S
C356 C364 1.574 . S
C356 C372 1.368 1_655 S
H357 C365 0.950 . S
H358 C363 0.950 . S
H359 C364 0.948 1_565 S
H360 C366 0.950 . S
H361 C367 0.950 . S
H362 C368 0.949 . S
C363 H358 0.950 . S
C363 C365 1.327 . S
C363 C369 1.429 . S
C364 C356 1.574 . S
C364 H359 0.948 1_545 S
C364 C370 1.368 1_655 S
C365 C349 1.349 . S
C365 H357 0.950 . S
C365 C363 1.327 . S
C366 C354 1.349 1_655 S
C366 H360 0.950 . S
C366 C367 1.327 . S
C367 H361 0.950 . S
C367 C366 1.327 . S
C367 C371 1.429 1_655 S
C368 C351 1.574 . S
C368 H362 0.949 . S
C368 C372 1.368 . S
C369 C350 1.430 . S
C369 C363 1.429 . S
C369 C370 1.523 . S
C370 C351 1.368 . S
C370 C364 1.368 1_455 S
C370 C369 1.523 . S
C371 C355 1.429 . S
C371 C367 1.429 1_455 S
C371 C372 1.523 . S
C372 C356 1.368 1_455 S
C372 C368 1.368 . S
C372 C371 1.523 . S
H373 C348 0.950 1_665 S
H374 C350 0.948 1_665 S
H375 C351 0.949 . S
H376 C353 0.950 . S
H377 C355 0.950 . S
C378 C379 1.349 . S
C378 C380 1.327 . S
C378 H403 0.950 . S
C379 C378 1.349 . S
C379 C395 1.349 . S
C380 C378 1.327 . S
C380 C399 1.429 . S
C380 H404 0.950 . S
C381 C398 1.574 . S
C381 C400 1.368 . S
C381 H405 0.949 . S
H382 C386 0.949 . S
C383 C384 1.349 . S
C383 C385 1.327 . S
C383 H406 0.950 . S
C384 C383 1.349 . S
C384 C396 1.349 . S
C385 C383 1.327 . S
C385 C401 1.429 . S
C385 H407 0.950 . S
C386 H382 0.949 . S
C386 C394 1.574 . S
C386 C402 1.368 . S
H387 C395 0.950 . S
H388 C393 0.950 . S
H389 C394 0.949 . S
H390 C396 0.950 . S
H391 C397 0.950 . S
H392 C398 0.949 . S
C393 H388 0.950 . S
C393 C395 1.327 . S
C393 C399 1.429 . S
C394 C386 1.574 . S
C394 H389 0.949 . S
C394 C400 1.368 . S
C395 C379 1.349 . S
C395 H387 0.950 . S
C395 C393 1.327 . S
C396 C384 1.349 . S
C396 H390 0.950 . S
C396 C397 1.327 . S
C397 H391 0.950 . S
C397 C396 1.327 . S
C397 C401 1.429 . S
C398 C381 1.574 . S
C398 H392 0.949 . S
C398 C402 1.368 . S
C399 C380 1.429 . S
C399 C393 1.429 . S
C399 C400 1.523 . S
C400 C381 1.368 . S
C400 C394 1.368 . S
C400 C399 1.523 . S
C401 C385 1.429 . S
C401 C397 1.429 . S
C401 C402 1.523 . S
C402 C386 1.368 . S
C402 C398 1.368 . S
C402 C401 1.523 . S
H403 C378 0.950 . S
H404 C380 0.950 . S
H405 C381 0.949 . S
H406 C383 0.950 . S
H407 C385 0.950 . S
C408 C409 1.349 . S
C408 C410 1.327 . S
C408 H433 0.950 . S
C409 C408 1.349 . S
C409 C425 1.349 . S
C410 C408 1.327 . S
C410 C429 1.429 . S
C410 H434 0.950 . S
C411 C428 1.574 . S
C411 C430 1.368 . S
C411 H435 0.949 . S
H412 C416 0.949 . S
C413 C414 1.349 . S
C413 C415 1.327 . S
C413 H436 0.950 . S
C414 C413 1.349 . S
C414 C426 1.349 . S
C415 C413 1.327 . S
C415 C431 1.429 . S
C415 H437 0.950 . S
C416 H412 0.949 . S
C416 C424 1.574 . S
C416 C432 1.368 . S
H417 C425 0.950 . S
H418 C423 0.950 . S
H419 C424 0.949 . S
H420 C426 0.950 . S
H421 C427 0.950 . S
H422 C428 0.949 . S
C423 H418 0.950 . S
C423 C425 1.327 . S
C423 C429 1.429 . S
C424 C416 1.574 . S
C424 H419 0.949 . S
C424 C430 1.368 . S
C425 C409 1.349 . S
C425 H417 0.950 . S
C425 C423 1.327 . S
C426 C414 1.349 . S
C426 H420 0.950 . S
C426 C427 1.327 . S
C427 H421 0.950 . S
C427 C426 1.327 . S
C427 C431 1.429 . S
C428 C411 1.574 . S
C428 H422 0.949 . S
C428 C432 1.368 . S
C429 C410 1.429 . S
C429 C423 1.429 . S
C429 C430 1.523 . S
C430 C411 1.368 . S
C430 C424 1.368 . S
C430 C429 1.523 . S
C431 C415 1.429 . S
C431 C427 1.429 . S
C431 C432 1.523 . S
C432 C416 1.368 . S
C432 C428 1.368 . S
C432 C431 1.523 . S
H433 C408 0.950 . S
H434 C410 0.950 . S
H435 C411 0.949 . S
H436 C413 0.950 . S
H437 C415 0.950 . S
C84 C73 1.309 . S
C79 C15 1.125 . S
C109 C13 1.367 . S
C114 C64 1.371 . S
C139 C18 1.234 . S
C144 C76 1.381 . S
C169 C17 1.244 . S
C174 C67 1.300 . S
C199 C36 1.125 . S
C204 C55 1.310 . S
C229 C34 1.367 . S
C234 C46 1.371 1_655 S
C264 C58 1.381 . S
C259 C39 1.234 . S
C294 C49 1.300 . S
C289 C38 1.244 . S
C319 C14 1.501 . S
C324 C47 1.556 . S
C349 C16 1.358 . S
C354 C56 1.409 . S
C384 C65 1.554 . S
C379 C35 1.501 . S
C409 C37 1.358 . S
C414 C74 1.409 . S
