# Generated by pormake.
# Topology nom, (4,4)-cn, num edge types: 1
# Building blocks:
#     Node 0, Type 0, BuildingBlock: MUDLON_clean_linker_0, # of connection points: 4
#     Node 1, Type 0, BuildingBlock: MUDLON_clean_linker_0, # of connection points: 4
#     Node 2, Type 0, BuildingBlock: MUDLON_clean_linker_0, # of connection points: 4
#     Node 3, Type 0, BuildingBlock: MUDLON_clean_linker_0, # of connection points: 4
#     Node 4, Type 0, BuildingBlock: MUDLON_clean_linker_0, # of connection points: 4
#     Node 5, Type 0, BuildingBlock: MUDLON_clean_linker_0, # of connection points: 4
#     Node 6, Type 1, BuildingBlock: QUQFOY_clean_sbu_1, # of connection points: 4
#     Node 7, Type 1, BuildingBlock: QUQFOY_clean_sbu_1, # of connection points: 4
#     Node 8, Type 1, BuildingBlock: QUQFOY_clean_sbu_1, # of connection points: 4
#     Node 9, Type 1, BuildingBlock: QUQFOY_clean_sbu_1, # of connection points: 4
#     Node 10, Type 1, BuildingBlock: QUQFOY_clean_sbu_1, # of connection points: 4
#     Node 11, Type 1, BuildingBlock: QUQFOY_clean_sbu_1, # of connection points: 4
#     Edge 12, Type (0, 1), BuildingBlock: EZIPEK_clean_linker_0, # of connection points: 2
#     Edge 13, Type (0, 1), BuildingBlock: EZIPEK_clean_linker_0, # of connection points: 2
#     Edge 14, Type (0, 1), BuildingBlock: EZIPEK_clean_linker_0, # of connection points: 2
#     Edge 15, Type (0, 1), BuildingBlock: EZIPEK_clean_linker_0, # of connection points: 2
#     Edge 16, Type (0, 1), BuildingBlock: EZIPEK_clean_linker_0, # of connection points: 2
#     Edge 17, Type (0, 1), BuildingBlock: EZIPEK_clean_linker_0, # of connection points: 2
#     Edge 18, Type (0, 1), BuildingBlock: EZIPEK_clean_linker_0, # of connection points: 2
#     Edge 19, Type (0, 1), BuildingBlock: EZIPEK_clean_linker_0, # of connection points: 2
#     Edge 20, Type (0, 1), BuildingBlock: EZIPEK_clean_linker_0, # of connection points: 2
#     Edge 21, Type (0, 1), BuildingBlock: EZIPEK_clean_linker_0, # of connection points: 2
#     Edge 22, Type (0, 1), BuildingBlock: EZIPEK_clean_linker_0, # of connection points: 2
#     Edge 23, Type (0, 1), BuildingBlock: EZIPEK_clean_linker_0, # of connection points: 2
#     Edge 24, Type (0, 1), BuildingBlock: EZIPEK_clean_linker_0, # of connection points: 2
#     Edge 25, Type (0, 1), BuildingBlock: EZIPEK_clean_linker_0, # of connection points: 2
#     Edge 26, Type (0, 1), BuildingBlock: EZIPEK_clean_linker_0, # of connection points: 2
#     Edge 27, Type (0, 1), BuildingBlock: EZIPEK_clean_linker_0, # of connection points: 2
#     Edge 28, Type (0, 1), BuildingBlock: EZIPEK_clean_linker_0, # of connection points: 2
#     Edge 29, Type (0, 1), BuildingBlock: EZIPEK_clean_linker_0, # of connection points: 2
#     Edge 30, Type (0, 1), BuildingBlock: EZIPEK_clean_linker_0, # of connection points: 2
#     Edge 31, Type (0, 1), BuildingBlock: EZIPEK_clean_linker_0, # of connection points: 2
#     Edge 32, Type (0, 1), BuildingBlock: EZIPEK_clean_linker_0, # of connection points: 2
#     Edge 33, Type (0, 1), BuildingBlock: EZIPEK_clean_linker_0, # of connection points: 2
#     Edge 34, Type (0, 1), BuildingBlock: EZIPEK_clean_linker_0, # of connection points: 2
#     Edge 35, Type (0, 1), BuildingBlock: EZIPEK_clean_linker_0, # of connection points: 2
# Relax obj value: 0.010
# Max RMSD: 0.111
# Mean RMSD: 0.097
data_MOF--net-nom--node1-QUQFOY_clean_sbu_1--node2-MUDLON_clean_linker_0--edge1-EZIPEK_clean_linker_0
_symmetry_space_group_name_H-M    P1
_symmetry_Int_Tables_number       1
_symmetry_cell_setting            triclinic
loop_
_symmetry_equiv_pos_as_xyz
'x, y, z'
_cell_length_a     50.785635
_cell_length_b     51.612859
_cell_length_c     45.62402
_cell_angle_alpha  90.413901
_cell_angle_beta   89.795609
_cell_angle_gamma 120.53418
loop_
_atom_site_label
_atom_site_type_symbol
_atom_site_fract_x
_atom_site_fract_y
_atom_site_fract_z
_atom_type_partial_charge
H0 H 0.16709 0.53834 0.28883 0.0
N1 N 0.12123 0.54123 0.31349 0.0
H2 H 0.20977 0.57817 0.26092 0.0
H3 H 0.12219 0.5904 0.28868 0.0
H4 H 0.16455 0.62973 0.26086 0.0
H5 H 0.14801 0.59668 0.3405 0.0
H6 H 0.17354 0.60982 0.38803 0.0
H7 H 0.12431 0.50434 0.35209 0.0
H8 H 0.14987 0.51774 0.40028 0.0
H9 H 0.07751 0.49294 0.28615 0.0
H10 H 0.09315 0.57079 0.33608 0.0
H11 H 0.02343 0.47749 0.28113 0.0
H12 H 0.03975 0.55596 0.33071 0.0
H13 H 0.88251 0.43749 0.26765 0.0
H14 H 0.85155 0.41328 0.22374 0.0
H15 H 0.86664 0.49908 0.19464 0.0
H16 H 0.89703 0.52323 0.23896 0.0
H17 H 0.8774 0.52457 0.29896 0.0
H18 H 0.83074 0.50413 0.32861 0.0
H19 H 0.83824 0.42674 0.34914 0.0
H20 H 0.88498 0.44716 0.3193 0.0
H21 H 0.9435 0.48667 0.24576 0.0
H22 H 0.99382 0.49502 0.25531 0.0
H23 H 0.98815 0.519 0.34495 0.0
N24 N 0.90702 0.49661 0.28366 0.0
H25 H 0.93754 0.51122 0.33547 0.0
C26 C 0.14141 0.56118 0.29108 0.0
C27 C 0.16585 0.55771 0.28186 0.0
C28 C 0.19014 0.58037 0.26603 0.0
C29 C 0.19018 0.60678 0.25902 0.0
C30 C 0.16471 0.60935 0.26601 0.0
C31 C 0.14047 0.58675 0.28194 0.0
C32 C 0.13423 0.54933 0.34257 0.0
C33 C 0.14798 0.57911 0.35328 0.0
C34 C 0.1626 0.58671 0.38042 0.0
C35 C 0.16359 0.56475 0.3974 0.0
C36 C 0.14927 0.53491 0.3873 0.0
C37 C 0.1347 0.5273 0.36 0.0
C38 C 0.0895 0.5329 0.31142 0.0
C39 C 0.06928 0.50665 0.29603 0.0
C40 C 0.03846 0.49794 0.29314 0.0
C41 C 0.02723 0.51545 0.3056 0.0
C42 C 0.04747 0.54164 0.32131 0.0
C43 C 0.07823 0.55028 0.32422 0.0
C44 C 0.89189 0.48222 0.25655 0.0
C45 C 0.87925 0.4511 0.25182 0.0
C46 C 0.86174 0.43733 0.22681 0.0
C47 C 0.85691 0.4545 0.2062 0.0
C48 C 0.87028 0.48561 0.21041 0.0
C49 C 0.88759 0.49933 0.23549 0.0
C50 C 0.88458 0.48745 0.3068 0.0
C51 C 0.86955 0.5037 0.31061 0.0
C52 C 0.84294 0.49199 0.32733 0.0
C53 C 0.83106 0.46388 0.34072 0.0
C54 C 0.84718 0.44848 0.33887 0.0
C55 C 0.87378 0.46013 0.32188 0.0
C56 C 0.93512 0.49668 0.29027 0.0
C57 C 0.9521 0.49263 0.26792 0.0
C58 C 0.98133 0.49757 0.2733 0.0
C59 C 0.99497 0.50742 0.30094 0.0
C60 C 0.9783 0.51142 0.32336 0.0
C61 C 0.94899 0.50648 0.31801 0.0
H62 H 0.42236 0.87835 0.47159 0.0
N63 N 0.38678 0.90189 0.45524 0.0
H64 H 0.40445 0.83228 0.49979 0.0
H65 H 0.33762 0.87588 0.48914 0.0
H66 H 0.31945 0.82929 0.51698 0.0
H67 H 0.33884 0.86826 0.42114 0.0
H68 H 0.33818 0.8432 0.37483 0.0
H69 H 0.43677 0.90824 0.4258 0.0
H70 H 0.43607 0.88337 0.37948 0.0
H71 H 0.44088 0.92813 0.48698 0.0
H72 H 0.38349 0.94714 0.43258 0.0
H73 H 0.47894 0.98128 0.4889 0.0
H74 H 0.42227 0.00046 0.43321 0.0
H75 H 0.60389 0.14998 0.48984 0.0
H76 H 0.61808 0.17438 0.53837 0.0
H77 H 0.52281 0.13783 0.55906 0.0
H78 H 0.50859 0.11366 0.51095 0.0
H79 H 0.51488 0.14826 0.47035 0.0
H80 H 0.52854 0.19594 0.44739 0.0
H81 H 0.59973 0.19312 0.39839 0.0
H82 H 0.58609 0.14498 0.4216 0.0
H83 H 0.5557 0.073 0.46192 0.0
H84 H 0.51621 0.01984 0.45955 0.0
H85 H 0.44667 0.04464 0.46133 0.0
N86 N 0.5483 0.12 0.46659 0.0
H87 H 0.48618 0.09741 0.46201 0.0
C88 C 0.38131 0.88081 0.47839 0.0
C89 C 0.40049 0.86875 0.48254 0.0
C90 C 0.39023 0.8423 0.4985 0.0
C91 C 0.36055 0.82732 0.51014 0.0
C92 C 0.34244 0.8406 0.50815 0.0
C93 C 0.35283 0.86721 0.49244 0.0
C94 C 0.38774 0.89021 0.42673 0.0
C95 C 0.36016 0.87197 0.41191 0.0
C96 C 0.35977 0.85767 0.38572 0.0
C97 C 0.38707 0.86154 0.374 0.0
C98 C 0.41485 0.88028 0.38834 0.0
C99 C 0.41522 0.89448 0.41463 0.0
C100 C 0.40894 0.9334 0.45964 0.0
C101 C 0.43624 0.94356 0.47546 0.0
C102 C 0.45834 0.9742 0.47628 0.0
C103 C 0.45395 0.99532 0.46097 0.0
C104 C 0.4264 0.98507 0.44562 0.0
C105 C 0.40419 0.95456 0.44516 0.0
C106 C 0.5553 0.12978 0.49671 0.0
C107 C 0.58609 0.14669 0.50512 0.0
C108 C 0.59415 0.16069 0.53258 0.0
C109 C 0.57141 0.15787 0.552 0.0
C110 C 0.54056 0.14012 0.54421 0.0
C111 C 0.53251 0.12619 0.51675 0.0
C112 C 0.54947 0.14281 0.44761 0.0
C113 C 0.53251 0.15695 0.45378 0.0
C114 C 0.54044 0.18437 0.44082 0.0
C115 C 0.56521 0.19799 0.42143 0.0
C116 C 0.58045 0.18277 0.41326 0.0
C117 C 0.57259 0.15533 0.42634 0.0
C118 C 0.52413 0.08928 0.46216 0.0
C119 C 0.5319 0.06686 0.4613 0.0
C120 C 0.50925 0.03648 0.46038 0.0
C121 C 0.47811 0.02778 0.46068 0.0
C122 C 0.47035 0.05038 0.4608 0.0
C123 C 0.49308 0.08079 0.46132 0.0
H124 H 0.45898 0.58537 0.63861 0.0
N125 N 0.42737 0.52723 0.6584 0.0
H126 H 0.43668 0.60936 0.60988 0.0
H127 H 0.37687 0.49928 0.62661 0.0
H128 H 0.35444 0.52339 0.59806 0.0
H129 H 0.37946 0.50722 0.69373 0.0
H130 H 0.37571 0.53089 0.73931 0.0
H131 H 0.47466 0.5756 0.68642 0.0
H132 H 0.47091 0.59901 0.73194 0.0
H133 H 0.48721 0.5614 0.64061 0.0
H134 H 0.4174 0.47229 0.66609 0.0
H135 H 0.52474 0.54523 0.6391 0.0
H136 H 0.45445 0.45542 0.66347 0.0
H137 H 0.63582 0.47622 0.62939 0.0
H138 H 0.64981 0.46593 0.58072 0.0
H139 H 0.55473 0.41761 0.55588 0.0
H140 H 0.54069 0.42762 0.60427 0.0
H141 H 0.52991 0.40117 0.64854 0.0
H142 H 0.52412 0.35814 0.67309 0.0
H143 H 0.61194 0.41372 0.71532 0.0
H144 H 0.6172 0.45671 0.68956 0.0
H145 H 0.57787 0.49868 0.61407 0.0
H146 H 0.54091 0.51527 0.61385 0.0
H147 H 0.49755 0.46156 0.69049 0.0
N148 N 0.57981 0.45795 0.64977 0.0
H149 H 0.53366 0.44418 0.69034 0.0
C150 C 0.41952 0.54034 0.63472 0.0
C151 C 0.43678 0.57137 0.62874 0.0
C152 C 0.42399 0.58516 0.61249 0.0
C153 C 0.39383 0.56814 0.60224 0.0
C154 C 0.37774 0.53685 0.60586 0.0
C155 C 0.39057 0.52308 0.62195 0.0
C156 C 0.42727 0.5394 0.68684 0.0
C157 C 0.39962 0.52692 0.70228 0.0
C158 C 0.39746 0.54043 0.72804 0.0
C159 C 0.42304 0.56661 0.73873 0.0
C160 C 0.45101 0.57874 0.72389 0.0
C161 C 0.45313 0.56527 0.69801 0.0
C162 C 0.44942 0.51797 0.6536 0.0
C163 C 0.4798 0.53823 0.64546 0.0
C164 C 0.50128 0.52886 0.64448 0.0
C165 C 0.49274 0.49904 0.65145 0.0
C166 C 0.46204 0.47869 0.65859 0.0
C167 C 0.44073 0.48814 0.65975 0.0
C168 C 0.58736 0.4529 0.62047 0.0
C169 C 0.61807 0.46359 0.61336 0.0
C170 C 0.626 0.45769 0.58579 0.0
C171 C 0.60322 0.44108 0.56495 0.0
C172 C 0.57252 0.43048 0.57182 0.0
C173 C 0.56457 0.43616 0.59941 0.0
C174 C 0.57357 0.43259 0.66798 0.0
C175 C 0.54733 0.40423 0.66405 0.0
C176 C 0.54373 0.37925 0.67926 0.0
C177 C 0.5657 0.38171 0.69993 0.0
C178 C 0.59257 0.41035 0.70258 0.0
C179 C 0.59612 0.43532 0.68728 0.0
C180 C 0.55765 0.46807 0.65072 0.0
C181 C 0.56 0.48973 0.63049 0.0
C182 C 0.53903 0.49966 0.63061 0.0
C183 C 0.51567 0.48915 0.65167 0.0
C184 C 0.51446 0.46917 0.67317 0.0
C185 C 0.5353 0.45905 0.67295 0.0
H186 H 0.14041 0.57138 0.8095 0.0
N187 N 0.11397 0.51417 0.78701 0.0
H188 H 0.18696 0.59579 0.83932 0.0
H189 H 0.13811 0.48695 0.816 0.0
H190 H 0.18479 0.51145 0.84588 0.0
H191 H 0.14164 0.49779 0.74812 0.0
H192 H 0.16792 0.5244 0.70313 0.0
H193 H 0.11253 0.56199 0.76334 0.0
H194 H 0.13902 0.58877 0.71842 0.0
H195 H 0.08668 0.54302 0.81248 0.0
H196 H 0.06948 0.45907 0.77476 0.0
H197 H 0.03211 0.52094 0.82262 0.0
H198 H 0.0148 0.437 0.78392 0.0
H199 H 0.87065 0.46038 0.83218 0.0
H200 H 0.84424 0.4691 0.87321 0.0
H201 H 0.86678 0.41643 0.9296 0.0
H202 H 0.89277 0.40761 0.88864 0.0
H203 H 0.84104 0.36953 0.84319 0.0
H204 H 0.79749 0.34142 0.8104 0.0
H205 H 0.84534 0.40589 0.7419 0.0
H206 H 0.8883 0.43537 0.77571 0.0
H207 H 0.92762 0.47788 0.81179 0.0
H208 H 0.98222 0.50174 0.79951 0.0
H209 H 0.98094 0.42057 0.82509 0.0
N210 N 0.89168 0.42143 0.83299 0.0
H211 H 0.9265 0.39702 0.83644 0.0
C212 C 0.13579 0.52721 0.81051 0.0
C213 C 0.14912 0.55779 0.81827 0.0
C214 C 0.17574 0.57179 0.83524 0.0
C215 C 0.18926 0.55538 0.84456 0.0
C216 C 0.17454 0.52438 0.83892 0.0
C217 C 0.14796 0.51042 0.82201 0.0
C218 C 0.12513 0.52782 0.7589 0.0
C219 C 0.14045 0.51725 0.74139 0.0
C220 C 0.15548 0.53244 0.71595 0.0
C221 C 0.15538 0.55848 0.70769 0.0
C222 C 0.13921 0.56864 0.72458 0.0
C223 C 0.1241 0.55335 0.75008 0.0
C224 C 0.08212 0.50241 0.79323 0.0
C225 C 0.07119 0.51987 0.80633 0.0
C226 C 0.03989 0.50727 0.81187 0.0
C227 C 0.01906 0.47711 0.80427 0.0
C228 C 0.0302 0.46007 0.79061 0.0
C229 C 0.06137 0.47262 0.78523 0.0
C230 C 0.88343 0.43326 0.85761 0.0
C231 C 0.87078 0.45169 0.85367 0.0
C232 C 0.85571 0.45655 0.87693 0.0
C233 C 0.85346 0.44314 0.9042 0.0
C234 C 0.86836 0.42691 0.90866 0.0
C235 C 0.88324 0.42199 0.88546 0.0
C236 C 0.86796 0.40433 0.81189 0.0
C237 C 0.84217 0.37763 0.82112 0.0
C238 C 0.81734 0.36172 0.80247 0.0
C239 C 0.81808 0.37167 0.77377 0.0
C240 C 0.84422 0.39802 0.76407 0.0
C241 C 0.86881 0.41463 0.78324 0.0
C242 C 0.92327 0.43568 0.82476 0.0
C243 C 0.93924 0.46534 0.81446 0.0
C244 C 0.9704 0.47893 0.8077 0.0
C245 C 0.98596 0.46303 0.81122 0.0
C246 C 0.96963 0.43331 0.82159 0.0
C247 C 0.93861 0.41982 0.82822 0.0
H248 H 0.58149 0.13449 0.98646 0.0
N249 N 0.61844 0.12383 0.95063 0.0
H250 H 0.59803 0.18082 0.01535 0.0
H251 H 0.67524 0.16574 0.96332 0.0
H252 H 0.69179 0.21161 0.99245 0.0
H253 H 0.5806 0.14457 0.93414 0.0
H254 H 0.57955 0.16477 0.88612 0.0
H255 H 0.64649 0.12196 0.90201 0.0
H256 H 0.64463 0.14143 0.85339 0.0
H257 H 0.55617 0.08893 0.94343 0.0
H258 H 0.63546 0.08948 0.97754 0.0
H259 H 0.52534 0.0349 0.95166 0.0
H260 H 0.60447 0.03585 0.98782 0.0
H261 H 0.43793 0.88623 0.99822 0.0
H262 H 0.40738 0.86142 0.04194 0.0
H263 H 0.48775 0.87204 0.085 0.0
H264 H 0.51834 0.89673 0.0411 0.0
H265 H 0.51604 0.86408 0.98139 0.0
H266 H 0.49143 0.81899 0.95024 0.0
H267 H 0.43051 0.84668 0.91614 0.0
H268 H 0.45552 0.8922 0.94741 0.0
H269 H 0.47357 0.94017 0.99168 0.0
H270 H 0.50163 0.99453 0.98457 0.0
H271 H 0.58238 0.9908 0.96158 0.0
N272 N 0.4979 0.90327 0.98986 0.0
H273 H 0.55458 0.93684 0.97071 0.0
C274 C 0.62728 0.14692 0.97264 0.0
C275 C 0.60563 0.15089 0.98828 0.0
C276 C 0.61501 0.17721 0.0047 0.0
C277 C 0.64608 0.19954 0.00581 0.0
C278 C 0.66775 0.19456 0.99185 0.0
C279 C 0.65838 0.16846 0.97537 0.0
C280 C 0.61411 0.13217 0.92175 0.0
C281 C 0.59455 0.14357 0.91673 0.0
C282 C 0.59379 0.15496 0.88932 0.0
C283 C 0.61212 0.15465 0.86646 0.0
C284 C 0.63035 0.14178 0.8709 0.0
C285 C 0.63141 0.13074 0.89847 0.0
C286 C 0.5984 0.09312 0.95932 0.0
C287 C 0.56689 0.07754 0.95313 0.0
C288 C 0.54917 0.04654 0.95807 0.0
C289 C 0.56248 0.03069 0.96982 0.0
C290 C 0.59358 0.04694 0.97777 0.0
C291 C 0.6113 0.07771 0.97234 0.0
C292 C 0.48048 0.8933 0.01654 0.0
C293 C 0.44914 0.88379 0.01722 0.0
C294 C 0.4317 0.86962 0.04207 0.0
C295 C 0.44542 0.86487 0.06644 0.0
C296 C 0.47691 0.87561 0.0663 0.0
C297 C 0.4943 0.88972 0.04145 0.0
C298 C 0.48751 0.88122 0.96674 0.0
C299 C 0.49805 0.8609 0.96651 0.0
C300 C 0.48397 0.83524 0.94889 0.0
C301 C 0.45911 0.82954 0.93115 0.0
C302 C 0.44974 0.85085 0.92972 0.0
C303 C 0.46394 0.87669 0.94748 0.0
C304 C 0.51226 0.93454 0.98222 0.0
C305 C 0.49729 0.95105 0.98516 0.0
C306 C 0.51339 0.98223 0.98088 0.0
C307 C 0.54455 0.99734 0.97306 0.0
C308 C 0.55877 0.98027 0.96858 0.0
C309 C 0.54285 0.94932 0.97335 0.0
H310 H 0.52886 0.41257 0.12105 0.0
N311 N 0.54618 0.4548 0.16242 0.0
H312 H 0.56216 0.40024 0.09207 0.0
H313 H 0.60875 0.48899 0.15844 0.0
H314 H 0.64155 0.47707 0.12928 0.0
H315 H 0.58572 0.49805 0.2009 0.0
H316 H 0.60219 0.48883 0.24826 0.0
H317 H 0.52234 0.40291 0.19073 0.0
H318 H 0.53852 0.39378 0.2384 0.0
H319 H 0.49472 0.45285 0.17725 0.0
H320 H 0.58296 0.51151 0.13831 0.0
H321 H 0.48223 0.49259 0.17326 0.0
H322 H 0.57019 0.55032 0.1331 0.0
H323 H 0.43789 0.59008 0.11877 0.0
H324 H 0.41432 0.59012 0.0722 0.0
H325 H 0.50342 0.6402 0.03241 0.0
H326 H 0.52733 0.64057 0.07943 0.0
H327 H 0.52238 0.67736 0.1389 0.0
H328 H 0.49891 0.70121 0.16678 0.0
H329 H 0.43034 0.61453 0.19936 0.0
H330 H 0.45378 0.59059 0.17138 0.0
H331 H 0.45811 0.55822 0.13055 0.0
H332 H 0.4697 0.51862 0.13895 0.0
H333 H 0.56321 0.58576 0.15956 0.0
N334 N 0.49945 0.61908 0.13048 0.0
H335 H 0.55163 0.62538 0.14946 0.0
C336 C 0.56608 0.45184 0.14166 0.0
C337 C 0.55342 0.42722 0.12227 0.0
C338 C 0.57232 0.42015 0.10588 0.0
C339 C 0.6042 0.4379 0.10855 0.0
C340 C 0.61697 0.46334 0.12679 0.0
C341 C 0.59815 0.47016 0.14339 0.0
C342 C 0.55278 0.45101 0.19227 0.0
C343 C 0.5749 0.47529 0.2091 0.0
C344 C 0.58431 0.47009 0.23606 0.0
C345 C 0.57155 0.44065 0.24657 0.0
C346 C 0.54847 0.41662 0.23054 0.0
C347 C 0.53922 0.42181 0.20353 0.0
C348 C 0.53961 0.47871 0.15808 0.0
C349 C 0.51126 0.47411 0.16757 0.0
C350 C 0.50413 0.49684 0.16516 0.0
C351 C 0.52521 0.52478 0.15289 0.0
C352 C 0.55359 0.52935 0.14321 0.0
C353 C 0.56085 0.50675 0.14595 0.0
C354 C 0.48458 0.61553 0.10262 0.0
C355 C 0.4525 0.60079 0.1001 0.0
C356 C 0.43897 0.60077 0.07354 0.0
C357 C 0.45721 0.61521 0.0491 0.0
C358 C 0.48909 0.62891 0.05116 0.0
C359 C 0.50266 0.62908 0.07782 0.0
C360 C 0.48987 0.63232 0.15291 0.0
C361 C 0.50299 0.66365 0.15291 0.0
C362 C 0.48957 0.67718 0.16867 0.0
C363 C 0.46287 0.65953 0.18487 0.0
C364 C 0.45104 0.62843 0.187 0.0
C365 C 0.46447 0.61483 0.17107 0.0
C366 C 0.50426 0.59494 0.13891 0.0
C367 C 0.48108 0.56452 0.13691 0.0
C368 C 0.48773 0.54177 0.14199 0.0
C369 C 0.51753 0.5489 0.14959 0.0
C370 C 0.54021 0.57937 0.15301 0.0
C371 C 0.5336 0.60207 0.14759 0.0
O372 O 0.60819 0.38778 0.43797 0.0
Cd373 Cd 0.61029 0.37002 0.39796 0.0
Cd374 Cd 0.66441 0.42309 0.39487 0.0
O375 O 0.65392 0.42891 0.43705 0.0
O376 O 0.57933 0.32636 0.40005 0.0
O377 O 0.62922 0.3441 0.39634 0.0
C378 C 0.60178 0.32143 0.39893 0.0
C379 C 0.71135 0.42793 0.38424 0.0
C380 C 0.62888 0.41177 0.45006 0.0
C381 C 0.61717 0.41197 0.34965 0.0
O382 O 0.64279 0.43085 0.36084 0.0
O383 O 0.60099 0.38585 0.36038 0.0
O384 O 0.70892 0.45125 0.38921 0.0
O385 O 0.68718 0.40156 0.3862 0.0
O386 O 0.23832 0.59795 0.59382 0.0
Cd387 Cd 0.26595 0.60697 0.55751 0.0
Cd388 Cd 0.25537 0.65375 0.55411 0.0
O389 O 0.23442 0.63873 0.59408 0.0
O390 O 0.28337 0.58041 0.56265 0.0
O391 O 0.31175 0.63019 0.56239 0.0
C392 C 0.3098 0.60438 0.56522 0.0
C393 C 0.2918 0.70393 0.547 0.0
C394 C 0.22873 0.61404 0.60546 0.0
C395 C 0.23128 0.60796 0.50541 0.0
O396 O 0.23132 0.63026 0.5174 0.0
O397 O 0.24532 0.59609 0.51694 0.0
O398 O 0.26316 0.69527 0.54884 0.0
O399 O 0.30009 0.68423 0.55026 0.0
O400 O 0.63959 0.2217 0.74098 0.0
Cd401 Cd 0.65352 0.25288 0.70809 0.0
Cd402 Cd 0.59821 0.24699 0.71807 0.0
O403 O 0.60104 0.22684 0.75586 0.0
O404 O 0.69777 0.26726 0.70371 0.0
O405 O 0.6803 0.29543 0.72211 0.0
C406 C 0.70319 0.29174 0.71669 0.0
C407 C 0.58595 0.28473 0.72029 0.0
C408 C 0.61869 0.21641 0.75938 0.0
C409 C 0.60724 0.22399 0.66107 0.0
O410 O 0.58779 0.22278 0.67943 0.0
O411 O 0.63559 0.23797 0.667 0.0
O412 O 0.56564 0.25696 0.72494 0.0
O413 O 0.61374 0.29131 0.71523 0.0
O414 O 0.42143 0.64898 0.92589 0.0
Cd415 Cd 0.41052 0.66277 0.88777 0.0
Cd416 Cd 0.36045 0.60798 0.89308 0.0
O417 O 0.37727 0.60729 0.93372 0.0
O418 O 0.43898 0.70704 0.88771 0.0
O419 O 0.38864 0.68595 0.89123 0.0
C420 C 0.41541 0.7099 0.89149 0.0
C421 C 0.31178 0.59972 0.88554 0.0
C422 C 0.4043 0.62639 0.9417 0.0
C423 C 0.40116 0.61822 0.84155 0.0
O424 O 0.3796 0.59909 0.85751 0.0
O425 O 0.41569 0.64597 0.84839 0.0
O426 O 0.3161 0.57769 0.89113 0.0
O427 O 0.335 0.62681 0.88598 0.0
O428 O 0.77252 0.39461 0.01393 0.0
Cd429 Cd 0.74967 0.37187 0.05123 0.0
Cd430 Cd 0.74644 0.42243 0.05788 0.0
O431 O 0.76858 0.43523 0.01814 0.0
O432 O 0.74045 0.33001 0.04396 0.0
O433 O 0.70448 0.34187 0.04974 0.0
C434 C 0.71189 0.32179 0.04434 0.0
C435 C 0.70049 0.42046 0.06609 0.0
C436 C 0.77781 0.41987 0.00437 0.0
C437 C 0.78045 0.40965 0.10384 0.0
O438 O 0.77237 0.42764 0.09439 0.0
O439 O 0.77313 0.38529 0.09036 0.0
O440 O 0.72595 0.44581 0.06596 0.0
O441 O 0.70093 0.39615 0.06018 0.0
O442 O 0.40508 0.79331 0.18521 0.0
Cd443 Cd 0.39683 0.76772 0.22235 0.0
Cd444 Cd 0.34148 0.76218 0.21531 0.0
O445 O 0.35775 0.7819 0.17523 0.0
O446 O 0.43073 0.75885 0.22356 0.0
O447 O 0.38208 0.72385 0.21704 0.0
C448 C 0.41041 0.73114 0.21843 0.0
C449 C 0.29876 0.71516 0.22151 0.0
C450 C 0.38591 0.79482 0.16857 0.0
C451 C 0.37724 0.79512 0.26854 0.0
O452 O 0.35519 0.78975 0.25166 0.0
O453 O 0.39572 0.78619 0.26217 0.0
O454 O 0.29596 0.73815 0.21602 0.0
O455 O 0.32579 0.71861 0.22189 0.0
C456 C 0.22317 0.64065 0.21852 0.0
C457 C 0.2187 0.63357 0.24877 0.0
C458 C 0.26842 0.67794 0.26035 0.0
C459 C 0.27183 0.68634 0.23039 0.0
N460 N 0.25225 0.67762 0.18105 0.0
N461 N 0.23471 0.64667 0.29912 0.0
C462 C 0.24912 0.66822 0.20946 0.0
C463 C 0.24079 0.65244 0.26986 0.0
N464 N 0.20291 0.62066 0.19854 0.0
N465 N 0.2916 0.69443 0.27979 0.0
H466 H 0.21507 0.62789 0.30712 0.0
H467 H 0.24797 0.66148 0.31571 0.0
H468 H 0.31134 0.71451 0.27438 0.0
H469 H 0.29226 0.68738 0.30095 0.0
H470 H 0.20621 0.62284 0.17597 0.0
H471 H 0.1835 0.60054 0.20461 0.0
H472 H 0.23511 0.66736 0.16534 0.0
H473 H 0.27169 0.69685 0.1734 0.0
C474 C 0.5986 0.25275 0.43264 0.0
C475 C 0.57771 0.22991 0.4133 0.0
C476 C 0.57816 0.26812 0.38135 0.0
C477 C 0.59596 0.2905 0.40254 0.0
N478 N 0.6204 0.30408 0.44999 0.0
N479 N 0.54601 0.21488 0.37018 0.0
C480 C 0.60582 0.28291 0.42848 0.0
C481 C 0.56718 0.23733 0.38776 0.0
N482 N 0.61158 0.24558 0.45502 0.0
N483 N 0.57243 0.2765 0.35487 0.0
H484 H 0.53836 0.19219 0.37374 0.0
H485 H 0.53472 0.21848 0.35312 0.0
H486 H 0.58042 0.29891 0.34949 0.0
H487 H 0.56209 0.26171 0.33736 0.0
H488 H 0.62951 0.26157 0.46781 0.0
H489 H 0.60619 0.22361 0.45941 0.0
H490 H 0.62473 0.29907 0.47085 0.0
H491 H 0.62617 0.32646 0.44794 0.0
C492 C 0.36558 0.59546 0.61225 0.0
C493 C 0.37723 0.58305 0.59158 0.0
C494 C 0.34835 0.58953 0.55222 0.0
C495 C 0.3366 0.60172 0.57294 0.0
N496 N 0.33892 0.62267 0.62092 0.0
N497 N 0.38527 0.57397 0.54148 0.0
C498 C 0.34708 0.60703 0.60234 0.0
C499 C 0.3704 0.58198 0.56134 0.0
N500 N 0.3705 0.59437 0.64158 0.0
N501 N 0.33776 0.5845 0.52403 0.0
H502 H 0.40148 0.56834 0.5477 0.0
H503 H 0.38348 0.5752 0.51888 0.0
H504 H 0.32303 0.59144 0.5163 0.0
H505 H 0.34249 0.57244 0.50863 0.0
H506 H 0.35949 0.5995 0.65793 0.0
H507 H 0.38396 0.58622 0.64994 0.0
H508 H 0.34845 0.63012 0.64163 0.0
H509 H 0.32444 0.63049 0.61482 0.0
C510 C 0.77287 0.36432 0.74353 0.0
C511 C 0.79151 0.35321 0.75418 0.0
C512 C 0.75193 0.30212 0.74131 0.0
C513 C 0.73434 0.31326 0.72801 0.0
N514 N 0.7326 0.35621 0.70979 0.0
N515 N 0.80269 0.31306 0.75397 0.0
C516 C 0.74621 0.34479 0.72699 0.0
C517 C 0.78239 0.32264 0.74971 0.0
N518 N 0.77951 0.39282 0.75038 0.0
N519 N 0.73907 0.27244 0.74848 0.0
H520 H 0.8255 0.32776 0.75961 0.0
H521 H 0.79764 0.2913 0.74872 0.0
H522 H 0.71584 0.25682 0.74631 0.0
H523 H 0.75072 0.26421 0.76041 0.0
H524 H 0.76477 0.40074 0.74569 0.0
H525 H 0.79835 0.40766 0.76298 0.0
H526 H 0.74196 0.3792 0.70643 0.0
H527 H 0.71392 0.34272 0.69635 0.0
C528 C 0.44979 0.79418 0.8891 0.0
C529 C 0.44126 0.79951 0.91709 0.0
C530 C 0.41073 0.74539 0.92617 0.0
C531 C 0.41977 0.73993 0.89836 0.0
N532 N 0.44087 0.75798 0.85046 0.0
N533 N 0.4073 0.78102 0.95857 0.0
C534 C 0.43702 0.76405 0.87883 0.0
C535 C 0.41936 0.77529 0.93424 0.0
N536 N 0.47102 0.81787 0.87297 0.0
N537 N 0.39616 0.72254 0.9459 0.0
H538 H 0.41364 0.80276 0.96538 0.0
H539 H 0.38902 0.7643 0.97035 0.0
H540 H 0.3896 0.70027 0.94135 0.0
H541 H 0.39263 0.72597 0.96773 0.0
H542 H 0.48102 0.81545 0.85398 0.0
H543 H 0.47972 0.8402 0.87944 0.0
H544 H 0.45101 0.77437 0.83437 0.0
H545 H 0.43129 0.73605 0.84236 0.0
C546 C 0.63628 0.43807 0.06653 0.0
C547 C 0.62455 0.42831 0.0951 0.0
C548 C 0.65744 0.40663 0.10129 0.0
C549 C 0.67183 0.41966 0.07421 0.0
N550 N 0.67501 0.44663 0.03021 0.0
N551 N 0.62291 0.40327 0.14003 0.0
C552 C 0.66104 0.43483 0.05645 0.0
C553 C 0.63449 0.41211 0.11239 0.0
N554 N 0.62356 0.45031 0.04915 0.0
N555 N 0.66605 0.38944 0.11662 0.0
H556 H 0.60498 0.40548 0.14833 0.0
H557 H 0.63175 0.39495 0.15542 0.0
H558 H 0.68414 0.38651 0.11043 0.0
H559 H 0.65427 0.37648 0.13467 0.0
H560 H 0.62906 0.45572 0.0272 0.0
H561 H 0.60573 0.45332 0.05621 0.0
H562 H 0.67094 0.46091 0.01756 0.0
H563 H 0.69167 0.44277 0.02128 0.0
C564 C 0.34084 0.78932 0.55076 0.0
C565 C 0.34665 0.79581 0.52048 0.0
C566 C 0.32336 0.74198 0.50932 0.0
C567 C 0.31397 0.73538 0.53895 0.0
N568 N 0.31236 0.75194 0.58806 0.0
N569 N 0.34026 0.77846 0.47022 0.0
C570 C 0.32247 0.75885 0.5598 0.0
C571 C 0.3374 0.7722 0.49956 0.0
N572 N 0.35333 0.8123 0.57079 0.0
N573 N 0.31853 0.7193 0.49039 0.0
H574 H 0.35008 0.80019 0.46192 0.0
H575 H 0.33063 0.76201 0.45393 0.0
H576 H 0.30731 0.69672 0.49641 0.0
H577 H 0.32788 0.72302 0.46942 0.0
H578 H 0.35244 0.80907 0.59334 0.0
H579 H 0.36682 0.8348 0.56473 0.0
H580 H 0.31462 0.76783 0.60357 0.0
H581 H 0.30027 0.72986 0.59569 0.0
C582 C 0.58491 0.35715 0.73635 0.0
C583 C 0.56321 0.35432 0.71516 0.0
C584 C 0.5511 0.30327 0.70412 0.0
C585 C 0.57718 0.30818 0.72024 0.0
N586 N 0.61652 0.33841 0.75568 0.0
N587 N 0.51162 0.31583 0.70395 0.0
C588 C 0.59331 0.33466 0.73779 0.0
C589 C 0.54181 0.32476 0.70599 0.0
N590 N 0.5941 0.37901 0.75735 0.0
N591 N 0.53578 0.279 0.68591 0.0
H592 H 0.5035 0.32979 0.71106 0.0
H593 H 0.49476 0.29359 0.69961 0.0
H594 H 0.54267 0.26341 0.68194 0.0
H595 H 0.51798 0.27634 0.67246 0.0
H596 H 0.60776 0.381 0.77517 0.0
H597 H 0.58483 0.39301 0.75851 0.0
H598 H 0.63151 0.35873 0.76598 0.0
H599 H 0.62139 0.3214 0.75957 0.0
C600 C 0.22632 0.571 0.88644 0.0
C601 C 0.221 0.57111 0.85599 0.0
C602 C 0.27616 0.59693 0.84638 0.0
C603 C 0.28116 0.59339 0.87631 0.0
N604 N 0.26185 0.57711 0.92513 0.0
N605 N 0.23997 0.58187 0.80632 0.0
C606 C 0.25646 0.58059 0.89649 0.0
C607 C 0.24572 0.58386 0.8358 0.0
N608 N 0.20255 0.56205 0.90563 0.0
N609 N 0.30048 0.61236 0.8279 0.0
H610 H 0.2181 0.57297 0.79753 0.0
H611 H 0.25653 0.5871 0.79029 0.0
H612 H 0.32311 0.62064 0.83409 0.0
H613 H 0.29853 0.61891 0.80688 0.0
H614 H 0.20508 0.56388 0.9283 0.0
H615 H 0.18027 0.55479 0.89874 0.0
H616 H 0.24469 0.56483 0.94032 0.0
H617 H 0.28383 0.5856 0.93354 0.0
C618 C 0.65779 0.25259 0.00028 0.0
C619 C 0.65622 0.22971 0.01858 0.0
C620 C 0.68582 0.267 0.0566 0.0
C621 C 0.68866 0.29007 0.03774 0.0
N622 N 0.67227 0.3049 0.99464 0.0
N623 N 0.66235 0.21336 0.06592 0.0
C624 C 0.67269 0.28282 0.01067 0.0
C625 C 0.66812 0.2364 0.04744 0.0
N626 N 0.64656 0.24558 0.97231 0.0
N627 N 0.70075 0.27459 0.08295 0.0
H628 H 0.64952 0.19081 0.05955 0.0
H629 H 0.66815 0.2162 0.08803 0.0
H630 H 0.71208 0.29657 0.09111 0.0
H631 H 0.70278 0.25951 0.09639 0.0
H632 H 0.65042 0.26149 0.95643 0.0
H633 H 0.63447 0.22357 0.96429 0.0
H634 H 0.65841 0.30072 0.97639 0.0
H635 H 0.68416 0.32754 0.00068 0.0
C636 C 0.45131 0.68692 0.22399 0.0
C637 C 0.44533 0.67342 0.19578 0.0
C638 C 0.41458 0.69601 0.18315 0.0
C639 C 0.41991 0.70901 0.21164 0.0
N640 N 0.43776 0.71212 0.2611 0.0
N641 N 0.41608 0.65925 0.15096 0.0
C642 C 0.4366 0.703 0.23269 0.0
C643 C 0.42509 0.67594 0.17625 0.0
N644 N 0.47175 0.68512 0.24201 0.0
N645 N 0.40145 0.70447 0.16199 0.0
H646 H 0.42396 0.6449 0.14468 0.0
H647 H 0.39879 0.65758 0.13745 0.0
H648 H 0.39388 0.71956 0.16571 0.0
H649 H 0.40043 0.69859 0.13996 0.0
H650 H 0.4799 0.69735 0.26142 0.0
H651 H 0.48193 0.6725 0.23668 0.0
H652 H 0.44713 0.70611 0.27814 0.0
H653 H 0.42691 0.72364 0.26813 0.0
C654 C 0.77432 0.4319 0.33577 0.0
C655 C 0.8001 0.44961 0.3539 0.0
C656 C 0.76635 0.44574 0.39429 0.0
C657 C 0.74107 0.43186 0.37486 0.0
N658 N 0.72068 0.41341 0.32651 0.0
N659 N 0.82156 0.47416 0.40001 0.0
C660 C 0.74484 0.42488 0.34556 0.0
C661 C 0.79636 0.4565 0.3832 0.0
N662 N 0.77813 0.42202 0.30906 0.0
N663 N 0.76146 0.44809 0.42343 0.0
H664 H 0.84376 0.48124 0.39293 0.0
H665 H 0.8207 0.48305 0.4203 0.0
H666 H 0.73966 0.44011 0.43215 0.0
H667 H 0.77846 0.45547 0.43933 0.0
H668 H 0.76007 0.40637 0.29618 0.0
H669 H 0.79948 0.42756 0.30067 0.0
H670 H 0.72278 0.41145 0.30402 0.0
H671 H 0.69863 0.4077 0.33274 0.0
C672 C 0.16493 0.57181 0.4519 0.0
C673 C 0.18053 0.57352 0.4255 0.0
C674 C 0.22962 0.59818 0.45141 0.0
C675 C 0.21386 0.59519 0.47805 0.0
N676 N 0.16654 0.57444 0.50501 0.0
N677 N 0.22655 0.58349 0.40033 0.0
C678 C 0.18148 0.58065 0.47869 0.0
C679 C 0.21256 0.58518 0.42535 0.0
N680 N 0.13447 0.56254 0.45119 0.0
N681 N 0.26087 0.61463 0.4508 0.0
H682 H 0.21486 0.57467 0.38066 0.0
H683 H 0.24918 0.5886 0.39956 0.0
H684 H 0.27416 0.62445 0.46947 0.0
H685 H 0.27365 0.62057 0.43156 0.0
H686 H 0.12256 0.56418 0.46903 0.0
H687 H 0.12139 0.55496 0.43209 0.0
H688 H 0.14292 0.56112 0.50714 0.0
H689 H 0.17792 0.58047 0.52511 0.0
C690 C 0.57873 0.15967 0.60636 0.0
C691 C 0.57994 0.1747 0.58007 0.0
C692 C 0.59955 0.22236 0.60684 0.0
C693 C 0.59673 0.20697 0.63333 0.0
N694 N 0.5802 0.16073 0.65951 0.0
N695 N 0.5868 0.2188 0.5552 0.0
C696 C 0.58517 0.17549 0.63345 0.0
C697 C 0.58906 0.20566 0.58026 0.0
N698 N 0.57249 0.13058 0.60523 0.0
N699 N 0.61265 0.25297 0.6071 0.0
H700 H 0.57952 0.20736 0.53523 0.0
H701 H 0.58991 0.24034 0.55451 0.0
H702 H 0.61927 0.26575 0.62636 0.0
H703 H 0.61868 0.26598 0.58823 0.0
H704 H 0.57459 0.11933 0.62309 0.0
H705 H 0.5673 0.11819 0.58578 0.0
H706 H 0.56858 0.13741 0.66131 0.0
H707 H 0.58589 0.17169 0.67979 0.0
C708 C 0.40894 0.6021 0.7616 0.0
C709 C 0.42 0.58197 0.76492 0.0
C710 C 0.42375 0.59019 0.81802 0.0
C711 C 0.40956 0.60764 0.81498 0.0
N712 N 0.3857 0.62807 0.78476 0.0
N713 N 0.43568 0.55452 0.7958 0.0
C714 C 0.40158 0.61327 0.78698 0.0
C715 C 0.42695 0.57547 0.79301 0.0
N716 N 0.40582 0.61074 0.73417 0.0
N717 N 0.43483 0.58836 0.84474 0.0
H718 H 0.43909 0.54391 0.77786 0.0
H719 H 0.43762 0.54614 0.81585 0.0
H720 H 0.43288 0.59892 0.86353 0.0
H721 H 0.44816 0.57858 0.84791 0.0
H722 H 0.40098 0.62775 0.7303 0.0
H723 H 0.4104 0.60252 0.71505 0.0
H724 H 0.37603 0.6298 0.76533 0.0
H725 H 0.38023 0.63692 0.80285 0.0
C726 C 0.84444 0.46154 0.95192 0.0
C727 C 0.83238 0.44234 0.92717 0.0
C728 C 0.78199 0.41546 0.95048 0.0
C729 C 0.79533 0.43118 0.97689 0.0
N730 N 0.83915 0.46885 0.00373 0.0
N731 N 0.79007 0.40032 0.90251 0.0
C732 C 0.82643 0.45458 0.97779 0.0
C733 C 0.80109 0.4194 0.92611 0.0
N734 N 0.87315 0.48626 0.95058 0.0
N735 N 0.75098 0.39689 0.94881 0.0
H736 H 0.80307 0.40284 0.88386 0.0
H737 H 0.7686 0.38089 0.90202 0.0
H738 H 0.73648 0.39372 0.96642 0.0
H739 H 0.7394 0.38688 0.92943 0.0
H740 H 0.88241 0.50274 0.96686 0.0
H741 H 0.88677 0.49162 0.93185 0.0
H742 H 0.86248 0.48352 0.00667 0.0
H743 H 0.82655 0.46472 0.02299 0.0
C744 C 0.42516 0.86147 0.11724 0.0
C745 C 0.4266 0.84674 0.09147 0.0
C746 C 0.39526 0.79759 0.11466 0.0
C747 C 0.39707 0.81249 0.14143 0.0
N748 N 0.41411 0.85812 0.16934 0.0
N749 N 0.41503 0.80129 0.06543 0.0
C750 C 0.41195 0.84433 0.143 0.0
C751 C 0.4119 0.81488 0.08998 0.0
N752 N 0.43604 0.89174 0.11681 0.0
N753 N 0.37766 0.76693 0.11294 0.0
H754 H 0.42647 0.81311 0.04665 0.0
H755 H 0.40803 0.77855 0.06416 0.0
H756 H 0.36587 0.75356 0.13087 0.0
H757 H 0.37278 0.75482 0.0934 0.0
H758 H 0.4331 0.9035 0.1339 0.0
H759 H 0.44609 0.9049 0.09829 0.0
H760 H 0.42771 0.88119 0.17285 0.0
H761 H 0.40336 0.84624 0.18833 0.0
C762 C 0.57094 0.43385 0.30097 0.0
C763 C 0.58402 0.4346 0.27326 0.0
C764 C 0.62068 0.4233 0.29608 0.0
C765 C 0.60614 0.42036 0.3235 0.0
N766 N 0.56657 0.42081 0.35251 0.0
N767 N 0.61919 0.42767 0.24325 0.0
C768 C 0.58098 0.42505 0.32608 0.0
C769 C 0.60843 0.42882 0.2705 0.0
N770 N 0.54943 0.44225 0.30326 0.0
N771 N 0.64629 0.42092 0.29457 0.0
H772 H 0.61158 0.43264 0.22406 0.0
H773 H 0.63432 0.42007 0.23925 0.0
H774 H 0.65489 0.41502 0.3124 0.0
H775 H 0.66019 0.42641 0.27612 0.0
H776 H 0.54118 0.44534 0.32309 0.0
H777 H 0.54111 0.44815 0.28519 0.0
H778 H 0.546 0.42035 0.35529 0.0
H779 H 0.57438 0.41618 0.37176 0.0
C780 C 0.37989 0.815 0.34923 0.0
C781 C 0.38631 0.84507 0.34706 0.0
C782 C 0.39101 0.84346 0.29376 0.0
C783 C 0.38163 0.81252 0.29569 0.0
N784 N 0.36364 0.76754 0.32435 0.0
N785 N 0.39494 0.88737 0.31776 0.0
C786 C 0.3753 0.79793 0.3232 0.0
C787 C 0.39112 0.85921 0.31945 0.0
N788 N 0.37867 0.80298 0.37617 0.0
N789 N 0.40071 0.85793 0.26749 0.0
H790 H 0.39595 0.89991 0.33621 0.0
H791 H 0.395 0.89754 0.29812 0.0
H792 H 0.401 0.84708 0.24822 0.0
H793 H 0.41086 0.88112 0.26517 0.0
H794 H 0.37739 0.78239 0.37917 0.0
H795 H 0.38128 0.81461 0.39575 0.0
H796 H 0.35521 0.75497 0.34341 0.0
H797 H 0.36024 0.75432 0.30575 0.0
C798 C 0.61236 0.4076 0.53169 0.0
C799 C 0.61135 0.43435 0.53583 0.0
C800 C 0.62071 0.44573 0.48351 0.0
C801 C 0.62354 0.41994 0.47967 0.0
N802 N 0.62731 0.37908 0.50036 0.0
N803 N 0.61896 0.4813 0.51734 0.0
C804 C 0.62079 0.40158 0.50384 0.0
C805 C 0.61693 0.4542 0.51221 0.0
N806 N 0.60461 0.38767 0.55422 0.0
N807 N 0.62015 0.46126 0.45957 0.0
H808 H 0.61548 0.4879 0.53796 0.0
H809 H 0.62636 0.49821 0.50173 0.0
H810 H 0.62267 0.45567 0.43815 0.0
H811 H 0.61472 0.47816 0.46062 0.0
H812 H 0.60136 0.36617 0.55169 0.0
H813 H 0.59937 0.39181 0.57523 0.0
H814 H 0.6289 0.36694 0.51769 0.0
H815 H 0.63372 0.37411 0.4803 0.0
C816 C 0.20597 0.59407 0.68511 0.0
C817 C 0.17377 0.57585 0.68211 0.0
C818 C 0.17762 0.58804 0.62988 0.0
C819 C 0.20995 0.60318 0.63224 0.0
N820 N 0.25545 0.61954 0.66109 0.0
N821 N 0.12858 0.55337 0.65189 0.0
C822 C 0.22431 0.60604 0.65963 0.0
C823 C 0.15942 0.5725 0.6546 0.0
N824 N 0.21885 0.60035 0.71244 0.0
N825 N 0.16441 0.58852 0.60397 0.0
H826 H 0.11446 0.54207 0.66964 0.0
H827 H 0.11716 0.54713 0.63189 0.0
H828 H 0.17701 0.59882 0.58513 0.0
H829 H 0.14117 0.58067 0.60159 0.0
H830 H 0.24179 0.61584 0.71645 0.0
H831 H 0.20605 0.59188 0.73158 0.0
H832 H 0.26716 0.61915 0.6796 0.0
H833 H 0.26969 0.62981 0.64312 0.0
C834 C 0.63824 0.20007 0.83454 0.0
C835 C 0.61399 0.17003 0.83859 0.0
C836 C 0.59378 0.16975 0.78977 0.0
C837 C 0.61689 0.20033 0.78655 0.0
N838 N 0.65891 0.24608 0.80642 0.0
N839 N 0.56711 0.12679 0.82205 0.0
C840 C 0.63863 0.21588 0.80904 0.0
C841 C 0.59127 0.15499 0.81674 0.0
N842 N 0.66103 0.21336 0.855 0.0
N843 N 0.57493 0.15466 0.76667 0.0
H844 H 0.56528 0.11481 0.84101 0.0
H845 H 0.54797 0.11584 0.80858 0.0
H846 H 0.57594 0.16498 0.74677 0.0
H847 H 0.5597 0.13157 0.76632 0.0
H848 H 0.68124 0.23368 0.85176 0.0
H849 H 0.66075 0.20323 0.87478 0.0
H850 H 0.67307 0.25957 0.8233 0.0
H851 H 0.66021 0.25839 0.78788 0.0
C852 C 0.43784 0.64192 0.0183 0.0
C853 C 0.44293 0.6175 0.02178 0.0
C854 C 0.42304 0.59905 0.97244 0.0
C855 C 0.41632 0.62246 0.96966 0.0
N856 N 0.41238 0.66317 0.99111 0.0
N857 N 0.43666 0.57043 0.00462 0.0
C858 C 0.42237 0.64311 0.99293 0.0
C859 C 0.43437 0.5953 -0.00044 0.0
N860 N 0.4484 0.6643 0.03901 0.0
N861 N 0.41988 0.58128 0.94876 0.0
H862 H 0.4457 0.5674 0.02392 0.0
H863 H 0.42765 0.55181 0.99068 0.0
H864 H 0.41152 0.58324 0.92856 0.0
H865 H 0.42765 0.5661 0.94834 0.0
H866 H 0.44862 0.68441 0.0362 0.0
H867 H 0.45902 0.66379 0.05835 0.0
H868 H 0.41316 0.67671 0.00849 0.0
H869 H 0.40086 0.66457 0.97286 0.0
C870 C 0.84924 0.43685 0.15401 0.0
C871 C 0.83664 0.43986 0.18071 0.0
C872 C 0.78599 0.41757 0.158 0.0
C873 C 0.79932 0.41781 0.13058 0.0
N874 N 0.84371 0.42984 0.1013 0.0
N875 N 0.79384 0.43486 0.20854 0.0
C876 C 0.83093 0.42773 0.12828 0.0
C877 C 0.80516 0.43053 0.18289 0.0
N878 N 0.87864 0.44256 0.1534 0.0
N879 N 0.75491 0.40426 0.16028 0.0
H880 H 0.80688 0.44312 0.22761 0.0
H881 H 0.77209 0.43195 0.21062 0.0
H882 H 0.74026 0.39457 0.14241 0.0
H883 H 0.74338 0.40058 0.1801 0.0
H884 H 0.8882 0.43774 0.13548 0.0
H885 H 0.89292 0.45004 0.17172 0.0
H886 H 0.86715 0.44019 0.09771 0.0
H887 H 0.83101 0.42306 0.08195 0.0
loop_
_geom_bond_atom_site_label_1
_geom_bond_atom_site_label_2
_geom_bond_distance
_geom_bond_site_symmetry_2
_ccdc_geom_bond_type
H0 C27 0.929 . S
N1 C26 1.433 . S
N1 C32 1.435 . S
N1 C38 1.423 . S
H2 C28 0.930 . S
H3 C31 0.931 . S
H4 C30 0.929 . S
H5 C33 0.930 . S
H6 C34 0.932 . S
H7 C37 0.929 . S
H8 C36 0.931 . S
H9 C39 0.929 . S
H10 C43 0.932 . S
H11 C40 0.931 . S
H12 C42 0.929 . S
H13 C45 0.929 . S
H14 C46 0.930 . S
H15 C48 0.929 . S
H16 C49 0.931 . S
H17 C51 0.930 . S
H18 C52 0.932 . S
H19 C54 0.931 . S
H20 C55 0.929 . S
H21 C57 0.929 . S
H22 C58 0.931 . S
H23 C60 0.929 . S
N24 C44 1.433 . S
N24 C50 1.435 . S
N24 C56 1.423 . S
H25 C61 0.932 . S
C26 N1 1.433 . S
C26 C27 1.363 . S
C26 C31 1.370 . S
C27 H0 0.929 . S
C27 C26 1.363 . S
C27 C28 1.385 . S
C28 H2 0.930 . S
C28 C27 1.385 . S
C28 C29 1.357 . S
C29 C28 1.357 . S
C29 C30 1.406 . S
C30 H4 0.929 . S
C30 C29 1.406 . S
C30 C31 1.391 . S
C31 H3 0.931 . S
C31 C26 1.370 . S
C31 C30 1.391 . S
C32 N1 1.435 . S
C32 C33 1.358 . S
C32 C37 1.371 . S
C33 H5 0.930 . S
C33 C32 1.358 . S
C33 C34 1.405 . S
C34 H6 0.932 . S
C34 C33 1.405 . S
C34 C35 1.383 . S
C35 C34 1.383 . S
C35 C36 1.393 . S
C36 H8 0.931 . S
C36 C35 1.393 . S
C36 C37 1.382 . S
C37 H7 0.929 . S
C37 C32 1.371 . S
C37 C36 1.382 . S
C38 N1 1.423 . S
C38 C39 1.362 . S
C38 C43 1.388 . S
C39 H9 0.929 . S
C39 C38 1.362 . S
C39 C40 1.376 . S
C40 H11 0.931 . S
C40 C39 1.376 . S
C40 C41 1.396 . S
C41 C40 1.396 . S
C41 C42 1.348 . S
C41 C59 1.472 1_455 S
C42 H12 0.929 . S
C42 C41 1.348 . S
C42 C43 1.443 . S
C43 H10 0.932 . S
C43 C38 1.388 . S
C43 C42 1.443 . S
C44 N24 1.433 . S
C44 C45 1.363 . S
C44 C49 1.370 . S
C45 H13 0.929 . S
C45 C44 1.363 . S
C45 C46 1.385 . S
C46 H14 0.930 . S
C46 C45 1.385 . S
C46 C47 1.357 . S
C47 C46 1.357 . S
C47 C48 1.406 . S
C48 H15 0.929 . S
C48 C47 1.406 . S
C48 C49 1.391 . S
C49 H16 0.931 . S
C49 C44 1.370 . S
C49 C48 1.391 . S
C50 N24 1.435 . S
C50 C51 1.358 . S
C50 C55 1.371 . S
C51 H17 0.930 . S
C51 C50 1.358 . S
C51 C52 1.405 . S
C52 H18 0.932 . S
C52 C51 1.405 . S
C52 C53 1.383 . S
C53 C52 1.383 . S
C53 C54 1.393 . S
C54 H19 0.931 . S
C54 C53 1.393 . S
C54 C55 1.382 . S
C55 H20 0.929 . S
C55 C50 1.371 . S
C55 C54 1.382 . S
C56 N24 1.423 . S
C56 C57 1.362 . S
C56 C61 1.388 . S
C57 H21 0.929 . S
C57 C56 1.362 . S
C57 C58 1.376 . S
C58 H22 0.931 . S
C58 C57 1.376 . S
C58 C59 1.396 . S
C59 C41 1.472 1_655 S
C59 C58 1.396 . S
C59 C60 1.348 . S
C60 H23 0.929 . S
C60 C59 1.348 . S
C60 C61 1.443 . S
C61 H25 0.932 . S
C61 C56 1.388 . S
C61 C60 1.443 . S
H62 C89 0.929 . S
N63 C88 1.433 . S
N63 C94 1.435 . S
N63 C100 1.423 . S
H64 C90 0.930 . S
H65 C93 0.931 . S
H66 C92 0.929 . S
H67 C95 0.930 . S
H68 C96 0.932 . S
H69 C99 0.929 . S
H70 C98 0.931 . S
H71 C101 0.929 . S
H72 C105 0.932 . S
H73 C102 0.931 . S
H74 C104 0.922 1_545 S
H75 C107 0.929 . S
H76 C108 0.930 . S
H77 C110 0.929 . S
H78 C111 0.931 . S
H79 C113 0.930 . S
H80 C114 0.932 . S
H81 C116 0.931 . S
H82 C117 0.929 . S
H83 C119 0.929 . S
H84 C120 0.931 . S
H85 C122 0.929 . S
N86 C106 1.433 . S
N86 C112 1.435 . S
N86 C118 1.423 . S
H87 C123 0.932 . S
C88 N63 1.433 . S
C88 C89 1.363 . S
C88 C93 1.370 . S
C89 H62 0.929 . S
C89 C88 1.363 . S
C89 C90 1.385 . S
C90 H64 0.930 . S
C90 C89 1.385 . S
C90 C91 1.357 . S
C91 C90 1.357 . S
C91 C92 1.406 . S
C92 H66 0.929 . S
C92 C91 1.406 . S
C92 C93 1.391 . S
C93 H65 0.931 . S
C93 C88 1.370 . S
C93 C92 1.391 . S
C94 N63 1.435 . S
C94 C95 1.358 . S
C94 C99 1.371 . S
C95 H67 0.930 . S
C95 C94 1.358 . S
C95 C96 1.405 . S
C96 H68 0.932 . S
C96 C95 1.405 . S
C96 C97 1.383 . S
C97 C96 1.383 . S
C97 C98 1.393 . S
C98 H70 0.931 . S
C98 C97 1.393 . S
C98 C99 1.382 . S
C99 H69 0.929 . S
C99 C94 1.371 . S
C99 C98 1.382 . S
C100 N63 1.423 . S
C100 C101 1.362 . S
C100 C105 1.388 . S
C101 H71 0.929 . S
C101 C100 1.362 . S
C101 C102 1.376 . S
C102 H73 0.931 . S
C102 C101 1.376 . S
C102 C103 1.396 . S
C103 C102 1.396 . S
C103 C104 1.348 . S
C103 C121 1.472 1_565 S
C104 H74 0.922 1_565 S
C104 C103 1.348 . S
C104 C105 1.443 . S
C105 H72 0.932 . S
C105 C100 1.388 . S
C105 C104 1.443 . S
C106 N86 1.433 . S
C106 C107 1.363 . S
C106 C111 1.370 . S
C107 H75 0.929 . S
C107 C106 1.363 . S
C107 C108 1.385 . S
C108 H76 0.930 . S
C108 C107 1.385 . S
C108 C109 1.357 . S
C109 C108 1.357 . S
C109 C110 1.406 . S
C110 H77 0.929 . S
C110 C109 1.406 . S
C110 C111 1.391 . S
C111 H78 0.931 . S
C111 C106 1.370 . S
C111 C110 1.391 . S
C112 N86 1.435 . S
C112 C113 1.358 . S
C112 C117 1.371 . S
C113 H79 0.930 . S
C113 C112 1.358 . S
C113 C114 1.405 . S
C114 H80 0.932 . S
C114 C113 1.405 . S
C114 C115 1.383 . S
C115 C114 1.383 . S
C115 C116 1.393 . S
C116 H81 0.931 . S
C116 C115 1.393 . S
C116 C117 1.382 . S
C117 H82 0.929 . S
C117 C112 1.371 . S
C117 C116 1.382 . S
C118 N86 1.423 . S
C118 C119 1.362 . S
C118 C123 1.388 . S
C119 H83 0.929 . S
C119 C118 1.362 . S
C119 C120 1.376 . S
C120 H84 0.931 . S
C120 C119 1.376 . S
C120 C121 1.396 . S
C121 C103 1.472 1_545 S
C121 C120 1.396 . S
C121 C122 1.348 . S
C122 H85 0.929 . S
C122 C121 1.348 . S
C122 C123 1.443 . S
C123 H87 0.932 . S
C123 C118 1.388 . S
C123 C122 1.443 . S
H124 C151 0.929 . S
N125 C150 1.433 . S
N125 C156 1.435 . S
N125 C162 1.423 . S
H126 C152 0.930 . S
H127 C155 0.931 . S
H128 C154 0.929 . S
H129 C157 0.930 . S
H130 C158 0.932 . S
H131 C161 0.929 . S
H132 C160 0.931 . S
H133 C163 0.929 . S
H134 C167 0.932 . S
H135 C164 0.931 . S
H136 C166 0.929 . S
H137 C169 0.929 . S
H138 C170 0.930 . S
H139 C172 0.929 . S
H140 C173 0.931 . S
H141 C175 0.930 . S
H142 C176 0.932 . S
H143 C178 0.931 . S
H144 C179 0.929 . S
H145 C181 0.929 . S
H146 C182 0.931 . S
H147 C184 0.929 . S
N148 C168 1.433 . S
N148 C174 1.435 . S
N148 C180 1.423 . S
H149 C185 0.932 . S
C150 N125 1.433 . S
C150 C151 1.363 . S
C150 C155 1.370 . S
C151 H124 0.929 . S
C151 C150 1.363 . S
C151 C152 1.385 . S
C152 H126 0.930 . S
C152 C151 1.385 . S
C152 C153 1.357 . S
C153 C152 1.357 . S
C153 C154 1.406 . S
C154 H128 0.929 . S
C154 C153 1.406 . S
C154 C155 1.391 . S
C155 H127 0.931 . S
C155 C150 1.370 . S
C155 C154 1.391 . S
C156 N125 1.435 . S
C156 C157 1.358 . S
C156 C161 1.371 . S
C157 H129 0.930 . S
C157 C156 1.358 . S
C157 C158 1.405 . S
C158 H130 0.932 . S
C158 C157 1.405 . S
C158 C159 1.383 . S
C159 C158 1.383 . S
C159 C160 1.393 . S
C160 H132 0.931 . S
C160 C159 1.393 . S
C160 C161 1.382 . S
C161 H131 0.929 . S
C161 C156 1.371 . S
C161 C160 1.382 . S
C162 N125 1.423 . S
C162 C163 1.362 . S
C162 C167 1.388 . S
C163 H133 0.929 . S
C163 C162 1.362 . S
C163 C164 1.376 . S
C164 H135 0.931 . S
C164 C163 1.376 . S
C164 C165 1.396 . S
C165 C164 1.396 . S
C165 C166 1.348 . S
C165 C183 1.472 . S
C166 H136 0.929 . S
C166 C165 1.348 . S
C166 C167 1.443 . S
C167 H134 0.932 . S
C167 C162 1.388 . S
C167 C166 1.443 . S
C168 N148 1.433 . S
C168 C169 1.363 . S
C168 C173 1.370 . S
C169 H137 0.929 . S
C169 C168 1.363 . S
C169 C170 1.385 . S
C170 H138 0.930 . S
C170 C169 1.385 . S
C170 C171 1.357 . S
C171 C170 1.357 . S
C171 C172 1.406 . S
C172 H139 0.929 . S
C172 C171 1.406 . S
C172 C173 1.391 . S
C173 H140 0.931 . S
C173 C168 1.370 . S
C173 C172 1.391 . S
C174 N148 1.435 . S
C174 C175 1.358 . S
C174 C179 1.371 . S
C175 H141 0.930 . S
C175 C174 1.358 . S
C175 C176 1.405 . S
C176 H142 0.932 . S
C176 C175 1.405 . S
C176 C177 1.383 . S
C177 C176 1.383 . S
C177 C178 1.393 . S
C178 H143 0.931 . S
C178 C177 1.393 . S
C178 C179 1.382 . S
C179 H144 0.929 . S
C179 C174 1.371 . S
C179 C178 1.382 . S
C180 N148 1.423 . S
C180 C181 1.362 . S
C180 C185 1.388 . S
C181 H145 0.929 . S
C181 C180 1.362 . S
C181 C182 1.376 . S
C182 H146 0.931 . S
C182 C181 1.376 . S
C182 C183 1.396 . S
C183 C165 1.472 . S
C183 C182 1.396 . S
C183 C184 1.348 . S
C184 H147 0.929 . S
C184 C183 1.348 . S
C184 C185 1.443 . S
C185 H149 0.932 . S
C185 C180 1.388 . S
C185 C184 1.443 . S
H186 C213 0.929 . S
N187 C212 1.433 . S
N187 C218 1.435 . S
N187 C224 1.423 . S
H188 C214 0.930 . S
H189 C217 0.931 . S
H190 C216 0.929 . S
H191 C219 0.930 . S
H192 C220 0.932 . S
H193 C223 0.929 . S
H194 C222 0.931 . S
H195 C225 0.929 . S
H196 C229 0.932 . S
H197 C226 0.931 . S
H198 C228 0.929 . S
H199 C231 0.929 . S
H200 C232 0.930 . S
H201 C234 0.929 . S
H202 C235 0.931 . S
H203 C237 0.930 . S
H204 C238 0.932 . S
H205 C240 0.931 . S
H206 C241 0.929 . S
H207 C243 0.929 . S
H208 C244 0.931 . S
H209 C246 0.929 . S
N210 C230 1.433 . S
N210 C236 1.435 . S
N210 C242 1.423 . S
H211 C247 0.932 . S
C212 N187 1.433 . S
C212 C213 1.363 . S
C212 C217 1.370 . S
C213 H186 0.929 . S
C213 C212 1.363 . S
C213 C214 1.385 . S
C214 H188 0.930 . S
C214 C213 1.385 . S
C214 C215 1.357 . S
C215 C214 1.357 . S
C215 C216 1.406 . S
C216 H190 0.929 . S
C216 C215 1.406 . S
C216 C217 1.391 . S
C217 H189 0.931 . S
C217 C212 1.370 . S
C217 C216 1.391 . S
C218 N187 1.435 . S
C218 C219 1.358 . S
C218 C223 1.371 . S
C219 H191 0.930 . S
C219 C218 1.358 . S
C219 C220 1.405 . S
C220 H192 0.932 . S
C220 C219 1.405 . S
C220 C221 1.383 . S
C221 C220 1.383 . S
C221 C222 1.393 . S
C222 H194 0.931 . S
C222 C221 1.393 . S
C222 C223 1.382 . S
C223 H193 0.929 . S
C223 C218 1.371 . S
C223 C222 1.382 . S
C224 N187 1.423 . S
C224 C225 1.362 . S
C224 C229 1.388 . S
C225 H195 0.929 . S
C225 C224 1.362 . S
C225 C226 1.376 . S
C226 H197 0.931 . S
C226 C225 1.376 . S
C226 C227 1.396 . S
C227 C226 1.396 . S
C227 C228 1.348 . S
C227 C245 1.472 1_455 S
C228 H198 0.929 . S
C228 C227 1.348 . S
C228 C229 1.443 . S
C229 H196 0.932 . S
C229 C224 1.388 . S
C229 C228 1.443 . S
C230 N210 1.433 . S
C230 C231 1.363 . S
C230 C235 1.370 . S
C231 H199 0.929 . S
C231 C230 1.363 . S
C231 C232 1.385 . S
C232 H200 0.930 . S
C232 C231 1.385 . S
C232 C233 1.357 . S
C233 C232 1.357 . S
C233 C234 1.406 . S
C234 H201 0.929 . S
C234 C233 1.406 . S
C234 C235 1.391 . S
C235 H202 0.931 . S
C235 C230 1.370 . S
C235 C234 1.391 . S
C236 N210 1.435 . S
C236 C237 1.358 . S
C236 C241 1.371 . S
C237 H203 0.930 . S
C237 C236 1.358 . S
C237 C238 1.405 . S
C238 H204 0.932 . S
C238 C237 1.405 . S
C238 C239 1.383 . S
C239 C238 1.383 . S
C239 C240 1.393 . S
C240 H205 0.931 . S
C240 C239 1.393 . S
C240 C241 1.382 . S
C241 H206 0.929 . S
C241 C236 1.371 . S
C241 C240 1.382 . S
C242 N210 1.423 . S
C242 C243 1.362 . S
C242 C247 1.388 . S
C243 H207 0.929 . S
C243 C242 1.362 . S
C243 C244 1.376 . S
C244 H208 0.931 . S
C244 C243 1.376 . S
C244 C245 1.396 . S
C245 C227 1.472 1_655 S
C245 C244 1.396 . S
C245 C246 1.348 . S
C246 H209 0.929 . S
C246 C245 1.348 . S
C246 C247 1.443 . S
C247 H211 0.932 . S
C247 C242 1.388 . S
C247 C246 1.443 . S
H248 C275 0.929 . S
N249 C274 1.433 . S
N249 C280 1.435 . S
N249 C286 1.423 . S
H250 C276 0.930 . S
H251 C279 0.931 . S
H252 C278 0.929 . S
H253 C281 0.930 . S
H254 C282 0.932 . S
H255 C285 0.929 . S
H256 C284 0.931 . S
H257 C287 0.929 . S
H258 C291 0.932 . S
H259 C288 0.931 . S
H260 C290 0.929 . S
H261 C293 0.929 . S
H262 C294 0.930 . S
H263 C296 0.929 . S
H264 C297 0.931 . S
H265 C299 0.930 1_554 S
H266 C300 0.932 . S
H267 C302 0.931 . S
H268 C303 0.929 . S
H269 C305 0.929 . S
H270 C306 0.931 1_554 S
H271 C308 0.929 . S
N272 C292 1.433 . S
N272 C298 1.435 1_554 S
N272 C304 1.423 1_554 S
H273 C309 0.932 . S
C274 N249 1.433 . S
C274 C275 1.363 . S
C274 C279 1.370 . S
C275 H248 0.929 . S
C275 C274 1.363 . S
C275 C276 1.385 . S
C276 H250 0.930 . S
C276 C275 1.385 . S
C276 C277 1.357 1_556 S
C277 C276 1.357 1_554 S
C277 C278 1.406 . S
C278 H252 0.929 . S
C278 C277 1.406 . S
C278 C279 1.391 1_554 S
C279 H251 0.931 . S
C279 C274 1.370 . S
C279 C278 1.391 1_556 S
C280 N249 1.435 . S
C280 C281 1.358 . S
C280 C285 1.371 . S
C281 H253 0.930 . S
C281 C280 1.358 . S
C281 C282 1.405 . S
C282 H254 0.932 . S
C282 C281 1.405 . S
C282 C283 1.383 . S
C283 C282 1.383 . S
C283 C284 1.393 . S
C284 H256 0.931 . S
C284 C283 1.393 . S
C284 C285 1.382 . S
C285 H255 0.929 . S
C285 C280 1.371 . S
C285 C284 1.382 . S
C286 N249 1.423 . S
C286 C287 1.362 . S
C286 C291 1.388 . S
C287 H257 0.929 . S
C287 C286 1.362 . S
C287 C288 1.376 . S
C288 H259 0.931 . S
C288 C287 1.376 . S
C288 C289 1.396 . S
C289 C288 1.396 . S
C289 C290 1.348 . S
C289 C307 1.472 1_545 S
C290 H260 0.929 . S
C290 C289 1.348 . S
C290 C291 1.443 . S
C291 H258 0.932 . S
C291 C286 1.388 . S
C291 C290 1.443 . S
C292 N272 1.433 . S
C292 C293 1.363 . S
C292 C297 1.370 . S
C293 H261 0.929 . S
C293 C292 1.363 . S
C293 C294 1.385 . S
C294 H262 0.930 . S
C294 C293 1.385 . S
C294 C295 1.357 . S
C295 C294 1.357 . S
C295 C296 1.406 . S
C296 H263 0.929 . S
C296 C295 1.406 . S
C296 C297 1.391 . S
C297 H264 0.931 . S
C297 C292 1.370 . S
C297 C296 1.391 . S
C298 N272 1.435 1_556 S
C298 C299 1.358 . S
C298 C303 1.371 . S
C299 H265 0.930 1_556 S
C299 C298 1.358 . S
C299 C300 1.405 . S
C300 H266 0.932 . S
C300 C299 1.405 . S
C300 C301 1.383 . S
C301 C300 1.383 . S
C301 C302 1.393 . S
C302 H267 0.931 . S
C302 C301 1.393 . S
C302 C303 1.382 . S
C303 H268 0.929 . S
C303 C298 1.371 . S
C303 C302 1.382 . S
C304 N272 1.423 1_556 S
C304 C305 1.362 1_556 S
C304 C309 1.388 . S
C305 H269 0.929 . S
C305 C304 1.362 1_554 S
C305 C306 1.376 1_554 S
C306 H270 0.931 1_556 S
C306 C305 1.376 1_556 S
C306 C307 1.396 . S
C307 C289 1.472 1_565 S
C307 C306 1.396 . S
C307 C308 1.348 . S
C308 H271 0.929 . S
C308 C307 1.348 . S
C308 C309 1.443 . S
C309 H273 0.932 . S
C309 C304 1.388 . S
C309 C308 1.443 . S
H310 C337 0.929 . S
N311 C336 1.433 . S
N311 C342 1.435 . S
N311 C348 1.423 . S
H312 C338 0.930 . S
H313 C341 0.931 . S
H314 C340 0.929 . S
H315 C343 0.930 . S
H316 C344 0.932 . S
H317 C347 0.929 . S
H318 C346 0.931 . S
H319 C349 0.929 . S
H320 C353 0.932 . S
H321 C350 0.931 . S
H322 C352 0.929 . S
H323 C355 0.929 . S
H324 C356 0.930 . S
H325 C358 0.929 . S
H326 C359 0.931 . S
H327 C361 0.930 . S
H328 C362 0.932 . S
H329 C364 0.931 . S
H330 C365 0.929 . S
H331 C367 0.929 . S
H332 C368 0.931 . S
H333 C370 0.929 . S
N334 C354 1.433 . S
N334 C360 1.435 . S
N334 C366 1.423 . S
H335 C371 0.932 . S
C336 N311 1.433 . S
C336 C337 1.363 . S
C336 C341 1.370 . S
C337 H310 0.929 . S
C337 C336 1.363 . S
C337 C338 1.385 . S
C338 H312 0.930 . S
C338 C337 1.385 . S
C338 C339 1.357 . S
C339 C338 1.357 . S
C339 C340 1.406 . S
C340 H314 0.929 . S
C340 C339 1.406 . S
C340 C341 1.391 . S
C341 H313 0.931 . S
C341 C336 1.370 . S
C341 C340 1.391 . S
C342 N311 1.435 . S
C342 C343 1.358 . S
C342 C347 1.371 . S
C343 H315 0.930 . S
C343 C342 1.358 . S
C343 C344 1.405 . S
C344 H316 0.932 . S
C344 C343 1.405 . S
C344 C345 1.383 . S
C345 C344 1.383 . S
C345 C346 1.393 . S
C346 H318 0.931 . S
C346 C345 1.393 . S
C346 C347 1.382 . S
C347 H317 0.929 . S
C347 C342 1.371 . S
C347 C346 1.382 . S
C348 N311 1.423 . S
C348 C349 1.362 . S
C348 C353 1.388 . S
C349 H319 0.929 . S
C349 C348 1.362 . S
C349 C350 1.376 . S
C350 H321 0.931 . S
C350 C349 1.376 . S
C350 C351 1.396 . S
C351 C350 1.396 . S
C351 C352 1.348 . S
C351 C369 1.472 . S
C352 H322 0.929 . S
C352 C351 1.348 . S
C352 C353 1.443 . S
C353 H320 0.932 . S
C353 C348 1.388 . S
C353 C352 1.443 . S
C354 N334 1.433 . S
C354 C355 1.363 . S
C354 C359 1.370 . S
C355 H323 0.929 . S
C355 C354 1.363 . S
C355 C356 1.385 . S
C356 H324 0.930 . S
C356 C355 1.385 . S
C356 C357 1.357 . S
C357 C356 1.357 . S
C357 C358 1.406 . S
C358 H325 0.929 . S
C358 C357 1.406 . S
C358 C359 1.391 . S
C359 H326 0.931 . S
C359 C354 1.370 . S
C359 C358 1.391 . S
C360 N334 1.435 . S
C360 C361 1.358 . S
C360 C365 1.371 . S
C361 H327 0.930 . S
C361 C360 1.358 . S
C361 C362 1.405 . S
C362 H328 0.932 . S
C362 C361 1.405 . S
C362 C363 1.383 . S
C363 C362 1.383 . S
C363 C364 1.393 . S
C364 H329 0.931 . S
C364 C363 1.393 . S
C364 C365 1.382 . S
C365 H330 0.929 . S
C365 C360 1.371 . S
C365 C364 1.382 . S
C366 N334 1.423 . S
C366 C367 1.362 . S
C366 C371 1.388 . S
C367 H331 0.929 . S
C367 C366 1.362 . S
C367 C368 1.376 . S
C368 H332 0.931 . S
C368 C367 1.376 . S
C368 C369 1.396 . S
C369 C351 1.472 . S
C369 C368 1.396 . S
C369 C370 1.348 . S
C370 H333 0.929 . S
C370 C369 1.348 . S
C370 C371 1.443 . S
C371 H335 0.932 . S
C371 C366 1.388 . S
C371 C370 1.443 . S
O372 Cd373 2.223 . S
O372 C380 1.315 . S
Cd373 O372 2.223 . S
Cd373 O376 2.297 . S
Cd373 O377 2.439 . S
Cd373 O383 2.240 . S
Cd374 O375 2.240 . S
Cd374 O382 2.223 . S
Cd374 O384 2.297 . S
Cd374 O385 2.439 . S
O375 Cd374 2.240 . S
O375 C380 1.279 . S
O376 Cd373 2.297 . S
O376 C378 1.247 . S
O377 Cd373 2.439 . S
O377 C378 1.208 . S
C378 O376 1.247 . S
C378 O377 1.208 . S
C379 O384 1.247 . S
C379 O385 1.208 . S
C380 O372 1.315 . S
C380 O375 1.279 . S
C381 O382 1.315 . S
C381 O383 1.279 . S
O382 Cd374 2.223 . S
O382 C381 1.315 . S
O383 Cd373 2.240 . S
O383 C381 1.279 . S
O384 Cd374 2.297 . S
O384 C379 1.247 . S
O385 Cd374 2.439 . S
O385 C379 1.208 . S
O386 Cd387 2.223 . S
O386 C394 1.315 . S
Cd387 O386 2.223 . S
Cd387 O390 2.297 . S
Cd387 O391 2.439 . S
Cd387 O397 2.240 . S
Cd388 O389 2.240 . S
Cd388 O396 2.223 . S
Cd388 O398 2.297 . S
Cd388 O399 2.439 . S
O389 Cd388 2.240 . S
O389 C394 1.279 . S
O390 Cd387 2.297 . S
O390 C392 1.247 . S
O391 Cd387 2.439 . S
O391 C392 1.208 . S
C392 O390 1.247 . S
C392 O391 1.208 . S
C393 O398 1.247 . S
C393 O399 1.208 . S
C394 O386 1.315 . S
C394 O389 1.279 . S
C395 O396 1.315 . S
C395 O397 1.279 . S
O396 Cd388 2.223 . S
O396 C395 1.315 . S
O397 Cd387 2.240 . S
O397 C395 1.279 . S
O398 Cd388 2.297 . S
O398 C393 1.247 . S
O399 Cd388 2.439 . S
O399 C393 1.208 . S
O400 Cd401 2.223 . S
O400 C408 1.315 . S
Cd401 O400 2.223 . S
Cd401 O404 2.297 . S
Cd401 O405 2.439 . S
Cd401 O411 2.240 . S
Cd402 O403 2.240 . S
Cd402 O410 2.223 . S
Cd402 O412 2.297 . S
Cd402 O413 2.439 . S
O403 Cd402 2.240 . S
O403 C408 1.279 . S
O404 Cd401 2.297 . S
O404 C406 1.247 . S
O405 Cd401 2.439 . S
O405 C406 1.208 . S
C406 O404 1.247 . S
C406 O405 1.208 . S
C407 O412 1.247 . S
C407 O413 1.208 . S
C408 O400 1.315 . S
C408 O403 1.279 . S
C409 O410 1.315 . S
C409 O411 1.279 . S
O410 Cd402 2.223 . S
O410 C409 1.315 . S
O411 Cd401 2.240 . S
O411 C409 1.279 . S
O412 Cd402 2.297 . S
O412 C407 1.247 . S
O413 Cd402 2.439 . S
O413 C407 1.208 . S
O414 Cd415 2.223 . S
O414 C422 1.315 . S
Cd415 O414 2.223 . S
Cd415 O418 2.297 . S
Cd415 O419 2.439 . S
Cd415 O425 2.240 . S
Cd416 O417 2.240 . S
Cd416 O424 2.223 . S
Cd416 O426 2.297 . S
Cd416 O427 2.439 . S
O417 Cd416 2.240 . S
O417 C422 1.279 . S
O418 Cd415 2.297 . S
O418 C420 1.247 . S
O419 Cd415 2.439 . S
O419 C420 1.208 . S
C420 O418 1.247 . S
C420 O419 1.208 . S
C421 O426 1.247 . S
C421 O427 1.208 . S
C422 O414 1.315 . S
C422 O417 1.279 . S
C423 O424 1.315 . S
C423 O425 1.279 . S
O424 Cd416 2.223 . S
O424 C423 1.315 . S
O425 Cd415 2.240 . S
O425 C423 1.279 . S
O426 Cd416 2.297 . S
O426 C421 1.247 . S
O427 Cd416 2.439 . S
O427 C421 1.208 . S
O428 Cd429 2.223 . S
O428 C436 1.315 . S
Cd429 O428 2.223 . S
Cd429 O432 2.297 . S
Cd429 O433 2.439 . S
Cd429 O439 2.240 . S
Cd430 O431 2.240 . S
Cd430 O438 2.223 . S
Cd430 O440 2.297 . S
Cd430 O441 2.439 . S
O431 Cd430 2.240 . S
O431 C436 1.279 . S
O432 Cd429 2.297 . S
O432 C434 1.247 . S
O433 Cd429 2.439 . S
O433 C434 1.208 . S
C434 O432 1.247 . S
C434 O433 1.208 . S
C435 O440 1.247 . S
C435 O441 1.208 . S
C436 O428 1.315 . S
C436 O431 1.279 . S
C437 O438 1.315 . S
C437 O439 1.279 . S
O438 Cd430 2.223 . S
O438 C437 1.315 . S
O439 Cd429 2.240 . S
O439 C437 1.279 . S
O440 Cd430 2.297 . S
O440 C435 1.247 . S
O441 Cd430 2.439 . S
O441 C435 1.208 . S
O442 Cd443 2.223 . S
O442 C450 1.315 . S
Cd443 O442 2.223 . S
Cd443 O446 2.297 . S
Cd443 O447 2.439 . S
Cd443 O453 2.240 . S
Cd444 O445 2.240 . S
Cd444 O452 2.223 . S
Cd444 O454 2.297 . S
Cd444 O455 2.439 . S
O445 Cd444 2.240 . S
O445 C450 1.279 . S
O446 Cd443 2.297 . S
O446 C448 1.247 . S
O447 Cd443 2.439 . S
O447 C448 1.208 . S
C448 O446 1.247 . S
C448 O447 1.208 . S
C449 O454 1.247 . S
C449 O455 1.208 . S
C450 O442 1.315 . S
C450 O445 1.279 . S
C451 O452 1.315 . S
C451 O453 1.279 . S
O452 Cd444 2.223 . S
O452 C451 1.315 . S
O453 Cd443 2.240 . S
O453 C451 1.279 . S
O454 Cd444 2.297 . S
O454 C449 1.247 . S
O455 Cd444 2.439 . S
O455 C449 1.208 . S
C456 C457 1.363 . S
C456 C462 1.379 . S
C456 N464 1.356 . S
C457 C456 1.363 . S
C457 C463 1.363 . S
C458 C459 1.363 . S
C458 C463 1.379 . S
C458 N465 1.356 . S
C459 C458 1.363 . S
C459 C462 1.363 . S
N460 C462 1.356 . S
N460 H472 0.984 . S
N460 H473 0.985 . S
N461 C463 1.356 . S
N461 H466 0.984 . S
N461 H467 0.985 . S
C462 C456 1.379 . S
C462 C459 1.363 . S
C462 N460 1.356 . S
C463 C457 1.363 . S
C463 C458 1.379 . S
C463 N461 1.356 . S
N464 C456 1.356 . S
N464 H470 0.984 . S
N464 H471 0.984 . S
N465 C458 1.356 . S
N465 H468 0.984 . S
N465 H469 0.985 . S
H466 N461 0.984 . S
H467 N461 0.985 . S
H468 N465 0.984 . S
H469 N465 0.985 . S
H470 N464 0.984 . S
H471 N464 0.984 . S
H472 N460 0.984 . S
H473 N460 0.985 . S
C474 C475 1.363 . S
C474 C480 1.379 . S
C474 N482 1.356 . S
C475 C474 1.363 . S
C475 C481 1.363 . S
C476 C477 1.363 . S
C476 C481 1.379 . S
C476 N483 1.356 . S
C477 C476 1.363 . S
C477 C480 1.363 . S
N478 C480 1.356 . S
N478 H490 0.984 . S
N478 H491 0.985 . S
N479 C481 1.356 . S
N479 H484 0.984 . S
N479 H485 0.985 . S
C480 C474 1.379 . S
C480 C477 1.363 . S
C480 N478 1.356 . S
C481 C475 1.363 . S
C481 C476 1.379 . S
C481 N479 1.356 . S
N482 C474 1.356 . S
N482 H488 0.984 . S
N482 H489 0.984 . S
N483 C476 1.356 . S
N483 H486 0.984 . S
N483 H487 0.985 . S
H484 N479 0.984 . S
H485 N479 0.985 . S
H486 N483 0.984 . S
H487 N483 0.985 . S
H488 N482 0.984 . S
H489 N482 0.984 . S
H490 N478 0.984 . S
H491 N478 0.985 . S
C492 C493 1.363 . S
C492 C498 1.379 . S
C492 N500 1.356 . S
C493 C492 1.363 . S
C493 C499 1.363 . S
C494 C495 1.363 . S
C494 C499 1.379 . S
C494 N501 1.356 . S
C495 C494 1.363 . S
C495 C498 1.363 . S
N496 C498 1.356 . S
N496 H508 0.984 . S
N496 H509 0.985 . S
N497 C499 1.356 . S
N497 H502 0.984 . S
N497 H503 0.985 . S
C498 C492 1.379 . S
C498 C495 1.363 . S
C498 N496 1.356 . S
C499 C493 1.363 . S
C499 C494 1.379 . S
C499 N497 1.356 . S
N500 C492 1.356 . S
N500 H506 0.984 . S
N500 H507 0.984 . S
N501 C494 1.356 . S
N501 H504 0.984 . S
N501 H505 0.985 . S
H502 N497 0.984 . S
H503 N497 0.985 . S
H504 N501 0.984 . S
H505 N501 0.985 . S
H506 N500 0.984 . S
H507 N500 0.984 . S
H508 N496 0.984 . S
H509 N496 0.985 . S
C510 C511 1.363 . S
C510 C516 1.379 . S
C510 N518 1.356 . S
C511 C510 1.363 . S
C511 C517 1.363 . S
C512 C513 1.363 . S
C512 C517 1.379 . S
C512 N519 1.356 . S
C513 C512 1.363 . S
C513 C516 1.363 . S
N514 C516 1.356 . S
N514 H526 0.984 . S
N514 H527 0.985 . S
N515 C517 1.356 . S
N515 H520 0.984 . S
N515 H521 0.985 . S
C516 C510 1.379 . S
C516 C513 1.363 . S
C516 N514 1.356 . S
C517 C511 1.363 . S
C517 C512 1.379 . S
C517 N515 1.356 . S
N518 C510 1.356 . S
N518 H524 0.984 . S
N518 H525 0.984 . S
N519 C512 1.356 . S
N519 H522 0.984 . S
N519 H523 0.985 . S
H520 N515 0.984 . S
H521 N515 0.985 . S
H522 N519 0.984 . S
H523 N519 0.985 . S
H524 N518 0.984 . S
H525 N518 0.984 . S
H526 N514 0.984 . S
H527 N514 0.985 . S
C528 C529 1.363 . S
C528 C534 1.379 . S
C528 N536 1.356 . S
C529 C528 1.363 . S
C529 C535 1.363 . S
C530 C531 1.363 . S
C530 C535 1.379 . S
C530 N537 1.356 . S
C531 C530 1.363 . S
C531 C534 1.363 . S
N532 C534 1.356 . S
N532 H544 0.984 . S
N532 H545 0.985 . S
N533 C535 1.356 . S
N533 H538 0.984 . S
N533 H539 0.985 1_556 S
C534 C528 1.379 . S
C534 C531 1.363 . S
C534 N532 1.356 . S
C535 C529 1.363 . S
C535 C530 1.379 . S
C535 N533 1.356 . S
N536 C528 1.356 . S
N536 H542 0.984 . S
N536 H543 0.984 . S
N537 C530 1.356 . S
N537 H540 0.984 . S
N537 H541 0.985 . S
H538 N533 0.984 . S
H539 N533 0.985 1_554 S
H540 N537 0.984 . S
H541 N537 0.985 . S
H542 N536 0.984 . S
H543 N536 0.984 . S
H544 N532 0.984 . S
H545 N532 0.985 . S
C546 C547 1.363 . S
C546 C552 1.379 . S
C546 N554 1.356 . S
C547 C546 1.363 . S
C547 C553 1.363 . S
C548 C549 1.363 . S
C548 C553 1.379 . S
C548 N555 1.356 . S
C549 C548 1.363 . S
C549 C552 1.363 . S
N550 C552 1.356 . S
N550 H562 0.984 . S
N550 H563 0.985 . S
N551 C553 1.356 . S
N551 H556 0.984 . S
N551 H557 0.985 . S
C552 C546 1.379 . S
C552 C549 1.363 . S
C552 N550 1.356 . S
C553 C547 1.363 . S
C553 C548 1.379 . S
C553 N551 1.356 . S
N554 C546 1.356 . S
N554 H560 0.984 . S
N554 H561 0.984 . S
N555 C548 1.356 . S
N555 H558 0.984 . S
N555 H559 0.985 . S
H556 N551 0.984 . S
H557 N551 0.985 . S
H558 N555 0.984 . S
H559 N555 0.985 . S
H560 N554 0.984 . S
H561 N554 0.984 . S
H562 N550 0.984 . S
H563 N550 0.985 . S
C564 C565 1.363 . S
C564 C570 1.379 . S
C564 N572 1.356 . S
C565 C564 1.363 . S
C565 C571 1.363 . S
C566 C567 1.363 . S
C566 C571 1.379 . S
C566 N573 1.356 . S
C567 C566 1.363 . S
C567 C570 1.363 . S
N568 C570 1.356 . S
N568 H580 0.984 . S
N568 H581 0.985 . S
N569 C571 1.356 . S
N569 H574 0.984 . S
N569 H575 0.985 . S
C570 C564 1.379 . S
C570 C567 1.363 . S
C570 N568 1.356 . S
C571 C565 1.363 . S
C571 C566 1.379 . S
C571 N569 1.356 . S
N572 C564 1.356 . S
N572 H578 0.984 . S
N572 H579 0.984 . S
N573 C566 1.356 . S
N573 H576 0.984 . S
N573 H577 0.985 . S
H574 N569 0.984 . S
H575 N569 0.985 . S
H576 N573 0.984 . S
H577 N573 0.985 . S
H578 N572 0.984 . S
H579 N572 0.984 . S
H580 N568 0.984 . S
H581 N568 0.985 . S
C582 C583 1.363 . S
C582 C588 1.379 . S
C582 N590 1.356 . S
C583 C582 1.363 . S
C583 C589 1.363 . S
C584 C585 1.363 . S
C584 C589 1.379 . S
C584 N591 1.356 . S
C585 C584 1.363 . S
C585 C588 1.363 . S
N586 C588 1.356 . S
N586 H598 0.984 . S
N586 H599 0.985 . S
N587 C589 1.356 . S
N587 H592 0.984 . S
N587 H593 0.985 . S
C588 C582 1.379 . S
C588 C585 1.363 . S
C588 N586 1.356 . S
C589 C583 1.363 . S
C589 C584 1.379 . S
C589 N587 1.356 . S
N590 C582 1.356 . S
N590 H596 0.984 . S
N590 H597 0.984 . S
N591 C584 1.356 . S
N591 H594 0.984 . S
N591 H595 0.985 . S
H592 N587 0.984 . S
H593 N587 0.985 . S
H594 N591 0.984 . S
H595 N591 0.985 . S
H596 N590 0.984 . S
H597 N590 0.984 . S
H598 N586 0.984 . S
H599 N586 0.985 . S
C600 C601 1.363 . S
C600 C606 1.379 . S
C600 N608 1.356 . S
C601 C600 1.363 . S
C601 C607 1.363 . S
C602 C603 1.363 . S
C602 C607 1.379 . S
C602 N609 1.356 . S
C603 C602 1.363 . S
C603 C606 1.363 . S
N604 C606 1.356 . S
N604 H616 0.984 . S
N604 H617 0.985 . S
N605 C607 1.356 . S
N605 H610 0.984 . S
N605 H611 0.985 . S
C606 C600 1.379 . S
C606 C603 1.363 . S
C606 N604 1.356 . S
C607 C601 1.363 . S
C607 C602 1.379 . S
C607 N605 1.356 . S
N608 C600 1.356 . S
N608 H614 0.984 . S
N608 H615 0.984 . S
N609 C602 1.356 . S
N609 H612 0.984 . S
N609 H613 0.985 . S
H610 N605 0.984 . S
H611 N605 0.985 . S
H612 N609 0.984 . S
H613 N609 0.985 . S
H614 N608 0.984 . S
H615 N608 0.984 . S
H616 N604 0.984 . S
H617 N604 0.985 . S
C618 C619 1.363 . S
C618 C624 1.379 . S
C618 N626 1.356 1_554 S
C619 C618 1.363 . S
C619 C625 1.363 . S
C620 C621 1.363 . S
C620 C625 1.379 . S
C620 N627 1.356 . S
C621 C620 1.363 . S
C621 C624 1.363 . S
N622 C624 1.356 1_556 S
N622 H634 0.984 . S
N622 H635 0.985 1_556 S
N623 C625 1.356 . S
N623 H628 0.984 . S
N623 H629 0.985 . S
C624 C618 1.379 . S
C624 C621 1.363 . S
C624 N622 1.356 1_554 S
C625 C619 1.363 . S
C625 C620 1.379 . S
C625 N623 1.356 . S
N626 C618 1.356 1_556 S
N626 H632 0.984 . S
N626 H633 0.984 . S
N627 C620 1.356 . S
N627 H630 0.984 . S
N627 H631 0.985 . S
H628 N623 0.984 . S
H629 N623 0.985 . S
H630 N627 0.984 . S
H631 N627 0.985 . S
H632 N626 0.984 . S
H633 N626 0.984 . S
H634 N622 0.984 . S
H635 N622 0.985 1_554 S
C636 C637 1.363 . S
C636 C642 1.379 . S
C636 N644 1.356 . S
C637 C636 1.363 . S
C637 C643 1.363 . S
C638 C639 1.363 . S
C638 C643 1.379 . S
C638 N645 1.356 . S
C639 C638 1.363 . S
C639 C642 1.363 . S
N640 C642 1.356 . S
N640 H652 0.984 . S
N640 H653 0.985 . S
N641 C643 1.356 . S
N641 H646 0.984 . S
N641 H647 0.985 . S
C642 C636 1.379 . S
C642 C639 1.363 . S
C642 N640 1.356 . S
C643 C637 1.363 . S
C643 C638 1.379 . S
C643 N641 1.356 . S
N644 C636 1.356 . S
N644 H650 0.984 . S
N644 H651 0.984 . S
N645 C638 1.356 . S
N645 H648 0.984 . S
N645 H649 0.985 . S
H646 N641 0.984 . S
H647 N641 0.985 . S
H648 N645 0.984 . S
H649 N645 0.985 . S
H650 N644 0.984 . S
H651 N644 0.984 . S
H652 N640 0.984 . S
H653 N640 0.985 . S
C654 C655 1.363 . S
C654 C660 1.379 . S
C654 N662 1.356 . S
C655 C654 1.363 . S
C655 C661 1.363 . S
C656 C657 1.363 . S
C656 C661 1.379 . S
C656 N663 1.356 . S
C657 C656 1.363 . S
C657 C660 1.363 . S
N658 C660 1.356 . S
N658 H670 0.984 . S
N658 H671 0.985 . S
N659 C661 1.356 . S
N659 H664 0.984 . S
N659 H665 0.985 . S
C660 C654 1.379 . S
C660 C657 1.363 . S
C660 N658 1.356 . S
C661 C655 1.363 . S
C661 C656 1.379 . S
C661 N659 1.356 . S
N662 C654 1.356 . S
N662 H668 0.984 . S
N662 H669 0.984 . S
N663 C656 1.356 . S
N663 H666 0.984 . S
N663 H667 0.985 . S
H664 N659 0.984 . S
H665 N659 0.985 . S
H666 N663 0.984 . S
H667 N663 0.985 . S
H668 N662 0.984 . S
H669 N662 0.984 . S
H670 N658 0.984 . S
H671 N658 0.985 . S
C672 C673 1.363 . S
C672 C678 1.379 . S
C672 N680 1.356 . S
C673 C672 1.363 . S
C673 C679 1.363 . S
C674 C675 1.363 . S
C674 C679 1.379 . S
C674 N681 1.356 . S
C675 C674 1.363 . S
C675 C678 1.363 . S
N676 C678 1.356 . S
N676 H688 0.984 . S
N676 H689 0.985 . S
N677 C679 1.356 . S
N677 H682 0.984 . S
N677 H683 0.985 . S
C678 C672 1.379 . S
C678 C675 1.363 . S
C678 N676 1.356 . S
C679 C673 1.363 . S
C679 C674 1.379 . S
C679 N677 1.356 . S
N680 C672 1.356 . S
N680 H686 0.984 . S
N680 H687 0.984 . S
N681 C674 1.356 . S
N681 H684 0.984 . S
N681 H685 0.985 . S
H682 N677 0.984 . S
H683 N677 0.985 . S
H684 N681 0.984 . S
H685 N681 0.985 . S
H686 N680 0.984 . S
H687 N680 0.984 . S
H688 N676 0.984 . S
H689 N676 0.985 . S
C690 C691 1.363 . S
C690 C696 1.379 . S
C690 N698 1.356 . S
C691 C690 1.363 . S
C691 C697 1.363 . S
C692 C693 1.363 . S
C692 C697 1.379 . S
C692 N699 1.356 . S
C693 C692 1.363 . S
C693 C696 1.363 . S
N694 C696 1.356 . S
N694 H706 0.984 . S
N694 H707 0.985 . S
N695 C697 1.356 . S
N695 H700 0.984 . S
N695 H701 0.985 . S
C696 C690 1.379 . S
C696 C693 1.363 . S
C696 N694 1.356 . S
C697 C691 1.363 . S
C697 C692 1.379 . S
C697 N695 1.356 . S
N698 C690 1.356 . S
N698 H704 0.984 . S
N698 H705 0.984 . S
N699 C692 1.356 . S
N699 H702 0.984 . S
N699 H703 0.985 . S
H700 N695 0.984 . S
H701 N695 0.985 . S
H702 N699 0.984 . S
H703 N699 0.985 . S
H704 N698 0.984 . S
H705 N698 0.984 . S
H706 N694 0.984 . S
H707 N694 0.985 . S
C708 C709 1.363 . S
C708 C714 1.379 . S
C708 N716 1.356 . S
C709 C708 1.363 . S
C709 C715 1.363 . S
C710 C711 1.363 . S
C710 C715 1.379 . S
C710 N717 1.356 . S
C711 C710 1.363 . S
C711 C714 1.363 . S
N712 C714 1.356 . S
N712 H724 0.984 . S
N712 H725 0.985 . S
N713 C715 1.356 . S
N713 H718 0.984 . S
N713 H719 0.985 . S
C714 C708 1.379 . S
C714 C711 1.363 . S
C714 N712 1.356 . S
C715 C709 1.363 . S
C715 C710 1.379 . S
C715 N713 1.356 . S
N716 C708 1.356 . S
N716 H722 0.984 . S
N716 H723 0.984 . S
N717 C710 1.356 . S
N717 H720 0.984 . S
N717 H721 0.985 . S
H718 N713 0.984 . S
H719 N713 0.985 . S
H720 N717 0.984 . S
H721 N717 0.985 . S
H722 N716 0.984 . S
H723 N716 0.984 . S
H724 N712 0.984 . S
H725 N712 0.985 . S
C726 C727 1.363 . S
C726 C732 1.384 . S
C726 N734 1.356 . S
C727 C726 1.363 . S
C727 C733 1.363 . S
C728 C729 1.363 . S
C728 C733 1.379 . S
C728 N735 1.356 . S
C729 C728 1.363 . S
C729 C732 1.364 . S
N730 C732 1.349 1_554 S
N730 H742 0.984 . S
N730 H743 0.985 . S
N731 C733 1.356 . S
N731 H736 0.984 . S
N731 H737 0.985 . S
C732 C726 1.384 . S
C732 C729 1.364 . S
C732 N730 1.349 1_556 S
C733 C727 1.363 . S
C733 C728 1.379 . S
C733 N731 1.356 . S
N734 C726 1.356 . S
N734 H740 0.984 . S
N734 H741 0.984 . S
N735 C728 1.356 . S
N735 H738 0.984 . S
N735 H739 0.985 . S
H736 N731 0.984 . S
H737 N731 0.985 . S
H738 N735 0.984 . S
H739 N735 0.985 . S
H740 N734 0.984 . S
H741 N734 0.984 . S
H742 N730 0.984 . S
H743 N730 0.985 . S
C744 C745 1.363 . S
C744 C750 1.379 . S
C744 N752 1.356 . S
C745 C744 1.363 . S
C745 C751 1.363 . S
C746 C747 1.363 . S
C746 C751 1.379 . S
C746 N753 1.356 . S
C747 C746 1.363 . S
C747 C750 1.363 . S
N748 C750 1.356 . S
N748 H760 0.984 . S
N748 H761 0.985 . S
N749 C751 1.356 . S
N749 H754 0.984 . S
N749 H755 0.985 . S
C750 C744 1.379 . S
C750 C747 1.363 . S
C750 N748 1.356 . S
C751 C745 1.363 . S
C751 C746 1.379 . S
C751 N749 1.356 . S
N752 C744 1.356 . S
N752 H758 0.984 . S
N752 H759 0.984 . S
N753 C746 1.356 . S
N753 H756 0.984 . S
N753 H757 0.985 . S
H754 N749 0.984 . S
H755 N749 0.985 . S
H756 N753 0.984 . S
H757 N753 0.985 . S
H758 N752 0.984 . S
H759 N752 0.984 . S
H760 N748 0.984 . S
H761 N748 0.985 . S
C762 C763 1.363 . S
C762 C768 1.379 . S
C762 N770 1.356 . S
C763 C762 1.363 . S
C763 C769 1.363 . S
C764 C765 1.363 . S
C764 C769 1.379 . S
C764 N771 1.356 . S
C765 C764 1.363 . S
C765 C768 1.363 . S
N766 C768 1.356 . S
N766 H778 0.984 . S
N766 H779 0.985 . S
N767 C769 1.356 . S
N767 H772 0.984 . S
N767 H773 0.985 . S
C768 C762 1.379 . S
C768 C765 1.363 . S
C768 N766 1.356 . S
C769 C763 1.363 . S
C769 C764 1.379 . S
C769 N767 1.356 . S
N770 C762 1.356 . S
N770 H776 0.984 . S
N770 H777 0.984 . S
N771 C764 1.356 . S
N771 H774 0.984 . S
N771 H775 0.985 . S
H772 N767 0.984 . S
H773 N767 0.985 . S
H774 N771 0.984 . S
H775 N771 0.985 . S
H776 N770 0.984 . S
H777 N770 0.984 . S
H778 N766 0.984 . S
H779 N766 0.985 . S
C780 C781 1.363 . S
C780 C786 1.379 . S
C780 N788 1.356 . S
C781 C780 1.363 . S
C781 C787 1.363 . S
C782 C783 1.363 . S
C782 C787 1.379 . S
C782 N789 1.356 . S
C783 C782 1.363 . S
C783 C786 1.363 . S
N784 C786 1.356 . S
N784 H796 0.984 . S
N784 H797 0.985 . S
N785 C787 1.356 . S
N785 H790 0.984 . S
N785 H791 0.985 . S
C786 C780 1.379 . S
C786 C783 1.363 . S
C786 N784 1.356 . S
C787 C781 1.363 . S
C787 C782 1.379 . S
C787 N785 1.356 . S
N788 C780 1.356 . S
N788 H794 0.984 . S
N788 H795 0.984 . S
N789 C782 1.356 . S
N789 H792 0.984 . S
N789 H793 0.985 . S
H790 N785 0.984 . S
H791 N785 0.985 . S
H792 N789 0.984 . S
H793 N789 0.985 . S
H794 N788 0.984 . S
H795 N788 0.984 . S
H796 N784 0.984 . S
H797 N784 0.985 . S
C798 C799 1.363 . S
C798 C804 1.379 . S
C798 N806 1.356 . S
C799 C798 1.363 . S
C799 C805 1.363 . S
C800 C801 1.363 . S
C800 C805 1.379 . S
C800 N807 1.356 . S
C801 C800 1.363 . S
C801 C804 1.363 . S
N802 C804 1.356 . S
N802 H814 0.984 . S
N802 H815 0.985 . S
N803 C805 1.356 . S
N803 H808 0.984 . S
N803 H809 0.985 . S
C804 C798 1.379 . S
C804 C801 1.363 . S
C804 N802 1.356 . S
C805 C799 1.363 . S
C805 C800 1.379 . S
C805 N803 1.356 . S
N806 C798 1.356 . S
N806 H812 0.984 . S
N806 H813 0.984 . S
N807 C800 1.356 . S
N807 H810 0.984 . S
N807 H811 0.985 . S
H808 N803 0.984 . S
H809 N803 0.985 . S
H810 N807 0.984 . S
H811 N807 0.985 . S
H812 N806 0.984 . S
H813 N806 0.984 . S
H814 N802 0.984 . S
H815 N802 0.985 . S
C816 C817 1.363 . S
C816 C822 1.379 . S
C816 N824 1.356 . S
C817 C816 1.363 . S
C817 C823 1.363 . S
C818 C819 1.363 . S
C818 C823 1.379 . S
C818 N825 1.356 . S
C819 C818 1.363 . S
C819 C822 1.363 . S
N820 C822 1.356 . S
N820 H832 0.984 . S
N820 H833 0.985 . S
N821 C823 1.356 . S
N821 H826 0.984 . S
N821 H827 0.985 . S
C822 C816 1.379 . S
C822 C819 1.363 . S
C822 N820 1.356 . S
C823 C817 1.363 . S
C823 C818 1.379 . S
C823 N821 1.356 . S
N824 C816 1.356 . S
N824 H830 0.984 . S
N824 H831 0.984 . S
N825 C818 1.356 . S
N825 H828 0.984 . S
N825 H829 0.985 . S
H826 N821 0.984 . S
H827 N821 0.985 . S
H828 N825 0.984 . S
H829 N825 0.985 . S
H830 N824 0.984 . S
H831 N824 0.984 . S
H832 N820 0.984 . S
H833 N820 0.985 . S
C834 C835 1.363 . S
C834 C840 1.379 . S
C834 N842 1.356 . S
C835 C834 1.363 . S
C835 C841 1.363 . S
C836 C837 1.363 . S
C836 C841 1.379 . S
C836 N843 1.356 . S
C837 C836 1.363 . S
C837 C840 1.363 . S
N838 C840 1.356 . S
N838 H850 0.984 . S
N838 H851 0.985 . S
N839 C841 1.356 . S
N839 H844 0.984 . S
N839 H845 0.985 . S
C840 C834 1.379 . S
C840 C837 1.363 . S
C840 N838 1.356 . S
C841 C835 1.363 . S
C841 C836 1.379 . S
C841 N839 1.356 . S
N842 C834 1.356 . S
N842 H848 0.984 . S
N842 H849 0.984 . S
N843 C836 1.356 . S
N843 H846 0.984 . S
N843 H847 0.985 . S
H844 N839 0.984 . S
H845 N839 0.985 . S
H846 N843 0.984 . S
H847 N843 0.985 . S
H848 N842 0.984 . S
H849 N842 0.984 . S
H850 N838 0.984 . S
H851 N838 0.985 . S
C852 C853 1.363 . S
C852 C858 1.379 . S
C852 N860 1.356 1_556 S
C853 C852 1.363 . S
C853 C859 1.363 . S
C854 C855 1.363 . S
C854 C859 1.379 . S
C854 N861 1.356 . S
C855 C854 1.363 . S
C855 C858 1.363 . S
N856 C858 1.356 . S
N856 H868 0.984 . S
N856 H869 0.985 . S
N857 C859 1.356 . S
N857 H862 0.984 . S
N857 H863 0.985 . S
C858 C852 1.379 . S
C858 C855 1.363 . S
C858 N856 1.356 . S
C859 C853 1.363 . S
C859 C854 1.379 . S
C859 N857 1.356 . S
N860 C852 1.356 1_554 S
N860 H866 0.984 . S
N860 H867 0.984 . S
N861 C854 1.356 . S
N861 H864 0.984 . S
N861 H865 0.985 . S
H862 N857 0.984 . S
H863 N857 0.985 . S
H864 N861 0.984 . S
H865 N861 0.985 . S
H866 N860 0.984 . S
H867 N860 0.984 . S
H868 N856 0.984 . S
H869 N856 0.985 . S
C870 C871 1.363 . S
C870 C876 1.379 . S
C870 N878 1.356 . S
C871 C870 1.363 . S
C871 C877 1.363 . S
C872 C873 1.363 . S
C872 C877 1.379 . S
C872 N879 1.356 . S
C873 C872 1.363 . S
C873 C876 1.363 . S
N874 C876 1.356 . S
N874 H886 0.984 . S
N874 H887 0.985 . S
N875 C877 1.356 . S
N875 H880 0.984 . S
N875 H881 0.985 . S
C876 C870 1.379 . S
C876 C873 1.363 . S
C876 N874 1.356 . S
C877 C871 1.363 . S
C877 C872 1.379 . S
C877 N875 1.356 . S
N878 C870 1.356 . S
N878 H884 0.984 . S
N878 H885 0.984 . S
N879 C872 1.356 . S
N879 H882 0.984 . S
N879 H883 0.985 . S
H880 N875 0.984 . S
H881 N875 0.985 . S
H882 N879 0.984 . S
H883 N879 0.985 . S
H884 N878 0.984 . S
H885 N878 0.984 . S
H886 N874 0.984 . S
H887 N874 0.985 . S
C459 C449 1.533 . S
C457 C29 1.425 . S
C475 C115 1.414 . S
C477 C378 1.421 . S
C493 C153 1.424 . S
C495 C392 1.522 . S
C511 C239 1.382 . S
C513 C406 1.394 . S
C531 C420 1.470 . S
C529 C301 1.459 . S
C547 C339 1.643 . S
C549 C435 1.777 . S
C565 C91 1.424 . S
C567 C393 1.522 . S
C583 C177 1.414 . S
C585 C407 1.421 . S
C601 C215 1.425 . S
C603 C421 1.533 . S
C621 C434 1.777 . S
C619 C277 1.642 . S
C639 C448 1.470 . S
C637 C363 1.460 . S
C657 C379 1.395 . S
C655 C53 1.382 . S
C673 C35 1.625 . S
C675 C395 1.632 . S
C691 C109 1.416 . S
C693 C409 1.554 . S
C711 C423 1.514 . S
C709 C159 1.521 . S
C727 C233 1.641 . S
C729 C436 1.777 1_556 S
C747 C450 1.630 . S
C745 C295 1.450 . S
C765 C381 1.502 . S
C763 C345 1.522 . S
C783 C451 1.513 . S
C781 C97 1.521 . S
C799 C171 1.417 . S
C801 C380 1.555 . S
C819 C394 1.633 . S
C817 C221 1.625 . S
C835 C283 1.522 . S
C837 C408 1.502 . S
C853 C357 1.450 1_556 S
C855 C422 1.630 . S
C871 C47 1.640 . S
C873 C437 1.777 . S
