# Generated by pormake.
# Topology ssb, (4,4)-cn, num edge types: 1
# Building blocks:
#     Node 0, Type 0, BuildingBlock: GIZVER_clean_linker_0, # of connection points: 4
#     Node 1, Type 0, BuildingBlock: GIZVER_clean_linker_0, # of connection points: 4
#     Node 2, Type 0, BuildingBlock: GIZVER_clean_linker_0, # of connection points: 4
#     Node 3, Type 0, BuildingBlock: GIZVER_clean_linker_0, # of connection points: 4
#     Node 4, Type 0, BuildingBlock: GIZVER_clean_linker_0, # of connection points: 4
#     Node 5, Type 0, BuildingBlock: GIZVER_clean_linker_0, # of connection points: 4
#     Node 6, Type 0, BuildingBlock: GIZVER_clean_linker_0, # of connection points: 4
#     Node 7, Type 0, BuildingBlock: GIZVER_clean_linker_0, # of connection points: 4
#     Node 8, Type 1, BuildingBlock: KOZSID_clean_sbu_0, # of connection points: 4
#     Node 9, Type 1, BuildingBlock: KOZSID_clean_sbu_0, # of connection points: 4
#     Node 10, Type 1, BuildingBlock: KOZSID_clean_sbu_0, # of connection points: 4
#     Node 11, Type 1, BuildingBlock: KOZSID_clean_sbu_0, # of connection points: 4
#     Node 12, Type 1, BuildingBlock: KOZSID_clean_sbu_0, # of connection points: 4
#     Node 13, Type 1, BuildingBlock: KOZSID_clean_sbu_0, # of connection points: 4
#     Node 14, Type 1, BuildingBlock: KOZSID_clean_sbu_0, # of connection points: 4
#     Node 15, Type 1, BuildingBlock: KOZSID_clean_sbu_0, # of connection points: 4
#     Edge 16, Type (0, 1), BuildingBlock: OJICUG_clean_linker_0, # of connection points: 2
#     Edge 17, Type (0, 1), BuildingBlock: OJICUG_clean_linker_0, # of connection points: 2
#     Edge 18, Type (0, 1), BuildingBlock: OJICUG_clean_linker_0, # of connection points: 2
#     Edge 19, Type (0, 1), BuildingBlock: OJICUG_clean_linker_0, # of connection points: 2
#     Edge 20, Type (0, 1), BuildingBlock: OJICUG_clean_linker_0, # of connection points: 2
#     Edge 21, Type (0, 1), BuildingBlock: OJICUG_clean_linker_0, # of connection points: 2
#     Edge 22, Type (0, 1), BuildingBlock: OJICUG_clean_linker_0, # of connection points: 2
#     Edge 23, Type (0, 1), BuildingBlock: OJICUG_clean_linker_0, # of connection points: 2
#     Edge 24, Type (0, 1), BuildingBlock: OJICUG_clean_linker_0, # of connection points: 2
#     Edge 25, Type (0, 1), BuildingBlock: OJICUG_clean_linker_0, # of connection points: 2
#     Edge 26, Type (0, 1), BuildingBlock: OJICUG_clean_linker_0, # of connection points: 2
#     Edge 27, Type (0, 1), BuildingBlock: OJICUG_clean_linker_0, # of connection points: 2
#     Edge 28, Type (0, 1), BuildingBlock: OJICUG_clean_linker_0, # of connection points: 2
#     Edge 29, Type (0, 1), BuildingBlock: OJICUG_clean_linker_0, # of connection points: 2
#     Edge 30, Type (0, 1), BuildingBlock: OJICUG_clean_linker_0, # of connection points: 2
#     Edge 31, Type (0, 1), BuildingBlock: OJICUG_clean_linker_0, # of connection points: 2
#     Edge 32, Type (0, 1), BuildingBlock: OJICUG_clean_linker_0, # of connection points: 2
#     Edge 33, Type (0, 1), BuildingBlock: OJICUG_clean_linker_0, # of connection points: 2
#     Edge 34, Type (0, 1), BuildingBlock: OJICUG_clean_linker_0, # of connection points: 2
#     Edge 35, Type (0, 1), BuildingBlock: OJICUG_clean_linker_0, # of connection points: 2
#     Edge 36, Type (0, 1), BuildingBlock: OJICUG_clean_linker_0, # of connection points: 2
#     Edge 37, Type (0, 1), BuildingBlock: OJICUG_clean_linker_0, # of connection points: 2
#     Edge 38, Type (0, 1), BuildingBlock: OJICUG_clean_linker_0, # of connection points: 2
#     Edge 39, Type (0, 1), BuildingBlock: OJICUG_clean_linker_0, # of connection points: 2
#     Edge 40, Type (0, 1), BuildingBlock: OJICUG_clean_linker_0, # of connection points: 2
#     Edge 41, Type (0, 1), BuildingBlock: OJICUG_clean_linker_0, # of connection points: 2
#     Edge 42, Type (0, 1), BuildingBlock: OJICUG_clean_linker_0, # of connection points: 2
#     Edge 43, Type (0, 1), BuildingBlock: OJICUG_clean_linker_0, # of connection points: 2
#     Edge 44, Type (0, 1), BuildingBlock: OJICUG_clean_linker_0, # of connection points: 2
#     Edge 45, Type (0, 1), BuildingBlock: OJICUG_clean_linker_0, # of connection points: 2
#     Edge 46, Type (0, 1), BuildingBlock: OJICUG_clean_linker_0, # of connection points: 2
#     Edge 47, Type (0, 1), BuildingBlock: OJICUG_clean_linker_0, # of connection points: 2
# Relax obj value: 0.004
# Max RMSD: 0.053
# Mean RMSD: 0.026
data_MOF--net-ssb--node1-KOZSID_clean_sbu_0--node2-GIZVER_clean_linker_0--edge1-OJICUG_clean_linker_0
_symmetry_space_group_name_H-M    P1
_symmetry_Int_Tables_number       1
_symmetry_cell_setting            triclinic
loop_
_symmetry_equiv_pos_as_xyz
'x, y, z'
_cell_length_a     41.753142
_cell_length_b     41.478967
_cell_length_c     30.715101
_cell_angle_alpha  93.715084
_cell_angle_beta   96.678676
_cell_angle_gamma 89.981377
loop_
_atom_site_label
_atom_site_type_symbol
_atom_site_fract_x
_atom_site_fract_y
_atom_site_fract_z
_atom_type_partial_charge
H0 H 0.27276 0.18556 0.28221 0.0
H1 H 0.20764 0.26452 0.30279 0.0
H2 H 0.2272 0.19492 0.40025 0.0
H3 H 0.24318 0.2125 0.21923 0.0
H4 H 0.21642 0.2447 0.22859 0.0
H5 H 0.30551 0.22511 0.23975 0.0
H6 H 0.3293 0.31113 0.17983 0.0
H7 H 0.23187 0.29536 0.20621 0.0
C8 C 0.25781 0.19932 0.30313 0.0
C9 C 0.25338 0.18826 0.34459 0.0
C10 C 0.24172 0.22732 0.28785 0.0
C11 C 0.22083 0.24378 0.31481 0.0
C12 C 0.21545 0.23248 0.35578 0.0
C13 C 0.23219 0.20497 0.37002 0.0
C14 C 0.24076 0.23529 0.23972 0.0
C15 C 0.26631 0.25893 0.22876 0.0
C16 C 0.29853 0.2486 0.22847 0.0
C17 C 0.32122 0.26754 0.21088 0.0
C18 C 0.31168 0.29699 0.19384 0.0
C19 C 0.27946 0.30702 0.19051 0.0
C20 C 0.25698 0.28832 0.20939 0.0
H21 H 0.83741 0.25901 0.3108 0.0
H22 H 0.76155 0.18788 0.30073 0.0
H23 H 0.82356 0.20394 0.42156 0.0
H24 H 0.8108 0.23961 0.23909 0.0
H25 H 0.78422 0.2056 0.2346 0.0
H26 H 0.79058 0.29413 0.25135 0.0
H27 H 0.6899 0.30756 0.20811 0.0
H28 H 0.72552 0.2128 0.23393 0.0
C29 C 0.82401 0.24133 0.32599 0.0
C30 C 0.83346 0.23429 0.36994 0.0
C31 C 0.7979 0.22475 0.30101 0.0
C32 C 0.78105 0.20135 0.32021 0.0
C33 C 0.79003 0.1942 0.36375 0.0
C34 C 0.81583 0.21093 0.3886 0.0
C35 C 0.78973 0.22941 0.25278 0.0
C36 C 0.76108 0.2513 0.24473 0.0
C37 C 0.76625 0.2846 0.24385 0.0
C38 C 0.74095 0.30513 0.22967 0.0
C39 C 0.70951 0.29233 0.22065 0.0
C40 C 0.70367 0.25916 0.22275 0.0
C41 C 0.72962 0.23863 0.23442 0.0
H42 H 0.7797 0.73096 0.33332 0.0
H43 H 0.70337 0.80076 0.33851 0.0
H44 H 0.79893 0.82469 0.3995 0.0
H45 H 0.72176 0.7145 0.32811 0.0
H46 H 0.69079 0.74368 0.32296 0.0
H47 H 0.74636 0.69266 0.26388 0.0
H48 H 0.68852 0.70245 0.1403 0.0
H49 H 0.67378 0.76627 0.25197 0.0
C50 C 0.77176 0.7552 0.34183 0.0
C51 C 0.79327 0.77695 0.36729 0.0
C52 C 0.7392 0.76355 0.33089 0.0
C53 C 0.72861 0.79451 0.34496 0.0
C54 C 0.75027 0.81685 0.36916 0.0
C55 C 0.78246 0.80789 0.37966 0.0
C56 C 0.71487 0.73746 0.31274 0.0
C57 C 0.71145 0.73115 0.2631 0.0
C58 C 0.72833 0.70557 0.24365 0.0
C59 C 0.7206 0.69535 0.19892 0.0
C60 C 0.69608 0.71153 0.17379 0.0
C61 C 0.67896 0.73708 0.19234 0.0
C62 C 0.6873 0.74715 0.23691 0.0
H63 H 0.16657 0.74398 0.25305 0.0
H64 H 0.24567 0.81042 0.25147 0.0
H65 H 0.19826 0.80568 0.36769 0.0
H66 H 0.1866 0.75362 0.18448 0.0
H67 H 0.21299 0.78705 0.18201 0.0
H68 H 0.2074 0.69949 0.18619 0.0
H69 H 0.30573 0.68447 0.16313 0.0
H70 H 0.2728 0.78046 0.19556 0.0
C71 C 0.18352 0.76169 0.26995 0.0
C72 C 0.18029 0.77265 0.31346 0.0
C73 C 0.20779 0.77455 0.24772 0.0
C74 C 0.22819 0.79905 0.26911 0.0
C75 C 0.22508 0.81007 0.3125 0.0
C76 C 0.20168 0.79618 0.33481 0.0
C77 C 0.20965 0.76501 0.19985 0.0
C78 C 0.23738 0.74237 0.19372 0.0
C79 C 0.23159 0.70901 0.18631 0.0
C80 C 0.25639 0.68815 0.17595 0.0
C81 C 0.28734 0.70058 0.17395 0.0
C82 C 0.29363 0.73394 0.18056 0.0
C83 C 0.26853 0.75464 0.19122 0.0
H84 H 0.32258 0.77279 0.74689 0.0
H85 H 0.25044 0.69718 0.73246 0.0
H86 H 0.31114 0.71423 0.8546 0.0
H87 H 0.30171 0.7479 0.67393 0.0
H88 H 0.26944 0.71959 0.66769 0.0
H89 H 0.29119 0.80542 0.66759 0.0
H90 H 0.19427 0.83137 0.62056 0.0
H91 H 0.21294 0.73809 0.67135 0.0
C92 C 0.30946 0.75427 0.76096 0.0
C93 C 0.31927 0.74612 0.80419 0.0
C94 C 0.28409 0.73735 0.73487 0.0
C95 C 0.26874 0.71162 0.75282 0.0
C96 C 0.2782 0.70353 0.79637 0.0
C97 C 0.30297 0.72133 0.82178 0.0
C98 C 0.27828 0.74251 0.68597 0.0
C99 C 0.2546 0.76923 0.67339 0.0
C100 C 0.26564 0.79978 0.66275 0.0
C101 C 0.24379 0.82248 0.64414 0.0
C102 C 0.21098 0.81428 0.63587 0.0
C103 C 0.19963 0.78387 0.64515 0.0
C104 C 0.2214 0.76189 0.66517 0.0
H105 H 0.29515 0.21121 0.89502 0.0
H106 H 0.22608 0.28832 0.88184 0.0
H107 H 0.3267 0.31033 0.9163 0.0
H108 H 0.23776 0.19875 0.88592 0.0
H109 H 0.20976 0.23068 0.89328 0.0
H110 H 0.25601 0.18632 0.8119 0.0
H111 H 0.18753 0.20866 0.70225 0.0
H112 H 0.17967 0.2542 0.82975 0.0
C113 C 0.28972 0.23677 0.89552 0.0
C114 C 0.31481 0.25957 0.90633 0.0
C115 C 0.2576 0.24705 0.88565 0.0
C116 C 0.25079 0.28022 0.888 0.0
C117 C 0.27566 0.30297 0.89881 0.0
C118 C 0.30759 0.29262 0.90715 0.0
C119 C 0.23025 0.22296 0.87499 0.0
C120 C 0.21894 0.2202 0.82627 0.0
C121 C 0.23511 0.19936 0.79827 0.0
C122 C 0.22419 0.19508 0.75319 0.0
C123 C 0.19724 0.21262 0.73647 0.0
C124 C 0.18148 0.2344 0.76338 0.0
C125 C 0.19214 0.2379 0.80855 0.0
H126 H 0.69789 0.25549 0.78516 0.0
H127 H 0.76314 0.33625 0.78556 0.0
H128 H 0.7136 0.32332 0.89777 0.0
H129 H 0.7094 0.27982 0.71541 0.0
H130 H 0.74041 0.30914 0.71652 0.0
H131 H 0.72106 0.22255 0.70905 0.0
H132 H 0.81368 0.19686 0.66999 0.0
H133 H 0.79838 0.29292 0.72453 0.0
C134 C 0.71035 0.27638 0.80221 0.0
C135 C 0.70386 0.28644 0.84505 0.0
C136 C 0.73195 0.29403 0.78045 0.0
C137 C 0.74734 0.32191 0.80237 0.0
C138 C 0.74132 0.33203 0.84526 0.0
C139 C 0.71959 0.31423 0.86585 0.0
C140 C 0.73387 0.28676 0.73168 0.0
C141 C 0.75746 0.26035 0.72057 0.0
C142 C 0.74611 0.22867 0.70746 0.0
C143 C 0.76623 0.20585 0.6885 0.0
C144 C 0.79831 0.21431 0.6851 0.0
C145 C 0.81032 0.24543 0.69824 0.0
C146 C 0.78974 0.26843 0.71598 0.0
H147 H 0.75245 0.6802 0.77977 0.0
H148 H 0.67383 0.74732 0.76378 0.0
H149 H 0.69907 0.70644 0.888 0.0
H150 H 0.72946 0.69331 0.70667 0.0
H151 H 0.69667 0.72092 0.69922 0.0
H152 H 0.78319 0.71262 0.70191 0.0
H153 H 0.79912 0.81432 0.69227 0.0
H154 H 0.70739 0.78074 0.72113 0.0
C155 C 0.73399 0.69466 0.79357 0.0
C156 C 0.72837 0.69142 0.83718 0.0
C157 C 0.71487 0.71524 0.76705 0.0
C158 C 0.68967 0.73251 0.78455 0.0
C159 C 0.6844 0.72998 0.82859 0.0
C160 C 0.70428 0.70989 0.85481 0.0
C161 C 0.72003 0.71674 0.71938 0.0
C162 C 0.74308 0.74374 0.71374 0.0
C163 C 0.77487 0.73735 0.70439 0.0
C164 C 0.79552 0.76279 0.69689 0.0
C165 C 0.78416 0.79461 0.70007 0.0
C166 C 0.75251 0.80113 0.70876 0.0
C167 C 0.73213 0.7757 0.71564 0.0
C168 C 0.06136 0.29907 0.63077 0.0
C169 C 0.07254 0.32926 0.64824 0.0
C170 C 0.06289 0.35089 0.6175 0.0
C171 C 0.04624 0.33289 0.58313 0.0
N172 N 0.04437 0.30132 0.59061 0.0
Co173 Co 0.02283 0.26713 0.54899 0.0
N174 N 0.99904 0.29938 0.51302 0.0
C175 C 0.0064 0.33092 0.51302 0.0
C176 C 0.98495 0.3472 0.48506 0.0
C177 C 0.96275 0.32439 0.46646 0.0
C178 C 0.97196 0.29548 0.48426 0.0
N179 N 1.00112 0.23309 0.50754 0.0
C180 C 0.97381 0.23481 0.47947 0.0
C181 C 0.96651 0.20519 0.4568 0.0
C182 C 0.99037 0.18435 0.4712 0.0
C183 C 0.01073 0.20234 0.50179 0.0
N184 N 0.04676 0.23458 0.58435 0.0
C185 C 0.05136 0.20354 0.57063 0.0
C186 C 0.06999 0.18676 0.601 0.0
C187 C 0.07808 0.20863 0.63579 0.0
C188 C 0.06384 0.23781 0.62475 0.0
N189 N 0.98712 0.26567 0.58517 0.0
C190 C 0.93289 0.26328 0.63158 0.0
C191 C 0.9481 0.2349 0.61746 0.0
C192 C 0.9751 0.23662 0.59461 0.0
C193 C 0.94606 0.29292 0.6226 0.0
C194 C 0.97306 0.29358 0.59949 0.0
N195 N 0.05859 0.26858 0.51247 0.0
C196 C 0.07831 0.26326 0.44144 0.0
C197 C 0.11058 0.26629 0.46073 0.0
C198 C 0.11562 0.27192 0.50673 0.0
C199 C 0.08969 0.27219 0.53173 0.0
C200 C 0.05288 0.26512 0.46763 0.0
H201 H 0.09508 0.27493 0.56688 0.0
H202 H 0.02854 0.26294 0.4515 0.0
H203 H 0.98581 0.21433 0.58369 0.0
H204 H 0.98224 0.31675 0.59262 0.0
C205 C 0.02907 0.34513 0.54585 0.0
C206 C 0.07089 0.26864 0.65074 0.0
C207 C 0.95548 0.26448 0.4722 0.0
C208 C 0.03489 0.19007 0.5314 0.0
H209 H 0.08694 0.3349 0.67944 0.0
H210 H 0.06713 0.37673 0.62023 0.0
H211 H 0.98445 0.37286 0.4805 0.0
H212 H 0.94205 0.32854 0.44288 0.0
H213 H 0.94609 0.19919 0.43259 0.0
H214 H 0.99177 0.15879 0.46204 0.0
H215 H 0.07663 0.16154 0.59842 0.0
H216 H 0.09362 0.2037 0.66525 0.0
H217 H 0.93872 0.21133 0.6228 0.0
H218 H 0.9356 0.31556 0.63323 0.0
H219 H 0.07234 0.2586 0.40641 0.0
H220 H 0.13946 0.27583 0.5241 0.0
C221 C 0.70585 0.06137 0.59742 0.0
C222 C 0.67661 0.07487 0.60574 0.0
C223 C 0.65306 0.05567 0.58273 0.0
C224 C 0.66918 0.03161 0.56176 0.0
N225 N 0.70161 0.03409 0.57033 0.0
Co226 Co 0.73413 0.00456 0.54557 0.0
N227 N 0.69983 0.97938 0.50623 0.0
C228 C 0.66789 0.98569 0.50171 0.0
C229 C 0.65022 0.96524 0.47119 0.0
C230 C 0.67217 0.9446 0.45517 0.0
C231 C 0.7021 0.95346 0.47722 0.0
N232 N 0.76661 0.97405 0.52259 0.0
C233 C 0.76253 0.94748 0.49415 0.0
C234 C 0.79152 0.93152 0.49083 0.0
C235 C 0.81472 0.94885 0.51725 0.0
C236 C 0.79871 0.97405 0.53571 0.0
N237 N 0.76866 0.0307 0.58303 0.0
C238 C 0.80083 0.02571 0.58576 0.0
C239 C 0.81877 0.04856 0.61216 0.0
C240 C 0.79682 0.06991 0.62642 0.0
C241 C 0.76663 0.0588 0.60774 0.0
N242 N 0.73019 0.97545 0.5934 0.0
C243 C 0.72681 0.92664 0.65221 0.0
C244 C 0.7559 0.94242 0.64894 0.0
C245 C 0.75694 0.96671 0.62 0.0
C246 C 0.69891 0.9377 0.62823 0.0
C247 C 0.70113 0.96201 0.59926 0.0
N248 N 0.73819 0.03378 0.49813 0.0
C249 C 0.77234 0.06235 0.45525 0.0
C250 C 0.74731 0.08332 0.44308 0.0
C251 C 0.71705 0.07791 0.45618 0.0
C252 C 0.71284 0.05258 0.48278 0.0
C253 C 0.76735 0.03795 0.48281 0.0
H254 H 0.68916 0.04934 0.49165 0.0
H255 H 0.78777 0.0236 0.49256 0.0
H256 H 0.78002 0.97706 0.61862 0.0
H257 H 0.67917 0.96875 0.58102 0.0
C258 C 0.65502 0.00949 0.52885 0.0
C259 C 0.73697 0.07649 0.61328 0.0
C260 C 0.73185 0.9363 0.46972 0.0
C261 C 0.81335 0.99891 0.56387 0.0
H262 H 0.67271 0.09694 0.62512 0.0
H263 H 0.62731 0.05974 0.57978 0.0
H264 H 0.62438 0.96503 0.46215 0.0
H265 H 0.66671 0.92506 0.43034 0.0
H266 H 0.79566 0.90951 0.47149 0.0
H267 H 0.84026 0.94371 0.52234 0.0
H268 H 0.84473 0.04971 0.6198 0.0
H269 H 0.8024 0.0915 0.6477 0.0
H270 H 0.77836 0.93488 0.6665 0.0
H271 H 0.67561 0.92687 0.63048 0.0
H272 H 0.79613 0.06582 0.44538 0.0
H273 H 0.69696 0.09347 0.44657 0.0
C274 C 0.04679 0.78799 0.57956 0.0
C275 C 0.05783 0.81805 0.59763 0.0
C276 C 0.03762 0.84034 0.5787 0.0
C277 C 0.01545 0.82266 0.55045 0.0
N278 N 0.01975 0.79036 0.55102 0.0
Co279 Co 0.99401 0.7557 0.51404 0.0
N280 N 0.96705 0.78858 0.48179 0.0
C281 C 0.96988 0.82113 0.48752 0.0
C282 C 0.94766 0.83736 0.4609 0.0
C283 C 0.92903 0.8138 0.43741 0.0
C284 C 0.94095 0.78447 0.45135 0.0
N285 N 0.96817 0.72111 0.47682 0.0
C286 C 0.94119 0.72355 0.4479 0.0
C287 C 0.92952 0.69345 0.43108 0.0
C288 C 0.94958 0.67114 0.4505 0.0
C289 C 0.97223 0.68881 0.47805 0.0
N290 N 0.02121 0.72297 0.54651 0.0
C291 C 0.01814 0.69044 0.54121 0.0
C292 C 0.04187 0.67435 0.56567 0.0
C293 C 0.06166 0.69798 0.58711 0.0
C294 C 0.04876 0.72722 0.57454 0.0
N295 N 0.96233 0.75512 0.55783 0.0
C296 C 0.91242 0.75386 0.61261 0.0
C297 C 0.92609 0.72532 0.59695 0.0
C298 C 0.95088 0.7265 0.57014 0.0
C299 C 0.92506 0.78312 0.6017 0.0
C300 C 0.94977 0.78319 0.57458 0.0
N301 N 0.02557 0.75604 0.4702 0.0
C302 C 0.06323 0.72767 0.42735 0.0
C303 C 0.07348 0.75661 0.41274 0.0
C304 C 0.059 0.78522 0.42652 0.0
C305 C 0.0355 0.78445 0.4554 0.0
C306 C 0.03908 0.72788 0.45528 0.0
H307 H 0.02616 0.80717 0.4659 0.0
H308 H 0.03208 0.70497 0.4648 0.0
H309 H 0.95992 0.70383 0.55915 0.0
H310 H 0.95778 0.80626 0.56681 0.0
C311 C 0.99237 0.83571 0.52006 0.0
C312 C 0.06464 0.75831 0.58721 0.0
C313 C 0.9248 0.7537 0.43771 0.0
C314 C 0.9954 0.67589 0.50872 0.0
H315 H 0.07913 0.82329 0.62065 0.0
H316 H 0.03975 0.86638 0.5834 0.0
H317 H 0.94467 0.86323 0.4598 0.0
H318 H 0.90824 0.81772 0.41386 0.0
H319 H 0.90818 0.68817 0.4082 0.0
H320 H 0.94709 0.64511 0.44646 0.0
H321 H 0.04538 0.64851 0.56596 0.0
H322 H 0.08373 0.6941 0.60822 0.0
H323 H 0.91757 0.70204 0.60509 0.0
H324 H 0.91519 0.80597 0.61273 0.0
H325 H 0.07376 0.70493 0.41715 0.0
H326 H 0.0665 0.80824 0.41611 0.0
C327 C 0.29661 0.96102 0.57033 0.0
C328 C 0.32492 0.95074 0.59342 0.0
C329 C 0.34847 0.97258 0.58759 0.0
C330 C 0.33329 0.995 0.56151 0.0
N331 N 0.30168 0.98864 0.55051 0.0
Co332 Co 0.27108 0.01537 0.5137 0.0
N333 N 0.3066 0.03798 0.48946 0.0
C334 C 0.33794 0.0378 0.50593 0.0
C335 C 0.35715 0.05575 0.48319 0.0
C336 C 0.3366 0.06851 0.45076 0.0
C337 C 0.3058 0.05779 0.45566 0.0
N338 N 0.24023 0.04259 0.47785 0.0
C339 C 0.24491 0.06255 0.44571 0.0
C340 C 0.2165 0.07833 0.43182 0.0
C341 C 0.19354 0.06823 0.45629 0.0
C342 C 0.20899 0.04699 0.4838 0.0
N343 N 0.23563 0.9922 0.53726 0.0
C344 C 0.20474 1.00175 0.53556 0.0
C345 C 0.18526 0.98019 0.55226 0.0
C346 C 0.20515 0.95558 0.56565 0.0
C347 C 0.23593 0.96371 0.55689 0.0
N348 N 0.2723 0.04845 0.56244 0.0
C349 C 0.26724 0.09702 0.6295 0.0
C350 C 0.26332 0.06421 0.63688 0.0
C351 C 0.26664 0.04039 0.60334 0.0
C352 C 0.27585 0.10443 0.58843 0.0
C353 C 0.27741 0.08011 0.55532 0.0
N354 N 0.26971 0.98235 0.46535 0.0
C355 C 0.23837 0.94741 0.4112 0.0
C356 C 0.26574 0.92916 0.40466 0.0
C357 C 0.29547 0.93888 0.42737 0.0
C358 C 0.29703 0.96599 0.45702 0.0
C359 C 0.24081 0.97373 0.44194 0.0
H360 H 0.32014 0.97291 0.4744 0.0
H361 H 0.21902 0.98621 0.44802 0.0
H362 H 0.26351 0.0155 0.61019 0.0
H363 H 0.28198 0.08732 0.52365 0.0
C364 C 0.34865 0.01839 0.54027 0.0
C365 C 0.26514 0.94506 0.57017 0.0
C366 C 0.27633 0.07036 0.43135 0.0
C367 C 0.1941 0.02793 0.51158 0.0
H368 H 0.32821 0.92967 0.61243 0.0
H369 H 0.37387 0.97141 0.59939 0.0
H370 H 0.38303 0.05902 0.48926 0.0
H371 H 0.34336 0.0847 0.42708 0.0
H372 H 0.21278 0.09603 0.40741 0.0
H373 H 0.16845 0.07524 0.45387 0.0
H374 H 0.15941 0.98145 0.55282 0.0
H375 H 0.19763 0.93414 0.58004 0.0
H376 H 0.25656 0.05672 0.66764 0.0
H377 H 0.28067 0.12897 0.58102 0.0
H378 H 0.21491 0.94033 0.39442 0.0
H379 H 0.31712 0.92526 0.42289 0.0
C380 C 0.54491 0.7962 0.07903 0.0
C381 C 0.55567 0.82499 0.10143 0.0
C382 C 0.5341 0.84824 0.08771 0.0
C383 C 0.51148 0.83235 0.05785 0.0
N384 N 0.51748 0.80061 0.05195 0.0
Co385 Co 0.49121 0.76878 0.01167 0.0
N386 N 0.46941 0.80349 0.97768 0.0
C387 C 0.46936 0.83514 0.99078 0.0
C388 C 0.45157 0.85347 0.96129 0.0
C389 C 0.43917 0.832 0.92783 0.0
C390 C 0.45004 0.80163 0.93889 0.0
N391 N 0.46475 0.73669 0.97196 0.0
C392 C 0.44606 0.74039 0.93348 0.0
C393 C 0.43103 0.71138 0.91747 0.0
C394 C 0.44005 0.6891 0.94741 0.0
C395 C 0.46007 0.70554 0.9799 0.0
N396 N 0.51316 0.73428 0.0456 0.0
C397 C 0.50292 0.70358 0.04603 0.0
C398 C 0.5234 0.68523 0.07242 0.0
C399 C 0.54804 0.70574 0.08976 0.0
C400 C 0.54109 0.73553 0.07292 0.0
N401 N 0.45735 0.77083 0.05106 0.0
C402 C 0.40772 0.76842 0.10511 0.0
C403 C 0.40085 0.77194 0.05999 0.0
C404 C 0.42581 0.77301 0.03377 0.0
C405 C 0.44016 0.767 0.12291 0.0
C406 C 0.46461 0.76855 0.09539 0.0
N407 N 0.52489 0.76648 0.97223 0.0
C408 C 0.55774 0.73457 0.92671 0.0
C409 C 0.57423 0.76225 0.91764 0.0
C410 C 0.5654 0.7922 0.93619 0.0
C411 C 0.54037 0.79384 0.96291 0.0
C412 C 0.53347 0.73715 0.95435 0.0
H413 H 0.5338 0.81721 0.97638 0.0
H414 H 0.52195 0.71526 0.96167 0.0
H415 H 0.41928 0.7747 0.99918 0.0
H416 H 0.48936 0.76721 0.10983 0.0
C417 C 0.48841 0.84702 0.02897 0.0
C418 C 0.56036 0.7649 0.08546 0.0
C419 C 0.43781 0.77152 0.91482 0.0
C420 C 0.47759 0.69171 0.01552 0.0
H421 H 0.57694 0.82877 0.12495 0.0
H422 H 0.53565 0.87388 0.09682 0.0
H423 H 0.44814 0.87936 0.9637 0.0
H424 H 0.42307 0.83783 0.89924 0.0
H425 H 0.41431 0.70698 0.88801 0.0
H426 H 0.43305 0.66388 0.94547 0.0
H427 H 0.52145 0.65968 0.07699 0.0
H428 H 0.56871 0.69947 0.11217 0.0
H429 H 0.37621 0.77254 0.04449 0.0
H430 H 0.44659 0.76446 0.1577 0.0
H431 H 0.56421 0.7109 0.91356 0.0
H432 H 0.57766 0.81415 0.92995 0.0
C433 C 0.21741 0.54824 0.0627 0.0
C434 C 0.18662 0.55731 0.07137 0.0
C435 C 0.1657 0.54541 0.0364 0.0
C436 C 0.18468 0.52943 0.00859 0.0
N437 N 0.21623 0.52998 0.02433 0.0
Co438 Co 0.2515 0.50913 0.99495 0.0
N439 N 0.22051 0.48278 0.95362 0.0
C440 C 0.18881 0.48814 0.94414 0.0
C441 C 0.17371 0.46449 0.91551 0.0
C442 C 0.19748 0.4429 0.9068 0.0
C443 C 0.22567 0.45471 0.93077 0.0
N444 N 0.28646 0.48832 0.96499 0.0
C445 C 0.28597 0.45988 0.94083 0.0
C446 C 0.31603 0.45313 0.92747 0.0
C447 C 0.33582 0.47859 0.94368 0.0
C448 C 0.31688 0.49921 0.96618 0.0
N449 N 0.28291 0.53532 0.03628 0.0
C450 C 0.31402 0.54055 0.03075 0.0
C451 C 0.32987 0.56074 0.06324 0.0
C452 C 0.30725 0.56934 0.09054 0.0
C453 C 0.27856 0.55384 0.07315 0.0
N454 N 0.25367 0.47431 0.03614 0.0
C455 C 0.2574 0.42089 0.08895 0.0
C456 C 0.28532 0.43629 0.07901 0.0
C457 C 0.28297 0.46302 0.05317 0.0
C458 C 0.2275 0.43352 0.07295 0.0
C459 C 0.22616 0.45998 0.04636 0.0
N460 N 0.24944 0.54386 0.95351 0.0
C461 C 0.24924 0.60074 0.94058 0.0
C462 C 0.2509 0.59411 0.89544 0.0
C463 C 0.25107 0.56138 0.88012 0.0
C464 C 0.25041 0.53679 0.90951 0.0
C465 C 0.24829 0.57554 0.96866 0.0
H466 H 0.25112 0.512 0.89663 0.0
H467 H 0.24729 0.58194 0.00293 0.0
H468 H 0.30497 0.47409 0.04612 0.0
H469 H 0.20278 0.4683 0.03323 0.0
C470 C 0.17339 0.51066 0.9703 0.0
C471 C 0.24699 0.56182 0.08799 0.0
C472 C 0.25717 0.43946 0.93041 0.0
C473 C 0.32823 0.52413 0.99678 0.0
H474 H 0.18012 0.57211 0.0993 0.0
H475 H 0.13973 0.54779 0.03207 0.0
H476 H 0.14819 0.46206 0.90454 0.0
H477 H 0.19445 0.42084 0.88587 0.0
H478 H 0.32334 0.43194 0.90891 0.0
H479 H 0.36146 0.48065 0.94183 0.0
H480 H 0.35487 0.56838 0.06667 0.0
H481 H 0.31138 0.58627 0.11888 0.0
H482 H 0.30897 0.42755 0.09093 0.0
H483 H 0.2053 0.42229 0.07952 0.0
H484 H 0.24964 0.62531 0.9548 0.0
H485 H 0.25178 0.5546 0.84562 0.0
C486 C 0.46737 0.27005 0.98249 0.0
C487 C 0.45874 0.30014 0.96764 0.0
C488 C 0.4839 0.32074 0.98233 0.0
C489 C 0.50625 0.30231 0.00563 0.0
N490 N 0.49674 0.27143 0.00653 0.0
Co491 Co 0.5204 0.23717 0.03918 0.0
N492 N 0.54767 0.26949 0.0773 0.0
C493 C 0.55165 0.30061 0.06856 0.0
C494 C 0.57343 0.31713 0.09861 0.0
C495 C 0.58442 0.295 0.12773 0.0
C496 C 0.5686 0.2659 0.11388 0.0
N497 N 0.54347 0.20263 0.07214 0.0
C498 C 0.56371 0.20463 0.11022 0.0
C499 C 0.57434 0.17419 0.12135 0.0
C500 C 0.56124 0.15264 0.0884 0.0
C501 C 0.54314 0.17094 0.0592 0.0
N502 N 0.4934 0.20525 1.0003 0.0
C503 C 0.4996 0.17361 0.99366 0.0
C504 C 0.47588 0.15756 0.96569 0.0
C505 C 0.45334 0.18056 0.95428 0.0
C506 C 0.46459 0.20936 0.97615 0.0
N507 N 0.55309 0.23564 0.99753 0.0
C508 C 0.60212 0.2416 0.94223 0.0
C509 C 0.60905 0.23233 0.98545 0.0
C510 C 0.58468 0.23049 0.01253 0.0
C511 C 0.56935 0.24538 0.92645 0.0
C512 C 0.54528 0.2416 0.95426 0.0
N513 N 0.48805 0.23889 0.08079 0.0
C514 C 0.44968 0.21213 0.11948 0.0
C515 C 0.43884 0.24192 0.13627 0.0
C516 C 0.45384 0.27009 0.12525 0.0
C517 C 0.47832 0.26805 0.09778 0.0
C518 C 0.47422 0.21115 0.09195 0.0
H519 H 0.48886 0.2902 0.08947 0.0
H520 H 0.48161 0.18789 0.07915 0.0
H521 H 0.59197 0.22579 0.04611 0.0
H522 H 0.52044 0.24468 0.94109 0.0
C523 C 0.53253 0.31429 0.03425 0.0
C524 C 0.44802 0.24037 0.97231 0.0
C525 C 0.57766 0.23483 0.13247 0.0
C526 C 0.52338 0.15902 0.0216 0.0
H527 H 0.43653 0.30687 0.94885 0.0
H528 H 0.48486 0.3465 0.97872 0.0
H529 H 0.58049 0.34228 0.09931 0.0
H530 H 0.60295 0.2998 0.15498 0.0
H531 H 0.59097 0.16835 0.14942 0.0
H532 H 0.56446 0.12671 0.08612 0.0
H533 H 0.47416 0.13189 0.9568 0.0
H534 H 0.431 0.17657 0.93292 0.0
H535 H 0.63337 0.22725 0.99936 0.0
H536 H 0.56213 0.25234 0.89344 0.0
H537 H 0.43921 0.18965 0.1273 0.0
H538 H 0.44607 0.29378 0.13651 0.0
C539 C 0.72325 0.55498 0.096 0.0
C540 C 0.69285 0.56242 0.10772 0.0
C541 C 0.67262 0.53789 0.08945 0.0
C542 C 0.6917 0.51697 0.06763 0.0
N543 N 0.72262 0.52684 0.07091 0.0
Co544 Co 0.75809 0.50405 0.04411 0.0
N545 N 0.72717 0.47776 1.0019 0.0
C546 C 0.69566 0.47339 0.00587 0.0
C547 C 0.68019 0.45319 0.97302 0.0
C548 C 0.70345 0.44376 0.94707 0.0
C549 C 0.73207 0.45881 0.96557 0.0
N550 N 0.79371 0.48138 0.01721 0.0
C551 C 0.79315 0.46215 0.97956 0.0
C552 C 0.82383 0.45097 0.97385 0.0
C553 C 0.84403 0.46291 0.00961 0.0
C554 C 0.82474 0.48083 0.03505 0.0
N555 N 0.78869 0.53016 0.08681 0.0
C556 C 0.82 0.52357 0.09796 0.0
C557 C 0.8351 0.54616 0.12819 0.0
C558 C 0.81177 0.5683 0.13657 0.0
C559 C 0.78372 0.55792 0.11084 0.0
N560 N 0.75771 0.47063 0.08606 0.0
C561 C 0.75681 0.42196 0.14465 0.0
C562 C 0.75374 0.45438 0.15918 0.0
C563 C 0.75456 0.47843 0.12935 0.0
C564 C 0.76004 0.41445 0.10037 0.0
C565 C 0.76031 0.43897 0.07176 0.0
N566 N 0.75847 0.53733 1.0023 0.0
C567 C 0.78719 0.5769 0.96765 0.0
C568 C 0.75836 0.58617 0.94425 0.0
C569 C 0.72967 0.57056 0.95009 0.0
C570 C 0.7302 0.54643 0.9796 0.0
C571 C 0.78679 0.55204 0.99615 0.0
H572 H 0.70764 0.5354 0.98438 0.0
H573 H 0.80933 0.54496 0.0135 0.0
H574 H 0.75257 0.5033 0.14128 0.0
H575 H 0.76246 0.43207 0.03793 0.0
C576 C 0.6807 0.49143 0.03777 0.0
C577 C 0.75247 0.57395 0.1114 0.0
C578 C 0.76381 0.45057 0.95151 0.0
C579 C 0.83534 0.49996 0.07331 0.0
H580 H 0.68603 0.58333 0.12742 0.0
H581 H 0.64684 0.53627 0.09041 0.0
H582 H 0.65495 0.44636 0.96821 0.0
H583 H 0.69981 0.42681 0.91864 0.0
H584 H 0.83071 0.43507 0.94721 0.0
H585 H 0.86977 0.45923 0.01602 0.0
H586 H 0.86036 0.54729 0.14103 0.0
H587 H 0.81501 0.58967 0.15883 0.0
H588 H 0.75115 0.46106 0.19326 0.0
H589 H 0.76186 0.38961 0.08765 0.0
H590 H 0.80977 0.58863 0.96379 0.0
H591 H 0.70689 0.57753 0.93273 0.0
C592 C 0.16047 0.25743 0.36275 0.0
C593 C 0.1903 0.24662 0.38258 0.0
H594 H 0.11278 0.2734 0.37108 0.0
C595 C 0.19456 0.24578 0.42862 0.0
H596 H 0.15604 0.25852 0.32745 0.0
C597 C 0.16915 0.25252 0.45357 0.0
C598 C 0.13863 0.26185 0.43385 0.0
H599 H 0.21737 0.23857 0.44558 0.0
H600 H 0.1736 0.24894 0.48826 0.0
C601 C 0.13519 0.26529 0.38802 0.0
C602 C 0.77604 0.13572 0.35978 0.0
C603 C 0.77521 0.16647 0.38164 0.0
H604 H 0.76782 0.08491 0.36263 0.0
C605 C 0.76254 0.16997 0.42201 0.0
H606 H 0.78605 0.13251 0.3288 0.0
C607 C 0.75158 0.1429 0.44082 0.0
C608 C 0.75382 0.11203 0.41986 0.0
H609 H 0.7618 0.1935 0.43935 0.0
H610 H 0.74281 0.14585 0.47268 0.0
C611 C 0.76572 0.10862 0.37901 0.0
C612 C 0.84799 0.75322 0.35798 0.0
C613 C 0.82605 0.76677 0.38533 0.0
H614 H 0.897 0.7384 0.35333 0.0
C615 C 0.83605 0.77228 0.43053 0.0
H616 H 0.84087 0.74874 0.32306 0.0
C617 C 0.86768 0.76598 0.44771 0.0
C618 C 0.89007 0.75412 0.42011 0.0
H619 H 0.81954 0.78223 0.45251 0.0
H620 H 0.8751 0.77165 0.48236 0.0
C621 C 0.87992 0.74718 0.37523 0.0
C622 C 0.23802 0.86853 0.31148 0.0
C623 C 0.24223 0.83948 0.33248 0.0
H624 H 0.24225 0.92019 0.31841 0.0
C625 C 0.25842 0.83991 0.37522 0.0
H626 H 0.22523 0.86879 0.27873 0.0
C627 C 0.2686 0.8692 0.39755 0.0
C628 C 0.26211 0.89842 0.3777 0.0
H629 H 0.26172 0.81777 0.39204 0.0
H630 H 0.27945 0.86921 0.43137 0.0
C631 C 0.2476 0.89785 0.33412 0.0
C632 C 0.14588 0.76037 0.65782 0.0
C633 C 0.16558 0.77438 0.62988 0.0
H634 H 0.09804 0.74437 0.66619 0.0
C635 C 0.15235 0.7802 0.58688 0.0
H636 H 0.15544 0.75565 0.69109 0.0
C637 C 0.11995 0.7734 0.57265 0.0
C638 C 0.09997 0.76065 0.60104 0.0
H639 H 0.16704 0.79043 0.56431 0.0
H640 H 0.11017 0.77896 0.53975 0.0
C641 C 0.1132 0.7538 0.6436 0.0
C642 C 0.25151 0.14178 0.73769 0.0
C643 C 0.2395 0.17146 0.72332 0.0
H644 H 0.27104 0.09575 0.7204 0.0
C645 C 0.23982 0.17745 0.67887 0.0
H646 H 0.2517 0.13615 0.77164 0.0
C647 C 0.24921 0.15364 0.64897 0.0
C648 C 0.26006 0.12335 0.6627 0.0
H649 H 0.23179 0.20033 0.66658 0.0
H650 H 0.2466 0.15896 0.61476 0.0
C651 C 0.26203 0.11821 0.70788 0.0
C652 C 0.84796 0.27971 0.66214 0.0
C653 C 0.84326 0.2539 0.68823 0.0
H654 H 0.8795 0.30258 0.62306 0.0
C655 C 0.86924 0.23319 0.69902 0.0
H656 H 0.82826 0.29577 0.65273 0.0
C657 C 0.89868 0.23713 0.68229 0.0
C658 C 0.90289 0.2617 0.65388 0.0
H659 H 0.86637 0.21317 0.71923 0.0
H660 H 0.9179 0.22034 0.69085 0.0
C661 C 0.87739 0.28351 0.64504 0.0
C662 C 0.71459 0.83874 0.67011 0.0
C663 C 0.73978 0.83392 0.70336 0.0
H664 H 0.69084 0.87202 0.62743 0.0
C665 C 0.7562 0.86071 0.72559 0.0
H666 H 0.70176 0.81832 0.65235 0.0
C667 C 0.74949 0.89171 0.71205 0.0
C668 C 0.72688 0.89624 0.67525 0.0
H669 H 0.77554 0.85743 0.75163 0.0
H670 H 0.76357 0.9118 0.72849 0.0
C671 C 0.70829 0.86963 0.65598 0.0
C672 C 0.85374 0.77754 0.69476 0.0
C673 C 0.82743 0.75672 0.68065 0.0
H674 H 0.9012 0.7928 0.68478 0.0
C675 C 0.83062 0.73289 0.64677 0.0
H676 H 0.85225 0.79589 0.72118 0.0
C677 C 0.85871 0.73115 0.62585 0.0
C678 C 0.88425 0.75323 0.63829 0.0
H679 H 0.81071 0.71676 0.63466 0.0
H680 H 0.8597 0.71355 0.59842 0.0
C681 C 0.88174 0.77588 0.67377 0.0
C682 C 0.27007 0.85524 0.5916 0.0
C683 C 0.25443 0.85402 0.62965 0.0
H684 H 0.28536 0.88501 0.54274 0.0
C685 C 0.24435 0.88314 0.64961 0.0
H686 H 0.27764 0.83313 0.57515 0.0
C687 C 0.24901 0.91271 0.63137 0.0
C688 C 0.26289 0.91379 0.59188 0.0
H689 H 0.23197 0.88289 0.6787 0.0
H690 H 0.24075 0.9347 0.64736 0.0
C691 C 0.27424 0.88484 0.57288 0.0
C692 C 0.12217 0.24645 0.75438 0.0
C693 C 0.1532 0.25189 0.74277 0.0
H694 H 0.07112 0.24803 0.73398 0.0
C695 C 0.1564 0.26859 0.7051 0.0
H696 H 0.11907 0.23326 0.78292 0.0
C697 C 0.12921 0.27688 0.67729 0.0
C698 C 0.09823 0.2688 0.68669 0.0
H699 H 0.18006 0.27295 0.69536 0.0
H700 H 0.13251 0.28724 0.64662 0.0
C701 C 0.0948 0.25484 0.72643 0.0
C702 C 0.75898 0.16524 0.62429 0.0
C703 C 0.75376 0.17413 0.66789 0.0
H704 H 0.75721 0.12747 0.57291 0.0
C705 C 0.73953 0.15153 0.69207 0.0
H706 H 0.76965 0.18225 0.60474 0.0
C707 C 0.73252 0.12002 0.67374 0.0
C708 C 0.73925 0.1109 0.63086 0.0
H709 H 0.73539 0.15772 0.72575 0.0
H710 H 0.72309 0.10241 0.69359 0.0
C711 C 0.75178 0.13401 0.60599 0.0
C712 C 0.86565 0.25495 0.44087 0.0
C713 C 0.8637 0.24803 0.39508 0.0
H714 H 0.89652 0.26567 0.50112 0.0
C715 C 0.89191 0.25069 0.37447 0.0
H716 H 0.84437 0.25365 0.45776 0.0
C717 C 0.92157 0.25803 0.39935 0.0
C718 C 0.92359 0.26273 0.44523 0.0
H719 H 0.89151 0.24519 0.33947 0.0
H720 H 0.94323 0.25832 0.38306 0.0
C721 C 0.89537 0.26206 0.46571 0.0
C722 C 0.72015 0.84919 0.42288 0.0
C723 C 0.73953 0.84833 0.38833 0.0
H724 H 0.70278 0.87781 0.47609 0.0
C725 C 0.75323 0.87731 0.37767 0.0
H726 H 0.7098 0.82709 0.43224 0.0
C727 C 0.7488 0.90632 0.40221 0.0
C728 C 0.73129 0.9068 0.43868 0.0
H729 H 0.76858 0.87722 0.35154 0.0
H730 H 0.76061 0.92809 0.3943 0.0
C731 C 0.71623 0.87814 0.44801 0.0
C732 C 0.12128 0.77418 0.31935 0.0
C733 C 0.15213 0.76354 0.33518 0.0
H734 H 0.07213 0.78073 0.33209 0.0
C735 C 0.1565 0.74872 0.37524 0.0
H736 H 0.11755 0.78621 0.2889 0.0
C737 C 0.13051 0.74517 0.39953 0.0
C738 C 0.09999 0.75719 0.3847 0.0
H739 H 0.18021 0.74082 0.38831 0.0
H740 H 0.13456 0.73436 0.43087 0.0
C741 C 0.09547 0.77133 0.34414 0.0
C742 C 0.2829 0.15804 0.40491 0.0
C743 C 0.26764 0.15769 0.36148 0.0
H744 H 0.29766 0.13075 0.46072 0.0
C745 C 0.25998 0.12758 0.33887 0.0
H746 H 0.28881 0.18083 0.42338 0.0
C747 C 0.26514 0.09872 0.36043 0.0
C748 C 0.27815 0.09945 0.40491 0.0
H749 H 0.24768 0.12648 0.30575 0.0
H750 H 0.25697 0.07603 0.34331 0.0
C751 C 0.288 0.12935 0.42635 0.0
C752 C 0.6247 0.73463 0.8276 0.0
C753 C 0.65574 0.74429 0.84647 0.0
H754 H 0.5744 0.73262 0.83573 0.0
C755 C 0.65924 0.76308 0.88653 0.0
H756 H 0.62145 0.71973 0.79709 0.0
C757 C 0.63234 0.77078 0.90834 0.0
C758 C 0.60159 0.75921 0.89092 0.0
H759 H 0.683 0.77052 0.90189 0.0
H760 H 0.63585 0.78407 0.94009 0.0
C761 C 0.59789 0.74176 0.84984 0.0
C762 C 0.24636 0.67809 0.84971 0.0
C763 C 0.26556 0.67449 0.81515 0.0
H764 H 0.2254 0.65574 0.90061 0.0
C765 C 0.27774 0.64374 0.80467 0.0
H766 H 0.23705 0.70163 0.8589 0.0
C767 C 0.27204 0.61745 0.8295 0.0
C768 C 0.25383 0.62116 0.86546 0.0
H769 H 0.2933 0.64048 0.77888 0.0
H770 H 0.28339 0.59467 0.82178 0.0
C771 C 0.24022 0.65175 0.87414 0.0
C772 C 0.35657 0.23512 0.9594 0.0
C773 C 0.34846 0.24966 0.91956 0.0
H774 H 0.3948 0.22116 0.00753 0.0
C775 C 0.37319 0.25851 0.8953 0.0
H776 H 0.33787 0.22836 0.97881 0.0
C777 C 0.40553 0.25395 0.91133 0.0
C778 C 0.41372 0.24153 0.9526 0.0
H779 H 0.36748 0.26976 0.86451 0.0
H780 H 0.42421 0.26128 0.89226 0.0
C781 C 0.389 0.23117 0.97587 0.0
C782 C 0.74951 0.39247 0.84993 0.0
C783 C 0.75489 0.36256 0.86859 0.0
H784 H 0.74832 0.4442 0.86183 0.0
C785 C 0.76799 0.36242 0.9129 0.0
H786 H 0.73901 0.39334 0.81608 0.0
C787 C 0.77316 0.3913 0.93888 0.0
C788 C 0.76553 0.42107 0.92114 0.0
H789 H 0.77233 0.33976 0.92821 0.0
H790 H 0.78119 0.39025 0.97359 0.0
C791 C 0.7547 0.42153 0.87607 0.0
C792 C 0.66741 0.22775 0.16509 0.0
C793 C 0.67137 0.24601 0.20546 0.0
H794 H 0.63434 0.21013 0.11013 0.0
C795 C 0.64391 0.25608 0.22495 0.0
H796 H 0.68824 0.22014 0.14918 0.0
C797 C 0.61297 0.24952 0.20319 0.0
C798 C 0.60913 0.23377 0.16099 0.0
H799 H 0.64646 0.27045 0.2559 0.0
H800 H 0.59217 0.25904 0.21764 0.0
C801 C 0.63658 0.22196 0.14284 0.0
C802 C 0.73769 0.63702 0.20197 0.0
C803 C 0.73461 0.66539 0.17903 0.0
H804 H 0.74589 0.58576 0.19832 0.0
C805 C 0.74109 0.66374 0.13488 0.0
H806 H 0.73249 0.63718 0.23571 0.0
C807 C 0.7484 0.63424 0.11352 0.0
C808 C 0.7497 0.60582 0.1359 0.0
H809 H 0.73932 0.68513 0.11631 0.0
H810 H 0.75185 0.6334 0.07904 0.0
C811 C 0.74514 0.60753 0.18058 0.0
C812 C 0.35385 0.73058 0.17931 0.0
C813 C 0.32468 0.74703 0.16926 0.0
H814 H 0.40308 0.72452 0.16709 0.0
C815 C 0.32464 0.77363 0.14309 0.0
H816 H 0.35482 0.71024 0.19981 0.0
C817 C 0.35234 0.78198 0.12472 0.0
C818 C 0.38076 0.76392 0.13195 0.0
H819 H 0.30266 0.78675 0.13431 0.0
H820 H 0.35106 0.80169 0.10312 0.0
C821 C 0.3816 0.73895 0.16088 0.0
C822 C 0.24933 0.35968 0.17577 0.0
C823 C 0.27002 0.33494 0.16279 0.0
H824 H 0.22898 0.40641 0.16265 0.0
C825 C 0.28391 0.33784 0.12345 0.0
H826 H 0.23808 0.35828 0.20564 0.0
C827 C 0.27925 0.36537 0.09959 0.0
C828 C 0.25993 0.39079 0.11353 0.0
H829 H 0.29908 0.31891 0.11131 0.0
H830 H 0.29103 0.36687 0.07014 0.0
C831 C 0.24422 0.38729 0.15124 0.0
C832 C 0.38104 0.27439 0.21539 0.0
C833 C 0.35345 0.25522 0.20223 0.0
H834 H 0.42988 0.28472 0.20602 0.0
C835 C 0.35561 0.22877 0.17181 0.0
H836 H 0.37993 0.29509 0.23856 0.0
C837 C 0.38397 0.22326 0.15215 0.0
C838 C 0.41086 0.24403 0.16272 0.0
H839 H 0.33451 0.21401 0.16041 0.0
H840 H 0.38392 0.20411 0.12646 0.0
C841 C 0.40946 0.26873 0.19612 0.0
C842 C 0.77504 0.34233 0.19344 0.0
C843 C 0.74818 0.33791 0.2162 0.0
H844 H 0.79907 0.37278 0.15387 0.0
C845 C 0.72656 0.36366 0.22052 0.0
H846 H 0.792 0.32302 0.18873 0.0
C847 C 0.73053 0.39228 0.19982 0.0
C848 C 0.75609 0.39544 0.17442 0.0
H849 H 0.70583 0.36116 0.23823 0.0
H850 H 0.71255 0.41103 0.20137 0.0
C851 C 0.77898 0.37077 0.17295 0.0
C852 C 0.64931 0.75366 0.12099 0.0
C853 C 0.6497 0.74974 0.16631 0.0
H854 H 0.62051 0.76155 0.05992 0.0
C855 C 0.62078 0.75421 0.18531 0.0
H856 H 0.67117 0.75075 0.10533 0.0
C857 C 0.59198 0.76069 0.1593 0.0
C858 C 0.59152 0.76277 0.11383 0.0
H859 H 0.61995 0.75092 0.21985 0.0
H860 H 0.56977 0.76265 0.17431 0.0
C861 C 0.62045 0.75996 0.09498 0.0
C862 C 0.23281 0.65038 0.11517 0.0
C863 C 0.24886 0.65491 0.15779 0.0
H864 H 0.22028 0.61735 0.05952 0.0
C865 C 0.26142 0.6281 0.1795 0.0
H866 H 0.22345 0.67088 0.09767 0.0
C867 C 0.25874 0.59715 0.1581 0.0
C868 C 0.24449 0.59299 0.11433 0.0
H869 H 0.27425 0.63128 0.21224 0.0
H870 H 0.26945 0.57681 0.17468 0.0
C871 C 0.23098 0.61979 0.09345 0.0
C872 C 0.34902 0.77046 0.8741 0.0
C873 C 0.34908 0.76 0.82968 0.0
H874 H 0.37739 0.783 0.93558 0.0
C875 C 0.37868 0.75801 0.81193 0.0
H876 H 0.32659 0.77213 0.8886 0.0
C877 C 0.40779 0.76399 0.83896 0.0
C878 C 0.40763 0.77247 0.8839 0.0
H879 H 0.37944 0.74957 0.77795 0.0
H880 H 0.43041 0.76017 0.82541 0.0
C881 C 0.37802 0.77675 0.90091 0.0
C882 C 0.2775 0.35913 0.87476 0.0
C883 C 0.26829 0.33758 0.90444 0.0
H884 H 0.27981 0.40861 0.85878 0.0
C885 C 0.25368 0.34942 0.9411 0.0
H886 H 0.28862 0.3503 0.84617 0.0
C887 C 0.24948 0.38263 0.94891 0.0
C888 C 0.25963 0.40429 0.91999 0.0
H889 H 0.24652 0.33306 0.96438 0.0
H890 H 0.23911 0.39149 0.97812 0.0
C891 C 0.27272 0.39229 0.88214 0.0
C892 C 0.6842 0.26873 0.91393 0.0
C893 C 0.67925 0.27007 0.86806 0.0
H894 H 0.66435 0.26129 0.97275 0.0
C895 C 0.64945 0.25907 0.8459 0.0
H896 H 0.70699 0.27625 0.93228 0.0
C897 C 0.62478 0.24863 0.86942 0.0
C898 C 0.62908 0.24939 0.91579 0.0
H899 H 0.64463 0.25975 0.81057 0.0
H900 H 0.6022 0.24058 0.85107 0.0
C901 C 0.65951 0.25932 0.93735 0.0
C902 C 0.73964 0.63303 0.84391 0.0
C903 C 0.74325 0.66494 0.86216 0.0
H904 H 0.74154 0.58276 0.8563 0.0
C905 C 0.75609 0.67059 0.90635 0.0
H906 H 0.72936 0.62807 0.8101 0.0
C907 C 0.76341 0.64465 0.93254 0.0
C908 C 0.75743 0.61288 0.91496 0.0
H909 H 0.75889 0.69502 0.92108 0.0
H910 H 0.77171 0.64942 0.96711 0.0
C911 C 0.74639 0.60717 0.87026 0.0
loop_
_geom_bond_atom_site_label_1
_geom_bond_atom_site_label_2
_geom_bond_distance
_geom_bond_site_symmetry_2
_ccdc_geom_bond_type
H0 C8 0.930 . S
H1 C11 0.930 . S
H2 C13 0.930 . S
H3 C14 0.970 . S
H4 C14 0.970 . S
H5 C16 0.930 . S
H6 C18 0.930 . S
H7 C20 0.930 . S
C8 H0 0.930 . S
C8 C9 1.382 . S
C8 C10 1.426 . S
C9 C8 1.382 . S
C9 C13 1.389 . S
C10 C8 1.426 . S
C10 C11 1.375 . S
C10 C14 1.532 . S
C11 H1 0.930 . S
C11 C10 1.375 . S
C11 C12 1.416 . S
C12 C11 1.416 . S
C12 C13 1.371 . S
C13 H2 0.930 . S
C13 C9 1.389 . S
C13 C12 1.371 . S
C14 H3 0.970 . S
C14 H4 0.970 . S
C14 C10 1.532 . S
C14 C15 1.499 . S
C15 C14 1.499 . S
C15 C16 1.370 . S
C15 C20 1.415 . S
C16 H5 0.930 . S
C16 C15 1.370 . S
C16 C17 1.407 . S
C17 C16 1.407 . S
C17 C18 1.365 . S
C18 H6 0.930 . S
C18 C17 1.365 . S
C18 C19 1.393 . S
C19 C18 1.393 . S
C19 C20 1.387 . S
C20 H7 0.930 . S
C20 C15 1.415 . S
C20 C19 1.387 . S
H21 C29 0.930 . S
H22 C32 0.930 . S
H23 C34 0.930 . S
H24 C35 0.970 . S
H25 C35 0.970 . S
H26 C37 0.930 . S
H27 C39 0.930 . S
H28 C41 0.930 . S
C29 H21 0.930 . S
C29 C30 1.382 . S
C29 C31 1.426 . S
C30 C29 1.382 . S
C30 C34 1.389 . S
C31 C29 1.426 . S
C31 C32 1.375 . S
C31 C35 1.532 . S
C32 H22 0.930 . S
C32 C31 1.375 . S
C32 C33 1.416 . S
C33 C32 1.416 . S
C33 C34 1.371 . S
C34 H23 0.930 . S
C34 C30 1.389 . S
C34 C33 1.371 . S
C35 H24 0.970 . S
C35 H25 0.970 . S
C35 C31 1.532 . S
C35 C36 1.499 . S
C36 C35 1.499 . S
C36 C37 1.370 . S
C36 C41 1.415 . S
C37 H26 0.930 . S
C37 C36 1.370 . S
C37 C38 1.407 . S
C38 C37 1.407 . S
C38 C39 1.365 . S
C39 H27 0.930 . S
C39 C38 1.365 . S
C39 C40 1.393 . S
C40 C39 1.393 . S
C40 C41 1.387 . S
C41 H28 0.930 . S
C41 C36 1.415 . S
C41 C40 1.387 . S
H42 C50 0.930 . S
H43 C53 0.930 . S
H44 C55 0.930 . S
H45 C56 0.970 . S
H46 C56 0.970 . S
H47 C58 0.930 . S
H48 C60 0.930 . S
H49 C62 0.930 . S
C50 H42 0.930 . S
C50 C51 1.382 . S
C50 C52 1.426 . S
C51 C50 1.382 . S
C51 C55 1.389 . S
C52 C50 1.426 . S
C52 C53 1.375 . S
C52 C56 1.532 . S
C53 H43 0.930 . S
C53 C52 1.375 . S
C53 C54 1.416 . S
C54 C53 1.416 . S
C54 C55 1.371 . S
C55 H44 0.930 . S
C55 C51 1.389 . S
C55 C54 1.371 . S
C56 H45 0.970 . S
C56 H46 0.970 . S
C56 C52 1.532 . S
C56 C57 1.499 . S
C57 C56 1.499 . S
C57 C58 1.370 . S
C57 C62 1.415 . S
C58 H47 0.930 . S
C58 C57 1.370 . S
C58 C59 1.407 . S
C59 C58 1.407 . S
C59 C60 1.365 . S
C60 H48 0.930 . S
C60 C59 1.365 . S
C60 C61 1.393 . S
C61 C60 1.393 . S
C61 C62 1.387 . S
C62 H49 0.930 . S
C62 C57 1.415 . S
C62 C61 1.387 . S
H63 C71 0.930 . S
H64 C74 0.930 . S
H65 C76 0.930 . S
H66 C77 0.970 . S
H67 C77 0.970 . S
H68 C79 0.930 . S
H69 C81 0.930 . S
H70 C83 0.930 . S
C71 H63 0.930 . S
C71 C72 1.382 . S
C71 C73 1.426 . S
C72 C71 1.382 . S
C72 C76 1.389 . S
C73 C71 1.426 . S
C73 C74 1.375 . S
C73 C77 1.532 . S
C74 H64 0.930 . S
C74 C73 1.375 . S
C74 C75 1.416 . S
C75 C74 1.416 . S
C75 C76 1.371 . S
C76 H65 0.930 . S
C76 C72 1.389 . S
C76 C75 1.371 . S
C77 H66 0.970 . S
C77 H67 0.970 . S
C77 C73 1.532 . S
C77 C78 1.499 . S
C78 C77 1.499 . S
C78 C79 1.370 . S
C78 C83 1.415 . S
C79 H68 0.930 . S
C79 C78 1.370 . S
C79 C80 1.407 . S
C80 C79 1.407 . S
C80 C81 1.365 . S
C81 H69 0.930 . S
C81 C80 1.365 . S
C81 C82 1.393 . S
C82 C81 1.393 . S
C82 C83 1.387 . S
C83 H70 0.930 . S
C83 C78 1.415 . S
C83 C82 1.387 . S
H84 C92 0.930 . S
H85 C95 0.930 . S
H86 C97 0.930 . S
H87 C98 0.970 . S
H88 C98 0.970 . S
H89 C100 0.930 . S
H90 C102 0.930 . S
H91 C104 0.930 . S
C92 H84 0.930 . S
C92 C93 1.382 . S
C92 C94 1.426 . S
C93 C92 1.382 . S
C93 C97 1.389 . S
C94 C92 1.426 . S
C94 C95 1.375 . S
C94 C98 1.532 . S
C95 H85 0.930 . S
C95 C94 1.375 . S
C95 C96 1.416 . S
C96 C95 1.416 . S
C96 C97 1.371 . S
C97 H86 0.930 . S
C97 C93 1.389 . S
C97 C96 1.371 . S
C98 H87 0.970 . S
C98 H88 0.970 . S
C98 C94 1.532 . S
C98 C99 1.499 . S
C99 C98 1.499 . S
C99 C100 1.370 . S
C99 C104 1.415 . S
C100 H89 0.930 . S
C100 C99 1.370 . S
C100 C101 1.407 . S
C101 C100 1.407 . S
C101 C102 1.365 . S
C102 H90 0.930 . S
C102 C101 1.365 . S
C102 C103 1.393 . S
C103 C102 1.393 . S
C103 C104 1.387 . S
C104 H91 0.930 . S
C104 C99 1.415 . S
C104 C103 1.387 . S
H105 C113 0.930 . S
H106 C116 0.930 . S
H107 C118 0.930 . S
H108 C119 0.970 . S
H109 C119 0.970 . S
H110 C121 0.930 . S
H111 C123 0.930 . S
H112 C125 0.930 . S
C113 H105 0.930 . S
C113 C114 1.382 . S
C113 C115 1.426 . S
C114 C113 1.382 . S
C114 C118 1.389 . S
C115 C113 1.426 . S
C115 C116 1.375 . S
C115 C119 1.532 . S
C116 H106 0.930 . S
C116 C115 1.375 . S
C116 C117 1.416 . S
C117 C116 1.416 . S
C117 C118 1.371 . S
C118 H107 0.930 . S
C118 C114 1.389 . S
C118 C117 1.371 . S
C119 H108 0.970 . S
C119 H109 0.970 . S
C119 C115 1.532 . S
C119 C120 1.499 . S
C120 C119 1.499 . S
C120 C121 1.370 . S
C120 C125 1.415 . S
C121 H110 0.930 . S
C121 C120 1.370 . S
C121 C122 1.407 . S
C122 C121 1.407 . S
C122 C123 1.365 . S
C123 H111 0.930 . S
C123 C122 1.365 . S
C123 C124 1.393 . S
C124 C123 1.393 . S
C124 C125 1.387 . S
C125 H112 0.930 . S
C125 C120 1.415 . S
C125 C124 1.387 . S
H126 C134 0.930 . S
H127 C137 0.930 . S
H128 C139 0.930 . S
H129 C140 0.970 . S
H130 C140 0.970 . S
H131 C142 0.930 . S
H132 C144 0.930 . S
H133 C146 0.930 . S
C134 H126 0.930 . S
C134 C135 1.382 . S
C134 C136 1.426 . S
C135 C134 1.382 . S
C135 C139 1.389 . S
C136 C134 1.426 . S
C136 C137 1.375 . S
C136 C140 1.532 . S
C137 H127 0.930 . S
C137 C136 1.375 . S
C137 C138 1.416 . S
C138 C137 1.416 . S
C138 C139 1.371 . S
C139 H128 0.930 . S
C139 C135 1.389 . S
C139 C138 1.371 . S
C140 H129 0.970 . S
C140 H130 0.970 . S
C140 C136 1.532 . S
C140 C141 1.499 . S
C141 C140 1.499 . S
C141 C142 1.370 . S
C141 C146 1.415 . S
C142 H131 0.930 . S
C142 C141 1.370 . S
C142 C143 1.407 . S
C143 C142 1.407 . S
C143 C144 1.365 . S
C144 H132 0.930 . S
C144 C143 1.365 . S
C144 C145 1.393 . S
C145 C144 1.393 . S
C145 C146 1.387 . S
C146 H133 0.930 . S
C146 C141 1.415 . S
C146 C145 1.387 . S
H147 C155 0.930 . S
H148 C158 0.930 . S
H149 C160 0.930 . S
H150 C161 0.970 . S
H151 C161 0.970 . S
H152 C163 0.930 . S
H153 C165 0.930 . S
H154 C167 0.930 . S
C155 H147 0.930 . S
C155 C156 1.382 . S
C155 C157 1.426 . S
C156 C155 1.382 . S
C156 C160 1.389 . S
C157 C155 1.426 . S
C157 C158 1.375 . S
C157 C161 1.532 . S
C158 H148 0.930 . S
C158 C157 1.375 . S
C158 C159 1.416 . S
C159 C158 1.416 . S
C159 C160 1.371 . S
C160 H149 0.930 . S
C160 C156 1.389 . S
C160 C159 1.371 . S
C161 H150 0.970 . S
C161 H151 0.970 . S
C161 C157 1.532 . S
C161 C162 1.499 . S
C162 C161 1.499 . S
C162 C163 1.370 . S
C162 C167 1.415 . S
C163 H152 0.930 . S
C163 C162 1.370 . S
C163 C164 1.407 . S
C164 C163 1.407 . S
C164 C165 1.365 . S
C165 H153 0.930 . S
C165 C164 1.365 . S
C165 C166 1.393 . S
C166 C165 1.393 . S
C166 C167 1.387 . S
C167 H154 0.930 . S
C167 C162 1.415 . S
C167 C166 1.387 . S
C168 C169 1.443 . S
C168 N172 1.376 . S
C168 C206 1.389 . S
C169 C168 1.443 . S
C169 C170 1.340 . S
C169 H209 0.951 . S
C170 C169 1.340 . S
C170 C171 1.439 . S
C170 H210 0.950 . S
C171 C170 1.439 . S
C171 N172 1.374 . S
C171 C205 1.395 . S
N172 C168 1.376 . S
N172 C171 1.374 . S
N172 Co173 2.008 . S
Co173 N172 2.008 . S
Co173 N174 1.995 1_455 S
Co173 N179 2.008 1_455 S
Co173 N184 1.995 . S
Co173 N189 2.282 1_455 S
Co173 N195 2.282 . S
N174 Co173 1.995 1_655 S
N174 C175 1.376 . S
N174 C178 1.383 . S
C175 N174 1.376 . S
C175 C176 1.446 . S
C175 C205 1.391 1_655 S
C176 C175 1.446 . S
C176 C177 1.339 . S
C176 H211 0.949 . S
C177 C176 1.339 . S
C177 C178 1.439 . S
C177 H212 0.950 . S
C178 N174 1.383 . S
C178 C177 1.439 . S
C178 C207 1.392 . S
N179 Co173 2.008 1_655 S
N179 C180 1.376 . S
N179 C183 1.374 . S
C180 N179 1.376 . S
C180 C181 1.443 . S
C180 C207 1.389 . S
C181 C180 1.443 . S
C181 C182 1.340 . S
C181 H213 0.951 . S
C182 C181 1.340 . S
C182 C183 1.439 . S
C182 H214 0.950 . S
C183 N179 1.374 . S
C183 C182 1.439 . S
C183 C208 1.407 . S
N184 Co173 1.995 . S
N184 C185 1.376 . S
N184 C188 1.383 . S
C185 N184 1.376 . S
C185 C186 1.446 . S
C185 C208 1.379 1_455 S
C186 C185 1.446 . S
C186 C187 1.339 . S
C186 H215 0.949 . S
C187 C186 1.339 . S
C187 C188 1.439 . S
C187 H216 0.950 . S
C188 N184 1.383 . S
C188 C187 1.439 . S
C188 C206 1.392 . S
N189 Co173 2.282 1_655 S
N189 C192 1.332 . S
N189 C194 1.332 . S
C190 C191 1.386 . S
C190 C193 1.388 . S
C191 C190 1.386 . S
C191 C192 1.382 . S
C191 H217 0.950 . S
C192 N189 1.332 . S
C192 C191 1.382 . S
C192 H203 0.952 . S
C193 C190 1.388 . S
C193 C194 1.382 . S
C193 H218 0.950 . S
C194 N189 1.332 . S
C194 C193 1.382 . S
C194 H204 0.948 . S
N195 Co173 2.282 . S
N195 C199 1.332 . S
N195 C200 1.332 . S
C196 C197 1.388 . S
C196 C200 1.382 . S
C196 H219 0.950 . S
C197 C196 1.388 . S
C197 C198 1.386 . S
C198 C197 1.386 . S
C198 C199 1.382 . S
C198 H220 0.950 . S
C199 N195 1.332 . S
C199 C198 1.382 . S
C199 H201 0.952 . S
C200 N195 1.332 . S
C200 C196 1.382 . S
C200 H202 0.948 . S
H201 C199 0.952 . S
H202 C200 0.948 . S
H203 C192 0.952 . S
H204 C194 0.948 . S
C205 C171 1.395 . S
C205 C175 1.391 1_455 S
C206 C168 1.389 . S
C206 C188 1.392 . S
C207 C178 1.392 . S
C207 C180 1.389 . S
C208 C183 1.407 . S
C208 C185 1.379 1_655 S
H209 C169 0.951 . S
H210 C170 0.950 . S
H211 C176 0.949 . S
H212 C177 0.950 . S
H213 C181 0.951 . S
H214 C182 0.950 . S
H215 C186 0.949 . S
H216 C187 0.950 . S
H217 C191 0.950 . S
H218 C193 0.950 . S
H219 C196 0.950 . S
H220 C198 0.950 . S
C221 C222 1.443 . S
C221 N225 1.376 . S
C221 C259 1.389 . S
C222 C221 1.443 . S
C222 C223 1.340 . S
C222 H262 0.951 . S
C223 C222 1.340 . S
C223 C224 1.439 . S
C223 H263 0.950 . S
C224 C223 1.439 . S
C224 N225 1.374 . S
C224 C258 1.395 . S
N225 C221 1.376 . S
N225 C224 1.374 . S
N225 Co226 2.008 . S
Co226 N225 2.008 . S
Co226 N227 1.995 1_545 S
Co226 N232 2.008 1_545 S
Co226 N237 1.995 . S
Co226 N242 2.282 1_545 S
Co226 N248 2.282 . S
N227 Co226 1.995 1_565 S
N227 C228 1.376 . S
N227 C231 1.383 . S
C228 N227 1.376 . S
C228 C229 1.446 . S
C228 C258 1.391 1_565 S
C229 C228 1.446 . S
C229 C230 1.339 . S
C229 H264 0.949 . S
C230 C229 1.339 . S
C230 C231 1.439 . S
C230 H265 0.950 . S
C231 N227 1.383 . S
C231 C230 1.439 . S
C231 C260 1.392 . S
N232 Co226 2.008 1_565 S
N232 C233 1.376 . S
N232 C236 1.374 . S
C233 N232 1.376 . S
C233 C234 1.443 . S
C233 C260 1.389 . S
C234 C233 1.443 . S
C234 C235 1.340 . S
C234 H266 0.951 . S
C235 C234 1.340 . S
C235 C236 1.439 . S
C235 H267 0.950 . S
C236 N232 1.374 . S
C236 C235 1.439 . S
C236 C261 1.395 1_565 S
N237 Co226 1.995 . S
N237 C238 1.376 . S
N237 C241 1.383 . S
C238 N237 1.376 . S
C238 C239 1.446 . S
C238 C261 1.391 . S
C239 C238 1.446 . S
C239 C240 1.339 . S
C239 H268 0.949 . S
C240 C239 1.339 . S
C240 C241 1.439 . S
C240 H269 0.950 . S
C241 N237 1.383 . S
C241 C240 1.439 . S
C241 C259 1.392 . S
N242 Co226 2.282 1_565 S
N242 C245 1.332 . S
N242 C247 1.332 . S
C243 C244 1.386 . S
C243 C246 1.388 . S
C244 C243 1.386 . S
C244 C245 1.382 . S
C244 H270 0.950 . S
C245 N242 1.332 . S
C245 C244 1.382 . S
C245 H256 0.952 . S
C246 C243 1.388 . S
C246 C247 1.382 . S
C246 H271 0.950 . S
C247 N242 1.332 . S
C247 C246 1.382 . S
C247 H257 0.948 . S
N248 Co226 2.282 . S
N248 C252 1.332 . S
N248 C253 1.332 . S
C249 C250 1.388 . S
C249 C253 1.382 . S
C249 H272 0.950 . S
C250 C249 1.388 . S
C250 C251 1.386 . S
C251 C250 1.386 . S
C251 C252 1.382 . S
C251 H273 0.950 . S
C252 N248 1.332 . S
C252 C251 1.382 . S
C252 H254 0.952 . S
C253 N248 1.332 . S
C253 C249 1.382 . S
C253 H255 0.948 . S
H254 C252 0.952 . S
H255 C253 0.948 . S
H256 C245 0.952 . S
H257 C247 0.948 . S
C258 C224 1.395 . S
C258 C228 1.391 1_545 S
C259 C221 1.389 . S
C259 C241 1.392 . S
C260 C231 1.392 . S
C260 C233 1.389 . S
C261 C236 1.395 1_545 S
C261 C238 1.391 . S
H262 C222 0.951 . S
H263 C223 0.950 . S
H264 C229 0.949 . S
H265 C230 0.950 . S
H266 C234 0.951 . S
H267 C235 0.950 . S
H268 C239 0.949 . S
H269 C240 0.950 . S
H270 C244 0.950 . S
H271 C246 0.950 . S
H272 C249 0.950 . S
H273 C251 0.950 . S
C274 C275 1.443 . S
C274 N278 1.376 . S
C274 C312 1.389 . S
C275 C274 1.443 . S
C275 C276 1.340 . S
C275 H315 0.951 . S
C276 C275 1.340 . S
C276 C277 1.439 . S
C276 H316 0.950 . S
C277 C276 1.439 . S
C277 N278 1.374 . S
C277 C311 1.395 . S
N278 C274 1.376 . S
N278 C277 1.374 . S
N278 Co279 2.019 . S
Co279 N278 2.019 . S
Co279 N280 1.985 1_455 S
Co279 N285 1.998 1_455 S
Co279 N290 2.004 . S
Co279 N295 2.269 1_455 S
Co279 N301 2.296 . S
N280 Co279 1.985 1_655 S
N280 C281 1.376 . S
N280 C284 1.383 . S
C281 N280 1.376 . S
C281 C282 1.446 . S
C281 C311 1.391 1_655 S
C282 C281 1.446 . S
C282 C283 1.339 . S
C282 H317 0.949 . S
C283 C282 1.339 . S
C283 C284 1.439 . S
C283 H318 0.950 . S
C284 N280 1.383 . S
C284 C283 1.439 . S
C284 C313 1.392 . S
N285 Co279 1.998 1_655 S
N285 C286 1.376 . S
N285 C289 1.374 . S
C286 N285 1.376 . S
C286 C287 1.443 . S
C286 C313 1.389 . S
C287 C286 1.443 . S
C287 C288 1.340 . S
C287 H319 0.951 . S
C288 C287 1.340 . S
C288 C289 1.439 . S
C288 H320 0.950 . S
C289 N285 1.374 . S
C289 C288 1.439 . S
C289 C314 1.395 . S
N290 Co279 2.004 . S
N290 C291 1.376 . S
N290 C294 1.383 . S
C291 N290 1.376 . S
C291 C292 1.446 . S
C291 C314 1.391 1_455 S
C292 C291 1.446 . S
C292 C293 1.339 . S
C292 H321 0.949 . S
C293 C292 1.339 . S
C293 C294 1.439 . S
C293 H322 0.950 . S
C294 N290 1.383 . S
C294 C293 1.439 . S
C294 C312 1.392 . S
N295 Co279 2.269 1_655 S
N295 C298 1.332 . S
N295 C300 1.332 . S
C296 C297 1.386 . S
C296 C299 1.388 . S
C297 C296 1.386 . S
C297 C298 1.382 . S
C297 H323 0.950 . S
C298 N295 1.332 . S
C298 C297 1.382 . S
C298 H309 0.952 . S
C299 C296 1.388 . S
C299 C300 1.382 . S
C299 H324 0.950 . S
C300 N295 1.332 . S
C300 C299 1.382 . S
C300 H310 0.948 . S
N301 Co279 2.296 . S
N301 C305 1.332 . S
N301 C306 1.332 . S
C302 C303 1.388 . S
C302 C306 1.382 . S
C302 H325 0.950 . S
C303 C302 1.388 . S
C303 C304 1.386 . S
C304 C303 1.386 . S
C304 C305 1.382 . S
C304 H326 0.950 . S
C305 N301 1.332 . S
C305 C304 1.382 . S
C305 H307 0.952 . S
C306 N301 1.332 . S
C306 C302 1.382 . S
C306 H308 0.948 . S
H307 C305 0.952 . S
H308 C306 0.948 . S
H309 C298 0.952 . S
H310 C300 0.948 . S
C311 C277 1.395 . S
C311 C281 1.391 1_455 S
C312 C274 1.389 . S
C312 C294 1.392 . S
C313 C284 1.392 . S
C313 C286 1.389 . S
C314 C289 1.395 . S
C314 C291 1.391 1_655 S
H315 C275 0.951 . S
H316 C276 0.950 . S
H317 C282 0.949 . S
H318 C283 0.950 . S
H319 C287 0.951 . S
H320 C288 0.950 . S
H321 C292 0.949 . S
H322 C293 0.950 . S
H323 C297 0.950 . S
H324 C299 0.950 . S
H325 C302 0.950 . S
H326 C304 0.950 . S
C327 C328 1.443 . S
C327 N331 1.376 . S
C327 C365 1.389 . S
C328 C327 1.443 . S
C328 C329 1.340 . S
C328 H368 0.951 . S
C329 C328 1.340 . S
C329 C330 1.439 . S
C329 H369 0.950 . S
C330 C329 1.439 . S
C330 N331 1.374 . S
C330 C364 1.402 . S
N331 C327 1.376 . S
N331 C330 1.374 . S
N331 Co332 2.008 1_565 S
Co332 N331 2.008 1_545 S
Co332 N333 1.995 . S
Co332 N338 2.008 . S
Co332 N343 1.995 1_545 S
Co332 N348 2.282 . S
Co332 N354 2.282 1_545 S
N333 Co332 1.995 . S
N333 C334 1.376 . S
N333 C337 1.383 . S
C334 N333 1.376 . S
C334 C335 1.446 . S
C334 C364 1.384 1_545 S
C335 C334 1.446 . S
C335 C336 1.339 . S
C335 H370 0.949 . S
C336 C335 1.339 . S
C336 C337 1.439 . S
C336 H371 0.950 . S
C337 N333 1.383 . S
C337 C336 1.439 . S
C337 C366 1.392 . S
N338 Co332 2.008 . S
N338 C339 1.376 . S
N338 C342 1.374 . S
C339 N338 1.376 . S
C339 C340 1.443 . S
C339 C366 1.389 . S
C340 C339 1.443 . S
C340 C341 1.340 . S
C340 H372 0.951 . S
C341 C340 1.340 . S
C341 C342 1.439 . S
C341 H373 0.950 . S
C342 N338 1.374 . S
C342 C341 1.439 . S
C342 C367 1.395 . S
N343 Co332 1.995 1_565 S
N343 C344 1.376 . S
N343 C347 1.383 . S
C344 N343 1.376 . S
C344 C345 1.446 . S
C344 C367 1.391 1_565 S
C345 C344 1.446 . S
C345 C346 1.339 . S
C345 H374 0.949 . S
C346 C345 1.339 . S
C346 C347 1.439 . S
C346 H375 0.950 . S
C347 N343 1.383 . S
C347 C346 1.439 . S
C347 C365 1.392 . S
N348 Co332 2.282 . S
N348 C351 1.332 . S
N348 C353 1.332 . S
C349 C350 1.386 . S
C349 C352 1.388 . S
C350 C349 1.386 . S
C350 C351 1.382 . S
C350 H376 0.950 . S
C351 N348 1.332 . S
C351 C350 1.382 . S
C351 H362 0.952 . S
C352 C349 1.388 . S
C352 C353 1.382 . S
C352 H377 0.950 . S
C353 N348 1.332 . S
C353 C352 1.382 . S
C353 H363 0.948 . S
N354 Co332 2.282 1_565 S
N354 C358 1.332 . S
N354 C359 1.332 . S
C355 C356 1.388 . S
C355 C359 1.382 . S
C355 H378 0.950 . S
C356 C355 1.388 . S
C356 C357 1.386 . S
C357 C356 1.386 . S
C357 C358 1.382 . S
C357 H379 0.950 . S
C358 N354 1.332 . S
C358 C357 1.382 . S
C358 H360 0.952 . S
C359 N354 1.332 . S
C359 C355 1.382 . S
C359 H361 0.948 . S
H360 C358 0.952 . S
H361 C359 0.948 . S
H362 C351 0.952 . S
H363 C353 0.948 . S
C364 C330 1.402 . S
C364 C334 1.384 1_565 S
C365 C327 1.389 . S
C365 C347 1.392 . S
C366 C337 1.392 . S
C366 C339 1.389 . S
C367 C342 1.395 . S
C367 C344 1.391 1_545 S
H368 C328 0.951 . S
H369 C329 0.950 . S
H370 C335 0.949 . S
H371 C336 0.950 . S
H372 C340 0.951 . S
H373 C341 0.950 . S
H374 C345 0.949 . S
H375 C346 0.950 . S
H376 C350 0.950 . S
H377 C352 0.950 . S
H378 C355 0.950 . S
H379 C357 0.950 . S
C380 C381 1.443 . S
C380 N384 1.376 . S
C380 C418 1.389 . S
C381 C380 1.443 . S
C381 C382 1.340 . S
C381 H421 0.951 . S
C382 C381 1.340 . S
C382 C383 1.439 . S
C382 H422 0.950 . S
C383 C382 1.439 . S
C383 N384 1.374 . S
C383 C417 1.395 . S
N384 C380 1.376 . S
N384 C383 1.374 . S
N384 Co385 2.008 . S
Co385 N384 2.008 . S
Co385 N386 1.995 1_554 S
Co385 N391 2.008 1_554 S
Co385 N396 1.995 . S
Co385 N401 2.283 . S
Co385 N407 2.282 1_554 S
N386 Co385 1.995 1_556 S
N386 C387 1.376 . S
N386 C390 1.383 . S
C387 N386 1.376 . S
C387 C388 1.446 . S
C387 C417 1.391 1_556 S
C388 C387 1.446 . S
C388 C389 1.339 . S
C388 H423 0.949 . S
C389 C388 1.339 . S
C389 C390 1.439 . S
C389 H424 0.950 . S
C390 N386 1.383 . S
C390 C389 1.439 . S
C390 C419 1.392 . S
N391 Co385 2.008 1_556 S
N391 C392 1.376 . S
N391 C395 1.374 . S
C392 N391 1.376 . S
C392 C393 1.443 . S
C392 C419 1.389 . S
C393 C392 1.443 . S
C393 C394 1.340 . S
C393 H425 0.951 . S
C394 C393 1.340 . S
C394 C395 1.439 . S
C394 H426 0.950 . S
C395 N391 1.374 . S
C395 C394 1.439 . S
C395 C420 1.395 . S
N396 Co385 1.995 . S
N396 C397 1.376 . S
N396 C400 1.383 . S
C397 N396 1.376 . S
C397 C398 1.446 . S
C397 C420 1.391 1_554 S
C398 C397 1.446 . S
C398 C399 1.339 . S
C398 H427 0.949 . S
C399 C398 1.339 . S
C399 C400 1.439 . S
C399 H428 0.950 . S
C400 N396 1.383 . S
C400 C399 1.439 . S
C400 C418 1.392 . S
N401 Co385 2.283 . S
N401 C404 1.332 . S
N401 C406 1.332 . S
C402 C403 1.386 . S
C402 C405 1.388 . S
C403 C402 1.386 . S
C403 C404 1.382 . S
C403 H429 0.950 . S
C404 N401 1.332 . S
C404 C403 1.382 . S
C404 H415 0.952 . S
C405 C402 1.388 . S
C405 C406 1.382 . S
C405 H430 0.950 . S
C406 N401 1.332 . S
C406 C405 1.382 . S
C406 H416 0.948 . S
N407 Co385 2.282 1_556 S
N407 C411 1.332 . S
N407 C412 1.332 . S
C408 C409 1.388 . S
C408 C412 1.382 . S
C408 H431 0.950 . S
C409 C408 1.388 . S
C409 C410 1.386 . S
C410 C409 1.386 . S
C410 C411 1.382 . S
C410 H432 0.950 . S
C411 N407 1.332 . S
C411 C410 1.382 . S
C411 H413 0.952 . S
C412 N407 1.332 . S
C412 C408 1.382 . S
C412 H414 0.948 . S
H413 C411 0.952 . S
H414 C412 0.948 . S
H415 C404 0.952 . S
H416 C406 0.948 . S
C417 C383 1.395 . S
C417 C387 1.391 1_554 S
C418 C380 1.389 . S
C418 C400 1.392 . S
C419 C390 1.392 . S
C419 C392 1.389 . S
C420 C395 1.395 . S
C420 C397 1.391 1_556 S
H421 C381 0.951 . S
H422 C382 0.950 . S
H423 C388 0.949 . S
H424 C389 0.950 . S
H425 C393 0.951 . S
H426 C394 0.950 . S
H427 C398 0.949 . S
H428 C399 0.950 . S
H429 C403 0.950 . S
H430 C405 0.950 . S
H431 C408 0.950 . S
H432 C410 0.950 . S
C433 C434 1.443 . S
C433 N437 1.376 . S
C433 C471 1.389 . S
C434 C433 1.443 . S
C434 C435 1.340 . S
C434 H474 0.951 . S
C435 C434 1.340 . S
C435 C436 1.439 . S
C435 H475 0.950 . S
C436 C435 1.439 . S
C436 N437 1.374 . S
C436 C470 1.395 . S
N437 C433 1.376 . S
N437 C436 1.374 . S
N437 Co438 2.008 . S
Co438 N437 2.008 . S
Co438 N439 1.995 1_554 S
Co438 N444 2.008 . S
Co438 N449 1.995 . S
Co438 N454 2.282 . S
Co438 N460 2.282 1_554 S
N439 Co438 1.995 1_556 S
N439 C440 1.376 . S
N439 C443 1.383 . S
C440 N439 1.376 . S
C440 C441 1.446 . S
C440 C470 1.391 1_556 S
C441 C440 1.446 . S
C441 C442 1.339 . S
C441 H476 0.949 . S
C442 C441 1.339 . S
C442 C443 1.439 . S
C442 H477 0.950 . S
C443 N439 1.383 . S
C443 C442 1.439 . S
C443 C472 1.392 . S
N444 Co438 2.008 . S
N444 C445 1.376 1_554 S
N444 C448 1.374 . S
C445 N444 1.376 1_556 S
C445 C446 1.443 . S
C445 C472 1.389 . S
C446 C445 1.443 . S
C446 C447 1.340 1_556 S
C446 H478 0.951 . S
C447 C446 1.340 1_554 S
C447 C448 1.439 . S
C447 H479 0.950 . S
C448 N444 1.374 . S
C448 C447 1.439 . S
C448 C473 1.395 . S
N449 Co438 1.995 . S
N449 C450 1.376 . S
N449 C453 1.383 . S
C450 N449 1.376 . S
C450 C451 1.446 . S
C450 C473 1.391 . S
C451 C450 1.446 . S
C451 C452 1.339 . S
C451 H480 0.949 . S
C452 C451 1.339 . S
C452 C453 1.439 . S
C452 H481 0.950 . S
C453 N449 1.383 . S
C453 C452 1.439 . S
C453 C471 1.392 . S
N454 Co438 2.282 . S
N454 C457 1.332 . S
N454 C459 1.332 . S
C455 C456 1.386 . S
C455 C458 1.388 . S
C456 C455 1.386 . S
C456 C457 1.382 . S
C456 H482 0.950 . S
C457 N454 1.332 . S
C457 C456 1.382 . S
C457 H468 0.952 . S
C458 C455 1.388 . S
C458 C459 1.382 . S
C458 H483 0.950 . S
C459 N454 1.332 . S
C459 C458 1.382 . S
C459 H469 0.948 . S
N460 Co438 2.282 1_556 S
N460 C464 1.332 . S
N460 C465 1.332 . S
C461 C462 1.388 . S
C461 C465 1.382 . S
C461 H484 0.950 . S
C462 C461 1.388 . S
C462 C463 1.386 . S
C463 C462 1.386 . S
C463 C464 1.382 . S
C463 H485 0.950 . S
C464 N460 1.332 . S
C464 C463 1.382 . S
C464 H466 0.952 . S
C465 N460 1.332 . S
C465 C461 1.382 . S
C465 H467 0.948 . S
H466 C464 0.952 . S
H467 C465 0.948 . S
H468 C457 0.952 . S
H469 C459 0.948 . S
C470 C436 1.395 . S
C470 C440 1.391 1_554 S
C471 C433 1.389 . S
C471 C453 1.392 . S
C472 C443 1.392 . S
C472 C445 1.389 . S
C473 C448 1.395 . S
C473 C450 1.391 . S
H474 C434 0.951 . S
H475 C435 0.950 . S
H476 C441 0.949 . S
H477 C442 0.950 . S
H478 C446 0.951 . S
H479 C447 0.950 . S
H480 C451 0.949 . S
H481 C452 0.950 . S
H482 C456 0.950 . S
H483 C458 0.950 . S
H484 C461 0.950 . S
H485 C463 0.950 . S
C486 C487 1.443 . S
C486 N490 1.376 1_556 S
C486 C524 1.389 . S
C487 C486 1.443 . S
C487 C488 1.340 1_556 S
C487 H527 0.951 . S
C488 C487 1.340 1_554 S
C488 C489 1.439 . S
C488 H528 0.950 . S
C489 C488 1.439 . S
C489 N490 1.374 . S
C489 C523 1.395 . S
N490 C486 1.376 1_554 S
N490 C489 1.374 . S
N490 Co491 2.008 . S
Co491 N490 2.008 . S
Co491 N492 1.995 . S
Co491 N497 2.008 . S
Co491 N502 1.995 . S
Co491 N507 2.282 1_554 S
Co491 N513 2.282 . S
N492 Co491 1.995 . S
N492 C493 1.376 . S
N492 C496 1.383 . S
C493 N492 1.376 . S
C493 C494 1.446 . S
C493 C523 1.391 . S
C494 C493 1.446 . S
C494 C495 1.339 . S
C494 H529 0.949 . S
C495 C494 1.339 . S
C495 C496 1.439 . S
C495 H530 0.950 . S
C496 N492 1.383 . S
C496 C495 1.439 . S
C496 C525 1.392 . S
N497 Co491 2.008 . S
N497 C498 1.376 . S
N497 C501 1.374 . S
C498 N497 1.376 . S
C498 C499 1.443 . S
C498 C525 1.389 . S
C499 C498 1.443 . S
C499 C500 1.340 . S
C499 H531 0.951 . S
C500 C499 1.340 . S
C500 C501 1.439 . S
C500 H532 0.950 . S
C501 N497 1.374 . S
C501 C500 1.439 . S
C501 C526 1.395 . S
N502 Co491 1.995 . S
N502 C503 1.376 . S
N502 C506 1.383 1_554 S
C503 N502 1.376 . S
C503 C504 1.446 1_554 S
C503 C526 1.391 . S
C504 C503 1.446 1_556 S
C504 C505 1.339 . S
C504 H533 0.949 . S
C505 C504 1.339 . S
C505 C506 1.439 . S
C505 H534 0.950 . S
C506 N502 1.383 1_556 S
C506 C505 1.439 . S
C506 C524 1.392 . S
N507 Co491 2.282 1_556 S
N507 C510 1.332 . S
N507 C512 1.332 . S
C508 C509 1.386 . S
C508 C511 1.388 . S
C509 C508 1.386 . S
C509 C510 1.382 . S
C509 H535 0.950 . S
C510 N507 1.332 . S
C510 C509 1.382 . S
C510 H521 0.952 . S
C511 C508 1.388 . S
C511 C512 1.382 . S
C511 H536 0.950 . S
C512 N507 1.332 . S
C512 C511 1.382 . S
C512 H522 0.948 1_556 S
N513 Co491 2.282 . S
N513 C517 1.332 . S
N513 C518 1.332 . S
C514 C515 1.388 . S
C514 C518 1.382 . S
C514 H537 0.950 . S
C515 C514 1.388 . S
C515 C516 1.386 . S
C516 C515 1.386 . S
C516 C517 1.382 . S
C516 H538 0.950 . S
C517 N513 1.332 . S
C517 C516 1.382 . S
C517 H519 0.952 . S
C518 N513 1.332 . S
C518 C514 1.382 . S
C518 H520 0.948 . S
H519 C517 0.952 . S
H520 C518 0.948 . S
H521 C510 0.952 . S
H522 C512 0.948 1_554 S
C523 C489 1.395 . S
C523 C493 1.391 . S
C524 C486 1.389 . S
C524 C506 1.392 . S
C525 C496 1.392 . S
C525 C498 1.389 . S
C526 C501 1.395 . S
C526 C503 1.391 . S
H527 C487 0.951 . S
H528 C488 0.950 . S
H529 C494 0.949 . S
H530 C495 0.950 . S
H531 C499 0.951 . S
H532 C500 0.950 . S
H533 C504 0.949 . S
H534 C505 0.950 . S
H535 C509 0.950 . S
H536 C511 0.950 . S
H537 C514 0.950 . S
H538 C516 0.950 . S
C539 C540 1.443 . S
C539 N543 1.376 . S
C539 C577 1.389 . S
C540 C539 1.443 . S
C540 C541 1.340 . S
C540 H580 0.951 . S
C541 C540 1.340 . S
C541 C542 1.439 . S
C541 H581 0.950 . S
C542 C541 1.439 . S
C542 N543 1.374 . S
C542 C576 1.395 1_554 S
N543 C539 1.376 . S
N543 C542 1.374 . S
N543 Co544 2.008 . S
Co544 N543 2.008 . S
Co544 N545 1.995 1_554 S
Co544 N550 2.008 1_554 S
Co544 N555 1.995 . S
Co544 N560 2.282 . S
Co544 N566 2.282 1_554 S
N545 Co544 1.995 1_556 S
N545 C546 1.376 . S
N545 C549 1.383 . S
C546 N545 1.376 . S
C546 C547 1.446 . S
C546 C576 1.391 . S
C547 C546 1.446 . S
C547 C548 1.339 . S
C547 H582 0.949 . S
C548 C547 1.339 . S
C548 C549 1.439 . S
C548 H583 0.950 . S
C549 N545 1.383 . S
C549 C548 1.439 . S
C549 C578 1.392 . S
N550 Co544 2.008 1_556 S
N550 C551 1.376 . S
N550 C554 1.374 1_556 S
C551 N550 1.376 . S
C551 C552 1.443 . S
C551 C578 1.389 . S
C552 C551 1.443 . S
C552 C553 1.340 . S
C552 H584 0.951 . S
C553 C552 1.340 . S
C553 C554 1.439 1_556 S
C553 H585 0.950 . S
C554 N550 1.374 1_554 S
C554 C553 1.439 1_554 S
C554 C579 1.395 . S
N555 Co544 1.995 . S
N555 C556 1.376 . S
N555 C559 1.383 . S
C556 N555 1.376 . S
C556 C557 1.446 . S
C556 C579 1.391 . S
C557 C556 1.446 . S
C557 C558 1.339 . S
C557 H586 0.949 . S
C558 C557 1.339 . S
C558 C559 1.439 . S
C558 H587 0.950 . S
C559 N555 1.383 . S
C559 C558 1.439 . S
C559 C577 1.392 . S
N560 Co544 2.282 . S
N560 C563 1.332 . S
N560 C565 1.332 . S
C561 C562 1.386 . S
C561 C564 1.388 . S
C562 C561 1.386 . S
C562 C563 1.382 . S
C562 H588 0.950 . S
C563 N560 1.332 . S
C563 C562 1.382 . S
C563 H574 0.952 . S
C564 C561 1.388 . S
C564 C565 1.382 . S
C564 H589 0.950 . S
C565 N560 1.332 . S
C565 C564 1.382 . S
C565 H575 0.948 . S
N566 Co544 2.282 1_556 S
N566 C570 1.332 . S
N566 C571 1.332 . S
C567 C568 1.388 . S
C567 C571 1.382 . S
C567 H590 0.950 . S
C568 C567 1.388 . S
C568 C569 1.386 . S
C569 C568 1.386 . S
C569 C570 1.382 . S
C569 H591 0.950 . S
C570 N566 1.332 . S
C570 C569 1.382 . S
C570 H572 0.952 . S
C571 N566 1.332 . S
C571 C567 1.382 . S
C571 H573 0.948 . S
H572 C570 0.952 . S
H573 C571 0.948 . S
H574 C563 0.952 . S
H575 C565 0.948 . S
C576 C542 1.395 1_556 S
C576 C546 1.391 . S
C577 C539 1.389 . S
C577 C559 1.392 . S
C578 C549 1.392 . S
C578 C551 1.389 . S
C579 C554 1.395 . S
C579 C556 1.391 . S
H580 C540 0.951 . S
H581 C541 0.950 . S
H582 C547 0.949 . S
H583 C548 0.950 . S
H584 C552 0.951 . S
H585 C553 0.950 . S
H586 C557 0.949 . S
H587 C558 0.950 . S
H588 C562 0.950 . S
H589 C564 0.950 . S
H590 C567 0.950 . S
H591 C569 0.950 . S
C592 C593 1.387 . S
C592 H596 0.950 . S
C592 C601 1.390 . S
C593 C592 1.387 . S
C593 C595 1.387 . S
H594 C601 0.950 . S
C595 C593 1.387 . S
C595 C597 1.390 . S
C595 H599 0.950 . S
H596 C592 0.950 . S
C597 C595 1.390 . S
C597 C598 1.387 . S
C597 H600 0.950 . S
C598 C597 1.387 . S
C598 C601 1.387 . S
H599 C595 0.950 . S
H600 C597 0.950 . S
C601 C592 1.390 . S
C601 H594 0.950 . S
C601 C598 1.387 . S
C602 C603 1.387 . S
C602 H606 0.950 . S
C602 C611 1.390 . S
C603 C602 1.387 . S
C603 C605 1.387 . S
H604 C611 0.950 . S
C605 C603 1.387 . S
C605 C607 1.390 . S
C605 H609 0.950 . S
H606 C602 0.950 . S
C607 C605 1.390 . S
C607 C608 1.387 . S
C607 H610 0.950 . S
C608 C607 1.387 . S
C608 C611 1.387 . S
H609 C605 0.950 . S
H610 C607 0.950 . S
C611 C602 1.390 . S
C611 H604 0.950 . S
C611 C608 1.387 . S
C612 C613 1.387 . S
C612 H616 0.950 . S
C612 C621 1.390 . S
C613 C612 1.387 . S
C613 C615 1.387 . S
H614 C621 0.950 . S
C615 C613 1.387 . S
C615 C617 1.390 . S
C615 H619 0.950 . S
H616 C612 0.950 . S
C617 C615 1.390 . S
C617 C618 1.387 . S
C617 H620 0.950 . S
C618 C617 1.387 . S
C618 C621 1.387 . S
H619 C615 0.950 . S
H620 C617 0.950 . S
C621 C612 1.390 . S
C621 H614 0.950 . S
C621 C618 1.387 . S
C622 C623 1.387 . S
C622 H626 0.950 . S
C622 C631 1.390 . S
C623 C622 1.387 . S
C623 C625 1.387 . S
H624 C631 0.950 . S
C625 C623 1.387 . S
C625 C627 1.390 . S
C625 H629 0.950 . S
H626 C622 0.950 . S
C627 C625 1.390 . S
C627 C628 1.387 . S
C627 H630 0.950 . S
C628 C627 1.387 . S
C628 C631 1.387 . S
H629 C625 0.950 . S
H630 C627 0.950 . S
C631 C622 1.390 . S
C631 H624 0.950 . S
C631 C628 1.387 . S
C632 C633 1.387 . S
C632 H636 0.950 . S
C632 C641 1.390 . S
C633 C632 1.387 . S
C633 C635 1.387 . S
H634 C641 0.950 . S
C635 C633 1.387 . S
C635 C637 1.390 . S
C635 H639 0.950 . S
H636 C632 0.950 . S
C637 C635 1.390 . S
C637 C638 1.387 . S
C637 H640 0.950 . S
C638 C637 1.387 . S
C638 C641 1.387 . S
H639 C635 0.950 . S
H640 C637 0.950 . S
C641 C632 1.390 . S
C641 H634 0.950 . S
C641 C638 1.387 . S
C642 C643 1.387 . S
C642 H646 0.950 . S
C642 C651 1.390 . S
C643 C642 1.387 . S
C643 C645 1.387 . S
H644 C651 0.950 . S
C645 C643 1.387 . S
C645 C647 1.390 . S
C645 H649 0.950 . S
H646 C642 0.950 . S
C647 C645 1.390 . S
C647 C648 1.387 . S
C647 H650 0.950 . S
C648 C647 1.387 . S
C648 C651 1.387 . S
H649 C645 0.950 . S
H650 C647 0.950 . S
C651 C642 1.390 . S
C651 H644 0.950 . S
C651 C648 1.387 . S
C652 C653 1.387 . S
C652 H656 0.950 . S
C652 C661 1.390 . S
C653 C652 1.387 . S
C653 C655 1.387 . S
H654 C661 0.950 . S
C655 C653 1.387 . S
C655 C657 1.390 . S
C655 H659 0.950 . S
H656 C652 0.950 . S
C657 C655 1.390 . S
C657 C658 1.387 . S
C657 H660 0.950 . S
C658 C657 1.387 . S
C658 C661 1.387 . S
H659 C655 0.950 . S
H660 C657 0.950 . S
C661 C652 1.390 . S
C661 H654 0.950 . S
C661 C658 1.387 . S
C662 C663 1.387 . S
C662 H666 0.950 . S
C662 C671 1.390 . S
C663 C662 1.387 . S
C663 C665 1.387 . S
H664 C671 0.950 . S
C665 C663 1.387 . S
C665 C667 1.390 . S
C665 H669 0.950 . S
H666 C662 0.950 . S
C667 C665 1.390 . S
C667 C668 1.387 . S
C667 H670 0.950 . S
C668 C667 1.387 . S
C668 C671 1.387 . S
H669 C665 0.950 . S
H670 C667 0.950 . S
C671 C662 1.390 . S
C671 H664 0.950 . S
C671 C668 1.387 . S
C672 C673 1.387 . S
C672 H676 0.950 . S
C672 C681 1.390 . S
C673 C672 1.387 . S
C673 C675 1.387 . S
H674 C681 0.950 . S
C675 C673 1.387 . S
C675 C677 1.390 . S
C675 H679 0.950 . S
H676 C672 0.950 . S
C677 C675 1.390 . S
C677 C678 1.387 . S
C677 H680 0.950 . S
C678 C677 1.387 . S
C678 C681 1.387 . S
H679 C675 0.950 . S
H680 C677 0.950 . S
C681 C672 1.390 . S
C681 H674 0.950 . S
C681 C678 1.387 . S
C682 C683 1.387 . S
C682 H686 0.950 . S
C682 C691 1.390 . S
C683 C682 1.387 . S
C683 C685 1.387 . S
H684 C691 0.950 . S
C685 C683 1.387 . S
C685 C687 1.390 . S
C685 H689 0.950 . S
H686 C682 0.950 . S
C687 C685 1.390 . S
C687 C688 1.387 . S
C687 H690 0.950 . S
C688 C687 1.387 . S
C688 C691 1.387 . S
H689 C685 0.950 . S
H690 C687 0.950 . S
C691 C682 1.390 . S
C691 H684 0.950 . S
C691 C688 1.387 . S
C692 C693 1.387 . S
C692 H696 0.950 . S
C692 C701 1.390 . S
C693 C692 1.387 . S
C693 C695 1.387 . S
H694 C701 0.950 . S
C695 C693 1.387 . S
C695 C697 1.390 . S
C695 H699 0.950 . S
H696 C692 0.950 . S
C697 C695 1.390 . S
C697 C698 1.387 . S
C697 H700 0.950 . S
C698 C697 1.387 . S
C698 C701 1.387 . S
H699 C695 0.950 . S
H700 C697 0.950 . S
C701 C692 1.390 . S
C701 H694 0.950 . S
C701 C698 1.387 . S
C702 C703 1.387 . S
C702 H706 0.950 . S
C702 C711 1.390 . S
C703 C702 1.387 . S
C703 C705 1.387 . S
H704 C711 0.950 . S
C705 C703 1.387 . S
C705 C707 1.390 . S
C705 H709 0.950 . S
H706 C702 0.950 . S
C707 C705 1.390 . S
C707 C708 1.387 . S
C707 H710 0.950 . S
C708 C707 1.387 . S
C708 C711 1.387 . S
H709 C705 0.950 . S
H710 C707 0.950 . S
C711 C702 1.390 . S
C711 H704 0.950 . S
C711 C708 1.387 . S
C712 C713 1.387 . S
C712 H716 0.950 . S
C712 C721 1.390 . S
C713 C712 1.387 . S
C713 C715 1.387 . S
H714 C721 0.950 . S
C715 C713 1.387 . S
C715 C717 1.390 . S
C715 H719 0.950 . S
H716 C712 0.950 . S
C717 C715 1.390 . S
C717 C718 1.387 . S
C717 H720 0.950 . S
C718 C717 1.387 . S
C718 C721 1.387 . S
H719 C715 0.950 . S
H720 C717 0.950 . S
C721 C712 1.390 . S
C721 H714 0.950 . S
C721 C718 1.387 . S
C722 C723 1.387 . S
C722 H726 0.950 . S
C722 C731 1.390 . S
C723 C722 1.387 . S
C723 C725 1.387 . S
H724 C731 0.950 . S
C725 C723 1.387 . S
C725 C727 1.390 . S
C725 H729 0.950 . S
H726 C722 0.950 . S
C727 C725 1.390 . S
C727 C728 1.387 . S
C727 H730 0.950 . S
C728 C727 1.387 . S
C728 C731 1.387 . S
H729 C725 0.950 . S
H730 C727 0.950 . S
C731 C722 1.390 . S
C731 H724 0.950 . S
C731 C728 1.387 . S
C732 C733 1.387 . S
C732 H736 0.950 . S
C732 C741 1.390 . S
C733 C732 1.387 . S
C733 C735 1.387 . S
H734 C741 0.950 . S
C735 C733 1.387 . S
C735 C737 1.390 . S
C735 H739 0.950 . S
H736 C732 0.950 . S
C737 C735 1.390 . S
C737 C738 1.387 . S
C737 H740 0.950 . S
C738 C737 1.387 . S
C738 C741 1.387 . S
H739 C735 0.950 . S
H740 C737 0.950 . S
C741 C732 1.390 . S
C741 H734 0.950 . S
C741 C738 1.387 . S
C742 C743 1.387 . S
C742 H746 0.950 . S
C742 C751 1.390 . S
C743 C742 1.387 . S
C743 C745 1.387 . S
H744 C751 0.950 . S
C745 C743 1.387 . S
C745 C747 1.390 . S
C745 H749 0.950 . S
H746 C742 0.950 . S
C747 C745 1.390 . S
C747 C748 1.387 . S
C747 H750 0.950 . S
C748 C747 1.387 . S
C748 C751 1.387 . S
H749 C745 0.950 . S
H750 C747 0.950 . S
C751 C742 1.390 . S
C751 H744 0.950 . S
C751 C748 1.387 . S
C752 C753 1.387 . S
C752 H756 0.950 . S
C752 C761 1.390 . S
C753 C752 1.387 . S
C753 C755 1.387 . S
H754 C761 0.950 . S
C755 C753 1.387 . S
C755 C757 1.390 . S
C755 H759 0.950 . S
H756 C752 0.950 . S
C757 C755 1.390 . S
C757 C758 1.387 . S
C757 H760 0.950 . S
C758 C757 1.387 . S
C758 C761 1.387 . S
H759 C755 0.950 . S
H760 C757 0.950 . S
C761 C752 1.390 . S
C761 H754 0.950 . S
C761 C758 1.387 . S
C762 C763 1.387 . S
C762 H766 0.950 . S
C762 C771 1.390 . S
C763 C762 1.387 . S
C763 C765 1.387 . S
H764 C771 0.950 . S
C765 C763 1.387 . S
C765 C767 1.390 . S
C765 H769 0.950 . S
H766 C762 0.950 . S
C767 C765 1.390 . S
C767 C768 1.387 . S
C767 H770 0.950 . S
C768 C767 1.387 . S
C768 C771 1.387 . S
H769 C765 0.950 . S
H770 C767 0.950 . S
C771 C762 1.390 . S
C771 H764 0.950 . S
C771 C768 1.387 . S
C772 C773 1.387 . S
C772 H776 0.950 . S
C772 C781 1.390 . S
C773 C772 1.387 . S
C773 C775 1.387 . S
H774 C781 0.950 . S
C775 C773 1.387 . S
C775 C777 1.390 . S
C775 H779 0.950 . S
H776 C772 0.950 . S
C777 C775 1.390 . S
C777 C778 1.387 . S
C777 H780 0.950 . S
C778 C777 1.387 . S
C778 C781 1.387 . S
H779 C775 0.950 . S
H780 C777 0.950 . S
C781 C772 1.390 . S
C781 H774 0.950 . S
C781 C778 1.387 . S
C782 C783 1.387 . S
C782 H786 0.950 . S
C782 C791 1.390 . S
C783 C782 1.387 . S
C783 C785 1.387 . S
H784 C791 0.950 . S
C785 C783 1.387 . S
C785 C787 1.390 . S
C785 H789 0.950 . S
H786 C782 0.950 . S
C787 C785 1.390 . S
C787 C788 1.387 . S
C787 H790 0.950 . S
C788 C787 1.387 . S
C788 C791 1.387 . S
H789 C785 0.950 . S
H790 C787 0.950 . S
C791 C782 1.390 . S
C791 H784 0.950 . S
C791 C788 1.387 . S
C792 C793 1.387 . S
C792 H796 0.950 . S
C792 C801 1.390 . S
C793 C792 1.387 . S
C793 C795 1.387 . S
H794 C801 0.950 . S
C795 C793 1.387 . S
C795 C797 1.390 . S
C795 H799 0.950 . S
H796 C792 0.950 . S
C797 C795 1.390 . S
C797 C798 1.387 . S
C797 H800 0.950 . S
C798 C797 1.387 . S
C798 C801 1.387 . S
H799 C795 0.950 . S
H800 C797 0.950 . S
C801 C792 1.390 . S
C801 H794 0.950 . S
C801 C798 1.387 . S
C802 C803 1.387 . S
C802 H806 0.950 . S
C802 C811 1.390 . S
C803 C802 1.387 . S
C803 C805 1.387 . S
H804 C811 0.950 . S
C805 C803 1.387 . S
C805 C807 1.390 . S
C805 H809 0.950 . S
H806 C802 0.950 . S
C807 C805 1.390 . S
C807 C808 1.387 . S
C807 H810 0.950 . S
C808 C807 1.387 . S
C808 C811 1.387 . S
H809 C805 0.950 . S
H810 C807 0.950 . S
C811 C802 1.390 . S
C811 H804 0.950 . S
C811 C808 1.387 . S
C812 C813 1.387 . S
C812 H816 0.950 . S
C812 C821 1.390 . S
C813 C812 1.387 . S
C813 C815 1.387 . S
H814 C821 0.950 . S
C815 C813 1.387 . S
C815 C817 1.390 . S
C815 H819 0.950 . S
H816 C812 0.950 . S
C817 C815 1.390 . S
C817 C818 1.387 . S
C817 H820 0.950 . S
C818 C817 1.387 . S
C818 C821 1.387 . S
H819 C815 0.950 . S
H820 C817 0.950 . S
C821 C812 1.390 . S
C821 H814 0.950 . S
C821 C818 1.387 . S
C822 C823 1.387 . S
C822 H826 0.950 . S
C822 C831 1.390 . S
C823 C822 1.387 . S
C823 C825 1.387 . S
H824 C831 0.950 . S
C825 C823 1.387 . S
C825 C827 1.390 . S
C825 H829 0.950 . S
H826 C822 0.950 . S
C827 C825 1.390 . S
C827 C828 1.387 . S
C827 H830 0.950 . S
C828 C827 1.387 . S
C828 C831 1.387 . S
H829 C825 0.950 . S
H830 C827 0.950 . S
C831 C822 1.390 . S
C831 H824 0.950 . S
C831 C828 1.387 . S
C832 C833 1.387 . S
C832 H836 0.950 . S
C832 C841 1.390 . S
C833 C832 1.387 . S
C833 C835 1.387 . S
H834 C841 0.950 . S
C835 C833 1.387 . S
C835 C837 1.390 . S
C835 H839 0.950 . S
H836 C832 0.950 . S
C837 C835 1.390 . S
C837 C838 1.387 . S
C837 H840 0.950 . S
C838 C837 1.387 . S
C838 C841 1.387 . S
H839 C835 0.950 . S
H840 C837 0.950 . S
C841 C832 1.390 . S
C841 H834 0.950 . S
C841 C838 1.387 . S
C842 C843 1.387 . S
C842 H846 0.950 . S
C842 C851 1.390 . S
C843 C842 1.387 . S
C843 C845 1.387 . S
H844 C851 0.950 . S
C845 C843 1.387 . S
C845 C847 1.390 . S
C845 H849 0.950 . S
H846 C842 0.950 . S
C847 C845 1.390 . S
C847 C848 1.387 . S
C847 H850 0.950 . S
C848 C847 1.387 . S
C848 C851 1.387 . S
H849 C845 0.950 . S
H850 C847 0.950 . S
C851 C842 1.390 . S
C851 H844 0.950 . S
C851 C848 1.387 . S
C852 C853 1.387 . S
C852 H856 0.950 . S
C852 C861 1.390 . S
C853 C852 1.387 . S
C853 C855 1.387 . S
H854 C861 0.950 . S
C855 C853 1.387 . S
C855 C857 1.390 . S
C855 H859 0.950 . S
H856 C852 0.950 . S
C857 C855 1.390 . S
C857 C858 1.387 . S
C857 H860 0.950 . S
C858 C857 1.387 . S
C858 C861 1.387 . S
H859 C855 0.950 . S
H860 C857 0.950 . S
C861 C852 1.390 . S
C861 H854 0.950 . S
C861 C858 1.387 . S
C862 C863 1.387 . S
C862 H866 0.950 . S
C862 C871 1.390 . S
C863 C862 1.387 . S
C863 C865 1.387 . S
H864 C871 0.950 . S
C865 C863 1.387 . S
C865 C867 1.390 . S
C865 H869 0.950 . S
H866 C862 0.950 . S
C867 C865 1.390 . S
C867 C868 1.387 . S
C867 H870 0.950 . S
C868 C867 1.387 . S
C868 C871 1.387 . S
H869 C865 0.950 . S
H870 C867 0.950 . S
C871 C862 1.390 . S
C871 H864 0.950 . S
C871 C868 1.387 . S
C872 C873 1.387 . S
C872 H876 0.950 . S
C872 C881 1.390 . S
C873 C872 1.387 . S
C873 C875 1.387 . S
H874 C881 0.950 . S
C875 C873 1.387 . S
C875 C877 1.390 . S
C875 H879 0.950 . S
H876 C872 0.950 . S
C877 C875 1.390 . S
C877 C878 1.387 . S
C877 H880 0.950 . S
C878 C877 1.387 . S
C878 C881 1.387 . S
H879 C875 0.950 . S
H880 C877 0.950 . S
C881 C872 1.390 . S
C881 H874 0.950 . S
C881 C878 1.387 . S
C882 C883 1.387 . S
C882 H886 0.950 . S
C882 C891 1.390 . S
C883 C882 1.387 . S
C883 C885 1.387 . S
H884 C891 0.950 . S
C885 C883 1.387 . S
C885 C887 1.390 . S
C885 H889 0.950 . S
H886 C882 0.950 . S
C887 C885 1.390 . S
C887 C888 1.387 . S
C887 H890 0.950 . S
C888 C887 1.387 . S
C888 C891 1.387 . S
H889 C885 0.950 . S
H890 C887 0.950 . S
C891 C882 1.390 . S
C891 H884 0.950 . S
C891 C888 1.387 . S
C892 C893 1.387 . S
C892 H896 0.950 . S
C892 C901 1.390 . S
C893 C892 1.387 . S
C893 C895 1.387 . S
H894 C901 0.950 . S
C895 C893 1.387 . S
C895 C897 1.390 . S
C895 H899 0.950 . S
H896 C892 0.950 . S
C897 C895 1.390 . S
C897 C898 1.387 . S
C897 H900 0.950 . S
C898 C897 1.387 . S
C898 C901 1.387 . S
H899 C895 0.950 . S
H900 C897 0.950 . S
C901 C892 1.390 . S
C901 H894 0.950 . S
C901 C898 1.387 . S
C902 C903 1.387 . S
C902 H906 0.950 . S
C902 C911 1.390 . S
C903 C902 1.387 . S
C903 C905 1.387 . S
H904 C911 0.950 . S
C905 C903 1.387 . S
C905 C907 1.390 . S
C905 H909 0.950 . S
H906 C902 0.950 . S
C907 C905 1.390 . S
C907 C908 1.387 . S
C907 H910 0.950 . S
C908 C907 1.387 . S
C908 C911 1.387 . S
H909 C905 0.950 . S
H910 C907 0.950 . S
C911 C902 1.390 . S
C911 H904 0.950 . S
C911 C908 1.387 . S
C598 C197 1.501 . S
C593 C12 1.361 . S
C608 C250 1.310 . S
C603 C33 1.206 . S
C618 C313 1.544 . S
C613 C51 1.478 . S
C628 C356 1.294 . S
C623 C75 1.199 . S
C633 C103 1.489 . S
C638 C312 1.547 . S
C648 C349 1.331 . S
C643 C122 1.248 . S
C658 C190 1.488 . S
C653 C145 1.414 . S
C668 C243 1.253 . S
C663 C166 1.187 . S
C678 C296 1.553 . S
C673 C164 1.403 . S
C688 C365 1.834 . S
C683 C101 1.723 . S
C698 C206 1.582 . S
C693 C124 1.489 . S
C708 C259 1.763 . S
C703 C143 1.633 . S
C718 C207 1.583 . S
C713 C30 1.475 . S
C728 C260 1.818 . S
C723 C54 1.687 . S
C738 C303 1.549 . S
C733 C72 1.424 . S
C748 C366 1.785 . S
C743 C9 1.640 . S
C758 C409 1.492 . S
C753 C159 1.337 . S
C763 C96 1.562 . S
C768 C462 1.691 . S
C773 C114 1.492 . S
C778 C524 1.560 . S
C783 C138 1.561 . S
C788 C578 1.689 . S
C793 C40 1.459 . S
C798 C525 1.518 . S
C803 C59 1.632 . S
C808 C577 1.743 . S
C813 C82 1.440 . S
C818 C402 1.508 . S
C828 C455 1.636 . S
C823 C19 1.536 . S
C838 C515 1.528 . S
C833 C17 1.383 . S
C843 C38 1.282 . S
C848 C561 1.400 . S
C853 C61 1.517 . S
C858 C418 1.602 . S
C863 C80 1.290 . S
C868 C471 1.376 . S
C878 C419 1.560 . S
C873 C93 1.442 . S
C888 C472 1.426 . S
C883 C117 1.336 . S
C893 C135 1.442 . S
C898 C508 1.561 . S
C908 C568 1.348 . S
C903 C156 1.223 . S
