# Generated by pormake.
# Topology tsx, (6,3)-cn, num edge types: 1
# Building blocks:
#     Node 0, Type 0, BuildingBlock: MIDCAF_clean_sbu_0, # of connection points: 6
#     Node 1, Type 0, BuildingBlock: MIDCAF_clean_sbu_0, # of connection points: 6
#     Node 2, Type 1, BuildingBlock: BETDIP_clean_linker_0, # of connection points: 3
#     Node 3, Type 1, BuildingBlock: BETDIP_clean_linker_0, # of connection points: 3
#     Node 4, Type 1, BuildingBlock: BETDIP_clean_linker_0, # of connection points: 3
#     Node 5, Type 1, BuildingBlock: BETDIP_clean_linker_0, # of connection points: 3
#     Edge 6, Type (0, 1), BuildingBlock: UVAHIK_clean_linker_0, # of connection points: 2
#     Edge 7, Type (0, 1), BuildingBlock: UVAHIK_clean_linker_0, # of connection points: 2
#     Edge 8, Type (0, 1), BuildingBlock: UVAHIK_clean_linker_0, # of connection points: 2
#     Edge 9, Type (0, 1), BuildingBlock: UVAHIK_clean_linker_0, # of connection points: 2
#     Edge 10, Type (0, 1), BuildingBlock: UVAHIK_clean_linker_0, # of connection points: 2
#     Edge 11, Type (0, 1), BuildingBlock: UVAHIK_clean_linker_0, # of connection points: 2
#     Edge 12, Type (0, 1), BuildingBlock: UVAHIK_clean_linker_0, # of connection points: 2
#     Edge 13, Type (0, 1), BuildingBlock: UVAHIK_clean_linker_0, # of connection points: 2
#     Edge 14, Type (0, 1), BuildingBlock: UVAHIK_clean_linker_0, # of connection points: 2
#     Edge 15, Type (0, 1), BuildingBlock: UVAHIK_clean_linker_0, # of connection points: 2
#     Edge 16, Type (0, 1), BuildingBlock: UVAHIK_clean_linker_0, # of connection points: 2
#     Edge 17, Type (0, 1), BuildingBlock: UVAHIK_clean_linker_0, # of connection points: 2
# Relax obj value: 0.083
# Max RMSD: 0.150
# Mean RMSD: 0.115
data_MOF--net-tsx--node1-MIDCAF_clean_sbu_0--node2-BETDIP_clean_linker_0--edge1-UVAHIK_clean_linker_0
_symmetry_space_group_name_H-M    P1
_symmetry_Int_Tables_number       1
_symmetry_cell_setting            triclinic
loop_
_symmetry_equiv_pos_as_xyz
'x, y, z'
_cell_length_a     26.038794
_cell_length_b     26.776082
_cell_length_c     46.001213
_cell_angle_alpha  90.289095
_cell_angle_beta   103.51781
_cell_angle_gamma 89.953191
loop_
_atom_site_label
_atom_site_type_symbol
_atom_site_fract_x
_atom_site_fract_y
_atom_site_fract_z
_atom_type_partial_charge
Zn0 Zn 0.96729 0.02782 0.96234 0.0
Zn1 Zn 0.12502 0.0327 0.06139 0.0
Zn2 Zn 0.0456 0.03167 0.01194 0.0
C3 C 0.10337 0.13211 0.04226 0.0
C4 C 0.15997 0.978 0.01797 0.0
O5 O 0.97906 0.98867 0.02214 0.0
O6 O 0.9221 0.98049 0.97831 0.0
C7 C 0.98119 0.12826 0.98084 0.0
O8 O 0.06692 0.11054 0.02239 0.0
O9 O 0.13434 0.10657 0.06187 0.0
O10 O 0.17365 0.98884 0.04544 0.0
O11 O 0.1149 0.99251 0.00202 0.0
O12 O 0.95199 0.10069 0.96144 0.0
O13 O 0.01901 0.10914 0.00086 0.0
O14 O 0.07571 0.99625 0.97538 0.0
O15 O 0.0094 0.00168 0.93529 0.0
C16 C 0.05628 0.98932 0.94719 0.0
O17 O 0.01823 0.99476 0.0488 0.0
O18 O 0.08526 0.0028 0.08839 0.0
C19 C 0.93559 0.97096 0.00591 0.0
C20 C 0.03894 0.9882 0.07684 0.0
Zn21 Zn 0.63169 0.50328 0.55842 0.0
Zn22 Zn 0.46396 0.50771 0.46339 0.0
Zn23 Zn 0.54964 0.50666 0.50985 0.0
C24 C 0.54673 0.4599 0.44453 0.0
C25 C 0.49214 0.60732 0.47963 0.0
O26 O 0.5238 0.47232 0.54791 0.0
O27 O 0.5931 0.47459 0.58652 0.0
C28 C 0.65836 0.44635 0.51238 0.0
O29 O 0.57222 0.4704 0.4714 0.0
O30 O 0.49844 0.47076 0.43564 0.0
O31 O 0.4597 0.58193 0.46052 0.0
O32 O 0.52813 0.58548 0.4995 0.0
O33 O 0.67433 0.4569 0.5398 0.0
O34 O 0.6139 0.46348 0.49717 0.0
O35 O 0.57661 0.58394 0.52058 0.0
O36 O 0.64515 0.57685 0.55928 0.0
C37 C 0.61492 0.60373 0.54008 0.0
O38 O 0.48307 0.46632 0.52207 0.0
O39 O 0.41486 0.47149 0.48307 0.0
C40 C 0.54531 0.46386 0.57565 0.0
C41 C 0.43456 0.45625 0.50924 0.0
H42 H 0.13641 0.03845 0.447 0.0
H43 H 0.00535 0.04541 0.37064 0.0
H44 H 0.12943 0.93909 0.37215 0.0
H45 H 0.02499 0.1326 0.38326 0.0
C46 C 0.02074 0.12761 0.40604 0.0
C47 C 0.11625 0.02431 0.42521 0.0
C48 C 0.13881 0.98556 0.41153 0.0
C49 C 0.069 0.04692 0.41013 0.0
C50 C 0.04283 0.02912 0.38176 0.0
C51 C 0.06437 0.99037 0.36775 0.0
C52 C 0.11224 0.9687 0.38291 0.0
N53 N 0.04828 0.08794 0.42346 0.0
H54 H 0.9838 0.03012 0.57636 0.0
H55 H 0.1036 0.03682 0.65851 0.0
H56 H 0.97808 0.92985 0.6484 0.0
H57 H 0.09721 0.12045 0.64518 0.0
C58 C 0.10011 0.11634 0.6221 0.0
C59 C 1.00059 0.01591 0.59857 0.0
C60 C 0.97464 0.97779 0.61049 0.0
C61 C 0.04673 0.03785 0.61591 0.0
C62 C 0.06805 0.02014 0.64502 0.0
C63 C 0.04305 0.98166 0.65708 0.0
C64 C 0.99695 0.96031 0.63944 0.0
N65 N 0.0707 0.07813 0.60393 0.0
H66 H 0.60645 0.55105 0.94663 0.0
H67 H 0.48548 0.56167 0.86536 0.0
H68 H 0.60313 0.44617 0.87522 0.0
H69 H 0.49687 0.64608 0.87773 0.0
C70 C 0.49554 0.64331 0.90111 0.0
C71 C 0.58839 0.53729 0.92439 0.0
C72 C 0.60905 0.49492 0.91311 0.0
C73 C 0.54452 0.56216 0.90703 0.0
C74 C 0.52068 0.54382 0.87832 0.0
C75 C 0.54139 0.50194 0.86645 0.0
C76 C 0.58556 0.47765 0.8842 0.0
N77 N 0.52424 0.60482 0.91909 0.0
H78 H 0.47846 0.55035 0.07022 0.0
H79 H 0.59866 0.55661 0.15207 0.0
H80 H 0.47603 0.44568 0.14036 0.0
H81 H 0.59077 0.64142 0.1406 0.0
C82 C 0.59257 0.63854 0.11728 0.0
C83 C 0.49561 0.53598 0.09235 0.0
C84 C 0.47292 0.49449 0.10306 0.0
C85 C 0.54031 0.55921 0.11018 0.0
C86 C 0.56287 0.54007 0.13876 0.0
C87 C 0.54008 0.49908 0.15005 0.0
C88 C 0.49515 0.47644 0.13185 0.0
N89 N 0.56268 0.60105 0.09874 0.0
C90 C 0.11065 0.2094 0.01317 0.0
C91 C 0.11376 0.18608 0.04081 0.0
C92 C 0.13403 0.25625 0.01204 0.0
C93 C 0.19776 0.36394 0.05797 0.0
H94 H 0.30728 0.34846 0.01415 0.0
C95 C 0.42541 0.41876 0.07903 0.0
C96 C 0.42502 0.47019 0.0849 0.0
C97 C 0.37881 0.39402 0.06536 0.0
C98 C 0.27643 0.35377 0.02611 0.0
H99 H 0.13855 0.19515 0.08885 0.0
H100 H 0.17809 0.27704 0.08698 0.0
H101 H 0.23393 0.2893 0.00586 0.0
H102 H 0.37639 0.53658 0.08047 0.0
H103 H 0.294 0.49285 0.05705 0.0
H104 H 0.24209 0.42671 0.07951 0.0
C105 C 0.15821 0.25935 0.06616 0.0
C106 C 0.23417 0.32019 0.02118 0.0
C107 C 0.13581 0.21231 0.06726 0.0
C108 C 0.37756 0.49691 0.07593 0.0
C109 C 0.33058 0.47193 0.06271 0.0
C110 C 0.23973 0.3979 0.06264 0.0
C111 C 0.15982 0.28076 0.03856 0.0
C112 C 0.19566 0.32364 0.03802 0.0
C113 C 0.33068 0.42008 0.05774 0.0
C114 C 0.28065 0.39178 0.0477 0.0
H115 H 0.09407 0.1898 0.99244 0.0
H116 H 0.13449 0.27206 0.99048 0.0
H117 H 0.16851 0.36756 0.07116 0.0
H118 H 0.46159 0.39745 0.08585 0.0
H119 H 0.38001 0.35395 0.06219 0.0
C120 C 0.20405 0.95591 0.97668 0.0
C121 C 0.19518 0.94615 0.00502 0.0
C122 C 0.23754 0.92511 0.96474 0.0
C123 C 0.34793 0.83632 0.9874 0.0
H124 H 0.30553 0.78862 0.90559 0.0
C125 C 0.45817 0.67683 0.94297 0.0
C126 C 0.46423 0.68035 0.91352 0.0
C127 C 0.4267 0.71125 0.95383 0.0
C128 C 0.31835 0.80215 0.92836 0.0
H129 H 0.21531 0.89782 0.04362 0.0
H130 H 0.27404 0.84427 0.02305 0.0
H131 H 0.24811 0.8458 0.92476 0.0
H132 H 0.44298 0.72262 0.87247 0.0
H133 H 0.3888 0.78334 0.89153 0.0
H134 H 0.41811 0.79291 0.99109 0.0
C135 C 0.25509 0.87547 0.00988 0.0
C136 C 0.28538 0.83488 0.93933 0.0
C137 C 0.22138 0.90599 0.02162 0.0
C138 C 0.4388 0.7191 0.89526 0.0
C139 C 0.4075 0.75362 0.90612 0.0
C140 C 0.38096 0.80381 0.97642 0.0
C141 C 0.26354 0.88461 0.9813 0.0
C142 C 0.29958 0.8519 0.96907 0.0
C143 C 0.40078 0.74996 0.93549 0.0
C144 C 0.36639 0.78594 0.94684 0.0
H145 H 0.18635 0.98814 0.9642 0.0
H146 H 0.24398 0.93363 0.94288 0.0
H147 H 0.36039 0.84947 0.01028 0.0
H148 H 0.47707 0.64716 0.95754 0.0
H149 H 0.42183 0.70688 0.97643 0.0
C150 C 0.87627 0.89721 0.00181 0.0
C151 C 0.9016 0.93771 0.01875 0.0
C152 C 0.84264 0.86618 0.01312 0.0
C153 C 0.80957 0.82532 0.08272 0.0
H154 H 0.67734 0.78506 0.02949 0.0
C155 C 0.65168 0.71276 0.12425 0.0
C156 C 0.62557 0.67457 0.10553 0.0
C157 C 0.68442 0.74637 0.114 0.0
C158 C 0.71435 0.79543 0.04456 0.0
H159 H 0.90925 0.97933 0.05982 0.0
H160 H 0.85183 0.92394 0.0804 0.0
H161 H 0.73685 0.8407 0.0114 0.0
H162 H 0.6131 0.64138 0.06133 0.0
H163 H 0.67087 0.69949 0.04351 0.0
H164 H 0.78745 0.77949 0.11578 0.0
C165 C 0.85889 0.9156 0.0586 0.0
C166 C 0.74842 0.82742 0.03421 0.0
C167 C 0.89231 0.94691 0.0471 0.0
C168 C 0.63249 0.67066 0.07624 0.0
C169 C 0.66543 0.70416 0.06599 0.0
C170 C 0.77558 0.79308 0.09306 0.0
C171 C 0.83339 0.87507 0.04159 0.0
C172 C 0.79656 0.84246 0.05309 0.0
C173 C 0.69195 0.74235 0.08479 0.0
C174 C 0.72766 0.77751 0.07405 0.0
H175 H 0.88267 0.88939 0.97979 0.0
H176 H 0.82412 0.83494 -0.00039 0.0
H177 H 0.84663 0.83586 0.0977 0.0
H178 H 0.64686 0.71657 0.14693 0.0
H179 H 0.70353 0.77573 0.12893 0.0
C180 C 0.9463 0.20623 0.95442 0.0
C181 C 0.96793 0.18175 0.98141 0.0
C182 C 0.92231 0.2528 0.95445 0.0
C183 C 0.84172 0.31535 0.99632 0.0
H184 H 0.83925 0.42093 0.93859 0.0
C185 C 0.70416 0.49445 0.94092 0.0
C186 C 0.65612 0.46892 0.93086 0.0
C187 C 0.75015 0.46823 0.95428 0.0
C188 C 0.84001 0.39232 0.95525 0.0
H189 H 0.98476 0.18799 0.02967 0.0
H190 H 0.94126 0.26939 0.02974 0.0
H191 H 0.91235 0.36117 0.94861 0.0
H192 H 0.61757 0.3969 0.92805 0.0
H193 H 0.69746 0.35125 0.95196 0.0
H194 H 0.76759 0.34443 0.00145 0.0
C195 C 0.94345 0.25259 0.0086 0.0
C196 C 0.88171 0.35805 0.96089 0.0
C197 C 0.96854 0.20625 0.00856 0.0
C198 C 0.65421 0.41732 0.93565 0.0
C199 C 0.69981 0.39134 0.94947 0.0
C200 C 0.79969 0.34918 0.99038 0.0
C201 C 0.91857 0.27546 0.98148 0.0
C202 C 0.88205 0.31825 0.98074 0.0
C203 C 0.74848 0.4163 0.95833 0.0
C204 C 0.79756 0.38697 0.96905 0.0
H205 H 0.94546 0.18811 0.9332 0.0
H206 H 0.90316 0.26924 0.9332 0.0
H207 H 0.84063 0.2848 0.01152 0.0
H208 H 0.70656 0.53423 0.93726 0.0
H209 H 0.78718 0.48831 0.9609 0.0
C210 C 0.62761 0.68011 0.51154 0.0
C211 C 0.62727 0.65728 0.53893 0.0
C212 C 0.65082 0.72722 0.51107 0.0
C213 C 0.75149 0.79459 0.52738 0.0
H214 H 0.72817 0.90974 0.57402 0.0
C215 C 0.91435 0.94326 0.56352 0.0
C216 C 0.92312 0.957 0.59381 0.0
C217 C 0.86784 0.91818 0.54935 0.0
C218 C 0.73542 0.8779 0.56094 0.0
H219 H 0.64665 0.66688 0.58701 0.0
H220 H 0.68503 0.74993 0.58616 0.0
H221 H 0.66215 0.84333 0.56323 0.0
H222 H 0.88813 0.95901 0.6322 0.0
H223 H 0.80905 0.914 0.60829 0.0
H224 H 0.82674 0.82625 0.52735 0.0
C225 C 0.66821 0.7313 0.56512 0.0
C226 C 0.69727 0.84021 0.55453 0.0
C227 C 0.64645 0.6838 0.56563 0.0
C228 C 0.88315 0.94793 0.60902 0.0
C229 C 0.83714 0.92274 0.59504 0.0
C230 C 0.79019 0.83179 0.5343 0.0
C231 C 0.67243 0.7526 0.53795 0.0
C232 C 0.70583 0.79746 0.53857 0.0
C233 C 0.82922 0.9064 0.56521 0.0
C234 C 0.78364 0.87296 0.55226 0.0
H235 H 0.61342 0.66013 0.49067 0.0
H236 H 0.65381 0.74294 0.48988 0.0
H237 H 0.75919 0.76169 0.51526 0.0
H238 H 0.9443 0.94998 0.55116 0.0
H239 H 0.86282 0.90692 0.52622 0.0
C240 C 0.69866 0.42021 0.47019 0.0
C241 C 0.69062 0.41203 0.49885 0.0
C242 C 0.73183 0.38862 0.45849 0.0
C243 C 0.79684 0.2643 0.46925 0.0
H244 H 0.89669 0.32423 0.42909 0.0
C245 C 0.97386 0.15449 0.44556 0.0
C246 C 0.98451 0.16109 0.41728 0.0
C247 C 0.93723 0.18526 0.45489 0.0
C248 C 0.8687 0.30684 0.43999 0.0
H249 H 0.71097 0.36489 0.538 0.0
H250 H 0.76924 0.31027 0.51798 0.0
H251 H 0.83173 0.37674 0.44512 0.0
H252 H 0.96596 0.20495 0.37676 0.0
H253 H 0.902 0.25856 0.39295 0.0
H254 H 0.83412 0.19448 0.46437 0.0
C255 C 0.74925 0.34027 0.5041 0.0
C256 C 0.83134 0.33692 0.44908 0.0
C257 C 0.71622 0.3718 0.51568 0.0
C258 C 0.95856 0.19928 0.39873 0.0
C259 C 0.92212 0.23008 0.40805 0.0
C260 C 0.83422 0.23426 0.4602 0.0
C261 C 0.75775 0.3484 0.47543 0.0
C262 C 0.79523 0.31606 0.46402 0.0
C263 C 0.91072 0.22324 0.43615 0.0
C264 C 0.87081 0.25521 0.44564 0.0
H265 H 0.6811 0.45213 0.45741 0.0
H266 H 0.7375 0.39593 0.43631 0.0
H267 H 0.76905 0.24691 0.48029 0.0
H268 H 0.99331 0.12532 0.46034 0.0
H269 H 0.92981 0.17946 0.47683 0.0
C270 C 0.34663 0.43202 0.5175 0.0
C271 C 0.40164 0.42543 0.52433 0.0
C272 C 0.31449 0.40015 0.52941 0.0
C273 C 0.25448 0.30803 0.53988 0.0
H274 H 0.2951 0.2579 0.62091 0.0
C275 C 0.14114 0.14773 0.58121 0.0
C276 C 0.13357 0.15197 0.61036 0.0
C277 C 0.17417 0.18131 0.57104 0.0
C278 C 0.28294 0.27183 0.59828 0.0
H279 H 0.46612 0.37993 0.54862 0.0
H280 H 0.41014 0.32438 0.56979 0.0
H281 H 0.3517 0.31805 0.60375 0.0
H282 H 0.15397 0.1945 0.6516 0.0
H283 H 0.21078 0.2536 0.63377 0.0
H284 H 0.18522 0.26276 0.53456 0.0
C285 C 0.39184 0.35481 0.55567 0.0
C286 C 0.31572 0.30591 0.58835 0.0
C287 C 0.42401 0.38681 0.54372 0.0
C288 C 0.15928 0.1904 0.62904 0.0
C289 C 0.19213 0.22399 0.61889 0.0
C290 C 0.22171 0.27405 0.54981 0.0
C291 C 0.33657 0.3606 0.54824 0.0
C292 C 0.30181 0.32452 0.55904 0.0
C293 C 0.2002 0.21979 0.58981 0.0
C294 C 0.23546 0.25555 0.57914 0.0
H295 H 0.32831 0.46158 0.50263 0.0
H296 H 0.27222 0.4063 0.52367 0.0
H297 H 0.2429 0.32099 0.51702 0.0
H298 H 0.12203 0.11829 0.56635 0.0
H299 H 0.17997 0.17661 0.54863 0.0
C300 C 0.46708 0.68767 0.45341 0.0
C301 C 0.48437 0.66178 0.48036 0.0
C302 C 0.4473 0.73611 0.45337 0.0
C303 C 0.41659 0.84496 0.46097 0.0
H304 H 0.2922 0.83648 0.49339 0.0
C305 C 0.22749 0.9511 0.40942 0.0
C306 C 0.19072 0.96328 0.42637 0.0
C307 C 0.27395 0.92569 0.42229 0.0
C308 C 0.32736 0.84053 0.48488 0.0
H309 H 0.4979 0.66698 0.52855 0.0
H310 H 0.46131 0.7516 0.52843 0.0
H311 H 0.3601 0.77257 0.50567 0.0
H312 H 0.17579 0.96092 0.47077 0.0
H313 H 0.25797 0.91785 0.4936 0.0
H314 H 0.38362 0.91226 0.43964 0.0
C315 C 0.46395 0.73456 0.50742 0.0
C316 C 0.36634 0.80371 0.49194 0.0
C317 C 0.48506 0.68638 0.50749 0.0
C318 C 0.20316 0.95198 0.45704 0.0
C319 C 0.25008 0.92682 0.47005 0.0
C320 C 0.37807 0.88227 0.4543 0.0
C321 C 0.44329 0.75913 0.48025 0.0
C322 C 0.41015 0.80444 0.47903 0.0
C323 C 0.28553 0.91226 0.45266 0.0
C324 C 0.33167 0.87925 0.46499 0.0
H325 H 0.46619 0.66941 0.43222 0.0
H326 H 0.43128 0.75398 0.4321 0.0
H327 H 0.45025 0.84653 0.45092 0.0
H328 H 0.21989 0.9603 0.3859 0.0
H329 H 0.29959 0.91474 0.40794 0.0
C330 C 0.01378 0.91982 0.10707 0.0
C331 C 0.00789 0.96933 0.09715 0.0
C332 C 0.99792 0.90595 0.13295 0.0
C333 C 0.93564 0.95515 0.19328 0.0
H334 H 0.05658 0.89198 0.24543 0.0
C335 C 0.01618 0.01093 0.31526 0.0
C336 C 0.03878 0.97487 0.33657 0.0
C337 C 0.99638 0.99753 0.28539 0.0
C338 C 0.02177 0.90859 0.23117 0.0
H339 H 0.97865 0.04254 0.10491 0.0
H340 H 0.95144 0.01902 0.15001 0.0
H341 H 0.0471 0.88911 0.19173 0.0
H342 H 0.05547 0.89576 0.34326 0.0
H343 H 0.02222 0.87268 0.29072 0.0
H344 H 0.91276 0.97779 0.2332 0.0
C345 C 0.96689 0.99021 0.13782 0.0
C346 C 0.01615 0.90681 0.20024 0.0
C347 C 0.98261 0.0039 0.112 0.0
C348 C 0.0393 0.92468 0.32737 0.0
C349 C 0.01993 0.91135 0.29734 0.0
C350 C 0.94153 0.95726 0.22426 0.0
C351 C 0.97683 0.94172 0.14949 0.0
C352 C 0.97434 0.93206 0.18098 0.0
C353 C 0.99908 0.94782 0.27597 0.0
C354 C 0.98591 0.93586 0.24354 0.0
H355 H 0.03394 0.89285 0.09606 0.0
H356 H 0.00542 0.86813 0.14108 0.0
H357 H 0.90237 0.97407 0.17906 0.0
H358 H 0.01587 0.05005 0.32131 0.0
H359 H 0.98153 0.02669 0.26938 0.0
C360 C 0.09364 0.9229 0.9201 0.0
C361 C 0.08949 0.97345 0.9272 0.0
C362 C 0.11233 0.9093 0.89498 0.0
C363 C 0.1631 0.96259 0.8314 0.0
H364 H 0.05624 0.87599 0.78386 0.0
C365 C 0.11681 0.9614 0.70185 0.0
C366 C 0.06249 0.96611 0.68876 0.0
C367 C 0.1343 0.94906 0.73213 0.0
C368 C 0.08669 0.89998 0.79685 0.0
H369 H 0.10437 0.04924 0.91552 0.0
H370 H 0.13604 0.02617 0.87171 0.0
H371 H 0.06791 0.87856 0.8377 0.0
H372 H 0.98417 0.96199 0.69741 0.0
H373 H 0.01436 0.94055 0.74967 0.0
H374 H 0.17833 0.98726 0.79002 0.0
C375 C 0.12637 0.99655 0.88545 0.0
C376 C 0.09402 0.90093 0.82788 0.0
C377 C 0.10789 0.00997 0.91048 0.0
C378 C 0.0262 0.95752 0.70649 0.0
C379 C 0.04358 0.94508 0.73655 0.0
C380 C 0.15545 0.96192 0.80027 0.0
C381 C 0.12623 0.94622 0.87645 0.0
C382 C 0.13033 0.93426 0.84542 0.0
C383 C 0.09779 0.941 0.74984 0.0
C384 C 0.11518 0.93255 0.78259 0.0
H385 H 0.0792 0.89426 0.93273 0.0
H386 H 0.11255 0.87016 0.88897 0.0
H387 H 0.19224 0.98788 0.8443 0.0
H388 H 0.14577 0.96734 0.68872 0.0
H389 H 0.17633 0.9461 0.74172 0.0
C390 C 0.52696 0.4023 0.61196 0.0
C391 C 0.51387 0.44701 0.59634 0.0
C392 C 0.50928 0.39313 0.63786 0.0
C393 C 0.43421 0.45161 0.6905 0.0
H394 H 0.55292 0.39941 0.74978 0.0
C395 C 0.50081 0.52039 0.81235 0.0
C396 C 0.51889 0.48518 0.83508 0.0
C397 C 0.4848 0.50531 0.78248 0.0
C398 C 0.51889 0.4132 0.73351 0.0
H399 H 0.46947 0.51564 0.59376 0.0
H400 H 0.44113 0.50163 0.63979 0.0
H401 H 0.55088 0.38934 0.69731 0.0
H402 H 0.53072 0.40593 0.8441 0.0
H403 H 0.50489 0.38006 0.79172 0.0
H404 H 0.40513 0.47928 0.72753 0.0
C405 C 0.46318 0.47234 0.6319 0.0
C406 C 0.51738 0.40718 0.70319 0.0
C407 C 0.4795 0.48065 0.60545 0.0
C408 C 0.5183 0.43425 0.8272 0.0
C409 C 0.50304 0.41929 0.79725 0.0
C410 C 0.43634 0.45851 0.72096 0.0
C411 C 0.48031 0.42968 0.64937 0.0
C412 C 0.47584 0.42759 0.68116 0.0
C413 C 0.48713 0.4548 0.77457 0.0
C414 C 0.47945 0.44047 0.7427 0.0
H415 H 0.55341 0.37582 0.60513 0.0
H416 H 0.52153 0.3589 0.64993 0.0
H417 H 0.40091 0.46684 0.67435 0.0
H418 H 0.50136 0.55996 0.81735 0.0
H419 H 0.47347 0.53355 0.76539 0.0
C420 C 0.56187 0.39847 0.40668 0.0
C421 C 0.57451 0.44398 0.4218 0.0
C422 C 0.57624 0.38966 0.37963 0.0
C423 C 0.64696 0.44695 0.32525 0.0
H424 H 0.52624 0.39527 0.26685 0.0
C425 C 0.58051 0.51625 0.2044 0.0
C426 C 0.56126 0.48162 0.18131 0.0
C427 C 0.5958 0.50072 0.23411 0.0
C428 C 0.5608 0.40887 0.28288 0.0
H429 H 0.61292 0.5154 0.42144 0.0
H430 H 0.63695 0.50106 0.37417 0.0
H431 H 0.53022 0.38556 0.31973 0.0
H432 H 0.54609 0.40283 0.1715 0.0
H433 H 0.57082 0.37621 0.22363 0.0
H434 H 0.67511 0.47368 0.28791 0.0
C435 C 0.61779 0.47108 0.38329 0.0
C436 C 0.56333 0.4031 0.31333 0.0
C437 C 0.60396 0.47951 0.41042 0.0
C438 C 0.55955 0.43075 0.18869 0.0
C439 C 0.57411 0.41535 0.2185 0.0
C440 C 0.64397 0.45337 0.29474 0.0
C441 C 0.60213 0.42692 0.36685 0.0
C442 C 0.60553 0.42361 0.33497 0.0
C443 C 0.59159 0.45033 0.24152 0.0
C444 C 0.60004 0.43575 0.27332 0.0
H445 H 0.53833 0.37095 0.41492 0.0
H446 H 0.5644 0.35483 0.36793 0.0
H447 H 0.68067 0.46219 0.34121 0.0
H448 H 0.58163 0.55579 0.19979 0.0
H449 H 0.60833 0.52862 0.25145 0.0
loop_
_geom_bond_atom_site_label_1
_geom_bond_atom_site_label_2
_geom_bond_distance
_geom_bond_site_symmetry_2
_ccdc_geom_bond_type
Zn0 O6 1.920 1_545 S
Zn0 O12 1.898 . S
Zn0 O15 1.905 1_545 S
Zn1 O9 1.905 . S
Zn1 O10 1.898 1_545 S
Zn1 O18 1.920 1_545 S
Zn2 O5 2.080 1_445 S
Zn2 O8 2.114 . S
Zn2 O11 2.120 1_545 S
Zn2 O13 2.120 1_455 S
Zn2 O14 2.114 1_554 S
Zn2 O17 2.080 . S
C3 O8 1.166 . S
C3 O9 1.182 . S
C4 O10 1.167 . S
C4 O11 1.299 . S
O5 Zn2 2.080 1_665 S
O5 C19 1.305 . S
O6 Zn0 1.920 1_565 S
O6 C19 1.234 1_556 S
C7 O12 1.167 . S
C7 O13 1.299 1_556 S
O8 Zn2 2.114 . S
O8 C3 1.166 . S
O9 Zn1 1.905 . S
O9 C3 1.182 . S
O10 Zn1 1.898 1_565 S
O10 C4 1.167 . S
O11 Zn2 2.120 1_565 S
O11 C4 1.299 . S
O12 Zn0 1.898 . S
O12 C7 1.167 . S
O13 Zn2 2.120 1_655 S
O13 C7 1.299 1_554 S
O14 Zn2 2.114 1_556 S
O14 C16 1.166 1_545 S
O15 Zn0 1.905 1_565 S
O15 C16 1.182 1_655 S
C16 O14 1.166 1_565 S
C16 O15 1.182 1_455 S
O17 Zn2 2.080 . S
O17 C20 1.305 1_545 S
O18 Zn1 1.920 1_565 S
O18 C20 1.234 . S
C19 O5 1.305 . S
C19 O6 1.234 1_554 S
C20 O17 1.305 1_565 S
C20 O18 1.234 . S
Zn21 O27 1.920 . S
Zn21 O33 1.898 . S
Zn21 O36 1.905 . S
Zn22 O30 1.905 . S
Zn22 O31 1.898 . S
Zn22 O39 1.920 . S
Zn23 O26 2.080 . S
Zn23 O29 2.114 . S
Zn23 O32 2.120 . S
Zn23 O34 2.120 . S
Zn23 O35 2.114 . S
Zn23 O38 2.080 . S
C24 O29 1.166 . S
C24 O30 1.182 . S
C25 O31 1.167 . S
C25 O32 1.299 . S
O26 Zn23 2.080 . S
O26 C40 1.305 . S
O27 Zn21 1.920 . S
O27 C40 1.234 . S
C28 O33 1.167 . S
C28 O34 1.299 . S
O29 Zn23 2.114 . S
O29 C24 1.166 . S
O30 Zn22 1.905 . S
O30 C24 1.182 . S
O31 Zn22 1.898 . S
O31 C25 1.167 . S
O32 Zn23 2.120 . S
O32 C25 1.299 . S
O33 Zn21 1.898 . S
O33 C28 1.167 . S
O34 Zn23 2.120 . S
O34 C28 1.299 . S
O35 Zn23 2.114 . S
O35 C37 1.166 . S
O36 Zn21 1.905 . S
O36 C37 1.182 . S
C37 O35 1.166 . S
C37 O36 1.182 . S
O38 Zn23 2.080 . S
O38 C41 1.305 . S
O39 Zn22 1.920 . S
O39 C41 1.234 . S
C40 O26 1.305 . S
C40 O27 1.234 . S
C41 O38 1.305 . S
C41 O39 1.234 . S
H42 C47 0.930 . S
H43 C50 0.930 . S
H44 C52 0.930 1_565 S
H45 C46 1.016 . S
C46 H45 1.016 . S
C46 N53 1.286 . S
C47 H42 0.930 . S
C47 C48 1.397 1_545 S
C47 C49 1.361 . S
C48 C47 1.397 1_565 S
C48 C52 1.390 1_565 S
C49 C47 1.361 . S
C49 C50 1.393 . S
C49 N53 1.413 . S
C50 H43 0.930 . S
C50 C49 1.393 . S
C50 C51 1.399 . S
C51 C50 1.399 . S
C51 C52 1.381 . S
C52 H44 0.930 1_545 S
C52 C48 1.390 1_545 S
C52 C51 1.381 . S
N53 C46 1.286 . S
N53 C49 1.413 . S
H54 C59 0.930 . S
H55 C62 0.930 . S
H56 C64 0.933 . S
H57 C58 1.016 . S
C58 H57 1.016 . S
C58 N65 1.286 . S
C59 H54 0.930 . S
C59 C60 1.397 1_545 S
C59 C61 1.361 1_655 S
C60 C59 1.397 1_565 S
C60 C64 1.391 . S
C61 C59 1.361 1_455 S
C61 C62 1.393 . S
C61 N65 1.413 . S
C62 H55 0.930 . S
C62 C61 1.393 . S
C62 C63 1.399 1_455 S
C63 C62 1.399 1_655 S
C63 C64 1.377 1_545 S
C64 H56 0.933 . S
C64 C60 1.391 . S
C64 C63 1.377 1_565 S
N65 C58 1.286 . S
N65 C61 1.413 . S
H66 C71 0.930 . S
H67 C74 0.930 . S
H68 C76 0.930 . S
H69 C70 1.016 . S
C70 H69 1.016 . S
C70 N77 1.286 . S
C71 H66 0.930 . S
C71 C72 1.397 . S
C71 C73 1.361 . S
C72 C71 1.397 . S
C72 C76 1.390 . S
C73 C71 1.361 . S
C73 C74 1.393 . S
C73 N77 1.413 . S
C74 H67 0.930 . S
C74 C73 1.393 . S
C74 C75 1.399 . S
C75 C74 1.399 . S
C75 C76 1.381 . S
C76 H68 0.930 . S
C76 C72 1.390 . S
C76 C75 1.381 . S
N77 C70 1.286 . S
N77 C73 1.413 . S
H78 C83 0.930 . S
H79 C86 0.930 . S
H80 C88 0.930 . S
H81 C82 1.016 . S
C82 H81 1.016 . S
C82 N89 1.286 . S
C83 H78 0.930 . S
C83 C84 1.397 . S
C83 C85 1.361 . S
C84 C83 1.397 . S
C84 C88 1.390 . S
C85 C83 1.361 . S
C85 C86 1.393 . S
C85 N89 1.413 . S
C86 H79 0.930 . S
C86 C85 1.393 . S
C86 C87 1.399 . S
C87 C86 1.399 . S
C87 C88 1.381 . S
C88 H80 0.930 . S
C88 C84 1.390 . S
C88 C87 1.381 . S
N89 C82 1.286 . S
N89 C85 1.413 . S
C90 C91 1.349 . S
C90 C92 1.327 . S
C90 H115 0.950 1_554 S
C91 C90 1.349 . S
C91 C107 1.349 . S
C92 C90 1.327 . S
C92 C111 1.429 . S
C92 H116 0.950 . S
C93 C110 1.574 . S
C93 C112 1.368 . S
C93 H117 0.949 . S
H94 C98 0.949 . S
C95 C96 1.349 . S
C95 C97 1.327 . S
C95 H118 0.950 . S
C96 C95 1.349 . S
C96 C108 1.349 . S
C97 C95 1.327 . S
C97 C113 1.429 . S
C97 H119 0.950 . S
C98 H94 0.949 . S
C98 C106 1.574 . S
C98 C114 1.368 . S
H99 C107 0.950 . S
H100 C105 0.950 . S
H101 C106 0.949 . S
H102 C108 0.950 . S
H103 C109 0.950 . S
H104 C110 0.949 . S
C105 H100 0.950 . S
C105 C107 1.327 . S
C105 C111 1.429 . S
C106 C98 1.574 . S
C106 H101 0.949 . S
C106 C112 1.368 . S
C107 C91 1.349 . S
C107 H99 0.950 . S
C107 C105 1.327 . S
C108 C96 1.349 . S
C108 H102 0.950 . S
C108 C109 1.327 . S
C109 H103 0.950 . S
C109 C108 1.327 . S
C109 C113 1.429 . S
C110 C93 1.574 . S
C110 H104 0.949 . S
C110 C114 1.368 . S
C111 C92 1.429 . S
C111 C105 1.429 . S
C111 C112 1.523 . S
C112 C93 1.368 . S
C112 C106 1.368 . S
C112 C111 1.523 . S
C113 C97 1.429 . S
C113 C109 1.429 . S
C113 C114 1.523 . S
C114 C98 1.368 . S
C114 C110 1.368 . S
C114 C113 1.523 . S
H115 C90 0.950 1_556 S
H116 C92 0.950 . S
H117 C93 0.949 . S
H118 C95 0.950 . S
H119 C97 0.950 . S
C120 C121 1.341 1_556 S
C120 C122 1.327 . S
C120 H145 0.950 . S
C121 C120 1.341 1_554 S
C121 C137 1.354 . S
C122 C120 1.327 . S
C122 C141 1.429 . S
C122 H146 0.950 . S
C123 C140 1.574 . S
C123 C142 1.368 1_554 S
C123 H147 0.949 . S
H124 C128 0.949 . S
C125 C126 1.349 . S
C125 C127 1.327 . S
C125 H148 0.948 1_556 S
C126 C125 1.349 . S
C126 C138 1.349 . S
C127 C125 1.327 . S
C127 C143 1.429 . S
C127 H149 0.950 1_556 S
C128 H124 0.949 . S
C128 C136 1.574 . S
C128 C144 1.368 . S
H129 C137 0.950 . S
H130 C135 0.950 . S
H131 C136 0.949 . S
H132 C138 0.950 . S
H133 C139 0.950 . S
H134 C140 0.949 . S
C135 H130 0.950 . S
C135 C137 1.327 . S
C135 C141 1.429 1_554 S
C136 C128 1.574 . S
C136 H131 0.949 . S
C136 C142 1.368 . S
C137 C121 1.354 . S
C137 H129 0.950 . S
C137 C135 1.327 . S
C138 C126 1.349 . S
C138 H132 0.950 . S
C138 C139 1.327 . S
C139 H133 0.950 . S
C139 C138 1.327 . S
C139 C143 1.429 . S
C140 C123 1.574 . S
C140 H134 0.949 . S
C140 C144 1.368 1_554 S
C141 C122 1.429 . S
C141 C135 1.429 1_556 S
C141 C142 1.523 . S
C142 C123 1.368 1_556 S
C142 C136 1.368 . S
C142 C141 1.523 . S
C143 C127 1.429 . S
C143 C139 1.429 . S
C143 C144 1.523 . S
C144 C128 1.368 . S
C144 C140 1.368 1_556 S
C144 C143 1.523 . S
H145 C120 0.950 . S
H146 C122 0.950 . S
H147 C123 0.949 . S
H148 C125 0.948 1_554 S
H149 C127 0.950 1_554 S
C150 C151 1.338 1_556 S
C150 C152 1.321 1_556 S
C150 H175 0.967 . S
C151 C150 1.338 1_554 S
C151 C167 1.349 . S
C152 C150 1.321 1_554 S
C152 C171 1.429 . S
C152 H176 0.950 1_554 S
C153 C170 1.574 . S
C153 C172 1.368 . S
C153 H177 0.949 . S
H154 C158 0.949 . S
C155 C156 1.349 . S
C155 C157 1.327 . S
C155 H178 0.950 . S
C156 C155 1.349 . S
C156 C168 1.349 . S
C157 C155 1.327 . S
C157 C173 1.429 . S
C157 H179 0.950 . S
C158 H154 0.949 . S
C158 C166 1.574 . S
C158 C174 1.368 . S
H159 C167 0.950 . S
H160 C165 0.950 . S
H161 C166 0.949 1_556 S
H162 C168 0.950 . S
H163 C169 0.950 . S
H164 C170 0.949 . S
C165 H160 0.950 . S
C165 C167 1.327 . S
C165 C171 1.429 . S
C166 C158 1.574 . S
C166 H161 0.949 1_554 S
C166 C172 1.368 . S
C167 C151 1.349 . S
C167 H159 0.950 . S
C167 C165 1.327 . S
C168 C156 1.349 . S
C168 H162 0.950 . S
C168 C169 1.327 . S
C169 H163 0.950 . S
C169 C168 1.327 . S
C169 C173 1.429 . S
C170 C153 1.574 . S
C170 H164 0.949 . S
C170 C174 1.368 . S
C171 C152 1.429 . S
C171 C165 1.429 . S
C171 C172 1.523 . S
C172 C153 1.368 . S
C172 C166 1.368 . S
C172 C171 1.523 . S
C173 C157 1.429 . S
C173 C169 1.429 . S
C173 C174 1.523 . S
C174 C158 1.368 . S
C174 C170 1.368 . S
C174 C173 1.523 . S
H175 C150 0.967 . S
H176 C152 0.950 1_556 S
H177 C153 0.949 . S
H178 C155 0.950 . S
H179 C157 0.950 . S
C180 C181 1.349 . S
C180 C182 1.327 . S
C180 H205 0.950 . S
C181 C180 1.349 . S
C181 C197 1.349 1_556 S
C182 C180 1.327 . S
C182 C201 1.429 . S
C182 H206 0.950 . S
C183 C200 1.574 . S
C183 C202 1.368 . S
C183 H207 0.949 1_556 S
H184 C188 0.949 . S
C185 C186 1.349 . S
C185 C187 1.327 . S
C185 H208 0.950 . S
C186 C185 1.349 . S
C186 C198 1.349 . S
C187 C185 1.327 . S
C187 C203 1.429 . S
C187 H209 0.950 . S
C188 H184 0.949 . S
C188 C196 1.574 . S
C188 C204 1.368 . S
H189 C197 0.950 . S
H190 C195 0.950 . S
H191 C196 0.949 . S
H192 C198 0.950 . S
H193 C199 0.950 . S
H194 C200 0.949 . S
C195 H190 0.950 . S
C195 C197 1.327 . S
C195 C201 1.429 1_554 S
C196 C188 1.574 . S
C196 H191 0.949 . S
C196 C202 1.368 . S
C197 C181 1.349 1_554 S
C197 H189 0.950 . S
C197 C195 1.327 . S
C198 C186 1.349 . S
C198 H192 0.950 . S
C198 C199 1.327 . S
C199 H193 0.950 . S
C199 C198 1.327 . S
C199 C203 1.429 . S
C200 C183 1.574 . S
C200 H194 0.949 . S
C200 C204 1.368 . S
C201 C182 1.429 . S
C201 C195 1.429 1_556 S
C201 C202 1.523 . S
C202 C183 1.368 . S
C202 C196 1.368 . S
C202 C201 1.523 . S
C203 C187 1.429 . S
C203 C199 1.429 . S
C203 C204 1.523 . S
C204 C188 1.368 . S
C204 C200 1.368 . S
C204 C203 1.523 . S
H205 C180 0.950 . S
H206 C182 0.950 . S
H207 C183 0.949 1_554 S
H208 C185 0.950 . S
H209 C187 0.950 . S
C210 C211 1.349 . S
C210 C212 1.327 . S
C210 H235 0.950 . S
C211 C210 1.349 . S
C211 C227 1.349 . S
C212 C210 1.327 . S
C212 C231 1.429 . S
C212 H236 0.950 . S
C213 C230 1.574 . S
C213 C232 1.368 . S
C213 H237 0.949 . S
H214 C218 0.949 . S
C215 C216 1.349 . S
C215 C217 1.327 . S
C215 H238 0.950 . S
C216 C215 1.349 . S
C216 C228 1.349 . S
C217 C215 1.327 . S
C217 C233 1.429 . S
C217 H239 0.950 . S
C218 H214 0.949 . S
C218 C226 1.574 . S
C218 C234 1.368 . S
H219 C227 0.950 . S
H220 C225 0.950 . S
H221 C226 0.949 . S
H222 C228 0.950 . S
H223 C229 0.950 . S
H224 C230 0.949 . S
C225 H220 0.950 . S
C225 C227 1.327 . S
C225 C231 1.429 . S
C226 C218 1.574 . S
C226 H221 0.949 . S
C226 C232 1.368 . S
C227 C211 1.349 . S
C227 H219 0.950 . S
C227 C225 1.327 . S
C228 C216 1.349 . S
C228 H222 0.950 . S
C228 C229 1.327 . S
C229 H223 0.950 . S
C229 C228 1.327 . S
C229 C233 1.429 . S
C230 C213 1.574 . S
C230 H224 0.949 . S
C230 C234 1.368 . S
C231 C212 1.429 . S
C231 C225 1.429 . S
C231 C232 1.523 . S
C232 C213 1.368 . S
C232 C226 1.368 . S
C232 C231 1.523 . S
C233 C217 1.429 . S
C233 C229 1.429 . S
C233 C234 1.523 . S
C234 C218 1.368 . S
C234 C230 1.368 . S
C234 C233 1.523 . S
H235 C210 0.950 . S
H236 C212 0.950 . S
H237 C213 0.949 . S
H238 C215 0.950 . S
H239 C217 0.950 . S
C240 C241 1.349 . S
C240 C242 1.327 . S
C240 H265 0.950 . S
C241 C240 1.349 . S
C241 C257 1.349 . S
C242 C240 1.327 . S
C242 C261 1.429 . S
C242 H266 0.950 . S
C243 C260 1.574 . S
C243 C262 1.368 . S
C243 H267 0.949 . S
H244 C248 0.949 . S
C245 C246 1.349 . S
C245 C247 1.327 . S
C245 H268 0.950 . S
C246 C245 1.349 . S
C246 C258 1.349 . S
C247 C245 1.327 . S
C247 C263 1.429 . S
C247 H269 0.950 . S
C248 H244 0.949 . S
C248 C256 1.574 . S
C248 C264 1.368 . S
H249 C257 0.950 . S
H250 C255 0.950 . S
H251 C256 0.949 . S
H252 C258 0.950 1_455 S
H253 C259 0.950 . S
H254 C260 0.949 . S
C255 H250 0.950 . S
C255 C257 1.327 . S
C255 C261 1.429 . S
C256 C248 1.574 . S
C256 H251 0.949 . S
C256 C262 1.368 . S
C257 C241 1.349 . S
C257 H249 0.950 . S
C257 C255 1.327 . S
C258 C246 1.349 . S
C258 H252 0.950 1_655 S
C258 C259 1.327 . S
C259 H253 0.950 . S
C259 C258 1.327 . S
C259 C263 1.429 . S
C260 C243 1.574 . S
C260 H254 0.949 . S
C260 C264 1.368 . S
C261 C242 1.429 . S
C261 C255 1.429 . S
C261 C262 1.523 . S
C262 C243 1.368 . S
C262 C256 1.368 . S
C262 C261 1.523 . S
C263 C247 1.429 . S
C263 C259 1.429 . S
C263 C264 1.523 . S
C264 C248 1.368 . S
C264 C260 1.368 . S
C264 C263 1.523 . S
H265 C240 0.950 . S
H266 C242 0.950 . S
H267 C243 0.949 . S
H268 C245 0.950 . S
H269 C247 0.950 . S
C270 C271 1.349 . S
C270 C272 1.327 . S
C270 H295 0.950 . S
C271 C270 1.349 . S
C271 C287 1.349 . S
C272 C270 1.327 . S
C272 C291 1.429 . S
C272 H296 0.950 . S
C273 C290 1.574 . S
C273 C292 1.368 . S
C273 H297 0.949 . S
H274 C278 0.949 . S
C275 C276 1.349 . S
C275 C277 1.327 . S
C275 H298 0.950 . S
C276 C275 1.349 . S
C276 C288 1.349 . S
C277 C275 1.327 . S
C277 C293 1.429 . S
C277 H299 0.950 . S
C278 H274 0.949 . S
C278 C286 1.574 . S
C278 C294 1.368 . S
H279 C287 0.950 . S
H280 C285 0.950 . S
H281 C286 0.949 . S
H282 C288 0.950 . S
H283 C289 0.950 . S
H284 C290 0.949 . S
C285 H280 0.950 . S
C285 C287 1.327 . S
C285 C291 1.429 . S
C286 C278 1.574 . S
C286 H281 0.949 . S
C286 C292 1.368 . S
C287 C271 1.349 . S
C287 H279 0.950 . S
C287 C285 1.327 . S
C288 C276 1.349 . S
C288 H282 0.950 . S
C288 C289 1.327 . S
C289 H283 0.950 . S
C289 C288 1.327 . S
C289 C293 1.429 . S
C290 C273 1.574 . S
C290 H284 0.949 . S
C290 C294 1.368 . S
C291 C272 1.429 . S
C291 C285 1.429 . S
C291 C292 1.523 . S
C292 C273 1.368 . S
C292 C286 1.368 . S
C292 C291 1.523 . S
C293 C277 1.429 . S
C293 C289 1.429 . S
C293 C294 1.523 . S
C294 C278 1.368 . S
C294 C290 1.368 . S
C294 C293 1.523 . S
H295 C270 0.950 . S
H296 C272 0.950 . S
H297 C273 0.949 . S
H298 C275 0.950 . S
H299 C277 0.950 . S
C300 C301 1.349 . S
C300 C302 1.327 . S
C300 H325 0.950 . S
C301 C300 1.349 . S
C301 C317 1.349 . S
C302 C300 1.327 . S
C302 C321 1.429 . S
C302 H326 0.950 . S
C303 C320 1.574 . S
C303 C322 1.368 . S
C303 H327 0.949 . S
H304 C308 0.949 . S
C305 C306 1.349 . S
C305 C307 1.327 . S
C305 H328 0.950 . S
C306 C305 1.349 . S
C306 C318 1.349 . S
C307 C305 1.327 . S
C307 C323 1.429 . S
C307 H329 0.950 . S
C308 H304 0.949 . S
C308 C316 1.574 . S
C308 C324 1.368 . S
H309 C317 0.950 . S
H310 C315 0.950 . S
H311 C316 0.949 . S
H312 C318 0.950 . S
H313 C319 0.950 . S
H314 C320 0.949 . S
C315 H310 0.950 . S
C315 C317 1.327 . S
C315 C321 1.429 . S
C316 C308 1.574 . S
C316 H311 0.949 . S
C316 C322 1.368 . S
C317 C301 1.349 . S
C317 H309 0.950 . S
C317 C315 1.327 . S
C318 C306 1.349 . S
C318 H312 0.950 . S
C318 C319 1.327 . S
C319 H313 0.950 . S
C319 C318 1.327 . S
C319 C323 1.429 . S
C320 C303 1.574 . S
C320 H314 0.949 . S
C320 C324 1.368 . S
C321 C302 1.429 . S
C321 C315 1.429 . S
C321 C322 1.523 . S
C322 C303 1.368 . S
C322 C316 1.368 . S
C322 C321 1.523 . S
C323 C307 1.429 . S
C323 C319 1.429 . S
C323 C324 1.523 . S
C324 C308 1.368 . S
C324 C320 1.368 . S
C324 C323 1.523 . S
H325 C300 0.950 . S
H326 C302 0.950 . S
H327 C303 0.949 . S
H328 C305 0.950 . S
H329 C307 0.950 . S
C330 C331 1.349 . S
C330 C332 1.327 . S
C330 H355 0.950 . S
C331 C330 1.349 . S
C331 C347 1.349 1_565 S
C332 C330 1.327 . S
C332 C351 1.426 1_565 S
C332 H356 0.950 . S
C333 C350 1.574 . S
C333 C352 1.368 . S
C333 H357 0.949 . S
H334 C338 0.949 . S
C335 C336 1.349 . S
C335 C337 1.327 . S
C335 H358 0.950 . S
C336 C335 1.349 . S
C336 C348 1.349 1_545 S
C337 C335 1.327 . S
C337 C353 1.429 . S
C337 H359 0.950 . S
C338 H334 0.949 . S
C338 C346 1.574 . S
C338 C354 1.368 1_565 S
H339 C347 0.950 . S
H340 C345 0.950 . S
H341 C346 0.949 . S
H342 C348 0.950 . S
H343 C349 0.950 . S
H344 C350 0.949 . S
C345 H340 0.950 . S
C345 C347 1.327 . S
C345 C351 1.431 . S
C346 C338 1.574 . S
C346 H341 0.949 . S
C346 C352 1.368 1_565 S
C347 C331 1.349 1_545 S
C347 H339 0.950 . S
C347 C345 1.327 . S
C348 C336 1.349 1_565 S
C348 H342 0.950 . S
C348 C349 1.327 . S
C349 H343 0.950 . S
C349 C348 1.327 . S
C349 C353 1.429 1_565 S
C350 C333 1.574 . S
C350 H344 0.949 . S
C350 C354 1.368 . S
C351 C332 1.426 1_545 S
C351 C345 1.431 . S
C351 C352 1.523 . S
C352 C333 1.368 . S
C352 C346 1.368 1_545 S
C352 C351 1.523 . S
C353 C337 1.429 . S
C353 C349 1.429 1_545 S
C353 C354 1.523 . S
C354 C338 1.368 1_545 S
C354 C350 1.368 . S
C354 C353 1.523 . S
H355 C330 0.950 . S
H356 C332 0.950 . S
H357 C333 0.949 . S
H358 C335 0.950 . S
H359 C337 0.950 . S
C360 C361 1.349 1_655 S
C360 C362 1.327 . S
C360 H385 0.950 . S
C361 C360 1.349 1_455 S
C361 C377 1.349 1_565 S
C362 C360 1.327 . S
C362 C381 1.429 1_655 S
C362 H386 0.950 . S
C363 C380 1.574 . S
C363 C382 1.368 . S
C363 H387 0.949 . S
H364 C368 0.949 . S
C365 C366 1.349 1_455 S
C365 C367 1.327 . S
C365 H388 0.950 . S
C366 C365 1.349 1_655 S
C366 C378 1.349 . S
C367 C365 1.327 . S
C367 C383 1.429 . S
C367 H389 0.950 . S
C368 H364 0.949 . S
C368 C376 1.574 . S
C368 C384 1.368 1_665 S
H369 C377 0.950 . S
H370 C375 0.950 . S
H371 C376 0.949 . S
H372 C378 0.949 1_565 S
H373 C379 0.950 1_565 S
H374 C380 0.949 . S
C375 H370 0.950 . S
C375 C377 1.327 . S
C375 C381 1.429 1_545 S
C376 C368 1.574 . S
C376 H371 0.949 . S
C376 C382 1.368 1_665 S
C377 C361 1.349 1_545 S
C377 H369 0.950 . S
C377 C375 1.327 . S
C378 C366 1.349 . S
C378 H372 0.949 1_545 S
C378 C379 1.327 . S
C379 H373 0.950 1_545 S
C379 C378 1.327 . S
C379 C383 1.429 1_655 S
C380 C363 1.574 . S
C380 H374 0.949 . S
C380 C384 1.368 . S
C381 C362 1.429 1_455 S
C381 C375 1.429 1_565 S
C381 C382 1.523 1_565 S
C382 C363 1.368 . S
C382 C376 1.368 1_445 S
C382 C381 1.523 1_545 S
C383 C367 1.429 . S
C383 C379 1.429 1_455 S
C383 C384 1.523 . S
C384 C368 1.368 1_445 S
C384 C380 1.368 . S
C384 C383 1.523 . S
H385 C360 0.950 . S
H386 C362 0.950 . S
H387 C363 0.949 . S
H388 C365 0.950 . S
H389 C367 0.950 . S
C390 C391 1.349 . S
C390 C392 1.327 . S
C390 H415 0.950 . S
C391 C390 1.349 . S
C391 C407 1.349 . S
C392 C390 1.327 . S
C392 C411 1.429 . S
C392 H416 0.950 . S
C393 C410 1.574 . S
C393 C412 1.368 . S
C393 H417 0.949 . S
H394 C398 0.949 . S
C395 C396 1.349 . S
C395 C397 1.327 . S
C395 H418 0.950 . S
C396 C395 1.349 . S
C396 C408 1.349 . S
C397 C395 1.327 . S
C397 C413 1.429 . S
C397 H419 0.950 . S
C398 H394 0.949 . S
C398 C406 1.574 . S
C398 C414 1.368 . S
H399 C407 0.950 . S
H400 C405 0.950 . S
H401 C406 0.949 . S
H402 C408 0.950 . S
H403 C409 0.950 . S
H404 C410 0.949 . S
C405 H400 0.950 . S
C405 C407 1.327 . S
C405 C411 1.429 . S
C406 C398 1.574 . S
C406 H401 0.949 . S
C406 C412 1.368 . S
C407 C391 1.349 . S
C407 H399 0.950 . S
C407 C405 1.327 . S
C408 C396 1.349 . S
C408 H402 0.950 . S
C408 C409 1.327 . S
C409 H403 0.950 . S
C409 C408 1.327 . S
C409 C413 1.429 . S
C410 C393 1.574 . S
C410 H404 0.949 . S
C410 C414 1.368 . S
C411 C392 1.429 . S
C411 C405 1.429 . S
C411 C412 1.523 . S
C412 C393 1.368 . S
C412 C406 1.368 . S
C412 C411 1.523 . S
C413 C397 1.429 . S
C413 C409 1.429 . S
C413 C414 1.523 . S
C414 C398 1.368 . S
C414 C410 1.368 . S
C414 C413 1.523 . S
H415 C390 0.950 . S
H416 C392 0.950 . S
H417 C393 0.949 . S
H418 C395 0.950 . S
H419 C397 0.950 . S
C420 C421 1.349 . S
C420 C422 1.327 . S
C420 H445 0.950 . S
C421 C420 1.349 . S
C421 C437 1.349 . S
C422 C420 1.327 . S
C422 C441 1.429 . S
C422 H446 0.950 . S
C423 C440 1.574 . S
C423 C442 1.368 . S
C423 H447 0.949 . S
H424 C428 0.949 . S
C425 C426 1.349 . S
C425 C427 1.327 . S
C425 H448 0.950 . S
C426 C425 1.349 . S
C426 C438 1.349 . S
C427 C425 1.327 . S
C427 C443 1.429 . S
C427 H449 0.950 . S
C428 H424 0.949 . S
C428 C436 1.574 . S
C428 C444 1.368 . S
H429 C437 0.950 . S
H430 C435 0.950 . S
H431 C436 0.949 . S
H432 C438 0.950 . S
H433 C439 0.950 . S
H434 C440 0.949 . S
C435 H430 0.950 . S
C435 C437 1.327 . S
C435 C441 1.429 . S
C436 C428 1.574 . S
C436 H431 0.949 . S
C436 C442 1.368 . S
C437 C421 1.349 . S
C437 H429 0.950 . S
C437 C435 1.327 . S
C438 C426 1.349 . S
C438 H432 0.950 . S
C438 C439 1.327 . S
C439 H433 0.950 . S
C439 C438 1.327 . S
C439 C443 1.429 . S
C440 C423 1.574 . S
C440 H434 0.949 . S
C440 C444 1.368 . S
C441 C422 1.429 . S
C441 C435 1.429 . S
C441 C442 1.523 . S
C442 C423 1.368 . S
C442 C436 1.368 . S
C442 C441 1.523 . S
C443 C427 1.429 . S
C443 C439 1.429 . S
C443 C444 1.523 . S
C444 C428 1.368 . S
C444 C440 1.368 . S
C444 C443 1.523 . S
H445 C420 0.950 . S
H446 C422 0.950 . S
H447 C423 0.949 . S
H448 C425 0.950 . S
H449 C427 0.950 . S
C96 C84 1.281 . S
C91 C3 1.176 . S
C121 C4 1.449 . S
C126 C70 1.519 . S
C151 C19 1.472 . S
C156 C82 1.540 . S
C181 C7 1.180 . S
C186 C72 1.291 . S
C211 C37 1.176 . S
C216 C60 1.280 . S
C241 C28 1.444 . S
C246 C46 1.519 1_655 S
C276 C58 1.540 . S
C271 C41 1.472 . S
C306 C48 1.291 . S
C301 C25 1.180 . S
C331 C20 1.343 . S
C336 C51 1.470 . S
C361 C16 1.393 . S
C366 C63 1.520 . S
C396 C75 1.470 . S
C391 C40 1.343 . S
C421 C24 1.393 . S
C426 C87 1.520 . S
