# Generated by pormake.
# Topology ptr, (4,4)-cn, num edge types: 1
# Building blocks:
#     Node 0, Type 0, BuildingBlock: AZAVOO_clean_sbu_0, # of connection points: 4
#     Node 1, Type 0, BuildingBlock: AZAVOO_clean_sbu_0, # of connection points: 4
#     Node 2, Type 0, BuildingBlock: AZAVOO_clean_sbu_0, # of connection points: 4
#     Node 3, Type 0, BuildingBlock: AZAVOO_clean_sbu_0, # of connection points: 4
#     Node 4, Type 0, BuildingBlock: AZAVOO_clean_sbu_0, # of connection points: 4
#     Node 5, Type 0, BuildingBlock: AZAVOO_clean_sbu_0, # of connection points: 4
#     Node 6, Type 0, BuildingBlock: AZAVOO_clean_sbu_0, # of connection points: 4
#     Node 7, Type 0, BuildingBlock: AZAVOO_clean_sbu_0, # of connection points: 4
#     Node 8, Type 0, BuildingBlock: AZAVOO_clean_sbu_0, # of connection points: 4
#     Node 9, Type 0, BuildingBlock: AZAVOO_clean_sbu_0, # of connection points: 4
#     Node 10, Type 0, BuildingBlock: AZAVOO_clean_sbu_0, # of connection points: 4
#     Node 11, Type 0, BuildingBlock: AZAVOO_clean_sbu_0, # of connection points: 4
#     Node 12, Type 0, BuildingBlock: AZAVOO_clean_sbu_0, # of connection points: 4
#     Node 13, Type 0, BuildingBlock: AZAVOO_clean_sbu_0, # of connection points: 4
#     Node 14, Type 0, BuildingBlock: AZAVOO_clean_sbu_0, # of connection points: 4
#     Node 15, Type 0, BuildingBlock: AZAVOO_clean_sbu_0, # of connection points: 4
#     Node 16, Type 0, BuildingBlock: AZAVOO_clean_sbu_0, # of connection points: 4
#     Node 17, Type 0, BuildingBlock: AZAVOO_clean_sbu_0, # of connection points: 4
#     Node 18, Type 1, BuildingBlock: NAWXER_clean_linker_0, # of connection points: 4
#     Node 19, Type 1, BuildingBlock: NAWXER_clean_linker_0, # of connection points: 4
#     Node 20, Type 1, BuildingBlock: NAWXER_clean_linker_0, # of connection points: 4
#     Node 21, Type 1, BuildingBlock: NAWXER_clean_linker_0, # of connection points: 4
#     Node 22, Type 1, BuildingBlock: NAWXER_clean_linker_0, # of connection points: 4
#     Node 23, Type 1, BuildingBlock: NAWXER_clean_linker_0, # of connection points: 4
#     Node 24, Type 1, BuildingBlock: NAWXER_clean_linker_0, # of connection points: 4
#     Node 25, Type 1, BuildingBlock: NAWXER_clean_linker_0, # of connection points: 4
#     Node 26, Type 1, BuildingBlock: NAWXER_clean_linker_0, # of connection points: 4
#     Node 27, Type 1, BuildingBlock: NAWXER_clean_linker_0, # of connection points: 4
#     Node 28, Type 1, BuildingBlock: NAWXER_clean_linker_0, # of connection points: 4
#     Node 29, Type 1, BuildingBlock: NAWXER_clean_linker_0, # of connection points: 4
#     Node 30, Type 1, BuildingBlock: NAWXER_clean_linker_0, # of connection points: 4
#     Node 31, Type 1, BuildingBlock: NAWXER_clean_linker_0, # of connection points: 4
#     Node 32, Type 1, BuildingBlock: NAWXER_clean_linker_0, # of connection points: 4
#     Node 33, Type 1, BuildingBlock: NAWXER_clean_linker_0, # of connection points: 4
#     Node 34, Type 1, BuildingBlock: NAWXER_clean_linker_0, # of connection points: 4
#     Node 35, Type 1, BuildingBlock: NAWXER_clean_linker_0, # of connection points: 4
#     Edge 36, Type (0, 1), BuildingBlock: ZUJKAS_clean_linker_0, # of connection points: 2
#     Edge 37, Type (0, 1), BuildingBlock: ZUJKAS_clean_linker_0, # of connection points: 2
#     Edge 38, Type (0, 1), BuildingBlock: ZUJKAS_clean_linker_0, # of connection points: 2
#     Edge 39, Type (0, 1), BuildingBlock: ZUJKAS_clean_linker_0, # of connection points: 2
#     Edge 40, Type (0, 1), BuildingBlock: ZUJKAS_clean_linker_0, # of connection points: 2
#     Edge 41, Type (0, 1), BuildingBlock: ZUJKAS_clean_linker_0, # of connection points: 2
#     Edge 42, Type (0, 1), BuildingBlock: ZUJKAS_clean_linker_0, # of connection points: 2
#     Edge 43, Type (0, 1), BuildingBlock: ZUJKAS_clean_linker_0, # of connection points: 2
#     Edge 44, Type (0, 1), BuildingBlock: ZUJKAS_clean_linker_0, # of connection points: 2
#     Edge 45, Type (0, 1), BuildingBlock: ZUJKAS_clean_linker_0, # of connection points: 2
#     Edge 46, Type (0, 1), BuildingBlock: ZUJKAS_clean_linker_0, # of connection points: 2
#     Edge 47, Type (0, 1), BuildingBlock: ZUJKAS_clean_linker_0, # of connection points: 2
#     Edge 48, Type (0, 1), BuildingBlock: ZUJKAS_clean_linker_0, # of connection points: 2
#     Edge 49, Type (0, 1), BuildingBlock: ZUJKAS_clean_linker_0, # of connection points: 2
#     Edge 50, Type (0, 1), BuildingBlock: ZUJKAS_clean_linker_0, # of connection points: 2
#     Edge 51, Type (0, 1), BuildingBlock: ZUJKAS_clean_linker_0, # of connection points: 2
#     Edge 52, Type (0, 1), BuildingBlock: ZUJKAS_clean_linker_0, # of connection points: 2
#     Edge 53, Type (0, 1), BuildingBlock: ZUJKAS_clean_linker_0, # of connection points: 2
#     Edge 54, Type (0, 1), BuildingBlock: ZUJKAS_clean_linker_0, # of connection points: 2
#     Edge 55, Type (0, 1), BuildingBlock: ZUJKAS_clean_linker_0, # of connection points: 2
#     Edge 56, Type (0, 1), BuildingBlock: ZUJKAS_clean_linker_0, # of connection points: 2
#     Edge 57, Type (0, 1), BuildingBlock: ZUJKAS_clean_linker_0, # of connection points: 2
#     Edge 58, Type (0, 1), BuildingBlock: ZUJKAS_clean_linker_0, # of connection points: 2
#     Edge 59, Type (0, 1), BuildingBlock: ZUJKAS_clean_linker_0, # of connection points: 2
#     Edge 60, Type (0, 1), BuildingBlock: ZUJKAS_clean_linker_0, # of connection points: 2
#     Edge 61, Type (0, 1), BuildingBlock: ZUJKAS_clean_linker_0, # of connection points: 2
#     Edge 62, Type (0, 1), BuildingBlock: ZUJKAS_clean_linker_0, # of connection points: 2
#     Edge 63, Type (0, 1), BuildingBlock: ZUJKAS_clean_linker_0, # of connection points: 2
#     Edge 64, Type (0, 1), BuildingBlock: ZUJKAS_clean_linker_0, # of connection points: 2
#     Edge 65, Type (0, 1), BuildingBlock: ZUJKAS_clean_linker_0, # of connection points: 2
#     Edge 66, Type (0, 1), BuildingBlock: ZUJKAS_clean_linker_0, # of connection points: 2
#     Edge 67, Type (0, 1), BuildingBlock: ZUJKAS_clean_linker_0, # of connection points: 2
#     Edge 68, Type (0, 1), BuildingBlock: ZUJKAS_clean_linker_0, # of connection points: 2
#     Edge 69, Type (0, 1), BuildingBlock: ZUJKAS_clean_linker_0, # of connection points: 2
#     Edge 70, Type (0, 1), BuildingBlock: ZUJKAS_clean_linker_0, # of connection points: 2
#     Edge 71, Type (0, 1), BuildingBlock: ZUJKAS_clean_linker_0, # of connection points: 2
#     Edge 72, Type (0, 1), BuildingBlock: ZUJKAS_clean_linker_0, # of connection points: 2
#     Edge 73, Type (0, 1), BuildingBlock: ZUJKAS_clean_linker_0, # of connection points: 2
#     Edge 74, Type (0, 1), BuildingBlock: ZUJKAS_clean_linker_0, # of connection points: 2
#     Edge 75, Type (0, 1), BuildingBlock: ZUJKAS_clean_linker_0, # of connection points: 2
#     Edge 76, Type (0, 1), BuildingBlock: ZUJKAS_clean_linker_0, # of connection points: 2
#     Edge 77, Type (0, 1), BuildingBlock: ZUJKAS_clean_linker_0, # of connection points: 2
#     Edge 78, Type (0, 1), BuildingBlock: ZUJKAS_clean_linker_0, # of connection points: 2
#     Edge 79, Type (0, 1), BuildingBlock: ZUJKAS_clean_linker_0, # of connection points: 2
#     Edge 80, Type (0, 1), BuildingBlock: ZUJKAS_clean_linker_0, # of connection points: 2
#     Edge 81, Type (0, 1), BuildingBlock: ZUJKAS_clean_linker_0, # of connection points: 2
#     Edge 82, Type (0, 1), BuildingBlock: ZUJKAS_clean_linker_0, # of connection points: 2
#     Edge 83, Type (0, 1), BuildingBlock: ZUJKAS_clean_linker_0, # of connection points: 2
#     Edge 84, Type (0, 1), BuildingBlock: ZUJKAS_clean_linker_0, # of connection points: 2
#     Edge 85, Type (0, 1), BuildingBlock: ZUJKAS_clean_linker_0, # of connection points: 2
#     Edge 86, Type (0, 1), BuildingBlock: ZUJKAS_clean_linker_0, # of connection points: 2
#     Edge 87, Type (0, 1), BuildingBlock: ZUJKAS_clean_linker_0, # of connection points: 2
#     Edge 88, Type (0, 1), BuildingBlock: ZUJKAS_clean_linker_0, # of connection points: 2
#     Edge 89, Type (0, 1), BuildingBlock: ZUJKAS_clean_linker_0, # of connection points: 2
#     Edge 90, Type (0, 1), BuildingBlock: ZUJKAS_clean_linker_0, # of connection points: 2
#     Edge 91, Type (0, 1), BuildingBlock: ZUJKAS_clean_linker_0, # of connection points: 2
#     Edge 92, Type (0, 1), BuildingBlock: ZUJKAS_clean_linker_0, # of connection points: 2
#     Edge 93, Type (0, 1), BuildingBlock: ZUJKAS_clean_linker_0, # of connection points: 2
#     Edge 94, Type (0, 1), BuildingBlock: ZUJKAS_clean_linker_0, # of connection points: 2
#     Edge 95, Type (0, 1), BuildingBlock: ZUJKAS_clean_linker_0, # of connection points: 2
#     Edge 96, Type (0, 1), BuildingBlock: ZUJKAS_clean_linker_0, # of connection points: 2
#     Edge 97, Type (0, 1), BuildingBlock: ZUJKAS_clean_linker_0, # of connection points: 2
#     Edge 98, Type (0, 1), BuildingBlock: ZUJKAS_clean_linker_0, # of connection points: 2
#     Edge 99, Type (0, 1), BuildingBlock: ZUJKAS_clean_linker_0, # of connection points: 2
#     Edge 100, Type (0, 1), BuildingBlock: ZUJKAS_clean_linker_0, # of connection points: 2
#     Edge 101, Type (0, 1), BuildingBlock: ZUJKAS_clean_linker_0, # of connection points: 2
#     Edge 102, Type (0, 1), BuildingBlock: ZUJKAS_clean_linker_0, # of connection points: 2
#     Edge 103, Type (0, 1), BuildingBlock: ZUJKAS_clean_linker_0, # of connection points: 2
#     Edge 104, Type (0, 1), BuildingBlock: ZUJKAS_clean_linker_0, # of connection points: 2
#     Edge 105, Type (0, 1), BuildingBlock: ZUJKAS_clean_linker_0, # of connection points: 2
#     Edge 106, Type (0, 1), BuildingBlock: ZUJKAS_clean_linker_0, # of connection points: 2
#     Edge 107, Type (0, 1), BuildingBlock: ZUJKAS_clean_linker_0, # of connection points: 2
# Relax obj value: 0.082
# Max RMSD: 0.297
# Mean RMSD: 0.120
data_MOF--net-ptr--node1-AZAVOO_clean_sbu_0--node2-NAWXER_clean_linker_0--edge1-ZUJKAS_clean_linker_0
_symmetry_space_group_name_H-M    P1
_symmetry_Int_Tables_number       1
_symmetry_cell_setting            triclinic
loop_
_symmetry_equiv_pos_as_xyz
'x, y, z'
_cell_length_a     109.83404
_cell_length_b     107.93303
_cell_length_c     77.281811
_cell_angle_alpha  91.056039
_cell_angle_beta   90.723501
_cell_angle_gamma 120.12629
loop_
_atom_site_label
_atom_site_type_symbol
_atom_site_fract_x
_atom_site_fract_y
_atom_site_fract_z
_atom_type_partial_charge
Mg0 Mg 0.01795 0.3402 0.98444 0.0
O1 O 0.00681 0.34617 0.00531 0.0
O2 O 0.99013 0.34874 0.9918 0.0
Mg3 Mg 0.99039 0.34432 0.96284 0.0
C4 C 0.99684 0.34904 0.00556 0.0
C5 C 0.03525 0.32768 -0.00018 0.0
O6 O 0.03594 0.32592 0.98306 0.0
O7 O -0.00065 0.31736 0.98168 0.0
O8 O 0.98341 0.32073 0.96759 0.0
O9 O 0.03275 0.36355 0.98069 0.0
O10 O 0.01273 0.35067 0.96595 0.0
C11 C 0.98726 0.31248 0.97436 0.0
C12 C 0.02359 0.36301 0.96953 0.0
O13 O 0.02834 0.3335 0.00515 0.0
Mg14 Mg 0.66361 0.65816 0.03916 0.0
O15 O 0.64495 0.65026 0.01983 0.0
O16 O 0.62608 0.64587 0.03503 0.0
Mg17 Mg 0.63239 0.65002 0.06378 0.0
C18 C 0.63189 0.6463 0.02066 0.0
C19 C 0.67909 0.65851 0.00541 0.0
O20 O 0.66956 0.64482 0.00543 0.0
O21 O 0.66466 0.6796 0.04274 0.0
O22 O 0.64636 0.67421 0.05954 0.0
O23 O 0.65915 0.63583 0.0425 0.0
O24 O 0.64985 0.6461 0.05832 0.0
C25 C 0.65728 0.68334 0.05165 0.0
C26 C 0.65055 0.63481 0.05443 0.0
O27 O 0.67913 0.66679 0.01734 0.0
Mg28 Mg 0.33674 0.9835 0.98597 0.0
O29 O 0.35449 0.99455 0.00651 0.0
O30 O 0.37434 0.00922 0.99312 0.0
Mg31 Mg 0.36922 0.00773 0.96411 0.0
C32 C 0.36767 0.00361 0.00687 0.0
C33 C 0.31966 0.96718 0.01819 0.0
O34 O 0.32823 0.96202 0.01748 0.0
O35 O 0.33558 0.00378 0.98286 0.0
O36 O 0.35519 0.01762 0.9685 0.0
O37 O 0.34229 0.96629 0.98222 0.0
O38 O 0.3511 0.9861 0.9673 0.0
C39 C 0.34373 0.0154 0.9753 0.0
C40 C 0.35093 0.9744 0.97069 0.0
O41 O 0.32065 0.97616 0.00711 0.0
Mg42 Mg 0.98982 0.66553 0.03229 0.0
O43 O 2e-05 0.65809 0.01183 0.0
O44 O 0.01488 0.65305 0.02579 0.0
Mg45 Mg 0.01447 0.65746 0.05473 0.0
C46 C 0.00893 0.65377 0.01184 0.0
C47 C 0.97327 0.66553 0.99905 0.0
O48 O 0.97045 0.65217 0.99834 0.0
O49 O 0.00985 0.68736 0.03577 0.0
O50 O 0.02389 0.68156 0.05036 0.0
O51 O 0.97314 0.64267 0.03549 0.0
O52 O 0.99299 0.6537 0.05098 0.0
C53 C 0.02151 0.69087 0.04355 0.0
C54 C 0.98146 0.64205 0.04703 0.0
O55 O 0.98126 0.67383 0.01121 0.0
Mg56 Mg 0.33857 0.35122 0.97986 0.0
O57 O 0.3576 0.35685 0.99772 0.0
O58 O 0.3761 0.36265 0.98109 0.0
Mg59 Mg 0.36883 0.36049 0.95273 0.0
C60 C 0.37061 0.3609 0.99597 0.0
C61 C 0.31119 0.33214 0.99879 0.0
O62 O 0.3073 0.32828 0.98251 0.0
O63 O 0.33646 0.32971 0.97259 0.0
O64 O 0.35449 0.33607 0.95495 0.0
O65 O 0.34442 0.37428 0.97993 0.0
O66 O 0.35172 0.36413 0.96081 0.0
C67 C 0.34356 0.32649 0.96239 0.0
C68 C 0.3521 0.37554 0.96675 0.0
O69 O 0.32389 0.34158 0.00235 0.0
Mg70 Mg 0.66271 0.00752 0.0298 0.0
O71 O 0.64568 0.99621 0.00864 0.0
O72 O 0.62668 0.97821 0.02035 0.0
Mg73 Mg 0.63135 0.97887 0.04945 0.0
C74 C 0.63314 0.9856 0.00735 0.0
C75 C 0.69189 0.02549 0.01372 0.0
O76 O 0.69529 0.02761 0.03031 0.0
O77 O 0.6668 0.9889 0.03073 0.0
O78 O 0.64802 0.97237 0.04441 0.0
O79 O 0.6545 0.02233 0.03522 0.0
O80 O 0.64738 0.00183 0.04826 0.0
C81 C 0.65996 0.97665 0.03751 0.0
C82 C 0.64611 0.01291 0.04594 0.0
O83 O 0.67901 0.01782 0.00913 0.0
Mg84 Mg 0.67421 0.67126 0.32451 0.0
O85 O 0.66226 0.67743 0.3441 0.0
O86 O 0.64788 0.68216 0.32845 0.0
Mg87 Mg 0.6502 0.67887 0.29972 0.0
C88 C 0.65298 0.68126 0.343 0.0
C89 C 0.6934 0.66237 0.34145 0.0
O90 O 0.69823 0.66637 0.32585 0.0
O91 O 0.65483 0.64915 0.31939 0.0
O92 O 0.64126 0.65476 0.30343 0.0
O93 O 0.69062 0.69438 0.32269 0.0
O94 O 0.67165 0.68338 0.30568 0.0
C95 C 0.64356 0.64551 0.31056 0.0
C96 C 0.68282 0.69509 0.31049 0.0
O97 O 0.68255 0.6629 0.34584 0.0
Mg98 Mg 0.32717 0.99298 0.37667 0.0
O99 O 0.30875 0.98578 0.35711 0.0
O100 O 0.29014 0.98301 0.37165 0.0
Mg101 Mg 0.29653 0.98826 0.40025 0.0
C102 C 0.29588 0.98261 0.35755 0.0
C103 C 0.35219 0.99583 0.35711 0.0
O104 O 0.35292 0.99046 0.37195 0.0
O105 O 0.33034 0.01551 0.37849 0.0
O106 O 0.31182 0.0118 0.39402 0.0
O107 O 0.32047 0.97021 0.38174 0.0
O108 O 0.31319 0.98289 0.39651 0.0
C109 C 0.32315 0.02015 0.38626 0.0
C110 C 0.31258 0.97079 0.39366 0.0
O111 O 0.3424 0.99866 0.35462 0.0
Mg112 Mg 0.00937 0.32037 0.31792 0.0
O113 O 0.02665 0.32963 0.33927 0.0
O114 O 0.04728 0.3424 0.32645 0.0
Mg115 Mg 0.04331 0.3412 0.29725 0.0
C116 C 0.04005 0.33754 0.34002 0.0
C117 C 0.98063 0.31234 0.33263 0.0
O118 O 0.97865 0.31338 0.31604 0.0
O119 O 0.01146 0.3422 0.31436 0.0
O120 O 0.03185 0.35394 0.30068 0.0
O121 O 0.01175 0.30104 0.31482 0.0
O122 O 0.02351 0.32084 0.30014 0.0
C123 C 0.02088 0.35334 0.30701 0.0
C124 C 0.02127 0.30826 0.30363 0.0
O125 O 0.99263 0.31474 0.33799 0.0
Mg126 Mg 0.65467 0.99062 0.36561 0.0
O127 O 0.66663 0.98469 0.34591 0.0
O128 O 0.6829 0.98229 0.36083 0.0
Mg129 Mg 0.6807 0.98549 0.38966 0.0
C130 C 0.67684 0.9822 0.34658 0.0
C131 C 0.63754 0.98817 0.33216 0.0
O132 O 0.63618 0.97536 0.33235 0.0
O133 O 0.67356 0.01336 0.36935 0.0
O134 O 0.68824 0.00919 0.38516 0.0
O135 O 0.63918 0.96741 0.36873 0.0
O136 O 0.65864 0.97955 0.38469 0.0
C137 C 0.68517 0.0178 0.37779 0.0
C138 C 0.64761 0.96746 0.38063 0.0
O139 O 0.64511 0.99736 0.34389 0.0
Mg140 Mg 0.01094 0.6787 0.31909 0.0
O141 O 0.02819 0.68622 0.3404 0.0
O142 O 0.04851 0.69262 0.32745 0.0
Mg143 Mg 0.04445 0.6899 0.29819 0.0
C144 C 0.04144 0.69092 0.34108 0.0
C145 C 0.98223 0.65763 0.335 0.0
O146 O 0.98023 0.65212 0.31921 0.0
O147 O 0.01122 0.65799 0.3145 0.0
O148 O 0.03125 0.66538 0.30039 0.0
O149 O 0.01457 0.70082 0.31692 0.0
O150 O 0.02577 0.69222 0.30173 0.0
C151 C 0.01986 0.65541 0.30657 0.0
C152 C 0.0241 0.7029 0.30581 0.0
O153 O 0.99404 0.66852 0.33917 0.0
Mg154 Mg 0.32946 0.35145 0.3624 0.0
O155 O 0.31082 0.33851 0.34354 0.0
O156 O 0.29213 0.32388 0.35886 0.0
Mg157 Mg 0.29879 0.32779 0.38755 0.0
C158 C 0.29788 0.32882 0.34442 0.0
C159 C 0.35711 0.36152 0.34342 0.0
O160 O 0.36089 0.36116 0.35951 0.0
O161 O 0.3318 0.33197 0.36675 0.0
O162 O 0.31351 0.31865 0.3834 0.0
O163 O 0.32329 0.36823 0.36527 0.0
O164 O 0.31591 0.34949 0.38192 0.0
C165 C 0.32465 0.32089 0.37571 0.0
C166 C 0.3155 0.36077 0.37781 0.0
O167 O 0.34443 0.35808 0.34004 0.0
Mg168 Mg 0.3471 0.01268 0.65884 0.0
O169 O 0.33537 0.01986 0.67746 0.0
O170 O 0.32054 0.02351 0.66118 0.0
Mg171 Mg 0.32225 0.01828 0.6329 0.0
C172 C 0.326 0.02353 0.67588 0.0
C173 C 0.3611 0.99813 0.67762 0.0
O174 O 0.36016 0.99363 0.66148 0.0
O175 O 0.32779 0.99031 0.6558 0.0
O176 O 0.3135 0.99456 0.63928 0.0
O177 O 0.36322 0.03556 0.65501 0.0
O178 O 0.34396 0.02344 0.63867 0.0
C179 C 0.31619 0.98596 0.6474 0.0
C180 C 0.35514 0.03545 0.6426 0.0
O181 O 0.35598 0.00608 0.68141 0.0
Mg182 Mg 0.99032 0.31992 0.70152 0.0
O183 O 0.97351 0.31332 0.67985 0.0
O184 O 0.95309 0.30722 0.69238 0.0
Mg185 Mg 0.9566 0.30904 0.72178 0.0
C186 C 0.96036 0.30906 0.67889 0.0
C187 C 0.0083 0.32247 0.66986 0.0
O188 O 0.99858 0.30885 0.6687 0.0
O189 O 0.99039 0.34081 0.70632 0.0
O190 O 0.97037 0.33356 0.72036 0.0
O191 O 0.98606 0.29747 0.7032 0.0
O192 O 0.9749 0.3062 0.71818 0.0
C193 C 0.98187 0.34351 0.71438 0.0
C194 C 0.97628 0.29538 0.7139 0.0
O195 O 0.00772 0.33026 0.68199 0.0
Mg196 Mg 0.68132 0.65266 0.65723 0.0
O197 O 0.6998 0.66728 0.67564 0.0
O198 O 0.71788 0.68212 0.6596 0.0
Mg199 Mg 0.71111 0.67674 0.6311 0.0
C200 C 0.71245 0.67754 0.67428 0.0
C201 C 0.65705 0.63275 0.68032 0.0
O202 O 0.65681 0.62372 0.66849 0.0
O203 O 0.67727 0.6708 0.6513 0.0
O204 O 0.69524 0.68455 0.63439 0.0
O205 O 0.68881 0.63692 0.65585 0.0
O206 O 0.69517 0.6548 0.638 0.0
C207 C 0.68386 0.68171 0.64189 0.0
C208 C 0.69634 0.64411 0.643 0.0
O209 O 0.66632 0.64591 0.67957 0.0
Mg210 Mg 0.32209 0.32902 0.69824 0.0
O211 O 0.33403 0.32294 0.67865 0.0
O212 O 0.34879 0.31858 0.69402 0.0
Mg213 Mg 0.34641 0.32174 0.72281 0.0
C214 C 0.3435 0.31937 0.67956 0.0
C215 C 0.30164 0.33553 0.67925 0.0
O216 O 0.29508 0.32917 0.69334 0.0
O217 O 0.34143 0.35115 0.70314 0.0
O218 O 0.35525 0.34584 0.71903 0.0
O219 O 0.3058 0.30587 0.70019 0.0
O220 O 0.32485 0.31706 0.71708 0.0
C221 C 0.35278 0.35495 0.71186 0.0
C222 C 0.31369 0.30529 0.71238 0.0
O223 O 0.31383 0.3373 0.67679 0.0
Mg224 Mg 0.68028 0.01452 0.6486 0.0
O225 O 0.69832 0.02069 0.66852 0.0
O226 O 0.71718 0.02427 0.65391 0.0
Mg227 Mg 0.71126 0.02024 0.62506 0.0
C228 C 0.71123 0.024 0.66809 0.0
C229 C 0.65482 0.01068 0.66775 0.0
O230 O 0.6549 0.01734 0.65365 0.0
O231 O 0.67702 0.9921 0.6449 0.0
O232 O 0.69575 0.99633 0.62946 0.0
O233 O 0.68722 0.03757 0.64534 0.0
O234 O 0.6946 0.0255 0.62948 0.0
C235 C 0.6842 0.98771 0.63666 0.0
C236 C 0.69525 0.03749 0.63328 0.0
O237 O 0.66442 0.00754 0.67005 0.0
Mg238 Mg 0.98626 0.6804 0.69311 0.0
O239 O 0.96748 0.66898 0.67392 0.0
O240 O 0.94816 0.6566 0.68936 0.0
Mg241 Mg 0.95447 0.66024 0.71812 0.0
C242 C 0.95419 0.66063 0.67487 0.0
C243 C 0.01369 0.68731 0.67575 0.0
O244 O 0.0164 0.68636 0.69213 0.0
O245 O 0.98557 0.65942 0.69834 0.0
O246 O 0.96666 0.64818 0.71479 0.0
O247 O 0.98303 0.69927 0.69514 0.0
O248 O 0.9733 0.68066 0.71213 0.0
C249 C 0.97731 0.64881 0.70741 0.0
C250 C 0.97467 0.69271 0.70768 0.0
O251 O 0.00158 0.68517 0.6714 0.0
C252 C 0.20344 0.30274 0.1329 0.0
C253 C 0.20144 0.29256 0.1199 0.0
C254 C 0.19218 0.30102 0.1428 0.0
C255 C 0.17872 0.28902 0.14001 0.0
C256 C 0.18792 0.28055 0.11713 0.0
C257 C 0.17665 0.27886 0.12702 0.0
C258 C 0.16662 0.28749 0.14984 0.0
C259 C 0.19545 0.28396 0.18994 0.0
C260 C 0.20007 0.29453 0.20326 0.0
C261 C 0.18483 0.28209 0.17812 0.0
C262 C 0.17877 0.29085 0.17938 0.0
C263 C 0.19416 0.30344 0.20418 0.0
C264 C 0.18359 0.30155 0.19245 0.0
C265 C 0.16679 0.28853 0.16809 0.0
C266 C 0.10767 0.27423 0.18399 0.0
C267 C 0.11087 0.28382 0.19815 0.0
C268 C 0.1184 0.27517 0.17354 0.0
C269 C 0.13248 0.28574 0.1771 0.0
C270 C 0.12497 0.29434 0.20166 0.0
C271 C 0.13565 0.29524 0.1913 0.0
C272 C 0.14413 0.28647 0.16697 0.0
C273 C 0.12097 0.29958 0.13052 0.0
C274 C 0.11477 0.29056 0.11582 0.0
C275 C 0.13031 0.29793 0.14133 0.0
C276 C 0.13357 0.28712 0.13781 0.0
C277 C 0.1181 0.27976 0.11227 0.0
C278 C 0.12748 0.27813 0.12312 0.0
C279 C 0.14417 0.286 0.1487 0.0
H280 H 0.21363 0.31228 0.13511 0.0
H281 H 0.19394 0.30924 0.15239 0.0
H282 H 0.18605 0.27245 0.10731 0.0
H283 H 0.16631 0.26959 0.12457 0.0
H284 H 0.19973 0.27687 0.18898 0.0
H285 H 0.18109 0.27357 0.16834 0.0
H286 H 0.19766 0.31187 0.21405 0.0
H287 H 0.17911 0.30846 0.19366 0.0
H288 H 0.09689 0.26604 0.18098 0.0
H289 H 0.11573 0.26751 0.16289 0.0
H290 H 0.1278 0.30173 0.21265 0.0
H291 H 0.14645 0.30338 0.1944 0.0
H292 H 0.11896 0.30823 0.13342 0.0
H293 H 0.13527 0.30538 0.1522 0.0
H294 H 0.11345 0.27257 0.10112 0.0
H295 H 0.12998 0.26983 0.12003 0.0
N296 N 0.15533 0.2863 0.14083 0.0
N297 N 0.1555 0.28788 0.17588 0.0
C298 C 0.7013 0.89873 0.14484 0.0
C299 C 0.71168 0.90505 0.13228 0.0
C300 C 0.70188 0.88951 0.15681 0.0
C301 C 0.71295 0.88655 0.15662 0.0
C302 C 0.72284 0.9022 0.13223 0.0
C303 C 0.72342 0.89298 0.14424 0.0
C304 C 0.71276 0.87548 0.16777 0.0
C305 C 0.71684 0.90983 0.2065 0.0
C306 C 0.70455 0.90516 0.21616 0.0
C307 C 0.71864 0.9001 0.19615 0.0
C308 C 0.70826 0.88555 0.19541 0.0
C309 C 0.69401 0.89062 0.21482 0.0
C310 C 0.69595 0.88091 0.20476 0.0
C311 C 0.71033 0.87487 0.1857 0.0
C312 C 0.71893 0.82589 0.20629 0.0
C313 C 0.70879 0.82005 0.21919 0.0
C314 C 0.71965 0.83664 0.19579 0.0
C315 C 0.7101 0.8416 0.1978 0.0
C316 C 0.69945 0.82526 0.22141 0.0
C317 C 0.70014 0.83595 0.21087 0.0
C318 C 0.71068 0.85297 0.18678 0.0
C319 C 0.69769 0.81557 0.15014 0.0
C320 C 0.70686 0.81774 0.13652 0.0
C321 C 0.69969 0.82702 0.16084 0.0
C322 C 0.71104 0.84087 0.15835 0.0
C323 C 0.7182 0.83162 0.13397 0.0
C324 C 0.72023 0.84309 0.14476 0.0
C325 C 0.71241 0.85321 0.16867 0.0
H326 H 0.69239 0.90044 0.14498 0.0
H327 H 0.69334 0.88423 0.16572 0.0
H328 H 0.73103 0.90697 0.12279 0.0
H329 H 0.73195 0.89069 0.14371 0.0
H330 H 0.72526 0.92088 0.20734 0.0
H331 H 0.7283 0.90386 0.18914 0.0
H332 H 0.68425 0.88665 0.22163 0.0
H333 H 0.68778 0.86972 0.20426 0.0
H334 H 0.72643 0.82228 0.20447 0.0
H335 H 0.72774 0.84113 0.18619 0.0
H336 H 0.69143 0.82089 0.23111 0.0
H337 H 0.69272 0.83966 0.21276 0.0
H338 H 0.68866 0.80508 0.15218 0.0
H339 H 0.69208 0.82508 0.17072 0.0
H340 H 0.72546 0.83361 0.12362 0.0
H341 H 0.72892 0.85372 0.14243 0.0
N342 N 0.71363 0.86458 0.15995 0.0
N343 N 0.70949 0.8637 0.19452 0.0
C344 C 0.12078 0.82215 0.14291 0.0
C345 C 0.11489 0.82453 0.12797 0.0
C346 C 0.12988 0.83356 0.15393 0.0
C347 C 0.13314 0.8476 0.15044 0.0
C348 C 0.11809 0.83859 0.12451 0.0
C349 C 0.12725 0.85004 0.13558 0.0
C350 C 0.14373 0.85979 0.16135 0.0
C351 C 0.10717 0.83435 0.19643 0.0
C352 C 0.11057 0.82775 0.20971 0.0
C353 C 0.11777 0.84481 0.18643 0.0
C354 C 0.13191 0.84884 0.18961 0.0
C355 C 0.12478 0.83184 0.2127 0.0
C356 C 0.13531 0.84236 0.20289 0.0
C357 C 0.14342 0.86002 0.17961 0.0
C358 C 0.19634 0.91547 0.20064 0.0
C359 C 0.20064 0.91023 0.21458 0.0
C360 C 0.18518 0.90603 0.18955 0.0
C361 C 0.17817 0.8912 0.19223 0.0
C362 C 0.19348 0.89541 0.21727 0.0
C363 C 0.18235 0.88603 0.20627 0.0
C364 C 0.16626 0.88087 0.18089 0.0
C365 C 0.20417 0.89867 0.14759 0.0
C366 C 0.20339 0.90557 0.13272 0.0
C367 C 0.1923 0.8908 0.15748 0.0
C368 C 0.17946 0.88992 0.15296 0.0
C369 C 0.19052 0.90468 0.12821 0.0
C370 C 0.17864 0.89686 0.1382 0.0
C371 C 0.16663 0.88066 0.16262 0.0
H372 H 0.11843 0.81144 0.14605 0.0
H373 H 0.13464 0.83141 0.16497 0.0
H374 H 0.11383 0.84078 0.11301 0.0
H375 H 0.12982 0.86082 0.13247 0.0
H376 H 0.09637 0.83158 0.19389 0.0
H377 H 0.11495 0.84985 0.17639 0.0
H378 H 0.12781 0.82676 0.22247 0.0
H379 H 0.14616 0.84526 0.2055 0.0
H380 H 0.20165 0.92684 0.19827 0.0
H381 H 0.18198 0.91031 0.17899 0.0
H382 H 0.19632 0.89105 0.22808 0.0
H383 H 0.17705 0.87465 0.20868 0.0
H384 H 0.21394 0.89921 0.15151 0.0
H385 H 0.19311 0.88512 0.16845 0.0
H386 H 0.18951 0.90968 0.11668 0.0
H387 H 0.16877 0.89608 0.1343 0.0
N388 N 0.1553 0.87019 0.15355 0.0
N389 N 0.15468 0.87051 0.18861 0.0
C390 C 0.30472 0.10569 0.81994 0.0
C391 C 0.29411 0.09689 0.80772 0.0
C392 C 0.30332 0.1156 0.83036 0.0
C393 C 0.29124 0.11687 0.82887 0.0
C394 C 0.28197 0.09815 0.80637 0.0
C395 C 0.28062 0.10813 0.81674 0.0
C396 C 0.29019 0.12804 0.83901 0.0
C397 C 0.28903 0.09645 0.87729 0.0
C398 C 0.30033 0.10254 0.88941 0.0
C399 C 0.28628 0.10522 0.86674 0.0
C400 C 0.29487 0.12019 0.86808 0.0
C401 C 0.30864 0.11753 0.89099 0.0
C402 C 0.30591 0.12624 0.88049 0.0
C403 C 0.29234 0.12982 0.85716 0.0
C404 C 0.28558 0.18133 0.87331 0.0
C405 C 0.29614 0.18764 0.88634 0.0
C406 C 0.28381 0.16944 0.86358 0.0
C407 C 0.29281 0.1639 0.86645 0.0
C408 C 0.30486 0.18183 0.88949 0.0
C409 C 0.30321 0.1701 0.87966 0.0
C410 C 0.2914 0.15142 0.85631 0.0
C411 C 0.30173 0.18548 0.81751 0.0
C412 C 0.29099 0.18207 0.80506 0.0
C413 C 0.30115 0.175 0.82832 0.0
C414 C 0.28972 0.16092 0.82706 0.0
C415 C 0.27962 0.16793 0.8037 0.0
C416 C 0.27906 0.15741 0.81452 0.0
C417 C 0.28936 0.14971 0.83813 0.0
H418 H 0.31434 0.10527 0.8211 0.0
H419 H 0.31185 0.12253 0.83927 0.0
H420 H 0.27352 0.09145 0.79725 0.0
H421 H 0.27128 0.10904 0.81529 0.0
H422 H 0.28247 0.08493 0.87576 0.0
H423 H 0.27747 0.1003 0.85759 0.0
H424 H 0.31726 0.12254 0.90042 0.0
H425 H 0.31257 0.13777 0.88191 0.0
H426 H 0.2786 0.1855 0.87077 0.0
H427 H 0.27538 0.16457 0.8539 0.0
H428 H 0.31319 0.18657 0.89931 0.0
H429 H 0.31025 0.16601 0.88223 0.0
H430 H 0.31058 0.1963 0.81898 0.0
H431 H 0.30969 0.17787 0.8376 0.0
H432 H 0.27127 0.16494 0.79408 0.0
H433 H 0.27027 0.14655 0.81316 0.0
N434 N 0.28869 0.13802 0.83021 0.0
N435 N 0.29285 0.14142 0.86502 0.0
C436 C 0.89818 0.16925 0.88643 0.0
C437 C 0.894 0.1763 0.89841 0.0
C438 C 0.88813 0.15778 0.87606 0.0
C439 C 0.87375 0.15326 0.87739 0.0
C440 C 0.87957 0.17136 0.90013 0.0
C441 C 0.86957 0.15996 0.88979 0.0
C442 C 0.86283 0.14152 0.86621 0.0
C443 C 0.88928 0.17673 0.83014 0.0
C444 C 0.89464 0.17281 0.81602 0.0
C445 C 0.8794 0.16629 0.84072 0.0
C446 C 0.87508 0.15175 0.83779 0.0
C447 C 0.89021 0.15829 0.81285 0.0
C448 C 0.88055 0.14785 0.8237 0.0
C449 C 0.86376 0.14047 0.84805 0.0
C450 C 0.80544 0.09834 0.82405 0.0
C451 C 0.80787 0.09002 0.81184 0.0
C452 C 0.81609 0.10757 0.8358 0.0
C453 C 0.82936 0.10862 0.83565 0.0
C454 C 0.82114 0.09098 0.81193 0.0
C455 C 0.8318 0.10028 0.82361 0.0
C456 C 0.84106 0.11928 0.84694 0.0
C457 C 0.80921 0.08692 0.88277 0.0
C458 C 0.80459 0.0929 0.89559 0.0
C459 C 0.82069 0.09578 0.87263 0.0
C460 C 0.82749 0.11076 0.87492 0.0
C461 C 0.81142 0.10786 0.89786 0.0
C462 C 0.82274 0.11668 0.88765 0.0
C463 C 0.84002 0.1205 0.86501 0.0
H464 H 0.90922 0.17281 0.88479 0.0
H465 H 0.8916 0.15255 0.8669 0.0
H466 H 0.87597 0.17633 0.90949 0.0
H467 H 0.85854 0.15656 0.89124 0.0
H468 H 0.8923 0.18784 0.83257 0.0
H469 H 0.87483 0.1696 0.85085 0.0
H470 H 0.89415 0.15504 0.80193 0.0
H471 H 0.87718 0.13669 0.82094 0.0
H472 H 0.79548 0.09811 0.82415 0.0
H473 H 0.81408 0.11419 0.84465 0.0
H474 H 0.82334 0.08461 0.80289 0.0
H475 H 0.842 0.10102 0.8232 0.0
H476 H 0.8042 0.0754 0.88092 0.0
H477 H 0.82439 0.09091 0.86329 0.0
H478 H 0.80797 0.11276 0.9075 0.0
H479 H 0.82781 0.12819 0.88971 0.0
N480 N 0.85096 0.13155 0.87387 0.0
N481 N 0.8529 0.12928 0.8392 0.0
C482 C 0.80722 0.71695 0.89194 0.0
C483 C 0.80046 0.70426 0.90128 0.0
C484 C 0.81942 0.72044 0.8829 0.0
C485 C 0.82501 0.71125 0.88293 0.0
C486 C 0.80633 0.69531 0.90169 0.0
C487 C 0.81853 0.69881 0.89268 0.0
C488 C 0.83752 0.71441 0.87276 0.0
C489 C 0.80344 0.70384 0.83259 0.0
C490 C 0.80625 0.71451 0.82056 0.0
C491 C 0.81388 0.70534 0.84434 0.0
C492 C 0.82729 0.7177 0.84459 0.0
C493 C 0.81957 0.72703 0.82109 0.0
C494 C 0.83 0.72856 0.83294 0.0
C495 C 0.83894 0.71846 0.8553 0.0
C496 C 0.88556 0.71136 0.8298 0.0
C497 C 0.8926 0.72345 0.81949 0.0
C498 C 0.8758 0.71049 0.84181 0.0
C499 C 0.87302 0.72177 0.8439 0.0
C500 C 0.89001 0.73487 0.82185 0.0
C501 C 0.88021 0.73397 0.83386 0.0
C502 C 0.86144 0.72015 0.85489 0.0
C503 C 0.8942 0.72001 0.89012 0.0
C504 C 0.8894 0.70696 0.89851 0.0
C505 C 0.88466 0.72303 0.88171 0.0
C506 C 0.87016 0.71302 0.8815 0.0
C507 C 0.87485 0.69715 0.89862 0.0
C508 C 0.86535 0.70019 0.89029 0.0
C509 C 0.85984 0.71567 0.87219 0.0
H510 H 0.80294 0.72405 0.89136 0.0
H511 H 0.82441 0.73026 0.87577 0.0
H512 H 0.80151 0.6856 0.90904 0.0
H513 H 0.82274 0.69163 0.89303 0.0
H514 H 0.79326 0.69412 0.83262 0.0
H515 H 0.8116 0.69655 0.85273 0.0
H516 H 0.82215 0.73536 0.81184 0.0
H517 H 0.84033 0.73808 0.83269 0.0
H518 H 0.88742 0.70245 0.82838 0.0
H519 H 0.87009 0.70078 0.84903 0.0
H520 H 0.89517 0.74424 0.81396 0.0
H521 H 0.87803 0.74268 0.83507 0.0
H522 H 0.90534 0.72778 0.88981 0.0
H523 H 0.88862 0.73315 0.87534 0.0
H524 H 0.8708 0.68713 0.90525 0.0
H525 H 0.85421 0.69236 0.89044 0.0
N526 N 0.84795 0.71301 0.88046 0.0
N527 N 0.85093 0.72136 0.84715 0.0
C528 C 0.77264 0.61057 0.45481 0.0
C529 C 0.77729 0.62258 0.44435 0.0
C530 C 0.78234 0.60818 0.46393 0.0
C531 C 0.79687 0.61789 0.46298 0.0
C532 C 0.79185 0.63207 0.44313 0.0
C533 C 0.80151 0.62972 0.45228 0.0
C534 C 0.80739 0.61593 0.47291 0.0
C535 C 0.7824 0.62305 0.51398 0.0
C536 C 0.77604 0.61201 0.52589 0.0
C537 C 0.79188 0.6231 0.50208 0.0
C538 C 0.79497 0.61196 0.50166 0.0
C539 C 0.77902 0.60078 0.52529 0.0
C540 C 0.78844 0.60079 0.51332 0.0
C541 C 0.80624 0.61276 0.49068 0.0
C542 C 0.864 0.62883 0.51315 0.0
C543 C 0.86106 0.61865 0.52593 0.0
C544 C 0.85363 0.62692 0.50099 0.0
C545 C 0.84013 0.61473 0.50126 0.0
C546 C 0.84769 0.60619 0.52573 0.0
C547 C 0.83731 0.60432 0.51361 0.0
C548 C 0.82846 0.61379 0.49045 0.0
C549 C 0.85794 0.61081 0.45343 0.0
C550 C 0.864 0.622 0.44167 0.0
C551 C 0.8467 0.60898 0.4635 0.0
C552 C 0.84145 0.61843 0.46217 0.0
C553 C 0.85859 0.63131 0.4402 0.0
C554 C 0.84739 0.6295 0.45029 0.0
C555 C 0.82948 0.6166 0.4726 0.0
H556 H 0.76151 0.60292 0.45579 0.0
H557 H 0.77848 0.59875 0.4717 0.0
H558 H 0.79579 0.64151 0.43536 0.0
H559 H 0.81265 0.63734 0.45128 0.0
H560 H 0.78052 0.63199 0.51436 0.0
H561 H 0.79718 0.63212 0.49368 0.0
H562 H 0.77421 0.59209 0.53424 0.0
H563 H 0.79083 0.59219 0.51336 0.0
H564 H 0.87408 0.63867 0.51308 0.0
H565 H 0.85596 0.63534 0.49195 0.0
H566 H 0.84513 0.59804 0.53523 0.0
H567 H 0.82694 0.59489 0.51416 0.0
H568 H 0.86172 0.60332 0.45463 0.0
H569 H 0.84202 0.60008 0.47217 0.0
H570 H 0.86314 0.64013 0.43141 0.0
H571 H 0.84348 0.63687 0.44897 0.0
N572 N 0.81897 0.61769 0.46458 0.0
N573 N 0.8168 0.61182 0.4987 0.0
C574 C 0.36471 0.23536 0.47982 0.0
C575 C 0.37409 0.24214 0.46635 0.0
C576 C 0.36677 0.22658 0.49107 0.0
C577 C 0.37835 0.22454 0.48923 0.0
C578 C 0.38569 0.24011 0.46455 0.0
C579 C 0.38775 0.23132 0.47585 0.0
C580 C 0.37983 0.21416 0.49993 0.0
C581 C 0.38409 0.24916 0.53697 0.0
C582 C 0.37384 0.2442 0.54981 0.0
C583 C 0.38589 0.23945 0.52657 0.0
C584 C 0.37735 0.22461 0.5287 0.0
C585 C 0.36535 0.22935 0.55186 0.0
C586 C 0.36714 0.2197 0.5415 0.0
C587 C 0.37905 0.21399 0.51817 0.0
C588 C 0.38858 0.1648 0.53537 0.0
C589 C 0.3792 0.15918 0.5491 0.0
C590 C 0.38896 0.17565 0.52536 0.0
C591 C 0.37984 0.18095 0.52874 0.0
C592 C 0.3703 0.16472 0.55266 0.0
C593 C 0.37066 0.17552 0.54264 0.0
C594 C 0.37988 0.19229 0.51818 0.0
C595 C 0.36399 0.15442 0.48143 0.0
C596 C 0.37209 0.15638 0.4667 0.0
C597 C 0.36688 0.16598 0.49248 0.0
C598 C 0.3781 0.17974 0.48925 0.0
C599 C 0.38341 0.17014 0.46355 0.0
C600 C 0.38632 0.18173 0.47467 0.0
C601 C 0.38017 0.19222 0.4999 0.0
H602 H 0.35549 0.23644 0.48132 0.0
H603 H 0.35907 0.22103 0.50088 0.0
H604 H 0.39315 0.24526 0.45438 0.0
H605 H 0.39664 0.22972 0.47405 0.0
H606 H 0.39091 0.26053 0.53522 0.0
H607 H 0.39406 0.24353 0.51704 0.0
H608 H 0.3572 0.22514 0.56141 0.0
H609 H 0.36041 0.20832 0.54339 0.0
H610 H 0.39572 0.16091 0.53248 0.0
H611 H 0.39644 0.17994 0.51504 0.0
H612 H 0.36285 0.16052 0.56301 0.0
H613 H 0.36356 0.17945 0.54556 0.0
H614 H 0.35529 0.14394 0.48435 0.0
H615 H 0.36005 0.16419 0.50328 0.0
H616 H 0.38975 0.17201 0.45221 0.0
H617 H 0.39486 0.19231 0.47175 0.0
N618 N 0.38035 0.20327 0.49154 0.0
N619 N 0.37918 0.2031 0.52654 0.0
C620 C 0.79032 0.15419 0.46064 0.0
C621 C 0.7823 0.15613 0.44781 0.0
C622 C 0.80001 0.1657 0.4711 0.0
C623 C 0.80179 0.17942 0.46914 0.0
C624 C 0.78418 0.16991 0.44572 0.0
C625 C 0.79395 0.18148 0.45621 0.0
C626 C 0.8124 0.19164 0.47999 0.0
C627 C 0.77864 0.16277 0.51643 0.0
C628 C 0.78342 0.15754 0.52987 0.0
C629 C 0.78827 0.1736 0.50594 0.0
C630 C 0.80282 0.17915 0.50852 0.0
C631 C 0.79795 0.16316 0.53243 0.0
C632 C 0.80753 0.17386 0.5219 0.0
C633 C 0.81335 0.19101 0.49817 0.0
C634 C 0.86381 0.2474 0.5207 0.0
C635 C 0.86959 0.24196 0.53267 0.0
C636 C 0.85287 0.23811 0.50923 0.0
C637 C 0.84761 0.22326 0.50952 0.0
C638 C 0.86453 0.22714 0.53251 0.0
C639 C 0.85362 0.21791 0.52117 0.0
C640 C 0.8353 0.21297 0.49873 0.0
C641 C 0.86989 0.23643 0.46126 0.0
C642 C 0.86716 0.2444 0.44921 0.0
C643 C 0.85924 0.22673 0.47173 0.0
C644 C 0.84566 0.22486 0.47047 0.0
C645 C 0.85354 0.24256 0.44806 0.0
C646 C 0.84286 0.23278 0.45852 0.0
C647 C 0.83417 0.21385 0.48064 0.0
H648 H 0.78904 0.1437 0.46272 0.0
H649 H 0.80621 0.16389 0.48066 0.0
H650 H 0.77825 0.17177 0.43583 0.0
H651 H 0.79532 0.19203 0.4543 0.0
H652 H 0.76749 0.15872 0.5143 0.0
H653 H 0.78436 0.17778 0.49604 0.0
H654 H 0.80192 0.15919 0.54252 0.0
H655 H 0.81868 0.17797 0.52419 0.0
H656 H 0.8674 0.25875 0.52059 0.0
H657 H 0.84825 0.24247 0.50053 0.0
H658 H 0.86894 0.22261 0.54126 0.0
H659 H 0.84978 0.20651 0.52158 0.0
H660 H 0.88013 0.23729 0.4622 0.0
H661 H 0.86153 0.22039 0.48047 0.0
H662 H 0.85111 0.2486 0.43902 0.0
H663 H 0.8324 0.23137 0.45725 0.0
N664 N 0.82276 0.20315 0.47193 0.0
N665 N 0.82481 0.20164 0.50674 0.0
C666 C 0.96167 0.51381 0.14473 0.0
C667 C 0.97014 0.51966 0.13024 0.0
C668 C 0.96284 0.50375 0.15468 0.0
C669 C 0.97269 0.49955 0.15054 0.0
C670 C 0.97954 0.51493 0.12571 0.0
C671 C 0.98078 0.50498 0.13574 0.0
C672 C 0.9746 0.48942 0.16135 0.0
C673 C 0.98744 0.52822 0.19622 0.0
C674 C 0.98063 0.52554 0.21212 0.0
C675 C 0.98567 0.51686 0.18546 0.0
C676 C 0.97668 0.5026 0.19012 0.0
C677 C 0.97178 0.51133 0.2169 0.0
C678 C 0.96979 0.49997 0.20598 0.0
C679 C 0.97563 0.49043 0.17966 0.0
C680 C 0.99525 0.45018 0.19929 0.0
C681 C 0.98717 0.44424 0.21404 0.0
C682 C 0.99197 0.45806 0.18793 0.0
C683 C 0.98044 0.45997 0.19098 0.0
C684 C 0.97558 0.4461 0.21699 0.0
C685 C 0.9723 0.45396 0.20561 0.0
C686 C 0.97769 0.46945 0.1801 0.0
C687 C 0.97101 0.43256 0.14524 0.0
C688 C 0.98036 0.43666 0.13141 0.0
C689 C 0.96983 0.44286 0.15517 0.0
C690 C 0.97806 0.45748 0.15155 0.0
C691 C 0.98849 0.4513 0.12779 0.0
C692 C 0.98728 0.46157 0.13767 0.0
C693 C 0.97701 0.46861 0.16183 0.0
H694 H 0.95436 0.51722 0.14864 0.0
H695 H 0.95617 0.49939 0.16573 0.0
H696 H 0.98598 0.51895 0.11442 0.0
H697 H 0.98829 0.50173 0.13211 0.0
H698 H 0.99453 0.53911 0.19241 0.0
H699 H 0.99168 0.51928 0.17376 0.0
H700 H 0.96644 0.50902 0.22913 0.0
H701 H 0.96299 0.48909 0.21003 0.0
H702 H 0.00417 0.44884 0.19659 0.0
H703 H -0.00133 0.46295 0.17703 0.0
H704 H 0.96927 0.44181 0.22834 0.0
H705 H 0.9635 0.45552 0.20835 0.0
H706 H 0.96443 0.42136 0.1482 0.0
H707 H 0.96238 0.4394 0.16555 0.0
H708 H 0.99595 0.45488 0.11741 0.0
H709 H 0.99372 0.47277 0.13462 0.0
N710 N 0.9755 0.47864 0.15319 0.0
N711 N 0.97695 0.48029 0.18824 0.0
C712 C 0.47326 0.41961 0.15079 0.0
C713 C 0.4697 0.42478 0.13615 0.0
C714 C 0.48373 0.42913 0.1626 0.0
C715 C 0.49052 0.44401 0.16019 0.0
C716 C 0.47659 0.43961 0.1337 0.0
C717 C 0.48685 0.4491 0.14558 0.0
C718 C 0.50196 0.45448 0.17206 0.0
C719 C 0.46436 0.43262 0.20634 0.0
C720 C 0.46605 0.42501 0.21986 0.0
C721 C 0.47581 0.44176 0.19641 0.0
C722 C 0.48913 0.44337 0.19971 0.0
C723 C 0.47939 0.42653 0.22296 0.0
C724 C 0.49084 0.43572 0.21307 0.0
C725 C 0.50152 0.45394 0.19033 0.0
C726 C 0.54541 0.51318 0.21194 0.0
C727 C 0.55153 0.51089 0.22672 0.0
C728 C 0.53655 0.50179 0.20076 0.0
C729 C 0.53375 0.48784 0.20391 0.0
C730 C 0.54871 0.49691 0.22991 0.0
C731 C 0.53979 0.48546 0.21867 0.0
C732 C 0.52367 0.47569 0.19253 0.0
C733 C 0.56083 0.50223 0.15915 0.0
C734 C 0.55786 0.50952 0.14634 0.0
C735 C 0.54995 0.4914 0.16841 0.0
C736 C 0.53592 0.48761 0.16493 0.0
C737 C 0.54374 0.50566 0.14302 0.0
C738 C 0.53289 0.49471 0.15207 0.0
C739 C 0.52424 0.47605 0.17431 0.0
H740 H 0.4682 0.4082 0.15285 0.0
H741 H 0.48665 0.42483 0.17339 0.0
H742 H 0.47396 0.4439 0.12262 0.0
H743 H 0.49193 0.46049 0.14334 0.0
H744 H 0.45432 0.43194 0.20383 0.0
H745 H 0.47434 0.44788 0.18648 0.0
H746 H 0.48102 0.42071 0.23314 0.0
H747 H 0.50108 0.43693 0.2159 0.0
H748 H 0.54746 0.52382 0.20899 0.0
H749 H 0.53166 0.50388 0.18981 0.0
H750 H 0.55315 0.49477 0.24128 0.0
H751 H 0.53759 0.47475 0.22151 0.0
H752 H 0.57153 0.50473 0.16189 0.0
H753 H 0.55247 0.48587 0.17812 0.0
H754 H 0.54102 0.51121 0.13358 0.0
H755 H 0.52212 0.49195 0.14923 0.0
N756 N 0.51335 0.46553 0.16483 0.0
N757 N 0.51239 0.46455 0.19984 0.0
C758 C 0.46086 0.02196 0.22205 0.0
C759 C 0.45398 0.01011 0.23277 0.0
C760 C 0.47174 0.02346 0.21152 0.0
C761 C 0.47585 0.01306 0.21136 0.0
C762 C 0.45816 -0.00026 0.2326 0.0
C763 C 0.46904 0.00125 0.22207 0.0
C764 C 0.48768 0.01475 0.20077 0.0
C765 C 0.45393 0.00803 0.16146 0.0
C766 C 0.45767 0.01964 0.15055 0.0
C767 C 0.46398 0.00778 0.17249 0.0
C768 C 0.47796 0.01917 0.17291 0.0
C769 C 0.47162 0.03116 0.15131 0.0
C770 C 0.48168 0.03086 0.16227 0.0
C771 C 0.48901 0.01837 0.18315 0.0
C772 C 0.53562 0.00912 0.16012 0.0
C773 C 0.54298 0.0209 0.14944 0.0
C774 C 0.52529 0.00843 0.17104 0.0
C775 C 0.52223 0.01959 0.17164 0.0
C776 C 0.53987 0.03204 0.15001 0.0
C777 C 0.5295 0.03133 0.16093 0.0
C778 C 0.51083 0.01861 0.1825 0.0
C779 C 0.54484 0.02257 0.21873 0.0
C780 C 0.54091 0.01033 0.22852 0.0
C781 C 0.53468 0.02419 0.20959 0.0
C782 C 0.52039 0.01356 0.20997 0.0
C783 C 0.52656 -0.00016 0.22914 0.0
C784 C 0.51641 0.00149 0.22004 0.0
C785 C 0.50954 0.01503 0.20013 0.0
H786 H 0.45807 0.03027 0.22213 0.0
H787 H 0.47711 0.03289 0.20376 0.0
H788 H 0.45298 0.9904 0.24055 0.0
H789 H 0.47209 0.99313 0.22222 0.0
H790 H 0.44336 0.99886 0.161 0.0
H791 H 0.46094 0.99845 0.18023 0.0
H792 H 0.47483 0.04037 0.14329 0.0
H793 H 0.49242 0.03972 0.16232 0.0
H794 H 0.53785 0.00042 0.16005 0.0
H795 H 0.51956 -0.00093 0.17883 0.0
H796 H 0.54523 0.04116 0.14176 0.0
H797 H 0.52715 0.03995 0.16101 0.0
H798 H 0.55579 0.03083 0.21795 0.0
H799 H 0.53799 0.03377 0.20223 0.0
H800 H 0.52317 0.9904 0.2368 0.0
H801 H 0.50544 0.99323 0.22068 0.0
N802 N 0.49797 0.01315 0.20856 0.0
N803 N 0.50057 0.02022 0.17474 0.0
C804 C 0.54864 0.99492 0.8005 0.0
C805 C 0.54581 0.98541 0.78635 0.0
C806 C 0.53774 0.99356 0.81088 0.0
C807 C 0.52383 0.98258 0.8074 0.0
C808 C 0.53185 0.9745 0.78281 0.0
C809 C 0.52094 0.97317 0.79319 0.0
C810 C 0.51219 0.98123 0.81811 0.0
C811 C 0.53701 0.96947 0.85565 0.0
C812 C 0.54448 0.98035 0.86836 0.0
C813 C 0.52704 0.96998 0.84469 0.0
C814 C 0.52426 0.98127 0.84636 0.0
C815 C 0.54201 0.99196 0.86939 0.0
C816 C 0.53185 0.99228 0.85869 0.0
C817 C 0.51266 0.98109 0.83633 0.0
C818 C 0.45362 0.96381 0.85524 0.0
C819 C 0.4564 0.97195 0.87071 0.0
C820 C 0.46453 0.96633 0.84416 0.0
C821 C 0.4784 0.97716 0.84824 0.0
C822 C 0.47032 0.9827 0.87481 0.0
C823 C 0.4812 0.98523 0.86371 0.0
C824 C 0.49021 0.97937 0.83725 0.0
C825 C 0.464 0.99161 0.80496 0.0
C826 C 0.45775 0.98297 0.78999 0.0
C827 C 0.47439 0.99063 0.81442 0.0
C828 C 0.47866 0.98087 0.80923 0.0
C829 C 0.46215 0.97332 0.78471 0.0
C830 C 0.47257 0.97235 0.79418 0.0
C831 C 0.48989 0.98 0.819 0.0
H832 H 0.55928 0.0034 0.80359 0.0
H833 H 0.54019 0.00121 0.82148 0.0
H834 H 0.52931 0.96716 0.77183 0.0
H835 H 0.51026 0.96473 0.79016 0.0
H836 H 0.53843 0.96027 0.85458 0.0
H837 H 0.52113 0.96129 0.83535 0.0
H838 H 0.54779 0.00074 0.87863 0.0
H839 H 0.52985 0.0011 0.86011 0.0
H840 H 0.443 0.95551 0.85168 0.0
H841 H 0.46215 0.95965 0.83256 0.0
H842 H 0.47284 0.98901 0.88675 0.0
H843 H 0.49186 0.99349 0.86726 0.0
H844 H 0.46082 -0.00089 0.80943 0.0
H845 H 0.47919 0.99762 0.82571 0.0
H846 H 0.45772 0.96669 0.77308 0.0
H847 H 0.47582 0.96489 0.7898 0.0
N848 N 0.50083 0.98071 0.8101 0.0
N849 N 0.50166 0.98012 0.84519 0.0
C850 C 0.0047 0.55248 0.81273 0.0
C851 C 0.0129 0.55797 0.79795 0.0
C852 C 0.00714 0.54398 0.82405 0.0
C853 C 0.01803 0.54102 0.82102 0.0
C854 C 0.02376 0.55496 0.79496 0.0
C855 C 0.02626 0.54655 0.80635 0.0
C856 C 0.02004 0.53107 0.83199 0.0
C857 C 0.02786 0.56802 0.86781 0.0
C858 C 0.0185 0.56408 0.8816 0.0
C859 C 0.02844 0.55754 0.85748 0.0
C860 C 0.01955 0.54292 0.86064 0.0
C861 C 0.00962 0.54943 0.88468 0.0
C862 C 0.01022 0.53899 0.87439 0.0
C863 C 0.02026 0.53163 0.85029 0.0
C864 C 0.03563 0.48677 0.86787 0.0
C865 C 0.02684 0.48049 0.88198 0.0
C866 C 0.03425 0.49663 0.8578 0.0
C867 C 0.02392 0.50027 0.86147 0.0
C868 C 0.01675 0.48444 0.8859 0.0
C869 C 0.01535 0.49427 0.87578 0.0
C870 C 0.02221 0.51056 0.85076 0.0
C871 C 0.00982 0.47233 0.81531 0.0
C872 C 0.0183 0.47506 0.80077 0.0
C873 C 0.0111 0.4836 0.82583 0.0
C874 C 0.021 0.49784 0.82215 0.0
C875 C 0.02818 0.48934 0.7971 0.0
C876 C 0.02946 0.50062 0.80764 0.0
C877 C 0.02174 0.50989 0.83248 0.0
H878 H 0.99632 0.55469 0.81552 0.0
H879 H 0.0003 0.53945 0.83492 0.0
H880 H 0.03012 0.5588 0.78357 0.0
H881 H 0.03456 0.5442 0.80358 0.0
H882 H 0.03499 0.5792 0.86526 0.0
H883 H 0.03599 0.56086 0.84722 0.0
H884 H 0.00214 0.546 0.89501 0.0
H885 H 0.00328 0.52779 0.8771 0.0
H886 H 0.04369 0.48417 0.86473 0.0
H887 H 0.04131 0.50146 0.84718 0.0
H888 H 0.00974 0.47971 0.89658 0.0
H889 H 0.00739 0.497 0.87895 0.0
H890 H 0.0019 0.46148 0.81829 0.0
H891 H 0.00411 0.48118 0.83658 0.0
H892 H 0.03495 0.49181 0.78609 0.0
H893 H 0.03705 0.51153 0.80445 0.0
N894 N 0.02082 0.52024 0.82385 0.0
N895 N 0.02131 0.52133 0.85894 0.0
C896 C 0.53624 0.57804 0.80626 0.0
C897 C 0.54188 0.57153 0.79566 0.0
C898 C 0.52386 0.56966 0.81521 0.0
C899 C 0.51698 0.55463 0.81375 0.0
C900 C 0.53478 0.5565 0.79399 0.0
C901 C 0.52244 0.54816 0.80288 0.0
C902 C 0.504 0.54545 0.82322 0.0
C903 C 0.53824 0.56726 0.86419 0.0
C904 C 0.53596 0.57545 0.87672 0.0
C905 C 0.52752 0.55829 0.8524 0.0
C906 C 0.51437 0.55754 0.85261 0.0
C907 C 0.5228 0.57471 0.87688 0.0
C908 C 0.5121 0.56578 0.86499 0.0
C909 C 0.5026 0.54717 0.84112 0.0
C910 C 0.45361 0.49168 0.85966 0.0
C911 C 0.44691 0.49613 0.87159 0.0
C912 C 0.4639 0.50154 0.84893 0.0
C913 C 0.46758 0.51601 0.84974 0.0
C914 C 0.4505 0.51061 0.87226 0.0
C915 C 0.46084 0.52048 0.86151 0.0
C916 C 0.47945 0.5267 0.83968 0.0
C917 C 0.44568 0.49748 0.80102 0.0
C918 C 0.44978 0.48979 0.78997 0.0
C919 C 0.45571 0.50902 0.81131 0.0
C920 C 0.47 0.51299 0.81081 0.0
C921 C 0.46414 0.49408 0.78917 0.0
C922 C 0.47412 0.50557 0.79942 0.0
C923 C 0.48087 0.52496 0.82178 0.0
H924 H 0.54147 0.5896 0.80778 0.0
H925 H 0.51966 0.5749 0.82324 0.0
H926 H 0.53869 0.55117 0.78564 0.0
H927 H 0.51724 0.5366 0.80143 0.0
H928 H 0.54826 0.56764 0.8636 0.0
H929 H 0.52943 0.55168 0.8434 0.0
H930 H 0.52059 0.58066 0.88654 0.0
H931 H 0.50196 0.56518 0.86561 0.0
H932 H 0.45099 0.48059 0.85874 0.0
H933 H 0.46925 0.49789 0.84034 0.0
H934 H 0.44564 0.51438 0.88145 0.0
H935 H 0.4637 0.53165 0.86254 0.0
H936 H 0.4347 0.49443 0.80195 0.0
H937 H 0.45229 0.5148 0.81965 0.0
H938 H 0.46768 0.48857 0.78055 0.0
H939 H 0.48509 0.50852 0.79864 0.0
N940 N 0.49311 0.53439 0.81431 0.0
N941 N 0.49032 0.53779 0.8486 0.0
C942 C 0.63765 0.76612 0.4879 0.0
C943 C 0.6269 0.75789 0.47557 0.0
C944 C 0.63701 0.77649 0.4983 0.0
C945 C 0.62557 0.77882 0.49671 0.0
C946 C 0.61543 0.76026 0.47402 0.0
C947 C 0.61484 0.7707 0.4844 0.0
C948 C 0.6253 0.79034 0.50709 0.0
C949 C 0.62035 0.75734 0.54587 0.0
C950 C 0.63206 0.76225 0.5573 0.0
C951 C 0.61895 0.76688 0.53516 0.0
C952 C 0.62921 0.78149 0.53575 0.0
C953 C 0.6423 0.7769 0.55773 0.0
C954 C 0.64081 0.78642 0.5472 0.0
C955 C 0.6277 0.79191 0.52519 0.0
C956 C 0.62181 0.84282 0.54503 0.0
C957 C 0.63366 0.8501 0.55627 0.0
C958 C 0.61989 0.83114 0.53473 0.0
C959 C 0.62978 0.82655 0.53548 0.0
C960 C 0.64347 0.84536 0.55697 0.0
C961 C 0.64148 0.83365 0.54682 0.0
C962 C 0.62792 0.81408 0.52505 0.0
C963 C 0.63717 0.84892 0.48813 0.0
C964 C 0.62655 0.84561 0.47555 0.0
C965 C 0.63685 0.8382 0.49827 0.0
C966 C 0.62574 0.82399 0.49633 0.0
C967 C 0.61562 0.83131 0.47328 0.0
C968 C 0.61524 0.82059 0.48357 0.0
C969 C 0.62549 0.81257 0.50692 0.0
H970 H 0.6468 0.76487 0.48919 0.0
H971 H 0.64567 0.78294 0.5073 0.0
H972 H 0.60691 0.75404 0.46477 0.0
H973 H 0.60598 0.77241 0.48285 0.0
H974 H 0.61217 0.74617 0.54535 0.0
H975 H 0.60976 0.76291 0.52665 0.0
H976 H 0.65161 0.78104 0.56603 0.0
H977 H 0.64883 0.79766 0.54785 0.0
H978 H 0.61393 0.84603 0.54433 0.0
H979 H 0.61062 0.82562 0.52632 0.0
H980 H 0.65287 0.85085 0.56515 0.0
H981 H 0.64923 0.83026 0.54761 0.0
H982 H 0.64591 0.85976 0.48989 0.0
H983 H 0.64542 0.84103 0.50749 0.0
H984 H 0.60729 0.82845 0.46369 0.0
H985 H 0.60669 0.80966 0.48166 0.0
N986 N 0.62418 0.8007 0.49864 0.0
N987 N 0.62898 0.80372 0.53342 0.0
C988 C 0.13884 0.76079 0.49745 0.0
C989 C 0.13337 0.76598 0.48476 0.0
C990 C 0.14924 0.77024 0.50936 0.0
C991 C 0.15426 0.78503 0.50886 0.0
C992 C 0.13839 0.7808 0.48443 0.0
C993 C 0.14877 0.7902 0.49626 0.0
C994 C 0.1656 0.79538 0.52084 0.0
C995 C 0.12821 0.76975 0.55344 0.0
C996 C 0.1301 0.76136 0.56569 0.0
C997 C 0.13966 0.78027 0.5447 0.0
C998 C 0.15325 0.78251 0.54787 0.0
C999 C 0.14375 0.76372 0.56897 0.0
C1000 C 0.15524 0.77428 0.5602 0.0
C1001 C 0.16542 0.79395 0.53899 0.0
C1002 C 0.20958 0.85292 0.56301 0.0
C1003 C 0.21642 0.85011 0.57658 0.0
C1004 C 0.20003 0.84189 0.55186 0.0
C1005 C 0.1973 0.82781 0.55374 0.0
C1006 C 0.21344 0.83593 0.57871 0.0
C1007 C 0.2039 0.82488 0.56744 0.0
C1008 C 0.18711 0.81614 0.54188 0.0
C1009 C 0.22332 0.84558 0.50875 0.0
C1010 C 0.21965 0.85275 0.49658 0.0
C1011 C 0.21288 0.83413 0.51775 0.0
C1012 C 0.19861 0.82967 0.51466 0.0
C1013 C 0.20536 0.84819 0.49348 0.0
C1014 C 0.19495 0.83669 0.50234 0.0
C1015 C 0.18735 0.81742 0.52371 0.0
H1016 H 0.13535 0.74947 0.49792 0.0
H1017 H 0.15353 0.76602 0.51873 0.0
H1018 H 0.13424 0.78515 0.47505 0.0
H1019 H 0.15247 0.80157 0.49563 0.0
H1020 H 0.11791 0.76848 0.55093 0.0
H1021 H 0.13793 0.78682 0.53567 0.0
H1022 H 0.14555 0.7574 0.57829 0.0
H1023 H 0.16567 0.77596 0.56295 0.0
H1024 H 0.21169 0.8637 0.56083 0.0
H1025 H 0.19474 0.8444 0.54177 0.0
H1026 H 0.21836 0.83335 0.58917 0.0
H1027 H 0.20176 0.81405 0.56932 0.0
H1028 H 0.23427 0.8489 0.51138 0.0
H1029 H 0.21593 0.82869 0.52698 0.0
H1030 H 0.20222 0.85338 0.48399 0.0
H1031 H 0.184 0.83334 0.49967 0.0
N1032 N 0.17655 0.80706 0.51395 0.0
N1033 N 0.1762 0.80436 0.54883 0.0
C1034 C 0.22346 0.38634 0.49926 0.0
C1035 C 0.21993 0.37729 0.48446 0.0
C1036 C 0.21297 0.38523 0.51027 0.0
C1037 C 0.19878 0.37495 0.50677 0.0
C1038 C 0.20569 0.36724 0.48084 0.0
C1039 C 0.19525 0.36611 0.49185 0.0
C1040 C 0.18739 0.37366 0.51797 0.0
C1041 C 0.21274 0.36078 0.55098 0.0
C1042 C 0.21941 0.3697 0.56562 0.0
C1043 C 0.20268 0.36216 0.54133 0.0
C1044 C 0.19918 0.37261 0.54596 0.0
C1045 C 0.21589 0.38017 0.57027 0.0
C1046 C 0.20578 0.38153 0.5606 0.0
C1047 C 0.18796 0.37353 0.53625 0.0
C1048 C 0.12835 0.35394 0.55482 0.0
C1049 C 0.13008 0.36348 0.56854 0.0
C1050 C 0.13974 0.35632 0.54477 0.0
C1051 C 0.15306 0.36844 0.54796 0.0
C1052 C 0.14353 0.37544 0.57197 0.0
C1053 C 0.15493 0.37785 0.56181 0.0
C1054 C 0.16511 0.37104 0.53721 0.0
C1055 C 0.13391 0.37425 0.50113 0.0
C1056 C 0.12824 0.36316 0.48841 0.0
C1057 C 0.14562 0.37674 0.51131 0.0
C1058 C 0.15185 0.36824 0.50879 0.0
C1059 C 0.13452 0.3547 0.486 0.0
C1060 C 0.14625 0.35729 0.49599 0.0
C1061 C 0.16442 0.37076 0.51894 0.0
H1062 H 0.23434 0.39417 0.50242 0.0
H1063 H 0.21594 0.39247 0.52143 0.0
H1064 H 0.20258 0.36031 0.46938 0.0
H1065 H 0.18438 0.35822 0.48874 0.0
H1066 H 0.21526 0.35267 0.54699 0.0
H1067 H 0.19746 0.35487 0.53039 0.0
H1068 H 0.22069 0.38706 0.58163 0.0
H1069 H 0.20308 0.38951 0.56456 0.0
H1070 H 0.11815 0.34469 0.5517 0.0
H1071 H 0.13812 0.34864 0.53449 0.0
H1072 H 0.14528 0.38285 0.58263 0.0
H1073 H 0.16518 0.38714 0.56467 0.0
H1074 H 0.12929 0.38094 0.50321 0.0
H1075 H 0.1499 0.38538 0.52096 0.0
H1076 H 0.13056 0.34627 0.47609 0.0
H1077 H 0.15095 0.35066 0.49377 0.0
N1078 N 0.17558 0.37212 0.51008 0.0
N1079 N 0.17687 0.37243 0.54519 0.0
H1080 H 0.01174 0.35614 0.03648 0.0
H1081 H 0.00842 0.36782 0.06198 0.0
H1082 H 0.9721 0.36581 0.03707 0.0
H1083 H 0.9752 0.35404 0.0117 0.0
H1084 H 0.00986 0.39399 0.0611 0.0
H1085 H 0.95829 0.3534 0.08585 0.0
H1086 H 0.96821 0.34886 0.07115 0.0
H1087 H 0.95754 0.35592 0.06305 0.0
C1088 C 0.00285 0.35788 0.03657 0.0
C1089 C 0.99377 0.35419 0.02197 0.0
C1090 C 0.00099 0.36458 0.05115 0.0
C1091 C 0.98993 0.36756 0.0515 0.0
C1092 C 0.98053 0.36337 0.03725 0.0
H1093 H 0.98298 0.43606 0.09629 0.0
H1094 H 0.98596 0.4188 0.07869 0.0
C1095 C 0.9824 0.35672 0.02267 0.0
C1096 C 0.98906 0.37644 0.06579 0.0
H1097 H 0.96636 0.37798 0.09439 0.0
C1098 C 0.00044 0.3904 0.06859 0.0
C1099 C 0.97682 0.37172 0.07567 0.0
C1100 C 0.96458 0.3566 0.07392 0.0
C1101 C -0.00038 0.40001 0.08033 0.0
C1102 C 0.98704 0.39558 0.08935 0.0
C1103 C 0.97594 0.3814 0.08728 0.0
C1104 C 0.98498 0.40581 0.1002 0.0
C1105 C 0.01215 0.41491 0.08277 0.0
C1106 C 0.9831 0.40402 0.11808 0.0
C1107 C 0.98148 0.41395 0.12825 0.0
C1108 C 0.98161 0.42578 0.12066 0.0
C1109 C 0.98315 0.42728 0.10264 0.0
C1110 C 0.98482 0.41741 0.09254 0.0
H1111 H 0.02204 0.41538 0.07868 0.0
H1112 H 0.01052 0.4224 0.07476 0.0
H1113 H 0.01344 0.41866 0.0965 0.0
H1114 H 0.98313 0.39509 0.12421 0.0
H1115 H 0.98042 0.41253 0.14209 0.0
H1116 H 0.62549 0.62575 0.07035 0.0
H1117 H 0.61185 0.60373 0.086 0.0
H1118 H 0.64261 0.59121 0.07465 0.0
H1119 H 0.65604 0.61305 0.05827 0.0
H1120 H 0.61729 0.56902 0.0711 0.0
H1121 H 0.62035 0.59619 0.13358 0.0
H1122 H 0.61267 0.60175 0.11707 0.0
H1123 H 0.63065 0.60578 0.11536 0.0
C1124 C 0.62939 0.61836 0.07121 0.0
C1125 C 0.64192 0.62121 0.06326 0.0
C1126 C 0.62162 0.6058 0.08027 0.0
C1127 C 0.62643 0.59603 0.08198 0.0
C1128 C 0.63876 0.59867 0.07366 0.0
H1129 H 0.58437 0.52968 0.15825 0.0
H1130 H 0.60269 0.54953 0.14249 0.0
C1131 C 0.64641 0.61113 0.0643 0.0
C1132 C 0.6184 0.58294 0.09217 0.0
H1133 H 0.6023 0.57139 0.13075 0.0
C1134 C 0.61417 0.56954 0.08423 0.0
C1135 C 0.61464 0.5836 0.10948 0.0
C1136 C 0.61996 0.59762 0.11942 0.0
C1137 C 0.60572 0.55676 0.09284 0.0
C1138 C 0.60096 0.55742 0.10959 0.0
C1139 C 0.60575 0.57084 0.11781 0.0
C1140 C 0.59048 0.54444 0.11854 0.0
C1141 C 0.60211 0.54274 0.08389 0.0
C1142 C 0.57755 0.53486 0.11031 0.0
C1143 C 0.5672 0.52328 0.11913 0.0
C1144 C 0.56936 0.52122 0.13659 0.0
C1145 C 0.58238 0.53077 0.14477 0.0
C1146 C 0.59284 0.54222 0.13581 0.0
H1147 H 0.6105 0.54415 0.07489 0.0
H1148 H 0.60059 0.53448 0.09331 0.0
H1149 H 0.59224 0.53879 0.07607 0.0
H1150 H 0.57528 0.53653 0.09716 0.0
H1151 H 0.55742 0.51604 0.11228 0.0
H1152 H 0.35743 0.99406 0.03911 0.0
H1153 H 0.37096 0.99845 0.06618 0.0
H1154 H 0.40943 0.02493 0.03949 0.0
H1155 H 0.39607 0.02087 0.01252 0.0
H1156 H 0.39072 0.99099 0.0726 0.0
H1157 H 0.41479 0.04965 0.08198 0.0
H1158 H 0.40024 0.03934 0.06696 0.0
H1159 H 0.41799 0.04487 0.06088 0.0
C1160 C 0.36876 0.001 0.03903 0.0
C1161 C 0.37565 0.00712 0.0236 0.0
C1162 C 0.37646 0.00349 0.05453 0.0
C1163 C 0.39118 0.01219 0.05493 0.0
C1164 C 0.39806 0.01848 0.03961 0.0
H1165 H 0.46229 0.02855 0.11713 0.0
H1166 H 0.44514 0.0271 0.09561 0.0
C1167 C 0.39038 0.01605 0.02414 0.0
C1168 C 0.39951 0.0138 0.07094 0.0
H1169 H 0.42588 0.03866 0.09756 0.0
C1170 C 0.39823 0.0014 0.07826 0.0
C1171 C 0.40929 0.02739 0.07832 0.0
C1172 C 0.41056 0.04105 0.07173 0.0
C1173 C 0.40695 0.00225 0.09221 0.0
C1174 C 0.41712 0.01586 0.09909 0.0
C1175 C 0.4181 0.02825 0.09218 0.0
C1176 C 0.42747 0.01746 0.11267 0.0
C1177 C 0.40568 0.98864 0.099 0.0
C1178 C 0.42323 0.01274 0.12949 0.0
C1179 C 0.43305 0.01368 0.14192 0.0
C1180 C 0.44729 0.01936 0.13774 0.0
C1181 C 0.45149 0.02433 0.12092 0.0
C1182 C 0.44169 0.02344 0.10855 0.0
H1183 H 0.39879 0.97915 0.09053 0.0
H1184 H 0.41622 0.98963 0.10019 0.0
H1185 H 0.40114 0.98674 0.11208 0.0
H1186 H 0.41232 0.00826 0.13295 0.0
H1187 H 0.4295 0.00995 0.15481 0.0
H1188 H 0.35726 0.95352 0.97878 0.0
H1189 H 0.37394 0.94824 0.96399 0.0
H1190 H 0.38315 0.98196 0.92836 0.0
H1191 H 0.36665 0.98723 0.94282 0.0
H1192 H 0.37662 0.9535 0.91345 0.0
H1193 H 0.41853 0.97655 0.96532 0.0
H1194 H 0.40063 0.96414 0.97096 0.0
H1195 H 0.40519 0.9816 0.96375 0.0
C1196 C 0.36286 0.95977 0.96778 0.0
C1197 C 0.36075 0.97087 0.96204 0.0
C1198 C 0.37236 0.95677 0.9594 0.0
C1199 C 0.37976 0.96478 0.94518 0.0
C1200 C 0.37752 0.97569 0.93934 0.0
H1201 H 0.4523 0.99178 0.88803 0.0
H1202 H 0.43322 0.98744 0.90737 0.0
C1203 C 0.36815 0.97873 0.9477 0.0
C1204 C 0.39005 0.96214 0.93619 0.0
H1205 H 0.42443 0.97064 0.93851 0.0
C1206 C 0.38698 0.95692 0.919 0.0
C1207 C 0.40354 0.96676 0.94353 0.0
C1208 C 0.40731 0.97263 0.96189 0.0
C1209 C 0.39733 0.95686 0.90862 0.0
C1210 C 0.41101 0.96205 0.91573 0.0
C1211 C 0.41389 0.96663 0.93318 0.0
C1212 C 0.42283 0.96434 0.90476 0.0
C1213 C 0.39381 0.95209 0.88984 0.0
C1214 C 0.42333 0.95275 0.89703 0.0
C1215 C 0.43426 0.95519 0.88599 0.0
C1216 C 0.44487 0.96927 0.88257 0.0
C1217 C 0.44439 0.98082 0.89056 0.0
C1218 C 0.43349 0.97837 0.90158 0.0
H1219 H 0.38328 0.95024 0.88579 0.0
H1220 H 0.40183 0.96023 0.88139 0.0
H1221 H 0.39389 0.94193 0.88774 0.0
H1222 H 0.41526 0.94185 0.89951 0.0
H1223 H 0.43446 0.94607 0.88026 0.0
H1224 H 0.04319 0.39099 0.97772 0.0
H1225 H 0.04503 0.41258 0.96521 0.0
H1226 H 0.00916 0.38624 0.93156 0.0
H1227 H 0.00724 0.36472 0.94391 0.0
H1228 H 0.04882 0.42088 0.93044 0.0
H1229 H 0.9986 0.41393 0.95487 0.0
H1230 H 0.00678 0.40433 0.96341 0.0
H1231 H 0.99658 0.39833 0.94349 0.0
C1232 C 0.03568 0.38981 0.96769 0.0
C1233 C 0.02496 0.37614 0.96197 0.0
C1234 C 0.03674 0.40214 0.96058 0.0
C1235 C 0.02706 0.40099 0.94771 0.0
C1236 C 0.01652 0.38737 0.94178 0.0
H1237 H 0.03039 0.45847 0.87032 0.0
H1238 H 0.03168 0.44031 0.8874 0.0
C1239 C 0.01546 0.37507 0.94885 0.0
C1240 C 0.02812 0.41396 0.94004 0.0
H1241 H 0.00924 0.43062 0.93226 0.0
C1242 C 0.04024 0.42312 0.93098 0.0
C1243 C 0.017 0.41696 0.94099 0.0
C1244 C 0.00406 0.40796 0.95136 0.0
C1245 C 0.0413 0.43489 0.92222 0.0
C1246 C 0.02983 0.4374 0.92234 0.0
C1247 C 0.01796 0.42858 0.93201 0.0
C1248 C 0.02971 0.44883 0.91211 0.0
C1249 C 0.05466 0.44452 0.9129 0.0
C1250 C 0.0279 0.45948 0.9203 0.0
C1251 C 0.02711 0.46986 0.91056 0.0
C1252 C 0.02806 0.46972 0.89243 0.0
C1253 C 0.02989 0.45903 0.88428 0.0
C1254 C 0.03065 0.44866 0.89403 0.0
H1255 H 0.06372 0.44378 0.91822 0.0
H1256 H 0.05324 0.44117 0.89902 0.0
H1257 H 0.05726 0.45587 0.91381 0.0
H1258 H 0.02708 0.45976 0.93424 0.0
H1259 H 0.02583 0.47803 0.91724 0.0
H1260 H 0.60433 0.63924 0.01676 0.0
H1261 H 0.58899 0.62882 0.99113 0.0
H1262 H 0.62356 0.63112 0.96271 0.0
H1263 H 0.63911 0.64177 0.98825 0.0
H1264 H 0.60672 0.63912 0.94342 0.0
H1265 H 0.57449 0.58718 0.97524 0.0
H1266 H 0.57585 0.60231 0.98708 0.0
H1267 H 0.59133 0.60093 0.98399 0.0
C1268 C 0.60874 0.63763 0.00505 0.0
C1269 C 0.62294 0.6412 0.00465 0.0
C1270 C 0.59992 0.63163 0.99043 0.0
C1271 C 0.60508 0.62894 0.97516 0.0
C1272 C 0.61937 0.63303 0.97443 0.0
H1273 H 0.55344 0.56832 0.89383 0.0
H1274 H 0.57101 0.5821 0.91652 0.0
C1275 C 0.62823 0.63911 0.98905 0.0
C1276 C 0.59542 0.62137 0.96018 0.0
H1277 H 0.56601 0.58989 0.94806 0.0
C1278 C 0.59783 0.62834 0.94438 0.0
C1279 C 0.58396 0.60723 0.96143 0.0
C1280 C 0.58129 0.59889 0.97779 0.0
C1281 C 0.58892 0.62162 0.92984 0.0
C1282 C 0.5772 0.60765 0.93127 0.0
C1283 C 0.57493 0.60064 0.94702 0.0
C1284 C 0.56724 0.59993 0.91658 0.0
C1285 C 0.59227 0.62941 0.91301 0.0
C1286 C 0.55928 0.6054 0.90903 0.0
C1287 C 0.5493 0.59761 0.89587 0.0
C1288 C 0.54702 0.58414 0.89012 0.0
C1289 C 0.55509 0.57876 0.89769 0.0
C1290 C 0.56507 0.58657 0.91077 0.0
H1291 H 0.60343 0.63817 0.91279 0.0
H1292 H 0.59019 0.62194 0.90183 0.0
H1293 H 0.5855 0.63425 0.91137 0.0
H1294 H 0.56057 0.61556 0.91354 0.0
H1295 H 0.54334 0.60211 0.89025 0.0
H1296 H 0.99532 0.64919 0.98027 0.0
H1297 H 0.9975 0.63676 0.9547 0.0
H1298 H 0.03023 0.63282 0.98088 0.0
H1299 H 0.02828 0.64531 0.00637 0.0
H1300 H 0.03526 0.63977 0.94509 0.0
H1301 H 0.98211 0.593 0.95625 0.0
H1302 H 0.98308 0.61003 0.9541 0.0
H1303 H 0.99147 0.6071 0.97239 0.0
C1304 C 0.00315 0.64589 0.98051 0.0
C1305 C 0.01151 0.64811 0.99549 0.0
C1306 C 0.00432 0.63873 0.9659 0.0
C1307 C 0.01387 0.63367 0.96603 0.0
C1308 C 0.02276 0.63659 0.98055 0.0
H1309 H 0.01621 0.56391 0.91678 0.0
H1310 H 0.01499 0.58164 0.9356 0.0
C1311 C 0.02159 0.6437 0.99515 0.0
C1312 C 0.01399 0.62446 0.95165 0.0
H1313 H 0.99477 0.5909 0.93324 0.0
C1314 C 0.02636 0.62915 0.94231 0.0
C1315 C 0.0024 0.61055 0.94825 0.0
C1316 C 0.98903 0.60476 0.95832 0.0
C1317 C 0.02754 0.62018 0.92986 0.0
C1318 C 0.01601 0.60621 0.92664 0.0
C1319 C 0.00355 0.60165 0.93571 0.0
C1320 C 0.01699 0.59574 0.91493 0.0
C1321 C 0.04128 0.62545 0.92075 0.0
C1322 C 0.01849 0.59778 0.89704 0.0
C1323 C 0.01909 0.58758 0.88617 0.0
C1324 C 0.01814 0.57514 0.89304 0.0
C1325 C 0.01672 0.57322 0.91101 0.0
C1326 C 0.0161 0.58338 0.92181 0.0
H1327 H 0.04987 0.63556 0.92677 0.0
H1328 H 0.04453 0.61722 0.9209 0.0
H1329 H 0.0399 0.62745 0.90703 0.0
H1330 H 0.01899 0.60715 0.89145 0.0
H1331 H 0.02001 0.58929 0.87237 0.0
H1332 H 0.35794 0.40217 0.97849 0.0
H1333 H 0.37262 0.42517 0.96461 0.0
H1334 H 0.38142 0.40341 0.92357 0.0
H1335 H 0.36678 0.38053 0.93712 0.0
H1336 H 0.40176 0.43814 0.95571 0.0
H1337 H 0.3669 0.42704 0.8981 0.0
H1338 H 0.3609 0.41697 0.91765 0.0
H1339 H 0.3706 0.41292 0.90219 0.0
C1340 C 0.36301 0.40231 0.9665 0.0
C1341 C 0.36121 0.38953 0.9589 0.0
C1342 C 0.37137 0.41543 0.95861 0.0
C1343 C 0.37789 0.41591 0.94294 0.0
C1344 C 0.37626 0.40321 0.9355 0.0
H1345 H 0.44907 0.47584 0.88969 0.0
H1346 H 0.43179 0.45807 0.90866 0.0
C1347 C 0.36798 0.39015 0.94336 0.0
C1348 C 0.38674 0.42965 0.93439 0.0
H1349 H 0.39094 0.44581 0.89565 0.0
C1350 C 0.39931 0.43996 0.9427 0.0
C1351 C 0.38338 0.43208 0.91753 0.0
C1352 C 0.36964 0.42173 0.9084 0.0
C1353 C 0.40905 0.45226 0.93413 0.0
C1354 C 0.40617 0.45414 0.91678 0.0
C1355 C 0.3932 0.44427 0.90889 0.0
C1356 C 0.4169 0.46554 0.90611 0.0
C1357 C 0.42245 0.463 0.94361 0.0
C1358 C 0.41413 0.47546 0.89808 0.0
C1359 C 0.42395 0.48556 0.88703 0.0
C1360 C 0.43661 0.48576 0.88368 0.0
C1361 C 0.43935 0.47586 0.89185 0.0
C1362 C 0.42957 0.46582 0.9029 0.0
H1363 H 0.42109 0.46253 0.95785 0.0
H1364 H 0.43087 0.4605 0.94071 0.0
H1365 H 0.42598 0.47408 0.9395 0.0
H1366 H 0.40433 0.4753 0.90025 0.0
H1367 H 0.4215 0.49298 0.88081 0.0
H1368 H 0.61106 0.9601 0.9952 0.0
H1369 H 0.59704 0.95579 0.96855 0.0
H1370 H 0.62312 0.00025 0.95587 0.0
H1371 H 0.63758 0.00436 0.98184 0.0
H1372 H 0.58114 0.96552 0.96094 0.0
H1373 H 0.62011 0.98325 0.90951 0.0
H1374 H 0.62434 0.98066 0.93129 0.0
H1375 H 0.62567 0.99741 0.92545 0.0
C1376 C 0.61396 0.96886 0.9865 0.0
C1377 C 0.62544 0.98254 0.99055 0.0
C1378 C 0.60595 0.9664 0.97128 0.0
C1379 C 0.60912 0.97763 0.95996 0.0
C1380 C 0.62071 0.99126 0.96396 0.0
H1381 H 0.54915 0.98909 0.90255 0.0
H1382 H 0.56482 0.98731 0.92344 0.0
C1383 C 0.62892 0.99364 0.97894 0.0
C1384 C 0.59948 0.97555 0.94509 0.0
H1385 H 0.59896 0.98445 0.90301 0.0
C1386 C 0.58504 0.96942 0.94819 0.0
C1387 C 0.6044 0.9803 0.92827 0.0
C1388 C 0.61946 0.98561 0.92341 0.0
C1389 C 0.57556 0.96862 0.9353 0.0
C1390 C 0.58074 0.97472 0.91906 0.0
C1391 C 0.59502 0.98009 0.91559 0.0
C1392 C 0.57164 0.97625 0.90589 0.0
C1393 C 0.5601 0.96124 0.93932 0.0
C1394 C 0.57081 0.97137 0.88871 0.0
C1395 C 0.56221 0.97289 0.87642 0.0
C1396 C 0.5542 0.97926 0.8811 0.0
C1397 C 0.55526 0.98432 0.89829 0.0
C1398 C 0.56403 0.98303 0.91043 0.0
H1399 H 0.55737 0.95279 0.94896 0.0
H1400 H 0.55761 0.96919 0.94502 0.0
H1401 H 0.55338 0.95627 0.92751 0.0
H1402 H 0.57674 0.96628 0.88483 0.0
H1403 H 0.5619 0.96911 0.86326 0.0
H1404 H 0.62888 0.99611 0.07106 0.0
H1405 H 0.61152 -0.00078 0.08695 0.0
H1406 H 0.6216 0.03678 0.0579 0.0
H1407 H 0.63898 0.03366 0.04169 0.0
H1408 H 0.61735 0.0241 0.10728 0.0
H1409 H 0.57781 0.01158 0.05415 0.0
H1410 H 0.5911 0.00644 0.05293 0.0
H1411 H 0.59577 0.02472 0.04984 0.0
C1412 C 0.62732 0.00494 0.06786 0.0
C1413 C 0.63525 0.01459 0.05502 0.0
C1414 C 0.61743 0.00673 0.07702 0.0
C1415 C 0.61523 0.01815 0.07349 0.0
C1416 C 0.62304 0.02779 0.06063 0.0
H1417 H 0.56895 0.04384 0.14307 0.0
H1418 H 0.58683 0.04442 0.12391 0.0
C1419 C 0.63299 0.02602 0.05145 0.0
C1420 C 0.60505 0.02013 0.08378 0.0
H1421 H 0.57304 0.01808 0.08148 0.0
C1422 C 0.60771 0.0229 0.10165 0.0
C1423 C 0.59247 0.01843 0.07635 0.0
C1424 C 0.58898 0.01503 0.05728 0.0
C1425 C 0.59798 0.02383 0.11237 0.0
C1426 C 0.58538 0.02211 0.10495 0.0
C1427 C 0.58279 0.0195 0.08705 0.0
C1428 C 0.57438 0.02211 0.11577 0.0
C1429 C 0.60104 0.02617 0.13163 0.0
C1430 C 0.56139 0.00946 0.11717 0.0
C1431 C 0.55116 0.00911 0.12801 0.0
C1432 C 0.55373 0.02144 0.13757 0.0
C1433 C 0.56665 0.03419 0.13582 0.0
C1434 C 0.5769 0.03452 0.12499 0.0
H1435 H 0.60989 0.02455 0.1356 0.0
H1436 H 0.60391 0.0373 0.13535 0.0
H1437 H 0.59158 0.01877 0.13892 0.0
H1438 H 0.55926 -0.00021 0.11009 0.0
H1439 H 0.54123 -0.0008 0.12888 0.0
H1440 H 0.96114 0.61484 0.03681 0.0
H1441 H 0.95634 0.59225 0.04972 0.0
H1442 H 0.98988 0.6158 0.08745 0.0
H1443 H 0.99474 0.63832 0.07472 0.0
H1444 H 0.97676 0.58239 0.0546 0.0
H1445 H 0.95451 0.58871 0.11604 0.0
H1446 H 0.9554 0.59846 0.09688 0.0
H1447 H 0.97085 0.60411 0.11034 0.0
C1448 C 0.96745 0.61519 0.0479 0.0
C1449 C 0.97833 0.62835 0.05474 0.0
C1450 C 0.9647 0.6023 0.05523 0.0
C1451 C 0.97266 0.60241 0.06963 0.0
C1452 C 0.98351 0.61552 0.07647 0.0
H1453 H 0.99203 0.54347 0.11645 0.0
H1454 H 0.99109 0.56221 0.1003 0.0
C1455 C 0.98633 0.62837 0.0691 0.0
C1456 C 0.97001 0.58887 0.07734 0.0
H1457 H 0.96114 0.57079 0.1151 0.0
C1458 C 0.97317 0.57973 0.06775 0.0
C1459 C 0.96521 0.5854 0.09442 0.0
C1460 C 0.96117 0.5946 0.10502 0.0
C1461 C 0.97226 0.5675 0.0751 0.0
C1462 C 0.96816 0.56445 0.09249 0.0
C1463 C 0.96438 0.57323 0.10181 0.0
C1464 C 0.96848 0.55266 0.10154 0.0
C1465 C 0.97585 0.55805 0.06431 0.0
C1466 C 0.95608 0.54118 0.10777 0.0
C1467 C 0.95655 0.53035 0.11691 0.0
C1468 C 0.96947 0.53091 0.12013 0.0
C1469 C 0.98187 0.54251 0.11389 0.0
C1470 C 0.98137 0.55326 0.10469 0.0
H1471 H 0.97527 0.55969 0.05024 0.0
H1472 H 0.98676 0.56066 0.06763 0.0
H1473 H 0.96866 0.54656 0.06698 0.0
H1474 H 0.94605 0.5406 0.10553 0.0
H1475 H 0.94679 0.52152 0.12136 0.0
H1476 H 0.36265 0.35503 0.02971 0.0
H1477 H 0.37794 0.36207 0.05562 0.0
H1478 H 0.41453 0.38191 0.02378 0.0
H1479 H 0.39938 0.37458 0.99782 0.0
H1480 H 0.4178 0.36714 0.04978 0.0
H1481 H 0.39856 0.40239 0.07591 0.0
H1482 H 0.38511 0.38402 0.0723 0.0
H1483 H 0.39425 0.39478 0.05421 0.0
C1484 C 0.37395 0.36084 0.02821 0.0
C1485 C 0.37978 0.36435 0.01167 0.0
C1486 C 0.38267 0.36492 0.04305 0.0
C1487 C 0.39737 0.37278 0.04166 0.0
C1488 C 0.40321 0.3759 0.02517 0.0
H1489 H 0.47208 0.4247 0.10117 0.0
H1490 H 0.45379 0.40987 0.07952 0.0
C1491 C 0.39452 0.37171 0.01033 0.0
C1492 C 0.40678 0.37813 0.0573 0.0
H1493 H 0.41567 0.40071 0.09271 0.0
C1494 C 0.41726 0.3744 0.05923 0.0
C1495 C 0.40608 0.38761 0.06964 0.0
C1496 C 0.39549 0.39256 0.0679 0.0
C1497 C 0.42723 0.38012 0.07295 0.0
C1498 C 0.42671 0.38983 0.08499 0.0
C1499 C 0.41595 0.39317 0.08347 0.0
C1500 C 0.43799 0.39772 0.09826 0.0
C1501 C 0.43839 0.37593 0.07435 0.0
C1502 C 0.43513 0.39577 0.11597 0.0
C1503 C 0.4456 0.4042 0.12839 0.0
C1504 C 0.45897 0.41488 0.12323 0.0
C1505 C 0.46183 0.41661 0.10548 0.0
C1506 C 0.45144 0.40809 0.09313 0.0
H1507 H 0.43539 0.3659 0.06679 0.0
H1508 H 0.44837 0.38461 0.06921 0.0
H1509 H 0.44037 0.37444 0.08807 0.0
H1510 H 0.42475 0.38789 0.12015 0.0
H1511 H 0.44311 0.40274 0.14198 0.0
H1512 H 0.66208 0.68248 0.3767 0.0
H1513 H 0.65605 0.69189 0.40227 0.0
H1514 H 0.6284 0.70016 0.37067 0.0
H1515 H 0.63405 0.69056 0.34531 0.0
H1516 H 0.66096 0.71889 0.40733 0.0
H1517 H 0.60377 0.6813 0.41114 0.0
H1518 H 0.61503 0.67744 0.39806 0.0
H1519 H 0.60838 0.68851 0.38996 0.0
C1520 C 0.65452 0.68606 0.37525 0.0
C1521 C 0.64855 0.68572 0.3589 0.0
C1522 C 0.6511 0.69146 0.38988 0.0
C1523 C 0.64159 0.69652 0.38846 0.0
C1524 C 0.63546 0.69597 0.37222 0.0
H1525 H 0.61973 0.75226 0.44103 0.0
H1526 H 0.62286 0.73601 0.42159 0.0
C1527 C 0.63882 0.69056 0.35765 0.0
C1528 C 0.6389 0.70351 0.40349 0.0
H1529 H 0.61254 0.70444 0.42545 0.0
C1530 C 0.6504 0.71556 0.41153 0.0
C1531 C 0.62511 0.69916 0.40899 0.0
C1532 C 0.6124 0.6858 0.4017 0.0
C1533 C 0.64841 0.72379 0.42426 0.0
C1534 C 0.63459 0.71982 0.42912 0.0
C1535 C 0.62312 0.7075 0.42157 0.0
C1536 C 0.63183 0.72881 0.44132 0.0
C1537 C 0.66105 0.73705 0.43189 0.0
C1538 C 0.63558 0.72989 0.45893 0.0
C1539 C 0.63366 0.73905 0.47014 0.0
C1540 C 0.628 0.74735 0.46394 0.0
C1541 C 0.62394 0.74592 0.44633 0.0
C1542 C 0.6258 0.7367 0.43517 0.0
H1543 H 0.67087 0.73971 0.42506 0.0
H1544 H 0.65936 0.74636 0.43136 0.0
H1545 H 0.6625 0.73533 0.4457 0.0
H1546 H 0.6401 0.72374 0.46394 0.0
H1547 H 0.63666 0.73968 0.48367 0.0
H1548 H 0.29479 0.96884 0.41921 0.0
H1549 H 0.28017 0.94818 0.43665 0.0
H1550 H 0.29496 0.92342 0.40893 0.0
H1551 H 0.30936 0.94399 0.39098 0.0
H1552 H 0.26651 0.90837 0.41355 0.0
H1553 H 0.29426 0.93383 0.47574 0.0
H1554 H 0.28802 0.9442 0.46488 0.0
H1555 H 0.30128 0.94141 0.45509 0.0
C1556 C 0.29487 0.95899 0.41668 0.0
C1557 C 0.30324 0.95807 0.40369 0.0
C1558 C 0.28662 0.94723 0.42682 0.0
C1559 C 0.28674 0.93439 0.42436 0.0
C1560 C 0.29483 0.9333 0.41114 0.0
H1561 H 0.24226 0.85419 0.48031 0.0
H1562 H 0.2595 0.87377 0.4628 0.0
C1563 C 0.30303 0.94505 0.4009 0.0
C1564 C 0.27822 0.92205 0.43542 0.0
H1565 H 0.2719 0.9123 0.47761 0.0
C1566 C 0.26781 0.90915 0.42753 0.0
C1567 C 0.28001 0.92309 0.45368 0.0
C1568 C 0.2916 0.93633 0.46284 0.0
C1569 C 0.25875 0.89746 0.43748 0.0
C1570 C 0.2602 0.89874 0.4557 0.0
C1571 C 0.27082 0.91146 0.4636 0.0
C1572 C 0.2503 0.88719 0.46678 0.0
C1573 C 0.24737 0.88395 0.42856 0.0
C1574 C 0.23965 0.88847 0.47495 0.0
C1575 C 0.22983 0.87735 0.48487 0.0
C1576 C 0.23058 0.86484 0.48689 0.0
C1577 C 0.24151 0.86376 0.47905 0.0
C1578 C 0.25128 0.87486 0.469 0.0
H1579 H 0.24696 0.88506 0.41433 0.0
H1580 H 0.2493 0.87498 0.4311 0.0
H1581 H 0.23695 0.88105 0.43387 0.0
H1582 H 0.23881 0.89797 0.4734 0.0
H1583 H 0.2216 0.87852 0.49093 0.0
H1584 H 0.0684 0.35379 0.34663 0.0
H1585 H 0.08092 0.358 0.37433 0.0
H1586 H 0.0415 0.33308 0.39981 0.0
H1587 H 0.02875 0.32881 0.37208 0.0
H1588 H 0.06221 0.36004 0.41775 0.0
H1589 H 0.08374 0.32515 0.3983 0.0
H1590 H 0.08657 0.33869 0.3831 0.0
H1591 H 0.06895 0.32464 0.38713 0.0
C1592 C 0.06232 0.34924 0.35809 0.0
C1593 C 0.04754 0.34083 0.35706 0.0
C1594 C 0.06953 0.35165 0.37392 0.0
C1595 C 0.06213 0.34569 0.38903 0.0
C1596 C 0.04738 0.33772 0.38824 0.0
H1597 H 0.10489 0.33761 0.47961 0.0
H1598 H 0.08696 0.33307 0.4574 0.0
C1599 C 0.04013 0.33527 0.37237 0.0
C1600 C 0.06994 0.34735 0.40545 0.0
H1601 H 0.09355 0.33953 0.42387 0.0
C1602 C 0.06899 0.35547 0.4192 0.0
C1603 C 0.07858 0.3412 0.40733 0.0
C1604 C 0.07947 0.33182 0.39326 0.0
C1605 C 0.07689 0.35801 0.43466 0.0
C1606 C 0.08602 0.35238 0.43622 0.0
C1607 C 0.08659 0.34389 0.42263 0.0
C1608 C 0.09547 0.35541 0.45153 0.0
C1609 C 0.07535 0.36663 0.44916 0.0
C1610 C 0.10602 0.36951 0.45587 0.0
C1611 C 0.11627 0.37213 0.4686 0.0
C1612 C 0.11622 0.36067 0.47701 0.0
C1613 C 0.10527 0.34663 0.47319 0.0
C1614 C 0.095 0.34403 0.46056 0.0
H1615 H 0.06521 0.36652 0.44802 0.0
H1616 H 0.076 0.36248 0.46198 0.0
H1617 H 0.084 0.37793 0.44862 0.0
H1618 H 0.10677 0.37844 0.44882 0.0
H1619 H 0.12468 0.38304 0.47115 0.0
H1620 H 0.02013 0.28259 0.30901 0.0
H1621 H 0.03343 0.27308 0.29385 0.0
H1622 H 0.05394 0.31135 0.26408 0.0
H1623 H 0.04072 0.32079 0.27875 0.0
H1624 H 0.0361 0.27497 0.24935 0.0
H1625 H 0.08358 0.30014 0.29308 0.0
H1626 H 0.06604 0.29396 0.30087 0.0
H1627 H 0.07477 0.31013 0.28896 0.0
C1628 C 0.02752 0.28898 0.29928 0.0
C1629 C 0.02948 0.30251 0.2952 0.0
C1630 C 0.03505 0.28353 0.29065 0.0
C1631 C 0.04462 0.29158 0.27795 0.0
C1632 C 0.04661 0.30505 0.27392 0.0
H1633 H 0.10782 0.30584 0.21058 0.0
H1634 H 0.09053 0.30471 0.23098 0.0
C1635 C 0.03909 0.31045 0.28242 0.0
C1636 C 0.05267 0.28621 0.2685 0.0
H1637 H 0.08621 0.29258 0.26502 0.0
C1638 C 0.04694 0.27841 0.25293 0.0
C1639 C 0.06678 0.29087 0.27328 0.0
C1640 C 0.07323 0.29919 0.29 0.0
C1641 C 0.05534 0.27597 0.24137 0.0
C1642 C 0.06972 0.28143 0.24569 0.0
C1643 C 0.07517 0.28843 0.26178 0.0
C1644 C 0.0797 0.28164 0.2329 0.0
C1645 C 0.04908 0.26849 0.22415 0.0
C1646 C 0.07921 0.269 0.22712 0.0
C1647 C 0.08912 0.26962 0.21543 0.0
C1648 C 0.09968 0.2829 0.20949 0.0
C1649 C 0.09993 0.29548 0.21511 0.0
C1650 C 0.09006 0.29485 0.22673 0.0
H1651 H 0.03814 0.26631 0.22205 0.0
H1652 H 0.05563 0.2751 0.21344 0.0
H1653 H 0.04892 0.25814 0.22353 0.0
H1654 H 0.07136 0.25872 0.2319 0.0
H1655 H 0.08878 0.25977 0.21146 0.0
H1656 H 0.70393 0.72203 0.3203 0.0
H1657 H 0.70951 0.74477 0.30724 0.0
H1658 H 0.67527 0.72202 0.27014 0.0
H1659 H 0.66961 0.69936 0.28306 0.0
H1660 H 0.71683 0.75314 0.27306 0.0
H1661 H 0.66791 0.75301 0.29008 0.0
H1662 H 0.67326 0.74149 0.3002 0.0
H1663 H 0.66466 0.73676 0.27919 0.0
C1664 C 0.69754 0.72189 0.30943 0.0
C1665 C 0.68622 0.7089 0.30285 0.0
C1666 C 0.70075 0.73488 0.30198 0.0
C1667 C 0.69264 0.73509 0.28793 0.0
C1668 C 0.68144 0.72213 0.28124 0.0
H1669 H 0.7104 0.79653 0.20905 0.0
H1670 H 0.70774 0.77689 0.22691 0.0
C1671 C 0.67824 0.70917 0.28865 0.0
C1672 C 0.69609 0.74875 0.27979 0.0
H1673 H 0.68188 0.76931 0.26842 0.0
C1674 C 0.70926 0.75678 0.27219 0.0
C1675 C 0.68627 0.75357 0.2789 0.0
C1676 C 0.67229 0.74584 0.28768 0.0
C1677 C 0.71266 0.76922 0.26312 0.0
C1678 C 0.70253 0.77358 0.2614 0.0
C1679 C 0.68958 0.76586 0.26959 0.0
C1680 C 0.70495 0.78588 0.25079 0.0
C1681 C 0.72706 0.77757 0.25548 0.0
C1682 C 0.70403 0.79733 0.25821 0.0
C1683 C 0.70548 0.80853 0.24802 0.0
C1684 C 0.70782 0.80846 0.23017 0.0
C1685 C 0.70884 0.79702 0.2228 0.0
C1686 C 0.70735 0.7858 0.233 0.0
H1687 H 0.7348 0.77542 0.26217 0.0
H1688 H 0.72643 0.77431 0.24164 0.0
H1689 H 0.73102 0.78927 0.25624 0.0
H1690 H 0.70212 0.79757 0.27191 0.0
H1691 H 0.70478 0.81726 0.25411 0.0
H1692 H 0.30349 0.97857 0.32512 0.0
H1693 H 0.28835 0.96872 0.29915 0.0
H1694 H 0.25337 0.96573 0.3273 0.0
H1695 H 0.2683 0.9754 0.35334 0.0
H1696 H 0.24745 0.94042 0.31031 0.0
H1697 H 0.27173 0.98613 0.26598 0.0
H1698 H 0.28382 0.98145 0.27557 0.0
H1699 H 0.27517 0.98826 0.28908 0.0
C1700 C 0.29262 0.97599 0.32576 0.0
C1701 C 0.28712 0.97773 0.34138 0.0
C1702 C 0.28401 0.97045 0.31085 0.0
C1703 C 0.26978 0.96664 0.31126 0.0
C1704 C 0.26434 0.96866 0.3267 0.0
H1705 H 0.20563 0.93586 0.22886 0.0
H1706 H 0.22317 0.95046 0.25149 0.0
C1707 C 0.27291 0.97418 0.34159 0.0
C1708 C 0.26024 0.95948 0.29607 0.0
H1709 H 0.25432 0.96361 0.25361 0.0
C1710 C 0.24892 0.94552 0.29794 0.0
C1711 C 0.26214 0.9662 0.28 0.0
C1712 C 0.27379 0.98139 0.2775 0.0
C1713 C 0.23956 0.938 0.2841 0.0
C1714 C 0.24168 0.94455 0.26788 0.0
C1715 C 0.25283 0.9586 0.26604 0.0
C1716 C 0.23232 0.93681 0.25278 0.0
C1717 C 0.22738 0.92313 0.28695 0.0
C1718 C 0.23201 0.92461 0.24568 0.0
C1719 C 0.22207 0.91631 0.23278 0.0
C1720 C 0.21225 0.92006 0.22671 0.0
C1721 C 0.21308 0.93273 0.23321 0.0
C1722 C 0.22306 0.94105 0.24616 0.0
H1723 H 0.22544 0.92092 0.30094 0.0
H1724 H 0.21759 0.92163 0.28058 0.0
H1725 H 0.22977 0.91512 0.28118 0.0
H1726 H 0.23923 0.92131 0.25047 0.0
H1727 H 0.22189 0.90677 0.22778 0.0
H1728 H 0.70325 0.988 0.33884 0.0
H1729 H 0.7103 0.97905 0.31388 0.0
H1730 H 0.6674 0.95733 0.29405 0.0
H1731 H 0.66053 0.96703 0.31846 0.0
H1732 H 0.70317 0.9534 0.30711 0.0
H1733 H 0.68658 0.97164 0.25001 0.0
H1734 H 0.68702 0.97862 0.27154 0.0
H1735 H 0.67195 0.96207 0.26382 0.0
C1736 C 0.69541 0.98159 0.32891 0.0
C1737 C 0.68136 0.97821 0.33054 0.0
C1738 C 0.69943 0.97646 0.31466 0.0
C1739 C 0.68944 0.9676 0.3019 0.0
C1740 C 0.67543 0.96449 0.30335 0.0
H1741 H 0.69198 0.8993 0.24769 0.0
H1742 H 0.68903 0.91537 0.26729 0.0
C1743 C 0.67148 0.96994 0.31739 0.0
C1744 C 0.69334 0.96036 0.2883 0.0
H1745 H 0.68933 0.95092 0.24527 0.0
C1746 C 0.70033 0.95309 0.29355 0.0
C1747 C 0.68991 0.96009 0.27051 0.0
C1748 C 0.6836 0.96867 0.26364 0.0
C1749 C 0.70347 0.94517 0.28172 0.0
C1750 C 0.69896 0.94389 0.26422 0.0
C1751 C 0.69254 0.95165 0.25876 0.0
C1752 C 0.70027 0.93407 0.25164 0.0
C1753 C 0.71167 0.9383 0.28818 0.0
C1754 C 0.70697 0.93902 0.23583 0.0
C1755 C 0.70828 0.92967 0.2242 0.0
C1756 C 0.70292 0.91518 0.22818 0.0
C1757 C 0.69607 0.91029 0.24396 0.0
C1758 C 0.69459 0.91956 0.2554 0.0
H1759 H 0.71852 0.94437 0.29955 0.0
H1760 H 0.70421 0.9273 0.29237 0.0
H1761 H 0.71836 0.93766 0.27796 0.0
H1762 H 0.7113 0.95015 0.23256 0.0
H1763 H 0.7134 0.93379 0.21206 0.0
H1764 H 0.0503 0.71416 0.2923 0.0
H1765 H 0.06336 0.73657 0.27716 0.0
H1766 H 0.02959 0.74539 0.28509 0.0
H1767 H 0.01675 0.72322 0.30097 0.0
H1768 H 0.05644 0.7436 0.24811 0.0
H1769 H 0.06246 0.78342 0.29883 0.0
H1770 H 0.05638 0.76494 0.30351 0.0
H1771 H 0.04445 0.77005 0.29435 0.0
C1772 C 0.04573 0.72093 0.29101 0.0
C1773 C 0.03251 0.71694 0.29781 0.0
C1774 C 0.0532 0.73376 0.28234 0.0
C1775 C 0.04753 0.74276 0.28011 0.0
C1776 C 0.03436 0.73884 0.28702 0.0
H1777 H 0.08399 0.80659 0.19923 0.0
H1778 H 0.06688 0.78667 0.21613 0.0
C1779 C 0.027 0.72613 0.29601 0.0
C1780 C 0.05513 0.75577 0.26967 0.0
H1781 H 0.06918 0.79207 0.2705 0.0
C1782 C 0.05925 0.7542 0.25302 0.0
C1783 C 0.05882 0.76961 0.27611 0.0
C1784 C 0.05542 0.77216 0.29424 0.0
C1785 C 0.06724 0.76608 0.2428 0.0
C1786 C 0.07072 0.7799 0.2491 0.0
C1787 C 0.06635 0.78145 0.2656 0.0
C1788 C 0.07999 0.79298 0.23945 0.0
C1789 C 0.0724 0.7637 0.22572 0.0
C1790 C 0.0926 0.80368 0.24729 0.0
C1791 C 0.10219 0.81531 0.23785 0.0
C1792 C 0.09948 0.8164 0.22026 0.0
C1793 C 0.08647 0.80609 0.21271 0.0
C1794 C 0.07675 0.79457 0.22229 0.0
H1795 H 0.07196 0.75319 0.22501 0.0
H1796 H 0.06562 0.76382 0.21505 0.0
H1797 H 0.08341 0.77226 0.22356 0.0
H1798 H 0.09527 0.80279 0.26058 0.0
H1799 H 0.11189 0.82328 0.24427 0.0
H1800 H 0.30573 0.338 0.3114 0.0
H1801 H 0.29069 0.33082 0.28527 0.0
H1802 H 0.25523 0.30093 0.31454 0.0
H1803 H 0.27013 0.30792 0.34076 0.0
H1804 H 0.25799 0.29043 0.28042 0.0
H1805 H 0.26051 0.34325 0.27968 0.0
H1806 H 0.27709 0.34369 0.28045 0.0
H1807 H 0.26561 0.3371 0.2985 0.0
C1808 C 0.29477 0.3298 0.3123 0.0
C1809 C 0.28912 0.32365 0.32826 0.0
C1810 C 0.2862 0.32574 0.29733 0.0
C1811 C 0.27185 0.31547 0.29805 0.0
C1812 C 0.26629 0.30889 0.31376 0.0
H1813 H 0.19962 0.29889 0.23804 0.0
H1814 H 0.21775 0.30338 0.25982 0.0
C1815 C 0.27483 0.31295 0.32874 0.0
C1816 C 0.26238 0.3122 0.28275 0.0
H1817 H 0.247 0.32647 0.25757 0.0
C1818 C 0.25566 0.29832 0.27528 0.0
C1819 C 0.25931 0.32252 0.27624 0.0
C1820 C 0.2659 0.33746 0.28415 0.0
C1821 C 0.2458 0.29443 0.26154 0.0
C1822 C 0.24265 0.30472 0.25517 0.0
C1823 C 0.24953 0.31865 0.26246 0.0
C1824 C 0.23146 0.30104 0.24188 0.0
C1825 C 0.23843 0.27926 0.25431 0.0
C1826 C 0.23314 0.29812 0.22458 0.0
C1827 C 0.22281 0.29565 0.212 0.0
C1828 C 0.2107 0.29615 0.21657 0.0
C1829 C 0.20895 0.29871 0.23402 0.0
C1830 C 0.21925 0.3012 0.24651 0.0
H1831 H 0.24074 0.27212 0.26213 0.0
H1832 H 0.22686 0.27485 0.25373 0.0
H1833 H 0.2419 0.27919 0.2409 0.0
H1834 H 0.24259 0.29811 0.22075 0.0
H1835 H 0.2245 0.29381 0.19865 0.0
H1836 H 0.30085 0.34889 0.40681 0.0
H1837 H 0.28608 0.35571 0.42287 0.0
H1838 H 0.29471 0.38883 0.38655 0.0
H1839 H 0.30958 0.38198 0.37016 0.0
H1840 H 0.29509 0.38466 0.43751 0.0
H1841 H 0.25028 0.36357 0.38958 0.0
H1842 H 0.26285 0.35744 0.38952 0.0
H1843 H 0.26787 0.37498 0.38214 0.0
C1844 C 0.29954 0.35754 0.40208 0.0
C1845 C 0.30629 0.36482 0.38712 0.0
C1846 C 0.29116 0.36148 0.41136 0.0
C1847 C 0.2893 0.37272 0.40584 0.0
C1848 C 0.29598 0.38005 0.39091 0.0
H1849 H 0.24331 0.40141 0.47329 0.0
H1850 H 0.26113 0.40256 0.4535 0.0
C1851 C 0.30446 0.37614 0.3816 0.0
C1852 C 0.2803 0.37655 0.41595 0.0
H1853 H 0.24721 0.37189 0.41655 0.0
C1854 C 0.28472 0.38214 0.43286 0.0
C1855 C 0.26677 0.37314 0.4098 0.0
C1856 C 0.26154 0.36689 0.3918 0.0
C1857 C 0.2757 0.38388 0.44407 0.0
C1858 C 0.26199 0.37997 0.43812 0.0
C1859 C 0.25778 0.37492 0.42099 0.0
C1860 C 0.25138 0.37957 0.45 0.0
C1861 C 0.28059 0.38913 0.46247 0.0
C1862 C 0.24007 0.36628 0.45448 0.0
C1863 C 0.22998 0.36558 0.46582 0.0
C1864 C 0.23096 0.37818 0.4728 0.0
C1865 C 0.24236 0.39152 0.4683 0.0
C1866 C 0.2525 0.3922 0.45695 0.0
H1867 H 0.29095 0.39012 0.4656 0.0
H1868 H 0.28157 0.39981 0.46448 0.0
H1869 H 0.27274 0.38172 0.47168 0.0
H1870 H 0.23911 0.35642 0.44932 0.0
H1871 H 0.22148 0.35513 0.46924 0.0
H1872 H 0.62574 0.94027 0.37387 0.0
H1873 H 0.62085 0.91828 0.38833 0.0
H1874 H 0.65825 0.94231 0.42048 0.0
H1875 H 0.66317 0.96432 0.40626 0.0
H1876 H 0.65414 0.91553 0.40442 0.0
H1877 H 0.60768 0.90952 0.43977 0.0
H1878 H 0.60781 0.91209 0.41682 0.0
H1879 H 0.62056 0.92629 0.43076 0.0
C1880 C 0.63295 0.94088 0.38399 0.0
C1881 C 0.64488 0.95406 0.38888 0.0
C1882 C 0.63011 0.92831 0.39226 0.0
C1883 C 0.63914 0.92873 0.40553 0.0
C1884 C 0.65116 0.9418 0.41024 0.0
H1885 H 0.63229 0.8723 0.48615 0.0
H1886 H 0.63461 0.89175 0.46812 0.0
C1887 C 0.65397 0.95436 0.40206 0.0
C1888 C 0.63606 0.9156 0.41472 0.0
H1889 H 0.61382 0.89171 0.4437 0.0
C1890 C 0.64527 0.91023 0.41291 0.0
C1891 C 0.62455 0.90885 0.42587 0.0
C1892 C 0.61459 0.91448 0.42859 0.0
C1893 C 0.64332 0.89829 0.42209 0.0
C1894 C 0.63182 0.89155 0.43327 0.0
C1895 C 0.62255 0.89687 0.435 0.0
C1896 C 0.62973 0.87948 0.44404 0.0
C1897 C 0.65378 0.89321 0.4202 0.0
C1898 C 0.62599 0.86609 0.43644 0.0
C1899 C 0.62465 0.85496 0.44671 0.0
C1900 C 0.62709 0.85707 0.46472 0.0
C1901 C 0.63053 0.87042 0.47229 0.0
C1902 C 0.63178 0.8815 0.46204 0.0
H1903 H 0.66331 0.90099 0.41328 0.0
H1904 H 0.65707 0.89138 0.4331 0.0
H1905 H 0.64876 0.88287 0.41275 0.0
H1906 H 0.62425 0.86432 0.42257 0.0
H1907 H 0.62207 0.84482 0.44051 0.0
H1908 H 0.06914 0.69966 0.34791 0.0
H1909 H 0.08222 0.70897 0.37527 0.0
H1910 H 0.04435 0.70161 0.40022 0.0
H1911 H 0.03111 0.69234 0.37278 0.0
H1912 H 0.06681 0.72918 0.40558 0.0
H1913 H 0.08324 0.68953 0.41974 0.0
H1914 H 0.08721 0.69601 0.39814 0.0
H1915 H 0.06915 0.68585 0.40447 0.0
C1916 C 0.0635 0.69982 0.35923 0.0
C1917 C 0.04905 0.69528 0.35809 0.0
C1918 C 0.071 0.70505 0.37492 0.0
C1919 C 0.06422 0.7058 0.38983 0.0
C1920 C 0.04975 0.70101 0.38888 0.0
H1921 H 0.11057 0.73915 0.48944 0.0
H1922 H 0.09265 0.72347 0.46771 0.0
C1923 C 0.04221 0.69571 0.37318 0.0
C1924 C 0.07258 0.71283 0.4059 0.0
H1925 H 0.09649 0.71257 0.43436 0.0
C1926 C 0.07312 0.72542 0.41204 0.0
C1927 C 0.0807 0.70784 0.41443 0.0
C1928 C 0.07996 0.69398 0.40897 0.0
C1929 C 0.08213 0.73355 0.42592 0.0
C1930 C 0.09092 0.72905 0.43371 0.0
C1931 C 0.08984 0.71607 0.42821 0.0
C1932 C 0.1019 0.73818 0.44681 0.0
C1933 C 0.08239 0.74706 0.43193 0.0
C1934 C 0.11316 0.75144 0.44211 0.0
C1935 C 0.12344 0.76032 0.45437 0.0
C1936 C 0.12267 0.75614 0.47165 0.0
C1937 C 0.11152 0.74266 0.47624 0.0
C1938 C 0.10124 0.73373 0.46389 0.0
H1939 H 0.07264 0.74704 0.42787 0.0
H1940 H 0.08364 0.74844 0.44624 0.0
H1941 H 0.09147 0.75644 0.42616 0.0
H1942 H 0.114 0.75492 0.4289 0.0
H1943 H 0.13204 0.77046 0.45028 0.0
H1944 H 0.30824 0.03436 0.67688 0.0
H1945 H 0.30237 0.0443 0.7018 0.0
H1946 H 0.3278 0.03413 0.735 0.0
H1947 H 0.33406 0.02439 0.70996 0.0
H1948 H 0.28927 0.03243 0.73193 0.0
H1949 H 0.34408 0.07663 0.74558 0.0
H1950 H 0.33905 0.06583 0.72586 0.0
H1951 H 0.34172 0.05892 0.74565 0.0
C1952 C 0.3126 0.03417 0.68946 0.0
C1953 C 0.32175 0.02866 0.69135 0.0
C1954 C 0.30919 0.03985 0.70372 0.0
C1955 C 0.31482 0.04018 0.72022 0.0
C1956 C 0.32359 0.03428 0.72232 0.0
H1957 H 0.30606 0.08047 0.81532 0.0
H1958 H 0.31055 0.06543 0.79534 0.0
C1959 C 0.32708 0.02864 0.708 0.0
C1960 C 0.3116 0.04695 0.73501 0.0
H1961 H 0.32657 0.07523 0.76406 0.0
C1962 C 0.29743 0.04173 0.73903 0.0
C1963 C 0.32227 0.05909 0.74427 0.0
C1964 C 0.33763 0.06556 0.74008 0.0
C1965 C 0.29364 0.04847 0.75184 0.0
C1966 C 0.30428 0.0608 0.76076 0.0
C1967 C 0.31845 0.06574 0.75718 0.0
C1968 C 0.3009 0.06926 0.77308 0.0
C1969 C 0.27827 0.04242 0.75566 0.0
C1970 C 0.29406 0.07644 0.76713 0.0
C1971 C 0.29163 0.08518 0.77843 0.0
C1972 C 0.296 0.08693 0.79595 0.0
C1973 C 0.3027 0.07953 0.80189 0.0
C1974 C 0.30521 0.07085 0.79053 0.0
H1975 H 0.27181 0.03108 0.75106 0.0
H1976 H 0.27676 0.04307 0.76976 0.0
H1977 H 0.27433 0.04877 0.74894 0.0
H1978 H 0.29091 0.07557 0.75362 0.0
H1979 H 0.28671 0.09091 0.77329 0.0
H1980 H 0.98331 0.27518 0.72104 0.0
H1981 H 0.96932 0.2529 0.73632 0.0
H1982 H 0.9347 0.26108 0.7379 0.0
H1983 H 0.9489 0.28365 0.72338 0.0
H1984 H 0.93919 0.25467 0.76821 0.0
H1985 H 0.93811 0.21423 0.72228 0.0
H1986 H 0.9558 0.22788 0.72782 0.0
H1987 H 0.9443 0.23248 0.71632 0.0
C1988 C 0.97263 0.27208 0.72444 0.0
C1989 C 0.96722 0.28118 0.72119 0.0
C1990 C 0.9646 0.25929 0.73306 0.0
C1991 C 0.95086 0.25517 0.73809 0.0
C1992 C 0.94528 0.26403 0.7342 0.0
H1993 H 0.89114 0.17327 0.78118 0.0
H1994 H 0.90516 0.19306 0.76197 0.0
C1995 C 0.95341 0.27695 0.72594 0.0
C1996 C 0.94275 0.24236 0.74874 0.0
H1997 H 0.93145 0.20665 0.75134 0.0
C1998 C 0.9374 0.24415 0.7644 0.0
C1999 C 0.94027 0.22857 0.74375 0.0
C2000 C 0.9448 0.22564 0.72653 0.0
C2001 C 0.92976 0.23264 0.77526 0.0
C2002 C 0.92792 0.21902 0.77073 0.0
C2003 C 0.93309 0.21715 0.75496 0.0
C2004 C 0.92027 0.20655 0.78198 0.0
C2005 C 0.92344 0.23517 0.79124 0.0
C2006 C 0.92439 0.20734 0.79944 0.0
C2007 C 0.91625 0.19618 0.81045 0.0
C2008 C 0.90412 0.18386 0.80405 0.0
C2009 C 0.9005 0.18266 0.78636 0.0
C2010 C 0.90848 0.19395 0.77542 0.0
H2011 H 0.92206 0.24464 0.78995 0.0
H2012 H 0.91304 0.22571 0.7939 0.0
H2013 H 0.9306 0.23729 0.80256 0.0
H2014 H 0.9337 0.21675 0.80466 0.0
H2015 H 0.91931 0.19725 0.82402 0.0
H2016 H 0.70632 0.66824 0.70751 0.0
H2017 H 0.722 0.6773 0.73303 0.0
H2018 H 0.75436 0.71022 0.70268 0.0
H2019 H 0.73889 0.70108 0.677 0.0
H2020 H 0.76394 0.69546 0.72035 0.0
H2021 H 0.73539 0.71231 0.76473 0.0
H2022 H 0.72466 0.69423 0.75659 0.0
H2023 H 0.73105 0.70881 0.74188 0.0
C2024 C 0.7167 0.67754 0.70629 0.0
C2025 C 0.72136 0.68388 0.69016 0.0
C2026 C 0.72561 0.68278 0.72095 0.0
C2027 C 0.73929 0.69455 0.71982 0.0
C2028 C 0.74383 0.70116 0.70386 0.0
H2029 H 0.79928 0.73374 0.80749 0.0
H2030 H 0.78321 0.72986 0.78297 0.0
C2031 C 0.73496 0.69589 0.68918 0.0
C2032 C 0.74931 0.69909 0.7348 0.0
H2033 H 0.75375 0.70932 0.77759 0.0
C2034 C 0.76177 0.69865 0.73281 0.0
C2035 C 0.74656 0.7034 0.751 0.0
C2036 C 0.73375 0.70487 0.75366 0.0
C2037 C 0.77131 0.7019 0.7467 0.0
C2038 C 0.76818 0.70544 0.76312 0.0
C2039 C 0.75601 0.70642 0.76502 0.0
C2040 C 0.77726 0.70766 0.77852 0.0
C2041 C 0.78465 0.70148 0.74368 0.0
C2042 C 0.77896 0.69637 0.78432 0.0
C2043 C 0.78815 0.69856 0.79817 0.0
C2044 C 0.79576 0.71207 0.80663 0.0
C2045 C 0.7937 0.72326 0.80112 0.0
C2046 C 0.78448 0.72105 0.78721 0.0
H2047 H 0.78731 0.7025 0.72976 0.0
H2048 H 0.79368 0.71019 0.75119 0.0
H2049 H 0.7832 0.69108 0.74797 0.0
H2050 H 0.77333 0.68591 0.77792 0.0
H2051 H 0.78959 0.68975 0.80191 0.0
H2052 H 0.71337 0.65747 0.61599 0.0
H2053 H 0.72729 0.64978 0.59955 0.0
H2054 H 0.71426 0.61376 0.63267 0.0
H2055 H 0.70028 0.62147 0.64945 0.0
H2056 H 0.74947 0.6439 0.61181 0.0
H2057 H 0.70202 0.59696 0.58143 0.0
H2058 H 0.7013 0.61178 0.59155 0.0
H2059 H 0.70283 0.59908 0.60466 0.0
C2060 C 0.7136 0.64804 0.62002 0.0
C2061 C 0.70572 0.64009 0.63406 0.0
C2062 C 0.72155 0.64365 0.61056 0.0
C2063 C 0.72168 0.63117 0.61485 0.0
C2064 C 0.71417 0.62338 0.62913 0.0
H2065 H 0.77657 0.60692 0.5603 0.0
H2066 H 0.76299 0.60994 0.58322 0.0
C2067 C 0.70624 0.62782 0.6387 0.0
C2068 C 0.72929 0.62616 0.60377 0.0
H2069 H 0.72411 0.60171 0.57169 0.0
C2070 C 0.74399 0.63456 0.60321 0.0
C2071 C 0.722 0.61405 0.59249 0.0
C2072 C 0.70616 0.60493 0.59239 0.0
C2073 C 0.75162 0.63135 0.59131 0.0
C2074 C 0.7443 0.61941 0.5798 0.0
C2075 C 0.72963 0.61081 0.58064 0.0
C2076 C 0.75164 0.61636 0.56595 0.0
C2077 C 0.76736 0.64109 0.59059 0.0
C2078 C 0.74941 0.61861 0.54866 0.0
C2079 C 0.75709 0.61685 0.53555 0.0
C2080 C 0.76704 0.61272 0.53953 0.0
C2081 C 0.76888 0.60999 0.55683 0.0
C2082 C 0.76123 0.61182 0.56994 0.0
H2083 H 0.7711 0.65106 0.59861 0.0
H2084 H 0.7727 0.63538 0.59545 0.0
H2085 H 0.77057 0.64406 0.57704 0.0
H2086 H 0.742 0.62209 0.54538 0.0
H2087 H 0.75536 0.61887 0.52233 0.0
H2088 H 0.37644 0.06277 0.65018 0.0
H2089 H 0.38152 0.08473 0.63551 0.0
H2090 H 0.3462 0.06017 0.60039 0.0
H2091 H 0.34103 0.03823 0.61493 0.0
H2092 H 0.38754 0.09129 0.60028 0.0
H2093 H 0.33936 0.09201 0.61936 0.0
H2094 H 0.34527 0.08111 0.62993 0.0
H2095 H 0.33598 0.07538 0.60939 0.0
C2096 C 0.36972 0.06205 0.63938 0.0
C2097 C 0.35823 0.04877 0.63385 0.0
C2098 C 0.37264 0.0746 0.63101 0.0
C2099 C 0.3641 0.07409 0.61705 0.0
C2100 C 0.35274 0.06083 0.61138 0.0
H2101 H 0.37965 0.13528 0.5376 0.0
H2102 H 0.37711 0.11529 0.5547 0.0
C2103 C 0.34981 0.04829 0.61971 0.0
C2104 C 0.36719 0.08735 0.60815 0.0
H2105 H 0.35302 0.1081 0.59757 0.0
C2106 C 0.38005 0.09504 0.59976 0.0
C2107 C 0.35746 0.09229 0.6077 0.0
C2108 C 0.3438 0.08486 0.61721 0.0
C2109 C 0.38328 0.10736 0.59051 0.0
C2110 C 0.3733 0.11196 0.58948 0.0
C2111 C 0.3606 0.10448 0.59826 0.0
C2112 C 0.3757 0.12443 0.57924 0.0
C2113 C 0.39738 0.11539 0.58205 0.0
C2114 C 0.3756 0.13612 0.58734 0.0
C2115 C 0.37702 0.14753 0.57761 0.0
C2116 C 0.37849 0.14743 0.55956 0.0
C2117 C 0.37876 0.13578 0.55151 0.0
C2118 C 0.37732 0.12435 0.56126 0.0
H2119 H 0.40515 0.11287 0.58788 0.0
H2120 H 0.39608 0.11226 0.5681 0.0
H2121 H 0.40168 0.12715 0.58314 0.0
H2122 H 0.37435 0.13636 0.6012 0.0
H2123 H 0.37695 0.15642 0.58422 0.0
H2124 H 0.97136 0.30913 0.64715 0.0
H2125 H 0.95884 0.30183 0.61908 0.0
H2126 H 0.92052 0.29362 0.64355 0.0
H2127 H 0.93289 0.301 0.67154 0.0
H2128 H 0.93644 0.27509 0.61092 0.0
H2129 H 0.92095 0.31604 0.60147 0.0
H2130 H 0.9345 0.31847 0.61693 0.0
H2131 H 0.91622 0.30812 0.6223 0.0
C2132 C 0.96032 0.30597 0.64654 0.0
C2133 C 0.95314 0.30563 0.66165 0.0
C2134 C 0.95319 0.30182 0.63047 0.0
C2135 C 0.93881 0.2974 0.62918 0.0
C2136 C 0.9317 0.29732 0.64416 0.0
H2137 H 0.87113 0.23666 0.56674 0.0
H2138 H 0.88949 0.25143 0.58815 0.0
C2139 C 0.93878 0.30142 0.66021 0.0
C2140 C 0.93085 0.29156 0.61258 0.0
H2141 H 0.90739 0.29374 0.58515 0.0
C2142 C 0.9303 0.27934 0.6051 0.0
C2143 C 0.92297 0.29719 0.60486 0.0
C2144 C 0.92379 0.31077 0.6117 0.0
C2145 C 0.92142 0.27209 0.59077 0.0
C2146 C 0.91277 0.27712 0.58386 0.0
C2147 C 0.91394 0.28983 0.59062 0.0
C2148 C 0.9016 0.26857 0.57071 0.0
C2149 C 0.92104 0.25885 0.58341 0.0
C2150 C 0.90215 0.27352 0.55391 0.0
C2151 C 0.89167 0.26501 0.54151 0.0
C2152 C 0.88047 0.25147 0.54581 0.0
C2153 C 0.87979 0.24684 0.56285 0.0
C2154 C 0.89024 0.25529 0.57514 0.0
H2155 H 0.93075 0.2586 0.58695 0.0
H2156 H 0.91192 0.24921 0.58868 0.0
H2157 H 0.91979 0.25823 0.56908 0.0
H2158 H 0.91081 0.28381 0.55032 0.0
H2159 H 0.89252 0.26886 0.5285 0.0
H2160 H 0.33221 0.31551 0.64658 0.0
H2161 H 0.33803 0.30588 0.62104 0.0
H2162 H 0.37038 0.30371 0.65072 0.0
H2163 H 0.3648 0.31342 0.67618 0.0
H2164 H 0.37817 0.31375 0.61626 0.0
H2165 H 0.32665 0.26296 0.61867 0.0
H2166 H 0.32602 0.27925 0.61745 0.0
H2167 H 0.3334 0.27592 0.63644 0.0
C2168 C 0.34069 0.31317 0.64763 0.0
C2169 C 0.34792 0.31509 0.66352 0.0
C2170 C 0.34396 0.30761 0.63303 0.0
C2171 C 0.3545 0.3039 0.63408 0.0
C2172 C 0.36218 0.30647 0.64966 0.0
H2173 H 0.36955 0.24247 0.5846 0.0
H2174 H 0.365 0.2581 0.60326 0.0
C2175 C 0.35892 0.31198 0.66423 0.0
C2176 C 0.35699 0.29643 0.61947 0.0
H2177 H 0.34244 0.26413 0.59772 0.0
C2178 C 0.37031 0.30298 0.612 0.0
C2179 C 0.34674 0.28232 0.61412 0.0
C2180 C 0.33242 0.2746 0.62211 0.0
C2181 C 0.37377 0.29563 0.59958 0.0
C2182 C 0.3636 0.28144 0.5945 0.0
C2183 C 0.35017 0.27505 0.60162 0.0
C2184 C 0.367 0.27252 0.583 0.0
C2185 C 0.38843 0.30283 0.59253 0.0
C2186 C 0.36972 0.27552 0.56542 0.0
C2187 C 0.37224 0.26651 0.55463 0.0
C2188 C 0.37201 0.25433 0.56128 0.0
C2189 C 0.36955 0.25159 0.57899 0.0
C2190 C 0.36702 0.26055 0.5897 0.0
H2191 H 0.39564 0.31307 0.59959 0.0
H2192 H 0.39289 0.29562 0.59334 0.0
H2193 H 0.38798 0.30514 0.57868 0.0
H2194 H 0.36959 0.28462 0.55997 0.0
H2195 H 0.37397 0.26883 0.54102 0.0
H2196 H 0.70047 0.06475 0.63983 0.0
H2197 H 0.71529 0.08616 0.62332 0.0
H2198 H 0.72603 0.06121 0.5892 0.0
H2199 H 0.71143 0.03986 0.60567 0.0
H2200 H 0.74903 0.08713 0.59977 0.0
H2201 H 0.7052 0.0942 0.57513 0.0
H2202 H 0.70634 0.09352 0.59828 0.0
H2203 H 0.70228 0.07797 0.58511 0.0
C2204 C 0.70604 0.06385 0.62885 0.0
C2205 C 0.70478 0.05062 0.62405 0.0
C2206 C 0.71441 0.07606 0.61938 0.0
C2207 C 0.72155 0.07519 0.60489 0.0
C2208 C 0.72055 0.06208 0.60031 0.0
H2209 H 0.75925 0.13277 0.52042 0.0
H2210 H 0.74391 0.11318 0.5392 0.0
C2211 C 0.71223 0.0499 0.60978 0.0
C2212 C 0.73015 0.08791 0.59444 0.0
H2213 H 0.72833 0.11216 0.56837 0.0
C2214 C 0.74452 0.09263 0.59293 0.0
C2215 C 0.72416 0.09491 0.58536 0.0
C2216 C 0.70863 0.08985 0.58588 0.0
C2217 C 0.75313 0.10422 0.5826 0.0
C2218 C 0.74722 0.11142 0.57382 0.0
C2219 C 0.73282 0.10668 0.57526 0.0
C2220 C 0.7558 0.1237 0.56275 0.0
C2221 C 0.76838 0.1084 0.58082 0.0
C2222 C 0.76728 0.13623 0.56989 0.0
C2223 C 0.77604 0.14737 0.55923 0.0
C2224 C 0.77339 0.14623 0.54126 0.0
C2225 C 0.76151 0.13394 0.53423 0.0
C2226 C 0.75278 0.12276 0.54492 0.0
H2227 H 0.77034 0.09969 0.58478 0.0
H2228 H 0.77178 0.11115 0.56727 0.0
H2229 H 0.77503 0.11796 0.58926 0.0
H2230 H 0.76958 0.13729 0.58369 0.0
H2231 H 0.78497 0.15684 0.56503 0.0
H2232 H 0.96287 0.66621 0.64128 0.0
H2233 H 0.94807 0.65888 0.61485 0.0
H2234 H 0.91095 0.6366 0.64536 0.0
H2235 H 0.92553 0.64387 0.67179 0.0
H2236 H 0.92729 0.63023 0.60203 0.0
H2237 H 0.90424 0.6647 0.61624 0.0
H2238 H 0.92008 0.6673 0.62698 0.0
H2239 H 0.90314 0.65334 0.63357 0.0
C2240 C 0.95156 0.65973 0.64239 0.0
C2241 C 0.9454 0.65573 0.65871 0.0
C2242 C 0.94314 0.65553 0.62726 0.0
C2243 C 0.92843 0.64738 0.62821 0.0
C2244 C 0.92228 0.64309 0.6444 0.0
H2245 H 0.85581 0.61344 0.56028 0.0
H2246 H 0.87281 0.61986 0.58417 0.0
C2247 C 0.93066 0.64723 0.65949 0.0
C2248 C 0.91942 0.64345 0.61234 0.0
H2249 H 0.89358 0.64757 0.59313 0.0
C2250 C 0.91999 0.63409 0.59996 0.0
C2251 C 0.90996 0.64856 0.60972 0.0
C2252 C 0.90936 0.65913 0.62223 0.0
C2253 C 0.91093 0.62927 0.58529 0.0
C2254 C 0.90126 0.63416 0.58286 0.0
C2255 C 0.90094 0.64377 0.59508 0.0
C2256 C 0.89108 0.62922 0.56802 0.0
C2257 C 0.91145 0.61864 0.57282 0.0
C2258 C 0.8957 0.63224 0.55095 0.0
C2259 C 0.88597 0.62843 0.53718 0.0
C2260 C 0.87143 0.62161 0.54025 0.0
C2261 C 0.86688 0.61842 0.55737 0.0
C2262 C 0.8766 0.6222 0.57108 0.0
H2263 H 0.91703 0.61344 0.57858 0.0
H2264 H 0.90067 0.61018 0.56865 0.0
H2265 H 0.91716 0.62429 0.56113 0.0
H2266 H 0.90684 0.63786 0.54832 0.0
H2267 H 0.88983 0.63098 0.52415 0.0
H2268 H 0.97298 0.71652 0.69968 0.0
H2269 H 0.96117 0.72697 0.71623 0.0
H2270 H 0.94754 0.6931 0.7528 0.0
H2271 H 0.95923 0.68269 0.73658 0.0
H2272 H 0.9314 0.71298 0.72599 0.0
H2273 H 0.96847 0.73119 0.78246 0.0
H2274 H 0.9729 0.72724 0.7614 0.0
H2275 H 0.96244 0.71296 0.77571 0.0
C2276 C 0.96742 0.7113 0.71122 0.0
C2277 C 0.96702 0.69877 0.71682 0.0
C2278 C 0.96071 0.71728 0.72063 0.0
C2279 C 0.95371 0.71091 0.73585 0.0
C2280 C 0.9531 0.69829 0.74124 0.0
H2281 H 0.88795 0.70193 0.79664 0.0
H2282 H 0.90373 0.70197 0.7747 0.0
C2283 C 0.95969 0.69229 0.73185 0.0
C2284 C 0.94676 0.71711 0.7462 0.0
H2285 H 0.9455 0.72797 0.78751 0.0
C2286 C 0.93462 0.71657 0.73933 0.0
C2287 C 0.95114 0.72201 0.76348 0.0
C2288 C 0.96454 0.72354 0.77117 0.0
C2289 C 0.92614 0.71977 0.74977 0.0
C2290 C 0.92985 0.7234 0.76749 0.0
C2291 C 0.94258 0.72503 0.77396 0.0
C2292 C 0.92002 0.72397 0.77994 0.0
C2293 C 0.91306 0.71882 0.74186 0.0
C2294 C 0.92407 0.73624 0.79044 0.0
C2295 C 0.91511 0.73619 0.80318 0.0
C2296 C 0.90205 0.72379 0.80576 0.0
C2297 C 0.89801 0.71158 0.79511 0.0
C2298 C 0.90693 0.71166 0.78238 0.0
H2299 H 0.9142 0.72078 0.72775 0.0
H2300 H 0.904 0.70787 0.74356 0.0
H2301 H 0.91064 0.72663 0.74816 0.0
H2302 H 0.93423 0.74578 0.78889 0.0
H2303 H 0.91853 0.74572 0.81128 0.0
H2304 H 0.32685 0.30142 0.74014 0.0
H2305 H 0.32111 0.27896 0.75371 0.0
H2306 H 0.28694 0.25569 0.71666 0.0
H2307 H 0.29274 0.2782 0.70278 0.0
H2308 H 0.2949 0.25931 0.76834 0.0
H2309 H 0.30975 0.23446 0.71502 0.0
H2310 H 0.31568 0.25338 0.71619 0.0
H2311 H 0.29792 0.24078 0.70931 0.0
C2312 C 0.31822 0.29153 0.73472 0.0
C2313 C 0.31032 0.29159 0.72029 0.0
C2314 C 0.31491 0.27871 0.74255 0.0
C2315 C 0.3037 0.26567 0.73609 0.0
C2316 C 0.29577 0.26563 0.72168 0.0
H2317 H 0.26975 0.1871 0.79558 0.0
H2318 H 0.27148 0.20642 0.77769 0.0
C2319 C 0.29906 0.2785 0.71383 0.0
C2320 C 0.30018 0.25224 0.74485 0.0
H2321 H 0.30051 0.2209 0.74002 0.0
C2322 C 0.29601 0.25084 0.76213 0.0
C2323 C 0.30175 0.24131 0.7367 0.0
C2324 C 0.30662 0.24251 0.71832 0.0
C2325 C 0.29356 0.23887 0.7716 0.0
C2326 C 0.29518 0.22796 0.76348 0.0
C2327 C 0.29917 0.22926 0.74613 0.0
C2328 C 0.29374 0.21562 0.7732 0.0
C2329 C 0.28977 0.23825 0.79039 0.0
C2330 C 0.30559 0.21418 0.77615 0.0
C2331 C 0.30462 0.20315 0.78625 0.0
C2332 C 0.29176 0.19329 0.79354 0.0
C2333 C 0.27979 0.19449 0.7901 0.0
C2334 C 0.28078 0.20557 0.78001 0.0
H2335 H 0.29158 0.24874 0.79553 0.0
H2336 H 0.27846 0.23022 0.79176 0.0
H2337 H 0.29601 0.2349 0.79844 0.0
H2338 H 0.31567 0.2218 0.77093 0.0
H2339 H 0.31397 0.20237 0.78841 0.0
H2340 H 0.70246 0.02355 0.70135 0.0
H2341 H 0.71707 0.03214 0.72789 0.0
H2342 H 0.75403 0.04323 0.69831 0.0
H2343 H 0.73956 0.03442 0.67185 0.0
H2344 H 0.75375 0.03011 0.72845 0.0
H2345 H 0.74246 0.07418 0.74126 0.0
H2346 H 0.72719 0.05658 0.73964 0.0
H2347 H 0.73778 0.06414 0.72097 0.0
C2348 C 0.71369 0.02776 0.70049 0.0
C2349 C 0.71983 0.02838 0.68441 0.0
C2350 C 0.72203 0.03274 0.71567 0.0
C2351 C 0.73668 0.03858 0.71503 0.0
C2352 C 0.74276 0.03883 0.6991 0.0
H2353 H 0.81151 0.08591 0.77763 0.0
H2354 H 0.79345 0.07188 0.75552 0.0
C2355 C 0.73444 0.03379 0.68396 0.0
C2356 C 0.74581 0.04469 0.73082 0.0
H2357 H 0.75713 0.07157 0.76161 0.0
C2358 C 0.75443 0.03913 0.73575 0.0
C2359 C 0.74669 0.05646 0.74034 0.0
C2360 C 0.73814 0.0633 0.73525 0.0
C2361 C 0.76403 0.04513 0.74981 0.0
C2362 C 0.76511 0.05707 0.75907 0.0
C2363 C 0.75622 0.06238 0.75448 0.0
C2364 C 0.77601 0.06479 0.77284 0.0
C2365 C 0.77301 0.03871 0.75461 0.0
C2366 C 0.77217 0.06555 0.7899 0.0
C2367 C 0.7825 0.07348 0.80267 0.0
C2368 C 0.79686 0.08094 0.79854 0.0
C2369 C 0.80061 0.08008 0.7814 0.0
C2370 C 0.79029 0.07208 0.7687 0.0
H2371 H 0.76848 0.02759 0.7493 0.0
H2372 H 0.78364 0.04529 0.74924 0.0
H2373 H 0.77422 0.03863 0.76889 0.0
H2374 H 0.76118 0.06003 0.79332 0.0
H2375 H 0.77923 0.07376 0.81576 0.0
H2376 H 0.05197 0.31639 0.9922 0.0
H2377 H 0.0644 0.30917 0.01239 0.0
H2378 H 0.0478 0.32146 0.05546 0.0
H2379 H 0.03523 0.32869 0.03533 0.0
H2380 H 0.08479 0.32704 0.03829 0.0
H2381 H 0.03863 0.28018 0.06632 0.0
H2382 H 0.03748 0.28785 0.04621 0.0
H2383 H 0.03812 0.29658 0.06649 0.0
C2384 C 0.05088 0.3175 0.00596 0.0
C2385 C 0.04258 0.3231 0.01215 0.0
C2386 C 0.05801 0.31337 0.01747 0.0
C2387 C 0.05689 0.31463 0.03539 0.0
C2388 C 0.04861 0.32019 0.04166 0.0
H2389 H 0.0946 0.29732 0.12437 0.0
H2390 H 0.08059 0.30309 0.1048 0.0
C2391 C 0.0415 0.32438 0.03014 0.0
C2392 C 0.06485 0.3106 0.04745 0.0
H2393 H 0.061 0.28712 0.07884 0.0
C2394 C 0.0796 0.31829 0.04713 0.0
C2395 C 0.05803 0.29923 0.059 0.0
C2396 C 0.04219 0.29038 0.05951 0.0
C2397 C 0.08777 0.31502 0.05821 0.0
C2398 C 0.08096 0.30353 0.06963 0.0
C2399 C 0.06619 0.29589 0.07003 0.0
C2400 C 0.08903 0.29939 0.08139 0.0
C2401 C 0.1036 0.32414 0.05785 0.0
C2402 C 0.09818 0.29505 0.07472 0.0
C2403 C 0.10632 0.29189 0.08587 0.0
C2404 C 0.10537 0.29288 0.10393 0.0
C2405 C 0.09579 0.29671 0.11054 0.0
C2406 C 0.08769 0.29991 0.09938 0.0
H2407 H 0.10699 0.33467 0.05199 0.0
H2408 H 0.10835 0.32603 0.07109 0.0
H2409 H 0.10782 0.31852 0.04993 0.0
H2410 H 0.09916 0.29428 0.06087 0.0
H2411 H 0.11363 0.28906 0.08032 0.0
H2412 H 0.681 0.70629 0.03906 0.0
H2413 H 0.69118 0.73152 0.04792 0.0
H2414 H 0.65554 0.72061 0.08003 0.0
H2415 H 0.64515 0.69549 0.07107 0.0
H2416 H 0.66504 0.74646 0.06293 0.0
H2417 H 0.70872 0.74389 0.09689 0.0
H2418 H 0.7066 0.73961 0.07407 0.0
H2419 H 0.69316 0.72808 0.08854 0.0
C2420 C 0.67519 0.70928 0.04777 0.0
C2421 C 0.66235 0.69881 0.05457 0.0
C2422 C 0.68107 0.7237 0.05288 0.0
C2423 C 0.67425 0.72785 0.06492 0.0
C2424 C 0.66101 0.7176 0.0708 0.0
H2425 H 0.69923 0.79043 0.14519 0.0
H2426 H 0.69264 0.76985 0.12567 0.0
C2427 C 0.65511 0.70322 0.06568 0.0
C2428 C 0.68125 0.74256 0.07258 0.0
H2429 H 0.70808 0.76519 0.10029 0.0
C2430 C 0.67457 0.75068 0.0709 0.0
C2431 C 0.6936 0.74792 0.08312 0.0
C2432 C 0.70092 0.73943 0.08593 0.0
C2433 C 0.67965 0.76383 0.07993 0.0
C2434 C 0.69184 0.76904 0.09071 0.0
C2435 C 0.69879 0.76116 0.09192 0.0
C2436 C 0.69669 0.78184 0.10224 0.0
C2437 C 0.67154 0.77166 0.07858 0.0
C2438 C 0.70145 0.79546 0.09551 0.0
C2439 C 0.70514 0.80725 0.10666 0.0
C2440 C 0.70417 0.80559 0.1247 0.0
C2441 C 0.69988 0.79201 0.13136 0.0
C2442 C 0.6962 0.78027 0.12023 0.0
H2443 H 0.66103 0.76494 0.07219 0.0
H2444 H 0.67006 0.77514 0.09162 0.0
H2445 H 0.67756 0.78138 0.07085 0.0
H2446 H 0.7021 0.79693 0.08166 0.0
H2447 H 0.70834 0.81756 0.10113 0.0
H2448 H 0.30191 0.97744 0.02476 0.0
H2449 H 0.28306 0.96871 0.04566 0.0
H2450 H 0.29326 0.93687 0.06177 0.0
H2451 H 0.31235 0.94572 0.04116 0.0
H2452 H 0.25997 0.94201 0.04642 0.0
H2453 H 0.29104 0.9542 0.1078 0.0
H2454 H 0.29902 0.9617 0.08748 0.0
H2455 H 0.29459 0.94373 0.09256 0.0
C2456 C 0.30024 0.96866 0.03287 0.0
C2457 C 0.30864 0.96227 0.03132 0.0
C2458 C 0.28946 0.9637 0.0448 0.0
C2459 C 0.28689 0.95228 0.05543 0.0
C2460 C 0.29528 0.94591 0.05398 0.0
H2461 H 0.22209 0.89705 0.12362 0.0
H2462 H 0.24245 0.90932 0.10518 0.0
C2463 C 0.30613 0.95092 0.04211 0.0
C2464 C 0.27492 0.94652 0.06731 0.0
H2465 H 0.26617 0.93861 0.10952 0.0
C2466 C 0.26133 0.94141 0.06025 0.0
C2467 C 0.27675 0.94577 0.08534 0.0
C2468 C 0.29115 0.95177 0.09379 0.0
C2469 C 0.24946 0.93515 0.07066 0.0
C2470 C 0.25128 0.93412 0.0886 0.0
C2471 C 0.26486 0.93942 0.09573 0.0
C2472 C 0.23915 0.92706 0.10008 0.0
C2473 C 0.23503 0.92928 0.06236 0.0
C2474 C 0.23068 0.9331 0.10343 0.0
C2475 C 0.21908 0.92618 0.11409 0.0
C2476 C 0.21581 0.91313 0.12161 0.0
C2477 C 0.22443 0.9072 0.11828 0.0
C2478 C 0.23603 0.91414 0.10768 0.0
H2479 H 0.23527 0.92859 0.04802 0.0
H2480 H 0.22766 0.91846 0.06718 0.0
H2481 H 0.23082 0.93641 0.06583 0.0
H2482 H 0.23307 0.94318 0.09783 0.0
H2483 H 0.21276 0.93112 0.11659 0.0
H2484 H 0.35937 0.04259 0.96369 0.0
H2485 H 0.35062 0.05783 0.95285 0.0
H2486 H 0.30871 0.0271 0.96838 0.0
H2487 H 0.31738 0.01178 0.97947 0.0
H2488 H 0.32991 0.04657 0.92587 0.0
H2489 H 0.31268 0.06632 0.98217 0.0
H2490 H 0.32507 0.06004 0.98439 0.0
H2491 H 0.30664 0.04743 0.98115 0.0
C2492 C 0.34835 0.03921 0.96521 0.0
C2493 C 0.33904 0.02588 0.97225 0.0
C2494 C 0.34338 0.04794 0.95902 0.0
C2495 C 0.32904 0.04357 0.95981 0.0
C2496 C 0.31986 0.03074 0.96786 0.0
H2497 H 0.28216 0.07825 0.90646 0.0
H2498 H 0.28817 0.06318 0.9239 0.0
C2499 C 0.32484 0.02199 0.97415 0.0
C2500 C 0.32353 0.05145 0.95009 0.0
H2501 H 0.30766 0.07159 0.95424 0.0
C2502 C 0.32505 0.05205 0.93208 0.0
C2503 C 0.31701 0.05837 0.95823 0.0
C2504 C 0.3153 0.05814 0.97757 0.0
C2505 C 0.32043 0.05958 0.92197 0.0
C2506 C 0.31432 0.06689 0.93013 0.0
C2507 C 0.3124 0.06599 0.94808 0.0
C2508 C 0.3106 0.07614 0.92022 0.0
C2509 C 0.32213 0.05967 0.90261 0.0
C2510 C 0.32124 0.08842 0.91257 0.0
C2511 C 0.31787 0.09694 0.90258 0.0
C2512 C 0.30377 0.09339 0.90012 0.0
C2513 C 0.2931 0.08115 0.90797 0.0
C2514 C 0.29651 0.07262 0.91803 0.0
H2515 H 0.32355 0.05068 0.89798 0.0
H2516 H 0.31286 0.05896 0.8957 0.0
H2517 H 0.33159 0.06986 0.89912 0.0
H2518 H 0.33219 0.09135 0.91425 0.0
H2519 H 0.32631 0.10621 0.89657 0.0
H2520 H 0.95949 0.29832 0.96447 0.0
H2521 H 0.94475 0.27298 0.95675 0.0
H2522 H 0.97861 0.2656 0.97109 0.0
H2523 H 0.9936 0.29112 0.9788 0.0
H2524 H 0.96741 0.25549 0.93775 0.0
H2525 H 0.92469 0.23677 0.98491 0.0
H2526 H 0.92782 0.2529 0.97478 0.0
H2527 H 0.94138 0.25311 0.98831 0.0
C2528 C 0.96377 0.2913 0.96631 0.0
C2529 C 0.97776 0.29678 0.97219 0.0
C2530 C 0.95527 0.27677 0.96199 0.0
C2531 C 0.96053 0.26737 0.96353 0.0
C2532 C 0.97433 0.27267 0.96994 0.0
H2533 H 0.91812 0.18034 0.91489 0.0
H2534 H 0.93523 0.20137 0.93225 0.0
C2535 C 0.98285 0.28725 0.97438 0.0
C2536 C 0.952 0.25243 0.95669 0.0
H2537 H 0.91921 0.22291 0.95813 0.0
C2538 C 0.95699 0.2482 0.94243 0.0
C2539 C 0.93843 0.24297 0.96284 0.0
C2540 C 0.93282 0.24661 0.97867 0.0
C2541 C 0.94838 0.23516 0.9334 0.0
C2542 C 0.93452 0.22607 0.93899 0.0
C2543 C 0.92982 0.22995 0.95381 0.0
C2544 C 0.92429 0.21318 0.92872 0.0
C2545 C 0.95386 0.2316 0.91738 0.0
C2546 C 0.91243 0.2128 0.92117 0.0
C2547 C 0.9027 0.20088 0.91128 0.0
C2548 C 0.90457 0.189 0.9088 0.0
C2549 C 0.91647 0.18938 0.91639 0.0
C2550 C 0.92623 0.20137 0.92633 0.0
H2551 H 0.96393 0.24084 0.91322 0.0
H2552 H 0.9557 0.2226 0.92004 0.0
H2553 H 0.94602 0.22816 0.90652 0.0
H2554 H 0.91078 0.22185 0.92279 0.0
H2555 H 0.89379 0.20104 0.9054 0.0
H2556 H 0.68405 0.64326 0.98062 0.0
H2557 H 0.70412 0.6522 0.96145 0.0
H2558 H 0.71965 0.69512 0.98185 0.0
H2559 H 0.69977 0.68629 0.00125 0.0
H2560 H 0.71407 0.67334 0.93596 0.0
H2561 H 0.75256 0.68808 0.99078 0.0
H2562 H 0.73382 0.67689 0.99333 0.0
H2563 H 0.74158 0.69598 0.99209 0.0
C2564 C 0.69168 0.65462 0.98096 0.0
C2565 C 0.69041 0.66404 0.99262 0.0
C2566 C 0.70313 0.6597 0.96998 0.0
C2567 C 0.71348 0.67426 0.9705 0.0
C2568 C 0.71191 0.68379 0.98154 0.0
H2569 H 0.79445 0.72168 0.92115 0.0
H2570 H 0.77285 0.71491 0.93686 0.0
C2571 C 0.70051 0.67873 0.99256 0.0
C2572 C 0.72616 0.67938 0.9599 0.0
H2573 H 0.76188 0.69439 0.96286 0.0
C2574 C 0.72454 0.67795 0.94181 0.0
C2575 C 0.73978 0.68536 0.96762 0.0
C2576 C 0.74209 0.68658 0.98702 0.0
C2577 C 0.73622 0.68247 0.93119 0.0
C2578 C 0.7498 0.68837 0.93892 0.0
C2579 C 0.75144 0.68992 0.957 0.0
C2580 C 0.76247 0.69259 0.92858 0.0
C2581 C 0.73395 0.68104 0.91179 0.0
C2582 C 0.76377 0.68226 0.91882 0.0
C2583 C 0.77605 0.68608 0.90983 0.0
C2584 C 0.78729 0.70031 0.91051 0.0
C2585 C 0.78592 0.71067 0.92022 0.0
C2586 C 0.77363 0.70682 0.92925 0.0
H2587 H 0.72366 0.67992 0.90792 0.0
H2588 H 0.74248 0.69046 0.90534 0.0
H2589 H 0.73405 0.67133 0.90703 0.0
H2590 H 0.75537 0.67117 0.91839 0.0
H2591 H 0.77675 0.67789 0.90232 0.0
H2592 H 0.97607 0.69218 0.99763 0.0
H2593 H 0.96293 0.69967 0.97892 0.0
H2594 H 0.94159 0.65779 0.95395 0.0
H2595 H 0.95457 0.65013 0.97266 0.0
H2596 H 0.96042 0.69972 0.94181 0.0
H2597 H 0.90949 0.6635 0.9724 0.0
H2598 H 0.92625 0.66784 0.98211 0.0
H2599 H 0.91881 0.65492 0.96448 0.0
C2600 C 0.96865 0.68458 0.98808 0.0
C2601 C 0.96626 0.6705 0.98676 0.0
C2602 C 0.96117 0.68889 0.97739 0.0
C2603 C 0.95114 0.67921 0.96527 0.0
C2604 C 0.94912 0.66534 0.96345 0.0
H2605 H 0.88906 0.68147 0.89733 0.0
H2606 H 0.90477 0.67528 0.91272 0.0
C2607 C 0.95659 0.66101 0.97411 0.0
C2608 C 0.94247 0.68348 0.95491 0.0
H2609 H 0.90865 0.67597 0.94803 0.0
C2610 C 0.94911 0.69456 0.94316 0.0
C2611 C 0.92772 0.67674 0.95677 0.0
C2612 C 0.92011 0.66517 0.96972 0.0
C2613 C 0.94132 0.69891 0.93293 0.0
C2614 C 0.92657 0.69216 0.93479 0.0
C2615 C 0.91996 0.6811 0.94658 0.0
C2616 C 0.91768 0.69633 0.92467 0.0
C2617 C 0.94891 0.71047 0.91998 0.0
C2618 C 0.91973 0.71023 0.92629 0.0
C2619 C 0.91073 0.7138 0.91752 0.0
C2620 C 0.89944 0.70348 0.90713 0.0
C2621 C 0.89754 0.68961 0.90541 0.0
C2622 C 0.90655 0.68608 0.91412 0.0
H2623 H 0.95935 0.71181 0.9169 0.0
H2624 H 0.94258 0.70805 0.90778 0.0
H2625 H 0.95065 0.72082 0.92548 0.0
H2626 H 0.92805 0.71822 0.93467 0.0
H2627 H 0.91236 0.72451 0.91928 0.0
H2628 H 0.35473 0.31562 0.93937 0.0
H2629 H 0.34498 0.29075 0.9297 0.0
H2630 H 0.31123 0.27769 0.96563 0.0
H2631 H 0.32073 0.30268 0.97519 0.0
H2632 H 0.33965 0.26664 0.94659 0.0
H2633 H 0.29007 0.26142 0.91962 0.0
H2634 H 0.30497 0.27847 0.92634 0.0
H2635 H 0.2935 0.26646 0.9422 0.0
C2636 C 0.34527 0.30749 0.94534 0.0
C2637 C 0.33844 0.3112 0.95795 0.0
C2638 C 0.33972 0.29326 0.93978 0.0
C2639 C 0.32724 0.28241 0.9467 0.0
C2640 C 0.3207 0.28594 0.95983 0.0
H2641 H 0.30011 0.19257 0.92131 0.0
H2642 H 0.30639 0.21481 0.93742 0.0
C2643 C 0.32621 0.30023 0.96536 0.0
C2644 C 0.32105 0.26752 0.93976 0.0
H2645 H 0.29256 0.24099 0.91739 0.0
C2646 C 0.32931 0.26097 0.94032 0.0
C2647 C 0.30763 0.26025 0.93139 0.0
C2648 C 0.29854 0.26702 0.92967 0.0
C2649 C 0.32464 0.24746 0.93246 0.0
C2650 C 0.31118 0.24014 0.92419 0.0
C2651 C 0.30282 0.24658 0.92387 0.0
C2652 C 0.306 0.22621 0.91486 0.0
C2653 C 0.33443 0.24143 0.93248 0.0
C2654 C 0.30303 0.22502 0.89699 0.0
C2655 C 0.29928 0.21229 0.8878 0.0
C2656 C 0.2985 0.20054 0.89634 0.0
C2657 C 0.30088 0.20155 0.91436 0.0
C2658 C 0.3045 0.21424 0.92356 0.0
H2659 H 0.3455 0.24982 0.93557 0.0
H2660 H 0.3311 0.23314 0.94243 0.0
H2661 H 0.33409 0.23635 0.91972 0.0
H2662 H 0.30407 0.23412 0.89004 0.0
H2663 H 0.29758 0.21183 0.87391 0.0
H2664 H 0.72002 0.04409 0.01904 0.0
H2665 H 0.73829 0.0537 0.99733 0.0
H2666 H 0.70711 0.02972 0.95716 0.0
H2667 H 0.68872 0.0203 0.97871 0.0
H2668 H 0.74642 0.03915 0.97505 0.0
H2669 H 0.72702 0.06989 0.93832 0.0
H2670 H 0.72057 0.06284 0.95935 0.0
H2671 H 0.7143 0.05124 0.94038 0.0
C2672 C 0.71703 0.04093 0.00557 0.0
C2673 C 0.70291 0.03151 0.00058 0.0
C2674 C 0.72748 0.04641 0.9932 0.0
C2675 C 0.72402 0.04257 0.97562 0.0
C2676 C 0.70996 0.03306 0.9706 0.0
H2677 H 0.77883 0.07017 0.88597 0.0
H2678 H 0.75883 0.05618 0.90475 0.0
C2679 C 0.69948 0.02765 0.98295 0.0
C2680 C 0.73523 0.04834 0.96266 0.0
H2681 H 0.74651 0.06907 0.92701 0.0
C2682 C 0.74643 0.04567 0.96452 0.0
C2683 C 0.73516 0.05678 0.94889 0.0
C2684 C 0.72369 0.06049 0.94665 0.0
C2685 C 0.75765 0.05134 0.95308 0.0
C2686 C 0.7577 0.05997 0.93955 0.0
C2687 C 0.74635 0.06236 0.93738 0.0
C2688 C 0.76994 0.06757 0.92833 0.0
C2689 C 0.76943 0.04813 0.9556 0.0
C2690 C 0.78273 0.07854 0.93546 0.0
C2691 C 0.79406 0.08654 0.92482 0.0
C2692 C 0.79281 0.0837 0.90687 0.0
C2693 C 0.78009 0.07249 0.89979 0.0
C2694 C 0.76868 0.06455 0.91045 0.0
H2695 H 0.76617 0.03857 0.96361 0.0
H2696 H 0.77305 0.04632 0.94294 0.0
H2697 H 0.77848 0.05743 0.96231 0.0
H2698 H 0.78383 0.08114 0.9492 0.0
H2699 H 0.80379 0.09505 0.93063 0.0
H2700 H 0.68651 0.98318 0.02806 0.0
H2701 H 0.69901 0.9707 0.03641 0.0
H2702 H 0.66156 0.93821 0.06041 0.0
H2703 H 0.64895 0.95032 0.05182 0.0
H2704 H 0.70421 0.96781 0.06918 0.0
H2705 H 0.67549 0.91387 0.0386 0.0
H2706 H 0.67325 0.92841 0.03127 0.0
H2707 H 0.66332 0.91777 0.04914 0.0
C2708 C 0.68081 0.97315 0.03467 0.0
C2709 C 0.66675 0.96783 0.03942 0.0
C2710 C 0.68799 0.96604 0.03944 0.0
C2711 C 0.68121 0.95345 0.04891 0.0
C2712 C 0.66695 0.9477 0.05276 0.0
H2713 H 0.70389 0.92529 0.1364 0.0
H2714 H 0.69931 0.93803 0.11382 0.0
C2715 C 0.65977 0.95475 0.04796 0.0
C2716 C 0.68935 0.94745 0.05707 0.0
H2717 H 0.6871 0.91565 0.06658 0.0
C2718 C 0.7007 0.95646 0.06827 0.0
C2719 C 0.68499 0.93271 0.05568 0.0
C2720 C 0.67369 0.9227 0.04285 0.0
C2721 C 0.70699 0.95091 0.07916 0.0
C2722 C 0.70158 0.93594 0.07912 0.0
C2723 C 0.69107 0.92711 0.06687 0.0
C2724 C 0.70559 0.9291 0.09276 0.0
C2725 C 0.7191 0.9611 0.09098 0.0
C2726 C 0.71044 0.91968 0.08841 0.0
C2727 C 0.71287 0.9122 0.10131 0.0
C2728 C 0.71038 0.91395 0.11877 0.0
C2729 C 0.70581 0.92363 0.12308 0.0
C2730 C 0.70337 0.93107 0.1102 0.0
H2731 H 0.72513 0.97185 0.08527 0.0
H2732 H 0.7149 0.96243 0.10344 0.0
H2733 H 0.72639 0.95702 0.09368 0.0
H2734 H 0.71208 0.9179 0.07501 0.0
H2735 H 0.71621 0.90467 0.09754 0.0
H2736 H 0.01799 0.7142 0.04033 0.0
H2737 H 0.03419 0.73876 0.05081 0.0
H2738 H 0.06504 0.7268 0.06437 0.0
H2739 H 0.04893 0.70228 0.05418 0.0
H2740 H 0.05746 0.73847 0.09184 0.0
H2741 H 0.07133 0.77289 0.03439 0.0
H2742 H 0.05287 0.7607 0.03717 0.0
H2743 H 0.06434 0.75377 0.03256 0.0
C2744 C 0.02836 0.71688 0.04512 0.0
C2745 C 0.0321 0.70623 0.04658 0.0
C2746 C 0.03763 0.73095 0.05106 0.0
C2747 C 0.05083 0.7346 0.05834 0.0
C2748 C 0.05489 0.7242 0.05881 0.0
H2749 H 0.119 0.80279 0.11691 0.0
H2750 H 0.10309 0.78166 0.09914 0.0
C2751 C 0.04565 0.71017 0.05298 0.0
C2752 C 0.05972 0.74862 0.06743 0.0
H2753 H 0.07942 0.78474 0.06182 0.0
C2754 C 0.06227 0.74858 0.08526 0.0
C2755 C 0.06581 0.7618 0.05884 0.0
C2756 C 0.06357 0.76238 0.03966 0.0
C2757 C 0.07089 0.76131 0.09472 0.0
C2758 C 0.07732 0.77445 0.08609 0.0
C2759 C 0.0745 0.77461 0.06835 0.0
C2760 C 0.08744 0.78798 0.09534 0.0
C2761 C 0.07307 0.76062 0.11393 0.0
C2762 C 0.08408 0.79873 0.09862 0.0
C2763 C 0.09315 0.81083 0.10888 0.0
C2764 C 0.1057 0.81233 0.11597 0.0
C2765 C 0.10926 0.8018 0.11199 0.0
C2766 C 0.10023 0.78976 0.10176 0.0
H2767 H 0.06482 0.75036 0.11926 0.0
H2768 H 0.08344 0.76146 0.11635 0.0
H2769 H 0.07303 0.76963 0.12105 0.0
H2770 H 0.07424 0.79752 0.09374 0.0
H2771 H 0.0901 0.81875 0.11175 0.0
H2772 H 0.31578 0.33727 0.03377 0.0
H2773 H 0.29815 0.3285 0.05633 0.0
H2774 H 0.26536 0.30529 0.01759 0.0
H2775 H 0.28288 0.31373 0.99504 0.0
H2776 H 0.27654 0.33376 0.0592 0.0
H2777 H 0.25532 0.27521 0.05367 0.0
H2778 H 0.27161 0.28798 0.04397 0.0
H2779 H 0.25498 0.28277 0.03333 0.0
C2780 C 0.30483 0.33014 0.03008 0.0
C2781 C 0.30073 0.32619 0.01261 0.0
C2782 C 0.29478 0.32515 0.04298 0.0
C2783 C 0.28048 0.31607 0.03867 0.0
C2784 C 0.27638 0.31199 0.02127 0.0
H2785 H 0.20077 0.28764 0.08493 0.0
H2786 H 0.22056 0.2927 0.06646 0.0
C2787 C 0.28641 0.31692 0.00837 0.0
C2788 C 0.2697 0.31179 0.05212 0.0
H2789 H 0.24121 0.28287 0.06891 0.0
C2790 C 0.26895 0.32263 0.06152 0.0
C2791 C 0.2598 0.29726 0.0551 0.0
C2792 C 0.26053 0.28514 0.04611 0.0
C2793 C 0.25822 0.31935 0.07333 0.0
C2794 C 0.24809 0.30485 0.0759 0.0
C2795 C 0.249 0.29398 0.06683 0.0
C2796 C 0.23609 0.30083 0.0874 0.0
C2797 C 0.25748 0.33142 0.08249 0.0
C2798 C 0.23829 0.30345 0.10532 0.0
C2799 C 0.22699 0.30047 0.11595 0.0
C2800 C 0.2133 0.29481 0.10882 0.0
C2801 C 0.21113 0.29183 0.09088 0.0
C2802 C 0.22242 0.29478 0.08029 0.0
H2803 H 0.26461 0.34197 0.07681 0.0
H2804 H 0.24656 0.3295 0.08194 0.0
H2805 H 0.2606 0.33195 0.09632 0.0
H2806 H 0.24876 0.30794 0.11105 0.0
H2807 H 0.22898 0.30265 0.12975 0.0
H2808 H 0.68638 0.65298 0.37468 0.0
H2809 H 0.69923 0.6458 0.39456 0.0
H2810 H 0.72971 0.65383 0.35534 0.0
H2811 H 0.7171 0.66104 0.33554 0.0
H2812 H 0.70667 0.62366 0.38961 0.0
H2813 H 0.75357 0.67791 0.39802 0.0
H2814 H 0.73687 0.67494 0.38962 0.0
H2815 H 0.7485 0.67235 0.37579 0.0
C2816 C 0.69583 0.65322 0.37032 0.0
C2817 C 0.70076 0.65767 0.35356 0.0
C2818 C 0.70313 0.6491 0.38167 0.0
C2819 C 0.71553 0.64951 0.37649 0.0
C2820 C 0.72031 0.6537 0.3597 0.0
H2821 H 0.77899 0.63162 0.4112 0.0
H2822 H 0.76303 0.63758 0.39603 0.0
C2823 C 0.71303 0.65776 0.34837 0.0
C2824 C 0.72357 0.6455 0.38843 0.0
H2825 H 0.75623 0.65834 0.40698 0.0
C2826 C 0.71744 0.63125 0.39364 0.0
C2827 C 0.7376 0.65546 0.39367 0.0
C2828 C 0.7445 0.67106 0.38914 0.0
C2829 C 0.72523 0.62655 0.40328 0.0
C2830 C 0.73943 0.63642 0.40797 0.0
C2831 C 0.74537 0.65077 0.40325 0.0
C2832 C 0.74857 0.63205 0.41711 0.0
C2833 C 0.71842 0.61095 0.40772 0.0
C2834 C 0.74571 0.62692 0.43399 0.0
C2835 C 0.75487 0.62354 0.44274 0.0
C2836 C 0.76709 0.62534 0.43479 0.0
C2837 C 0.76978 0.6303 0.41778 0.0
C2838 C 0.76064 0.63365 0.40907 0.0
H2839 H 0.70847 0.60423 0.40016 0.0
H2840 H 0.72568 0.60679 0.40529 0.0
H2841 H 0.71593 0.6098 0.42167 0.0
H2842 H 0.73659 0.62586 0.44055 0.0
H2843 H 0.7526 0.61993 0.45591 0.0
H2844 H 0.35038 0.04185 0.38254 0.0
H2845 H 0.36032 0.06694 0.3921 0.0
H2846 H 0.31876 0.05883 0.40407 0.0
H2847 H 0.30877 0.03378 0.39483 0.0
H2848 H 0.35464 0.09036 0.38464 0.0
H2849 H 0.34118 0.06972 0.4511 0.0
H2850 H 0.34125 0.05889 0.43307 0.0
H2851 H 0.32659 0.06172 0.43587 0.0
C2852 C 0.34332 0.04549 0.3868 0.0
C2853 C 0.32882 0.03577 0.38824 0.0
C2854 C 0.34902 0.05982 0.39226 0.0
C2855 C 0.34028 0.0646 0.39911 0.0
C2856 C 0.32569 0.05524 0.3991 0.0
H2857 H 0.34586 0.13596 0.45522 0.0
H2858 H 0.33943 0.11462 0.43724 0.0
C2859 C 0.32 0.04094 0.39381 0.0
C2860 C 0.3464 0.07879 0.40802 0.0
H2861 H 0.34863 0.09429 0.44768 0.0
C2862 C 0.35346 0.09128 0.39843 0.0
C2863 C 0.34497 0.07989 0.42607 0.0
C2864 C 0.33821 0.06686 0.43719 0.0
C2865 C 0.3586 0.10489 0.40639 0.0
C2866 C 0.35666 0.1059 0.4243 0.0
C2867 C 0.34998 0.09343 0.43391 0.0
C2868 C 0.36089 0.11968 0.43338 0.0
C2869 C 0.36566 0.11807 0.39561 0.0
C2870 C 0.37512 0.12963 0.43703 0.0
C2871 C 0.37885 0.14181 0.4475 0.0
C2872 C 0.36837 0.14412 0.45453 0.0
C2873 C 0.35416 0.13434 0.45031 0.0
C2874 C 0.35047 0.12221 0.43991 0.0
H2875 H 0.36484 0.11537 0.38155 0.0
H2876 H 0.36089 0.1249 0.39797 0.0
H2877 H 0.37697 0.12447 0.39948 0.0
H2878 H 0.38329 0.12772 0.43229 0.0
H2879 H 0.38987 0.1491 0.4506 0.0
H2880 H 0.95309 0.30334 0.32464 0.0
H2881 H 0.93339 0.29425 0.34439 0.0
H2882 H 0.96175 0.3016 0.38749 0.0
H2883 H 0.98155 0.31072 0.36787 0.0
H2884 H 0.926 0.2701 0.36634 0.0
H2885 H 0.93757 0.31953 0.40359 0.0
H2886 H 0.94483 0.31996 0.38261 0.0
H2887 H 0.95206 0.31632 0.40151 0.0
C2888 C 0.95518 0.30318 0.33834 0.0
C2889 C 0.96888 0.30771 0.34469 0.0
C2890 C 0.94391 0.29799 0.34959 0.0
C2891 C 0.94617 0.29741 0.36737 0.0
C2892 C 0.95985 0.30219 0.37382 0.0
H2893 H 0.89528 0.26215 0.45664 0.0
H2894 H 0.91396 0.27554 0.43625 0.0
C2895 C 0.97113 0.30731 0.36258 0.0
C2896 C 0.93408 0.29077 0.37899 0.0
H2897 H 0.91949 0.29744 0.41409 0.0
C2898 C 0.92447 0.27608 0.37669 0.0
C2899 C 0.93225 0.29863 0.39251 0.0
C2900 C 0.94214 0.31451 0.3952 0.0
C2901 C 0.91323 0.2689 0.38788 0.0
C2902 C 0.91137 0.27674 0.40145 0.0
C2903 C 0.92092 0.29149 0.40363 0.0
C2904 C 0.89989 0.26965 0.4139 0.0
C2905 C 0.90379 0.25289 0.38546 0.0
C2906 C 0.88576 0.26226 0.40817 0.0
C2907 C 0.87507 0.25441 0.41973 0.0
C2908 C 0.87832 0.25396 0.4373 0.0
C2909 C 0.89244 0.26203 0.44314 0.0
C2910 C 0.90312 0.26979 0.43154 0.0
H2911 H 0.90877 0.24806 0.37747 0.0
H2912 H 0.90109 0.24756 0.39812 0.0
H2913 H 0.89387 0.25062 0.37873 0.0
H2914 H 0.88302 0.26228 0.39466 0.0
H2915 H 0.86433 0.24827 0.41476 0.0
H2916 H 0.04008 0.38054 0.29806 0.0
H2917 H 0.03516 0.39869 0.28715 0.0
H2918 H 0.99102 0.37123 0.29691 0.0
H2919 H 0.99589 0.35314 0.30824 0.0
H2920 H 0.01879 0.39281 0.2584 0.0
H2921 H 0.99683 0.4101 0.31164 0.0
H2922 H 0.00648 0.40087 0.31545 0.0
H2923 H 0.98823 0.39099 0.30867 0.0
C2924 C 0.02937 0.37851 0.29832 0.0
C2925 C 0.01835 0.36534 0.30384 0.0
C2926 C 0.02659 0.38891 0.29211 0.0
C2927 C 0.01274 0.38633 0.29125 0.0
C2928 C 0.00182 0.37357 0.29776 0.0
H2929 H 0.96958 0.41938 0.23033 0.0
H2930 H 0.97616 0.40619 0.25024 0.0
C2931 C 0.00462 0.3632 0.30415 0.0
C2932 C 0.0095 0.39594 0.28125 0.0
H2933 H 0.99307 0.41567 0.28285 0.0
C2934 C 0.01334 0.39796 0.26383 0.0
C2935 C 0.00224 0.40251 0.28831 0.0
C2936 C 0.99832 0.40113 0.30709 0.0
C2937 C 0.00988 0.40613 0.25316 0.0
C2938 C 0.00252 0.4126 0.26015 0.0
C2939 C -0.00128 0.41068 0.27758 0.0
C2940 C 0.99853 0.42118 0.24933 0.0
C2941 C 0.01377 0.40746 0.23434 0.0
C2942 C 0.00894 0.43407 0.24252 0.0
C2943 C 0.00523 0.44161 0.23118 0.0
C2944 C 0.99103 0.43641 0.2265 0.0
C2945 C 0.98059 0.42369 0.23376 0.0
C2946 C 0.98432 0.41615 0.24511 0.0
H2947 H 0.01672 0.39942 0.23018 0.0
H2948 H 0.0049 0.40613 0.22591 0.0
H2949 H 0.02291 0.41829 0.23231 0.0
H2950 H 0.01995 0.4382 0.24583 0.0
H2951 H 0.01349 0.45154 0.2261 0.0
H2952 H 0.6166 0.63379 0.29802 0.0
H2953 H 0.60103 0.6092 0.28767 0.0
H2954 H 0.63177 0.59779 0.30382 0.0
H2955 H 0.64743 0.62244 0.3145 0.0
H2956 H 0.60907 0.59715 0.26137 0.0
H2957 H 0.59451 0.56383 0.31988 0.0
H2958 H 0.60149 0.58297 0.32109 0.0
H2959 H 0.61301 0.57596 0.31731 0.0
C2960 C 0.61998 0.62602 0.2997 0.0
C2961 C 0.63333 0.63013 0.30697 0.0
C2962 C 0.61105 0.61195 0.29378 0.0
C2963 C 0.61522 0.60166 0.295 0.0
C2964 C 0.62824 0.60551 0.30299 0.0
H2965 H 0.57655 0.51703 0.2426 0.0
H2966 H 0.59242 0.53841 0.26037 0.0
C2967 C 0.6372 0.61962 0.30904 0.0
C2968 C 0.60656 0.58747 0.28617 0.0
H2969 H 0.58671 0.55149 0.2927 0.0
C2970 C 0.6042 0.58717 0.26824 0.0
C2971 C 0.60035 0.57447 0.29513 0.0
C2972 C 0.60234 0.57423 0.31444 0.0
C2973 C 0.59562 0.57427 0.25905 0.0
C2974 C 0.58909 0.56131 0.26805 0.0
C2975 C 0.59173 0.56149 0.28589 0.0
C2976 C 0.57896 0.54766 0.25906 0.0
C2977 C 0.59353 0.57458 0.23975 0.0
C2978 C 0.56603 0.54567 0.25289 0.0
C2979 C 0.55697 0.53353 0.24283 0.0
C2980 C 0.56067 0.52311 0.23872 0.0
C2981 C 0.57338 0.52483 0.24558 0.0
C2982 C 0.58246 0.53703 0.25569 0.0
H2983 H 0.60165 0.58481 0.23424 0.0
H2984 H 0.59383 0.56556 0.23302 0.0
H2985 H 0.58305 0.57341 0.23705 0.0
H2986 H 0.56308 0.5537 0.25554 0.0
H2987 H 0.54712 0.53238 0.23809 0.0
H2988 H 0.3531 0.00566 0.32439 0.0
H2989 H 0.36929 0.00801 0.30143 0.0
H2990 H 0.39015 0.99315 0.33587 0.0
H2991 H 0.37403 0.99064 0.35875 0.0
H2992 H 0.39914 0.02446 0.30147 0.0
H2993 H 0.3799 0.96635 0.293 0.0
H2994 H 0.37009 0.97316 0.3043 0.0
H2995 H 0.38454 0.97283 0.31503 0.0
C2996 C 0.36114 0.0029 0.32706 0.0
C2997 C 0.36222 0.99787 0.34336 0.0
C2998 C 0.37036 0.00425 0.31395 0.0
C2999 C 0.38072 0.0005 0.31689 0.0
C3000 C 0.38202 0.9958 0.33324 0.0
H3001 H 0.44994 0.00156 0.2663 0.0
H3002 H 0.43153 -0.00063 0.28556 0.0
C3003 C 0.37284 0.99445 0.34633 0.0
C3004 C 0.39037 0.00166 0.30302 0.0
H3005 H 0.40177 0.98225 0.2801 0.0
C3006 C 0.39963 0.01524 0.29662 0.0
C3007 C 0.39091 0.98957 0.29671 0.0
C3008 C 0.38074 0.97463 0.30248 0.0
C3009 C 0.40986 0.01713 0.28459 0.0
C3010 C 0.41066 0.00508 0.27869 0.0
C3011 C 0.40115 0.99146 0.28474 0.0
C3012 C 0.42169 0.00644 0.26681 0.0
C3013 C 0.42006 0.03204 0.27878 0.0
C3014 C 0.42214 0.01099 0.24983 0.0
C3015 C 0.4326 0.01217 0.23873 0.0
C3016 C 0.44276 0.00875 0.24442 0.0
C3017 C 0.44218 0.00409 0.26143 0.0
C3018 C 0.43172 0.00291 0.27248 0.0
H3019 H 0.41982 0.04041 0.2871 0.0
H3020 H 0.43098 0.03392 0.2789 0.0
H3021 H 0.41727 0.03324 0.26532 0.0
H3022 H 0.41432 0.01351 0.24512 0.0
H3023 H 0.43264 0.01558 0.22563 0.0
H3024 H 0.63694 0.01312 0.32892 0.0
H3025 H 0.62139 0.01728 0.30992 0.0
H3026 H 0.60372 0.9745 0.28803 0.0
H3027 H 0.61913 0.97019 0.30696 0.0
H3028 H 0.61748 0.01463 0.27231 0.0
H3029 H 0.56953 0.97661 0.30718 0.0
H3030 H 0.58707 0.98364 0.31627 0.0
H3031 H 0.58039 0.96953 0.29998 0.0
C3032 C 0.62983 0.00463 0.31997 0.0
C3033 C 0.62919 0.99127 0.31958 0.0
C3034 C 0.62097 0.00704 0.30912 0.0
C3035 C 0.61127 0.99611 0.2978 0.0
C3036 C 0.61098 0.98298 0.29689 0.0
H3037 H 0.54269 0.98602 0.23087 0.0
H3038 H 0.56025 0.98294 0.24701 0.0
C3039 C 0.61985 0.98057 0.30769 0.0
C3040 C 0.60114 0.99827 0.28731 0.0
H3041 H 0.56608 0.98652 0.28187 0.0
C3042 C 0.60624 0.00853 0.27439 0.0
C3043 C 0.5865 0.99027 0.29009 0.0
C3044 C 0.5805 0.97947 0.30421 0.0
C3045 C 0.59703 0.01081 0.26393 0.0
C3046 C 0.58237 0.00284 0.26675 0.0
C3047 C 0.5773 0.9926 0.2797 0.0
C3048 C 0.57206 0.00494 0.25651 0.0
C3049 C 0.60305 0.0215 0.2497 0.0
C3050 C 0.57279 0.01831 0.25662 0.0
C3051 C 0.56276 0.0201 0.24742 0.0
C3052 C 0.55171 0.00851 0.23809 0.0
C3053 C 0.55098 0.99512 0.23807 0.0
C3054 C 0.56105 0.99336 0.24721 0.0
H3055 H 0.6137 0.02365 0.24613 0.0
H3056 H 0.59608 0.01765 0.23794 0.0
H3057 H 0.60402 0.03178 0.25422 0.0
H3058 H 0.58098 0.0273 0.26407 0.0
H3059 H 0.56349 0.03048 0.24793 0.0
H3060 H 0.03714 0.64471 0.2992 0.0
H3061 H 0.03017 0.62099 0.2868 0.0
H3062 H 0.98642 0.6088 0.29071 0.0
H3063 H 0.9933 0.63224 0.30386 0.0
H3064 H 0.9898 0.58641 0.29635 0.0
H3065 H 0.01766 0.61312 0.23693 0.0
H3066 H 0.02916 0.6184 0.25565 0.0
H3067 H 0.01536 0.62278 0.25464 0.0
C3068 C 0.02603 0.63686 0.29774 0.0
C3069 C 0.01577 0.6404 0.30227 0.0
C3070 C 0.02206 0.62336 0.29053 0.0
C3071 C 0.00779 0.61331 0.28726 0.0
C3072 C 0.99751 0.61644 0.29295 0.0
H3073 H 0.97838 0.54888 0.20473 0.0
H3074 H 0.98391 0.56944 0.22393 0.0
C3075 C 0.00146 0.62985 0.30049 0.0
C3076 C 0.00356 0.60003 0.2768 0.0
H3077 H 0.0081 0.58806 0.23759 0.0
C3078 C 0.99378 0.58675 0.28349 0.0
C3079 C 0.00852 0.60051 0.25986 0.0
C3080 C 0.01813 0.61447 0.25126 0.0
C3081 C 0.98888 0.57393 0.27374 0.0
C3082 C 0.99427 0.57439 0.25706 0.0
C3083 C 0.00403 0.58768 0.25041 0.0
C3084 C 0.98982 0.56133 0.24602 0.0
C3085 C 0.97769 0.56013 0.28123 0.0
C3086 C 0.99121 0.54989 0.25204 0.0
C3087 C 0.98779 0.53804 0.24117 0.0
C3088 C 0.98327 0.5376 0.22396 0.0
C3089 C 0.98188 0.54902 0.21794 0.0
C3090 C 0.98504 0.56073 0.2289 0.0
H3091 H 0.97165 0.56213 0.29124 0.0
H3092 H 0.9702 0.5528 0.27102 0.0
H3093 H 0.98278 0.55467 0.28753 0.0
H3094 H 0.99528 0.55027 0.26499 0.0
H3095 H 0.98915 0.52944 0.24601 0.0
H3096 H 0.35237 0.36161 0.30858 0.0
H3097 H 0.36977 0.36966 0.28577 0.0
H3098 H 0.40269 0.38015 0.32405 0.0
H3099 H 0.38538 0.37185 0.34685 0.0
H3100 H 0.3922 0.39633 0.28201 0.0
H3101 H 0.4107 0.35739 0.28845 0.0
H3102 H 0.39485 0.35488 0.29834 0.0
H3103 H 0.41179 0.3665 0.30855 0.0
C3104 C 0.3633 0.36551 0.31212 0.0
C3105 C 0.3675 0.36606 0.32952 0.0
C3106 C 0.37322 0.37009 0.29907 0.0
C3107 C 0.38748 0.37526 0.30318 0.0
C3108 C 0.39169 0.37584 0.32054 0.0
H3109 H 0.46684 0.42284 0.25501 0.0
H3110 H 0.44706 0.40945 0.27398 0.0
C3111 C 0.38179 0.3712 0.33358 0.0
C3112 C 0.3981 0.38088 0.28949 0.0
H3113 H 0.42534 0.3784 0.2724 0.0
C3114 C 0.39932 0.39228 0.27973 0.0
C3115 C 0.40735 0.37555 0.28653 0.0
C3116 C 0.40603 0.36281 0.2959 0.0
C3117 C 0.40991 0.39886 0.26756 0.0
C3118 C 0.41942 0.39383 0.26502 0.0
C3119 C 0.41802 0.38223 0.27446 0.0
C3120 C 0.43134 0.40099 0.25325 0.0
C3121 C 0.41121 0.4115 0.25794 0.0
C3122 C 0.42902 0.40037 0.2353 0.0
C3123 C 0.44032 0.4079 0.22437 0.0
C3124 C 0.45413 0.41617 0.23125 0.0
C3125 C 0.45639 0.41643 0.24924 0.0
C3126 C 0.4451 0.40886 0.26013 0.0
H3127 H 0.40442 0.41546 0.26335 0.0
H3128 H 0.4223 0.42043 0.25835 0.0
H3129 H 0.40804 0.40829 0.24415 0.0
H3130 H 0.41846 0.39419 0.22978 0.0
H3131 H 0.43824 0.40729 0.21055 0.0
H3132 H 0.31249 0.29641 0.39424 0.0
H3133 H 0.32331 0.28274 0.40389 0.0
H3134 H 0.36003 0.30918 0.3742 0.0
H3135 H 0.34939 0.32322 0.36468 0.0
H3136 H 0.33432 0.26732 0.38783 0.0
H3137 H 0.37566 0.31569 0.424 0.0
H3138 H 0.36022 0.31496 0.41453 0.0
H3139 H 0.37439 0.31733 0.40105 0.0
C3140 C 0.32279 0.29924 0.38953 0.0
C3141 C 0.33017 0.3111 0.37893 0.0
C3142 C 0.32894 0.29137 0.39503 0.0
C3143 C 0.34258 0.29515 0.39004 0.0
C3144 C 0.3496 0.3063 0.37847 0.0
H3145 H 0.37676 0.24268 0.4311 0.0
H3146 H 0.37099 0.25607 0.41052 0.0
C3147 C 0.34346 0.31425 0.37298 0.0
C3148 C 0.34968 0.28811 0.39826 0.0
H3149 H 0.37537 0.2941 0.42813 0.0
C3150 C 0.34344 0.27317 0.39643 0.0
C3151 C 0.36149 0.29581 0.40961 0.0
C3152 C 0.36832 0.31181 0.41258 0.0
C3153 C 0.34834 0.26563 0.40618 0.0
C3154 C 0.35992 0.27331 0.41783 0.0
C3155 C 0.36653 0.28829 0.41912 0.0
C3156 C 0.36442 0.26592 0.4301 0.0
C3157 C 0.34059 0.24948 0.40466 0.0
C3158 C 0.36309 0.26744 0.44793 0.0
C3159 C 0.36654 0.25997 0.45971 0.0
C3160 C 0.3714 0.25085 0.45388 0.0
C3161 C 0.37312 0.24969 0.43601 0.0
C3162 C 0.36969 0.2572 0.42422 0.0
H3163 H 0.33036 0.24512 0.3975 0.0
H3164 H 0.34714 0.246 0.39759 0.0
H3165 H 0.3386 0.24474 0.41768 0.0
H3166 H 0.35911 0.27419 0.45273 0.0
H3167 H 0.36531 0.26128 0.47339 0.0
H3168 H 0.68033 0.04014 0.37243 0.0
H3169 H 0.69597 0.06545 0.38076 0.0
H3170 H 0.72797 0.05593 0.39723 0.0
H3171 H 0.71249 0.03077 0.38919 0.0
H3172 H 0.72041 0.06972 0.42266 0.0
H3173 H 0.73269 0.09809 0.36026 0.0
H3174 H 0.71442 0.08583 0.3643 0.0
H3175 H 0.72624 0.07908 0.36133 0.0
C3176 C 0.6908 0.0435 0.3775 0.0
C3177 C 0.6951 0.03339 0.38029 0.0
C3178 C 0.69973 0.05797 0.38221 0.0
C3179 C 0.71313 0.06255 0.38958 0.0
C3180 C 0.71766 0.0526 0.39159 0.0
H3181 H 0.78594 0.1352 0.43268 0.0
H3182 H 0.76823 0.11334 0.41739 0.0
C3183 C 0.70877 0.0382 0.387 0.0
C3184 C 0.72204 0.07733 0.39675 0.0
H3185 H 0.7424 0.11236 0.38582 0.0
C3186 C 0.72512 0.07905 0.41462 0.0
C3187 C 0.72813 0.08947 0.38622 0.0
C3188 C 0.72532 0.08812 0.36693 0.0
C3189 C 0.73438 0.09253 0.42218 0.0
C3190 C 0.74077 0.10459 0.41161 0.0
C3191 C 0.73742 0.10303 0.39383 0.0
C3192 C 0.75173 0.11864 0.41887 0.0
C3193 C 0.73759 0.0938 0.44139 0.0
C3194 C 0.7483 0.12892 0.42447 0.0
C3195 C 0.75838 0.14141 0.43336 0.0
C3196 C 0.77199 0.14372 0.43682 0.0
C3197 C 0.77548 0.13362 0.4305 0.0
C3198 C 0.76544 0.12119 0.42163 0.0
H3199 H 0.7305 0.08377 0.44811 0.0
H3200 H 0.74863 0.09634 0.4436 0.0
H3201 H 0.7366 0.10271 0.44727 0.0
H3202 H 0.73771 0.12704 0.42252 0.0
H3203 H 0.75535 0.14894 0.43815 0.0
H3204 H 0.9552 0.63566 0.32949 0.0
H3205 H 0.93531 0.62825 0.34871 0.0
H3206 H 0.96279 0.65953 0.38732 0.0
H3207 H 0.98272 0.66714 0.36818 0.0
H3208 H 0.9308 0.6183 0.38357 0.0
H3209 H 0.9321 0.67016 0.37708 0.0
H3210 H 0.9414 0.66455 0.36276 0.0
H3211 H 0.94844 0.67162 0.3841 0.0
C3212 C 0.95705 0.64089 0.34213 0.0
C3213 C 0.97051 0.65212 0.34723 0.0
C3214 C 0.94568 0.63662 0.35309 0.0
C3215 C 0.94757 0.64351 0.36928 0.0
C3216 C 0.9611 0.65426 0.37474 0.0
H3217 H 0.88712 0.62032 0.4517 0.0
H3218 H 0.90723 0.62464 0.43416 0.0
C3219 C 0.97247 0.65855 0.3638 0.0
C3220 C 0.93529 0.63992 0.3801 0.0
H3221 H 0.91594 0.65387 0.39671 0.0
C3222 C 0.92753 0.62605 0.38648 0.0
C3223 C 0.93098 0.65004 0.38364 0.0
C3224 C 0.93856 0.6649 0.37643 0.0
C3225 C 0.91561 0.62206 0.39652 0.0
C3226 C 0.91149 0.63227 0.40034 0.0
C3227 C 0.9192 0.6461 0.39383 0.0
C3228 C 0.89903 0.62883 0.41076 0.0
C3229 C 0.90736 0.60689 0.40264 0.0
C3230 C 0.88785 0.6299 0.40345 0.0
C3231 C 0.87639 0.62747 0.41342 0.0
C3232 C 0.87593 0.624 0.43093 0.0
C3233 C 0.88708 0.62278 0.43818 0.0
C3234 C 0.89856 0.62523 0.42818 0.0
H3235 H 0.9099 0.59957 0.39528 0.0
H3236 H 0.90998 0.6067 0.41651 0.0
H3237 H 0.89586 0.60275 0.40138 0.0
H3238 H 0.88803 0.63268 0.39002 0.0
H3239 H 0.86788 0.6283 0.4074 0.0
H3240 H 0.36691 0.00742 0.71163 0.0
H3241 H 0.38242 0.00441 0.73208 0.0
H3242 H 0.38929 0.97928 0.69361 0.0
H3243 H 0.37393 0.98227 0.67308 0.0
H3244 H 0.38166 0.97891 0.7447 0.0
H3245 H 0.42924 0.01295 0.7069 0.0
H3246 H 0.41284 0.01274 0.70359 0.0
H3247 H 0.41502 0.99851 0.69465 0.0
C3248 C 0.37162 0.00115 0.70757 0.0
C3249 C 0.36929 0.9952 0.69066 0.0
C3250 C 0.38047 -0.00056 0.71927 0.0
C3251 C 0.38717 0.99183 0.71424 0.0
C3252 C 0.3844 0.9854 0.69763 0.0
H3253 H 0.43332 0.96138 0.77499 0.0
H3254 H 0.41588 0.96364 0.75739 0.0
C3255 C 0.37557 0.98708 0.68595 0.0
C3256 C 0.39742 0.99099 0.72608 0.0
H3257 H 0.43205 0.0005 0.73015 0.0
C3258 C 0.39269 0.98366 0.74159 0.0
C3259 C 0.41183 0.99738 0.72207 0.0
C3260 C 0.41761 0.00596 0.70598 0.0
C3261 C 0.40196 0.98226 0.75301 0.0
C3262 C 0.41628 0.98823 0.74868 0.0
C3263 C 0.42104 0.99583 0.73336 0.0
C3264 C 0.42655 0.98677 0.75983 0.0
C3265 C 0.39642 0.97456 0.76969 0.0
C3266 C 0.43846 -0.00096 0.76676 0.0
C3267 C 0.44851 0.99779 0.77666 0.0
C3268 C 0.44689 0.98425 0.77974 0.0
C3269 C 0.43493 0.97197 0.77276 0.0
C3270 C 0.42487 0.97323 0.76288 0.0
H3271 H 0.3863 0.97387 0.77312 0.0
H3272 H 0.39454 0.96349 0.76822 0.0
H3273 H 0.40415 0.98003 0.78054 0.0
H3274 H 0.44001 0.0096 0.76442 0.0
H3275 H 0.45769 0.00747 0.78162 0.0
H3276 H 0.96691 0.35337 0.73213 0.0
H3277 H 0.9748 0.37787 0.74185 0.0
H3278 H 0.01381 0.39255 0.71532 0.0
H3279 H 0.00612 0.36792 0.70575 0.0
H3280 H 0.01815 0.40194 0.74868 0.0
H3281 H 0.97871 0.41273 0.71836 0.0
H3282 H 0.97045 0.39631 0.72983 0.0
H3283 H 0.98095 0.39796 0.71135 0.0
C3284 C 0.97708 0.3618 0.72807 0.0
C3285 C 0.9859 0.35862 0.71821 0.0
C3286 C 0.98153 0.37585 0.73354 0.0
C3287 C 0.99482 0.38708 0.72912 0.0
C3288 C 0.00348 0.38405 0.71879 0.0
H3289 H 0.01825 0.47398 0.76531 0.0
H3290 H 0.01445 0.45385 0.7464 0.0
C3291 C -0.00096 0.36996 0.71332 0.0
C3292 C 0.00013 0.40163 0.73681 0.0
H3293 H 0.99108 0.42725 0.7438 0.0
C3294 C 0.01236 0.4076 0.74737 0.0
C3295 C 0.99271 0.40912 0.73491 0.0
C3296 C 0.98006 0.40376 0.72284 0.0
C3297 C 0.01694 0.42046 0.75683 0.0
C3298 C 0.00889 0.42736 0.75597 0.0
C3299 C 0.99712 0.42183 0.74466 0.0
C3300 C 0.01206 0.43986 0.76737 0.0
C3301 C 0.03026 0.42644 0.76781 0.0
C3302 C 0.01193 0.43865 0.78543 0.0
C3303 C 0.01421 0.45015 0.79626 0.0
C3304 C 0.01653 0.46307 0.78925 0.0
C3305 C 0.01671 0.46427 0.77113 0.0
C3306 C 0.01444 0.45274 0.7603 0.0
H3307 H 0.03738 0.42275 0.76283 0.0
H3308 H 0.03602 0.43834 0.76828 0.0
H3309 H 0.02751 0.42262 0.78121 0.0
H3310 H 0.00981 0.4287 0.79117 0.0
H3311 H 0.01411 0.44891 0.81014 0.0
H3312 H 0.65375 0.64878 0.70572 0.0
H3313 H 0.63515 0.6405 0.72703 0.0
H3314 H 0.61743 0.59723 0.70669 0.0
H3315 H 0.63585 0.6054 0.68524 0.0
H3316 H 0.5978 0.60644 0.71037 0.0
H3317 H 0.63036 0.61696 0.77043 0.0
H3318 H 0.63603 0.63187 0.75639 0.0
H3319 H 0.63672 0.61633 0.74919 0.0
C3320 C 0.64596 0.63749 0.70586 0.0
C3321 C 0.64627 0.62774 0.69378 0.0
C3322 C 0.63538 0.63277 0.7181 0.0
C3323 C 0.62502 0.61824 0.71851 0.0
C3324 C 0.62537 0.60849 0.70658 0.0
H3325 H 0.56388 0.56678 0.79198 0.0
H3326 H 0.58438 0.57963 0.77385 0.0
C3327 C 0.63591 0.61318 0.69435 0.0
C3328 C 0.61344 0.61319 0.73091 0.0
H3329 H 0.60613 0.60867 0.77389 0.0
C3330 C 0.5996 0.60698 0.72427 0.0
C3331 C 0.61588 0.61387 0.749 0.0
C3332 C 0.63053 0.62001 0.75674 0.0
C3333 C 0.58807 0.60123 0.73524 0.0
C3334 C 0.5905 0.60194 0.75334 0.0
C3335 C 0.60435 0.60829 0.76001 0.0
C3336 C 0.57872 0.59512 0.76541 0.0
C3337 C 0.57338 0.59399 0.72734 0.0
C3338 C 0.56896 0.59982 0.76699 0.0
C3339 C 0.55716 0.59243 0.77724 0.0
C3340 C 0.55499 0.58023 0.78609 0.0
C3341 C 0.56514 0.57597 0.78506 0.0
C3342 C 0.5769 0.58336 0.77483 0.0
H3343 H 0.57331 0.59181 0.71322 0.0
H3344 H 0.56647 0.5837 0.7337 0.0
H3345 H 0.56882 0.60104 0.72924 0.0
H3346 H 0.57032 0.60902 0.76 0.0
H3347 H 0.54951 0.59594 0.77776 0.0
H3348 H 0.65617 0.67417 0.64423 0.0
H3349 H 0.64493 0.68692 0.6323 0.0
H3350 H 0.6856 0.72186 0.61887 0.0
H3351 H 0.69687 0.70901 0.63022 0.0
H3352 H 0.64667 0.71295 0.63727 0.0
H3353 H 0.66524 0.70891 0.57225 0.0
H3354 H 0.66662 0.69945 0.59048 0.0
H3355 H 0.67947 0.71805 0.58778 0.0
C3356 C 0.66274 0.68468 0.639 0.0
C3357 C 0.67738 0.69049 0.63787 0.0
C3358 C 0.6563 0.69193 0.63217 0.0
C3359 C 0.66441 0.70513 0.62426 0.0
C3360 C 0.67912 0.71148 0.62445 0.0
H3361 H 0.64274 0.76702 0.59057 0.0
H3362 H 0.64865 0.75181 0.60732 0.0
C3363 C 0.68555 0.70416 0.63103 0.0
C3364 C 0.65749 0.71182 0.61478 0.0
H3365 H 0.65571 0.72432 0.57521 0.0
C3366 C 0.64854 0.71536 0.62367 0.0
C3367 C 0.65962 0.71455 0.59691 0.0
C3368 C 0.66813 0.7099 0.58625 0.0
C3369 C 0.6421 0.72211 0.61529 0.0
C3370 C 0.645 0.7257 0.59771 0.0
C3371 C 0.65356 0.72168 0.58872 0.0
C3372 C 0.63991 0.73421 0.58844 0.0
C3373 C 0.63217 0.72517 0.62534 0.0
C3374 C 0.63319 0.72951 0.5721 0.0
C3375 C 0.63023 0.73841 0.56219 0.0
C3376 C 0.63387 0.75219 0.56847 0.0
C3377 C 0.64002 0.75659 0.58517 0.0
C3378 C 0.64317 0.74777 0.59495 0.0
H3379 H 0.62723 0.71745 0.63588 0.0
H3380 H 0.63816 0.73606 0.63143 0.0
H3381 H 0.6237 0.72467 0.61683 0.0
H3382 H 0.63066 0.71911 0.56677 0.0
H3383 H 0.62562 0.7347 0.54934 0.0
H3384 H 0.28834 0.97325 0.63831 0.0
H3385 H 0.27203 0.94787 0.632 0.0
H3386 H 0.30428 0.93802 0.64604 0.0
H3387 H 0.32075 0.96351 0.65255 0.0
H3388 H 0.29104 0.92822 0.61162 0.0
H3389 H 0.25195 0.91233 0.66351 0.0
H3390 H 0.25635 0.92898 0.65365 0.0
H3391 H 0.2696 0.92752 0.66581 0.0
C3392 C 0.29192 0.96568 0.64036 0.0
C3393 C 0.30587 0.97042 0.64587 0.0
C3394 C 0.28255 0.95116 0.63685 0.0
C3395 C 0.28692 0.94107 0.6387 0.0
C3396 C 0.30069 0.94566 0.64468 0.0
H3397 H 0.24159 0.85444 0.59011 0.0
H3398 H 0.2591 0.87503 0.60758 0.0
C3399 C 0.31006 0.96021 0.64842 0.0
C3400 C 0.27749 0.92608 0.63259 0.0
H3401 H 0.24484 0.89713 0.63806 0.0
C3402 C 0.28104 0.92126 0.61755 0.0
C3403 C 0.26447 0.91714 0.64035 0.0
C3404 C 0.26037 0.92167 0.65682 0.0
C3405 C 0.27153 0.90806 0.60943 0.0
C3406 C 0.25826 0.89928 0.61686 0.0
C3407 C 0.255 0.90386 0.63237 0.0
C3408 C 0.24716 0.88601 0.60792 0.0
C3409 C 0.27546 0.90407 0.59241 0.0
C3410 C 0.23434 0.88499 0.60305 0.0
C3411 C 0.22421 0.87314 0.59337 0.0
C3412 C 0.22669 0.86203 0.58827 0.0
C3413 C 0.23931 0.86278 0.59381 0.0
C3414 C 0.24942 0.87463 0.60363 0.0
H3415 H 0.28459 0.91339 0.58661 0.0
H3416 H 0.27836 0.89574 0.59457 0.0
H3417 H 0.26646 0.89966 0.58297 0.0
H3418 H 0.23231 0.89358 0.60633 0.0
H3419 H 0.21448 0.87277 0.58972 0.0
H3420 H 0.0296 0.35033 0.66779 0.0
H3421 H 0.05009 0.35967 0.64925 0.0
H3422 H 0.03483 0.31728 0.62713 0.0
H3423 H 0.01421 0.30793 0.64525 0.0
H3424 H 0.07031 0.35235 0.64913 0.0
H3425 H 0.04451 0.34079 0.58422 0.0
H3426 H 0.03539 0.34018 0.60374 0.0
H3427 H 0.03728 0.32515 0.59715 0.0
C3428 C 0.03051 0.34303 0.6588 0.0
C3429 C 0.02026 0.32839 0.65796 0.0
C3430 C 0.04223 0.34839 0.64824 0.0
C3431 C 0.04388 0.33922 0.63661 0.0
C3432 C 0.0336 0.32463 0.63566 0.0
H3433 H 0.1091 0.33782 0.57993 0.0
H3434 H 0.08848 0.33337 0.59636 0.0
C3435 C 0.02185 0.31928 0.64614 0.0
C3436 C 0.05678 0.34464 0.62632 0.0
H3437 H 0.06826 0.34515 0.58534 0.0
C3438 C 0.06988 0.351 0.63516 0.0
C3439 C 0.05621 0.34291 0.60808 0.0
C3440 C 0.0426 0.33702 0.59773 0.0
C3441 C 0.08235 0.35507 0.62629 0.0
C3442 C 0.08166 0.35273 0.6082 0.0
C3443 C 0.06867 0.34681 0.59927 0.0
C3444 C 0.09424 0.35566 0.59842 0.0
C3445 C 0.09615 0.36138 0.63631 0.0
C3446 C 0.10424 0.3697 0.59421 0.0
C3447 C 0.11598 0.37229 0.58464 0.0
C3448 C 0.11788 0.36087 0.57918 0.0
C3449 C 0.10785 0.34684 0.58366 0.0
C3450 C 0.09611 0.34427 0.59312 0.0
H3451 H 0.09478 0.36171 0.65049 0.0
H3452 H 0.10134 0.35501 0.63356 0.0
H3453 H 0.1033 0.37246 0.63207 0.0
H3454 H 0.10288 0.3786 0.59816 0.0
H3455 H 0.12339 0.38319 0.58123 0.0
H3456 H 0.31248 0.35009 0.64935 0.0
H3457 H 0.30111 0.35859 0.62903 0.0
H3458 H 0.26418 0.34067 0.66035 0.0
H3459 H 0.27546 0.33237 0.68075 0.0
H3460 H 0.2765 0.34315 0.60976 0.0
H3461 H 0.2723 0.38144 0.65435 0.0
H3462 H 0.28344 0.37402 0.6591 0.0
H3463 H 0.26487 0.36391 0.66312 0.0
C3464 C 0.30197 0.34802 0.65194 0.0
C3465 C 0.29491 0.34062 0.66673 0.0
C3466 C 0.2955 0.35289 0.64033 0.0
C3467 C 0.28192 0.35051 0.64337 0.0
C3468 C 0.2748 0.34296 0.65798 0.0
H3469 H 0.21713 0.3445 0.57561 0.0
H3470 H 0.23374 0.3411 0.59327 0.0
C3471 C 0.28125 0.33812 0.66958 0.0
C3472 C 0.27485 0.35538 0.631 0.0
H3473 H 0.25738 0.37405 0.62878 0.0
C3474 C 0.27248 0.35006 0.61384 0.0
C3475 C 0.26983 0.36461 0.63625 0.0
C3476 C 0.27287 0.37145 0.65416 0.0
C3477 C 0.26461 0.35314 0.60203 0.0
C3478 C 0.25873 0.36153 0.60765 0.0
C3479 C 0.26172 0.36745 0.62455 0.0
C3480 C 0.24892 0.36372 0.59649 0.0
C3481 C 0.2626 0.34731 0.58368 0.0
C3482 C 0.25173 0.3776 0.59283 0.0
C3483 C 0.24218 0.37959 0.58279 0.0
C3484 C 0.22964 0.36772 0.57627 0.0
C3485 C 0.22683 0.35386 0.58011 0.0
C3486 C 0.23633 0.35189 0.59018 0.0
H3487 H 0.27119 0.34524 0.58004 0.0
H3488 H 0.25252 0.33698 0.58251 0.0
H3489 H 0.26222 0.35481 0.57434 0.0
H3490 H 0.26133 0.38688 0.5977 0.0
H3491 H 0.24468 0.3904 0.57998 0.0
H3492 H 0.6982 0.97379 0.62725 0.0
H3493 H 0.68784 0.94898 0.61671 0.0
H3494 H 0.64635 0.94176 0.62727 0.0
H3495 H 0.65665 0.96646 0.63837 0.0
H3496 H 0.6486 0.91817 0.63394 0.0
H3497 H 0.669 0.93861 0.56912 0.0
H3498 H 0.68269 0.94487 0.58548 0.0
H3499 H 0.66954 0.95012 0.58667 0.0
C3500 C 0.68689 0.96686 0.62762 0.0
C3501 C 0.67823 0.97215 0.6334 0.0
C3502 C 0.68098 0.95271 0.6215 0.0
C3503 C 0.66631 0.94368 0.6207 0.0
C3504 C 0.65769 0.9486 0.62761 0.0
H3505 H 0.62827 0.8714 0.5473 0.0
H3506 H 0.63397 0.89314 0.564 0.0
C3507 C 0.66361 0.96272 0.63398 0.0
C3508 C 0.65996 0.92951 0.61159 0.0
H3509 H 0.65928 0.91363 0.57275 0.0
C3510 C 0.65086 0.91715 0.62053 0.0
C3511 C 0.66262 0.92825 0.59396 0.0
C3512 C 0.67137 0.94118 0.58318 0.0
C3513 C 0.6447 0.90349 0.61245 0.0
C3514 C 0.64802 0.90218 0.59511 0.0
C3515 C 0.65682 0.9146 0.58608 0.0
C3516 C 0.64287 0.88811 0.58607 0.0
C3517 C 0.63455 0.89065 0.62251 0.0
C3518 C 0.64577 0.87792 0.59301 0.0
C3519 C 0.64227 0.86533 0.58363 0.0
C3520 C 0.63606 0.86279 0.56693 0.0
C3521 C 0.63287 0.87288 0.56018 0.0
C3522 C 0.63623 0.88539 0.56967 0.0
H3523 H 0.62955 0.89373 0.63284 0.0
H3524 H 0.62615 0.88229 0.61392 0.0
H3525 H 0.64039 0.88598 0.62884 0.0
H3526 H 0.65118 0.87989 0.60544 0.0
H3527 H 0.64467 0.85771 0.58938 0.0
H3528 H 0.01137 0.68913 0.64069 0.0
H3529 H 0.03032 0.69813 0.61983 0.0
H3530 H 0.06022 0.705 0.6609 0.0
H3531 H 0.04135 0.69573 0.68172 0.0
H3532 H 0.05274 0.72481 0.62014 0.0
H3533 H 0.07144 0.6859 0.62414 0.0
H3534 H 0.05484 0.6824 0.63278 0.0
H3535 H 0.071 0.69324 0.64498 0.0
C3536 C 0.02195 0.69236 0.64524 0.0
C3537 C 0.02486 0.69174 0.66286 0.0
C3538 C 0.03275 0.69748 0.6333 0.0
C3539 C 0.04665 0.70203 0.63876 0.0
C3540 C 0.04953 0.7012 0.6563 0.0
H3541 H 0.12921 0.75581 0.60023 0.0
H3542 H 0.10854 0.73988 0.6168 0.0
C3543 C 0.03873 0.696 0.66822 0.0
C3544 C 0.05831 0.7089 0.62648 0.0
H3545 H 0.08717 0.70841 0.61134 0.0
C3546 C 0.06014 0.72109 0.618 0.0
C3547 C 0.06798 0.70405 0.62377 0.0
C3548 C 0.06615 0.69059 0.63177 0.0
C3549 C 0.07164 0.72886 0.60737 0.0
C3550 C 0.0815 0.72424 0.60505 0.0
C3551 C 0.07957 0.71191 0.61323 0.0
C3552 C 0.09415 0.73248 0.59467 0.0
C3553 C 0.07346 0.74224 0.59913 0.0
C3554 C 0.09289 0.73323 0.57671 0.0
C3555 C 0.10468 0.74223 0.56718 0.0
C3556 C 0.11792 0.75066 0.57549 0.0
C3557 C 0.11921 0.74939 0.59341 0.0
C3558 C 0.10741 0.74034 0.60291 0.0
H3559 H 0.06621 0.74563 0.60449 0.0
H3560 H 0.08446 0.75119 0.60104 0.0
H3561 H 0.07127 0.7402 0.58499 0.0
H3562 H 0.08273 0.72709 0.57013 0.0
H3563 H 0.10339 0.74276 0.55335 0.0
H3564 H 0.96102 0.62324 0.72291 0.0
H3565 H 0.96845 0.6068 0.73343 0.0
H3566 H 0.00915 0.63251 0.71112 0.0
H3567 H 0.00188 0.6491 0.70051 0.0
H3568 H 0.98155 0.59124 0.71583 0.0
H3569 H 0.0155 0.63307 0.76543 0.0
H3570 H 0.00142 0.63363 0.75384 0.0
H3571 H 0.01747 0.63816 0.74315 0.0
C3572 C 0.97148 0.6253 0.71996 0.0
C3573 C 0.98092 0.63761 0.71107 0.0
C3574 C 0.97568 0.61586 0.72593 0.0
C3575 C 0.98938 0.61859 0.72321 0.0
C3576 C 0.99856 0.63033 0.71344 0.0
H3577 H 0.0319 0.58171 0.78072 0.0
H3578 H 0.02695 0.59574 0.76031 0.0
C3579 C 0.99436 0.63976 0.70736 0.0
C3580 C 0.99438 0.6099 0.73207 0.0
H3581 H 0.01418 0.61078 0.76691 0.0
C3582 C 0.98879 0.5955 0.7269 0.0
C3583 C 0.00384 0.61557 0.74645 0.0
C3584 C 0.0099 0.63093 0.7527 0.0
C3585 C 0.99232 0.58652 0.73592 0.0
C3586 C 0.00136 0.59204 0.75074 0.0
C3587 C 0.00725 0.60657 0.75556 0.0
C3588 C 0.0043 0.58285 0.76203 0.0
C3589 C 0.98636 0.57124 0.72945 0.0
C3590 C 0.99321 0.571 0.76987 0.0
C3591 C 0.996 0.56286 0.78139 0.0
C3592 C 0.00995 0.56654 0.78552 0.0
C3593 C 0.02103 0.57845 0.77766 0.0
C3594 C 0.01823 0.58653 0.76605 0.0
H3595 H 0.98377 0.57012 0.71536 0.0
H3596 H 0.99384 0.56735 0.73191 0.0
H3597 H 0.97648 0.56427 0.73628 0.0
H3598 H 0.98239 0.56818 0.76732 0.0
H3599 H 0.9872 0.55367 0.78702 0.0
H3600 H 0.34912 0.37794 0.70612 0.0
H3601 H 0.36529 0.40309 0.7146 0.0
H3602 H 0.39555 0.3919 0.73339 0.0
H3603 H 0.37963 0.36692 0.72493 0.0
H3604 H 0.37502 0.41257 0.74884 0.0
H3605 H 0.41972 0.42762 0.70543 0.0
H3606 H 0.40245 0.41227 0.70102 0.0
H3607 H 0.41447 0.41108 0.71601 0.0
C3608 C 0.35933 0.38089 0.71174 0.0
C3609 C 0.36306 0.3704 0.7149 0.0
C3610 C 0.36853 0.39525 0.71661 0.0
C3611 C 0.38167 0.39938 0.72444 0.0
C3612 C 0.38558 0.38901 0.72707 0.0
H3613 H 0.44877 0.46422 0.78474 0.0
H3614 H 0.43165 0.44349 0.76732 0.0
C3615 C 0.3764 0.37469 0.72233 0.0
C3616 C 0.39085 0.41417 0.73141 0.0
H3617 H 0.42474 0.44197 0.73162 0.0
C3618 C 0.38581 0.41917 0.74486 0.0
C3619 C 0.4049 0.42271 0.72618 0.0
C3620 C 0.41067 0.41822 0.71125 0.0
C3621 C 0.39473 0.43208 0.75396 0.0
C3622 C 0.40898 0.44028 0.74926 0.0
C3623 C 0.41382 0.43561 0.73526 0.0
C3624 C 0.41932 0.45309 0.75956 0.0
C3625 C 0.38905 0.43645 0.76913 0.0
C3626 C 0.41809 0.46541 0.76091 0.0
C3627 C 0.42791 0.47733 0.77087 0.0
C3628 C 0.43918 0.47715 0.77952 0.0
C3629 C 0.44035 0.46479 0.77805 0.0
C3630 C 0.43055 0.45291 0.76814 0.0
H3631 H 0.3786 0.42765 0.77301 0.0
H3632 H 0.39645 0.43979 0.78046 0.0
H3633 H 0.38788 0.44571 0.76557 0.0
H3634 H 0.40962 0.46584 0.75415 0.0
H3635 H 0.42683 0.48676 0.77156 0.0
H3636 H 0.63359 0.01678 0.66666 0.0
H3637 H 0.6155 0.01121 0.68801 0.0
H3638 H 0.63272 0.99069 0.71925 0.0
H3639 H 0.65107 0.99642 0.69802 0.0
H3640 H 0.59524 0.98454 0.6995 0.0
H3641 H 0.63072 0.0192 0.75341 0.0
H3642 H 0.63637 0.02079 0.73133 0.0
H3643 H 0.63502 0.0065 0.74422 0.0
C3644 C 0.63358 0.01111 0.67808 0.0
C3645 C 0.64381 0.0071 0.68068 0.0
C3646 C 0.62321 0.00792 0.69025 0.0
C3647 C 0.62288 0.00069 0.70528 0.0
C3648 C 0.63296 0.9965 0.70787 0.0
H3649 H 0.55036 0.96442 0.77312 0.0
H3650 H 0.56915 0.9673 0.75395 0.0
C3651 C 0.64338 -0.00028 0.69569 0.0
C3652 C 0.61183 0.99747 0.71806 0.0
H3653 H 0.60655 0.00512 0.7594 0.0
C3654 C 0.59769 0.98897 0.71263 0.0
C3655 C 0.61511 0.0034 0.73511 0.0
C3656 C 0.63012 0.01308 0.7414 0.0
C3657 C 0.5867 0.98634 0.72374 0.0
C3658 C 0.58997 0.99219 0.74083 0.0
C3659 C 0.60411 0.00058 0.74632 0.0
C3660 C 0.57887 0.99036 0.75289 0.0
C3661 C 0.5717 0.97775 0.71692 0.0
C3662 C 0.57834 0.0024 0.75897 0.0
C3663 C 0.56767 0.00079 0.76993 0.0
C3664 C 0.55734 0.9871 0.77506 0.0
C3665 C 0.55803 0.97507 0.76917 0.0
C3666 C 0.56875 0.9767 0.75823 0.0
H3667 H 0.57113 0.97683 0.70255 0.0
H3668 H 0.56676 0.96678 0.72202 0.0
H3669 H 0.56544 0.98269 0.72122 0.0
H3670 H 0.58605 0.01303 0.75498 0.0
H3671 H 0.56733 0.01025 0.7741 0.0
loop_
_geom_bond_atom_site_label_1
_geom_bond_atom_site_label_2
_geom_bond_distance
_geom_bond_site_symmetry_2
_ccdc_geom_bond_type
Mg0 O1 2.028 1_556 S
Mg0 O7 1.986 1_455 S
Mg0 O9 2.114 . S
Mg0 O10 2.251 . S
Mg0 O13 2.010 1_556 S
O1 Mg0 2.028 1_554 S
O1 C4 1.250 1_455 S
O2 Mg3 2.028 1_554 S
O2 C4 1.248 . S
Mg3 O2 2.028 1_556 S
Mg3 O8 2.032 . S
Mg3 O10 2.079 1_655 S
C4 O1 1.250 1_655 S
C4 O2 1.248 . S
C5 O6 1.264 . S
C5 O13 1.249 . S
O6 C5 1.264 . S
O7 Mg0 1.986 1_655 S
O7 C11 1.246 . S
O8 Mg3 2.032 . S
O8 C11 1.259 . S
O9 Mg0 2.114 . S
O9 C12 1.252 . S
O10 Mg0 2.251 . S
O10 Mg3 2.079 1_455 S
O10 C12 1.273 . S
C11 O7 1.246 . S
C11 O8 1.259 . S
C12 O9 1.252 . S
C12 O10 1.273 . S
O13 Mg0 2.010 1_554 S
O13 C5 1.249 . S
Mg14 O15 2.028 1_554 S
Mg14 O21 1.986 . S
Mg14 O23 2.114 . S
Mg14 O24 2.251 . S
Mg14 O27 2.010 . S
O15 Mg14 2.028 1_556 S
O15 C18 1.250 . S
O16 Mg17 2.028 . S
O16 C18 1.248 1_554 S
Mg17 O16 2.028 . S
Mg17 O22 2.032 . S
Mg17 O24 2.079 . S
C18 O15 1.250 . S
C18 O16 1.248 1_556 S
C19 O20 1.263 . S
C19 O27 1.249 . S
O20 C19 1.263 . S
O21 Mg14 1.986 . S
O21 C25 1.246 . S
O22 Mg17 2.032 . S
O22 C25 1.259 . S
O23 Mg14 2.114 . S
O23 C26 1.252 . S
O24 Mg14 2.251 . S
O24 Mg17 2.079 . S
O24 C26 1.273 . S
C25 O21 1.246 . S
C25 O22 1.259 . S
C26 O23 1.252 . S
C26 O24 1.273 . S
O27 Mg14 2.010 . S
O27 C19 1.249 . S
Mg28 O29 2.032 1_566 S
Mg28 O35 1.986 1_566 S
Mg28 O37 2.116 . S
Mg28 O38 2.255 1_565 S
Mg28 O41 2.008 1_556 S
O29 Mg28 2.032 1_544 S
O29 C32 1.271 . S
O30 Mg31 2.028 1_554 S
O30 C32 1.248 . S
Mg31 O30 2.028 1_556 S
Mg31 O36 2.032 . S
Mg31 O38 2.079 . S
C32 O29 1.271 . S
C32 O30 1.248 . S
C33 O34 1.264 . S
C33 O41 1.249 . S
O34 C33 1.264 . S
O35 Mg28 1.986 1_544 S
O35 C39 1.244 1_554 S
O36 Mg31 2.032 . S
O36 C39 1.259 . S
O37 Mg28 2.116 . S
O37 C40 1.252 . S
O38 Mg28 2.255 1_545 S
O38 Mg31 2.079 . S
O38 C40 1.273 1_545 S
C39 O35 1.244 1_556 S
C39 O36 1.259 . S
C40 O37 1.252 . S
C40 O38 1.273 1_565 S
O41 Mg28 2.008 1_554 S
O41 C33 1.249 . S
Mg42 O43 2.008 1_654 S
Mg42 O49 1.986 1_655 S
Mg42 O51 2.114 . S
Mg42 O52 2.251 1_655 S
Mg42 O55 2.010 . S
O43 Mg42 2.008 1_456 S
O43 C46 1.300 . S
O44 Mg45 2.028 . S
O44 C46 1.248 1_554 S
Mg45 O44 2.028 . S
Mg45 O50 2.032 . S
Mg45 O52 2.079 . S
C46 O43 1.300 . S
C46 O44 1.248 1_556 S
C47 O48 1.264 . S
C47 O55 1.249 . S
O48 C47 1.264 . S
O49 Mg42 1.986 1_455 S
O49 C53 1.246 . S
O50 Mg45 2.032 . S
O50 C53 1.259 . S
O51 Mg42 2.114 . S
O51 C54 1.252 . S
O52 Mg42 2.251 1_455 S
O52 Mg45 2.079 . S
O52 C54 1.273 1_455 S
C53 O49 1.246 . S
C53 O50 1.259 . S
C54 O51 1.252 . S
C54 O52 1.273 1_655 S
O55 Mg42 2.010 . S
O55 C47 1.249 . S
Mg56 O57 2.028 . S
Mg56 O63 1.983 1_554 S
Mg56 O65 2.114 1_554 S
Mg56 O66 2.251 1_554 S
Mg56 O69 2.010 . S
O57 Mg56 2.028 . S
O57 C60 1.250 . S
O58 Mg59 2.028 1_554 S
O58 C60 1.248 . S
Mg59 O58 2.028 1_556 S
Mg59 O64 2.032 . S
Mg59 O66 2.079 . S
C60 O57 1.250 . S
C60 O58 1.248 . S
C61 O62 1.264 . S
C61 O69 1.249 . S
O62 C61 1.264 . S
O63 Mg56 1.983 1_556 S
O63 C67 1.272 . S
O64 Mg59 2.032 . S
O64 C67 1.259 . S
O65 Mg56 2.114 1_556 S
O65 C68 1.252 . S
O66 Mg56 2.251 1_556 S
O66 Mg59 2.079 . S
O66 C68 1.273 . S
C67 O63 1.272 . S
C67 O64 1.259 . S
C68 O65 1.252 . S
C68 O66 1.273 . S
O69 Mg56 2.010 . S
O69 C61 1.249 . S
Mg70 O71 2.028 1_554 S
Mg70 O77 1.986 1_545 S
Mg70 O79 2.114 . S
Mg70 O80 2.251 1_545 S
Mg70 O83 2.010 . S
O71 Mg70 2.028 1_556 S
O71 C74 1.250 1_545 S
O72 Mg73 2.028 . S
O72 C74 1.248 1_554 S
Mg73 O72 2.028 . S
Mg73 O78 2.032 . S
Mg73 O80 2.079 . S
C74 O71 1.250 1_565 S
C74 O72 1.248 1_556 S
C75 O76 1.264 . S
C75 O83 1.249 . S
O76 C75 1.264 . S
O77 Mg70 1.986 1_565 S
O77 C81 1.246 . S
O78 Mg73 2.032 . S
O78 C81 1.259 . S
O79 Mg70 2.114 . S
O79 C82 1.252 . S
O80 Mg70 2.251 1_565 S
O80 Mg73 2.079 . S
O80 C82 1.273 1_565 S
C81 O77 1.246 . S
C81 O78 1.259 . S
C82 O79 1.252 . S
C82 O80 1.273 1_545 S
O83 Mg70 2.010 . S
O83 C75 1.249 . S
Mg84 O85 2.028 . S
Mg84 O91 1.986 . S
Mg84 O93 2.114 . S
Mg84 O94 2.251 . S
Mg84 O97 2.010 . S
O85 Mg84 2.028 . S
O85 C88 1.250 . S
O86 Mg87 2.028 . S
O86 C88 1.248 . S
Mg87 O86 2.028 . S
Mg87 O92 2.032 . S
Mg87 O94 2.079 . S
C88 O85 1.250 . S
C88 O86 1.248 . S
C89 O90 1.264 . S
C89 O97 1.249 . S
O90 C89 1.264 . S
O91 Mg84 1.986 . S
O91 C95 1.246 . S
O92 Mg87 2.032 . S
O92 C95 1.259 . S
O93 Mg84 2.114 . S
O93 C96 1.252 . S
O94 Mg84 2.251 . S
O94 Mg87 2.079 . S
O94 C96 1.273 . S
C95 O91 1.246 . S
C95 O92 1.259 . S
C96 O93 1.252 . S
C96 O94 1.273 . S
O97 Mg84 2.010 . S
O97 C89 1.249 . S
Mg98 O99 2.028 . S
Mg98 O105 1.986 1_565 S
Mg98 O107 2.114 . S
Mg98 O108 2.251 . S
Mg98 O111 2.010 . S
O99 Mg98 2.028 . S
O99 C102 1.250 . S
O100 Mg101 2.028 . S
O100 C102 1.248 . S
Mg101 O100 2.028 . S
Mg101 O106 2.032 1_565 S
Mg101 O108 2.079 . S
C102 O99 1.250 . S
C102 O100 1.248 . S
C103 O104 1.264 . S
C103 O111 1.249 . S
O104 C103 1.264 . S
O105 Mg98 1.986 1_545 S
O105 C109 1.246 . S
O106 Mg101 2.032 1_545 S
O106 C109 1.259 . S
O107 Mg98 2.114 . S
O107 C110 1.252 . S
O108 Mg98 2.251 . S
O108 Mg101 2.079 . S
O108 C110 1.273 . S
C109 O105 1.246 . S
C109 O106 1.259 . S
C110 O107 1.252 . S
C110 O108 1.273 . S
O111 Mg98 2.010 . S
O111 C103 1.249 . S
Mg112 O113 2.028 . S
Mg112 O119 1.986 . S
Mg112 O121 2.114 . S
Mg112 O122 2.251 . S
Mg112 O125 2.010 1_455 S
O113 Mg112 2.028 . S
O113 C116 1.250 . S
O114 Mg115 2.028 . S
O114 C116 1.248 . S
Mg115 O114 2.028 . S
Mg115 O120 2.032 . S
Mg115 O122 2.079 . S
C116 O113 1.250 . S
C116 O114 1.248 . S
C117 O118 1.264 . S
C117 O125 1.249 . S
O118 C117 1.264 . S
O119 Mg112 1.986 . S
O119 C123 1.246 . S
O120 Mg115 2.032 . S
O120 C123 1.259 . S
O121 Mg112 2.114 . S
O121 C124 1.252 . S
O122 Mg112 2.251 . S
O122 Mg115 2.079 . S
O122 C124 1.273 . S
C123 O119 1.246 . S
C123 O120 1.259 . S
C124 O121 1.252 . S
C124 O122 1.273 . S
O125 Mg112 2.010 1_655 S
O125 C117 1.249 . S
Mg126 O127 2.028 . S
Mg126 O133 1.986 1_565 S
Mg126 O135 2.114 . S
Mg126 O136 2.251 . S
Mg126 O139 2.010 . S
O127 Mg126 2.028 . S
O127 C130 1.250 . S
O128 Mg129 2.028 . S
O128 C130 1.248 . S
Mg129 O128 2.028 . S
Mg129 O134 1.989 1_565 S
Mg129 O136 2.079 . S
C130 O127 1.250 . S
C130 O128 1.248 . S
C131 O132 1.264 . S
C131 O139 1.249 . S
O132 C131 1.264 . S
O133 Mg126 1.986 1_545 S
O133 C137 1.246 . S
O134 Mg129 1.989 1_545 S
O134 C137 1.299 . S
O135 Mg126 2.114 . S
O135 C138 1.252 . S
O136 Mg126 2.251 . S
O136 Mg129 2.079 . S
O136 C138 1.273 . S
C137 O133 1.246 . S
C137 O134 1.299 . S
C138 O135 1.252 . S
C138 O136 1.273 . S
O139 Mg126 2.010 . S
O139 C131 1.249 . S
Mg140 O141 2.028 . S
Mg140 O147 1.986 . S
Mg140 O149 2.114 . S
Mg140 O150 2.251 . S
Mg140 O153 2.010 1_455 S
O141 Mg140 2.028 . S
O141 C144 1.250 . S
O142 Mg143 2.028 . S
O142 C144 1.248 . S
Mg143 O142 2.028 . S
Mg143 O148 2.032 . S
Mg143 O150 2.079 . S
C144 O141 1.250 . S
C144 O142 1.248 . S
C145 O146 1.264 . S
C145 O153 1.249 . S
O146 C145 1.264 . S
O147 Mg140 1.986 . S
O147 C151 1.246 . S
O148 Mg143 2.032 . S
O148 C151 1.259 . S
O149 Mg140 2.114 . S
O149 C152 1.252 . S
O150 Mg140 2.251 . S
O150 Mg143 2.079 . S
O150 C152 1.273 . S
C151 O147 1.246 . S
C151 O148 1.259 . S
C152 O149 1.252 . S
C152 O150 1.273 . S
O153 Mg140 2.010 1_655 S
O153 C145 1.249 . S
Mg154 O155 2.028 . S
Mg154 O161 1.986 . S
Mg154 O163 2.114 . S
Mg154 O164 2.251 . S
Mg154 O167 2.010 . S
O155 Mg154 2.028 . S
O155 C158 1.250 . S
O156 Mg157 2.028 . S
O156 C158 1.248 . S
Mg157 O156 2.028 . S
Mg157 O162 2.032 . S
Mg157 O164 2.079 . S
C158 O155 1.250 . S
C158 O156 1.248 . S
C159 O160 1.264 . S
C159 O167 1.249 . S
O160 C159 1.264 . S
O161 Mg154 1.986 . S
O161 C165 1.246 . S
O162 Mg157 2.032 . S
O162 C165 1.259 . S
O163 Mg154 2.114 . S
O163 C166 1.252 . S
O164 Mg154 2.251 . S
O164 Mg157 2.079 . S
O164 C166 1.273 . S
C165 O161 1.246 . S
C165 O162 1.259 . S
C166 O163 1.252 . S
C166 O164 1.273 . S
O167 Mg154 2.010 . S
O167 C159 1.249 . S
Mg168 O169 2.028 . S
Mg168 O175 1.928 1_545 S
Mg168 O177 2.114 . S
Mg168 O178 2.251 . S
Mg168 O181 2.010 . S
O169 Mg168 2.028 . S
O169 C172 1.250 . S
O170 Mg171 2.028 . S
O170 C172 1.248 . S
Mg171 O170 2.028 . S
Mg171 O176 2.032 . S
Mg171 O178 2.079 . S
C172 O169 1.250 . S
C172 O170 1.248 . S
C173 O174 1.264 . S
C173 O181 1.249 . S
O174 C173 1.264 . S
O175 Mg168 1.928 1_565 S
O175 C179 1.239 . S
O176 Mg171 2.032 . S
O176 C179 1.259 1_545 S
O177 Mg168 2.114 . S
O177 C180 1.252 . S
O178 Mg168 2.251 . S
O178 Mg171 2.079 . S
O178 C180 1.273 . S
C179 O175 1.239 . S
C179 O176 1.259 1_565 S
C180 O177 1.252 . S
C180 O178 1.273 . S
O181 Mg168 2.010 . S
O181 C173 1.249 . S
Mg182 O183 2.028 . S
Mg182 O189 1.986 . S
Mg182 O191 2.114 . S
Mg182 O192 2.251 . S
Mg182 O195 2.010 1_655 S
O183 Mg182 2.028 . S
O183 C186 1.250 . S
O184 Mg185 2.028 . S
O184 C186 1.248 . S
Mg185 O184 2.028 . S
Mg185 O190 2.032 . S
Mg185 O192 2.079 . S
C186 O183 1.250 . S
C186 O184 1.248 . S
C187 O188 1.264 . S
C187 O195 1.249 . S
O188 C187 1.264 . S
O189 Mg182 1.986 . S
O189 C193 1.246 . S
O190 Mg185 2.032 . S
O190 C193 1.259 . S
O191 Mg182 2.114 . S
O191 C194 1.252 . S
O192 Mg182 2.251 . S
O192 Mg185 2.079 . S
O192 C194 1.273 . S
C193 O189 1.246 . S
C193 O190 1.259 . S
C194 O191 1.252 . S
C194 O192 1.273 . S
O195 Mg182 2.010 1_455 S
O195 C187 1.249 . S
Mg196 O197 2.028 . S
Mg196 O203 1.986 . S
Mg196 O205 2.114 . S
Mg196 O206 2.251 . S
Mg196 O209 2.010 . S
O197 Mg196 2.028 . S
O197 C200 1.250 . S
O198 Mg199 2.028 . S
O198 C200 1.248 . S
Mg199 O198 2.028 . S
Mg199 O204 2.032 . S
Mg199 O206 2.079 . S
C200 O197 1.250 . S
C200 O198 1.248 . S
C201 O202 1.264 . S
C201 O209 1.249 . S
O202 C201 1.264 . S
O203 Mg196 1.986 . S
O203 C207 1.246 . S
O204 Mg199 2.032 . S
O204 C207 1.259 . S
O205 Mg196 2.114 . S
O205 C208 1.252 . S
O206 Mg196 2.251 . S
O206 Mg199 2.079 . S
O206 C208 1.273 . S
C207 O203 1.246 . S
C207 O204 1.259 . S
C208 O205 1.252 . S
C208 O206 1.273 . S
O209 Mg196 2.010 . S
O209 C201 1.249 . S
Mg210 O211 2.028 . S
Mg210 O217 1.986 . S
Mg210 O219 2.114 . S
Mg210 O220 2.251 . S
Mg210 O223 2.010 . S
O211 Mg210 2.028 . S
O211 C214 1.250 . S
O212 Mg213 2.028 . S
O212 C214 1.248 . S
Mg213 O212 2.028 . S
Mg213 O218 2.032 . S
Mg213 O220 2.079 . S
C214 O211 1.250 . S
C214 O212 1.248 . S
C215 O216 1.264 . S
C215 O223 1.249 . S
O216 C215 1.264 . S
O217 Mg210 1.986 . S
O217 C221 1.246 . S
O218 Mg213 2.032 . S
O218 C221 1.259 . S
O219 Mg210 2.114 . S
O219 C222 1.252 . S
O220 Mg210 2.251 . S
O220 Mg213 2.079 . S
O220 C222 1.273 . S
C221 O217 1.246 . S
C221 O218 1.259 . S
C222 O219 1.252 . S
C222 O220 1.273 . S
O223 Mg210 2.010 . S
O223 C215 1.249 . S
Mg224 O225 2.028 . S
Mg224 O231 1.986 1_545 S
Mg224 O233 2.114 . S
Mg224 O234 2.251 . S
Mg224 O237 2.010 . S
O225 Mg224 2.028 . S
O225 C228 1.250 . S
O226 Mg227 2.028 . S
O226 C228 1.248 . S
Mg227 O226 2.028 . S
Mg227 O232 2.032 1_545 S
Mg227 O234 2.079 . S
C228 O225 1.250 . S
C228 O226 1.248 . S
C229 O230 1.264 . S
C229 O237 1.249 . S
O230 C229 1.264 . S
O231 Mg224 1.986 1_565 S
O231 C235 1.246 . S
O232 Mg227 2.032 1_565 S
O232 C235 1.259 . S
O233 Mg224 2.114 . S
O233 C236 1.252 . S
O234 Mg224 2.251 . S
O234 Mg227 2.079 . S
O234 C236 1.273 . S
C235 O231 1.246 . S
C235 O232 1.259 . S
C236 O233 1.252 . S
C236 O234 1.273 . S
O237 Mg224 2.010 . S
O237 C229 1.249 . S
Mg238 O239 2.028 . S
Mg238 O245 1.986 . S
Mg238 O247 2.114 . S
Mg238 O248 2.251 . S
Mg238 O251 2.010 1_655 S
O239 Mg238 2.028 . S
O239 C242 1.250 . S
O240 Mg241 2.028 . S
O240 C242 1.248 . S
Mg241 O240 2.028 . S
Mg241 O246 2.032 . S
Mg241 O248 2.079 . S
C242 O239 1.250 . S
C242 O240 1.248 . S
C243 O244 1.264 . S
C243 O251 1.249 . S
O244 C243 1.264 . S
O245 Mg238 1.986 . S
O245 C249 1.246 . S
O246 Mg241 2.032 . S
O246 C249 1.259 . S
O247 Mg238 2.114 . S
O247 C250 1.252 . S
O248 Mg238 2.251 . S
O248 Mg241 2.079 . S
O248 C250 1.273 . S
C249 O245 1.246 . S
C249 O246 1.259 . S
C250 O247 1.252 . S
C250 O248 1.273 . S
O251 Mg238 2.010 1_455 S
O251 C243 1.249 . S
C252 C253 1.384 . S
C252 C254 1.384 . S
C252 H280 0.931 . S
C253 C252 1.384 . S
C253 C256 1.382 . S
C254 C252 1.384 . S
C254 C255 1.381 . S
C254 H281 0.930 . S
C255 C254 1.381 . S
C255 C257 1.381 . S
C255 C258 1.487 . S
C256 C253 1.382 . S
C256 C257 1.387 . S
C256 H282 0.930 . S
C257 C255 1.381 . S
C257 C256 1.387 . S
C257 H283 0.931 . S
C258 C255 1.487 . S
C258 C265 1.399 . S
C258 N296 1.343 . S
C259 C260 1.384 . S
C259 C261 1.384 . S
C259 H284 0.931 . S
C260 C259 1.384 . S
C260 C263 1.382 . S
C261 C259 1.384 . S
C261 C262 1.381 . S
C261 H285 0.930 . S
C262 C261 1.381 . S
C262 C264 1.381 . S
C262 C265 1.487 . S
C263 C260 1.382 . S
C263 C264 1.387 . S
C263 H286 0.930 . S
C264 C262 1.381 . S
C264 C263 1.387 . S
C264 H287 0.931 . S
C265 C258 1.399 . S
C265 C262 1.487 . S
C265 N297 1.343 . S
C266 C267 1.384 . S
C266 C268 1.384 . S
C266 H288 0.931 . S
C267 C266 1.384 . S
C267 C270 1.382 . S
C268 C266 1.384 . S
C268 C269 1.381 . S
C268 H289 0.930 . S
C269 C268 1.381 . S
C269 C271 1.381 . S
C269 C272 1.487 . S
C270 C267 1.382 . S
C270 C271 1.387 . S
C270 H290 0.930 . S
C271 C269 1.381 . S
C271 C270 1.387 . S
C271 H291 0.931 . S
C272 C269 1.487 . S
C272 C279 1.399 . S
C272 N297 1.343 . S
C273 C274 1.384 . S
C273 C275 1.384 . S
C273 H292 0.931 . S
C274 C273 1.384 . S
C274 C277 1.382 . S
C275 C273 1.384 . S
C275 C276 1.381 . S
C275 H293 0.930 . S
C276 C275 1.381 . S
C276 C278 1.381 . S
C276 C279 1.487 . S
C277 C274 1.382 . S
C277 C278 1.387 . S
C277 H294 0.930 . S
C278 C276 1.381 . S
C278 C277 1.387 . S
C278 H295 0.931 . S
C279 C272 1.399 . S
C279 C276 1.487 . S
C279 N296 1.343 . S
H280 C252 0.931 . S
H281 C254 0.930 . S
H282 C256 0.930 . S
H283 C257 0.931 . S
H284 C259 0.931 . S
H285 C261 0.930 . S
H286 C263 0.930 . S
H287 C264 0.931 . S
H288 C266 0.931 . S
H289 C268 0.930 . S
H290 C270 0.930 . S
H291 C271 0.931 . S
H292 C273 0.931 . S
H293 C275 0.930 . S
H294 C277 0.930 . S
H295 C278 0.931 . S
N296 C258 1.343 . S
N296 C279 1.343 . S
N297 C265 1.343 . S
N297 C272 1.343 . S
C298 C299 1.384 . S
C298 C300 1.384 . S
C298 H326 0.931 . S
C299 C298 1.384 . S
C299 C302 1.382 . S
C300 C298 1.384 . S
C300 C301 1.381 . S
C300 H327 0.930 . S
C301 C300 1.381 . S
C301 C303 1.381 . S
C301 C304 1.487 . S
C302 C299 1.382 . S
C302 C303 1.387 . S
C302 H328 0.930 . S
C303 C301 1.381 . S
C303 C302 1.387 . S
C303 H329 0.931 . S
C304 C301 1.487 . S
C304 C311 1.399 . S
C304 N342 1.343 . S
C305 C306 1.384 . S
C305 C307 1.384 . S
C305 H330 0.931 . S
C306 C305 1.384 . S
C306 C309 1.382 . S
C307 C305 1.384 . S
C307 C308 1.381 . S
C307 H331 0.930 . S
C308 C307 1.381 . S
C308 C310 1.381 . S
C308 C311 1.487 . S
C309 C306 1.382 . S
C309 C310 1.387 . S
C309 H332 0.930 . S
C310 C308 1.381 . S
C310 C309 1.387 . S
C310 H333 0.931 . S
C311 C304 1.399 . S
C311 C308 1.487 . S
C311 N343 1.343 . S
C312 C313 1.384 . S
C312 C314 1.384 . S
C312 H334 0.931 . S
C313 C312 1.384 . S
C313 C316 1.382 . S
C314 C312 1.384 . S
C314 C315 1.381 . S
C314 H335 0.930 . S
C315 C314 1.381 . S
C315 C317 1.381 . S
C315 C318 1.487 . S
C316 C313 1.382 . S
C316 C317 1.387 . S
C316 H336 0.930 . S
C317 C315 1.381 . S
C317 C316 1.387 . S
C317 H337 0.931 . S
C318 C315 1.487 . S
C318 C325 1.399 . S
C318 N343 1.343 . S
C319 C320 1.384 . S
C319 C321 1.384 . S
C319 H338 0.931 . S
C320 C319 1.384 . S
C320 C323 1.382 . S
C321 C319 1.384 . S
C321 C322 1.381 . S
C321 H339 0.930 . S
C322 C321 1.381 . S
C322 C324 1.381 . S
C322 C325 1.487 . S
C323 C320 1.382 . S
C323 C324 1.387 . S
C323 H340 0.930 . S
C324 C322 1.381 . S
C324 C323 1.387 . S
C324 H341 0.931 . S
C325 C318 1.399 . S
C325 C322 1.487 . S
C325 N342 1.343 . S
H326 C298 0.931 . S
H327 C300 0.930 . S
H328 C302 0.930 . S
H329 C303 0.931 . S
H330 C305 0.931 . S
H331 C307 0.930 . S
H332 C309 0.930 . S
H333 C310 0.931 . S
H334 C312 0.931 . S
H335 C314 0.930 . S
H336 C316 0.930 . S
H337 C317 0.931 . S
H338 C319 0.931 . S
H339 C321 0.930 . S
H340 C323 0.930 . S
H341 C324 0.931 . S
N342 C304 1.343 . S
N342 C325 1.343 . S
N343 C311 1.343 . S
N343 C318 1.343 . S
C344 C345 1.384 . S
C344 C346 1.384 . S
C344 H372 0.931 . S
C345 C344 1.384 . S
C345 C348 1.382 . S
C346 C344 1.384 . S
C346 C347 1.381 . S
C346 H373 0.930 . S
C347 C346 1.381 . S
C347 C349 1.381 . S
C347 C350 1.487 . S
C348 C345 1.382 . S
C348 C349 1.387 . S
C348 H374 0.930 . S
C349 C347 1.381 . S
C349 C348 1.387 . S
C349 H375 0.931 . S
C350 C347 1.487 . S
C350 C357 1.399 . S
C350 N388 1.343 . S
C351 C352 1.384 . S
C351 C353 1.384 . S
C351 H376 0.931 . S
C352 C351 1.384 . S
C352 C355 1.382 . S
C353 C351 1.384 . S
C353 C354 1.381 . S
C353 H377 0.930 . S
C354 C353 1.381 . S
C354 C356 1.381 . S
C354 C357 1.487 . S
C355 C352 1.382 . S
C355 C356 1.387 . S
C355 H378 0.930 . S
C356 C354 1.381 . S
C356 C355 1.387 . S
C356 H379 0.931 . S
C357 C350 1.399 . S
C357 C354 1.487 . S
C357 N389 1.343 . S
C358 C359 1.384 . S
C358 C360 1.384 . S
C358 H380 0.931 . S
C359 C358 1.384 . S
C359 C362 1.382 . S
C360 C358 1.384 . S
C360 C361 1.381 . S
C360 H381 0.930 . S
C361 C360 1.381 . S
C361 C363 1.381 . S
C361 C364 1.487 . S
C362 C359 1.382 . S
C362 C363 1.387 . S
C362 H382 0.930 . S
C363 C361 1.381 . S
C363 C362 1.387 . S
C363 H383 0.931 . S
C364 C361 1.487 . S
C364 C371 1.399 . S
C364 N389 1.343 . S
C365 C366 1.384 . S
C365 C367 1.384 . S
C365 H384 0.931 . S
C366 C365 1.384 . S
C366 C369 1.382 . S
C367 C365 1.384 . S
C367 C368 1.381 . S
C367 H385 0.930 . S
C368 C367 1.381 . S
C368 C370 1.381 . S
C368 C371 1.487 . S
C369 C366 1.382 . S
C369 C370 1.387 . S
C369 H386 0.930 . S
C370 C368 1.381 . S
C370 C369 1.387 . S
C370 H387 0.931 . S
C371 C364 1.399 . S
C371 C368 1.487 . S
C371 N388 1.343 . S
H372 C344 0.931 . S
H373 C346 0.930 . S
H374 C348 0.930 . S
H375 C349 0.931 . S
H376 C351 0.931 . S
H377 C353 0.930 . S
H378 C355 0.930 . S
H379 C356 0.931 . S
H380 C358 0.931 . S
H381 C360 0.930 . S
H382 C362 0.930 . S
H383 C363 0.931 . S
H384 C365 0.931 . S
H385 C367 0.930 . S
H386 C369 0.930 . S
H387 C370 0.931 . S
N388 C350 1.343 . S
N388 C371 1.343 . S
N389 C357 1.343 . S
N389 C364 1.343 . S
C390 C391 1.384 . S
C390 C392 1.384 . S
C390 H418 0.931 . S
C391 C390 1.384 . S
C391 C394 1.382 . S
C392 C390 1.384 . S
C392 C393 1.381 . S
C392 H419 0.930 . S
C393 C392 1.381 . S
C393 C395 1.381 . S
C393 C396 1.487 . S
C394 C391 1.382 . S
C394 C395 1.387 . S
C394 H420 0.930 . S
C395 C393 1.381 . S
C395 C394 1.387 . S
C395 H421 0.931 . S
C396 C393 1.487 . S
C396 C403 1.399 . S
C396 N434 1.343 . S
C397 C398 1.384 . S
C397 C399 1.384 . S
C397 H422 0.931 . S
C398 C397 1.384 . S
C398 C401 1.382 . S
C399 C397 1.384 . S
C399 C400 1.381 . S
C399 H423 0.930 . S
C400 C399 1.381 . S
C400 C402 1.381 . S
C400 C403 1.487 . S
C401 C398 1.382 . S
C401 C402 1.387 . S
C401 H424 0.930 . S
C402 C400 1.381 . S
C402 C401 1.387 . S
C402 H425 0.931 . S
C403 C396 1.399 . S
C403 C400 1.487 . S
C403 N435 1.343 . S
C404 C405 1.384 . S
C404 C406 1.384 . S
C404 H426 0.931 . S
C405 C404 1.384 . S
C405 C408 1.382 . S
C406 C404 1.384 . S
C406 C407 1.381 . S
C406 H427 0.930 . S
C407 C406 1.381 . S
C407 C409 1.381 . S
C407 C410 1.487 . S
C408 C405 1.382 . S
C408 C409 1.387 . S
C408 H428 0.930 . S
C409 C407 1.381 . S
C409 C408 1.387 . S
C409 H429 0.931 . S
C410 C407 1.487 . S
C410 C417 1.399 . S
C410 N435 1.343 . S
C411 C412 1.384 . S
C411 C413 1.384 . S
C411 H430 0.931 . S
C412 C411 1.384 . S
C412 C415 1.382 . S
C413 C411 1.384 . S
C413 C414 1.381 . S
C413 H431 0.930 . S
C414 C413 1.381 . S
C414 C416 1.381 . S
C414 C417 1.487 . S
C415 C412 1.382 . S
C415 C416 1.387 . S
C415 H432 0.930 . S
C416 C414 1.381 . S
C416 C415 1.387 . S
C416 H433 0.931 . S
C417 C410 1.399 . S
C417 C414 1.487 . S
C417 N434 1.343 . S
H418 C390 0.931 . S
H419 C392 0.930 . S
H420 C394 0.930 . S
H421 C395 0.931 . S
H422 C397 0.931 . S
H423 C399 0.930 . S
H424 C401 0.930 . S
H425 C402 0.931 . S
H426 C404 0.931 . S
H427 C406 0.930 . S
H428 C408 0.930 . S
H429 C409 0.931 . S
H430 C411 0.931 . S
H431 C413 0.930 . S
H432 C415 0.930 . S
H433 C416 0.931 . S
N434 C396 1.343 . S
N434 C417 1.343 . S
N435 C403 1.343 . S
N435 C410 1.343 . S
C436 C437 1.384 . S
C436 C438 1.384 . S
C436 H464 0.931 . S
C437 C436 1.384 . S
C437 C440 1.382 . S
C438 C436 1.384 . S
C438 C439 1.381 . S
C438 H465 0.930 . S
C439 C438 1.381 . S
C439 C441 1.381 . S
C439 C442 1.487 . S
C440 C437 1.382 . S
C440 C441 1.387 . S
C440 H466 0.930 . S
C441 C439 1.381 . S
C441 C440 1.387 . S
C441 H467 0.931 . S
C442 C439 1.487 . S
C442 C449 1.399 . S
C442 N480 1.343 . S
C443 C444 1.384 . S
C443 C445 1.384 . S
C443 H468 0.931 . S
C444 C443 1.384 . S
C444 C447 1.382 . S
C445 C443 1.384 . S
C445 C446 1.381 . S
C445 H469 0.930 . S
C446 C445 1.381 . S
C446 C448 1.381 . S
C446 C449 1.487 . S
C447 C444 1.382 . S
C447 C448 1.387 . S
C447 H470 0.930 . S
C448 C446 1.381 . S
C448 C447 1.387 . S
C448 H471 0.931 . S
C449 C442 1.399 . S
C449 C446 1.487 . S
C449 N481 1.343 . S
C450 C451 1.384 . S
C450 C452 1.384 . S
C450 H472 0.931 . S
C451 C450 1.384 . S
C451 C454 1.382 . S
C452 C450 1.384 . S
C452 C453 1.381 . S
C452 H473 0.930 . S
C453 C452 1.381 . S
C453 C455 1.381 . S
C453 C456 1.487 . S
C454 C451 1.382 . S
C454 C455 1.387 . S
C454 H474 0.930 . S
C455 C453 1.381 . S
C455 C454 1.387 . S
C455 H475 0.931 . S
C456 C453 1.487 . S
C456 C463 1.399 . S
C456 N481 1.343 . S
C457 C458 1.384 . S
C457 C459 1.384 . S
C457 H476 0.931 . S
C458 C457 1.384 . S
C458 C461 1.382 . S
C459 C457 1.384 . S
C459 C460 1.381 . S
C459 H477 0.930 . S
C460 C459 1.381 . S
C460 C462 1.381 . S
C460 C463 1.487 . S
C461 C458 1.382 . S
C461 C462 1.387 . S
C461 H478 0.930 . S
C462 C460 1.381 . S
C462 C461 1.387 . S
C462 H479 0.931 . S
C463 C456 1.399 . S
C463 C460 1.487 . S
C463 N480 1.343 . S
H464 C436 0.931 . S
H465 C438 0.930 . S
H466 C440 0.930 . S
H467 C441 0.931 . S
H468 C443 0.931 . S
H469 C445 0.930 . S
H470 C447 0.930 . S
H471 C448 0.931 . S
H472 C450 0.931 . S
H473 C452 0.930 . S
H474 C454 0.930 . S
H475 C455 0.931 . S
H476 C457 0.931 . S
H477 C459 0.930 . S
H478 C461 0.930 . S
H479 C462 0.931 . S
N480 C442 1.343 . S
N480 C463 1.343 . S
N481 C449 1.343 . S
N481 C456 1.343 . S
C482 C483 1.384 . S
C482 C484 1.384 . S
C482 H510 0.931 . S
C483 C482 1.384 . S
C483 C486 1.382 . S
C484 C482 1.384 . S
C484 C485 1.381 . S
C484 H511 0.930 . S
C485 C484 1.381 . S
C485 C487 1.381 . S
C485 C488 1.487 . S
C486 C483 1.382 . S
C486 C487 1.387 . S
C486 H512 0.930 . S
C487 C485 1.381 . S
C487 C486 1.387 . S
C487 H513 0.931 . S
C488 C485 1.487 . S
C488 C495 1.399 . S
C488 N526 1.343 . S
C489 C490 1.384 . S
C489 C491 1.384 . S
C489 H514 0.931 . S
C490 C489 1.384 . S
C490 C493 1.382 . S
C491 C489 1.384 . S
C491 C492 1.381 . S
C491 H515 0.930 . S
C492 C491 1.381 . S
C492 C494 1.381 . S
C492 C495 1.487 . S
C493 C490 1.382 . S
C493 C494 1.387 . S
C493 H516 0.930 . S
C494 C492 1.381 . S
C494 C493 1.387 . S
C494 H517 0.931 . S
C495 C488 1.399 . S
C495 C492 1.487 . S
C495 N527 1.343 . S
C496 C497 1.384 . S
C496 C498 1.384 . S
C496 H518 0.931 . S
C497 C496 1.384 . S
C497 C500 1.382 . S
C498 C496 1.384 . S
C498 C499 1.381 . S
C498 H519 0.930 . S
C499 C498 1.381 . S
C499 C501 1.381 . S
C499 C502 1.487 . S
C500 C497 1.382 . S
C500 C501 1.387 . S
C500 H520 0.930 . S
C501 C499 1.381 . S
C501 C500 1.387 . S
C501 H521 0.931 . S
C502 C499 1.487 . S
C502 C509 1.399 . S
C502 N527 1.343 . S
C503 C504 1.384 . S
C503 C505 1.384 . S
C503 H522 0.931 . S
C504 C503 1.384 . S
C504 C507 1.382 . S
C505 C503 1.384 . S
C505 C506 1.381 . S
C505 H523 0.930 . S
C506 C505 1.381 . S
C506 C508 1.381 . S
C506 C509 1.487 . S
C507 C504 1.382 . S
C507 C508 1.387 . S
C507 H524 0.930 . S
C508 C506 1.381 . S
C508 C507 1.387 . S
C508 H525 0.931 . S
C509 C502 1.399 . S
C509 C506 1.487 . S
C509 N526 1.343 . S
H510 C482 0.931 . S
H511 C484 0.930 . S
H512 C486 0.930 . S
H513 C487 0.931 . S
H514 C489 0.931 . S
H515 C491 0.930 . S
H516 C493 0.930 . S
H517 C494 0.931 . S
H518 C496 0.931 . S
H519 C498 0.930 . S
H520 C500 0.930 . S
H521 C501 0.931 . S
H522 C503 0.931 . S
H523 C505 0.930 . S
H524 C507 0.930 . S
H525 C508 0.931 . S
N526 C488 1.343 . S
N526 C509 1.343 . S
N527 C495 1.343 . S
N527 C502 1.343 . S
C528 C529 1.384 . S
C528 C530 1.384 . S
C528 H556 0.931 . S
C529 C528 1.384 . S
C529 C532 1.382 . S
C530 C528 1.384 . S
C530 C531 1.381 . S
C530 H557 0.930 . S
C531 C530 1.381 . S
C531 C533 1.381 . S
C531 C534 1.487 . S
C532 C529 1.382 . S
C532 C533 1.387 . S
C532 H558 0.930 . S
C533 C531 1.381 . S
C533 C532 1.387 . S
C533 H559 0.931 . S
C534 C531 1.487 . S
C534 C541 1.399 . S
C534 N572 1.343 . S
C535 C536 1.384 . S
C535 C537 1.384 . S
C535 H560 0.931 . S
C536 C535 1.384 . S
C536 C539 1.382 . S
C537 C535 1.384 . S
C537 C538 1.381 . S
C537 H561 0.930 . S
C538 C537 1.381 . S
C538 C540 1.381 . S
C538 C541 1.487 . S
C539 C536 1.382 . S
C539 C540 1.387 . S
C539 H562 0.930 . S
C540 C538 1.381 . S
C540 C539 1.387 . S
C540 H563 0.931 . S
C541 C534 1.399 . S
C541 C538 1.487 . S
C541 N573 1.343 . S
C542 C543 1.384 . S
C542 C544 1.384 . S
C542 H564 0.931 . S
C543 C542 1.384 . S
C543 C546 1.382 . S
C544 C542 1.384 . S
C544 C545 1.381 . S
C544 H565 0.930 . S
C545 C544 1.381 . S
C545 C547 1.381 . S
C545 C548 1.487 . S
C546 C543 1.382 . S
C546 C547 1.387 . S
C546 H566 0.930 . S
C547 C545 1.381 . S
C547 C546 1.387 . S
C547 H567 0.931 . S
C548 C545 1.487 . S
C548 C555 1.399 . S
C548 N573 1.343 . S
C549 C550 1.384 . S
C549 C551 1.384 . S
C549 H568 0.931 . S
C550 C549 1.384 . S
C550 C553 1.382 . S
C551 C549 1.384 . S
C551 C552 1.381 . S
C551 H569 0.930 . S
C552 C551 1.381 . S
C552 C554 1.381 . S
C552 C555 1.487 . S
C553 C550 1.382 . S
C553 C554 1.387 . S
C553 H570 0.930 . S
C554 C552 1.381 . S
C554 C553 1.387 . S
C554 H571 0.931 . S
C555 C548 1.399 . S
C555 C552 1.487 . S
C555 N572 1.343 . S
H556 C528 0.931 . S
H557 C530 0.930 . S
H558 C532 0.930 . S
H559 C533 0.931 . S
H560 C535 0.931 . S
H561 C537 0.930 . S
H562 C539 0.930 . S
H563 C540 0.931 . S
H564 C542 0.931 . S
H565 C544 0.930 . S
H566 C546 0.930 . S
H567 C547 0.931 . S
H568 C549 0.931 . S
H569 C551 0.930 . S
H570 C553 0.930 . S
H571 C554 0.931 . S
N572 C534 1.343 . S
N572 C555 1.343 . S
N573 C541 1.343 . S
N573 C548 1.343 . S
C574 C575 1.384 . S
C574 C576 1.384 . S
C574 H602 0.931 . S
C575 C574 1.384 . S
C575 C578 1.382 . S
C576 C574 1.384 . S
C576 C577 1.381 . S
C576 H603 0.930 . S
C577 C576 1.381 . S
C577 C579 1.381 . S
C577 C580 1.487 . S
C578 C575 1.382 . S
C578 C579 1.387 . S
C578 H604 0.930 . S
C579 C577 1.381 . S
C579 C578 1.387 . S
C579 H605 0.931 . S
C580 C577 1.487 . S
C580 C587 1.399 . S
C580 N618 1.343 . S
C581 C582 1.384 . S
C581 C583 1.384 . S
C581 H606 0.931 . S
C582 C581 1.384 . S
C582 C585 1.382 . S
C583 C581 1.384 . S
C583 C584 1.381 . S
C583 H607 0.930 . S
C584 C583 1.381 . S
C584 C586 1.381 . S
C584 C587 1.487 . S
C585 C582 1.382 . S
C585 C586 1.387 . S
C585 H608 0.930 . S
C586 C584 1.381 . S
C586 C585 1.387 . S
C586 H609 0.931 . S
C587 C580 1.399 . S
C587 C584 1.487 . S
C587 N619 1.343 . S
C588 C589 1.384 . S
C588 C590 1.384 . S
C588 H610 0.931 . S
C589 C588 1.384 . S
C589 C592 1.382 . S
C590 C588 1.384 . S
C590 C591 1.381 . S
C590 H611 0.930 . S
C591 C590 1.381 . S
C591 C593 1.381 . S
C591 C594 1.487 . S
C592 C589 1.382 . S
C592 C593 1.387 . S
C592 H612 0.930 . S
C593 C591 1.381 . S
C593 C592 1.387 . S
C593 H613 0.931 . S
C594 C591 1.487 . S
C594 C601 1.399 . S
C594 N619 1.343 . S
C595 C596 1.384 . S
C595 C597 1.384 . S
C595 H614 0.931 . S
C596 C595 1.384 . S
C596 C599 1.382 . S
C597 C595 1.384 . S
C597 C598 1.381 . S
C597 H615 0.930 . S
C598 C597 1.381 . S
C598 C600 1.381 . S
C598 C601 1.487 . S
C599 C596 1.382 . S
C599 C600 1.387 . S
C599 H616 0.930 . S
C600 C598 1.381 . S
C600 C599 1.387 . S
C600 H617 0.931 . S
C601 C594 1.399 . S
C601 C598 1.487 . S
C601 N618 1.343 . S
H602 C574 0.931 . S
H603 C576 0.930 . S
H604 C578 0.930 . S
H605 C579 0.931 . S
H606 C581 0.931 . S
H607 C583 0.930 . S
H608 C585 0.930 . S
H609 C586 0.931 . S
H610 C588 0.931 . S
H611 C590 0.930 . S
H612 C592 0.930 . S
H613 C593 0.931 . S
H614 C595 0.931 . S
H615 C597 0.930 . S
H616 C599 0.930 . S
H617 C600 0.931 . S
N618 C580 1.343 . S
N618 C601 1.343 . S
N619 C587 1.343 . S
N619 C594 1.343 . S
C620 C621 1.384 . S
C620 C622 1.384 . S
C620 H648 0.931 . S
C621 C620 1.384 . S
C621 C624 1.382 . S
C622 C620 1.384 . S
C622 C623 1.381 . S
C622 H649 0.930 . S
C623 C622 1.381 . S
C623 C625 1.381 . S
C623 C626 1.487 . S
C624 C621 1.382 . S
C624 C625 1.387 . S
C624 H650 0.930 . S
C625 C623 1.381 . S
C625 C624 1.387 . S
C625 H651 0.931 . S
C626 C623 1.487 . S
C626 C633 1.399 . S
C626 N664 1.343 . S
C627 C628 1.384 . S
C627 C629 1.384 . S
C627 H652 0.931 . S
C628 C627 1.384 . S
C628 C631 1.382 . S
C629 C627 1.384 . S
C629 C630 1.381 . S
C629 H653 0.930 . S
C630 C629 1.381 . S
C630 C632 1.381 . S
C630 C633 1.487 . S
C631 C628 1.382 . S
C631 C632 1.387 . S
C631 H654 0.930 . S
C632 C630 1.381 . S
C632 C631 1.387 . S
C632 H655 0.931 . S
C633 C626 1.399 . S
C633 C630 1.487 . S
C633 N665 1.343 . S
C634 C635 1.384 . S
C634 C636 1.384 . S
C634 H656 0.931 . S
C635 C634 1.384 . S
C635 C638 1.382 . S
C636 C634 1.384 . S
C636 C637 1.381 . S
C636 H657 0.930 . S
C637 C636 1.381 . S
C637 C639 1.381 . S
C637 C640 1.487 . S
C638 C635 1.382 . S
C638 C639 1.387 . S
C638 H658 0.930 . S
C639 C637 1.381 . S
C639 C638 1.387 . S
C639 H659 0.931 . S
C640 C637 1.487 . S
C640 C647 1.399 . S
C640 N665 1.343 . S
C641 C642 1.384 . S
C641 C643 1.384 . S
C641 H660 0.931 . S
C642 C641 1.384 . S
C642 C645 1.382 . S
C643 C641 1.384 . S
C643 C644 1.381 . S
C643 H661 0.930 . S
C644 C643 1.381 . S
C644 C646 1.381 . S
C644 C647 1.487 . S
C645 C642 1.382 . S
C645 C646 1.387 . S
C645 H662 0.930 . S
C646 C644 1.381 . S
C646 C645 1.387 . S
C646 H663 0.931 . S
C647 C640 1.399 . S
C647 C644 1.487 . S
C647 N664 1.343 . S
H648 C620 0.931 . S
H649 C622 0.930 . S
H650 C624 0.930 . S
H651 C625 0.931 . S
H652 C627 0.931 . S
H653 C629 0.930 . S
H654 C631 0.930 . S
H655 C632 0.931 . S
H656 C634 0.931 . S
H657 C636 0.930 . S
H658 C638 0.930 . S
H659 C639 0.931 . S
H660 C641 0.931 . S
H661 C643 0.930 . S
H662 C645 0.930 . S
H663 C646 0.931 . S
N664 C626 1.343 . S
N664 C647 1.343 . S
N665 C633 1.343 . S
N665 C640 1.343 . S
C666 C667 1.384 . S
C666 C668 1.384 . S
C666 H694 0.931 . S
C667 C666 1.384 . S
C667 C670 1.382 1_655 S
C668 C666 1.384 . S
C668 C669 1.384 . S
C668 H695 0.930 . S
C669 C668 1.384 . S
C669 C671 1.380 1_655 S
C669 C672 1.479 1_655 S
C670 C667 1.382 1_455 S
C670 C671 1.387 . S
C670 H696 0.930 . S
C671 C669 1.380 1_455 S
C671 C670 1.387 . S
C671 H697 0.931 . S
C672 C669 1.479 1_455 S
C672 C679 1.398 1_455 S
C672 N710 1.311 . S
C673 C674 1.384 . S
C673 C675 1.384 . S
C673 H698 0.931 . S
C674 C673 1.384 . S
C674 C677 1.382 1_455 S
C675 C673 1.384 . S
C675 C676 1.382 1_455 S
C675 H699 0.930 . S
C676 C675 1.382 1_655 S
C676 C678 1.378 . S
C676 C679 1.495 . S
C677 C674 1.382 1_655 S
C677 C678 1.387 . S
C677 H700 0.930 . S
C678 C676 1.378 . S
C678 C677 1.387 . S
C678 H701 0.931 . S
C679 C672 1.398 1_655 S
C679 C676 1.495 . S
C679 N711 1.364 . S
C680 C681 1.384 . S
C680 C682 1.384 . S
C680 H702 0.931 . S
C681 C680 1.384 . S
C681 C684 1.382 1_455 S
C682 C680 1.384 . S
C682 C683 1.404 . S
C682 H703 0.930 . S
C683 C682 1.404 . S
C683 C685 1.369 1_455 S
C683 C686 1.479 1_455 S
C684 C681 1.382 1_655 S
C684 C685 1.387 . S
C684 H704 0.930 . S
C685 C683 1.369 1_655 S
C685 C684 1.387 . S
C685 H705 0.931 . S
C686 C683 1.479 1_655 S
C686 C693 1.398 1_655 S
C686 N711 1.311 . S
C687 C688 1.441 . S
C687 C689 1.384 . S
C687 H706 0.931 . S
C688 C687 1.441 . S
C688 C691 1.365 1_655 S
C689 C687 1.384 . S
C689 C690 1.378 1_655 S
C689 H707 0.930 . S
C690 C689 1.378 1_455 S
C690 C692 1.391 . S
C690 C693 1.495 . S
C691 C688 1.365 1_455 S
C691 C692 1.387 . S
C691 H708 0.930 . S
C692 C690 1.391 . S
C692 C691 1.387 . S
C692 H709 0.931 . S
C693 C686 1.398 1_455 S
C693 C690 1.495 . S
C693 N710 1.364 . S
H694 C666 0.931 . S
H695 C668 0.930 . S
H696 C670 0.930 . S
H697 C671 0.931 . S
H698 C673 0.931 . S
H699 C675 0.930 . S
H700 C677 0.930 . S
H701 C678 0.931 . S
H702 C680 0.931 . S
H703 C682 0.930 . S
H704 C684 0.930 . S
H705 C685 0.931 . S
H706 C687 0.931 . S
H707 C689 0.930 . S
H708 C691 0.930 . S
H709 C692 0.931 . S
N710 C672 1.311 . S
N710 C693 1.364 . S
N711 C679 1.364 . S
N711 C686 1.311 . S
C712 C713 1.384 . S
C712 C714 1.384 . S
C712 H740 0.931 . S
C713 C712 1.384 . S
C713 C716 1.382 . S
C714 C712 1.384 . S
C714 C715 1.381 . S
C714 H741 0.930 . S
C715 C714 1.381 . S
C715 C717 1.381 . S
C715 C718 1.487 . S
C716 C713 1.382 . S
C716 C717 1.387 . S
C716 H742 0.930 . S
C717 C715 1.381 . S
C717 C716 1.387 . S
C717 H743 0.931 . S
C718 C715 1.487 . S
C718 C725 1.399 . S
C718 N756 1.343 . S
C719 C720 1.384 . S
C719 C721 1.384 . S
C719 H744 0.931 . S
C720 C719 1.384 . S
C720 C723 1.382 . S
C721 C719 1.384 . S
C721 C722 1.381 . S
C721 H745 0.930 . S
C722 C721 1.381 . S
C722 C724 1.381 . S
C722 C725 1.487 . S
C723 C720 1.382 . S
C723 C724 1.387 . S
C723 H746 0.930 . S
C724 C722 1.381 . S
C724 C723 1.387 . S
C724 H747 0.931 . S
C725 C718 1.399 . S
C725 C722 1.487 . S
C725 N757 1.343 . S
C726 C727 1.384 . S
C726 C728 1.384 . S
C726 H748 0.931 . S
C727 C726 1.384 . S
C727 C730 1.382 . S
C728 C726 1.384 . S
C728 C729 1.381 . S
C728 H749 0.930 . S
C729 C728 1.381 . S
C729 C731 1.381 . S
C729 C732 1.487 . S
C730 C727 1.382 . S
C730 C731 1.387 . S
C730 H750 0.930 . S
C731 C729 1.381 . S
C731 C730 1.387 . S
C731 H751 0.931 . S
C732 C729 1.487 . S
C732 C739 1.399 . S
C732 N757 1.343 . S
C733 C734 1.384 . S
C733 C735 1.384 . S
C733 H752 0.931 . S
C734 C733 1.384 . S
C734 C737 1.382 . S
C735 C733 1.384 . S
C735 C736 1.381 . S
C735 H753 0.930 . S
C736 C735 1.381 . S
C736 C738 1.381 . S
C736 C739 1.487 . S
C737 C734 1.382 . S
C737 C738 1.387 . S
C737 H754 0.930 . S
C738 C736 1.381 . S
C738 C737 1.387 . S
C738 H755 0.931 . S
C739 C732 1.399 . S
C739 C736 1.487 . S
C739 N756 1.343 . S
H740 C712 0.931 . S
H741 C714 0.930 . S
H742 C716 0.930 . S
H743 C717 0.931 . S
H744 C719 0.931 . S
H745 C721 0.930 . S
H746 C723 0.930 . S
H747 C724 0.931 . S
H748 C726 0.931 . S
H749 C728 0.930 . S
H750 C730 0.930 . S
H751 C731 0.931 . S
H752 C733 0.931 . S
H753 C735 0.930 . S
H754 C737 0.930 . S
H755 C738 0.931 . S
N756 C718 1.343 . S
N756 C739 1.343 . S
N757 C725 1.343 . S
N757 C732 1.343 . S
C758 C759 1.384 1_545 S
C758 C760 1.384 . S
C758 H786 0.931 . S
C759 C758 1.384 1_565 S
C759 C762 1.382 . S
C760 C758 1.384 . S
C760 C761 1.381 1_545 S
C760 H787 0.930 . S
C761 C760 1.381 1_565 S
C761 C763 1.381 . S
C761 C764 1.487 . S
C762 C759 1.382 . S
C762 C763 1.387 . S
C762 H788 0.930 . S
C763 C761 1.381 . S
C763 C762 1.387 . S
C763 H789 0.931 . S
C764 C761 1.487 . S
C764 C771 1.399 1_565 S
C764 N802 1.343 . S
C765 C766 1.384 1_565 S
C765 C767 1.384 . S
C765 H790 0.931 . S
C766 C765 1.384 1_545 S
C766 C769 1.382 . S
C767 C765 1.384 . S
C767 C768 1.381 1_565 S
C767 H791 0.930 . S
C768 C767 1.381 1_545 S
C768 C770 1.381 . S
C768 C771 1.487 . S
C769 C766 1.382 . S
C769 C770 1.387 . S
C769 H792 0.930 . S
C770 C768 1.381 . S
C770 C769 1.387 . S
C770 H793 0.931 . S
C771 C764 1.399 1_545 S
C771 C768 1.487 . S
C771 N803 1.343 . S
C772 C773 1.384 1_565 S
C772 C774 1.384 . S
C772 H794 0.931 . S
C773 C772 1.384 1_545 S
C773 C776 1.382 . S
C774 C772 1.384 . S
C774 C775 1.381 1_565 S
C774 H795 0.930 . S
C775 C774 1.381 1_545 S
C775 C777 1.381 . S
C775 C778 1.487 . S
C776 C773 1.382 . S
C776 C777 1.387 . S
C776 H796 0.930 . S
C777 C775 1.381 . S
C777 C776 1.387 . S
C777 H797 0.931 . S
C778 C775 1.487 . S
C778 C785 1.399 1_545 S
C778 N803 1.343 . S
C779 C780 1.384 1_545 S
C779 C781 1.384 . S
C779 H798 0.931 . S
C780 C779 1.384 1_565 S
C780 C783 1.382 . S
C781 C779 1.384 . S
C781 C782 1.381 1_545 S
C781 H799 0.930 . S
C782 C781 1.381 1_565 S
C782 C784 1.381 . S
C782 C785 1.487 . S
C783 C780 1.382 . S
C783 C784 1.387 . S
C783 H800 0.930 . S
C784 C782 1.381 . S
C784 C783 1.387 . S
C784 H801 0.931 . S
C785 C778 1.399 1_565 S
C785 C782 1.487 . S
C785 N802 1.343 . S
H786 C758 0.931 . S
H787 C760 0.930 . S
H788 C762 0.930 . S
H789 C763 0.931 . S
H790 C765 0.931 . S
H791 C767 0.930 . S
H792 C769 0.930 . S
H793 C770 0.931 . S
H794 C772 0.931 . S
H795 C774 0.930 . S
H796 C776 0.930 . S
H797 C777 0.931 . S
H798 C779 0.931 . S
H799 C781 0.930 . S
H800 C783 0.930 . S
H801 C784 0.931 . S
N802 C764 1.343 . S
N802 C785 1.343 . S
N803 C771 1.343 . S
N803 C778 1.343 . S
C804 C805 1.384 . S
C804 C806 1.384 . S
C804 H832 0.931 . S
C805 C804 1.384 . S
C805 C808 1.382 1_545 S
C806 C804 1.384 . S
C806 C807 1.385 . S
C806 H833 0.930 . S
C807 C806 1.385 . S
C807 C809 1.372 1_545 S
C807 C810 1.493 1_545 S
C808 C805 1.382 1_565 S
C808 C809 1.387 . S
C808 H834 0.930 . S
C809 C807 1.372 1_565 S
C809 C808 1.387 . S
C809 H835 0.931 . S
C810 C807 1.493 1_565 S
C810 C817 1.399 1_565 S
C810 N848 1.367 . S
C811 C812 1.384 . S
C811 C813 1.384 . S
C811 H836 0.931 . S
C812 C811 1.384 . S
C812 C815 1.382 1_565 S
C813 C811 1.384 . S
C813 C814 1.372 . S
C813 H837 0.930 . S
C814 C813 1.372 . S
C814 C816 1.386 1_565 S
C814 C817 1.482 1_565 S
C815 C812 1.382 1_545 S
C815 C816 1.387 . S
C815 H838 0.930 . S
C816 C814 1.386 1_545 S
C816 C815 1.387 . S
C816 H839 0.931 . S
C817 C810 1.399 1_545 S
C817 C814 1.482 1_545 S
C817 N849 1.320 . S
C818 C819 1.384 . S
C818 C820 1.384 . S
C818 H840 0.931 . S
C819 C818 1.384 . S
C819 C822 1.382 1_565 S
C820 C818 1.384 . S
C820 C821 1.381 . S
C820 H841 0.930 . S
C821 C820 1.381 . S
C821 C823 1.383 1_565 S
C821 C824 1.493 1_565 S
C822 C819 1.382 1_545 S
C822 C823 1.387 . S
C822 H842 0.930 . S
C823 C821 1.383 1_545 S
C823 C822 1.387 . S
C823 H843 0.931 . S
C824 C821 1.493 1_545 S
C824 C831 1.399 1_545 S
C824 N849 1.367 . S
C825 C826 1.384 . S
C825 C827 1.384 . S
C825 H844 0.931 . S
C826 C825 1.384 . S
C826 C829 1.382 1_545 S
C827 C825 1.384 . S
C827 C828 1.393 . S
C827 H845 0.930 . S
C828 C827 1.393 . S
C828 C830 1.376 1_545 S
C828 C831 1.482 1_545 S
C829 C826 1.382 1_565 S
C829 C830 1.387 . S
C829 H846 0.930 . S
C830 C828 1.376 1_565 S
C830 C829 1.387 . S
C830 H847 0.931 . S
C831 C824 1.399 1_565 S
C831 C828 1.482 1_565 S
C831 N848 1.320 . S
H832 C804 0.931 . S
H833 C806 0.930 . S
H834 C808 0.930 . S
H835 C809 0.931 . S
H836 C811 0.931 . S
H837 C813 0.930 . S
H838 C815 0.930 . S
H839 C816 0.931 . S
H840 C818 0.931 . S
H841 C820 0.930 . S
H842 C822 0.930 . S
H843 C823 0.931 . S
H844 C825 0.931 . S
H845 C827 0.930 . S
H846 C829 0.930 . S
H847 C830 0.931 . S
N848 C810 1.367 . S
N848 C831 1.320 . S
N849 C817 1.320 . S
N849 C824 1.367 . S
C850 C851 1.384 . S
C850 C852 1.384 . S
C850 H878 0.931 . S
C851 C850 1.384 . S
C851 C854 1.382 1_655 S
C852 C850 1.384 . S
C852 C853 1.422 . S
C852 H879 0.930 . S
C853 C852 1.422 . S
C853 C855 1.360 1_655 S
C853 C856 1.466 . S
C854 C851 1.382 1_455 S
C854 C855 1.387 . S
C854 H880 0.930 . S
C855 C853 1.360 1_455 S
C855 C854 1.387 . S
C855 H881 0.931 . S
C856 C853 1.466 . S
C856 C863 1.398 . S
C856 N894 1.325 1_655 S
C857 C858 1.384 . S
C857 C859 1.384 . S
C857 H882 0.931 . S
C858 C857 1.384 . S
C858 C861 1.382 1_455 S
C859 C857 1.384 . S
C859 C860 1.382 1_455 S
C859 H883 0.930 . S
C860 C859 1.382 1_655 S
C860 C862 1.380 . S
C860 C863 1.499 . S
C861 C858 1.382 1_655 S
C861 C862 1.387 . S
C861 H884 0.930 . S
C862 C860 1.380 . S
C862 C861 1.387 . S
C862 H885 0.931 . S
C863 C856 1.398 . S
C863 C860 1.499 . S
C863 N895 1.360 . S
C864 C865 1.384 . S
C864 C866 1.384 . S
C864 H886 0.931 . S
C865 C864 1.384 . S
C865 C868 1.382 1_455 S
C866 C864 1.384 . S
C866 C867 1.402 . S
C866 H887 0.930 . S
C867 C866 1.402 . S
C867 C869 1.371 1_455 S
C867 C870 1.475 1_455 S
C868 C865 1.382 1_655 S
C868 C869 1.387 . S
C868 H888 0.930 . S
C869 C867 1.371 1_655 S
C869 C868 1.387 . S
C869 H889 0.931 . S
C870 C867 1.475 1_655 S
C870 C877 1.399 1_655 S
C870 N895 1.315 . S
C871 C872 1.384 . S
C871 C873 1.384 . S
C871 H890 0.931 . S
C872 C871 1.384 . S
C872 C875 1.382 1_655 S
C873 C871 1.384 . S
C873 C874 1.382 . S
C873 H891 0.930 . S
C874 C873 1.382 . S
C874 C876 1.380 1_655 S
C874 C877 1.490 1_655 S
C875 C872 1.382 1_455 S
C875 C876 1.387 . S
C875 H892 0.930 . S
C876 C874 1.380 1_455 S
C876 C875 1.387 . S
C876 H893 0.931 . S
C877 C870 1.399 1_455 S
C877 C874 1.490 1_455 S
C877 N894 1.360 . S
H878 C850 0.931 . S
H879 C852 0.930 . S
H880 C854 0.930 . S
H881 C855 0.931 . S
H882 C857 0.931 . S
H883 C859 0.930 . S
H884 C861 0.930 . S
H885 C862 0.931 . S
H886 C864 0.931 . S
H887 C866 0.930 . S
H888 C868 0.930 . S
H889 C869 0.931 . S
H890 C871 0.931 . S
H891 C873 0.930 . S
H892 C875 0.930 . S
H893 C876 0.931 . S
N894 C856 1.325 1_455 S
N894 C877 1.360 . S
N895 C863 1.360 . S
N895 C870 1.315 . S
C896 C897 1.384 . S
C896 C898 1.384 . S
C896 H924 0.931 . S
C897 C896 1.384 . S
C897 C900 1.382 . S
C898 C896 1.384 . S
C898 C899 1.381 . S
C898 H925 0.930 . S
C899 C898 1.381 . S
C899 C901 1.381 . S
C899 C902 1.487 . S
C900 C897 1.382 . S
C900 C901 1.387 . S
C900 H926 0.930 . S
C901 C899 1.381 . S
C901 C900 1.387 . S
C901 H927 0.931 . S
C902 C899 1.487 . S
C902 C909 1.399 . S
C902 N940 1.343 . S
C903 C904 1.384 . S
C903 C905 1.384 . S
C903 H928 0.931 . S
C904 C903 1.384 . S
C904 C907 1.382 . S
C905 C903 1.384 . S
C905 C906 1.381 . S
C905 H929 0.930 . S
C906 C905 1.381 . S
C906 C908 1.381 . S
C906 C909 1.487 . S
C907 C904 1.382 . S
C907 C908 1.387 . S
C907 H930 0.930 . S
C908 C906 1.381 . S
C908 C907 1.387 . S
C908 H931 0.931 . S
C909 C902 1.399 . S
C909 C906 1.487 . S
C909 N941 1.343 . S
C910 C911 1.384 . S
C910 C912 1.384 . S
C910 H932 0.931 . S
C911 C910 1.384 . S
C911 C914 1.382 . S
C912 C910 1.384 . S
C912 C913 1.381 . S
C912 H933 0.930 . S
C913 C912 1.381 . S
C913 C915 1.381 . S
C913 C916 1.487 . S
C914 C911 1.382 . S
C914 C915 1.387 . S
C914 H934 0.930 . S
C915 C913 1.381 . S
C915 C914 1.387 . S
C915 H935 0.931 . S
C916 C913 1.487 . S
C916 C923 1.399 . S
C916 N941 1.343 . S
C917 C918 1.384 . S
C917 C919 1.384 . S
C917 H936 0.931 . S
C918 C917 1.384 . S
C918 C921 1.382 . S
C919 C917 1.384 . S
C919 C920 1.381 . S
C919 H937 0.930 . S
C920 C919 1.381 . S
C920 C922 1.381 . S
C920 C923 1.487 . S
C921 C918 1.382 . S
C921 C922 1.387 . S
C921 H938 0.930 . S
C922 C920 1.381 . S
C922 C921 1.387 . S
C922 H939 0.931 . S
C923 C916 1.399 . S
C923 C920 1.487 . S
C923 N940 1.343 . S
H924 C896 0.931 . S
H925 C898 0.930 . S
H926 C900 0.930 . S
H927 C901 0.931 . S
H928 C903 0.931 . S
H929 C905 0.930 . S
H930 C907 0.930 . S
H931 C908 0.931 . S
H932 C910 0.931 . S
H933 C912 0.930 . S
H934 C914 0.930 . S
H935 C915 0.931 . S
H936 C917 0.931 . S
H937 C919 0.930 . S
H938 C921 0.930 . S
H939 C922 0.931 . S
N940 C902 1.343 . S
N940 C923 1.343 . S
N941 C909 1.343 . S
N941 C916 1.343 . S
C942 C943 1.384 . S
C942 C944 1.384 . S
C942 H970 0.931 . S
C943 C942 1.384 . S
C943 C946 1.382 . S
C944 C942 1.384 . S
C944 C945 1.381 . S
C944 H971 0.930 . S
C945 C944 1.381 . S
C945 C947 1.381 . S
C945 C948 1.487 . S
C946 C943 1.382 . S
C946 C947 1.387 . S
C946 H972 0.930 . S
C947 C945 1.381 . S
C947 C946 1.387 . S
C947 H973 0.931 . S
C948 C945 1.487 . S
C948 C955 1.399 . S
C948 N986 1.343 . S
C949 C950 1.384 . S
C949 C951 1.384 . S
C949 H974 0.931 . S
C950 C949 1.384 . S
C950 C953 1.382 . S
C951 C949 1.384 . S
C951 C952 1.381 . S
C951 H975 0.930 . S
C952 C951 1.381 . S
C952 C954 1.381 . S
C952 C955 1.487 . S
C953 C950 1.382 . S
C953 C954 1.387 . S
C953 H976 0.930 . S
C954 C952 1.381 . S
C954 C953 1.387 . S
C954 H977 0.931 . S
C955 C948 1.399 . S
C955 C952 1.487 . S
C955 N987 1.343 . S
C956 C957 1.384 . S
C956 C958 1.384 . S
C956 H978 0.931 . S
C957 C956 1.384 . S
C957 C960 1.382 . S
C958 C956 1.384 . S
C958 C959 1.381 . S
C958 H979 0.930 . S
C959 C958 1.381 . S
C959 C961 1.381 . S
C959 C962 1.487 . S
C960 C957 1.382 . S
C960 C961 1.387 . S
C960 H980 0.930 . S
C961 C959 1.381 . S
C961 C960 1.387 . S
C961 H981 0.931 . S
C962 C959 1.487 . S
C962 C969 1.399 . S
C962 N987 1.343 . S
C963 C964 1.384 . S
C963 C965 1.384 . S
C963 H982 0.931 . S
C964 C963 1.384 . S
C964 C967 1.382 . S
C965 C963 1.384 . S
C965 C966 1.381 . S
C965 H983 0.930 . S
C966 C965 1.381 . S
C966 C968 1.381 . S
C966 C969 1.487 . S
C967 C964 1.382 . S
C967 C968 1.387 . S
C967 H984 0.930 . S
C968 C966 1.381 . S
C968 C967 1.387 . S
C968 H985 0.931 . S
C969 C962 1.399 . S
C969 C966 1.487 . S
C969 N986 1.343 . S
H970 C942 0.931 . S
H971 C944 0.930 . S
H972 C946 0.930 . S
H973 C947 0.931 . S
H974 C949 0.931 . S
H975 C951 0.930 . S
H976 C953 0.930 . S
H977 C954 0.931 . S
H978 C956 0.931 . S
H979 C958 0.930 . S
H980 C960 0.930 . S
H981 C961 0.931 . S
H982 C963 0.931 . S
H983 C965 0.930 . S
H984 C967 0.930 . S
H985 C968 0.931 . S
N986 C948 1.343 . S
N986 C969 1.343 . S
N987 C955 1.343 . S
N987 C962 1.343 . S
C988 C989 1.384 . S
C988 C990 1.384 . S
C988 H1016 0.931 . S
C989 C988 1.384 . S
C989 C992 1.382 . S
C990 C988 1.384 . S
C990 C991 1.381 . S
C990 H1017 0.930 . S
C991 C990 1.381 . S
C991 C993 1.381 . S
C991 C994 1.487 . S
C992 C989 1.382 . S
C992 C993 1.387 . S
C992 H1018 0.930 . S
C993 C991 1.381 . S
C993 C992 1.387 . S
C993 H1019 0.931 . S
C994 C991 1.487 . S
C994 C1001 1.399 . S
C994 N1032 1.343 . S
C995 C996 1.384 . S
C995 C997 1.384 . S
C995 H1020 0.931 . S
C996 C995 1.384 . S
C996 C999 1.382 . S
C997 C995 1.384 . S
C997 C998 1.381 . S
C997 H1021 0.930 . S
C998 C997 1.381 . S
C998 C1000 1.381 . S
C998 C1001 1.487 . S
C999 C996 1.382 . S
C999 C1000 1.387 . S
C999 H1022 0.930 . S
C1000 C998 1.381 . S
C1000 C999 1.387 . S
C1000 H1023 0.931 . S
C1001 C994 1.399 . S
C1001 C998 1.487 . S
C1001 N1033 1.343 . S
C1002 C1003 1.384 . S
C1002 C1004 1.384 . S
C1002 H1024 0.931 . S
C1003 C1002 1.384 . S
C1003 C1006 1.382 . S
C1004 C1002 1.384 . S
C1004 C1005 1.381 . S
C1004 H1025 0.930 . S
C1005 C1004 1.381 . S
C1005 C1007 1.381 . S
C1005 C1008 1.487 . S
C1006 C1003 1.382 . S
C1006 C1007 1.387 . S
C1006 H1026 0.930 . S
C1007 C1005 1.381 . S
C1007 C1006 1.387 . S
C1007 H1027 0.931 . S
C1008 C1005 1.487 . S
C1008 C1015 1.399 . S
C1008 N1033 1.343 . S
C1009 C1010 1.384 . S
C1009 C1011 1.384 . S
C1009 H1028 0.931 . S
C1010 C1009 1.384 . S
C1010 C1013 1.382 . S
C1011 C1009 1.384 . S
C1011 C1012 1.381 . S
C1011 H1029 0.930 . S
C1012 C1011 1.381 . S
C1012 C1014 1.381 . S
C1012 C1015 1.487 . S
C1013 C1010 1.382 . S
C1013 C1014 1.387 . S
C1013 H1030 0.930 . S
C1014 C1012 1.381 . S
C1014 C1013 1.387 . S
C1014 H1031 0.931 . S
C1015 C1008 1.399 . S
C1015 C1012 1.487 . S
C1015 N1032 1.343 . S
H1016 C988 0.931 . S
H1017 C990 0.930 . S
H1018 C992 0.930 . S
H1019 C993 0.931 . S
H1020 C995 0.931 . S
H1021 C997 0.930 . S
H1022 C999 0.930 . S
H1023 C1000 0.931 . S
H1024 C1002 0.931 . S
H1025 C1004 0.930 . S
H1026 C1006 0.930 . S
H1027 C1007 0.931 . S
H1028 C1009 0.931 . S
H1029 C1011 0.930 . S
H1030 C1013 0.930 . S
H1031 C1014 0.931 . S
N1032 C994 1.343 . S
N1032 C1015 1.343 . S
N1033 C1001 1.343 . S
N1033 C1008 1.343 . S
C1034 C1035 1.384 . S
C1034 C1036 1.384 . S
C1034 H1062 0.931 . S
C1035 C1034 1.384 . S
C1035 C1038 1.382 . S
C1036 C1034 1.384 . S
C1036 C1037 1.381 . S
C1036 H1063 0.930 . S
C1037 C1036 1.381 . S
C1037 C1039 1.381 . S
C1037 C1040 1.487 . S
C1038 C1035 1.382 . S
C1038 C1039 1.387 . S
C1038 H1064 0.930 . S
C1039 C1037 1.381 . S
C1039 C1038 1.387 . S
C1039 H1065 0.931 . S
C1040 C1037 1.487 . S
C1040 C1047 1.399 . S
C1040 N1078 1.343 . S
C1041 C1042 1.384 . S
C1041 C1043 1.384 . S
C1041 H1066 0.931 . S
C1042 C1041 1.384 . S
C1042 C1045 1.382 . S
C1043 C1041 1.384 . S
C1043 C1044 1.381 . S
C1043 H1067 0.930 . S
C1044 C1043 1.381 . S
C1044 C1046 1.381 . S
C1044 C1047 1.487 . S
C1045 C1042 1.382 . S
C1045 C1046 1.387 . S
C1045 H1068 0.930 . S
C1046 C1044 1.381 . S
C1046 C1045 1.387 . S
C1046 H1069 0.931 . S
C1047 C1040 1.399 . S
C1047 C1044 1.487 . S
C1047 N1079 1.343 . S
C1048 C1049 1.384 . S
C1048 C1050 1.384 . S
C1048 H1070 0.931 . S
C1049 C1048 1.384 . S
C1049 C1052 1.382 . S
C1050 C1048 1.384 . S
C1050 C1051 1.381 . S
C1050 H1071 0.930 . S
C1051 C1050 1.381 . S
C1051 C1053 1.381 . S
C1051 C1054 1.487 . S
C1052 C1049 1.382 . S
C1052 C1053 1.387 . S
C1052 H1072 0.930 . S
C1053 C1051 1.381 . S
C1053 C1052 1.387 . S
C1053 H1073 0.931 . S
C1054 C1051 1.487 . S
C1054 C1061 1.399 . S
C1054 N1079 1.343 . S
C1055 C1056 1.384 . S
C1055 C1057 1.384 . S
C1055 H1074 0.931 . S
C1056 C1055 1.384 . S
C1056 C1059 1.382 . S
C1057 C1055 1.384 . S
C1057 C1058 1.381 . S
C1057 H1075 0.930 . S
C1058 C1057 1.381 . S
C1058 C1060 1.381 . S
C1058 C1061 1.487 . S
C1059 C1056 1.382 . S
C1059 C1060 1.387 . S
C1059 H1076 0.930 . S
C1060 C1058 1.381 . S
C1060 C1059 1.387 . S
C1060 H1077 0.931 . S
C1061 C1054 1.399 . S
C1061 C1058 1.487 . S
C1061 N1078 1.343 . S
H1062 C1034 0.931 . S
H1063 C1036 0.930 . S
H1064 C1038 0.930 . S
H1065 C1039 0.931 . S
H1066 C1041 0.931 . S
H1067 C1043 0.930 . S
H1068 C1045 0.930 . S
H1069 C1046 0.931 . S
H1070 C1048 0.931 . S
H1071 C1050 0.930 . S
H1072 C1052 0.930 . S
H1073 C1053 0.931 . S
H1074 C1055 0.931 . S
H1075 C1057 0.930 . S
H1076 C1059 0.930 . S
H1077 C1060 0.931 . S
N1078 C1040 1.343 . S
N1078 C1061 1.343 . S
N1079 C1047 1.343 . S
N1079 C1054 1.343 . S
H1080 C1088 0.929 . S
H1081 C1090 0.930 . S
H1082 C1092 0.930 . S
H1083 C1095 0.929 . S
H1084 C1098 0.930 . S
H1085 C1100 0.960 . S
H1086 C1100 0.960 . S
H1087 C1100 0.960 . S
C1088 H1080 0.929 . S
C1088 C1089 1.377 1_455 S
C1088 C1090 1.384 . S
C1089 C1088 1.377 1_655 S
C1089 C1095 1.390 . S
C1090 H1081 0.930 . S
C1090 C1088 1.384 . S
C1090 C1091 1.372 1_455 S
C1091 C1090 1.372 1_655 S
C1091 C1092 1.400 . S
C1091 C1096 1.490 . S
C1092 H1082 0.930 . S
C1092 C1091 1.400 . S
C1092 C1095 1.386 . S
H1093 C1109 0.930 . S
H1094 C1110 0.931 . S
C1095 H1083 0.929 . S
C1095 C1089 1.390 . S
C1095 C1092 1.386 . S
C1096 C1091 1.490 . S
C1096 C1098 1.395 1_655 S
C1096 C1099 1.403 . S
H1097 C1103 0.930 . S
C1098 H1084 0.930 . S
C1098 C1096 1.395 1_455 S
C1098 C1101 1.403 . S
C1099 C1096 1.403 . S
C1099 C1100 1.524 . S
C1099 C1103 1.400 . S
C1100 H1085 0.960 . S
C1100 H1086 0.960 . S
C1100 H1087 0.960 . S
C1100 C1099 1.524 . S
C1101 C1098 1.403 . S
C1101 C1102 1.392 . S
C1101 C1105 1.495 . S
C1102 C1101 1.392 . S
C1102 C1103 1.385 1_455 S
C1102 C1104 1.478 . S
C1103 H1097 0.930 . S
C1103 C1099 1.400 . S
C1103 C1102 1.385 1_655 S
C1104 C1102 1.478 . S
C1104 C1106 1.381 . S
C1104 C1110 1.383 1_455 S
C1105 C1101 1.495 . S
C1105 H1111 0.959 . S
C1105 H1112 0.961 . S
C1105 H1113 0.960 . S
C1106 C1104 1.381 . S
C1106 C1107 1.394 . S
C1106 H1114 0.930 . S
C1107 C1106 1.394 . S
C1107 C1108 1.348 1_455 S
C1107 H1115 0.929 . S
C1108 C1107 1.348 1_655 S
C1108 C1109 1.389 . S
C1109 H1093 0.930 . S
C1109 C1108 1.389 . S
C1109 C1110 1.379 . S
C1110 H1094 0.931 . S
C1110 C1104 1.383 1_655 S
C1110 C1109 1.379 . S
H1111 C1105 0.959 . S
H1112 C1105 0.961 . S
H1113 C1105 0.960 . S
H1114 C1106 0.930 . S
H1115 C1107 0.929 . S
H1116 C1124 0.929 . S
H1117 C1126 0.930 . S
H1118 C1128 0.930 . S
H1119 C1131 0.929 . S
H1120 C1134 0.930 . S
H1121 C1136 0.960 . S
H1122 C1136 0.960 . S
H1123 C1136 0.960 . S
C1124 H1116 0.929 . S
C1124 C1125 1.377 . S
C1124 C1126 1.384 . S
C1125 C1124 1.377 . S
C1125 C1131 1.390 . S
C1126 H1117 0.930 . S
C1126 C1124 1.384 . S
C1126 C1127 1.372 . S
C1127 C1126 1.372 . S
C1127 C1128 1.400 . S
C1127 C1132 1.490 . S
C1128 H1118 0.930 . S
C1128 C1127 1.400 . S
C1128 C1131 1.386 . S
H1129 C1145 0.930 . S
H1130 C1146 0.931 . S
C1131 H1119 0.929 . S
C1131 C1125 1.390 . S
C1131 C1128 1.386 . S
C1132 C1127 1.490 . S
C1132 C1134 1.395 . S
C1132 C1135 1.403 . S
H1133 C1139 0.930 . S
C1134 H1120 0.930 . S
C1134 C1132 1.395 . S
C1134 C1137 1.403 . S
C1135 C1132 1.403 . S
C1135 C1136 1.524 . S
C1135 C1139 1.400 . S
C1136 H1121 0.960 . S
C1136 H1122 0.960 . S
C1136 H1123 0.960 . S
C1136 C1135 1.524 . S
C1137 C1134 1.403 . S
C1137 C1138 1.392 . S
C1137 C1141 1.495 . S
C1138 C1137 1.392 . S
C1138 C1139 1.385 . S
C1138 C1140 1.478 . S
C1139 H1133 0.930 . S
C1139 C1135 1.400 . S
C1139 C1138 1.385 . S
C1140 C1138 1.478 . S
C1140 C1142 1.381 . S
C1140 C1146 1.383 . S
C1141 C1137 1.495 . S
C1141 H1147 0.959 . S
C1141 H1148 0.961 . S
C1141 H1149 0.960 . S
C1142 C1140 1.381 . S
C1142 C1143 1.394 . S
C1142 H1150 0.930 . S
C1143 C1142 1.394 . S
C1143 C1144 1.383 . S
C1143 H1151 0.929 . S
C1144 C1143 1.383 . S
C1144 C1145 1.377 . S
C1145 H1129 0.930 . S
C1145 C1144 1.377 . S
C1145 C1146 1.379 . S
C1146 H1130 0.931 . S
C1146 C1140 1.383 . S
C1146 C1145 1.379 . S
H1147 C1141 0.959 . S
H1148 C1141 0.961 . S
H1149 C1141 0.960 . S
H1150 C1142 0.930 . S
H1151 C1143 0.929 . S
H1152 C1160 0.929 . S
H1153 C1162 0.930 . S
H1154 C1164 0.930 . S
H1155 C1167 0.929 . S
H1156 C1170 0.930 . S
H1157 C1172 0.960 . S
H1158 C1172 0.960 . S
H1159 C1172 0.960 . S
C1160 H1152 0.929 . S
C1160 C1161 1.377 . S
C1160 C1162 1.384 . S
C1161 C1160 1.377 . S
C1161 C1167 1.390 . S
C1162 H1153 0.930 . S
C1162 C1160 1.384 . S
C1162 C1163 1.372 . S
C1163 C1162 1.372 . S
C1163 C1164 1.400 . S
C1163 C1168 1.490 . S
C1164 H1154 0.930 . S
C1164 C1163 1.400 . S
C1164 C1167 1.386 . S
H1165 C1181 0.930 . S
H1166 C1182 0.931 . S
C1167 H1155 0.929 . S
C1167 C1161 1.390 . S
C1167 C1164 1.386 . S
C1168 C1163 1.490 . S
C1168 C1170 1.395 1_545 S
C1168 C1171 1.403 . S
H1169 C1175 0.930 . S
C1170 H1156 0.930 . S
C1170 C1168 1.395 1_565 S
C1170 C1173 1.403 . S
C1171 C1168 1.403 . S
C1171 C1172 1.524 . S
C1171 C1175 1.400 . S
C1172 H1157 0.960 . S
C1172 H1158 0.960 . S
C1172 H1159 0.960 . S
C1172 C1171 1.524 . S
C1173 C1170 1.403 . S
C1173 C1174 1.392 1_565 S
C1173 C1177 1.495 . S
C1174 C1173 1.392 1_545 S
C1174 C1175 1.385 . S
C1174 C1176 1.478 . S
C1175 H1169 0.930 . S
C1175 C1171 1.400 . S
C1175 C1174 1.385 . S
C1176 C1174 1.478 . S
C1176 C1178 1.381 . S
C1176 C1182 1.383 . S
C1177 C1173 1.495 . S
C1177 H1183 0.959 . S
C1177 H1184 0.961 . S
C1177 H1185 0.960 . S
C1178 C1176 1.381 . S
C1178 C1179 1.394 . S
C1178 H1186 0.906 . S
C1179 C1178 1.394 . S
C1179 C1180 1.383 . S
C1179 H1187 0.929 . S
C1180 C1179 1.383 . S
C1180 C1181 1.377 . S
C1181 H1165 0.930 . S
C1181 C1180 1.377 . S
C1181 C1182 1.379 . S
C1182 H1166 0.931 . S
C1182 C1176 1.383 . S
C1182 C1181 1.379 . S
H1183 C1177 0.959 . S
H1184 C1177 0.961 . S
H1185 C1177 0.960 . S
H1186 C1178 0.906 . S
H1187 C1179 0.929 . S
H1188 C1196 0.929 . S
H1189 C1198 0.930 . S
H1190 C1200 0.930 . S
H1191 C1203 0.929 . S
H1192 C1206 0.930 . S
H1193 C1208 0.960 . S
H1194 C1208 0.960 . S
H1195 C1208 0.960 . S
C1196 H1188 0.929 . S
C1196 C1197 1.377 . S
C1196 C1198 1.384 . S
C1197 C1196 1.377 . S
C1197 C1203 1.390 1_565 S
C1198 H1189 0.930 . S
C1198 C1196 1.384 . S
C1198 C1199 1.372 . S
C1199 C1198 1.372 . S
C1199 C1200 1.400 1_565 S
C1199 C1204 1.490 . S
C1200 H1190 0.930 . S
C1200 C1199 1.400 1_545 S
C1200 C1203 1.386 . S
H1201 C1217 0.930 . S
H1202 C1218 0.931 . S
C1203 H1191 0.929 . S
C1203 C1197 1.390 1_545 S
C1203 C1200 1.386 . S
C1204 C1199 1.490 . S
C1204 C1206 1.395 . S
C1204 C1207 1.403 . S
H1205 C1211 0.930 . S
C1206 H1192 0.930 . S
C1206 C1204 1.395 . S
C1206 C1209 1.403 . S
C1207 C1204 1.403 . S
C1207 C1208 1.524 . S
C1207 C1211 1.400 . S
C1208 H1193 0.960 . S
C1208 H1194 0.960 . S
C1208 H1195 0.960 . S
C1208 C1207 1.524 . S
C1209 C1206 1.403 . S
C1209 C1210 1.392 . S
C1209 C1213 1.495 . S
C1210 C1209 1.392 . S
C1210 C1211 1.385 . S
C1210 C1212 1.478 . S
C1211 H1205 0.930 . S
C1211 C1207 1.400 . S
C1211 C1210 1.385 . S
C1212 C1210 1.478 . S
C1212 C1214 1.381 . S
C1212 C1218 1.383 1_565 S
C1213 C1209 1.495 . S
C1213 H1219 0.959 . S
C1213 H1220 0.961 1_565 S
C1213 H1221 0.960 . S
C1214 C1212 1.381 . S
C1214 C1215 1.394 . S
C1214 H1222 0.930 . S
C1215 C1214 1.394 . S
C1215 C1216 1.383 . S
C1215 H1223 0.929 . S
C1216 C1215 1.383 . S
C1216 C1217 1.377 1_565 S
C1217 H1201 0.930 . S
C1217 C1216 1.377 1_545 S
C1217 C1218 1.379 . S
C1218 H1202 0.931 . S
C1218 C1212 1.383 1_545 S
C1218 C1217 1.379 . S
H1219 C1213 0.959 . S
H1220 C1213 0.961 1_545 S
H1221 C1213 0.960 . S
H1222 C1214 0.930 . S
H1223 C1215 0.929 . S
H1224 C1232 0.929 . S
H1225 C1234 0.930 . S
H1226 C1236 0.930 . S
H1227 C1239 0.929 . S
H1228 C1242 0.930 . S
H1229 C1244 0.960 . S
H1230 C1244 0.960 . S
H1231 C1244 0.960 . S
C1232 H1224 0.929 . S
C1232 C1233 1.377 . S
C1232 C1234 1.384 . S
C1233 C1232 1.377 . S
C1233 C1239 1.390 . S
C1234 H1225 0.930 . S
C1234 C1232 1.384 . S
C1234 C1235 1.372 . S
C1235 C1234 1.372 . S
C1235 C1236 1.400 . S
C1235 C1240 1.490 . S
C1236 H1226 0.930 . S
C1236 C1235 1.400 . S
C1236 C1239 1.386 . S
H1237 C1253 0.930 1_655 S
H1238 C1254 0.931 . S
C1239 H1227 0.929 . S
C1239 C1233 1.390 . S
C1239 C1236 1.386 . S
C1240 C1235 1.490 . S
C1240 C1242 1.395 . S
C1240 C1243 1.403 1_455 S
H1241 C1247 0.930 . S
C1242 H1228 0.930 . S
C1242 C1240 1.395 . S
C1242 C1245 1.403 . S
C1243 C1240 1.403 1_655 S
C1243 C1244 1.524 . S
C1243 C1247 1.400 . S
C1244 H1229 0.960 . S
C1244 H1230 0.960 . S
C1244 H1231 0.960 . S
C1244 C1243 1.524 . S
C1245 C1242 1.403 . S
C1245 C1246 1.392 . S
C1245 C1249 1.495 . S
C1246 C1245 1.392 . S
C1246 C1247 1.385 1_455 S
C1246 C1248 1.478 . S
C1247 H1241 0.930 . S
C1247 C1243 1.400 . S
C1247 C1246 1.385 1_655 S
C1248 C1246 1.478 . S
C1248 C1250 1.381 . S
C1248 C1254 1.383 . S
C1249 C1245 1.495 . S
C1249 H1255 0.959 . S
C1249 H1256 0.961 . S
C1249 H1257 0.960 . S
C1250 C1248 1.381 . S
C1250 C1251 1.394 . S
C1250 H1258 0.930 . S
C1251 C1250 1.394 . S
C1251 C1252 1.383 . S
C1251 H1259 0.929 . S
C1252 C1251 1.383 . S
C1252 C1253 1.377 . S
C1253 H1237 0.930 1_455 S
C1253 C1252 1.377 . S
C1253 C1254 1.379 . S
C1254 H1238 0.931 . S
C1254 C1248 1.383 . S
C1254 C1253 1.379 . S
H1255 C1249 0.959 . S
H1256 C1249 0.961 . S
H1257 C1249 0.960 . S
H1258 C1250 0.930 . S
H1259 C1251 0.929 . S
H1260 C1268 0.929 . S
H1261 C1270 0.930 . S
H1262 C1272 0.930 . S
H1263 C1275 0.929 . S
H1264 C1278 0.930 . S
H1265 C1280 0.960 . S
H1266 C1280 0.960 . S
H1267 C1280 0.960 . S
C1268 H1260 0.929 . S
C1268 C1269 1.377 . S
C1268 C1270 1.384 . S
C1269 C1268 1.377 . S
C1269 C1275 1.390 . S
C1270 H1261 0.930 . S
C1270 C1268 1.384 . S
C1270 C1271 1.372 . S
C1271 C1270 1.372 . S
C1271 C1272 1.400 . S
C1271 C1276 1.490 . S
C1272 H1262 0.930 . S
C1272 C1271 1.400 . S
C1272 C1275 1.386 . S
H1273 C1289 0.930 . S
H1274 C1290 0.931 . S
C1275 H1263 0.929 . S
C1275 C1269 1.390 . S
C1275 C1272 1.386 . S
C1276 C1271 1.490 . S
C1276 C1278 1.395 . S
C1276 C1279 1.403 . S
H1277 C1283 0.930 . S
C1278 H1264 0.930 . S
C1278 C1276 1.395 . S
C1278 C1281 1.403 . S
C1279 C1276 1.403 . S
C1279 C1280 1.524 . S
C1279 C1283 1.400 . S
C1280 H1265 0.960 . S
C1280 H1266 0.960 . S
C1280 H1267 0.960 . S
C1280 C1279 1.524 . S
C1281 C1278 1.403 . S
C1281 C1282 1.392 . S
C1281 C1285 1.495 . S
C1282 C1281 1.392 . S
C1282 C1283 1.385 . S
C1282 C1284 1.478 . S
C1283 H1277 0.930 . S
C1283 C1279 1.400 . S
C1283 C1282 1.385 . S
C1284 C1282 1.478 . S
C1284 C1286 1.381 . S
C1284 C1290 1.383 . S
C1285 C1281 1.495 . S
C1285 H1291 0.959 . S
C1285 H1292 0.961 . S
C1285 H1293 0.960 . S
C1286 C1284 1.381 . S
C1286 C1287 1.394 . S
C1286 H1294 0.930 . S
C1287 C1286 1.394 . S
C1287 C1288 1.383 . S
C1287 H1295 0.929 . S
C1288 C1287 1.383 . S
C1288 C1289 1.377 . S
C1289 H1273 0.930 . S
C1289 C1288 1.377 . S
C1289 C1290 1.379 . S
C1290 H1274 0.931 . S
C1290 C1284 1.383 . S
C1290 C1289 1.379 . S
H1291 C1285 0.959 . S
H1292 C1285 0.961 . S
H1293 C1285 0.960 . S
H1294 C1286 0.930 . S
H1295 C1287 0.929 . S
H1296 C1304 0.929 1_655 S
H1297 C1306 0.908 1_655 S
H1298 C1308 0.930 . S
H1299 C1311 0.929 . S
H1300 C1314 0.930 . S
H1301 C1316 0.960 . S
H1302 C1316 0.960 . S
H1303 C1316 0.960 . S
C1304 H1296 0.929 1_455 S
C1304 C1305 1.377 . S
C1304 C1306 1.368 . S
C1305 C1304 1.377 . S
C1305 C1311 1.390 . S
C1306 H1297 0.908 1_455 S
C1306 C1304 1.368 . S
C1306 C1307 1.411 . S
C1307 C1306 1.411 . S
C1307 C1308 1.400 . S
C1307 C1312 1.490 . S
C1308 H1298 0.930 . S
C1308 C1307 1.400 . S
C1308 C1311 1.386 . S
H1309 C1325 0.930 . S
H1310 C1326 0.931 . S
C1311 H1299 0.929 . S
C1311 C1305 1.390 . S
C1311 C1308 1.386 . S
C1312 C1307 1.490 . S
C1312 C1314 1.395 . S
C1312 C1315 1.409 1_455 S
H1313 C1319 0.928 . S
C1314 H1300 0.930 . S
C1314 C1312 1.395 . S
C1314 C1317 1.403 . S
C1315 C1312 1.409 1_655 S
C1315 C1316 1.555 . S
C1315 C1319 1.387 . S
C1316 H1301 0.960 . S
C1316 H1302 0.960 . S
C1316 H1303 0.960 . S
C1316 C1315 1.555 . S
C1317 C1314 1.403 . S
C1317 C1318 1.392 . S
C1317 C1321 1.495 . S
C1318 C1317 1.392 . S
C1318 C1319 1.370 1_455 S
C1318 C1320 1.478 . S
C1319 H1313 0.928 . S
C1319 C1315 1.387 . S
C1319 C1318 1.370 1_655 S
C1320 C1318 1.478 . S
C1320 C1322 1.381 1_455 S
C1320 C1326 1.383 . S
C1321 C1317 1.495 . S
C1321 H1327 0.959 . S
C1321 H1328 0.961 . S
C1321 H1329 0.960 . S
C1322 C1320 1.381 1_655 S
C1322 C1323 1.394 . S
C1322 H1330 0.930 . S
C1323 C1322 1.394 . S
C1323 C1324 1.383 1_655 S
C1323 H1331 0.929 . S
C1324 C1323 1.383 1_455 S
C1324 C1325 1.377 . S
C1325 H1309 0.930 . S
C1325 C1324 1.377 . S
C1325 C1326 1.379 . S
C1326 H1310 0.931 . S
C1326 C1320 1.383 . S
C1326 C1325 1.379 . S
H1327 C1321 0.959 . S
H1328 C1321 0.961 . S
H1329 C1321 0.960 . S
H1330 C1322 0.930 . S
H1331 C1323 0.929 . S
H1332 C1340 0.929 . S
H1333 C1342 0.930 . S
H1334 C1344 0.930 . S
H1335 C1347 0.929 . S
H1336 C1350 0.930 . S
H1337 C1352 0.960 . S
H1338 C1352 0.960 . S
H1339 C1352 0.960 . S
C1340 H1332 0.929 . S
C1340 C1341 1.377 . S
C1340 C1342 1.384 . S
C1341 C1340 1.377 . S
C1341 C1347 1.390 . S
C1342 H1333 0.930 . S
C1342 C1340 1.384 . S
C1342 C1343 1.372 . S
C1343 C1342 1.372 . S
C1343 C1344 1.400 . S
C1343 C1348 1.490 . S
C1344 H1334 0.930 . S
C1344 C1343 1.400 . S
C1344 C1347 1.386 . S
H1345 C1361 0.930 . S
H1346 C1362 0.931 . S
C1347 H1335 0.929 . S
C1347 C1341 1.390 . S
C1347 C1344 1.386 . S
C1348 C1343 1.490 . S
C1348 C1350 1.395 . S
C1348 C1351 1.403 . S
H1349 C1355 0.930 . S
C1350 H1336 0.930 . S
C1350 C1348 1.395 . S
C1350 C1353 1.403 . S
C1351 C1348 1.403 . S
C1351 C1352 1.524 . S
C1351 C1355 1.400 . S
C1352 H1337 0.960 . S
C1352 H1338 0.960 . S
C1352 H1339 0.960 . S
C1352 C1351 1.524 . S
C1353 C1350 1.403 . S
C1353 C1354 1.392 . S
C1353 C1357 1.495 . S
C1354 C1353 1.392 . S
C1354 C1355 1.385 . S
C1354 C1356 1.478 . S
C1355 H1349 0.930 . S
C1355 C1351 1.400 . S
C1355 C1354 1.385 . S
C1356 C1354 1.478 . S
C1356 C1358 1.381 . S
C1356 C1362 1.383 . S
C1357 C1353 1.495 . S
C1357 H1363 0.959 . S
C1357 H1364 0.961 . S
C1357 H1365 0.960 . S
C1358 C1356 1.381 . S
C1358 C1359 1.394 . S
C1358 H1366 0.930 . S
C1359 C1358 1.394 . S
C1359 C1360 1.383 . S
C1359 H1367 0.929 . S
C1360 C1359 1.383 . S
C1360 C1361 1.377 . S
C1361 H1345 0.930 . S
C1361 C1360 1.377 . S
C1361 C1362 1.379 . S
C1362 H1346 0.931 . S
C1362 C1356 1.383 . S
C1362 C1361 1.379 . S
H1363 C1357 0.959 . S
H1364 C1357 0.961 . S
H1365 C1357 0.960 . S
H1366 C1358 0.930 . S
H1367 C1359 0.929 . S
H1368 C1376 0.929 . S
H1369 C1378 0.930 . S
H1370 C1380 0.930 . S
H1371 C1383 0.929 . S
H1372 C1386 0.930 . S
H1373 C1388 0.960 . S
H1374 C1388 0.960 . S
H1375 C1388 0.960 . S
C1376 H1368 0.929 . S
C1376 C1377 1.377 . S
C1376 C1378 1.384 . S
C1377 C1376 1.377 . S
C1377 C1383 1.390 1_565 S
C1378 H1369 0.930 . S
C1378 C1376 1.384 . S
C1378 C1379 1.372 . S
C1379 C1378 1.372 . S
C1379 C1380 1.400 1_565 S
C1379 C1384 1.490 . S
C1380 H1370 0.930 . S
C1380 C1379 1.400 1_545 S
C1380 C1383 1.386 . S
H1381 C1397 0.930 . S
H1382 C1398 0.931 . S
C1383 H1371 0.929 . S
C1383 C1377 1.390 1_545 S
C1383 C1380 1.386 . S
C1384 C1379 1.490 . S
C1384 C1386 1.395 . S
C1384 C1387 1.403 1_565 S
H1385 C1391 0.930 . S
C1386 H1372 0.930 . S
C1386 C1384 1.395 . S
C1386 C1389 1.403 . S
C1387 C1384 1.403 1_545 S
C1387 C1388 1.524 . S
C1387 C1391 1.400 . S
C1388 H1373 0.960 . S
C1388 H1374 0.960 . S
C1388 H1375 0.960 . S
C1388 C1387 1.524 . S
C1389 C1386 1.403 . S
C1389 C1390 1.392 . S
C1389 C1393 1.495 . S
C1390 C1389 1.392 . S
C1390 C1391 1.385 1_565 S
C1390 C1392 1.478 . S
C1391 H1385 0.930 . S
C1391 C1387 1.400 . S
C1391 C1390 1.385 1_545 S
C1392 C1390 1.478 . S
C1392 C1394 1.381 . S
C1392 C1398 1.383 1_565 S
C1393 C1389 1.495 . S
C1393 H1399 0.959 . S
C1393 H1400 0.961 . S
C1393 H1401 0.960 . S
C1394 C1392 1.381 . S
C1394 C1395 1.394 . S
C1394 H1402 0.930 . S
C1395 C1394 1.394 . S
C1395 C1396 1.383 . S
C1395 H1403 0.929 . S
C1396 C1395 1.383 . S
C1396 C1397 1.377 1_565 S
C1397 H1381 0.930 . S
C1397 C1396 1.377 1_545 S
C1397 C1398 1.379 . S
C1398 H1382 0.931 . S
C1398 C1392 1.383 1_545 S
C1398 C1397 1.379 . S
H1399 C1393 0.959 . S
H1400 C1393 0.961 . S
H1401 C1393 0.960 . S
H1402 C1394 0.930 . S
H1403 C1395 0.929 . S
H1404 C1412 0.939 . S
H1405 C1414 0.930 . S
H1406 C1416 0.930 . S
H1407 C1419 0.929 . S
H1408 C1422 0.906 1_565 S
H1409 C1424 0.960 . S
H1410 C1424 0.960 . S
H1411 C1424 0.960 . S
C1412 H1404 0.939 . S
C1412 C1413 1.371 1_565 S
C1412 C1414 1.381 . S
C1413 C1412 1.371 1_545 S
C1413 C1419 1.390 . S
C1414 H1405 0.930 . S
C1414 C1412 1.381 . S
C1414 C1415 1.372 1_565 S
C1415 C1414 1.372 1_545 S
C1415 C1416 1.400 . S
C1415 C1420 1.490 . S
C1416 H1406 0.930 . S
C1416 C1415 1.400 . S
C1416 C1419 1.386 . S
H1417 C1433 0.930 . S
H1418 C1434 0.931 . S
C1419 H1407 0.929 . S
C1419 C1413 1.390 . S
C1419 C1416 1.386 . S
C1420 C1415 1.490 . S
C1420 C1422 1.395 . S
C1420 C1423 1.403 . S
H1421 C1427 0.930 . S
C1422 H1408 0.906 1_545 S
C1422 C1420 1.395 . S
C1422 C1425 1.403 . S
C1423 C1420 1.403 . S
C1423 C1424 1.524 . S
C1423 C1427 1.400 . S
C1424 H1409 0.960 . S
C1424 H1410 0.960 . S
C1424 H1411 0.960 . S
C1424 C1423 1.524 . S
C1425 C1422 1.403 . S
C1425 C1426 1.392 . S
C1425 C1429 1.495 1_545 S
C1426 C1425 1.392 . S
C1426 C1427 1.385 . S
C1426 C1428 1.478 . S
C1427 H1421 0.930 . S
C1427 C1423 1.400 . S
C1427 C1426 1.385 . S
C1428 C1426 1.478 . S
C1428 C1430 1.381 1_545 S
C1428 C1434 1.383 . S
C1429 C1425 1.495 1_565 S
C1429 H1435 0.959 . S
C1429 H1436 0.961 1_565 S
C1429 H1437 0.960 . S
C1430 C1428 1.381 1_565 S
C1430 C1431 1.394 . S
C1430 H1438 0.930 . S
C1431 C1430 1.394 . S
C1431 C1432 1.383 1_565 S
C1431 H1439 0.929 . S
C1432 C1431 1.383 1_545 S
C1432 C1433 1.377 . S
C1433 H1417 0.930 . S
C1433 C1432 1.377 . S
C1433 C1434 1.379 . S
C1434 H1418 0.931 . S
C1434 C1428 1.383 . S
C1434 C1433 1.379 . S
H1435 C1429 0.959 . S
H1436 C1429 0.961 1_545 S
H1437 C1429 0.960 . S
H1438 C1430 0.930 . S
H1439 C1431 0.929 . S
H1440 C1448 0.929 . S
H1441 C1450 0.930 . S
H1442 C1452 0.930 . S
H1443 C1455 0.929 . S
H1444 C1458 0.930 . S
H1445 C1460 0.960 . S
H1446 C1460 0.960 . S
H1447 C1460 0.960 . S
C1448 H1440 0.929 . S
C1448 C1449 1.377 . S
C1448 C1450 1.384 . S
C1449 C1448 1.377 . S
C1449 C1455 1.390 1_655 S
C1450 H1441 0.930 . S
C1450 C1448 1.384 . S
C1450 C1451 1.372 . S
C1451 C1450 1.372 . S
C1451 C1452 1.400 1_655 S
C1451 C1456 1.490 . S
C1452 H1442 0.930 . S
C1452 C1451 1.400 1_455 S
C1452 C1455 1.386 . S
H1453 C1469 0.930 . S
H1454 C1470 0.931 . S
C1455 H1443 0.929 . S
C1455 C1449 1.390 1_455 S
C1455 C1452 1.386 . S
C1456 C1451 1.490 . S
C1456 C1458 1.395 . S
C1456 C1459 1.394 1_655 S
H1457 C1463 0.944 . S
C1458 H1444 0.930 . S
C1458 C1456 1.395 . S
C1458 C1461 1.403 . S
C1459 C1456 1.394 1_455 S
C1459 C1460 1.524 . S
C1459 C1463 1.396 . S
C1460 H1445 0.960 . S
C1460 H1446 0.960 . S
C1460 H1447 0.960 . S
C1460 C1459 1.524 . S
C1461 C1458 1.403 . S
C1461 C1462 1.392 . S
C1461 C1465 1.495 . S
C1462 C1461 1.392 . S
C1462 C1463 1.385 1_655 S
C1462 C1464 1.478 . S
C1463 H1457 0.944 . S
C1463 C1459 1.396 . S
C1463 C1462 1.385 1_455 S
C1464 C1462 1.478 . S
C1464 C1466 1.381 . S
C1464 C1470 1.383 1_655 S
C1465 C1461 1.495 . S
C1465 H1471 0.959 . S
C1465 H1472 0.961 . S
C1465 H1473 0.960 . S
C1466 C1464 1.381 . S
C1466 C1467 1.394 . S
C1466 H1474 0.930 . S
C1467 C1466 1.394 . S
C1467 C1468 1.383 . S
C1467 H1475 0.929 . S
C1468 C1467 1.383 . S
C1468 C1469 1.377 1_655 S
C1469 H1453 0.930 . S
C1469 C1468 1.377 1_455 S
C1469 C1470 1.379 . S
C1470 H1454 0.931 . S
C1470 C1464 1.383 1_455 S
C1470 C1469 1.379 . S
H1471 C1465 0.959 . S
H1472 C1465 0.961 . S
H1473 C1465 0.960 . S
H1474 C1466 0.930 . S
H1475 C1467 0.929 . S
H1476 C1484 0.929 . S
H1477 C1486 0.930 . S
H1478 C1488 0.930 . S
H1479 C1491 0.929 . S
H1480 C1494 0.930 . S
H1481 C1496 0.960 . S
H1482 C1496 0.960 . S
H1483 C1496 0.960 . S
C1484 H1476 0.929 . S
C1484 C1485 1.377 . S
C1484 C1486 1.384 . S
C1485 C1484 1.377 . S
C1485 C1491 1.390 . S
C1486 H1477 0.930 . S
C1486 C1484 1.384 . S
C1486 C1487 1.372 . S
C1487 C1486 1.372 . S
C1487 C1488 1.400 . S
C1487 C1492 1.490 . S
C1488 H1478 0.930 . S
C1488 C1487 1.400 . S
C1488 C1491 1.386 . S
H1489 C1505 0.930 . S
H1490 C1506 0.931 . S
C1491 H1479 0.929 . S
C1491 C1485 1.390 . S
C1491 C1488 1.386 . S
C1492 C1487 1.490 . S
C1492 C1494 1.395 . S
C1492 C1495 1.403 . S
H1493 C1499 0.930 . S
C1494 H1480 0.930 . S
C1494 C1492 1.395 . S
C1494 C1497 1.403 . S
C1495 C1492 1.403 . S
C1495 C1496 1.524 . S
C1495 C1499 1.400 . S
C1496 H1481 0.960 . S
C1496 H1482 0.960 . S
C1496 H1483 0.960 . S
C1496 C1495 1.524 . S
C1497 C1494 1.403 . S
C1497 C1498 1.392 . S
C1497 C1501 1.495 . S
C1498 C1497 1.392 . S
C1498 C1499 1.385 . S
C1498 C1500 1.478 . S
C1499 H1493 0.930 . S
C1499 C1495 1.400 . S
C1499 C1498 1.385 . S
C1500 C1498 1.478 . S
C1500 C1502 1.381 . S
C1500 C1506 1.383 . S
C1501 C1497 1.495 . S
C1501 H1507 0.959 . S
C1501 H1508 0.961 . S
C1501 H1509 0.960 . S
C1502 C1500 1.381 . S
C1502 C1503 1.394 . S
C1502 H1510 0.930 . S
C1503 C1502 1.394 . S
C1503 C1504 1.383 . S
C1503 H1511 0.929 . S
C1504 C1503 1.383 . S
C1504 C1505 1.377 . S
C1505 H1489 0.930 . S
C1505 C1504 1.377 . S
C1505 C1506 1.379 . S
C1506 H1490 0.931 . S
C1506 C1500 1.383 . S
C1506 C1505 1.379 . S
H1507 C1501 0.959 . S
H1508 C1501 0.961 . S
H1509 C1501 0.960 . S
H1510 C1502 0.930 . S
H1511 C1503 0.929 . S
H1512 C1520 0.929 . S
H1513 C1522 0.930 . S
H1514 C1524 0.930 . S
H1515 C1527 0.929 . S
H1516 C1530 0.930 . S
H1517 C1532 0.960 . S
H1518 C1532 0.960 . S
H1519 C1532 0.960 . S
C1520 H1512 0.929 . S
C1520 C1521 1.377 . S
C1520 C1522 1.384 . S
C1521 C1520 1.377 . S
C1521 C1527 1.390 . S
C1522 H1513 0.930 . S
C1522 C1520 1.384 . S
C1522 C1523 1.372 . S
C1523 C1522 1.372 . S
C1523 C1524 1.400 . S
C1523 C1528 1.490 . S
C1524 H1514 0.930 . S
C1524 C1523 1.400 . S
C1524 C1527 1.386 . S
H1525 C1541 0.930 . S
H1526 C1542 0.931 . S
C1527 H1515 0.929 . S
C1527 C1521 1.390 . S
C1527 C1524 1.386 . S
C1528 C1523 1.490 . S
C1528 C1530 1.395 . S
C1528 C1531 1.403 . S
H1529 C1535 0.930 . S
C1530 H1516 0.930 . S
C1530 C1528 1.395 . S
C1530 C1533 1.403 . S
C1531 C1528 1.403 . S
C1531 C1532 1.524 . S
C1531 C1535 1.400 . S
C1532 H1517 0.960 . S
C1532 H1518 0.960 . S
C1532 H1519 0.960 . S
C1532 C1531 1.524 . S
C1533 C1530 1.403 . S
C1533 C1534 1.392 . S
C1533 C1537 1.495 . S
C1534 C1533 1.392 . S
C1534 C1535 1.385 . S
C1534 C1536 1.478 . S
C1535 H1529 0.930 . S
C1535 C1531 1.400 . S
C1535 C1534 1.385 . S
C1536 C1534 1.478 . S
C1536 C1538 1.381 . S
C1536 C1542 1.383 . S
C1537 C1533 1.495 . S
C1537 H1543 0.959 . S
C1537 H1544 0.961 . S
C1537 H1545 0.960 . S
C1538 C1536 1.381 . S
C1538 C1539 1.394 . S
C1538 H1546 0.930 . S
C1539 C1538 1.394 . S
C1539 C1540 1.383 . S
C1539 H1547 0.929 . S
C1540 C1539 1.383 . S
C1540 C1541 1.377 . S
C1541 H1525 0.930 . S
C1541 C1540 1.377 . S
C1541 C1542 1.379 . S
C1542 H1526 0.931 . S
C1542 C1536 1.383 . S
C1542 C1541 1.379 . S
H1543 C1537 0.959 . S
H1544 C1537 0.961 . S
H1545 C1537 0.960 . S
H1546 C1538 0.930 . S
H1547 C1539 0.929 . S
H1548 C1556 0.929 . S
H1549 C1558 0.930 . S
H1550 C1560 0.930 . S
H1551 C1563 0.929 . S
H1552 C1566 0.930 . S
H1553 C1568 0.960 . S
H1554 C1568 0.960 . S
H1555 C1568 0.960 . S
C1556 H1548 0.929 . S
C1556 C1557 1.377 . S
C1556 C1558 1.384 . S
C1557 C1556 1.377 . S
C1557 C1563 1.390 . S
C1558 H1549 0.930 . S
C1558 C1556 1.384 . S
C1558 C1559 1.372 . S
C1559 C1558 1.372 . S
C1559 C1560 1.400 . S
C1559 C1564 1.490 . S
C1560 H1550 0.930 . S
C1560 C1559 1.400 . S
C1560 C1563 1.386 . S
H1561 C1577 0.930 . S
H1562 C1578 0.931 . S
C1563 H1551 0.929 . S
C1563 C1557 1.390 . S
C1563 C1560 1.386 . S
C1564 C1559 1.490 . S
C1564 C1566 1.395 . S
C1564 C1567 1.403 . S
H1565 C1571 0.930 . S
C1566 H1552 0.930 . S
C1566 C1564 1.395 . S
C1566 C1569 1.403 . S
C1567 C1564 1.403 . S
C1567 C1568 1.524 . S
C1567 C1571 1.400 . S
C1568 H1553 0.960 . S
C1568 H1554 0.960 . S
C1568 H1555 0.960 . S
C1568 C1567 1.524 . S
C1569 C1566 1.403 . S
C1569 C1570 1.392 . S
C1569 C1573 1.495 . S
C1570 C1569 1.392 . S
C1570 C1571 1.385 . S
C1570 C1572 1.478 . S
C1571 H1565 0.930 . S
C1571 C1567 1.400 . S
C1571 C1570 1.385 . S
C1572 C1570 1.478 . S
C1572 C1574 1.381 . S
C1572 C1578 1.383 . S
C1573 C1569 1.495 . S
C1573 H1579 0.959 . S
C1573 H1580 0.961 . S
C1573 H1581 0.960 . S
C1574 C1572 1.381 . S
C1574 C1575 1.394 . S
C1574 H1582 0.930 . S
C1575 C1574 1.394 . S
C1575 C1576 1.383 . S
C1575 H1583 0.929 . S
C1576 C1575 1.383 . S
C1576 C1577 1.377 . S
C1577 H1561 0.930 . S
C1577 C1576 1.377 . S
C1577 C1578 1.379 . S
C1578 H1562 0.931 . S
C1578 C1572 1.383 . S
C1578 C1577 1.379 . S
H1579 C1573 0.959 . S
H1580 C1573 0.961 . S
H1581 C1573 0.960 . S
H1582 C1574 0.930 . S
H1583 C1575 0.929 . S
H1584 C1592 0.929 . S
H1585 C1594 0.930 . S
H1586 C1596 0.930 . S
H1587 C1599 0.929 . S
H1588 C1602 0.930 . S
H1589 C1604 0.960 . S
H1590 C1604 0.960 . S
H1591 C1604 0.960 . S
C1592 H1584 0.929 . S
C1592 C1593 1.377 . S
C1592 C1594 1.384 . S
C1593 C1592 1.377 . S
C1593 C1599 1.390 . S
C1594 H1585 0.930 . S
C1594 C1592 1.384 . S
C1594 C1595 1.372 . S
C1595 C1594 1.372 . S
C1595 C1596 1.400 . S
C1595 C1600 1.490 . S
C1596 H1586 0.930 . S
C1596 C1595 1.400 . S
C1596 C1599 1.386 . S
H1597 C1613 0.930 . S
H1598 C1614 0.931 . S
C1599 H1587 0.929 . S
C1599 C1593 1.390 . S
C1599 C1596 1.386 . S
C1600 C1595 1.490 . S
C1600 C1602 1.395 . S
C1600 C1603 1.403 . S
H1601 C1607 0.930 . S
C1602 H1588 0.930 . S
C1602 C1600 1.395 . S
C1602 C1605 1.403 . S
C1603 C1600 1.403 . S
C1603 C1604 1.524 . S
C1603 C1607 1.400 . S
C1604 H1589 0.960 . S
C1604 H1590 0.960 . S
C1604 H1591 0.960 . S
C1604 C1603 1.524 . S
C1605 C1602 1.403 . S
C1605 C1606 1.392 . S
C1605 C1609 1.495 . S
C1606 C1605 1.392 . S
C1606 C1607 1.385 . S
C1606 C1608 1.478 . S
C1607 H1601 0.930 . S
C1607 C1603 1.400 . S
C1607 C1606 1.385 . S
C1608 C1606 1.478 . S
C1608 C1610 1.381 . S
C1608 C1614 1.383 . S
C1609 C1605 1.495 . S
C1609 H1615 0.959 . S
C1609 H1616 0.961 . S
C1609 H1617 0.960 . S
C1610 C1608 1.381 . S
C1610 C1611 1.394 . S
C1610 H1618 0.930 . S
C1611 C1610 1.394 . S
C1611 C1612 1.383 . S
C1611 H1619 0.929 . S
C1612 C1611 1.383 . S
C1612 C1613 1.377 . S
C1613 H1597 0.930 . S
C1613 C1612 1.377 . S
C1613 C1614 1.379 . S
C1614 H1598 0.931 . S
C1614 C1608 1.383 . S
C1614 C1613 1.379 . S
H1615 C1609 0.959 . S
H1616 C1609 0.961 . S
H1617 C1609 0.960 . S
H1618 C1610 0.930 . S
H1619 C1611 0.929 . S
H1620 C1628 0.929 . S
H1621 C1630 0.930 . S
H1622 C1632 0.930 . S
H1623 C1635 0.929 . S
H1624 C1638 0.930 . S
H1625 C1640 0.960 . S
H1626 C1640 0.960 . S
H1627 C1640 0.960 . S
C1628 H1620 0.929 . S
C1628 C1629 1.377 . S
C1628 C1630 1.384 . S
C1629 C1628 1.377 . S
C1629 C1635 1.390 . S
C1630 H1621 0.930 . S
C1630 C1628 1.384 . S
C1630 C1631 1.372 . S
C1631 C1630 1.372 . S
C1631 C1632 1.400 . S
C1631 C1636 1.490 . S
C1632 H1622 0.930 . S
C1632 C1631 1.400 . S
C1632 C1635 1.386 . S
H1633 C1649 0.930 . S
H1634 C1650 0.931 . S
C1635 H1623 0.929 . S
C1635 C1629 1.390 . S
C1635 C1632 1.386 . S
C1636 C1631 1.490 . S
C1636 C1638 1.395 . S
C1636 C1639 1.403 . S
H1637 C1643 0.930 . S
C1638 H1624 0.930 . S
C1638 C1636 1.395 . S
C1638 C1641 1.403 . S
C1639 C1636 1.403 . S
C1639 C1640 1.524 . S
C1639 C1643 1.400 . S
C1640 H1625 0.960 . S
C1640 H1626 0.960 . S
C1640 H1627 0.960 . S
C1640 C1639 1.524 . S
C1641 C1638 1.403 . S
C1641 C1642 1.392 . S
C1641 C1645 1.495 . S
C1642 C1641 1.392 . S
C1642 C1643 1.385 . S
C1642 C1644 1.478 . S
C1643 H1637 0.930 . S
C1643 C1639 1.400 . S
C1643 C1642 1.385 . S
C1644 C1642 1.478 . S
C1644 C1646 1.381 . S
C1644 C1650 1.383 . S
C1645 C1641 1.495 . S
C1645 H1651 0.959 . S
C1645 H1652 0.961 . S
C1645 H1653 0.960 . S
C1646 C1644 1.381 . S
C1646 C1647 1.394 . S
C1646 H1654 0.930 . S
C1647 C1646 1.394 . S
C1647 C1648 1.383 . S
C1647 H1655 0.929 . S
C1648 C1647 1.383 . S
C1648 C1649 1.377 . S
C1649 H1633 0.930 . S
C1649 C1648 1.377 . S
C1649 C1650 1.379 . S
C1650 H1634 0.931 . S
C1650 C1644 1.383 . S
C1650 C1649 1.379 . S
H1651 C1645 0.959 . S
H1652 C1645 0.961 . S
H1653 C1645 0.960 . S
H1654 C1646 0.930 . S
H1655 C1647 0.929 . S
H1656 C1664 0.929 . S
H1657 C1666 0.930 . S
H1658 C1668 0.930 . S
H1659 C1671 0.929 . S
H1660 C1674 0.930 . S
H1661 C1676 0.960 . S
H1662 C1676 0.960 . S
H1663 C1676 0.960 . S
C1664 H1656 0.929 . S
C1664 C1665 1.377 . S
C1664 C1666 1.384 . S
C1665 C1664 1.377 . S
C1665 C1671 1.390 . S
C1666 H1657 0.930 . S
C1666 C1664 1.384 . S
C1666 C1667 1.372 . S
C1667 C1666 1.372 . S
C1667 C1668 1.400 . S
C1667 C1672 1.490 . S
C1668 H1658 0.930 . S
C1668 C1667 1.400 . S
C1668 C1671 1.386 . S
H1669 C1685 0.930 . S
H1670 C1686 0.931 . S
C1671 H1659 0.929 . S
C1671 C1665 1.390 . S
C1671 C1668 1.386 . S
C1672 C1667 1.490 . S
C1672 C1674 1.395 . S
C1672 C1675 1.403 . S
H1673 C1679 0.930 . S
C1674 H1660 0.930 . S
C1674 C1672 1.395 . S
C1674 C1677 1.403 . S
C1675 C1672 1.403 . S
C1675 C1676 1.524 . S
C1675 C1679 1.400 . S
C1676 H1661 0.960 . S
C1676 H1662 0.960 . S
C1676 H1663 0.960 . S
C1676 C1675 1.524 . S
C1677 C1674 1.403 . S
C1677 C1678 1.392 . S
C1677 C1681 1.495 . S
C1678 C1677 1.392 . S
C1678 C1679 1.385 . S
C1678 C1680 1.478 . S
C1679 H1673 0.930 . S
C1679 C1675 1.400 . S
C1679 C1678 1.385 . S
C1680 C1678 1.478 . S
C1680 C1682 1.381 . S
C1680 C1686 1.383 . S
C1681 C1677 1.495 . S
C1681 H1687 0.959 . S
C1681 H1688 0.961 . S
C1681 H1689 0.960 . S
C1682 C1680 1.381 . S
C1682 C1683 1.394 . S
C1682 H1690 0.930 . S
C1683 C1682 1.394 . S
C1683 C1684 1.383 . S
C1683 H1691 0.929 . S
C1684 C1683 1.383 . S
C1684 C1685 1.377 . S
C1685 H1669 0.930 . S
C1685 C1684 1.377 . S
C1685 C1686 1.379 . S
C1686 H1670 0.931 . S
C1686 C1680 1.383 . S
C1686 C1685 1.379 . S
H1687 C1681 0.959 . S
H1688 C1681 0.961 . S
H1689 C1681 0.960 . S
H1690 C1682 0.930 . S
H1691 C1683 0.929 . S
H1692 C1700 0.929 . S
H1693 C1702 0.930 . S
H1694 C1704 0.930 . S
H1695 C1707 0.929 . S
H1696 C1710 0.930 . S
H1697 C1712 0.960 . S
H1698 C1712 0.960 . S
H1699 C1712 0.960 . S
C1700 H1692 0.929 . S
C1700 C1701 1.377 . S
C1700 C1702 1.384 . S
C1701 C1700 1.377 . S
C1701 C1707 1.390 . S
C1702 H1693 0.930 . S
C1702 C1700 1.384 . S
C1702 C1703 1.372 . S
C1703 C1702 1.372 . S
C1703 C1704 1.400 . S
C1703 C1708 1.490 . S
C1704 H1694 0.930 . S
C1704 C1703 1.400 . S
C1704 C1707 1.386 . S
H1705 C1721 0.930 . S
H1706 C1722 0.931 . S
C1707 H1695 0.929 . S
C1707 C1701 1.390 . S
C1707 C1704 1.386 . S
C1708 C1703 1.490 . S
C1708 C1710 1.395 . S
C1708 C1711 1.403 . S
H1709 C1715 0.930 . S
C1710 H1696 0.930 . S
C1710 C1708 1.395 . S
C1710 C1713 1.403 . S
C1711 C1708 1.403 . S
C1711 C1712 1.524 . S
C1711 C1715 1.400 . S
C1712 H1697 0.960 . S
C1712 H1698 0.960 . S
C1712 H1699 0.960 . S
C1712 C1711 1.524 . S
C1713 C1710 1.403 . S
C1713 C1714 1.392 . S
C1713 C1717 1.495 . S
C1714 C1713 1.392 . S
C1714 C1715 1.385 . S
C1714 C1716 1.478 . S
C1715 H1709 0.930 . S
C1715 C1711 1.400 . S
C1715 C1714 1.385 . S
C1716 C1714 1.478 . S
C1716 C1718 1.381 . S
C1716 C1722 1.383 . S
C1717 C1713 1.495 . S
C1717 H1723 0.959 . S
C1717 H1724 0.961 . S
C1717 H1725 0.960 . S
C1718 C1716 1.381 . S
C1718 C1719 1.394 . S
C1718 H1726 0.930 . S
C1719 C1718 1.394 . S
C1719 C1720 1.383 . S
C1719 H1727 0.929 . S
C1720 C1719 1.383 . S
C1720 C1721 1.377 . S
C1721 H1705 0.930 . S
C1721 C1720 1.377 . S
C1721 C1722 1.379 . S
C1722 H1706 0.931 . S
C1722 C1716 1.383 . S
C1722 C1721 1.379 . S
H1723 C1717 0.959 . S
H1724 C1717 0.961 . S
H1725 C1717 0.960 . S
H1726 C1718 0.930 . S
H1727 C1719 0.929 . S
H1728 C1736 0.929 . S
H1729 C1738 0.930 . S
H1730 C1740 0.930 . S
H1731 C1743 0.929 . S
H1732 C1746 0.930 . S
H1733 C1748 0.960 . S
H1734 C1748 0.960 . S
H1735 C1748 0.960 . S
C1736 H1728 0.929 . S
C1736 C1737 1.377 . S
C1736 C1738 1.384 . S
C1737 C1736 1.377 . S
C1737 C1743 1.390 . S
C1738 H1729 0.930 . S
C1738 C1736 1.384 . S
C1738 C1739 1.372 . S
C1739 C1738 1.372 . S
C1739 C1740 1.400 . S
C1739 C1744 1.490 . S
C1740 H1730 0.930 . S
C1740 C1739 1.400 . S
C1740 C1743 1.386 . S
H1741 C1757 0.930 . S
H1742 C1758 0.931 . S
C1743 H1731 0.929 . S
C1743 C1737 1.390 . S
C1743 C1740 1.386 . S
C1744 C1739 1.490 . S
C1744 C1746 1.395 . S
C1744 C1747 1.403 . S
H1745 C1751 0.930 . S
C1746 H1732 0.930 . S
C1746 C1744 1.395 . S
C1746 C1749 1.403 . S
C1747 C1744 1.403 . S
C1747 C1748 1.524 . S
C1747 C1751 1.400 . S
C1748 H1733 0.960 . S
C1748 H1734 0.960 . S
C1748 H1735 0.960 . S
C1748 C1747 1.524 . S
C1749 C1746 1.403 . S
C1749 C1750 1.392 . S
C1749 C1753 1.495 . S
C1750 C1749 1.392 . S
C1750 C1751 1.385 . S
C1750 C1752 1.478 . S
C1751 H1745 0.930 . S
C1751 C1747 1.400 . S
C1751 C1750 1.385 . S
C1752 C1750 1.478 . S
C1752 C1754 1.381 . S
C1752 C1758 1.383 . S
C1753 C1749 1.495 . S
C1753 H1759 0.959 . S
C1753 H1760 0.961 . S
C1753 H1761 0.960 . S
C1754 C1752 1.381 . S
C1754 C1755 1.394 . S
C1754 H1762 0.930 . S
C1755 C1754 1.394 . S
C1755 C1756 1.383 . S
C1755 H1763 0.929 . S
C1756 C1755 1.383 . S
C1756 C1757 1.377 . S
C1757 H1741 0.930 . S
C1757 C1756 1.377 . S
C1757 C1758 1.379 . S
C1758 H1742 0.931 . S
C1758 C1752 1.383 . S
C1758 C1757 1.379 . S
H1759 C1753 0.959 . S
H1760 C1753 0.961 . S
H1761 C1753 0.960 . S
H1762 C1754 0.930 . S
H1763 C1755 0.929 . S
H1764 C1772 0.929 . S
H1765 C1774 0.930 . S
H1766 C1776 0.930 . S
H1767 C1779 0.929 . S
H1768 C1782 0.930 . S
H1769 C1784 0.960 . S
H1770 C1784 0.960 . S
H1771 C1784 0.960 . S
C1772 H1764 0.929 . S
C1772 C1773 1.377 . S
C1772 C1774 1.384 . S
C1773 C1772 1.377 . S
C1773 C1779 1.390 . S
C1774 H1765 0.930 . S
C1774 C1772 1.384 . S
C1774 C1775 1.372 . S
C1775 C1774 1.372 . S
C1775 C1776 1.400 . S
C1775 C1780 1.490 . S
C1776 H1766 0.930 . S
C1776 C1775 1.400 . S
C1776 C1779 1.386 . S
H1777 C1793 0.930 . S
H1778 C1794 0.931 . S
C1779 H1767 0.929 . S
C1779 C1773 1.390 . S
C1779 C1776 1.386 . S
C1780 C1775 1.490 . S
C1780 C1782 1.395 . S
C1780 C1783 1.403 . S
H1781 C1787 0.930 . S
C1782 H1768 0.930 . S
C1782 C1780 1.395 . S
C1782 C1785 1.403 . S
C1783 C1780 1.403 . S
C1783 C1784 1.524 . S
C1783 C1787 1.400 . S
C1784 H1769 0.960 . S
C1784 H1770 0.960 . S
C1784 H1771 0.960 . S
C1784 C1783 1.524 . S
C1785 C1782 1.403 . S
C1785 C1786 1.392 . S
C1785 C1789 1.495 . S
C1786 C1785 1.392 . S
C1786 C1787 1.385 . S
C1786 C1788 1.478 . S
C1787 H1781 0.930 . S
C1787 C1783 1.400 . S
C1787 C1786 1.385 . S
C1788 C1786 1.478 . S
C1788 C1790 1.381 . S
C1788 C1794 1.383 . S
C1789 C1785 1.495 . S
C1789 H1795 0.959 . S
C1789 H1796 0.961 . S
C1789 H1797 0.960 . S
C1790 C1788 1.381 . S
C1790 C1791 1.394 . S
C1790 H1798 0.930 . S
C1791 C1790 1.394 . S
C1791 C1792 1.383 . S
C1791 H1799 0.929 . S
C1792 C1791 1.383 . S
C1792 C1793 1.377 . S
C1793 H1777 0.930 . S
C1793 C1792 1.377 . S
C1793 C1794 1.379 . S
C1794 H1778 0.931 . S
C1794 C1788 1.383 . S
C1794 C1793 1.379 . S
H1795 C1789 0.959 . S
H1796 C1789 0.961 . S
H1797 C1789 0.960 . S
H1798 C1790 0.930 . S
H1799 C1791 0.929 . S
H1800 C1808 0.929 . S
H1801 C1810 0.930 . S
H1802 C1812 0.930 . S
H1803 C1815 0.929 . S
H1804 C1818 0.930 . S
H1805 C1820 0.960 . S
H1806 C1820 0.960 . S
H1807 C1820 0.960 . S
C1808 H1800 0.929 . S
C1808 C1809 1.377 . S
C1808 C1810 1.384 . S
C1809 C1808 1.377 . S
C1809 C1815 1.390 . S
C1810 H1801 0.930 . S
C1810 C1808 1.384 . S
C1810 C1811 1.372 . S
C1811 C1810 1.372 . S
C1811 C1812 1.400 . S
C1811 C1816 1.490 . S
C1812 H1802 0.930 . S
C1812 C1811 1.400 . S
C1812 C1815 1.386 . S
H1813 C1829 0.930 . S
H1814 C1830 0.931 . S
C1815 H1803 0.929 . S
C1815 C1809 1.390 . S
C1815 C1812 1.386 . S
C1816 C1811 1.490 . S
C1816 C1818 1.395 . S
C1816 C1819 1.403 . S
H1817 C1823 0.930 . S
C1818 H1804 0.930 . S
C1818 C1816 1.395 . S
C1818 C1821 1.403 . S
C1819 C1816 1.403 . S
C1819 C1820 1.524 . S
C1819 C1823 1.400 . S
C1820 H1805 0.960 . S
C1820 H1806 0.960 . S
C1820 H1807 0.960 . S
C1820 C1819 1.524 . S
C1821 C1818 1.403 . S
C1821 C1822 1.392 . S
C1821 C1825 1.495 . S
C1822 C1821 1.392 . S
C1822 C1823 1.385 . S
C1822 C1824 1.478 . S
C1823 H1817 0.930 . S
C1823 C1819 1.400 . S
C1823 C1822 1.385 . S
C1824 C1822 1.478 . S
C1824 C1826 1.381 . S
C1824 C1830 1.383 . S
C1825 C1821 1.495 . S
C1825 H1831 0.959 . S
C1825 H1832 0.961 . S
C1825 H1833 0.960 . S
C1826 C1824 1.381 . S
C1826 C1827 1.394 . S
C1826 H1834 0.930 . S
C1827 C1826 1.394 . S
C1827 C1828 1.383 . S
C1827 H1835 0.929 . S
C1828 C1827 1.383 . S
C1828 C1829 1.377 . S
C1829 H1813 0.930 . S
C1829 C1828 1.377 . S
C1829 C1830 1.379 . S
C1830 H1814 0.931 . S
C1830 C1824 1.383 . S
C1830 C1829 1.379 . S
H1831 C1825 0.959 . S
H1832 C1825 0.961 . S
H1833 C1825 0.960 . S
H1834 C1826 0.930 . S
H1835 C1827 0.929 . S
H1836 C1844 0.929 . S
H1837 C1846 0.930 . S
H1838 C1848 0.930 . S
H1839 C1851 0.929 . S
H1840 C1854 0.930 . S
H1841 C1856 0.960 . S
H1842 C1856 0.960 . S
H1843 C1856 0.960 . S
C1844 H1836 0.929 . S
C1844 C1845 1.377 . S
C1844 C1846 1.384 . S
C1845 C1844 1.377 . S
C1845 C1851 1.390 . S
C1846 H1837 0.930 . S
C1846 C1844 1.384 . S
C1846 C1847 1.372 . S
C1847 C1846 1.372 . S
C1847 C1848 1.400 . S
C1847 C1852 1.490 . S
C1848 H1838 0.930 . S
C1848 C1847 1.400 . S
C1848 C1851 1.386 . S
H1849 C1865 0.930 . S
H1850 C1866 0.931 . S
C1851 H1839 0.929 . S
C1851 C1845 1.390 . S
C1851 C1848 1.386 . S
C1852 C1847 1.490 . S
C1852 C1854 1.395 . S
C1852 C1855 1.403 . S
H1853 C1859 0.930 . S
C1854 H1840 0.930 . S
C1854 C1852 1.395 . S
C1854 C1857 1.403 . S
C1855 C1852 1.403 . S
C1855 C1856 1.524 . S
C1855 C1859 1.400 . S
C1856 H1841 0.960 . S
C1856 H1842 0.960 . S
C1856 H1843 0.960 . S
C1856 C1855 1.524 . S
C1857 C1854 1.403 . S
C1857 C1858 1.392 . S
C1857 C1861 1.495 . S
C1858 C1857 1.392 . S
C1858 C1859 1.385 . S
C1858 C1860 1.478 . S
C1859 H1853 0.930 . S
C1859 C1855 1.400 . S
C1859 C1858 1.385 . S
C1860 C1858 1.478 . S
C1860 C1862 1.381 . S
C1860 C1866 1.383 . S
C1861 C1857 1.495 . S
C1861 H1867 0.959 . S
C1861 H1868 0.961 . S
C1861 H1869 0.960 . S
C1862 C1860 1.381 . S
C1862 C1863 1.394 . S
C1862 H1870 0.930 . S
C1863 C1862 1.394 . S
C1863 C1864 1.383 . S
C1863 H1871 0.929 . S
C1864 C1863 1.383 . S
C1864 C1865 1.377 . S
C1865 H1849 0.930 . S
C1865 C1864 1.377 . S
C1865 C1866 1.379 . S
C1866 H1850 0.931 . S
C1866 C1860 1.383 . S
C1866 C1865 1.379 . S
H1867 C1861 0.959 . S
H1868 C1861 0.961 . S
H1869 C1861 0.960 . S
H1870 C1862 0.930 . S
H1871 C1863 0.929 . S
H1872 C1880 0.929 . S
H1873 C1882 0.930 . S
H1874 C1884 0.930 . S
H1875 C1887 0.929 . S
H1876 C1890 0.930 . S
H1877 C1892 0.960 . S
H1878 C1892 0.960 . S
H1879 C1892 0.960 . S
C1880 H1872 0.929 . S
C1880 C1881 1.377 . S
C1880 C1882 1.384 . S
C1881 C1880 1.377 . S
C1881 C1887 1.390 . S
C1882 H1873 0.930 . S
C1882 C1880 1.384 . S
C1882 C1883 1.372 . S
C1883 C1882 1.372 . S
C1883 C1884 1.400 . S
C1883 C1888 1.490 . S
C1884 H1874 0.930 . S
C1884 C1883 1.400 . S
C1884 C1887 1.386 . S
H1885 C1901 0.930 . S
H1886 C1902 0.931 . S
C1887 H1875 0.929 . S
C1887 C1881 1.390 . S
C1887 C1884 1.386 . S
C1888 C1883 1.490 . S
C1888 C1890 1.395 . S
C1888 C1891 1.403 . S
H1889 C1895 0.930 . S
C1890 H1876 0.930 . S
C1890 C1888 1.395 . S
C1890 C1893 1.403 . S
C1891 C1888 1.403 . S
C1891 C1892 1.524 . S
C1891 C1895 1.400 . S
C1892 H1877 0.960 . S
C1892 H1878 0.960 . S
C1892 H1879 0.960 . S
C1892 C1891 1.524 . S
C1893 C1890 1.403 . S
C1893 C1894 1.392 . S
C1893 C1897 1.495 . S
C1894 C1893 1.392 . S
C1894 C1895 1.385 . S
C1894 C1896 1.478 . S
C1895 H1889 0.930 . S
C1895 C1891 1.400 . S
C1895 C1894 1.385 . S
C1896 C1894 1.478 . S
C1896 C1898 1.381 . S
C1896 C1902 1.383 . S
C1897 C1893 1.495 . S
C1897 H1903 0.959 . S
C1897 H1904 0.961 . S
C1897 H1905 0.960 . S
C1898 C1896 1.381 . S
C1898 C1899 1.394 . S
C1898 H1906 0.930 . S
C1899 C1898 1.394 . S
C1899 C1900 1.383 . S
C1899 H1907 0.929 . S
C1900 C1899 1.383 . S
C1900 C1901 1.377 . S
C1901 H1885 0.930 . S
C1901 C1900 1.377 . S
C1901 C1902 1.379 . S
C1902 H1886 0.931 . S
C1902 C1896 1.383 . S
C1902 C1901 1.379 . S
H1903 C1897 0.959 . S
H1904 C1897 0.961 . S
H1905 C1897 0.960 . S
H1906 C1898 0.930 . S
H1907 C1899 0.929 . S
H1908 C1916 0.929 . S
H1909 C1918 0.930 . S
H1910 C1920 0.930 . S
H1911 C1923 0.929 . S
H1912 C1926 0.930 . S
H1913 C1928 0.960 . S
H1914 C1928 0.960 . S
H1915 C1928 0.960 . S
C1916 H1908 0.929 . S
C1916 C1917 1.377 . S
C1916 C1918 1.384 . S
C1917 C1916 1.377 . S
C1917 C1923 1.390 . S
C1918 H1909 0.930 . S
C1918 C1916 1.384 . S
C1918 C1919 1.372 . S
C1919 C1918 1.372 . S
C1919 C1920 1.400 . S
C1919 C1924 1.490 . S
C1920 H1910 0.930 . S
C1920 C1919 1.400 . S
C1920 C1923 1.386 . S
H1921 C1937 0.930 . S
H1922 C1938 0.931 . S
C1923 H1911 0.929 . S
C1923 C1917 1.390 . S
C1923 C1920 1.386 . S
C1924 C1919 1.490 . S
C1924 C1926 1.395 . S
C1924 C1927 1.403 . S
H1925 C1931 0.930 . S
C1926 H1912 0.930 . S
C1926 C1924 1.395 . S
C1926 C1929 1.403 . S
C1927 C1924 1.403 . S
C1927 C1928 1.524 . S
C1927 C1931 1.400 . S
C1928 H1913 0.960 . S
C1928 H1914 0.960 . S
C1928 H1915 0.960 . S
C1928 C1927 1.524 . S
C1929 C1926 1.403 . S
C1929 C1930 1.392 . S
C1929 C1933 1.495 . S
C1930 C1929 1.392 . S
C1930 C1931 1.385 . S
C1930 C1932 1.478 . S
C1931 H1925 0.930 . S
C1931 C1927 1.400 . S
C1931 C1930 1.385 . S
C1932 C1930 1.478 . S
C1932 C1934 1.381 . S
C1932 C1938 1.383 . S
C1933 C1929 1.495 . S
C1933 H1939 0.959 . S
C1933 H1940 0.961 . S
C1933 H1941 0.960 . S
C1934 C1932 1.381 . S
C1934 C1935 1.394 . S
C1934 H1942 0.930 . S
C1935 C1934 1.394 . S
C1935 C1936 1.383 . S
C1935 H1943 0.929 . S
C1936 C1935 1.383 . S
C1936 C1937 1.377 . S
C1937 H1921 0.930 . S
C1937 C1936 1.377 . S
C1937 C1938 1.379 . S
C1938 H1922 0.931 . S
C1938 C1932 1.383 . S
C1938 C1937 1.379 . S
H1939 C1933 0.959 . S
H1940 C1933 0.961 . S
H1941 C1933 0.960 . S
H1942 C1934 0.930 . S
H1943 C1935 0.929 . S
H1944 C1952 0.929 . S
H1945 C1954 0.930 . S
H1946 C1956 0.930 . S
H1947 C1959 0.929 . S
H1948 C1962 0.930 . S
H1949 C1964 0.960 . S
H1950 C1964 0.960 . S
H1951 C1964 0.960 . S
C1952 H1944 0.929 . S
C1952 C1953 1.377 . S
C1952 C1954 1.384 . S
C1953 C1952 1.377 . S
C1953 C1959 1.390 . S
C1954 H1945 0.930 . S
C1954 C1952 1.384 . S
C1954 C1955 1.372 . S
C1955 C1954 1.372 . S
C1955 C1956 1.400 . S
C1955 C1960 1.490 . S
C1956 H1946 0.930 . S
C1956 C1955 1.400 . S
C1956 C1959 1.386 . S
H1957 C1973 0.930 . S
H1958 C1974 0.931 . S
C1959 H1947 0.929 . S
C1959 C1953 1.390 . S
C1959 C1956 1.386 . S
C1960 C1955 1.490 . S
C1960 C1962 1.395 . S
C1960 C1963 1.403 . S
H1961 C1967 0.930 . S
C1962 H1948 0.930 . S
C1962 C1960 1.395 . S
C1962 C1965 1.403 . S
C1963 C1960 1.403 . S
C1963 C1964 1.524 . S
C1963 C1967 1.400 . S
C1964 H1949 0.960 . S
C1964 H1950 0.960 . S
C1964 H1951 0.960 . S
C1964 C1963 1.524 . S
C1965 C1962 1.403 . S
C1965 C1966 1.392 . S
C1965 C1969 1.495 . S
C1966 C1965 1.392 . S
C1966 C1967 1.385 . S
C1966 C1968 1.478 . S
C1967 H1961 0.930 . S
C1967 C1963 1.400 . S
C1967 C1966 1.385 . S
C1968 C1966 1.478 . S
C1968 C1970 1.381 . S
C1968 C1974 1.383 . S
C1969 C1965 1.495 . S
C1969 H1975 0.959 . S
C1969 H1976 0.961 . S
C1969 H1977 0.960 . S
C1970 C1968 1.381 . S
C1970 C1971 1.394 . S
C1970 H1978 0.930 . S
C1971 C1970 1.394 . S
C1971 C1972 1.383 . S
C1971 H1979 0.929 . S
C1972 C1971 1.383 . S
C1972 C1973 1.377 . S
C1973 H1957 0.930 . S
C1973 C1972 1.377 . S
C1973 C1974 1.379 . S
C1974 H1958 0.931 . S
C1974 C1968 1.383 . S
C1974 C1973 1.379 . S
H1975 C1969 0.959 . S
H1976 C1969 0.961 . S
H1977 C1969 0.960 . S
H1978 C1970 0.930 . S
H1979 C1971 0.929 . S
H1980 C1988 0.929 . S
H1981 C1990 0.930 . S
H1982 C1992 0.930 . S
H1983 C1995 0.929 . S
H1984 C1998 0.930 . S
H1985 C2000 0.960 . S
H1986 C2000 0.960 . S
H1987 C2000 0.960 . S
C1988 H1980 0.929 . S
C1988 C1989 1.377 . S
C1988 C1990 1.384 . S
C1989 C1988 1.377 . S
C1989 C1995 1.390 . S
C1990 H1981 0.930 . S
C1990 C1988 1.384 . S
C1990 C1991 1.372 . S
C1991 C1990 1.372 . S
C1991 C1992 1.400 . S
C1991 C1996 1.490 . S
C1992 H1982 0.930 . S
C1992 C1991 1.400 . S
C1992 C1995 1.386 . S
H1993 C2009 0.930 . S
H1994 C2010 0.931 . S
C1995 H1983 0.929 . S
C1995 C1989 1.390 . S
C1995 C1992 1.386 . S
C1996 C1991 1.490 . S
C1996 C1998 1.395 . S
C1996 C1999 1.403 . S
H1997 C2003 0.930 . S
C1998 H1984 0.930 . S
C1998 C1996 1.395 . S
C1998 C2001 1.403 . S
C1999 C1996 1.403 . S
C1999 C2000 1.524 . S
C1999 C2003 1.400 . S
C2000 H1985 0.960 . S
C2000 H1986 0.960 . S
C2000 H1987 0.960 . S
C2000 C1999 1.524 . S
C2001 C1998 1.403 . S
C2001 C2002 1.392 . S
C2001 C2005 1.495 . S
C2002 C2001 1.392 . S
C2002 C2003 1.385 . S
C2002 C2004 1.478 . S
C2003 H1997 0.930 . S
C2003 C1999 1.400 . S
C2003 C2002 1.385 . S
C2004 C2002 1.478 . S
C2004 C2006 1.381 . S
C2004 C2010 1.383 . S
C2005 C2001 1.495 . S
C2005 H2011 0.959 . S
C2005 H2012 0.961 . S
C2005 H2013 0.960 . S
C2006 C2004 1.381 . S
C2006 C2007 1.394 . S
C2006 H2014 0.930 . S
C2007 C2006 1.394 . S
C2007 C2008 1.383 . S
C2007 H2015 0.929 . S
C2008 C2007 1.383 . S
C2008 C2009 1.377 . S
C2009 H1993 0.930 . S
C2009 C2008 1.377 . S
C2009 C2010 1.379 . S
C2010 H1994 0.931 . S
C2010 C2004 1.383 . S
C2010 C2009 1.379 . S
H2011 C2005 0.959 . S
H2012 C2005 0.961 . S
H2013 C2005 0.960 . S
H2014 C2006 0.930 . S
H2015 C2007 0.929 . S
H2016 C2024 0.929 . S
H2017 C2026 0.930 . S
H2018 C2028 0.930 . S
H2019 C2031 0.929 . S
H2020 C2034 0.930 . S
H2021 C2036 0.960 . S
H2022 C2036 0.960 . S
H2023 C2036 0.960 . S
C2024 H2016 0.929 . S
C2024 C2025 1.377 . S
C2024 C2026 1.384 . S
C2025 C2024 1.377 . S
C2025 C2031 1.390 . S
C2026 H2017 0.930 . S
C2026 C2024 1.384 . S
C2026 C2027 1.372 . S
C2027 C2026 1.372 . S
C2027 C2028 1.400 . S
C2027 C2032 1.490 . S
C2028 H2018 0.930 . S
C2028 C2027 1.400 . S
C2028 C2031 1.386 . S
H2029 C2045 0.930 . S
H2030 C2046 0.931 . S
C2031 H2019 0.929 . S
C2031 C2025 1.390 . S
C2031 C2028 1.386 . S
C2032 C2027 1.490 . S
C2032 C2034 1.395 . S
C2032 C2035 1.403 . S
H2033 C2039 0.930 . S
C2034 H2020 0.930 . S
C2034 C2032 1.395 . S
C2034 C2037 1.403 . S
C2035 C2032 1.403 . S
C2035 C2036 1.524 . S
C2035 C2039 1.400 . S
C2036 H2021 0.960 . S
C2036 H2022 0.960 . S
C2036 H2023 0.960 . S
C2036 C2035 1.524 . S
C2037 C2034 1.403 . S
C2037 C2038 1.392 . S
C2037 C2041 1.495 . S
C2038 C2037 1.392 . S
C2038 C2039 1.385 . S
C2038 C2040 1.478 . S
C2039 H2033 0.930 . S
C2039 C2035 1.400 . S
C2039 C2038 1.385 . S
C2040 C2038 1.478 . S
C2040 C2042 1.381 . S
C2040 C2046 1.383 . S
C2041 C2037 1.495 . S
C2041 H2047 0.959 . S
C2041 H2048 0.961 . S
C2041 H2049 0.960 . S
C2042 C2040 1.381 . S
C2042 C2043 1.394 . S
C2042 H2050 0.930 . S
C2043 C2042 1.394 . S
C2043 C2044 1.383 . S
C2043 H2051 0.929 . S
C2044 C2043 1.383 . S
C2044 C2045 1.377 . S
C2045 H2029 0.930 . S
C2045 C2044 1.377 . S
C2045 C2046 1.379 . S
C2046 H2030 0.931 . S
C2046 C2040 1.383 . S
C2046 C2045 1.379 . S
H2047 C2041 0.959 . S
H2048 C2041 0.961 . S
H2049 C2041 0.960 . S
H2050 C2042 0.930 . S
H2051 C2043 0.929 . S
H2052 C2060 0.929 . S
H2053 C2062 0.930 . S
H2054 C2064 0.930 . S
H2055 C2067 0.929 . S
H2056 C2070 0.930 . S
H2057 C2072 0.960 . S
H2058 C2072 0.960 . S
H2059 C2072 0.960 . S
C2060 H2052 0.929 . S
C2060 C2061 1.377 . S
C2060 C2062 1.384 . S
C2061 C2060 1.377 . S
C2061 C2067 1.390 . S
C2062 H2053 0.930 . S
C2062 C2060 1.384 . S
C2062 C2063 1.372 . S
C2063 C2062 1.372 . S
C2063 C2064 1.400 . S
C2063 C2068 1.490 . S
C2064 H2054 0.930 . S
C2064 C2063 1.400 . S
C2064 C2067 1.386 . S
H2065 C2081 0.930 . S
H2066 C2082 0.931 . S
C2067 H2055 0.929 . S
C2067 C2061 1.390 . S
C2067 C2064 1.386 . S
C2068 C2063 1.490 . S
C2068 C2070 1.395 . S
C2068 C2071 1.403 . S
H2069 C2075 0.930 . S
C2070 H2056 0.930 . S
C2070 C2068 1.395 . S
C2070 C2073 1.403 . S
C2071 C2068 1.403 . S
C2071 C2072 1.524 . S
C2071 C2075 1.400 . S
C2072 H2057 0.960 . S
C2072 H2058 0.960 . S
C2072 H2059 0.960 . S
C2072 C2071 1.524 . S
C2073 C2070 1.403 . S
C2073 C2074 1.392 . S
C2073 C2077 1.495 . S
C2074 C2073 1.392 . S
C2074 C2075 1.385 . S
C2074 C2076 1.478 . S
C2075 H2069 0.930 . S
C2075 C2071 1.400 . S
C2075 C2074 1.385 . S
C2076 C2074 1.478 . S
C2076 C2078 1.381 . S
C2076 C2082 1.383 . S
C2077 C2073 1.495 . S
C2077 H2083 0.959 . S
C2077 H2084 0.961 . S
C2077 H2085 0.960 . S
C2078 C2076 1.381 . S
C2078 C2079 1.394 . S
C2078 H2086 0.930 . S
C2079 C2078 1.394 . S
C2079 C2080 1.383 . S
C2079 H2087 0.929 . S
C2080 C2079 1.383 . S
C2080 C2081 1.377 . S
C2081 H2065 0.930 . S
C2081 C2080 1.377 . S
C2081 C2082 1.379 . S
C2082 H2066 0.931 . S
C2082 C2076 1.383 . S
C2082 C2081 1.379 . S
H2083 C2077 0.959 . S
H2084 C2077 0.961 . S
H2085 C2077 0.960 . S
H2086 C2078 0.930 . S
H2087 C2079 0.929 . S
H2088 C2096 0.929 . S
H2089 C2098 0.930 . S
H2090 C2100 0.930 . S
H2091 C2103 0.929 . S
H2092 C2106 0.930 . S
H2093 C2108 0.960 . S
H2094 C2108 0.960 . S
H2095 C2108 0.960 . S
C2096 H2088 0.929 . S
C2096 C2097 1.377 . S
C2096 C2098 1.384 . S
C2097 C2096 1.377 . S
C2097 C2103 1.390 . S
C2098 H2089 0.930 . S
C2098 C2096 1.384 . S
C2098 C2099 1.372 . S
C2099 C2098 1.372 . S
C2099 C2100 1.400 . S
C2099 C2104 1.490 . S
C2100 H2090 0.930 . S
C2100 C2099 1.400 . S
C2100 C2103 1.386 . S
H2101 C2117 0.930 . S
H2102 C2118 0.931 . S
C2103 H2091 0.929 . S
C2103 C2097 1.390 . S
C2103 C2100 1.386 . S
C2104 C2099 1.490 . S
C2104 C2106 1.395 . S
C2104 C2107 1.403 . S
H2105 C2111 0.930 . S
C2106 H2092 0.930 . S
C2106 C2104 1.395 . S
C2106 C2109 1.403 . S
C2107 C2104 1.403 . S
C2107 C2108 1.524 . S
C2107 C2111 1.400 . S
C2108 H2093 0.960 . S
C2108 H2094 0.960 . S
C2108 H2095 0.960 . S
C2108 C2107 1.524 . S
C2109 C2106 1.403 . S
C2109 C2110 1.392 . S
C2109 C2113 1.495 . S
C2110 C2109 1.392 . S
C2110 C2111 1.385 . S
C2110 C2112 1.478 . S
C2111 H2105 0.930 . S
C2111 C2107 1.400 . S
C2111 C2110 1.385 . S
C2112 C2110 1.478 . S
C2112 C2114 1.381 . S
C2112 C2118 1.383 . S
C2113 C2109 1.495 . S
C2113 H2119 0.959 . S
C2113 H2120 0.961 . S
C2113 H2121 0.960 . S
C2114 C2112 1.381 . S
C2114 C2115 1.394 . S
C2114 H2122 0.930 . S
C2115 C2114 1.394 . S
C2115 C2116 1.383 . S
C2115 H2123 0.929 . S
C2116 C2115 1.383 . S
C2116 C2117 1.377 . S
C2117 H2101 0.930 . S
C2117 C2116 1.377 . S
C2117 C2118 1.379 . S
C2118 H2102 0.931 . S
C2118 C2112 1.383 . S
C2118 C2117 1.379 . S
H2119 C2113 0.959 . S
H2120 C2113 0.961 . S
H2121 C2113 0.960 . S
H2122 C2114 0.930 . S
H2123 C2115 0.929 . S
H2124 C2132 0.929 . S
H2125 C2134 0.930 . S
H2126 C2136 0.930 . S
H2127 C2139 0.929 . S
H2128 C2142 0.930 . S
H2129 C2144 0.960 . S
H2130 C2144 0.960 . S
H2131 C2144 0.960 . S
C2132 H2124 0.929 . S
C2132 C2133 1.377 . S
C2132 C2134 1.384 . S
C2133 C2132 1.377 . S
C2133 C2139 1.390 . S
C2134 H2125 0.930 . S
C2134 C2132 1.384 . S
C2134 C2135 1.372 . S
C2135 C2134 1.372 . S
C2135 C2136 1.400 . S
C2135 C2140 1.490 . S
C2136 H2126 0.930 . S
C2136 C2135 1.400 . S
C2136 C2139 1.386 . S
H2137 C2153 0.930 . S
H2138 C2154 0.931 . S
C2139 H2127 0.929 . S
C2139 C2133 1.390 . S
C2139 C2136 1.386 . S
C2140 C2135 1.490 . S
C2140 C2142 1.395 . S
C2140 C2143 1.403 . S
H2141 C2147 0.930 . S
C2142 H2128 0.930 . S
C2142 C2140 1.395 . S
C2142 C2145 1.403 . S
C2143 C2140 1.403 . S
C2143 C2144 1.524 . S
C2143 C2147 1.400 . S
C2144 H2129 0.960 . S
C2144 H2130 0.960 . S
C2144 H2131 0.960 . S
C2144 C2143 1.524 . S
C2145 C2142 1.403 . S
C2145 C2146 1.392 . S
C2145 C2149 1.495 . S
C2146 C2145 1.392 . S
C2146 C2147 1.385 . S
C2146 C2148 1.478 . S
C2147 H2141 0.930 . S
C2147 C2143 1.400 . S
C2147 C2146 1.385 . S
C2148 C2146 1.478 . S
C2148 C2150 1.381 . S
C2148 C2154 1.383 . S
C2149 C2145 1.495 . S
C2149 H2155 0.959 . S
C2149 H2156 0.961 . S
C2149 H2157 0.960 . S
C2150 C2148 1.381 . S
C2150 C2151 1.394 . S
C2150 H2158 0.930 . S
C2151 C2150 1.394 . S
C2151 C2152 1.383 . S
C2151 H2159 0.929 . S
C2152 C2151 1.383 . S
C2152 C2153 1.377 . S
C2153 H2137 0.930 . S
C2153 C2152 1.377 . S
C2153 C2154 1.379 . S
C2154 H2138 0.931 . S
C2154 C2148 1.383 . S
C2154 C2153 1.379 . S
H2155 C2149 0.959 . S
H2156 C2149 0.961 . S
H2157 C2149 0.960 . S
H2158 C2150 0.930 . S
H2159 C2151 0.929 . S
H2160 C2168 0.929 . S
H2161 C2170 0.930 . S
H2162 C2172 0.930 . S
H2163 C2175 0.929 . S
H2164 C2178 0.930 . S
H2165 C2180 0.960 . S
H2166 C2180 0.960 . S
H2167 C2180 0.960 . S
C2168 H2160 0.929 . S
C2168 C2169 1.377 . S
C2168 C2170 1.384 . S
C2169 C2168 1.377 . S
C2169 C2175 1.390 . S
C2170 H2161 0.930 . S
C2170 C2168 1.384 . S
C2170 C2171 1.372 . S
C2171 C2170 1.372 . S
C2171 C2172 1.400 . S
C2171 C2176 1.490 . S
C2172 H2162 0.930 . S
C2172 C2171 1.400 . S
C2172 C2175 1.386 . S
H2173 C2189 0.930 . S
H2174 C2190 0.931 . S
C2175 H2163 0.929 . S
C2175 C2169 1.390 . S
C2175 C2172 1.386 . S
C2176 C2171 1.490 . S
C2176 C2178 1.395 . S
C2176 C2179 1.403 . S
H2177 C2183 0.930 . S
C2178 H2164 0.930 . S
C2178 C2176 1.395 . S
C2178 C2181 1.403 . S
C2179 C2176 1.403 . S
C2179 C2180 1.524 . S
C2179 C2183 1.400 . S
C2180 H2165 0.960 . S
C2180 H2166 0.960 . S
C2180 H2167 0.960 . S
C2180 C2179 1.524 . S
C2181 C2178 1.403 . S
C2181 C2182 1.392 . S
C2181 C2185 1.495 . S
C2182 C2181 1.392 . S
C2182 C2183 1.385 . S
C2182 C2184 1.478 . S
C2183 H2177 0.930 . S
C2183 C2179 1.400 . S
C2183 C2182 1.385 . S
C2184 C2182 1.478 . S
C2184 C2186 1.381 . S
C2184 C2190 1.383 . S
C2185 C2181 1.495 . S
C2185 H2191 0.959 . S
C2185 H2192 0.961 . S
C2185 H2193 0.960 . S
C2186 C2184 1.381 . S
C2186 C2187 1.394 . S
C2186 H2194 0.930 . S
C2187 C2186 1.394 . S
C2187 C2188 1.383 . S
C2187 H2195 0.929 . S
C2188 C2187 1.383 . S
C2188 C2189 1.377 . S
C2189 H2173 0.930 . S
C2189 C2188 1.377 . S
C2189 C2190 1.379 . S
C2190 H2174 0.931 . S
C2190 C2184 1.383 . S
C2190 C2189 1.379 . S
H2191 C2185 0.959 . S
H2192 C2185 0.961 . S
H2193 C2185 0.960 . S
H2194 C2186 0.930 . S
H2195 C2187 0.929 . S
H2196 C2204 0.929 . S
H2197 C2206 0.930 . S
H2198 C2208 0.930 . S
H2199 C2211 0.929 . S
H2200 C2214 0.930 . S
H2201 C2216 0.960 . S
H2202 C2216 0.960 . S
H2203 C2216 0.960 . S
C2204 H2196 0.929 . S
C2204 C2205 1.377 . S
C2204 C2206 1.384 . S
C2205 C2204 1.377 . S
C2205 C2211 1.390 . S
C2206 H2197 0.930 . S
C2206 C2204 1.384 . S
C2206 C2207 1.372 . S
C2207 C2206 1.372 . S
C2207 C2208 1.400 . S
C2207 C2212 1.490 . S
C2208 H2198 0.930 . S
C2208 C2207 1.400 . S
C2208 C2211 1.386 . S
H2209 C2225 0.930 . S
H2210 C2226 0.931 . S
C2211 H2199 0.929 . S
C2211 C2205 1.390 . S
C2211 C2208 1.386 . S
C2212 C2207 1.490 . S
C2212 C2214 1.395 . S
C2212 C2215 1.403 . S
H2213 C2219 0.930 . S
C2214 H2200 0.930 . S
C2214 C2212 1.395 . S
C2214 C2217 1.403 . S
C2215 C2212 1.403 . S
C2215 C2216 1.524 . S
C2215 C2219 1.400 . S
C2216 H2201 0.960 . S
C2216 H2202 0.960 . S
C2216 H2203 0.960 . S
C2216 C2215 1.524 . S
C2217 C2214 1.403 . S
C2217 C2218 1.392 . S
C2217 C2221 1.495 . S
C2218 C2217 1.392 . S
C2218 C2219 1.385 . S
C2218 C2220 1.478 . S
C2219 H2213 0.930 . S
C2219 C2215 1.400 . S
C2219 C2218 1.385 . S
C2220 C2218 1.478 . S
C2220 C2222 1.381 . S
C2220 C2226 1.383 . S
C2221 C2217 1.495 . S
C2221 H2227 0.959 . S
C2221 H2228 0.961 . S
C2221 H2229 0.960 . S
C2222 C2220 1.381 . S
C2222 C2223 1.394 . S
C2222 H2230 0.930 . S
C2223 C2222 1.394 . S
C2223 C2224 1.383 . S
C2223 H2231 0.929 . S
C2224 C2223 1.383 . S
C2224 C2225 1.377 . S
C2225 H2209 0.930 . S
C2225 C2224 1.377 . S
C2225 C2226 1.379 . S
C2226 H2210 0.931 . S
C2226 C2220 1.383 . S
C2226 C2225 1.379 . S
H2227 C2221 0.959 . S
H2228 C2221 0.961 . S
H2229 C2221 0.960 . S
H2230 C2222 0.930 . S
H2231 C2223 0.929 . S
H2232 C2240 0.929 . S
H2233 C2242 0.930 . S
H2234 C2244 0.930 . S
H2235 C2247 0.929 . S
H2236 C2250 0.930 . S
H2237 C2252 0.960 . S
H2238 C2252 0.960 . S
H2239 C2252 0.960 . S
C2240 H2232 0.929 . S
C2240 C2241 1.377 . S
C2240 C2242 1.384 . S
C2241 C2240 1.377 . S
C2241 C2247 1.390 . S
C2242 H2233 0.930 . S
C2242 C2240 1.384 . S
C2242 C2243 1.372 . S
C2243 C2242 1.372 . S
C2243 C2244 1.400 . S
C2243 C2248 1.490 . S
C2244 H2234 0.930 . S
C2244 C2243 1.400 . S
C2244 C2247 1.386 . S
H2245 C2261 0.930 . S
H2246 C2262 0.931 . S
C2247 H2235 0.929 . S
C2247 C2241 1.390 . S
C2247 C2244 1.386 . S
C2248 C2243 1.490 . S
C2248 C2250 1.395 . S
C2248 C2251 1.403 . S
H2249 C2255 0.930 . S
C2250 H2236 0.930 . S
C2250 C2248 1.395 . S
C2250 C2253 1.403 . S
C2251 C2248 1.403 . S
C2251 C2252 1.524 . S
C2251 C2255 1.400 . S
C2252 H2237 0.960 . S
C2252 H2238 0.960 . S
C2252 H2239 0.960 . S
C2252 C2251 1.524 . S
C2253 C2250 1.403 . S
C2253 C2254 1.392 . S
C2253 C2257 1.495 . S
C2254 C2253 1.392 . S
C2254 C2255 1.385 . S
C2254 C2256 1.478 . S
C2255 H2249 0.930 . S
C2255 C2251 1.400 . S
C2255 C2254 1.385 . S
C2256 C2254 1.478 . S
C2256 C2258 1.381 . S
C2256 C2262 1.383 . S
C2257 C2253 1.495 . S
C2257 H2263 0.959 . S
C2257 H2264 0.961 . S
C2257 H2265 0.960 . S
C2258 C2256 1.381 . S
C2258 C2259 1.394 . S
C2258 H2266 0.930 . S
C2259 C2258 1.394 . S
C2259 C2260 1.383 . S
C2259 H2267 0.929 . S
C2260 C2259 1.383 . S
C2260 C2261 1.377 . S
C2261 H2245 0.930 . S
C2261 C2260 1.377 . S
C2261 C2262 1.379 . S
C2262 H2246 0.931 . S
C2262 C2256 1.383 . S
C2262 C2261 1.379 . S
H2263 C2257 0.959 . S
H2264 C2257 0.961 . S
H2265 C2257 0.960 . S
H2266 C2258 0.930 . S
H2267 C2259 0.929 . S
H2268 C2276 0.929 . S
H2269 C2278 0.930 . S
H2270 C2280 0.930 . S
H2271 C2283 0.929 . S
H2272 C2286 0.930 . S
H2273 C2288 0.960 . S
H2274 C2288 0.960 . S
H2275 C2288 0.960 . S
C2276 H2268 0.929 . S
C2276 C2277 1.377 . S
C2276 C2278 1.384 . S
C2277 C2276 1.377 . S
C2277 C2283 1.390 . S
C2278 H2269 0.930 . S
C2278 C2276 1.384 . S
C2278 C2279 1.372 . S
C2279 C2278 1.372 . S
C2279 C2280 1.400 . S
C2279 C2284 1.490 . S
C2280 H2270 0.930 . S
C2280 C2279 1.400 . S
C2280 C2283 1.386 . S
H2281 C2297 0.930 . S
H2282 C2298 0.931 . S
C2283 H2271 0.929 . S
C2283 C2277 1.390 . S
C2283 C2280 1.386 . S
C2284 C2279 1.490 . S
C2284 C2286 1.395 . S
C2284 C2287 1.403 . S
H2285 C2291 0.930 . S
C2286 H2272 0.930 . S
C2286 C2284 1.395 . S
C2286 C2289 1.403 . S
C2287 C2284 1.403 . S
C2287 C2288 1.524 . S
C2287 C2291 1.400 . S
C2288 H2273 0.960 . S
C2288 H2274 0.960 . S
C2288 H2275 0.960 . S
C2288 C2287 1.524 . S
C2289 C2286 1.403 . S
C2289 C2290 1.392 . S
C2289 C2293 1.495 . S
C2290 C2289 1.392 . S
C2290 C2291 1.385 . S
C2290 C2292 1.478 . S
C2291 H2285 0.930 . S
C2291 C2287 1.400 . S
C2291 C2290 1.385 . S
C2292 C2290 1.478 . S
C2292 C2294 1.381 . S
C2292 C2298 1.383 . S
C2293 C2289 1.495 . S
C2293 H2299 0.959 . S
C2293 H2300 0.961 . S
C2293 H2301 0.960 . S
C2294 C2292 1.381 . S
C2294 C2295 1.394 . S
C2294 H2302 0.930 . S
C2295 C2294 1.394 . S
C2295 C2296 1.383 . S
C2295 H2303 0.929 . S
C2296 C2295 1.383 . S
C2296 C2297 1.377 . S
C2297 H2281 0.930 . S
C2297 C2296 1.377 . S
C2297 C2298 1.379 . S
C2298 H2282 0.931 . S
C2298 C2292 1.383 . S
C2298 C2297 1.379 . S
H2299 C2293 0.959 . S
H2300 C2293 0.961 . S
H2301 C2293 0.960 . S
H2302 C2294 0.930 . S
H2303 C2295 0.929 . S
H2304 C2312 0.929 . S
H2305 C2314 0.930 . S
H2306 C2316 0.930 . S
H2307 C2319 0.929 . S
H2308 C2322 0.930 . S
H2309 C2324 0.960 . S
H2310 C2324 0.960 . S
H2311 C2324 0.960 . S
C2312 H2304 0.929 . S
C2312 C2313 1.377 . S
C2312 C2314 1.384 . S
C2313 C2312 1.377 . S
C2313 C2319 1.390 . S
C2314 H2305 0.930 . S
C2314 C2312 1.384 . S
C2314 C2315 1.372 . S
C2315 C2314 1.372 . S
C2315 C2316 1.400 . S
C2315 C2320 1.490 . S
C2316 H2306 0.930 . S
C2316 C2315 1.400 . S
C2316 C2319 1.386 . S
H2317 C2333 0.930 . S
H2318 C2334 0.931 . S
C2319 H2307 0.929 . S
C2319 C2313 1.390 . S
C2319 C2316 1.386 . S
C2320 C2315 1.490 . S
C2320 C2322 1.395 . S
C2320 C2323 1.403 . S
H2321 C2327 0.930 . S
C2322 H2308 0.930 . S
C2322 C2320 1.395 . S
C2322 C2325 1.403 . S
C2323 C2320 1.403 . S
C2323 C2324 1.524 . S
C2323 C2327 1.400 . S
C2324 H2309 0.960 . S
C2324 H2310 0.960 . S
C2324 H2311 0.960 . S
C2324 C2323 1.524 . S
C2325 C2322 1.403 . S
C2325 C2326 1.392 . S
C2325 C2329 1.495 . S
C2326 C2325 1.392 . S
C2326 C2327 1.385 . S
C2326 C2328 1.478 . S
C2327 H2321 0.930 . S
C2327 C2323 1.400 . S
C2327 C2326 1.385 . S
C2328 C2326 1.478 . S
C2328 C2330 1.381 . S
C2328 C2334 1.383 . S
C2329 C2325 1.495 . S
C2329 H2335 0.959 . S
C2329 H2336 0.961 . S
C2329 H2337 0.960 . S
C2330 C2328 1.381 . S
C2330 C2331 1.394 . S
C2330 H2338 0.930 . S
C2331 C2330 1.394 . S
C2331 C2332 1.383 . S
C2331 H2339 0.929 . S
C2332 C2331 1.383 . S
C2332 C2333 1.377 . S
C2333 H2317 0.930 . S
C2333 C2332 1.377 . S
C2333 C2334 1.379 . S
C2334 H2318 0.931 . S
C2334 C2328 1.383 . S
C2334 C2333 1.379 . S
H2335 C2329 0.959 . S
H2336 C2329 0.961 . S
H2337 C2329 0.960 . S
H2338 C2330 0.930 . S
H2339 C2331 0.929 . S
H2340 C2348 0.929 . S
H2341 C2350 0.930 . S
H2342 C2352 0.930 . S
H2343 C2355 0.929 . S
H2344 C2358 0.930 . S
H2345 C2360 0.960 . S
H2346 C2360 0.960 . S
H2347 C2360 0.960 . S
C2348 H2340 0.929 . S
C2348 C2349 1.377 . S
C2348 C2350 1.384 . S
C2349 C2348 1.377 . S
C2349 C2355 1.390 . S
C2350 H2341 0.930 . S
C2350 C2348 1.384 . S
C2350 C2351 1.372 . S
C2351 C2350 1.372 . S
C2351 C2352 1.400 . S
C2351 C2356 1.490 . S
C2352 H2342 0.930 . S
C2352 C2351 1.400 . S
C2352 C2355 1.386 . S
H2353 C2369 0.930 . S
H2354 C2370 0.931 . S
C2355 H2343 0.929 . S
C2355 C2349 1.390 . S
C2355 C2352 1.386 . S
C2356 C2351 1.490 . S
C2356 C2358 1.395 . S
C2356 C2359 1.403 . S
H2357 C2363 0.930 . S
C2358 H2344 0.930 . S
C2358 C2356 1.395 . S
C2358 C2361 1.403 . S
C2359 C2356 1.403 . S
C2359 C2360 1.524 . S
C2359 C2363 1.400 . S
C2360 H2345 0.960 . S
C2360 H2346 0.960 . S
C2360 H2347 0.960 . S
C2360 C2359 1.524 . S
C2361 C2358 1.403 . S
C2361 C2362 1.392 . S
C2361 C2365 1.495 . S
C2362 C2361 1.392 . S
C2362 C2363 1.385 . S
C2362 C2364 1.478 . S
C2363 H2357 0.930 . S
C2363 C2359 1.400 . S
C2363 C2362 1.385 . S
C2364 C2362 1.478 . S
C2364 C2366 1.381 . S
C2364 C2370 1.383 . S
C2365 C2361 1.495 . S
C2365 H2371 0.959 . S
C2365 H2372 0.961 . S
C2365 H2373 0.960 . S
C2366 C2364 1.381 . S
C2366 C2367 1.394 . S
C2366 H2374 0.930 . S
C2367 C2366 1.394 . S
C2367 C2368 1.383 . S
C2367 H2375 0.929 . S
C2368 C2367 1.383 . S
C2368 C2369 1.377 . S
C2369 H2353 0.930 . S
C2369 C2368 1.377 . S
C2369 C2370 1.379 . S
C2370 H2354 0.931 . S
C2370 C2364 1.383 . S
C2370 C2369 1.379 . S
H2371 C2365 0.959 . S
H2372 C2365 0.961 . S
H2373 C2365 0.960 . S
H2374 C2366 0.930 . S
H2375 C2367 0.929 . S
H2376 C2384 0.929 . S
H2377 C2386 0.930 . S
H2378 C2388 0.930 . S
H2379 C2391 0.929 . S
H2380 C2394 0.930 . S
H2381 C2396 0.960 . S
H2382 C2396 0.960 . S
H2383 C2396 0.960 . S
C2384 H2376 0.929 . S
C2384 C2385 1.377 . S
C2384 C2386 1.384 . S
C2385 C2384 1.377 . S
C2385 C2391 1.390 . S
C2386 H2377 0.930 . S
C2386 C2384 1.384 . S
C2386 C2387 1.372 . S
C2387 C2386 1.372 . S
C2387 C2388 1.400 . S
C2387 C2392 1.490 . S
C2388 H2378 0.930 . S
C2388 C2387 1.400 . S
C2388 C2391 1.386 . S
H2389 C2405 0.930 . S
H2390 C2406 0.931 . S
C2391 H2379 0.929 . S
C2391 C2385 1.390 . S
C2391 C2388 1.386 . S
C2392 C2387 1.490 . S
C2392 C2394 1.395 . S
C2392 C2395 1.403 . S
H2393 C2399 0.930 . S
C2394 H2380 0.930 . S
C2394 C2392 1.395 . S
C2394 C2397 1.403 . S
C2395 C2392 1.403 . S
C2395 C2396 1.524 . S
C2395 C2399 1.400 . S
C2396 H2381 0.960 . S
C2396 H2382 0.960 . S
C2396 H2383 0.960 . S
C2396 C2395 1.524 . S
C2397 C2394 1.403 . S
C2397 C2398 1.392 . S
C2397 C2401 1.495 . S
C2398 C2397 1.392 . S
C2398 C2399 1.385 . S
C2398 C2400 1.478 . S
C2399 H2393 0.930 . S
C2399 C2395 1.400 . S
C2399 C2398 1.385 . S
C2400 C2398 1.478 . S
C2400 C2402 1.381 . S
C2400 C2406 1.383 . S
C2401 C2397 1.495 . S
C2401 H2407 0.959 . S
C2401 H2408 0.961 . S
C2401 H2409 0.960 . S
C2402 C2400 1.381 . S
C2402 C2403 1.394 . S
C2402 H2410 0.930 . S
C2403 C2402 1.394 . S
C2403 C2404 1.383 . S
C2403 H2411 0.929 . S
C2404 C2403 1.383 . S
C2404 C2405 1.377 . S
C2405 H2389 0.930 . S
C2405 C2404 1.377 . S
C2405 C2406 1.379 . S
C2406 H2390 0.931 . S
C2406 C2400 1.383 . S
C2406 C2405 1.379 . S
H2407 C2401 0.959 . S
H2408 C2401 0.961 . S
H2409 C2401 0.960 . S
H2410 C2402 0.930 . S
H2411 C2403 0.929 . S
H2412 C2420 0.929 . S
H2413 C2422 0.930 . S
H2414 C2424 0.930 . S
H2415 C2427 0.929 . S
H2416 C2430 0.930 . S
H2417 C2432 0.960 . S
H2418 C2432 0.960 . S
H2419 C2432 0.960 . S
C2420 H2412 0.929 . S
C2420 C2421 1.377 . S
C2420 C2422 1.384 . S
C2421 C2420 1.377 . S
C2421 C2427 1.390 . S
C2422 H2413 0.930 . S
C2422 C2420 1.384 . S
C2422 C2423 1.372 . S
C2423 C2422 1.372 . S
C2423 C2424 1.400 . S
C2423 C2428 1.490 . S
C2424 H2414 0.930 . S
C2424 C2423 1.400 . S
C2424 C2427 1.386 . S
H2425 C2441 0.930 . S
H2426 C2442 0.931 . S
C2427 H2415 0.929 . S
C2427 C2421 1.390 . S
C2427 C2424 1.386 . S
C2428 C2423 1.490 . S
C2428 C2430 1.395 . S
C2428 C2431 1.403 . S
H2429 C2435 0.930 . S
C2430 H2416 0.930 . S
C2430 C2428 1.395 . S
C2430 C2433 1.403 . S
C2431 C2428 1.403 . S
C2431 C2432 1.524 . S
C2431 C2435 1.400 . S
C2432 H2417 0.960 . S
C2432 H2418 0.960 . S
C2432 H2419 0.960 . S
C2432 C2431 1.524 . S
C2433 C2430 1.403 . S
C2433 C2434 1.392 . S
C2433 C2437 1.495 . S
C2434 C2433 1.392 . S
C2434 C2435 1.385 . S
C2434 C2436 1.478 . S
C2435 H2429 0.930 . S
C2435 C2431 1.400 . S
C2435 C2434 1.385 . S
C2436 C2434 1.478 . S
C2436 C2438 1.381 . S
C2436 C2442 1.383 . S
C2437 C2433 1.495 . S
C2437 H2443 0.959 . S
C2437 H2444 0.961 . S
C2437 H2445 0.960 . S
C2438 C2436 1.381 . S
C2438 C2439 1.394 . S
C2438 H2446 0.930 . S
C2439 C2438 1.394 . S
C2439 C2440 1.383 . S
C2439 H2447 0.929 . S
C2440 C2439 1.383 . S
C2440 C2441 1.377 . S
C2441 H2425 0.930 . S
C2441 C2440 1.377 . S
C2441 C2442 1.379 . S
C2442 H2426 0.931 . S
C2442 C2436 1.383 . S
C2442 C2441 1.379 . S
H2443 C2437 0.959 . S
H2444 C2437 0.961 . S
H2445 C2437 0.960 . S
H2446 C2438 0.930 . S
H2447 C2439 0.929 . S
H2448 C2456 0.929 . S
H2449 C2458 0.930 . S
H2450 C2460 0.930 . S
H2451 C2463 0.929 . S
H2452 C2466 0.930 . S
H2453 C2468 0.960 . S
H2454 C2468 0.960 . S
H2455 C2468 0.960 . S
C2456 H2448 0.929 . S
C2456 C2457 1.377 . S
C2456 C2458 1.384 . S
C2457 C2456 1.377 . S
C2457 C2463 1.390 . S
C2458 H2449 0.930 . S
C2458 C2456 1.384 . S
C2458 C2459 1.372 . S
C2459 C2458 1.372 . S
C2459 C2460 1.400 . S
C2459 C2464 1.490 . S
C2460 H2450 0.930 . S
C2460 C2459 1.400 . S
C2460 C2463 1.386 . S
H2461 C2477 0.930 . S
H2462 C2478 0.931 . S
C2463 H2451 0.929 . S
C2463 C2457 1.390 . S
C2463 C2460 1.386 . S
C2464 C2459 1.490 . S
C2464 C2466 1.395 . S
C2464 C2467 1.403 . S
H2465 C2471 0.930 . S
C2466 H2452 0.930 . S
C2466 C2464 1.395 . S
C2466 C2469 1.403 . S
C2467 C2464 1.403 . S
C2467 C2468 1.524 . S
C2467 C2471 1.400 . S
C2468 H2453 0.960 . S
C2468 H2454 0.960 . S
C2468 H2455 0.960 . S
C2468 C2467 1.524 . S
C2469 C2466 1.403 . S
C2469 C2470 1.392 . S
C2469 C2473 1.495 . S
C2470 C2469 1.392 . S
C2470 C2471 1.385 . S
C2470 C2472 1.478 . S
C2471 H2465 0.930 . S
C2471 C2467 1.400 . S
C2471 C2470 1.385 . S
C2472 C2470 1.478 . S
C2472 C2474 1.381 . S
C2472 C2478 1.383 . S
C2473 C2469 1.495 . S
C2473 H2479 0.959 . S
C2473 H2480 0.961 . S
C2473 H2481 0.960 . S
C2474 C2472 1.381 . S
C2474 C2475 1.394 . S
C2474 H2482 0.930 . S
C2475 C2474 1.394 . S
C2475 C2476 1.383 . S
C2475 H2483 0.929 . S
C2476 C2475 1.383 . S
C2476 C2477 1.377 . S
C2477 H2461 0.930 . S
C2477 C2476 1.377 . S
C2477 C2478 1.379 . S
C2478 H2462 0.931 . S
C2478 C2472 1.383 . S
C2478 C2477 1.379 . S
H2479 C2473 0.959 . S
H2480 C2473 0.961 . S
H2481 C2473 0.960 . S
H2482 C2474 0.930 . S
H2483 C2475 0.929 . S
H2484 C2492 0.929 . S
H2485 C2494 0.930 . S
H2486 C2496 0.930 . S
H2487 C2499 0.929 . S
H2488 C2502 0.930 . S
H2489 C2504 0.960 . S
H2490 C2504 0.960 . S
H2491 C2504 0.960 . S
C2492 H2484 0.929 . S
C2492 C2493 1.377 . S
C2492 C2494 1.384 . S
C2493 C2492 1.377 . S
C2493 C2499 1.390 . S
C2494 H2485 0.930 . S
C2494 C2492 1.384 . S
C2494 C2495 1.372 . S
C2495 C2494 1.372 . S
C2495 C2496 1.400 . S
C2495 C2500 1.490 . S
C2496 H2486 0.930 . S
C2496 C2495 1.400 . S
C2496 C2499 1.386 . S
H2497 C2513 0.930 . S
H2498 C2514 0.931 . S
C2499 H2487 0.929 . S
C2499 C2493 1.390 . S
C2499 C2496 1.386 . S
C2500 C2495 1.490 . S
C2500 C2502 1.395 . S
C2500 C2503 1.403 . S
H2501 C2507 0.930 . S
C2502 H2488 0.930 . S
C2502 C2500 1.395 . S
C2502 C2505 1.403 . S
C2503 C2500 1.403 . S
C2503 C2504 1.524 . S
C2503 C2507 1.400 . S
C2504 H2489 0.960 . S
C2504 H2490 0.960 . S
C2504 H2491 0.960 . S
C2504 C2503 1.524 . S
C2505 C2502 1.403 . S
C2505 C2506 1.392 . S
C2505 C2509 1.495 . S
C2506 C2505 1.392 . S
C2506 C2507 1.385 . S
C2506 C2508 1.478 . S
C2507 H2501 0.930 . S
C2507 C2503 1.400 . S
C2507 C2506 1.385 . S
C2508 C2506 1.478 . S
C2508 C2510 1.381 . S
C2508 C2514 1.383 . S
C2509 C2505 1.495 . S
C2509 H2515 0.959 . S
C2509 H2516 0.961 . S
C2509 H2517 0.960 . S
C2510 C2508 1.381 . S
C2510 C2511 1.394 . S
C2510 H2518 0.930 . S
C2511 C2510 1.394 . S
C2511 C2512 1.383 . S
C2511 H2519 0.929 . S
C2512 C2511 1.383 . S
C2512 C2513 1.377 . S
C2513 H2497 0.930 . S
C2513 C2512 1.377 . S
C2513 C2514 1.379 . S
C2514 H2498 0.931 . S
C2514 C2508 1.383 . S
C2514 C2513 1.379 . S
H2515 C2509 0.959 . S
H2516 C2509 0.961 . S
H2517 C2509 0.960 . S
H2518 C2510 0.930 . S
H2519 C2511 0.929 . S
H2520 C2528 0.929 . S
H2521 C2530 0.930 . S
H2522 C2532 0.930 . S
H2523 C2535 0.929 1_554 S
H2524 C2538 0.930 . S
H2525 C2540 0.960 . S
H2526 C2540 0.960 . S
H2527 C2540 0.960 . S
C2528 H2520 0.929 . S
C2528 C2529 1.377 . S
C2528 C2530 1.384 . S
C2529 C2528 1.377 . S
C2529 C2535 1.390 . S
C2530 H2521 0.930 . S
C2530 C2528 1.384 . S
C2530 C2531 1.372 . S
C2531 C2530 1.372 . S
C2531 C2532 1.400 . S
C2531 C2536 1.490 . S
C2532 H2522 0.930 . S
C2532 C2531 1.400 . S
C2532 C2535 1.386 . S
H2533 C2549 0.930 . S
H2534 C2550 0.931 . S
C2535 H2523 0.929 1_556 S
C2535 C2529 1.390 . S
C2535 C2532 1.386 . S
C2536 C2531 1.490 . S
C2536 C2538 1.395 . S
C2536 C2539 1.403 . S
H2537 C2543 0.930 . S
C2538 H2524 0.930 . S
C2538 C2536 1.395 . S
C2538 C2541 1.403 . S
C2539 C2536 1.403 . S
C2539 C2540 1.524 . S
C2539 C2543 1.400 . S
C2540 H2525 0.960 . S
C2540 H2526 0.960 . S
C2540 H2527 0.960 . S
C2540 C2539 1.524 . S
C2541 C2538 1.403 . S
C2541 C2542 1.392 . S
C2541 C2545 1.495 . S
C2542 C2541 1.392 . S
C2542 C2543 1.385 . S
C2542 C2544 1.478 . S
C2543 H2537 0.930 . S
C2543 C2539 1.400 . S
C2543 C2542 1.385 . S
C2544 C2542 1.478 . S
C2544 C2546 1.381 . S
C2544 C2550 1.383 . S
C2545 C2541 1.495 . S
C2545 H2551 0.959 . S
C2545 H2552 0.961 . S
C2545 H2553 0.960 . S
C2546 C2544 1.381 . S
C2546 C2547 1.394 . S
C2546 H2554 0.930 . S
C2547 C2546 1.394 . S
C2547 C2548 1.383 . S
C2547 H2555 0.929 . S
C2548 C2547 1.383 . S
C2548 C2549 1.377 . S
C2549 H2533 0.930 . S
C2549 C2548 1.377 . S
C2549 C2550 1.379 . S
C2550 H2534 0.931 . S
C2550 C2544 1.383 . S
C2550 C2549 1.379 . S
H2551 C2545 0.959 . S
H2552 C2545 0.961 . S
H2553 C2545 0.960 . S
H2554 C2546 0.930 . S
H2555 C2547 0.929 . S
H2556 C2564 0.929 . S
H2557 C2566 0.930 . S
H2558 C2568 0.930 . S
H2559 C2571 0.929 1_554 S
H2560 C2574 0.930 . S
H2561 C2576 0.960 . S
H2562 C2576 0.960 . S
H2563 C2576 0.960 . S
C2564 H2556 0.929 . S
C2564 C2565 1.377 . S
C2564 C2566 1.384 . S
C2565 C2564 1.377 . S
C2565 C2571 1.390 . S
C2566 H2557 0.930 . S
C2566 C2564 1.384 . S
C2566 C2567 1.372 . S
C2567 C2566 1.372 . S
C2567 C2568 1.400 . S
C2567 C2572 1.490 . S
C2568 H2558 0.930 . S
C2568 C2567 1.400 . S
C2568 C2571 1.386 . S
H2569 C2585 0.930 . S
H2570 C2586 0.931 . S
C2571 H2559 0.929 1_556 S
C2571 C2565 1.390 . S
C2571 C2568 1.386 . S
C2572 C2567 1.490 . S
C2572 C2574 1.395 . S
C2572 C2575 1.403 . S
H2573 C2579 0.930 . S
C2574 H2560 0.930 . S
C2574 C2572 1.395 . S
C2574 C2577 1.403 . S
C2575 C2572 1.403 . S
C2575 C2576 1.524 . S
C2575 C2579 1.400 . S
C2576 H2561 0.960 . S
C2576 H2562 0.960 . S
C2576 H2563 0.960 . S
C2576 C2575 1.524 . S
C2577 C2574 1.403 . S
C2577 C2578 1.392 . S
C2577 C2581 1.495 . S
C2578 C2577 1.392 . S
C2578 C2579 1.385 . S
C2578 C2580 1.478 . S
C2579 H2573 0.930 . S
C2579 C2575 1.400 . S
C2579 C2578 1.385 . S
C2580 C2578 1.478 . S
C2580 C2582 1.381 . S
C2580 C2586 1.383 . S
C2581 C2577 1.495 . S
C2581 H2587 0.959 . S
C2581 H2588 0.961 . S
C2581 H2589 0.960 . S
C2582 C2580 1.381 . S
C2582 C2583 1.394 . S
C2582 H2590 0.930 . S
C2583 C2582 1.394 . S
C2583 C2584 1.383 . S
C2583 H2591 0.929 . S
C2584 C2583 1.383 . S
C2584 C2585 1.377 . S
C2585 H2569 0.930 . S
C2585 C2584 1.377 . S
C2585 C2586 1.379 . S
C2586 H2570 0.931 . S
C2586 C2580 1.383 . S
C2586 C2585 1.379 . S
H2587 C2581 0.959 . S
H2588 C2581 0.961 . S
H2589 C2581 0.960 . S
H2590 C2582 0.930 . S
H2591 C2583 0.929 . S
H2592 C2600 0.929 . S
H2593 C2602 0.930 . S
H2594 C2604 0.930 . S
H2595 C2607 0.929 . S
H2596 C2610 0.930 . S
H2597 C2612 0.960 . S
H2598 C2612 0.960 . S
H2599 C2612 0.960 . S
C2600 H2592 0.929 . S
C2600 C2601 1.377 . S
C2600 C2602 1.384 . S
C2601 C2600 1.377 . S
C2601 C2607 1.390 . S
C2602 H2593 0.930 . S
C2602 C2600 1.384 . S
C2602 C2603 1.372 . S
C2603 C2602 1.372 . S
C2603 C2604 1.400 . S
C2603 C2608 1.490 . S
C2604 H2594 0.930 . S
C2604 C2603 1.400 . S
C2604 C2607 1.386 . S
H2605 C2621 0.930 . S
H2606 C2622 0.931 . S
C2607 H2595 0.929 . S
C2607 C2601 1.390 . S
C2607 C2604 1.386 . S
C2608 C2603 1.490 . S
C2608 C2610 1.395 . S
C2608 C2611 1.403 . S
H2609 C2615 0.930 . S
C2610 H2596 0.930 . S
C2610 C2608 1.395 . S
C2610 C2613 1.403 . S
C2611 C2608 1.403 . S
C2611 C2612 1.524 . S
C2611 C2615 1.400 . S
C2612 H2597 0.960 . S
C2612 H2598 0.960 . S
C2612 H2599 0.960 . S
C2612 C2611 1.524 . S
C2613 C2610 1.403 . S
C2613 C2614 1.392 . S
C2613 C2617 1.495 . S
C2614 C2613 1.392 . S
C2614 C2615 1.385 . S
C2614 C2616 1.478 . S
C2615 H2609 0.930 . S
C2615 C2611 1.400 . S
C2615 C2614 1.385 . S
C2616 C2614 1.478 . S
C2616 C2618 1.381 . S
C2616 C2622 1.383 . S
C2617 C2613 1.495 . S
C2617 H2623 0.959 . S
C2617 H2624 0.961 . S
C2617 H2625 0.960 . S
C2618 C2616 1.381 . S
C2618 C2619 1.394 . S
C2618 H2626 0.930 . S
C2619 C2618 1.394 . S
C2619 C2620 1.383 . S
C2619 H2627 0.929 . S
C2620 C2619 1.383 . S
C2620 C2621 1.377 . S
C2621 H2605 0.930 . S
C2621 C2620 1.377 . S
C2621 C2622 1.379 . S
C2622 H2606 0.931 . S
C2622 C2616 1.383 . S
C2622 C2621 1.379 . S
H2623 C2617 0.959 . S
H2624 C2617 0.961 . S
H2625 C2617 0.960 . S
H2626 C2618 0.930 . S
H2627 C2619 0.929 . S
H2628 C2636 0.929 . S
H2629 C2638 0.930 . S
H2630 C2640 0.930 . S
H2631 C2643 0.929 1_554 S
H2632 C2646 0.930 . S
H2633 C2648 0.960 . S
H2634 C2648 0.960 . S
H2635 C2648 0.960 . S
C2636 H2628 0.929 . S
C2636 C2637 1.377 . S
C2636 C2638 1.384 . S
C2637 C2636 1.377 . S
C2637 C2643 1.390 . S
C2638 H2629 0.930 . S
C2638 C2636 1.384 . S
C2638 C2639 1.372 . S
C2639 C2638 1.372 . S
C2639 C2640 1.400 . S
C2639 C2644 1.490 . S
C2640 H2630 0.930 . S
C2640 C2639 1.400 . S
C2640 C2643 1.386 . S
H2641 C2657 0.930 . S
H2642 C2658 0.931 . S
C2643 H2631 0.929 1_556 S
C2643 C2637 1.390 . S
C2643 C2640 1.386 . S
C2644 C2639 1.490 . S
C2644 C2646 1.395 . S
C2644 C2647 1.403 . S
H2645 C2651 0.930 . S
C2646 H2632 0.930 . S
C2646 C2644 1.395 . S
C2646 C2649 1.403 . S
C2647 C2644 1.403 . S
C2647 C2648 1.524 . S
C2647 C2651 1.400 . S
C2648 H2633 0.960 . S
C2648 H2634 0.960 . S
C2648 H2635 0.960 . S
C2648 C2647 1.524 . S
C2649 C2646 1.403 . S
C2649 C2650 1.392 . S
C2649 C2653 1.495 . S
C2650 C2649 1.392 . S
C2650 C2651 1.385 . S
C2650 C2652 1.478 . S
C2651 H2645 0.930 . S
C2651 C2647 1.400 . S
C2651 C2650 1.385 . S
C2652 C2650 1.478 . S
C2652 C2654 1.381 . S
C2652 C2658 1.383 . S
C2653 C2649 1.495 . S
C2653 H2659 0.959 . S
C2653 H2660 0.961 . S
C2653 H2661 0.960 . S
C2654 C2652 1.381 . S
C2654 C2655 1.394 . S
C2654 H2662 0.930 . S
C2655 C2654 1.394 . S
C2655 C2656 1.383 . S
C2655 H2663 0.929 . S
C2656 C2655 1.383 . S
C2656 C2657 1.377 . S
C2657 H2641 0.930 . S
C2657 C2656 1.377 . S
C2657 C2658 1.379 . S
C2658 H2642 0.931 . S
C2658 C2652 1.383 . S
C2658 C2657 1.379 . S
H2659 C2653 0.959 . S
H2660 C2653 0.961 . S
H2661 C2653 0.960 . S
H2662 C2654 0.930 . S
H2663 C2655 0.929 . S
H2664 C2672 0.912 1_554 S
H2665 C2674 0.930 . S
H2666 C2676 0.930 . S
H2667 C2679 0.929 . S
H2668 C2682 0.930 . S
H2669 C2684 0.960 . S
H2670 C2684 0.960 . S
H2671 C2684 0.960 . S
C2672 H2664 0.912 1_556 S
C2672 C2673 1.385 . S
C2672 C2674 1.393 . S
C2673 C2672 1.385 . S
C2673 C2679 1.390 . S
C2674 H2665 0.930 . S
C2674 C2672 1.393 . S
C2674 C2675 1.372 . S
C2675 C2674 1.372 . S
C2675 C2676 1.400 . S
C2675 C2680 1.490 . S
C2676 H2666 0.930 . S
C2676 C2675 1.400 . S
C2676 C2679 1.386 . S
H2677 C2693 0.930 . S
H2678 C2694 0.931 . S
C2679 H2667 0.929 . S
C2679 C2673 1.390 . S
C2679 C2676 1.386 . S
C2680 C2675 1.490 . S
C2680 C2682 1.395 . S
C2680 C2683 1.403 . S
H2681 C2687 0.930 . S
C2682 H2668 0.930 . S
C2682 C2680 1.395 . S
C2682 C2685 1.403 . S
C2683 C2680 1.403 . S
C2683 C2684 1.524 . S
C2683 C2687 1.400 . S
C2684 H2669 0.960 . S
C2684 H2670 0.960 . S
C2684 H2671 0.960 . S
C2684 C2683 1.524 . S
C2685 C2682 1.403 . S
C2685 C2686 1.392 . S
C2685 C2689 1.495 . S
C2686 C2685 1.392 . S
C2686 C2687 1.385 . S
C2686 C2688 1.478 . S
C2687 H2681 0.930 . S
C2687 C2683 1.400 . S
C2687 C2686 1.385 . S
C2688 C2686 1.478 . S
C2688 C2690 1.381 . S
C2688 C2694 1.383 . S
C2689 C2685 1.495 . S
C2689 H2695 0.959 . S
C2689 H2696 0.961 . S
C2689 H2697 0.960 . S
C2690 C2688 1.381 . S
C2690 C2691 1.394 . S
C2690 H2698 0.930 . S
C2691 C2690 1.394 . S
C2691 C2692 1.383 . S
C2691 H2699 0.929 . S
C2692 C2691 1.383 . S
C2692 C2693 1.377 . S
C2693 H2677 0.930 . S
C2693 C2692 1.377 . S
C2693 C2694 1.379 . S
C2694 H2678 0.931 . S
C2694 C2688 1.383 . S
C2694 C2693 1.379 . S
H2695 C2689 0.959 . S
H2696 C2689 0.961 . S
H2697 C2689 0.960 . S
H2698 C2690 0.930 . S
H2699 C2691 0.929 . S
H2700 C2708 0.929 . S
H2701 C2710 0.930 . S
H2702 C2712 0.930 . S
H2703 C2715 0.929 . S
H2704 C2718 0.930 . S
H2705 C2720 0.960 . S
H2706 C2720 0.960 . S
H2707 C2720 0.960 . S
C2708 H2700 0.929 . S
C2708 C2709 1.377 . S
C2708 C2710 1.384 . S
C2709 C2708 1.377 . S
C2709 C2715 1.390 . S
C2710 H2701 0.930 . S
C2710 C2708 1.384 . S
C2710 C2711 1.372 . S
C2711 C2710 1.372 . S
C2711 C2712 1.400 . S
C2711 C2716 1.490 . S
C2712 H2702 0.930 . S
C2712 C2711 1.400 . S
C2712 C2715 1.386 . S
H2713 C2729 0.930 . S
H2714 C2730 0.931 . S
C2715 H2703 0.929 . S
C2715 C2709 1.390 . S
C2715 C2712 1.386 . S
C2716 C2711 1.490 . S
C2716 C2718 1.395 . S
C2716 C2719 1.403 . S
H2717 C2723 0.930 . S
C2718 H2704 0.930 . S
C2718 C2716 1.395 . S
C2718 C2721 1.403 . S
C2719 C2716 1.403 . S
C2719 C2720 1.524 . S
C2719 C2723 1.400 . S
C2720 H2705 0.960 . S
C2720 H2706 0.960 . S
C2720 H2707 0.960 . S
C2720 C2719 1.524 . S
C2721 C2718 1.403 . S
C2721 C2722 1.392 . S
C2721 C2725 1.495 . S
C2722 C2721 1.392 . S
C2722 C2723 1.385 . S
C2722 C2724 1.478 . S
C2723 H2717 0.930 . S
C2723 C2719 1.400 . S
C2723 C2722 1.385 . S
C2724 C2722 1.478 . S
C2724 C2726 1.381 . S
C2724 C2730 1.383 . S
C2725 C2721 1.495 . S
C2725 H2731 0.959 . S
C2725 H2732 0.961 . S
C2725 H2733 0.960 . S
C2726 C2724 1.381 . S
C2726 C2727 1.394 . S
C2726 H2734 0.930 . S
C2727 C2726 1.394 . S
C2727 C2728 1.383 . S
C2727 H2735 0.929 . S
C2728 C2727 1.383 . S
C2728 C2729 1.377 . S
C2729 H2713 0.930 . S
C2729 C2728 1.377 . S
C2729 C2730 1.379 . S
C2730 H2714 0.931 . S
C2730 C2724 1.383 . S
C2730 C2729 1.379 . S
H2731 C2725 0.959 . S
H2732 C2725 0.961 . S
H2733 C2725 0.960 . S
H2734 C2726 0.930 . S
H2735 C2727 0.929 . S
H2736 C2744 0.929 . S
H2737 C2746 0.930 . S
H2738 C2748 0.930 . S
H2739 C2751 0.929 . S
H2740 C2754 0.930 . S
H2741 C2756 0.960 . S
H2742 C2756 0.960 . S
H2743 C2756 0.960 . S
C2744 H2736 0.929 . S
C2744 C2745 1.377 . S
C2744 C2746 1.384 . S
C2745 C2744 1.377 . S
C2745 C2751 1.390 . S
C2746 H2737 0.930 . S
C2746 C2744 1.384 . S
C2746 C2747 1.372 . S
C2747 C2746 1.372 . S
C2747 C2748 1.400 . S
C2747 C2752 1.490 . S
C2748 H2738 0.930 . S
C2748 C2747 1.400 . S
C2748 C2751 1.386 . S
H2749 C2765 0.930 . S
H2750 C2766 0.931 . S
C2751 H2739 0.929 . S
C2751 C2745 1.390 . S
C2751 C2748 1.386 . S
C2752 C2747 1.490 . S
C2752 C2754 1.395 . S
C2752 C2755 1.403 . S
H2753 C2759 0.930 . S
C2754 H2740 0.930 . S
C2754 C2752 1.395 . S
C2754 C2757 1.403 . S
C2755 C2752 1.403 . S
C2755 C2756 1.524 . S
C2755 C2759 1.400 . S
C2756 H2741 0.960 . S
C2756 H2742 0.960 . S
C2756 H2743 0.960 . S
C2756 C2755 1.524 . S
C2757 C2754 1.403 . S
C2757 C2758 1.392 . S
C2757 C2761 1.495 . S
C2758 C2757 1.392 . S
C2758 C2759 1.385 . S
C2758 C2760 1.478 . S
C2759 H2753 0.930 . S
C2759 C2755 1.400 . S
C2759 C2758 1.385 . S
C2760 C2758 1.478 . S
C2760 C2762 1.381 . S
C2760 C2766 1.383 . S
C2761 C2757 1.495 . S
C2761 H2767 0.959 . S
C2761 H2768 0.961 . S
C2761 H2769 0.960 . S
C2762 C2760 1.381 . S
C2762 C2763 1.394 . S
C2762 H2770 0.930 . S
C2763 C2762 1.394 . S
C2763 C2764 1.383 . S
C2763 H2771 0.929 . S
C2764 C2763 1.383 . S
C2764 C2765 1.377 . S
C2765 H2749 0.930 . S
C2765 C2764 1.377 . S
C2765 C2766 1.379 . S
C2766 H2750 0.931 . S
C2766 C2760 1.383 . S
C2766 C2765 1.379 . S
H2767 C2761 0.959 . S
H2768 C2761 0.961 . S
H2769 C2761 0.960 . S
H2770 C2762 0.930 . S
H2771 C2763 0.929 . S
H2772 C2780 0.929 . S
H2773 C2782 0.930 . S
H2774 C2784 0.930 . S
H2775 C2787 0.929 . S
H2776 C2790 0.930 . S
H2777 C2792 0.960 . S
H2778 C2792 0.960 . S
H2779 C2792 0.960 . S
C2780 H2772 0.929 . S
C2780 C2781 1.377 . S
C2780 C2782 1.384 . S
C2781 C2780 1.377 . S
C2781 C2787 1.390 . S
C2782 H2773 0.930 . S
C2782 C2780 1.384 . S
C2782 C2783 1.372 . S
C2783 C2782 1.372 . S
C2783 C2784 1.400 . S
C2783 C2788 1.490 . S
C2784 H2774 0.930 . S
C2784 C2783 1.400 . S
C2784 C2787 1.386 . S
H2785 C2801 0.930 . S
H2786 C2802 0.931 . S
C2787 H2775 0.929 . S
C2787 C2781 1.390 . S
C2787 C2784 1.386 . S
C2788 C2783 1.490 . S
C2788 C2790 1.395 . S
C2788 C2791 1.403 . S
H2789 C2795 0.930 . S
C2790 H2776 0.930 . S
C2790 C2788 1.395 . S
C2790 C2793 1.403 . S
C2791 C2788 1.403 . S
C2791 C2792 1.524 . S
C2791 C2795 1.400 . S
C2792 H2777 0.960 . S
C2792 H2778 0.960 . S
C2792 H2779 0.960 . S
C2792 C2791 1.524 . S
C2793 C2790 1.403 . S
C2793 C2794 1.392 . S
C2793 C2797 1.495 . S
C2794 C2793 1.392 . S
C2794 C2795 1.385 . S
C2794 C2796 1.478 . S
C2795 H2789 0.930 . S
C2795 C2791 1.400 . S
C2795 C2794 1.385 . S
C2796 C2794 1.478 . S
C2796 C2798 1.381 . S
C2796 C2802 1.383 . S
C2797 C2793 1.495 . S
C2797 H2803 0.959 . S
C2797 H2804 0.961 . S
C2797 H2805 0.960 . S
C2798 C2796 1.381 . S
C2798 C2799 1.394 . S
C2798 H2806 0.930 . S
C2799 C2798 1.394 . S
C2799 C2800 1.383 . S
C2799 H2807 0.929 . S
C2800 C2799 1.383 . S
C2800 C2801 1.377 . S
C2801 H2785 0.930 . S
C2801 C2800 1.377 . S
C2801 C2802 1.379 . S
C2802 H2786 0.931 . S
C2802 C2796 1.383 . S
C2802 C2801 1.379 . S
H2803 C2797 0.959 . S
H2804 C2797 0.961 . S
H2805 C2797 0.960 . S
H2806 C2798 0.930 . S
H2807 C2799 0.929 . S
H2808 C2816 0.929 . S
H2809 C2818 0.930 . S
H2810 C2820 0.930 . S
H2811 C2823 0.929 . S
H2812 C2826 0.930 . S
H2813 C2828 0.960 . S
H2814 C2828 0.960 . S
H2815 C2828 0.960 . S
C2816 H2808 0.929 . S
C2816 C2817 1.377 . S
C2816 C2818 1.384 . S
C2817 C2816 1.377 . S
C2817 C2823 1.390 . S
C2818 H2809 0.930 . S
C2818 C2816 1.384 . S
C2818 C2819 1.372 . S
C2819 C2818 1.372 . S
C2819 C2820 1.400 . S
C2819 C2824 1.490 . S
C2820 H2810 0.930 . S
C2820 C2819 1.400 . S
C2820 C2823 1.386 . S
H2821 C2837 0.930 . S
H2822 C2838 0.931 . S
C2823 H2811 0.929 . S
C2823 C2817 1.390 . S
C2823 C2820 1.386 . S
C2824 C2819 1.490 . S
C2824 C2826 1.395 . S
C2824 C2827 1.403 . S
H2825 C2831 0.930 . S
C2826 H2812 0.930 . S
C2826 C2824 1.395 . S
C2826 C2829 1.403 . S
C2827 C2824 1.403 . S
C2827 C2828 1.524 . S
C2827 C2831 1.400 . S
C2828 H2813 0.960 . S
C2828 H2814 0.960 . S
C2828 H2815 0.960 . S
C2828 C2827 1.524 . S
C2829 C2826 1.403 . S
C2829 C2830 1.392 . S
C2829 C2833 1.495 . S
C2830 C2829 1.392 . S
C2830 C2831 1.385 . S
C2830 C2832 1.478 . S
C2831 H2825 0.930 . S
C2831 C2827 1.400 . S
C2831 C2830 1.385 . S
C2832 C2830 1.478 . S
C2832 C2834 1.381 . S
C2832 C2838 1.383 . S
C2833 C2829 1.495 . S
C2833 H2839 0.959 . S
C2833 H2840 0.961 . S
C2833 H2841 0.960 . S
C2834 C2832 1.381 . S
C2834 C2835 1.394 . S
C2834 H2842 0.930 . S
C2835 C2834 1.394 . S
C2835 C2836 1.383 . S
C2835 H2843 0.929 . S
C2836 C2835 1.383 . S
C2836 C2837 1.377 . S
C2837 H2821 0.930 . S
C2837 C2836 1.377 . S
C2837 C2838 1.379 . S
C2838 H2822 0.931 . S
C2838 C2832 1.383 . S
C2838 C2837 1.379 . S
H2839 C2833 0.959 . S
H2840 C2833 0.961 . S
H2841 C2833 0.960 . S
H2842 C2834 0.930 . S
H2843 C2835 0.929 . S
H2844 C2852 0.929 . S
H2845 C2854 0.930 . S
H2846 C2856 0.930 . S
H2847 C2859 0.929 . S
H2848 C2862 0.930 . S
H2849 C2864 0.960 . S
H2850 C2864 0.960 . S
H2851 C2864 0.960 . S
C2852 H2844 0.929 . S
C2852 C2853 1.377 . S
C2852 C2854 1.384 . S
C2853 C2852 1.377 . S
C2853 C2859 1.390 . S
C2854 H2845 0.930 . S
C2854 C2852 1.384 . S
C2854 C2855 1.372 . S
C2855 C2854 1.372 . S
C2855 C2856 1.400 . S
C2855 C2860 1.490 . S
C2856 H2846 0.930 . S
C2856 C2855 1.400 . S
C2856 C2859 1.386 . S
H2857 C2873 0.930 . S
H2858 C2874 0.931 . S
C2859 H2847 0.929 . S
C2859 C2853 1.390 . S
C2859 C2856 1.386 . S
C2860 C2855 1.490 . S
C2860 C2862 1.395 . S
C2860 C2863 1.403 . S
H2861 C2867 0.930 . S
C2862 H2848 0.930 . S
C2862 C2860 1.395 . S
C2862 C2865 1.403 . S
C2863 C2860 1.403 . S
C2863 C2864 1.524 . S
C2863 C2867 1.400 . S
C2864 H2849 0.960 . S
C2864 H2850 0.960 . S
C2864 H2851 0.960 . S
C2864 C2863 1.524 . S
C2865 C2862 1.403 . S
C2865 C2866 1.392 . S
C2865 C2869 1.495 . S
C2866 C2865 1.392 . S
C2866 C2867 1.385 . S
C2866 C2868 1.478 . S
C2867 H2861 0.930 . S
C2867 C2863 1.400 . S
C2867 C2866 1.385 . S
C2868 C2866 1.478 . S
C2868 C2870 1.381 . S
C2868 C2874 1.383 . S
C2869 C2865 1.495 . S
C2869 H2875 0.959 . S
C2869 H2876 0.961 . S
C2869 H2877 0.960 . S
C2870 C2868 1.381 . S
C2870 C2871 1.394 . S
C2870 H2878 0.930 . S
C2871 C2870 1.394 . S
C2871 C2872 1.383 . S
C2871 H2879 0.929 . S
C2872 C2871 1.383 . S
C2872 C2873 1.377 . S
C2873 H2857 0.930 . S
C2873 C2872 1.377 . S
C2873 C2874 1.379 . S
C2874 H2858 0.931 . S
C2874 C2868 1.383 . S
C2874 C2873 1.379 . S
H2875 C2869 0.959 . S
H2876 C2869 0.961 . S
H2877 C2869 0.960 . S
H2878 C2870 0.930 . S
H2879 C2871 0.929 . S
H2880 C2888 0.929 . S
H2881 C2890 0.930 . S
H2882 C2892 0.930 . S
H2883 C2895 0.929 . S
H2884 C2898 0.930 . S
H2885 C2900 0.960 . S
H2886 C2900 0.960 . S
H2887 C2900 0.960 . S
C2888 H2880 0.929 . S
C2888 C2889 1.377 . S
C2888 C2890 1.384 . S
C2889 C2888 1.377 . S
C2889 C2895 1.390 . S
C2890 H2881 0.930 . S
C2890 C2888 1.384 . S
C2890 C2891 1.372 . S
C2891 C2890 1.372 . S
C2891 C2892 1.400 . S
C2891 C2896 1.490 . S
C2892 H2882 0.930 . S
C2892 C2891 1.400 . S
C2892 C2895 1.386 . S
H2893 C2909 0.930 . S
H2894 C2910 0.931 . S
C2895 H2883 0.929 . S
C2895 C2889 1.390 . S
C2895 C2892 1.386 . S
C2896 C2891 1.490 . S
C2896 C2898 1.395 . S
C2896 C2899 1.403 . S
H2897 C2903 0.930 . S
C2898 H2884 0.930 . S
C2898 C2896 1.395 . S
C2898 C2901 1.403 . S
C2899 C2896 1.403 . S
C2899 C2900 1.524 . S
C2899 C2903 1.400 . S
C2900 H2885 0.960 . S
C2900 H2886 0.960 . S
C2900 H2887 0.960 . S
C2900 C2899 1.524 . S
C2901 C2898 1.403 . S
C2901 C2902 1.392 . S
C2901 C2905 1.495 . S
C2902 C2901 1.392 . S
C2902 C2903 1.385 . S
C2902 C2904 1.478 . S
C2903 H2897 0.930 . S
C2903 C2899 1.400 . S
C2903 C2902 1.385 . S
C2904 C2902 1.478 . S
C2904 C2906 1.381 . S
C2904 C2910 1.383 . S
C2905 C2901 1.495 . S
C2905 H2911 0.959 . S
C2905 H2912 0.961 . S
C2905 H2913 0.960 . S
C2906 C2904 1.381 . S
C2906 C2907 1.394 . S
C2906 H2914 0.930 . S
C2907 C2906 1.394 . S
C2907 C2908 1.383 . S
C2907 H2915 0.929 . S
C2908 C2907 1.383 . S
C2908 C2909 1.377 . S
C2909 H2893 0.930 . S
C2909 C2908 1.377 . S
C2909 C2910 1.379 . S
C2910 H2894 0.931 . S
C2910 C2904 1.383 . S
C2910 C2909 1.379 . S
H2911 C2905 0.959 . S
H2912 C2905 0.961 . S
H2913 C2905 0.960 . S
H2914 C2906 0.930 . S
H2915 C2907 0.929 . S
H2916 C2924 0.929 . S
H2917 C2926 0.930 . S
H2918 C2928 0.930 1_655 S
H2919 C2931 0.929 1_655 S
H2920 C2934 0.930 . S
H2921 C2936 0.960 1_655 S
H2922 C2936 0.960 . S
H2923 C2936 0.960 1_655 S
C2924 H2916 0.929 . S
C2924 C2925 1.377 . S
C2924 C2926 1.384 . S
C2925 C2924 1.377 . S
C2925 C2931 1.390 . S
C2926 H2917 0.930 . S
C2926 C2924 1.384 . S
C2926 C2927 1.372 . S
C2927 C2926 1.372 . S
C2927 C2928 1.400 . S
C2927 C2932 1.490 . S
C2928 H2918 0.930 1_455 S
C2928 C2927 1.400 . S
C2928 C2931 1.386 . S
H2929 C2945 0.930 . S
H2930 C2946 0.931 . S
C2931 H2919 0.929 1_455 S
C2931 C2925 1.390 . S
C2931 C2928 1.386 . S
C2932 C2927 1.490 . S
C2932 C2934 1.395 . S
C2932 C2935 1.403 . S
H2933 C2939 0.994 . S
C2934 H2920 0.930 . S
C2934 C2932 1.395 . S
C2934 C2937 1.403 . S
C2935 C2932 1.403 . S
C2935 C2936 1.524 . S
C2935 C2939 1.400 . S
C2936 H2921 0.960 1_455 S
C2936 H2922 0.960 . S
C2936 H2923 0.960 1_455 S
C2936 C2935 1.524 . S
C2937 C2934 1.403 . S
C2937 C2938 1.392 . S
C2937 C2941 1.495 . S
C2938 C2937 1.392 . S
C2938 C2939 1.385 . S
C2938 C2940 1.478 . S
C2939 H2933 0.994 . S
C2939 C2935 1.400 . S
C2939 C2938 1.385 . S
C2940 C2938 1.478 . S
C2940 C2942 1.381 . S
C2940 C2946 1.383 1_455 S
C2941 C2937 1.495 . S
C2941 H2947 0.959 . S
C2941 H2948 0.961 . S
C2941 H2949 0.960 . S
C2942 C2940 1.381 . S
C2942 C2943 1.394 . S
C2942 H2950 0.930 . S
C2943 C2942 1.394 . S
C2943 C2944 1.383 . S
C2943 H2951 0.929 . S
C2944 C2943 1.383 . S
C2944 C2945 1.377 1_455 S
C2945 H2929 0.930 . S
C2945 C2944 1.377 1_655 S
C2945 C2946 1.379 . S
C2946 H2930 0.931 . S
C2946 C2940 1.383 1_655 S
C2946 C2945 1.379 . S
H2947 C2941 0.959 . S
H2948 C2941 0.961 . S
H2949 C2941 0.960 . S
H2950 C2942 0.930 . S
H2951 C2943 0.929 . S
H2952 C2960 0.929 . S
H2953 C2962 0.930 . S
H2954 C2964 0.930 . S
H2955 C2967 0.929 . S
H2956 C2970 0.930 . S
H2957 C2972 0.960 . S
H2958 C2972 0.960 . S
H2959 C2972 0.960 . S
C2960 H2952 0.929 . S
C2960 C2961 1.377 . S
C2960 C2962 1.384 . S
C2961 C2960 1.377 . S
C2961 C2967 1.390 . S
C2962 H2953 0.930 . S
C2962 C2960 1.384 . S
C2962 C2963 1.372 . S
C2963 C2962 1.372 . S
C2963 C2964 1.400 . S
C2963 C2968 1.490 . S
C2964 H2954 0.930 . S
C2964 C2963 1.400 . S
C2964 C2967 1.386 . S
H2965 C2981 0.930 . S
H2966 C2982 0.931 . S
C2967 H2955 0.929 . S
C2967 C2961 1.390 . S
C2967 C2964 1.386 . S
C2968 C2963 1.490 . S
C2968 C2970 1.395 . S
C2968 C2971 1.403 . S
H2969 C2975 0.930 . S
C2970 H2956 0.930 . S
C2970 C2968 1.395 . S
C2970 C2973 1.403 . S
C2971 C2968 1.403 . S
C2971 C2972 1.524 . S
C2971 C2975 1.400 . S
C2972 H2957 0.960 . S
C2972 H2958 0.960 . S
C2972 H2959 0.960 . S
C2972 C2971 1.524 . S
C2973 C2970 1.403 . S
C2973 C2974 1.392 . S
C2973 C2977 1.495 . S
C2974 C2973 1.392 . S
C2974 C2975 1.385 . S
C2974 C2976 1.478 . S
C2975 H2969 0.930 . S
C2975 C2971 1.400 . S
C2975 C2974 1.385 . S
C2976 C2974 1.478 . S
C2976 C2978 1.381 . S
C2976 C2982 1.383 . S
C2977 C2973 1.495 . S
C2977 H2983 0.959 . S
C2977 H2984 0.961 . S
C2977 H2985 0.960 . S
C2978 C2976 1.381 . S
C2978 C2979 1.394 . S
C2978 H2986 0.930 . S
C2979 C2978 1.394 . S
C2979 C2980 1.383 . S
C2979 H2987 0.929 . S
C2980 C2979 1.383 . S
C2980 C2981 1.377 . S
C2981 H2965 0.930 . S
C2981 C2980 1.377 . S
C2981 C2982 1.379 . S
C2982 H2966 0.931 . S
C2982 C2976 1.383 . S
C2982 C2981 1.379 . S
H2983 C2977 0.959 . S
H2984 C2977 0.961 . S
H2985 C2977 0.960 . S
H2986 C2978 0.930 . S
H2987 C2979 0.929 . S
H2988 C2996 0.929 . S
H2989 C2998 0.919 1_545 S
H2990 C3000 0.930 . S
H2991 C3003 0.929 . S
H2992 C3006 0.930 . S
H2993 C3008 0.960 . S
H2994 C3008 0.960 . S
H2995 C3008 0.960 . S
C2996 H2988 0.929 . S
C2996 C2997 1.377 . S
C2996 C2998 1.384 . S
C2997 C2996 1.377 . S
C2997 C3003 1.390 . S
C2998 H2989 0.919 1_565 S
C2998 C2996 1.384 . S
C2998 C2999 1.372 . S
C2999 C2998 1.372 . S
C2999 C3000 1.400 . S
C2999 C3004 1.490 . S
C3000 H2990 0.930 . S
C3000 C2999 1.400 . S
C3000 C3003 1.386 . S
H3001 C3017 0.930 . S
H3002 C3018 0.931 . S
C3003 H2991 0.929 . S
C3003 C2997 1.390 . S
C3003 C3000 1.386 . S
C3004 C2999 1.490 . S
C3004 C3006 1.395 1_565 S
C3004 C3007 1.403 . S
H3005 C3011 0.930 . S
C3006 H2992 0.930 . S
C3006 C3004 1.395 1_545 S
C3006 C3009 1.403 . S
C3007 C3004 1.403 . S
C3007 C3008 1.524 . S
C3007 C3011 1.400 . S
C3008 H2993 0.960 . S
C3008 H2994 0.960 . S
C3008 H2995 0.960 . S
C3008 C3007 1.524 . S
C3009 C3006 1.403 . S
C3009 C3010 1.392 1_545 S
C3009 C3013 1.495 . S
C3010 C3009 1.392 1_565 S
C3010 C3011 1.385 . S
C3010 C3012 1.478 . S
C3011 H3005 0.930 . S
C3011 C3007 1.400 . S
C3011 C3010 1.385 . S
C3012 C3010 1.478 . S
C3012 C3014 1.381 1_565 S
C3012 C3018 1.383 . S
C3013 C3009 1.495 . S
C3013 H3019 0.959 . S
C3013 H3020 0.961 . S
C3013 H3021 0.960 . S
C3014 C3012 1.381 1_545 S
C3014 C3015 1.394 . S
C3014 H3022 0.930 . S
C3015 C3014 1.394 . S
C3015 C3016 1.383 1_545 S
C3015 H3023 0.929 . S
C3016 C3015 1.383 1_565 S
C3016 C3017 1.377 . S
C3017 H3001 0.930 . S
C3017 C3016 1.377 . S
C3017 C3018 1.379 . S
C3018 H3002 0.931 . S
C3018 C3012 1.383 . S
C3018 C3017 1.379 . S
H3019 C3013 0.959 . S
H3020 C3013 0.961 . S
H3021 C3013 0.960 . S
H3022 C3014 0.930 . S
H3023 C3015 0.929 . S
H3024 C3032 0.929 1_545 S
H3025 C3034 0.877 1_545 S
H3026 C3036 0.930 . S
H3027 C3039 0.929 . S
H3028 C3042 0.930 . S
H3029 C3044 0.960 . S
H3030 C3044 0.960 . S
H3031 C3044 0.960 . S
C3032 H3024 0.929 1_565 S
C3032 C3033 1.377 . S
C3032 C3034 1.416 . S
C3033 C3032 1.377 . S
C3033 C3039 1.390 . S
C3034 H3025 0.877 1_565 S
C3034 C3032 1.416 . S
C3034 C3035 1.394 . S
C3035 C3034 1.394 . S
C3035 C3036 1.400 . S
C3035 C3040 1.490 . S
C3036 H3026 0.930 . S
C3036 C3035 1.400 . S
C3036 C3039 1.386 . S
H3037 C3053 0.930 . S
H3038 C3054 0.931 . S
C3039 H3027 0.929 . S
C3039 C3033 1.390 . S
C3039 C3036 1.386 . S
C3040 C3035 1.490 . S
C3040 C3042 1.395 . S
C3040 C3043 1.403 . S
H3041 C3047 0.930 . S
C3042 H3028 0.930 . S
C3042 C3040 1.395 . S
C3042 C3045 1.403 . S
C3043 C3040 1.403 . S
C3043 C3044 1.524 . S
C3043 C3047 1.400 . S
C3044 H3029 0.960 . S
C3044 H3030 0.960 . S
C3044 H3031 0.960 . S
C3044 C3043 1.524 . S
C3045 C3042 1.403 . S
C3045 C3046 1.392 . S
C3045 C3049 1.495 1_565 S
C3046 C3045 1.392 . S
C3046 C3047 1.385 . S
C3046 C3048 1.478 . S
C3047 H3041 0.930 . S
C3047 C3043 1.400 . S
C3047 C3046 1.385 . S
C3048 C3046 1.478 . S
C3048 C3050 1.381 1_565 S
C3048 C3054 1.383 . S
C3049 C3045 1.495 1_545 S
C3049 H3055 0.959 . S
C3049 H3056 0.961 1_545 S
C3049 H3057 0.960 . S
C3050 C3048 1.381 1_545 S
C3050 C3051 1.394 . S
C3050 H3058 0.930 . S
C3051 C3050 1.394 . S
C3051 C3052 1.383 1_545 S
C3051 H3059 0.929 . S
C3052 C3051 1.383 1_565 S
C3052 C3053 1.377 . S
C3053 H3037 0.930 . S
C3053 C3052 1.377 . S
C3053 C3054 1.379 . S
C3054 H3038 0.931 . S
C3054 C3048 1.383 . S
C3054 C3053 1.379 . S
H3055 C3049 0.959 . S
H3056 C3049 0.961 1_565 S
H3057 C3049 0.960 . S
H3058 C3050 0.930 . S
H3059 C3051 0.929 . S
H3060 C3068 0.929 . S
H3061 C3070 0.930 . S
H3062 C3072 0.930 . S
H3063 C3075 0.929 . S
H3064 C3078 0.954 . S
H3065 C3080 0.960 . S
H3066 C3080 0.960 . S
H3067 C3080 0.960 . S
C3068 H3060 0.929 . S
C3068 C3069 1.377 . S
C3068 C3070 1.384 . S
C3069 C3068 1.377 . S
C3069 C3075 1.390 . S
C3070 H3061 0.930 . S
C3070 C3068 1.384 . S
C3070 C3071 1.372 . S
C3071 C3070 1.372 . S
C3071 C3072 1.400 . S
C3071 C3076 1.490 . S
C3072 H3062 0.930 . S
C3072 C3071 1.400 . S
C3072 C3075 1.386 . S
H3073 C3089 0.930 . S
H3074 C3090 0.931 . S
C3075 H3063 0.929 . S
C3075 C3069 1.390 . S
C3075 C3072 1.386 . S
C3076 C3071 1.490 . S
C3076 C3078 1.395 . S
C3076 C3079 1.403 . S
H3077 C3083 0.930 . S
C3078 H3064 0.954 . S
C3078 C3076 1.395 . S
C3078 C3081 1.403 . S
C3079 C3076 1.403 . S
C3079 C3080 1.524 . S
C3079 C3083 1.400 . S
C3080 H3065 0.960 . S
C3080 H3066 0.960 . S
C3080 H3067 0.960 . S
C3080 C3079 1.524 . S
C3081 C3078 1.403 . S
C3081 C3082 1.392 . S
C3081 C3085 1.495 1_455 S
C3082 C3081 1.392 . S
C3082 C3083 1.385 . S
C3082 C3084 1.478 . S
C3083 H3077 0.930 . S
C3083 C3079 1.400 . S
C3083 C3082 1.385 . S
C3084 C3082 1.478 . S
C3084 C3086 1.381 . S
C3084 C3090 1.383 1_455 S
C3085 C3081 1.495 1_655 S
C3085 H3091 0.959 . S
C3085 H3092 0.961 . S
C3085 H3093 0.960 . S
C3086 C3084 1.381 . S
C3086 C3087 1.394 . S
C3086 H3094 0.930 . S
C3087 C3086 1.394 . S
C3087 C3088 1.383 . S
C3087 H3095 0.929 . S
C3088 C3087 1.383 . S
C3088 C3089 1.377 1_455 S
C3089 H3073 0.930 . S
C3089 C3088 1.377 1_655 S
C3089 C3090 1.379 . S
C3090 H3074 0.931 . S
C3090 C3084 1.383 1_655 S
C3090 C3089 1.379 . S
H3091 C3085 0.959 . S
H3092 C3085 0.961 . S
H3093 C3085 0.960 . S
H3094 C3086 0.930 . S
H3095 C3087 0.929 . S
H3096 C3104 0.929 . S
H3097 C3106 0.930 . S
H3098 C3108 0.930 . S
H3099 C3111 0.929 . S
H3100 C3114 0.930 . S
H3101 C3116 0.960 . S
H3102 C3116 0.960 . S
H3103 C3116 0.960 . S
C3104 H3096 0.929 . S
C3104 C3105 1.377 . S
C3104 C3106 1.384 . S
C3105 C3104 1.377 . S
C3105 C3111 1.390 . S
C3106 H3097 0.930 . S
C3106 C3104 1.384 . S
C3106 C3107 1.372 . S
C3107 C3106 1.372 . S
C3107 C3108 1.400 . S
C3107 C3112 1.490 . S
C3108 H3098 0.930 . S
C3108 C3107 1.400 . S
C3108 C3111 1.386 . S
H3109 C3125 0.930 . S
H3110 C3126 0.931 . S
C3111 H3099 0.929 . S
C3111 C3105 1.390 . S
C3111 C3108 1.386 . S
C3112 C3107 1.490 . S
C3112 C3114 1.395 . S
C3112 C3115 1.403 . S
H3113 C3119 0.930 . S
C3114 H3100 0.930 . S
C3114 C3112 1.395 . S
C3114 C3117 1.403 . S
C3115 C3112 1.403 . S
C3115 C3116 1.524 . S
C3115 C3119 1.400 . S
C3116 H3101 0.960 . S
C3116 H3102 0.960 . S
C3116 H3103 0.960 . S
C3116 C3115 1.524 . S
C3117 C3114 1.403 . S
C3117 C3118 1.392 . S
C3117 C3121 1.495 . S
C3118 C3117 1.392 . S
C3118 C3119 1.385 . S
C3118 C3120 1.478 . S
C3119 H3113 0.930 . S
C3119 C3115 1.400 . S
C3119 C3118 1.385 . S
C3120 C3118 1.478 . S
C3120 C3122 1.381 . S
C3120 C3126 1.383 . S
C3121 C3117 1.495 . S
C3121 H3127 0.959 . S
C3121 H3128 0.961 . S
C3121 H3129 0.960 . S
C3122 C3120 1.381 . S
C3122 C3123 1.394 . S
C3122 H3130 0.930 . S
C3123 C3122 1.394 . S
C3123 C3124 1.383 . S
C3123 H3131 0.929 . S
C3124 C3123 1.383 . S
C3124 C3125 1.377 . S
C3125 H3109 0.930 . S
C3125 C3124 1.377 . S
C3125 C3126 1.379 . S
C3126 H3110 0.931 . S
C3126 C3120 1.383 . S
C3126 C3125 1.379 . S
H3127 C3121 0.959 . S
H3128 C3121 0.961 . S
H3129 C3121 0.960 . S
H3130 C3122 0.930 . S
H3131 C3123 0.929 . S
H3132 C3140 0.929 . S
H3133 C3142 0.930 . S
H3134 C3144 0.930 . S
H3135 C3147 0.929 . S
H3136 C3150 0.930 . S
H3137 C3152 0.960 . S
H3138 C3152 0.960 . S
H3139 C3152 0.960 . S
C3140 H3132 0.929 . S
C3140 C3141 1.377 . S
C3140 C3142 1.384 . S
C3141 C3140 1.377 . S
C3141 C3147 1.390 . S
C3142 H3133 0.930 . S
C3142 C3140 1.384 . S
C3142 C3143 1.372 . S
C3143 C3142 1.372 . S
C3143 C3144 1.400 . S
C3143 C3148 1.490 . S
C3144 H3134 0.930 . S
C3144 C3143 1.400 . S
C3144 C3147 1.386 . S
H3145 C3161 0.930 . S
H3146 C3162 0.931 . S
C3147 H3135 0.929 . S
C3147 C3141 1.390 . S
C3147 C3144 1.386 . S
C3148 C3143 1.490 . S
C3148 C3150 1.395 . S
C3148 C3151 1.403 . S
H3149 C3155 0.930 . S
C3150 H3136 0.930 . S
C3150 C3148 1.395 . S
C3150 C3153 1.403 . S
C3151 C3148 1.403 . S
C3151 C3152 1.524 . S
C3151 C3155 1.400 . S
C3152 H3137 0.960 . S
C3152 H3138 0.960 . S
C3152 H3139 0.960 . S
C3152 C3151 1.524 . S
C3153 C3150 1.403 . S
C3153 C3154 1.392 . S
C3153 C3157 1.495 . S
C3154 C3153 1.392 . S
C3154 C3155 1.385 . S
C3154 C3156 1.478 . S
C3155 H3149 0.930 . S
C3155 C3151 1.400 . S
C3155 C3154 1.385 . S
C3156 C3154 1.478 . S
C3156 C3158 1.381 . S
C3156 C3162 1.383 . S
C3157 C3153 1.495 . S
C3157 H3163 0.959 . S
C3157 H3164 0.961 . S
C3157 H3165 0.960 . S
C3158 C3156 1.381 . S
C3158 C3159 1.394 . S
C3158 H3166 0.930 . S
C3159 C3158 1.394 . S
C3159 C3160 1.383 . S
C3159 H3167 0.929 . S
C3160 C3159 1.383 . S
C3160 C3161 1.377 . S
C3161 H3145 0.930 . S
C3161 C3160 1.377 . S
C3161 C3162 1.379 . S
C3162 H3146 0.931 . S
C3162 C3156 1.383 . S
C3162 C3161 1.379 . S
H3163 C3157 0.959 . S
H3164 C3157 0.961 . S
H3165 C3157 0.960 . S
H3166 C3158 0.930 . S
H3167 C3159 0.929 . S
H3168 C3176 0.929 . S
H3169 C3178 0.930 . S
H3170 C3180 0.930 . S
H3171 C3183 0.929 . S
H3172 C3186 0.930 . S
H3173 C3188 0.960 . S
H3174 C3188 0.960 . S
H3175 C3188 0.960 . S
C3176 H3168 0.929 . S
C3176 C3177 1.377 . S
C3176 C3178 1.384 . S
C3177 C3176 1.377 . S
C3177 C3183 1.390 . S
C3178 H3169 0.930 . S
C3178 C3176 1.384 . S
C3178 C3179 1.372 . S
C3179 C3178 1.372 . S
C3179 C3180 1.400 . S
C3179 C3184 1.490 . S
C3180 H3170 0.930 . S
C3180 C3179 1.400 . S
C3180 C3183 1.386 . S
H3181 C3197 0.930 . S
H3182 C3198 0.931 . S
C3183 H3171 0.929 . S
C3183 C3177 1.390 . S
C3183 C3180 1.386 . S
C3184 C3179 1.490 . S
C3184 C3186 1.395 . S
C3184 C3187 1.403 . S
H3185 C3191 0.930 . S
C3186 H3172 0.930 . S
C3186 C3184 1.395 . S
C3186 C3189 1.403 . S
C3187 C3184 1.403 . S
C3187 C3188 1.524 . S
C3187 C3191 1.400 . S
C3188 H3173 0.960 . S
C3188 H3174 0.960 . S
C3188 H3175 0.960 . S
C3188 C3187 1.524 . S
C3189 C3186 1.403 . S
C3189 C3190 1.392 . S
C3189 C3193 1.495 . S
C3190 C3189 1.392 . S
C3190 C3191 1.385 . S
C3190 C3192 1.478 . S
C3191 H3185 0.930 . S
C3191 C3187 1.400 . S
C3191 C3190 1.385 . S
C3192 C3190 1.478 . S
C3192 C3194 1.381 . S
C3192 C3198 1.383 . S
C3193 C3189 1.495 . S
C3193 H3199 0.959 . S
C3193 H3200 0.961 . S
C3193 H3201 0.960 . S
C3194 C3192 1.381 . S
C3194 C3195 1.394 . S
C3194 H3202 0.930 . S
C3195 C3194 1.394 . S
C3195 C3196 1.383 . S
C3195 H3203 0.929 . S
C3196 C3195 1.383 . S
C3196 C3197 1.377 . S
C3197 H3181 0.930 . S
C3197 C3196 1.377 . S
C3197 C3198 1.379 . S
C3198 H3182 0.931 . S
C3198 C3192 1.383 . S
C3198 C3197 1.379 . S
H3199 C3193 0.959 . S
H3200 C3193 0.961 . S
H3201 C3193 0.960 . S
H3202 C3194 0.930 . S
H3203 C3195 0.929 . S
H3204 C3212 0.929 . S
H3205 C3214 0.930 . S
H3206 C3216 0.930 . S
H3207 C3219 0.929 . S
H3208 C3222 0.930 . S
H3209 C3224 0.960 . S
H3210 C3224 0.960 . S
H3211 C3224 0.960 . S
C3212 H3204 0.929 . S
C3212 C3213 1.377 . S
C3212 C3214 1.384 . S
C3213 C3212 1.377 . S
C3213 C3219 1.390 . S
C3214 H3205 0.930 . S
C3214 C3212 1.384 . S
C3214 C3215 1.372 . S
C3215 C3214 1.372 . S
C3215 C3216 1.400 . S
C3215 C3220 1.490 . S
C3216 H3206 0.930 . S
C3216 C3215 1.400 . S
C3216 C3219 1.386 . S
H3217 C3233 0.930 . S
H3218 C3234 0.931 . S
C3219 H3207 0.929 . S
C3219 C3213 1.390 . S
C3219 C3216 1.386 . S
C3220 C3215 1.490 . S
C3220 C3222 1.395 . S
C3220 C3223 1.403 . S
H3221 C3227 0.930 . S
C3222 H3208 0.930 . S
C3222 C3220 1.395 . S
C3222 C3225 1.403 . S
C3223 C3220 1.403 . S
C3223 C3224 1.524 . S
C3223 C3227 1.400 . S
C3224 H3209 0.960 . S
C3224 H3210 0.960 . S
C3224 H3211 0.960 . S
C3224 C3223 1.524 . S
C3225 C3222 1.403 . S
C3225 C3226 1.392 . S
C3225 C3229 1.495 . S
C3226 C3225 1.392 . S
C3226 C3227 1.385 . S
C3226 C3228 1.478 . S
C3227 H3221 0.930 . S
C3227 C3223 1.400 . S
C3227 C3226 1.385 . S
C3228 C3226 1.478 . S
C3228 C3230 1.381 . S
C3228 C3234 1.383 . S
C3229 C3225 1.495 . S
C3229 H3235 0.959 . S
C3229 H3236 0.961 . S
C3229 H3237 0.960 . S
C3230 C3228 1.381 . S
C3230 C3231 1.394 . S
C3230 H3238 0.930 . S
C3231 C3230 1.394 . S
C3231 C3232 1.383 . S
C3231 H3239 0.929 . S
C3232 C3231 1.383 . S
C3232 C3233 1.377 . S
C3233 H3217 0.930 . S
C3233 C3232 1.377 . S
C3233 C3234 1.379 . S
C3234 H3218 0.931 . S
C3234 C3228 1.383 . S
C3234 C3233 1.379 . S
H3235 C3229 0.959 . S
H3236 C3229 0.961 . S
H3237 C3229 0.960 . S
H3238 C3230 0.930 . S
H3239 C3231 0.929 . S
H3240 C3248 0.929 . S
H3241 C3250 0.930 . S
H3242 C3252 0.922 1_565 S
H3243 C3255 0.929 . S
H3244 C3258 0.930 . S
H3245 C3260 0.960 . S
H3246 C3260 0.960 . S
H3247 C3260 0.960 . S
C3248 H3240 0.929 . S
C3248 C3249 1.377 . S
C3248 C3250 1.384 . S
C3249 C3248 1.377 . S
C3249 C3255 1.390 . S
C3250 H3241 0.930 . S
C3250 C3248 1.384 . S
C3250 C3251 1.372 . S
C3251 C3250 1.372 . S
C3251 C3252 1.400 . S
C3251 C3256 1.490 . S
C3252 H3242 0.922 1_545 S
C3252 C3251 1.400 . S
C3252 C3255 1.386 . S
H3253 C3269 0.930 . S
H3254 C3270 0.931 . S
C3255 H3243 0.929 . S
C3255 C3249 1.390 . S
C3255 C3252 1.386 . S
C3256 C3251 1.490 . S
C3256 C3258 1.395 . S
C3256 C3259 1.403 . S
H3257 C3263 0.930 . S
C3258 H3244 0.930 . S
C3258 C3256 1.395 . S
C3258 C3261 1.403 . S
C3259 C3256 1.403 . S
C3259 C3260 1.524 . S
C3259 C3263 1.400 . S
C3260 H3245 0.960 . S
C3260 H3246 0.960 . S
C3260 H3247 0.960 . S
C3260 C3259 1.524 . S
C3261 C3258 1.403 . S
C3261 C3262 1.392 . S
C3261 C3265 1.495 . S
C3262 C3261 1.392 . S
C3262 C3263 1.385 . S
C3262 C3264 1.478 . S
C3263 H3257 0.930 . S
C3263 C3259 1.400 . S
C3263 C3262 1.385 . S
C3264 C3262 1.478 . S
C3264 C3266 1.381 . S
C3264 C3270 1.383 1_545 S
C3265 C3261 1.495 . S
C3265 H3271 0.945 . S
C3265 H3272 0.961 1_545 S
C3265 H3273 0.960 . S
C3266 C3264 1.381 . S
C3266 C3267 1.394 . S
C3266 H3274 0.930 . S
C3267 C3266 1.394 . S
C3267 C3268 1.383 . S
C3267 H3275 0.929 . S
C3268 C3267 1.383 . S
C3268 C3269 1.377 1_545 S
C3269 H3253 0.930 . S
C3269 C3268 1.377 1_565 S
C3269 C3270 1.379 . S
C3270 H3254 0.931 . S
C3270 C3264 1.383 1_565 S
C3270 C3269 1.379 . S
H3271 C3265 0.945 . S
H3272 C3265 0.961 1_565 S
H3273 C3265 0.960 . S
H3274 C3266 0.930 . S
H3275 C3267 0.929 . S
H3276 C3284 0.929 . S
H3277 C3286 0.930 . S
H3278 C3288 0.930 . S
H3279 C3291 0.929 . S
H3280 C3294 0.930 . S
H3281 C3296 0.960 . S
H3282 C3296 0.960 . S
H3283 C3296 0.960 . S
C3284 H3276 0.929 . S
C3284 C3285 1.377 . S
C3284 C3286 1.384 . S
C3285 C3284 1.377 . S
C3285 C3291 1.390 . S
C3286 H3277 0.930 . S
C3286 C3284 1.384 . S
C3286 C3287 1.372 . S
C3287 C3286 1.372 . S
C3287 C3288 1.400 . S
C3287 C3292 1.490 . S
C3288 H3278 0.930 . S
C3288 C3287 1.400 . S
C3288 C3291 1.386 . S
H3289 C3305 0.930 . S
H3290 C3306 0.931 . S
C3291 H3279 0.929 . S
C3291 C3285 1.390 . S
C3291 C3288 1.386 . S
C3292 C3287 1.490 . S
C3292 C3294 1.395 1_655 S
C3292 C3295 1.403 . S
H3293 C3299 0.930 . S
C3294 H3280 0.930 . S
C3294 C3292 1.395 1_455 S
C3294 C3297 1.403 . S
C3295 C3292 1.403 . S
C3295 C3296 1.524 . S
C3295 C3299 1.400 . S
C3296 H3281 0.960 . S
C3296 H3282 0.960 . S
C3296 H3283 0.960 . S
C3296 C3295 1.524 . S
C3297 C3294 1.403 . S
C3297 C3298 1.392 1_455 S
C3297 C3301 1.495 . S
C3298 C3297 1.392 1_655 S
C3298 C3299 1.385 . S
C3298 C3300 1.478 . S
C3299 H3293 0.930 . S
C3299 C3295 1.400 . S
C3299 C3298 1.385 . S
C3300 C3298 1.478 . S
C3300 C3302 1.388 . S
C3300 C3306 1.383 . S
C3301 C3297 1.495 . S
C3301 H3307 0.959 . S
C3301 H3308 0.961 . S
C3301 H3309 0.960 . S
C3302 C3300 1.388 . S
C3302 C3303 1.410 . S
C3302 H3310 0.892 . S
C3303 C3302 1.410 . S
C3303 C3304 1.404 . S
C3303 H3311 0.928 1_655 S
C3304 C3303 1.404 . S
C3304 C3305 1.377 . S
C3305 H3289 0.930 . S
C3305 C3304 1.377 . S
C3305 C3306 1.379 . S
C3306 H3290 0.931 . S
C3306 C3300 1.383 . S
C3306 C3305 1.379 . S
H3307 C3301 0.959 . S
H3308 C3301 0.961 . S
H3309 C3301 0.960 . S
H3310 C3302 0.892 . S
H3311 C3303 0.928 1_455 S
H3312 C3320 0.929 . S
H3313 C3322 0.930 . S
H3314 C3324 0.930 . S
H3315 C3327 0.929 . S
H3316 C3330 0.930 . S
H3317 C3332 0.960 . S
H3318 C3332 0.960 . S
H3319 C3332 0.960 . S
C3320 H3312 0.929 . S
C3320 C3321 1.377 . S
C3320 C3322 1.384 . S
C3321 C3320 1.377 . S
C3321 C3327 1.390 . S
C3322 H3313 0.930 . S
C3322 C3320 1.384 . S
C3322 C3323 1.372 . S
C3323 C3322 1.372 . S
C3323 C3324 1.400 . S
C3323 C3328 1.490 . S
C3324 H3314 0.930 . S
C3324 C3323 1.400 . S
C3324 C3327 1.386 . S
H3325 C3341 0.930 . S
H3326 C3342 0.931 . S
C3327 H3315 0.929 . S
C3327 C3321 1.390 . S
C3327 C3324 1.386 . S
C3328 C3323 1.490 . S
C3328 C3330 1.395 . S
C3328 C3331 1.403 . S
H3329 C3335 0.930 . S
C3330 H3316 0.930 . S
C3330 C3328 1.395 . S
C3330 C3333 1.403 . S
C3331 C3328 1.403 . S
C3331 C3332 1.524 . S
C3331 C3335 1.400 . S
C3332 H3317 0.960 . S
C3332 H3318 0.960 . S
C3332 H3319 0.960 . S
C3332 C3331 1.524 . S
C3333 C3330 1.403 . S
C3333 C3334 1.392 . S
C3333 C3337 1.495 . S
C3334 C3333 1.392 . S
C3334 C3335 1.385 . S
C3334 C3336 1.478 . S
C3335 H3329 0.930 . S
C3335 C3331 1.400 . S
C3335 C3334 1.385 . S
C3336 C3334 1.478 . S
C3336 C3338 1.381 . S
C3336 C3342 1.383 . S
C3337 C3333 1.495 . S
C3337 H3343 0.959 . S
C3337 H3344 0.961 . S
C3337 H3345 0.960 . S
C3338 C3336 1.381 . S
C3338 C3339 1.394 . S
C3338 H3346 0.930 . S
C3339 C3338 1.394 . S
C3339 C3340 1.383 . S
C3339 H3347 0.929 . S
C3340 C3339 1.383 . S
C3340 C3341 1.377 . S
C3341 H3325 0.930 . S
C3341 C3340 1.377 . S
C3341 C3342 1.379 . S
C3342 H3326 0.931 . S
C3342 C3336 1.383 . S
C3342 C3341 1.379 . S
H3343 C3337 0.959 . S
H3344 C3337 0.961 . S
H3345 C3337 0.960 . S
H3346 C3338 0.930 . S
H3347 C3339 0.929 . S
H3348 C3356 0.929 . S
H3349 C3358 0.930 . S
H3350 C3360 0.930 . S
H3351 C3363 0.929 . S
H3352 C3366 0.930 . S
H3353 C3368 0.960 . S
H3354 C3368 0.960 . S
H3355 C3368 0.960 . S
C3356 H3348 0.929 . S
C3356 C3357 1.377 . S
C3356 C3358 1.384 . S
C3357 C3356 1.377 . S
C3357 C3363 1.390 . S
C3358 H3349 0.930 . S
C3358 C3356 1.384 . S
C3358 C3359 1.372 . S
C3359 C3358 1.372 . S
C3359 C3360 1.400 . S
C3359 C3364 1.490 . S
C3360 H3350 0.930 . S
C3360 C3359 1.400 . S
C3360 C3363 1.386 . S
H3361 C3377 0.930 . S
H3362 C3378 0.931 . S
C3363 H3351 0.929 . S
C3363 C3357 1.390 . S
C3363 C3360 1.386 . S
C3364 C3359 1.490 . S
C3364 C3366 1.395 . S
C3364 C3367 1.403 . S
H3365 C3371 0.930 . S
C3366 H3352 0.930 . S
C3366 C3364 1.395 . S
C3366 C3369 1.403 . S
C3367 C3364 1.403 . S
C3367 C3368 1.524 . S
C3367 C3371 1.400 . S
C3368 H3353 0.960 . S
C3368 H3354 0.960 . S
C3368 H3355 0.960 . S
C3368 C3367 1.524 . S
C3369 C3366 1.403 . S
C3369 C3370 1.392 . S
C3369 C3373 1.495 . S
C3370 C3369 1.392 . S
C3370 C3371 1.385 . S
C3370 C3372 1.478 . S
C3371 H3365 0.930 . S
C3371 C3367 1.400 . S
C3371 C3370 1.385 . S
C3372 C3370 1.478 . S
C3372 C3374 1.381 . S
C3372 C3378 1.383 . S
C3373 C3369 1.495 . S
C3373 H3379 0.959 . S
C3373 H3380 0.961 . S
C3373 H3381 0.960 . S
C3374 C3372 1.381 . S
C3374 C3375 1.394 . S
C3374 H3382 0.930 . S
C3375 C3374 1.394 . S
C3375 C3376 1.383 . S
C3375 H3383 0.929 . S
C3376 C3375 1.383 . S
C3376 C3377 1.377 . S
C3377 H3361 0.930 . S
C3377 C3376 1.377 . S
C3377 C3378 1.379 . S
C3378 H3362 0.931 . S
C3378 C3372 1.383 . S
C3378 C3377 1.379 . S
H3379 C3373 0.959 . S
H3380 C3373 0.961 . S
H3381 C3373 0.960 . S
H3382 C3374 0.930 . S
H3383 C3375 0.929 . S
H3384 C3392 0.929 . S
H3385 C3394 0.930 . S
H3386 C3396 0.930 . S
H3387 C3399 0.929 . S
H3388 C3402 0.930 . S
H3389 C3404 0.960 . S
H3390 C3404 0.960 . S
H3391 C3404 0.960 . S
C3392 H3384 0.929 . S
C3392 C3393 1.377 . S
C3392 C3394 1.384 . S
C3393 C3392 1.377 . S
C3393 C3399 1.390 . S
C3394 H3385 0.930 . S
C3394 C3392 1.384 . S
C3394 C3395 1.372 . S
C3395 C3394 1.372 . S
C3395 C3396 1.400 . S
C3395 C3400 1.490 . S
C3396 H3386 0.930 . S
C3396 C3395 1.400 . S
C3396 C3399 1.386 . S
H3397 C3413 0.930 . S
H3398 C3414 0.931 . S
C3399 H3387 0.929 . S
C3399 C3393 1.390 . S
C3399 C3396 1.386 . S
C3400 C3395 1.490 . S
C3400 C3402 1.395 . S
C3400 C3403 1.403 . S
H3401 C3407 0.930 . S
C3402 H3388 0.930 . S
C3402 C3400 1.395 . S
C3402 C3405 1.403 . S
C3403 C3400 1.403 . S
C3403 C3404 1.524 . S
C3403 C3407 1.400 . S
C3404 H3389 0.960 . S
C3404 H3390 0.960 . S
C3404 H3391 0.960 . S
C3404 C3403 1.524 . S
C3405 C3402 1.403 . S
C3405 C3406 1.392 . S
C3405 C3409 1.495 . S
C3406 C3405 1.392 . S
C3406 C3407 1.385 . S
C3406 C3408 1.478 . S
C3407 H3401 0.930 . S
C3407 C3403 1.400 . S
C3407 C3406 1.385 . S
C3408 C3406 1.478 . S
C3408 C3410 1.381 . S
C3408 C3414 1.383 . S
C3409 C3405 1.495 . S
C3409 H3415 0.959 . S
C3409 H3416 0.961 . S
C3409 H3417 0.960 . S
C3410 C3408 1.381 . S
C3410 C3411 1.394 . S
C3410 H3418 0.930 . S
C3411 C3410 1.394 . S
C3411 C3412 1.383 . S
C3411 H3419 0.929 . S
C3412 C3411 1.383 . S
C3412 C3413 1.377 . S
C3413 H3397 0.930 . S
C3413 C3412 1.377 . S
C3413 C3414 1.379 . S
C3414 H3398 0.931 . S
C3414 C3408 1.383 . S
C3414 C3413 1.379 . S
H3415 C3409 0.959 . S
H3416 C3409 0.961 . S
H3417 C3409 0.960 . S
H3418 C3410 0.930 . S
H3419 C3411 0.929 . S
H3420 C3428 0.929 . S
H3421 C3430 0.930 . S
H3422 C3432 0.930 . S
H3423 C3435 0.929 . S
H3424 C3438 0.930 . S
H3425 C3440 0.960 . S
H3426 C3440 0.960 . S
H3427 C3440 0.960 . S
C3428 H3420 0.929 . S
C3428 C3429 1.377 . S
C3428 C3430 1.384 . S
C3429 C3428 1.377 . S
C3429 C3435 1.390 . S
C3430 H3421 0.930 . S
C3430 C3428 1.384 . S
C3430 C3431 1.372 . S
C3431 C3430 1.372 . S
C3431 C3432 1.400 . S
C3431 C3436 1.490 . S
C3432 H3422 0.930 . S
C3432 C3431 1.400 . S
C3432 C3435 1.386 . S
H3433 C3449 0.930 . S
H3434 C3450 0.931 . S
C3435 H3423 0.929 . S
C3435 C3429 1.390 . S
C3435 C3432 1.386 . S
C3436 C3431 1.490 . S
C3436 C3438 1.395 . S
C3436 C3439 1.403 . S
H3437 C3443 0.930 . S
C3438 H3424 0.930 . S
C3438 C3436 1.395 . S
C3438 C3441 1.403 . S
C3439 C3436 1.403 . S
C3439 C3440 1.524 . S
C3439 C3443 1.400 . S
C3440 H3425 0.960 . S
C3440 H3426 0.960 . S
C3440 H3427 0.960 . S
C3440 C3439 1.524 . S
C3441 C3438 1.403 . S
C3441 C3442 1.392 . S
C3441 C3445 1.495 . S
C3442 C3441 1.392 . S
C3442 C3443 1.385 . S
C3442 C3444 1.478 . S
C3443 H3437 0.930 . S
C3443 C3439 1.400 . S
C3443 C3442 1.385 . S
C3444 C3442 1.478 . S
C3444 C3446 1.381 . S
C3444 C3450 1.383 . S
C3445 C3441 1.495 . S
C3445 H3451 0.959 . S
C3445 H3452 0.961 . S
C3445 H3453 0.960 . S
C3446 C3444 1.381 . S
C3446 C3447 1.394 . S
C3446 H3454 0.930 . S
C3447 C3446 1.394 . S
C3447 C3448 1.383 . S
C3447 H3455 0.929 . S
C3448 C3447 1.383 . S
C3448 C3449 1.377 . S
C3449 H3433 0.930 . S
C3449 C3448 1.377 . S
C3449 C3450 1.379 . S
C3450 H3434 0.931 . S
C3450 C3444 1.383 . S
C3450 C3449 1.379 . S
H3451 C3445 0.959 . S
H3452 C3445 0.961 . S
H3453 C3445 0.960 . S
H3454 C3446 0.930 . S
H3455 C3447 0.929 . S
H3456 C3464 0.929 . S
H3457 C3466 0.930 . S
H3458 C3468 0.930 . S
H3459 C3471 0.929 . S
H3460 C3474 0.930 . S
H3461 C3476 0.960 . S
H3462 C3476 0.960 . S
H3463 C3476 0.960 . S
C3464 H3456 0.929 . S
C3464 C3465 1.377 . S
C3464 C3466 1.384 . S
C3465 C3464 1.377 . S
C3465 C3471 1.390 . S
C3466 H3457 0.930 . S
C3466 C3464 1.384 . S
C3466 C3467 1.372 . S
C3467 C3466 1.372 . S
C3467 C3468 1.400 . S
C3467 C3472 1.490 . S
C3468 H3458 0.930 . S
C3468 C3467 1.400 . S
C3468 C3471 1.386 . S
H3469 C3485 0.930 . S
H3470 C3486 0.931 . S
C3471 H3459 0.929 . S
C3471 C3465 1.390 . S
C3471 C3468 1.386 . S
C3472 C3467 1.490 . S
C3472 C3474 1.395 . S
C3472 C3475 1.403 . S
H3473 C3479 0.930 . S
C3474 H3460 0.930 . S
C3474 C3472 1.395 . S
C3474 C3477 1.403 . S
C3475 C3472 1.403 . S
C3475 C3476 1.524 . S
C3475 C3479 1.400 . S
C3476 H3461 0.960 . S
C3476 H3462 0.960 . S
C3476 H3463 0.960 . S
C3476 C3475 1.524 . S
C3477 C3474 1.403 . S
C3477 C3478 1.392 . S
C3477 C3481 1.495 . S
C3478 C3477 1.392 . S
C3478 C3479 1.385 . S
C3478 C3480 1.478 . S
C3479 H3473 0.930 . S
C3479 C3475 1.400 . S
C3479 C3478 1.385 . S
C3480 C3478 1.478 . S
C3480 C3482 1.381 . S
C3480 C3486 1.383 . S
C3481 C3477 1.495 . S
C3481 H3487 0.959 . S
C3481 H3488 0.961 . S
C3481 H3489 0.960 . S
C3482 C3480 1.381 . S
C3482 C3483 1.394 . S
C3482 H3490 0.930 . S
C3483 C3482 1.394 . S
C3483 C3484 1.383 . S
C3483 H3491 0.929 . S
C3484 C3483 1.383 . S
C3484 C3485 1.377 . S
C3485 H3469 0.930 . S
C3485 C3484 1.377 . S
C3485 C3486 1.379 . S
C3486 H3470 0.931 . S
C3486 C3480 1.383 . S
C3486 C3485 1.379 . S
H3487 C3481 0.959 . S
H3488 C3481 0.961 . S
H3489 C3481 0.960 . S
H3490 C3482 0.930 . S
H3491 C3483 0.929 . S
H3492 C3500 0.929 . S
H3493 C3502 0.930 . S
H3494 C3504 0.930 . S
H3495 C3507 0.929 . S
H3496 C3510 0.930 . S
H3497 C3512 0.960 . S
H3498 C3512 0.960 . S
H3499 C3512 0.960 . S
C3500 H3492 0.929 . S
C3500 C3501 1.377 . S
C3500 C3502 1.384 . S
C3501 C3500 1.377 . S
C3501 C3507 1.390 . S
C3502 H3493 0.930 . S
C3502 C3500 1.384 . S
C3502 C3503 1.372 . S
C3503 C3502 1.372 . S
C3503 C3504 1.400 . S
C3503 C3508 1.490 . S
C3504 H3494 0.930 . S
C3504 C3503 1.400 . S
C3504 C3507 1.386 . S
H3505 C3521 0.930 . S
H3506 C3522 0.931 . S
C3507 H3495 0.929 . S
C3507 C3501 1.390 . S
C3507 C3504 1.386 . S
C3508 C3503 1.490 . S
C3508 C3510 1.395 . S
C3508 C3511 1.403 . S
H3509 C3515 0.930 . S
C3510 H3496 0.930 . S
C3510 C3508 1.395 . S
C3510 C3513 1.403 . S
C3511 C3508 1.403 . S
C3511 C3512 1.524 . S
C3511 C3515 1.400 . S
C3512 H3497 0.960 . S
C3512 H3498 0.960 . S
C3512 H3499 0.960 . S
C3512 C3511 1.524 . S
C3513 C3510 1.403 . S
C3513 C3514 1.392 . S
C3513 C3517 1.495 . S
C3514 C3513 1.392 . S
C3514 C3515 1.385 . S
C3514 C3516 1.478 . S
C3515 H3509 0.930 . S
C3515 C3511 1.400 . S
C3515 C3514 1.385 . S
C3516 C3514 1.478 . S
C3516 C3518 1.381 . S
C3516 C3522 1.383 . S
C3517 C3513 1.495 . S
C3517 H3523 0.959 . S
C3517 H3524 0.961 . S
C3517 H3525 0.960 . S
C3518 C3516 1.381 . S
C3518 C3519 1.394 . S
C3518 H3526 0.930 . S
C3519 C3518 1.394 . S
C3519 C3520 1.383 . S
C3519 H3527 0.929 . S
C3520 C3519 1.383 . S
C3520 C3521 1.377 . S
C3521 H3505 0.930 . S
C3521 C3520 1.377 . S
C3521 C3522 1.379 . S
C3522 H3506 0.931 . S
C3522 C3516 1.383 . S
C3522 C3521 1.379 . S
H3523 C3517 0.959 . S
H3524 C3517 0.961 . S
H3525 C3517 0.960 . S
H3526 C3518 0.930 . S
H3527 C3519 0.929 . S
H3528 C3536 0.929 . S
H3529 C3538 0.930 . S
H3530 C3540 0.930 . S
H3531 C3543 0.929 . S
H3532 C3546 0.930 . S
H3533 C3548 0.960 . S
H3534 C3548 0.960 . S
H3535 C3548 0.960 . S
C3536 H3528 0.929 . S
C3536 C3537 1.377 . S
C3536 C3538 1.384 . S
C3537 C3536 1.377 . S
C3537 C3543 1.390 . S
C3538 H3529 0.930 . S
C3538 C3536 1.384 . S
C3538 C3539 1.372 . S
C3539 C3538 1.372 . S
C3539 C3540 1.400 . S
C3539 C3544 1.490 . S
C3540 H3530 0.930 . S
C3540 C3539 1.400 . S
C3540 C3543 1.386 . S
H3541 C3557 0.930 . S
H3542 C3558 0.931 . S
C3543 H3531 0.929 . S
C3543 C3537 1.390 . S
C3543 C3540 1.386 . S
C3544 C3539 1.490 . S
C3544 C3546 1.395 . S
C3544 C3547 1.403 . S
H3545 C3551 0.930 . S
C3546 H3532 0.930 . S
C3546 C3544 1.395 . S
C3546 C3549 1.403 . S
C3547 C3544 1.403 . S
C3547 C3548 1.524 . S
C3547 C3551 1.400 . S
C3548 H3533 0.960 . S
C3548 H3534 0.960 . S
C3548 H3535 0.960 . S
C3548 C3547 1.524 . S
C3549 C3546 1.403 . S
C3549 C3550 1.392 . S
C3549 C3553 1.495 . S
C3550 C3549 1.392 . S
C3550 C3551 1.385 . S
C3550 C3552 1.478 . S
C3551 H3545 0.930 . S
C3551 C3547 1.400 . S
C3551 C3550 1.385 . S
C3552 C3550 1.478 . S
C3552 C3554 1.381 . S
C3552 C3558 1.383 . S
C3553 C3549 1.495 . S
C3553 H3559 0.959 . S
C3553 H3560 0.961 . S
C3553 H3561 0.960 . S
C3554 C3552 1.381 . S
C3554 C3555 1.394 . S
C3554 H3562 0.930 . S
C3555 C3554 1.394 . S
C3555 C3556 1.383 . S
C3555 H3563 0.929 . S
C3556 C3555 1.383 . S
C3556 C3557 1.377 . S
C3557 H3541 0.930 . S
C3557 C3556 1.377 . S
C3557 C3558 1.379 . S
C3558 H3542 0.931 . S
C3558 C3552 1.383 . S
C3558 C3557 1.379 . S
H3559 C3553 0.959 . S
H3560 C3553 0.961 . S
H3561 C3553 0.960 . S
H3562 C3554 0.930 . S
H3563 C3555 0.929 . S
H3564 C3572 0.929 . S
H3565 C3574 0.930 . S
H3566 C3576 0.980 . S
H3567 C3579 0.932 1_455 S
H3568 C3582 0.930 . S
H3569 C3584 0.960 . S
H3570 C3584 0.960 . S
H3571 C3584 0.958 1_455 S
C3572 H3564 0.929 . S
C3572 C3573 1.377 . S
C3572 C3574 1.384 . S
C3573 C3572 1.377 . S
C3573 C3579 1.383 . S
C3574 H3565 0.930 . S
C3574 C3572 1.384 . S
C3574 C3575 1.372 . S
C3575 C3574 1.372 . S
C3575 C3576 1.381 1_655 S
C3575 C3580 1.490 . S
C3576 H3566 0.980 . S
C3576 C3575 1.381 1_455 S
C3576 C3579 1.362 1_455 S
H3577 C3593 0.930 . S
H3578 C3594 0.931 . S
C3579 H3567 0.932 1_655 S
C3579 C3573 1.383 . S
C3579 C3576 1.362 1_655 S
C3580 C3575 1.490 . S
C3580 C3582 1.395 . S
C3580 C3583 1.403 . S
H3581 C3587 0.930 . S
C3582 H3568 0.930 . S
C3582 C3580 1.395 . S
C3582 C3585 1.403 . S
C3583 C3580 1.403 . S
C3583 C3584 1.524 . S
C3583 C3587 1.400 . S
C3584 H3569 0.960 . S
C3584 H3570 0.960 . S
C3584 H3571 0.958 1_655 S
C3584 C3583 1.524 . S
C3585 C3582 1.403 . S
C3585 C3586 1.392 . S
C3585 C3589 1.495 . S
C3586 C3585 1.392 . S
C3586 C3587 1.385 . S
C3586 C3588 1.478 . S
C3587 H3581 0.930 . S
C3587 C3583 1.400 . S
C3587 C3586 1.385 . S
C3588 C3586 1.478 . S
C3588 C3590 1.381 . S
C3588 C3594 1.383 1_655 S
C3589 C3585 1.495 . S
C3589 H3595 0.959 . S
C3589 H3596 0.961 . S
C3589 H3597 0.960 . S
C3590 C3588 1.381 . S
C3590 C3591 1.394 . S
C3590 H3598 0.930 . S
C3591 C3590 1.394 . S
C3591 C3592 1.383 . S
C3591 H3599 0.929 . S
C3592 C3591 1.383 . S
C3592 C3593 1.377 1_655 S
C3593 H3577 0.930 . S
C3593 C3592 1.377 1_455 S
C3593 C3594 1.379 . S
C3594 H3578 0.931 . S
C3594 C3588 1.383 1_455 S
C3594 C3593 1.379 . S
H3595 C3589 0.959 . S
H3596 C3589 0.961 . S
H3597 C3589 0.960 . S
H3598 C3590 0.930 . S
H3599 C3591 0.929 . S
H3600 C3608 0.929 . S
H3601 C3610 0.930 . S
H3602 C3612 0.930 . S
H3603 C3615 0.929 . S
H3604 C3618 0.930 . S
H3605 C3620 0.960 . S
H3606 C3620 0.960 . S
H3607 C3620 0.960 . S
C3608 H3600 0.929 . S
C3608 C3609 1.377 . S
C3608 C3610 1.384 . S
C3609 C3608 1.377 . S
C3609 C3615 1.390 . S
C3610 H3601 0.930 . S
C3610 C3608 1.384 . S
C3610 C3611 1.372 . S
C3611 C3610 1.372 . S
C3611 C3612 1.400 . S
C3611 C3616 1.490 . S
C3612 H3602 0.930 . S
C3612 C3611 1.400 . S
C3612 C3615 1.386 . S
H3613 C3629 0.930 . S
H3614 C3630 0.931 . S
C3615 H3603 0.929 . S
C3615 C3609 1.390 . S
C3615 C3612 1.386 . S
C3616 C3611 1.490 . S
C3616 C3618 1.395 . S
C3616 C3619 1.403 . S
H3617 C3623 0.930 . S
C3618 H3604 0.930 . S
C3618 C3616 1.395 . S
C3618 C3621 1.403 . S
C3619 C3616 1.403 . S
C3619 C3620 1.524 . S
C3619 C3623 1.400 . S
C3620 H3605 0.960 . S
C3620 H3606 0.960 . S
C3620 H3607 0.960 . S
C3620 C3619 1.524 . S
C3621 C3618 1.403 . S
C3621 C3622 1.392 . S
C3621 C3625 1.495 . S
C3622 C3621 1.392 . S
C3622 C3623 1.385 . S
C3622 C3624 1.478 . S
C3623 H3617 0.930 . S
C3623 C3619 1.400 . S
C3623 C3622 1.385 . S
C3624 C3622 1.478 . S
C3624 C3626 1.381 . S
C3624 C3630 1.383 . S
C3625 C3621 1.495 . S
C3625 H3631 0.959 . S
C3625 H3632 0.961 . S
C3625 H3633 0.960 . S
C3626 C3624 1.381 . S
C3626 C3627 1.394 . S
C3626 H3634 0.930 . S
C3627 C3626 1.394 . S
C3627 C3628 1.383 . S
C3627 H3635 0.929 . S
C3628 C3627 1.383 . S
C3628 C3629 1.377 . S
C3629 H3613 0.930 . S
C3629 C3628 1.377 . S
C3629 C3630 1.379 . S
C3630 H3614 0.931 . S
C3630 C3624 1.383 . S
C3630 C3629 1.379 . S
H3631 C3625 0.959 . S
H3632 C3625 0.961 . S
H3633 C3625 0.960 . S
H3634 C3626 0.930 . S
H3635 C3627 0.929 . S
H3636 C3644 0.929 . S
H3637 C3646 0.930 . S
H3638 C3648 0.930 1_565 S
H3639 C3651 0.929 1_565 S
H3640 C3654 0.930 . S
H3641 C3656 0.960 . S
H3642 C3656 0.960 . S
H3643 C3656 0.960 . S
C3644 H3636 0.929 . S
C3644 C3645 1.377 . S
C3644 C3646 1.384 . S
C3645 C3644 1.377 . S
C3645 C3651 1.390 . S
C3646 H3637 0.930 . S
C3646 C3644 1.384 . S
C3646 C3647 1.372 . S
C3647 C3646 1.372 . S
C3647 C3648 1.400 . S
C3647 C3652 1.490 . S
C3648 H3638 0.930 1_545 S
C3648 C3647 1.400 . S
C3648 C3651 1.386 . S
H3649 C3665 0.930 . S
H3650 C3666 0.931 . S
C3651 H3639 0.929 1_545 S
C3651 C3645 1.390 . S
C3651 C3648 1.386 . S
C3652 C3647 1.490 . S
C3652 C3654 1.395 . S
C3652 C3655 1.403 . S
H3653 C3659 0.930 . S
C3654 H3640 0.930 . S
C3654 C3652 1.395 . S
C3654 C3657 1.403 . S
C3655 C3652 1.403 . S
C3655 C3656 1.524 . S
C3655 C3659 1.400 . S
C3656 H3641 0.960 . S
C3656 H3642 0.960 . S
C3656 H3643 0.960 . S
C3656 C3655 1.524 . S
C3657 C3654 1.403 . S
C3657 C3658 1.392 . S
C3657 C3661 1.495 . S
C3658 C3657 1.392 . S
C3658 C3659 1.385 . S
C3658 C3660 1.478 . S
C3659 H3653 0.930 . S
C3659 C3655 1.400 . S
C3659 C3658 1.385 . S
C3660 C3658 1.478 . S
C3660 C3662 1.381 . S
C3660 C3666 1.383 1_545 S
C3661 C3657 1.495 . S
C3661 H3667 0.959 . S
C3661 H3668 0.961 . S
C3661 H3669 0.960 . S
C3662 C3660 1.381 . S
C3662 C3663 1.394 . S
C3662 H3670 0.930 . S
C3663 C3662 1.394 . S
C3663 C3664 1.383 . S
C3663 H3671 0.929 . S
C3664 C3663 1.383 . S
C3664 C3665 1.377 1_545 S
C3665 H3649 0.930 . S
C3665 C3664 1.377 1_565 S
C3665 C3666 1.379 . S
C3666 H3650 0.931 . S
C3666 C3660 1.383 1_565 S
C3666 C3665 1.379 . S
H3667 C3661 0.959 . S
H3668 C3661 0.961 . S
H3669 C3661 0.960 . S
H3670 C3662 0.930 . S
H3671 C3663 0.929 . S
C1089 C4 1.390 . S
C1108 C688 1.404 . S
C1125 C26 1.527 . S
C1144 C734 1.527 . S
C1180 C766 1.369 . S
C1161 C32 1.333 . S
C1197 C40 1.354 . S
C1216 C819 1.368 . S
C1233 C12 1.407 . S
C1252 C865 1.435 . S
C1269 C18 1.440 . S
C1288 C904 1.485 . S
C1305 C46 1.366 . S
C1324 C858 1.402 . S
C1360 C911 1.520 . S
C1341 C68 1.524 . S
C1396 C812 1.388 . S
C1377 C74 1.350 . S
C1413 C82 1.338 . S
C1432 C773 1.357 . S
C1468 C667 1.446 . S
C1449 C54 1.433 . S
C1485 C60 1.444 . S
C1504 C713 1.484 . S
C1521 C88 1.597 . S
C1540 C943 1.623 . S
C1557 C110 1.612 . S
C1576 C1010 1.595 . S
C1612 C1056 1.576 . S
C1593 C116 1.535 . S
C1629 C124 1.440 . S
C1648 C267 1.443 . S
C1665 C96 1.535 . S
C1684 C313 1.539 . S
C1701 C102 1.499 . S
C1720 C359 1.508 . S
C1737 C130 1.489 . S
C1756 C306 1.521 . S
C1773 C152 1.601 . S
C1792 C352 1.572 . S
C1828 C260 1.584 . S
C1809 C158 1.546 . S
C1864 C1035 1.525 . S
C1845 C166 1.545 . S
C1900 C964 1.501 . S
C1881 C138 1.513 . S
C1936 C989 1.552 . S
C1917 C144 1.533 . S
C1953 C172 1.492 . S
C1972 C391 1.539 . S
C1989 C194 1.597 . S
C2008 C444 1.581 . S
C2025 C200 1.552 . S
C2044 C490 1.583 . S
C2061 C208 1.534 . S
C2080 C536 1.521 . S
C2116 C589 1.526 . S
C2097 C180 1.523 . S
C2152 C635 1.541 . S
C2133 C186 1.528 . S
C2188 C582 1.644 . S
C2169 C214 1.604 . S
C2224 C628 1.582 . S
C2205 C236 1.612 . S
C2241 C242 1.522 . S
C2260 C543 1.569 . S
C2296 C497 1.428 . S
C2277 C250 1.435 . S
C2313 C222 1.541 . S
C2332 C412 1.533 . S
C2368 C451 1.546 . S
C2349 C228 1.510 . S
C2404 C274 1.471 . S
C2385 C5 1.285 . S
C2421 C25 1.381 . S
C2440 C320 1.359 . S
C2476 C366 1.525 . S
C2457 C33 1.331 . S
C2512 C398 1.344 . S
C2493 C39 1.365 . S
C2548 C437 1.426 . S
C2529 C11 1.448 . S
C2584 C483 1.362 . S
C2565 C19 1.182 1_556 S
C2601 C47 1.306 1_556 S
C2620 C504 1.510 . S
C2637 C67 1.375 . S
C2656 C405 1.331 . S
C2673 C75 1.322 1_556 S
C2692 C458 1.516 . S
C2709 C81 1.387 . S
C2728 C299 1.398 . S
C2764 C345 1.400 . S
C2745 C53 1.422 . S
C2781 C61 1.169 . S
C2800 C253 1.347 . S
C2836 C529 1.411 . S
C2817 C89 1.222 . S
C2853 C109 1.505 . S
C2872 C596 1.512 . S
C2889 C117 1.288 . S
C2908 C642 1.498 . S
C2944 C681 1.150 . S
C2925 C123 1.140 . S
C2961 C95 1.368 . S
C2980 C727 1.343 . S
C2997 C103 1.058 . S
C3016 C759 1.195 . S
C3033 C131 1.029 . S
C3052 C780 1.170 . S
C3069 C151 1.169 . S
C3088 C674 1.196 . S
C3124 C720 1.382 . S
C3105 C159 1.207 . S
C3141 C165 1.347 . S
C3160 C575 1.333 . S
C3177 C137 1.481 . S
C3196 C621 1.454 . S
C3232 C550 1.492 . S
C3213 C145 1.271 . S
C3268 C826 1.197 . S
C3249 C173 1.057 . S
C3285 C193 1.147 . S
C3304 C872 1.166 . S
C3321 C201 1.203 . S
C3340 C897 1.396 . S
C3376 C950 1.336 . S
C3357 C207 1.330 . S
C3412 C1003 1.472 . S
C3393 C179 1.501 . S
C3429 C187 1.289 . S
C3448 C1049 1.504 . S
C3465 C215 1.227 . S
C3484 C1042 1.431 . S
C3501 C235 1.501 . S
C3520 C957 1.500 . S
C3556 C996 1.486 . S
C3537 C243 1.300 . S
C3592 C851 1.149 . S
C3573 C249 1.113 . S
C3628 C918 1.354 . S
C3609 C221 1.377 . S
C3645 C229 1.057 . S
C3664 C805 1.202 . S
