# Generated by pormake.
# Topology pth, (4,4)-cn, num edge types: 1
# Building blocks:
#     Node 0, Type 0, BuildingBlock: QUQFOY_clean_sbu_1, # of connection points: 4
#     Node 1, Type 0, BuildingBlock: QUQFOY_clean_sbu_1, # of connection points: 4
#     Node 2, Type 0, BuildingBlock: QUQFOY_clean_sbu_1, # of connection points: 4
#     Node 3, Type 1, BuildingBlock: NAHDIM_clean_linker_0, # of connection points: 4
#     Node 4, Type 1, BuildingBlock: NAHDIM_clean_linker_0, # of connection points: 4
#     Node 5, Type 1, BuildingBlock: NAHDIM_clean_linker_0, # of connection points: 4
#     Edge 6, Type (0, 1), BuildingBlock: XIVTED_clean_linker_0, # of connection points: 2
#     Edge 7, Type (0, 1), BuildingBlock: XIVTED_clean_linker_0, # of connection points: 2
#     Edge 8, Type (0, 1), BuildingBlock: XIVTED_clean_linker_0, # of connection points: 2
#     Edge 9, Type (0, 1), BuildingBlock: XIVTED_clean_linker_0, # of connection points: 2
#     Edge 10, Type (0, 1), BuildingBlock: XIVTED_clean_linker_0, # of connection points: 2
#     Edge 11, Type (0, 1), BuildingBlock: XIVTED_clean_linker_0, # of connection points: 2
#     Edge 12, Type (0, 1), BuildingBlock: XIVTED_clean_linker_0, # of connection points: 2
#     Edge 13, Type (0, 1), BuildingBlock: XIVTED_clean_linker_0, # of connection points: 2
#     Edge 14, Type (0, 1), BuildingBlock: XIVTED_clean_linker_0, # of connection points: 2
#     Edge 15, Type (0, 1), BuildingBlock: XIVTED_clean_linker_0, # of connection points: 2
#     Edge 16, Type (0, 1), BuildingBlock: XIVTED_clean_linker_0, # of connection points: 2
#     Edge 17, Type (0, 1), BuildingBlock: XIVTED_clean_linker_0, # of connection points: 2
# Relax obj value: 0.028
# Max RMSD: 0.121
# Mean RMSD: 0.078
data_MOF--net-pth--node1-QUQFOY_clean_sbu_1--node2-NAHDIM_clean_linker_0--edge1-XIVTED_clean_linker_0
_symmetry_space_group_name_H-M    P1
_symmetry_Int_Tables_number       1
_symmetry_cell_setting            triclinic
loop_
_symmetry_equiv_pos_as_xyz
'x, y, z'
_cell_length_a     30.690119
_cell_length_b     33.299587
_cell_length_c     83.279893
_cell_angle_alpha  89.703756
_cell_angle_beta   90.729959
_cell_angle_gamma 120.06609
loop_
_atom_site_label
_atom_site_type_symbol
_atom_site_fract_x
_atom_site_fract_y
_atom_site_fract_z
_atom_type_partial_charge
O0 O 0.04544 0.10478 0.05213 0.0
Cd1 Cd 0.98424 0.0528 0.06371 0.0
Cd2 Cd 0.04382 0.01532 0.0644 0.0
O3 O 0.09905 0.07995 0.05645 0.0
O4 O 0.94614 0.08259 0.07163 0.0
O5 O 0.98492 0.05714 0.08777 0.0
C6 C 0.95978 0.07851 0.08598 0.0
C7 C 0.05546 0.97713 0.08612 0.0
C8 C 0.08959 0.11074 0.05115 0.0
C9 C 0.94845 0.96754 0.04427 0.0
O10 O 0.99084 0.97161 0.04788 0.0
O11 O 0.93565 0.99513 0.05024 0.0
O12 O 0.07561 0.97937 0.0724 0.0
O13 O 0.03089 0.99898 0.08779 0.0
O14 O 0.01658 0.09647 0.41312 0.0
Cd15 Cd 0.07962 0.10205 0.40264 0.0
Cd16 Cd 0.02008 0.00923 0.39967 0.0
O17 O 0.96467 0.02293 0.40722 0.0
O18 O 0.12017 0.16817 0.39599 0.0
O19 O 0.08434 0.10988 0.37867 0.0
C20 C 0.10965 0.1541 0.3813 0.0
C21 C 0.00418 0.95765 0.37848 0.0
C22 C 0.97255 0.06125 0.41307 0.0
C23 C 0.11103 0.04531 0.42181 0.0
O24 O 0.07011 0.01086 0.41679 0.0
O25 O 0.12449 0.08603 0.41686 0.0
O26 O 0.98356 0.94345 0.3923 0.0
O27 O 0.03281 1.0018 0.37644 0.0
O28 O 0.96465 0.02717 0.71233 0.0
Cd29 Cd 0.99536 0.00511 0.73012 0.0
Cd30 Cd 0.05825 0.09661 0.73374 0.0
O31 O 0.00923 0.1019 0.71783 0.0
O32 O 0.94268 0.94014 0.73518 0.0
O33 O 0.96938 0.99789 0.75261 0.0
C34 C 0.93952 0.95462 0.74922 0.0
C35 C 0.08124 0.13922 0.75759 0.0
C36 C 0.97479 0.06862 0.70974 0.0
C37 C 0.10281 0.03999 0.72186 0.0
O38 O 0.10928 0.08033 0.7242 0.0
O39 O 0.06034 0.00424 0.72457 0.0
O40 O 0.09864 0.15891 0.74395 0.0
O41 O 0.05 0.09505 0.75769 0.0
C42 C 0.9455 0.72323 0.28278 0.0
C43 C 0.96412 0.71422 0.29884 0.0
C44 C 0.01552 0.68056 0.29011 0.0
C45 C 0.06465 0.69005 0.28736 0.0
C46 C 0.07399 0.65742 0.27986 0.0
C47 C 0.03303 0.61394 0.27514 0.0
C48 C 0.98325 0.60341 0.27837 0.0
C49 C 0.97495 0.63682 0.28569 0.0
C50 C 0.12751 0.66977 0.27659 0.0
C51 C 0.9386 0.55706 0.27375 0.0
C52 C 0.17098 0.38693 0.28373 0.0
C53 C 0.15254 0.39463 0.29985 0.0
C54 C 0.09568 0.42333 0.29129 0.0
C55 C 0.04523 0.41141 0.28958 0.0
C56 C 0.03163 0.4415 0.28209 0.0
C57 C 0.06961 0.48459 0.27607 0.0
C58 C 0.12083 0.49764 0.27821 0.0
C59 C 0.1334 0.46704 0.28585 0.0
C60 C 0.97666 0.42674 0.28018 0.0
C61 C 0.16229 0.54355 0.27205 0.0
C62 C 0.98685 0.36247 0.17737 0.0
C63 C 0.94849 0.36754 0.18446 0.0
C64 C 0.95885 0.40987 0.19133 0.0
C65 C 0.00854 0.44812 0.19113 0.0
C66 C 0.04704 0.44359 0.18371 0.0
C67 C 0.03565 0.40077 0.17693 0.0
C68 C 0.91672 0.41349 0.19908 0.0
C69 C 0.10034 0.48371 0.18326 0.0
C70 C 0.96331 0.73499 0.1803 0.0
C71 C 0.00944 0.74331 0.17071 0.0
C72 C 0.00508 0.6687 0.17149 0.0
C73 C 0.96302 0.62476 0.17359 0.0
C74 C 0.9668 0.59019 0.18217 0.0
C75 C 0.01433 0.59956 0.18825 0.0
C76 C 0.05753 0.64339 0.18534 0.0
C77 C 0.05224 0.67774 0.17717 0.0
C78 C 0.91983 0.54409 0.185 0.0
C79 C 0.10921 0.65423 0.19101 0.0
C80 C 0.04161 0.58034 0.26598 0.0
C81 C 0.05207 0.54971 0.27448 0.0
C82 C 0.05598 0.51469 0.26655 0.0
C83 C 0.04782 0.50912 0.24974 0.0
C84 C 0.0482 0.47249 0.24151 0.0
C85 C 0.03873 0.46656 0.22505 0.0
C86 C 0.03035 0.49799 0.21608 0.0
C87 C 0.02003 0.49192 0.19938 0.0
C88 C 0.01576 0.52577 0.1906 0.0
C89 C 0.01862 0.56443 0.19823 0.0
C90 C 0.02458 0.56885 0.21513 0.0
C91 C 0.0231 0.60488 0.2234 0.0
C92 C 0.02869 0.60874 0.24003 0.0
C93 C 0.03657 0.57705 0.24904 0.0
C94 C 0.03885 0.54085 0.24094 0.0
C95 C 0.0316 0.53608 0.22402 0.0
C96 C 0.92456 0.25591 0.18734 0.0
C97 C 0.93412 0.27928 0.17081 0.0
O98 O 0.00916 0.71458 0.29681 0.0
O99 O 0.99957 0.7018 0.16373 0.0
O100 O 0.97881 0.32156 0.17102 0.0
O101 O 0.1059 0.39144 0.29798 0.0
H102 H 0.93515 0.67987 0.30352 0.0
H103 H 0.9377 0.6953 0.27404 0.0
H104 H 0.97425 0.75686 0.27758 0.0
H105 H 0.91005 0.72394 0.28451 0.0
H106 H 0.0958 0.72365 0.29085 0.0
H107 H 0.93658 0.62835 0.28773 0.0
H108 H 0.1357 0.64447 0.28266 0.0
H109 H 0.15527 0.70525 0.28083 0.0
H110 H 0.13241 0.66751 0.2635 0.0
H111 H 0.90281 0.55214 0.2787 0.0
H112 H 0.94434 0.52842 0.27807 0.0
H113 H 0.93492 0.55443 0.26046 0.0
H114 H 0.18037 0.42963 0.30452 0.0
H115 H 0.20747 0.38789 0.28542 0.0
H116 H 0.17685 0.4145 0.27504 0.0
H117 H 0.14307 0.35292 0.27843 0.0
H118 H 0.01632 0.37789 0.29392 0.0
H119 H 0.17271 0.47742 0.28725 0.0
H120 H 0.96978 0.45419 0.28489 0.0
H121 H 0.95183 0.3937 0.28652 0.0
H122 H 0.96621 0.42214 0.26723 0.0
H123 H 0.20038 0.54928 0.27505 0.0
H124 H 0.15859 0.57233 0.27725 0.0
H125 H 0.15875 0.54498 0.25881 0.0
H126 H 0.9022 0.28488 0.16771 0.0
H127 H 0.91039 0.33866 0.1849 0.0
H128 H 0.06506 0.39681 0.1714 0.0
H129 H 0.92483 0.42053 0.21212 0.0
H130 H 0.87964 0.38133 0.19758 0.0
H131 H 0.91422 0.44298 0.19382 0.0
H132 H 0.12584 0.47503 0.17669 0.0
H133 H 0.11497 0.49414 0.19571 0.0
H134 H 0.10099 0.51404 0.1774 0.0
H135 H 0.04231 0.75614 0.17909 0.0
H136 H 0.97049 0.76714 0.18657 0.0
H137 H 0.95457 0.70795 0.18957 0.0
H138 H 0.92999 0.72311 0.17222 0.0
H139 H 0.92688 0.61813 0.16892 0.0
H140 H 0.08489 0.71157 0.1751 0.0
H141 H 0.91696 0.53451 0.19789 0.0
H142 H 0.92184 0.51676 0.17803 0.0
H143 H 0.88514 0.54446 0.18128 0.0
H144 H 0.1395 0.68587 0.18518 0.0
H145 H 0.11524 0.62465 0.1885 0.0
H146 H 0.11249 0.66003 0.20418 0.0
H147 H 0.05679 0.55289 0.28743 0.0
H148 H 0.05491 0.44745 0.24773 0.0
H149 H 0.03868 0.43731 0.21942 0.0
H150 H 0.00899 0.52141 0.17774 0.0
H151 H 0.017 0.63025 0.21715 0.0
H152 H 0.02703 0.63711 0.24571 0.0
H153 H 0.88963 0.22142 0.18696 0.0
H154 H 0.91975 0.27725 0.19656 0.0
H155 H 0.95663 0.25131 0.19112 0.0
C156 C 0.31002 0.97455 0.63955 0.0
C157 C 0.34474 0.99857 0.65407 0.0
C158 C 0.42376 0.04498 0.63932 0.0
C159 C 0.45372 0.08854 0.6324 0.0
C160 C 0.49014 0.09574 0.62097 0.0
C161 C 0.4971 0.0584 0.61654 0.0
C162 C 0.46865 0.01476 0.62408 0.0
C163 C 0.43224 0.00845 0.63541 0.0
C164 C 0.52017 0.14285 0.61328 0.0
C165 C 0.4759 0.97449 0.61986 0.0
C166 C 0.90383 0.17931 0.60033 0.0
C167 C 0.85389 0.14547 0.60823 0.0
C168 C 0.77462 0.14653 0.60704 0.0
C169 C 0.74203 0.09826 0.60777 0.0
C170 C 0.69046 0.07876 0.60426 0.0
C171 C 0.67118 0.10812 0.60002 0.0
C172 C 0.70357 0.15679 0.59988 0.0
C173 C 0.75489 0.17534 0.6035 0.0
C174 C 0.65664 0.02678 0.60483 0.0
C175 C 0.6841 0.18911 0.59562 0.0
C176 C 0.64419 0.05114 0.49119 0.0
C177 C 0.62294 0.01186 0.501 0.0
C178 C 0.59274 0.00821 0.51407 0.0
C179 C 0.58401 0.04513 0.51748 0.0
C180 C 0.606 0.08537 0.50779 0.0
C181 C 0.63573 0.08797 0.49471 0.0
C182 C 0.56961 0.96467 0.52411 0.0
C183 C 0.59754 0.12544 0.51115 0.0
C184 C 0.18522 0.95242 0.53241 0.0
C185 C 0.23604 0.98136 0.52423 0.0
C186 C 0.31044 0.9723 0.5265 0.0
C187 C 0.32569 0.94047 0.53064 0.0
C188 C 0.37623 0.95522 0.53436 0.0
C189 C 0.41232 0.00306 0.53381 0.0
C190 C 0.39754 0.03533 0.52898 0.0
C191 C 0.34677 0.0196 0.52526 0.0
C192 C 0.39094 0.91984 0.53918 0.0
C193 C 0.43535 0.08651 0.52796 0.0
C194 C 0.53199 0.06425 0.60338 0.0
C195 C 0.58283 0.08159 0.60717 0.0
C196 C 0.61745 0.08798 0.59526 0.0
C197 C 0.60105 0.07626 0.57912 0.0
C198 C 0.63477 0.08175 0.56687 0.0
C199 C 0.61822 0.07012 0.55103 0.0
C200 C 0.56738 0.05277 0.54681 0.0
C201 C 0.55011 0.04084 0.53076 0.0
C202 C 0.49947 0.02452 0.52695 0.0
C203 C 0.46525 0.01956 0.53877 0.0
C204 C 0.48157 0.03063 0.55492 0.0
C205 C 0.44796 0.02557 0.56713 0.0
C206 C 0.46432 0.03644 0.583 0.0
C207 C 0.51501 0.05305 0.58727 0.0
C208 C 0.54964 0.05881 0.57513 0.0
C209 C 0.53285 0.04734 0.55895 0.0
C210 C 0.65543 0.08157 0.45435 0.0
C211 C 0.69452 0.08568 0.46687 0.0
O212 O 0.3868 0.03973 0.64944 0.0
O213 O 0.26054 0.95595 0.52386 0.0
O214 O 0.67189 0.05156 0.47848 0.0
O215 O 0.8251 0.16665 0.60961 0.0
H216 H 0.35688 0.97516 0.65955 0.0
H217 H 0.32916 0.96456 0.63053 0.0
H218 H 0.29866 0.99805 0.63371 0.0
H219 H 0.27565 0.94236 0.64337 0.0
H220 H 0.44735 0.11667 0.63563 0.0
H221 H 0.41025 0.97483 0.64098 0.0
H222 H 0.56099 0.15632 0.61536 0.0
H223 H 0.51035 0.16835 0.61806 0.0
H224 H 0.5134 0.13978 0.60009 0.0
H225 H 0.45371 0.94387 0.62766 0.0
H226 H 0.51635 0.98503 0.62095 0.0
H227 H 0.46418 0.96419 0.60718 0.0
H228 H 0.83505 0.11498 0.60002 0.0
H229 H 0.92774 0.16315 0.59916 0.0
H230 H 0.92462 0.21177 0.60747 0.0
H231 H 0.89656 0.18842 0.58812 0.0
H232 H 0.75656 0.07568 0.61109 0.0
H233 H 0.7802 0.21255 0.60319 0.0
H234 H 0.62493 0.01773 0.6131 0.0
H235 H 0.67703 0.00875 0.60888 0.0
H236 H 0.64024 0.0137 0.59272 0.0
H237 H 0.71406 0.22618 0.59624 0.0
H238 H 0.65352 0.18342 0.60394 0.0
H239 H 0.66782 0.18139 0.58328 0.0
H240 H 0.71215 0.12056 0.47258 0.0
H241 H 0.62964 0.98364 0.49824 0.0
H242 H 0.65168 0.11872 0.4873 0.0
H243 H 0.58266 0.97353 0.53677 0.0
H244 H 0.57946 0.93877 0.51975 0.0
H245 H 0.52798 0.94862 0.52399 0.0
H246 H 0.62026 0.15572 0.50327 0.0
H247 H 0.60721 0.13654 0.52388 0.0
H248 H 0.55712 0.11411 0.50929 0.0
H249 H 0.25751 0.013 0.53179 0.0
H250 H 0.1647 0.97201 0.53282 0.0
H251 H 0.19123 0.94439 0.54493 0.0
H252 H 0.16163 0.91918 0.52592 0.0
H253 H 0.29754 0.90398 0.53131 0.0
H254 H 0.33578 0.0444 0.52142 0.0
H255 H 0.40543 0.92646 0.55174 0.0
H256 H 0.42174 0.92323 0.53141 0.0
H257 H 0.35882 0.88373 0.53831 0.0
H258 H 0.4179 0.1072 0.524 0.0
H259 H 0.46539 0.09228 0.5194 0.0
H260 H 0.45355 0.09942 0.53989 0.0
H261 H 0.59566 0.09052 0.61952 0.0
H262 H 0.67436 0.09501 0.56939 0.0
H263 H 0.64583 0.07501 0.54211 0.0
H264 H 0.48655 0.01573 0.5146 0.0
H265 H 0.40853 0.01303 0.56458 0.0
H266 H 0.43666 0.03175 0.59186 0.0
H267 H 0.63665 0.04671 0.44863 0.0
H268 H 0.67381 0.10843 0.44491 0.0
H269 H 0.62616 0.08678 0.46005 0.0
C270 C 0.59859 0.75031 0.8074 0.0
C271 C 0.64139 0.75204 0.81765 0.0
C272 C 0.60151 0.6759 0.83118 0.0
C273 C 0.57126 0.68451 0.84157 0.0
C274 C 0.53949 0.65082 0.85261 0.0
C275 C 0.53824 0.6078 0.85345 0.0
C276 C 0.56826 0.59884 0.84296 0.0
C277 C 0.59939 0.63301 0.83193 0.0
C278 C 0.50767 0.6614 0.86355 0.0
C279 C 0.56797 0.55343 0.84359 0.0
C280 C 0.15014 0.31641 0.86834 0.0
C281 C 0.1981 0.32936 0.85907 0.0
C282 C 0.273 0.40725 0.85995 0.0
C283 C 0.31019 0.39445 0.85964 0.0
C284 C 0.36057 0.42677 0.86355 0.0
C285 C 0.37381 0.4726 0.86789 0.0
C286 C 0.33658 0.48581 0.86773 0.0
C287 C 0.28675 0.45302 0.86357 0.0
C288 C 0.39962 0.41194 0.86314 0.0
C289 C 0.34928 0.53442 0.87214 0.0
C290 C 0.40715 0.42671 0.9753 0.0
C291 C 0.43142 0.41262 0.96452 0.0
C292 C 0.46031 0.44156 0.95193 0.0
C293 C 0.46422 0.48546 0.94992 0.0
C294 C 0.43913 0.49973 0.96061 0.0
C295 C 0.41126 0.47048 0.97326 0.0
C296 C 0.48715 0.42548 0.94089 0.0
C297 C 0.44228 0.54625 0.95879 0.0
C298 C 0.83271 0.80181 0.93478 0.0
C299 C 0.78717 0.77861 0.94582 0.0
C300 C 0.72295 0.69614 0.94348 0.0
C301 C 0.7169 0.6537 0.9384 0.0
C302 C 0.6692 0.61651 0.93428 0.0
C303 C 0.62656 0.62203 0.93537 0.0
C304 C 0.6321 0.66422 0.94119 0.0
C305 C 0.68021 0.70074 0.94534 0.0
C306 C 0.66446 0.57169 0.92841 0.0
C307 C 0.58721 0.67089 0.94281 0.0
C308 C 0.50716 0.57312 0.8658 0.0
C309 C 0.45829 0.53862 0.8616 0.0
C310 C 0.42626 0.50659 0.87294 0.0
C311 C 0.44343 0.50871 0.88895 0.0
C312 C 0.41203 0.47763 0.90076 0.0
C313 C 0.42917 0.48024 0.91649 0.0
C314 C 0.47834 0.5141 0.92105 0.0
C315 C 0.49608 0.51729 0.93704 0.0
C316 C 0.5447 0.55226 0.94124 0.0
C317 C 0.57639 0.58436 0.92991 0.0
C318 C 0.55972 0.58123 0.91381 0.0
C319 C 0.59094 0.61266 0.90208 0.0
C320 C 0.57403 0.60974 0.88633 0.0
C321 C 0.52507 0.57552 0.88171 0.0
C322 C 0.49306 0.54325 0.89331 0.0
C323 C 0.51047 0.54603 0.90939 0.0
C324 C 0.39522 0.4351 0.01298 0.0
C325 C 0.35685 0.40541 0.99998 0.0
O326 O 0.63298 0.70753 0.82028 0.0
O327 O 0.77043 0.73145 0.94651 0.0
O328 O 0.38081 0.39724 0.98746 0.0
O329 O 0.22376 0.37695 0.85657 0.0
H330 H 0.64356 0.76897 0.82935 0.0
H331 H 0.56205 0.73058 0.81361 0.0
H332 H 0.59541 0.73317 0.79568 0.0
H333 H 0.60563 0.786 0.80517 0.0
H334 H 0.57209 0.71733 0.84121 0.0
H335 H 0.62267 0.62651 0.82389 0.0
H336 H 0.46767 0.63344 0.86266 0.0
H337 H 0.51012 0.69507 0.86066 0.0
H338 H 0.52017 0.66256 0.8762 0.0
H339 H 0.59361 0.55182 0.83465 0.0
H340 H 0.52919 0.5243 0.8413 0.0
H341 H 0.57955 0.54841 0.85578 0.0
H342 H 0.22084 0.31891 0.86668 0.0
H343 H 0.12916 0.27861 0.87096 0.0
H344 H 0.12533 0.32562 0.86133 0.0
H345 H 0.16004 0.33548 0.87994 0.0
H346 H 0.30016 0.35952 0.85621 0.0
H347 H 0.25789 0.4627 0.86351 0.0
H348 H 0.43188 0.43643 0.85567 0.0
H349 H 0.38418 0.37628 0.85829 0.0
H350 H 0.4143 0.41305 0.87548 0.0
H351 H 0.31543 0.53836 0.87239 0.0
H352 H 0.37605 0.55932 0.86329 0.0
H353 H 0.36806 0.54387 0.88412 0.0
H354 H 0.33747 0.4239 0.99541 0.0
H355 H 0.42819 0.37893 0.96616 0.0
H356 H 0.39323 0.48247 0.98148 0.0
H357 H 0.47223 0.42228 0.92846 0.0
H358 H 0.48252 0.39146 0.94458 0.0
H359 H 0.52795 0.45157 0.94068 0.0
H360 H 0.41553 0.54975 0.96672 0.0
H361 H 0.43437 0.55158 0.94615 0.0
H362 H 0.48103 0.57417 0.96187 0.0
H363 H 0.75818 0.78528 0.94031 0.0
H364 H 0.84703 0.83973 0.93404 0.0
H365 H 0.82162 0.78696 0.92249 0.0
H366 H 0.86346 0.79607 0.93923 0.0
H367 H 0.74998 0.65018 0.9373 0.0
H368 H 0.6841 0.73261 0.95005 0.0
H369 H 0.65053 0.56536 0.91579 0.0
H370 H 0.63643 0.54226 0.93572 0.0
H371 H 0.70087 0.57211 0.929 0.0
H372 H 0.59783 0.70596 0.94738 0.0
H373 H 0.55975 0.64452 0.95116 0.0
H374 H 0.56804 0.66568 0.93097 0.0
H375 H 0.44465 0.53726 0.84941 0.0
H376 H 0.37378 0.45094 0.89798 0.0
H377 H 0.40331 0.45546 0.92506 0.0
H378 H 0.55783 0.55492 0.95356 0.0
H379 H 0.62886 0.63994 0.90493 0.0
H380 H 0.59982 0.63488 0.87783 0.0
H381 H 0.41572 0.41773 0.01762 0.0
H382 H 0.37591 0.44107 0.02311 0.0
H383 H 0.42315 0.46938 0.00803 0.0
H384 H 0.00416 0.09725 0.11586 0.0
H385 H 0.86721 0.23344 0.14606 0.0
H386 H 0.89612 0.11352 0.08705 0.0
H387 H 0.00587 0.25318 0.16701 0.0
H388 H 0.86989 0.18074 0.12625 0.0
H389 H 0.9967 0.14446 0.13695 0.0
C390 C 0.97831 0.11015 0.11407 0.0
C391 C 0.95082 0.10156 0.09965 0.0
C392 C 0.89977 0.19665 0.13517 0.0
C393 C 0.94237 0.15573 0.12367 0.0
C394 C 0.89834 0.22681 0.14644 0.0
C395 C 0.93657 0.24797 0.15814 0.0
C396 C 0.93938 0.18702 0.13567 0.0
C397 C 0.97576 0.23771 0.15816 0.0
C398 C 0.97441 0.13739 0.12605 0.0
C399 C 0.91817 0.11943 0.09794 0.0
N400 N 0.97609 0.20786 0.14713 0.0
N401 N 0.91491 0.1457 0.10979 0.0
H402 H 0.97538 0.13912 0.42472 0.0
H403 H 0.69106 0.0062 0.45566 0.0
H404 H 0.87475 0.99214 0.41796 0.0
H405 H 0.79013 0.1542 0.45918 0.0
H406 H 0.75761 0.9997 0.44203 0.0
H407 H 0.90771 0.14477 0.43747 0.0
C408 C 0.93899 0.10798 0.42587 0.0
C409 C 0.93085 0.06503 0.42027 0.0
C410 C 0.76484 0.03357 0.44583 0.0
C411 C 0.85293 0.07131 0.43498 0.0
C412 C 0.72699 0.03724 0.45365 0.0
C413 C 0.73547 0.08072 0.45879 0.0
C414 C 0.81145 0.07369 0.44306 0.0
C415 C 0.7823 0.11997 0.45562 0.0
C416 C 0.90029 0.11126 0.43317 0.0
C417 C 0.88277 0.02596 0.42209 0.0
N418 N 0.81854 0.11549 0.44802 0.0
N419 N 0.84566 0.03001 0.42934 0.0
H420 H 0.87533 0.86128 0.746 0.0
H421 H 0.71429 0.84271 0.82333 0.0
H422 H 0.91494 0.97566 0.77836 0.0
H423 H 0.67972 0.72728 0.79215 0.0
H424 H 0.79072 0.89089 0.80799 0.0
H425 H 0.80673 0.81063 0.76372 0.0
C426 C 0.86986 0.87571 0.7569 0.0
C427 C 0.90081 0.9229 0.76064 0.0
C428 C 0.76677 0.85489 0.8046 0.0
C429 C 0.82186 0.865 0.78099 0.0
C430 C 0.72324 0.82737 0.81338 0.0
C431 C 0.69099 0.78076 0.80914 0.0
C432 C 0.7779 0.83589 0.79132 0.0
C433 C 0.70388 0.76286 0.79595 0.0
C434 C 0.83059 0.84671 0.76703 0.0
C435 C 0.89196 0.93954 0.77498 0.0
N436 N 0.7462 0.79047 0.78749 0.0
N437 N 0.85308 0.9107 0.78456 0.0
H438 H 0.07631 0.907 0.08319 0.0
H439 H 0.04474 0.83593 0.17545 0.0
H440 H 0.03628 0.97772 0.11823 0.0
H441 H 0.00241 0.73566 0.13718 0.0
H442 H 0.06063 0.89584 0.15537 0.0
H443 H 0.06932 0.8517 0.10389 0.0
C444 C 0.06679 0.91133 0.0953 0.0
C445 C 0.05671 0.94695 0.099 0.0
C446 C 0.04804 0.8607 0.15145 0.0
C447 C 0.04894 0.88393 0.12268 0.0
C448 C 0.039 0.82655 0.16285 0.0
C449 C 0.02188 0.78053 0.15807 0.0
C450 C 0.0411 0.84906 0.1351 0.0
C451 C 0.01551 0.77046 0.14154 0.0
C452 C 0.06248 0.87957 0.10704 0.0
C453 C 0.04417 0.95066 0.11486 0.0
N454 N 0.02536 0.80449 0.13066 0.0
N455 N 0.04074 0.91954 0.12616 0.0
H456 H 0.10443 0.96354 0.43094 0.0
H457 H 0.25457 0.0662 0.51294 0.0
H458 H 0.18346 0.10993 0.44197 0.0
H459 H 0.19916 0.92525 0.4975 0.0
H460 H 0.23358 0.0843 0.4864 0.0
H461 H 0.14363 0.94997 0.4544 0.0
C462 C 0.13051 0.99295 0.4382 0.0
C463 C 0.14028 0.0379 0.43457 0.0
C464 C 0.22662 0.04956 0.48873 0.0
C465 C 0.18488 0.02248 0.46164 0.0
C466 C 0.23858 0.03926 0.50386 0.0
C467 C 0.22852 0.99418 0.50738 0.0
C468 C 0.20374 0.01433 0.47711 0.0
C469 C 0.20751 0.96044 0.49524 0.0
C470 C 0.15294 0.98516 0.45161 0.0
C471 C 0.17473 0.07469 0.44434 0.0
N472 N 0.19539 0.97109 0.48071 0.0
N473 N 0.19525 0.06608 0.45757 0.0
H474 H 0.06994 0.10742 0.78856 0.0
H475 H 0.18501 0.35755 0.82876 0.0
H476 H 0.13014 0.23352 0.7608 0.0
H477 H 0.17736 0.24048 0.8538 0.0
H478 H 0.15691 0.31131 0.80413 0.0
H479 H 0.10015 0.15415 0.81315 0.0
C480 C 0.08928 0.14489 0.78764 0.0
C481 C 0.09759 0.16663 0.77262 0.0
C482 C 0.16189 0.2959 0.81498 0.0
C483 C 0.13199 0.22015 0.80064 0.0
C484 C 0.17816 0.32234 0.82903 0.0
C485 C 0.18468 0.30312 0.84329 0.0
C486 C 0.15079 0.24954 0.81525 0.0
C487 C 0.17368 0.2568 0.84299 0.0
C488 C 0.10673 0.17151 0.80166 0.0
C489 C 0.12306 0.21532 0.77213 0.0
N490 N 0.15706 0.23151 0.82922 0.0
N491 N 0.13914 0.24043 0.78593 0.0
H492 H 0.98131 0.15162 0.70197 0.0
H493 H 0.84163 0.06105 0.61741 0.0
H494 H 0.90998 0.00829 0.68702 0.0
H495 H 0.88837 0.19751 0.63599 0.0
H496 H 0.86399 0.0403 0.64321 0.0
H497 H 0.9452 0.16861 0.67838 0.0
C498 C 0.9577 0.12361 0.69381 0.0
C499 C 0.94902 0.07851 0.69644 0.0
C500 C 0.86891 0.07465 0.64172 0.0
C501 C 0.9079 0.09785 0.6693 0.0
C502 C 0.85614 0.08646 0.627 0.0
C503 C 0.86322 0.13103 0.62459 0.0
C504 C 0.88957 0.10788 0.65406 0.0
C505 C 0.88238 0.16277 0.63739 0.0
C506 C 0.93706 0.13335 0.68034 0.0
C507 C 0.91789 0.04361 0.68547 0.0
N508 N 0.89529 0.15072 0.65153 0.0
N509 N 0.89891 0.05411 0.67231 0.0
H510 H 0.95562 0.8939 0.0334 0.0
H511 H 0.76616 0.8417 0.95971 0.0
H512 H 0.86792 0.96168 0.02734 0.0
H513 H 0.84229 0.76478 0.9693 0.0
H514 H 0.7977 0.88209 0.98543 0.0
H515 H 0.90916 0.8422 0.01116 0.0
C516 C 0.92623 0.89766 0.02748 0.0
C517 C 0.91602 0.93253 0.03215 0.0
C518 C 0.80695 0.85593 0.98202 0.0
C519 C 0.86284 0.87354 0.00647 0.0
C520 C 0.7889 0.83286 0.96737 0.0
C521 C 0.80145 0.79973 0.96244 0.0
C522 C 0.83834 0.84621 0.99172 0.0
C523 C 0.8315 0.7899 0.97271 0.0
C524 C 0.89964 0.86804 0.01476 0.0
C525 C 0.87716 0.9354 0.02411 0.0
N526 N 0.84919 0.81326 0.98679 0.0
N527 N 0.85239 0.90666 0.01153 0.0
H528 H 0.05469 0.97318 0.35001 0.0
H529 H 0.90432 0.70501 0.32443 0.0
H530 H 0.93758 0.86458 0.37824 0.0
H531 H 0.03836 0.80684 0.30038 0.0
H532 H 0.91281 0.76473 0.34314 0.0
H533 H 0.04556 0.91464 0.33037 0.0
C534 C 0.02679 0.93714 0.35201 0.0
C535 C 0.9969 0.92375 0.3658 0.0
C536 C 0.9406 0.7741 0.33384 0.0
C537 C 0.98645 0.85672 0.34347 0.0
C538 C 0.93585 0.73994 0.32319 0.0
C539 C 0.97113 0.75081 0.31098 0.0
C540 C 0.98063 0.81982 0.33222 0.0
C541 C 0.01073 0.79691 0.30976 0.0
C542 C 0.02181 0.90374 0.34085 0.0
C543 C 0.96154 0.87653 0.36782 0.0
N544 N 0.01441 0.82976 0.32024 0.0
N545 N 0.95735 0.84483 0.35681 0.0
H546 H 0.10747 0.96035 0.718 0.0
H547 H 0.33609 0.07703 0.6576 0.0
H548 H 0.19084 0.1078 0.70895 0.0
H549 H 0.28452 0.94134 0.67794 0.0
H550 H 0.28226 0.08852 0.67612 0.0
H551 H 0.17109 0.95195 0.70335 0.0
C552 C 0.13936 0.99102 0.71308 0.0
C553 C 0.1436 0.03482 0.71463 0.0
C554 C 0.28328 0.05651 0.67672 0.0
C555 C 0.21616 0.02531 0.6977 0.0
C556 C 0.31418 0.04999 0.66619 0.0
C557 C 0.31569 0.00852 0.66648 0.0
C558 C 0.25256 0.02088 0.68737 0.0
C559 C 0.28512 0.97412 0.67753 0.0
C560 C 0.17569 0.98619 0.70474 0.0
C561 C 0.18589 0.07333 0.70804 0.0
N562 N 0.25455 0.98091 0.68746 0.0
N563 N 0.22017 0.0676 0.69971 0.0
H564 H 0.08232 0.18479 0.04051 0.0
H565 H 0.36461 0.32857 0.00819 0.0
H566 H 0.18773 0.13509 0.04466 0.0
H567 H 0.26022 0.37954 0.00844 0.0
H568 H 0.3004 0.2563 0.02069 0.0
H569 H 0.14704 0.25516 0.02792 0.0
C570 C 0.11915 0.18863 0.03879 0.0
C571 C 0.12951 0.15382 0.04368 0.0
C572 C 0.29153 0.28323 0.01793 0.0
C573 C 0.20422 0.23486 0.02915 0.0
C574 C 0.32802 0.32431 0.01076 0.0
C575 C 0.31738 0.35974 0.00705 0.0
C576 C 0.24418 0.27769 0.02148 0.0
C577 C 0.26976 0.35289 0.01089 0.0
C578 C 0.1562 0.22898 0.03158 0.0
C579 C 0.17807 0.161 0.04111 0.0
N580 N 0.23497 0.3127 0.01783 0.0
N581 N 0.21365 0.20073 0.03399 0.0
H582 H 0.07386 0.13763 0.35027 0.0
H583 H 0.21204 0.40683 0.3265 0.0
H584 H 0.17301 0.24798 0.38243 0.0
H585 H 0.08468 0.3005 0.30023 0.0
H586 H 0.20619 0.34793 0.34545 0.0
H587 H 0.08656 0.19571 0.32987 0.0
C588 C 0.09889 0.174 0.35296 0.0
C589 C 0.12223 0.18799 0.3681 0.0
C590 C 0.17948 0.33747 0.33555 0.0
C591 C 0.13661 0.25454 0.34489 0.0
C592 C 0.18272 0.37108 0.32477 0.0
C593 C 0.14844 0.3586 0.31188 0.0
C594 C 0.14204 0.29086 0.33335 0.0
C595 C 0.1116 0.31161 0.31008 0.0
C596 C 0.1058 0.20713 0.34136 0.0
C597 C 0.15405 0.23562 0.37095 0.0
N598 N 0.10938 0.27945 0.32068 0.0
N599 N 0.16017 0.26716 0.35948 0.0
loop_
_geom_bond_atom_site_label_1
_geom_bond_atom_site_label_2
_geom_bond_distance
_geom_bond_site_symmetry_2
_ccdc_geom_bond_type
O0 Cd1 2.223 1_455 S
O0 C8 1.315 . S
Cd1 O0 2.223 1_655 S
Cd1 O4 2.297 . S
Cd1 O5 2.439 1_655 S
Cd1 O11 2.240 1_545 S
Cd2 O3 2.240 . S
Cd2 O10 2.223 1_545 S
Cd2 O12 2.297 1_545 S
Cd2 O13 2.439 1_545 S
O3 Cd2 2.240 . S
O3 C8 1.279 . S
O4 Cd1 2.297 . S
O4 C6 1.247 1_655 S
O5 Cd1 2.439 1_455 S
O5 C6 1.208 . S
C6 O4 1.247 1_455 S
C6 O5 1.208 . S
C7 O12 1.247 . S
C7 O13 1.208 . S
C8 O0 1.315 . S
C8 O3 1.279 . S
C9 O10 1.315 1_655 S
C9 O11 1.279 . S
O10 Cd2 2.223 1_565 S
O10 C9 1.315 1_455 S
O11 Cd1 2.240 1_565 S
O11 C9 1.279 . S
O12 Cd2 2.297 1_565 S
O12 C7 1.247 . S
O13 Cd2 2.439 1_565 S
O13 C7 1.208 . S
O14 Cd15 2.223 . S
O14 C22 1.315 1_455 S
Cd15 O14 2.223 . S
Cd15 O18 2.297 . S
Cd15 O19 2.439 . S
Cd15 O25 2.240 . S
Cd16 O17 2.240 1_565 S
Cd16 O24 2.223 1_655 S
Cd16 O26 2.297 1_655 S
Cd16 O27 2.439 1_655 S
O17 Cd16 2.240 1_545 S
O17 C22 1.279 . S
O18 Cd15 2.297 . S
O18 C20 1.247 . S
O19 Cd15 2.439 . S
O19 C20 1.208 . S
C20 O18 1.247 . S
C20 O19 1.208 . S
C21 O26 1.247 . S
C21 O27 1.208 . S
C22 O14 1.315 1_655 S
C22 O17 1.279 . S
C23 O24 1.315 1_545 S
C23 O25 1.279 . S
O24 Cd16 2.223 1_455 S
O24 C23 1.315 1_565 S
O25 Cd15 2.240 . S
O25 C23 1.279 . S
O26 Cd16 2.297 1_455 S
O26 C21 1.247 . S
O27 Cd16 2.439 1_455 S
O27 C21 1.208 . S
O28 Cd29 2.223 . S
O28 C36 1.315 1_565 S
Cd29 O28 2.223 . S
Cd29 O32 2.297 . S
Cd29 O33 2.439 . S
Cd29 O39 2.240 1_665 S
Cd30 O31 2.240 1_455 S
Cd30 O38 2.223 . S
Cd30 O40 2.297 . S
Cd30 O41 2.439 . S
O31 Cd30 2.240 1_655 S
O31 C36 1.279 . S
O32 Cd29 2.297 . S
O32 C34 1.247 . S
O33 Cd29 2.439 . S
O33 C34 1.208 . S
C34 O32 1.247 . S
C34 O33 1.208 . S
C35 O40 1.247 . S
C35 O41 1.208 . S
C36 O28 1.315 1_545 S
C36 O31 1.279 . S
C37 O38 1.315 . S
C37 O39 1.279 . S
O38 Cd30 2.223 . S
O38 C37 1.315 . S
O39 Cd29 2.240 1_445 S
O39 C37 1.279 . S
O40 Cd30 2.297 . S
O40 C35 1.247 . S
O41 Cd30 2.439 . S
O41 C35 1.208 . S
C42 C43 1.560 . S
C42 H103 0.959 . S
C42 H104 0.959 . S
C42 H105 0.960 . S
C43 C42 1.560 . S
C43 O98 1.426 . S
C43 H102 0.980 1_655 S
C44 C45 1.407 1_655 S
C44 C49 1.418 . S
C44 O98 1.334 . S
C45 C44 1.407 1_455 S
C45 C46 1.360 . S
C45 H106 0.929 . S
C46 C45 1.360 . S
C46 C47 1.401 . S
C46 C50 1.527 . S
C47 C46 1.401 . S
C47 C48 1.405 1_455 S
C47 C80 1.587 . S
C48 C47 1.405 1_655 S
C48 C49 1.332 . S
C48 C51 1.496 . S
C49 C44 1.418 . S
C49 C48 1.332 . S
C49 H107 0.929 . S
C50 C46 1.527 . S
C50 H108 0.959 . S
C50 H109 0.961 . S
C50 H110 0.961 . S
C51 C48 1.496 . S
C51 H111 0.960 . S
C51 H112 0.960 . S
C51 H113 0.961 . S
C52 C53 1.517 . S
C52 H115 0.961 . S
C52 H116 0.960 . S
C52 H117 0.959 . S
C53 C52 1.517 . S
C53 O101 1.468 . S
C53 H114 0.980 . S
C54 C55 1.349 . S
C54 C59 1.367 . S
C54 O101 1.408 . S
C55 C54 1.349 . S
C55 C56 1.407 . S
C55 H118 0.930 . S
C56 C55 1.407 . S
C56 C57 1.449 . S
C56 C60 1.535 1_455 S
C57 C56 1.449 . S
C57 C58 1.384 . S
C57 C82 1.553 . S
C58 C57 1.384 . S
C58 C59 1.364 . S
C58 C61 1.450 . S
C59 C54 1.367 . S
C59 C58 1.364 . S
C59 H119 0.931 . S
C60 C56 1.535 1_655 S
C60 H120 0.959 . S
C60 H121 0.961 . S
C60 H122 0.959 . S
C61 C58 1.450 . S
C61 H123 0.960 . S
C61 H124 0.960 . S
C61 H125 0.960 . S
C62 C63 1.309 . S
C62 C67 1.304 . S
C62 O100 1.435 . S
C63 C62 1.309 . S
C63 C64 1.476 . S
C63 H127 0.930 1_455 S
C64 C63 1.476 . S
C64 C65 1.400 . S
C64 C68 1.567 1_455 S
C65 C64 1.400 . S
C65 C66 1.373 . S
C65 C87 1.432 . S
C66 C65 1.373 . S
C66 C67 1.339 . S
C66 C69 1.530 . S
C67 C62 1.304 . S
C67 C66 1.339 . S
C67 H128 0.930 . S
C68 C64 1.567 1_655 S
C68 H129 0.961 . S
C68 H130 0.960 . S
C68 H131 0.958 . S
C69 C66 1.530 . S
C69 H132 0.961 . S
C69 H133 0.960 . S
C69 H134 0.960 . S
C70 C71 1.530 1_655 S
C70 H136 0.961 . S
C70 H137 0.961 . S
C70 H138 0.959 . S
C71 C70 1.530 1_455 S
C71 O99 1.412 1_455 S
C71 H135 0.980 . S
C72 C73 1.288 . S
C72 C77 1.377 1_655 S
C72 O99 1.393 . S
C73 C72 1.288 . S
C73 C74 1.369 . S
C73 H139 0.932 . S
C74 C73 1.369 . S
C74 C75 1.398 1_655 S
C74 C78 1.527 . S
C75 C74 1.398 1_455 S
C75 C76 1.380 . S
C75 C89 1.497 . S
C76 C75 1.380 . S
C76 C77 1.383 . S
C76 C79 1.603 . S
C77 C72 1.377 1_455 S
C77 C76 1.383 . S
C77 H140 0.929 . S
C78 C74 1.527 . S
C78 H141 0.961 . S
C78 H142 0.959 . S
C78 H143 0.959 . S
C79 C76 1.603 . S
C79 H144 0.960 . S
C79 H145 0.962 . S
C79 H146 0.961 . S
C80 C47 1.587 . S
C80 C81 1.360 . S
C80 C93 1.412 . S
C81 C80 1.360 . S
C81 C82 1.365 . S
C81 H147 0.929 . S
C82 C57 1.553 . S
C82 C81 1.365 . S
C82 C83 1.404 . S
C83 C82 1.404 . S
C83 C84 1.395 . S
C83 C94 1.451 . S
C84 C83 1.395 . S
C84 C85 1.322 . S
C84 H148 0.930 . S
C85 C84 1.322 . S
C85 C86 1.459 . S
C85 H149 0.929 . S
C86 C85 1.459 . S
C86 C87 1.445 . S
C86 C95 1.395 . S
C87 C65 1.432 . S
C87 C86 1.445 . S
C87 C88 1.370 . S
C88 C87 1.370 . S
C88 C89 1.438 . S
C88 H150 0.930 . S
C89 C75 1.497 . S
C89 C88 1.438 . S
C89 C90 1.360 . S
C90 C89 1.360 . S
C90 C91 1.401 . S
C90 C95 1.446 . S
C91 C90 1.401 . S
C91 C92 1.347 . S
C91 H151 0.929 . S
C92 C91 1.347 . S
C92 C93 1.455 . S
C92 H152 0.930 . S
C93 C80 1.412 . S
C93 C92 1.455 . S
C93 C94 1.331 . S
C94 C83 1.451 . S
C94 C93 1.331 . S
C94 C95 1.497 . S
C95 C86 1.395 . S
C95 C90 1.446 . S
C95 C94 1.497 . S
C96 C97 1.582 . S
C96 H153 0.962 . S
C96 H154 0.959 . S
C96 H155 0.958 . S
C97 C96 1.582 . S
C97 O100 1.458 . S
C97 H126 0.980 . S
O98 C43 1.426 . S
O98 C44 1.334 . S
O99 C71 1.412 1_655 S
O99 C72 1.393 . S
O100 C62 1.435 . S
O100 C97 1.458 . S
O101 C53 1.468 . S
O101 C54 1.408 . S
H102 C43 0.980 1_455 S
H103 C42 0.959 . S
H104 C42 0.959 . S
H105 C42 0.960 . S
H106 C45 0.929 . S
H107 C49 0.929 . S
H108 C50 0.959 . S
H109 C50 0.961 . S
H110 C50 0.961 . S
H111 C51 0.960 . S
H112 C51 0.960 . S
H113 C51 0.961 . S
H114 C53 0.980 . S
H115 C52 0.961 . S
H116 C52 0.960 . S
H117 C52 0.959 . S
H118 C55 0.930 . S
H119 C59 0.931 . S
H120 C60 0.959 . S
H121 C60 0.961 . S
H122 C60 0.959 . S
H123 C61 0.960 . S
H124 C61 0.960 . S
H125 C61 0.960 . S
H126 C97 0.980 . S
H127 C63 0.930 1_655 S
H128 C67 0.930 . S
H129 C68 0.961 . S
H130 C68 0.960 . S
H131 C68 0.958 . S
H132 C69 0.961 . S
H133 C69 0.960 . S
H134 C69 0.960 . S
H135 C71 0.980 . S
H136 C70 0.961 . S
H137 C70 0.961 . S
H138 C70 0.959 . S
H139 C73 0.932 . S
H140 C77 0.929 . S
H141 C78 0.961 . S
H142 C78 0.959 . S
H143 C78 0.959 . S
H144 C79 0.960 . S
H145 C79 0.962 . S
H146 C79 0.961 . S
H147 C81 0.929 . S
H148 C84 0.930 . S
H149 C85 0.929 . S
H150 C88 0.930 . S
H151 C91 0.929 . S
H152 C92 0.930 . S
H153 C96 0.962 . S
H154 C96 0.959 . S
H155 C96 0.958 . S
C156 C157 1.560 1_565 S
C156 H217 0.959 . S
C156 H218 0.959 . S
C156 H219 0.960 1_565 S
C157 C156 1.560 1_545 S
C157 O212 1.435 . S
C157 H216 0.980 . S
C158 C159 1.407 . S
C158 C163 1.418 1_545 S
C158 O212 1.334 . S
C159 C158 1.407 . S
C159 C160 1.360 . S
C159 H220 0.929 . S
C160 C159 1.360 . S
C160 C161 1.401 . S
C160 C164 1.527 . S
C161 C160 1.401 . S
C161 C162 1.405 . S
C161 C194 1.587 . S
C162 C161 1.405 . S
C162 C163 1.332 1_545 S
C162 C165 1.496 1_545 S
C163 C158 1.418 1_565 S
C163 C162 1.332 1_565 S
C163 H221 0.929 . S
C164 C160 1.527 . S
C164 H222 0.959 . S
C164 H223 0.961 . S
C164 H224 0.961 . S
C165 C162 1.496 1_565 S
C165 H225 0.960 . S
C165 H226 0.960 . S
C165 H227 0.961 . S
C166 C167 1.517 . S
C166 H229 0.961 . S
C166 H230 0.960 . S
C166 H231 0.959 . S
C167 C166 1.517 . S
C167 O215 1.468 . S
C167 H228 0.980 . S
C168 C169 1.349 . S
C168 C173 1.367 . S
C168 O215 1.408 . S
C169 C168 1.349 . S
C169 C170 1.407 . S
C169 H232 0.930 . S
C170 C169 1.407 . S
C170 C171 1.449 . S
C170 C174 1.535 . S
C171 C170 1.449 . S
C171 C172 1.384 . S
C171 C196 1.553 . S
C172 C171 1.384 . S
C172 C173 1.364 . S
C172 C175 1.450 . S
C173 C168 1.367 . S
C173 C172 1.364 . S
C173 H233 0.931 . S
C174 C170 1.535 . S
C174 H234 0.959 . S
C174 H235 0.961 1_545 S
C174 H236 0.959 1_545 S
C175 C172 1.450 . S
C175 H237 0.960 . S
C175 H238 0.960 . S
C175 H239 0.960 . S
C176 C177 1.309 . S
C176 C181 1.304 . S
C176 O214 1.435 . S
C177 C176 1.309 . S
C177 C178 1.476 . S
C177 H241 0.930 . S
C178 C177 1.476 . S
C178 C179 1.400 . S
C178 C182 1.567 1_545 S
C179 C178 1.400 . S
C179 C180 1.373 . S
C179 C201 1.432 . S
C180 C179 1.373 . S
C180 C181 1.339 . S
C180 C183 1.530 . S
C181 C176 1.304 . S
C181 C180 1.339 . S
C181 H242 0.930 . S
C182 C178 1.567 1_565 S
C182 H243 0.961 . S
C182 H244 0.960 . S
C182 H245 0.958 . S
C183 C180 1.530 . S
C183 H246 0.961 . S
C183 H247 0.960 . S
C183 H248 0.960 . S
C184 C185 1.530 . S
C184 H250 0.961 . S
C184 H251 0.961 1_545 S
C184 H252 0.959 1_545 S
C185 C184 1.530 . S
C185 O213 1.412 . S
C185 H249 0.980 . S
C186 C187 1.288 1_545 S
C186 C191 1.377 . S
C186 O213 1.393 . S
C187 C186 1.288 1_565 S
C187 C188 1.369 1_565 S
C187 H253 0.932 . S
C188 C187 1.369 1_545 S
C188 C189 1.398 . S
C188 C192 1.527 1_545 S
C189 C188 1.398 . S
C189 C190 1.380 . S
C189 C203 1.497 . S
C190 C189 1.380 . S
C190 C191 1.383 . S
C190 C193 1.603 . S
C191 C186 1.377 . S
C191 C190 1.383 . S
C191 H254 0.929 . S
C192 C188 1.527 1_565 S
C192 H255 0.961 . S
C192 H256 0.959 . S
C192 H257 0.959 . S
C193 C190 1.603 . S
C193 H258 0.960 . S
C193 H259 0.962 . S
C193 H260 0.961 . S
C194 C161 1.587 . S
C194 C195 1.360 . S
C194 C207 1.412 . S
C195 C194 1.360 . S
C195 C196 1.365 . S
C195 H261 0.929 . S
C196 C171 1.553 . S
C196 C195 1.365 . S
C196 C197 1.404 . S
C197 C196 1.404 . S
C197 C198 1.395 . S
C197 C208 1.451 . S
C198 C197 1.395 . S
C198 C199 1.322 . S
C198 H262 0.930 . S
C199 C198 1.322 . S
C199 C200 1.459 . S
C199 H263 0.929 . S
C200 C199 1.459 . S
C200 C201 1.445 . S
C200 C209 1.395 . S
C201 C179 1.432 . S
C201 C200 1.445 . S
C201 C202 1.370 . S
C202 C201 1.370 . S
C202 C203 1.438 . S
C202 H264 0.930 . S
C203 C189 1.497 . S
C203 C202 1.438 . S
C203 C204 1.360 . S
C204 C203 1.360 . S
C204 C205 1.401 . S
C204 C209 1.446 . S
C205 C204 1.401 . S
C205 C206 1.347 . S
C205 H265 0.929 . S
C206 C205 1.347 . S
C206 C207 1.455 . S
C206 H266 0.930 . S
C207 C194 1.412 . S
C207 C206 1.455 . S
C207 C208 1.331 . S
C208 C197 1.451 . S
C208 C207 1.331 . S
C208 C209 1.497 . S
C209 C200 1.395 . S
C209 C204 1.446 . S
C209 C208 1.497 . S
C210 C211 1.582 . S
C210 H267 0.962 . S
C210 H268 0.959 . S
C210 H269 0.958 . S
C211 C210 1.582 . S
C211 O214 1.458 . S
C211 H240 0.980 . S
O212 C157 1.435 . S
O212 C158 1.334 . S
O213 C185 1.412 . S
O213 C186 1.393 . S
O214 C176 1.435 . S
O214 C211 1.458 . S
O215 C167 1.468 . S
O215 C168 1.408 . S
H216 C157 0.980 . S
H217 C156 0.959 . S
H218 C156 0.959 . S
H219 C156 0.960 1_545 S
H220 C159 0.929 . S
H221 C163 0.929 . S
H222 C164 0.959 . S
H223 C164 0.961 . S
H224 C164 0.961 . S
H225 C165 0.960 . S
H226 C165 0.960 . S
H227 C165 0.961 . S
H228 C167 0.980 . S
H229 C166 0.961 . S
H230 C166 0.960 . S
H231 C166 0.959 . S
H232 C169 0.930 . S
H233 C173 0.931 . S
H234 C174 0.959 . S
H235 C174 0.961 1_565 S
H236 C174 0.959 1_565 S
H237 C175 0.960 . S
H238 C175 0.960 . S
H239 C175 0.960 . S
H240 C211 0.980 . S
H241 C177 0.930 . S
H242 C181 0.930 . S
H243 C182 0.961 . S
H244 C182 0.960 . S
H245 C182 0.958 . S
H246 C183 0.961 . S
H247 C183 0.960 . S
H248 C183 0.960 . S
H249 C185 0.980 . S
H250 C184 0.961 . S
H251 C184 0.961 1_565 S
H252 C184 0.959 1_565 S
H253 C187 0.932 . S
H254 C191 0.929 . S
H255 C192 0.961 . S
H256 C192 0.959 . S
H257 C192 0.959 . S
H258 C193 0.960 . S
H259 C193 0.962 . S
H260 C193 0.961 . S
H261 C195 0.929 . S
H262 C198 0.930 . S
H263 C199 0.929 . S
H264 C202 0.930 . S
H265 C205 0.929 . S
H266 C206 0.930 . S
H267 C210 0.962 . S
H268 C210 0.959 . S
H269 C210 0.958 . S
C270 C271 1.560 . S
C270 H331 0.959 . S
C270 H332 0.959 . S
C270 H333 0.960 . S
C271 C270 1.560 . S
C271 O326 1.426 . S
C271 H330 0.980 . S
C272 C273 1.407 . S
C272 C277 1.418 . S
C272 O326 1.334 . S
C273 C272 1.407 . S
C273 C274 1.360 . S
C273 H334 0.929 . S
C274 C273 1.360 . S
C274 C275 1.401 . S
C274 C278 1.527 . S
C275 C274 1.401 . S
C275 C276 1.405 . S
C275 C308 1.587 . S
C276 C275 1.405 . S
C276 C277 1.332 . S
C276 C279 1.496 . S
C277 C272 1.418 . S
C277 C276 1.332 . S
C277 H335 0.929 . S
C278 C274 1.527 . S
C278 H336 0.959 . S
C278 H337 0.961 . S
C278 H338 0.961 . S
C279 C276 1.496 . S
C279 H339 0.960 . S
C279 H340 0.960 . S
C279 H341 0.961 . S
C280 C281 1.517 . S
C280 H343 0.961 . S
C280 H344 0.960 . S
C280 H345 0.959 . S
C281 C280 1.517 . S
C281 O329 1.468 . S
C281 H342 0.980 . S
C282 C283 1.349 . S
C282 C287 1.367 . S
C282 O329 1.408 . S
C283 C282 1.349 . S
C283 C284 1.407 . S
C283 H346 0.930 . S
C284 C283 1.407 . S
C284 C285 1.449 . S
C284 C288 1.535 . S
C285 C284 1.449 . S
C285 C286 1.384 . S
C285 C310 1.553 . S
C286 C285 1.384 . S
C286 C287 1.364 . S
C286 C289 1.450 . S
C287 C282 1.367 . S
C287 C286 1.364 . S
C287 H347 0.931 . S
C288 C284 1.535 . S
C288 H348 0.959 . S
C288 H349 0.961 . S
C288 H350 0.959 . S
C289 C286 1.450 . S
C289 H351 0.960 . S
C289 H352 0.960 . S
C289 H353 0.960 . S
C290 C291 1.309 . S
C290 C295 1.304 . S
C290 O328 1.435 . S
C291 C290 1.309 . S
C291 C292 1.476 . S
C291 H355 0.930 . S
C292 C291 1.476 . S
C292 C293 1.400 . S
C292 C296 1.567 . S
C293 C292 1.400 . S
C293 C294 1.373 . S
C293 C315 1.432 . S
C294 C293 1.373 . S
C294 C295 1.339 . S
C294 C297 1.530 . S
C295 C290 1.304 . S
C295 C294 1.339 . S
C295 H356 0.930 . S
C296 C292 1.567 . S
C296 H357 0.961 . S
C296 H358 0.960 . S
C296 H359 0.958 . S
C297 C294 1.530 . S
C297 H360 0.961 . S
C297 H361 0.960 . S
C297 H362 0.960 . S
C298 C299 1.530 . S
C298 H364 0.961 . S
C298 H365 0.961 . S
C298 H366 0.959 . S
C299 C298 1.530 . S
C299 O327 1.412 . S
C299 H363 0.980 . S
C300 C301 1.288 . S
C300 C305 1.377 . S
C300 O327 1.393 . S
C301 C300 1.288 . S
C301 C302 1.369 . S
C301 H367 0.932 . S
C302 C301 1.369 . S
C302 C303 1.398 . S
C302 C306 1.527 . S
C303 C302 1.398 . S
C303 C304 1.380 . S
C303 C317 1.497 . S
C304 C303 1.380 . S
C304 C305 1.383 . S
C304 C307 1.603 . S
C305 C300 1.377 . S
C305 C304 1.383 . S
C305 H368 0.929 . S
C306 C302 1.527 . S
C306 H369 0.961 . S
C306 H370 0.959 . S
C306 H371 0.959 . S
C307 C304 1.603 . S
C307 H372 0.960 . S
C307 H373 0.962 . S
C307 H374 0.961 . S
C308 C275 1.587 . S
C308 C309 1.360 . S
C308 C321 1.412 . S
C309 C308 1.360 . S
C309 C310 1.365 . S
C309 H375 0.929 . S
C310 C285 1.553 . S
C310 C309 1.365 . S
C310 C311 1.404 . S
C311 C310 1.404 . S
C311 C312 1.395 . S
C311 C322 1.451 . S
C312 C311 1.395 . S
C312 C313 1.322 . S
C312 H376 0.930 . S
C313 C312 1.322 . S
C313 C314 1.459 . S
C313 H377 0.929 . S
C314 C313 1.459 . S
C314 C315 1.445 . S
C314 C323 1.395 . S
C315 C293 1.432 . S
C315 C314 1.445 . S
C315 C316 1.370 . S
C316 C315 1.370 . S
C316 C317 1.438 . S
C316 H378 0.930 . S
C317 C303 1.497 . S
C317 C316 1.438 . S
C317 C318 1.360 . S
C318 C317 1.360 . S
C318 C319 1.401 . S
C318 C323 1.446 . S
C319 C318 1.401 . S
C319 C320 1.347 . S
C319 H379 0.929 . S
C320 C319 1.347 . S
C320 C321 1.455 . S
C320 H380 0.930 . S
C321 C308 1.412 . S
C321 C320 1.455 . S
C321 C322 1.331 . S
C322 C311 1.451 . S
C322 C321 1.331 . S
C322 C323 1.497 . S
C323 C314 1.395 . S
C323 C318 1.446 . S
C323 C322 1.497 . S
C324 C325 1.582 . S
C324 H381 0.962 . S
C324 H382 0.959 . S
C324 H383 0.958 . S
C325 C324 1.582 . S
C325 O328 1.458 . S
C325 H354 0.980 . S
O326 C271 1.426 . S
O326 C272 1.334 . S
O327 C299 1.412 . S
O327 C300 1.393 . S
O328 C290 1.435 . S
O328 C325 1.458 . S
O329 C281 1.468 . S
O329 C282 1.408 . S
H330 C271 0.980 . S
H331 C270 0.959 . S
H332 C270 0.959 . S
H333 C270 0.960 . S
H334 C273 0.929 . S
H335 C277 0.929 . S
H336 C278 0.959 . S
H337 C278 0.961 . S
H338 C278 0.961 . S
H339 C279 0.960 . S
H340 C279 0.960 . S
H341 C279 0.961 . S
H342 C281 0.980 . S
H343 C280 0.961 . S
H344 C280 0.960 . S
H345 C280 0.959 . S
H346 C283 0.930 . S
H347 C287 0.931 . S
H348 C288 0.959 . S
H349 C288 0.961 . S
H350 C288 0.959 . S
H351 C289 0.960 . S
H352 C289 0.960 . S
H353 C289 0.960 . S
H354 C325 0.980 . S
H355 C291 0.930 . S
H356 C295 0.930 . S
H357 C296 0.961 . S
H358 C296 0.960 . S
H359 C296 0.958 . S
H360 C297 0.961 . S
H361 C297 0.960 . S
H362 C297 0.960 . S
H363 C299 0.980 . S
H364 C298 0.961 . S
H365 C298 0.961 . S
H366 C298 0.959 . S
H367 C301 0.932 . S
H368 C305 0.929 . S
H369 C306 0.961 . S
H370 C306 0.959 . S
H371 C306 0.959 . S
H372 C307 0.960 . S
H373 C307 0.962 . S
H374 C307 0.961 . S
H375 C309 0.929 . S
H376 C312 0.930 . S
H377 C313 0.929 . S
H378 C316 0.930 . S
H379 C319 0.929 . S
H380 C320 0.930 . S
H381 C324 0.962 . S
H382 C324 0.959 . S
H383 C324 0.958 . S
H384 C390 0.930 . S
H385 C394 0.930 . S
H386 C399 0.929 . S
H387 C397 0.929 . S
H388 C392 0.929 . S
H389 C398 0.929 . S
C390 H384 0.930 . S
C390 C391 1.367 . S
C390 C398 1.378 . S
C391 C390 1.367 . S
C391 C399 1.433 1_455 S
C392 H388 0.929 . S
C392 C394 1.378 . S
C392 C396 1.350 1_655 S
C393 C396 1.463 . S
C393 C398 1.350 . S
C393 N401 1.427 1_455 S
C394 H385 0.930 . S
C394 C392 1.378 . S
C394 C395 1.367 1_655 S
C395 C394 1.367 1_455 S
C395 C397 1.433 . S
C396 C392 1.350 1_455 S
C396 C393 1.463 . S
C396 N400 1.427 . S
C397 H387 0.929 . S
C397 C395 1.433 . S
C397 N400 1.384 . S
C398 H389 0.929 . S
C398 C390 1.378 . S
C398 C393 1.350 . S
C399 H386 0.929 . S
C399 C391 1.433 1_655 S
C399 N401 1.384 . S
N400 C396 1.427 . S
N400 C397 1.384 . S
N401 C393 1.427 1_655 S
N401 C399 1.384 . S
H402 C408 0.930 . S
H403 C412 0.930 1_565 S
H404 C417 0.929 1_565 S
H405 C415 0.929 . S
H406 C410 0.929 1_565 S
H407 C416 0.929 . S
C408 H402 0.930 . S
C408 C409 1.367 . S
C408 C416 1.378 . S
C409 C408 1.367 . S
C409 C417 1.433 . S
C410 H406 0.929 1_545 S
C410 C412 1.378 . S
C410 C414 1.350 . S
C411 C414 1.463 . S
C411 C416 1.350 . S
C411 N419 1.427 . S
C412 H403 0.930 1_545 S
C412 C410 1.378 . S
C412 C413 1.367 . S
C413 C412 1.367 . S
C413 C415 1.433 . S
C414 C410 1.350 . S
C414 C411 1.463 . S
C414 N418 1.427 . S
C415 H405 0.929 . S
C415 C413 1.433 . S
C415 N418 1.384 . S
C416 H407 0.929 . S
C416 C408 1.378 . S
C416 C411 1.350 . S
C417 H404 0.929 1_545 S
C417 C409 1.433 . S
C417 N419 1.384 . S
N418 C414 1.427 . S
N418 C415 1.384 . S
N419 C411 1.427 . S
N419 C417 1.384 . S
H420 C426 0.930 . S
H421 C430 0.930 . S
H422 C435 0.929 . S
H423 C433 0.929 . S
H424 C428 0.929 . S
H425 C434 0.929 . S
C426 H420 0.930 . S
C426 C427 1.367 . S
C426 C434 1.378 . S
C427 C426 1.367 . S
C427 C435 1.433 . S
C428 H424 0.929 . S
C428 C430 1.378 . S
C428 C432 1.350 . S
C429 C432 1.463 . S
C429 C434 1.350 . S
C429 N437 1.427 . S
C430 H421 0.930 . S
C430 C428 1.378 . S
C430 C431 1.367 . S
C431 C430 1.367 . S
C431 C433 1.433 . S
C432 C428 1.350 . S
C432 C429 1.463 . S
C432 N436 1.427 . S
C433 H423 0.929 . S
C433 C431 1.433 . S
C433 N436 1.384 . S
C434 H425 0.929 . S
C434 C426 1.378 . S
C434 C429 1.350 . S
C435 H422 0.929 . S
C435 C427 1.433 . S
C435 N437 1.384 . S
N436 C432 1.427 . S
N436 C433 1.384 . S
N437 C429 1.427 . S
N437 C435 1.384 . S
H438 C444 0.936 . S
H439 C448 0.930 . S
H440 C453 0.929 . S
H441 C451 0.929 1_655 S
H442 C446 0.929 . S
H443 C452 0.935 1_655 S
C444 H438 0.936 . S
C444 C445 1.372 1_655 S
C444 C452 1.356 1_655 S
C445 C444 1.372 1_455 S
C445 C453 1.433 . S
C446 H442 0.929 . S
C446 C448 1.378 . S
C446 C450 1.350 . S
C447 C450 1.463 . S
C447 C452 1.356 . S
C447 N455 1.427 . S
C448 H439 0.930 . S
C448 C446 1.378 . S
C448 C449 1.367 . S
C449 C448 1.367 . S
C449 C451 1.433 . S
C450 C446 1.350 . S
C450 C447 1.463 . S
C450 N454 1.427 . S
C451 H441 0.929 1_455 S
C451 C449 1.433 . S
C451 N454 1.384 . S
C452 H443 0.935 1_455 S
C452 C444 1.356 1_455 S
C452 C447 1.356 . S
C453 H440 0.929 . S
C453 C445 1.433 . S
C453 N455 1.384 . S
N454 C450 1.427 . S
N454 C451 1.384 . S
N455 C447 1.427 . S
N455 C453 1.384 . S
H456 C462 0.930 1_565 S
H457 C466 0.930 . S
H458 C471 0.929 . S
H459 C469 0.929 . S
H460 C464 0.929 . S
H461 C470 0.929 1_565 S
C462 H456 0.930 1_545 S
C462 C463 1.367 . S
C462 C470 1.378 . S
C463 C462 1.367 . S
C463 C471 1.433 . S
C464 H460 0.929 . S
C464 C466 1.378 . S
C464 C468 1.350 . S
C465 C468 1.463 . S
C465 C470 1.350 . S
C465 N473 1.427 . S
C466 H457 0.930 . S
C466 C464 1.378 . S
C466 C467 1.367 . S
C467 C466 1.367 . S
C467 C469 1.433 . S
C468 C464 1.350 . S
C468 C465 1.463 . S
C468 N472 1.427 . S
C469 H459 0.929 . S
C469 C467 1.433 . S
C469 N472 1.384 . S
C470 H461 0.929 1_545 S
C470 C462 1.378 . S
C470 C465 1.350 . S
C471 H458 0.929 . S
C471 C463 1.433 . S
C471 N473 1.384 . S
N472 C468 1.427 . S
N472 C469 1.384 . S
N473 C465 1.427 . S
N473 C471 1.384 . S
H474 C480 0.930 . S
H475 C484 0.930 . S
H476 C489 0.929 . S
H477 C487 0.929 . S
H478 C482 0.929 . S
H479 C488 0.929 . S
C480 H474 0.930 . S
C480 C481 1.367 . S
C480 C488 1.378 . S
C481 C480 1.367 . S
C481 C489 1.433 . S
C482 H478 0.929 . S
C482 C484 1.378 . S
C482 C486 1.350 . S
C483 C486 1.463 . S
C483 C488 1.350 . S
C483 N491 1.427 . S
C484 H475 0.930 . S
C484 C482 1.378 . S
C484 C485 1.367 . S
C485 C484 1.367 . S
C485 C487 1.433 . S
C486 C482 1.350 . S
C486 C483 1.463 . S
C486 N490 1.427 . S
C487 H477 0.929 . S
C487 C485 1.433 . S
C487 N490 1.384 . S
C488 H479 0.929 . S
C488 C480 1.378 . S
C488 C483 1.350 . S
C489 H476 0.929 . S
C489 C481 1.433 . S
C489 N491 1.384 . S
N490 C486 1.427 . S
N490 C487 1.384 . S
N491 C483 1.427 . S
N491 C489 1.384 . S
H492 C498 0.930 . S
H493 C502 0.930 . S
H494 C507 0.929 . S
H495 C505 0.929 . S
H496 C500 0.929 . S
H497 C506 0.929 . S
C498 H492 0.930 . S
C498 C499 1.367 . S
C498 C506 1.378 . S
C499 C498 1.367 . S
C499 C507 1.433 . S
C500 H496 0.929 . S
C500 C502 1.378 . S
C500 C504 1.350 . S
C501 C504 1.463 . S
C501 C506 1.350 . S
C501 N509 1.427 . S
C502 H493 0.930 . S
C502 C500 1.378 . S
C502 C503 1.367 . S
C503 C502 1.367 . S
C503 C505 1.433 . S
C504 C500 1.350 . S
C504 C501 1.463 . S
C504 N508 1.427 . S
C505 H495 0.929 . S
C505 C503 1.433 . S
C505 N508 1.384 . S
C506 H497 0.929 . S
C506 C498 1.378 . S
C506 C501 1.350 . S
C507 H494 0.929 . S
C507 C499 1.433 . S
C507 N509 1.384 . S
N508 C504 1.427 . S
N508 C505 1.384 . S
N509 C501 1.427 . S
N509 C507 1.384 . S
H510 C516 0.930 . S
H511 C520 0.930 . S
H512 C525 0.929 . S
H513 C523 0.929 . S
H514 C518 0.945 . S
H515 C524 0.929 . S
C516 H510 0.930 . S
C516 C517 1.367 . S
C516 C524 1.378 . S
C517 C516 1.367 . S
C517 C525 1.433 . S
C518 H514 0.945 . S
C518 C520 1.378 . S
C518 C522 1.350 1_556 S
C519 C522 1.463 . S
C519 C524 1.350 . S
C519 N527 1.427 . S
C520 H511 0.930 . S
C520 C518 1.378 . S
C520 C521 1.367 . S
C521 C520 1.367 . S
C521 C523 1.433 . S
C522 C518 1.350 1_554 S
C522 C519 1.463 . S
C522 N526 1.436 . S
C523 H513 0.929 . S
C523 C521 1.433 . S
C523 N526 1.355 1_556 S
C524 H515 0.929 . S
C524 C516 1.378 . S
C524 C519 1.350 . S
C525 H512 0.929 . S
C525 C517 1.433 . S
C525 N527 1.384 . S
N526 C522 1.436 . S
N526 C523 1.355 1_554 S
N527 C519 1.427 . S
N527 C525 1.384 . S
H528 C534 0.930 . S
H529 C538 0.930 . S
H530 C543 0.929 1_655 S
H531 C541 0.929 . S
H532 C536 0.929 . S
H533 C542 0.929 . S
C534 H528 0.930 . S
C534 C535 1.367 . S
C534 C542 1.378 . S
C535 C534 1.367 . S
C535 C543 1.433 . S
C536 H532 0.929 . S
C536 C538 1.378 . S
C536 C540 1.350 1_655 S
C537 C540 1.463 . S
C537 C542 1.350 . S
C537 N545 1.427 . S
C538 H529 0.930 . S
C538 C536 1.378 . S
C538 C539 1.367 1_655 S
C539 C538 1.367 1_455 S
C539 C541 1.433 . S
C540 C536 1.350 1_455 S
C540 C537 1.463 . S
C540 N544 1.427 . S
C541 H531 0.929 . S
C541 C539 1.433 . S
C541 N544 1.384 . S
C542 H533 0.929 . S
C542 C534 1.378 . S
C542 C537 1.350 . S
C543 H530 0.929 1_455 S
C543 C535 1.433 . S
C543 N545 1.384 . S
N544 C540 1.427 . S
N544 C541 1.384 . S
N545 C537 1.427 . S
N545 C543 1.384 . S
H546 C552 0.930 . S
H547 C556 0.930 . S
H548 C561 0.929 . S
H549 C559 0.929 . S
H550 C554 0.929 . S
H551 C560 0.929 . S
C552 H546 0.930 . S
C552 C553 1.367 . S
C552 C560 1.378 . S
C553 C552 1.367 . S
C553 C561 1.433 . S
C554 H550 0.929 . S
C554 C556 1.378 . S
C554 C558 1.350 . S
C555 C558 1.463 . S
C555 C560 1.350 . S
C555 N563 1.427 . S
C556 H547 0.930 . S
C556 C554 1.378 . S
C556 C557 1.367 . S
C557 C556 1.367 . S
C557 C559 1.433 . S
C558 C554 1.350 . S
C558 C555 1.463 . S
C558 N562 1.427 . S
C559 H549 0.929 . S
C559 C557 1.433 . S
C559 N562 1.384 . S
C560 H551 0.929 . S
C560 C552 1.378 . S
C560 C555 1.350 . S
C561 H548 0.929 . S
C561 C553 1.433 . S
C561 N563 1.384 . S
N562 C558 1.427 . S
N562 C559 1.384 . S
N563 C555 1.427 . S
N563 C561 1.384 . S
H564 C570 0.930 . S
H565 C574 0.930 . S
H566 C579 0.929 . S
H567 C577 0.929 . S
H568 C572 0.929 . S
H569 C578 0.929 1_556 S
C570 H564 0.930 . S
C570 C571 1.367 . S
C570 C578 1.378 . S
C571 C570 1.367 . S
C571 C579 1.433 . S
C572 H568 0.929 . S
C572 C574 1.378 1_554 S
C572 C576 1.349 . S
C573 C576 1.459 . S
C573 C578 1.350 . S
C573 N581 1.427 . S
C574 H565 0.930 . S
C574 C572 1.378 1_556 S
C574 C575 1.367 . S
C575 C574 1.367 . S
C575 C577 1.433 . S
C576 C572 1.349 . S
C576 C573 1.459 . S
C576 N580 1.433 1_554 S
C577 H567 0.929 . S
C577 C575 1.433 . S
C577 N580 1.384 . S
C578 H569 0.929 1_554 S
C578 C570 1.378 . S
C578 C573 1.350 . S
C579 H566 0.929 . S
C579 C571 1.433 . S
C579 N581 1.384 . S
N580 C576 1.433 1_556 S
N580 C577 1.384 . S
N581 C573 1.427 . S
N581 C579 1.384 . S
H582 C588 0.930 . S
H583 C592 0.930 . S
H584 C597 0.929 . S
H585 C595 0.929 . S
H586 C590 0.929 . S
H587 C596 0.929 . S
C588 H582 0.930 . S
C588 C589 1.367 . S
C588 C596 1.378 . S
C589 C588 1.367 . S
C589 C597 1.433 1_455 S
C590 H586 0.929 . S
C590 C592 1.378 . S
C590 C594 1.350 1_655 S
C591 C594 1.463 . S
C591 C596 1.350 . S
C591 N599 1.427 1_455 S
C592 H583 0.930 . S
C592 C590 1.378 . S
C592 C593 1.367 1_655 S
C593 C592 1.367 1_455 S
C593 C595 1.433 . S
C594 C590 1.350 1_455 S
C594 C591 1.463 . S
C594 N598 1.427 . S
C595 H585 0.929 . S
C595 C593 1.433 . S
C595 N598 1.384 . S
C596 H587 0.929 . S
C596 C588 1.378 . S
C596 C591 1.350 . S
C597 H584 0.929 . S
C597 C589 1.433 1_655 S
C597 N599 1.384 . S
N598 C594 1.427 . S
N598 C595 1.384 . S
N599 C591 1.427 1_655 S
N599 C597 1.384 . S
C395 C97 1.165 . S
C391 C6 1.564 . S
C409 C22 1.655 . S
C413 C211 1.261 . S
C427 C34 1.096 . S
C431 C271 0.920 . S
C445 C7 1.408 . S
C449 C71 1.126 . S
C467 C185 1.219 . S
C463 C23 1.513 . S
C481 C35 1.269 . S
C485 C281 0.775 . S
C503 C167 1.016 . S
C499 C36 1.608 . S
C517 C9 1.750 . S
C521 C299 1.421 . S
C539 C43 1.062 1_455 S
C535 C21 1.325 . S
C557 C157 1.155 . S
C553 C37 1.433 . S
C575 C325 1.440 . S
C571 C8 1.891 . S
C589 C20 1.471 . S
C593 C53 0.923 . S
