# Generated by pormake.
# Topology ctn, (3,4)-cn, num edge types: 1
# Building blocks:
#     Node 0, Type 0, BuildingBlock: KAKCAD_clean_linker_0, # of connection points: 3
#     Node 1, Type 0, BuildingBlock: KAKCAD_clean_linker_0, # of connection points: 3
#     Node 2, Type 0, BuildingBlock: KAKCAD_clean_linker_0, # of connection points: 3
#     Node 3, Type 0, BuildingBlock: KAKCAD_clean_linker_0, # of connection points: 3
#     Node 4, Type 0, BuildingBlock: KAKCAD_clean_linker_0, # of connection points: 3
#     Node 5, Type 0, BuildingBlock: KAKCAD_clean_linker_0, # of connection points: 3
#     Node 6, Type 0, BuildingBlock: KAKCAD_clean_linker_0, # of connection points: 3
#     Node 7, Type 0, BuildingBlock: KAKCAD_clean_linker_0, # of connection points: 3
#     Node 8, Type 0, BuildingBlock: KAKCAD_clean_linker_0, # of connection points: 3
#     Node 9, Type 0, BuildingBlock: KAKCAD_clean_linker_0, # of connection points: 3
#     Node 10, Type 0, BuildingBlock: KAKCAD_clean_linker_0, # of connection points: 3
#     Node 11, Type 0, BuildingBlock: KAKCAD_clean_linker_0, # of connection points: 3
#     Node 12, Type 0, BuildingBlock: KAKCAD_clean_linker_0, # of connection points: 3
#     Node 13, Type 0, BuildingBlock: KAKCAD_clean_linker_0, # of connection points: 3
#     Node 14, Type 0, BuildingBlock: KAKCAD_clean_linker_0, # of connection points: 3
#     Node 15, Type 0, BuildingBlock: KAKCAD_clean_linker_0, # of connection points: 3
#     Node 16, Type 1, BuildingBlock: NAHDIM_clean_sbu_0, # of connection points: 4
#     Node 17, Type 1, BuildingBlock: NAHDIM_clean_sbu_0, # of connection points: 4
#     Node 18, Type 1, BuildingBlock: NAHDIM_clean_sbu_0, # of connection points: 4
#     Node 19, Type 1, BuildingBlock: NAHDIM_clean_sbu_0, # of connection points: 4
#     Node 20, Type 1, BuildingBlock: NAHDIM_clean_sbu_0, # of connection points: 4
#     Node 21, Type 1, BuildingBlock: NAHDIM_clean_sbu_0, # of connection points: 4
#     Node 22, Type 1, BuildingBlock: NAHDIM_clean_sbu_0, # of connection points: 4
#     Node 23, Type 1, BuildingBlock: NAHDIM_clean_sbu_0, # of connection points: 4
#     Node 24, Type 1, BuildingBlock: NAHDIM_clean_sbu_0, # of connection points: 4
#     Node 25, Type 1, BuildingBlock: NAHDIM_clean_sbu_0, # of connection points: 4
#     Node 26, Type 1, BuildingBlock: NAHDIM_clean_sbu_0, # of connection points: 4
#     Node 27, Type 1, BuildingBlock: NAHDIM_clean_sbu_0, # of connection points: 4
#     Edge 28, Type (0, 1), BuildingBlock: OJICUG_clean_linker_0, # of connection points: 2
#     Edge 29, Type (0, 1), BuildingBlock: OJICUG_clean_linker_0, # of connection points: 2
#     Edge 30, Type (0, 1), BuildingBlock: OJICUG_clean_linker_0, # of connection points: 2
#     Edge 31, Type (0, 1), BuildingBlock: OJICUG_clean_linker_0, # of connection points: 2
#     Edge 32, Type (0, 1), BuildingBlock: OJICUG_clean_linker_0, # of connection points: 2
#     Edge 33, Type (0, 1), BuildingBlock: OJICUG_clean_linker_0, # of connection points: 2
#     Edge 34, Type (0, 1), BuildingBlock: OJICUG_clean_linker_0, # of connection points: 2
#     Edge 35, Type (0, 1), BuildingBlock: OJICUG_clean_linker_0, # of connection points: 2
#     Edge 36, Type (0, 1), BuildingBlock: OJICUG_clean_linker_0, # of connection points: 2
#     Edge 37, Type (0, 1), BuildingBlock: OJICUG_clean_linker_0, # of connection points: 2
#     Edge 38, Type (0, 1), BuildingBlock: OJICUG_clean_linker_0, # of connection points: 2
#     Edge 39, Type (0, 1), BuildingBlock: OJICUG_clean_linker_0, # of connection points: 2
#     Edge 40, Type (0, 1), BuildingBlock: OJICUG_clean_linker_0, # of connection points: 2
#     Edge 41, Type (0, 1), BuildingBlock: OJICUG_clean_linker_0, # of connection points: 2
#     Edge 42, Type (0, 1), BuildingBlock: OJICUG_clean_linker_0, # of connection points: 2
#     Edge 43, Type (0, 1), BuildingBlock: OJICUG_clean_linker_0, # of connection points: 2
#     Edge 44, Type (0, 1), BuildingBlock: OJICUG_clean_linker_0, # of connection points: 2
#     Edge 45, Type (0, 1), BuildingBlock: OJICUG_clean_linker_0, # of connection points: 2
#     Edge 46, Type (0, 1), BuildingBlock: OJICUG_clean_linker_0, # of connection points: 2
#     Edge 47, Type (0, 1), BuildingBlock: OJICUG_clean_linker_0, # of connection points: 2
#     Edge 48, Type (0, 1), BuildingBlock: OJICUG_clean_linker_0, # of connection points: 2
#     Edge 49, Type (0, 1), BuildingBlock: OJICUG_clean_linker_0, # of connection points: 2
#     Edge 50, Type (0, 1), BuildingBlock: OJICUG_clean_linker_0, # of connection points: 2
#     Edge 51, Type (0, 1), BuildingBlock: OJICUG_clean_linker_0, # of connection points: 2
#     Edge 52, Type (0, 1), BuildingBlock: OJICUG_clean_linker_0, # of connection points: 2
#     Edge 53, Type (0, 1), BuildingBlock: OJICUG_clean_linker_0, # of connection points: 2
#     Edge 54, Type (0, 1), BuildingBlock: OJICUG_clean_linker_0, # of connection points: 2
#     Edge 55, Type (0, 1), BuildingBlock: OJICUG_clean_linker_0, # of connection points: 2
#     Edge 56, Type (0, 1), BuildingBlock: OJICUG_clean_linker_0, # of connection points: 2
#     Edge 57, Type (0, 1), BuildingBlock: OJICUG_clean_linker_0, # of connection points: 2
#     Edge 58, Type (0, 1), BuildingBlock: OJICUG_clean_linker_0, # of connection points: 2
#     Edge 59, Type (0, 1), BuildingBlock: OJICUG_clean_linker_0, # of connection points: 2
#     Edge 60, Type (0, 1), BuildingBlock: OJICUG_clean_linker_0, # of connection points: 2
#     Edge 61, Type (0, 1), BuildingBlock: OJICUG_clean_linker_0, # of connection points: 2
#     Edge 62, Type (0, 1), BuildingBlock: OJICUG_clean_linker_0, # of connection points: 2
#     Edge 63, Type (0, 1), BuildingBlock: OJICUG_clean_linker_0, # of connection points: 2
#     Edge 64, Type (0, 1), BuildingBlock: OJICUG_clean_linker_0, # of connection points: 2
#     Edge 65, Type (0, 1), BuildingBlock: OJICUG_clean_linker_0, # of connection points: 2
#     Edge 66, Type (0, 1), BuildingBlock: OJICUG_clean_linker_0, # of connection points: 2
#     Edge 67, Type (0, 1), BuildingBlock: OJICUG_clean_linker_0, # of connection points: 2
#     Edge 68, Type (0, 1), BuildingBlock: OJICUG_clean_linker_0, # of connection points: 2
#     Edge 69, Type (0, 1), BuildingBlock: OJICUG_clean_linker_0, # of connection points: 2
#     Edge 70, Type (0, 1), BuildingBlock: OJICUG_clean_linker_0, # of connection points: 2
#     Edge 71, Type (0, 1), BuildingBlock: OJICUG_clean_linker_0, # of connection points: 2
#     Edge 72, Type (0, 1), BuildingBlock: OJICUG_clean_linker_0, # of connection points: 2
#     Edge 73, Type (0, 1), BuildingBlock: OJICUG_clean_linker_0, # of connection points: 2
#     Edge 74, Type (0, 1), BuildingBlock: OJICUG_clean_linker_0, # of connection points: 2
#     Edge 75, Type (0, 1), BuildingBlock: OJICUG_clean_linker_0, # of connection points: 2
# Relax obj value: 0.002
# Max RMSD: 0.032
# Mean RMSD: 0.017
data_MOF--net-ctn--node1-NAHDIM_clean_sbu_0--node2-KAKCAD_clean_linker_0--edge1-OJICUG_clean_linker_0
_symmetry_space_group_name_H-M    P1
_symmetry_Int_Tables_number       1
_symmetry_cell_setting            triclinic
loop_
_symmetry_equiv_pos_as_xyz
'x, y, z'
_cell_length_a     52.579739
_cell_length_b     52.872314
_cell_length_c     52.258624
_cell_angle_alpha  91.405442
_cell_angle_beta   90.481173
_cell_angle_gamma 92.538526
loop_
_atom_site_label
_atom_site_type_symbol
_atom_site_fract_x
_atom_site_fract_y
_atom_site_fract_z
_atom_type_partial_charge
C0 C 0.02449 0.10704 0.97094 0.0
C1 C 0.01813 0.1307 0.98128 0.0
C2 C 0.02873 0.08682 0.98695 0.0
C3 C 0.02678 0.08984 0.01367 0.0
C4 C 0.02048 0.11355 0.02398 0.0
C5 C 0.01617 0.13372 0.00797 0.0
C6 C 0.03137 0.06841 0.03076 0.0
C7 C 0.05137 0.05224 0.02587 0.0
C8 C 0.05604 0.03216 0.04213 0.0
C9 C 0.04045 0.02834 0.06352 0.0
C10 C 0.02028 0.04422 0.06868 0.0
C11 C 0.01587 0.06416 0.05215 0.0
C12 C 0.00386 0.03998 0.09134 0.0
C13 C 0.99598 0.01531 0.09813 0.0
C14 C 0.99608 0.06056 0.10645 0.0
C15 C 0.9809 0.05655 0.12793 0.0
C16 C 0.97323 0.03187 0.13483 0.0
C17 C 0.07728 0.01523 0.03685 0.0
C18 C 0.08153 0.00602 0.01187 0.0
C19 C 0.09336 0.00806 0.05678 0.0
C20 C 0.11324 0.99201 0.05183 0.0
C21 C 0.11742 0.98269 0.02687 0.0
C22 C 0.10135 0.98987 0.00694 0.0
C23 C 0.98088 0.0113 0.11965 0.0
H24 H 0.02581 0.10402 0.95043 0.0
H25 H 0.03318 0.06872 0.97837 0.0
H26 H 0.01925 0.11665 0.04449 0.0
H27 H 0.01169 0.15183 0.01654 0.0
H28 H 0.0638 0.0557 0.00977 0.0
H29 H -5e-05 0.07608 0.05564 0.0
H30 H 0.04406 0.01295 0.07618 0.0
H31 H 0.00125 -0.00094 0.08666 0.0
H32 H 0.00211 0.07979 0.10196 0.0
H33 H 0.97558 0.07277 0.13943 0.0
H34 H 0.06934 0.01106 0.99616 0.0
H35 H 0.09071 0.01504 0.07619 0.0
H36 H 0.97494 0.99207 0.12424 0.0
H37 H 0.10424 0.98321 0.98746 0.0
H38 H 0.12515 0.98664 0.06763 0.0
C39 C 0.35325 0.75872 0.26663 0.0
C40 C 0.3693 0.73897 0.27229 0.0
C41 C 0.33212 0.75438 0.25047 0.0
C42 C 0.32647 0.73016 0.23969 0.0
C43 C 0.34239 0.71036 0.24545 0.0
C44 C 0.36358 0.71472 0.26153 0.0
C45 C 0.30409 0.72556 0.22241 0.0
C46 C 0.29876 0.74284 0.20328 0.0
C47 C 0.27776 0.73851 0.18668 0.0
C48 C 0.26194 0.71667 0.18955 0.0
C49 C 0.26692 0.6992 0.20858 0.0
C50 C 0.28807 0.7038 0.22491 0.0
C51 C 0.25007 0.67612 0.21129 0.0
C52 C 0.2235 0.67741 0.20904 0.0
C53 C 0.26044 0.65256 0.21582 0.0
C54 C 0.24461 0.63079 0.2179 0.0
C55 C 0.21805 0.63207 0.21543 0.0
C56 C 0.27247 0.75658 0.16615 0.0
C57 C 0.27488 0.78287 0.17093 0.0
C58 C 0.26479 0.74762 0.14161 0.0
C59 C 0.25943 0.76452 0.12237 0.0
C60 C 0.2617 0.79079 0.12717 0.0
C61 C 0.26959 0.79979 0.15164 0.0
C62 C 0.20768 0.65564 0.21105 0.0
H63 H 0.35683 0.77752 0.27493 0.0
H64 H 0.32 0.76992 0.24667 0.0
H65 H 0.33871 0.69156 0.23716 0.0
H66 H 0.37575 0.69918 0.26514 0.0
H67 H 0.31143 0.75932 0.20083 0.0
H68 H 0.29175 0.6907 0.24 0.0
H69 H 0.2457 0.7132 0.17685 0.0
H70 H 0.21487 0.69533 0.20598 0.0
H71 H 0.28085 0.65085 0.21728 0.0
H72 H 0.2532 0.61285 0.22096 0.0
H73 H 0.28045 0.79039 0.18971 0.0
H74 H 0.26321 0.7275 0.13714 0.0
H75 H 0.18727 0.65732 0.20948 0.0
H76 H 0.27125 0.81993 0.15601 0.0
H77 H 0.25384 0.75699 0.1036 0.0
C78 C 0.99565 0.48209 0.12816 0.0
C79 C 0.02221 0.48058 0.12617 0.0
C80 C 0.97991 0.47798 0.10665 0.0
C81 C 0.99032 0.47211 0.08267 0.0
C82 C 0.01684 0.47053 0.08065 0.0
C83 C 0.03261 0.47478 0.10213 0.0
C84 C 0.97354 0.46745 0.0599 0.0
C85 C 0.95343 0.4834 0.05507 0.0
C86 C 0.9373 0.47895 0.0337 0.0
C87 C 0.9413 0.45809 0.01729 0.0
C88 C 0.96124 0.44194 0.02186 0.0
C89 C 0.9774 0.44686 0.04309 0.0
C90 C 0.96488 0.41975 0.00459 0.0
C91 C 0.94393 0.40396 0.99674 0.0
C92 C 0.98921 0.41432 0.99565 0.0
C93 C 0.99247 0.39371 0.97891 0.0
C94 C 0.97147 0.37798 0.97088 0.0
C95 C 0.91623 0.49596 0.02845 0.0
C96 C 0.90073 0.5045 0.04837 0.0
C97 C 0.91121 0.50346 0.00334 0.0
C98 C 0.89099 0.51891 0.99823 0.0
C99 C 0.87531 0.52724 0.01809 0.0
C100 C 0.88049 0.51996 0.04325 0.0
C101 C 0.94719 0.38328 0.98016 0.0
H102 H 0.98693 0.48608 0.14644 0.0
H103 H 0.95951 0.47896 0.10888 0.0
H104 H 0.02544 0.46634 0.06235 0.0
H105 H 0.053 0.47389 0.09979 0.0
H106 H 0.95072 0.49966 0.06763 0.0
H107 H 0.99251 0.43415 0.04698 0.0
H108 H 0.92879 0.45435 0.00092 0.0
H109 H 0.92501 0.40746 0.00365 0.0
H110 H 0.00567 0.42633 0.00121 0.0
H111 H 0.01138 0.39041 0.97188 0.0
H112 H 0.90391 0.4988 0.06786 0.0
H113 H 0.92307 0.49756 0.98764 0.0
H114 H 0.93067 0.37128 0.97482 0.0
H115 H 0.86857 0.52577 0.05894 0.0
H116 H 0.88781 0.52454 0.97871 0.0
C117 C 0.69398 0.74143 0.13085 0.0
C118 C 0.71843 0.73431 0.12373 0.0
C119 C 0.69077 0.75799 0.1517 0.0
C120 C 0.71194 0.76782 0.16592 0.0
C121 C 0.73636 0.76053 0.15894 0.0
C122 C 0.73957 0.74398 0.13808 0.0
C123 C 0.70857 0.78594 0.1877 0.0
C124 C 0.68853 0.78215 0.20497 0.0
C125 C 0.68472 0.79958 0.2252 0.0
C126 C 0.70171 0.82081 0.22822 0.0
C127 C 0.72217 0.82468 0.2114 0.0
C128 C 0.72526 0.80725 0.19107 0.0
C129 C 0.74035 0.8469 0.21495 0.0
C130 C 0.73172 0.87083 0.22214 0.0
C131 C 0.76656 0.84431 0.21108 0.0
C132 C 0.78368 0.86514 0.21411 0.0
C133 C 0.77504 0.88904 0.22127 0.0
C134 C 0.66296 0.79565 0.24302 0.0
C135 C 0.63937 0.78521 0.23395 0.0
C136 C 0.66547 0.80242 0.26918 0.0
C137 C 0.64489 0.79913 0.28571 0.0
C138 C 0.62149 0.78858 0.27656 0.0
C139 C 0.61896 0.78151 0.25058 0.0
C140 C 0.74889 0.89165 0.22534 0.0
H141 H 0.67727 0.7341 0.12037 0.0
H142 H 0.67172 0.76341 0.15644 0.0
H143 H 0.75304 0.76756 0.16966 0.0
H144 H 0.75869 0.73909 0.13296 0.0
H145 H 0.67616 0.76528 0.20289 0.0
H146 H 0.74037 0.81061 0.17742 0.0
H147 H 0.69904 0.83439 0.24371 0.0
H148 H 0.71163 0.87361 0.22488 0.0
H149 H 0.77393 0.82607 0.20599 0.0
H150 H 0.80377 0.86247 0.21121 0.0
H151 H 0.63648 0.78023 0.21388 0.0
H152 H 0.68342 0.81002 0.27703 0.0
H153 H 0.74163 0.90991 0.23056 0.0
H154 H 0.60099 0.7736 0.24303 0.0
H155 H 0.64735 0.80451 0.30574 0.0
C156 C 0.95848 0.98577 0.40788 0.0
C157 C 0.96749 0.98559 0.38266 0.0
C158 C 0.97509 0.9821 0.42835 0.0
C159 C 0.00106 0.97875 0.42397 0.0
C160 C 0.01018 0.97923 0.39881 0.0
C161 C 0.99348 0.98236 0.37829 0.0
C162 C 0.01844 0.97384 0.44551 0.0
C163 C 0.01265 0.95384 0.46197 0.0
C164 C 0.02943 0.9483 0.48189 0.0
C165 C 0.05175 0.96355 0.48571 0.0
C166 C 0.05769 0.98381 0.46961 0.0
C167 C 0.04107 0.98864 0.44927 0.0
C168 C 0.08138 -0.00032 0.47414 0.0
C169 C 0.08857 0.00759 0.49913 0.0
C170 C 0.09732 0.0064 0.45372 0.0
C171 C 0.12021 0.02034 0.45829 0.0
C172 C 0.1276 0.02791 0.48336 0.0
C173 C 0.02416 0.92618 0.49828 0.0
C174 C -0.00039 0.92088 0.50777 0.0
C175 C 0.04378 0.91014 0.50452 0.0
C176 C 0.03905 0.88941 0.52007 0.0
C177 C 0.01458 0.88421 0.52978 0.0
C178 C 0.99488 0.90012 0.52338 0.0
C179 C 0.11139 0.02155 0.50369 0.0
H180 H 0.93848 0.98812 0.41167 0.0
H181 H 0.96767 0.98186 0.44763 0.0
H182 H 0.03011 0.97654 0.39498 0.0
H183 H 0.00085 0.98225 0.35899 0.0
H184 H 0.99552 0.94201 0.45861 0.0
H185 H 0.04541 0.00424 0.43672 0.0
H186 H 0.06468 0.95949 0.50118 0.0
H187 H 0.07648 0.00307 0.51522 0.0
H188 H 0.09241 0.00034 0.43429 0.0
H189 H 0.13239 0.02468 0.44222 0.0
H190 H 0.98417 0.93304 0.50348 0.0
H191 H 0.06278 0.91343 0.4971 0.0
H192 H 0.11623 0.02753 0.52316 0.0
H193 H 0.97588 0.89679 0.5308 0.0
H194 H 0.05453 0.87725 0.52422 0.0
C195 C 0.12763 0.70908 0.75068 0.0
C196 C 0.12301 0.73324 0.74152 0.0
C197 C 0.14895 0.7053 0.76602 0.0
C198 C 0.16604 0.72564 0.77266 0.0
C199 C 0.16144 0.7498 0.76349 0.0
C200 C 0.1402 0.75355 0.748 0.0
C201 C 0.18847 0.72168 0.7893 0.0
C202 C 0.20342 0.70061 0.78517 0.0
C203 C 0.22458 0.69665 0.80094 0.0
C204 C 0.23059 0.71398 0.82113 0.0
C205 C 0.21577 0.73508 0.82564 0.0
C206 C 0.19481 0.73884 0.80954 0.0
C207 C 0.22195 0.75297 0.8474 0.0
C208 C 0.2288 0.74387 0.87143 0.0
C209 C 0.22094 0.77925 0.84436 0.0
C210 C 0.22668 0.79605 0.86488 0.0
C211 C 0.23354 0.78694 0.88891 0.0
C212 C 0.24039 0.67441 0.79639 0.0
C213 C 0.2289 0.65036 0.7909 0.0
C214 C 0.26709 0.67704 0.7977 0.0
C215 C 0.28197 0.65608 0.79368 0.0
C216 C 0.27049 0.63199 0.78834 0.0
C217 C 0.24378 0.62937 0.78697 0.0
C218 C 0.23452 0.76065 0.89195 0.0
H219 H 0.11486 0.69301 0.7458 0.0
H220 H 0.15188 0.68651 0.77297 0.0
H221 H 0.17439 0.76579 0.76812 0.0
H222 H 0.13704 0.77242 0.74139 0.0
H223 H 0.19893 0.68759 0.76927 0.0
H224 H 0.18293 0.75474 0.81325 0.0
H225 H 0.24681 0.71098 0.83344 0.0
H226 H 0.22933 0.72372 0.87452 0.0
H227 H 0.21605 0.78687 0.82599 0.0
H228 H 0.22609 0.8162 0.86181 0.0
H229 H 0.20836 0.64768 0.78998 0.0
H230 H 0.27652 0.69537 0.80164 0.0
H231 H 0.23933 0.75299 0.91031 0.0
H232 H 0.23436 0.61112 0.78263 0.0
H233 H 0.30249 0.65869 0.7951 0.0
C234 C 0.97623 0.61992 0.52883 0.0
C235 C 0.00057 0.6266 0.53883 0.0
C236 C 0.97266 0.59951 0.51152 0.0
C237 C 0.99334 0.58529 0.50378 0.0
C238 C 0.01773 0.59205 0.51361 0.0
C239 C 0.0213 0.61246 0.53099 0.0
C240 C 0.98932 0.56336 0.48567 0.0
C241 C 0.00594 0.55973 0.46514 0.0
C242 C 0.00157 0.53957 0.4473 0.0
C243 C 0.98056 0.52258 0.45079 0.0
C244 C 0.96405 0.52561 0.47155 0.0
C245 C 0.96851 0.5462 0.48873 0.0
C246 C 0.94195 0.50754 0.47529 0.0
C247 C 0.92737 0.49783 0.45427 0.0
C248 C 0.93496 0.50024 0.50006 0.0
C249 C 0.91361 0.48414 0.50378 0.0
C250 C 0.89895 0.47471 0.48281 0.0
C251 C 0.01845 0.53667 0.42469 0.0
C252 C 0.02874 0.55809 0.41234 0.0
C253 C 0.02394 0.51253 0.41484 0.0
C254 C 0.03874 0.5099 0.39291 0.0
C255 C 0.04887 0.53134 0.38046 0.0
C256 C 0.04392 0.55546 0.39072 0.0
C257 C 0.90617 0.48146 0.45799 0.0
H258 H 0.95983 0.63025 0.53465 0.0
H259 H 0.95369 0.59495 0.50406 0.0
H260 H 0.034 0.58134 0.50815 0.0
H261 H 0.04033 0.61729 0.53814 0.0
H262 H 0.02211 0.57287 0.46292 0.0
H263 H 0.95566 0.549 0.50454 0.0
H264 H 0.97691 0.50701 0.43723 0.0
H265 H 0.93194 0.50333 0.43496 0.0
H266 H 0.94604 0.50688 0.51665 0.0
H267 H 0.90866 0.47892 0.52309 0.0
H268 H 0.02472 0.57703 0.41904 0.0
H269 H 0.01678 0.49555 0.42402 0.0
H270 H 0.89503 0.47461 0.44151 0.0
H271 H 0.05175 0.57246 0.38207 0.0
H272 H 0.04179 0.49099 0.38552 0.0
C273 C 0.79601 0.72576 0.86412 0.0
C274 C 0.77144 0.7158 0.86934 0.0
C275 C 0.79999 0.74238 0.84404 0.0
C276 C 0.77947 0.74949 0.82881 0.0
C277 C 0.75487 0.73963 0.83408 0.0
C278 C 0.75091 0.72288 0.85409 0.0
C279 C 0.78383 0.76719 0.80753 0.0
C280 C 0.80448 0.76427 0.79106 0.0
C281 C 0.80958 0.78145 0.77143 0.0
C282 C 0.79331 0.8016 0.76822 0.0
C283 C 0.77218 0.80447 0.7842 0.0
C284 C 0.76766 0.78721 0.80384 0.0
C285 C 0.75489 0.82561 0.7807 0.0
C286 C 0.76471 0.85031 0.7766 0.0
C287 C 0.72838 0.82126 0.78199 0.0
C288 C 0.71204 0.8412 0.77952 0.0
C289 C 0.72183 0.86601 0.7758 0.0
C290 C 0.83182 0.77803 0.75438 0.0
C291 C 0.85457 0.76885 0.76419 0.0
C292 C 0.83036 0.78321 0.72811 0.0
C293 C 0.851 0.77896 0.71207 0.0
C294 C 0.87331 0.76907 0.72188 0.0
C295 C 0.87496 0.76419 0.74808 0.0
C296 C 0.74837 0.8703 0.77423 0.0
H297 H 0.81224 0.72048 0.87539 0.0
H298 H 0.81913 0.74987 0.8406 0.0
H299 H 0.73872 0.74464 0.82255 0.0
H300 H 0.73172 0.7157 0.85781 0.0
H301 H 0.81631 0.7482 0.79332 0.0
H302 H 0.75192 0.78979 0.81677 0.0
H303 H 0.79702 0.81507 0.75326 0.0
H304 H 0.78507 0.85431 0.77585 0.0
H305 H 0.72022 0.80236 0.78474 0.0
H306 H 0.6917 0.83713 0.78034 0.0
H307 H 0.85672 0.76526 0.78439 0.0
H308 H 0.81309 0.78996 0.71977 0.0
H309 H 0.75658 0.88922 0.77172 0.0
H310 H 0.89215 0.75694 0.75615 0.0
H311 H 0.84929 0.78276 0.69187 0.0
C312 C 0.29416 0.23024 0.36272 0.0
C313 C 0.27025 0.21758 0.36538 0.0
C314 C 0.29872 0.24647 0.34242 0.0
C315 C 0.2794 0.25069 0.32454 0.0
C316 C 0.25552 0.23815 0.32709 0.0
C317 C 0.25104 0.22161 0.34717 0.0
C318 C 0.28419 0.26832 0.30339 0.0
C319 C 0.30588 0.26621 0.28824 0.0
C320 C 0.3112 0.28331 0.26859 0.0
C321 C 0.29432 0.30276 0.26433 0.0
C322 C 0.27227 0.30488 0.27917 0.0
C323 C 0.26734 0.28749 0.29861 0.0
C324 C 0.25451 0.32544 0.27483 0.0
C325 C 0.2638 0.35047 0.27157 0.0
C326 C 0.22807 0.32027 0.27475 0.0
C327 C 0.21125 0.33974 0.27191 0.0
C328 C 0.22047 0.36489 0.26918 0.0
C329 C 0.33413 0.28038 0.25242 0.0
C330 C 0.35686 0.27208 0.26316 0.0
C331 C 0.33328 0.28485 0.22598 0.0
C332 C 0.35443 0.28063 0.21065 0.0
C333 C 0.3767 0.27151 0.22138 0.0
C334 C 0.37779 0.26746 0.24777 0.0
C335 C 0.24696 0.37 0.26884 0.0
H336 H 0.30927 0.22803 0.37658 0.0
H337 H 0.31723 0.25616 0.341 0.0
H338 H 0.2404 0.2409 0.31336 0.0
H339 H 0.23256 0.21185 0.34827 0.0
H340 H 0.31829 0.25076 0.29148 0.0
H341 H 0.25077 0.28936 0.3106 0.0
H342 H 0.29825 0.31625 0.24944 0.0
H343 H 0.28408 0.35508 0.27186 0.0
H344 H 0.22036 0.30109 0.27684 0.0
H345 H 0.19099 0.33505 0.27176 0.0
H346 H 0.3585 0.26904 0.28352 0.0
H347 H 0.31605 0.29091 0.21694 0.0
H348 H 0.25473 0.38919 0.26711 0.0
H349 H 0.39493 0.2608 0.25653 0.0
H350 H 0.35313 0.28377 0.19028 0.0
C351 C 0.50237 0.98384 0.62888 0.0
C352 C 0.52905 0.98286 0.62771 0.0
C353 C 0.48733 0.97954 0.60686 0.0
C354 C 0.49862 0.97398 0.58324 0.0
C355 C 0.52525 0.97306 0.58203 0.0
C356 C 0.54029 0.97752 0.60397 0.0
C357 C 0.48279 0.96896 0.55987 0.0
C358 C 0.46283 0.98465 0.55386 0.0
C359 C 0.44834 0.98033 0.53133 0.0
C360 C 0.45411 0.96009 0.51473 0.0
C361 C 0.47367 0.94381 0.52066 0.0
C362 C 0.48781 0.94845 0.54339 0.0
C363 C 0.47913 0.92181 0.50341 0.0
C364 C 0.45939 0.90852 0.48973 0.0
C365 C 0.50411 0.91365 0.50072 0.0
C366 C 0.5091 0.89252 0.4853 0.0
C367 C 0.48938 0.87926 0.47156 0.0
C368 C 0.42696 0.99672 0.52522 0.0
C369 C 0.40984 0.00382 0.54435 0.0
C370 C 0.42312 0.00486 0.50013 0.0
C371 C 0.40247 0.01951 0.49423 0.0
C372 C 0.38517 0.02637 0.51329 0.0
C373 C 0.38919 0.01846 0.53845 0.0
C374 C 0.46448 0.88778 0.47381 0.0
H375 H 0.49302 0.98753 0.64689 0.0
H376 H 0.46683 0.9801 0.60841 0.0
H377 H 0.53451 0.96919 0.564 0.0
H378 H 0.56077 0.97711 0.60223 0.0
H379 H 0.45901 0.00063 0.56641 0.0
H380 H 0.50245 0.93574 0.54872 0.0
H381 H 0.44313 0.95695 0.49723 0.0
H382 H 0.43984 0.91385 0.49151 0.0
H383 H 0.51996 0.92358 0.51049 0.0
H384 H 0.52848 0.88647 0.4845 0.0
H385 H 0.41207 0.99756 0.56379 0.0
H386 H 0.43619 5e-05 0.48505 0.0
H387 H 0.44878 0.87851 0.46322 0.0
H388 H 0.37604 0.02311 0.55351 0.0
H389 H 0.4002 0.02566 0.47476 0.0
C390 C 0.19783 0.23558 0.62139 0.0
C391 C 0.22233 0.23013 0.61281 0.0
C392 C 0.19466 0.25232 0.6421 0.0
C393 C 0.2159 0.26385 0.65496 0.0
C394 C 0.24039 0.25858 0.64625 0.0
C395 C 0.24356 0.24204 0.62537 0.0
C396 C 0.21259 0.28072 0.67781 0.0
C397 C 0.19361 0.27493 0.69572 0.0
C398 C 0.19061 0.29032 0.71767 0.0
C399 C 0.20756 0.31132 0.72213 0.0
C400 C 0.22681 0.31752 0.70447 0.0
C401 C 0.22873 0.30232 0.68211 0.0
C402 C 0.24517 0.33953 0.70937 0.0
C403 C 0.23772 0.36159 0.72238 0.0
C404 C 0.27051 0.33859 0.70109 0.0
C405 C 0.28774 0.35913 0.7053 0.0
C406 C 0.28044 0.38108 0.7186 0.0
C407 C 0.16966 0.28425 0.73576 0.0
C408 C 0.14539 0.27638 0.72634 0.0
C409 C 0.17371 0.28591 0.7624 0.0
C410 C 0.15399 0.27953 0.77919 0.0
C411 C 0.12984 0.27129 0.76969 0.0
C412 C 0.12575 0.26993 0.74308 0.0
C413 C 0.25516 0.38196 0.72716 0.0
H414 H 0.18103 0.22658 0.6124 0.0
H415 H 0.17551 0.25618 0.64803 0.0
H416 H 0.25721 0.26688 0.65584 0.0
H417 H 0.2627 0.23864 0.61908 0.0
H418 H 0.18145 0.25799 0.69292 0.0
H419 H 0.24265 0.30743 0.66777 0.0
H420 H 0.20569 0.32278 0.7394 0.0
H421 H 0.21833 0.36332 0.72876 0.0
H422 H 0.27728 0.32185 0.69147 0.0
H423 H 0.30678 0.35774 0.69786 0.0
H424 H 0.14148 0.27537 0.70595 0.0
H425 H 0.19226 0.29163 0.77027 0.0
H426 H 0.24878 0.39827 0.73779 0.0
H427 H 0.10723 0.26413 0.73518 0.0
H428 H 0.15778 0.28056 0.7996 0.0
C429 C 0.86803 0.25769 0.76774 0.0
C430 C 0.88311 0.23739 0.77395 0.0
C431 C 0.84573 0.25356 0.75323 0.0
C432 C 0.83803 0.22902 0.74447 0.0
C433 C 0.85303 0.20867 0.75083 0.0
C434 C 0.8753 0.21281 0.76545 0.0
C435 C 0.81462 0.22478 0.72846 0.0
C436 C 0.80886 0.24193 0.70932 0.0
C437 C 0.78689 0.23816 0.694 0.0
C438 C 0.77057 0.21691 0.69797 0.0
C439 C 0.77595 0.19951 0.71694 0.0
C440 C 0.79803 0.20358 0.7321 0.0
C441 C 0.75853 0.17701 0.72062 0.0
C442 C 0.732 0.17928 0.71976 0.0
C443 C 0.76825 0.15299 0.72421 0.0
C444 C 0.75179 0.13165 0.72637 0.0
C445 C 0.72526 0.13387 0.72498 0.0
C446 C 0.78105 0.25625 0.67368 0.0
C447 C 0.78415 0.28251 0.67833 0.0
C448 C 0.7722 0.24736 0.6495 0.0
C449 C 0.76648 0.26432 0.63044 0.0
C450 C 0.76947 0.29059 0.6351 0.0
C451 C 0.77842 0.2995 0.65925 0.0
C452 C 0.71557 0.15797 0.7219 0.0
H453 H 0.8733 0.27679 0.77438 0.0
H454 H 0.83439 0.26959 0.74908 0.0
H455 H 0.84785 0.18959 0.7441 0.0
H456 H 0.88667 0.19681 0.76967 0.0
H457 H 0.82188 0.25792 0.70584 0.0
H458 H 0.80199 0.19053 0.74715 0.0
H459 H 0.75362 0.21386 0.68615 0.0
H460 H 0.7239 0.19758 0.71749 0.0
H461 H 0.78859 0.15057 0.72466 0.0
H462 H 0.75987 0.11332 0.72847 0.0
H463 H 0.79062 0.28995 0.69687 0.0
H464 H 0.77003 0.22723 0.64517 0.0
H465 H 0.69523 0.16039 0.72125 0.0
H466 H 0.78064 0.31962 0.66355 0.0
H467 H 0.76008 0.25683 0.6119 0.0
C468 C 0.52299 0.59417 0.45631 0.0
C469 C 0.51462 0.61797 0.46428 0.0
C470 C 0.52806 0.5758 0.47424 0.0
C471 C 0.52482 0.58079 0.50054 0.0
C472 C 0.51601 0.60442 0.50845 0.0
C473 C 0.51097 0.62278 0.49055 0.0
C474 C 0.5314 0.56182 0.51979 0.0
C475 C 0.55359 0.54819 0.51711 0.0
C476 C 0.5606 0.53109 0.53574 0.0
C477 C 0.54537 0.528 0.55748 0.0
C478 C 0.52264 0.54088 0.56033 0.0
C479 C 0.51583 0.55768 0.54117 0.0
C480 C 0.50605 0.53655 0.5831 0.0
C481 C 0.5051 0.51303 0.59519 0.0
C482 C 0.49109 0.55583 0.59311 0.0
C483 C 0.47555 0.55162 0.61432 0.0
C484 C 0.47507 0.52827 0.62676 0.0
C485 C 0.5834 0.51581 0.53219 0.0
C486 C 0.58791 0.50389 0.50842 0.0
C487 C 0.60017 0.5121 0.55272 0.0
C488 C 0.62071 0.49643 0.54968 0.0
C489 C 0.62486 0.48404 0.52607 0.0
C490 C 0.60838 0.48815 0.50541 0.0
C491 C 0.4903 0.50913 0.6169 0.0
H492 H 0.52617 0.58991 0.43624 0.0
H493 H 0.53456 0.55768 0.46749 0.0
H494 H 0.51353 0.60897 0.52858 0.0
H495 H 0.50422 0.64079 0.49731 0.0
H496 H 0.56583 0.55133 0.5008 0.0
H497 H 0.4981 0.56727 0.54249 0.0
H498 H 0.55124 0.51522 0.57204 0.0
H499 H 0.51569 0.49735 0.58792 0.0
H500 H 0.49145 0.57438 0.58479 0.0
H501 H 0.46385 0.5668 0.62077 0.0
H502 H 0.57521 0.50621 0.4923 0.0
H503 H 0.59733 0.52123 0.57119 0.0
H504 H 0.49115 0.49103 0.62599 0.0
H505 H 0.61126 0.47913 0.48689 0.0
H506 H 0.63297 0.49353 0.566 0.0
C507 C 0.45903 0.48376 0.9041 0.0
C508 C 0.46909 0.4843 0.87931 0.0
C509 C 0.47498 0.4807 0.92524 0.0
C510 C 0.50131 0.47869 0.92195 0.0
C511 C 0.51145 0.47993 0.89722 0.0
C512 C 0.49544 0.48246 0.87605 0.0
C513 C 0.51804 0.47428 0.94414 0.0
C514 C 0.51247 0.45386 0.96014 0.0
C515 C 0.52879 0.44873 0.98058 0.0
C516 C 0.55037 0.46478 0.98538 0.0
C517 C 0.55605 0.48551 0.96979 0.0
C518 C 0.53993 0.48994 0.94893 0.0
C519 C 0.57896 0.50222 0.97538 0.0
C520 C 0.58514 0.50977 0.00073 0.0
C521 C 0.59523 0.51009 0.95562 0.0
C522 C 0.61747 0.52476 0.96119 0.0
C523 C 0.62388 0.53188 0.98663 0.0
C524 C 0.52384 0.42622 0.99651 0.0
C525 C 0.49922 0.41998 0.00528 0.0
C526 C 0.54388 0.41084 0.00312 0.0
C527 C 0.53948 0.38984 0.01839 0.0
C528 C 0.51494 0.38373 0.02746 0.0
C529 C 0.49482 0.39897 0.02064 0.0
C530 C 0.60732 0.52442 0.00629 0.0
H531 H 0.43875 0.48503 0.90704 0.0
H532 H 0.46677 0.47984 0.94416 0.0
H533 H 0.53168 0.47827 0.89424 0.0
H534 H 0.50361 0.48294 0.85709 0.0
H535 H 0.49595 0.44138 0.95602 0.0
H536 H 0.54407 0.50587 0.93674 0.0
H537 H 0.56294 0.46099 0.00125 0.0
H538 H 0.57275 0.50439 0.01633 0.0
H539 H 0.59112 0.50435 0.93593 0.0
H540 H 0.62996 0.52998 0.94563 0.0
H541 H 0.48345 0.43162 0.00068 0.0
H542 H 0.56297 0.41488 0.99623 0.0
H543 H 0.61143 0.53002 0.02602 0.0
H544 H 0.47574 0.39494 0.02755 0.0
H545 H 0.5553 0.37822 0.02285 0.0
C546 C 0.63628 0.21679 0.24701 0.0
C547 C 0.63 0.24005 0.23669 0.0
C548 C 0.65805 0.21514 0.26231 0.0
C549 C 0.67386 0.23675 0.26777 0.0
C550 C 0.66764 0.25997 0.25737 0.0
C551 C 0.64599 0.26159 0.24192 0.0
C552 C 0.6966 0.23523 0.28458 0.0
C553 C 0.7132 0.21531 0.28146 0.0
C554 C 0.73484 0.21394 0.29724 0.0
C555 C 0.73971 0.23272 0.31635 0.0
C556 C 0.72312 0.25261 0.31999 0.0
C557 C 0.70165 0.25371 0.30393 0.0
C558 C 0.72786 0.27191 0.34088 0.0
C559 C 0.73677 0.2648 0.36499 0.0
C560 C 0.72313 0.29752 0.33704 0.0
C561 C 0.72696 0.31552 0.35689 0.0
C562 C 0.73576 0.30838 0.38103 0.0
C563 C 0.75228 0.19279 0.29393 0.0
C564 C 0.74252 0.16777 0.29034 0.0
C565 C 0.77881 0.19742 0.29467 0.0
C566 C 0.79522 0.17746 0.29199 0.0
C567 C 0.78548 0.15239 0.28857 0.0
C568 C 0.75892 0.1478 0.28774 0.0
C569 C 0.74077 0.28281 0.38477 0.0
H570 H 0.62443 0.19983 0.24312 0.0
H571 H 0.66227 0.19704 0.27022 0.0
H572 H 0.6796 0.2769 0.26108 0.0
H573 H 0.64154 0.2798 0.23442 0.0
H574 H 0.70959 0.20119 0.26633 0.0
H575 H 0.68837 0.26857 0.30695 0.0
H576 H 0.75638 0.23173 0.32855 0.0
H577 H 0.74032 0.24521 0.36875 0.0
H578 H 0.71655 0.30373 0.31863 0.0
H579 H 0.72265 0.33498 0.35339 0.0
H580 H 0.72217 0.16357 0.29004 0.0
H581 H 0.78691 0.21654 0.29704 0.0
H582 H 0.74792 0.27667 0.40298 0.0
H583 H 0.75076 0.12869 0.28554 0.0
H584 H 0.81556 0.18172 0.29228 0.0
C585 C 0.50155 0.12916 0.01297 0.0
C586 C 0.49739 0.12524 0.03914 0.0
C587 C 0.49751 0.10933 0.99505 0.0
C588 C 0.48919 0.08513 0.00287 0.0
C589 C 0.48532 0.08111 0.02907 0.0
C590 C 0.48942 0.10094 0.04702 0.0
C591 C 0.48384 0.06443 0.98359 0.0
C592 C 0.50028 0.06098 0.96287 0.0
C593 C 0.49455 0.04253 0.94357 0.0
C594 C 0.47211 0.0272 0.9455 0.0
C595 C 0.45579 0.02998 0.96643 0.0
C596 C 0.46178 0.04865 0.98535 0.0
C597 C 0.43223 0.01368 0.96843 0.0
C598 C 0.41595 0.00937 0.94717 0.0
C599 C 0.42574 0.00256 0.99176 0.0
C600 C 0.40341 0.98747 0.99382 0.0
C601 C 0.38693 0.9833 0.97264 0.0
C602 C 0.51183 0.03954 0.92132 0.0
C603 C 0.52448 0.0608 0.91078 0.0
C604 C 0.51576 0.01549 0.91033 0.0
C605 C 0.53168 0.01281 0.88924 0.0
C606 C 0.5444 0.03407 0.87876 0.0
C607 C 0.5407 0.05808 0.88997 0.0
C608 C 0.3935 0.99441 0.94928 0.0
H609 H 0.50798 0.14758 0.00632 0.0
H610 H 0.50042 0.11311 0.97498 0.0
H611 H 0.47911 0.06262 0.03571 0.0
H612 H 0.48588 0.09737 0.06703 0.0
H613 H 0.51776 0.07255 0.96201 0.0
H614 H 0.44874 0.05147 0.00101 0.0
H615 H 0.46721 0.01309 0.93069 0.0
H616 H 0.42031 0.01798 0.92904 0.0
H617 H 0.43812 0.00531 0.00837 0.0
H618 H 0.39922 0.97884 0.01197 0.0
H619 H 0.52168 0.07969 0.91841 0.0
H620 H 0.50668 0.99861 0.9181 0.0
H621 H 0.38108 0.99195 0.93268 0.0
H622 H 0.55043 0.07489 0.88278 0.0
H623 H 0.53373 0.99404 0.88098 0.0
C624 C 0.19943 0.91555 0.00666 0.0
O625 O 0.19538 0.89489 0.99247 0.0
O626 O 0.24342 0.87495 0.97877 0.0
Zn627 Zn 0.25094 0.89818 0.00936 0.0
O628 O 0.28276 0.92002 0.00366 0.0
C629 C 0.24088 0.85862 0.04499 0.0
O630 O 0.22099 0.85419 0.0299 0.0
O631 O 0.22157 0.92069 0.01585 0.0
C632 C 0.29396 0.92131 0.98222 0.0
O633 O 0.28454 0.9081 0.96247 0.0
C634 C 0.25663 0.85571 0.97479 0.0
O635 O 0.27543 0.85145 0.99061 0.0
O636 O 0.25644 0.87694 0.04019 0.0
C637 C 0.151 0.44666 0.26254 0.0
O638 O 0.12966 0.44598 0.27546 0.0
O639 O 0.11448 0.49917 0.27992 0.0
Zn640 Zn 0.13339 0.49501 0.24664 0.0
O641 O 0.15551 0.52658 0.24109 0.0
C642 C 0.08777 0.49911 0.21504 0.0
O643 O 0.08165 0.51565 0.23283 0.0
O644 O 0.15645 0.4657 0.24892 0.0
C645 C 0.15215 0.54196 0.22317 0.0
O646 O 0.13335 0.53744 0.20677 0.0
C647 C 0.10696 0.52068 0.28724 0.0
O648 O 0.11161 0.54042 0.27293 0.0
O649 O 0.10869 0.48808 0.21704 0.0
C650 C 0.79032 0.58976 0.99648 0.0
O651 O 0.77586 0.58509 0.97614 0.0
O652 O 0.7637 0.65251 0.97481 0.0
Zn653 Zn 0.75595 0.63016 0.0047 0.0
O654 O 0.72411 0.60875 0.99705 0.0
C655 C 0.73332 0.6684 0.03546 0.0
O656 O 0.71971 0.67061 0.01449 0.0
O657 O 0.7854 0.60816 0.01145 0.0
C658 C 0.71698 0.5905 0.01102 0.0
O659 O 0.7308 0.58535 0.03114 0.0
C660 C 0.75446 0.64715 0.95268 0.0
O661 O 0.74011 0.62637 0.94918 0.0
O662 O 0.75029 0.65204 0.03588 0.0
C663 C 0.85313 0.06913 0.27866 0.0
O664 O 0.87466 0.06942 0.29162 0.0
O665 O 0.89078 0.01631 0.29114 0.0
Zn666 Zn 0.86933 0.02045 0.25931 0.0
O667 O 0.84609 0.98931 0.25339 0.0
C668 C 0.91191 0.01431 0.22474 0.0
O669 O 0.91792 0.99674 0.24075 0.0
O670 O 0.84716 0.05029 0.26392 0.0
C671 C 0.84611 0.97542 0.23318 0.0
O672 O 0.86215 0.98107 0.21484 0.0
C673 C 0.89846 0.99476 0.29716 0.0
O674 O 0.89188 0.9748 0.28274 0.0
O675 O 0.8921 0.02672 0.22881 0.0
C676 C 0.29822 0.08524 0.48856 0.0
O677 O 0.28541 0.08087 0.46709 0.0
O678 O 0.26931 0.14454 0.46447 0.0
Zn679 Zn 0.26172 0.124 0.49571 0.0
O680 O 0.23017 0.10195 0.48876 0.0
C681 C 0.23531 0.15904 0.52823 0.0
O682 O 0.21712 0.15499 0.51107 0.0
O683 O 0.29144 0.10273 0.5038 0.0
C684 C 0.22252 0.08491 0.50395 0.0
O685 O 0.23584 0.08115 0.52479 0.0
C686 C 0.25099 0.153 0.45167 0.0
O687 O 0.22751 0.14778 0.45884 0.0
O688 O 0.25596 0.14763 0.52578 0.0
C689 C 0.33225 0.54495 0.7728 0.0
O690 O 0.32602 0.52337 0.78356 0.0
O691 O 0.39389 0.51106 0.78496 0.0
Zn692 Zn 0.37273 0.51578 0.75291 0.0
O693 O 0.34814 0.48558 0.74565 0.0
C694 C 0.4152 0.51015 0.71764 0.0
O695 O 0.42156 0.4919 0.73266 0.0
O696 O 0.35185 0.54636 0.75875 0.0
C697 C 0.35408 0.46504 0.73452 0.0
O698 O 0.37746 0.46249 0.72663 0.0
C699 C 0.40275 0.49005 0.79118 0.0
O700 O 0.39777 0.4698 0.77667 0.0
O701 O 0.39567 0.52267 0.7226 0.0
C702 C 0.70673 0.41498 0.51453 0.0
O703 O 0.70256 0.39295 0.50272 0.0
O704 O 0.75098 0.37446 0.48733 0.0
Zn705 Zn 0.75821 0.39811 0.51757 0.0
O706 O 0.79027 0.41931 0.51164 0.0
C707 C 0.74817 0.35844 0.55306 0.0
O708 O 0.72888 0.35333 0.53736 0.0
O709 O 0.72901 0.42113 0.5228 0.0
C710 C 0.80884 0.41075 0.49917 0.0
O711 O 0.8072 0.3874 0.48994 0.0
C712 C 0.75208 0.38175 0.46436 0.0
O713 O 0.75808 0.40561 0.45992 0.0
O714 O 0.76326 0.37725 0.54872 0.0
C715 C 0.65418 0.94929 0.76877 0.0
O716 O 0.63342 0.94968 0.78257 0.0
O717 O 0.6167 0.00181 0.78328 0.0
Zn718 Zn 0.63717 0.99746 0.75101 0.0
O719 O 0.66031 0.02858 0.74661 0.0
C720 C 0.59232 0.00156 0.71821 0.0
O721 O 0.5851 0.01715 0.7364 0.0
O722 O 0.65943 0.96755 0.75406 0.0
C723 C 0.65664 0.04538 0.73015 0.0
O724 O 0.63682 0.04274 0.7147 0.0
C725 C 0.60922 0.02343 0.79029 0.0
O726 O 0.61515 0.04319 0.77642 0.0
O727 O 0.6136 0.99122 0.72036 0.0
C728 C 0.00095 0.21535 0.916 0.0
O729 O 0.98137 0.22953 0.91988 0.0
O730 O 0.97933 0.24321 0.85398 0.0
Zn731 Zn 0.00999 0.25113 0.87679 0.0
O732 O 0.00422 0.28114 0.90041 0.0
C733 C 0.04614 0.24454 0.83655 0.0
O734 O 0.03165 0.22406 0.83177 0.0
O735 O 0.0163 0.22086 0.89812 0.0
C736 C 0.98361 0.29285 0.90076 0.0
O737 O 0.9649 0.28535 0.8852 0.0
C738 C 0.97502 0.25645 0.83456 0.0
O739 O 0.99088 0.2755 0.82938 0.0
O740 O 0.04068 0.25912 0.8552 0.0
C741 C 0.49715 0.69625 0.39121 0.0
O742 O 0.48568 0.69081 0.3692 0.0
O743 O 0.46582 0.74077 0.35228 0.0
Zn744 Zn 0.49735 0.74831 0.37387 0.0
O745 O 0.4917 0.77887 0.39663 0.0
C746 C 0.53526 0.7762 0.3436 0.0
O747 O 0.52345 0.7962 0.35172 0.0
O748 O 0.50382 0.71914 0.39679 0.0
C749 C 0.5099 0.79108 0.40822 0.0
O750 O 0.53333 0.78395 0.40521 0.0
C751 C 0.45832 0.75761 0.33737 0.0
O752 O 0.47123 0.77942 0.33664 0.0
O753 O 0.52748 0.75431 0.35052 0.0
C754 C 0.99681 0.79765 0.59407 0.0
O755 O 0.97577 0.78341 0.59163 0.0
O756 O 0.97446 0.76684 0.65164 0.0
Zn757 Zn 0.0068 0.76159 0.63216 0.0
O758 O 0.00254 0.73077 0.60862 0.0
C759 C 0.03444 0.74724 0.67768 0.0
O760 O 0.01211 0.73752 0.68425 0.0
O761 O 0.01342 0.79197 0.61051 0.0
C762 C 0.01441 0.71059 0.61161 0.0
O763 O 0.03015 0.70915 0.63111 0.0
C764 C 0.95999 0.74853 0.65882 0.0
O765 O 0.96616 0.72518 0.65354 0.0
O766 O 0.03661 0.75844 0.65649 0.0
C767 C 0.49861 0.29685 0.09162 0.0
O768 O 0.47783 0.28221 0.08914 0.0
O769 O 0.47759 0.2671 0.15073 0.0
Zn770 Zn 0.50922 0.2614 0.13024 0.0
O771 O 0.5041 0.23049 0.10703 0.0
C772 C 0.53882 0.2482 0.17515 0.0
O773 O 0.5168 0.23916 0.1834 0.0
O774 O 0.51524 0.2916 0.10823 0.0
C775 C 0.51213 0.20885 0.11219 0.0
O776 O 0.52428 0.20586 0.13389 0.0
C777 C 0.46356 0.24909 0.15928 0.0
O778 O 0.46976 0.22559 0.15495 0.0
O779 O 0.53993 0.25836 0.15336 0.0
C780 C 0.22496 0.826 0.91522 0.0
C781 C 0.23961 0.80475 0.91078 0.0
H782 H 0.21876 0.8587 0.93892 0.0
C783 C 0.26002 0.80054 0.92747 0.0
H784 H 0.20892 0.82961 0.90291 0.0
C785 C 0.26558 0.81713 0.94819 0.0
C786 C 0.25087 0.83831 0.95268 0.0
H787 H 0.27189 0.78454 0.92438 0.0
H788 H 0.28144 0.81332 0.96066 0.0
C789 C 0.23052 0.84259 0.93595 0.0
C790 C 0.07998 0.50811 0.35296 0.0
C791 C 0.06407 0.52862 0.35663 0.0
H792 H 0.10581 0.48939 0.32811 0.0
C793 C 0.06261 0.54645 0.33714 0.0
H794 H 0.08204 0.49422 0.36763 0.0
C795 C 0.07679 0.54399 0.31481 0.0
C796 C 0.09239 0.52338 0.31113 0.0
H797 H 0.05018 0.56217 0.33886 0.0
H798 H 0.07513 0.55802 0.3002 0.0
C799 C 0.09378 0.50539 0.33036 0.0
C800 C 0.75115 0.67633 0.88731 0.0
C801 C 0.76727 0.69809 0.89064 0.0
H802 H 0.73464 0.64308 0.90418 0.0
C803 C 0.77938 0.70283 0.91447 0.0
H804 H 0.74179 0.67202 0.86908 0.0
C805 C 0.77533 0.68624 0.93458 0.0
C806 C 0.75917 0.6645 0.93127 0.0
H807 H 0.79171 0.71959 0.91769 0.0
H808 H 0.78481 0.69054 0.95276 0.0
C809 C 0.74719 0.65967 0.90739 0.0
C810 C 0.94855 0.96965 0.34102 0.0
C811 C 0.9497 0.98803 0.36088 0.0
H812 H 0.9311 0.95718 0.3055 0.0
C813 C 0.93369 0.00856 0.35988 0.0
H814 H 0.96061 0.95357 0.3415 0.0
C815 C 0.91708 0.01087 0.33909 0.0
C816 C 0.91579 0.99237 0.31928 0.0
H817 H 0.93432 0.02298 0.37499 0.0
H818 H 0.9051 0.02701 0.33863 0.0
C819 C 0.93158 0.97166 0.32054 0.0
C820 C 0.20873 0.21089 0.57006 0.0
C821 C 0.22571 0.21192 0.59105 0.0
H822 H 0.19838 0.19337 0.5339 0.0
C823 C 0.24586 0.19526 0.59116 0.0
H824 H 0.19326 0.22368 0.56907 0.0
C825 C 0.24903 0.17814 0.57075 0.0
C826 C 0.23196 0.17708 0.54989 0.0
H827 H 0.25904 0.19516 0.60718 0.0
H828 H 0.26472 0.16557 0.57146 0.0
C829 C 0.21174 0.19358 0.5498 0.0
C830 C 0.45297 0.54403 0.66663 0.0
C831 C 0.459 0.52383 0.6499 0.0
H832 H 0.43386 0.55553 0.70089 0.0
C833 C 0.44975 0.49921 0.65576 0.0
H834 H 0.46003 0.56319 0.66337 0.0
C835 C 0.43581 0.49483 0.67796 0.0
C836 C 0.42985 0.51503 0.69432 0.0
H837 H 0.45304 0.48315 0.64319 0.0
H838 H 0.42924 0.47566 0.6821 0.0
C839 C 0.43817 0.5397 0.68834 0.0
C840 C 0.74193 0.30411 0.59886 0.0
C841 C 0.76349 0.30856 0.6147 0.0
H842 H 0.72009 0.31641 0.56714 0.0
C843 C 0.77952 0.33004 0.61061 0.0
H844 H 0.72898 0.28795 0.60176 0.0
C845 C 0.77435 0.34645 0.59084 0.0
C846 C 0.75302 0.34176 0.57475 0.0
H847 H 0.79643 0.33386 0.6223 0.0
H848 H 0.7873 0.36262 0.58798 0.0
C849 C 0.73675 0.32052 0.57911 0.0
C850 C 0.53907 0.00609 0.66943 0.0
C851 C 0.54513 0.98745 0.6511 0.0
H852 H 0.54914 0.02515 0.7049 0.0
C853 C 0.56681 0.97334 0.6552 0.0
H854 H 0.52276 0.01758 0.66674 0.0
C855 C 0.58214 0.97791 0.67695 0.0
C856 C 0.57606 0.99657 0.69521 0.0
H857 H 0.57184 0.95854 0.64172 0.0
H858 H 0.59869 0.9667 0.6795 0.0
C859 C 0.5543 0.01055 0.69126 0.0
C860 C 0.91303 0.22575 0.80906 0.0
C861 C 0.90694 0.24192 0.78917 0.0
H862 H 0.93921 0.21767 0.83905 0.0
C863 C 0.92368 0.26261 0.78405 0.0
H864 H 0.9004 0.20978 0.81362 0.0
C865 C 0.9459 0.26715 0.7986 0.0
C866 C 0.95184 0.25117 0.81869 0.0
H867 H 0.91968 0.27522 0.76864 0.0
H868 H 0.95833 0.28332 0.79418 0.0
C869 C 0.93521 0.23035 0.8237 0.0
C870 C 0.47637 0.83644 0.45209 0.0
C871 C 0.49468 0.85658 0.45518 0.0
H872 H 0.46672 0.80018 0.43458 0.0
C873 C 0.51815 0.85473 0.44258 0.0
H874 H 0.45832 0.83671 0.46188 0.0
C875 C 0.52323 0.83328 0.42764 0.0
C876 C 0.50475 0.81349 0.42439 0.0
H877 H 0.53257 0.86996 0.44391 0.0
H878 H 0.54144 0.83244 0.41818 0.0
C879 C 0.48123 0.81532 0.4366 0.0
C880 C 0.10436 0.27888 0.80937 0.0
C881 C 0.10892 0.26405 0.78734 0.0
H882 H 0.08091 0.28444 0.84214 0.0
C883 C 0.09304 0.24244 0.78199 0.0
H884 H 0.11612 0.29576 0.81388 0.0
C885 C 0.07287 0.23595 0.79813 0.0
C886 C 0.06805 0.25099 0.81995 0.0
H887 H 0.09629 0.23044 0.76534 0.0
H888 H 0.06093 0.21925 0.79336 0.0
C889 C 0.08409 0.27245 0.82547 0.0
C890 C 0.49819 0.63189 0.42173 0.0
C891 C 0.51021 0.63792 0.44538 0.0
H892 H 0.48457 0.64552 0.38611 0.0
C893 C 0.51812 0.66323 0.45087 0.0
H894 H 0.49165 0.61261 0.41701 0.0
C895 C 0.51399 0.68208 0.43324 0.0
C896 C 0.50184 0.6761 0.40966 0.0
H897 H 0.52781 0.66847 0.46872 0.0
H898 H 0.52035 0.70138 0.43814 0.0
C899 C 0.49404 0.65077 0.40407 0.0
C900 C 0.90528 0.7823 0.68902 0.0
C901 C 0.89485 0.76358 0.70491 0.0
H902 H 0.93436 0.79229 0.66214 0.0
C903 C 0.90547 0.73968 0.70499 0.0
H904 H 0.89744 0.8009 0.68873 0.0
C905 C 0.92629 0.7346 0.68954 0.0
C906 C 0.93717 0.75351 0.67411 0.0
H907 H 0.89763 0.7249 0.71699 0.0
H908 H 0.93419 0.71605 0.69012 0.0
C909 C 0.92642 0.77739 0.67394 0.0
C910 C 0.02763 0.85642 0.56541 0.0
C911 C 0.00975 0.86224 0.54653 0.0
H912 H 0.03758 0.83158 0.59521 0.0
C913 C 0.98743 0.84677 0.54361 0.0
H914 H 0.04485 0.86818 0.56841 0.0
C915 C 0.98318 0.82585 0.5591 0.0
C916 C 0.00116 0.81994 0.57784 0.0
H917 H 0.97342 0.85057 0.52905 0.0
H918 H 0.96586 0.81422 0.55624 0.0
C919 C 0.0234 0.83551 0.58087 0.0
C920 C 0.1022 0.75203 0.70341 0.0
C921 C 0.10026 0.73723 0.72534 0.0
H922 H 0.083 0.76674 0.67108 0.0
C923 C 0.07644 0.72612 0.73167 0.0
H924 H 0.12035 0.76065 0.69792 0.0
C925 C 0.05505 0.72961 0.71634 0.0
C926 C 0.05702 0.74419 0.69425 0.0
H927 H 0.07428 0.71487 0.74863 0.0
H928 H 0.037 0.72072 0.72175 0.0
C929 C 0.08082 0.75542 0.68798 0.0
C930 C 0.99151 0.6707 0.554 0.0
C931 C 0.00424 0.64818 0.55743 0.0
H932 H 0.98472 0.70802 0.56833 0.0
C933 C 0.0203 0.64636 0.57889 0.0
H934 H 0.97924 0.67283 0.53751 0.0
C935 C 0.02355 0.66659 0.59651 0.0
C936 C 0.0108 0.68909 0.59307 0.0
H937 H 0.03012 0.62915 0.58226 0.0
H938 H 0.03601 0.66453 0.61286 0.0
C939 C 0.99474 0.69092 0.57162 0.0
C940 C 0.81245 0.91559 0.20625 0.0
C941 C 0.79326 0.91117 0.22437 0.0
H942 H 0.84408 0.93938 0.19473 0.0
C943 C 0.79164 0.92799 0.24547 0.0
H944 H 0.81401 0.90309 0.18966 0.0
C945 C 0.8089 0.94876 0.24843 0.0
C946 C 0.82802 0.95326 0.23024 0.0
H947 H 0.77721 0.92492 0.25987 0.0
H948 H 0.80716 0.96133 0.26494 0.0
C949 C 0.82959 0.93646 0.2091 0.0
C950 C 0.82518 0.13067 0.30104 0.0
C951 C 0.80293 0.1311 0.28595 0.0
H952 H 0.85843 0.11082 0.31063 0.0
C953 C 0.79742 0.11099 0.2684 0.0
H954 H 0.82982 0.14568 0.31501 0.0
C955 C 0.81371 0.0909 0.26605 0.0
C956 C 0.83593 0.09048 0.28115 0.0
H957 H 0.78065 0.11089 0.25621 0.0
H958 H 0.80889 0.07575 0.25229 0.0
C959 C 0.84151 0.11061 0.29864 0.0
C960 C 0.35447 0.95097 0.95491 0.0
C961 C 0.36296 0.96752 0.97499 0.0
H962 H 0.32609 0.92346 0.94141 0.0
C963 C 0.34837 0.96885 0.99739 0.0
H964 H 0.3654 0.94918 0.93753 0.0
C965 C 0.326 0.95386 -0.00027 0.0
C966 C 0.31756 0.93732 0.97966 0.0
H967 H 0.35408 0.98169 0.01306 0.0
H968 H 0.31524 0.95537 0.01725 0.0
C969 C 0.33199 0.93611 0.95718 0.0
C970 C 0.20739 0.40581 0.2505 0.0
C971 C 0.20252 0.38575 0.2672 0.0
H972 H 0.19498 0.44068 0.23586 0.0
C973 C 0.18046 0.38588 0.28224 0.0
H974 H 0.22402 0.40614 0.2384 0.0
C975 C 0.16368 0.40556 0.28062 0.0
C976 C 0.16862 0.42565 0.26401 0.0
H977 H 0.17631 0.37095 0.29561 0.0
H978 H 0.14695 0.40511 0.29257 0.0
C979 C 0.19065 0.42554 0.24894 0.0
C980 C 0.16057 0.06156 0.47204 0.0
C981 C 0.15216 0.04226 0.48839 0.0
H982 H 0.18928 0.09014 0.46412 0.0
C983 C 0.16733 0.03687 0.50971 0.0
H984 H 0.14922 0.0664 0.45563 0.0
C985 C 0.19023 0.0506 0.5147 0.0
C986 C 0.19853 0.07 0.49844 0.0
H987 H 0.16161 0.02187 0.52247 0.0
H988 H 0.20141 0.046 0.53131 0.0
C989 C 0.18349 0.07526 0.477 0.0
C990 C 0.71218 0.0921 0.74393 0.0
C991 C 0.70773 0.11113 0.72633 0.0
H992 H 0.69953 0.0565 0.75903 0.0
C993 C 0.68642 0.10825 0.70991 0.0
H994 H 0.72827 0.09387 0.75702 0.0
C995 C 0.6699 0.08688 0.71109 0.0
C996 C 0.67429 0.0679 0.72875 0.0
H997 H 0.68266 0.12239 0.69588 0.0
H998 H 0.65369 0.08527 0.69814 0.0
C999 C 0.69562 0.07074 0.74516 0.0
C1000 C 0.35534 0.06097 0.52362 0.0
C1001 C 0.36291 0.04152 0.50691 0.0
H1002 H 0.3291 0.09002 0.53095 0.0
C1003 C 0.34897 0.03656 0.48411 0.0
H1004 H 0.36584 0.06549 0.54118 0.0
C1005 C 0.32796 0.05072 0.47817 0.0
C1006 C 0.32041 0.07016 0.49488 0.0
H1007 H 0.35407 0.02149 0.47099 0.0
H1008 H 0.31762 0.04634 0.46049 0.0
C1009 C 0.33434 0.07512 0.51768 0.0
C1010 C 0.67014 0.4726 0.53373 0.0
C1011 C 0.64593 0.46642 0.52314 0.0
H1012 H 0.70835 0.4613 0.53927 0.0
C1013 C 0.64188 0.44312 0.50987 0.0
H1014 H 0.67392 0.49051 0.54387 0.0
C1015 C 0.66158 0.4264 0.50722 0.0
C1016 C 0.68581 0.43261 0.5177 0.0
H1017 H 0.62335 0.43764 0.50181 0.0
H1018 H 0.65777 0.4086 0.4969 0.0
C1019 C 0.68989 0.45591 0.531 0.0
C1020 C 0.7495 0.35201 0.39762 0.0
C1021 C 0.73956 0.32743 0.40231 0.0
H1022 H 0.76117 0.38846 0.41348 0.0
C1023 C 0.73336 0.32112 0.42756 0.0
H1024 H 0.7548 0.35744 0.37847 0.0
C1025 C 0.73734 0.33879 0.44765 0.0
C1026 C 0.74739 0.36329 0.44295 0.0
H1027 H 0.72521 0.30255 0.43184 0.0
H1028 H 0.73242 0.33326 0.46687 0.0
C1029 C 0.75327 0.36978 0.4177 0.0
C1030 C 0.57606 0.00994 0.85291 0.0
C1031 C 0.56125 0.03131 0.85614 0.0
H1032 H 0.60273 0.99061 0.82956 0.0
C1033 C 0.56259 0.05006 0.83747 0.0
H1034 H 0.57593 0.99531 0.86705 0.0
C1035 C 0.57843 0.04761 0.81632 0.0
C1036 C 0.59299 0.02616 0.81305 0.0
H1037 H 0.55111 0.06652 0.83891 0.0
H1038 H 0.5789 0.06235 0.80227 0.0
C1039 C 0.59159 0.0073 0.8315 0.0
C1040 C 0.28448 0.18555 0.39679 0.0
C1041 C 0.26527 0.20059 0.38725 0.0
H1042 H 0.2951 0.15882 0.42468 0.0
C1043 C 0.2413 0.19952 0.39903 0.0
H1044 H 0.30303 0.1855 0.38796 0.0
C1045 C 0.23664 0.18383 0.41973 0.0
C1046 C 0.25593 0.1691 0.4294 0.0
H1047 H 0.22618 0.21116 0.39261 0.0
H1048 H 0.21801 0.1836 0.42843 0.0
C1049 C 0.27991 0.17012 0.41775 0.0
C1050 C 0.45276 0.46775 0.83684 0.0
C1051 C 0.45206 0.48594 0.85681 0.0
H1052 H 0.43739 0.45458 0.80063 0.0
C1053 C 0.43489 0.50546 0.85523 0.0
H1054 H 0.46574 0.45243 0.83775 0.0
C1055 C 0.41893 0.50695 0.8338 0.0
C1056 C 0.41948 0.48861 0.81391 0.0
H1057 H 0.43407 0.51972 0.8704 0.0
H1058 H 0.406 0.5223 0.83293 0.0
C1059 C 0.43645 0.46892 0.81572 0.0
C1060 C 0.73974 0.69807 0.10209 0.0
C1061 C 0.72192 0.7171 0.10125 0.0
H1062 H 0.75726 0.66775 0.08208 0.0
C1063 C 0.70767 0.71975 0.07865 0.0
H1064 H 0.75077 0.69529 0.1193 0.0
C1065 C 0.71127 0.70386 0.05735 0.0
C1066 C 0.72921 0.68496 0.05815 0.0
H1067 H 0.69403 0.73443 0.07725 0.0
H1068 H 0.70011 0.70654 0.0402 0.0
C1069 C 0.74335 0.68219 0.08078 0.0
C1070 C 0.96308 0.00808 0.17468 0.0
C1071 C 0.95752 0.02753 0.15793 0.0
H1072 H 0.95318 0.98877 0.20891 0.0
C1073 C 0.93691 0.04276 0.16343 0.0
H1074 H 0.97903 0.99624 0.17115 0.0
C1075 C 0.92208 0.03852 0.18512 0.0
C1076 C 0.92764 0.01904 0.20185 0.0
H1077 H 0.93201 0.05773 0.15075 0.0
H1078 H 0.90625 0.05048 0.18874 0.0
C1079 C 0.94834 0.00392 0.19641 0.0
C1080 C 0.23467 0.80401 0.09045 0.0
C1081 C 0.25594 0.80867 0.10664 0.0
H1082 H 0.21314 0.81618 0.05846 0.0
C1083 C 0.27185 0.83028 0.10281 0.0
H1084 H 0.22185 0.78771 0.09314 0.0
C1085 C 0.26683 0.84665 0.08296 0.0
C1086 C 0.24573 0.84182 0.06658 0.0
H1087 H 0.28852 0.83426 0.11481 0.0
H1088 H 0.27965 0.86297 0.08032 0.0
C1089 C 0.2296 0.82042 0.07068 0.0
C1090 C 0.06038 0.47059 0.15288 0.0
C1091 C 0.03898 0.48516 0.14906 0.0
H1092 H 0.09252 0.46349 0.17667 0.0
C1093 C 0.03375 0.50422 0.16727 0.0
H1094 H 0.06478 0.45551 0.13946 0.0
C1095 C 0.04948 0.50858 0.18875 0.0
C1096 C 0.07092 0.4941 0.19248 0.0
H1097 H 0.01768 0.51607 0.16476 0.0
H1098 H 0.04494 0.52351 0.20229 0.0
C1099 C 0.0762 0.47505 0.17431 0.0
C1100 C 0.40708 0.76627 0.28735 0.0
C1101 C 0.39206 0.74372 0.28913 0.0
H1102 H 0.43968 0.7883 0.30109 0.0
C1103 C 0.39903 0.72575 0.30702 0.0
H1104 H 0.40252 0.78034 0.27353 0.0
C1105 C 0.42054 0.73021 0.32269 0.0
C1106 C 0.4355 0.75278 0.32089 0.0
H1107 H 0.38771 0.70833 0.30914 0.0
H1108 H 0.42535 0.716 0.33629 0.0
C1109 C 0.4285 0.77076 0.30307 0.0
C1110 C 0.95652 0.35026 0.93349 0.0
C1111 C 0.97477 0.35623 0.9528 0.0
H1112 H 0.94498 0.32566 0.90202 0.0
C1113 C 0.99609 0.3412 0.95469 0.0
H1114 H 0.9401 0.36167 0.93117 0.0
C1115 C 0.99906 0.32071 0.93773 0.0
C1116 C 0.98068 0.31468 0.91859 0.0
H1117 H 0.01034 0.34503 0.96953 0.0
H1118 H 0.01563 0.30944 0.9398 0.0
C1119 C 0.9594 0.32968 0.91666 0.0
C1120 C 0.58614 0.76178 0.29515 0.0
C1121 C 0.59964 0.78525 0.294 0.0
H1122 H 0.55536 0.7404 0.31207 0.0
C1123 C 0.59197 0.80562 0.30938 0.0
H1124 H 0.5918 0.74577 0.28354 0.0
C1125 C 0.57095 0.8027 0.32538 0.0
C1126 C 0.55749 0.7792 0.32666 0.0
H1127 H 0.602 0.82394 0.30869 0.0
H1128 H 0.56535 0.8188 0.33689 0.0
C1129 C 0.5654 0.75871 0.31153 0.0
C1130 C 0.0296 0.15718 0.94347 0.0
C1131 C 0.01357 0.1522 0.96431 0.0
H1132 H 0.0383 0.18106 0.91194 0.0
C1133 C 0.99323 0.16801 0.96895 0.0
H1134 H 0.04559 0.1455 0.93956 0.0
C1135 C 0.98906 0.18841 0.95318 0.0
C1136 C 0.0052 0.19351 0.93245 0.0
H1137 H 0.98035 0.16448 0.98466 0.0
H1138 H 0.97321 0.20021 0.95731 0.0
C1139 C 0.0255 0.17764 0.92774 0.0
C1140 C 0.40955 0.24198 0.20628 0.0
C1141 C 0.39863 0.26569 0.20506 0.0
H1142 H 0.43845 0.218 0.19244 0.0
C1143 C 0.40889 0.28378 0.18838 0.0
H1144 H 0.40182 0.22766 0.21889 0.0
C1145 C 0.43005 0.27841 0.17351 0.0
C1146 C 0.44099 0.25467 0.17471 0.0
H1147 H 0.40082 0.30222 0.18719 0.0
H1148 H 0.43777 0.2928 0.16099 0.0
C1149 C 0.43039 0.23643 0.19107 0.0
C1150 C 0.48868 0.34547 0.04078 0.0
C1151 C 0.5105 0.36161 0.04409 0.0
H1152 H 0.46784 0.31234 0.0531 0.0
C1153 C 0.52823 0.35635 0.06332 0.0
H1154 H 0.47481 0.34883 0.02595 0.0
C1155 C 0.52435 0.33536 0.07874 0.0
C1156 C 0.50261 0.31915 0.07534 0.0
H1157 H 0.54504 0.36862 0.06665 0.0
H1158 H 0.5384 0.33189 0.09337 0.0
C1159 C 0.48477 0.32447 0.05624 0.0
C1160 C 0.60737 0.25574 0.19812 0.0
C1161 C 0.6067 0.24193 0.22076 0.0
H1162 H 0.58654 0.26844 0.16588 0.0
C1163 C 0.58355 0.23017 0.22825 0.0
H1164 H 0.625 0.2648 0.19174 0.0
C1165 C 0.5615 0.23229 0.21349 0.0
C1166 C 0.56216 0.24608 0.19082 0.0
H1167 H 0.58239 0.21964 0.24575 0.0
H1168 H 0.54395 0.22308 0.21985 0.0
C1169 C 0.58536 0.25771 0.18325 0.0
C1170 C 0.51307 0.14307 0.08171 0.0
C1171 C 0.501 0.14656 0.05804 0.0
H1172 H 0.52614 0.15999 0.11733 0.0
C1173 C 0.49237 0.17062 0.05248 0.0
H1174 H 0.52013 0.12481 0.08646 0.0
C1175 C 0.49586 0.19078 0.07011 0.0
C1176 C 0.5081 0.18735 0.09371 0.0
H1177 H 0.48266 0.17384 0.03457 0.0
H1178 H 0.48898 0.20907 0.06519 0.0
C1179 C 0.51662 0.16326 0.09935 0.0
C1180 C 0.32524 0.39856 0.72686 0.0
C1181 C 0.29918 0.4028 0.72343 0.0
H1182 H 0.3629 0.41487 0.73264 0.0
C1183 C 0.29136 0.42797 0.72433 0.0
H1184 H 0.33208 0.37957 0.7271 0.0
C1185 C 0.3091 0.44822 0.72844 0.0
C1186 C 0.3351 0.44381 0.73109 0.0
H1187 H 0.27161 0.43219 0.72136 0.0
H1188 H 0.30255 0.46737 0.72888 0.0
C1189 C 0.34298 0.41882 0.73027 0.0
C1190 C 0.3086 0.61154 0.76967 0.0
C1191 C 0.28632 0.60967 0.78432 0.0
H1192 H 0.34051 0.59262 0.75447 0.0
C1193 C 0.27931 0.58634 0.79517 0.0
H1194 H 0.31436 0.62916 0.76081 0.0
C1195 C 0.29426 0.56537 0.79149 0.0
C1196 C 0.31652 0.56723 0.77682 0.0
H1197 H 0.26243 0.58437 0.80681 0.0
H1198 H 0.28834 0.5477 0.80018 0.0
C1199 C 0.32351 0.59055 0.76593 0.0
C1200 C 0.87163 0.43566 0.47252 0.0
C1201 C 0.8759 0.45824 0.48692 0.0
H1202 H 0.84717 0.40273 0.46532 0.0
C1203 C 0.85799 0.46511 0.50533 0.0
H1204 H 0.88523 0.42988 0.45831 0.0
C1205 C 0.83614 0.44975 0.5092 0.0
C1206 C 0.83193 0.42703 0.49497 0.0
H1207 H 0.86074 0.48255 0.51652 0.0
H1208 H 0.82264 0.45561 0.52347 0.0
C1209 C 0.84993 0.42009 0.47664 0.0
C1210 C 0.68297 0.88856 0.78969 0.0
C1211 C 0.70442 0.88733 0.77387 0.0
H1212 H 0.65036 0.909 0.80053 0.0
C1213 C 0.70912 0.90666 0.75629 0.0
H1214 H 0.67898 0.87421 0.80372 0.0
C1215 C 0.69282 0.92675 0.75462 0.0
C1216 C 0.67139 0.92795 0.77045 0.0
H1217 H 0.72526 0.90613 0.74357 0.0
H1218 H 0.69699 0.94129 0.74083 0.0
C1219 C 0.66663 0.90861 0.78797 0.0
C1220 C 0.66278 0.54103 0.0141 0.0
C1221 C 0.64786 0.54682 0.99274 0.0
H1222 H 0.69628 0.55018 0.03659 0.0
C1223 C 0.65601 0.56698 0.97733 0.0
H1224 H 0.65723 0.52538 0.02614 0.0
C1225 C 0.67847 0.58111 0.98324 0.0
C1226 C 0.69331 0.57538 0.00468 0.0
H1227 H 0.64482 0.5721 0.96091 0.0
H1228 H 0.68412 0.59661 0.97104 0.0
C1229 C 0.68524 0.55516 0.02001 0.0
C1230 C 0.18061 0.60442 0.2003 0.0
C1231 C 0.20123 0.60891 0.21735 0.0
H1232 H 0.14905 0.57975 0.18865 0.0
C1233 C 0.20564 0.59112 0.23625 0.0
H1234 H 0.1769 0.61762 0.18533 0.0
C1235 C 0.18973 0.56939 0.23813 0.0
C1236 C 0.1691 0.56491 0.22108 0.0
H1237 H 0.2212 0.59418 0.24985 0.0
H1238 H 0.19359 0.55613 0.253 0.0
C1239 C 0.16475 0.58264 0.20211 0.0
C1240 C 0.83801 0.53825 0.99081 0.0
C1241 C 0.85353 0.54331 0.01254 0.0
H1242 H 0.80589 0.54884 0.96873 0.0
C1243 C 0.84807 0.56379 0.02893 0.0
H1244 H 0.84149 0.5224 0.97798 0.0
C1245 C 0.82757 0.57887 0.02371 0.0
C1246 C 0.81206 0.5738 0.00198 0.0
H1247 H 0.85983 0.56839 0.04566 0.0
H1248 H 0.82395 0.59455 0.03671 0.0
C1249 C 0.8175 0.55332 0.98559 0.0
C1250 C 0.16257 0.9703 0.03301 0.0
C1251 C 0.13846 0.9655 0.02165 0.0
H1252 H 0.20074 0.95843 0.03712 0.0
C1253 C 0.13457 0.94412 0.00533 0.0
H1254 H 0.16625 0.98677 0.04545 0.0
C1255 C 0.15434 0.92788 0.00052 0.0
C1256 C 0.17846 0.93271 0.01184 0.0
H1257 H 0.11613 0.93975 0.99653 0.0
H1258 H 0.15067 0.91154 0.98791 0.0
C1259 C 0.18237 0.95412 0.02812 0.0
loop_
_geom_bond_atom_site_label_1
_geom_bond_atom_site_label_2
_geom_bond_distance
_geom_bond_site_symmetry_2
_ccdc_geom_bond_type
C0 C1 1.386 . S
C0 C2 1.397 . S
C0 H24 0.931 . S
C1 C0 1.386 . S
C1 C5 1.397 1_556 S
C2 C0 1.397 . S
C2 C3 1.384 1_556 S
C2 H25 0.930 . S
C3 C2 1.384 1_554 S
C3 C4 1.377 . S
C3 C6 1.481 . S
C4 C3 1.377 . S
C4 C5 1.389 . S
C4 H26 0.929 . S
C5 C1 1.397 1_554 S
C5 C4 1.389 . S
C5 H27 0.931 . S
C6 C3 1.481 . S
C6 C7 1.387 . S
C6 C11 1.390 . S
C7 C6 1.387 . S
C7 C8 1.401 . S
C7 H28 0.930 . S
C8 C7 1.401 . S
C8 C9 1.376 . S
C8 C17 1.511 . S
C9 C8 1.376 . S
C9 C10 1.392 . S
C9 H30 0.931 . S
C10 C9 1.392 . S
C10 C11 1.361 . S
C10 C12 1.500 . S
C11 C6 1.390 . S
C11 C10 1.361 . S
C11 H29 0.931 . S
C12 C10 1.500 . S
C12 C13 1.371 1_455 S
C12 C14 1.365 1_455 S
C13 C12 1.371 1_655 S
C13 C23 1.386 . S
C13 H31 0.931 1_655 S
C14 C12 1.365 1_655 S
C14 C15 1.409 . S
C14 H32 0.937 . S
C15 C14 1.409 . S
C15 C16 1.380 . S
C15 H33 0.930 . S
C16 C15 1.380 . S
C16 C23 1.357 . S
C17 C8 1.511 . S
C17 C18 1.341 . S
C17 C19 1.371 1_545 S
C18 C17 1.341 . S
C18 C22 1.394 1_545 S
C18 H34 0.899 1_554 S
C19 C17 1.371 1_565 S
C19 C20 1.392 . S
C19 H35 0.931 . S
C20 C19 1.392 . S
C20 C21 1.331 . S
C20 H38 0.932 . S
C21 C20 1.331 . S
C21 C22 1.336 . S
C22 C18 1.394 1_565 S
C22 C21 1.336 . S
C22 H37 0.929 1_554 S
C23 C13 1.386 . S
C23 C16 1.357 . S
C23 H36 0.928 1_545 S
H24 C0 0.931 . S
H25 C2 0.930 . S
H26 C4 0.929 . S
H27 C5 0.931 . S
H28 C7 0.930 . S
H29 C11 0.931 . S
H30 C9 0.931 . S
H31 C13 0.931 1_455 S
H32 C14 0.937 . S
H33 C15 0.930 . S
H34 C18 0.899 1_556 S
H35 C19 0.931 . S
H36 C23 0.928 1_565 S
H37 C22 0.929 1_556 S
H38 C20 0.932 . S
C39 C40 1.386 . S
C39 C41 1.397 . S
C39 H63 0.931 . S
C40 C39 1.386 . S
C40 C44 1.397 . S
C41 C39 1.397 . S
C41 C42 1.384 . S
C41 H64 0.930 . S
C42 C41 1.384 . S
C42 C43 1.377 . S
C42 C45 1.481 . S
C43 C42 1.377 . S
C43 C44 1.389 . S
C43 H65 0.929 . S
C44 C40 1.397 . S
C44 C43 1.389 . S
C44 H66 0.931 . S
C45 C42 1.481 . S
C45 C46 1.387 . S
C45 C50 1.390 . S
C46 C45 1.387 . S
C46 C47 1.401 . S
C46 H67 0.930 . S
C47 C46 1.401 . S
C47 C48 1.376 . S
C47 C56 1.511 . S
C48 C47 1.376 . S
C48 C49 1.392 . S
C48 H69 0.931 . S
C49 C48 1.392 . S
C49 C50 1.361 . S
C49 C51 1.500 . S
C50 C45 1.390 . S
C50 C49 1.361 . S
C50 H68 0.931 . S
C51 C49 1.500 . S
C51 C52 1.371 . S
C51 C53 1.365 . S
C52 C51 1.371 . S
C52 C62 1.386 . S
C52 H70 0.931 . S
C53 C51 1.365 . S
C53 C54 1.409 . S
C53 H71 0.929 . S
C54 C53 1.409 . S
C54 C55 1.380 . S
C54 H72 0.930 . S
C55 C54 1.380 . S
C55 C62 1.357 . S
C56 C47 1.511 . S
C56 C57 1.341 . S
C56 C58 1.371 . S
C57 C56 1.341 . S
C57 C61 1.394 . S
C57 H73 0.930 . S
C58 C56 1.371 . S
C58 C59 1.392 . S
C58 H74 0.931 . S
C59 C58 1.392 . S
C59 C60 1.331 . S
C59 H77 0.932 . S
C60 C59 1.331 . S
C60 C61 1.336 . S
C61 C57 1.394 . S
C61 C60 1.336 . S
C61 H76 0.929 . S
C62 C52 1.386 . S
C62 C55 1.357 . S
C62 H75 0.928 . S
H63 C39 0.931 . S
H64 C41 0.930 . S
H65 C43 0.929 . S
H66 C44 0.931 . S
H67 C46 0.930 . S
H68 C50 0.931 . S
H69 C48 0.931 . S
H70 C52 0.931 . S
H71 C53 0.929 . S
H72 C54 0.930 . S
H73 C57 0.930 . S
H74 C58 0.931 . S
H75 C62 0.928 . S
H76 C61 0.929 . S
H77 C59 0.932 . S
C78 C79 1.386 . S
C78 C80 1.397 1_455 S
C78 H102 0.931 . S
C79 C78 1.386 . S
C79 C83 1.397 . S
C80 C78 1.397 1_655 S
C80 C81 1.395 . S
C80 H103 0.930 . S
C81 C80 1.395 . S
C81 C82 1.349 1_655 S
C81 C84 1.498 . S
C82 C81 1.349 1_455 S
C82 C83 1.389 . S
C82 H104 0.929 . S
C83 C79 1.397 . S
C83 C82 1.389 . S
C83 H105 0.931 . S
C84 C81 1.498 . S
C84 C85 1.387 . S
C84 C89 1.390 . S
C85 C84 1.387 . S
C85 C86 1.401 . S
C85 H106 0.930 . S
C86 C85 1.401 . S
C86 C87 1.376 . S
C86 C95 1.511 . S
C87 C86 1.376 . S
C87 C88 1.392 . S
C87 H108 0.931 . S
C88 C87 1.392 . S
C88 C89 1.361 . S
C88 C90 1.500 . S
C89 C84 1.390 . S
C89 C88 1.361 . S
C89 H107 0.931 . S
C90 C88 1.500 . S
C90 C91 1.371 1_554 S
C90 C92 1.365 1_554 S
C91 C90 1.371 1_556 S
C91 C101 1.386 . S
C91 H109 0.931 . S
C92 C90 1.365 1_556 S
C92 C93 1.409 1_655 S
C92 H110 0.929 1_656 S
C93 C92 1.409 1_455 S
C93 C94 1.380 1_455 S
C93 H111 0.930 . S
C94 C93 1.380 1_655 S
C94 C101 1.357 . S
C95 C86 1.511 . S
C95 C96 1.341 . S
C95 C97 1.371 . S
C96 C95 1.341 . S
C96 C100 1.394 . S
C96 H112 0.930 . S
C97 C95 1.371 . S
C97 C98 1.396 . S
C97 H113 0.931 1_554 S
C98 C97 1.396 . S
C98 C99 1.346 . S
C98 H116 0.913 1_554 S
C99 C98 1.346 . S
C99 C100 1.336 . S
C100 C96 1.394 . S
C100 C99 1.336 . S
C100 H115 0.929 . S
C101 C91 1.386 . S
C101 C94 1.357 . S
C101 H114 0.928 . S
H102 C78 0.931 . S
H103 C80 0.930 . S
H104 C82 0.929 . S
H105 C83 0.931 . S
H106 C85 0.930 . S
H107 C89 0.931 . S
H108 C87 0.931 . S
H109 C91 0.931 . S
H110 C92 0.929 1_454 S
H111 C93 0.930 . S
H112 C96 0.930 . S
H113 C97 0.931 1_556 S
H114 C101 0.928 . S
H115 C100 0.929 . S
H116 C98 0.913 1_556 S
C117 C118 1.386 . S
C117 C119 1.397 . S
C117 H141 0.931 . S
C118 C117 1.386 . S
C118 C122 1.397 . S
C119 C117 1.397 . S
C119 C120 1.384 . S
C119 H142 0.930 . S
C120 C119 1.384 . S
C120 C121 1.377 . S
C120 C123 1.481 . S
C121 C120 1.377 . S
C121 C122 1.389 . S
C121 H143 0.929 . S
C122 C118 1.397 . S
C122 C121 1.389 . S
C122 H144 0.931 . S
C123 C120 1.481 . S
C123 C124 1.387 . S
C123 C128 1.390 . S
C124 C123 1.387 . S
C124 C125 1.401 . S
C124 H145 0.930 . S
C125 C124 1.401 . S
C125 C126 1.376 . S
C125 C134 1.511 . S
C126 C125 1.376 . S
C126 C127 1.392 . S
C126 H147 0.931 . S
C127 C126 1.392 . S
C127 C128 1.361 . S
C127 C129 1.500 . S
C128 C123 1.390 . S
C128 C127 1.361 . S
C128 H146 0.931 . S
C129 C127 1.500 . S
C129 C130 1.371 . S
C129 C131 1.365 . S
C130 C129 1.371 . S
C130 C140 1.386 . S
C130 H148 0.931 . S
C131 C129 1.365 . S
C131 C132 1.409 . S
C131 H149 0.929 . S
C132 C131 1.409 . S
C132 C133 1.380 . S
C132 H150 0.930 . S
C133 C132 1.380 . S
C133 C140 1.357 . S
C134 C125 1.511 . S
C134 C135 1.341 . S
C134 C136 1.371 . S
C135 C134 1.341 . S
C135 C139 1.394 . S
C135 H151 0.930 . S
C136 C134 1.371 . S
C136 C137 1.392 . S
C136 H152 0.931 . S
C137 C136 1.392 . S
C137 C138 1.331 . S
C137 H155 0.932 . S
C138 C137 1.331 . S
C138 C139 1.336 . S
C139 C135 1.394 . S
C139 C138 1.336 . S
C139 H154 0.929 . S
C140 C130 1.386 . S
C140 C133 1.357 . S
C140 H153 0.928 . S
H141 C117 0.931 . S
H142 C119 0.930 . S
H143 C121 0.929 . S
H144 C122 0.931 . S
H145 C124 0.930 . S
H146 C128 0.931 . S
H147 C126 0.931 . S
H148 C130 0.931 . S
H149 C131 0.929 . S
H150 C132 0.930 . S
H151 C135 0.930 . S
H152 C136 0.931 . S
H153 C140 0.928 . S
H154 C139 0.929 . S
H155 C137 0.932 . S
C156 C157 1.386 . S
C156 C158 1.397 . S
C156 H180 0.931 . S
C157 C156 1.386 . S
C157 C161 1.397 . S
C158 C156 1.397 . S
C158 C159 1.384 1_655 S
C158 H181 0.930 . S
C159 C158 1.384 1_455 S
C159 C160 1.377 . S
C159 C162 1.481 . S
C160 C159 1.377 . S
C160 C161 1.389 1_455 S
C160 H182 0.929 . S
C161 C157 1.397 . S
C161 C160 1.389 1_655 S
C161 H183 0.931 1_655 S
C162 C159 1.481 . S
C162 C163 1.387 . S
C162 C167 1.390 . S
C163 C162 1.387 . S
C163 C164 1.401 . S
C163 H184 0.930 . S
C164 C163 1.401 . S
C164 C165 1.376 . S
C164 C173 1.511 . S
C165 C164 1.376 . S
C165 C166 1.392 . S
C165 H186 0.931 . S
C166 C165 1.392 . S
C166 C167 1.361 . S
C166 C168 1.500 1_565 S
C167 C162 1.390 . S
C167 C166 1.361 . S
C167 H185 0.931 1_565 S
C168 C166 1.500 1_545 S
C168 C169 1.371 . S
C168 C170 1.365 . S
C169 C168 1.371 . S
C169 C179 1.386 . S
C169 H187 0.931 . S
C170 C168 1.365 . S
C170 C171 1.409 . S
C170 H188 0.929 . S
C171 C170 1.409 . S
C171 C172 1.380 . S
C171 H189 0.930 . S
C172 C171 1.380 . S
C172 C179 1.357 . S
C173 C164 1.511 . S
C173 C174 1.341 . S
C173 C175 1.371 . S
C174 C173 1.341 . S
C174 C178 1.394 . S
C174 H190 0.930 1_455 S
C175 C173 1.371 . S
C175 C176 1.392 . S
C175 H191 0.931 . S
C176 C175 1.392 . S
C176 C177 1.331 . S
C176 H194 0.932 . S
C177 C176 1.331 . S
C177 C178 1.336 . S
C178 C174 1.394 . S
C178 C177 1.336 . S
C178 H193 0.929 1_455 S
C179 C169 1.386 . S
C179 C172 1.357 . S
C179 H192 0.928 . S
H180 C156 0.931 . S
H181 C158 0.930 . S
H182 C160 0.929 . S
H183 C161 0.931 1_455 S
H184 C163 0.930 . S
H185 C167 0.931 1_545 S
H186 C165 0.931 . S
H187 C169 0.931 . S
H188 C170 0.929 . S
H189 C171 0.930 . S
H190 C174 0.930 1_655 S
H191 C175 0.931 . S
H192 C179 0.928 . S
H193 C178 0.929 1_655 S
H194 C176 0.932 . S
C195 C196 1.386 . S
C195 C197 1.397 . S
C195 H219 0.931 . S
C196 C195 1.386 . S
C196 C200 1.397 . S
C197 C195 1.397 . S
C197 C198 1.384 . S
C197 H220 0.930 . S
C198 C197 1.384 . S
C198 C199 1.377 . S
C198 C201 1.481 . S
C199 C198 1.377 . S
C199 C200 1.389 . S
C199 H221 0.929 . S
C200 C196 1.397 . S
C200 C199 1.389 . S
C200 H222 0.931 . S
C201 C198 1.481 . S
C201 C202 1.387 . S
C201 C206 1.390 . S
C202 C201 1.387 . S
C202 C203 1.401 . S
C202 H223 0.930 . S
C203 C202 1.401 . S
C203 C204 1.376 . S
C203 C212 1.511 . S
C204 C203 1.376 . S
C204 C205 1.392 . S
C204 H225 0.931 . S
C205 C204 1.392 . S
C205 C206 1.361 . S
C205 C207 1.500 . S
C206 C201 1.390 . S
C206 C205 1.361 . S
C206 H224 0.931 . S
C207 C205 1.500 . S
C207 C208 1.371 . S
C207 C209 1.365 . S
C208 C207 1.371 . S
C208 C218 1.386 . S
C208 H226 0.931 . S
C209 C207 1.365 . S
C209 C210 1.409 . S
C209 H227 0.929 . S
C210 C209 1.409 . S
C210 C211 1.380 . S
C210 H228 0.930 . S
C211 C210 1.380 . S
C211 C218 1.357 . S
C212 C203 1.511 . S
C212 C213 1.341 . S
C212 C214 1.371 . S
C213 C212 1.341 . S
C213 C217 1.394 . S
C213 H229 0.930 . S
C214 C212 1.371 . S
C214 C215 1.392 . S
C214 H230 0.931 . S
C215 C214 1.392 . S
C215 C216 1.331 . S
C215 H233 0.932 . S
C216 C215 1.331 . S
C216 C217 1.336 . S
C217 C213 1.394 . S
C217 C216 1.336 . S
C217 H232 0.929 . S
C218 C208 1.386 . S
C218 C211 1.357 . S
C218 H231 0.928 . S
H219 C195 0.931 . S
H220 C197 0.930 . S
H221 C199 0.929 . S
H222 C200 0.931 . S
H223 C202 0.930 . S
H224 C206 0.931 . S
H225 C204 0.931 . S
H226 C208 0.931 . S
H227 C209 0.929 . S
H228 C210 0.930 . S
H229 C213 0.930 . S
H230 C214 0.931 . S
H231 C218 0.928 . S
H232 C217 0.929 . S
H233 C215 0.932 . S
C234 C235 1.386 . S
C234 C236 1.397 . S
C234 H258 0.931 . S
C235 C234 1.386 . S
C235 C239 1.397 . S
C236 C234 1.397 . S
C236 C237 1.384 . S
C236 H259 0.930 . S
C237 C236 1.384 . S
C237 C238 1.377 . S
C237 C240 1.481 . S
C238 C237 1.377 . S
C238 C239 1.389 . S
C238 H260 0.929 . S
C239 C235 1.397 . S
C239 C238 1.389 . S
C239 H261 0.931 . S
C240 C237 1.481 . S
C240 C241 1.387 . S
C240 C245 1.390 . S
C241 C240 1.387 . S
C241 C242 1.401 . S
C241 H262 0.938 . S
C242 C241 1.401 . S
C242 C243 1.376 . S
C242 C251 1.524 . S
C243 C242 1.376 . S
C243 C244 1.392 . S
C243 H264 0.931 . S
C244 C243 1.392 . S
C244 C245 1.361 . S
C244 C246 1.500 . S
C245 C240 1.390 . S
C245 C244 1.361 . S
C245 H263 0.931 . S
C246 C244 1.500 . S
C246 C247 1.371 . S
C246 C248 1.365 . S
C247 C246 1.371 . S
C247 C257 1.386 . S
C247 H265 0.931 . S
C248 C246 1.365 . S
C248 C249 1.409 . S
C248 H266 0.929 . S
C249 C248 1.409 . S
C249 C250 1.380 . S
C249 H267 0.930 . S
C250 C249 1.380 . S
C250 C257 1.357 . S
C251 C242 1.524 . S
C251 C252 1.329 1_655 S
C251 C253 1.369 1_655 S
C252 C251 1.329 1_455 S
C252 C256 1.394 . S
C252 H268 0.930 . S
C253 C251 1.369 1_455 S
C253 C254 1.392 . S
C253 H269 0.931 1_455 S
C254 C253 1.392 . S
C254 C255 1.331 . S
C254 H272 0.932 . S
C255 C254 1.331 . S
C255 C256 1.336 . S
C256 C252 1.394 . S
C256 C255 1.336 . S
C256 H271 0.929 . S
C257 C247 1.386 . S
C257 C250 1.357 . S
C257 H270 0.928 . S
H258 C234 0.931 . S
H259 C236 0.930 . S
H260 C238 0.929 . S
H261 C239 0.931 . S
H262 C241 0.938 . S
H263 C245 0.931 . S
H264 C243 0.931 . S
H265 C247 0.931 . S
H266 C248 0.929 . S
H267 C249 0.930 . S
H268 C252 0.930 . S
H269 C253 0.931 1_655 S
H270 C257 0.928 . S
H271 C256 0.929 . S
H272 C254 0.932 . S
C273 C274 1.386 . S
C273 C275 1.397 . S
C273 H297 0.931 . S
C274 C273 1.386 . S
C274 C278 1.397 . S
C275 C273 1.397 . S
C275 C276 1.384 . S
C275 H298 0.930 . S
C276 C275 1.384 . S
C276 C277 1.377 . S
C276 C279 1.481 . S
C277 C276 1.377 . S
C277 C278 1.389 . S
C277 H299 0.929 . S
C278 C274 1.397 . S
C278 C277 1.389 . S
C278 H300 0.931 . S
C279 C276 1.481 . S
C279 C280 1.387 . S
C279 C284 1.390 . S
C280 C279 1.387 . S
C280 C281 1.401 . S
C280 H301 0.930 . S
C281 C280 1.401 . S
C281 C282 1.376 . S
C281 C290 1.511 . S
C282 C281 1.376 . S
C282 C283 1.392 . S
C282 H303 0.931 . S
C283 C282 1.392 . S
C283 C284 1.361 . S
C283 C285 1.500 . S
C284 C279 1.390 . S
C284 C283 1.361 . S
C284 H302 0.931 . S
C285 C283 1.500 . S
C285 C286 1.371 . S
C285 C287 1.365 . S
C286 C285 1.371 . S
C286 C296 1.386 . S
C286 H304 0.931 . S
C287 C285 1.365 . S
C287 C288 1.409 . S
C287 H305 0.929 . S
C288 C287 1.409 . S
C288 C289 1.380 . S
C288 H306 0.930 . S
C289 C288 1.380 . S
C289 C296 1.357 . S
C290 C281 1.511 . S
C290 C291 1.341 . S
C290 C292 1.371 . S
C291 C290 1.341 . S
C291 C295 1.394 . S
C291 H307 0.930 . S
C292 C290 1.371 . S
C292 C293 1.392 . S
C292 H308 0.931 . S
C293 C292 1.392 . S
C293 C294 1.331 . S
C293 H311 0.932 . S
C294 C293 1.331 . S
C294 C295 1.336 . S
C295 C291 1.394 . S
C295 C294 1.336 . S
C295 H310 0.929 . S
C296 C286 1.386 . S
C296 C289 1.357 . S
C296 H309 0.928 . S
H297 C273 0.931 . S
H298 C275 0.930 . S
H299 C277 0.929 . S
H300 C278 0.931 . S
H301 C280 0.930 . S
H302 C284 0.931 . S
H303 C282 0.931 . S
H304 C286 0.931 . S
H305 C287 0.929 . S
H306 C288 0.930 . S
H307 C291 0.930 . S
H308 C292 0.931 . S
H309 C296 0.928 . S
H310 C295 0.929 . S
H311 C293 0.932 . S
C312 C313 1.386 . S
C312 C314 1.397 . S
C312 H336 0.931 . S
C313 C312 1.386 . S
C313 C317 1.397 . S
C314 C312 1.397 . S
C314 C315 1.384 . S
C314 H337 0.930 . S
C315 C314 1.384 . S
C315 C316 1.377 . S
C315 C318 1.481 . S
C316 C315 1.377 . S
C316 C317 1.389 . S
C316 H338 0.929 . S
C317 C313 1.397 . S
C317 C316 1.389 . S
C317 H339 0.931 . S
C318 C315 1.481 . S
C318 C319 1.387 . S
C318 C323 1.390 . S
C319 C318 1.387 . S
C319 C320 1.401 . S
C319 H340 0.930 . S
C320 C319 1.401 . S
C320 C321 1.376 . S
C320 C329 1.511 . S
C321 C320 1.376 . S
C321 C322 1.392 . S
C321 H342 0.931 . S
C322 C321 1.392 . S
C322 C323 1.361 . S
C322 C324 1.500 . S
C323 C318 1.390 . S
C323 C322 1.361 . S
C323 H341 0.931 . S
C324 C322 1.500 . S
C324 C325 1.371 . S
C324 C326 1.365 . S
C325 C324 1.371 . S
C325 C335 1.386 . S
C325 H343 0.931 . S
C326 C324 1.365 . S
C326 C327 1.409 . S
C326 H344 0.929 . S
C327 C326 1.409 . S
C327 C328 1.380 . S
C327 H345 0.930 . S
C328 C327 1.380 . S
C328 C335 1.357 . S
C329 C320 1.511 . S
C329 C330 1.341 . S
C329 C331 1.371 . S
C330 C329 1.341 . S
C330 C334 1.394 . S
C330 H346 0.930 . S
C331 C329 1.371 . S
C331 C332 1.392 . S
C331 H347 0.931 . S
C332 C331 1.392 . S
C332 C333 1.331 . S
C332 H350 0.932 . S
C333 C332 1.331 . S
C333 C334 1.336 . S
C334 C330 1.394 . S
C334 C333 1.336 . S
C334 H349 0.929 . S
C335 C325 1.386 . S
C335 C328 1.357 . S
C335 H348 0.928 . S
H336 C312 0.931 . S
H337 C314 0.930 . S
H338 C316 0.929 . S
H339 C317 0.931 . S
H340 C319 0.930 . S
H341 C323 0.931 . S
H342 C321 0.931 . S
H343 C325 0.931 . S
H344 C326 0.929 . S
H345 C327 0.930 . S
H346 C330 0.930 . S
H347 C331 0.931 . S
H348 C335 0.928 . S
H349 C334 0.929 . S
H350 C332 0.932 . S
C351 C352 1.386 . S
C351 C353 1.397 . S
C351 H375 0.931 . S
C352 C351 1.386 . S
C352 C356 1.397 . S
C353 C351 1.397 . S
C353 C354 1.384 . S
C353 H376 0.930 . S
C354 C353 1.384 . S
C354 C355 1.377 . S
C354 C357 1.481 . S
C355 C354 1.377 . S
C355 C356 1.389 . S
C355 H377 0.929 . S
C356 C352 1.397 . S
C356 C355 1.389 . S
C356 H378 0.931 . S
C357 C354 1.481 . S
C357 C358 1.387 . S
C357 C362 1.390 . S
C358 C357 1.387 . S
C358 C359 1.401 . S
C358 H379 0.920 1_565 S
C359 C358 1.401 . S
C359 C360 1.376 . S
C359 C368 1.486 1_565 S
C360 C359 1.376 . S
C360 C361 1.392 . S
C360 H381 0.931 . S
C361 C360 1.392 . S
C361 C362 1.361 . S
C361 C363 1.500 . S
C362 C357 1.390 . S
C362 C361 1.361 . S
C362 H380 0.931 . S
C363 C361 1.500 . S
C363 C364 1.371 . S
C363 C365 1.365 . S
C364 C363 1.371 . S
C364 C374 1.386 . S
C364 H382 0.931 . S
C365 C363 1.365 . S
C365 C366 1.409 . S
C365 H383 0.929 . S
C366 C365 1.409 . S
C366 C367 1.380 . S
C366 H384 0.930 . S
C367 C366 1.380 . S
C367 C374 1.357 . S
C368 C359 1.486 1_545 S
C368 C369 1.365 . S
C368 C370 1.376 . S
C369 C368 1.365 . S
C369 C373 1.394 . S
C369 H385 0.930 . S
C370 C368 1.376 . S
C370 C371 1.392 . S
C370 H386 0.931 1_545 S
C371 C370 1.392 . S
C371 C372 1.331 . S
C371 H389 0.932 . S
C372 C371 1.331 . S
C372 C373 1.336 . S
C373 C369 1.394 . S
C373 C372 1.336 . S
C373 H388 0.929 . S
C374 C364 1.386 . S
C374 C367 1.357 . S
C374 H387 0.928 . S
H375 C351 0.931 . S
H376 C353 0.930 . S
H377 C355 0.929 . S
H378 C356 0.931 . S
H379 C358 0.920 1_545 S
H380 C362 0.931 . S
H381 C360 0.931 . S
H382 C364 0.931 . S
H383 C365 0.929 . S
H384 C366 0.930 . S
H385 C369 0.930 . S
H386 C370 0.931 1_565 S
H387 C374 0.928 . S
H388 C373 0.929 . S
H389 C371 0.932 . S
C390 C391 1.386 . S
C390 C392 1.397 . S
C390 H414 0.931 . S
C391 C390 1.386 . S
C391 C395 1.397 . S
C392 C390 1.397 . S
C392 C393 1.384 . S
C392 H415 0.930 . S
C393 C392 1.384 . S
C393 C394 1.377 . S
C393 C396 1.481 . S
C394 C393 1.377 . S
C394 C395 1.389 . S
C394 H416 0.929 . S
C395 C391 1.397 . S
C395 C394 1.389 . S
C395 H417 0.931 . S
C396 C393 1.481 . S
C396 C397 1.387 . S
C396 C401 1.390 . S
C397 C396 1.387 . S
C397 C398 1.401 . S
C397 H418 0.930 . S
C398 C397 1.401 . S
C398 C399 1.376 . S
C398 C407 1.511 . S
C399 C398 1.376 . S
C399 C400 1.392 . S
C399 H420 0.931 . S
C400 C399 1.392 . S
C400 C401 1.361 . S
C400 C402 1.500 . S
C401 C396 1.390 . S
C401 C400 1.361 . S
C401 H419 0.931 . S
C402 C400 1.500 . S
C402 C403 1.371 . S
C402 C404 1.365 . S
C403 C402 1.371 . S
C403 C413 1.386 . S
C403 H421 0.931 . S
C404 C402 1.365 . S
C404 C405 1.409 . S
C404 H422 0.929 . S
C405 C404 1.409 . S
C405 C406 1.380 . S
C405 H423 0.930 . S
C406 C405 1.380 . S
C406 C413 1.357 . S
C407 C398 1.511 . S
C407 C408 1.341 . S
C407 C409 1.371 . S
C408 C407 1.341 . S
C408 C412 1.394 . S
C408 H424 0.930 . S
C409 C407 1.371 . S
C409 C410 1.392 . S
C409 H425 0.931 . S
C410 C409 1.392 . S
C410 C411 1.331 . S
C410 H428 0.932 . S
C411 C410 1.331 . S
C411 C412 1.336 . S
C412 C408 1.394 . S
C412 C411 1.336 . S
C412 H427 0.929 . S
C413 C403 1.386 . S
C413 C406 1.357 . S
C413 H426 0.928 . S
H414 C390 0.931 . S
H415 C392 0.930 . S
H416 C394 0.929 . S
H417 C395 0.931 . S
H418 C397 0.930 . S
H419 C401 0.931 . S
H420 C399 0.931 . S
H421 C403 0.931 . S
H422 C404 0.929 . S
H423 C405 0.930 . S
H424 C408 0.930 . S
H425 C409 0.931 . S
H426 C413 0.928 . S
H427 C412 0.929 . S
H428 C410 0.932 . S
C429 C430 1.386 . S
C429 C431 1.397 . S
C429 H453 0.931 . S
C430 C429 1.386 . S
C430 C434 1.397 . S
C431 C429 1.397 . S
C431 C432 1.384 . S
C431 H454 0.930 . S
C432 C431 1.384 . S
C432 C433 1.377 . S
C432 C435 1.481 . S
C433 C432 1.377 . S
C433 C434 1.389 . S
C433 H455 0.929 . S
C434 C430 1.397 . S
C434 C433 1.389 . S
C434 H456 0.931 . S
C435 C432 1.481 . S
C435 C436 1.387 . S
C435 C440 1.390 . S
C436 C435 1.387 . S
C436 C437 1.401 . S
C436 H457 0.930 . S
C437 C436 1.401 . S
C437 C438 1.376 . S
C437 C446 1.511 . S
C438 C437 1.376 . S
C438 C439 1.392 . S
C438 H459 0.931 . S
C439 C438 1.392 . S
C439 C440 1.361 . S
C439 C441 1.500 . S
C440 C435 1.390 . S
C440 C439 1.361 . S
C440 H458 0.931 . S
C441 C439 1.500 . S
C441 C442 1.371 . S
C441 C443 1.365 . S
C442 C441 1.371 . S
C442 C452 1.386 . S
C442 H460 0.931 . S
C443 C441 1.365 . S
C443 C444 1.409 . S
C443 H461 0.929 . S
C444 C443 1.409 . S
C444 C445 1.380 . S
C444 H462 0.930 . S
C445 C444 1.380 . S
C445 C452 1.357 . S
C446 C437 1.511 . S
C446 C447 1.341 . S
C446 C448 1.371 . S
C447 C446 1.341 . S
C447 C451 1.394 . S
C447 H463 0.930 . S
C448 C446 1.371 . S
C448 C449 1.392 . S
C448 H464 0.931 . S
C449 C448 1.392 . S
C449 C450 1.331 . S
C449 H467 0.932 . S
C450 C449 1.331 . S
C450 C451 1.336 . S
C451 C447 1.394 . S
C451 C450 1.336 . S
C451 H466 0.929 . S
C452 C442 1.386 . S
C452 C445 1.357 . S
C452 H465 0.928 . S
H453 C429 0.931 . S
H454 C431 0.930 . S
H455 C433 0.929 . S
H456 C434 0.931 . S
H457 C436 0.930 . S
H458 C440 0.931 . S
H459 C438 0.931 . S
H460 C442 0.931 . S
H461 C443 0.929 . S
H462 C444 0.930 . S
H463 C447 0.930 . S
H464 C448 0.931 . S
H465 C452 0.928 . S
H466 C451 0.929 . S
H467 C449 0.932 . S
C468 C469 1.386 . S
C468 C470 1.397 . S
C468 H492 0.931 . S
C469 C468 1.386 . S
C469 C473 1.397 . S
C470 C468 1.397 . S
C470 C471 1.384 . S
C470 H493 0.930 . S
C471 C470 1.384 . S
C471 C472 1.377 . S
C471 C474 1.481 . S
C472 C471 1.377 . S
C472 C473 1.389 . S
C472 H494 0.929 . S
C473 C469 1.397 . S
C473 C472 1.389 . S
C473 H495 0.931 . S
C474 C471 1.481 . S
C474 C475 1.387 . S
C474 C479 1.390 . S
C475 C474 1.387 . S
C475 C476 1.401 . S
C475 H496 0.930 . S
C476 C475 1.401 . S
C476 C477 1.376 . S
C476 C485 1.511 . S
C477 C476 1.376 . S
C477 C478 1.392 . S
C477 H498 0.931 . S
C478 C477 1.392 . S
C478 C479 1.361 . S
C478 C480 1.500 . S
C479 C474 1.390 . S
C479 C478 1.361 . S
C479 H497 0.931 . S
C480 C478 1.500 . S
C480 C481 1.371 . S
C480 C482 1.365 . S
C481 C480 1.371 . S
C481 C491 1.386 . S
C481 H499 0.931 . S
C482 C480 1.365 . S
C482 C483 1.409 . S
C482 H500 0.929 . S
C483 C482 1.409 . S
C483 C484 1.380 . S
C483 H501 0.930 . S
C484 C483 1.380 . S
C484 C491 1.357 . S
C485 C476 1.511 . S
C485 C486 1.341 . S
C485 C487 1.371 . S
C486 C485 1.341 . S
C486 C490 1.394 . S
C486 H502 0.930 . S
C487 C485 1.371 . S
C487 C488 1.392 . S
C487 H503 0.931 . S
C488 C487 1.392 . S
C488 C489 1.331 . S
C488 H506 0.932 . S
C489 C488 1.331 . S
C489 C490 1.336 . S
C490 C486 1.394 . S
C490 C489 1.336 . S
C490 H505 0.929 . S
C491 C481 1.386 . S
C491 C484 1.357 . S
C491 H504 0.928 . S
H492 C468 0.931 . S
H493 C470 0.930 . S
H494 C472 0.929 . S
H495 C473 0.931 . S
H496 C475 0.930 . S
H497 C479 0.931 . S
H498 C477 0.931 . S
H499 C481 0.931 . S
H500 C482 0.929 . S
H501 C483 0.930 . S
H502 C486 0.930 . S
H503 C487 0.931 . S
H504 C491 0.928 . S
H505 C490 0.929 . S
H506 C488 0.932 . S
C507 C508 1.386 . S
C507 C509 1.397 . S
C507 H531 0.931 . S
C508 C507 1.386 . S
C508 C512 1.397 . S
C509 C507 1.397 . S
C509 C510 1.384 . S
C509 H532 0.930 . S
C510 C509 1.384 . S
C510 C511 1.377 . S
C510 C513 1.481 . S
C511 C510 1.377 . S
C511 C512 1.389 . S
C511 H533 0.929 . S
C512 C508 1.397 . S
C512 C511 1.389 . S
C512 H534 0.931 . S
C513 C510 1.481 . S
C513 C514 1.387 . S
C513 C518 1.390 . S
C514 C513 1.387 . S
C514 C515 1.401 . S
C514 H535 0.930 . S
C515 C514 1.401 . S
C515 C516 1.376 . S
C515 C524 1.511 . S
C516 C515 1.376 . S
C516 C517 1.392 . S
C516 H537 0.931 . S
C517 C516 1.392 . S
C517 C518 1.361 . S
C517 C519 1.500 . S
C518 C513 1.390 . S
C518 C517 1.361 . S
C518 H536 0.931 . S
C519 C517 1.500 . S
C519 C520 1.371 . S
C519 C521 1.365 . S
C520 C519 1.371 . S
C520 C530 1.386 . S
C520 H538 0.931 1_556 S
C521 C519 1.365 . S
C521 C522 1.409 . S
C521 H539 0.929 . S
C522 C521 1.409 . S
C522 C523 1.380 . S
C522 H540 0.930 . S
C523 C522 1.380 . S
C523 C530 1.357 . S
C524 C515 1.511 . S
C524 C525 1.341 . S
C524 C526 1.371 1_556 S
C525 C524 1.341 . S
C525 C529 1.394 1_556 S
C525 H541 0.930 . S
C526 C524 1.371 1_554 S
C526 C527 1.392 . S
C526 H542 0.931 . S
C527 C526 1.392 . S
C527 C528 1.331 . S
C527 H545 0.932 . S
C528 C527 1.331 . S
C528 C529 1.336 . S
C529 C525 1.394 1_554 S
C529 C528 1.336 . S
C529 H544 0.929 . S
C530 C520 1.386 . S
C530 C523 1.357 . S
C530 H543 0.928 1_556 S
H531 C507 0.931 . S
H532 C509 0.930 . S
H533 C511 0.929 . S
H534 C512 0.931 . S
H535 C514 0.930 . S
H536 C518 0.931 . S
H537 C516 0.931 . S
H538 C520 0.931 1_554 S
H539 C521 0.929 . S
H540 C522 0.930 . S
H541 C525 0.930 . S
H542 C526 0.931 . S
H543 C530 0.928 1_554 S
H544 C529 0.929 . S
H545 C527 0.932 . S
C546 C547 1.386 . S
C546 C548 1.397 . S
C546 H570 0.931 . S
C547 C546 1.386 . S
C547 C551 1.397 . S
C548 C546 1.397 . S
C548 C549 1.384 . S
C548 H571 0.930 . S
C549 C548 1.384 . S
C549 C550 1.377 . S
C549 C552 1.481 . S
C550 C549 1.377 . S
C550 C551 1.389 . S
C550 H572 0.929 . S
C551 C547 1.397 . S
C551 C550 1.389 . S
C551 H573 0.931 . S
C552 C549 1.481 . S
C552 C553 1.387 . S
C552 C557 1.390 . S
C553 C552 1.387 . S
C553 C554 1.401 . S
C553 H574 0.930 . S
C554 C553 1.401 . S
C554 C555 1.376 . S
C554 C563 1.511 . S
C555 C554 1.376 . S
C555 C556 1.392 . S
C555 H576 0.931 . S
C556 C555 1.392 . S
C556 C557 1.361 . S
C556 C558 1.500 . S
C557 C552 1.390 . S
C557 C556 1.361 . S
C557 H575 0.931 . S
C558 C556 1.500 . S
C558 C559 1.371 . S
C558 C560 1.365 . S
C559 C558 1.371 . S
C559 C569 1.386 . S
C559 H577 0.931 . S
C560 C558 1.365 . S
C560 C561 1.409 . S
C560 H578 0.929 . S
C561 C560 1.409 . S
C561 C562 1.380 . S
C561 H579 0.930 . S
C562 C561 1.380 . S
C562 C569 1.357 . S
C563 C554 1.511 . S
C563 C564 1.341 . S
C563 C565 1.371 . S
C564 C563 1.341 . S
C564 C568 1.394 . S
C564 H580 0.930 . S
C565 C563 1.371 . S
C565 C566 1.392 . S
C565 H581 0.931 . S
C566 C565 1.392 . S
C566 C567 1.331 . S
C566 H584 0.932 . S
C567 C566 1.331 . S
C567 C568 1.336 . S
C568 C564 1.394 . S
C568 C567 1.336 . S
C568 H583 0.929 . S
C569 C559 1.386 . S
C569 C562 1.357 . S
C569 H582 0.928 . S
H570 C546 0.931 . S
H571 C548 0.930 . S
H572 C550 0.929 . S
H573 C551 0.931 . S
H574 C553 0.930 . S
H575 C557 0.931 . S
H576 C555 0.931 . S
H577 C559 0.931 . S
H578 C560 0.929 . S
H579 C561 0.930 . S
H580 C564 0.930 . S
H581 C565 0.931 . S
H582 C569 0.928 . S
H583 C568 0.929 . S
H584 C566 0.932 . S
C585 C586 1.386 . S
C585 C587 1.397 1_554 S
C585 H609 0.937 . S
C586 C585 1.386 . S
C586 C590 1.397 . S
C587 C585 1.397 1_556 S
C587 C588 1.380 1_556 S
C587 H610 0.930 . S
C588 C587 1.380 1_554 S
C588 C589 1.389 . S
C588 C591 1.473 1_554 S
C589 C588 1.389 . S
C589 C590 1.389 . S
C589 H611 0.929 . S
C590 C586 1.397 . S
C590 C589 1.389 . S
C590 H612 0.931 . S
C591 C588 1.473 1_556 S
C591 C592 1.387 . S
C591 C596 1.390 . S
C592 C591 1.387 . S
C592 C593 1.401 . S
C592 H613 0.930 . S
C593 C592 1.401 . S
C593 C594 1.376 . S
C593 C602 1.511 . S
C594 C593 1.376 . S
C594 C595 1.392 . S
C594 H615 0.931 . S
C595 C594 1.392 . S
C595 C596 1.361 . S
C595 C597 1.500 . S
C596 C591 1.390 . S
C596 C595 1.361 . S
C596 H614 0.905 1_556 S
C597 C595 1.500 . S
C597 C598 1.371 1_545 S
C597 C599 1.365 1_556 S
C598 C597 1.371 1_565 S
C598 C608 1.386 . S
C598 H616 0.931 . S
C599 C597 1.365 1_554 S
C599 C600 1.409 1_545 S
C599 H617 0.929 . S
C600 C599 1.409 1_565 S
C600 C601 1.380 1_554 S
C600 H618 0.930 . S
C601 C600 1.380 1_556 S
C601 C608 1.357 . S
C602 C593 1.511 . S
C602 C603 1.341 . S
C602 C604 1.371 . S
C603 C602 1.341 . S
C603 C607 1.394 . S
C603 H619 0.930 . S
C604 C602 1.371 . S
C604 C605 1.392 . S
C604 H620 0.931 1_545 S
C605 C604 1.392 . S
C605 C606 1.331 . S
C605 H623 0.932 1_545 S
C606 C605 1.331 . S
C606 C607 1.336 . S
C607 C603 1.394 . S
C607 C606 1.336 . S
C607 H622 0.929 . S
C608 C598 1.386 . S
C608 C601 1.357 . S
C608 H621 0.928 . S
H609 C585 0.937 . S
H610 C587 0.930 . S
H611 C589 0.929 . S
H612 C590 0.931 . S
H613 C592 0.930 . S
H614 C596 0.905 1_554 S
H615 C594 0.931 . S
H616 C598 0.931 . S
H617 C599 0.929 . S
H618 C600 0.930 . S
H619 C603 0.930 . S
H620 C604 0.931 1_565 S
H621 C608 0.928 . S
H622 C607 0.929 . S
H623 C605 0.932 1_565 S
C624 O625 1.160 1_554 S
C624 O631 1.185 . S
O625 C624 1.160 1_556 S
O626 Zn627 1.899 1_556 S
O626 C634 1.284 . S
Zn627 O626 1.899 1_554 S
Zn627 O628 2.032 . S
Zn627 O631 2.086 . S
Zn627 O636 1.977 . S
O628 Zn627 2.032 . S
O628 C632 1.278 . S
C629 O630 1.203 . S
C629 O636 1.267 . S
O630 C629 1.203 . S
O631 C624 1.185 . S
O631 Zn627 2.086 . S
C632 O628 1.278 . S
C632 O633 1.211 . S
O633 C632 1.211 . S
C634 O626 1.284 . S
C634 O635 1.273 . S
O635 C634 1.273 . S
O636 Zn627 1.977 . S
O636 C629 1.267 . S
C637 O638 1.160 . S
C637 O644 1.185 . S
O638 C637 1.160 . S
O639 Zn640 1.899 . S
O639 C647 1.284 . S
Zn640 O639 1.899 . S
Zn640 O641 2.032 . S
Zn640 O644 2.086 . S
Zn640 O649 1.977 . S
O641 Zn640 2.032 . S
O641 C645 1.278 . S
C642 O643 1.203 . S
C642 O649 1.267 . S
O643 C642 1.203 . S
O644 C637 1.185 . S
O644 Zn640 2.086 . S
C645 O641 1.278 . S
C645 O646 1.211 . S
O646 C645 1.211 . S
C647 O639 1.284 . S
C647 O648 1.273 . S
O648 C647 1.273 . S
O649 Zn640 1.977 . S
O649 C642 1.267 . S
C650 O651 1.160 1_554 S
C650 O657 1.185 . S
O651 C650 1.160 1_556 S
O652 Zn653 1.899 1_556 S
O652 C660 1.284 . S
Zn653 O652 1.899 1_554 S
Zn653 O654 2.032 1_554 S
Zn653 O657 2.086 . S
Zn653 O662 1.977 . S
O654 Zn653 2.032 1_556 S
O654 C658 1.278 . S
C655 O656 1.203 . S
C655 O662 1.267 . S
O656 C655 1.203 . S
O657 C650 1.185 . S
O657 Zn653 2.086 . S
C658 O654 1.278 . S
C658 O659 1.211 1_556 S
O659 C658 1.211 1_554 S
C660 O652 1.284 . S
C660 O661 1.273 . S
O661 C660 1.273 . S
O662 Zn653 1.977 . S
O662 C655 1.267 . S
C663 O664 1.160 . S
C663 O670 1.185 . S
O664 C663 1.160 . S
O665 Zn666 1.899 . S
O665 C673 1.284 . S
Zn666 O665 1.899 . S
Zn666 O667 2.032 1_545 S
Zn666 O670 2.086 . S
Zn666 O675 1.977 . S
O667 Zn666 2.032 1_565 S
O667 C671 1.278 . S
C668 O669 1.203 . S
C668 O675 1.267 . S
O669 C668 1.203 . S
O670 C663 1.185 . S
O670 Zn666 2.086 . S
C671 O667 1.278 . S
C671 O672 1.211 . S
O672 C671 1.211 . S
C673 O665 1.284 . S
C673 O674 1.273 1_545 S
O674 C673 1.273 1_565 S
O675 Zn666 1.977 . S
O675 C668 1.267 . S
C676 O677 1.160 . S
C676 O683 1.185 . S
O677 C676 1.160 . S
O678 Zn679 1.899 . S
O678 C686 1.284 . S
Zn679 O678 1.899 . S
Zn679 O680 2.032 . S
Zn679 O683 2.086 . S
Zn679 O688 1.977 . S
O680 Zn679 2.032 . S
O680 C684 1.278 . S
C681 O682 1.203 . S
C681 O688 1.267 . S
O682 C681 1.203 . S
O683 C676 1.185 . S
O683 Zn679 2.086 . S
C684 O680 1.278 . S
C684 O685 1.211 . S
O685 C684 1.211 . S
C686 O678 1.284 . S
C686 O687 1.273 . S
O687 C686 1.273 . S
O688 Zn679 1.977 . S
O688 C681 1.267 . S
C689 O690 1.160 . S
C689 O696 1.185 . S
O690 C689 1.160 . S
O691 Zn692 1.899 . S
O691 C699 1.284 . S
Zn692 O691 1.899 . S
Zn692 O693 2.032 . S
Zn692 O696 2.086 . S
Zn692 O701 1.977 . S
O693 Zn692 2.032 . S
O693 C697 1.278 . S
C694 O695 1.203 . S
C694 O701 1.267 . S
O695 C694 1.203 . S
O696 C689 1.185 . S
O696 Zn692 2.086 . S
C697 O693 1.278 . S
C697 O698 1.211 . S
O698 C697 1.211 . S
C699 O691 1.284 . S
C699 O700 1.273 . S
O700 C699 1.273 . S
O701 Zn692 1.977 . S
O701 C694 1.267 . S
C702 O703 1.160 . S
C702 O709 1.185 . S
O703 C702 1.160 . S
O704 Zn705 1.899 . S
O704 C712 1.284 . S
Zn705 O704 1.899 . S
Zn705 O706 2.032 . S
Zn705 O709 2.086 . S
Zn705 O714 1.977 . S
O706 Zn705 2.032 . S
O706 C710 1.278 . S
C707 O708 1.203 . S
C707 O714 1.267 . S
O708 C707 1.203 . S
O709 C702 1.185 . S
O709 Zn705 2.086 . S
C710 O706 1.278 . S
C710 O711 1.211 . S
O711 C710 1.211 . S
C712 O704 1.284 . S
C712 O713 1.273 . S
O713 C712 1.273 . S
O714 Zn705 1.977 . S
O714 C707 1.267 . S
C715 O716 1.160 . S
C715 O722 1.185 . S
O716 C715 1.160 . S
O717 Zn718 1.899 . S
O717 C725 1.284 1_565 S
Zn718 O717 1.899 . S
Zn718 O719 2.032 1_565 S
Zn718 O722 2.086 . S
Zn718 O727 1.977 . S
O719 Zn718 2.032 1_545 S
O719 C723 1.278 . S
C720 O721 1.203 1_565 S
C720 O727 1.267 . S
O721 C720 1.203 1_545 S
O722 C715 1.185 . S
O722 Zn718 2.086 . S
C723 O719 1.278 . S
C723 O724 1.211 . S
O724 C723 1.211 . S
C725 O717 1.284 1_545 S
C725 O726 1.273 . S
O726 C725 1.273 . S
O727 Zn718 1.977 . S
O727 C720 1.267 . S
C728 O729 1.160 1_455 S
C728 O735 1.185 . S
O729 C728 1.160 1_655 S
O730 Zn731 1.899 1_655 S
O730 C738 1.284 . S
Zn731 O730 1.899 1_455 S
Zn731 O732 2.032 1_455 S
Zn731 O735 2.086 . S
Zn731 O740 1.977 . S
O732 Zn731 2.032 1_655 S
O732 C736 1.277 1_655 S
C733 O734 1.203 . S
C733 O740 1.267 . S
O734 C733 1.203 . S
O735 C728 1.185 . S
O735 Zn731 2.086 . S
C736 O732 1.277 1_455 S
C736 O737 1.217 . S
O737 C736 1.217 . S
C738 O730 1.284 . S
C738 O739 1.273 . S
O739 C738 1.273 . S
O740 Zn731 1.977 . S
O740 C733 1.267 . S
C741 O742 1.160 . S
C741 O748 1.185 . S
O742 C741 1.160 . S
O743 Zn744 1.899 . S
O743 C751 1.284 . S
Zn744 O743 1.899 . S
Zn744 O745 2.032 . S
Zn744 O748 2.086 . S
Zn744 O753 1.977 . S
O745 Zn744 2.032 . S
O745 C749 1.278 . S
C746 O747 1.203 . S
C746 O753 1.267 . S
O747 C746 1.203 . S
O748 C741 1.185 . S
O748 Zn744 2.086 . S
C749 O745 1.278 . S
C749 O750 1.211 . S
O750 C749 1.211 . S
C751 O743 1.284 . S
C751 O752 1.273 . S
O752 C751 1.273 . S
O753 Zn744 1.977 . S
O753 C746 1.267 . S
C754 O755 1.160 1_455 S
C754 O761 1.185 . S
O755 C754 1.160 1_655 S
O756 Zn757 1.899 1_655 S
O756 C764 1.284 . S
Zn757 O756 1.899 1_455 S
Zn757 O758 2.032 1_455 S
Zn757 O761 2.086 . S
Zn757 O766 1.977 . S
O758 Zn757 2.032 1_655 S
O758 C762 1.278 . S
C759 O760 1.203 . S
C759 O766 1.267 . S
O760 C759 1.203 . S
O761 C754 1.185 . S
O761 Zn757 2.086 . S
C762 O758 1.278 . S
C762 O763 1.211 1_655 S
O763 C762 1.211 1_455 S
C764 O756 1.284 . S
C764 O765 1.273 . S
O765 C764 1.273 . S
O766 Zn757 1.977 . S
O766 C759 1.267 . S
C767 O768 1.160 . S
C767 O774 1.185 . S
O768 C767 1.160 . S
O769 Zn770 1.899 . S
O769 C777 1.284 . S
Zn770 O769 1.899 . S
Zn770 O771 2.032 . S
Zn770 O774 2.086 . S
Zn770 O779 1.977 . S
O771 Zn770 2.032 . S
O771 C775 1.278 . S
C772 O773 1.203 . S
C772 O779 1.267 . S
O773 C772 1.203 . S
O774 C767 1.185 . S
O774 Zn770 2.086 . S
C775 O771 1.278 . S
C775 O776 1.211 . S
O776 C775 1.211 . S
C777 O769 1.284 . S
C777 O778 1.273 . S
O778 C777 1.273 . S
O779 Zn770 1.977 . S
O779 C772 1.267 . S
C780 C781 1.387 . S
C780 H784 0.950 . S
C780 C789 1.390 . S
C781 C780 1.387 . S
C781 C783 1.387 . S
H782 C789 0.950 . S
C783 C781 1.387 . S
C783 C785 1.390 . S
C783 H787 0.950 . S
H784 C780 0.950 . S
C785 C783 1.390 . S
C785 C786 1.387 . S
C785 H788 0.950 . S
C786 C785 1.387 . S
C786 C789 1.387 . S
H787 C783 0.950 . S
H788 C785 0.950 . S
C789 C780 1.390 . S
C789 H782 0.950 . S
C789 C786 1.387 . S
C790 C791 1.387 . S
C790 H794 0.950 . S
C790 C799 1.390 . S
C791 C790 1.387 . S
C791 C793 1.387 . S
H792 C799 0.950 . S
C793 C791 1.387 . S
C793 C795 1.390 . S
C793 H797 0.950 . S
H794 C790 0.950 . S
C795 C793 1.390 . S
C795 C796 1.387 . S
C795 H798 0.950 . S
C796 C795 1.387 . S
C796 C799 1.387 . S
H797 C793 0.950 . S
H798 C795 0.950 . S
C799 C790 1.390 . S
C799 H792 0.950 . S
C799 C796 1.387 . S
C800 C801 1.387 . S
C800 H804 0.950 . S
C800 C809 1.390 . S
C801 C800 1.387 . S
C801 C803 1.387 . S
H802 C809 0.950 . S
C803 C801 1.387 . S
C803 C805 1.390 . S
C803 H807 0.950 . S
H804 C800 0.950 . S
C805 C803 1.390 . S
C805 C806 1.387 . S
C805 H808 0.950 . S
C806 C805 1.387 . S
C806 C809 1.387 . S
H807 C803 0.950 . S
H808 C805 0.950 . S
C809 C800 1.390 . S
C809 H802 0.950 . S
C809 C806 1.387 . S
C810 C811 1.387 . S
C810 H814 0.950 . S
C810 C819 1.390 . S
C811 C810 1.387 . S
C811 C813 1.387 1_565 S
H812 C819 0.950 . S
C813 C811 1.387 1_545 S
C813 C815 1.390 . S
C813 H817 0.950 . S
H814 C810 0.950 . S
C815 C813 1.390 . S
C815 C816 1.387 . S
C815 H818 0.950 . S
C816 C815 1.387 . S
C816 C819 1.387 1_545 S
H817 C813 0.950 . S
H818 C815 0.950 . S
C819 C810 1.390 . S
C819 H812 0.950 . S
C819 C816 1.387 1_565 S
C820 C821 1.387 . S
C820 H824 0.950 . S
C820 C829 1.390 . S
C821 C820 1.387 . S
C821 C823 1.387 . S
H822 C829 0.950 . S
C823 C821 1.387 . S
C823 C825 1.390 . S
C823 H827 0.950 . S
H824 C820 0.950 . S
C825 C823 1.390 . S
C825 C826 1.387 . S
C825 H828 0.950 . S
C826 C825 1.387 . S
C826 C829 1.387 . S
H827 C823 0.950 . S
H828 C825 0.950 . S
C829 C820 1.390 . S
C829 H822 0.950 . S
C829 C826 1.387 . S
C830 C831 1.387 . S
C830 H834 0.950 . S
C830 C839 1.390 . S
C831 C830 1.387 . S
C831 C833 1.387 . S
H832 C839 0.950 . S
C833 C831 1.387 . S
C833 C835 1.390 . S
C833 H837 0.950 . S
H834 C830 0.950 . S
C835 C833 1.390 . S
C835 C836 1.387 . S
C835 H838 0.950 . S
C836 C835 1.387 . S
C836 C839 1.387 . S
H837 C833 0.950 . S
H838 C835 0.950 . S
C839 C830 1.390 . S
C839 H832 0.950 . S
C839 C836 1.387 . S
C840 C841 1.387 . S
C840 H844 0.950 . S
C840 C849 1.390 . S
C841 C840 1.387 . S
C841 C843 1.387 . S
H842 C849 0.950 . S
C843 C841 1.387 . S
C843 C845 1.390 . S
C843 H847 0.950 . S
H844 C840 0.950 . S
C845 C843 1.390 . S
C845 C846 1.387 . S
C845 H848 0.950 . S
C846 C845 1.387 . S
C846 C849 1.387 . S
H847 C843 0.950 . S
H848 C845 0.950 . S
C849 C840 1.390 . S
C849 H842 0.950 . S
C849 C846 1.387 . S
C850 C851 1.387 1_545 S
C850 H854 0.950 . S
C850 C859 1.390 . S
C851 C850 1.387 1_565 S
C851 C853 1.387 . S
H852 C859 0.950 . S
C853 C851 1.387 . S
C853 C855 1.390 . S
C853 H857 0.950 . S
H854 C850 0.950 . S
C855 C853 1.390 . S
C855 C856 1.387 . S
C855 H858 0.950 . S
C856 C855 1.387 . S
C856 C859 1.387 1_565 S
H857 C853 0.950 . S
H858 C855 0.950 . S
C859 C850 1.390 . S
C859 H852 0.950 . S
C859 C856 1.387 1_545 S
C860 C861 1.387 . S
C860 H864 0.950 . S
C860 C869 1.390 . S
C861 C860 1.387 . S
C861 C863 1.387 . S
H862 C869 0.950 . S
C863 C861 1.387 . S
C863 C865 1.390 . S
C863 H867 0.950 . S
H864 C860 0.950 . S
C865 C863 1.390 . S
C865 C866 1.387 . S
C865 H868 0.950 . S
C866 C865 1.387 . S
C866 C869 1.387 . S
H867 C863 0.950 . S
H868 C865 0.950 . S
C869 C860 1.390 . S
C869 H862 0.950 . S
C869 C866 1.387 . S
C870 C871 1.387 . S
C870 H874 0.950 . S
C870 C879 1.390 . S
C871 C870 1.387 . S
C871 C873 1.387 . S
H872 C879 0.950 . S
C873 C871 1.387 . S
C873 C875 1.390 . S
C873 H877 0.950 . S
H874 C870 0.950 . S
C875 C873 1.390 . S
C875 C876 1.387 . S
C875 H878 0.950 . S
C876 C875 1.387 . S
C876 C879 1.387 . S
H877 C873 0.950 . S
H878 C875 0.950 . S
C879 C870 1.390 . S
C879 H872 0.950 . S
C879 C876 1.387 . S
C880 C881 1.387 . S
C880 H884 0.950 . S
C880 C889 1.390 . S
C881 C880 1.387 . S
C881 C883 1.387 . S
H882 C889 0.950 . S
C883 C881 1.387 . S
C883 C885 1.390 . S
C883 H887 0.950 . S
H884 C880 0.950 . S
C885 C883 1.390 . S
C885 C886 1.387 . S
C885 H888 0.950 . S
C886 C885 1.387 . S
C886 C889 1.387 . S
H887 C883 0.950 . S
H888 C885 0.950 . S
C889 C880 1.390 . S
C889 H882 0.950 . S
C889 C886 1.387 . S
C890 C891 1.387 . S
C890 H894 0.950 . S
C890 C899 1.390 . S
C891 C890 1.387 . S
C891 C893 1.387 . S
H892 C899 0.950 . S
C893 C891 1.387 . S
C893 C895 1.390 . S
C893 H897 0.950 . S
H894 C890 0.950 . S
C895 C893 1.390 . S
C895 C896 1.387 . S
C895 H898 0.950 . S
C896 C895 1.387 . S
C896 C899 1.387 . S
H897 C893 0.950 . S
H898 C895 0.950 . S
C899 C890 1.390 . S
C899 H892 0.950 . S
C899 C896 1.387 . S
C900 C901 1.387 . S
C900 H904 0.950 . S
C900 C909 1.390 . S
C901 C900 1.387 . S
C901 C903 1.387 . S
H902 C909 0.950 . S
C903 C901 1.387 . S
C903 C905 1.390 . S
C903 H907 0.950 . S
H904 C900 0.950 . S
C905 C903 1.390 . S
C905 C906 1.387 . S
C905 H908 0.950 . S
C906 C905 1.387 . S
C906 C909 1.387 . S
H907 C903 0.950 . S
H908 C905 0.950 . S
C909 C900 1.390 . S
C909 H902 0.950 . S
C909 C906 1.387 . S
C910 C911 1.387 . S
C910 H914 0.950 . S
C910 C919 1.390 . S
C911 C910 1.387 . S
C911 C913 1.387 . S
H912 C919 0.950 . S
C913 C911 1.387 . S
C913 C915 1.390 . S
C913 H917 0.950 1_455 S
H914 C910 0.950 . S
C915 C913 1.390 . S
C915 C916 1.387 . S
C915 H918 0.950 1_455 S
C916 C915 1.387 . S
C916 C919 1.387 . S
H917 C913 0.950 1_655 S
H918 C915 0.950 1_655 S
C919 C910 1.390 . S
C919 H912 0.950 . S
C919 C916 1.387 . S
C920 C921 1.387 . S
C920 H924 0.950 . S
C920 C929 1.390 . S
C921 C920 1.387 . S
C921 C923 1.387 . S
H922 C929 0.950 . S
C923 C921 1.387 . S
C923 C925 1.390 . S
C923 H927 0.950 . S
H924 C920 0.950 . S
C925 C923 1.390 . S
C925 C926 1.387 . S
C925 H928 0.950 . S
C926 C925 1.387 . S
C926 C929 1.387 . S
H927 C923 0.950 . S
H928 C925 0.950 . S
C929 C920 1.390 . S
C929 H922 0.950 . S
C929 C926 1.387 . S
C930 C931 1.387 1_455 S
C930 H934 0.950 . S
C930 C939 1.390 . S
C931 C930 1.387 1_655 S
C931 C933 1.387 . S
H932 C939 0.950 . S
C933 C931 1.387 . S
C933 C935 1.390 . S
C933 H937 0.950 . S
H934 C930 0.950 . S
C935 C933 1.390 . S
C935 C936 1.387 . S
C935 H938 0.950 . S
C936 C935 1.387 . S
C936 C939 1.387 1_655 S
H937 C933 0.950 . S
H938 C935 0.950 . S
C939 C930 1.390 . S
C939 H932 0.950 . S
C939 C936 1.387 1_455 S
C940 C941 1.387 . S
C940 H944 0.950 . S
C940 C949 1.390 . S
C941 C940 1.387 . S
C941 C943 1.387 . S
H942 C949 0.950 . S
C943 C941 1.387 . S
C943 C945 1.390 . S
C943 H947 0.950 . S
H944 C940 0.950 . S
C945 C943 1.390 . S
C945 C946 1.387 . S
C945 H948 0.950 . S
C946 C945 1.387 . S
C946 C949 1.387 . S
H947 C943 0.950 . S
H948 C945 0.950 . S
C949 C940 1.390 . S
C949 H942 0.950 . S
C949 C946 1.387 . S
C950 C951 1.387 . S
C950 H954 0.950 . S
C950 C959 1.390 . S
C951 C950 1.387 . S
C951 C953 1.387 . S
H952 C959 0.950 . S
C953 C951 1.387 . S
C953 C955 1.390 . S
C953 H957 0.950 . S
H954 C950 0.950 . S
C955 C953 1.390 . S
C955 C956 1.387 . S
C955 H958 0.950 . S
C956 C955 1.387 . S
C956 C959 1.387 . S
H957 C953 0.950 . S
H958 C955 0.950 . S
C959 C950 1.390 . S
C959 H952 0.950 . S
C959 C956 1.387 . S
C960 C961 1.387 . S
C960 H964 0.950 . S
C960 C969 1.390 . S
C961 C960 1.387 . S
C961 C963 1.387 1_556 S
H962 C969 0.950 . S
C963 C961 1.387 1_554 S
C963 C965 1.390 . S
C963 H967 0.950 . S
H964 C960 0.950 . S
C965 C963 1.390 . S
C965 C966 1.364 1_554 S
C965 H968 0.950 . S
C966 C965 1.364 1_556 S
C966 C969 1.417 . S
H967 C963 0.950 . S
H968 C965 0.950 . S
C969 C960 1.390 . S
C969 H962 0.950 . S
C969 C966 1.417 . S
C970 C971 1.387 . S
C970 H974 0.950 . S
C970 C979 1.390 . S
C971 C970 1.387 . S
C971 C973 1.387 . S
H972 C979 0.950 . S
C973 C971 1.387 . S
C973 C975 1.390 . S
C973 H977 0.950 . S
H974 C970 0.950 . S
C975 C973 1.390 . S
C975 C976 1.387 . S
C975 H978 0.950 . S
C976 C975 1.387 . S
C976 C979 1.387 . S
H977 C973 0.950 . S
H978 C975 0.950 . S
C979 C970 1.390 . S
C979 H972 0.950 . S
C979 C976 1.387 . S
C980 C981 1.387 . S
C980 H984 0.950 . S
C980 C989 1.390 . S
C981 C980 1.387 . S
C981 C983 1.387 . S
H982 C989 0.950 . S
C983 C981 1.387 . S
C983 C985 1.390 . S
C983 H987 0.950 . S
H984 C980 0.950 . S
C985 C983 1.390 . S
C985 C986 1.387 . S
C985 H988 0.950 . S
C986 C985 1.387 . S
C986 C989 1.387 . S
H987 C983 0.950 . S
H988 C985 0.950 . S
C989 C980 1.390 . S
C989 H982 0.950 . S
C989 C986 1.387 . S
C990 C991 1.387 . S
C990 H994 0.950 . S
C990 C999 1.390 . S
C991 C990 1.387 . S
C991 C993 1.387 . S
H992 C999 0.950 . S
C993 C991 1.387 . S
C993 C995 1.390 . S
C993 H997 0.950 . S
H994 C990 0.950 . S
C995 C993 1.390 . S
C995 C996 1.387 . S
C995 H998 0.950 . S
C996 C995 1.387 . S
C996 C999 1.387 . S
H997 C993 0.950 . S
H998 C995 0.950 . S
C999 C990 1.390 . S
C999 H992 0.950 . S
C999 C996 1.387 . S
C1000 C1001 1.387 . S
C1000 H1004 0.950 . S
C1000 C1009 1.390 . S
C1001 C1000 1.387 . S
C1001 C1003 1.387 . S
H1002 C1009 0.950 . S
C1003 C1001 1.387 . S
C1003 C1005 1.390 . S
C1003 H1007 0.950 . S
H1004 C1000 0.950 . S
C1005 C1003 1.390 . S
C1005 C1006 1.387 . S
C1005 H1008 0.950 . S
C1006 C1005 1.387 . S
C1006 C1009 1.387 . S
H1007 C1003 0.950 . S
H1008 C1005 0.950 . S
C1009 C1000 1.390 . S
C1009 H1002 0.950 . S
C1009 C1006 1.387 . S
C1010 C1011 1.387 . S
C1010 H1014 0.950 . S
C1010 C1019 1.390 . S
C1011 C1010 1.387 . S
C1011 C1013 1.387 . S
H1012 C1019 0.950 . S
C1013 C1011 1.387 . S
C1013 C1015 1.390 . S
C1013 H1017 0.950 . S
H1014 C1010 0.950 . S
C1015 C1013 1.390 . S
C1015 C1016 1.387 . S
C1015 H1018 0.950 . S
C1016 C1015 1.387 . S
C1016 C1019 1.387 . S
H1017 C1013 0.950 . S
H1018 C1015 0.950 . S
C1019 C1010 1.390 . S
C1019 H1012 0.950 . S
C1019 C1016 1.387 . S
C1020 C1021 1.387 . S
C1020 H1024 0.950 . S
C1020 C1029 1.390 . S
C1021 C1020 1.387 . S
C1021 C1023 1.387 . S
H1022 C1029 0.950 . S
C1023 C1021 1.387 . S
C1023 C1025 1.390 . S
C1023 H1027 0.950 . S
H1024 C1020 0.950 . S
C1025 C1023 1.390 . S
C1025 C1026 1.387 . S
C1025 H1028 0.950 . S
C1026 C1025 1.387 . S
C1026 C1029 1.387 . S
H1027 C1023 0.950 . S
H1028 C1025 0.950 . S
C1029 C1020 1.390 . S
C1029 H1022 0.950 . S
C1029 C1026 1.387 . S
C1030 C1031 1.387 1_565 S
C1030 H1034 0.950 . S
C1030 C1039 1.390 . S
C1031 C1030 1.387 1_545 S
C1031 C1033 1.387 . S
H1032 C1039 0.950 . S
C1033 C1031 1.387 . S
C1033 C1035 1.390 . S
C1033 H1037 0.950 . S
H1034 C1030 0.950 . S
C1035 C1033 1.390 . S
C1035 C1036 1.387 . S
C1035 H1038 0.950 . S
C1036 C1035 1.387 . S
C1036 C1039 1.387 1_545 S
H1037 C1033 0.950 . S
H1038 C1035 0.950 . S
C1039 C1030 1.390 . S
C1039 H1032 0.950 . S
C1039 C1036 1.387 1_565 S
C1040 C1041 1.387 . S
C1040 H1044 0.950 . S
C1040 C1049 1.390 . S
C1041 C1040 1.387 . S
C1041 C1043 1.387 . S
H1042 C1049 0.950 . S
C1043 C1041 1.387 . S
C1043 C1045 1.390 . S
C1043 H1047 0.950 . S
H1044 C1040 0.950 . S
C1045 C1043 1.390 . S
C1045 C1046 1.387 . S
C1045 H1048 0.950 . S
C1046 C1045 1.387 . S
C1046 C1049 1.387 . S
H1047 C1043 0.950 . S
H1048 C1045 0.950 . S
C1049 C1040 1.390 . S
C1049 H1042 0.950 . S
C1049 C1046 1.387 . S
C1050 C1051 1.387 . S
C1050 H1054 0.950 . S
C1050 C1059 1.390 . S
C1051 C1050 1.387 . S
C1051 C1053 1.387 . S
H1052 C1059 0.950 . S
C1053 C1051 1.387 . S
C1053 C1055 1.390 . S
C1053 H1057 0.950 . S
H1054 C1050 0.950 . S
C1055 C1053 1.390 . S
C1055 C1056 1.387 . S
C1055 H1058 0.950 . S
C1056 C1055 1.387 . S
C1056 C1059 1.387 . S
H1057 C1053 0.950 . S
H1058 C1055 0.950 . S
C1059 C1050 1.390 . S
C1059 H1052 0.950 . S
C1059 C1056 1.387 . S
C1060 C1061 1.387 . S
C1060 H1064 0.950 . S
C1060 C1069 1.390 . S
C1061 C1060 1.387 . S
C1061 C1063 1.387 . S
H1062 C1069 0.950 . S
C1063 C1061 1.387 . S
C1063 C1065 1.390 . S
C1063 H1067 0.950 . S
H1064 C1060 0.950 . S
C1065 C1063 1.390 . S
C1065 C1066 1.387 . S
C1065 H1068 0.950 . S
C1066 C1065 1.387 . S
C1066 C1069 1.387 . S
H1067 C1063 0.950 . S
H1068 C1065 0.950 . S
C1069 C1060 1.390 . S
C1069 H1062 0.950 . S
C1069 C1066 1.387 . S
C1070 C1071 1.387 . S
C1070 H1074 0.950 . S
C1070 C1079 1.390 . S
C1071 C1070 1.387 . S
C1071 C1073 1.387 . S
H1072 C1079 0.950 . S
C1073 C1071 1.387 . S
C1073 C1075 1.390 . S
C1073 H1077 0.950 . S
H1074 C1070 0.950 . S
C1075 C1073 1.390 . S
C1075 C1076 1.387 . S
C1075 H1078 0.950 . S
C1076 C1075 1.387 . S
C1076 C1079 1.387 . S
H1077 C1073 0.950 . S
H1078 C1075 0.950 . S
C1079 C1070 1.390 . S
C1079 H1072 0.950 . S
C1079 C1076 1.387 . S
C1080 C1081 1.387 . S
C1080 H1084 0.950 . S
C1080 C1089 1.390 . S
C1081 C1080 1.387 . S
C1081 C1083 1.387 . S
H1082 C1089 0.950 . S
C1083 C1081 1.387 . S
C1083 C1085 1.390 . S
C1083 H1087 0.950 . S
H1084 C1080 0.950 . S
C1085 C1083 1.390 . S
C1085 C1086 1.387 . S
C1085 H1088 0.950 . S
C1086 C1085 1.387 . S
C1086 C1089 1.387 . S
H1087 C1083 0.950 . S
H1088 C1085 0.950 . S
C1089 C1080 1.390 . S
C1089 H1082 0.950 . S
C1089 C1086 1.387 . S
C1090 C1091 1.387 . S
C1090 H1094 0.950 . S
C1090 C1099 1.390 . S
C1091 C1090 1.387 . S
C1091 C1093 1.387 . S
H1092 C1099 0.950 . S
C1093 C1091 1.387 . S
C1093 C1095 1.390 . S
C1093 H1097 0.950 . S
H1094 C1090 0.950 . S
C1095 C1093 1.390 . S
C1095 C1096 1.387 . S
C1095 H1098 0.950 . S
C1096 C1095 1.387 . S
C1096 C1099 1.387 . S
H1097 C1093 0.950 . S
H1098 C1095 0.950 . S
C1099 C1090 1.390 . S
C1099 H1092 0.950 . S
C1099 C1096 1.387 . S
C1100 C1101 1.387 . S
C1100 H1104 0.950 . S
C1100 C1109 1.390 . S
C1101 C1100 1.387 . S
C1101 C1103 1.387 . S
H1102 C1109 0.950 . S
C1103 C1101 1.387 . S
C1103 C1105 1.390 . S
C1103 H1107 0.950 . S
H1104 C1100 0.950 . S
C1105 C1103 1.390 . S
C1105 C1106 1.387 . S
C1105 H1108 0.950 . S
C1106 C1105 1.387 . S
C1106 C1109 1.387 . S
H1107 C1103 0.950 . S
H1108 C1105 0.950 . S
C1109 C1100 1.390 . S
C1109 H1102 0.950 . S
C1109 C1106 1.387 . S
C1110 C1111 1.387 . S
C1110 H1114 0.950 . S
C1110 C1119 1.390 . S
C1111 C1110 1.387 . S
C1111 C1113 1.387 1_655 S
H1112 C1119 0.950 . S
C1113 C1111 1.387 1_455 S
C1113 C1115 1.390 . S
C1113 H1117 0.950 . S
H1114 C1110 0.950 . S
C1115 C1113 1.390 . S
C1115 C1116 1.387 1_455 S
C1115 H1118 0.950 . S
C1116 C1115 1.387 1_655 S
C1116 C1119 1.387 . S
H1117 C1113 0.950 . S
H1118 C1115 0.950 . S
C1119 C1110 1.390 . S
C1119 H1112 0.950 . S
C1119 C1116 1.387 . S
C1120 C1121 1.387 . S
C1120 H1124 0.950 . S
C1120 C1129 1.390 . S
C1121 C1120 1.387 . S
C1121 C1123 1.387 . S
H1122 C1129 0.950 . S
C1123 C1121 1.387 . S
C1123 C1125 1.390 . S
C1123 H1127 0.950 . S
H1124 C1120 0.950 . S
C1125 C1123 1.390 . S
C1125 C1126 1.387 . S
C1125 H1128 0.950 . S
C1126 C1125 1.387 . S
C1126 C1129 1.387 . S
H1127 C1123 0.950 . S
H1128 C1125 0.950 . S
C1129 C1120 1.390 . S
C1129 H1122 0.950 . S
C1129 C1126 1.387 . S
C1130 C1131 1.387 . S
C1130 H1134 0.950 . S
C1130 C1139 1.390 . S
C1131 C1130 1.387 . S
C1131 C1133 1.387 1_455 S
H1132 C1139 0.950 . S
C1133 C1131 1.387 1_655 S
C1133 C1135 1.390 . S
C1133 H1137 0.950 . S
H1134 C1130 0.950 . S
C1135 C1133 1.390 . S
C1135 C1136 1.387 1_655 S
C1135 H1138 0.950 . S
C1136 C1135 1.387 1_455 S
C1136 C1139 1.387 . S
H1137 C1133 0.950 . S
H1138 C1135 0.950 . S
C1139 C1130 1.390 . S
C1139 H1132 0.950 . S
C1139 C1136 1.387 . S
C1140 C1141 1.387 . S
C1140 H1144 0.950 . S
C1140 C1149 1.390 . S
C1141 C1140 1.387 . S
C1141 C1143 1.387 . S
H1142 C1149 0.950 . S
C1143 C1141 1.387 . S
C1143 C1145 1.390 . S
C1143 H1147 0.950 . S
H1144 C1140 0.950 . S
C1145 C1143 1.390 . S
C1145 C1146 1.387 . S
C1145 H1148 0.950 . S
C1146 C1145 1.387 . S
C1146 C1149 1.387 . S
H1147 C1143 0.950 . S
H1148 C1145 0.950 . S
C1149 C1140 1.390 . S
C1149 H1142 0.950 . S
C1149 C1146 1.387 . S
C1150 C1151 1.387 . S
C1150 H1154 0.950 . S
C1150 C1159 1.390 . S
C1151 C1150 1.387 . S
C1151 C1153 1.387 . S
H1152 C1159 0.950 . S
C1153 C1151 1.387 . S
C1153 C1155 1.390 . S
C1153 H1157 0.950 . S
H1154 C1150 0.950 . S
C1155 C1153 1.390 . S
C1155 C1156 1.387 . S
C1155 H1158 0.950 . S
C1156 C1155 1.387 . S
C1156 C1159 1.387 . S
H1157 C1153 0.950 . S
H1158 C1155 0.950 . S
C1159 C1150 1.390 . S
C1159 H1152 0.950 . S
C1159 C1156 1.387 . S
C1160 C1161 1.387 . S
C1160 H1164 0.950 . S
C1160 C1169 1.390 . S
C1161 C1160 1.387 . S
C1161 C1163 1.387 . S
H1162 C1169 0.950 . S
C1163 C1161 1.387 . S
C1163 C1165 1.390 . S
C1163 H1167 0.950 . S
H1164 C1160 0.950 . S
C1165 C1163 1.390 . S
C1165 C1166 1.387 . S
C1165 H1168 0.950 . S
C1166 C1165 1.387 . S
C1166 C1169 1.387 . S
H1167 C1163 0.950 . S
H1168 C1165 0.950 . S
C1169 C1160 1.390 . S
C1169 H1162 0.950 . S
C1169 C1166 1.387 . S
C1170 C1171 1.387 . S
C1170 H1174 0.950 . S
C1170 C1179 1.390 . S
C1171 C1170 1.387 . S
C1171 C1173 1.387 . S
H1172 C1179 0.950 . S
C1173 C1171 1.387 . S
C1173 C1175 1.390 . S
C1173 H1177 0.950 . S
H1174 C1170 0.950 . S
C1175 C1173 1.390 . S
C1175 C1176 1.387 . S
C1175 H1178 0.950 . S
C1176 C1175 1.387 . S
C1176 C1179 1.387 . S
H1177 C1173 0.950 . S
H1178 C1175 0.950 . S
C1179 C1170 1.390 . S
C1179 H1172 0.950 . S
C1179 C1176 1.387 . S
C1180 C1181 1.387 . S
C1180 H1184 0.950 . S
C1180 C1189 1.390 . S
C1181 C1180 1.387 . S
C1181 C1183 1.387 . S
H1182 C1189 0.950 . S
C1183 C1181 1.387 . S
C1183 C1185 1.390 . S
C1183 H1187 0.950 . S
H1184 C1180 0.950 . S
C1185 C1183 1.390 . S
C1185 C1186 1.387 . S
C1185 H1188 0.950 . S
C1186 C1185 1.387 . S
C1186 C1189 1.387 . S
H1187 C1183 0.950 . S
H1188 C1185 0.950 . S
C1189 C1180 1.390 . S
C1189 H1182 0.950 . S
C1189 C1186 1.387 . S
C1190 C1191 1.387 . S
C1190 H1194 0.950 . S
C1190 C1199 1.390 . S
C1191 C1190 1.387 . S
C1191 C1193 1.387 . S
H1192 C1199 0.950 . S
C1193 C1191 1.387 . S
C1193 C1195 1.390 . S
C1193 H1197 0.950 . S
H1194 C1190 0.950 . S
C1195 C1193 1.390 . S
C1195 C1196 1.387 . S
C1195 H1198 0.950 . S
C1196 C1195 1.387 . S
C1196 C1199 1.387 . S
H1197 C1193 0.950 . S
H1198 C1195 0.950 . S
C1199 C1190 1.390 . S
C1199 H1192 0.950 . S
C1199 C1196 1.387 . S
C1200 C1201 1.387 . S
C1200 H1204 0.950 . S
C1200 C1209 1.390 . S
C1201 C1200 1.387 . S
C1201 C1203 1.387 . S
H1202 C1209 0.950 . S
C1203 C1201 1.387 . S
C1203 C1205 1.390 . S
C1203 H1207 0.950 . S
H1204 C1200 0.950 . S
C1205 C1203 1.390 . S
C1205 C1206 1.387 . S
C1205 H1208 0.950 . S
C1206 C1205 1.387 . S
C1206 C1209 1.387 . S
H1207 C1203 0.950 . S
H1208 C1205 0.950 . S
C1209 C1200 1.390 . S
C1209 H1202 0.950 . S
C1209 C1206 1.387 . S
C1210 C1211 1.387 . S
C1210 H1214 0.950 . S
C1210 C1219 1.390 . S
C1211 C1210 1.387 . S
C1211 C1213 1.387 . S
H1212 C1219 0.950 . S
C1213 C1211 1.387 . S
C1213 C1215 1.390 . S
C1213 H1217 0.950 . S
H1214 C1210 0.950 . S
C1215 C1213 1.390 . S
C1215 C1216 1.387 . S
C1215 H1218 0.950 . S
C1216 C1215 1.387 . S
C1216 C1219 1.387 . S
H1217 C1213 0.950 . S
H1218 C1215 0.950 . S
C1219 C1210 1.390 . S
C1219 H1212 0.950 . S
C1219 C1216 1.387 . S
C1220 C1221 1.387 1_554 S
C1220 H1224 0.950 . S
C1220 C1229 1.390 . S
C1221 C1220 1.387 1_556 S
C1221 C1223 1.387 . S
H1222 C1229 0.950 . S
C1223 C1221 1.387 . S
C1223 C1225 1.390 . S
C1223 H1227 0.950 . S
H1224 C1220 0.950 . S
C1225 C1223 1.390 . S
C1225 C1226 1.387 . S
C1225 H1228 0.950 . S
C1226 C1225 1.387 . S
C1226 C1229 1.387 1_556 S
H1227 C1223 0.950 . S
H1228 C1225 0.950 . S
C1229 C1220 1.390 . S
C1229 H1222 0.950 . S
C1229 C1226 1.387 1_554 S
C1230 C1231 1.387 . S
C1230 H1234 0.950 . S
C1230 C1239 1.390 . S
C1231 C1230 1.387 . S
C1231 C1233 1.387 . S
H1232 C1239 0.950 . S
C1233 C1231 1.387 . S
C1233 C1235 1.390 . S
C1233 H1237 0.950 . S
H1234 C1230 0.950 . S
C1235 C1233 1.390 . S
C1235 C1236 1.387 . S
C1235 H1238 0.950 . S
C1236 C1235 1.387 . S
C1236 C1239 1.387 . S
H1237 C1233 0.950 . S
H1238 C1235 0.950 . S
C1239 C1230 1.390 . S
C1239 H1232 0.950 . S
C1239 C1236 1.387 . S
C1240 C1241 1.387 1_556 S
C1240 H1244 0.950 . S
C1240 C1249 1.390 . S
C1241 C1240 1.387 1_554 S
C1241 C1243 1.387 . S
H1242 C1249 0.950 . S
C1243 C1241 1.387 . S
C1243 C1245 1.390 . S
C1243 H1247 0.950 . S
H1244 C1240 0.950 . S
C1245 C1243 1.390 . S
C1245 C1246 1.387 . S
C1245 H1248 0.950 . S
C1246 C1245 1.387 . S
C1246 C1249 1.387 1_554 S
H1247 C1243 0.950 . S
H1248 C1245 0.950 . S
C1249 C1240 1.390 . S
C1249 H1242 0.950 . S
C1249 C1246 1.387 1_556 S
C1250 C1251 1.387 . S
C1250 H1254 0.950 . S
C1250 C1259 1.390 . S
C1251 C1250 1.387 . S
C1251 C1253 1.419 . S
H1252 C1259 0.950 . S
C1253 C1251 1.419 . S
C1253 C1255 1.388 1_554 S
C1253 H1257 0.921 1_554 S
H1254 C1250 0.950 . S
C1255 C1253 1.388 1_556 S
C1255 C1256 1.387 1_556 S
C1255 H1258 0.950 . S
C1256 C1255 1.387 1_554 S
C1256 C1259 1.387 . S
H1257 C1253 0.921 1_556 S
H1258 C1255 0.950 . S
C1259 C1250 1.390 . S
C1259 H1252 0.950 . S
C1259 C1256 1.387 . S
C786 C634 1.428 . S
C781 C211 1.431 . S
C796 C647 1.584 . S
C791 C255 1.593 . S
C801 C274 1.466 . S
C806 C660 1.456 . S
C816 C673 1.517 . S
C811 C157 1.530 . S
C826 C681 1.469 . S
C821 C391 1.504 . S
C836 C694 1.425 . S
C831 C484 1.440 . S
C841 C450 1.519 . S
C846 C707 1.492 . S
C856 C720 1.501 . S
C851 C352 1.517 . S
C861 C430 1.449 . S
C866 C738 1.438 . S
C876 C749 1.511 . S
C871 C367 1.544 . S
C881 C411 1.482 . S
C886 C733 1.450 . S
C896 C741 1.457 . S
C891 C469 1.486 . S
C901 C294 1.500 . S
C906 C764 1.491 . S
C911 C177 1.516 . S
C916 C754 1.481 . S
C921 C196 1.511 . S
C926 C759 1.479 . S
C931 C235 1.560 . S
C936 C762 1.525 . S
C941 C133 1.462 . S
C946 C671 1.439 . S
C951 C567 1.436 . S
C956 C663 1.419 . S
C966 C632 1.520 1_556 S
C961 C601 1.561 . S
C976 C637 1.497 . S
C971 C328 1.519 . S
C981 C172 1.534 . S
C986 C684 1.502 . S
C996 C723 1.503 . S
C991 C445 1.532 . S
C1006 C676 1.490 . S
C1001 C372 1.521 . S
C1016 C702 1.437 . S
C1011 C489 1.474 . S
C1026 C712 1.428 . S
C1021 C562 1.431 . S
C1031 C606 1.593 . S
C1036 C725 1.583 . S
C1041 C313 1.466 . S
C1046 C686 1.454 . S
C1056 C699 1.517 . S
C1051 C508 1.530 . S
C1061 C118 1.504 . S
C1066 C655 1.469 . S
C1076 C668 1.424 . S
C1071 C16 1.440 . S
C1086 C629 1.492 . S
C1081 C60 1.519 . S
C1096 C642 1.503 . S
C1091 C79 1.516 . S
C1101 C40 1.449 . S
C1106 C751 1.437 . S
C1111 C94 1.544 . S
C1116 C736 1.505 1_655 S
C1121 C138 1.482 . S
C1126 C746 1.453 . S
C1131 C1 1.486 . S
C1136 C728 1.455 . S
C1146 C777 1.490 . S
C1141 C333 1.500 . S
C1156 C767 1.484 . S
C1151 C528 1.516 . S
C1166 C772 1.479 . S
C1161 C547 1.511 . S
C1171 C586 1.560 . S
C1176 C775 1.524 . S
C1181 C406 1.462 . S
C1186 C697 1.437 . S
C1196 C689 1.418 . S
C1191 C216 1.436 . S
C1206 C710 1.529 . S
C1201 C250 1.561 . S
C1216 C715 1.498 . S
C1211 C289 1.521 . S
C1221 C523 1.534 . S
C1226 C658 1.505 . S
C1236 C645 1.504 . S
C1231 C55 1.534 . S
C1241 C99 1.521 . S
C1246 C650 1.491 . S
C1256 C624 1.437 . S
C1251 C21 1.474 . S
