# Generated by pormake.
# Topology rtl, (3,6)-cn, num edge types: 1
# Building blocks:
#     Node 0, Type 0, BuildingBlock: MIDCAF_clean_linker_0, # of connection points: 3
#     Node 1, Type 0, BuildingBlock: MIDCAF_clean_linker_0, # of connection points: 3
#     Node 2, Type 0, BuildingBlock: MIDCAF_clean_linker_0, # of connection points: 3
#     Node 3, Type 0, BuildingBlock: MIDCAF_clean_linker_0, # of connection points: 3
#     Node 4, Type 1, BuildingBlock: VOLQOD_clean_sbu_1, # of connection points: 6
#     Node 5, Type 1, BuildingBlock: VOLQOD_clean_sbu_1, # of connection points: 6
#     Edge 6, Type (0, 1), BuildingBlock: AJUNOK_clean_linker_0, # of connection points: 2
#     Edge 7, Type (0, 1), BuildingBlock: AJUNOK_clean_linker_0, # of connection points: 2
#     Edge 8, Type (0, 1), BuildingBlock: AJUNOK_clean_linker_0, # of connection points: 2
#     Edge 9, Type (0, 1), BuildingBlock: AJUNOK_clean_linker_0, # of connection points: 2
#     Edge 10, Type (0, 1), BuildingBlock: AJUNOK_clean_linker_0, # of connection points: 2
#     Edge 11, Type (0, 1), BuildingBlock: AJUNOK_clean_linker_0, # of connection points: 2
#     Edge 12, Type (0, 1), BuildingBlock: AJUNOK_clean_linker_0, # of connection points: 2
#     Edge 13, Type (0, 1), BuildingBlock: AJUNOK_clean_linker_0, # of connection points: 2
#     Edge 14, Type (0, 1), BuildingBlock: AJUNOK_clean_linker_0, # of connection points: 2
#     Edge 15, Type (0, 1), BuildingBlock: AJUNOK_clean_linker_0, # of connection points: 2
#     Edge 16, Type (0, 1), BuildingBlock: AJUNOK_clean_linker_0, # of connection points: 2
#     Edge 17, Type (0, 1), BuildingBlock: AJUNOK_clean_linker_0, # of connection points: 2
# Relax obj value: 0.080
# Max RMSD: 0.156
# Mean RMSD: 0.090
data_MOF--net-rtl--node1-VOLQOD_clean_sbu_1--node2-MIDCAF_clean_linker_0--edge1-AJUNOK_clean_linker_0
_symmetry_space_group_name_H-M    P1
_symmetry_Int_Tables_number       1
_symmetry_cell_setting            triclinic
loop_
_symmetry_equiv_pos_as_xyz
'x, y, z'
_cell_length_a     35.421317
_cell_length_b     29.876465
_cell_length_c     23.411225
_cell_angle_alpha  89.681519
_cell_angle_beta   90.540733
_cell_angle_gamma 89.969702
loop_
_atom_site_label
_atom_site_type_symbol
_atom_site_fract_x
_atom_site_fract_y
_atom_site_fract_z
_atom_type_partial_charge
C0 C 0.04063 0.8063 0.17496 0.0
C1 C 0.06581 0.80875 0.22139 0.0
C2 C 0.10014 0.78538 0.21938 0.0
C3 C 0.11009 0.76193 0.17028 0.0
H4 H 0.17617 0.65426 0.09897 0.0
H5 H 0.2359 0.61359 0.09707 0.0
H6 H 0.25224 0.65546 0.92217 0.0
H7 H 0.19207 0.69461 0.92317 0.0
H8 H 0.12198 0.73713 0.85591 0.0
H9 H 0.10199 0.77938 0.7713 0.0
H10 H 0.01975 0.84988 0.87158 0.0
H11 H 0.0395 0.80815 0.95628 0.0
H12 H 0.0314 0.78371 0.08948 0.0
H13 H 0.01398 0.8241 0.17571 0.0
H14 H 0.1198 0.78657 0.25507 0.0
H15 H 0.13747 0.74582 0.16907 0.0
N16 N 0.12985 0.7171 0.0645 0.0
N17 N 0.12841 0.72104 0.96435 0.0
N18 N 0.0835 0.75989 0.01754 0.0
C19 C 0.1444 0.70494 0.01334 0.0
C20 C 0.09779 0.74836 0.9661 0.0
C21 C 0.09925 0.74442 0.06688 0.0
C22 C 0.17928 0.67768 0.01121 0.0
C23 C 0.19227 0.65433 0.05987 0.0
C24 C 0.22652 0.63113 0.05887 0.0
C25 C 0.24864 0.63099 0.00935 0.0
C26 C 0.23542 0.65388 0.96052 0.0
C27 C 0.20099 0.67663 0.96126 0.0
C28 C 0.08264 0.76946 0.91318 0.0
C29 C 0.09924 0.76111 0.85989 0.0
C30 C 0.08771 0.78511 0.81132 0.0
C31 C 0.05942 0.81785 0.81515 0.0
C32 C 0.04181 0.82497 0.86773 0.0
C33 C 0.05315 0.80092 0.91617 0.0
C34 C 0.08603 0.76201 0.12214 0.0
C35 C 0.05072 0.78334 0.12562 0.0
C36 C 0.55088 0.70827 0.35544 0.0
C37 C 0.5683 0.71823 0.30332 0.0
C38 C 0.59553 0.75242 0.30148 0.0
C39 C 0.60641 0.77468 0.35146 0.0
H40 H 0.68177 0.86947 0.42002 0.0
H41 H 0.74169 0.90993 0.42048 0.0
H42 H 0.75366 0.88598 0.60161 0.0
H43 H 0.69389 0.84557 0.60175 0.0
H44 H 0.6277 0.79803 0.66947 0.0
H45 H 0.60595 0.76077 0.75644 0.0
H46 H 0.52425 0.68652 0.65711 0.0
H47 H 0.54483 0.72417 0.57104 0.0
H48 H 0.54802 0.72099 0.44467 0.0
H49 H 0.5299 0.682 0.35828 0.0
H50 H 0.60879 0.76153 0.26158 0.0
H51 H 0.62821 0.8 0.34896 0.0
N52 N 0.63396 0.81126 0.45933 0.0
N53 N 0.63328 0.8112 0.5597 0.0
N54 N 0.58901 0.76899 0.5085 0.0
C55 C 0.64864 0.82577 0.50988 0.0
C56 C 0.60325 0.78295 0.55927 0.0
C57 C 0.604 0.78286 0.45839 0.0
C58 C 0.68304 0.85399 0.51079 0.0
C59 C 0.6969 0.87322 0.46013 0.0
C60 C 0.73106 0.89663 0.46035 0.0
C61 C 0.7521 0.90103 0.5111 0.0
C62 C 0.73789 0.8829 0.56194 0.0
C63 C 0.7036 0.85988 0.56191 0.0
C64 C 0.58814 0.76408 0.61309 0.0
C65 C 0.60466 0.77433 0.66632 0.0
C66 C 0.59233 0.75293 0.7161 0.0
C67 C 0.56318 0.72109 0.7136 0.0
C68 C 0.54613 0.7117 0.66067 0.0
C69 C 0.55826 0.73309 0.61113 0.0
C70 C 0.59002 0.76334 0.4041 0.0
C71 C 0.56149 0.7306 0.40512 0.0
C72 C 0.95745 0.21477 0.85235 0.0
C73 C 0.93984 0.22417 0.79968 0.0
C74 C 0.91055 0.25589 0.79746 0.0
C75 C 0.89859 0.27708 0.84728 0.0
H76 H 0.80948 0.34609 0.91166 0.0
H77 H 0.74813 0.38296 0.91151 0.0
H78 H 0.75726 0.40274 0.09344 0.0
H79 H 0.81887 0.3657 0.09429 0.0
H80 H 0.87637 0.29973 0.16469 0.0
H81 H 0.89801 0.26187 0.25197 0.0
H82 H 0.9804 0.1889 0.15458 0.0
H83 H 0.96007 0.22728 0.06842 0.0
H84 H 0.95951 0.22702 0.94184 0.0
H85 H 0.97944 0.18967 0.85572 0.0
H86 H 0.89652 0.26374 0.75733 0.0
H87 H 0.8754 0.30065 0.84436 0.0
N88 N 0.86985 0.31213 0.95406 0.0
N89 N 0.87014 0.31227 0.05442 0.0
N90 N 0.916 0.27205 0.00483 0.0
C91 C 0.8545 0.32604 0.00395 0.0
C92 C 0.90107 0.28531 0.05509 0.0
C93 C 0.90077 0.28527 0.95418 0.0
C94 C 0.81904 0.35243 0.00315 0.0
C95 C 0.79876 0.35859 0.9517 0.0
C96 C 0.76354 0.37953 0.95149 0.0
C97 C 0.74797 0.39503 0.00255 0.0
C98 C 0.76879 0.39088 0.05358 0.0
C99 C 0.80395 0.36955 0.05397 0.0
C100 C 0.91633 0.26653 0.10934 0.0
C101 C 0.89958 0.27624 0.16209 0.0
C102 C 0.91184 0.25448 0.21204 0.0
C103 C 0.94112 0.22273 0.21019 0.0
C104 C 0.95846 0.214 0.15777 0.0
C105 C 0.94644 0.23581 0.10812 0.0
C106 C 0.91564 0.26678 0.90028 0.0
C107 C 0.94569 0.236 0.90193 0.0
C108 C 0.4625 0.31248 0.66145 0.0
C109 C 0.44031 0.31128 0.71067 0.0
C110 C 0.4093 0.28214 0.71304 0.0
C111 C 0.39895 0.25703 0.66507 0.0
H112 H 0.32847 0.15249 0.59688 0.0
H113 H 0.26871 0.11182 0.59707 0.0
H114 H 0.24978 0.14901 0.42058 0.0
H115 H 0.30988 0.18811 0.41953 0.0
H116 H 0.37499 0.23552 0.35045 0.0
H117 H 0.39332 0.27815 0.26565 0.0
H118 H 0.48295 0.341 0.362 0.0
H119 H 0.46503 0.29887 0.4466 0.0
H120 H 0.4693 0.29058 0.5757 0.0
H121 H 0.48696 0.33416 0.6592 0.0
H122 H 0.39194 0.28062 0.75086 0.0
H123 H 0.37372 0.23665 0.66702 0.0
N124 N 0.37458 0.21401 0.55931 0.0
N125 N 0.3737 0.21614 0.45894 0.0
N126 N 0.41962 0.25598 0.50988 0.0
C127 C 0.35891 0.20087 0.50881 0.0
C128 C 0.40428 0.24352 0.45919 0.0
C129 C 0.40514 0.24149 0.56007 0.0
C130 C 0.32403 0.17355 0.50818 0.0
C131 C 0.31179 0.1515 0.55789 0.0
C132 C 0.27753 0.12829 0.55808 0.0
C133 C 0.2547 0.12684 0.50871 0.0
C134 C 0.26717 0.14842 0.45887 0.0
C135 C 0.30157 0.17116 0.45845 0.0
C136 C 0.41823 0.26407 0.40564 0.0
C137 C 0.39902 0.25782 0.35339 0.0
C138 C 0.40953 0.28207 0.30478 0.0
C139 C 0.43938 0.31291 0.30764 0.0
C140 C 0.45961 0.31767 0.35898 0.0
C141 C 0.4493 0.2934 0.40737 0.0
C142 C 0.4196 0.26073 0.61418 0.0
C143 C 0.45232 0.28742 0.61374 0.0
O144 O 0.90916 0.01808 0.50597 0.0
Zn145 Zn 0.95657 0.05549 0.5067 0.0
O146 O 0.00206 0.01799 0.50894 0.0
Zn147 Zn 0.03198 0.03165 0.57711 0.0
Zn148 Zn 0.98742 0.95483 0.50996 0.0
Zn149 Zn 0.03272 0.03007 0.44192 0.0
O150 O 0.08494 0.05068 0.55798 0.0
O151 O 0.08523 0.04902 0.46334 0.0
O152 O 0.95477 0.09644 0.5749 0.0
O153 O 0.00857 0.08178 0.62079 0.0
O154 O 0.0356 0.97792 0.62903 0.0
O155 O 0.00697 0.92377 0.58078 0.0
O156 O 0.00743 0.92198 0.44156 0.0
O157 O 0.95582 0.09494 0.43671 0.0
O158 O 0.03833 0.97496 0.39433 0.0
O159 O 0.0098 0.07913 0.39371 0.0
C160 C 0.90352 0.976 0.5076 0.0
C161 C 0.102 0.05567 0.51078 0.0
C162 C 0.02507 0.93731 0.6246 0.0
C163 C 0.97802 0.10391 0.61557 0.0
C164 C 0.02742 0.93458 0.39951 0.0
C165 C 0.97924 0.10144 0.39659 0.0
O166 O 0.93094 0.94844 0.50962 0.0
O167 O 0.59221 0.51143 0.00623 0.0
Zn168 Zn 0.54619 0.55119 0.00728 0.0
O169 O 0.49946 0.51605 0.00815 0.0
Zn170 Zn 0.46896 0.53035 0.94084 0.0
Zn171 Zn 0.51164 0.45223 0.0075 0.0
Zn172 Zn 0.47069 0.5303 0.07644 0.0
O173 O 0.41659 0.54941 0.96193 0.0
O174 O 0.41828 0.55205 0.05658 0.0
O175 O 0.54764 0.59211 0.93855 0.0
O176 O 0.49232 0.58035 0.89589 0.0
O177 O 0.46397 0.47724 0.8892 0.0
O178 O 0.49052 0.42154 0.93796 0.0
O179 O 0.49158 0.42095 0.07698 0.0
O180 O 0.55012 0.59046 0.07658 0.0
O181 O 0.46526 0.47567 0.12652 0.0
O182 O 0.49646 0.57832 0.12235 0.0
C183 C 0.59621 0.46906 0.0057 0.0
C184 C 0.40063 0.55705 0.00934 0.0
C185 C 0.4731 0.43617 0.89389 0.0
C186 C 0.52367 0.601 0.89921 0.0
C187 C 0.47419 0.43461 0.12089 0.0
C188 C 0.52802 0.59839 0.11786 0.0
O189 O 0.56779 0.44303 0.00636 0.0
C190 C 0.19236 0.11424 0.55568 0.0
C191 C 0.21689 0.10538 0.51015 0.0
C192 C 0.15555 0.09711 0.55621 0.0
C193 C 0.14174 0.07086 0.51094 0.0
H194 H 0.20127 0.13568 0.59045 0.0
H195 H 0.13745 0.10568 0.59156 0.0
S196 S 0.19598 0.03357 0.38492 0.0
N197 N 0.22587 0.06513 0.42126 0.0
N198 N 0.15635 0.03389 0.42149 0.0
C199 C 0.16631 0.06058 0.46599 0.0
C200 C 0.20393 0.07762 0.46577 0.0
C201 C 0.31154 0.61672 0.0556 0.0
C202 C 0.2864 0.60931 0.00971 0.0
C203 C 0.34813 0.59892 0.05562 0.0
C204 C 0.36115 0.57337 0.0095 0.0
H205 H 0.30325 0.63742 0.09119 0.0
H206 H 0.36666 0.60628 0.09142 0.0
S207 S 0.30513 0.54032 0.88173 0.0
N208 N 0.27602 0.57152 0.91919 0.0
N209 N 0.34513 0.53896 0.91848 0.0
C210 C 0.33599 0.56472 0.96399 0.0
C211 C 0.29858 0.58248 0.96427 0.0
C212 C 0.82119 0.89717 0.53132 0.0
C213 C 0.79007 0.92164 0.5105 0.0
C214 C 0.85768 0.91503 0.5299 0.0
C215 C 0.86441 0.95835 0.50831 0.0
H216 H 0.81737 0.86361 0.54808 0.0
H217 H 0.88076 0.89474 0.54628 0.0
S218 S 0.79197 0.03635 0.44959 0.0
N219 N 0.7679 0.99131 0.46813 0.0
N220 N 0.83652 0.0254 0.46586 0.0
C221 C 0.83335 0.9834 0.48784 0.0
C222 C 0.79619 0.96488 0.48871 0.0
C223 C 0.70245 0.45663 0.02411 0.0
C224 C 0.70924 0.41352 0.00289 0.0
C225 C 0.66584 0.47458 0.0243 0.0
C226 C 0.6347 0.44966 0.00428 0.0
H227 H 0.72564 0.47675 0.0401 0.0
H228 H 0.66188 0.508 0.04094 0.0
S229 S 0.63793 0.33453 0.94539 0.0
N230 N 0.68225 0.34611 0.96195 0.0
N231 N 0.61342 0.3794 0.96265 0.0
C232 C 0.64127 0.40627 0.98336 0.0
C233 C 0.67855 0.38833 0.98255 0.0
C234 C 0.02419 0.83438 0.30057 0.0
C235 C 0.05763 0.83912 0.26931 0.0
C236 C 0.01497 0.86485 0.34364 0.0
C237 C 0.03847 0.90164 0.35583 0.0
H238 H 0.00498 0.80708 0.29143 0.0
H239 H 0.9888 0.8602 0.3665 0.0
S240 S 0.1295 0.92836 0.28615 0.0
N241 N 0.11455 0.88264 0.25374 0.0
N242 N 0.09714 0.94026 0.33405 0.0
C243 C 0.07216 0.90642 0.32504 0.0
C244 C 0.08178 0.87505 0.28194 0.0
C245 C 0.58042 0.67426 0.79881 0.0
C246 C 0.55236 0.69498 0.76495 0.0
C247 C 0.57088 0.64494 0.8433 0.0
C248 C 0.53292 0.63499 0.85527 0.0
H249 H 0.61001 0.67934 0.78946 0.0
H250 H 0.59348 0.62873 0.86709 0.0
S251 S 0.44884 0.68543 0.78416 0.0
N252 N 0.48513 0.70735 0.75026 0.0
N253 N 0.46709 0.65161 0.83313 0.0
C254 C 0.50458 0.65708 0.82336 0.0
C255 C 0.51432 0.68721 0.77841 0.0
C256 C 0.92337 0.17536 0.2942 0.0
C257 C 0.95167 0.19593 0.26148 0.0
C258 C 0.93256 0.14566 0.33873 0.0
C259 C 0.9704 0.1351 0.35183 0.0
H260 H 0.89384 0.18093 0.284 0.0
H261 H 0.90979 0.12974 0.36178 0.0
S262 S 0.05508 0.18462 0.28399 0.0
N263 N 0.01908 0.20734 0.24915 0.0
N264 N 0.0364 0.1507 0.33194 0.0
C265 C -0.001 0.15681 0.32095 0.0
C266 C 0.98962 0.18742 0.27604 0.0
C267 C 0.4551 0.32805 0.81313 0.0
C268 C 0.44782 0.34328 0.75728 0.0
C269 C 0.46329 0.35834 0.85712 0.0
C270 C 0.46384 0.40489 0.84688 0.0
H271 H 0.45503 0.29252 0.82261 0.0
H272 H 0.46908 0.34512 0.89949 0.0
S273 S 0.44496 0.4613 0.70768 0.0
N274 N 0.44055 0.40742 0.69397 0.0
N275 N 0.45565 0.46446 0.77632 0.0
C276 C 0.45589 0.42039 0.79114 0.0
C277 C 0.44798 0.38955 0.74643 0.0
C278 C 0.52089 0.68134 0.23926 0.0
C279 C 0.55884 0.69122 0.25212 0.0
C280 C 0.51124 0.65185 0.19524 0.0
C281 C 0.53915 0.63132 0.16197 0.0
H282 H 0.49842 0.69601 0.26406 0.0
H283 H 0.48162 0.64489 0.18752 0.0
S284 S 0.64277 0.64589 0.17835 0.0
N285 N 0.62457 0.67794 0.22828 0.0
N286 N 0.60644 0.62332 0.14453 0.0
C287 C 0.57722 0.64181 0.17333 0.0
C288 C 0.58706 0.67158 0.21858 0.0
C289 C 0.92192 0.17751 0.71529 0.0
C290 C 0.95024 0.19818 0.7484 0.0
C291 C 0.93113 0.14815 0.67105 0.0
C292 C 0.96898 0.13812 0.65874 0.0
H293 H 0.8924 0.18261 0.72509 0.0
H294 H 0.9084 0.1319 0.64787 0.0
S295 S 0.05359 0.1886 0.72739 0.0
N296 N 0.01757 0.2106 0.76161 0.0
N297 N 0.03496 0.1547 0.67935 0.0
C298 C -0.00244 0.16022 0.68975 0.0
C299 C 0.98817 0.19042 0.73434 0.0
C300 C 0.44849 0.38926 0.26697 0.0
C301 C 0.44786 0.34271 0.25878 0.0
C302 C 0.45659 0.41859 0.22197 0.0
C303 C 0.46481 0.40248 0.16709 0.0
H304 H 0.44242 0.40317 0.30854 0.0
H305 H 0.45685 0.45417 0.2306 0.0
S306 S 0.4666 0.28304 0.12369 0.0
N307 N 0.45583 0.28155 0.19216 0.0
N308 N 0.47132 0.33654 0.10711 0.0
C309 C 0.46416 0.35582 0.15833 0.0
C310 C 0.45554 0.32599 0.20423 0.0
C311 C 0.05169 0.89375 0.77205 0.0
C312 C 0.05013 0.84705 0.76571 0.0
C313 C 0.04378 0.92248 0.7261 0.0
C314 C 0.0336 0.90566 0.67205 0.0
H315 H 0.05955 0.90824 0.81279 0.0
H316 H 0.04541 0.95822 0.73329 0.0
S317 S 0.02507 0.78552 0.63372 0.0
N318 N 0.03752 0.78496 0.70187 0.0
N319 N 0.02241 0.83884 0.61508 0.0
C320 C 0.03177 0.85884 0.66525 0.0
C321 C 0.04018 0.82958 0.71212 0.0
loop_
_geom_bond_atom_site_label_1
_geom_bond_atom_site_label_2
_geom_bond_distance
_geom_bond_site_symmetry_2
_ccdc_geom_bond_type
C0 C1 1.384 . S
C0 H13 0.947 . S
C0 C35 1.382 . S
C1 C0 1.384 . S
C1 C2 1.378 . S
C2 C1 1.378 . S
C2 C3 1.378 . S
C2 H14 0.952 . S
C3 C2 1.378 . S
C3 H15 0.950 . S
C3 C34 1.383 . S
H4 C23 0.947 . S
H5 C24 0.946 . S
H6 C26 0.953 . S
H7 C27 0.945 . S
H8 C29 0.952 . S
H9 C30 0.949 . S
H10 C32 0.950 . S
H11 C33 0.948 . S
H12 C35 0.951 . S
H13 C0 0.947 . S
H14 C2 0.952 . S
H15 C3 0.950 . S
N16 C19 1.382 . S
N16 C21 1.363 . S
N17 C19 1.371 1_556 S
N17 C20 1.372 . S
N18 C20 1.361 1_554 S
N18 C21 1.377 . S
C19 N16 1.382 . S
C19 N17 1.371 1_554 S
C19 C22 1.480 . S
C20 N17 1.372 . S
C20 N18 1.361 1_556 S
C20 C28 1.457 . S
C21 N16 1.363 . S
C21 N18 1.377 . S
C21 C34 1.479 . S
C22 C19 1.480 . S
C22 C23 1.383 . S
C22 C27 1.385 1_554 S
C23 H4 0.947 . S
C23 C22 1.383 . S
C23 C24 1.388 . S
C24 H5 0.946 . S
C24 C23 1.388 . S
C24 C25 1.384 . S
C25 C24 1.384 . S
C25 C26 1.377 1_554 S
C26 H6 0.953 . S
C26 C25 1.377 1_556 S
C26 C27 1.369 . S
C27 H7 0.945 . S
C27 C22 1.385 1_556 S
C27 C26 1.369 . S
C28 C20 1.457 . S
C28 C29 1.372 . S
C28 C33 1.364 . S
C29 H8 0.952 . S
C29 C28 1.372 . S
C29 C30 1.389 . S
C30 H9 0.949 . S
C30 C29 1.389 . S
C30 C31 1.387 . S
C31 C30 1.387 . S
C31 C32 1.372 . S
C32 H10 0.950 . S
C32 C31 1.372 . S
C32 C33 1.379 . S
C33 H11 0.948 . S
C33 C28 1.364 . S
C33 C32 1.379 . S
C34 C3 1.383 . S
C34 C21 1.479 . S
C34 C35 1.398 . S
C35 C0 1.382 . S
C35 H12 0.951 . S
C35 C34 1.398 . S
C36 C37 1.384 . S
C36 H49 0.947 . S
C36 C71 1.382 . S
C37 C36 1.384 . S
C37 C38 1.378 . S
C38 C37 1.378 . S
C38 C39 1.378 . S
C38 H50 0.952 . S
C39 C38 1.378 . S
C39 H51 0.950 . S
C39 C70 1.383 . S
H40 C59 0.947 . S
H41 C60 0.946 . S
H42 C62 0.953 . S
H43 C63 0.945 . S
H44 C65 0.952 . S
H45 C66 0.949 . S
H46 C68 0.950 . S
H47 C69 0.948 . S
H48 C71 0.951 . S
H49 C36 0.947 . S
H50 C38 0.952 . S
H51 C39 0.950 . S
N52 C55 1.382 . S
N52 C57 1.363 . S
N53 C55 1.371 . S
N53 C56 1.372 . S
N54 C56 1.361 . S
N54 C57 1.377 . S
C55 N52 1.382 . S
C55 N53 1.371 . S
C55 C58 1.480 . S
C56 N53 1.372 . S
C56 N54 1.361 . S
C56 C64 1.457 . S
C57 N52 1.363 . S
C57 N54 1.377 . S
C57 C70 1.479 . S
C58 C55 1.480 . S
C58 C59 1.383 . S
C58 C63 1.385 . S
C59 H40 0.947 . S
C59 C58 1.383 . S
C59 C60 1.388 . S
C60 H41 0.946 . S
C60 C59 1.388 . S
C60 C61 1.384 . S
C61 C60 1.384 . S
C61 C62 1.377 . S
C62 H42 0.953 . S
C62 C61 1.377 . S
C62 C63 1.369 . S
C63 H43 0.945 . S
C63 C58 1.385 . S
C63 C62 1.369 . S
C64 C56 1.457 . S
C64 C65 1.372 . S
C64 C69 1.364 . S
C65 H44 0.952 . S
C65 C64 1.372 . S
C65 C66 1.389 . S
C66 H45 0.949 . S
C66 C65 1.389 . S
C66 C67 1.387 . S
C67 C66 1.387 . S
C67 C68 1.372 . S
C68 H46 0.950 . S
C68 C67 1.372 . S
C68 C69 1.379 . S
C69 H47 0.948 . S
C69 C64 1.364 . S
C69 C68 1.379 . S
C70 C39 1.383 . S
C70 C57 1.479 . S
C70 C71 1.398 . S
C71 C36 1.382 . S
C71 H48 0.951 . S
C71 C70 1.398 . S
C72 C73 1.384 . S
C72 H85 0.947 . S
C72 C107 1.382 . S
C73 C72 1.384 . S
C73 C74 1.378 . S
C74 C73 1.378 . S
C74 C75 1.378 . S
C74 H86 0.952 . S
C75 C74 1.378 . S
C75 H87 0.950 . S
C75 C106 1.383 . S
H76 C95 0.947 . S
H77 C96 0.946 . S
H78 C98 0.953 . S
H79 C99 0.945 . S
H80 C101 0.952 . S
H81 C102 0.949 . S
H82 C104 0.950 . S
H83 C105 0.948 . S
H84 C107 0.951 . S
H85 C72 0.947 . S
H86 C74 0.952 . S
H87 C75 0.950 . S
N88 C91 1.382 1_556 S
N88 C93 1.363 . S
N89 C91 1.371 . S
N89 C92 1.372 . S
N90 C92 1.361 . S
N90 C93 1.377 1_554 S
C91 N88 1.382 1_554 S
C91 N89 1.371 . S
C91 C94 1.480 . S
C92 N89 1.372 . S
C92 N90 1.361 . S
C92 C100 1.457 . S
C93 N88 1.363 . S
C93 N90 1.377 1_556 S
C93 C106 1.479 . S
C94 C91 1.480 . S
C94 C95 1.383 1_554 S
C94 C99 1.385 . S
C95 H76 0.947 . S
C95 C94 1.383 1_556 S
C95 C96 1.388 . S
C96 H77 0.946 . S
C96 C95 1.388 . S
C96 C97 1.384 1_556 S
C97 C96 1.384 1_554 S
C97 C98 1.377 . S
C98 H78 0.953 . S
C98 C97 1.377 . S
C98 C99 1.369 . S
C99 H79 0.945 . S
C99 C94 1.385 . S
C99 C98 1.369 . S
C100 C92 1.457 . S
C100 C101 1.372 . S
C100 C105 1.364 . S
C101 H80 0.952 . S
C101 C100 1.372 . S
C101 C102 1.389 . S
C102 H81 0.949 . S
C102 C101 1.389 . S
C102 C103 1.387 . S
C103 C102 1.387 . S
C103 C104 1.372 . S
C104 H82 0.950 . S
C104 C103 1.372 . S
C104 C105 1.379 . S
C105 H83 0.948 . S
C105 C100 1.364 . S
C105 C104 1.379 . S
C106 C75 1.383 . S
C106 C93 1.479 . S
C106 C107 1.398 . S
C107 C72 1.382 . S
C107 H84 0.951 . S
C107 C106 1.398 . S
C108 C109 1.384 . S
C108 H121 0.947 . S
C108 C143 1.382 . S
C109 C108 1.384 . S
C109 C110 1.378 . S
C110 C109 1.378 . S
C110 C111 1.378 . S
C110 H122 0.952 . S
C111 C110 1.378 . S
C111 H123 0.950 . S
C111 C142 1.383 . S
H112 C131 0.947 . S
H113 C132 0.946 . S
H114 C134 0.953 . S
H115 C135 0.945 . S
H116 C137 0.952 . S
H117 C138 0.949 . S
H118 C140 0.950 . S
H119 C141 0.948 . S
H120 C143 0.951 . S
H121 C108 0.947 . S
H122 C110 0.952 . S
H123 C111 0.950 . S
N124 C127 1.382 . S
N124 C129 1.363 . S
N125 C127 1.371 . S
N125 C128 1.372 . S
N126 C128 1.361 . S
N126 C129 1.377 . S
C127 N124 1.382 . S
C127 N125 1.371 . S
C127 C130 1.480 . S
C128 N125 1.372 . S
C128 N126 1.361 . S
C128 C136 1.457 . S
C129 N124 1.363 . S
C129 N126 1.377 . S
C129 C142 1.479 . S
C130 C127 1.480 . S
C130 C131 1.383 . S
C130 C135 1.385 . S
C131 H112 0.947 . S
C131 C130 1.383 . S
C131 C132 1.388 . S
C132 H113 0.946 . S
C132 C131 1.388 . S
C132 C133 1.384 . S
C133 C132 1.384 . S
C133 C134 1.377 . S
C134 H114 0.953 . S
C134 C133 1.377 . S
C134 C135 1.369 . S
C135 H115 0.945 . S
C135 C130 1.385 . S
C135 C134 1.369 . S
C136 C128 1.457 . S
C136 C137 1.372 . S
C136 C141 1.364 . S
C137 H116 0.952 . S
C137 C136 1.372 . S
C137 C138 1.389 . S
C138 H117 0.949 . S
C138 C137 1.389 . S
C138 C139 1.387 . S
C139 C138 1.387 . S
C139 C140 1.372 . S
C140 H118 0.950 . S
C140 C139 1.372 . S
C140 C141 1.379 . S
C141 H119 0.948 . S
C141 C136 1.364 . S
C141 C140 1.379 . S
C142 C111 1.383 . S
C142 C129 1.479 . S
C142 C143 1.398 . S
C143 C108 1.382 . S
C143 H120 0.951 . S
C143 C142 1.398 . S
O144 Zn145 1.953 1_565 S
O144 C160 1.225 . S
Zn145 O144 1.953 1_545 S
Zn145 O146 1.949 1_655 S
Zn145 O152 1.919 . S
Zn145 O157 1.924 . S
O146 Zn145 1.949 1_455 S
O146 Zn147 1.923 . S
O146 Zn148 1.950 1_445 S
O146 Zn149 1.945 . S
Zn147 O146 1.923 . S
Zn147 O150 1.933 . S
Zn147 O153 1.941 . S
Zn147 O154 1.965 1_545 S
Zn148 O146 1.950 1_665 S
Zn148 O155 1.938 1_655 S
Zn148 O156 1.906 1_655 S
Zn148 O166 1.953 . S
Zn149 O146 1.945 . S
Zn149 O151 1.932 . S
Zn149 O158 1.977 1_545 S
Zn149 O159 1.910 1_455 S
O150 Zn147 1.933 . S
O150 C161 1.226 . S
O151 Zn149 1.932 . S
O151 C161 1.307 . S
O152 Zn145 1.919 . S
O152 C163 1.253 . S
O153 Zn147 1.941 . S
O153 C163 1.283 1_455 S
O154 Zn147 1.965 1_565 S
O154 C162 1.303 . S
O155 Zn148 1.938 1_455 S
O155 C162 1.247 . S
O156 Zn148 1.906 1_455 S
O156 C164 1.304 . S
O157 Zn145 1.924 . S
O157 C165 1.311 . S
O158 Zn149 1.977 1_565 S
O158 C164 1.272 . S
O159 Zn149 1.910 1_655 S
O159 C165 1.231 . S
C160 O144 1.225 . S
C160 O166 1.298 . S
C161 O150 1.226 . S
C161 O151 1.307 . S
C162 O154 1.303 . S
C162 O155 1.247 . S
C163 O152 1.253 . S
C163 O153 1.283 1_655 S
C164 O156 1.304 . S
C164 O158 1.272 . S
C165 O157 1.311 . S
C165 O159 1.231 . S
O166 Zn148 1.953 . S
O166 C160 1.298 . S
O167 Zn168 1.953 . S
O167 C183 1.225 . S
Zn168 O167 1.953 . S
Zn168 O169 1.949 . S
Zn168 O175 1.919 1_554 S
Zn168 O180 1.924 . S
O169 Zn168 1.949 . S
O169 Zn170 1.923 1_554 S
O169 Zn171 1.950 . S
O169 Zn172 1.945 . S
Zn170 O169 1.923 1_556 S
Zn170 O173 1.933 . S
Zn170 O176 1.941 . S
Zn170 O177 1.965 . S
Zn171 O169 1.950 . S
Zn171 O178 1.938 1_554 S
Zn171 O179 1.906 . S
Zn171 O189 1.953 . S
Zn172 O169 1.945 . S
Zn172 O174 1.932 . S
Zn172 O181 1.977 . S
Zn172 O182 1.910 . S
O173 Zn170 1.933 . S
O173 C184 1.226 1_556 S
O174 Zn172 1.932 . S
O174 C184 1.307 . S
O175 Zn168 1.919 1_556 S
O175 C186 1.253 . S
O176 Zn170 1.941 . S
O176 C186 1.283 . S
O177 Zn170 1.965 . S
O177 C185 1.303 . S
O178 Zn171 1.938 1_556 S
O178 C185 1.247 . S
O179 Zn171 1.906 . S
O179 C187 1.304 . S
O180 Zn168 1.924 . S
O180 C188 1.311 . S
O181 Zn172 1.977 . S
O181 C187 1.272 . S
O182 Zn172 1.910 . S
O182 C188 1.231 . S
C183 O167 1.225 . S
C183 O189 1.298 . S
C184 O173 1.226 1_554 S
C184 O174 1.307 . S
C185 O177 1.303 . S
C185 O178 1.247 . S
C186 O175 1.253 . S
C186 O176 1.283 . S
C187 O179 1.304 . S
C187 O181 1.272 . S
C188 O180 1.311 . S
C188 O182 1.231 . S
O189 Zn171 1.953 . S
O189 C183 1.298 . S
C190 C191 1.369 . S
C190 C192 1.419 . S
C190 H194 0.930 . S
C191 C190 1.369 . S
C191 C200 1.429 . S
C192 C190 1.419 . S
C192 C193 1.363 . S
C192 H195 0.929 . S
C193 C192 1.363 . S
C193 C199 1.428 . S
H194 C190 0.930 . S
H195 C192 0.929 . S
S196 N197 1.613 . S
S196 N198 1.610 . S
N197 S196 1.613 . S
N197 C200 1.350 . S
N198 S196 1.610 . S
N198 C199 1.351 . S
C199 C193 1.428 . S
C199 N198 1.351 . S
C199 C200 1.434 . S
C200 C191 1.429 . S
C200 N197 1.350 . S
C200 C199 1.434 . S
C201 C202 1.369 . S
C201 C203 1.419 . S
C201 H205 0.930 . S
C202 C201 1.369 . S
C202 C211 1.429 1_554 S
C203 C201 1.419 . S
C203 C204 1.363 . S
C203 H206 0.929 . S
C204 C203 1.363 . S
C204 C210 1.428 1_554 S
H205 C201 0.930 . S
H206 C203 0.929 . S
S207 N208 1.613 . S
S207 N209 1.610 . S
N208 S207 1.613 . S
N208 C211 1.350 . S
N209 S207 1.610 . S
N209 C210 1.351 . S
C210 C204 1.428 1_556 S
C210 N209 1.351 . S
C210 C211 1.434 . S
C211 C202 1.429 1_556 S
C211 N208 1.350 . S
C211 C210 1.434 . S
C212 C213 1.369 . S
C212 C214 1.419 . S
C212 H216 0.930 . S
C213 C212 1.369 . S
C213 C222 1.429 . S
C214 C212 1.419 . S
C214 C215 1.363 . S
C214 H217 0.929 . S
C215 C214 1.363 . S
C215 C221 1.428 . S
H216 C212 0.930 . S
H217 C214 0.929 . S
S218 N219 1.611 1_545 S
S218 N220 1.609 1_545 S
N219 S218 1.611 1_565 S
N219 C222 1.350 . S
N220 S218 1.609 1_565 S
N220 C221 1.351 . S
C221 C215 1.428 . S
C221 N220 1.351 . S
C221 C222 1.434 . S
C222 C213 1.429 . S
C222 N219 1.350 . S
C222 C221 1.434 . S
C223 C224 1.369 . S
C223 C225 1.419 . S
C223 H227 0.930 . S
C224 C223 1.369 . S
C224 C233 1.429 . S
C225 C223 1.419 . S
C225 C226 1.363 . S
C225 H228 0.929 . S
C226 C225 1.363 . S
C226 C232 1.428 . S
H227 C223 0.930 . S
H228 C225 0.929 . S
S229 N230 1.613 . S
S229 N231 1.610 . S
N230 S229 1.613 . S
N230 C233 1.350 1_556 S
N231 S229 1.610 . S
N231 C232 1.351 1_556 S
C232 C226 1.428 . S
C232 N231 1.351 1_554 S
C232 C233 1.434 . S
C233 C224 1.429 . S
C233 N230 1.350 1_554 S
C233 C232 1.434 . S
C234 C235 1.369 . S
C234 C236 1.419 . S
C234 H238 0.930 1_455 S
C235 C234 1.369 . S
C235 C244 1.429 . S
C236 C234 1.419 . S
C236 C237 1.363 . S
C236 H239 0.929 . S
C237 C236 1.363 . S
C237 C243 1.428 . S
H238 C234 0.930 1_655 S
H239 C236 0.929 . S
S240 N241 1.613 . S
S240 N242 1.610 . S
N241 S240 1.613 . S
N241 C244 1.350 . S
N242 S240 1.610 . S
N242 C243 1.351 . S
C243 C237 1.428 . S
C243 N242 1.351 . S
C243 C244 1.434 . S
C244 C235 1.429 . S
C244 N241 1.350 . S
C244 C243 1.434 . S
C245 C246 1.369 . S
C245 C247 1.419 . S
C245 H249 0.930 . S
C246 C245 1.369 . S
C246 C255 1.429 . S
C247 C245 1.419 . S
C247 C248 1.363 . S
C247 H250 0.929 . S
C248 C247 1.363 . S
C248 C254 1.428 . S
H249 C245 0.930 . S
H250 C247 0.929 . S
S251 N252 1.613 . S
S251 N253 1.610 . S
N252 S251 1.613 . S
N252 C255 1.350 . S
N253 S251 1.610 . S
N253 C254 1.351 . S
C254 C248 1.428 . S
C254 N253 1.351 . S
C254 C255 1.434 . S
C255 C246 1.429 . S
C255 N252 1.350 . S
C255 C254 1.434 . S
C256 C257 1.369 . S
C256 C258 1.419 . S
C256 H260 0.930 . S
C257 C256 1.369 . S
C257 C266 1.429 . S
C258 C256 1.419 . S
C258 C259 1.363 . S
C258 H261 0.929 . S
C259 C258 1.363 . S
C259 C265 1.428 . S
H260 C256 0.930 . S
H261 C258 0.929 . S
S262 N263 1.613 . S
S262 N264 1.603 1_455 S
N263 S262 1.613 . S
N263 C266 1.350 1_455 S
N264 S262 1.603 1_655 S
N264 C265 1.361 . S
C265 C259 1.428 . S
C265 N264 1.361 . S
C265 C266 1.434 . S
C266 C257 1.429 . S
C266 N263 1.350 1_655 S
C266 C265 1.434 . S
C267 C268 1.369 . S
C267 C269 1.419 . S
C267 H271 0.930 . S
C268 C267 1.369 . S
C268 C277 1.429 . S
C269 C267 1.419 . S
C269 C270 1.363 . S
C269 H272 0.929 . S
C270 C269 1.363 . S
C270 C276 1.428 . S
H271 C267 0.930 . S
H272 C269 0.929 . S
S273 N274 1.613 . S
S273 N275 1.610 . S
N274 S273 1.613 . S
N274 C277 1.350 . S
N275 S273 1.610 . S
N275 C276 1.351 . S
C276 C270 1.428 . S
C276 N275 1.351 . S
C276 C277 1.434 . S
C277 C268 1.429 . S
C277 N274 1.350 . S
C277 C276 1.434 . S
C278 C279 1.369 . S
C278 C280 1.419 . S
C278 H282 0.930 . S
C279 C278 1.369 . S
C279 C288 1.429 . S
C280 C278 1.419 . S
C280 C281 1.363 . S
C280 H283 0.929 . S
C281 C280 1.363 . S
C281 C287 1.428 . S
H282 C278 0.930 . S
H283 C280 0.929 . S
S284 N285 1.613 . S
S284 N286 1.610 . S
N285 S284 1.613 . S
N285 C288 1.350 . S
N286 S284 1.610 . S
N286 C287 1.351 . S
C287 C281 1.428 . S
C287 N286 1.351 . S
C287 C288 1.434 . S
C288 C279 1.429 . S
C288 N285 1.350 . S
C288 C287 1.434 . S
C289 C290 1.369 . S
C289 C291 1.419 . S
C289 H293 0.930 . S
C290 C289 1.369 . S
C290 C299 1.429 . S
C291 C289 1.419 . S
C291 C292 1.363 . S
C291 H294 0.929 . S
C292 C291 1.363 . S
C292 C298 1.433 . S
H293 C289 0.930 . S
H294 C291 0.929 . S
S295 N296 1.613 . S
S295 N297 1.610 . S
N296 S295 1.613 . S
N296 C299 1.350 1_455 S
N297 S295 1.610 . S
N297 C298 1.345 1_455 S
C298 C292 1.433 . S
C298 N297 1.345 1_655 S
C298 C299 1.436 . S
C299 C290 1.429 . S
C299 N296 1.350 1_655 S
C299 C298 1.436 . S
C300 C301 1.369 . S
C300 C302 1.419 . S
C300 H304 0.930 . S
C301 C300 1.369 . S
C301 C310 1.429 . S
C302 C300 1.419 . S
C302 C303 1.363 . S
C302 H305 0.929 . S
C303 C302 1.363 . S
C303 C309 1.428 . S
H304 C300 0.930 . S
H305 C302 0.929 . S
S306 N307 1.613 . S
S306 N308 1.610 . S
N307 S306 1.613 . S
N307 C310 1.350 . S
N308 S306 1.610 . S
N308 C309 1.351 . S
C309 C303 1.428 . S
C309 N308 1.351 . S
C309 C310 1.434 . S
C310 C301 1.429 . S
C310 N307 1.350 . S
C310 C309 1.434 . S
C311 C312 1.369 . S
C311 C313 1.419 . S
C311 H315 0.930 . S
C312 C311 1.369 . S
C312 C321 1.429 . S
C313 C311 1.419 . S
C313 C314 1.363 . S
C313 H316 0.929 . S
C314 C313 1.363 . S
C314 C320 1.428 . S
H315 C311 0.930 . S
H316 C313 0.929 . S
S317 N318 1.613 . S
S317 N319 1.610 . S
N318 S317 1.613 . S
N318 C321 1.350 . S
N319 S317 1.610 . S
N319 C320 1.351 . S
C320 C314 1.428 . S
C320 N319 1.351 . S
C320 C321 1.434 . S
C321 C312 1.429 . S
C321 N318 1.350 . S
C321 C320 1.434 . S
C193 C161 1.693 . S
C191 C133 1.684 . S
C202 C25 1.616 . S
C204 C184 1.690 . S
C213 C61 1.622 . S
C215 C160 1.698 . S
C224 C97 1.686 . S
C226 C183 1.702 . S
C237 C164 1.704 . S
C235 C1 1.690 . S
C248 C186 1.684 . S
C246 C67 1.623 . S
C257 C103 1.772 . S
C259 C165 1.678 . S
C268 C109 1.655 . S
C270 C185 1.636 . S
C281 C188 1.687 . S
C279 C37 1.700 . S
C292 C163 1.684 . S
C290 C73 1.679 . S
C303 C187 1.702 . S
C301 C139 1.758 . S
C312 C31 1.606 . S
C314 C162 1.631 . S
