# Generated by pormake.
# Topology rtl, (3,6)-cn, num edge types: 1
# Building blocks:
#     Node 0, Type 0, BuildingBlock: BELTOD_clean_linker_0, # of connection points: 3
#     Node 1, Type 0, BuildingBlock: BELTOD_clean_linker_0, # of connection points: 3
#     Node 2, Type 0, BuildingBlock: BELTOD_clean_linker_0, # of connection points: 3
#     Node 3, Type 0, BuildingBlock: BELTOD_clean_linker_0, # of connection points: 3
#     Node 4, Type 1, BuildingBlock: KUMBUR_clean_sbu_1, # of connection points: 6
#     Node 5, Type 1, BuildingBlock: KUMBUR_clean_sbu_1, # of connection points: 6
#     Edge 6, Type (0, 1), BuildingBlock: EYOCIG_clean_linker_4, # of connection points: 2
#     Edge 7, Type (0, 1), BuildingBlock: EYOCIG_clean_linker_4, # of connection points: 2
#     Edge 8, Type (0, 1), BuildingBlock: EYOCIG_clean_linker_4, # of connection points: 2
#     Edge 9, Type (0, 1), BuildingBlock: EYOCIG_clean_linker_4, # of connection points: 2
#     Edge 10, Type (0, 1), BuildingBlock: EYOCIG_clean_linker_4, # of connection points: 2
#     Edge 11, Type (0, 1), BuildingBlock: EYOCIG_clean_linker_4, # of connection points: 2
#     Edge 12, Type (0, 1), BuildingBlock: EYOCIG_clean_linker_4, # of connection points: 2
#     Edge 13, Type (0, 1), BuildingBlock: EYOCIG_clean_linker_4, # of connection points: 2
#     Edge 14, Type (0, 1), BuildingBlock: EYOCIG_clean_linker_4, # of connection points: 2
#     Edge 15, Type (0, 1), BuildingBlock: EYOCIG_clean_linker_4, # of connection points: 2
#     Edge 16, Type (0, 1), BuildingBlock: EYOCIG_clean_linker_4, # of connection points: 2
#     Edge 17, Type (0, 1), BuildingBlock: EYOCIG_clean_linker_4, # of connection points: 2
# Relax obj value: 0.020
# Max RMSD: 0.113
# Mean RMSD: 0.071
data_MOF--net-rtl--node1-KUMBUR_clean_sbu_1--node2-BELTOD_clean_linker_0--edge1-EYOCIG_clean_linker_4
_symmetry_space_group_name_H-M    P1
_symmetry_Int_Tables_number       1
_symmetry_cell_setting            triclinic
loop_
_symmetry_equiv_pos_as_xyz
'x, y, z'
_cell_length_a     30.308875
_cell_length_b     30.992452
_cell_length_c     26.985412
_cell_angle_alpha  76.599938
_cell_angle_beta   99.719151
_cell_angle_gamma 90.380203
loop_
_atom_site_label
_atom_site_type_symbol
_atom_site_fract_x
_atom_site_fract_y
_atom_site_fract_z
_atom_type_partial_charge
P0 P 0.2991 0.9086 0.02387 0.0
H1 H 0.32937 0.93767 0.11876 0.0
H2 H 0.29034 0.95168 0.1863 0.0
H3 H 0.16837 0.90429 0.11235 0.0
H4 H 0.20751 0.89024 0.04444 0.0
H5 H 0.38398 0.88066 1.00146 0.0
H6 H 0.41891 0.80749 0.01021 0.0
H7 H 0.3091 0.74483 0.07874 0.0
H8 H 0.27414 0.8182 0.07024 0.0
H9 H 0.25048 0.98979 0.96415 0.0
H10 H 0.26014 0.85375 0.95238 0.0
O11 O 0.33791 0.94708 0.01864 0.0
H12 H 0.19612 0.00717 0.88294 0.0
H13 H 0.20602 0.87119 0.87151 0.0
C14 C 0.27112 0.91378 0.07612 0.0
C15 C 0.29429 0.93012 0.11707 0.0
C16 C 0.27205 0.93822 0.1555 0.0
C17 C 0.22646 0.92976 0.15365 0.0
C18 C 0.20353 0.91161 0.11393 0.0
C19 C 0.22584 0.90352 0.07534 0.0
C20 C 0.3267 0.85488 0.03576 0.0
C21 C 0.36768 0.85128 0.0191 0.0
C22 C 0.38756 0.80957 0.02394 0.0
C23 C 0.36644 0.77094 0.04499 0.0
C24 C 0.32588 0.77441 0.06248 0.0
C25 C 0.30603 0.81619 0.05778 0.0
C26 C 0.25964 0.92061 0.96409 0.0
C27 C 0.24101 0.96375 0.94409 0.0
C28 C 0.21 0.97363 0.89796 0.0
C29 C 0.19723 0.94037 0.8715 0.0
C30 C 0.21557 0.89722 0.89157 0.0
C31 C 0.24654 0.88733 0.93769 0.0
P32 P 0.70869 0.69296 0.65231 0.0
H33 H 0.72972 0.65751 0.56796 0.0
H34 H 0.68451 0.64692 0.48774 0.0
H35 H 0.56961 0.70751 0.52315 0.0
H36 H 0.61503 0.71793 0.6041 0.0
H37 H 0.79386 0.71723 0.70359 0.0
H38 H 0.83707 0.78442 0.6875 0.0
H39 H 0.7262 0.85149 0.57449 0.0
H40 H 0.68272 0.78366 0.59034 0.0
H41 H 0.66996 0.61264 0.70066 0.0
H42 H 0.67255 0.74934 0.71198 0.0
O43 O 0.74885 0.65311 0.66891 0.0
H44 H 0.62625 0.59445 0.77066 0.0
H45 H 0.62844 0.73095 0.78248 0.0
C46 C 0.67558 0.68809 0.5921 0.0
C47 C 0.69488 0.66864 0.55855 0.0
C48 C 0.66911 0.66263 0.51282 0.0
C49 C 0.62386 0.67647 0.49975 0.0
C50 C 0.60456 0.69667 0.53274 0.0
C51 C 0.63041 0.70258 0.57876 0.0
C52 C 0.73576 0.74515 0.6469 0.0
C53 C 0.77851 0.74647 0.67581 0.0
C54 C 0.80308 0.78481 0.66685 0.0
C55 C 0.78492 0.82237 0.62936 0.0
C56 C 0.74075 0.82246 0.60332 0.0
C57 C 0.71611 0.78383 0.61218 0.0
C58 C 0.67489 0.68207 0.70185 0.0
C59 C 0.66095 0.63872 0.71814 0.0
C60 C 0.63598 0.6284 0.75783 0.0
C61 C 0.62445 0.6614 0.78141 0.0
C62 C 0.63724 0.70517 0.76442 0.0
C63 C 0.66243 0.71556 0.72449 0.0
P64 P 0.80145 0.18243 0.07511 0.0
H65 H 0.82804 0.20822 0.97427 0.0
H66 H 0.8381 0.16623 0.91032 0.0
H67 H 0.78545 0.05055 1.00148 0.0
H68 H 0.77557 0.09269 0.06604 0.0
H69 H 0.78579 0.2648 0.10215 0.0
H70 H 0.71882 0.31031 0.09488 0.0
H71 H 0.63742 0.21464 0.03166 0.0
H72 H 0.70557 0.16852 0.03849 0.0
H73 H 0.88441 0.13615 0.12738 0.0
H74 H 0.74992 0.14478 0.15819 0.0
O75 O 0.84261 0.21846 0.07073 0.0
H76 H 0.9087 0.09198 0.21552 0.0
H77 H 0.77442 0.10019 0.24677 0.0
C78 C 0.80141 0.15338 0.02492 0.0
C79 C 0.81806 0.17403 0.98026 0.0
C80 C 0.82385 0.1501 0.94386 0.0
C81 C 0.81254 0.10541 0.95145 0.0
C82 C 0.79425 0.08509 0.99511 0.0
C83 C 0.78858 0.10909 0.03175 0.0
C84 C 0.7507 0.21393 0.06969 0.0
C85 C 0.75373 0.25351 0.08639 0.0
C86 C 0.71553 0.2794 0.08248 0.0
C87 C 0.67357 0.26584 0.06253 0.0
C88 C 0.66984 0.22559 0.04692 0.0
C89 C 0.70852 0.1995 0.05066 0.0
C90 C 0.81578 0.14453 0.13693 0.0
C91 C 0.86002 0.12795 0.1529 0.0
C92 C 0.87379 0.10262 0.20292 0.0
C93 C 0.8433 0.09335 0.23721 0.0
C94 C 0.79826 0.10727 0.22043 0.0
C95 C 0.78444 0.13287 0.17017 0.0
P96 P 0.39156 0.23928 0.49141 0.0
H97 H 0.42935 0.21361 0.60082 0.0
H98 H 0.4445 0.25502 0.66847 0.0
H99 H 0.38641 0.37389 0.55983 0.0
H100 H 0.37133 0.33226 0.4915 0.0
H101 H 0.36139 0.15356 0.47372 0.0
H102 H 0.28954 0.11691 0.47623 0.0
H103 H 0.23038 0.23439 0.50161 0.0
H104 H 0.30239 0.27116 0.49921 0.0
H105 H 0.47165 0.27992 0.46052 0.0
H106 H 0.33284 0.27689 0.39128 0.0
O107 O 0.43053 0.1983 0.50784 0.0
H108 H 0.4869 0.32931 0.38052 0.0
H109 H 0.34823 0.32645 0.31099 0.0
C110 C 0.39994 0.27002 0.54103 0.0
C111 C 0.41992 0.24856 0.59134 0.0
C112 C 0.42862 0.27215 0.62992 0.0
C113 C 0.41712 0.31741 0.61885 0.0
C114 C 0.39602 0.33895 0.56885 0.0
C115 C 0.38735 0.31525 0.53002 0.0
C116 C 0.33742 0.21474 0.48738 0.0
C117 C 0.33295 0.17162 0.47948 0.0
C118 C 0.29198 0.15073 0.48077 0.0
C119 C 0.25497 0.17292 0.48955 0.0
C120 C 0.25878 0.21674 0.49505 0.0
C121 C 0.29982 0.23764 0.49382 0.0
C122 C 0.40127 0.27459 0.4316 0.0
C123 C 0.44454 0.28975 0.42801 0.0
C124 C 0.45323 0.31791 0.38254 0.0
C125 C 0.41865 0.33134 0.34019 0.0
C126 C 0.37527 0.31628 0.34352 0.0
C127 C 0.36654 0.28803 0.3892 0.0
Tb128 Tb 0.04113 0.95869 0.5316 0.0
C129 C 0.93968 0.14738 0.5112 0.0
N130 N 0.98023 0.13003 0.53797 0.0
C131 C 0.01227 0.20156 0.51511 0.0
C132 C 0.93383 0.19266 0.4854 0.0
C133 C 0.01631 0.15663 0.54077 0.0
C134 C 0.97091 0.21965 0.4872 0.0
C135 C 0.86039 0.13703 0.48623 0.0
C136 C 0.9036 0.11982 0.51096 0.0
C137 C 0.85441 0.18201 0.46023 0.0
C138 C 0.89111 0.20971 0.45957 0.0
Tb139 Tb 0.98171 0.05669 0.58089 0.0
N140 N 0.91071 0.07642 0.53638 0.0
C141 C 0.82433 0.10879 0.4896 0.0
C142 C 0.87534 0.04927 0.54132 0.0
C143 C 0.83181 0.06482 0.51767 0.0
H144 H 0.04808 0.14386 0.56401 0.0
H145 H 0.80391 0.04308 0.52186 0.0
H146 H 0.97401 0.87188 0.54742 0.0
H147 H 0.21883 0.97125 0.59036 0.0
H148 H 0.8802 0.0161 0.56494 0.0
H149 H 0.79055 0.12082 0.47173 0.0
H150 H 0.14239 0.99911 0.54838 0.0
H151 H 0.04097 0.22241 0.51757 0.0
H152 H 0.82149 0.19579 0.44101 0.0
H153 H 0.88598 0.24441 0.4397 0.0
H154 H 0.98069 0.79316 0.59306 0.0
H155 H 0.96783 0.25458 0.46794 0.0
H156 H 0.23191 0.8931 0.63926 0.0
N157 N 0.04203 0.8852 0.57363 0.0
C158 C 0.08251 0.86751 0.60012 0.0
C159 C 0.00953 0.81381 0.59574 0.0
C160 C 0.08811 0.82212 0.62546 0.0
C161 C 1.00575 0.85884 0.57055 0.0
C162 C 0.05082 0.79538 0.62346 0.0
N163 N 0.11192 0.93842 0.57567 0.0
C164 C 0.14731 0.96556 0.57111 0.0
C165 C 0.16193 0.87731 0.62489 0.0
C166 C 0.11879 0.89485 0.6005 0.0
C167 C 0.19815 0.9054 0.62166 0.0
C168 C 0.19084 0.9496 0.59427 0.0
H169 H 0.05372 0.76037 0.64238 0.0
H170 H 0.13571 0.76996 0.67064 0.0
H171 H 0.20053 0.81818 0.66953 0.0
O172 O 0.07465 0.97471 0.46615 0.0
O173 O 0.05482 0.95562 0.61513 0.0
O174 O 0.04589 0.02749 0.62518 0.0
O175 O 0.03815 0.91379 0.4845 0.0
O176 O 0.06122 0.02775 0.50823 0.0
O177 O 0.05183 0.06501 0.57157 0.0
O178 O 0.947 0.04128 0.6449 0.0
O179 O 0.96865 0.05927 0.49776 0.0
O180 O 0.97668 0.98708 0.48811 0.0
O181 O 0.98482 0.10168 0.62819 0.0
O182 O 0.96201 0.98762 0.60457 0.0
O183 O 0.97112 0.95019 0.54136 0.0
C184 C 0.05917 0.98563 0.64292 0.0
C185 C 0.07123 0.92362 0.40735 0.0
C186 C 0.10888 0.92986 0.33285 0.0
C187 C 0.08506 0.89393 0.32026 0.0
C188 C 0.04802 0.88745 0.39373 0.0
C189 C 0.05485 0.87291 0.35051 0.0
C190 C 0.10194 0.94519 0.37641 0.0
C191 C 0.07145 0.05889 0.53362 0.0
C192 C 0.0616 0.93806 0.45317 0.0
C193 C 0.13077 0.80474 0.65106 0.0
C194 C 0.16766 0.83221 0.6505 0.0
C195 C 0.96232 0.0286 0.47109 0.0
C196 C 0.94924 0.09161 0.70372 0.0
C197 C 0.90886 0.08414 0.77595 0.0
C198 C 0.93244 0.11942 0.79072 0.0
C199 C 0.97217 0.12717 0.71919 0.0
C200 C 0.91729 0.06981 0.73247 0.0
C201 C 0.96389 0.14079 0.76248 0.0
C202 C 0.95069 0.9574 0.57822 0.0
C203 C 0.96023 0.07767 0.65839 0.0
H204 H 0.0901 0.88181 0.28695 0.0
H205 H 0.02413 0.87034 0.41637 0.0
H206 H 0.03671 0.84509 0.34047 0.0
H207 H 0.12033 0.97302 0.38627 0.0
H208 H 0.9263 0.13073 0.82416 0.0
H209 H 0.99696 0.14439 0.69805 0.0
H210 H 0.89911 0.04244 0.72105 0.0
H211 H 0.98187 0.16808 0.77413 0.0
Tb212 Tb 0.45782 0.48768 1.00656 0.0
C213 C 0.65439 0.55791 0.07609 0.0
N214 N 0.63406 0.52004 0.09575 0.0
C215 C 0.70323 0.47847 0.1074 0.0
C216 C 0.70008 0.55751 0.07138 0.0
C217 C 0.65798 0.48056 0.11191 0.0
C218 C 0.72436 0.51706 0.08696 0.0
C219 C 0.64982 0.63781 0.0436 0.0
C220 C 0.62946 0.59743 0.06177 0.0
C221 C 0.6952 0.63757 0.03853 0.0
C222 C 0.72023 0.59748 0.05217 0.0
Tb223 Tb 0.56073 0.52857 0.10439 0.0
N224 N 0.58555 0.59638 0.06704 0.0
C225 C 0.62423 0.67731 0.03234 0.0
C226 C 0.56103 0.63502 0.05787 0.0
C227 C 0.57977 0.67591 0.03994 0.0
H228 H 0.64282 0.45067 0.12975 0.0
H229 H 0.5601 0.70642 0.03285 0.0
H230 H 0.37467 0.56442 0.9801 0.0
H231 H 0.45992 0.30946 0.0754 0.0
H232 H 0.52755 0.63477 0.06598 0.0
H233 H 0.63872 0.70905 0.01888 0.0
H234 H 0.49085 0.38155 0.04068 0.0
H235 H 0.72197 0.44713 0.12041 0.0
H236 H 0.71136 0.66825 0.02462 0.0
H237 H 0.75529 0.59781 0.04841 0.0
H238 H 0.29562 0.56707 0.98984 0.0
H239 H 0.75951 0.51535 0.08405 0.0
H240 H 0.38183 0.30597 0.09131 0.0
N241 N 0.3844 0.49523 0.01485 0.0
C242 C 0.36456 0.45708 0.03463 0.0
C243 C 0.31475 0.53596 1.00301 0.0
C244 C 0.31889 0.45694 0.03941 0.0
C245 C 0.35996 0.53439 0.99835 0.0
C246 C 0.29415 0.49713 0.02377 0.0
N247 N 0.43372 0.41935 0.04318 0.0
C248 C 0.45822 0.38092 0.05092 0.0
C249 C 0.37002 0.37715 0.06696 0.0
C250 C 0.38991 0.4178 0.04883 0.0
C251 C 0.39595 0.33789 0.07782 0.0
C252 C 0.44012 0.33978 0.0692 0.0
H253 H 0.259 0.49842 0.02678 0.0
H254 H 0.26417 0.41597 0.06247 0.0
H255 H 0.30884 0.34599 0.08605 0.0
O256 O 0.46925 0.45284 0.94973 0.0
O257 O 0.45269 0.47399 0.08895 0.0
O258 O 0.52465 0.47067 0.13733 0.0
O259 O 0.41299 0.49991 0.93688 0.0
O260 O 0.52659 0.46088 0.01871 0.0
O261 O 0.56273 0.45846 0.1021 0.0
O262 O 0.5498 0.56334 0.16099 0.0
O263 O 0.56494 0.54092 0.02196 0.0
O264 O 0.49225 0.54729 0.9751 0.0
O265 O 0.60657 0.51676 0.17374 0.0
O266 O 0.4934 0.55964 0.09205 0.0
O267 O 0.45405 0.5573 0.01055 0.0
C268 C 0.48153 0.46324 0.13245 0.0
C269 C 0.41759 0.46593 0.8657 0.0
C270 C 0.42024 0.43035 0.79435 0.0
C271 C 0.38431 0.45793 0.76471 0.0
C272 C 0.38138 0.49303 0.8349 0.0
C273 C 0.36504 0.48904 0.78489 0.0
C274 C 0.43725 0.43416 0.84514 0.0
C275 C 0.55261 0.44093 0.06175 0.0
C276 C 0.43389 0.47248 0.91832 0.0
C277 C 0.29922 0.41671 0.05867 0.0
C278 C 0.32467 0.37687 0.0722 0.0
C279 C 0.53521 0.55535 0.97988 0.0
C280 C 0.60132 0.55154 0.24439 0.0
C281 C 0.59687 0.58849 0.31413 0.0
C282 C 0.63277 0.56147 0.34494 0.0
C283 C 0.63749 0.52505 0.27615 0.0
C284 C 0.5808 0.58361 0.26364 0.0
C285 C 0.65294 0.52998 0.32603 0.0
C286 C 0.46288 0.57515 0.05085 0.0
C287 C 0.58536 0.54403 0.19226 0.0
H288 H 0.37093 0.45529 0.72567 0.0
H289 H 0.36558 0.51773 0.84932 0.0
H290 H 0.33725 0.51018 0.76162 0.0
H291 H 0.46505 0.41278 0.86819 0.0
H292 H 0.64545 0.56487 0.38386 0.0
H293 H 0.65383 0.50011 0.26262 0.0
H294 H 0.55295 0.60446 0.23978 0.0
H295 H 0.68069 0.5093 0.35016 0.0
C296 C 0.17964 0.13102 0.5017 0.0
C297 C 0.21404 0.14993 0.49613 0.0
C298 C 0.14072 0.10747 0.51158 0.0
C299 C 0.10906 0.08552 0.522 0.0
C300 C 0.40185 0.69226 0.04751 0.0
C301 C 0.38544 0.72793 0.04654 0.0
C302 C 0.42153 0.6509 0.04777 0.0
C303 C 0.4399 0.61633 0.04819 0.0
C304 C 0.84215 0.88504 0.60587 0.0
C305 C 0.81382 0.85821 0.61422 0.0
C306 C 0.87916 0.91152 0.59631 0.0
C307 C 0.91183 0.93243 0.58799 0.0
C308 C 0.61131 0.32508 0.05883 0.0
C309 C 0.63562 0.29481 0.05805 0.0
C310 C 0.59003 0.36447 0.06166 0.0
C311 C 0.57368 0.39928 0.06331 0.0
C312 C 0.18547 0.94837 0.22594 0.0
C313 C 0.20372 0.93973 0.19276 0.0
C314 C 0.16312 0.95308 0.26648 0.0
C315 C 0.1409 0.94821 0.30042 0.0
C316 C 0.58256 0.63237 0.85966 0.0
C317 C 0.60142 0.64892 0.82453 0.0
C318 C 0.56396 0.60749 0.90114 0.0
C319 C 0.55032 0.58371 0.9368 0.0
C320 C 0.87935 0.05931 0.33388 0.0
C321 C 0.86006 0.07469 0.29075 0.0
C322 C 0.90672 0.04718 0.38264 0.0
C323 C 0.93208 0.03916 0.42313 0.0
C324 C 0.43537 0.35772 0.69596 0.0
C325 C 0.42645 0.34072 0.65969 0.0
C326 C 0.44095 0.37765 0.73861 0.0
C327 C 0.43724 0.39846 0.77043 0.0
C328 C 0.58284 0.65951 0.41241 0.0
C329 C 0.59793 0.669 0.4527 0.0
C330 C 0.57482 0.64217 0.3678 0.0
C331 C 0.57881 0.62103 0.33638 0.0
C332 C 0.83305 0.06662 0.88088 0.0
C333 C 0.82207 0.08065 0.91525 0.0
C334 C 0.85284 0.05983 0.83946 0.0
C335 C 0.87571 0.06498 0.80622 0.0
C336 C 0.43844 0.38512 0.25603 0.0
C337 C 0.42811 0.36062 0.29366 0.0
C338 C 0.45272 0.41306 0.21291 0.0
C339 C 0.46591 0.43598 0.17618 0.0
C340 C 0.13983 0.95772 0.78315 0.0
C341 C 0.16592 0.95043 0.82344 0.0
C342 C 0.11078 0.96607 0.73488 0.0
C343 C 0.08733 0.97412 0.6928 0.0
loop_
_geom_bond_atom_site_label_1
_geom_bond_atom_site_label_2
_geom_bond_distance
_geom_bond_site_symmetry_2
_ccdc_geom_bond_type
P0 O11 1.490 . S
P0 C14 1.812 . S
P0 C20 1.803 . S
P0 C26 1.819 1_554 S
H1 C15 0.941 . S
H2 C16 0.939 . S
H3 C18 0.940 . S
H4 C19 0.940 . S
H5 C21 0.939 1_556 S
H6 C22 0.942 . S
H7 C24 0.940 . S
H8 C25 0.939 . S
H9 C27 0.941 . S
H10 C31 0.939 . S
O11 P0 1.490 . S
H12 C28 0.916 1_545 S
H13 C30 0.940 . S
C14 P0 1.812 . S
C14 C15 1.389 . S
C14 C19 1.391 . S
C15 H1 0.941 . S
C15 C14 1.389 . S
C15 C16 1.397 . S
C16 H2 0.939 . S
C16 C15 1.397 . S
C16 C17 1.378 . S
C17 C16 1.378 . S
C17 C18 1.378 . S
C18 H3 0.940 . S
C18 C17 1.378 . S
C18 C19 1.396 . S
C19 H4 0.940 . S
C19 C14 1.391 . S
C19 C18 1.396 . S
C20 P0 1.803 . S
C20 C21 1.378 . S
C20 C25 1.400 . S
C21 H5 0.939 1_554 S
C21 C20 1.378 . S
C21 C22 1.361 . S
C22 H6 0.942 . S
C22 C21 1.361 . S
C22 C23 1.369 . S
C23 C22 1.369 . S
C23 C24 1.404 . S
C24 H7 0.940 . S
C24 C23 1.404 . S
C24 C25 1.389 . S
C25 H8 0.939 . S
C25 C20 1.400 . S
C25 C24 1.389 . S
C26 P0 1.819 1_556 S
C26 C27 1.391 . S
C26 C31 1.391 . S
C27 H9 0.941 . S
C27 C26 1.391 . S
C27 C28 1.396 . S
C28 H12 0.916 1_565 S
C28 C27 1.396 . S
C28 C29 1.397 . S
C29 C28 1.397 . S
C29 C30 1.385 . S
C30 H13 0.940 . S
C30 C29 1.385 . S
C30 C31 1.388 . S
C31 H10 0.939 . S
C31 C26 1.391 . S
C31 C30 1.388 . S
P32 O43 1.490 . S
P32 C46 1.812 . S
P32 C52 1.803 . S
P32 C58 1.819 . S
H33 C47 0.941 . S
H34 C48 0.939 . S
H35 C50 0.940 . S
H36 C51 0.940 . S
H37 C53 0.939 . S
H38 C54 0.942 . S
H39 C56 0.940 . S
H40 C57 0.939 . S
H41 C59 0.941 . S
H42 C63 0.939 . S
O43 P32 1.490 . S
H44 C60 0.939 . S
H45 C62 0.940 . S
C46 P32 1.812 . S
C46 C47 1.389 . S
C46 C51 1.391 . S
C47 H33 0.941 . S
C47 C46 1.389 . S
C47 C48 1.397 . S
C48 H34 0.939 . S
C48 C47 1.397 . S
C48 C49 1.378 . S
C49 C48 1.378 . S
C49 C50 1.378 . S
C50 H35 0.940 . S
C50 C49 1.378 . S
C50 C51 1.396 . S
C51 H36 0.940 . S
C51 C46 1.391 . S
C51 C50 1.396 . S
C52 P32 1.803 . S
C52 C53 1.378 . S
C52 C57 1.400 . S
C53 H37 0.939 . S
C53 C52 1.378 . S
C53 C54 1.361 . S
C54 H38 0.942 . S
C54 C53 1.361 . S
C54 C55 1.369 . S
C55 C54 1.369 . S
C55 C56 1.404 . S
C56 H39 0.940 . S
C56 C55 1.404 . S
C56 C57 1.389 . S
C57 H40 0.939 . S
C57 C52 1.400 . S
C57 C56 1.389 . S
C58 P32 1.819 . S
C58 C59 1.391 . S
C58 C63 1.391 . S
C59 H41 0.941 . S
C59 C58 1.391 . S
C59 C60 1.396 . S
C60 H44 0.939 . S
C60 C59 1.396 . S
C60 C61 1.397 . S
C61 C60 1.397 . S
C61 C62 1.385 . S
C62 H45 0.940 . S
C62 C61 1.385 . S
C62 C63 1.388 . S
C63 H42 0.939 . S
C63 C58 1.391 . S
C63 C62 1.388 . S
P64 O75 1.490 . S
P64 C78 1.812 . S
P64 C84 1.803 . S
P64 C90 1.819 . S
H65 C79 0.941 . S
H66 C80 0.939 . S
H67 C82 0.940 . S
H68 C83 0.940 . S
H69 C85 0.939 . S
H70 C86 0.942 . S
H71 C88 0.940 . S
H72 C89 0.939 . S
H73 C91 0.941 . S
H74 C95 0.939 . S
O75 P64 1.490 . S
H76 C92 0.939 . S
H77 C94 0.940 . S
C78 P64 1.812 . S
C78 C79 1.389 1_554 S
C78 C83 1.391 . S
C79 H65 0.941 . S
C79 C78 1.389 1_556 S
C79 C80 1.397 . S
C80 H66 0.939 . S
C80 C79 1.397 . S
C80 C81 1.378 . S
C81 C80 1.378 . S
C81 C82 1.378 . S
C82 H67 0.940 . S
C82 C81 1.378 . S
C82 C83 1.396 1_556 S
C83 H68 0.940 . S
C83 C78 1.391 . S
C83 C82 1.396 1_554 S
C84 P64 1.803 . S
C84 C85 1.378 . S
C84 C89 1.400 . S
C85 H69 0.939 . S
C85 C84 1.378 . S
C85 C86 1.361 . S
C86 H70 0.942 . S
C86 C85 1.361 . S
C86 C87 1.369 . S
C87 C86 1.369 . S
C87 C88 1.404 . S
C88 H71 0.940 . S
C88 C87 1.404 . S
C88 C89 1.389 . S
C89 H72 0.939 . S
C89 C84 1.400 . S
C89 C88 1.389 . S
C90 P64 1.819 . S
C90 C91 1.391 . S
C90 C95 1.391 . S
C91 H73 0.941 . S
C91 C90 1.391 . S
C91 C92 1.396 . S
C92 H76 0.939 . S
C92 C91 1.396 . S
C92 C93 1.397 . S
C93 C92 1.397 . S
C93 C94 1.385 . S
C94 H77 0.940 . S
C94 C93 1.385 . S
C94 C95 1.388 . S
C95 H74 0.939 . S
C95 C90 1.391 . S
C95 C94 1.388 . S
P96 O107 1.490 . S
P96 C110 1.812 . S
P96 C116 1.803 . S
P96 C122 1.819 . S
H97 C111 0.941 . S
H98 C112 0.939 . S
H99 C114 0.940 . S
H100 C115 0.940 . S
H101 C117 0.939 . S
H102 C118 0.942 . S
H103 C120 0.940 . S
H104 C121 0.939 . S
H105 C123 0.941 . S
H106 C127 0.939 . S
O107 P96 1.490 . S
H108 C124 0.939 . S
H109 C126 0.940 . S
C110 P96 1.812 . S
C110 C111 1.389 . S
C110 C115 1.391 . S
C111 H97 0.941 . S
C111 C110 1.389 . S
C111 C112 1.397 . S
C112 H98 0.939 . S
C112 C111 1.397 . S
C112 C113 1.378 . S
C113 C112 1.378 . S
C113 C114 1.378 . S
C114 H99 0.940 . S
C114 C113 1.378 . S
C114 C115 1.396 . S
C115 H100 0.940 . S
C115 C110 1.391 . S
C115 C114 1.396 . S
C116 P96 1.803 . S
C116 C117 1.378 . S
C116 C121 1.400 . S
C117 H101 0.939 . S
C117 C116 1.378 . S
C117 C118 1.361 . S
C118 H102 0.942 . S
C118 C117 1.361 . S
C118 C119 1.369 . S
C119 C118 1.369 . S
C119 C120 1.404 . S
C120 H103 0.940 . S
C120 C119 1.404 . S
C120 C121 1.389 . S
C121 H104 0.939 . S
C121 C116 1.400 . S
C121 C120 1.389 . S
C122 P96 1.819 . S
C122 C123 1.391 . S
C122 C127 1.391 . S
C123 H105 0.941 . S
C123 C122 1.391 . S
C123 C124 1.396 . S
C124 H108 0.939 . S
C124 C123 1.396 . S
C124 C125 1.397 . S
C125 C124 1.397 . S
C125 C126 1.385 . S
C126 H109 0.940 . S
C126 C125 1.385 . S
C126 C127 1.388 . S
C127 H106 0.939 . S
C127 C122 1.391 . S
C127 C126 1.388 . S
Tb128 N157 2.617 . S
Tb128 N163 2.572 . S
Tb128 O172 2.465 . S
Tb128 O173 2.387 . S
Tb128 O175 2.428 . S
Tb128 O176 2.308 1_565 S
Tb128 O180 2.349 1_465 S
Tb128 O183 2.393 1_455 S
Tb128 C192 2.802 . S
C129 N130 1.379 . S
C129 C132 1.416 . S
C129 C136 1.424 . S
N130 C129 1.379 . S
N130 C133 1.342 . S
N130 Tb139 2.617 . S
C131 C133 1.390 . S
C131 C134 1.339 . S
C131 H151 0.930 1_655 S
C132 C129 1.416 . S
C132 C134 1.416 . S
C132 C138 1.448 . S
C133 N130 1.342 . S
C133 C131 1.390 . S
C133 H144 0.922 1_655 S
C134 C131 1.339 . S
C134 C132 1.416 . S
C134 H155 0.930 . S
C135 C136 1.413 . S
C135 C137 1.427 . S
C135 C141 1.416 . S
C136 C129 1.424 . S
C136 C135 1.413 . S
C136 N140 1.361 . S
C137 C135 1.427 . S
C137 C138 1.328 . S
C137 H152 0.929 . S
C138 C132 1.448 . S
C138 C137 1.328 . S
C138 H153 0.930 . S
Tb139 N130 2.617 . S
Tb139 N140 2.572 . S
Tb139 O174 2.349 1_655 S
Tb139 O177 2.393 1_655 S
Tb139 O178 2.465 . S
Tb139 O179 2.387 . S
Tb139 O181 2.428 . S
Tb139 O182 2.308 1_545 S
Tb139 C203 2.802 . S
N140 C136 1.361 . S
N140 Tb139 2.572 . S
N140 C142 1.340 . S
C141 C135 1.416 . S
C141 C143 1.332 . S
C141 H149 0.931 . S
C142 N140 1.340 . S
C142 C143 1.407 . S
C142 H148 0.930 . S
C143 C141 1.332 . S
C143 C142 1.407 . S
C143 H145 0.929 . S
H144 C133 0.922 1_455 S
H145 C143 0.929 . S
H146 C161 0.930 1_655 S
H147 C168 0.929 . S
H148 C142 0.930 . S
H149 C141 0.931 . S
H150 C164 0.930 . S
H151 C131 0.930 1_455 S
H152 C137 0.929 . S
H153 C138 0.930 . S
H154 C159 0.930 1_655 S
H155 C134 0.930 . S
H156 C167 0.931 . S
N157 Tb128 2.617 . S
N157 C158 1.379 . S
N157 C161 1.334 . S
C158 N157 1.379 . S
C158 C160 1.416 . S
C158 C166 1.424 . S
C159 H154 0.930 1_455 S
C159 C161 1.390 . S
C159 C162 1.339 . S
C160 C158 1.416 . S
C160 C162 1.416 . S
C160 C193 1.448 . S
C161 H146 0.930 1_455 S
C161 N157 1.334 . S
C161 C159 1.390 . S
C162 C159 1.339 . S
C162 C160 1.416 . S
C162 H169 0.930 . S
N163 Tb128 2.572 . S
N163 C164 1.340 . S
N163 C166 1.361 . S
C164 H150 0.930 . S
C164 N163 1.340 . S
C164 C168 1.407 . S
C165 C166 1.413 . S
C165 C167 1.416 . S
C165 C194 1.427 . S
C166 C158 1.424 . S
C166 N163 1.361 . S
C166 C165 1.413 . S
C167 H156 0.931 . S
C167 C165 1.416 . S
C167 C168 1.332 . S
C168 H147 0.929 . S
C168 C164 1.407 . S
C168 C167 1.332 . S
H169 C162 0.930 . S
H170 C193 0.930 . S
H171 C194 0.929 . S
O172 Tb128 2.465 . S
O172 C192 1.264 . S
O173 Tb128 2.387 . S
O173 C184 1.264 . S
O174 Tb139 2.349 1_455 S
O174 C184 1.243 1_545 S
O175 Tb128 2.428 . S
O175 C192 1.256 . S
O176 Tb128 2.308 1_545 S
O176 C191 1.266 . S
O177 Tb139 2.393 1_455 S
O177 C191 1.248 . S
O178 Tb139 2.465 . S
O178 C203 1.264 . S
O179 Tb139 2.387 . S
O179 C195 1.264 . S
O180 Tb128 2.349 1_645 S
O180 C195 1.243 . S
O181 Tb139 2.428 . S
O181 C203 1.256 . S
O182 Tb139 2.308 1_565 S
O182 C202 1.266 . S
O183 Tb128 2.393 1_655 S
O183 C202 1.248 . S
C184 O173 1.264 . S
C184 O174 1.243 1_565 S
C185 C188 1.399 . S
C185 C190 1.383 . S
C185 C192 1.496 . S
C186 C187 1.399 . S
C186 C190 1.389 . S
C187 C186 1.399 . S
C187 C189 1.380 . S
C187 H204 0.929 . S
C188 C185 1.399 . S
C188 C189 1.392 . S
C188 H205 0.929 . S
C189 C187 1.380 . S
C189 C188 1.392 . S
C189 H206 0.929 . S
C190 C185 1.383 . S
C190 C186 1.389 . S
C190 H207 0.931 . S
C191 O176 1.266 . S
C191 O177 1.248 . S
C192 Tb128 2.802 . S
C192 O172 1.264 . S
C192 O175 1.256 . S
C192 C185 1.496 . S
C193 C160 1.448 . S
C193 H170 0.930 . S
C193 C194 1.328 . S
C194 C165 1.427 . S
C194 H171 0.929 . S
C194 C193 1.328 . S
C195 O179 1.264 . S
C195 O180 1.243 . S
C196 C199 1.399 . S
C196 C200 1.383 . S
C196 C203 1.496 . S
C197 C198 1.399 . S
C197 C200 1.389 . S
C198 C197 1.399 . S
C198 C201 1.380 . S
C198 H208 0.929 . S
C199 C196 1.399 . S
C199 C201 1.392 . S
C199 H209 0.929 . S
C200 C196 1.383 . S
C200 C197 1.389 . S
C200 H210 0.931 . S
C201 C198 1.380 . S
C201 C199 1.392 . S
C201 H211 0.929 . S
C202 O182 1.266 . S
C202 O183 1.248 . S
C203 Tb139 2.802 . S
C203 O178 1.264 . S
C203 O181 1.256 . S
C203 C196 1.496 . S
H204 C187 0.929 . S
H205 C188 0.929 . S
H206 C189 0.929 . S
H207 C190 0.931 . S
H208 C198 0.929 . S
H209 C199 0.929 . S
H210 C200 0.931 . S
H211 C201 0.929 . S
Tb212 N241 2.617 1_556 S
Tb212 N247 2.572 1_556 S
Tb212 O256 2.465 . S
Tb212 O257 2.387 1_556 S
Tb212 O259 2.428 . S
Tb212 O260 2.308 1_556 S
Tb212 O264 2.349 . S
Tb212 O267 2.393 1_556 S
Tb212 C276 2.802 . S
C213 N214 1.379 . S
C213 C216 1.416 . S
C213 C220 1.424 . S
N214 C213 1.379 . S
N214 C217 1.334 . S
N214 Tb223 2.617 . S
C215 C217 1.390 . S
C215 C218 1.339 . S
C215 H235 0.930 . S
C216 C213 1.416 . S
C216 C218 1.416 . S
C216 C222 1.448 . S
C217 N214 1.334 . S
C217 C215 1.390 . S
C217 H228 0.930 . S
C218 C215 1.339 . S
C218 C216 1.416 . S
C218 H239 0.930 . S
C219 C220 1.413 . S
C219 C221 1.427 . S
C219 C225 1.416 . S
C220 C213 1.424 . S
C220 C219 1.413 . S
C220 N224 1.361 . S
C221 C219 1.427 . S
C221 C222 1.328 . S
C221 H236 0.929 . S
C222 C216 1.448 . S
C222 C221 1.328 . S
C222 H237 0.930 . S
Tb223 N214 2.617 . S
Tb223 N224 2.572 . S
Tb223 O258 2.349 . S
Tb223 O261 2.393 . S
Tb223 O262 2.465 . S
Tb223 O263 2.387 . S
Tb223 O265 2.428 . S
Tb223 O266 2.308 . S
Tb223 C287 2.802 . S
N224 C220 1.361 . S
N224 Tb223 2.572 . S
N224 C226 1.340 . S
C225 C219 1.416 . S
C225 C227 1.332 . S
C225 H233 0.931 . S
C226 N224 1.340 . S
C226 C227 1.407 . S
C226 H232 0.930 . S
C227 C225 1.332 . S
C227 C226 1.407 . S
C227 H229 0.929 . S
H228 C217 0.930 . S
H229 C227 0.929 . S
H230 C245 0.930 . S
H231 C252 0.929 . S
H232 C226 0.930 . S
H233 C225 0.931 . S
H234 C248 0.930 . S
H235 C215 0.930 . S
H236 C221 0.929 . S
H237 C222 0.930 . S
H238 C243 0.930 . S
H239 C218 0.930 . S
H240 C251 0.931 . S
N241 Tb212 2.617 1_554 S
N241 C242 1.379 . S
N241 C245 1.334 1_554 S
C242 N241 1.379 . S
C242 C244 1.416 . S
C242 C250 1.424 . S
C243 H238 0.930 . S
C243 C245 1.390 . S
C243 C246 1.339 1_556 S
C244 C242 1.416 . S
C244 C246 1.416 . S
C244 C277 1.448 . S
C245 H230 0.930 . S
C245 N241 1.334 1_556 S
C245 C243 1.390 . S
C246 C243 1.339 1_554 S
C246 C244 1.416 . S
C246 H253 0.930 . S
N247 Tb212 2.572 1_554 S
N247 C248 1.340 . S
N247 C250 1.361 . S
C248 H234 0.930 . S
C248 N247 1.340 . S
C248 C252 1.407 . S
C249 C250 1.413 . S
C249 C251 1.416 . S
C249 C278 1.427 . S
C250 C242 1.424 . S
C250 N247 1.361 . S
C250 C249 1.413 . S
C251 H240 0.931 . S
C251 C249 1.416 . S
C251 C252 1.332 . S
C252 H231 0.929 . S
C252 C248 1.407 . S
C252 C251 1.332 . S
H253 C246 0.930 . S
H254 C277 0.930 . S
H255 C278 0.929 . S
O256 Tb212 2.465 . S
O256 C276 1.264 . S
O257 Tb212 2.387 1_554 S
O257 C268 1.264 . S
O258 Tb223 2.349 . S
O258 C268 1.243 . S
O259 Tb212 2.428 . S
O259 C276 1.256 . S
O260 Tb212 2.308 1_554 S
O260 C275 1.266 . S
O261 Tb223 2.393 . S
O261 C275 1.248 . S
O262 Tb223 2.465 . S
O262 C287 1.264 . S
O263 Tb223 2.387 . S
O263 C279 1.264 1_554 S
O264 Tb212 2.349 . S
O264 C279 1.243 . S
O265 Tb223 2.428 . S
O265 C287 1.256 . S
O266 Tb223 2.308 . S
O266 C286 1.266 . S
O267 Tb212 2.393 1_554 S
O267 C286 1.248 . S
C268 O257 1.264 . S
C268 O258 1.243 . S
C269 C272 1.399 . S
C269 C274 1.383 . S
C269 C276 1.496 . S
C270 C271 1.399 . S
C270 C274 1.389 . S
C271 C270 1.399 . S
C271 C273 1.380 . S
C271 H288 0.929 . S
C272 C269 1.399 . S
C272 C273 1.392 . S
C272 H289 0.929 . S
C273 C271 1.380 . S
C273 C272 1.392 . S
C273 H290 0.929 . S
C274 C269 1.383 . S
C274 C270 1.389 . S
C274 H291 0.931 . S
C275 O260 1.266 . S
C275 O261 1.248 . S
C276 Tb212 2.802 . S
C276 O256 1.264 . S
C276 O259 1.256 . S
C276 C269 1.496 . S
C277 C244 1.448 . S
C277 H254 0.930 . S
C277 C278 1.328 . S
C278 C249 1.427 . S
C278 H255 0.929 . S
C278 C277 1.328 . S
C279 O263 1.264 1_556 S
C279 O264 1.243 . S
C280 C283 1.399 . S
C280 C284 1.383 . S
C280 C287 1.496 . S
C281 C282 1.399 . S
C281 C284 1.389 . S
C282 C281 1.399 . S
C282 C285 1.380 . S
C282 H292 0.929 . S
C283 C280 1.399 . S
C283 C285 1.392 . S
C283 H293 0.929 . S
C284 C280 1.383 . S
C284 C281 1.389 . S
C284 H294 0.931 . S
C285 C282 1.380 . S
C285 C283 1.392 . S
C285 H295 0.929 . S
C286 O266 1.266 . S
C286 O267 1.248 . S
C287 Tb223 2.802 . S
C287 O262 1.264 . S
C287 O265 1.256 . S
C287 C280 1.496 . S
H288 C271 0.929 . S
H289 C272 0.929 . S
H290 C273 0.929 . S
H291 C274 0.931 . S
H292 C282 0.929 . S
H293 C283 0.929 . S
H294 C284 0.931 . S
H295 C285 0.929 . S
C296 C297 1.170 . S
C296 C298 1.380 . S
C297 C296 1.170 . S
C298 C296 1.380 . S
C298 C299 1.170 . S
C299 C298 1.170 . S
C300 C301 1.170 . S
C300 C302 1.380 . S
C301 C300 1.170 . S
C302 C300 1.380 . S
C302 C303 1.170 . S
C303 C302 1.170 . S
C304 C305 1.170 . S
C304 C306 1.380 . S
C305 C304 1.170 . S
C306 C304 1.380 . S
C306 C307 1.170 . S
C307 C306 1.170 . S
C308 C309 1.170 . S
C308 C310 1.380 . S
C309 C308 1.170 . S
C310 C308 1.380 . S
C310 C311 1.170 . S
C311 C310 1.170 . S
C312 C313 1.170 . S
C312 C314 1.380 . S
C313 C312 1.170 . S
C314 C312 1.380 . S
C314 C315 1.170 . S
C315 C314 1.170 . S
C316 C317 1.170 . S
C316 C318 1.380 . S
C317 C316 1.170 . S
C318 C316 1.380 . S
C318 C319 1.170 . S
C319 C318 1.170 . S
C320 C321 1.170 . S
C320 C322 1.380 . S
C321 C320 1.170 . S
C322 C320 1.380 . S
C322 C323 1.170 . S
C323 C322 1.170 . S
C324 C325 1.170 . S
C324 C326 1.380 . S
C325 C324 1.170 . S
C326 C324 1.380 . S
C326 C327 1.170 . S
C327 C326 1.170 . S
C328 C329 1.170 . S
C328 C330 1.380 . S
C329 C328 1.170 . S
C330 C328 1.380 . S
C330 C331 1.170 . S
C331 C330 1.170 . S
C332 C333 1.170 . S
C332 C334 1.380 . S
C333 C332 1.170 . S
C334 C332 1.380 . S
C334 C335 1.170 . S
C335 C334 1.170 . S
C336 C337 1.170 . S
C336 C338 1.380 . S
C337 C336 1.170 . S
C338 C336 1.380 . S
C338 C339 1.170 . S
C339 C338 1.170 . S
C340 C341 1.170 . S
C340 C342 1.380 . S
C341 C340 1.170 . S
C342 C340 1.380 . S
C342 C343 1.170 . S
C343 C342 1.170 . S
C299 C191 1.644 . S
C297 C119 1.639 . S
C301 C23 1.625 . S
C303 C286 1.598 . S
C305 C55 1.554 . S
C307 C202 1.632 . S
C309 C87 1.518 . S
C311 C275 1.618 . S
C315 C186 1.426 . S
C313 C17 1.534 . S
C319 C279 1.610 . S
C317 C61 1.552 . S
C321 C93 1.519 . S
C323 C195 1.616 . S
C325 C113 1.512 . S
C327 C270 1.370 . S
C331 C281 1.427 . S
C329 C49 1.499 . S
C335 C197 1.390 . S
C333 C81 1.480 . S
C339 C268 1.613 . S
C337 C125 1.595 . S
C341 C29 1.623 . S
C343 C184 1.619 . S
