# Generated by pormake.
# Topology zzz, (3,6)-cn, num edge types: 1
# Building blocks:
#     Node 0, Type 0, BuildingBlock: KAKCAD_clean_linker_0, # of connection points: 3
#     Node 1, Type 0, BuildingBlock: KAKCAD_clean_linker_0, # of connection points: 3
#     Node 2, Type 0, BuildingBlock: KAKCAD_clean_linker_0, # of connection points: 3
#     Node 3, Type 0, BuildingBlock: KAKCAD_clean_linker_0, # of connection points: 3
#     Node 4, Type 0, BuildingBlock: KAKCAD_clean_linker_0, # of connection points: 3
#     Node 5, Type 0, BuildingBlock: KAKCAD_clean_linker_0, # of connection points: 3
#     Node 6, Type 0, BuildingBlock: KAKCAD_clean_linker_0, # of connection points: 3
#     Node 7, Type 0, BuildingBlock: KAKCAD_clean_linker_0, # of connection points: 3
#     Node 8, Type 1, BuildingBlock: CIFDUS_clean_sbu_1, # of connection points: 6
#     Node 9, Type 1, BuildingBlock: CIFDUS_clean_sbu_1, # of connection points: 6
#     Node 10, Type 1, BuildingBlock: CIFDUS_clean_sbu_1, # of connection points: 6
#     Node 11, Type 1, BuildingBlock: CIFDUS_clean_sbu_1, # of connection points: 6
#     Edge 12, Type (0, 1), BuildingBlock: MIFKUJ_clean_linker_0, # of connection points: 2
#     Edge 13, Type (0, 1), BuildingBlock: MIFKUJ_clean_linker_0, # of connection points: 2
#     Edge 14, Type (0, 1), BuildingBlock: MIFKUJ_clean_linker_0, # of connection points: 2
#     Edge 15, Type (0, 1), BuildingBlock: MIFKUJ_clean_linker_0, # of connection points: 2
#     Edge 16, Type (0, 1), BuildingBlock: MIFKUJ_clean_linker_0, # of connection points: 2
#     Edge 17, Type (0, 1), BuildingBlock: MIFKUJ_clean_linker_0, # of connection points: 2
#     Edge 18, Type (0, 1), BuildingBlock: MIFKUJ_clean_linker_0, # of connection points: 2
#     Edge 19, Type (0, 1), BuildingBlock: MIFKUJ_clean_linker_0, # of connection points: 2
#     Edge 20, Type (0, 1), BuildingBlock: MIFKUJ_clean_linker_0, # of connection points: 2
#     Edge 21, Type (0, 1), BuildingBlock: MIFKUJ_clean_linker_0, # of connection points: 2
#     Edge 22, Type (0, 1), BuildingBlock: MIFKUJ_clean_linker_0, # of connection points: 2
#     Edge 23, Type (0, 1), BuildingBlock: MIFKUJ_clean_linker_0, # of connection points: 2
#     Edge 24, Type (0, 1), BuildingBlock: MIFKUJ_clean_linker_0, # of connection points: 2
#     Edge 25, Type (0, 1), BuildingBlock: MIFKUJ_clean_linker_0, # of connection points: 2
#     Edge 26, Type (0, 1), BuildingBlock: MIFKUJ_clean_linker_0, # of connection points: 2
#     Edge 27, Type (0, 1), BuildingBlock: MIFKUJ_clean_linker_0, # of connection points: 2
#     Edge 28, Type (0, 1), BuildingBlock: MIFKUJ_clean_linker_0, # of connection points: 2
#     Edge 29, Type (0, 1), BuildingBlock: MIFKUJ_clean_linker_0, # of connection points: 2
#     Edge 30, Type (0, 1), BuildingBlock: MIFKUJ_clean_linker_0, # of connection points: 2
#     Edge 31, Type (0, 1), BuildingBlock: MIFKUJ_clean_linker_0, # of connection points: 2
#     Edge 32, Type (0, 1), BuildingBlock: MIFKUJ_clean_linker_0, # of connection points: 2
#     Edge 33, Type (0, 1), BuildingBlock: MIFKUJ_clean_linker_0, # of connection points: 2
#     Edge 34, Type (0, 1), BuildingBlock: MIFKUJ_clean_linker_0, # of connection points: 2
#     Edge 35, Type (0, 1), BuildingBlock: MIFKUJ_clean_linker_0, # of connection points: 2
# Relax obj value: 0.306
# Max RMSD: 0.220
# Mean RMSD: 0.206
data_MOF--net-zzz--node1-CIFDUS_clean_sbu_1--node2-KAKCAD_clean_linker_0--edge1-MIFKUJ_clean_linker_0
_symmetry_space_group_name_H-M    P1
_symmetry_Int_Tables_number       1
_symmetry_cell_setting            triclinic
loop_
_symmetry_equiv_pos_as_xyz
'x, y, z'
_cell_length_a     68.320524
_cell_length_b     72.669657
_cell_length_c     26.255645
_cell_angle_alpha  89.885003
_cell_angle_beta   89.996007
_cell_angle_gamma 88.357174
loop_
_atom_site_label
_atom_site_type_symbol
_atom_site_fract_x
_atom_site_fract_y
_atom_site_fract_z
_atom_type_partial_charge
C0 C 0.80552 0.62324 0.97624 0.0
C1 C 0.82473 0.61615 0.98179 0.0
C2 C 0.79229 0.62248 0.01713 0.0
C3 C 0.79793 0.61404 0.06358 0.0
C4 C 0.81741 0.60735 0.06854 0.0
C5 C 0.8306 0.60864 0.02867 0.0
C6 C 0.78353 0.61005 0.10489 0.0
C7 C 0.76407 0.60592 0.09358 0.0
C8 C 0.75184 0.59786 0.13019 0.0
C9 C 0.76001 0.59258 0.17806 0.0
C10 C 0.77957 0.59694 0.18995 0.0
C11 C 0.79019 0.60722 0.15483 0.0
C12 C 0.791 0.58862 0.23338 0.0
C13 C 0.78621 0.59168 0.2848 0.0
C14 C 0.80891 0.57948 0.22218 0.0
C15 C 0.82215 0.57445 0.26048 0.0
C16 C 0.81785 0.57775 0.31217 0.0
C17 C 0.73131 0.59376 0.1145 0.0
C18 C 0.72021 0.60701 0.08681 0.0
C19 C 0.72365 0.57614 0.12044 0.0
C20 C 0.70596 0.5716 0.09662 0.0
C21 C 0.69544 0.58458 0.06633 0.0
C22 C 0.70262 0.60251 0.06307 0.0
C23 C 0.79946 0.58624 0.32381 0.0
H24 H 0.80064 0.6289 0.94006 0.0
H25 H 0.77756 0.62799 0.01169 0.0
H26 H 0.82244 0.59999 0.10212 0.0
H27 H 0.84514 0.60251 0.03352 0.0
H28 H 0.75864 0.60785 0.05515 0.0
H29 H 0.80476 0.61137 0.16526 0.0
H30 H 0.75149 0.58482 0.20497 0.0
H31 H 0.77263 0.59885 0.29472 0.0
H32 H 0.81314 0.57692 0.18297 0.0
H33 H 0.83613 0.56853 0.24876 0.0
H34 H 0.72559 0.62077 0.08167 0.0
H35 H 0.73182 0.56557 0.14123 0.0
H36 H 0.79532 0.58887 0.36295 0.0
H37 H 0.69519 0.61292 0.04003 0.0
H38 H 0.70078 0.55775 0.10101 0.0
C39 C 0.9831 0.79386 0.00024 0.0
C40 C 0.99811 0.80588 0.98831 0.0
C41 C 0.98479 0.7824 0.04283 0.0
C42 C 1.00131 0.78317 0.07455 0.0
C43 C 0.01654 0.79484 0.06186 0.0
C44 C 0.01502 0.80601 0.01876 0.0
C45 C 1.00231 0.77219 0.12166 0.0
C46 C 0.99984 0.75326 0.1195 0.0
C47 C 0.99976 0.74258 0.16394 0.0
C48 C 1.00188 0.7512 0.21179 0.0
C49 C 0.0044 0.77046 0.21424 0.0
C50 C 0.00487 0.7807 0.16882 0.0
C51 C 0.00548 0.78074 0.26307 0.0
C52 C 0.98927 0.78181 0.29595 0.0
C53 C 0.02123 0.79234 0.2719 0.0
C54 C 0.02049 0.80526 0.3114 0.0
C55 C 0.00384 0.8071 0.34269 0.0
C56 C 0.9975 0.72253 0.15708 0.0
C57 C 0.98044 0.71648 0.13312 0.0
C58 C 0.01405 0.71061 0.15909 0.0
C59 C 0.01403 0.69357 0.1339 0.0
C60 C 0.99747 0.68834 0.1063 0.0
C61 C 0.98047 0.69959 0.10773 0.0
C62 C 0.9884 0.79494 0.33519 0.0
H63 H 0.96988 0.79372 0.97747 0.0
H64 H 0.97288 0.77347 0.05216 0.0
H65 H 0.02943 0.79553 0.08575 0.0
H66 H 0.02663 0.81544 0.0107 0.0
H67 H 0.99813 0.74673 0.08267 0.0
H68 H 0.00639 0.79551 0.17029 0.0
H69 H 1.00151 0.7431 0.24644 0.0
H70 H 0.97678 0.77327 0.28942 0.0
H71 H 0.03378 0.79199 0.24663 0.0
H72 H 0.03257 0.81447 0.31567 0.0
H73 H 0.96766 0.72559 0.13001 0.0
H74 H 0.02753 0.71518 0.17604 0.0
H75 H 0.97544 0.79587 0.35888 0.0
H76 H 0.9676 0.69586 0.08641 0.0
H77 H 0.02735 0.68514 0.13282 0.0
C78 C 0.70457 0.88629 0.98808 0.0
C79 C 0.68634 0.89558 0.99057 0.0
C80 C 0.71744 0.88682 0.02966 0.0
C81 C 0.7124 0.89709 0.07358 0.0
C82 C 0.69398 0.9062 0.07545 0.0
C83 C 0.68108 0.90528 0.03477 0.0
C84 C 0.72668 0.89993 0.11554 0.0
C85 C 0.74652 0.90233 0.10476 0.0
C86 C 0.75964 0.90826 0.1423 0.0
C87 C 0.75221 0.9126 0.19155 0.0
C88 C 0.73224 0.90984 0.20304 0.0
C89 C 0.72002 0.90281 0.16546 0.0
C90 C 0.72241 0.91639 0.25059 0.0
C91 C 0.71974 0.90437 0.29195 0.0
C92 C 0.71095 0.93274 0.2484 0.0
C93 C 0.69648 0.93658 0.28499 0.0
C94 C 0.69309 0.92422 0.32512 0.0
C95 C 0.78044 0.91113 0.12646 0.0
C96 C 0.78981 0.89841 0.09341 0.0
C97 C 0.79002 0.92752 0.13742 0.0
C98 C 0.80778 0.93158 0.11317 0.0
C99 C 0.81639 0.91944 0.07696 0.0
C100 C 0.80732 0.90254 0.06876 0.0
C101 C 0.70539 0.90837 0.32923 0.0
H102 H 0.70892 0.87889 0.95396 0.0
H103 H 0.73143 0.87951 0.02696 0.0
H104 H 0.68972 0.91482 0.10738 0.0
H105 H 0.66727 0.91298 0.0369 0.0
H106 H 0.75162 0.90071 0.06592 0.0
H107 H 0.70478 0.90068 0.17466 0.0
H108 H 0.76172 0.91822 0.22023 0.0
H109 H 0.72788 0.89138 0.29369 0.0
H110 H 0.71227 0.94198 0.2162 0.0
H111 H 0.68744 0.94898 0.28086 0.0
H112 H 0.78303 0.8855 0.08453 0.0
H113 H 0.78329 0.93765 0.16259 0.0
H114 H 0.70311 0.8985 0.35948 0.0
H115 H 0.8131 0.89274 0.04126 0.0
H116 H 0.81446 0.94452 0.12198 0.0
C117 C 0.4918 0.71251 0.34344 0.0
C118 C 0.50488 0.69718 0.33902 0.0
C119 C 0.48999 0.72557 0.30403 0.0
C120 C 0.50126 0.72359 0.25954 0.0
C121 C 0.51513 0.70896 0.25661 0.0
C122 C 0.51678 0.69588 0.29539 0.0
C123 C 0.49695 0.73479 0.21315 0.0
C124 C 0.49574 0.75424 0.21332 0.0
C125 C 0.49252 0.76388 0.16715 0.0
C126 C 0.49037 0.75414 0.12159 0.0
C127 C 0.492 0.73503 0.12117 0.0
C128 C 0.49486 0.72545 0.1668 0.0
C129 C 0.49258 0.72493 0.0728 0.0
C130 C 0.47646 0.72539 0.03972 0.0
C131 C 0.50898 0.71367 0.06157 0.0
C132 C 0.50875 0.70193 0.01989 0.0
C133 C 0.492 0.70114 0.9891 0.0
C134 C 0.49379 0.78402 0.16243 0.0
C135 C 0.47656 0.79469 0.15495 0.0
C136 C 0.51182 0.79117 0.14777 0.0
C137 C 0.51244 0.80796 0.12182 0.0
C138 C 0.49507 0.81791 0.1108 0.0
C139 C 0.47721 0.81162 0.12948 0.0
C140 C 0.47611 0.71342 0.99816 0.0
H141 H 0.48263 0.71422 0.37681 0.0
H142 H 0.47914 0.73667 0.30726 0.0
H143 H 0.52416 0.70713 0.22296 0.0
H144 H 0.52681 0.68427 0.28971 0.0
H145 H 0.49796 0.76176 0.24835 0.0
H146 H 0.49576 0.71052 0.16592 0.0
H147 H 0.48859 0.76153 0.08583 0.0
H148 H 0.46373 0.73414 0.04781 0.0
H149 H 0.52163 0.71333 0.08649 0.0
H150 H 0.52107 0.69242 0.01436 0.0
H151 H 0.46246 0.78917 0.16454 0.0
H152 H 0.52519 0.7829 0.15166 0.0
H153 H 0.46303 0.71299 0.97491 0.0
H154 H 0.46364 0.81905 0.12081 0.0
H155 H 0.52632 0.81251 0.10717 0.0
C156 C 0.20155 0.40457 0.46178 0.0
C157 C 0.18688 0.3913 0.46204 0.0
C158 C 0.21571 0.40466 0.42388 0.0
C159 C 0.21555 0.3917 0.38448 0.0
C160 C 0.20196 0.3776 0.38615 0.0
C161 C 0.18796 0.3772 0.42512 0.0
C162 C 0.22796 0.39478 0.33925 0.0
C163 C 0.24742 0.39953 0.34596 0.0
C164 C 0.25802 0.40766 0.30665 0.0
C165 C 0.24918 0.40991 0.25808 0.0
C166 C 0.22962 0.40432 0.24982 0.0
C167 C 0.21932 0.39683 0.29119 0.0
C168 C 0.21859 0.40788 0.20095 0.0
C169 C 0.22042 0.42438 0.17347 0.0
C170 C 0.2041 0.39569 0.18509 0.0
C171 C 0.19083 0.40048 0.14627 0.0
C172 C 0.19181 0.41748 0.12062 0.0
C173 C 0.27721 0.41547 0.32105 0.0
C174 C 0.27759 0.42798 0.36189 0.0
C175 C 0.29507 0.40789 0.30311 0.0
C176 C 0.31281 0.41196 0.32762 0.0
C177 C 0.31286 0.42342 0.3709 0.0
C178 C 0.29512 0.43178 0.38668 0.0
C179 C 0.20734 0.42904 0.13371 0.0
H180 H 0.20139 0.41598 0.48813 0.0
H181 H 0.22587 0.41584 0.42326 0.0
H182 H 0.20172 0.36732 0.35634 0.0
H183 H 0.17745 0.36636 0.42458 0.0
H184 H 0.25395 0.39808 0.3835 0.0
H185 H 0.2039 0.394 0.28735 0.0
H186 H 0.25719 0.41644 0.22776 0.0
H187 H 0.23133 0.43416 0.18421 0.0
H188 H 0.20242 0.38262 0.20429 0.0
H189 H 0.17924 0.39107 0.13832 0.0
H190 H 0.26405 0.43395 0.37681 0.0
H191 H 0.29519 0.39797 0.27238 0.0
H192 H 0.20922 0.44199 0.11417 0.0
H193 H 0.2947 0.44082 0.41945 0.0
H194 H 0.3263 0.40534 0.31463 0.0
C195 C 0.99674 0.21539 0.45114 0.0
C196 C 0.01073 0.20114 0.45856 0.0
C197 C 0.99724 0.22619 0.40725 0.0
C198 C 0.01164 0.22277 0.36993 0.0
C199 C 0.02623 0.20916 0.37866 0.0
C200 C 0.02584 0.19848 0.42282 0.0
C201 C 0.01099 0.23307 0.32141 0.0
C202 C 0.00814 0.25212 0.32203 0.0
C203 C 0.00697 0.26226 0.27678 0.0
C204 C 0.00849 0.25303 0.22946 0.0
C205 C 0.0114 0.23363 0.22829 0.0
C206 C 0.01269 0.22391 0.27466 0.0
C207 C 0.01279 0.22283 0.17995 0.0
C208 C 0.99787 0.22394 0.14312 0.0
C209 C 0.02779 0.20932 0.17405 0.0
C210 C 0.02745 0.1967 0.13386 0.0
C211 C 0.01204 0.19713 0.09829 0.0
C212 C 0.00517 0.28251 0.28258 0.0
C213 C 0.98803 0.29014 0.30459 0.0
C214 C 0.02227 0.29275 0.2834 0.0
C215 C 0.02265 0.30957 0.30943 0.0
C216 C 0.00593 0.3165 0.3352 0.0
C217 C 0.98837 0.30698 0.33042 0.0
C218 C 0.99745 0.21118 0.10288 0.0
H219 H 0.98486 0.21754 0.47802 0.0
H220 H 0.98581 0.23661 0.40133 0.0
H221 H 0.03762 0.20646 0.35073 0.0
H222 H 0.03658 0.18733 0.42731 0.0
H223 H 0.00722 0.25923 0.35831 0.0
H224 H 0.01444 0.20903 0.27439 0.0
H225 H 0.00765 0.26082 0.19427 0.0
H226 H 0.98601 0.23405 0.14687 0.0
H227 H 0.03948 0.20807 0.20185 0.0
H228 H 0.03884 0.18605 0.13218 0.0
H229 H 0.97481 0.28225 0.30585 0.0
H230 H 0.03579 0.28696 0.26796 0.0
H231 H 0.98547 0.21211 0.07592 0.0
H232 H 0.97523 0.31179 0.34994 0.0
H233 H 0.03633 0.3167 0.31156 0.0
C234 C 0.30632 0.10169 0.45464 0.0
C235 C 0.32088 0.11504 0.45281 0.0
C236 C 0.29208 0.10089 0.417 0.0
C237 C 0.2921 0.11316 0.3758 0.0
C238 C 0.30569 0.12729 0.37512 0.0
C239 C 0.31975 0.12841 0.41377 0.0
C240 C 0.27963 0.10928 0.33128 0.0
C241 C 0.26007 0.1048 0.33881 0.0
C242 C 0.24941 0.09622 0.3005 0.0
C243 C 0.25851 0.09229 0.25323 0.0
C244 C 0.27797 0.09769 0.24418 0.0
C245 C 0.28824 0.10635 0.28342 0.0
C246 C 0.28888 0.09275 0.19668 0.0
C247 C 0.29183 0.07422 0.18272 0.0
C248 C 0.29906 0.10628 0.16988 0.0
C249 C 0.31237 0.10136 0.13122 0.0
C250 C 0.31615 0.08275 0.11915 0.0
C251 C 0.22952 0.09014 0.31396 0.0
C252 C 0.22707 0.0724 0.33376 0.0
C253 C 0.21412 0.10324 0.31884 0.0
C254 C 0.19683 0.09886 0.3444 0.0
C255 C 0.1946 0.0813 0.36607 0.0
C256 C 0.20978 0.06799 0.35934 0.0
C257 C 0.30544 0.06927 0.1447 0.0
H258 H 0.30661 0.09078 0.48272 0.0
H259 H 0.28196 0.08968 0.41814 0.0
H260 H 0.30586 0.13702 0.34382 0.0
H261 H 0.33025 0.13924 0.41152 0.0
H262 H 0.25344 0.10695 0.37598 0.0
H263 H 0.30357 0.10934 0.27806 0.0
H264 H 0.25061 0.08505 0.22405 0.0
H265 H 0.28443 0.06349 0.20319 0.0
H266 H 0.29724 0.12066 0.1802 0.0
H267 H 0.32044 0.11207 0.11252 0.0
H268 H 0.23901 0.06227 0.33212 0.0
H269 H 0.21586 0.11716 0.30501 0.0
H270 H 0.30792 0.05482 0.13602 0.0
H271 H 0.20871 0.05442 0.37609 0.0
H272 H 0.18538 0.10938 0.34829 0.0
C273 C 0.49139 0.29311 0.09418 0.0
C274 C 0.50694 0.30533 0.08883 0.0
C275 C 0.49131 0.28016 0.13398 0.0
C276 C 0.50686 0.27906 0.16884 0.0
C277 C 0.5229 0.29045 0.16176 0.0
C278 C 0.52297 0.3034 0.12232 0.0
C279 C 0.50444 0.27002 0.21897 0.0
C280 C 0.5084 0.25106 0.22733 0.0
C281 C 0.50849 0.24402 0.27758 0.0
C282 C 0.50437 0.25601 0.31831 0.0
C283 C 0.50096 0.27482 0.31051 0.0
C284 C 0.50028 0.28157 0.26052 0.0
C285 C 0.50165 0.28757 0.35455 0.0
C286 C 0.49447 0.28258 0.40285 0.0
C287 C 0.51192 0.30393 0.34983 0.0
C288 C 0.5156 0.3146 0.39227 0.0
C289 C 0.50961 0.30904 0.44103 0.0
C290 C 0.51384 0.22458 0.29063 0.0
C291 C 0.50368 0.20985 0.27008 0.0
C292 C 0.52659 0.22112 0.33173 0.0
C293 C 0.52714 0.20411 0.35625 0.0
C294 C 0.51563 0.18956 0.33904 0.0
C295 C 0.50478 0.19245 0.2936 0.0
C296 C 0.49851 0.29318 0.44581 0.0
H297 H 0.47893 0.29397 0.06872 0.0
H298 H 0.4786 0.2718 0.13936 0.0
H299 H 0.53482 0.29019 0.18902 0.0
H300 H 0.53507 0.31266 0.12022 0.0
H301 H 0.51219 0.24213 0.19561 0.0
H302 H 0.4975 0.29614 0.25378 0.0
H303 H 0.50496 0.25071 0.35689 0.0
H304 H 0.48616 0.27023 0.40771 0.0
H305 H 0.51794 0.30821 0.31371 0.0
H306 H 0.5234 0.32722 0.38666 0.0
H307 H 0.4939 0.21205 0.23803 0.0
H308 H 0.53496 0.23214 0.34785 0.0
H309 H 0.49335 0.28874 0.48271 0.0
H310 H 0.49639 0.18158 0.27707 0.0
H311 H 0.5357 0.2031 0.39074 0.0
O312 O 1.00174 0.02809 0.75678 0.0
Mn313 Mn 1.00226 0.00348 0.71469 0.0
O314 O 0.97122 0.04004 0.74615 0.0
Mn315 Mn 0.96169 0.02144 0.70487 0.0
O316 O 1.00297 0.97896 0.67299 0.0
O317 O 0.03152 0.00654 0.69978 0.0
Mn318 Mn 0.04313 0.98658 0.72515 0.0
O319 O 0.00664 0.98799 0.78084 0.0
O320 O 0.03309 0.96681 0.68872 0.0
O321 O 0.99802 0.01829 0.64832 0.0
O322 O 0.9663 0.02404 0.63583 0.0
O323 O 0.06301 -0.00036 0.69805 0.0
O324 O 0.03862 0.98724 0.79409 0.0
C325 C 0.95537 -0.00369 0.74231 0.0
C326 C 0.98846 0.04071 0.76497 0.0
C327 C 0.01613 0.96601 0.66813 0.0
C328 C 0.04899 0.01099 0.68469 0.0
C329 C 0.0215 0.9835 0.80831 0.0
C330 C 0.98391 0.0244 0.62055 0.0
O331 O 0.97292 0.00072 0.72789 0.0
O332 O 0.94156 0.00789 0.72885 0.0
O333 O 0.52165 0.99445 0.77692 0.0
Mn334 Mn 0.5021 0.00121 0.71722 0.0
O335 O 0.53866 0.01944 0.78993 0.0
Mn336 Mn 0.53895 0.02378 0.72116 0.0
O337 O 0.48269 0.00757 0.65697 0.0
O338 O 0.48968 0.97655 0.73152 0.0
Mn339 Mn 0.46437 0.97947 0.71954 0.0
O340 O 0.48225 0.01409 0.76837 0.0
O341 O 0.46126 0.98503 0.65191 0.0
O342 O 0.52252 0.98868 0.66676 0.0
O343 O 0.54981 0.00487 0.68087 0.0
O344 O 0.46745 0.95556 0.7399 0.0
O345 O 0.45495 -0.00267 0.76499 0.0
C346 C 0.51837 0.04261 0.68856 0.0
C347 C 0.53434 0.00327 0.80256 0.0
C348 C 0.46837 -0.00029 0.63473 0.0
C349 C 0.48558 0.9599 0.74543 0.0
C350 C 0.46447 0.01095 0.78166 0.0
C351 C 0.54096 0.99152 0.66001 0.0
O352 O 0.51423 0.026 0.70271 0.0
O353 O 0.5362 0.04731 0.69703 0.0
O354 O 0.50058 0.51707 0.78325 0.0
Mn355 Mn 0.50428 0.50213 0.71623 0.0
O356 O 0.46866 0.52368 0.7921 0.0
Mn357 Mn 0.4637 0.52056 0.72377 0.0
O358 O 0.50674 0.48741 0.64907 0.0
O359 O 0.53429 0.50472 0.72987 0.0
Mn360 Mn 0.54238 0.484 0.69853 0.0
O361 O 0.50458 0.47752 0.75788 0.0
O362 O 0.5378 0.48383 0.62954 0.0
O363 O 0.50403 0.5266 0.67383 0.0
O364 O 0.47325 0.5383 0.67987 0.0
O365 O 0.5648 0.49383 0.71833 0.0
O366 O 0.53335 0.46414 0.73596 0.0
C367 C 0.45707 0.4948 0.69167 0.0
C368 C 0.48606 0.52357 0.80911 0.0
C369 C 0.52006 0.48259 0.61744 0.0
C370 C 0.55323 0.5063 0.73834 0.0
C371 C 0.51713 0.46399 0.76012 0.0
C372 C 0.49069 0.53879 0.66243 0.0
O373 O 0.47476 0.49949 0.70424 0.0
O374 O 0.44333 0.50674 0.70282 0.0
O375 O 0.02589 0.4917 0.77439 0.0
Mn376 Mn 0.00455 0.50311 0.7236 0.0
O377 O 0.05125 0.51087 0.77015 0.0
Mn378 Mn 0.04106 0.52677 0.72053 0.0
O379 O 0.9831 0.51416 0.67403 0.0
O380 O 0.99308 0.4779 0.71207 0.0
Mn381 Mn 0.96852 0.47917 0.73287 0.0
O382 O 0.98566 0.50964 0.78444 0.0
O383 O 0.95647 0.49748 0.69196 0.0
O384 O 0.02289 0.49698 0.66206 0.0
O385 O 0.04456 0.51925 0.65408 0.0
O386 O 0.97237 0.45585 0.70729 0.0
O387 O 0.96962 0.48429 0.8013 0.0
C388 C 0.01858 0.54565 0.74445 0.0
C389 C 0.04311 0.49667 0.78849 0.0
C390 C 0.96478 0.51071 0.66881 0.0
C391 C 0.98954 0.46151 0.69519 0.0
C392 C 0.97357 0.50076 0.8119 0.0
C393 C 0.0368 0.5047 0.63792 0.0
O394 O 0.01572 0.52851 0.73321 0.0
O395 O 0.03623 0.551 0.73656 0.0
H396 H 0.17629 0.10312 0.43815 0.0
H397 H 0.14778 0.09602 0.49068 0.0
H398 H 0.14461 0.04299 0.4184 0.0
H399 H 0.17305 0.04999 0.36575 0.0
H400 H 0.10823 0.06158 0.42517 0.0
H401 H 0.1632 0.04587 0.53349 0.0
H402 H 0.19354 0.05169 0.58085 0.0
H403 H 0.1636 0.09382 0.66777 0.0
H404 H 0.13312 0.08847 0.62027 0.0
H405 H 0.05381 0.00463 0.58522 0.0
H406 H 0.07447 0.0219 0.52825 0.0
H407 H 0.07735 0.0654 0.63949 0.0
H408 H 0.05733 0.04733 0.69797 0.0
H409 H 0.11203 0.05708 0.61333 0.0
H410 H 0.05583 0.07071 0.50925 0.0
H411 H 0.02574 0.06455 0.46041 0.0
H412 H 0.05789 0.02646 0.36544 0.0
H413 H 0.08806 0.03224 0.41353 0.0
C414 C 0.16943 0.09 0.4331 0.0
C415 C 0.17696 0.07715 0.39747 0.0
C416 C 0.15321 0.08591 0.46349 0.0
C417 C 0.14403 0.06894 0.45869 0.0
C418 C 0.1514 0.05618 0.42282 0.0
C419 C 0.16774 0.06016 0.39289 0.0
C420 C 0.12673 0.06438 0.49068 0.0
C421 C 0.10904 0.0605 0.46634 0.0
C422 C 0.12757 0.06361 0.54454 0.0
C423 C 0.14594 0.06696 0.57278 0.0
C424 C 0.16313 0.05654 0.56226 0.0
C425 C 0.18035 0.05971 0.58923 0.0
C426 C 0.18052 0.07316 0.62716 0.0
C427 C 0.16346 0.08344 0.63826 0.0
C428 C 0.14621 0.08035 0.61132 0.0
C429 C 0.058 0.01831 0.59648 0.0
C430 C 0.05346 0.02485 0.6455 0.0
C431 C 0.06994 0.02826 0.56376 0.0
C432 C 0.07752 0.04521 0.57881 0.0
C433 C 0.07177 0.05241 0.62657 0.0
C434 C 0.05999 0.04225 0.65976 0.0
C435 C 0.09335 0.05387 0.54786 0.0
C436 C 0.11089 0.05851 0.57231 0.0
C437 C 0.09237 0.0554 0.49398 0.0
C438 C 0.07417 0.05184 0.46524 0.0
C439 C 0.05642 0.06093 0.47818 0.0
C440 C 0.03938 0.05753 0.45062 0.0
C441 C 0.03991 0.0451 0.41012 0.0
C442 C 0.05749 0.03608 0.39687 0.0
C443 C 0.07457 0.03945 0.42414 0.0
H444 H 0.02669 0.04249 0.38893 0.0
H445 H 0.19386 0.07558 0.64805 0.0
H446 H 0.48569 0.16431 0.3397 0.0
H447 H 0.48178 0.13814 0.39529 0.0
H448 H 0.53541 0.15088 0.4728 0.0
H449 H 0.54132 0.17483 0.41198 0.0
H450 H 0.53513 0.11874 0.47685 0.0
H451 H 0.48306 0.16142 0.51652 0.0
H452 H 0.4542 0.18189 0.50156 0.0
H453 H 0.42119 0.13574 0.45252 0.0
H454 H 0.44994 0.11502 0.46649 0.0
H455 H 0.50369 0.07639 0.71283 0.0
H456 H 0.49664 0.101 0.6509 0.0
H457 H 0.50072 0.06149 0.529 0.0
H458 H 0.50902 0.03719 0.59072 0.0
H459 H 0.46992 0.10675 0.55125 0.0
H460 H 0.535 0.06941 0.49642 0.0
H461 H 0.56418 0.05318 0.53197 0.0
H462 H 0.57211 0.09736 0.63776 0.0
H463 H 0.54273 0.11363 0.60332 0.0
C464 C 0.49712 0.16136 0.36721 0.0
C465 C 0.51374 0.17239 0.37089 0.0
C466 C 0.49449 0.1465 0.40039 0.0
C467 C 0.50782 0.14274 0.44014 0.0
C468 C 0.52465 0.15336 0.4431 0.0
C469 C 0.52781 0.16757 0.40839 0.0
C470 C 0.50461 0.12762 0.478 0.0
C471 C 0.52076 0.11638 0.49273 0.0
C472 C 0.48604 0.1243 0.50044 0.0
C473 C 0.46872 0.13671 0.492 0.0
C474 C 0.46968 0.15566 0.5022 0.0
C475 C 0.45334 0.1673 0.49393 0.0
C476 C 0.43589 0.16013 0.47593 0.0
C477 C 0.43473 0.14128 0.46632 0.0
C478 C 0.45104 0.12958 0.47443 0.0
C479 C 0.50192 0.07282 0.67308 0.0
C480 C 0.50596 0.05472 0.65659 0.0
C481 C 0.498 0.08691 0.63772 0.0
C482 C 0.49812 0.08305 0.5854 0.0
C483 C 0.50036 0.06471 0.56926 0.0
C484 C 0.50464 0.05072 0.60457 0.0
C485 C 0.50025 0.09822 0.5481 0.0
C486 C 0.48405 0.10936 0.53425 0.0
C487 C 0.51885 0.10218 0.52826 0.0
C488 C 0.53675 0.09263 0.54752 0.0
C489 C 0.543 0.07561 0.52725 0.0
C490 C 0.55952 0.06639 0.54731 0.0
C491 C 0.57 0.07421 0.58714 0.0
C492 C 0.56397 0.09129 0.60699 0.0
C493 C 0.54738 0.10049 0.58732 0.0
H494 H 0.58279 0.06706 0.60258 0.0
H495 H 0.42326 0.16917 0.46955 0.0
H496 H 0.34868 0.43594 0.34057 0.0
H497 H 0.37687 0.44272 0.39467 0.0
H498 H 0.34593 0.4225 0.52582 0.0
H499 H 0.31755 0.41667 0.47219 0.0
H500 H 0.36087 0.45148 0.55306 0.0
H501 H 0.38876 0.39932 0.46796 0.0
H502 H 0.39853 0.37955 0.39552 0.0
H503 H 0.4351 0.42198 0.33812 0.0
H504 H 0.42543 0.44206 0.41006 0.0
H505 H 0.43963 0.46329 0.71995 0.0
H506 H 0.41873 0.44502 0.66475 0.0
H507 H 0.43893 0.47489 0.53381 0.0
H508 H 0.45981 0.49309 0.58909 0.0
H509 H 0.4305 0.4381 0.50994 0.0
H510 H 0.39941 0.49022 0.59859 0.0
H511 H 0.38965 0.50772 0.67536 0.0
H512 H 0.35858 0.46127 0.7312 0.0
H513 H 0.36841 0.44341 0.65508 0.0
C514 C 0.34806 0.43277 0.38085 0.0
C515 C 0.33088 0.42586 0.40214 0.0
C516 C 0.36424 0.43654 0.41189 0.0
C517 C 0.36383 0.43301 0.46476 0.0
C518 C 0.34679 0.42552 0.48548 0.0
C519 C 0.33053 0.42213 0.45472 0.0
C520 C 0.38042 0.43823 0.49908 0.0
C521 C 0.37603 0.44815 0.54381 0.0
C522 C 0.40041 0.43423 0.48752 0.0
C523 C 0.40623 0.42225 0.44414 0.0
C524 C 0.39878 0.40448 0.43969 0.0
C525 C 0.40433 0.39321 0.39879 0.0
C526 C 0.41739 0.39953 0.36217 0.0
C527 C 0.42497 0.41711 0.3665 0.0
C528 C 0.41949 0.42843 0.40738 0.0
C529 C 0.44043 0.46522 0.67908 0.0
C530 C 0.45187 0.47921 0.6587 0.0
C531 C 0.42823 0.45496 0.64755 0.0
C532 C 0.42696 0.45873 0.59502 0.0
C533 C 0.43962 0.47164 0.57406 0.0
C534 C 0.45173 0.48194 0.60566 0.0
C535 C 0.41077 0.45125 0.56334 0.0
C536 C 0.41526 0.44108 0.51915 0.0
C537 C 0.39081 0.45462 0.57591 0.0
C538 C 0.38482 0.46543 0.62145 0.0
C539 C 0.39061 0.48371 0.62743 0.0
C540 C 0.38506 0.49369 0.67079 0.0
C541 C 0.37354 0.4856 0.7082 0.0
C542 C 0.36753 0.46751 0.70225 0.0
C543 C 0.37308 0.45745 0.65902 0.0
H544 H 0.36925 0.49336 0.74173 0.0
H545 H 0.42165 0.39079 0.3305 0.0
H546 H 0.03527 0.32406 0.40265 0.0
H547 H 0.03704 0.34984 0.4621 0.0
H548 H 0.98093 0.37072 0.40913 0.0
H549 H 0.97922 0.34513 0.34888 0.0
H550 H 0.00742 0.39769 0.4146 0.0
H551 H 0.98587 0.34897 0.52449 0.0
H552 H 0.9877 0.31855 0.56629 0.0
H553 H 0.04304 0.33154 0.63267 0.0
H554 H 0.04166 0.36197 0.59075 0.0
H555 H 0.97596 0.46045 0.60047 0.0
H556 H 0.9837 0.43735 0.5369 0.0
H557 H 0.03283 0.41769 0.62728 0.0
H558 H 0.0238 0.44028 0.69381 0.0
H559 H 0.01466 0.39 0.60139 0.0
H560 H 0.03768 0.43753 0.48854 0.0
H561 H 0.03622 0.46841 0.44886 0.0
H562 H 0.97998 0.45697 0.38497 0.0
H563 H 0.98097 0.42632 0.42577 0.0
C564 C 0.0234 0.33425 0.40315 0.0
C565 C 0.00718 0.33258 0.37044 0.0
C566 C 0.02432 0.34888 0.43773 0.0
C567 C 0.00906 0.3622 0.4405 0.0
C568 C 0.99289 0.36062 0.40782 0.0
C569 C 0.9919 0.34593 0.37344 0.0
C570 C 0.01018 0.37817 0.47603 0.0
C571 C 0.00887 0.39599 0.45551 0.0
C572 C 0.01283 0.37606 0.52928 0.0
C573 C 0.01378 0.35766 0.55394 0.0
C574 C 0.99853 0.34527 0.54755 0.0
C575 C 0.99947 0.32804 0.57138 0.0
C576 C 0.01551 0.32309 0.60197 0.0
C577 C 0.03064 0.33537 0.60888 0.0
C578 C 0.02979 0.35262 0.58512 0.0
C579 C 0.98893 0.45171 0.60589 0.0
C580 C 0.9995 0.45242 0.65165 0.0
C581 C 0.99347 0.43844 0.56907 0.0
C582 C 0.00917 0.42575 0.57601 0.0
C583 C 0.02065 0.42725 0.62053 0.0
C584 C 0.01573 0.44036 0.6583 0.0
C585 C 0.01171 0.40972 0.54013 0.0
C586 C 0.01362 0.39181 0.56046 0.0
C587 C 0.00981 0.41169 0.48649 0.0
C588 C 0.00923 0.42993 0.46128 0.0
C589 C 0.02487 0.44185 0.46698 0.0
C590 C 0.02416 0.45923 0.44405 0.0
C591 C 0.00794 0.4647 0.41468 0.0
C592 C 0.99248 0.45276 0.40793 0.0
C593 C 0.99313 0.43539 0.43094 0.0
H594 H 0.00741 0.47816 0.39691 0.0
H595 H 0.01619 0.30975 0.62043 0.0
H596 H 0.84585 0.8969 0.03552 0.0
H597 H 0.87196 0.90536 0.97769 0.0
H598 H 0.85402 0.96252 0.99105 0.0
H599 H 0.82682 0.95407 0.04506 0.0
H600 H 0.86152 0.95692 0.89883 0.0
H601 H 0.89744 0.9396 0.05173 0.0
H602 H 0.90821 0.91863 0.12092 0.0
H603 H 0.93089 0.87989 0.01092 0.0
H604 H 0.9199 0.90049 0.94116 0.0
H605 H 0.94663 0.00405 0.83916 0.0
H606 H 0.92606 0.98594 0.89514 0.0
H607 H 0.93073 0.94028 0.79107 0.0
H608 H 0.95089 0.95884 0.73347 0.0
H609 H 0.93077 0.9359 0.92026 0.0
H610 H 0.89543 0.95455 0.76746 0.0
H611 H 0.88507 0.9764 0.70008 0.0
H612 H 0.86111 0.01333 0.8129 0.0
H613 H 0.87182 0.9919 0.88108 0.0
C614 C 0.84722 0.9113 0.02594 0.0
C615 C 0.83389 0.92472 0.04554 0.0
C616 C 0.86252 0.91617 0.99322 0.0
C617 C 0.86538 0.93468 0.9801 0.0
C618 C 0.85233 0.94812 0.00028 0.0
C619 C 0.83681 0.94324 0.03214 0.0
C620 C 0.88141 0.94019 0.94427 0.0
C621 C 0.87664 0.95234 0.90407 0.0
C622 C 0.90123 0.93387 0.94925 0.0
C623 C 0.90773 0.92151 0.99125 0.0
C624 C 0.9046 0.92655 0.04234 0.0
C625 C 0.91074 0.91473 0.08166 0.0
C626 C 0.92019 0.89792 0.07034 0.0
C627 C 0.92354 0.8929 0.01967 0.0
C628 C 0.91737 0.90464 0.98023 0.0
C629 C 0.94407 0.98985 0.82927 0.0
C630 C 0.95073 0.98275 0.78239 0.0
C631 C 0.93211 0.97957 0.8611 0.0
C632 C 0.92666 0.96183 0.84715 0.0
C633 C 0.93475 0.95396 0.80261 0.0
C634 C 0.9465 0.96446 0.77002 0.0
C635 C 0.91074 0.95283 0.87627 0.0
C636 C 0.91555 0.94019 0.91506 0.0
C637 C 0.89094 0.9587 0.87027 0.0
C638 C 0.88478 0.97176 0.82942 0.0
C639 C 0.88829 0.96748 0.77797 0.0
C640 C 0.88228 0.97976 0.73962 0.0
C641 C 0.87252 -0.00371 0.75221 0.0
C642 C 0.86875 0.00056 0.8032 0.0
C643 C 0.87481 0.98836 0.84172 0.0
H644 H 0.86782 0.00575 0.72246 0.0
H645 H 0.92494 0.8888 0.10084 0.0
H646 H 0.49655 0.81444 0.00867 0.0
H647 H 0.49807 0.83895 0.94467 0.0
H648 H 0.49626 0.87965 0.06427 0.0
H649 H 0.49404 0.85499 0.12825 0.0
H650 H 0.47359 0.89036 0.98648 0.0
H651 H 0.54011 0.86463 0.00114 0.0
H652 H 0.56495 0.83933 0.99796 0.0
H653 H 0.54993 0.82866 0.84219 0.0
H654 H 0.52484 0.85373 0.84465 0.0
H655 H 0.49741 0.96608 0.84127 0.0
H656 H 0.50386 0.94185 0.9045 0.0
H657 H 0.50421 0.90114 0.7852 0.0
H658 H 0.4984 0.92549 0.72204 0.0
H659 H 0.52821 0.89022 0.86206 0.0
H660 H 0.46269 0.91263 0.84206 0.0
H661 H 0.43563 0.93577 0.83815 0.0
H662 H 0.44543 0.94985 0.99465 0.0
H663 H 0.47284 0.92704 0.9992 0.0
C664 C 0.49641 0.82866 0.02105 0.0
C665 C 0.49533 0.83297 0.07307 0.0
C666 C 0.4974 0.84263 0.9846 0.0
C667 C 0.49776 0.86117 0.99963 0.0
C668 C 0.49617 0.86546 0.05175 0.0
C669 C 0.49495 0.85145 0.08825 0.0
C670 C 0.49986 0.87607 0.96115 0.0
C671 C 0.48576 0.8905 0.95992 0.0
C672 C 0.51522 0.87586 0.9248 0.0
C673 C 0.53051 0.86097 0.92323 0.0
C674 C 0.54205 0.85682 0.96631 0.0
C675 C 0.55617 0.84253 0.96462 0.0
C676 C 0.55899 0.83237 0.91994 0.0
C677 C 0.54773 0.83653 0.87679 0.0
C678 C 0.53357 0.85079 0.87829 0.0
C679 C 0.50029 0.95212 0.82829 0.0
C680 C 0.49812 0.94771 0.77671 0.0
C681 C 0.50349 0.93821 0.86453 0.0
C682 C 0.50407 0.91963 0.84971 0.0
C683 C 0.50378 0.91535 0.79761 0.0
C684 C 0.5007 0.9293 0.76143 0.0
C685 C 0.5023 0.90473 0.88826 0.0
C686 C 0.51625 0.89022 0.88908 0.0
C687 C 0.48651 0.90458 0.9233 0.0
C688 C 0.47002 0.91831 0.92076 0.0
C689 C 0.45922 0.9208 0.8755 0.0
C690 C 0.4438 0.93383 0.87318 0.0
C691 C 0.43886 0.94432 0.91607 0.0
C692 C 0.44931 0.94176 0.96141 0.0
C693 C 0.46481 0.92879 0.96387 0.0
H694 H 0.4269 0.9544 0.91423 0.0
H695 H 0.56993 0.82131 0.91873 0.0
H696 H 0.68916 0.5518 0.01756 0.0
H697 H 0.66188 0.54372 0.96302 0.0
H698 H 0.63485 0.5973 0.98731 0.0
H699 H 0.6618 0.60528 0.04395 0.0
H700 H 0.60725 0.57172 0.98656 0.0
H701 H 0.65871 0.5876 0.87515 0.0
H702 H 0.69245 0.58743 0.84177 0.0
H703 H 0.68971 0.52955 0.81107 0.0
H704 H 0.65603 0.52931 0.84489 0.0
H705 H 0.54588 0.5437 0.76191 0.0
H706 H 0.56627 0.56278 0.81837 0.0
H707 H 0.60171 0.51473 0.85674 0.0
H708 H 0.58155 0.49597 0.80323 0.0
H709 H 0.62313 0.54536 0.817 0.0
H710 H 0.57209 0.5301 0.93828 0.0
H711 H 0.53893 0.53125 0.97519 0.0
H712 H 0.54109 0.59011 0.98678 0.0
H713 H 0.57396 0.58936 0.94816 0.0
C714 C 0.6773 0.56182 0.01229 0.0
C715 C 0.6779 0.57926 0.03547 0.0
C716 C 0.66174 0.55724 0.98031 0.0
C717 C 0.64636 0.57 0.96993 0.0
C718 C 0.64654 0.58722 0.99419 0.0
C719 C 0.66212 0.59182 0.02638 0.0
C720 C 0.6304 0.56525 0.93327 0.0
C721 C 0.61071 0.56632 0.94905 0.0
C722 C 0.6347 0.55833 0.88396 0.0
C723 C 0.65486 0.55842 0.86281 0.0
C724 C 0.66533 0.57481 0.8615 0.0
C725 C 0.68444 0.57479 0.84248 0.0
C726 C 0.69322 0.55848 0.82437 0.0
C727 C 0.68288 0.54217 0.8251 0.0
C728 C 0.66376 0.54211 0.84411 0.0
C729 C 0.55772 0.53724 0.7835 0.0
C730 C 0.56213 0.51831 0.77767 0.0
C731 C 0.56946 0.54814 0.81541 0.0
C732 C 0.5858 0.54022 0.84125 0.0
C733 C 0.58944 0.52126 0.8369 0.0
C734 C 0.57778 0.51052 0.80611 0.0
C735 C 0.6001 0.55111 0.87111 0.0
C736 C 0.6196 0.55121 0.85398 0.0
C737 C 0.59554 0.55926 0.91877 0.0
C738 C 0.57537 0.5597 0.9395 0.0
C739 C 0.56534 0.54332 0.94763 0.0
C740 C 0.54661 0.54389 0.96908 0.0
C741 C 0.53788 0.56072 0.9833 0.0
C742 C 0.54779 0.57706 0.97559 0.0
C743 C 0.56645 0.57658 0.95375 0.0
H744 H 0.52346 0.56107 0.00034 0.0
H745 H 0.70803 0.55849 0.80972 0.0
H746 H 1.00213 0.69037 0.00437 0.0
H747 H 1.00232 0.66523 0.94242 0.0
H748 H 0.99471 0.62616 0.06439 0.0
H749 H 0.99534 0.65144 0.12671 0.0
H750 H 0.02033 0.61288 0.99496 0.0
H751 H 0.95416 0.64143 0.98273 0.0
H752 H 0.93176 0.66835 0.97052 0.0
H753 H 0.95922 0.68007 0.82739 0.0
H754 H 0.98185 0.65329 0.83898 0.0
H755 H 1.00354 0.53871 0.83737 0.0
H756 H 0.99401 0.56224 0.90018 0.0
H757 H 0.99819 0.60414 0.78438 0.0
H758 H 0.00676 0.58048 0.72158 0.0
H759 H 0.97275 0.61571 0.85209 0.0
H760 H 0.03755 0.59075 0.85558 0.0
H761 H 0.06352 0.56655 0.85996 0.0
H762 H 0.04484 0.55195 0.0105 0.0
H763 H 0.01846 0.57584 0.00659 0.0
C764 C 1.00063 0.67637 0.01782 0.0
C765 C 0.99863 0.67276 0.07007 0.0
C766 C 1.00055 0.66202 0.98242 0.0
C767 C 0.99797 0.64377 0.99843 0.0
C768 C 0.99654 0.64011 0.05097 0.0
C769 C 0.99689 0.6545 0.08654 0.0
C770 C 0.99667 0.62858 0.96039 0.0
C771 C 0.00963 0.61331 0.96441 0.0
C772 C 0.98338 0.62948 0.91892 0.0
C773 C 0.96963 0.64538 0.9117 0.0
C774 C 0.9554 0.64977 0.94871 0.0
C775 C 0.94269 0.665 0.9419 0.0
C776 C 0.94406 0.6759 0.8982 0.0
C777 C 0.95817 0.67162 0.86122 0.0
C778 C 0.97093 0.65641 0.86785 0.0
C779 C 1.00094 0.55275 0.82472 0.0
C780 C 0.00526 0.55769 0.77441 0.0
C781 C 0.99604 0.56631 0.86087 0.0
C782 C 0.9959 0.58509 0.84745 0.0
C783 C 0.99825 0.58982 0.79595 0.0
C784 C 1.003 0.57625 0.75988 0.0
C785 C 0.99612 0.59975 0.88733 0.0
C786 C 0.98315 0.61504 0.8833 0.0
C787 C 0.00993 0.59921 0.92775 0.0
C788 C 0.02584 0.5849 0.9305 0.0
C789 C 0.03886 0.58227 0.88945 0.0
C790 C 0.05367 0.56861 0.89185 0.0
C791 C 0.05578 0.55767 0.93541 0.0
C792 C 0.04313 0.5604 0.97672 0.0
C793 C 0.02824 0.57398 0.97441 0.0
H794 H 0.06726 0.5471 0.93721 0.0
H795 H 0.9342 0.68768 0.893 0.0
H796 H 0.03656 0.18648 0.52877 0.0
H797 H 0.03343 0.15662 0.57144 0.0
H798 H 0.97481 0.15283 0.51148 0.0
H799 H 0.97746 0.18282 0.47213 0.0
H800 H 0.97708 0.13395 0.59394 0.0
H801 H 0.02244 0.1405 0.44343 0.0
H802 H 0.05326 0.15126 0.406 0.0
H803 H 0.08613 0.12419 0.52533 0.0
H804 H 0.05549 0.11351 0.56373 0.0
H805 H 0.95902 0.04357 0.55534 0.0
H806 H 0.96572 0.0746 0.52547 0.0
H807 H 0.02613 0.06704 0.57137 0.0
H808 H 0.0201 0.03558 0.59387 0.0
H809 H 0.02606 0.09204 0.51173 0.0
H810 H 0.9852 0.0828 0.65963 0.0
H811 H 0.9565 0.07114 0.70537 0.0
H812 H 0.91799 0.10164 0.60498 0.0
H813 H 0.94645 0.11355 0.55877 0.0
C814 C 0.02277 0.17953 0.52677 0.0
C815 C 0.00735 0.1867 0.49667 0.0
C816 C 0.02103 0.16246 0.55072 0.0
C817 C 0.00421 0.15217 0.54273 0.0
C818 C 0.98803 0.1604 0.51777 0.0
C819 C 0.98955 0.17759 0.49521 0.0
C820 C 0.00413 0.1321 0.55191 0.0
C821 C 0.98782 0.12475 0.57612 0.0
C822 C 0.01846 0.12 0.53024 0.0
C823 C 0.03672 0.12644 0.5067 0.0
C824 C 0.03625 0.13693 0.46169 0.0
C825 C 0.05368 0.14302 0.44037 0.0
C826 C 0.07164 0.13847 0.46337 0.0
C827 C 0.07222 0.12777 0.50766 0.0
C828 C 0.05484 0.12172 0.52924 0.0
C829 C 0.97395 0.04819 0.5562 0.0
C830 C 0.98884 0.03758 0.58005 0.0
C831 C 0.97769 0.06608 0.54024 0.0
C832 C 0.99604 0.07362 0.55016 0.0
C833 C 0.01163 0.06186 0.56494 0.0
C834 C 0.00814 0.04373 0.57799 0.0
C835 C 0.99851 0.0938 0.55167 0.0
C836 C 0.01536 0.10109 0.53004 0.0
C837 C 0.98498 0.10576 0.57708 0.0
C838 C 0.96791 0.09895 0.6056 0.0
C839 C 0.97061 0.087 0.64735 0.0
C840 C 0.95439 0.08034 0.6733 0.0
C841 C 0.93545 0.08556 0.65793 0.0
C842 C 0.93267 0.09759 0.61681 0.0
C843 C 0.94882 0.10435 0.59084 0.0
H844 H 0.92293 0.08032 0.67798 0.0
H845 H 0.08511 0.14319 0.44679 0.0
H846 H 0.3238 0.09975 0.54922 0.0
H847 H 0.35273 0.08437 0.58247 0.0
H848 H 0.3882 0.11241 0.4722 0.0
H849 H 0.35888 0.12514 0.43264 0.0
H850 H 0.39579 0.08018 0.45991 0.0
H851 H 0.39308 0.11347 0.61891 0.0
H852 H 0.37803 0.12673 0.69657 0.0
H853 H 0.36029 0.07309 0.74334 0.0
H854 H 0.37529 0.05948 0.66627 0.0
H855 H 0.47867 0.02715 0.56888 0.0
H856 H 0.4563 0.05177 0.53745 0.0
H857 H 0.40706 0.02103 0.58955 0.0
H858 H 0.42914 -0.00301 0.62183 0.0
H859 H 0.41118 0.05747 0.63374 0.0
H860 H 0.40925 0.02557 0.4723 0.0
H861 H 0.42411 0.01115 0.39606 0.0
H862 H 0.45045 0.06222 0.3567 0.0
H863 H 0.43586 0.07689 0.43308 0.0
C864 C 0.3377 0.10265 0.53163 0.0
C865 C 0.33862 0.11275 0.48587 0.0
C866 C 0.35453 0.09421 0.55201 0.0
C867 C 0.3729 0.09687 0.52951 0.0
C868 C 0.37418 0.10966 0.48951 0.0
C869 C 0.35723 0.11724 0.46722 0.0
C870 C 0.38965 0.08385 0.54032 0.0
C871 C 0.39948 0.07579 0.49831 0.0
C872 C 0.39421 0.07734 0.59004 0.0
C873 C 0.38526 0.08549 0.63664 0.0
C874 C 0.38593 0.10452 0.6457 0.0
C875 C 0.37746 0.11207 0.68973 0.0
C876 C 0.36825 0.10074 0.72491 0.0
C877 C 0.36754 0.08182 0.71625 0.0
C878 C 0.37609 0.07417 0.67251 0.0
C879 C 0.46312 0.02573 0.57311 0.0
C880 C 0.45579 0.01067 0.59973 0.0
C881 C 0.45036 0.0396 0.55482 0.0
C882 C 0.43014 0.03832 0.56267 0.0
C883 C 0.42269 0.02233 0.58406 0.0
C884 C 0.43539 0.00851 0.60198 0.0
C885 C 0.41679 0.05423 0.55362 0.0
C886 C 0.40769 0.06257 0.59583 0.0
C887 C 0.41288 0.06102 0.5044 0.0
C888 C 0.42166 0.05225 0.4586 0.0
C889 C 0.41835 0.03367 0.44761 0.0
C890 C 0.42668 0.02547 0.40432 0.0
C891 C 0.43827 0.03575 0.37163 0.0
C892 C 0.44149 0.05427 0.3821 0.0
C893 C 0.43318 0.06254 0.42533 0.0
H894 H 0.44471 0.02938 0.33813 0.0
H895 H 0.36166 0.10663 0.75887 0.0
H896 H 0.48645 0.31774 0.52423 0.0
H897 H 0.48966 0.34535 0.57597 0.0
H898 H 0.54546 0.35521 0.50517 0.0
H899 H 0.54365 0.32646 0.45977 0.0
H900 H 0.54389 0.37544 0.5793 0.0
H901 H 0.49131 0.36405 0.44489 0.0
H902 H 0.46063 0.34932 0.41954 0.0
H903 H 0.4328 0.3686 0.5569 0.0
H904 H 0.46334 0.3833 0.58304 0.0
H905 H 0.54297 0.46886 0.53916 0.0
H906 H 0.54056 0.43734 0.50756 0.0
H907 H 0.4846 0.43305 0.58257 0.0
H908 H 0.48642 0.4642 0.6108 0.0
H909 H 0.48515 0.41007 0.5159 0.0
H910 H 0.5336 0.42566 0.64537 0.0
H911 H 0.56287 0.44181 0.67446 0.0
H912 H 0.59715 0.41575 0.55639 0.0
H913 H 0.56804 0.39958 0.5264 0.0
C914 C 0.49989 0.32524 0.5219 0.0
C915 C 0.51423 0.32073 0.48528 0.0
C916 C 0.50158 0.34122 0.55094 0.0
C917 C 0.51693 0.35319 0.54092 0.0
C918 C 0.53298 0.34669 0.51212 0.0
C919 C 0.53178 0.33033 0.48532 0.0
C920 C 0.51468 0.37332 0.54913 0.0
C921 C 0.53099 0.383 0.56569 0.0
C922 C 0.49778 0.38337 0.53221 0.0
C923 C 0.47956 0.37457 0.51602 0.0
C924 C 0.47862 0.36512 0.46954 0.0
C925 C 0.46128 0.35677 0.45512 0.0
C926 C 0.44479 0.358 0.48663 0.0
C927 C 0.44558 0.36762 0.53258 0.0
C928 C 0.46288 0.37595 0.54722 0.0
C929 C 0.52969 0.46148 0.5463 0.0
C930 C 0.51512 0.46884 0.57879 0.0
C931 C 0.52847 0.44338 0.52903 0.0
C932 C 0.513 0.4325 0.54558 0.0
C933 C 0.49695 0.44095 0.57018 0.0
C934 C 0.49789 0.45907 0.58598 0.0
C935 C 0.51448 0.41216 0.54494 0.0
C936 C 0.49801 0.40254 0.52993 0.0
C937 C 0.53107 0.40226 0.56428 0.0
C938 C 0.54865 0.41152 0.5835 0.0
C939 C 0.5474 0.42337 0.62571 0.0
C940 C 0.56394 0.43255 0.64228 0.0
C941 C 0.58185 0.42983 0.61723 0.0
C942 C 0.58327 0.41785 0.57573 0.0
C943 C 0.56677 0.40867 0.55897 0.0
H944 H 0.59462 0.43698 0.63002 0.0
H945 H 0.43139 0.35154 0.47539 0.0
H946 H 0.14891 0.38004 0.44478 0.0
H947 H 0.11952 0.39462 0.4788 0.0
H948 H 0.15441 0.42645 0.58134 0.0
H949 H 0.18344 0.40933 0.55485 0.0
H950 H 0.12282 0.42947 0.61621 0.0
H951 H 0.14278 0.4383 0.44473 0.0
H952 H 0.15164 0.42984 0.35658 0.0
H953 H 0.09362 0.41054 0.33134 0.0
H954 H 0.08452 0.4186 0.41969 0.0
H955 H 0.07094 0.51332 0.58978 0.0
H956 H 0.0938 0.49098 0.5516 0.0
H957 H 0.05032 0.44941 0.56119 0.0
H958 H 0.02691 0.47184 0.59637 0.0
H959 H 0.08414 0.45188 0.4671 0.0
H960 H 0.07001 0.44695 0.65707 0.0
H961 H 0.06599 0.46491 0.73575 0.0
H962 H 0.12229 0.48846 0.71296 0.0
H963 H 0.12639 0.47085 0.63309 0.0
C964 C 0.15047 0.38937 0.47644 0.0
C965 C 0.16901 0.39449 0.49417 0.0
C966 C 0.13348 0.39808 0.49517 0.0
C967 C 0.13483 0.41285 0.52929 0.0
C968 C 0.15286 0.41572 0.55319 0.0
C969 C 0.16968 0.40613 0.53697 0.0
C970 C 0.11843 0.42665 0.53497 0.0
C971 C 0.11452 0.43422 0.58328 0.0
C972 C 0.10771 0.43359 0.49215 0.0
C973 C 0.11305 0.42882 0.43895 0.0
C974 C 0.13195 0.43216 0.42043 0.0
C975 C 0.13702 0.42743 0.37047 0.0
C976 C 0.12321 0.41961 0.33843 0.0
C977 C 0.1043 0.41654 0.35626 0.0
C978 C 0.09919 0.42118 0.40628 0.0
C979 C 0.06582 0.4997 0.58132 0.0
C980 C 0.04729 0.49412 0.59785 0.0
C981 C 0.07895 0.48696 0.55947 0.0
C982 C 0.07363 0.46862 0.55372 0.0
C983 C 0.05443 0.46362 0.56419 0.0
C984 C 0.04119 0.4764 0.58524 0.0
C985 C 0.0889 0.45415 0.54755 0.0
C986 C 0.09251 0.44668 0.49947 0.0
C987 C 0.10032 0.44826 0.58957 0.0
C988 C 0.09851 0.45758 0.63941 0.0
C989 C 0.08154 0.45591 0.66897 0.0
C990 C 0.07922 0.4661 0.7137 0.0
C991 C 0.09388 0.47784 0.72955 0.0
C992 C 0.11093 0.47938 0.70064 0.0
C993 C 0.11327 0.46929 0.65567 0.0
H994 H 0.0921 0.48571 0.76422 0.0
H995 H 0.12716 0.41597 0.29973 0.0
H996 H 0.96815 0.8309 0.98234 0.0
H997 H 0.96906 0.86046 0.93854 0.0
H998 H 0.02263 0.84305 0.86326 0.0
H999 H 0.02209 0.81365 0.90875 0.0
H1000 H 0.02844 0.87062 0.9233 0.0
H1001 H 0.98076 0.85781 0.797 0.0
H1002 H 0.94945 0.8479 0.76113 0.0
H1003 H 0.91857 0.89019 0.84529 0.0
H1004 H 0.94965 0.90018 0.8824 0.0
H1005 H 0.0481 0.95568 0.81608 0.0
H1006 H 0.04151 0.92461 0.83893 0.0
H1007 H 0.98469 0.94177 0.89703 0.0
H1008 H 0.99032 0.9732 0.867 0.0
H1009 H 0.98028 0.91398 0.8433 0.0
H1010 H 0.02902 0.925 0.97428 0.0
H1011 H 0.06107 0.93536 0.00457 0.0
H1012 H 0.09043 0.89597 0.90731 0.0
H1013 H 0.0586 0.8855 0.87612 0.0
C1014 C 0.97962 0.83309 0.95466 0.0
C1015 C 0.99522 0.82026 0.94931 0.0
C1016 C 0.98009 0.84997 0.92945 0.0
C1017 C 0.99604 0.85402 0.89808 0.0
C1018 C 0.01028 0.84021 0.88767 0.0
C1019 C 0.00999 0.82346 0.91356 0.0
C1020 C 1.00024 0.87342 0.88671 0.0
C1021 C 0.01802 0.88003 0.90492 0.0
C1022 C 0.98634 0.88581 0.86467 0.0
C1023 C 0.96756 0.87959 0.84305 0.0
C1024 C 0.96728 0.86485 0.80843 0.0
C1025 C 0.94956 0.85925 0.78773 0.0
C1026 C 0.93202 0.86835 0.8011 0.0
C1027 C 0.93216 0.88311 0.83512 0.0
C1028 C 0.94982 0.88875 0.85598 0.0
C1029 C 0.03442 0.95316 0.83541 0.0
C1030 C 0.01977 0.96702 0.84028 0.0
C1031 C 0.0307 0.93517 0.84886 0.0
C1032 C 0.01283 0.93075 0.87122 0.0
C1033 C 0.99867 0.94485 0.88003 0.0
C1034 C 1.00199 0.96285 0.8638 0.0
C1035 C 0.00839 0.91118 0.88041 0.0
C1036 C 0.99061 0.90456 0.86191 0.0
C1037 C 0.02229 0.89867 0.90231 0.0
C1038 C 0.0414 0.9045 0.92284 0.0
C1039 C 0.04231 0.91854 0.95943 0.0
C1040 C 0.06045 0.92445 0.97669 0.0
C1041 C 0.07777 0.91634 0.95786 0.0
C1042 C 0.077 0.90222 0.92194 0.0
C1043 C 0.05892 0.89626 0.90458 0.0
H1044 H 0.09179 0.92098 0.97113 0.0
H1045 H 0.91833 0.86401 0.78497 0.0
H1046 H 0.69384 0.91189 0.8998 0.0
H1047 H 0.66864 0.92688 0.84638 0.0
H1048 H 0.62388 0.89966 0.93173 0.0
H1049 H 0.64898 0.88448 0.98417 0.0
H1050 H 0.61174 0.90904 0.83323 0.0
H1051 H 0.64684 0.9386 0.97894 0.0
H1052 H 0.6773 0.95033 0.01583 0.0
H1053 H 0.68524 0.98443 0.88406 0.0
H1054 H 0.65498 0.9727 0.8462 0.0
H1055 H 0.5314 0.9712 0.85772 0.0
H1056 H 0.55851 0.94962 0.87848 0.0
H1057 H 0.59956 0.98909 0.82299 0.0
H1058 H 0.57297 0.01059 0.80497 0.0
H1059 H 0.61583 0.97353 0.89296 0.0
H1060 H 0.58068 0.95223 0.7523 0.0
H1061 H 0.55371 0.94122 0.69923 0.0
H1062 H 0.54975 0.89308 0.79302 0.0
H1063 H 0.57582 0.90432 0.84886 0.0
C1064 C 0.6787 0.90827 0.90493 0.0
C1065 C 0.67319 0.89731 0.94633 0.0
C1066 C 0.6643 0.91695 0.87474 0.0
C1067 C 0.64442 0.91482 0.88639 0.0
C1068 C 0.63914 0.90162 0.92249 0.0
C1069 C 0.65347 0.89292 0.95242 0.0
C1070 C 0.62947 0.92883 0.87078 0.0
C1071 C 0.6125 0.92319 0.84605 0.0
C1072 C 0.6309 0.94741 0.88599 0.0
C1073 C 0.6488 0.95466 0.90962 0.0
C1074 C 0.65513 0.94856 0.95787 0.0
C1075 C 0.67236 0.9552 0.97889 0.0
C1076 C 0.68322 0.96809 0.95226 0.0
C1077 C 0.67684 0.97442 0.90462 0.0
C1078 C 0.65967 0.96778 0.88336 0.0
C1079 C 0.54621 0.97527 0.85101 0.0
C1080 C 0.5499 0.99241 0.82893 0.0
C1081 C 0.56172 0.96294 0.86243 0.0
C1082 C 0.5811 0.96746 0.85064 0.0
C1083 C 0.58481 0.98514 0.83226 0.0
C1084 C 0.56945 -0.00246 0.82218 0.0
C1085 C 0.5976 0.95383 0.85579 0.0
C1086 C 0.61489 0.95953 0.87907 0.0
C1087 C 0.5967 0.93558 0.83689 0.0
C1088 C 0.58012 0.92928 0.80528 0.0
C1089 C 0.57377 0.93951 0.76245 0.0
C1090 C 0.55859 0.93324 0.73192 0.0
C1091 C 0.54995 0.91652 0.74301 0.0
C1092 C 0.55629 0.90615 0.785 0.0
C1093 C 0.57119 0.91252 0.81629 0.0
H1094 H 0.53842 0.91154 0.71886 0.0
H1095 H 0.69655 0.9732 0.96858 0.0
H1096 H 0.46154 0.67824 0.98716 0.0
H1097 H 0.46264 0.64662 0.95626 0.0
H1098 H 0.51896 0.6553 0.88772 0.0
H1099 H 0.51814 0.68712 0.91919 0.0
H1100 H 0.4808 0.63004 0.83852 0.0
H1101 H 0.53314 0.63731 0.96652 0.0
H1102 H 0.54563 0.65003 0.04688 0.0
H1103 H 0.49799 0.62649 0.12875 0.0
H1104 H 0.48505 0.61393 0.04855 0.0
H1105 H 0.52092 0.53821 0.83597 0.0
H1106 H 0.52352 0.56856 0.87414 0.0
H1107 H 0.46263 0.568 0.91686 0.0
H1108 H 0.45971 0.53779 0.8778 0.0
H1109 H 0.50486 0.58931 0.97877 0.0
H1110 H 0.44844 0.59397 0.84281 0.0
H1111 H 0.43495 0.58371 0.7606 0.0
H1112 H 0.49242 0.58459 0.69427 0.0
H1113 H 0.50621 0.59389 0.77666 0.0
C1114 C 0.47378 0.67372 0.96362 0.0
C1115 C 0.48985 0.68502 0.95588 0.0
C1116 C 0.47445 0.65562 0.94647 0.0
C1117 C 0.49105 0.64875 0.92091 0.0
C1118 C 0.50615 0.6605 0.908 0.0
C1119 C 0.50562 0.6786 0.92571 0.0
C1120 C 0.49341 0.62884 0.91361 0.0
C1121 C 0.48644 0.62115 0.86872 0.0
C1122 C 0.50039 0.61734 0.95354 0.0
C1123 C 0.50799 0.62497 0.00159 0.0
C1124 C 0.5252 0.63509 0.00158 0.0
C1125 C 0.53239 0.64221 0.04708 0.0
C1126 C 0.52256 0.63915 0.09287 0.0
C1127 C 0.50554 0.62891 0.09324 0.0
C1128 C 0.49828 0.6218 0.04778 0.0
C1129 C 0.5083 0.5441 0.85556 0.0
C1130 C 0.48991 0.53599 0.85203 0.0
C1131 C 0.50983 0.56147 0.87731 0.0
C1132 C 0.49315 0.57049 0.89713 0.0
C1133 C 0.47559 0.56116 0.90124 0.0
C1134 C 0.47399 0.54388 0.87903 0.0
C1135 C 0.49297 0.59053 0.90302 0.0
C1136 C 0.49991 0.59822 0.94797 0.0
C1137 C 0.48616 0.60207 0.86309 0.0
C1138 C 0.47828 0.59462 0.81541 0.0
C1139 C 0.45816 0.59165 0.81073 0.0
C1140 C 0.45048 0.58592 0.76424 0.0
C1141 C 0.4628 0.5834 0.7222 0.0
C1142 C 0.48288 0.58626 0.72684 0.0
C1143 C 0.49066 0.59164 0.77349 0.0
H1144 H 0.45671 0.57936 0.68606 0.0
H1145 H 0.52816 0.64464 0.12809 0.0
H1146 H 0.86232 0.62705 0.97404 0.0
H1147 H 0.88757 0.61031 0.92627 0.0
H1148 H 0.84304 0.58146 0.84461 0.0
H1149 H 0.81771 0.59789 0.89383 0.0
H1150 H 0.86395 0.55845 0.89834 0.0
H1151 H 0.87981 0.60511 0.78147 0.0
H1152 H 0.88751 0.63606 0.75004 0.0
H1153 H 0.93958 0.6355 0.84118 0.0
H1154 H 0.93211 0.60481 0.87416 0.0
H1155 H 0.93527 0.4977 0.79253 0.0
H1156 H 0.90932 0.52012 0.81022 0.0
H1157 H 0.94925 0.5519 0.89942 0.0
H1158 H 0.97573 0.52925 0.88062 0.0
H1159 H 0.92969 0.57315 0.83242 0.0
H1160 H 0.91061 0.52647 0.95383 0.0
H1161 H 0.90241 0.49495 0.97967 0.0
H1162 H 0.85524 0.49524 0.87158 0.0
H1163 H 0.86328 0.52669 0.84474 0.0
C1164 C 0.85792 0.61787 0.94392 0.0
C1165 C 0.83815 0.61348 0.93817 0.0
C1166 C 0.87238 0.60827 0.9165 0.0
C1167 C 0.86723 0.59435 0.88244 0.0
C1168 C 0.84734 0.592 0.87113 0.0
C1169 C 0.83285 0.60155 0.89886 0.0
C1170 C 0.88203 0.57986 0.86867 0.0
C1171 C 0.87816 0.56166 0.88272 0.0
C1172 C 0.90077 0.58403 0.84973 0.0
C1173 C 0.90527 0.60267 0.83065 0.0
C1174 C 0.8928 0.61168 0.79532 0.0
C1175 C 0.89716 0.62919 0.77719 0.0
C1176 C 0.914 0.63781 0.79387 0.0
C1177 C 0.92653 0.6289 0.82858 0.0
C1178 C 0.92225 0.61142 0.84696 0.0
C1179 C 0.93846 0.50911 0.81743 0.0
C1180 C 0.95758 0.51179 0.83524 0.0
C1181 C 0.92355 0.522 0.8273 0.0
C1182 C 0.92724 0.53764 0.85648 0.0
C1183 C 0.94611 0.53994 0.8766 0.0
C1184 C 0.96121 0.52707 0.86597 0.0
C1185 C 0.91163 0.55199 0.86307 0.0
C1186 C 0.91539 0.57007 0.84767 0.0
C1187 C 0.89266 0.54769 0.88023 0.0
C1188 C 0.88764 0.52889 0.89708 0.0
C1189 C 0.89855 0.51978 0.93544 0.0
C1190 C 0.89391 0.50193 0.95027 0.0
C1191 C 0.87833 0.49309 0.92722 0.0
C1192 C 0.8673 0.5021 0.88941 0.0
C1193 C 0.87187 0.51995 0.87445 0.0
H1194 H 0.87479 0.47927 0.9387 0.0
H1195 H 0.91739 0.65136 0.77978 0.0
H1196 H 0.97924 0.17957 0.06536 0.0
H1197 H 0.97739 0.15361 0.00676 0.0
H1198 H 0.03988 0.15424 0.98461 0.0
H1199 H 0.0418 0.18061 0.04216 0.0
H1200 H 0.02179 0.14714 0.89537 0.0
H1201 H 0.02012 0.12312 0.06416 0.0
H1202 H 0.00891 0.12027 0.153 0.0
H1203 H 0.9516 0.10649 0.1009 0.0
H1204 H 0.96238 0.10955 0.01168 0.0
H1205 H 0.0244 0.0539 0.79373 0.0
H1206 H 0.03062 0.0807 0.84801 0.0
H1207 H 0.96846 0.09031 0.86607 0.0
H1208 H 0.96214 0.06398 0.81183 0.0
H1209 H 0.98948 0.09124 0.95861 0.0
H1210 H 0.99182 0.11653 0.78848 0.0
H1211 H 0.00425 0.11797 0.70041 0.0
H1212 H 0.06204 0.12786 0.75654 0.0
H1213 H 0.05 0.12615 0.84503 0.0
C1214 C 0.99258 0.17446 0.04738 0.0
C1215 C 0.01069 0.18225 0.05893 0.0
C1216 C 0.99152 0.15943 0.01416 0.0
C1217 C 0.00854 0.15167 0.99169 0.0
C1218 C 0.02654 0.15984 0.00153 0.0
C1219 C 0.02762 0.17487 0.03486 0.0
C1220 C 0.00753 0.1347 0.95955 0.0
C1221 C 0.01496 0.13485 0.90951 0.0
C1222 C 0.99859 0.11856 0.97759 0.0
C1223 C 0.99201 0.11676 0.03121 0.0
C1224 C 0.00508 0.11965 0.07163 0.0
C1225 C 0.99881 0.11796 0.12207 0.0
C1226 C 0.97954 0.11325 0.13259 0.0
C1227 C 0.96651 0.11018 0.09269 0.0
C1228 C 0.9727 0.11187 0.04217 0.0
C1229 C 0.01208 0.06171 0.80936 0.0
C1230 C 0.99277 0.05672 0.79831 0.0
C1231 C 0.01565 0.07707 0.84022 0.0
C1232 C 0.99999 0.08756 0.86114 0.0
C1233 C 0.98078 0.08245 0.85053 0.0
C1234 C 0.97721 0.06737 0.81925 0.0
C1235 C 1.00333 0.10384 0.89433 0.0
C1236 C 0.99639 0.10352 0.94463 0.0
C1237 C 0.01286 0.11968 0.87662 0.0
C1238 C 0.02005 0.12102 0.82342 0.0
C1239 C 0.00721 0.11886 0.78207 0.0
C1240 C 0.01418 0.11975 0.73206 0.0
C1241 C 0.03393 0.12296 0.72289 0.0
C1242 C 0.04674 0.12534 0.76371 0.0
C1243 C 0.03985 0.12443 0.8138 0.0
H1244 H 0.0393 0.12364 0.68415 0.0
H1245 H 0.97472 0.11194 0.17167 0.0
H1246 H 0.34581 0.05719 0.13275 0.0
H1247 H 0.37265 0.049 0.07426 0.0
H1248 H 0.34945 0.08787 0.96412 0.0
H1249 H 0.32274 0.09646 0.02312 0.0
H1250 H 0.36002 0.04998 0.92626 0.0
H1251 H 0.38663 0.10084 0.01596 0.0
H1252 H 0.39519 0.11859 0.09229 0.0
H1253 H 0.43269 0.07393 0.14384 0.0
H1254 H 0.42412 0.05578 0.0681 0.0
H1255 H 0.43849 0.03822 0.7557 0.0
H1256 H 0.41528 0.05458 0.81206 0.0
H1257 H 0.44173 0.02736 0.94216 0.0
H1258 H 0.46528 0.01134 0.88558 0.0
H1259 H 0.4294 0.06181 0.96797 0.0
H1260 H 0.4016 0.01021 0.8834 0.0
H1261 H 0.3931 0.99156 0.80869 0.0
H1262 H 0.35741 0.03637 0.75009 0.0
H1263 H 0.36592 0.05538 0.82432 0.0
C1264 C 0.34635 0.06393 0.09597 0.0
C1265 C 0.33206 0.0774 0.08249 0.0
C1266 C 0.36178 0.05932 0.0627 0.0
C1267 C 0.36312 0.06784 0.01482 0.0
C1268 C 0.34873 0.08112 0.00086 0.0
C1269 C 0.33351 0.08604 0.03462 0.0
C1270 C 0.37944 0.06262 0.97937 0.0
C1271 C 0.37516 0.05287 0.93489 0.0
C1272 C 0.39925 0.06597 0.99121 0.0
C1273 C 0.40457 0.07687 0.03661 0.0
C1274 C 0.39656 0.09472 0.0438 0.0
C1275 C 0.40144 0.10488 0.0869 0.0
C1276 C 0.41443 0.09737 0.12297 0.0
C1277 C 0.42261 0.07971 0.11589 0.0
C1278 C 0.41776 0.06949 0.07285 0.0
C1279 C 0.43972 0.03622 0.7965 0.0
C1280 C 0.45379 0.02371 0.81643 0.0
C1281 C 0.42634 0.04543 0.82871 0.0
C1282 C 0.42642 0.04198 0.8815 0.0
C1283 C 0.44128 0.03029 0.9017 0.0
C1284 C 0.45478 0.02117 0.86942 0.0
C1285 C 0.41002 0.0491 0.91467 0.0
C1286 C 0.41427 0.0591 0.95894 0.0
C1287 C 0.39013 0.04584 0.90292 0.0
C1288 C 0.38458 0.03429 0.85903 0.0
C1289 C 0.39202 0.01612 0.85445 0.0
C1290 C 0.3872 0.00548 0.81222 0.0
C1291 C 0.37477 0.0128 0.77458 0.0
C1292 C 0.36706 0.03074 0.77923 0.0
C1293 C 0.37188 0.04145 0.82137 0.0
H1294 H 0.37107 0.00455 0.74188 0.0
H1295 H 0.41819 0.10525 0.15633 0.0
H1296 H 0.47474 0.32663 0.06082 0.0
H1297 H 0.47361 0.35367 0.0053 0.0
H1298 H 0.53567 0.34723 0.97839 0.0
H1299 H 0.53689 0.31993 0.03284 0.0
H1300 H 0.5252 0.38275 0.00277 0.0
H1301 H 0.50287 0.33617 0.88693 0.0
H1302 H 0.48141 0.31129 0.85984 0.0
H1303 H 0.43129 0.34813 0.86985 0.0
H1304 H 0.45245 0.37319 0.89761 0.0
H1305 H 0.54301 0.43639 0.78717 0.0
H1306 H 0.5378 0.41046 0.84384 0.0
H1307 H 0.47765 0.42829 0.86506 0.0
H1308 H 0.48277 0.4547 0.80826 0.0
H1309 H 0.48358 0.38894 0.8484 0.0
H1310 H 0.50544 0.43606 0.95765 0.0
H1311 H 0.52628 0.4613 0.98532 0.0
H1312 H 0.5762 0.42407 0.99022 0.0
H1313 H 0.5557 0.39864 0.96177 0.0
C1314 C 0.4881 0.33067 0.04228 0.0
C1315 C 0.50591 0.32095 0.05148 0.0
C1316 C 0.48744 0.34626 0.01072 0.0
C1317 C 0.50455 0.35253 0.98754 0.0
C1318 C 0.52228 0.34276 0.99607 0.0
C1319 C 0.52295 0.32712 0.02737 0.0
C1320 C 0.50415 0.36947 0.95528 0.0
C1321 C 0.51623 0.384 0.96878 0.0
C1322 C 0.4919 0.37147 0.91193 0.0
C1323 C 0.47921 0.35649 0.89483 0.0
C1324 C 0.48725 0.33893 0.8837 0.0
C1325 C 0.47515 0.3248 0.86816 0.0
C1326 C 0.45499 0.32811 0.86327 0.0
C1327 C 0.4469 0.34558 0.87373 0.0
C1328 C 0.45894 0.35975 0.88931 0.0
C1329 C 0.52859 0.43488 0.80358 0.0
C1330 C 0.51333 0.44779 0.79322 0.0
C1331 C 0.52568 0.42 0.83617 0.0
C1332 C 0.5074 0.4175 0.85905 0.0
C1333 C 0.4919 0.42999 0.84787 0.0
C1334 C 0.49487 0.44511 0.81556 0.0
C1335 C 0.50497 0.40196 0.89535 0.0
C1336 C 0.49238 0.38773 0.8827 0.0
C1337 C 0.51663 0.40026 0.93977 0.0
C1338 C 0.52905 0.41547 0.95712 0.0
C1339 C 0.52089 0.43328 0.96419 0.0
C1340 C 0.53264 0.44762 0.9801 0.0
C1341 C 0.55256 0.4443 0.98941 0.0
C1342 C 0.56076 0.42662 0.98295 0.0
C1343 C 0.54908 0.41224 0.96697 0.0
H1344 H 0.56163 0.45542 0.00174 0.0
H1345 H 0.44564 0.31716 0.85126 0.0
H1346 H 0.17851 0.45283 0.09703 0.0
H1347 H 0.15197 0.46247 0.04092 0.0
H1348 H 0.1409 0.40582 0.00559 0.0
H1349 H 0.1688 0.39601 0.05785 0.0
H1350 H 0.13347 0.42402 0.92501 0.0
H1351 H 0.11191 0.43263 0.09443 0.0
H1352 H 0.11349 0.4428 0.18385 0.0
H1353 H 0.11432 0.4992 0.13496 0.0
H1354 H 0.11302 0.48935 0.04518 0.0
H1355 H 0.04115 0.45963 0.8151 0.0
H1356 H 0.06363 0.44213 0.87201 0.0
H1357 H 0.09395 0.49188 0.90549 0.0
H1358 H 0.07183 0.50922 0.84971 0.0
H1359 H 0.08715 0.47195 0.99159 0.0
H1360 H 0.12244 0.45575 0.82129 0.0
H1361 H 0.12134 0.44215 0.73512 0.0
H1362 H 0.08881 0.39698 0.79285 0.0
H1363 H 0.09051 0.40988 0.87972 0.0
C1364 C 0.1709 0.44229 0.07661 0.0
C1365 C 0.17605 0.4235 0.08316 0.0
C1366 C 0.15529 0.44788 0.04499 0.0
C1367 C 0.14376 0.43492 0.02002 0.0
C1368 C 0.14923 0.4162 0.02478 0.0
C1369 C 0.16517 0.41058 0.05556 0.0
C1370 C 0.12598 0.44103 0.98982 0.0
C1371 C 0.12322 0.43429 0.94016 0.0
C1372 C 0.11212 0.45419 0.00911 0.0
C1373 C 0.11248 0.46024 0.06306 0.0
C1374 C 0.1125 0.4472 0.10274 0.0
C1375 C 0.11335 0.4529 0.15349 0.0
C1376 C 0.11403 0.47163 0.16507 0.0
C1377 C 0.11379 0.48469 0.12592 0.0
C1378 C 0.11296 0.47906 0.0751 0.0
C1379 C 0.05247 0.46683 0.83514 0.0
C1380 C 0.05473 0.48584 0.82724 0.0
C1381 C 0.06551 0.45676 0.86715 0.0
C1382 C 0.08082 0.46558 0.89254 0.0
C1383 C 0.08245 0.48465 0.88625 0.0
C1384 C 0.06969 0.49459 0.85416 0.0
C1385 C 0.0952 0.45549 0.92646 0.0
C1386 C 0.09729 0.46148 0.97699 0.0
C1387 C 0.10797 0.44123 0.90866 0.0
C1388 C 0.1064 0.43385 0.85655 0.0
C1389 C 0.115 0.44295 0.81543 0.0
C1390 C 0.11433 0.43535 0.76658 0.0
C1391 C 0.10475 0.41889 0.75835 0.0
C1392 C 0.09611 0.4098 0.79917 0.0
C1393 C 0.09706 0.41716 0.84826 0.0
H1394 H 0.10415 0.41313 0.72041 0.0
H1395 H 0.11472 0.47602 0.20437 0.0
H1396 H 0.0319 0.81875 0.4091 0.0
H1397 H 0.03005 0.84516 0.46674 0.0
H1398 H 0.97051 0.85675 0.41968 0.0
H1399 H 0.97232 0.83039 0.36148 0.0
H1400 H 0.99216 0.88803 0.4208 0.0
H1401 H 0.97895 0.83907 0.53533 0.0
H1402 H 0.98402 0.80899 0.57756 0.0
H1403 H 0.03951 0.82597 0.63489 0.0
H1404 H 0.03491 0.85608 0.59235 0.0
H1405 H 0.98266 0.95835 0.61365 0.0
H1406 H 0.97671 0.93115 0.56118 0.0
H1407 H 0.0342 0.90912 0.5988 0.0
H1408 H 0.04012 0.93585 0.6515 0.0
H1409 H 0.00867 0.8828 0.6043 0.0
H1410 H 0.02313 0.93061 0.4825 0.0
H1411 H 0.0181 0.96061 0.43965 0.0
H1412 H 0.9601 0.94573 0.39597 0.0
H1413 H 0.96469 0.91573 0.4392 0.0
C1414 C 0.01837 0.82686 0.41112 0.0
C1415 C 1.00224 0.82237 0.38072 0.0
C1416 C 0.0173 0.84193 0.44434 0.0
C1417 C 1.00009 0.85294 0.44792 0.0
C1418 C 0.98392 0.84847 0.41776 0.0
C1419 C 0.98493 0.83328 0.38483 0.0
C1420 C 0.99929 0.86933 0.48222 0.0
C1421 C 0.99543 0.88685 0.46113 0.0
C1422 C 0.00377 0.86791 0.53476 0.0
C1423 C 0.00665 0.84978 0.56024 0.0
C1424 C 0.99231 0.83634 0.55655 0.0
C1425 C 0.99509 0.81929 0.58063 0.0
C1426 C 0.0121 0.81555 0.60879 0.0
C1427 C 0.02635 0.82888 0.61301 0.0
C1428 C 0.02366 0.84594 0.58896 0.0
C1429 C 0.99402 0.94769 0.61085 0.0
C1430 C 0.01192 0.94943 0.63684 0.0
C1431 C 0.99062 0.93216 0.5806 0.0
C1432 C 0.00508 0.91808 0.57548 0.0
C1433 C 0.02278 0.91971 0.60201 0.0
C1434 C 0.02616 0.93513 0.63213 0.0
C1435 C 1.00211 0.90158 0.54267 0.0
C1436 C 0.00521 0.88399 0.56408 0.0
C1437 C 0.99695 0.90298 0.49046 0.0
C1438 C 0.99416 0.92103 0.46464 0.0
C1439 C 0.00924 0.93381 0.46416 0.0
C1440 C 0.00648 0.9508 0.43973 0.0
C1441 C 0.98877 0.9551 0.41526 0.0
C1442 C 0.97379 0.9424 0.41506 0.0
C1443 C 0.97647 0.9254 0.4395 0.0
H1444 H 0.98667 0.96825 0.39633 0.0
H1445 H 0.01422 0.80235 0.62743 0.0
H1446 H 0.69198 0.92238 0.43007 0.0
H1447 H 0.66413 0.92959 0.48632 0.0
H1448 H 0.62737 0.93968 0.35498 0.0
H1449 H 0.6553 0.93321 0.29912 0.0
H1450 H 0.62007 0.96533 0.41603 0.0
H1451 H 0.6243 0.90011 0.44065 0.0
H1452 H 0.63963 0.86989 0.46146 0.0
H1453 H 0.65278 0.88877 0.61215 0.0
H1454 H 0.63775 0.91918 0.59206 0.0
H1455 H 0.53293 0.97775 0.56447 0.0
H1456 H 0.55631 0.96197 0.50654 0.0
H1457 H 0.60022 0.96165 0.6245 0.0
H1458 H 0.57719 0.97766 0.68158 0.0
H1459 H 0.60158 0.9291 0.56794 0.0
H1460 H 0.6 -0.0052 0.53898 0.0
H1461 H 0.58416 0.02479 0.51868 0.0
H1462 H 0.56526 0.00389 0.37447 0.0
H1463 H 0.58084 0.97364 0.39429 0.0
C1464 C 0.6779 0.92601 0.41329 0.0
C1465 C 0.67596 0.92741 0.36005 0.0
C1466 C 0.66188 0.93002 0.44552 0.0
C1467 C 0.64335 0.93509 0.42532 0.0
C1468 C 0.64138 0.93598 0.37201 0.0
C1469 C 0.65743 0.93228 0.33994 0.0
C1470 C 0.62636 0.94057 0.45918 0.0
C1471 C 0.61587 0.95709 0.44853 0.0
C1472 C 0.62083 0.93022 0.50262 0.0
C1473 C 0.63007 0.912 0.51464 0.0
C1474 C 0.63062 0.89787 0.47808 0.0
C1475 C 0.63922 0.88069 0.48978 0.0
C1476 C 0.64722 0.87743 0.53805 0.0
C1477 C 0.6466 0.89132 0.57475 0.0
C1478 C 0.63803 0.90853 0.56324 0.0
C1479 C 0.54742 0.97392 0.57826 0.0
C1480 C 0.55324 0.97901 0.6275 0.0
C1481 C 0.56083 0.965 0.54509 0.0
C1482 C 0.58018 0.96075 0.56087 0.0
C1483 C 0.58548 0.96476 0.6112 0.0
C1484 C 0.57228 0.97396 0.64381 0.0
C1485 C 0.59548 0.95368 0.5243 0.0
C1486 C 0.60569 0.93702 0.53474 0.0
C1487 C 0.6007 0.96378 0.48043 0.0
C1488 C 0.59135 0.98191 0.4684 0.0
C1489 C 0.59231 -0.00345 0.50315 0.0
C1490 C 0.5834 0.01361 0.49169 0.0
C1491 C 0.57361 0.01624 0.44541 0.0
C1492 C 0.57279 0.00182 0.41038 0.0
C1493 C 0.58166 0.98472 0.42169 0.0
H1494 H 0.56672 0.02947 0.43662 0.0
H1495 H 0.65386 0.86411 0.54704 0.0
H1496 H 0.53663 0.67568 0.36994 0.0
H1497 H 0.53666 0.64842 0.4244 0.0
H1498 H 0.47503 0.65714 0.45295 0.0
H1499 H 0.47441 0.68377 0.39576 0.0
H1500 H 0.50627 0.64887 0.54406 0.0
H1501 H 0.47724 0.62741 0.38547 0.0
H1502 H 0.4766 0.62342 0.29222 0.0
H1503 H 0.53245 0.59483 0.29794 0.0
H1504 H 0.53351 0.59889 0.39126 0.0
H1505 H 0.46483 0.56076 0.60984 0.0
H1506 H 0.47156 0.58778 0.55839 0.0
H1507 H 0.53352 0.57838 0.58068 0.0
H1508 H 0.52689 0.55153 0.63472 0.0
H1509 H 0.50587 0.58685 0.4652 0.0
H1510 H 0.53588 0.60898 0.62305 0.0
H1511 H 0.53749 0.61445 0.71563 0.0
H1512 H 0.48108 0.642 0.71102 0.0
H1513 H 0.47906 0.63647 0.61837 0.0
C1514 C 0.52297 0.67179 0.38721 0.0
C1515 C 0.50545 0.68197 0.37763 0.0
C1516 C 0.5231 0.65625 0.41872 0.0
C1517 C 0.50584 0.65075 0.44233 0.0
C1518 C 0.48851 0.66123 0.43498 0.0
C1519 C 0.48825 0.67657 0.40257 0.0
C1520 C 0.50586 0.63377 0.47366 0.0
C1521 C 0.50616 0.63531 0.52686 0.0
C1522 C 0.50617 0.6161 0.45114 0.0
C1523 C 0.50559 0.6137 0.39515 0.0
C1524 C 0.48949 0.62048 0.36675 0.0
C1525 C 0.48902 0.61815 0.31392 0.0
C1526 C 0.50451 0.60895 0.28913 0.0
C1527 C 0.52048 0.602 0.31717 0.0
C1528 C 0.52102 0.6043 0.37002 0.0
C1529 C 0.47993 0.56446 0.60438 0.0
C1530 C 0.49531 0.55417 0.62744 0.0
C1531 C 0.48372 0.5799 0.57475 0.0
C1532 C 0.50298 0.58526 0.56659 0.0
C1533 C 0.51852 0.57462 0.5874 0.0
C1534 C 0.51471 0.55922 0.61788 0.0
C1535 C 0.50638 0.60193 0.53568 0.0
C1536 C 0.50641 0.60038 0.48243 0.0
C1537 C 0.50657 0.61959 0.55813 0.0
C1538 C 0.5072 0.62206 0.61404 0.0
C1539 C 0.52368 0.61592 0.64194 0.0
C1540 C 0.52474 0.61917 0.69433 0.0
C1541 C 0.50943 0.62865 0.71913 0.0
C1542 C 0.49295 0.63473 0.6917 0.0
C1543 C 0.49184 0.63152 0.63928 0.0
H1544 H 0.5103 0.6312 0.75967 0.0
H1545 H 0.50412 0.60715 0.24823 0.0
H1546 H 0.82436 0.59376 0.407 0.0
H1547 H 0.8493 0.58522 0.47014 0.0
H1548 H 0.87169 0.54257 0.37 0.0
H1549 H 0.84567 0.5494 0.3104 0.0
H1550 H 0.87351 0.52893 0.45265 0.0
H1551 H 0.89398 0.5887 0.39852 0.0
H1552 H 0.89173 0.62222 0.3836 0.0
H1553 H 0.8817 0.63139 0.5431 0.0
H1554 H 0.88366 0.59791 0.5589 0.0
H1555 H 0.96786 0.51416 0.56552 0.0
H1556 H 0.94365 0.52855 0.50723 0.0
H1557 H 0.90916 0.54706 0.63569 0.0
H1558 H 0.93294 0.53209 0.69386 0.0
H1559 H 0.91372 0.57397 0.54408 0.0
H1560 H 0.89429 0.51219 0.5924 0.0
H1561 H 0.90036 0.47875 0.602 0.0
H1562 H 0.91249 0.47417 0.44196 0.0
H1563 H 0.90684 0.50766 0.43163 0.0
C1564 C 0.83432 0.58232 0.3987 0.0
C1565 C 0.83282 0.57252 0.35253 0.0
C1566 C 0.84899 0.57767 0.43468 0.0
C1567 C 0.86294 0.56341 0.42502 0.0
C1568 C 0.86133 0.55364 0.37912 0.0
C1569 C 0.84643 0.55786 0.34414 0.0
C1570 C 0.87872 0.55788 0.46278 0.0
C1571 C 0.88239 0.53896 0.47169 0.0
C1572 C 0.89033 0.57067 0.48938 0.0
C1573 C 0.8887 0.59078 0.47976 0.0
C1574 C 0.89109 0.59786 0.43033 0.0
C1575 C 0.88991 0.61685 0.42174 0.0
C1576 C 0.8865 0.62893 0.46234 0.0
C1577 C 0.88429 0.62203 0.51166 0.0
C1578 C 0.88543 0.60304 0.52045 0.0
C1579 C 0.95535 0.52169 0.58121 0.0
C1580 C 0.95233 0.52216 0.63412 0.0
C1581 C 0.9415 0.52986 0.54795 0.0
C1582 C 0.92458 0.53894 0.56704 0.0
C1583 C 0.92213 0.54026 0.62005 0.0
C1584 C 0.9357 0.5317 0.65322 0.0
C1585 C 0.90852 0.5453 0.53192 0.0
C1586 C 0.90477 0.5642 0.52422 0.0
C1587 C 0.89715 0.53257 0.50517 0.0
C1588 C 0.90038 0.51244 0.51138 0.0
C1589 C 0.89845 0.50408 0.55937 0.0
C1590 C 0.90178 0.48511 0.56492 0.0
C1591 C 0.90687 0.47435 0.52264 0.0
C1592 C 0.90859 0.48252 0.47469 0.0
C1593 C 0.90532 0.5015 0.46898 0.0
H1594 H 0.90942 0.45966 0.52701 0.0
H1595 H 0.88563 0.64363 0.45563 0.0
loop_
_geom_bond_atom_site_label_1
_geom_bond_atom_site_label_2
_geom_bond_distance
_geom_bond_site_symmetry_2
_ccdc_geom_bond_type
C0 C1 1.386 . S
C0 C2 1.397 . S
C0 H24 0.931 . S
C1 C0 1.386 . S
C1 C5 1.397 . S
C2 C0 1.397 . S
C2 C3 1.384 1_556 S
C2 H25 0.930 . S
C3 C2 1.384 1_554 S
C3 C4 1.377 . S
C3 C6 1.481 . S
C4 C3 1.377 . S
C4 C5 1.389 1_554 S
C4 H26 0.929 . S
C5 C1 1.397 . S
C5 C4 1.389 1_556 S
C5 H27 0.931 . S
C6 C3 1.481 . S
C6 C7 1.387 . S
C6 C11 1.390 . S
C7 C6 1.387 . S
C7 C8 1.401 . S
C7 H28 0.930 . S
C8 C7 1.401 . S
C8 C9 1.376 . S
C8 C17 1.511 . S
C9 C8 1.376 . S
C9 C10 1.392 . S
C9 H30 0.931 . S
C10 C9 1.392 . S
C10 C11 1.361 . S
C10 C12 1.500 . S
C11 C6 1.390 . S
C11 C10 1.361 . S
C11 H29 0.931 . S
C12 C10 1.500 . S
C12 C13 1.371 . S
C12 C14 1.365 . S
C13 C12 1.371 . S
C13 C23 1.386 . S
C13 H31 0.931 . S
C14 C12 1.365 . S
C14 C15 1.409 . S
C14 H32 0.929 . S
C15 C14 1.409 . S
C15 C16 1.380 . S
C15 H33 0.930 . S
C16 C15 1.380 . S
C16 C23 1.357 . S
C17 C8 1.511 . S
C17 C18 1.341 . S
C17 C19 1.371 . S
C18 C17 1.341 . S
C18 C22 1.394 . S
C18 H34 0.930 . S
C19 C17 1.371 . S
C19 C20 1.392 . S
C19 H35 0.931 . S
C20 C19 1.392 . S
C20 C21 1.331 . S
C20 H38 0.932 . S
C21 C20 1.331 . S
C21 C22 1.336 . S
C22 C18 1.394 . S
C22 C21 1.336 . S
C22 H37 0.929 1_554 S
C23 C13 1.386 . S
C23 C16 1.357 . S
C23 H36 0.928 . S
H24 C0 0.931 . S
H25 C2 0.930 . S
H26 C4 0.929 . S
H27 C5 0.931 . S
H28 C7 0.930 . S
H29 C11 0.931 . S
H30 C9 0.931 . S
H31 C13 0.931 . S
H32 C14 0.929 . S
H33 C15 0.930 . S
H34 C18 0.930 . S
H35 C19 0.931 . S
H36 C23 0.928 . S
H37 C22 0.929 1_556 S
H38 C20 0.932 . S
C39 C40 1.397 . S
C39 C41 1.397 . S
C39 H63 0.931 . S
C40 C39 1.397 . S
C40 C44 1.386 1_656 S
C41 C39 1.397 . S
C41 C42 1.390 1_556 S
C41 H64 0.930 . S
C42 C41 1.390 1_554 S
C42 C43 1.371 1_655 S
C42 C45 1.480 . S
C43 C42 1.371 1_455 S
C43 C44 1.389 . S
C43 H65 0.929 . S
C44 C40 1.386 1_454 S
C44 C43 1.389 . S
C44 H66 0.931 . S
C45 C42 1.480 . S
C45 C46 1.390 . S
C45 C50 1.390 . S
C46 C45 1.390 . S
C46 C47 1.402 . S
C46 H67 0.930 . S
C47 C46 1.402 . S
C47 C48 1.376 . S
C47 C56 1.514 . S
C48 C47 1.376 . S
C48 C49 1.390 . S
C48 H69 0.935 . S
C49 C48 1.390 . S
C49 C50 1.361 . S
C49 C51 1.499 1_655 S
C50 C45 1.390 . S
C50 C49 1.361 . S
C50 H68 0.931 . S
C51 C49 1.499 1_455 S
C51 C52 1.363 1_455 S
C51 C53 1.374 . S
C52 C51 1.363 1_655 S
C52 C62 1.386 . S
C52 H70 0.931 . S
C53 C51 1.374 . S
C53 C54 1.409 . S
C53 H71 0.929 . S
C54 C53 1.409 . S
C54 C55 1.377 . S
C54 H72 0.930 . S
C55 C54 1.377 . S
C55 C62 1.360 1_455 S
C56 C47 1.514 . S
C56 C57 1.341 . S
C56 C58 1.371 1_655 S
C57 C56 1.341 . S
C57 C61 1.394 . S
C57 H73 0.930 . S
C58 C56 1.371 1_455 S
C58 C59 1.392 . S
C58 H74 0.931 . S
C59 C58 1.392 . S
C59 C60 1.324 1_455 S
C59 H77 0.932 . S
C60 C59 1.324 1_655 S
C60 C61 1.343 . S
C61 C57 1.394 . S
C61 C60 1.343 . S
C61 H76 0.929 . S
C62 C52 1.386 . S
C62 C55 1.360 1_655 S
C62 H75 0.928 . S
H63 C39 0.931 . S
H64 C41 0.930 . S
H65 C43 0.929 . S
H66 C44 0.931 . S
H67 C46 0.930 . S
H68 C50 0.931 . S
H69 C48 0.935 . S
H70 C52 0.931 . S
H71 C53 0.929 . S
H72 C54 0.930 . S
H73 C57 0.930 . S
H74 C58 0.931 . S
H75 C62 0.928 . S
H76 C61 0.929 . S
H77 C59 0.932 . S
C78 C79 1.386 . S
C78 C80 1.397 . S
C78 H102 0.931 . S
C79 C78 1.386 . S
C79 C83 1.397 . S
C80 C78 1.397 . S
C80 C81 1.384 1_556 S
C80 H103 0.930 . S
C81 C80 1.384 1_554 S
C81 C82 1.377 . S
C81 C84 1.481 . S
C82 C81 1.377 . S
C82 C83 1.389 1_554 S
C82 H104 0.929 . S
C83 C79 1.397 . S
C83 C82 1.389 1_556 S
C83 H105 0.931 . S
C84 C81 1.481 . S
C84 C85 1.387 . S
C84 C89 1.390 . S
C85 C84 1.387 . S
C85 C86 1.401 . S
C85 H106 0.930 . S
C86 C85 1.401 . S
C86 C87 1.376 . S
C86 C95 1.511 . S
C87 C86 1.376 . S
C87 C88 1.392 . S
C87 H108 0.931 . S
C88 C87 1.392 . S
C88 C89 1.361 . S
C88 C90 1.500 . S
C89 C84 1.390 . S
C89 C88 1.361 . S
C89 H107 0.931 . S
C90 C88 1.500 . S
C90 C91 1.371 . S
C90 C92 1.365 . S
C91 C90 1.371 . S
C91 C101 1.386 . S
C91 H109 0.931 . S
C92 C90 1.365 . S
C92 C93 1.409 . S
C92 H110 0.929 . S
C93 C92 1.409 . S
C93 C94 1.380 . S
C93 H111 0.930 . S
C94 C93 1.380 . S
C94 C101 1.357 . S
C95 C86 1.511 . S
C95 C96 1.341 . S
C95 C97 1.371 . S
C96 C95 1.341 . S
C96 C100 1.394 . S
C96 H112 0.930 . S
C97 C95 1.371 . S
C97 C98 1.392 . S
C97 H113 0.931 . S
C98 C97 1.392 . S
C98 C99 1.331 . S
C98 H116 0.932 . S
C99 C98 1.331 . S
C99 C100 1.336 . S
C100 C96 1.394 . S
C100 C99 1.336 . S
C100 H115 0.929 1_554 S
C101 C91 1.386 . S
C101 C94 1.357 . S
C101 H114 0.928 . S
H102 C78 0.931 . S
H103 C80 0.930 . S
H104 C82 0.929 . S
H105 C83 0.931 . S
H106 C85 0.930 . S
H107 C89 0.931 . S
H108 C87 0.931 . S
H109 C91 0.931 . S
H110 C92 0.929 . S
H111 C93 0.930 . S
H112 C96 0.930 . S
H113 C97 0.931 . S
H114 C101 0.928 . S
H115 C100 0.929 1_556 S
H116 C98 0.932 . S
C117 C118 1.386 . S
C117 C119 1.397 . S
C117 H141 0.931 . S
C118 C117 1.386 . S
C118 C122 1.397 . S
C119 C117 1.397 . S
C119 C120 1.384 . S
C119 H142 0.930 . S
C120 C119 1.384 . S
C120 C121 1.377 . S
C120 C123 1.481 . S
C121 C120 1.377 . S
C121 C122 1.389 . S
C121 H143 0.929 . S
C122 C118 1.397 . S
C122 C121 1.389 . S
C122 H144 0.931 . S
C123 C120 1.481 . S
C123 C124 1.387 . S
C123 C128 1.390 . S
C124 C123 1.387 . S
C124 C125 1.401 . S
C124 H145 0.930 . S
C125 C124 1.401 . S
C125 C126 1.376 . S
C125 C134 1.511 . S
C126 C125 1.376 . S
C126 C127 1.392 . S
C126 H147 0.931 . S
C127 C126 1.392 . S
C127 C128 1.361 . S
C127 C129 1.500 . S
C128 C123 1.390 . S
C128 C127 1.361 . S
C128 H146 0.931 . S
C129 C127 1.500 . S
C129 C130 1.371 1_554 S
C129 C131 1.365 . S
C130 C129 1.371 1_556 S
C130 C140 1.386 . S
C130 H148 0.931 . S
C131 C129 1.365 . S
C131 C132 1.409 . S
C131 H149 0.929 . S
C132 C131 1.409 . S
C132 C133 1.380 1_554 S
C132 H150 0.930 . S
C133 C132 1.380 1_556 S
C133 C140 1.357 . S
C134 C125 1.511 . S
C134 C135 1.341 . S
C134 C136 1.371 . S
C135 C134 1.341 . S
C135 C139 1.394 . S
C135 H151 0.930 . S
C136 C134 1.371 . S
C136 C137 1.392 . S
C136 H152 0.931 . S
C137 C136 1.392 . S
C137 C138 1.331 . S
C137 H155 0.932 . S
C138 C137 1.331 . S
C138 C139 1.336 . S
C139 C135 1.394 . S
C139 C138 1.336 . S
C139 H154 0.929 . S
C140 C130 1.386 . S
C140 C133 1.357 . S
C140 H153 0.928 . S
H141 C117 0.931 . S
H142 C119 0.930 . S
H143 C121 0.929 . S
H144 C122 0.931 . S
H145 C124 0.930 . S
H146 C128 0.931 . S
H147 C126 0.931 . S
H148 C130 0.931 . S
H149 C131 0.929 . S
H150 C132 0.930 . S
H151 C135 0.930 . S
H152 C136 0.931 . S
H153 C140 0.928 . S
H154 C139 0.929 . S
H155 C137 0.932 . S
C156 C157 1.386 . S
C156 C158 1.397 . S
C156 H180 0.931 . S
C157 C156 1.386 . S
C157 C161 1.397 . S
C158 C156 1.397 . S
C158 C159 1.384 . S
C158 H181 0.930 . S
C159 C158 1.384 . S
C159 C160 1.377 . S
C159 C162 1.481 . S
C160 C159 1.377 . S
C160 C161 1.389 . S
C160 H182 0.929 . S
C161 C157 1.397 . S
C161 C160 1.389 . S
C161 H183 0.931 . S
C162 C159 1.481 . S
C162 C163 1.387 . S
C162 C167 1.390 . S
C163 C162 1.387 . S
C163 C164 1.401 . S
C163 H184 0.930 . S
C164 C163 1.401 . S
C164 C165 1.376 . S
C164 C173 1.511 . S
C165 C164 1.376 . S
C165 C166 1.392 . S
C165 H186 0.931 . S
C166 C165 1.392 . S
C166 C167 1.361 . S
C166 C168 1.500 . S
C167 C162 1.390 . S
C167 C166 1.361 . S
C167 H185 0.931 . S
C168 C166 1.500 . S
C168 C169 1.371 . S
C168 C170 1.365 . S
C169 C168 1.371 . S
C169 C179 1.386 . S
C169 H187 0.931 . S
C170 C168 1.365 . S
C170 C171 1.409 . S
C170 H188 0.929 . S
C171 C170 1.409 . S
C171 C172 1.380 . S
C171 H189 0.930 . S
C172 C171 1.380 . S
C172 C179 1.357 . S
C173 C164 1.511 . S
C173 C174 1.341 . S
C173 C175 1.371 . S
C174 C173 1.341 . S
C174 C178 1.394 . S
C174 H190 0.930 . S
C175 C173 1.371 . S
C175 C176 1.392 . S
C175 H191 0.931 . S
C176 C175 1.392 . S
C176 C177 1.331 . S
C176 H194 0.932 . S
C177 C176 1.331 . S
C177 C178 1.336 . S
C178 C174 1.394 . S
C178 C177 1.336 . S
C178 H193 0.929 . S
C179 C169 1.386 . S
C179 C172 1.357 . S
C179 H192 0.928 . S
H180 C156 0.931 . S
H181 C158 0.930 . S
H182 C160 0.929 . S
H183 C161 0.931 . S
H184 C163 0.930 . S
H185 C167 0.931 . S
H186 C165 0.931 . S
H187 C169 0.931 . S
H188 C170 0.929 . S
H189 C171 0.930 . S
H190 C174 0.930 . S
H191 C175 0.931 . S
H192 C179 0.928 . S
H193 C178 0.929 . S
H194 C176 0.932 . S
C195 C196 1.388 . S
C195 C197 1.397 . S
C195 H219 0.931 . S
C196 C195 1.388 . S
C196 C200 1.395 1_655 S
C197 C195 1.397 . S
C197 C198 1.382 . S
C197 H220 0.930 . S
C198 C197 1.382 . S
C198 C199 1.379 1_655 S
C198 C201 1.481 . S
C199 C198 1.379 1_455 S
C199 C200 1.389 . S
C199 H221 0.929 . S
C200 C196 1.395 1_455 S
C200 C199 1.389 . S
C200 H222 0.931 . S
C201 C198 1.481 . S
C201 C202 1.388 . S
C201 C206 1.390 . S
C202 C201 1.388 . S
C202 C203 1.399 . S
C202 H223 0.935 . S
C203 C202 1.399 . S
C203 C204 1.376 . S
C203 C212 1.511 . S
C204 C203 1.376 . S
C204 C205 1.393 1_655 S
C204 H225 0.932 . S
C205 C204 1.393 1_455 S
C205 C206 1.361 1_455 S
C205 C207 1.499 . S
C206 C201 1.390 . S
C206 C205 1.361 1_655 S
C206 H224 0.931 . S
C207 C205 1.499 . S
C207 C208 1.358 1_455 S
C207 C209 1.379 . S
C208 C207 1.358 1_655 S
C208 C218 1.386 . S
C208 H226 0.931 . S
C209 C207 1.379 . S
C209 C210 1.409 . S
C209 H227 0.929 . S
C210 C209 1.409 . S
C210 C211 1.383 . S
C210 H228 0.930 . S
C211 C210 1.383 . S
C211 C218 1.354 1_455 S
C212 C203 1.511 . S
C212 C213 1.341 . S
C212 C214 1.371 1_655 S
C213 C212 1.341 . S
C213 C217 1.394 . S
C213 H229 0.930 . S
C214 C212 1.371 1_455 S
C214 C215 1.392 . S
C214 H230 0.931 . S
C215 C214 1.392 . S
C215 C216 1.328 1_455 S
C215 H233 0.932 . S
C216 C215 1.328 1_655 S
C216 C217 1.339 . S
C217 C213 1.394 . S
C217 C216 1.339 . S
C217 H232 0.929 . S
C218 C208 1.386 . S
C218 C211 1.354 1_655 S
C218 H231 0.928 . S
H219 C195 0.931 . S
H220 C197 0.930 . S
H221 C199 0.929 . S
H222 C200 0.931 . S
H223 C202 0.935 . S
H224 C206 0.931 . S
H225 C204 0.932 . S
H226 C208 0.931 . S
H227 C209 0.929 . S
H228 C210 0.930 . S
H229 C213 0.930 . S
H230 C214 0.931 . S
H231 C218 0.928 . S
H232 C217 0.929 . S
H233 C215 0.932 . S
C234 C235 1.386 . S
C234 C236 1.397 . S
C234 H258 0.931 . S
C235 C234 1.386 . S
C235 C239 1.397 . S
C236 C234 1.397 . S
C236 C237 1.384 . S
C236 H259 0.930 . S
C237 C236 1.384 . S
C237 C238 1.377 . S
C237 C240 1.481 . S
C238 C237 1.377 . S
C238 C239 1.389 . S
C238 H260 0.929 . S
C239 C235 1.397 . S
C239 C238 1.389 . S
C239 H261 0.931 . S
C240 C237 1.481 . S
C240 C241 1.387 . S
C240 C245 1.390 . S
C241 C240 1.387 . S
C241 C242 1.401 . S
C241 H262 0.930 . S
C242 C241 1.401 . S
C242 C243 1.376 . S
C242 C251 1.511 . S
C243 C242 1.376 . S
C243 C244 1.392 . S
C243 H264 0.931 . S
C244 C243 1.392 . S
C244 C245 1.361 . S
C244 C246 1.500 . S
C245 C240 1.390 . S
C245 C244 1.361 . S
C245 H263 0.931 . S
C246 C244 1.500 . S
C246 C247 1.371 . S
C246 C248 1.365 . S
C247 C246 1.371 . S
C247 C257 1.386 . S
C247 H265 0.931 . S
C248 C246 1.365 . S
C248 C249 1.409 . S
C248 H266 0.929 . S
C249 C248 1.409 . S
C249 C250 1.380 . S
C249 H267 0.930 . S
C250 C249 1.380 . S
C250 C257 1.357 . S
C251 C242 1.511 . S
C251 C252 1.341 . S
C251 C253 1.371 . S
C252 C251 1.341 . S
C252 C256 1.394 . S
C252 H268 0.930 . S
C253 C251 1.371 . S
C253 C254 1.392 . S
C253 H269 0.931 . S
C254 C253 1.392 . S
C254 C255 1.331 . S
C254 H272 0.932 . S
C255 C254 1.331 . S
C255 C256 1.336 . S
C256 C252 1.394 . S
C256 C255 1.336 . S
C256 H271 0.929 . S
C257 C247 1.386 . S
C257 C250 1.357 . S
C257 H270 0.928 . S
H258 C234 0.931 . S
H259 C236 0.930 . S
H260 C238 0.929 . S
H261 C239 0.931 . S
H262 C241 0.930 . S
H263 C245 0.931 . S
H264 C243 0.931 . S
H265 C247 0.931 . S
H266 C248 0.929 . S
H267 C249 0.930 . S
H268 C252 0.930 . S
H269 C253 0.931 . S
H270 C257 0.928 . S
H271 C256 0.929 . S
H272 C254 0.932 . S
C273 C274 1.386 . S
C273 C275 1.397 . S
C273 H297 0.931 . S
C274 C273 1.386 . S
C274 C278 1.397 . S
C275 C273 1.397 . S
C275 C276 1.384 . S
C275 H298 0.930 . S
C276 C275 1.384 . S
C276 C277 1.377 . S
C276 C279 1.481 . S
C277 C276 1.377 . S
C277 C278 1.389 . S
C277 H299 0.929 . S
C278 C274 1.397 . S
C278 C277 1.389 . S
C278 H300 0.931 . S
C279 C276 1.481 . S
C279 C280 1.387 . S
C279 C284 1.390 . S
C280 C279 1.387 . S
C280 C281 1.401 . S
C280 H301 0.930 . S
C281 C280 1.401 . S
C281 C282 1.376 . S
C281 C290 1.511 . S
C282 C281 1.376 . S
C282 C283 1.392 . S
C282 H303 0.931 . S
C283 C282 1.392 . S
C283 C284 1.361 . S
C283 C285 1.500 . S
C284 C279 1.390 . S
C284 C283 1.361 . S
C284 H302 0.931 . S
C285 C283 1.500 . S
C285 C286 1.371 . S
C285 C287 1.365 . S
C286 C285 1.371 . S
C286 C296 1.386 . S
C286 H304 0.931 . S
C287 C285 1.365 . S
C287 C288 1.409 . S
C287 H305 0.929 . S
C288 C287 1.409 . S
C288 C289 1.380 . S
C288 H306 0.930 . S
C289 C288 1.380 . S
C289 C296 1.357 . S
C290 C281 1.511 . S
C290 C291 1.341 . S
C290 C292 1.371 . S
C291 C290 1.341 . S
C291 C295 1.394 . S
C291 H307 0.930 . S
C292 C290 1.371 . S
C292 C293 1.392 . S
C292 H308 0.931 . S
C293 C292 1.392 . S
C293 C294 1.331 . S
C293 H311 0.932 . S
C294 C293 1.331 . S
C294 C295 1.336 . S
C295 C291 1.394 . S
C295 C294 1.336 . S
C295 H310 0.929 . S
C296 C286 1.386 . S
C296 C289 1.357 . S
C296 H309 0.928 . S
H297 C273 0.931 . S
H298 C275 0.930 . S
H299 C277 0.929 . S
H300 C278 0.931 . S
H301 C280 0.930 . S
H302 C284 0.931 . S
H303 C282 0.931 . S
H304 C286 0.931 . S
H305 C287 0.929 . S
H306 C288 0.930 . S
H307 C291 0.930 . S
H308 C292 0.931 . S
H309 C296 0.928 . S
H310 C295 0.929 . S
H311 C293 0.932 . S
O312 Mn313 2.147 1_455 S
O312 C326 1.244 . S
Mn313 O312 2.147 1_655 S
Mn313 O316 2.172 1_545 S
Mn313 O317 2.174 1_655 S
Mn313 O319 2.161 1_645 S
Mn313 O321 2.168 . S
Mn313 O331 2.270 . S
O314 Mn315 2.087 . S
O314 C326 1.256 1_655 S
Mn315 O314 2.087 . S
Mn315 O322 2.089 . S
Mn315 O331 2.290 . S
Mn315 O332 2.251 . S
O316 Mn313 2.172 1_565 S
O316 C327 1.239 . S
O317 Mn313 2.174 1_455 S
O317 Mn318 2.290 1_545 S
O317 C328 1.278 . S
Mn318 O317 2.290 1_565 S
Mn318 O320 2.089 . S
Mn318 O323 2.251 . S
Mn318 O324 2.087 . S
O319 Mn313 2.161 1_465 S
O319 C329 1.244 . S
O320 Mn318 2.089 . S
O320 C327 1.256 1_455 S
O321 Mn313 2.168 . S
O321 C330 1.239 . S
O322 Mn315 2.089 . S
O322 C330 1.256 . S
O323 Mn318 2.251 . S
O323 C328 1.241 1_565 S
O324 Mn318 2.087 . S
O324 C329 1.256 . S
C325 O331 1.278 . S
C325 O332 1.241 . S
C326 O312 1.244 . S
C326 O314 1.256 1_455 S
C327 O316 1.239 . S
C327 O320 1.256 1_655 S
C328 O317 1.278 . S
C328 O323 1.241 1_545 S
C329 O319 1.244 . S
C329 O324 1.256 . S
C330 O321 1.239 . S
C330 O322 1.256 . S
O331 Mn313 2.270 . S
O331 Mn315 2.290 . S
O331 C325 1.278 . S
O332 Mn315 2.251 . S
O332 C325 1.241 . S
O333 Mn334 2.154 1_565 S
O333 C347 1.231 1_565 S
Mn334 O333 2.154 1_545 S
Mn334 O337 2.160 . S
Mn334 O338 2.221 1_545 S
Mn334 O340 2.163 . S
Mn334 O342 2.160 1_545 S
Mn334 O352 2.221 . S
O335 Mn336 2.087 . S
O335 C347 1.256 . S
Mn336 O335 2.087 . S
Mn336 O343 2.089 . S
Mn336 O352 2.290 . S
Mn336 O353 2.251 . S
O337 Mn334 2.160 . S
O337 C348 1.239 . S
O338 Mn334 2.221 1_565 S
O338 Mn339 2.290 . S
O338 C349 1.278 . S
Mn339 O338 2.290 . S
Mn339 O341 2.089 1_565 S
Mn339 O344 2.251 . S
Mn339 O345 2.087 1_565 S
O340 Mn334 2.163 . S
O340 C350 1.244 . S
O341 Mn339 2.089 1_545 S
O341 C348 1.256 . S
O342 Mn334 2.160 1_565 S
O342 C351 1.239 . S
O343 Mn336 2.089 . S
O343 C351 1.256 1_545 S
O344 Mn339 2.251 . S
O344 C349 1.241 . S
O345 Mn339 2.087 1_545 S
O345 C350 1.256 . S
C346 O352 1.278 . S
C346 O353 1.241 . S
C347 O333 1.231 1_545 S
C347 O335 1.256 . S
C348 O337 1.239 . S
C348 O341 1.256 . S
C349 O338 1.278 . S
C349 O344 1.241 . S
C350 O340 1.244 . S
C350 O345 1.256 . S
C351 O342 1.239 . S
C351 O343 1.256 1_565 S
O352 Mn334 2.221 . S
O352 Mn336 2.290 . S
O352 C346 1.278 . S
O353 Mn336 2.251 . S
O353 C346 1.241 . S
O354 Mn355 2.163 . S
O354 C368 1.244 . S
Mn355 O354 2.163 . S
Mn355 O358 2.160 . S
Mn355 O359 2.221 . S
Mn355 O361 2.163 . S
Mn355 O363 2.160 . S
Mn355 O373 2.221 . S
O356 Mn357 2.087 . S
O356 C368 1.256 . S
Mn357 O356 2.087 . S
Mn357 O364 2.089 . S
Mn357 O373 2.290 . S
Mn357 O374 2.251 . S
O358 Mn355 2.160 . S
O358 C369 1.239 . S
O359 Mn355 2.221 . S
O359 Mn360 2.290 . S
O359 C370 1.278 . S
Mn360 O359 2.290 . S
Mn360 O362 2.089 . S
Mn360 O365 2.251 . S
Mn360 O366 2.087 . S
O361 Mn355 2.163 . S
O361 C371 1.244 . S
O362 Mn360 2.089 . S
O362 C369 1.256 . S
O363 Mn355 2.160 . S
O363 C372 1.239 . S
O364 Mn357 2.089 . S
O364 C372 1.256 . S
O365 Mn360 2.251 . S
O365 C370 1.241 . S
O366 Mn360 2.087 . S
O366 C371 1.256 . S
C367 O373 1.278 . S
C367 O374 1.241 . S
C368 O354 1.244 . S
C368 O356 1.256 . S
C369 O358 1.239 . S
C369 O362 1.256 . S
C370 O359 1.278 . S
C370 O365 1.241 . S
C371 O361 1.244 . S
C371 O366 1.256 . S
C372 O363 1.239 . S
C372 O364 1.256 . S
O373 Mn355 2.221 . S
O373 Mn357 2.290 . S
O373 C367 1.278 . S
O374 Mn357 2.251 . S
O374 C367 1.241 . S
O375 Mn376 2.163 . S
O375 C389 1.244 . S
Mn376 O375 2.163 . S
Mn376 O379 2.160 1_455 S
Mn376 O380 2.221 1_455 S
Mn376 O382 2.163 1_455 S
Mn376 O384 2.160 . S
Mn376 O394 2.221 . S
O377 Mn378 2.087 . S
O377 C389 1.256 . S
Mn378 O377 2.087 . S
Mn378 O385 2.089 . S
Mn378 O394 2.290 . S
Mn378 O395 2.251 . S
O379 Mn376 2.160 1_655 S
O379 C390 1.239 . S
O380 Mn376 2.221 1_655 S
O380 Mn381 2.290 . S
O380 C391 1.278 . S
Mn381 O380 2.290 . S
Mn381 O383 2.089 . S
Mn381 O386 2.251 . S
Mn381 O387 2.087 . S
O382 Mn376 2.163 1_655 S
O382 C392 1.244 . S
O383 Mn381 2.089 . S
O383 C390 1.256 . S
O384 Mn376 2.160 . S
O384 C393 1.239 . S
O385 Mn378 2.089 . S
O385 C393 1.256 . S
O386 Mn381 2.251 . S
O386 C391 1.241 . S
O387 Mn381 2.087 . S
O387 C392 1.256 . S
C388 O394 1.278 . S
C388 O395 1.241 . S
C389 O375 1.244 . S
C389 O377 1.256 . S
C390 O379 1.239 . S
C390 O383 1.256 . S
C391 O380 1.278 . S
C391 O386 1.241 . S
C392 O382 1.244 . S
C392 O387 1.256 . S
C393 O384 1.239 . S
C393 O385 1.256 . S
O394 Mn376 2.221 . S
O394 Mn378 2.290 . S
O394 C388 1.278 . S
O395 Mn378 2.251 . S
O395 C388 1.241 . S
H396 C414 0.951 . S
H397 C416 0.951 . S
H398 C418 0.950 . S
H399 C419 0.950 . S
H400 C421 0.950 . S
H401 C424 0.950 . S
H402 C425 0.950 . S
H403 C427 0.950 . S
H404 C428 0.950 . S
H405 C429 0.951 . S
H406 C431 0.951 . S
H407 C433 0.950 . S
H408 C434 0.950 . S
H409 C436 0.950 . S
H410 C439 0.950 . S
H411 C440 0.950 . S
H412 C442 0.950 . S
H413 C443 0.950 . S
C414 H396 0.951 . S
C414 C415 1.366 . S
C414 C416 1.388 . S
C415 C414 1.366 . S
C415 C419 1.385 . S
C416 H397 0.951 . S
C416 C414 1.388 . S
C416 C417 1.366 . S
C417 C416 1.366 . S
C417 C418 1.414 . S
C417 C420 1.499 . S
C418 H398 0.950 . S
C418 C417 1.414 . S
C418 C419 1.374 . S
C419 H399 0.950 . S
C419 C415 1.385 . S
C419 C418 1.374 . S
C420 C417 1.499 . S
C420 C421 1.373 . S
C420 C422 1.389 . S
C421 H400 0.950 . S
C421 C420 1.373 . S
C421 C437 1.377 . S
C422 C420 1.389 . S
C422 C423 1.524 . S
C422 C436 1.377 . S
C423 C422 1.524 . S
C423 C424 1.397 . S
C423 C428 1.363 . S
C424 H401 0.950 . S
C424 C423 1.397 . S
C424 C425 1.334 . S
C425 H402 0.950 . S
C425 C424 1.334 . S
C425 C426 1.287 . S
C426 C425 1.287 . S
C426 C427 1.524 . S
C426 H445 0.913 . S
C427 H403 0.950 . S
C427 C426 1.524 . S
C427 C428 1.415 . S
C428 H404 0.950 . S
C428 C423 1.363 . S
C428 C427 1.415 . S
C429 H405 0.951 . S
C429 C430 1.366 . S
C429 C431 1.388 . S
C430 C429 1.366 . S
C430 C434 1.385 . S
C431 H406 0.951 . S
C431 C429 1.388 . S
C431 C432 1.366 . S
C432 C431 1.366 . S
C432 C433 1.414 . S
C432 C435 1.499 . S
C433 H407 0.950 . S
C433 C432 1.414 . S
C433 C434 1.374 . S
C434 H408 0.950 . S
C434 C430 1.385 . S
C434 C433 1.374 . S
C435 C432 1.499 . S
C435 C436 1.373 . S
C435 C437 1.389 . S
C436 H409 0.950 . S
C436 C422 1.377 . S
C436 C435 1.373 . S
C437 C421 1.377 . S
C437 C435 1.389 . S
C437 C438 1.524 . S
C438 C437 1.524 . S
C438 C439 1.397 . S
C438 C443 1.363 . S
C439 H410 0.950 . S
C439 C438 1.397 . S
C439 C440 1.334 . S
C440 H411 0.950 . S
C440 C439 1.334 . S
C440 C441 1.287 . S
C441 C440 1.287 . S
C441 C442 1.524 . S
C441 H444 0.999 . S
C442 H412 0.950 . S
C442 C441 1.524 . S
C442 C443 1.415 . S
C443 H413 0.950 . S
C443 C438 1.363 . S
C443 C442 1.415 . S
H444 C441 0.999 . S
H445 C426 0.913 . S
H446 C464 0.951 . S
H447 C466 0.951 . S
H448 C468 0.950 . S
H449 C469 0.950 . S
H450 C471 0.950 . S
H451 C474 0.950 . S
H452 C475 0.950 . S
H453 C477 0.950 . S
H454 C478 0.950 . S
H455 C479 0.951 . S
H456 C481 0.951 . S
H457 C483 0.950 . S
H458 C484 0.950 . S
H459 C486 0.950 . S
H460 C489 0.950 . S
H461 C490 0.950 . S
H462 C492 0.950 . S
H463 C493 0.950 . S
C464 H446 0.951 . S
C464 C465 1.366 . S
C464 C466 1.388 . S
C465 C464 1.366 . S
C465 C469 1.385 . S
C466 H447 0.951 . S
C466 C464 1.388 . S
C466 C467 1.366 . S
C467 C466 1.366 . S
C467 C468 1.414 . S
C467 C470 1.499 . S
C468 H448 0.950 . S
C468 C467 1.414 . S
C468 C469 1.374 . S
C469 H449 0.950 . S
C469 C465 1.385 . S
C469 C468 1.374 . S
C470 C467 1.499 . S
C470 C471 1.373 . S
C470 C472 1.389 . S
C471 H450 0.950 . S
C471 C470 1.373 . S
C471 C487 1.377 . S
C472 C470 1.389 . S
C472 C473 1.524 . S
C472 C486 1.377 . S
C473 C472 1.524 . S
C473 C474 1.397 . S
C473 C478 1.363 . S
C474 H451 0.950 . S
C474 C473 1.397 . S
C474 C475 1.334 . S
C475 H452 0.950 . S
C475 C474 1.334 . S
C475 C476 1.287 . S
C476 C475 1.287 . S
C476 C477 1.524 . S
C476 H495 0.913 . S
C477 H453 0.950 . S
C477 C476 1.524 . S
C477 C478 1.415 . S
C478 H454 0.950 . S
C478 C473 1.363 . S
C478 C477 1.415 . S
C479 H455 0.951 . S
C479 C480 1.366 . S
C479 C481 1.388 . S
C480 C479 1.366 . S
C480 C484 1.385 . S
C481 H456 0.951 . S
C481 C479 1.388 . S
C481 C482 1.366 . S
C482 C481 1.366 . S
C482 C483 1.414 . S
C482 C485 1.499 . S
C483 H457 0.950 . S
C483 C482 1.414 . S
C483 C484 1.374 . S
C484 H458 0.950 . S
C484 C480 1.385 . S
C484 C483 1.374 . S
C485 C482 1.499 . S
C485 C486 1.373 . S
C485 C487 1.389 . S
C486 H459 0.950 . S
C486 C472 1.377 . S
C486 C485 1.373 . S
C487 C471 1.377 . S
C487 C485 1.389 . S
C487 C488 1.524 . S
C488 C487 1.524 . S
C488 C489 1.397 . S
C488 C493 1.363 . S
C489 H460 0.950 . S
C489 C488 1.397 . S
C489 C490 1.334 . S
C490 H461 0.950 . S
C490 C489 1.334 . S
C490 C491 1.287 . S
C491 C490 1.287 . S
C491 C492 1.524 . S
C491 H494 0.999 . S
C492 H462 0.950 . S
C492 C491 1.524 . S
C492 C493 1.415 . S
C493 H463 0.950 . S
C493 C488 1.363 . S
C493 C492 1.415 . S
H494 C491 0.999 . S
H495 C476 0.913 . S
H496 C514 0.951 . S
H497 C516 0.951 . S
H498 C518 0.950 . S
H499 C519 0.950 . S
H500 C521 0.950 . S
H501 C524 0.950 . S
H502 C525 0.950 . S
H503 C527 0.950 . S
H504 C528 0.950 . S
H505 C529 0.951 . S
H506 C531 0.951 . S
H507 C533 0.950 . S
H508 C534 0.950 . S
H509 C536 0.950 . S
H510 C539 0.950 . S
H511 C540 0.950 . S
H512 C542 0.950 . S
H513 C543 0.950 . S
C514 H496 0.951 . S
C514 C515 1.366 . S
C514 C516 1.388 . S
C515 C514 1.366 . S
C515 C519 1.385 . S
C516 H497 0.951 . S
C516 C514 1.388 . S
C516 C517 1.366 . S
C517 C516 1.366 . S
C517 C518 1.414 . S
C517 C520 1.499 . S
C518 H498 0.950 . S
C518 C517 1.414 . S
C518 C519 1.374 . S
C519 H499 0.950 . S
C519 C515 1.385 . S
C519 C518 1.374 . S
C520 C517 1.499 . S
C520 C521 1.373 . S
C520 C522 1.389 . S
C521 H500 0.950 . S
C521 C520 1.373 . S
C521 C537 1.377 . S
C522 C520 1.389 . S
C522 C523 1.524 . S
C522 C536 1.377 . S
C523 C522 1.524 . S
C523 C524 1.397 . S
C523 C528 1.363 . S
C524 H501 0.950 . S
C524 C523 1.397 . S
C524 C525 1.334 . S
C525 H502 0.950 . S
C525 C524 1.334 . S
C525 C526 1.287 . S
C526 C525 1.287 . S
C526 C527 1.524 . S
C526 H545 0.913 . S
C527 H503 0.950 . S
C527 C526 1.524 . S
C527 C528 1.415 . S
C528 H504 0.950 . S
C528 C523 1.363 . S
C528 C527 1.415 . S
C529 H505 0.951 . S
C529 C530 1.366 . S
C529 C531 1.388 . S
C530 C529 1.366 . S
C530 C534 1.385 . S
C531 H506 0.951 . S
C531 C529 1.388 . S
C531 C532 1.366 . S
C532 C531 1.366 . S
C532 C533 1.414 . S
C532 C535 1.499 . S
C533 H507 0.950 . S
C533 C532 1.414 . S
C533 C534 1.374 . S
C534 H508 0.950 . S
C534 C530 1.385 . S
C534 C533 1.374 . S
C535 C532 1.499 . S
C535 C536 1.373 . S
C535 C537 1.389 . S
C536 H509 0.950 . S
C536 C522 1.377 . S
C536 C535 1.373 . S
C537 C521 1.377 . S
C537 C535 1.389 . S
C537 C538 1.524 . S
C538 C537 1.524 . S
C538 C539 1.397 . S
C538 C543 1.363 . S
C539 H510 0.950 . S
C539 C538 1.397 . S
C539 C540 1.334 . S
C540 H511 0.950 . S
C540 C539 1.334 . S
C540 C541 1.287 . S
C541 C540 1.287 . S
C541 C542 1.524 . S
C541 H544 0.999 . S
C542 H512 0.950 . S
C542 C541 1.524 . S
C542 C543 1.415 . S
C543 H513 0.950 . S
C543 C538 1.363 . S
C543 C542 1.415 . S
H544 C541 0.999 . S
H545 C526 0.913 . S
H546 C564 0.951 . S
H547 C566 0.951 . S
H548 C568 0.950 . S
H549 C569 0.950 . S
H550 C571 0.950 . S
H551 C574 0.950 . S
H552 C575 0.950 . S
H553 C577 0.950 . S
H554 C578 0.950 . S
H555 C579 0.951 . S
H556 C581 0.951 . S
H557 C583 0.950 . S
H558 C584 0.950 . S
H559 C586 0.950 . S
H560 C589 0.950 . S
H561 C590 0.953 . S
H562 C592 0.950 . S
H563 C593 0.950 . S
C564 H546 0.951 . S
C564 C565 1.358 1_455 S
C564 C566 1.388 . S
C565 C564 1.358 1_655 S
C565 C569 1.392 . S
C566 H547 0.951 . S
C566 C564 1.388 . S
C566 C567 1.366 1_455 S
C567 C566 1.366 1_655 S
C567 C568 1.414 . S
C567 C570 1.499 . S
C568 H548 0.950 . S
C568 C567 1.414 . S
C568 C569 1.374 . S
C569 H549 0.950 . S
C569 C565 1.392 . S
C569 C568 1.374 . S
C570 C567 1.499 . S
C570 C571 1.373 . S
C570 C572 1.389 1_655 S
C571 H550 0.950 . S
C571 C570 1.373 . S
C571 C587 1.377 . S
C572 C570 1.389 1_455 S
C572 C573 1.524 . S
C572 C586 1.377 . S
C573 C572 1.524 . S
C573 C574 1.397 1_455 S
C573 C578 1.363 . S
C574 H551 0.950 . S
C574 C573 1.397 1_655 S
C574 C575 1.334 . S
C575 H552 0.950 . S
C575 C574 1.334 . S
C575 C576 1.287 1_655 S
C576 C575 1.287 1_455 S
C576 C577 1.524 . S
C576 H595 0.913 . S
C577 H553 0.950 . S
C577 C576 1.524 . S
C577 C578 1.415 . S
C578 H554 0.950 . S
C578 C573 1.363 . S
C578 C577 1.415 . S
C579 H555 0.951 . S
C579 C580 1.366 . S
C579 C581 1.388 . S
C580 C579 1.366 . S
C580 C584 1.385 1_655 S
C581 H556 0.951 . S
C581 C579 1.388 . S
C581 C582 1.366 . S
C582 C581 1.366 . S
C582 C583 1.414 1_655 S
C582 C585 1.499 . S
C583 H557 0.950 . S
C583 C582 1.414 1_455 S
C583 C584 1.374 . S
C584 H558 0.950 . S
C584 C580 1.385 1_455 S
C584 C583 1.374 . S
C585 C582 1.499 . S
C585 C586 1.373 1_655 S
C585 C587 1.389 . S
C586 H559 0.950 . S
C586 C572 1.377 . S
C586 C585 1.373 1_455 S
C587 C571 1.377 . S
C587 C585 1.389 . S
C587 C588 1.524 . S
C588 C587 1.524 . S
C588 C589 1.397 1_655 S
C588 C593 1.363 . S
C589 H560 0.950 . S
C589 C588 1.397 1_455 S
C589 C590 1.334 . S
C590 H561 0.953 . S
C590 C589 1.334 . S
C590 C591 1.284 1_455 S
C591 C590 1.284 1_655 S
C591 C592 1.524 . S
C591 H594 0.999 . S
C592 H562 0.950 . S
C592 C591 1.524 . S
C592 C593 1.415 . S
C593 H563 0.950 . S
C593 C588 1.363 . S
C593 C592 1.415 . S
H594 C591 0.999 . S
H595 C576 0.913 . S
H596 C614 0.951 . S
H597 C616 0.951 . S
H598 C618 0.950 . S
H599 C619 0.950 . S
H600 C621 0.950 . S
H601 C624 0.950 . S
H602 C625 0.950 . S
H603 C627 0.950 1_556 S
H604 C628 0.950 . S
H605 C629 0.951 1_545 S
H606 C631 0.951 . S
H607 C633 0.950 . S
H608 C634 0.950 . S
H609 C636 0.950 . S
H610 C639 0.950 . S
H611 C640 0.950 . S
H612 C642 0.950 . S
H613 C643 0.950 . S
C614 H596 0.951 . S
C614 C615 1.366 1_556 S
C614 C616 1.388 . S
C615 C614 1.366 1_554 S
C615 C619 1.385 . S
C616 H597 0.951 . S
C616 C614 1.388 . S
C616 C617 1.366 . S
C617 C616 1.366 . S
C617 C618 1.414 . S
C617 C620 1.499 . S
C618 H598 0.950 . S
C618 C617 1.414 . S
C618 C619 1.374 1_556 S
C619 H599 0.950 . S
C619 C615 1.385 . S
C619 C618 1.374 1_554 S
C620 C617 1.499 . S
C620 C621 1.373 . S
C620 C622 1.389 . S
C621 H600 0.950 . S
C621 C620 1.373 . S
C621 C637 1.377 . S
C622 C620 1.389 . S
C622 C623 1.524 . S
C622 C636 1.377 . S
C623 C622 1.524 . S
C623 C624 1.397 1_556 S
C623 C628 1.363 . S
C624 H601 0.950 . S
C624 C623 1.397 1_554 S
C624 C625 1.334 . S
C625 H602 0.950 . S
C625 C624 1.334 . S
C625 C626 1.287 . S
C626 C625 1.287 . S
C626 C627 1.524 . S
C626 H645 0.913 . S
C627 H603 0.950 1_554 S
C627 C626 1.524 . S
C627 C628 1.415 1_554 S
C628 H604 0.950 . S
C628 C623 1.363 . S
C628 C627 1.415 1_556 S
C629 H605 0.951 1_565 S
C629 C630 1.366 . S
C629 C631 1.388 . S
C630 C629 1.366 . S
C630 C634 1.385 . S
C631 H606 0.951 . S
C631 C629 1.388 . S
C631 C632 1.366 . S
C632 C631 1.366 . S
C632 C633 1.414 . S
C632 C635 1.499 . S
C633 H607 0.950 . S
C633 C632 1.414 . S
C633 C634 1.374 . S
C634 H608 0.950 . S
C634 C630 1.385 . S
C634 C633 1.374 . S
C635 C632 1.499 . S
C635 C636 1.373 . S
C635 C637 1.389 . S
C636 H609 0.950 . S
C636 C622 1.377 . S
C636 C635 1.373 . S
C637 C621 1.377 . S
C637 C635 1.389 . S
C637 C638 1.524 . S
C638 C637 1.524 . S
C638 C639 1.397 . S
C638 C643 1.363 . S
C639 H610 0.950 . S
C639 C638 1.397 . S
C639 C640 1.334 . S
C640 H611 0.950 . S
C640 C639 1.334 . S
C640 C641 1.243 1_565 S
C641 C640 1.243 1_545 S
C641 C642 1.543 . S
C641 H644 1.037 . S
C642 H612 0.950 . S
C642 C641 1.543 . S
C642 C643 1.415 1_545 S
C643 H613 0.950 . S
C643 C638 1.363 . S
C643 C642 1.415 1_565 S
H644 C641 1.037 . S
H645 C626 0.913 . S
H646 C664 0.951 . S
H647 C666 0.951 . S
H648 C668 0.950 . S
H649 C669 0.950 . S
H650 C671 0.950 . S
H651 C674 0.950 . S
H652 C675 0.950 . S
H653 C677 0.950 . S
H654 C678 0.950 . S
H655 C679 0.951 . S
H656 C681 0.951 . S
H657 C683 0.950 . S
H658 C684 0.950 . S
H659 C686 0.950 . S
H660 C689 0.950 . S
H661 C690 0.950 . S
H662 C692 0.950 . S
H663 C693 0.950 . S
C664 H646 0.951 . S
C664 C665 1.366 1_556 S
C664 C666 1.388 . S
C665 C664 1.366 1_554 S
C665 C669 1.385 . S
C666 H647 0.951 . S
C666 C664 1.388 . S
C666 C667 1.366 . S
C667 C666 1.366 . S
C667 C668 1.414 1_556 S
C667 C670 1.499 . S
C668 H648 0.950 . S
C668 C667 1.414 1_554 S
C668 C669 1.374 . S
C669 H649 0.950 . S
C669 C665 1.385 . S
C669 C668 1.374 . S
C670 C667 1.499 . S
C670 C671 1.373 . S
C670 C672 1.389 . S
C671 H650 0.950 . S
C671 C670 1.373 . S
C671 C687 1.377 . S
C672 C670 1.389 . S
C672 C673 1.524 . S
C672 C686 1.377 . S
C673 C672 1.524 . S
C673 C674 1.397 . S
C673 C678 1.363 . S
C674 H651 0.950 . S
C674 C673 1.397 . S
C674 C675 1.334 . S
C675 H652 0.950 . S
C675 C674 1.334 . S
C675 C676 1.287 . S
C676 C675 1.287 . S
C676 C677 1.524 . S
C676 H695 0.913 . S
C677 H653 0.950 . S
C677 C676 1.524 . S
C677 C678 1.415 . S
C678 H654 0.950 . S
C678 C673 1.363 . S
C678 C677 1.415 . S
C679 H655 0.951 . S
C679 C680 1.366 . S
C679 C681 1.388 . S
C680 C679 1.366 . S
C680 C684 1.385 . S
C681 H656 0.951 . S
C681 C679 1.388 . S
C681 C682 1.366 . S
C682 C681 1.366 . S
C682 C683 1.414 . S
C682 C685 1.499 . S
C683 H657 0.950 . S
C683 C682 1.414 . S
C683 C684 1.374 . S
C684 H658 0.950 . S
C684 C680 1.385 . S
C684 C683 1.374 . S
C685 C682 1.499 . S
C685 C686 1.373 . S
C685 C687 1.389 . S
C686 H659 0.950 . S
C686 C672 1.377 . S
C686 C685 1.373 . S
C687 C671 1.377 . S
C687 C685 1.389 . S
C687 C688 1.524 . S
C688 C687 1.524 . S
C688 C689 1.397 . S
C688 C693 1.363 . S
C689 H660 0.950 . S
C689 C688 1.397 . S
C689 C690 1.334 . S
C690 H661 0.950 . S
C690 C689 1.334 . S
C690 C691 1.287 . S
C691 C690 1.287 . S
C691 C692 1.524 . S
C691 H694 0.999 . S
C692 H662 0.950 . S
C692 C691 1.524 . S
C692 C693 1.415 . S
C693 H663 0.950 . S
C693 C688 1.363 . S
C693 C692 1.415 . S
H694 C691 0.999 . S
H695 C676 0.913 . S
H696 C714 0.951 . S
H697 C716 0.951 . S
H698 C718 0.950 . S
H699 C719 0.950 . S
H700 C721 0.950 . S
H701 C724 0.950 . S
H702 C725 0.950 . S
H703 C727 0.950 . S
H704 C728 0.950 . S
H705 C729 0.951 . S
H706 C731 0.951 . S
H707 C733 0.950 . S
H708 C734 0.950 . S
H709 C736 0.950 . S
H710 C739 0.950 . S
H711 C740 0.950 . S
H712 C742 0.950 . S
H713 C743 0.950 . S
C714 H696 0.951 . S
C714 C715 1.366 . S
C714 C716 1.388 1_554 S
C715 C714 1.366 . S
C715 C719 1.385 . S
C716 H697 0.951 . S
C716 C714 1.388 1_556 S
C716 C717 1.366 . S
C717 C716 1.366 . S
C717 C718 1.414 . S
C717 C720 1.499 . S
C718 H698 0.950 . S
C718 C717 1.414 . S
C718 C719 1.374 1_556 S
C719 H699 0.950 . S
C719 C715 1.385 . S
C719 C718 1.374 1_554 S
C720 C717 1.499 . S
C720 C721 1.373 . S
C720 C722 1.389 . S
C721 H700 0.950 . S
C721 C720 1.373 . S
C721 C737 1.377 . S
C722 C720 1.389 . S
C722 C723 1.524 . S
C722 C736 1.377 . S
C723 C722 1.524 . S
C723 C724 1.397 . S
C723 C728 1.363 . S
C724 H701 0.950 . S
C724 C723 1.397 . S
C724 C725 1.334 . S
C725 H702 0.950 . S
C725 C724 1.334 . S
C725 C726 1.287 . S
C726 C725 1.287 . S
C726 C727 1.524 . S
C726 H745 0.913 . S
C727 H703 0.950 . S
C727 C726 1.524 . S
C727 C728 1.415 . S
C728 H704 0.950 . S
C728 C723 1.363 . S
C728 C727 1.415 . S
C729 H705 0.951 . S
C729 C730 1.366 . S
C729 C731 1.388 . S
C730 C729 1.366 . S
C730 C734 1.385 . S
C731 H706 0.951 . S
C731 C729 1.388 . S
C731 C732 1.366 . S
C732 C731 1.366 . S
C732 C733 1.414 . S
C732 C735 1.499 . S
C733 H707 0.950 . S
C733 C732 1.414 . S
C733 C734 1.374 . S
C734 H708 0.950 . S
C734 C730 1.385 . S
C734 C733 1.374 . S
C735 C732 1.499 . S
C735 C736 1.373 . S
C735 C737 1.389 . S
C736 H709 0.950 . S
C736 C722 1.377 . S
C736 C735 1.373 . S
C737 C721 1.377 . S
C737 C735 1.389 . S
C737 C738 1.524 . S
C738 C737 1.524 . S
C738 C739 1.397 . S
C738 C743 1.363 . S
C739 H710 0.950 . S
C739 C738 1.397 . S
C739 C740 1.334 . S
C740 H711 0.950 . S
C740 C739 1.334 . S
C740 C741 1.287 . S
C741 C740 1.287 . S
C741 C742 1.524 . S
C741 H744 0.999 1_556 S
C742 H712 0.950 . S
C742 C741 1.524 . S
C742 C743 1.415 . S
C743 H713 0.950 . S
C743 C738 1.363 . S
C743 C742 1.415 . S
H744 C741 0.999 1_554 S
H745 C726 0.913 . S
H746 C764 0.951 . S
H747 C766 0.951 . S
H748 C768 0.950 . S
H749 C769 0.953 . S
H750 C771 0.950 . S
H751 C774 0.950 . S
H752 C775 0.950 . S
H753 C777 0.950 . S
H754 C778 0.950 . S
H755 C779 0.951 . S
H756 C781 0.951 . S
H757 C783 0.950 . S
H758 C784 0.950 . S
H759 C786 0.950 . S
H760 C789 0.950 . S
H761 C790 0.950 . S
H762 C792 0.950 1_554 S
H763 C793 0.950 1_554 S
C764 H746 0.951 . S
C764 C765 1.366 1_556 S
C764 C766 1.388 . S
C765 C764 1.366 1_554 S
C765 C769 1.382 1_455 S
C766 H747 0.951 . S
C766 C764 1.388 . S
C766 C767 1.366 . S
C767 C766 1.366 . S
C767 C768 1.413 1_456 S
C767 C770 1.499 . S
C768 H748 0.950 . S
C768 C767 1.413 1_654 S
C768 C769 1.374 . S
C769 H749 0.953 . S
C769 C765 1.382 1_655 S
C769 C768 1.374 . S
C770 C767 1.499 . S
C770 C771 1.397 . S
C770 C772 1.369 1_455 S
C771 H750 0.950 . S
C771 C770 1.397 . S
C771 C787 1.377 . S
C772 C770 1.369 1_655 S
C772 C773 1.524 . S
C772 C786 1.377 . S
C773 C772 1.524 . S
C773 C774 1.397 . S
C773 C778 1.363 . S
C774 H751 0.950 . S
C774 C773 1.397 . S
C774 C775 1.334 . S
C775 H752 0.950 . S
C775 C774 1.334 . S
C775 C776 1.287 . S
C776 C775 1.287 . S
C776 C777 1.524 . S
C776 H795 0.913 . S
C777 H753 0.950 . S
C777 C776 1.524 . S
C777 C778 1.415 . S
C778 H754 0.950 . S
C778 C773 1.363 . S
C778 C777 1.415 . S
C779 H755 0.951 . S
C779 C780 1.366 . S
C779 C781 1.388 . S
C780 C779 1.366 . S
C780 C784 1.385 . S
C781 H756 0.951 . S
C781 C779 1.388 . S
C781 C782 1.366 . S
C782 C781 1.366 . S
C782 C783 1.414 . S
C782 C785 1.499 . S
C783 H757 0.950 . S
C783 C782 1.414 . S
C783 C784 1.374 . S
C784 H758 0.950 . S
C784 C780 1.385 . S
C784 C783 1.374 . S
C785 C782 1.499 . S
C785 C786 1.373 1_455 S
C785 C787 1.389 . S
C786 H759 0.950 . S
C786 C772 1.377 . S
C786 C785 1.373 1_655 S
C787 C771 1.377 . S
C787 C785 1.389 . S
C787 C788 1.524 . S
C788 C787 1.524 . S
C788 C789 1.397 . S
C788 C793 1.363 . S
C789 H760 0.950 . S
C789 C788 1.397 . S
C789 C790 1.334 . S
C790 H761 0.950 . S
C790 C789 1.334 . S
C790 C791 1.287 . S
C791 C790 1.287 . S
C791 C792 1.524 . S
C791 H794 0.999 . S
C792 H762 0.950 1_556 S
C792 C791 1.524 . S
C792 C793 1.415 . S
C793 H763 0.950 1_556 S
C793 C788 1.363 . S
C793 C792 1.415 . S
H794 C791 0.999 . S
H795 C776 0.913 . S
H796 C814 0.951 . S
H797 C816 0.951 . S
H798 C818 0.950 . S
H799 C819 0.950 . S
H800 C821 0.950 . S
H801 C824 0.950 . S
H802 C825 0.950 . S
H803 C827 0.950 . S
H804 C828 0.950 . S
H805 C829 0.951 . S
H806 C831 0.951 . S
H807 C833 0.988 . S
H808 C834 0.920 1_455 S
H809 C836 0.950 . S
H810 C839 0.950 . S
H811 C840 0.950 . S
H812 C842 0.950 . S
H813 C843 0.950 . S
C814 H796 0.951 . S
C814 C815 1.366 . S
C814 C816 1.388 . S
C815 C814 1.366 . S
C815 C819 1.385 1_455 S
C816 H797 0.951 . S
C816 C814 1.388 . S
C816 C817 1.366 1_455 S
C817 C816 1.366 1_655 S
C817 C818 1.414 . S
C817 C820 1.499 . S
C818 H798 0.950 . S
C818 C817 1.414 . S
C818 C819 1.374 . S
C819 H799 0.950 . S
C819 C815 1.385 1_655 S
C819 C818 1.374 . S
C820 C817 1.499 . S
C820 C821 1.373 . S
C820 C822 1.389 1_655 S
C821 H800 0.950 . S
C821 C820 1.373 . S
C821 C837 1.377 . S
C822 C820 1.389 1_455 S
C822 C823 1.524 . S
C822 C836 1.377 . S
C823 C822 1.524 . S
C823 C824 1.397 . S
C823 C828 1.363 . S
C824 H801 0.950 . S
C824 C823 1.397 . S
C824 C825 1.334 . S
C825 H802 0.950 . S
C825 C824 1.334 . S
C825 C826 1.287 . S
C826 C825 1.287 . S
C826 C827 1.524 . S
C826 H845 0.913 . S
C827 H803 0.950 . S
C827 C826 1.524 . S
C827 C828 1.415 . S
C828 H804 0.950 . S
C828 C823 1.363 . S
C828 C827 1.415 . S
C829 H805 0.951 . S
C829 C830 1.366 . S
C829 C831 1.388 . S
C830 C829 1.366 . S
C830 C834 1.423 . S
C831 H806 0.951 . S
C831 C829 1.388 . S
C831 C832 1.366 . S
C832 C831 1.366 . S
C832 C833 1.385 1_655 S
C832 C835 1.499 . S
C833 H807 0.988 . S
C833 C832 1.385 1_455 S
C833 C834 1.365 1_455 S
C834 H808 0.920 1_655 S
C834 C830 1.423 . S
C834 C833 1.365 1_655 S
C835 C832 1.499 . S
C835 C836 1.373 1_655 S
C835 C837 1.389 . S
C836 H809 0.950 . S
C836 C822 1.377 . S
C836 C835 1.373 1_455 S
C837 C821 1.377 . S
C837 C835 1.389 . S
C837 C838 1.524 . S
C838 C837 1.524 . S
C838 C839 1.397 . S
C838 C843 1.363 . S
C839 H810 0.950 . S
C839 C838 1.397 . S
C839 C840 1.334 . S
C840 H811 0.950 . S
C840 C839 1.334 . S
C840 C841 1.287 . S
C841 C840 1.287 . S
C841 C842 1.524 . S
C841 H844 0.999 . S
C842 H812 0.950 . S
C842 C841 1.524 . S
C842 C843 1.415 . S
C843 H813 0.950 . S
C843 C838 1.363 . S
C843 C842 1.415 . S
H844 C841 0.999 . S
H845 C826 0.913 . S
H846 C864 0.951 . S
H847 C866 0.951 . S
H848 C868 0.950 . S
H849 C869 0.950 . S
H850 C871 0.950 . S
H851 C874 0.950 . S
H852 C875 0.950 . S
H853 C877 0.950 . S
H854 C878 0.950 . S
H855 C879 0.951 . S
H856 C881 0.951 . S
H857 C883 0.950 . S
H858 C884 0.950 1_565 S
H859 C886 0.950 . S
H860 C889 0.950 . S
H861 C890 0.950 . S
H862 C892 0.950 . S
H863 C893 0.950 . S
C864 H846 0.951 . S
C864 C865 1.366 . S
C864 C866 1.388 . S
C865 C864 1.366 . S
C865 C869 1.385 . S
C866 H847 0.951 . S
C866 C864 1.388 . S
C866 C867 1.366 . S
C867 C866 1.366 . S
C867 C868 1.414 . S
C867 C870 1.499 . S
C868 H848 0.950 . S
C868 C867 1.414 . S
C868 C869 1.374 . S
C869 H849 0.950 . S
C869 C865 1.385 . S
C869 C868 1.374 . S
C870 C867 1.499 . S
C870 C871 1.373 . S
C870 C872 1.389 . S
C871 H850 0.950 . S
C871 C870 1.373 . S
C871 C887 1.377 . S
C872 C870 1.389 . S
C872 C873 1.524 . S
C872 C886 1.377 . S
C873 C872 1.524 . S
C873 C874 1.397 . S
C873 C878 1.363 . S
C874 H851 0.950 . S
C874 C873 1.397 . S
C874 C875 1.334 . S
C875 H852 0.950 . S
C875 C874 1.334 . S
C875 C876 1.287 . S
C876 C875 1.287 . S
C876 C877 1.524 . S
C876 H895 0.913 . S
C877 H853 0.950 . S
C877 C876 1.524 . S
C877 C878 1.415 . S
C878 H854 0.950 . S
C878 C873 1.363 . S
C878 C877 1.415 . S
C879 H855 0.951 . S
C879 C880 1.366 . S
C879 C881 1.388 . S
C880 C879 1.366 . S
C880 C884 1.385 . S
C881 H856 0.951 . S
C881 C879 1.388 . S
C881 C882 1.366 . S
C882 C881 1.366 . S
C882 C883 1.414 . S
C882 C885 1.499 . S
C883 H857 0.950 . S
C883 C882 1.414 . S
C883 C884 1.374 . S
C884 H858 0.950 1_545 S
C884 C880 1.385 . S
C884 C883 1.374 . S
C885 C882 1.499 . S
C885 C886 1.373 . S
C885 C887 1.389 . S
C886 H859 0.950 . S
C886 C872 1.377 . S
C886 C885 1.373 . S
C887 C871 1.377 . S
C887 C885 1.389 . S
C887 C888 1.524 . S
C888 C887 1.524 . S
C888 C889 1.397 . S
C888 C893 1.363 . S
C889 H860 0.950 . S
C889 C888 1.397 . S
C889 C890 1.334 . S
C890 H861 0.950 . S
C890 C889 1.334 . S
C890 C891 1.287 . S
C891 C890 1.287 . S
C891 C892 1.524 . S
C891 H894 0.999 . S
C892 H862 0.950 . S
C892 C891 1.524 . S
C892 C893 1.415 . S
C893 H863 0.950 . S
C893 C888 1.363 . S
C893 C892 1.415 . S
H894 C891 0.999 . S
H895 C876 0.913 . S
H896 C914 0.951 . S
H897 C916 0.951 . S
H898 C918 0.950 . S
H899 C919 0.950 . S
H900 C921 0.950 . S
H901 C924 0.950 . S
H902 C925 0.950 . S
H903 C927 0.950 . S
H904 C928 0.950 . S
H905 C929 0.951 . S
H906 C931 0.951 . S
H907 C933 0.950 . S
H908 C934 0.950 . S
H909 C936 0.950 . S
H910 C939 0.950 . S
H911 C940 0.950 . S
H912 C942 0.950 . S
H913 C943 0.950 . S
C914 H896 0.951 . S
C914 C915 1.366 . S
C914 C916 1.388 . S
C915 C914 1.366 . S
C915 C919 1.385 . S
C916 H897 0.951 . S
C916 C914 1.388 . S
C916 C917 1.366 . S
C917 C916 1.366 . S
C917 C918 1.414 . S
C917 C920 1.499 . S
C918 H898 0.950 . S
C918 C917 1.414 . S
C918 C919 1.374 . S
C919 H899 0.950 . S
C919 C915 1.385 . S
C919 C918 1.374 . S
C920 C917 1.499 . S
C920 C921 1.373 . S
C920 C922 1.389 . S
C921 H900 0.950 . S
C921 C920 1.373 . S
C921 C937 1.377 . S
C922 C920 1.389 . S
C922 C923 1.524 . S
C922 C936 1.377 . S
C923 C922 1.524 . S
C923 C924 1.397 . S
C923 C928 1.363 . S
C924 H901 0.950 . S
C924 C923 1.397 . S
C924 C925 1.334 . S
C925 H902 0.950 . S
C925 C924 1.334 . S
C925 C926 1.287 . S
C926 C925 1.287 . S
C926 C927 1.524 . S
C926 H945 0.913 . S
C927 H903 0.950 . S
C927 C926 1.524 . S
C927 C928 1.415 . S
C928 H904 0.950 . S
C928 C923 1.363 . S
C928 C927 1.415 . S
C929 H905 0.951 . S
C929 C930 1.366 . S
C929 C931 1.388 . S
C930 C929 1.366 . S
C930 C934 1.385 . S
C931 H906 0.951 . S
C931 C929 1.388 . S
C931 C932 1.366 . S
C932 C931 1.366 . S
C932 C933 1.414 . S
C932 C935 1.499 . S
C933 H907 0.950 . S
C933 C932 1.414 . S
C933 C934 1.374 . S
C934 H908 0.950 . S
C934 C930 1.385 . S
C934 C933 1.374 . S
C935 C932 1.499 . S
C935 C936 1.373 . S
C935 C937 1.389 . S
C936 H909 0.950 . S
C936 C922 1.377 . S
C936 C935 1.373 . S
C937 C921 1.377 . S
C937 C935 1.389 . S
C937 C938 1.524 . S
C938 C937 1.524 . S
C938 C939 1.397 . S
C938 C943 1.363 . S
C939 H910 0.950 . S
C939 C938 1.397 . S
C939 C940 1.334 . S
C940 H911 0.950 . S
C940 C939 1.334 . S
C940 C941 1.287 . S
C941 C940 1.287 . S
C941 C942 1.524 . S
C941 H944 0.999 . S
C942 H912 0.950 . S
C942 C941 1.524 . S
C942 C943 1.415 . S
C943 H913 0.950 . S
C943 C938 1.363 . S
C943 C942 1.415 . S
H944 C941 0.999 . S
H945 C926 0.913 . S
H946 C964 0.951 . S
H947 C966 0.951 . S
H948 C968 0.950 . S
H949 C969 0.950 . S
H950 C971 0.950 . S
H951 C974 0.950 . S
H952 C975 0.950 . S
H953 C977 0.950 . S
H954 C978 0.950 . S
H955 C979 0.951 . S
H956 C981 0.951 . S
H957 C983 0.950 . S
H958 C984 0.950 . S
H959 C986 0.950 . S
H960 C989 0.950 . S
H961 C990 0.950 . S
H962 C992 0.950 . S
H963 C993 0.950 . S
C964 H946 0.951 . S
C964 C965 1.366 . S
C964 C966 1.388 . S
C965 C964 1.366 . S
C965 C969 1.385 . S
C966 H947 0.951 . S
C966 C964 1.388 . S
C966 C967 1.366 . S
C967 C966 1.366 . S
C967 C968 1.414 . S
C967 C970 1.499 . S
C968 H948 0.950 . S
C968 C967 1.414 . S
C968 C969 1.374 . S
C969 H949 0.950 . S
C969 C965 1.385 . S
C969 C968 1.374 . S
C970 C967 1.499 . S
C970 C971 1.373 . S
C970 C972 1.389 . S
C971 H950 0.950 . S
C971 C970 1.373 . S
C971 C987 1.377 . S
C972 C970 1.389 . S
C972 C973 1.524 . S
C972 C986 1.377 . S
C973 C972 1.524 . S
C973 C974 1.397 . S
C973 C978 1.363 . S
C974 H951 0.950 . S
C974 C973 1.397 . S
C974 C975 1.334 . S
C975 H952 0.950 . S
C975 C974 1.334 . S
C975 C976 1.287 . S
C976 C975 1.287 . S
C976 C977 1.524 . S
C976 H995 0.913 . S
C977 H953 0.950 . S
C977 C976 1.524 . S
C977 C978 1.415 . S
C978 H954 0.950 . S
C978 C973 1.363 . S
C978 C977 1.415 . S
C979 H955 0.951 . S
C979 C980 1.366 . S
C979 C981 1.388 . S
C980 C979 1.366 . S
C980 C984 1.385 . S
C981 H956 0.951 . S
C981 C979 1.388 . S
C981 C982 1.366 . S
C982 C981 1.366 . S
C982 C983 1.414 . S
C982 C985 1.499 . S
C983 H957 0.950 . S
C983 C982 1.414 . S
C983 C984 1.374 . S
C984 H958 0.950 . S
C984 C980 1.385 . S
C984 C983 1.374 . S
C985 C982 1.499 . S
C985 C986 1.373 . S
C985 C987 1.389 . S
C986 H959 0.950 . S
C986 C972 1.377 . S
C986 C985 1.373 . S
C987 C971 1.377 . S
C987 C985 1.389 . S
C987 C988 1.524 . S
C988 C987 1.524 . S
C988 C989 1.397 . S
C988 C993 1.363 . S
C989 H960 0.950 . S
C989 C988 1.397 . S
C989 C990 1.334 . S
C990 H961 0.950 . S
C990 C989 1.334 . S
C990 C991 1.287 . S
C991 C990 1.287 . S
C991 C992 1.524 . S
C991 H994 0.999 . S
C992 H962 0.950 . S
C992 C991 1.524 . S
C992 C993 1.415 . S
C993 H963 0.950 . S
C993 C988 1.363 . S
C993 C992 1.415 . S
H994 C991 0.999 . S
H995 C976 0.913 . S
H996 C1014 0.951 . S
H997 C1016 0.951 . S
H998 C1018 0.950 . S
H999 C1019 0.950 . S
H1000 C1021 0.950 . S
H1001 C1024 0.950 . S
H1002 C1025 0.950 . S
H1003 C1027 0.950 . S
H1004 C1028 0.950 . S
H1005 C1029 0.951 . S
H1006 C1031 0.951 . S
H1007 C1033 0.950 . S
H1008 C1034 0.950 . S
H1009 C1036 0.950 . S
H1010 C1039 0.950 . S
H1011 C1040 0.950 . S
H1012 C1042 0.950 . S
H1013 C1043 0.950 . S
C1014 H996 0.951 . S
C1014 C1015 1.366 . S
C1014 C1016 1.388 . S
C1015 C1014 1.366 . S
C1015 C1019 1.385 1_655 S
C1016 H997 0.951 . S
C1016 C1014 1.388 . S
C1016 C1017 1.366 1_655 S
C1017 C1016 1.366 1_455 S
C1017 C1018 1.414 . S
C1017 C1020 1.499 . S
C1018 H998 0.950 . S
C1018 C1017 1.414 . S
C1018 C1019 1.374 . S
C1019 H999 0.950 . S
C1019 C1015 1.385 1_455 S
C1019 C1018 1.374 . S
C1020 C1017 1.499 . S
C1020 C1021 1.373 . S
C1020 C1022 1.389 1_455 S
C1021 H1000 0.950 . S
C1021 C1020 1.373 . S
C1021 C1037 1.377 . S
C1022 C1020 1.389 1_655 S
C1022 C1023 1.524 . S
C1022 C1036 1.377 . S
C1023 C1022 1.524 . S
C1023 C1024 1.397 . S
C1023 C1028 1.363 . S
C1024 H1001 0.950 . S
C1024 C1023 1.397 . S
C1024 C1025 1.334 . S
C1025 H1002 0.950 . S
C1025 C1024 1.334 . S
C1025 C1026 1.287 . S
C1026 C1025 1.287 . S
C1026 C1027 1.524 . S
C1026 H1045 0.913 . S
C1027 H1003 0.950 . S
C1027 C1026 1.524 . S
C1027 C1028 1.415 . S
C1028 H1004 0.950 . S
C1028 C1023 1.363 . S
C1028 C1027 1.415 . S
C1029 H1005 0.951 . S
C1029 C1030 1.366 . S
C1029 C1031 1.388 . S
C1030 C1029 1.366 . S
C1030 C1034 1.385 1_455 S
C1031 H1006 0.951 . S
C1031 C1029 1.388 . S
C1031 C1032 1.366 . S
C1032 C1031 1.366 . S
C1032 C1033 1.414 1_455 S
C1032 C1035 1.499 . S
C1033 H1007 0.950 . S
C1033 C1032 1.414 1_655 S
C1033 C1034 1.374 . S
C1034 H1008 0.950 . S
C1034 C1030 1.385 1_655 S
C1034 C1033 1.374 . S
C1035 C1032 1.499 . S
C1035 C1036 1.373 1_455 S
C1035 C1037 1.389 . S
C1036 H1009 0.950 . S
C1036 C1022 1.377 . S
C1036 C1035 1.373 1_655 S
C1037 C1021 1.377 . S
C1037 C1035 1.389 . S
C1037 C1038 1.524 . S
C1038 C1037 1.524 . S
C1038 C1039 1.397 . S
C1038 C1043 1.363 . S
C1039 H1010 0.950 . S
C1039 C1038 1.397 . S
C1039 C1040 1.334 . S
C1040 H1011 0.950 . S
C1040 C1039 1.334 . S
C1040 C1041 1.287 . S
C1041 C1040 1.287 . S
C1041 C1042 1.524 . S
C1041 H1044 0.999 . S
C1042 H1012 0.950 . S
C1042 C1041 1.524 . S
C1042 C1043 1.415 . S
C1043 H1013 0.950 . S
C1043 C1038 1.363 . S
C1043 C1042 1.415 . S
H1044 C1041 0.999 . S
H1045 C1026 0.913 . S
H1046 C1064 0.951 . S
H1047 C1066 0.951 . S
H1048 C1068 0.950 . S
H1049 C1069 0.950 . S
H1050 C1071 0.950 . S
H1051 C1074 0.950 . S
H1052 C1075 0.950 . S
H1053 C1077 0.939 1_545 S
H1054 C1078 0.950 . S
H1055 C1079 0.951 . S
H1056 C1081 0.951 . S
H1057 C1083 0.950 . S
H1058 C1084 0.950 . S
H1059 C1086 0.950 . S
H1060 C1089 0.950 . S
H1061 C1090 0.950 . S
H1062 C1092 0.950 . S
H1063 C1093 0.950 . S
C1064 H1046 0.951 . S
C1064 C1065 1.366 . S
C1064 C1066 1.388 . S
C1065 C1064 1.366 . S
C1065 C1069 1.385 . S
C1066 H1047 0.951 . S
C1066 C1064 1.388 . S
C1066 C1067 1.366 . S
C1067 C1066 1.366 . S
C1067 C1068 1.414 . S
C1067 C1070 1.499 . S
C1068 H1048 0.950 . S
C1068 C1067 1.414 . S
C1068 C1069 1.374 . S
C1069 H1049 0.950 . S
C1069 C1065 1.385 . S
C1069 C1068 1.374 . S
C1070 C1067 1.499 . S
C1070 C1071 1.373 . S
C1070 C1072 1.389 . S
C1071 H1050 0.950 . S
C1071 C1070 1.373 . S
C1071 C1087 1.377 . S
C1072 C1070 1.389 . S
C1072 C1073 1.524 . S
C1072 C1086 1.377 . S
C1073 C1072 1.524 . S
C1073 C1074 1.397 . S
C1073 C1078 1.363 . S
C1074 H1051 0.950 . S
C1074 C1073 1.397 . S
C1074 C1075 1.334 . S
C1075 H1052 0.950 . S
C1075 C1074 1.334 . S
C1075 C1076 1.287 . S
C1076 C1075 1.287 . S
C1076 C1077 1.524 . S
C1076 H1095 0.913 . S
C1077 H1053 0.939 1_565 S
C1077 C1076 1.524 . S
C1077 C1078 1.415 . S
C1078 H1054 0.950 . S
C1078 C1073 1.363 . S
C1078 C1077 1.415 . S
C1079 H1055 0.951 . S
C1079 C1080 1.366 1_565 S
C1079 C1081 1.388 . S
C1080 C1079 1.366 1_545 S
C1080 C1084 1.385 . S
C1081 H1056 0.951 . S
C1081 C1079 1.388 . S
C1081 C1082 1.366 . S
C1082 C1081 1.366 . S
C1082 C1083 1.414 . S
C1082 C1085 1.499 . S
C1083 H1057 0.950 . S
C1083 C1082 1.414 . S
C1083 C1084 1.374 1_565 S
C1084 H1058 0.950 . S
C1084 C1080 1.385 . S
C1084 C1083 1.374 1_545 S
C1085 C1082 1.499 . S
C1085 C1086 1.373 . S
C1085 C1087 1.389 . S
C1086 H1059 0.950 . S
C1086 C1072 1.377 . S
C1086 C1085 1.373 . S
C1087 C1071 1.377 . S
C1087 C1085 1.389 . S
C1087 C1088 1.524 . S
C1088 C1087 1.524 . S
C1088 C1089 1.397 . S
C1088 C1093 1.363 . S
C1089 H1060 0.950 . S
C1089 C1088 1.397 . S
C1089 C1090 1.334 . S
C1090 H1061 0.950 . S
C1090 C1089 1.334 . S
C1090 C1091 1.287 . S
C1091 C1090 1.287 . S
C1091 C1092 1.524 . S
C1091 H1094 0.999 . S
C1092 H1062 0.950 . S
C1092 C1091 1.524 . S
C1092 C1093 1.415 . S
C1093 H1063 0.950 . S
C1093 C1088 1.363 . S
C1093 C1092 1.415 . S
H1094 C1091 0.999 . S
H1095 C1076 0.913 . S
H1096 C1114 0.951 1_554 S
H1097 C1116 0.951 . S
H1098 C1118 0.950 . S
H1099 C1119 0.950 . S
H1100 C1121 0.950 . S
H1101 C1124 0.950 . S
H1102 C1125 0.950 . S
H1103 C1127 0.950 . S
H1104 C1128 0.952 . S
H1105 C1129 0.951 . S
H1106 C1131 0.951 . S
H1107 C1133 0.950 . S
H1108 C1134 0.950 . S
H1109 C1136 0.950 . S
H1110 C1139 0.950 . S
H1111 C1140 0.950 . S
H1112 C1142 0.950 . S
H1113 C1143 0.950 . S
C1114 H1096 0.951 1_556 S
C1114 C1115 1.366 . S
C1114 C1116 1.388 . S
C1115 C1114 1.366 . S
C1115 C1119 1.385 . S
C1116 H1097 0.951 . S
C1116 C1114 1.388 . S
C1116 C1117 1.366 . S
C1117 C1116 1.366 . S
C1117 C1118 1.414 . S
C1117 C1120 1.499 . S
C1118 H1098 0.950 . S
C1118 C1117 1.414 . S
C1118 C1119 1.374 . S
C1119 H1099 0.950 . S
C1119 C1115 1.385 . S
C1119 C1118 1.374 . S
C1120 C1117 1.499 . S
C1120 C1121 1.373 . S
C1120 C1122 1.389 . S
C1121 H1100 0.950 . S
C1121 C1120 1.373 . S
C1121 C1137 1.377 . S
C1122 C1120 1.389 . S
C1122 C1123 1.524 . S
C1122 C1136 1.377 . S
C1123 C1122 1.524 . S
C1123 C1124 1.397 . S
C1123 C1128 1.363 1_556 S
C1124 H1101 0.950 . S
C1124 C1123 1.397 . S
C1124 C1125 1.334 1_556 S
C1125 H1102 0.950 . S
C1125 C1124 1.334 1_554 S
C1125 C1126 1.287 . S
C1126 C1125 1.287 . S
C1126 C1127 1.524 . S
C1126 H1145 0.913 . S
C1127 H1103 0.950 . S
C1127 C1126 1.524 . S
C1127 C1128 1.415 . S
C1128 H1104 0.952 . S
C1128 C1123 1.363 1_554 S
C1128 C1127 1.415 . S
C1129 H1105 0.951 . S
C1129 C1130 1.366 . S
C1129 C1131 1.388 . S
C1130 C1129 1.366 . S
C1130 C1134 1.385 . S
C1131 H1106 0.951 . S
C1131 C1129 1.388 . S
C1131 C1132 1.366 . S
C1132 C1131 1.366 . S
C1132 C1133 1.414 . S
C1132 C1135 1.499 . S
C1133 H1107 0.950 . S
C1133 C1132 1.414 . S
C1133 C1134 1.374 . S
C1134 H1108 0.950 . S
C1134 C1130 1.385 . S
C1134 C1133 1.374 . S
C1135 C1132 1.499 . S
C1135 C1136 1.373 . S
C1135 C1137 1.389 . S
C1136 H1109 0.950 . S
C1136 C1122 1.377 . S
C1136 C1135 1.373 . S
C1137 C1121 1.377 . S
C1137 C1135 1.389 . S
C1137 C1138 1.524 . S
C1138 C1137 1.524 . S
C1138 C1139 1.397 . S
C1138 C1143 1.363 . S
C1139 H1110 0.950 . S
C1139 C1138 1.397 . S
C1139 C1140 1.334 . S
C1140 H1111 0.950 . S
C1140 C1139 1.334 . S
C1140 C1141 1.287 . S
C1141 C1140 1.287 . S
C1141 C1142 1.524 . S
C1141 H1144 0.999 . S
C1142 H1112 0.950 . S
C1142 C1141 1.524 . S
C1142 C1143 1.415 . S
C1143 H1113 0.950 . S
C1143 C1138 1.363 . S
C1143 C1142 1.415 . S
H1144 C1141 0.999 . S
H1145 C1126 0.913 . S
H1146 C1164 0.951 . S
H1147 C1166 0.951 . S
H1148 C1168 0.950 . S
H1149 C1169 0.950 . S
H1150 C1171 0.950 . S
H1151 C1174 0.950 . S
H1152 C1175 0.950 . S
H1153 C1177 0.950 . S
H1154 C1178 0.950 . S
H1155 C1179 0.951 . S
H1156 C1181 0.951 . S
H1157 C1183 0.950 . S
H1158 C1184 0.950 . S
H1159 C1186 0.950 . S
H1160 C1189 0.950 . S
H1161 C1190 0.950 . S
H1162 C1192 0.950 . S
H1163 C1193 0.950 . S
C1164 H1146 0.951 . S
C1164 C1165 1.366 . S
C1164 C1166 1.388 . S
C1165 C1164 1.366 . S
C1165 C1169 1.385 . S
C1166 H1147 0.951 . S
C1166 C1164 1.388 . S
C1166 C1167 1.366 . S
C1167 C1166 1.366 . S
C1167 C1168 1.414 . S
C1167 C1170 1.499 . S
C1168 H1148 0.950 . S
C1168 C1167 1.414 . S
C1168 C1169 1.374 . S
C1169 H1149 0.950 . S
C1169 C1165 1.385 . S
C1169 C1168 1.374 . S
C1170 C1167 1.499 . S
C1170 C1171 1.373 . S
C1170 C1172 1.389 . S
C1171 H1150 0.950 . S
C1171 C1170 1.373 . S
C1171 C1187 1.377 . S
C1172 C1170 1.389 . S
C1172 C1173 1.524 . S
C1172 C1186 1.377 . S
C1173 C1172 1.524 . S
C1173 C1174 1.397 . S
C1173 C1178 1.363 . S
C1174 H1151 0.950 . S
C1174 C1173 1.397 . S
C1174 C1175 1.334 . S
C1175 H1152 0.950 . S
C1175 C1174 1.334 . S
C1175 C1176 1.287 . S
C1176 C1175 1.287 . S
C1176 C1177 1.524 . S
C1176 H1195 0.913 . S
C1177 H1153 0.950 . S
C1177 C1176 1.524 . S
C1177 C1178 1.415 . S
C1178 H1154 0.950 . S
C1178 C1173 1.363 . S
C1178 C1177 1.415 . S
C1179 H1155 0.951 . S
C1179 C1180 1.366 . S
C1179 C1181 1.388 . S
C1180 C1179 1.366 . S
C1180 C1184 1.385 . S
C1181 H1156 0.951 . S
C1181 C1179 1.388 . S
C1181 C1182 1.366 . S
C1182 C1181 1.366 . S
C1182 C1183 1.414 . S
C1182 C1185 1.499 . S
C1183 H1157 0.950 . S
C1183 C1182 1.414 . S
C1183 C1184 1.374 . S
C1184 H1158 0.950 . S
C1184 C1180 1.385 . S
C1184 C1183 1.374 . S
C1185 C1182 1.499 . S
C1185 C1186 1.373 . S
C1185 C1187 1.389 . S
C1186 H1159 0.950 . S
C1186 C1172 1.377 . S
C1186 C1185 1.373 . S
C1187 C1171 1.377 . S
C1187 C1185 1.389 . S
C1187 C1188 1.524 . S
C1188 C1187 1.524 . S
C1188 C1189 1.397 . S
C1188 C1193 1.363 . S
C1189 H1160 0.950 . S
C1189 C1188 1.397 . S
C1189 C1190 1.334 . S
C1190 H1161 0.950 . S
C1190 C1189 1.334 . S
C1190 C1191 1.287 . S
C1191 C1190 1.287 . S
C1191 C1192 1.524 . S
C1191 H1194 0.999 . S
C1192 H1162 0.950 . S
C1192 C1191 1.524 . S
C1192 C1193 1.415 . S
C1193 H1163 0.950 . S
C1193 C1188 1.363 . S
C1193 C1192 1.415 . S
H1194 C1191 0.999 . S
H1195 C1176 0.913 . S
H1196 C1214 0.951 . S
H1197 C1216 0.951 . S
H1198 C1218 0.948 1_556 S
H1199 C1219 0.950 . S
H1200 C1221 0.950 . S
H1201 C1224 0.950 1_455 S
H1202 C1225 0.931 1_455 S
H1203 C1227 0.950 . S
H1204 C1228 0.950 . S
H1205 C1229 0.951 . S
H1206 C1231 0.951 . S
H1207 C1233 0.950 . S
H1208 C1234 0.950 . S
H1209 C1236 0.950 . S
H1210 C1239 0.950 1_655 S
H1211 C1240 0.950 . S
H1212 C1242 0.950 . S
H1213 C1243 0.950 . S
C1214 H1196 0.951 . S
C1214 C1215 1.329 1_655 S
C1214 C1216 1.388 . S
C1215 C1214 1.329 1_455 S
C1215 C1219 1.423 . S
C1216 H1197 0.951 . S
C1216 C1214 1.388 . S
C1216 C1217 1.366 1_655 S
C1217 C1216 1.366 1_455 S
C1217 C1218 1.414 . S
C1217 C1220 1.499 1_554 S
C1218 H1198 0.948 1_554 S
C1218 C1217 1.414 . S
C1218 C1219 1.374 . S
C1219 H1199 0.950 . S
C1219 C1215 1.423 . S
C1219 C1218 1.374 . S
C1220 C1217 1.499 1_556 S
C1220 C1221 1.373 . S
C1220 C1222 1.389 1_455 S
C1221 H1200 0.950 . S
C1221 C1220 1.373 . S
C1221 C1237 1.377 . S
C1222 C1220 1.389 1_655 S
C1222 C1223 1.524 1_556 S
C1222 C1236 1.377 . S
C1223 C1222 1.524 1_554 S
C1223 C1224 1.397 . S
C1223 C1228 1.363 . S
C1224 H1201 0.950 1_655 S
C1224 C1223 1.397 . S
C1224 C1225 1.334 . S
C1225 H1202 0.931 1_655 S
C1225 C1224 1.334 . S
C1225 C1226 1.287 . S
C1226 C1225 1.287 . S
C1226 C1227 1.524 . S
C1226 H1245 0.913 . S
C1227 H1203 0.950 . S
C1227 C1226 1.524 . S
C1227 C1228 1.415 . S
C1228 H1204 0.950 . S
C1228 C1223 1.363 . S
C1228 C1227 1.415 . S
C1229 H1205 0.951 . S
C1229 C1230 1.366 . S
C1229 C1231 1.388 . S
C1230 C1229 1.366 . S
C1230 C1234 1.385 1_455 S
C1231 H1206 0.951 . S
C1231 C1229 1.388 . S
C1231 C1232 1.366 . S
C1232 C1231 1.366 . S
C1232 C1233 1.414 1_455 S
C1232 C1235 1.499 . S
C1233 H1207 0.950 . S
C1233 C1232 1.414 1_655 S
C1233 C1234 1.374 . S
C1234 H1208 0.950 . S
C1234 C1230 1.385 1_655 S
C1234 C1233 1.374 . S
C1235 C1232 1.499 . S
C1235 C1236 1.373 1_455 S
C1235 C1237 1.389 . S
C1236 H1209 0.950 . S
C1236 C1222 1.377 . S
C1236 C1235 1.373 1_655 S
C1237 C1221 1.377 . S
C1237 C1235 1.389 . S
C1237 C1238 1.524 . S
C1238 C1237 1.524 . S
C1238 C1239 1.397 . S
C1238 C1243 1.363 . S
C1239 H1210 0.950 1_455 S
C1239 C1238 1.397 . S
C1239 C1240 1.334 . S
C1240 H1211 0.950 . S
C1240 C1239 1.334 . S
C1240 C1241 1.287 . S
C1241 C1240 1.287 . S
C1241 C1242 1.524 . S
C1241 H1244 0.999 . S
C1242 H1212 0.950 . S
C1242 C1241 1.524 . S
C1242 C1243 1.415 . S
C1243 H1213 0.950 . S
C1243 C1238 1.363 . S
C1243 C1242 1.415 . S
H1244 C1241 0.999 . S
H1245 C1226 0.913 . S
H1246 C1264 0.951 . S
H1247 C1266 0.951 . S
H1248 C1268 0.950 . S
H1249 C1269 0.950 . S
H1250 C1271 0.950 . S
H1251 C1274 0.950 . S
H1252 C1275 0.950 . S
H1253 C1277 0.950 . S
H1254 C1278 0.950 . S
H1255 C1279 0.951 . S
H1256 C1281 0.951 . S
H1257 C1283 0.950 . S
H1258 C1284 0.950 . S
H1259 C1286 0.950 . S
H1260 C1289 0.950 . S
H1261 C1290 0.950 . S
H1262 C1292 0.950 . S
H1263 C1293 0.950 . S
C1264 H1246 0.951 . S
C1264 C1265 1.366 . S
C1264 C1266 1.388 . S
C1265 C1264 1.366 . S
C1265 C1269 1.385 . S
C1266 H1247 0.951 . S
C1266 C1264 1.388 . S
C1266 C1267 1.366 . S
C1267 C1266 1.366 . S
C1267 C1268 1.414 1_554 S
C1267 C1270 1.499 1_554 S
C1268 H1248 0.950 . S
C1268 C1267 1.414 1_556 S
C1268 C1269 1.374 1_556 S
C1269 H1249 0.950 . S
C1269 C1265 1.385 . S
C1269 C1268 1.374 1_554 S
C1270 C1267 1.499 1_556 S
C1270 C1271 1.373 . S
C1270 C1272 1.389 . S
C1271 H1250 0.950 . S
C1271 C1270 1.373 . S
C1271 C1287 1.377 . S
C1272 C1270 1.389 . S
C1272 C1273 1.524 1_556 S
C1272 C1286 1.377 . S
C1273 C1272 1.524 1_554 S
C1273 C1274 1.397 . S
C1273 C1278 1.363 . S
C1274 H1251 0.950 . S
C1274 C1273 1.397 . S
C1274 C1275 1.334 . S
C1275 H1252 0.950 . S
C1275 C1274 1.334 . S
C1275 C1276 1.287 . S
C1276 C1275 1.287 . S
C1276 C1277 1.524 . S
C1276 H1295 0.913 . S
C1277 H1253 0.950 . S
C1277 C1276 1.524 . S
C1277 C1278 1.415 . S
C1278 H1254 0.950 . S
C1278 C1273 1.363 . S
C1278 C1277 1.415 . S
C1279 H1255 0.951 . S
C1279 C1280 1.366 . S
C1279 C1281 1.388 . S
C1280 C1279 1.366 . S
C1280 C1284 1.385 . S
C1281 H1256 0.951 . S
C1281 C1279 1.388 . S
C1281 C1282 1.366 . S
C1282 C1281 1.366 . S
C1282 C1283 1.414 . S
C1282 C1285 1.499 . S
C1283 H1257 0.950 . S
C1283 C1282 1.414 . S
C1283 C1284 1.374 . S
C1284 H1258 0.950 . S
C1284 C1280 1.385 . S
C1284 C1283 1.374 . S
C1285 C1282 1.499 . S
C1285 C1286 1.373 . S
C1285 C1287 1.389 . S
C1286 H1259 0.950 . S
C1286 C1272 1.377 . S
C1286 C1285 1.373 . S
C1287 C1271 1.377 . S
C1287 C1285 1.389 . S
C1287 C1288 1.524 . S
C1288 C1287 1.524 . S
C1288 C1289 1.397 . S
C1288 C1293 1.363 . S
C1289 H1260 0.950 . S
C1289 C1288 1.397 . S
C1289 C1290 1.334 . S
C1290 H1261 0.950 . S
C1290 C1289 1.334 . S
C1290 C1291 1.287 . S
C1291 C1290 1.287 . S
C1291 C1292 1.524 . S
C1291 H1294 0.999 . S
C1292 H1262 0.950 . S
C1292 C1291 1.524 . S
C1292 C1293 1.415 . S
C1293 H1263 0.950 . S
C1293 C1288 1.363 . S
C1293 C1292 1.415 . S
H1294 C1291 0.999 . S
H1295 C1276 0.913 . S
H1296 C1314 0.951 . S
H1297 C1316 0.951 . S
H1298 C1318 0.950 1_556 S
H1299 C1319 0.950 . S
H1300 C1321 0.950 1_554 S
H1301 C1324 0.950 . S
H1302 C1325 0.950 . S
H1303 C1327 0.950 . S
H1304 C1328 0.950 . S
H1305 C1329 0.951 . S
H1306 C1331 0.951 . S
H1307 C1333 0.950 . S
H1308 C1334 0.950 . S
H1309 C1336 0.950 . S
H1310 C1339 0.950 . S
H1311 C1340 0.950 . S
H1312 C1342 0.951 . S
H1313 C1343 0.950 . S
C1314 H1296 0.951 . S
C1314 C1315 1.366 . S
C1314 C1316 1.388 . S
C1315 C1314 1.366 . S
C1315 C1319 1.385 . S
C1316 H1297 0.951 . S
C1316 C1314 1.388 . S
C1316 C1317 1.366 . S
C1317 C1316 1.366 . S
C1317 C1318 1.414 . S
C1317 C1320 1.499 1_554 S
C1318 H1298 0.950 1_554 S
C1318 C1317 1.414 . S
C1318 C1319 1.374 . S
C1319 H1299 0.950 . S
C1319 C1315 1.385 . S
C1319 C1318 1.374 . S
C1320 C1317 1.499 1_556 S
C1320 C1321 1.373 . S
C1320 C1322 1.389 . S
C1321 H1300 0.950 1_556 S
C1321 C1320 1.373 . S
C1321 C1337 1.377 . S
C1322 C1320 1.389 . S
C1322 C1323 1.524 . S
C1322 C1336 1.377 . S
C1323 C1322 1.524 . S
C1323 C1324 1.397 . S
C1323 C1328 1.363 . S
C1324 H1301 0.950 . S
C1324 C1323 1.397 . S
C1324 C1325 1.334 . S
C1325 H1302 0.950 . S
C1325 C1324 1.334 . S
C1325 C1326 1.287 . S
C1326 C1325 1.287 . S
C1326 C1327 1.524 . S
C1326 H1345 0.913 . S
C1327 H1303 0.950 . S
C1327 C1326 1.524 . S
C1327 C1328 1.415 . S
C1328 H1304 0.950 . S
C1328 C1323 1.363 . S
C1328 C1327 1.415 . S
C1329 H1305 0.951 . S
C1329 C1330 1.366 . S
C1329 C1331 1.388 . S
C1330 C1329 1.366 . S
C1330 C1334 1.385 . S
C1331 H1306 0.951 . S
C1331 C1329 1.388 . S
C1331 C1332 1.366 . S
C1332 C1331 1.366 . S
C1332 C1333 1.414 . S
C1332 C1335 1.499 . S
C1333 H1307 0.950 . S
C1333 C1332 1.414 . S
C1333 C1334 1.374 . S
C1334 H1308 0.950 . S
C1334 C1330 1.385 . S
C1334 C1333 1.374 . S
C1335 C1332 1.499 . S
C1335 C1336 1.373 . S
C1335 C1337 1.389 . S
C1336 H1309 0.950 . S
C1336 C1322 1.377 . S
C1336 C1335 1.373 . S
C1337 C1321 1.377 . S
C1337 C1335 1.389 . S
C1337 C1338 1.524 . S
C1338 C1337 1.524 . S
C1338 C1339 1.397 . S
C1338 C1343 1.363 . S
C1339 H1310 0.950 . S
C1339 C1338 1.397 . S
C1339 C1340 1.334 1_556 S
C1340 H1311 0.950 . S
C1340 C1339 1.334 1_554 S
C1340 C1341 1.287 . S
C1341 C1340 1.287 . S
C1341 C1342 1.524 1_554 S
C1341 H1344 0.999 . S
C1342 H1312 0.951 . S
C1342 C1341 1.524 1_556 S
C1342 C1343 1.415 . S
C1343 H1313 0.950 . S
C1343 C1338 1.363 . S
C1343 C1342 1.415 . S
H1344 C1341 0.999 . S
H1345 C1326 0.913 . S
H1346 C1364 0.951 . S
H1347 C1366 0.951 . S
H1348 C1368 0.950 . S
H1349 C1369 0.950 . S
H1350 C1371 0.950 . S
H1351 C1374 0.950 . S
H1352 C1375 0.950 . S
H1353 C1377 0.950 . S
H1354 C1378 0.950 . S
H1355 C1379 0.951 . S
H1356 C1381 0.951 . S
H1357 C1383 0.950 . S
H1358 C1384 0.950 . S
H1359 C1386 0.950 . S
H1360 C1389 0.950 . S
H1361 C1390 0.950 . S
H1362 C1392 0.950 . S
H1363 C1393 0.950 . S
C1364 H1346 0.951 . S
C1364 C1365 1.366 . S
C1364 C1366 1.388 . S
C1365 C1364 1.366 . S
C1365 C1369 1.385 . S
C1366 H1347 0.951 . S
C1366 C1364 1.388 . S
C1366 C1367 1.366 . S
C1367 C1366 1.366 . S
C1367 C1368 1.414 . S
C1367 C1370 1.499 1_554 S
C1368 H1348 0.950 . S
C1368 C1367 1.414 . S
C1368 C1369 1.374 . S
C1369 H1349 0.950 . S
C1369 C1365 1.385 . S
C1369 C1368 1.374 . S
C1370 C1367 1.499 1_556 S
C1370 C1371 1.373 . S
C1370 C1372 1.389 1_556 S
C1371 H1350 0.950 . S
C1371 C1370 1.373 . S
C1371 C1387 1.377 . S
C1372 C1370 1.389 1_554 S
C1372 C1373 1.524 . S
C1372 C1386 1.377 1_554 S
C1373 C1372 1.524 . S
C1373 C1374 1.397 . S
C1373 C1378 1.363 . S
C1374 H1351 0.950 . S
C1374 C1373 1.397 . S
C1374 C1375 1.334 . S
C1375 H1352 0.950 . S
C1375 C1374 1.334 . S
C1375 C1376 1.287 . S
C1376 C1375 1.287 . S
C1376 C1377 1.524 . S
C1376 H1395 0.913 . S
C1377 H1353 0.950 . S
C1377 C1376 1.524 . S
C1377 C1378 1.415 . S
C1378 H1354 0.950 . S
C1378 C1373 1.363 . S
C1378 C1377 1.415 . S
C1379 H1355 0.951 . S
C1379 C1380 1.366 . S
C1379 C1381 1.388 . S
C1380 C1379 1.366 . S
C1380 C1384 1.385 . S
C1381 H1356 0.951 . S
C1381 C1379 1.388 . S
C1381 C1382 1.366 . S
C1382 C1381 1.366 . S
C1382 C1383 1.414 . S
C1382 C1385 1.499 . S
C1383 H1357 0.950 . S
C1383 C1382 1.414 . S
C1383 C1384 1.374 . S
C1384 H1358 0.950 . S
C1384 C1380 1.385 . S
C1384 C1383 1.374 . S
C1385 C1382 1.499 . S
C1385 C1386 1.373 . S
C1385 C1387 1.389 . S
C1386 H1359 0.950 . S
C1386 C1372 1.377 1_556 S
C1386 C1385 1.373 . S
C1387 C1371 1.377 . S
C1387 C1385 1.389 . S
C1387 C1388 1.524 . S
C1388 C1387 1.524 . S
C1388 C1389 1.397 . S
C1388 C1393 1.363 . S
C1389 H1360 0.950 . S
C1389 C1388 1.397 . S
C1389 C1390 1.334 . S
C1390 H1361 0.950 . S
C1390 C1389 1.334 . S
C1390 C1391 1.287 . S
C1391 C1390 1.287 . S
C1391 C1392 1.524 . S
C1391 H1394 0.999 . S
C1392 H1362 0.950 . S
C1392 C1391 1.524 . S
C1392 C1393 1.415 . S
C1393 H1363 0.950 . S
C1393 C1388 1.363 . S
C1393 C1392 1.415 . S
H1394 C1391 0.999 . S
H1395 C1376 0.913 . S
H1396 C1414 0.951 . S
H1397 C1416 0.951 . S
H1398 C1418 0.950 . S
H1399 C1419 0.950 . S
H1400 C1421 0.950 . S
H1401 C1424 0.950 . S
H1402 C1425 0.950 . S
H1403 C1427 0.950 . S
H1404 C1428 0.950 . S
H1405 C1429 0.951 . S
H1406 C1431 0.951 . S
H1407 C1433 0.950 . S
H1408 C1434 0.950 . S
H1409 C1436 0.950 . S
H1410 C1439 0.950 . S
H1411 C1440 0.951 1_455 S
H1412 C1442 0.950 . S
H1413 C1443 0.950 . S
C1414 H1396 0.951 . S
C1414 C1415 1.333 1_455 S
C1414 C1416 1.388 . S
C1415 C1414 1.333 1_655 S
C1415 C1419 1.419 . S
C1416 H1397 0.951 . S
C1416 C1414 1.388 . S
C1416 C1417 1.366 1_455 S
C1417 C1416 1.366 1_655 S
C1417 C1418 1.414 . S
C1417 C1420 1.499 . S
C1418 H1398 0.950 . S
C1418 C1417 1.414 . S
C1418 C1419 1.374 . S
C1419 H1399 0.950 . S
C1419 C1415 1.419 . S
C1419 C1418 1.374 . S
C1420 C1417 1.499 . S
C1420 C1421 1.373 . S
C1420 C1422 1.380 1_655 S
C1421 H1400 0.950 . S
C1421 C1420 1.373 . S
C1421 C1437 1.377 . S
C1422 C1420 1.380 1_455 S
C1422 C1423 1.531 . S
C1422 C1436 1.379 . S
C1423 C1422 1.531 . S
C1423 C1424 1.397 1_455 S
C1423 C1428 1.363 . S
C1424 H1401 0.950 . S
C1424 C1423 1.397 1_655 S
C1424 C1425 1.334 . S
C1425 H1402 0.950 . S
C1425 C1424 1.334 . S
C1425 C1426 1.287 1_655 S
C1426 C1425 1.287 1_455 S
C1426 C1427 1.524 . S
C1426 H1445 0.913 . S
C1427 H1403 0.950 . S
C1427 C1426 1.524 . S
C1427 C1428 1.415 . S
C1428 H1404 0.950 . S
C1428 C1423 1.363 . S
C1428 C1427 1.415 . S
C1429 H1405 0.951 . S
C1429 C1430 1.366 . S
C1429 C1431 1.388 . S
C1430 C1429 1.366 . S
C1430 C1434 1.385 1_655 S
C1431 H1406 0.951 . S
C1431 C1429 1.388 . S
C1431 C1432 1.366 . S
C1432 C1431 1.366 . S
C1432 C1433 1.414 1_655 S
C1432 C1435 1.499 . S
C1433 H1407 0.950 . S
C1433 C1432 1.414 1_455 S
C1433 C1434 1.374 . S
C1434 H1408 0.950 . S
C1434 C1430 1.385 1_455 S
C1434 C1433 1.374 . S
C1435 C1432 1.499 . S
C1435 C1436 1.373 1_655 S
C1435 C1437 1.389 . S
C1436 H1409 0.950 . S
C1436 C1422 1.379 . S
C1436 C1435 1.373 1_455 S
C1437 C1421 1.377 . S
C1437 C1435 1.389 . S
C1437 C1438 1.524 . S
C1438 C1437 1.524 . S
C1438 C1439 1.397 1_655 S
C1438 C1443 1.363 . S
C1439 H1410 0.950 . S
C1439 C1438 1.397 1_455 S
C1439 C1440 1.334 1_455 S
C1440 H1411 0.951 1_655 S
C1440 C1439 1.334 1_655 S
C1440 C1441 1.286 . S
C1441 C1440 1.286 . S
C1441 C1442 1.524 . S
C1441 H1444 0.999 . S
C1442 H1412 0.950 . S
C1442 C1441 1.524 . S
C1442 C1443 1.415 . S
C1443 H1413 0.950 . S
C1443 C1438 1.363 . S
C1443 C1442 1.415 . S
H1444 C1441 0.999 . S
H1445 C1426 0.913 . S
H1446 C1464 0.951 . S
H1447 C1466 0.951 . S
H1448 C1468 0.950 . S
H1449 C1469 0.950 . S
H1450 C1471 0.950 . S
H1451 C1474 0.950 . S
H1452 C1475 0.950 . S
H1453 C1477 0.950 . S
H1454 C1478 0.950 . S
H1455 C1479 0.951 . S
H1456 C1481 0.951 . S
H1457 C1483 0.950 . S
H1458 C1484 0.950 . S
H1459 C1486 0.950 . S
H1460 C1489 0.950 . S
H1461 C1490 0.950 . S
H1462 C1492 0.950 . S
H1463 C1493 0.950 . S
C1464 H1446 0.951 . S
C1464 C1465 1.366 . S
C1464 C1466 1.388 . S
C1465 C1464 1.366 . S
C1465 C1469 1.385 . S
C1466 H1447 0.951 . S
C1466 C1464 1.388 . S
C1466 C1467 1.366 . S
C1467 C1466 1.366 . S
C1467 C1468 1.414 . S
C1467 C1470 1.499 . S
C1468 H1448 0.950 . S
C1468 C1467 1.414 . S
C1468 C1469 1.374 . S
C1469 H1449 0.950 . S
C1469 C1465 1.385 . S
C1469 C1468 1.374 . S
C1470 C1467 1.499 . S
C1470 C1471 1.373 . S
C1470 C1472 1.389 . S
C1471 H1450 0.950 . S
C1471 C1470 1.373 . S
C1471 C1487 1.377 . S
C1472 C1470 1.389 . S
C1472 C1473 1.524 . S
C1472 C1486 1.377 . S
C1473 C1472 1.524 . S
C1473 C1474 1.397 . S
C1473 C1478 1.363 . S
C1474 H1451 0.950 . S
C1474 C1473 1.397 . S
C1474 C1475 1.334 . S
C1475 H1452 0.950 . S
C1475 C1474 1.334 . S
C1475 C1476 1.287 . S
C1476 C1475 1.287 . S
C1476 C1477 1.524 . S
C1476 H1495 0.913 . S
C1477 H1453 0.950 . S
C1477 C1476 1.524 . S
C1477 C1478 1.415 . S
C1478 H1454 0.950 . S
C1478 C1473 1.363 . S
C1478 C1477 1.415 . S
C1479 H1455 0.951 . S
C1479 C1480 1.366 . S
C1479 C1481 1.388 . S
C1480 C1479 1.366 . S
C1480 C1484 1.385 . S
C1481 H1456 0.951 . S
C1481 C1479 1.388 . S
C1481 C1482 1.366 . S
C1482 C1481 1.366 . S
C1482 C1483 1.414 . S
C1482 C1485 1.499 . S
C1483 H1457 0.950 . S
C1483 C1482 1.414 . S
C1483 C1484 1.374 . S
C1484 H1458 0.950 . S
C1484 C1480 1.385 . S
C1484 C1483 1.374 . S
C1485 C1482 1.499 . S
C1485 C1486 1.373 . S
C1485 C1487 1.389 . S
C1486 H1459 0.950 . S
C1486 C1472 1.377 . S
C1486 C1485 1.373 . S
C1487 C1471 1.377 . S
C1487 C1485 1.389 . S
C1487 C1488 1.524 . S
C1488 C1487 1.524 . S
C1488 C1489 1.397 . S
C1488 C1493 1.363 . S
C1489 H1460 0.950 . S
C1489 C1488 1.397 . S
C1489 C1490 1.334 1_565 S
C1490 H1461 0.950 . S
C1490 C1489 1.334 1_545 S
C1490 C1491 1.287 . S
C1491 C1490 1.287 . S
C1491 C1492 1.524 . S
C1491 H1494 0.999 . S
C1492 H1462 0.950 . S
C1492 C1491 1.524 . S
C1492 C1493 1.415 1_545 S
C1493 H1463 0.950 . S
C1493 C1488 1.363 . S
C1493 C1492 1.415 1_565 S
H1494 C1491 0.999 . S
H1495 C1476 0.913 . S
H1496 C1514 0.951 . S
H1497 C1516 0.951 . S
H1498 C1518 0.950 . S
H1499 C1519 0.950 . S
H1500 C1521 0.950 . S
H1501 C1524 0.950 . S
H1502 C1525 0.950 . S
H1503 C1527 0.950 . S
H1504 C1528 0.950 . S
H1505 C1529 0.951 . S
H1506 C1531 0.951 . S
H1507 C1533 0.950 . S
H1508 C1534 0.950 . S
H1509 C1536 0.950 . S
H1510 C1539 0.950 . S
H1511 C1540 0.950 . S
H1512 C1542 0.950 . S
H1513 C1543 0.950 . S
C1514 H1496 0.951 . S
C1514 C1515 1.366 . S
C1514 C1516 1.388 . S
C1515 C1514 1.366 . S
C1515 C1519 1.385 . S
C1516 H1497 0.951 . S
C1516 C1514 1.388 . S
C1516 C1517 1.366 . S
C1517 C1516 1.366 . S
C1517 C1518 1.414 . S
C1517 C1520 1.499 . S
C1518 H1498 0.950 . S
C1518 C1517 1.414 . S
C1518 C1519 1.374 . S
C1519 H1499 0.950 . S
C1519 C1515 1.385 . S
C1519 C1518 1.374 . S
C1520 C1517 1.499 . S
C1520 C1521 1.373 . S
C1520 C1522 1.389 . S
C1521 H1500 0.950 . S
C1521 C1520 1.373 . S
C1521 C1537 1.377 . S
C1522 C1520 1.389 . S
C1522 C1523 1.524 . S
C1522 C1536 1.377 . S
C1523 C1522 1.524 . S
C1523 C1524 1.397 . S
C1523 C1528 1.363 . S
C1524 H1501 0.950 . S
C1524 C1523 1.397 . S
C1524 C1525 1.334 . S
C1525 H1502 0.950 . S
C1525 C1524 1.334 . S
C1525 C1526 1.287 . S
C1526 C1525 1.287 . S
C1526 C1527 1.524 . S
C1526 H1545 0.913 . S
C1527 H1503 0.950 . S
C1527 C1526 1.524 . S
C1527 C1528 1.415 . S
C1528 H1504 0.950 . S
C1528 C1523 1.363 . S
C1528 C1527 1.415 . S
C1529 H1505 0.951 . S
C1529 C1530 1.366 . S
C1529 C1531 1.388 . S
C1530 C1529 1.366 . S
C1530 C1534 1.385 . S
C1531 H1506 0.951 . S
C1531 C1529 1.388 . S
C1531 C1532 1.366 . S
C1532 C1531 1.366 . S
C1532 C1533 1.414 . S
C1532 C1535 1.499 . S
C1533 H1507 0.950 . S
C1533 C1532 1.414 . S
C1533 C1534 1.374 . S
C1534 H1508 0.950 . S
C1534 C1530 1.385 . S
C1534 C1533 1.374 . S
C1535 C1532 1.499 . S
C1535 C1536 1.373 . S
C1535 C1537 1.389 . S
C1536 H1509 0.950 . S
C1536 C1522 1.377 . S
C1536 C1535 1.373 . S
C1537 C1521 1.377 . S
C1537 C1535 1.389 . S
C1537 C1538 1.524 . S
C1538 C1537 1.524 . S
C1538 C1539 1.397 . S
C1538 C1543 1.363 . S
C1539 H1510 0.950 . S
C1539 C1538 1.397 . S
C1539 C1540 1.334 . S
C1540 H1511 0.950 . S
C1540 C1539 1.334 . S
C1540 C1541 1.287 . S
C1541 C1540 1.287 . S
C1541 C1542 1.524 . S
C1541 H1544 0.999 . S
C1542 H1512 0.950 . S
C1542 C1541 1.524 . S
C1542 C1543 1.415 . S
C1543 H1513 0.950 . S
C1543 C1538 1.363 . S
C1543 C1542 1.415 . S
H1544 C1541 0.999 . S
H1545 C1526 0.913 . S
H1546 C1564 0.951 . S
H1547 C1566 0.951 . S
H1548 C1568 0.950 . S
H1549 C1569 0.950 . S
H1550 C1571 0.950 . S
H1551 C1574 0.950 . S
H1552 C1575 0.950 . S
H1553 C1577 0.950 . S
H1554 C1578 0.950 . S
H1555 C1579 0.951 . S
H1556 C1581 0.951 . S
H1557 C1583 0.950 . S
H1558 C1584 0.950 . S
H1559 C1586 0.950 . S
H1560 C1589 0.950 . S
H1561 C1590 0.950 . S
H1562 C1592 0.950 . S
H1563 C1593 0.950 . S
C1564 H1546 0.951 . S
C1564 C1565 1.366 . S
C1564 C1566 1.388 . S
C1565 C1564 1.366 . S
C1565 C1569 1.385 . S
C1566 H1547 0.951 . S
C1566 C1564 1.388 . S
C1566 C1567 1.366 . S
C1567 C1566 1.366 . S
C1567 C1568 1.414 . S
C1567 C1570 1.499 . S
C1568 H1548 0.950 . S
C1568 C1567 1.414 . S
C1568 C1569 1.374 . S
C1569 H1549 0.950 . S
C1569 C1565 1.385 . S
C1569 C1568 1.374 . S
C1570 C1567 1.499 . S
C1570 C1571 1.373 . S
C1570 C1572 1.389 . S
C1571 H1550 0.950 . S
C1571 C1570 1.373 . S
C1571 C1587 1.377 . S
C1572 C1570 1.389 . S
C1572 C1573 1.524 . S
C1572 C1586 1.377 . S
C1573 C1572 1.524 . S
C1573 C1574 1.397 . S
C1573 C1578 1.363 . S
C1574 H1551 0.950 . S
C1574 C1573 1.397 . S
C1574 C1575 1.334 . S
C1575 H1552 0.950 . S
C1575 C1574 1.334 . S
C1575 C1576 1.287 . S
C1576 C1575 1.287 . S
C1576 C1577 1.524 . S
C1576 H1595 0.913 . S
C1577 H1553 0.950 . S
C1577 C1576 1.524 . S
C1577 C1578 1.415 . S
C1578 H1554 0.950 . S
C1578 C1573 1.363 . S
C1578 C1577 1.415 . S
C1579 H1555 0.951 . S
C1579 C1580 1.366 . S
C1579 C1581 1.388 . S
C1580 C1579 1.366 . S
C1580 C1584 1.385 . S
C1581 H1556 0.951 . S
C1581 C1579 1.388 . S
C1581 C1582 1.366 . S
C1582 C1581 1.366 . S
C1582 C1583 1.414 . S
C1582 C1585 1.499 . S
C1583 H1557 0.950 . S
C1583 C1582 1.414 . S
C1583 C1584 1.374 . S
C1584 H1558 0.950 . S
C1584 C1580 1.385 . S
C1584 C1583 1.374 . S
C1585 C1582 1.499 . S
C1585 C1586 1.373 . S
C1585 C1587 1.389 . S
C1586 H1559 0.950 . S
C1586 C1572 1.377 . S
C1586 C1585 1.373 . S
C1587 C1571 1.377 . S
C1587 C1585 1.389 . S
C1587 C1588 1.524 . S
C1588 C1587 1.524 . S
C1588 C1589 1.397 . S
C1588 C1593 1.363 . S
C1589 H1560 0.950 . S
C1589 C1588 1.397 . S
C1589 C1590 1.334 . S
C1590 H1561 0.950 . S
C1590 C1589 1.334 . S
C1590 C1591 1.287 . S
C1591 C1590 1.287 . S
C1591 C1592 1.524 . S
C1591 H1594 0.999 . S
C1592 H1562 0.950 . S
C1592 C1591 1.524 . S
C1592 C1593 1.415 . S
C1593 H1563 0.950 . S
C1593 C1588 1.363 . S
C1593 C1592 1.415 . S
H1594 C1591 0.999 . S
H1595 C1576 0.913 . S
C415 C255 1.907 . S
C430 C328 1.812 . S
C480 C346 1.316 . S
C465 C294 1.487 . S
C530 C367 1.790 . S
C515 C177 1.888 . S
C580 C391 1.342 . S
C565 C216 1.515 . S
C630 C325 1.716 1_565 S
C615 C99 1.822 . S
C665 C138 1.381 . S
C680 C349 1.223 . S
C715 C21 1.801 . S
C730 C370 1.692 . S
C765 C60 1.405 1_455 S
C780 C388 1.251 . S
C830 C330 0.507 . S
C815 C196 0.410 1_455 S
C880 C348 0.418 . S
C865 C235 0.517 . S
C930 C369 0.500 . S
C915 C289 0.393 . S
C965 C157 0.528 . S
C980 C393 0.423 . S
C1015 C40 0.302 . S
C1030 C329 0.331 . S
C1080 C347 0.380 . S
C1065 C79 0.497 . S
C1130 C368 0.335 . S
C1115 C133 0.291 . S
C1165 C1 0.493 . S
C1180 C392 0.366 . S
C1215 C211 1.823 . S
C1230 C326 1.823 . S
C1265 C250 2.088 . S
C1280 C350 2.111 . S
C1330 C371 1.793 . S
C1315 C274 1.798 . S
C1380 C389 2.137 . S
C1365 C172 2.112 . S
C1415 C55 1.681 1_655 S
C1430 C327 1.678 . S
C1480 C351 1.954 . S
C1465 C94 1.937 . S
C1530 C372 1.643 . S
C1515 C118 1.659 . S
C1565 C16 1.961 . S
C1580 C390 1.980 . S
