# Generated by pormake.
# Topology zzz, (3,6)-cn, num edge types: 1
# Building blocks:
#     Node 0, Type 0, BuildingBlock: QEWDON_clean_linker_0, # of connection points: 3
#     Node 1, Type 0, BuildingBlock: QEWDON_clean_linker_0, # of connection points: 3
#     Node 2, Type 0, BuildingBlock: QEWDON_clean_linker_0, # of connection points: 3
#     Node 3, Type 0, BuildingBlock: QEWDON_clean_linker_0, # of connection points: 3
#     Node 4, Type 0, BuildingBlock: QEWDON_clean_linker_0, # of connection points: 3
#     Node 5, Type 0, BuildingBlock: QEWDON_clean_linker_0, # of connection points: 3
#     Node 6, Type 0, BuildingBlock: QEWDON_clean_linker_0, # of connection points: 3
#     Node 7, Type 0, BuildingBlock: QEWDON_clean_linker_0, # of connection points: 3
#     Node 8, Type 1, BuildingBlock: LEVNOQ01_clean_sbu_1, # of connection points: 6
#     Node 9, Type 1, BuildingBlock: LEVNOQ01_clean_sbu_1, # of connection points: 6
#     Node 10, Type 1, BuildingBlock: LEVNOQ01_clean_sbu_1, # of connection points: 6
#     Node 11, Type 1, BuildingBlock: LEVNOQ01_clean_sbu_1, # of connection points: 6
#     Edge 12, Type (0, 1), BuildingBlock: XIVTED_clean_linker_0, # of connection points: 2
#     Edge 13, Type (0, 1), BuildingBlock: XIVTED_clean_linker_0, # of connection points: 2
#     Edge 14, Type (0, 1), BuildingBlock: XIVTED_clean_linker_0, # of connection points: 2
#     Edge 15, Type (0, 1), BuildingBlock: XIVTED_clean_linker_0, # of connection points: 2
#     Edge 16, Type (0, 1), BuildingBlock: XIVTED_clean_linker_0, # of connection points: 2
#     Edge 17, Type (0, 1), BuildingBlock: XIVTED_clean_linker_0, # of connection points: 2
#     Edge 18, Type (0, 1), BuildingBlock: XIVTED_clean_linker_0, # of connection points: 2
#     Edge 19, Type (0, 1), BuildingBlock: XIVTED_clean_linker_0, # of connection points: 2
#     Edge 20, Type (0, 1), BuildingBlock: XIVTED_clean_linker_0, # of connection points: 2
#     Edge 21, Type (0, 1), BuildingBlock: XIVTED_clean_linker_0, # of connection points: 2
#     Edge 22, Type (0, 1), BuildingBlock: XIVTED_clean_linker_0, # of connection points: 2
#     Edge 23, Type (0, 1), BuildingBlock: XIVTED_clean_linker_0, # of connection points: 2
#     Edge 24, Type (0, 1), BuildingBlock: XIVTED_clean_linker_0, # of connection points: 2
#     Edge 25, Type (0, 1), BuildingBlock: XIVTED_clean_linker_0, # of connection points: 2
#     Edge 26, Type (0, 1), BuildingBlock: XIVTED_clean_linker_0, # of connection points: 2
#     Edge 27, Type (0, 1), BuildingBlock: XIVTED_clean_linker_0, # of connection points: 2
#     Edge 28, Type (0, 1), BuildingBlock: XIVTED_clean_linker_0, # of connection points: 2
#     Edge 29, Type (0, 1), BuildingBlock: XIVTED_clean_linker_0, # of connection points: 2
#     Edge 30, Type (0, 1), BuildingBlock: XIVTED_clean_linker_0, # of connection points: 2
#     Edge 31, Type (0, 1), BuildingBlock: XIVTED_clean_linker_0, # of connection points: 2
#     Edge 32, Type (0, 1), BuildingBlock: XIVTED_clean_linker_0, # of connection points: 2
#     Edge 33, Type (0, 1), BuildingBlock: XIVTED_clean_linker_0, # of connection points: 2
#     Edge 34, Type (0, 1), BuildingBlock: XIVTED_clean_linker_0, # of connection points: 2
#     Edge 35, Type (0, 1), BuildingBlock: XIVTED_clean_linker_0, # of connection points: 2
# Relax obj value: 0.085
# Max RMSD: 0.176
# Mean RMSD: 0.065
data_MOF--net-zzz--node1-LEVNOQ01_clean_sbu_1--node2-QEWDON_clean_linker_0--edge1-XIVTED_clean_linker_0
_symmetry_space_group_name_H-M    P1
_symmetry_Int_Tables_number       1
_symmetry_cell_setting            triclinic
loop_
_symmetry_equiv_pos_as_xyz
'x, y, z'
_cell_length_a     53.598149
_cell_length_b     53.683185
_cell_length_c     15.79058
_cell_angle_alpha  89.756444
_cell_angle_beta   89.86688
_cell_angle_gamma 90.18502
loop_
_atom_site_label
_atom_site_type_symbol
_atom_site_fract_x
_atom_site_fract_y
_atom_site_fract_z
_atom_type_partial_charge
H0 H 0.78009 0.57352 -0.01116 0.0
C1 C 0.79107 0.57076 0.04557 0.0
C2 C 0.81691 0.56811 0.03764 0.0
C3 C 0.77968 0.56986 0.12636 0.0
H4 H 0.85155 0.56203 0.1028 0.0
C5 C 0.83159 0.5649 0.10971 0.0
C6 C 0.82086 0.56303 0.1897 0.0
C7 C 0.79487 0.56537 0.19843 0.0
C8 C 0.75215 0.57357 0.13524 0.0
H9 H 0.78658 0.56322 0.26066 0.0
C10 C 0.7353 0.5654 0.0722 0.0
C11 C 0.70942 0.56988 0.07942 0.0
C12 C 0.74257 0.58615 0.20611 0.0
H13 H 0.75483 0.59323 0.25483 0.0
C14 C 0.71701 0.59027 0.21436 0.0
H15 H 0.74231 0.55569 0.0172 0.0
C16 C 0.70056 0.58223 0.15185 0.0
H17 H 0.68081 0.58549 0.16092 0.0
H18 H 0.70991 0.5999 0.26944 0.0
H19 H 0.95888 0.77869 0.98347 0.0
C20 C 0.96103 0.78956 0.04064 0.0
C21 C 0.96866 0.81441 0.03389 0.0
C22 C 0.95547 0.77919 0.12096 0.0
H23 H 0.97625 0.84844 0.09966 0.0
C24 C 0.97038 0.82914 0.10616 0.0
C25 C 0.96456 0.81971 0.18608 0.0
C26 C 0.95766 0.79447 0.19395 0.0
C27 C 0.94595 0.75303 0.12755 0.0
H28 H 0.95362 0.787 0.25631 0.0
C29 C 0.9547 0.73411 0.07292 0.0
C30 C 0.94457 0.70977 0.07625 0.0
C31 C 0.92707 0.74707 0.18631 0.0
H32 H 0.91941 0.76111 0.22783 0.0
C33 C 0.91718 0.72305 0.19052 0.0
H34 H 0.96962 0.73821 0.02859 0.0
C35 C 0.92571 0.70458 0.13592 0.0
H36 H 0.91712 0.68632 0.13946 0.0
H37 H 0.90249 0.71881 0.23554 0.0
H38 H 0.74724 0.95006 -0.00956 0.0
C39 C 0.73653 0.95331 0.04759 0.0
C40 C 0.71052 0.95517 0.04219 0.0
C41 C 0.74845 0.95497 0.12717 0.0
H42 H 0.67634 0.96119 0.11037 0.0
C43 C 0.69642 0.95893 0.11545 0.0
C44 C 0.70766 0.96145 0.19427 0.0
C45 C 0.73376 0.95976 0.20025 0.0
C46 C 0.77584 0.95033 0.13469 0.0
H47 H 0.7425 0.96197 0.26156 0.0
C48 C 0.79294 0.95856 0.07201 0.0
C49 C 0.81864 0.95285 0.07812 0.0
C50 C 0.78489 0.93647 0.2038 0.0
H51 H 0.77234 0.92937 0.25208 0.0
C52 C 0.81016 0.93084 0.2103 0.0
H53 H 0.78632 0.96971 0.01943 0.0
C54 C 0.82687 0.93878 0.14804 0.0
H55 H 0.84625 0.93346 0.15419 0.0
H56 H 0.81679 0.91991 0.2634 0.0
H57 H 0.56138 0.74691 0.98182 0.0
C58 C 0.56061 0.73574 0.03904 0.0
C59 C 0.55286 0.71098 0.03324 0.0
C60 C 0.56791 0.74567 0.11799 0.0
H61 H 0.54711 0.67641 0.09884 0.0
C62 C 0.55304 0.69569 0.10476 0.0
C63 C 0.56076 0.70458 0.18322 0.0
C64 C 0.56762 0.72985 0.19053 0.0
C65 C 0.577 0.77201 0.12264 0.0
H66 H 0.573 0.73693 0.25195 0.0
C67 C 0.56718 0.79065 0.06865 0.0
C68 C 0.57736 0.81494 0.06678 0.0
C69 C 0.59663 0.77843 0.17736 0.0
H70 H 0.60507 0.76466 0.21846 0.0
C71 C 0.60636 0.80257 0.17755 0.0
H72 H 0.55151 0.78629 0.02815 0.0
C73 C 0.59701 0.82063 0.12242 0.0
H74 H 0.60564 0.83889 0.12214 0.0
H75 H 0.62166 0.80716 0.21937 0.0
H76 H 0.24702 0.4634 0.34049 0.0
C77 C 0.23651 0.45937 0.28368 0.0
C78 C 0.21131 0.45254 0.29231 0.0
C79 C 0.24713 0.46364 0.20288 0.0
H80 H 0.17685 0.44605 0.22584 0.0
C81 C 0.19679 0.44922 0.21956 0.0
C82 C 0.20617 0.45531 0.13987 0.0
C83 C 0.23149 0.46144 0.13102 0.0
C84 C 0.27331 0.47348 0.19469 0.0
H85 H 0.23831 0.46577 0.06816 0.0
C86 C 0.29161 0.46841 0.25696 0.0
C87 C 0.31574 0.47877 0.25069 0.0
C88 C 0.27996 0.48917 0.12623 0.0
H89 H 0.26655 0.4948 0.07896 0.0
C90 C 0.30405 0.49877 0.1187 0.0
H91 H 0.28735 0.45643 0.31041 0.0
C92 C 0.32183 0.49363 0.18028 0.0
H93 H 0.34015 0.50206 0.17438 0.0
H94 H 0.30878 0.51078 0.06579 0.0
H95 H 0.05978 0.24428 0.35067 0.0
C96 C 0.06204 0.23323 0.29391 0.0
C97 C 0.07073 0.20866 0.30154 0.0
C98 C 0.05403 0.24261 0.21481 0.0
H99 H 0.07852 0.17476 0.23442 0.0
C100 C 0.07225 0.19387 0.22886 0.0
C101 C 0.06154 0.20151 0.1526 0.0
C102 C 0.05375 0.22635 0.14429 0.0
C103 C 0.04303 0.26815 0.2085 0.0
H104 H 0.04624 0.23249 0.08424 0.0
C105 C 0.05203 0.28805 0.25856 0.0
C106 C 0.04104 0.31187 0.25358 0.0
C107 C 0.02267 0.27259 0.15426 0.0
H108 H 0.0144 0.25776 0.1175 0.0
C109 C 0.01204 0.29617 0.14832 0.0
H110 H 0.06762 0.28515 0.30095 0.0
C111 C 0.02111 0.31567 0.19733 0.0
H112 H 0.01194 0.33358 0.1932 0.0
H113 H 0.99633 0.29922 0.10662 0.0
H114 H 0.27959 0.05081 0.34757 0.0
C115 C 0.29048 0.05609 0.29247 0.0
C116 C 0.31506 0.06428 0.30461 0.0
C117 C 0.28084 0.05285 0.20991 0.0
H118 H 0.34906 0.0756 0.24383 0.0
C119 C 0.32996 0.06955 0.23409 0.0
C120 C 0.32264 0.0621 0.15323 0.0
C121 C 0.29752 0.05543 0.14026 0.0
C122 C 0.25434 0.04431 0.19801 0.0
H123 H 0.29154 0.05117 0.07668 0.0
C124 C 0.2357 0.04976 0.25895 0.0
C125 C 0.21112 0.04071 0.25017 0.0
C126 C 0.24748 0.02992 0.12719 0.0
H127 H 0.26099 0.02429 0.08021 0.0
C128 C 0.22297 0.02172 0.11678 0.0
H129 H 0.24013 0.06107 0.31351 0.0
C130 C 0.20493 0.02697 0.17769 0.0
H131 H 0.18632 0.01947 0.16943 0.0
H132 H 0.21808 0.01064 0.06211 0.0
H133 H 0.47257 0.27706 0.35046 0.0
C134 C 0.46831 0.28804 0.29469 0.0
C135 C 0.46065 0.31281 0.30527 0.0
C136 C 0.4724 0.27828 0.21276 0.0
H137 H 0.45147 0.34702 0.24182 0.0
C138 C 0.45674 0.32768 0.2337 0.0
C139 C 0.46423 0.3198 0.15356 0.0
C140 C 0.47054 0.29465 0.14218 0.0
C141 C 0.48131 0.252 0.20232 0.0
H142 H 0.47519 0.28839 0.07911 0.0
C143 C 0.47427 0.23302 0.26028 0.0
C144 C 0.48358 0.20857 0.25223 0.0
C145 C 0.49776 0.24584 0.13591 0.0
H146 H 0.50459 0.25977 0.09192 0.0
C147 C 0.50645 0.22157 0.12649 0.0
H148 H 0.46153 0.23711 0.31164 0.0
C149 C 0.4995 0.20309 0.18403 0.0
H150 H 0.50735 0.18465 0.17673 0.0
H151 H 0.51916 0.2172 0.07532 0.0
O152 O 0.03313 0.98065 0.84095 0.0
Mg153 Mg 0.04687 0.97792 0.71644 0.0
O154 O 1.00048 0.98436 0.76122 0.0
Mg155 Mg 0.00983 0.01371 0.65761 0.0
O156 O 0.05374 0.01034 0.65379 0.0
O157 O 0.08388 0.98489 0.70032 0.0
O158 O 0.0185 0.04321 0.55345 0.0
O159 O 0.01376 0.04643 0.75306 0.0
Mg160 Mg 0.9691 0.05266 0.60584 0.0
O161 O 0.96685 0.01826 0.66036 0.0
O162 O 0.98477 0.05285 0.48346 0.0
O163 O 0.98873 0.07512 0.69584 0.0
O164 O 0.93307 0.04015 0.62735 0.0
C165 C 0.01333 0.95829 0.57247 0.0
C166 C 0.01062 0.9752 0.82691 0.0
C167 C 0.07735 0.00481 0.66018 0.0
C168 C 0.0081 0.05494 0.49299 0.0
C169 C 0.00516 0.06868 0.74984 0.0
C170 C 0.94274 0.02069 0.6622 0.0
O171 O 0.02853 0.95283 0.63157 0.0
O172 O 0.00554 0.98069 0.56263 0.0
O173 O 0.45354 0.99241 0.70782 0.0
Mg174 Mg 0.47739 0.97318 0.62123 0.0
O175 O 0.48261 0.01596 0.76889 0.0
Mg176 Mg 0.51472 0.01189 0.6705 0.0
O177 O 0.51131 0.96824 0.67747 0.0
O178 O 0.4863 0.93662 0.64069 0.0
O179 O 0.54727 0.00812 0.57165 0.0
O180 O 0.5452 0.00457 0.7729 0.0
Mg181 Mg 0.55215 0.05362 0.71355 0.0
O182 O 0.51723 0.05529 0.66511 0.0
O183 O 0.57449 0.03634 0.61876 0.0
O184 O 0.55489 0.03927 0.83698 0.0
O185 O 0.53951 0.08922 0.69673 0.0
C186 C 0.47327 0.00946 0.50752 0.0
C187 C 0.46003 0.00824 0.76348 0.0
C188 C 0.50662 0.94439 0.67558 0.0
C189 C 0.56872 0.01882 0.56819 0.0
C190 C 0.5571 0.01594 0.83083 0.0
C191 C 0.51971 0.07941 0.66444 0.0
O192 O 0.47664 0.98646 0.49581 0.0
O193 O 0.48446 0.01982 0.569 0.0
O194 O 0.53037 0.45012 0.70048 0.0
Mg195 Mg 0.5507 0.47506 0.6207 0.0
O196 O 0.50864 0.4798 0.7639 0.0
Mg197 Mg 0.51499 0.51119 0.6637 0.0
O198 O 0.55901 0.50793 0.67949 0.0
O199 O 0.58749 0.47903 0.64537 0.0
O200 O 0.52101 0.5436 0.5653 0.0
O201 O 0.5228 0.5414 0.76485 0.0
Mg202 Mg 0.47831 0.54628 0.7142 0.0
O203 O 0.47092 0.51409 0.65204 0.0
O204 O 0.49766 0.57146 0.63204 0.0
O205 O 0.48947 0.54466 0.84177 0.0
O206 O 0.44141 0.54099 0.69483 0.0
C207 C 0.51846 0.47022 0.49981 0.0
C208 C 0.51501 0.45694 0.75708 0.0
C209 C 0.58213 0.50025 0.67889 0.0
C210 C 0.5134 0.56608 0.57453 0.0
C211 C 0.51187 0.55079 0.82856 0.0
C212 C 0.44752 0.52068 0.6567 0.0
O213 O 0.54155 0.47421 0.49164 0.0
O214 O 0.50707 0.48083 0.56053 0.0
O215 O 0.96864 0.47912 0.80531 0.0
Mg216 Mg 0.9788 0.47019 0.68072 0.0
O217 O 0.98107 0.5156 0.75996 0.0
Mg218 Mg 0.01428 0.51309 0.66687 0.0
O219 O 0.01519 0.46969 0.64476 0.0
O220 O 0.99166 0.43528 0.66028 0.0
O221 O 0.04749 0.51036 0.57332 0.0
O222 O 0.04312 0.50597 0.77569 0.0
Mg223 Mg 0.05093 0.5549 0.6615 0.0
O224 O 0.01385 0.55682 0.69029 0.0
O225 O 0.0636 0.5465 0.53922 0.0
O226 O 0.07008 0.53726 0.76219 0.0
O227 O 0.03918 0.59019 0.67948 0.0
C228 C 0.96442 0.50751 0.54217 0.0
C229 C 0.96709 0.50255 0.80797 0.0
C230 C 0.01243 0.44563 0.63784 0.0
C231 C 0.06303 0.52316 0.53028 0.0
C232 C 0.06312 0.5172 0.79814 0.0
C233 C 0.01762 0.5808 0.69778 0.0
O234 O 0.95834 0.48794 0.58299 0.0
O235 O 0.98468 0.51934 0.55857 0.0
H236 H 0.21786 0.03491 0.42107 0.0
H237 H 0.07147 0.03435 0.52105 0.0
H238 H 0.16145 0.05269 0.23619 0.0
H239 H 0.12751 0.00584 0.68989 0.0
H240 H 0.1046 0.05046 0.42755 0.0
H241 H 0.18558 0.03327 0.53062 0.0
C242 C 0.19876 0.039 0.40377 0.0
C243 C 0.19233 0.04367 0.31905 0.0
C244 C 0.10965 0.04108 0.48585 0.0
C245 C 0.15516 0.04147 0.44415 0.0
C246 C 0.09074 0.03224 0.5395 0.0
C247 C 0.09673 0.01885 0.61291 0.0
C248 C 0.13476 0.03637 0.50596 0.0
C249 C 0.12203 0.01593 0.63344 0.0
C250 C 0.18028 0.03787 0.4663 0.0
C251 C 0.16719 0.04857 0.30041 0.0
N252 N 0.14009 0.02436 0.57987 0.0
N253 N 0.1495 0.04711 0.36221 0.0
H254 H 0.47279 0.15899 0.22874 0.0
H255 H 0.50463 0.12588 0.70765 0.0
H256 H 0.48343 0.21359 0.42516 0.0
H257 H 0.49831 0.07111 0.51025 0.0
H258 H 0.48716 0.1572 0.61218 0.0
H259 H 0.47274 0.12611 0.33637 0.0
C260 C 0.47479 0.16411 0.29466 0.0
C261 C 0.47857 0.18909 0.3177 0.0
C262 C 0.48896 0.13822 0.59014 0.0
C263 C 0.47855 0.15146 0.44146 0.0
C264 C 0.49878 0.1203 0.64487 0.0
C265 C 0.50273 0.09587 0.61683 0.0
C266 C 0.48352 0.1318 0.50603 0.0
C267 C 0.49515 0.08964 0.53471 0.0
C268 C 0.47469 0.14531 0.35614 0.0
C269 C 0.4805 0.19463 0.40428 0.0
N270 N 0.48628 0.1076 0.48164 0.0
N271 N 0.48087 0.17595 0.46278 0.0
H272 H 0.36471 0.46526 0.23771 0.0
H273 H 0.39756 0.51941 0.69139 0.0
H274 H 0.30896 0.48682 0.42017 0.0
H275 H 0.45257 0.49208 0.51647 0.0
H276 H 0.3646 0.50231 0.6018 0.0
H277 H 0.3967 0.46885 0.34714 0.0
C278 C 0.35919 0.47035 0.30135 0.0
C279 C 0.33423 0.47599 0.31982 0.0
C280 C 0.38389 0.49943 0.58386 0.0
C281 C 0.37077 0.48061 0.44515 0.0
C282 C 0.40272 0.5092 0.63501 0.0
C283 C 0.42787 0.50674 0.6115 0.0
C284 C 0.39024 0.48741 0.50797 0.0
C285 C 0.43348 0.49356 0.53775 0.0
C286 C 0.37744 0.47242 0.36383 0.0
C287 C 0.328 0.48229 0.40338 0.0
N288 N 0.41484 0.48463 0.48798 0.0
N289 N 0.34621 0.48485 0.46266 0.0
H290 H 0.04891 0.36097 0.21292 0.0
H291 H 0.032 0.40167 0.6903 0.0
H292 H 0.05011 0.30992 0.42445 0.0
H293 H 0.03138 0.45288 0.47983 0.0
H294 H 0.04924 0.36954 0.59788 0.0
H295 H 0.05259 0.39581 0.31128 0.0
C296 C 0.05037 0.35708 0.2801 0.0
C297 C 0.04871 0.33251 0.31062 0.0
C298 C 0.0461 0.388 0.5722 0.0
C299 C 0.05276 0.37238 0.4239 0.0
C300 C 0.03649 0.4064 0.62524 0.0
C301 C 0.03059 0.42998 0.59269 0.0
C302 C 0.04916 0.39304 0.48538 0.0
C303 C 0.03618 0.43506 0.50764 0.0
C304 C 0.05253 0.37699 0.33628 0.0
C305 C 0.05119 0.32855 0.39811 0.0
N306 N 0.04471 0.41659 0.45644 0.0
N307 N 0.05261 0.34828 0.45176 0.0
H308 H 0.8122 0.95648 0.90484 0.0
H309 H 0.95365 0.99815 0.81318 0.0
H310 H 0.86729 0.96808 0.10006 0.0
H311 H 0.8943 0.00801 0.63264 0.0
H312 H 0.92379 0.97898 0.91189 0.0
H313 H 0.84322 0.96902 0.79859 0.0
C314 C 0.8307 0.96176 0.92567 0.0
C315 C 0.83699 0.96113 0.01206 0.0
C316 C 0.91737 0.98498 0.85013 0.0
C317 C 0.87284 0.9749 0.89006 0.0
C318 C 0.93451 0.99553 0.79327 0.0
C319 C 0.92649 0.00437 0.71429 0.0
C320 C 0.89202 0.98329 0.82776 0.0
C321 C 0.90125 1.00131 0.69287 0.0
C322 C 0.84848 0.9687 0.86476 0.0
C323 C 0.86154 0.96778 0.03444 0.0
N324 N 0.88489 0.99113 0.74933 0.0
N325 N 0.87849 0.97431 0.97404 0.0
H326 H 0.56156 0.80816 0.90246 0.0
H327 H 0.53555 0.95302 0.81351 0.0
H328 H 0.57241 0.86565 0.08944 0.0
H329 H 0.51059 0.89423 0.64988 0.0
H330 H 0.55507 0.92179 0.9065 0.0
H331 H 0.54725 0.83979 0.80235 0.0
C332 C 0.56078 0.82736 0.92296 0.0
C333 C 0.56815 0.83407 0.00521 0.0
C334 C 0.54562 0.91574 0.8496 0.0
C335 C 0.5523 0.87063 0.88935 0.0
C336 C 0.53494 0.9336 0.79606 0.0
C337 C 0.52188 0.92627 0.72364 0.0
C338 C 0.54316 0.89029 0.83038 0.0
C339 C 0.52059 0.90073 0.70506 0.0
C340 C 0.55281 0.84547 0.86528 0.0
C341 C 0.56726 0.85948 0.02671 0.0
N342 N 0.53099 0.88368 0.75817 0.0
N343 N 0.5595 0.87677 0.9693 0.0
H344 H 0.66722 0.59385 0.02245 0.0
H345 H 0.63199 0.48979 0.68225 0.0
H346 H 0.71066 0.5273 0.98196 0.0
H347 H 0.57773 0.54063 0.78462 0.0
H348 H 0.66374 0.50822 0.77305 0.0
H349 H 0.63695 0.57906 0.91852 0.0
C350 C 0.67043 0.57609 -0.00785 0.0
C351 C 0.69156 0.56172 0.01224 0.0
C352 C 0.64495 0.51556 0.77504 0.0
C353 C 0.65707 0.54502 0.89114 0.0
C354 C 0.62676 0.50513 0.72288 0.0
C355 C 0.60204 0.51377 0.72545 0.0
C356 C 0.63855 0.53495 0.83012 0.0
C357 C 0.59655 0.53368 0.77962 0.0
C358 C 0.65316 0.56777 0.93233 0.0
C359 C 0.69491 0.53921 0.96847 0.0
N360 N 0.61462 0.54356 0.83005 0.0
N361 N 0.67786 0.53158 0.91026 0.0
H362 H 0.9512 0.65985 0.10957 0.0
H363 H 0.00523 0.62787 0.65137 0.0
H364 H 0.95738 0.71395 0.90749 0.0
H365 H 0.9914 0.57235 0.84351 0.0
H366 H 0.9848 0.65901 0.74012 0.0
H367 H 0.96374 0.62728 0.01108 0.0
C368 C 0.95503 0.66493 0.04438 0.0
C369 C 0.95315 0.68984 0.01714 0.0
C370 C 0.98565 0.63992 0.76228 0.0
C371 C 0.96785 0.65238 0.90365 0.0
C372 C 0.99709 0.62209 0.71121 0.0
C373 C 0.99946 0.59739 0.73939 0.0
C374 C 0.97695 0.63315 0.84318 0.0
C375 C 0.98921 0.59099 0.81832 0.0
C376 C 0.96225 0.64625 0.98811 0.0
C377 C 0.95888 0.69517 0.93201 0.0
N378 N 0.97867 0.60882 0.86795 0.0
N379 N 0.966 0.67665 0.87855 0.0
H380 H 0.03395 0.20929 0.42041 0.0
H381 H 0.05575 0.06423 0.43625 0.0
H382 H 0.10506 0.1756 0.36689 0.0
H383 H 0.98714 0.10049 0.50559 0.0
H384 H 0.07662 0.10497 0.43222 0.0
H385 H 0.02046 0.17099 0.48895 0.0
C386 C 0.04729 0.19428 0.42684 0.0
C387 C 0.07017 0.19511 0.3836 0.0
C388 C 0.05701 0.10398 0.44865 0.0
C389 C 0.05439 0.15079 0.45797 0.0
C390 C 0.04513 0.08076 0.45027 0.0
C391 C 0.01972 0.07899 0.47043 0.0
C392 C 0.0433 0.12558 0.46748 0.0
C393 C 0.00662 0.10102 0.48728 0.0
C394 C 0.0393 0.17207 0.46425 0.0
C395 C 0.08681 0.17526 0.39646 0.0
N396 N 0.01854 0.12334 0.48536 0.0
N397 N 0.07819 0.15336 0.42877 0.0
H398 H 0.3192 0.02008 0.3851 0.0
H399 H 0.45542 0.05617 0.54166 0.0
H400 H 0.34378 0.09645 0.39821 0.0
H401 H 0.43547 0.98733 0.41813 0.0
H402 H 0.41256 0.07061 0.52462 0.0
H403 H 0.35844 0.00697 0.44874 0.0
C404 C 0.33224 0.03425 0.40593 0.0
C405 C 0.32862 0.05933 0.38419 0.0
C406 C 0.4177 0.05243 0.50091 0.0
C407 C 0.37374 0.04442 0.45388 0.0
C408 C 0.4423 0.04433 0.5089 0.0
C409 C 0.44935 0.02061 0.47999 0.0
C410 C 0.39988 0.0365 0.46531 0.0
C411 C 0.43112 0.00583 0.44064 0.0
C412 C 0.35493 0.02668 0.44018 0.0
C413 C 0.34615 0.07687 0.41281 0.0
N414 N 0.4072 0.01394 0.43517 0.0
N415 N 0.36843 0.06904 0.4438 0.0
H416 H 0.50292 0.3149 0.39859 0.0
H417 H 0.46981 0.45712 0.47028 0.0
H418 H 0.42798 0.34345 0.38895 0.0
H419 H 0.5443 0.42724 0.47475 0.0
H420 H 0.45312 0.41485 0.46022 0.0
H421 H 0.51679 0.35379 0.46191 0.0
C422 C 0.48908 0.32883 0.41412 0.0
C423 C 0.46444 0.32637 0.38559 0.0
C424 C 0.47313 0.41754 0.46343 0.0
C425 C 0.48035 0.37134 0.45391 0.0
C426 C 0.48264 0.44173 0.46809 0.0
C427 C 0.50843 0.44586 0.47254 0.0
C428 C 0.48958 0.39723 0.46374 0.0
C429 C 0.52427 0.42508 0.46953 0.0
C430 C 0.49715 0.35137 0.44825 0.0
C431 C 0.4473 0.34495 0.40825 0.0
N432 N 0.51459 0.40171 0.46562 0.0
N433 N 0.45574 0.36714 0.43794 0.0
H434 H 0.21357 0.49352 0.39198 0.0
H435 H 0.07126 0.47309 0.51795 0.0
H436 H 0.17642 0.4225 0.3699 0.0
H437 H 0.10639 0.54435 0.47222 0.0
H438 H 0.11118 0.45264 0.4924 0.0
H439 H 0.17732 0.5098 0.46608 0.0
C440 C 0.19829 0.48093 0.40642 0.0
C441 C 0.19759 0.45687 0.37221 0.0
C442 C 0.11007 0.47274 0.48766 0.0
C443 C 0.15572 0.4757 0.45332 0.0
C444 C 0.08718 0.4844 0.50051 0.0
C445 C 0.08527 0.51047 0.49597 0.0
C446 C 0.13131 0.48728 0.47108 0.0
C447 C 0.10679 0.52421 0.47546 0.0
C448 C 0.17732 0.49044 0.44702 0.0
C449 C 0.17734 0.44138 0.39358 0.0
N450 N 0.12892 0.51245 0.46426 0.0
N451 N 0.15674 0.45131 0.43035 0.0
H452 H 0.01401 0.82211 0.96344 0.0
H453 H 0.96593 0.95269 0.78975 0.0
H454 H 0.93591 0.83754 0.92972 0.0
H455 H 0.0352 0.94056 0.92292 0.0
H456 H 0.95596 0.90848 0.80643 0.0
H457 H 0.02417 0.86217 0.89774 0.0
C458 C 0.99906 0.83328 0.93729 0.0
C459 C 0.97412 0.82689 0.95309 0.0
C460 C 0.97325 0.91563 0.83219 0.0
C461 C 0.98541 0.87294 0.88218 0.0
C462 C 0.97877 0.94095 0.8243 0.0
C463 C 1.00139 0.95055 0.8556 0.0
C464 C 0.99062 0.89974 0.8705 0.0
C465 C 0.0175 0.93418 0.89813 0.0
C466 C 0.00481 0.85642 0.902 0.0
C467 C 0.95538 0.84205 0.91897 0.0
N468 N 0.0119 0.90956 0.90355 0.0
N469 N 0.96135 0.86488 0.88735 0.0
H470 H 0.71147 0.99248 0.92653 0.0
H471 H 0.56614 0.96897 0.89305 0.0
H472 H 0.67674 0.92184 0.98173 0.0
H473 H 0.60263 0.03762 0.82277 0.0
H474 H 0.60703 0.94902 0.90576 0.0
H475 H 0.67343 0.00588 0.85532 0.0
C476 C 0.6963 0.97926 0.91929 0.0
C477 C 0.69689 0.9563 0.96154 0.0
C478 C 0.60608 0.96843 0.88717 0.0
C479 C 0.65296 0.97186 0.88512 0.0
C480 C 0.58274 0.97977 0.88032 0.0
C481 C 0.58098 0.00488 0.85713 0.0
C482 C 0.62781 0.98243 0.87077 0.0
C483 C 0.60313 0.01832 0.8429 0.0
C484 C 0.67431 0.98712 0.88052 0.0
C485 C 0.67675 0.93987 0.95065 0.0
N486 N 0.62558 0.00695 0.84999 0.0
N487 N 0.65516 0.94829 0.91622 0.0
H488 H 0.50589 0.70271 0.97834 0.0
H489 H 0.55394 0.57608 0.77836 0.0
H490 H 0.58299 0.69018 0.91546 0.0
H491 H 0.4872 0.58404 0.92972 0.0
H492 H 0.56205 0.62046 0.79356 0.0
H493 H 0.4949 0.66333 0.9107 0.0
C494 C 0.52028 0.69237 0.94556 0.0
C495 C 0.54539 0.69926 0.95355 0.0
C496 C 0.54573 0.61239 0.82372 0.0
C497 C 0.53328 0.65401 0.88028 0.0
C498 C 0.54132 0.58691 0.81681 0.0
C499 C 0.52003 0.57601 0.85414 0.0
C500 C 0.52861 0.62722 0.86746 0.0
C501 C 0.50398 0.59143 0.9006 0.0
C502 C 0.51412 0.66962 0.90901 0.0
C503 C 0.56344 0.68524 0.91092 0.0
N504 N 0.50853 0.61627 0.90552 0.0
N505 N 0.55716 0.66273 0.87822 0.0
H506 H 0.84861 0.5996 0.95537 0.0
H507 H 0.92668 0.47911 0.87947 0.0
H508 H 0.81556 0.52654 0.94289 0.0
H509 H 0.95359 0.55154 0.80109 0.0
H510 H 0.88537 0.49692 0.90085 0.0
H511 H 0.88556 0.58386 0.88255 0.0
C512 C 0.84858 0.58059 0.93262 0.0
C513 C 0.82935 0.56418 0.95598 0.0
C514 C 0.90036 0.50892 0.87907 0.0
C515 C 0.87182 0.54574 0.878 0.0
C516 C 0.9241 0.49887 0.86853 0.0
C517 C 0.94384 0.51393 0.83969 0.0
C518 C 0.89637 0.53428 0.86179 0.0
C519 C 0.93915 0.53934 0.82519 0.0
C520 C 0.86988 0.57144 0.89279 0.0
C521 C 0.83019 0.53966 0.92628 0.0
N522 N 0.91593 0.54874 0.83664 0.0
N523 N 0.85156 0.53087 0.89148 0.0
H524 H 0.04277 0.15519 0.18616 0.0
H525 H 0.01022 0.11814 0.7157 0.0
H526 H 0.06251 0.20343 0.9766 0.0
H527 H 0.0232 0.06347 0.91161 0.0
H528 H 0.0256 0.15073 0.81035 0.0
H529 H 0.03155 0.12274 0.08711 0.0
C530 C 0.04524 0.1589 0.11916 0.0
C531 C 0.05442 0.18201 0.08996 0.0
C532 C 0.02517 0.13161 0.83242 0.0
C533 C 0.04043 0.14478 0.97555 0.0
C534 C 0.01625 0.11302 0.77886 0.0
C535 C 0.01521 0.0881 0.80638 0.0
C536 C 0.03263 0.12532 0.91473 0.0
C537 C 0.02365 0.08244 0.88808 0.0
C538 C 0.0386 0.14028 0.06262 0.0
C539 C 0.05576 0.18591 0.00208 0.0
N540 N 0.03173 0.10097 0.93984 0.0
N541 N 0.04879 0.16746 0.9478 0.0
H542 H 0.32211 0.06748 0.97736 0.0
H543 H 0.46487 0.02718 0.92385 0.0
H544 H 0.36872 0.04256 0.18398 0.0
H545 H 0.41066 0.01362 0.72759 0.0
H546 H 0.43128 0.04295 0.01484 0.0
H547 H 0.356 0.05654 0.87834 0.0
C548 C 0.33938 0.06002 0.00212 0.0
C549 C 0.34262 0.05666 0.0897 0.0
C550 C 0.42682 0.0366 0.95162 0.0
C551 C 0.38134 0.04456 0.97743 0.0
C552 C 0.44595 0.02765 0.89986 0.0
C553 C 0.44045 0.0187 0.81884 0.0
C554 C 0.40215 0.03708 0.92138 0.0
C555 C 0.4156 0.01989 0.79046 0.0
C556 C 0.35868 0.05387 0.94572 0.0
C557 C 0.36548 0.04665 0.11776 0.0
N558 N 0.39735 0.02893 0.84161 0.0
N559 N 0.38389 0.04119 0.06213 0.0
H560 H 0.45538 0.31995 0.9799 0.0
H561 H 0.5009 0.46125 0.92338 0.0
H562 H 0.48772 0.36398 0.18022 0.0
H563 H 0.50461 0.4088 0.71754 0.0
H564 H 0.48642 0.42751 0.01701 0.0
H565 H 0.46524 0.35403 0.87951 0.0
C566 C 0.46439 0.33669 0.00279 0.0
C567 C 0.4701 0.33931 0.089 0.0
C568 C 0.49025 0.42348 0.95111 0.0
C569 C 0.48101 0.37817 0.97575 0.0
C570 C 0.49838 0.44272 0.89783 0.0
C571 C 0.50424 0.43766 0.81324 0.0
C572 C 0.4875 0.39921 0.91895 0.0
C573 C 0.50066 0.41331 0.78299 0.0
C574 C 0.46991 0.35611 0.9458 0.0
C575 C 0.48204 0.36139 0.11508 0.0
N576 N 0.4925 0.39494 0.8358 0.0
N577 N 0.48686 0.37995 0.05907 0.0
H578 H 0.19391 0.5023 0.10146 0.0
H579 H 0.0755 0.46789 0.8161 0.0
H580 H 0.17489 0.42634 0.04261 0.0
H581 H 0.09122 0.54095 0.91532 0.0
H582 H 0.11134 0.45144 0.89566 0.0
H583 H 0.15698 0.51638 0.02572 0.0
C584 C 0.18237 0.48866 0.0695 0.0
C585 C 0.18777 0.46323 0.07582 0.0
C586 C 0.10665 0.47097 0.90109 0.0
C587 C 0.14488 0.47905 -0.00907 0.0
C588 C 0.08605 0.48028 0.85661 0.0
C589 C 0.08044 0.5058 0.85949 0.0
C590 C 0.12158 0.48735 0.94848 0.0
C591 C 0.09499 0.52119 0.9112 0.0
C592 C 0.16101 0.49663 0.02756 0.0
C593 C 0.17158 0.44616 0.03708 0.0
N594 N 0.11492 0.51177 0.95314 0.0
N595 N 0.15083 0.45439 -0.00415 0.0
H596 H 0.991 0.8147 0.33412 0.0
H597 H 0.98032 0.96051 0.43836 0.0
H598 H 0.94259 0.86512 0.19989 0.0
H599 H 0.02461 0.90879 0.58409 0.0
H600 H 0.96479 0.92551 0.35392 0.0
H601 H 1.00098 0.84823 0.43402 0.0
C602 C 0.98197 0.83261 0.32715 0.0
C603 C 0.96605 0.83718 0.25865 0.0
C604 C 0.97786 0.92186 0.40462 0.0
C605 C 0.97788 0.87583 0.37057 0.0
C606 C 0.98682 0.94188 0.45256 0.0
C607 C 0.00397 0.93772 0.51815 0.0
C608 C 0.98606 0.89749 0.42238 0.0
C609 C 0.01158 0.91305 0.53386 0.0
C610 C 0.98788 0.85186 0.3834 0.0
C611 C 0.9551 0.86088 0.25171 0.0
N612 N 1.00265 0.89398 0.48636 0.0
N613 N 0.96145 0.87937 0.30611 0.0
H614 H 0.7079 0.00304 0.29346 0.0
H615 H 0.57135 0.97422 0.48218 0.0
H616 H 0.66868 0.93392 0.25376 0.0
H617 H 0.61157 0.04293 0.52258 0.0
H618 H 0.60693 0.95865 0.40003 0.0
H619 H 0.67375 0.01695 0.38543 0.0
C620 C 0.69248 0.99049 0.30656 0.0
C621 C 0.69119 0.96722 0.26703 0.0
C622 C 0.6079 0.97717 0.42675 0.0
C623 C 0.65164 0.98322 0.36932 0.0
C624 C 0.58748 0.98614 0.47295 0.0
C625 C 0.58844 0.0099 0.50957 0.0
C626 C 0.62939 0.99209 0.41696 0.0
C627 C 0.60999 0.02443 0.4961 0.0
C628 C 0.67279 0.99854 0.35787 0.0
C629 C 0.67043 0.95192 0.2839 0.0
N630 N 0.62954 0.0153 0.45121 0.0
N631 N 0.65139 0.96025 0.33313 0.0
H632 H 0.58291 0.65904 0.18855 0.0
H633 H 0.50593 0.61578 0.5976 0.0
H634 H 0.53762 0.70843 0.33813 0.0
H635 H 0.54406 0.56434 0.43275 0.0
H636 H 0.5217 0.65031 0.51322 0.0
H637 H 0.57402 0.62525 0.28851 0.0
C638 C 0.57157 0.6629 0.24384 0.0
C639 C 0.56089 0.68657 0.255 0.0
C640 C 0.52667 0.63152 0.49527 0.0
C641 C 0.55032 0.6478 0.36915 0.0
C642 C 0.51756 0.61164 0.54329 0.0
C643 C 0.52337 0.58691 0.5218 0.0
C644 C 0.54178 0.6269 0.42461 0.0
C645 C 0.53892 0.58301 0.45144 0.0
C646 C 0.56634 0.64354 0.30045 0.0
C647 C 0.54635 0.69056 0.32747 0.0
N648 N 0.54748 0.6028 0.40508 0.0
N649 N 0.54125 0.67128 0.38129 0.0
H650 H 0.83088 0.51628 0.24296 0.0
H651 H 0.95269 0.55635 0.50567 0.0
H652 H 0.85094 0.59293 0.28485 0.0
H653 H 0.9331 0.48065 0.44346 0.0
H654 H 0.91582 0.57081 0.427 0.0
H655 H 0.86731 0.50323 0.32464 0.0
C656 C 0.84246 0.53033 0.27258 0.0
C657 C 0.83755 0.55566 0.2597 0.0
C658 C 0.91979 0.55106 0.42982 0.0
C659 C 0.88 0.54103 0.35006 0.0
C660 C 0.94101 0.54285 0.4737 0.0
C661 C 0.94594 0.51727 0.48097 0.0
C662 C 0.90353 0.53352 0.39312 0.0
C663 C 0.92992 0.50054 0.43978 0.0
C664 C 0.86354 0.52294 0.31782 0.0
C665 C 0.85379 0.57321 0.29568 0.0
N666 N 0.90945 0.50892 0.39818 0.0
N667 N 0.87437 0.56559 0.33908 0.0
loop_
_geom_bond_atom_site_label_1
_geom_bond_atom_site_label_2
_geom_bond_distance
_geom_bond_site_symmetry_2
_ccdc_geom_bond_type
H0 C1 0.949 . S
C1 H0 0.949 . S
C1 C2 1.395 1_556 S
C1 C3 1.391 1_556 S
C2 C1 1.395 1_554 S
C2 C5 1.390 . S
C3 C1 1.391 1_554 S
C3 C7 1.387 . S
C3 C8 1.491 . S
H4 C5 0.950 . S
C5 C2 1.390 . S
C5 H4 0.950 . S
C5 C6 1.378 . S
C6 C5 1.378 . S
C6 C7 1.409 . S
C7 C3 1.387 . S
C7 C6 1.409 . S
C7 H9 0.951 . S
C8 C3 1.491 . S
C8 C10 1.382 . S
C8 C12 1.404 . S
H9 C7 0.951 . S
C10 C8 1.382 . S
C10 C11 1.390 1_554 S
C10 H15 0.949 1_554 S
C11 C10 1.390 1_556 S
C11 C16 1.399 1_556 S
C12 C8 1.404 . S
C12 H13 0.950 . S
C12 C14 1.375 . S
H13 C12 0.950 . S
C14 C12 1.375 . S
C14 C16 1.382 . S
C14 H18 0.950 . S
H15 C10 0.949 1_556 S
C16 C11 1.399 1_554 S
C16 C14 1.382 . S
C16 H17 0.952 . S
H17 C16 0.952 . S
H18 C14 0.950 . S
H19 C20 0.949 . S
C20 H19 0.949 . S
C20 C21 1.395 1_556 S
C20 C22 1.391 1_556 S
C21 C20 1.395 1_554 S
C21 C24 1.390 . S
C22 C20 1.391 1_554 S
C22 C26 1.387 . S
C22 C27 1.491 . S
H23 C24 0.950 . S
C24 C21 1.390 . S
C24 H23 0.950 . S
C24 C25 1.378 . S
C25 C24 1.378 . S
C25 C26 1.409 . S
C26 C22 1.387 . S
C26 C25 1.409 . S
C26 H28 0.951 . S
C27 C22 1.491 . S
C27 C29 1.382 . S
C27 C31 1.404 . S
H28 C26 0.951 . S
C29 C27 1.382 . S
C29 C30 1.390 1_554 S
C29 H34 0.949 1_554 S
C30 C29 1.390 1_556 S
C30 C35 1.400 1_556 S
C31 C27 1.404 . S
C31 H32 0.950 . S
C31 C33 1.375 . S
H32 C31 0.950 . S
C33 C31 1.375 . S
C33 C35 1.382 . S
C33 H37 0.950 . S
H34 C29 0.949 1_556 S
C35 C30 1.400 1_554 S
C35 C33 1.382 . S
C35 H36 0.952 . S
H36 C35 0.952 . S
H37 C33 0.950 . S
H38 C39 0.949 . S
C39 H38 0.949 . S
C39 C40 1.395 1_556 S
C39 C41 1.391 1_556 S
C40 C39 1.395 1_554 S
C40 C43 1.390 . S
C41 C39 1.391 1_554 S
C41 C45 1.387 . S
C41 C46 1.491 . S
H42 C43 0.950 . S
C43 C40 1.390 . S
C43 H42 0.950 . S
C43 C44 1.378 . S
C44 C43 1.378 . S
C44 C45 1.409 . S
C45 C41 1.387 . S
C45 C44 1.409 . S
C45 H47 0.951 . S
C46 C41 1.491 . S
C46 C48 1.382 . S
C46 C50 1.404 . S
H47 C45 0.951 . S
C48 C46 1.382 . S
C48 C49 1.390 1_554 S
C48 H53 0.949 1_554 S
C49 C48 1.390 1_556 S
C49 C54 1.400 1_556 S
C50 C46 1.404 . S
C50 H51 0.950 . S
C50 C52 1.375 . S
H51 C50 0.950 . S
C52 C50 1.375 . S
C52 C54 1.382 . S
C52 H56 0.950 . S
H53 C48 0.949 1_556 S
C54 C49 1.400 1_554 S
C54 C52 1.382 . S
C54 H55 0.952 . S
H55 C54 0.952 . S
H56 C52 0.950 . S
H57 C58 0.949 . S
C58 H57 0.949 . S
C58 C59 1.395 1_556 S
C58 C60 1.391 1_556 S
C59 C58 1.395 1_554 S
C59 C62 1.390 . S
C60 C58 1.391 1_554 S
C60 C64 1.387 . S
C60 C65 1.491 . S
H61 C62 0.950 . S
C62 C59 1.390 . S
C62 H61 0.950 . S
C62 C63 1.378 . S
C63 C62 1.378 . S
C63 C64 1.409 . S
C64 C60 1.387 . S
C64 C63 1.409 . S
C64 H66 0.951 . S
C65 C60 1.491 . S
C65 C67 1.382 . S
C65 C69 1.404 . S
H66 C64 0.951 . S
C67 C65 1.382 . S
C67 C68 1.390 1_554 S
C67 H72 0.949 1_554 S
C68 C67 1.390 1_556 S
C68 C73 1.399 1_556 S
C69 C65 1.404 . S
C69 H70 0.950 . S
C69 C71 1.375 . S
H70 C69 0.950 . S
C71 C69 1.375 . S
C71 C73 1.382 . S
C71 H75 0.950 . S
H72 C67 0.949 1_556 S
C73 C68 1.399 1_554 S
C73 C71 1.382 . S
C73 H74 0.952 . S
H74 C73 0.952 . S
H75 C71 0.950 . S
H76 C77 0.949 . S
C77 H76 0.949 . S
C77 C78 1.395 . S
C77 C79 1.391 . S
C78 C77 1.395 . S
C78 C81 1.390 . S
C79 C77 1.391 . S
C79 C83 1.387 . S
C79 C84 1.491 . S
H80 C81 0.950 . S
C81 C78 1.390 . S
C81 H80 0.950 . S
C81 C82 1.378 . S
C82 C81 1.378 . S
C82 C83 1.409 . S
C83 C79 1.387 . S
C83 C82 1.409 . S
C83 H85 0.951 . S
C84 C79 1.491 . S
C84 C86 1.382 . S
C84 C88 1.404 . S
H85 C83 0.951 . S
C86 C84 1.382 . S
C86 C87 1.390 . S
C86 H91 0.949 . S
C87 C86 1.390 . S
C87 C92 1.399 . S
C88 C84 1.404 . S
C88 H89 0.950 . S
C88 C90 1.375 . S
H89 C88 0.950 . S
C90 C88 1.375 . S
C90 C92 1.382 . S
C90 H94 0.950 . S
H91 C86 0.949 . S
C92 C87 1.399 . S
C92 C90 1.382 . S
C92 H93 0.952 . S
H93 C92 0.952 . S
H94 C90 0.950 . S
H95 C96 0.949 . S
C96 H95 0.949 . S
C96 C97 1.395 . S
C96 C98 1.391 . S
C97 C96 1.395 . S
C97 C100 1.390 . S
C98 C96 1.391 . S
C98 C102 1.387 . S
C98 C103 1.491 . S
H99 C100 0.950 . S
C100 C97 1.390 . S
C100 H99 0.950 . S
C100 C101 1.378 . S
C101 C100 1.378 . S
C101 C102 1.409 . S
C102 C98 1.387 . S
C102 C101 1.409 . S
C102 H104 0.951 . S
C103 C98 1.491 . S
C103 C105 1.382 . S
C103 C107 1.404 . S
H104 C102 0.951 . S
C105 C103 1.382 . S
C105 C106 1.390 . S
C105 H110 0.949 . S
C106 C105 1.390 . S
C106 C111 1.399 . S
C107 C103 1.404 . S
C107 H108 0.950 . S
C107 C109 1.375 . S
H108 C107 0.950 . S
C109 C107 1.375 . S
C109 C111 1.382 . S
C109 H113 0.938 1_455 S
H110 C105 0.949 . S
C111 C106 1.399 . S
C111 C109 1.382 . S
C111 H112 0.952 . S
H112 C111 0.952 . S
H113 C109 0.938 1_655 S
H114 C115 0.949 . S
C115 H114 0.949 . S
C115 C116 1.395 . S
C115 C117 1.391 . S
C116 C115 1.395 . S
C116 C119 1.390 . S
C117 C115 1.391 . S
C117 C121 1.387 . S
C117 C122 1.491 . S
H118 C119 0.950 . S
C119 C116 1.390 . S
C119 H118 0.950 . S
C119 C120 1.378 . S
C120 C119 1.378 . S
C120 C121 1.409 . S
C121 C117 1.387 . S
C121 C120 1.409 . S
C121 H123 0.951 . S
C122 C117 1.491 . S
C122 C124 1.382 . S
C122 C126 1.404 . S
H123 C121 0.951 . S
C124 C122 1.382 . S
C124 C125 1.390 . S
C124 H129 0.949 . S
C125 C124 1.390 . S
C125 C130 1.399 . S
C126 C122 1.404 . S
C126 H127 0.950 . S
C126 C128 1.375 . S
H127 C126 0.950 . S
C128 C126 1.375 . S
C128 C130 1.382 . S
C128 H132 0.950 1_545 S
H129 C124 0.949 . S
C130 C125 1.399 . S
C130 C128 1.382 . S
C130 H131 0.952 . S
H131 C130 0.952 . S
H132 C128 0.950 1_565 S
H133 C134 0.949 . S
C134 H133 0.949 . S
C134 C135 1.395 . S
C134 C136 1.391 . S
C135 C134 1.395 . S
C135 C138 1.390 . S
C136 C134 1.391 . S
C136 C140 1.387 . S
C136 C141 1.491 . S
H137 C138 0.950 . S
C138 C135 1.390 . S
C138 H137 0.950 . S
C138 C139 1.378 . S
C139 C138 1.378 . S
C139 C140 1.409 . S
C140 C136 1.387 . S
C140 C139 1.409 . S
C140 H142 0.951 . S
C141 C136 1.491 . S
C141 C143 1.382 . S
C141 C145 1.404 . S
H142 C140 0.951 . S
C143 C141 1.382 . S
C143 C144 1.390 . S
C143 H148 0.949 . S
C144 C143 1.390 . S
C144 C149 1.399 . S
C145 C141 1.404 . S
C145 H146 0.950 . S
C145 C147 1.375 . S
H146 C145 0.950 . S
C147 C145 1.375 . S
C147 C149 1.382 . S
C147 H151 0.950 . S
H148 C143 0.949 . S
C149 C144 1.399 . S
C149 C147 1.382 . S
C149 H150 0.952 . S
H150 C149 0.952 . S
H151 C147 0.950 . S
O152 Mg153 1.990 . S
O152 C166 1.253 . S
Mg153 O152 1.990 . S
Mg153 O156 2.171 1_565 S
Mg153 O157 2.117 . S
Mg153 O171 2.030 . S
O154 Mg155 2.072 1_565 S
O154 C166 1.260 . S
Mg155 O154 2.072 1_545 S
Mg155 O156 2.101 . S
Mg155 O158 2.079 . S
Mg155 O159 2.072 . S
Mg155 O161 2.099 1_455 S
Mg155 O172 2.079 1_445 S
O156 Mg153 2.171 1_545 S
O156 Mg155 2.101 . S
O156 C167 1.280 . S
O157 Mg153 2.117 . S
O157 C167 1.250 1_565 S
O158 Mg155 2.079 . S
O158 C168 1.264 . S
O159 Mg155 2.072 . S
O159 C169 1.260 . S
Mg160 O161 2.180 . S
Mg160 O162 2.030 . S
Mg160 O163 1.990 . S
Mg160 O164 2.117 . S
O161 Mg155 2.099 1_655 S
O161 Mg160 2.180 . S
O161 C170 1.279 . S
O162 Mg160 2.030 . S
O162 C168 1.248 1_655 S
O163 Mg160 1.990 . S
O163 C169 1.253 1_655 S
O164 Mg160 2.117 . S
O164 C170 1.250 . S
C165 O171 1.248 . S
C165 O172 1.264 1_455 S
C166 O152 1.253 . S
C166 O154 1.260 . S
C167 O156 1.280 . S
C167 O157 1.250 1_545 S
C168 O158 1.264 . S
C168 O162 1.248 1_455 S
C169 O159 1.260 . S
C169 O163 1.253 1_455 S
C170 O161 1.279 . S
C170 O164 1.250 . S
O171 Mg153 2.030 . S
O171 C165 1.248 . S
O172 Mg155 2.079 1_665 S
O172 C165 1.264 1_655 S
O173 Mg174 1.990 . S
O173 C187 1.253 1_565 S
Mg174 O173 1.990 . S
Mg174 O177 2.180 . S
Mg174 O178 2.117 . S
Mg174 O192 2.030 . S
O175 Mg176 2.072 . S
O175 C187 1.260 . S
Mg176 O175 2.072 . S
Mg176 O177 2.099 1_545 S
Mg176 O179 2.079 1_545 S
Mg176 O180 2.072 . S
Mg176 O182 2.099 . S
Mg176 O193 2.079 . S
O177 Mg174 2.180 . S
O177 Mg176 2.099 1_565 S
O177 C188 1.279 . S
O178 Mg174 2.117 . S
O178 C188 1.250 . S
O179 Mg176 2.079 1_565 S
O179 C189 1.264 1_565 S
O180 Mg176 2.072 . S
O180 C190 1.260 . S
Mg181 O182 2.180 . S
Mg181 O183 2.030 . S
Mg181 O184 1.990 . S
Mg181 O185 2.117 . S
O182 Mg176 2.099 . S
O182 Mg181 2.180 . S
O182 C191 1.279 . S
O183 Mg181 2.030 . S
O183 C189 1.248 . S
O184 Mg181 1.990 . S
O184 C190 1.253 . S
O185 Mg181 2.117 . S
O185 C191 1.250 . S
C186 O192 1.248 1_545 S
C186 O193 1.264 . S
C187 O173 1.253 1_545 S
C187 O175 1.260 . S
C188 O177 1.279 . S
C188 O178 1.250 . S
C189 O179 1.264 1_545 S
C189 O183 1.248 . S
C190 O180 1.260 . S
C190 O184 1.253 . S
C191 O182 1.279 . S
C191 O185 1.250 . S
O192 Mg174 2.030 . S
O192 C186 1.248 1_565 S
O193 Mg176 2.079 . S
O193 C186 1.264 . S
O194 Mg195 1.990 . S
O194 C208 1.253 . S
Mg195 O194 1.990 . S
Mg195 O198 2.180 . S
Mg195 O199 2.117 . S
Mg195 O213 2.030 . S
O196 Mg197 2.072 . S
O196 C208 1.260 . S
Mg197 O196 2.072 . S
Mg197 O198 2.099 . S
Mg197 O200 2.079 . S
Mg197 O201 2.072 . S
Mg197 O203 2.099 . S
Mg197 O214 2.079 . S
O198 Mg195 2.180 . S
O198 Mg197 2.099 . S
O198 C209 1.279 . S
O199 Mg195 2.117 . S
O199 C209 1.250 . S
O200 Mg197 2.079 . S
O200 C210 1.264 . S
O201 Mg197 2.072 . S
O201 C211 1.260 . S
Mg202 O203 2.180 . S
Mg202 O204 2.030 . S
Mg202 O205 1.990 . S
Mg202 O206 2.117 . S
O203 Mg197 2.099 . S
O203 Mg202 2.180 . S
O203 C212 1.279 . S
O204 Mg202 2.030 . S
O204 C210 1.248 . S
O205 Mg202 1.990 . S
O205 C211 1.253 . S
O206 Mg202 2.117 . S
O206 C212 1.250 . S
C207 O213 1.248 . S
C207 O214 1.264 . S
C208 O194 1.253 . S
C208 O196 1.260 . S
C209 O198 1.279 . S
C209 O199 1.250 . S
C210 O200 1.264 . S
C210 O204 1.248 . S
C211 O201 1.260 . S
C211 O205 1.253 . S
C212 O203 1.279 . S
C212 O206 1.250 . S
O213 Mg195 2.030 . S
O213 C207 1.248 . S
O214 Mg197 2.079 . S
O214 C207 1.264 . S
O215 Mg216 1.990 . S
O215 C229 1.253 . S
Mg216 O215 1.990 . S
Mg216 O219 2.180 1_655 S
Mg216 O220 2.117 . S
Mg216 O234 2.030 . S
O217 Mg218 2.072 1_655 S
O217 C229 1.260 . S
Mg218 O217 2.072 1_455 S
Mg218 O219 2.099 . S
Mg218 O221 2.079 . S
Mg218 O222 2.072 . S
Mg218 O224 2.099 . S
Mg218 O235 2.079 1_455 S
O219 Mg216 2.180 1_455 S
O219 Mg218 2.099 . S
O219 C230 1.279 . S
O220 Mg216 2.117 . S
O220 C230 1.250 1_655 S
O221 Mg218 2.079 . S
O221 C231 1.264 . S
O222 Mg218 2.072 . S
O222 C232 1.260 . S
Mg223 O224 2.180 . S
Mg223 O225 2.030 . S
Mg223 O226 1.990 . S
Mg223 O227 2.117 . S
O224 Mg218 2.099 . S
O224 Mg223 2.180 . S
O224 C233 1.279 . S
O225 Mg223 2.030 . S
O225 C231 1.248 . S
O226 Mg223 1.990 . S
O226 C232 1.253 . S
O227 Mg223 2.117 . S
O227 C233 1.250 . S
C228 O234 1.248 . S
C228 O235 1.264 . S
C229 O215 1.253 . S
C229 O217 1.260 . S
C230 O219 1.279 . S
C230 O220 1.250 1_455 S
C231 O221 1.264 . S
C231 O225 1.248 . S
C232 O222 1.260 . S
C232 O226 1.253 . S
C233 O224 1.279 . S
C233 O227 1.250 . S
O234 Mg216 2.030 . S
O234 C228 1.248 . S
O235 Mg218 2.079 1_655 S
O235 C228 1.264 . S
H236 C242 0.930 . S
H237 C246 0.930 . S
H238 C251 0.929 . S
H239 C249 0.929 . S
H240 C244 0.929 . S
H241 C250 0.929 1_565 S
C242 H236 0.930 . S
C242 C243 1.367 . S
C242 C250 1.378 . S
C243 C242 1.367 . S
C243 C251 1.433 . S
C244 H240 0.929 . S
C244 C246 1.378 . S
C244 C248 1.350 . S
C245 C248 1.463 . S
C245 C250 1.350 . S
C245 N253 1.427 . S
C246 H237 0.930 . S
C246 C244 1.378 . S
C246 C247 1.367 . S
C247 C246 1.367 . S
C247 C249 1.433 1_545 S
C248 C244 1.350 . S
C248 C245 1.463 . S
C248 N252 1.427 . S
C249 H239 0.929 . S
C249 C247 1.433 1_565 S
C249 N252 1.384 1_565 S
C250 H241 0.929 1_545 S
C250 C242 1.378 . S
C250 C245 1.350 . S
C251 H238 0.929 . S
C251 C243 1.433 . S
C251 N253 1.384 . S
N252 C248 1.427 . S
N252 C249 1.384 1_545 S
N253 C245 1.427 . S
N253 C251 1.384 . S
H254 C260 0.930 . S
H255 C264 0.930 . S
H256 C269 0.929 . S
H257 C267 0.929 . S
H258 C262 0.929 . S
H259 C268 0.929 . S
C260 H254 0.930 . S
C260 C261 1.367 . S
C260 C268 1.378 . S
C261 C260 1.367 . S
C261 C269 1.433 . S
C262 H258 0.929 . S
C262 C264 1.378 . S
C262 C266 1.350 . S
C263 C266 1.463 . S
C263 C268 1.350 . S
C263 N271 1.427 . S
C264 H255 0.930 . S
C264 C262 1.378 . S
C264 C265 1.367 . S
C265 C264 1.367 . S
C265 C267 1.433 . S
C266 C262 1.350 . S
C266 C263 1.463 . S
C266 N270 1.427 . S
C267 H257 0.929 . S
C267 C265 1.433 . S
C267 N270 1.384 . S
C268 H259 0.929 . S
C268 C260 1.378 . S
C268 C263 1.350 . S
C269 H256 0.929 . S
C269 C261 1.433 . S
C269 N271 1.384 . S
N270 C266 1.427 . S
N270 C267 1.384 . S
N271 C263 1.427 . S
N271 C269 1.384 . S
H272 C278 0.930 . S
H273 C282 0.930 . S
H274 C287 0.929 . S
H275 C285 0.929 . S
H276 C280 0.929 . S
H277 C286 0.929 . S
C278 H272 0.930 . S
C278 C279 1.367 . S
C278 C286 1.378 . S
C279 C278 1.367 . S
C279 C287 1.433 . S
C280 H276 0.929 . S
C280 C282 1.378 . S
C280 C284 1.350 . S
C281 C284 1.463 . S
C281 C286 1.350 . S
C281 N289 1.427 . S
C282 H273 0.930 . S
C282 C280 1.378 . S
C282 C283 1.367 . S
C283 C282 1.367 . S
C283 C285 1.433 . S
C284 C280 1.350 . S
C284 C281 1.463 . S
C284 N288 1.427 . S
C285 H275 0.929 . S
C285 C283 1.433 . S
C285 N288 1.384 . S
C286 H277 0.929 . S
C286 C278 1.378 . S
C286 C281 1.350 . S
C287 H274 0.929 . S
C287 C279 1.433 . S
C287 N289 1.384 . S
N288 C284 1.427 . S
N288 C285 1.384 . S
N289 C281 1.427 . S
N289 C287 1.384 . S
H290 C296 0.930 . S
H291 C300 0.930 . S
H292 C305 0.929 . S
H293 C303 0.929 1_655 S
H294 C298 0.929 . S
H295 C304 0.929 . S
C296 H290 0.930 . S
C296 C297 1.367 . S
C296 C304 1.378 . S
C297 C296 1.367 . S
C297 C305 1.433 . S
C298 H294 0.929 . S
C298 C300 1.378 . S
C298 C302 1.350 . S
C299 C302 1.463 . S
C299 C304 1.350 . S
C299 N307 1.427 . S
C300 H291 0.930 . S
C300 C298 1.378 . S
C300 C301 1.367 . S
C301 C300 1.367 . S
C301 C303 1.433 . S
C302 C298 1.350 . S
C302 C299 1.463 . S
C302 N306 1.427 . S
C303 H293 0.929 1_455 S
C303 C301 1.433 . S
C303 N306 1.384 . S
C304 H295 0.929 . S
C304 C296 1.378 . S
C304 C299 1.350 . S
C305 H292 0.929 . S
C305 C297 1.433 . S
C305 N307 1.384 . S
N306 C302 1.427 . S
N306 C303 1.384 . S
N307 C299 1.427 . S
N307 C305 1.384 . S
H308 C314 0.930 . S
H309 C318 0.930 . S
H310 C323 0.929 1_544 S
H311 C321 0.929 . S
H312 C316 0.929 . S
H313 C322 0.929 . S
C314 H308 0.930 . S
C314 C315 1.367 . S
C314 C322 1.378 . S
C315 C314 1.367 . S
C315 C323 1.433 . S
C316 H312 0.929 . S
C316 C318 1.378 . S
C316 C320 1.350 1_545 S
C317 C320 1.463 . S
C317 C322 1.350 . S
C317 N325 1.433 . S
C318 H309 0.930 . S
C318 C316 1.378 . S
C318 C319 1.385 . S
C319 C318 1.385 . S
C319 C321 1.410 1_545 S
C320 C316 1.350 1_565 S
C320 C317 1.463 . S
C320 N324 1.427 . S
C321 H311 0.929 . S
C321 C319 1.410 1_565 S
C321 N324 1.384 . S
C322 H313 0.929 . S
C322 C314 1.378 . S
C322 C317 1.350 . S
C323 H310 0.929 1_566 S
C323 C315 1.433 . S
C323 N325 1.386 . S
N324 C320 1.427 . S
N324 C321 1.384 . S
N325 C317 1.433 . S
N325 C323 1.386 . S
H326 C332 0.930 . S
H327 C336 0.930 . S
H328 C341 0.929 1_554 S
H329 C339 0.929 . S
H330 C334 0.929 . S
H331 C340 0.929 . S
C332 H326 0.930 . S
C332 C333 1.367 . S
C332 C340 1.378 . S
C333 C332 1.367 . S
C333 C341 1.433 . S
C334 H330 0.929 . S
C334 C336 1.378 . S
C334 C338 1.350 . S
C335 C338 1.463 . S
C335 C340 1.350 . S
C335 N343 1.427 . S
C336 H327 0.930 . S
C336 C334 1.378 . S
C336 C337 1.367 . S
C337 C336 1.367 . S
C337 C339 1.433 . S
C338 C334 1.350 . S
C338 C335 1.463 . S
C338 N342 1.427 . S
C339 H329 0.929 . S
C339 C337 1.433 . S
C339 N342 1.384 . S
C340 H331 0.929 . S
C340 C332 1.378 . S
C340 C335 1.350 . S
C341 H328 0.929 1_556 S
C341 C333 1.433 . S
C341 N343 1.384 . S
N342 C338 1.427 . S
N342 C339 1.384 . S
N343 C335 1.427 . S
N343 C341 1.384 . S
H344 C350 0.930 . S
H345 C354 0.930 . S
H346 C359 0.929 . S
H347 C357 0.929 . S
H348 C352 0.929 . S
H349 C358 0.929 . S
C350 H344 0.930 . S
C350 C351 1.367 . S
C350 C358 1.378 . S
C351 C350 1.367 . S
C351 C359 1.433 . S
C352 H348 0.929 . S
C352 C354 1.378 . S
C352 C356 1.350 . S
C353 C356 1.463 . S
C353 C358 1.350 . S
C353 N361 1.427 . S
C354 H345 0.930 . S
C354 C352 1.378 . S
C354 C355 1.367 . S
C355 C354 1.367 . S
C355 C357 1.433 . S
C356 C352 1.350 . S
C356 C353 1.463 . S
C356 N360 1.427 . S
C357 H347 0.929 . S
C357 C355 1.433 . S
C357 N360 1.384 . S
C358 H349 0.929 . S
C358 C350 1.378 . S
C358 C353 1.350 . S
C359 H346 0.929 . S
C359 C351 1.433 . S
C359 N361 1.384 . S
N360 C356 1.427 . S
N360 C357 1.384 . S
N361 C353 1.427 . S
N361 C359 1.384 . S
H362 C368 0.930 1_554 S
H363 C372 0.930 . S
H364 C377 0.929 . S
H365 C375 0.929 . S
H366 C370 0.929 . S
H367 C376 0.929 . S
C368 H362 0.930 1_556 S
C368 C369 1.367 . S
C368 C376 1.378 . S
C369 C368 1.367 . S
C369 C377 1.433 . S
C370 H366 0.929 . S
C370 C372 1.378 . S
C370 C374 1.350 1_455 S
C371 C374 1.463 . S
C371 C376 1.350 . S
C371 N379 1.427 . S
C372 H363 0.930 . S
C372 C370 1.378 . S
C372 C373 1.367 . S
C373 C372 1.367 . S
C373 C375 1.433 1_455 S
C374 C370 1.350 1_655 S
C374 C371 1.463 . S
C374 N378 1.427 . S
C375 H365 0.929 . S
C375 C373 1.433 1_655 S
C375 N378 1.384 . S
C376 H367 0.929 . S
C376 C368 1.378 . S
C376 C371 1.350 . S
C377 H364 0.929 . S
C377 C369 1.433 . S
C377 N379 1.384 . S
N378 C374 1.427 . S
N378 C375 1.384 . S
N379 C371 1.427 . S
N379 C377 1.384 . S
H380 C386 0.930 . S
H381 C390 0.930 . S
H382 C395 0.929 . S
H383 C393 0.929 1_655 S
H384 C388 0.929 . S
H385 C394 0.929 . S
C386 H380 0.930 . S
C386 C387 1.367 . S
C386 C394 1.378 . S
C387 C386 1.367 . S
C387 C395 1.433 . S
C388 H384 0.929 . S
C388 C390 1.378 . S
C388 C392 1.350 . S
C389 C392 1.463 . S
C389 C394 1.350 . S
C389 N397 1.427 . S
C390 H381 0.930 . S
C390 C388 1.378 . S
C390 C391 1.367 . S
C391 C390 1.367 . S
C391 C393 1.433 . S
C392 C388 1.350 . S
C392 C389 1.463 . S
C392 N396 1.427 . S
C393 H383 0.929 1_455 S
C393 C391 1.433 . S
C393 N396 1.384 . S
C394 H385 0.929 . S
C394 C386 1.378 . S
C394 C389 1.350 . S
C395 H382 0.929 . S
C395 C387 1.433 . S
C395 N397 1.384 . S
N396 C392 1.427 . S
N396 C393 1.384 . S
N397 C389 1.427 . S
N397 C395 1.384 . S
H398 C404 0.930 . S
H399 C408 0.930 . S
H400 C413 0.929 . S
H401 C411 0.929 . S
H402 C406 0.929 . S
H403 C412 0.929 . S
C404 H398 0.930 . S
C404 C405 1.367 . S
C404 C412 1.378 . S
C405 C404 1.367 . S
C405 C413 1.433 . S
C406 H402 0.929 . S
C406 C408 1.378 . S
C406 C410 1.350 . S
C407 C410 1.463 . S
C407 C412 1.350 . S
C407 N415 1.427 . S
C408 H399 0.930 . S
C408 C406 1.378 . S
C408 C409 1.367 . S
C409 C408 1.367 . S
C409 C411 1.433 1_545 S
C410 C406 1.350 . S
C410 C407 1.463 . S
C410 N414 1.427 . S
C411 H401 0.929 . S
C411 C409 1.433 1_565 S
C411 N414 1.384 1_565 S
C412 H403 0.929 . S
C412 C404 1.378 . S
C412 C407 1.350 . S
C413 H400 0.929 . S
C413 C405 1.433 . S
C413 N415 1.384 . S
N414 C410 1.427 . S
N414 C411 1.384 1_545 S
N415 C407 1.427 . S
N415 C413 1.384 . S
H416 C422 0.930 . S
H417 C426 0.930 . S
H418 C431 0.929 . S
H419 C429 0.929 . S
H420 C424 0.929 . S
H421 C430 0.929 . S
C422 H416 0.930 . S
C422 C423 1.367 . S
C422 C430 1.378 . S
C423 C422 1.367 . S
C423 C431 1.433 . S
C424 H420 0.929 . S
C424 C426 1.378 . S
C424 C428 1.350 . S
C425 C428 1.463 . S
C425 C430 1.350 . S
C425 N433 1.427 . S
C426 H417 0.930 . S
C426 C424 1.378 . S
C426 C427 1.367 . S
C427 C426 1.367 . S
C427 C429 1.433 . S
C428 C424 1.350 . S
C428 C425 1.463 . S
C428 N432 1.427 . S
C429 H419 0.929 . S
C429 C427 1.433 . S
C429 N432 1.384 . S
C430 H421 0.929 . S
C430 C422 1.378 . S
C430 C425 1.350 . S
C431 H418 0.929 . S
C431 C423 1.433 . S
C431 N433 1.384 . S
N432 C428 1.427 . S
N432 C429 1.384 . S
N433 C425 1.427 . S
N433 C431 1.384 . S
H434 C440 0.930 . S
H435 C444 0.930 . S
H436 C449 0.929 . S
H437 C447 0.929 . S
H438 C442 0.929 . S
H439 C448 0.929 . S
C440 H434 0.930 . S
C440 C441 1.367 . S
C440 C448 1.378 . S
C441 C440 1.367 . S
C441 C449 1.433 . S
C442 H438 0.929 . S
C442 C444 1.378 . S
C442 C446 1.350 . S
C443 C446 1.463 . S
C443 C448 1.350 . S
C443 N451 1.427 . S
C444 H435 0.930 . S
C444 C442 1.378 . S
C444 C445 1.367 . S
C445 C444 1.367 . S
C445 C447 1.433 . S
C446 C442 1.350 . S
C446 C443 1.463 . S
C446 N450 1.427 . S
C447 H437 0.929 . S
C447 C445 1.433 . S
C447 N450 1.384 . S
C448 H439 0.929 . S
C448 C440 1.378 . S
C448 C443 1.350 . S
C449 H436 0.929 . S
C449 C441 1.433 . S
C449 N451 1.384 . S
N450 C446 1.427 . S
N450 C447 1.384 . S
N451 C443 1.427 . S
N451 C449 1.384 . S
H452 C458 0.930 . S
H453 C462 0.930 . S
H454 C467 0.929 . S
H455 C465 0.929 . S
H456 C460 0.929 . S
H457 C466 0.929 1_454 S
C458 H452 0.930 . S
C458 C459 1.367 1_554 S
C458 C466 1.378 1_554 S
C459 C458 1.367 1_556 S
C459 C467 1.433 . S
C460 H456 0.929 . S
C460 C462 1.378 . S
C460 C464 1.350 . S
C461 C464 1.463 . S
C461 C466 1.350 . S
C461 N469 1.427 . S
C462 H453 0.930 . S
C462 C460 1.378 . S
C462 C463 1.367 1_655 S
C463 C462 1.367 1_455 S
C463 C465 1.433 . S
C464 C460 1.350 . S
C464 C461 1.463 . S
C464 N468 1.427 1_655 S
C465 H455 0.929 . S
C465 C463 1.433 . S
C465 N468 1.384 . S
C466 H457 0.929 1_656 S
C466 C458 1.378 1_556 S
C466 C461 1.350 . S
C467 H454 0.929 . S
C467 C459 1.433 . S
C467 N469 1.384 . S
N468 C464 1.427 1_455 S
N468 C465 1.384 . S
N469 C461 1.427 . S
N469 C467 1.384 . S
H470 C476 0.930 1_545 S
H471 C480 0.930 . S
H472 C485 0.929 1_554 S
H473 C483 0.929 . S
H474 C478 0.929 . S
H475 C484 0.929 . S
C476 H470 0.930 1_565 S
C476 C477 1.367 . S
C476 C484 1.378 1_565 S
C477 C476 1.367 . S
C477 C485 1.433 . S
C478 H474 0.929 . S
C478 C480 1.378 . S
C478 C482 1.350 . S
C479 C482 1.463 . S
C479 C484 1.350 1_565 S
C479 N487 1.427 . S
C480 H471 0.930 . S
C480 C478 1.378 . S
C480 C481 1.367 1_565 S
C481 C480 1.367 1_545 S
C481 C483 1.433 . S
C482 C478 1.350 . S
C482 C479 1.463 . S
C482 N486 1.427 1_565 S
C483 H473 0.929 . S
C483 C481 1.433 . S
C483 N486 1.384 . S
C484 H475 0.929 . S
C484 C476 1.378 1_545 S
C484 C479 1.350 1_545 S
C485 H472 0.929 1_556 S
C485 C477 1.433 . S
C485 N487 1.384 . S
N486 C482 1.427 1_545 S
N486 C483 1.384 . S
N487 C479 1.427 . S
N487 C485 1.384 . S
H488 C494 0.930 . S
H489 C498 0.930 . S
H490 C503 0.929 . S
H491 C501 0.929 . S
H492 C496 0.929 . S
H493 C502 0.929 . S
C494 H488 0.930 . S
C494 C495 1.367 1_554 S
C494 C502 1.378 1_554 S
C495 C494 1.367 1_556 S
C495 C503 1.433 . S
C496 H492 0.929 . S
C496 C498 1.378 . S
C496 C500 1.350 . S
C497 C500 1.463 . S
C497 C502 1.350 . S
C497 N505 1.427 . S
C498 H489 0.930 . S
C498 C496 1.378 . S
C498 C499 1.367 . S
C499 C498 1.367 . S
C499 C501 1.433 . S
C500 C496 1.350 . S
C500 C497 1.463 . S
C500 N504 1.427 . S
C501 H491 0.929 . S
C501 C499 1.433 . S
C501 N504 1.384 . S
C502 H493 0.929 . S
C502 C494 1.378 1_556 S
C502 C497 1.350 . S
C503 H490 0.929 . S
C503 C495 1.433 . S
C503 N505 1.384 . S
N504 C500 1.427 . S
N504 C501 1.384 . S
N505 C497 1.427 . S
N505 C503 1.384 . S
H506 C512 0.930 . S
H507 C516 0.930 . S
H508 C521 0.929 . S
H509 C519 0.929 . S
H510 C514 0.929 . S
H511 C520 0.929 . S
C512 H506 0.930 . S
C512 C513 1.367 . S
C512 C520 1.378 . S
C513 C512 1.367 . S
C513 C521 1.433 . S
C514 H510 0.929 . S
C514 C516 1.378 . S
C514 C518 1.350 . S
C515 C518 1.463 . S
C515 C520 1.350 . S
C515 N523 1.427 . S
C516 H507 0.930 . S
C516 C514 1.378 . S
C516 C517 1.367 . S
C517 C516 1.367 . S
C517 C519 1.433 . S
C518 C514 1.350 . S
C518 C515 1.463 . S
C518 N522 1.427 . S
C519 H509 0.929 . S
C519 C517 1.433 . S
C519 N522 1.384 . S
C520 H511 0.929 . S
C520 C512 1.378 . S
C520 C515 1.350 . S
C521 H508 0.929 . S
C521 C513 1.433 . S
C521 N523 1.384 . S
N522 C518 1.427 . S
N522 C519 1.384 . S
N523 C515 1.427 . S
N523 C521 1.384 . S
H524 C530 0.930 . S
H525 C534 0.930 . S
H526 C539 0.929 . S
H527 C537 0.929 . S
H528 C532 0.929 . S
H529 C538 0.929 . S
C530 H524 0.930 . S
C530 C531 1.367 . S
C530 C538 1.378 . S
C531 C530 1.367 . S
C531 C539 1.433 . S
C532 H528 0.929 . S
C532 C534 1.378 . S
C532 C536 1.350 . S
C533 C536 1.463 1_554 S
C533 C538 1.350 . S
C533 N541 1.427 1_554 S
C534 H525 0.930 . S
C534 C532 1.378 . S
C534 C535 1.367 . S
C535 C534 1.367 . S
C535 C537 1.433 . S
C536 C532 1.350 . S
C536 C533 1.463 1_556 S
C536 N540 1.427 1_556 S
C537 H527 0.929 . S
C537 C535 1.433 . S
C537 N540 1.384 1_556 S
C538 H529 0.929 . S
C538 C530 1.378 . S
C538 C533 1.350 . S
C539 H526 0.929 . S
C539 C531 1.433 . S
C539 N541 1.384 1_554 S
N540 C536 1.427 1_554 S
N540 C537 1.384 1_554 S
N541 C533 1.427 1_556 S
N541 C539 1.384 1_556 S
H542 C548 0.930 . S
H543 C552 0.930 . S
H544 C557 0.929 . S
H545 C555 0.929 . S
H546 C550 0.929 . S
H547 C556 0.929 . S
C548 H542 0.930 . S
C548 C549 1.367 . S
C548 C556 1.378 1_554 S
C549 C548 1.367 . S
C549 C557 1.433 . S
C550 H546 0.929 . S
C550 C552 1.378 1_554 S
C550 C554 1.350 1_554 S
C551 C554 1.463 1_554 S
C551 C556 1.350 1_554 S
C551 N559 1.427 . S
C552 H543 0.930 . S
C552 C550 1.378 1_556 S
C552 C553 1.367 . S
C553 C552 1.367 . S
C553 C555 1.433 . S
C554 C550 1.350 1_556 S
C554 C551 1.463 1_556 S
C554 N558 1.427 . S
C555 H545 0.929 . S
C555 C553 1.433 . S
C555 N558 1.384 . S
C556 H547 0.929 . S
C556 C548 1.378 1_556 S
C556 C551 1.350 1_556 S
C557 H544 0.929 . S
C557 C549 1.433 . S
C557 N559 1.384 . S
N558 C554 1.427 . S
N558 C555 1.384 . S
N559 C551 1.427 . S
N559 C557 1.384 . S
H560 C566 0.930 . S
H561 C570 0.930 . S
H562 C575 0.929 . S
H563 C573 0.929 . S
H564 C568 0.929 1_554 S
H565 C574 0.929 1_556 S
C566 H560 0.930 . S
C566 C567 1.367 . S
C566 C574 1.378 . S
C567 C566 1.367 . S
C567 C575 1.433 . S
C568 H564 0.929 1_556 S
C568 C570 1.378 . S
C568 C572 1.350 . S
C569 C572 1.463 1_554 S
C569 C574 1.350 . S
C569 N577 1.427 . S
C570 H561 0.930 . S
C570 C568 1.378 . S
C570 C571 1.367 . S
C571 C570 1.367 . S
C571 C573 1.433 . S
C572 C568 1.350 . S
C572 C569 1.463 1_556 S
C572 N576 1.427 . S
C573 H563 0.929 . S
C573 C571 1.433 . S
C573 N576 1.384 . S
C574 H565 0.929 1_554 S
C574 C566 1.378 . S
C574 C569 1.350 . S
C575 H562 0.929 . S
C575 C567 1.433 . S
C575 N577 1.384 . S
N576 C572 1.427 . S
N576 C573 1.384 . S
N577 C569 1.427 . S
N577 C575 1.384 . S
H578 C584 0.930 . S
H579 C588 0.930 . S
H580 C593 0.929 . S
H581 C591 0.929 . S
H582 C586 0.929 . S
H583 C592 0.929 . S
C584 H578 0.930 . S
C584 C585 1.367 . S
C584 C592 1.378 . S
C585 C584 1.367 . S
C585 C593 1.433 . S
C586 H582 0.929 . S
C586 C588 1.378 . S
C586 C590 1.350 . S
C587 C590 1.463 1_554 S
C587 C592 1.350 . S
C587 N595 1.427 1_554 S
C588 H579 0.930 . S
C588 C586 1.378 . S
C588 C589 1.367 . S
C589 C588 1.367 . S
C589 C591 1.433 . S
C590 C586 1.350 . S
C590 C587 1.463 1_556 S
C590 N594 1.427 1_556 S
C591 H581 0.929 . S
C591 C589 1.433 . S
C591 N594 1.384 1_556 S
C592 H583 0.929 . S
C592 C584 1.378 . S
C592 C587 1.350 . S
C593 H580 0.929 . S
C593 C585 1.433 . S
C593 N595 1.384 1_554 S
N594 C590 1.427 1_554 S
N594 C591 1.384 1_554 S
N595 C587 1.427 1_556 S
N595 C593 1.384 1_556 S
H596 C602 0.930 . S
H597 C606 0.930 . S
H598 C611 0.929 . S
H599 C609 0.936 . S
H600 C604 0.929 . S
H601 C610 0.929 . S
C602 H596 0.930 . S
C602 C603 1.367 . S
C602 C610 1.378 . S
C603 C602 1.367 . S
C603 C611 1.433 . S
C604 H600 0.929 . S
C604 C606 1.378 . S
C604 C608 1.350 . S
C605 C608 1.463 . S
C605 C610 1.350 . S
C605 N613 1.427 . S
C606 H597 0.930 . S
C606 C604 1.378 . S
C606 C607 1.367 . S
C607 C606 1.367 . S
C607 C609 1.428 1_655 S
C608 C604 1.350 . S
C608 C605 1.463 . S
C608 N612 1.427 . S
C609 H599 0.936 . S
C609 C607 1.428 1_455 S
C609 N612 1.382 1_455 S
C610 H601 0.929 . S
C610 C602 1.378 . S
C610 C605 1.350 . S
C611 H598 0.929 . S
C611 C603 1.433 . S
C611 N613 1.384 . S
N612 C608 1.427 . S
N612 C609 1.382 1_655 S
N613 C605 1.427 . S
N613 C611 1.384 . S
H614 C620 0.929 . S
H615 C624 0.930 . S
H616 C629 0.929 . S
H617 C627 0.929 . S
H618 C622 0.929 . S
H619 C628 0.929 . S
C620 H614 0.929 . S
C620 C621 1.368 1_545 S
C620 C628 1.378 . S
C621 C620 1.368 1_565 S
C621 C629 1.433 . S
C622 H618 0.929 . S
C622 C624 1.378 . S
C622 C626 1.350 . S
C623 C626 1.463 . S
C623 C628 1.350 1_565 S
C623 N631 1.427 . S
C624 H615 0.930 . S
C624 C622 1.378 . S
C624 C625 1.367 . S
C625 C624 1.367 . S
C625 C627 1.433 1_565 S
C626 C622 1.350 . S
C626 C623 1.463 . S
C626 N630 1.427 1_565 S
C627 H617 0.929 . S
C627 C625 1.433 1_545 S
C627 N630 1.384 . S
C628 H619 0.929 . S
C628 C620 1.378 . S
C628 C623 1.350 1_545 S
C629 H616 0.929 . S
C629 C621 1.433 . S
C629 N631 1.384 . S
N630 C626 1.427 1_545 S
N630 C627 1.384 . S
N631 C623 1.427 . S
N631 C629 1.384 . S
H632 C638 0.930 . S
H633 C642 0.930 . S
H634 C647 0.929 . S
H635 C645 0.929 . S
H636 C640 0.929 . S
H637 C646 0.929 . S
C638 H632 0.930 . S
C638 C639 1.367 . S
C638 C646 1.378 . S
C639 C638 1.367 . S
C639 C647 1.433 . S
C640 H636 0.929 . S
C640 C642 1.378 . S
C640 C644 1.350 . S
C641 C644 1.463 . S
C641 C646 1.350 . S
C641 N649 1.427 . S
C642 H633 0.930 . S
C642 C640 1.378 . S
C642 C643 1.367 . S
C643 C642 1.367 . S
C643 C645 1.433 . S
C644 C640 1.350 . S
C644 C641 1.463 . S
C644 N648 1.427 . S
C645 H635 0.929 . S
C645 C643 1.433 . S
C645 N648 1.384 . S
C646 H637 0.929 . S
C646 C638 1.378 . S
C646 C641 1.350 . S
C647 H634 0.929 . S
C647 C639 1.433 . S
C647 N649 1.384 . S
N648 C644 1.427 . S
N648 C645 1.384 . S
N649 C641 1.427 . S
N649 C647 1.384 . S
H650 C656 0.930 . S
H651 C660 0.930 . S
H652 C665 0.929 . S
H653 C663 0.929 . S
H654 C658 0.929 . S
H655 C664 0.929 . S
C656 H650 0.930 . S
C656 C657 1.367 . S
C656 C664 1.378 . S
C657 C656 1.367 . S
C657 C665 1.433 . S
C658 H654 0.929 . S
C658 C660 1.378 . S
C658 C662 1.350 . S
C659 C662 1.463 . S
C659 C664 1.350 . S
C659 N667 1.427 . S
C660 H651 0.930 . S
C660 C658 1.378 . S
C660 C661 1.367 . S
C661 C660 1.367 . S
C661 C663 1.433 . S
C662 C658 1.350 . S
C662 C659 1.463 . S
C662 N666 1.427 . S
C663 H653 0.929 . S
C663 C661 1.433 . S
C663 N666 1.384 . S
C664 H655 0.929 . S
C664 C656 1.378 . S
C664 C659 1.350 . S
C665 H652 0.929 . S
C665 C657 1.433 . S
C665 N667 1.384 . S
N666 C662 1.427 . S
N666 C663 1.384 . S
N667 C659 1.427 . S
N667 C665 1.384 . S
C243 C125 1.505 . S
C247 C167 1.447 . S
C265 C191 1.435 . S
C261 C144 1.511 . S
C283 C212 1.426 . S
C279 C87 1.519 . S
C301 C230 1.447 . S
C297 C106 1.502 . S
C319 C170 1.383 . S
C315 C49 1.505 . S
C333 C68 1.511 . S
C337 C188 1.379 . S
C351 C11 1.499 . S
C355 C209 1.362 . S
C369 C30 1.498 . S
C373 C233 1.371 . S
C391 C168 0.741 . S
C387 C97 0.742 . S
C409 C186 0.714 . S
C405 C116 0.710 . S
C427 C207 0.729 . S
C423 C135 0.723 . S
C441 C78 0.735 . S
C445 C231 0.737 . S
C459 C21 0.808 1_556 S
C463 C166 0.828 . S
C481 C190 0.844 . S
C477 C40 0.830 1_556 S
C499 C211 0.831 . S
C495 C59 0.810 1_556 S
C513 C2 0.831 1_556 S
C517 C229 0.829 . S
C531 C101 1.601 . S
C535 C169 1.559 . S
C549 C120 1.613 . S
C553 C187 1.556 . S
C571 C208 1.553 . S
C567 C139 1.613 . S
C589 C232 1.556 . S
C585 C82 1.601 . S
C603 C25 1.473 . S
C607 C165 1.425 1_655 S
C625 C189 1.424 1_565 S
C621 C44 1.466 . S
C643 C210 1.408 . S
C639 C63 1.460 . S
C657 C6 1.461 . S
C661 C228 1.416 . S
