# Generated by pormake.
# Topology wbl, (4,4)-cn, num edge types: 1
# Building blocks:
#     Node 0, Type 0, BuildingBlock: MIFKUJ_clean_linker_1, # of connection points: 4
#     Node 1, Type 0, BuildingBlock: MIFKUJ_clean_linker_1, # of connection points: 4
#     Node 2, Type 0, BuildingBlock: MIFKUJ_clean_linker_1, # of connection points: 4
#     Node 3, Type 0, BuildingBlock: MIFKUJ_clean_linker_1, # of connection points: 4
#     Node 4, Type 0, BuildingBlock: MIFKUJ_clean_linker_1, # of connection points: 4
#     Node 5, Type 0, BuildingBlock: MIFKUJ_clean_linker_1, # of connection points: 4
#     Node 6, Type 0, BuildingBlock: MIFKUJ_clean_linker_1, # of connection points: 4
#     Node 7, Type 0, BuildingBlock: MIFKUJ_clean_linker_1, # of connection points: 4
#     Node 8, Type 1, BuildingBlock: CEKHIL_clean_sbu_0, # of connection points: 4
#     Node 9, Type 1, BuildingBlock: CEKHIL_clean_sbu_0, # of connection points: 4
#     Node 10, Type 1, BuildingBlock: CEKHIL_clean_sbu_0, # of connection points: 4
#     Node 11, Type 1, BuildingBlock: CEKHIL_clean_sbu_0, # of connection points: 4
#     Node 12, Type 1, BuildingBlock: CEKHIL_clean_sbu_0, # of connection points: 4
#     Node 13, Type 1, BuildingBlock: CEKHIL_clean_sbu_0, # of connection points: 4
#     Node 14, Type 1, BuildingBlock: CEKHIL_clean_sbu_0, # of connection points: 4
#     Node 15, Type 1, BuildingBlock: CEKHIL_clean_sbu_0, # of connection points: 4
#     Edge 16, Type (0, 1), BuildingBlock: AJUNOK_clean_linker_0, # of connection points: 2
#     Edge 17, Type (0, 1), BuildingBlock: AJUNOK_clean_linker_0, # of connection points: 2
#     Edge 18, Type (0, 1), BuildingBlock: AJUNOK_clean_linker_0, # of connection points: 2
#     Edge 19, Type (0, 1), BuildingBlock: AJUNOK_clean_linker_0, # of connection points: 2
#     Edge 20, Type (0, 1), BuildingBlock: AJUNOK_clean_linker_0, # of connection points: 2
#     Edge 21, Type (0, 1), BuildingBlock: AJUNOK_clean_linker_0, # of connection points: 2
#     Edge 22, Type (0, 1), BuildingBlock: AJUNOK_clean_linker_0, # of connection points: 2
#     Edge 23, Type (0, 1), BuildingBlock: AJUNOK_clean_linker_0, # of connection points: 2
#     Edge 24, Type (0, 1), BuildingBlock: AJUNOK_clean_linker_0, # of connection points: 2
#     Edge 25, Type (0, 1), BuildingBlock: AJUNOK_clean_linker_0, # of connection points: 2
#     Edge 26, Type (0, 1), BuildingBlock: AJUNOK_clean_linker_0, # of connection points: 2
#     Edge 27, Type (0, 1), BuildingBlock: AJUNOK_clean_linker_0, # of connection points: 2
#     Edge 28, Type (0, 1), BuildingBlock: AJUNOK_clean_linker_0, # of connection points: 2
#     Edge 29, Type (0, 1), BuildingBlock: AJUNOK_clean_linker_0, # of connection points: 2
#     Edge 30, Type (0, 1), BuildingBlock: AJUNOK_clean_linker_0, # of connection points: 2
#     Edge 31, Type (0, 1), BuildingBlock: AJUNOK_clean_linker_0, # of connection points: 2
#     Edge 32, Type (0, 1), BuildingBlock: AJUNOK_clean_linker_0, # of connection points: 2
#     Edge 33, Type (0, 1), BuildingBlock: AJUNOK_clean_linker_0, # of connection points: 2
#     Edge 34, Type (0, 1), BuildingBlock: AJUNOK_clean_linker_0, # of connection points: 2
#     Edge 35, Type (0, 1), BuildingBlock: AJUNOK_clean_linker_0, # of connection points: 2
#     Edge 36, Type (0, 1), BuildingBlock: AJUNOK_clean_linker_0, # of connection points: 2
#     Edge 37, Type (0, 1), BuildingBlock: AJUNOK_clean_linker_0, # of connection points: 2
#     Edge 38, Type (0, 1), BuildingBlock: AJUNOK_clean_linker_0, # of connection points: 2
#     Edge 39, Type (0, 1), BuildingBlock: AJUNOK_clean_linker_0, # of connection points: 2
#     Edge 40, Type (0, 1), BuildingBlock: AJUNOK_clean_linker_0, # of connection points: 2
#     Edge 41, Type (0, 1), BuildingBlock: AJUNOK_clean_linker_0, # of connection points: 2
#     Edge 42, Type (0, 1), BuildingBlock: AJUNOK_clean_linker_0, # of connection points: 2
#     Edge 43, Type (0, 1), BuildingBlock: AJUNOK_clean_linker_0, # of connection points: 2
#     Edge 44, Type (0, 1), BuildingBlock: AJUNOK_clean_linker_0, # of connection points: 2
#     Edge 45, Type (0, 1), BuildingBlock: AJUNOK_clean_linker_0, # of connection points: 2
#     Edge 46, Type (0, 1), BuildingBlock: AJUNOK_clean_linker_0, # of connection points: 2
#     Edge 47, Type (0, 1), BuildingBlock: AJUNOK_clean_linker_0, # of connection points: 2
# Relax obj value: 0.158
# Max RMSD: 0.159
# Mean RMSD: 0.138
data_MOF--net-wbl--node1-CEKHIL_clean_sbu_0--node2-MIFKUJ_clean_linker_1--edge1-AJUNOK_clean_linker_0
_symmetry_space_group_name_H-M    P1
_symmetry_Int_Tables_number       1
_symmetry_cell_setting            triclinic
loop_
_symmetry_equiv_pos_as_xyz
'x, y, z'
_cell_length_a     35.707695
_cell_length_b     35.894704
_cell_length_c     58.772642
_cell_angle_alpha  90.442542
_cell_angle_beta   90.102814
_cell_angle_gamma 90.020197
loop_
_atom_site_label
_atom_site_type_symbol
_atom_site_fract_x
_atom_site_fract_y
_atom_site_fract_z
_atom_type_partial_charge
H0 H 0.01276 0.09443 0.3546 0.0
H1 H 0.97534 0.12853 0.38279 0.0
H2 H 0.88027 0.05846 0.36729 0.0
H3 H 0.91784 0.02454 0.33883 0.0
H4 H 0.01864 0.01026 0.36014 0.0
H5 H 0.9754 0.10703 0.30669 0.0
H6 H 0.91877 0.13774 0.29239 0.0
H7 H 0.88003 0.03249 0.26512 0.0
H8 H 0.93636 0.00208 0.27939 0.0
H9 H 0.05188 0.91004 0.30494 0.0
H10 H 0.10783 0.87732 0.29198 0.0
H11 H 0.14855 0.97922 0.26207 0.0
H12 H 0.09413 0.01247 0.27706 0.0
H13 H 0.01415 0.0083 0.27573 0.0
H14 H 0.01899 0.91977 0.34568 0.0
H15 H 0.05102 0.88095 0.37364 0.0
H16 H 0.14559 0.95584 0.37299 0.0
H17 H 0.11369 0.99423 0.34427 0.0
C18 C 0.96799 0.05708 0.34467 0.0
C19 C 0.98361 0.08699 0.35691 0.0
C20 C 0.96222 0.1065 0.3729 0.0
C21 C 0.92505 0.09597 0.37721 0.0
C22 C 0.90893 0.06698 0.36427 0.0
C23 C 0.93025 0.04772 0.34804 0.0
C24 C 0.99251 0.03327 0.33042 0.0
C25 C 0.01789 0.01017 0.34167 0.0
C26 C 0.99017 0.03192 0.3064 0.0
C27 C 0.96001 0.05217 0.29423 0.0
C28 C 0.955 0.09074 0.29725 0.0
C29 C 0.92267 0.10827 0.28911 0.0
C30 C 0.89507 0.08761 0.27751 0.0
C31 C 0.90113 0.04939 0.27352 0.0
C32 C 0.93334 0.0319 0.28172 0.0
C33 C 0.06932 0.964 0.29261 0.0
C34 C 0.07283 0.92533 0.29556 0.0
C35 C 0.10465 0.90644 0.28775 0.0
C36 C 0.13302 0.92562 0.27609 0.0
C37 C 0.12766 0.96369 0.27139 0.0
C38 C 0.09628 0.9827 0.27968 0.0
C39 C 0.04105 0.98586 0.30559 0.0
C40 C 0.01516 0.00879 0.29417 0.0
C41 C 0.04139 0.98598 0.32962 0.0
C42 C 0.06408 0.95971 0.34302 0.0
C43 C 0.04711 0.92717 0.35102 0.0
C44 C 0.06539 0.90505 0.36691 0.0
C45 C 0.10053 0.91571 0.37551 0.0
C46 C 0.11862 0.947 0.36642 0.0
C47 C 0.1004 0.96899 0.35021 0.0
H48 H 0.0112 0.44309 0.52697 0.0
H49 H 0.983 0.38674 0.5107 0.0
H50 H 0.87788 0.41479 0.54292 0.0
H51 H 0.90518 0.4725 0.55717 0.0
H52 H 0.00397 0.51835 0.52741 0.0
H53 H 0.99199 0.42087 0.5876 0.0
H54 H 0.96261 0.37932 0.61548 0.0
H55 H 0.88271 0.46542 0.63225 0.0
H56 H 0.91229 0.50684 0.60467 0.0
H57 H 0.99516 0.59563 0.61558 0.0
H58 H 0.03424 0.62541 0.64471 0.0
H59 H 0.13333 0.58274 0.61159 0.0
H60 H 0.09411 0.5525 0.58264 0.0
H61 H 0.99336 0.52166 0.6116 0.0
H62 H 0.01114 0.62166 0.56357 0.0
H63 H 0.05095 0.67157 0.54929 0.0
H64 H 0.11639 0.59117 0.51167 0.0
H65 H 0.07709 0.54054 0.52676 0.0
C66 C 0.96059 0.46181 0.54369 0.0
C67 C 0.98174 0.43773 0.52986 0.0
C68 C 0.96565 0.40521 0.52083 0.0
C69 C 0.92813 0.39584 0.52559 0.0
C70 C 0.90655 0.42113 0.53843 0.0
C71 C 0.92239 0.45402 0.54697 0.0
C72 C 0.97933 0.49222 0.55688 0.0
C73 C 1.00175 0.51898 0.5458 0.0
C74 C 0.97575 0.49418 0.58084 0.0
C75 C 0.95422 0.46681 0.59417 0.0
C76 C 0.96757 0.43035 0.59689 0.0
C77 C 0.9509 0.40677 0.61278 0.0
C78 C 0.92057 0.41938 0.62596 0.0
C79 C 0.90586 0.45504 0.62213 0.0
C80 C 0.92278 0.4787 0.6065 0.0
C81 C 0.0417 0.57175 0.59698 0.0
C82 C 0.02535 0.59356 0.61424 0.0
C83 C 0.04772 0.61086 0.63074 0.0
C84 C 0.08681 0.60649 0.63032 0.0
C85 C 0.10326 0.58664 0.61222 0.0
C86 C 0.08089 0.56946 0.59566 0.0
C87 C 0.018 0.54741 0.58234 0.0
C88 C 0.99499 0.52158 0.59315 0.0
C89 C 0.02056 0.54712 0.55831 0.0
C90 C 0.04145 0.57722 0.54655 0.0
C91 C 0.03401 0.61459 0.55224 0.0
C92 C 0.05681 0.64309 0.54417 0.0
C93 C 0.087 0.63502 0.52975 0.0
C94 C 0.09337 0.59792 0.52295 0.0
C95 C 0.07079 0.56913 0.53138 0.0
H96 H 0.51419 0.60037 0.85928 0.0
H97 H 0.47502 0.63159 0.88764 0.0
H98 H 0.38324 0.55813 0.87055 0.0
H99 H 0.42281 0.52678 0.84207 0.0
H100 H 0.52691 0.52005 0.86415 0.0
H101 H 0.48 0.61031 0.80691 0.0
H102 H 0.42327 0.63985 0.79194 0.0
H103 H 0.37951 0.53136 0.77372 0.0
H104 H 0.43674 0.50231 0.78793 0.0
H105 H 0.54588 0.43278 0.78243 0.0
H106 H 0.59964 0.39856 0.76628 0.0
H107 H 0.67439 0.48289 0.79295 0.0
H108 H 0.6211 0.51669 0.80877 0.0
H109 H 0.51816 0.51271 0.77989 0.0
H110 H 0.55681 0.4212 0.83086 0.0
H111 H 0.59278 0.38019 0.85566 0.0
H112 H 0.63675 0.47613 0.89151 0.0
H113 H 0.60145 0.51724 0.86622 0.0
C114 C 0.47135 0.56138 0.8486 0.0
C115 C 0.48532 0.59166 0.86121 0.0
C116 C 0.4628 0.60967 0.87725 0.0
C117 C 0.42597 0.5975 0.88112 0.0
C118 C 0.41145 0.56819 0.86776 0.0
C119 C 0.43396 0.55035 0.85151 0.0
C120 C 0.49732 0.53888 0.83449 0.0
C121 C 0.52548 0.51903 0.84571 0.0
C122 C 0.49378 0.53573 0.81059 0.0
C123 C 0.46244 0.55413 0.79857 0.0
C124 C 0.45841 0.59304 0.79928 0.0
C125 C 0.42584 0.60983 0.79095 0.0
C126 C 0.39655 0.58792 0.78202 0.0
C127 C 0.40158 0.54909 0.78037 0.0
C128 C 0.43427 0.53239 0.78847 0.0
C129 C 0.5796 0.4773 0.79668 0.0
C130 C 0.57382 0.44415 0.78432 0.0
C131 C 0.60449 0.42444 0.77542 0.0
C132 C 0.64116 0.43795 0.77858 0.0
C133 C 0.64648 0.47189 0.79019 0.0
C134 C 0.61606 0.49128 0.79916 0.0
C135 C 0.54893 0.49532 0.80964 0.0
C136 C 0.51989 0.51413 0.7983 0.0
C137 C 0.55068 0.49656 0.83364 0.0
C138 C 0.57657 0.47232 0.84662 0.0
C139 C 0.57521 0.43351 0.84351 0.0
C140 C 0.59564 0.41008 0.85773 0.0
C141 C 0.61772 0.42501 0.87537 0.0
C142 C 0.62056 0.46391 0.87775 0.0
C143 C 0.60006 0.48738 0.86351 0.0
H144 H 0.51029 0.94076 0.03213 0.0
H145 H 0.486 0.8806 0.01901 0.0
H146 H 0.37596 0.91055 0.04335 0.0
H147 H 0.40008 0.97133 0.05564 0.0
H148 H 0.49865 0.01729 0.0279 0.0
H149 H 0.48626 0.92234 0.08843 0.0
H150 H 0.45698 0.88055 0.11614 0.0
H151 H 0.37731 0.96657 0.13347 0.0
H152 H 0.40659 0.00817 0.10584 0.0
H153 H 0.49099 0.09618 0.11672 0.0
H154 H 0.53181 0.12699 0.14449 0.0
H155 H 0.62887 0.08751 0.10784 0.0
H156 H 0.58804 0.05544 0.08066 0.0
H157 H 0.48702 0.02435 0.11198 0.0
H158 H 0.50559 0.12244 0.0626 0.0
H159 H 0.54637 0.17139 0.048 0.0
H160 H 0.61097 0.08912 0.01142 0.0
H161 H 0.57083 0.03943 0.02687 0.0
C162 C 0.45716 0.96042 0.04512 0.0
C163 C 0.48066 0.93498 0.0339 0.0
C164 C 0.4668 0.90045 0.02661 0.0
C165 C 0.42914 0.89067 0.03036 0.0
C166 C 0.40498 0.91732 0.04001 0.0
C167 C 0.41883 0.95199 0.04718 0.0
C168 C 0.47385 0.99249 0.05771 0.0
C169 C 0.49602 0.01894 0.04626 0.0
C170 C 0.46973 0.99556 0.08159 0.0
C171 C 0.4485 0.96825 0.09516 0.0
C172 C 0.4619 0.93178 0.0978 0.0
C173 C 0.44529 0.90806 0.11362 0.0
C174 C 0.41509 0.92055 0.12693 0.0
C175 C 0.40038 0.95626 0.12326 0.0
C176 C 0.41715 0.98004 0.10761 0.0
C177 C 0.53637 0.0734 0.09661 0.0
C178 C 0.52105 0.09484 0.11438 0.0
C179 C 0.54442 0.11289 0.13006 0.0
C180 C 0.58356 0.10987 0.12824 0.0
C181 C 0.59882 0.09041 0.1096 0.0
C182 C 0.57546 0.07219 0.09401 0.0
C183 C 0.51199 0.0489 0.0824 0.0
C184 C 0.48872 0.02361 0.09354 0.0
C185 C 0.51448 0.04769 0.05836 0.0
C186 C 0.53548 0.07715 0.04613 0.0
C187 C 0.52843 0.11477 0.05139 0.0
C188 C 0.55176 0.14269 0.04317 0.0
C189 C 0.58206 0.1337 0.02906 0.0
C190 C 0.58794 0.09643 0.02256 0.0
C191 C 0.56484 0.06822 0.03115 0.0
H192 H 0.01311 0.60997 0.89686 0.0
H193 H 0.05627 0.63968 0.87023 0.0
H194 H 0.13833 0.55415 0.88325 0.0
H195 H 0.09514 0.52483 0.91042 0.0
H196 H 0.99546 0.52548 0.88921 0.0
H197 H 0.04421 0.61849 0.94244 0.0
H198 H 0.10313 0.64585 0.95569 0.0
H199 H 0.13242 0.54148 0.98718 0.0
H200 H 0.0746 0.51354 0.9725 0.0
H201 H 0.96623 0.4469 0.97265 0.0
H202 H 0.91019 0.41688 0.98879 0.0
H203 H 0.84052 0.49975 0.95678 0.0
H204 H 0.89602 0.52945 0.94104 0.0
H205 H 0.99643 0.52524 0.9737 0.0
H206 H 0.95867 0.43065 0.92178 0.0
H207 H 0.92794 0.39024 0.89365 0.0
H208 H 0.89008 0.48719 0.85722 0.0
H209 H 0.92051 0.52749 0.88546 0.0
C210 C 0.05114 0.56543 0.90559 0.0
C211 C 0.04073 0.59815 0.89437 0.0
C212 C 0.06543 0.61517 0.87932 0.0
C213 C 0.10065 0.59933 0.87495 0.0
C214 C 0.11142 0.56697 0.88657 0.0
C215 C 0.08688 0.55028 0.90199 0.0
C216 C 0.02314 0.54548 0.91937 0.0
C217 C 0.99519 0.52592 0.90768 0.0
C218 C 0.0244 0.54476 0.94341 0.0
C219 C 0.05543 0.56362 0.95591 0.0
C220 C 0.06327 0.60151 0.95226 0.0
C221 C 0.09688 0.61722 0.95998 0.0
C222 C 0.12306 0.59553 0.97187 0.0
C223 C 0.11351 0.55856 0.97731 0.0
C224 C 0.08015 0.54269 0.96927 0.0
C225 C 0.9352 0.4904 0.9557 0.0
C226 C 0.93887 0.45886 0.96952 0.0
C227 C 0.90691 0.44156 0.9785 0.0
C228 C 0.87099 0.45589 0.97393 0.0
C229 C 0.86778 0.48822 0.96075 0.0
C230 C 0.89947 0.50521 0.95172 0.0
C231 C 0.96758 0.50627 0.94336 0.0
C232 C 0.9964 0.52506 0.95525 0.0
C233 C 0.96783 0.50577 0.91932 0.0
C234 C 0.94195 0.48209 0.90568 0.0
C235 C 0.94249 0.44324 0.90826 0.0
C236 C 0.92504 0.42017 0.89216 0.0
C237 C 0.90659 0.4356 0.87331 0.0
C238 C 0.90355 0.47453 0.87177 0.0
C239 C 0.9212 0.49758 0.88779 0.0
H240 H 0.51447 0.57272 0.21297 0.0
H241 H 0.49378 0.6344 0.22595 0.0
H242 H 0.37894 0.60369 0.21264 0.0
H243 H 0.39967 0.54174 0.19998 0.0
H244 H 0.49992 0.49453 0.22118 0.0
H245 H 0.48518 0.5865 0.15898 0.0
H246 H 0.45481 0.62912 0.13212 0.0
H247 H 0.36467 0.55024 0.12288 0.0
H248 H 0.39517 0.50775 0.14952 0.0
H249 H 0.46764 0.40964 0.13773 0.0
H250 H 0.49792 0.37644 0.10625 0.0
H251 H 0.6059 0.41433 0.13013 0.0
H252 H 0.57557 0.44724 0.16169 0.0
H253 H 0.47271 0.48386 0.13854 0.0
H254 H 0.48964 0.3881 0.19067 0.0
H255 H 0.52509 0.3363 0.20645 0.0
H256 H 0.60698 0.41352 0.23339 0.0
H257 H 0.5716 0.46564 0.21693 0.0
C258 C 0.45867 0.55275 0.20532 0.0
C259 C 0.48476 0.57878 0.21355 0.0
C260 C 0.47294 0.61409 0.22076 0.0
C261 C 0.43482 0.62392 0.21989 0.0
C262 C 0.40844 0.59682 0.21344 0.0
C263 C 0.42029 0.5615 0.20619 0.0
C264 C 0.47186 0.5195 0.19246 0.0
C265 C 0.49404 0.49214 0.20313 0.0
C266 C 0.4635 0.5157 0.16905 0.0
C267 C 0.44228 0.5441 0.15623 0.0
C268 C 0.45838 0.5789 0.15162 0.0
C269 C 0.44111 0.60313 0.1363 0.0
C270 C 0.40733 0.593 0.1256 0.0
C271 C 0.39033 0.55899 0.13121 0.0
C272 C 0.40781 0.53463 0.14629 0.0
C273 C 0.5193 0.4311 0.15198 0.0
C274 C 0.49793 0.40973 0.13664 0.0
C275 C 0.51524 0.39078 0.11869 0.0
C276 C 0.55422 0.39297 0.1157 0.0
C277 C 0.57588 0.41167 0.13219 0.0
C278 C 0.55853 0.4306 0.15021 0.0
C279 C 0.50063 0.45878 0.16706 0.0
C280 C 0.47785 0.48551 0.15673 0.0
C281 C 0.50795 0.46132 0.19068 0.0
C282 C 0.52813 0.43076 0.20242 0.0
C283 C 0.51519 0.39399 0.20001 0.0
C284 C 0.5354 0.36439 0.20912 0.0
C285 C 0.56903 0.37077 0.22096 0.0
C286 C 0.5815 0.4077 0.22399 0.0
C287 C 0.56111 0.4375 0.21485 0.0
H288 H 0.50071 0.9109 0.40301 0.0
H289 H 0.46266 0.88029 0.3737 0.0
H290 H 0.38033 0.96788 0.37945 0.0
H291 H 0.41851 0.99827 0.40912 0.0
H292 H 0.52021 0.99264 0.39179 0.0
H293 H 0.46306 0.91151 0.44822 0.0
H294 H 0.40262 0.88856 0.46161 0.0
H295 H 0.37472 0.99923 0.48545 0.0
H296 H 0.43443 0.02242 0.47089 0.0
H297 H 0.54706 0.09107 0.4659 0.0
H298 H 0.60395 0.12157 0.48097 0.0
H299 H 0.66753 0.02219 0.46556 0.0
H300 H 0.61107 0.99212 0.45102 0.0
H301 H 0.51126 0.00927 0.47554 0.0
H302 H 0.55104 0.0928 0.41604 0.0
H303 H 0.58644 0.12508 0.38645 0.0
H304 H 0.63656 0.02062 0.36601 0.0
H305 H 0.60007 0.98833 0.3951 0.0
C306 C 0.46229 0.95669 0.40821 0.0
C307 C 0.47381 0.92276 0.39853 0.0
C308 C 0.45194 0.9052 0.38192 0.0
C309 C 0.41844 0.92161 0.37446 0.0
C310 C 0.4059 0.95456 0.38508 0.0
C311 C 0.42761 0.97189 0.40197 0.0
C312 C 0.48922 0.97878 0.42188 0.0
C313 C 0.51851 0.99585 0.41014 0.0
C314 C 0.48563 0.98437 0.44564 0.0
C315 C 0.45301 0.96888 0.45812 0.0
C316 C 0.44412 0.93077 0.45657 0.0
C317 C 0.40969 0.91755 0.46451 0.0
C318 C 0.38375 0.94208 0.47455 0.0
C319 C 0.39395 0.9797 0.47758 0.0
C320 C 0.42822 0.99296 0.46944 0.0
C321 C 0.57489 0.03923 0.45762 0.0
C322 C 0.57316 0.07573 0.46631 0.0
C323 C 0.6057 0.09324 0.4746 0.0
C324 C 0.64026 0.07433 0.47434 0.0
C325 C 0.64134 0.0374 0.46623 0.0
C326 C 0.60909 0.02011 0.45795 0.0
C327 C 0.54295 0.02213 0.4453 0.0
C328 C 0.5129 0.00592 0.45722 0.0
C329 C 0.54489 0.01798 0.42147 0.0
C330 C 0.57272 0.03817 0.40756 0.0
C331 C 0.57045 0.07705 0.40559 0.0
C332 C 0.59072 0.09547 0.38871 0.0
C333 C 0.61357 0.07521 0.37361 0.0
C334 C 0.61843 0.03677 0.37707 0.0
C335 C 0.59781 0.01833 0.39373 0.0
H336 H 0.01383 0.07595 0.7183 0.0
H337 H 0.99003 0.13666 0.731 0.0
H338 H 0.87847 0.10494 0.71034 0.0
H339 H 0.90228 0.04403 0.69767 0.0
H340 H 1.00031 0.99797 0.72391 0.0
H341 H 0.99031 0.09393 0.66507 0.0
H342 H 0.96528 0.13729 0.63673 0.0
H343 H 0.88433 0.05443 0.6158 0.0
H344 H 0.9091 0.0115 0.64419 0.0
H345 H 0.98182 0.90328 0.64769 0.0
H346 H 0.01333 0.86719 0.61776 0.0
H347 H 0.11421 0.93134 0.62886 0.0
H348 H 0.08312 0.96581 0.65954 0.0
H349 H 0.98527 0.98972 0.64001 0.0
H350 H 0.99138 0.89478 0.6965 0.0
H351 H 0.02689 0.84212 0.71128 0.0
H352 H 0.11574 0.9168 0.73195 0.0
H353 H 0.08006 0.96969 0.7166 0.0
C354 C 0.9599 0.05566 0.70685 0.0
C355 C 0.98405 0.08148 0.71726 0.0
C356 C 0.97049 0.11614 0.72441 0.0
C357 C 0.93254 0.12532 0.72146 0.0
C358 C 0.90777 0.09832 0.71287 0.0
C359 C 0.92139 0.06367 0.7056 0.0
C360 C 0.97578 0.02353 0.69415 0.0
C361 C 0.99699 0.99624 0.70559 0.0
C362 C 0.97109 0.02072 0.67028 0.0
C363 C 0.95158 0.04946 0.65667 0.0
C364 C 0.96642 0.08558 0.65486 0.0
C365 C 0.95225 0.11023 0.63862 0.0
C366 C 0.92309 0.09905 0.62397 0.0
C367 C 0.9066 0.06389 0.62698 0.0
C368 C 0.92086 0.03925 0.64308 0.0
C369 C 0.03013 0.93731 0.65558 0.0
C370 C 0.0111 0.9086 0.64415 0.0
C371 C 0.02907 0.88823 0.62701 0.0
C372 C 0.06591 0.89719 0.62055 0.0
C373 C 0.08585 0.92378 0.63343 0.0
C374 C 0.06808 0.94363 0.65087 0.0
C375 C 0.00926 0.96449 0.66966 0.0
C376 C 0.98771 0.99112 0.65842 0.0
C377 C 0.0134 0.96643 0.69348 0.0
C378 C 0.03306 0.93608 0.70554 0.0
C379 C 0.01829 0.8999 0.70449 0.0
C380 C 0.03862 0.86985 0.71292 0.0
C381 C 0.07426 0.87528 0.72257 0.0
C382 C 0.08861 0.91174 0.72427 0.0
C383 C 0.06809 0.94198 0.71582 0.0
Co384 Co 0.32814 0.67268 0.00783 0.0
O385 O 0.29555 0.63066 0.00343 0.0
O386 O 0.27998 0.68889 0.99582 0.0
C387 C 0.34766 0.65641 0.04301 0.0
O388 O 0.35497 0.72308 0.01113 0.0
Co389 Co 0.41371 0.65813 0.01368 0.0
O390 O 0.41438 0.7117 0.02196 0.0
C391 C 0.37772 0.6471 0.96913 0.0
C392 C 0.27058 0.65381 0.99608 0.0
C393 C 0.38752 0.7342 0.01803 0.0
O394 O 0.3485 0.66491 0.97598 0.0
O395 O 0.40489 0.63812 0.98219 0.0
O396 O 0.31617 0.67403 0.04043 0.0
O397 O 0.36407 0.64664 0.02439 0.0
Co398 Co 0.33682 0.84126 0.24483 0.0
O399 O 0.30438 0.88354 0.24835 0.0
O400 O 0.28782 0.82541 0.25555 0.0
C401 C 0.35868 0.85689 0.21012 0.0
O402 O 0.3633 0.7906 0.242 0.0
Co403 Co 0.42249 0.85521 0.24178 0.0
O404 O 0.42332 0.80209 0.23256 0.0
C405 C 0.38288 0.86869 0.28458 0.0
C406 C 0.27867 0.86052 0.25486 0.0
C407 C 0.39596 0.77975 0.23521 0.0
O408 O 0.35508 0.84917 0.27721 0.0
O409 O 0.41068 0.87784 0.27214 0.0
O410 O 0.32678 0.83979 0.21204 0.0
O411 O 0.37403 0.867 0.22908 0.0
Co412 Co 0.17102 0.83153 0.49462 0.0
O413 O 0.13256 0.79414 0.49513 0.0
O414 O 0.19132 0.7849 0.50593 0.0
C415 C 0.155 0.85227 0.4598 0.0
O416 O 0.21885 0.86335 0.4949 0.0
Co417 Co 0.15004 0.91544 0.49061 0.0
O418 O 0.20393 0.92137 0.48393 0.0
C419 C 0.13345 0.87359 0.53246 0.0
C420 C 0.15775 0.77159 0.50286 0.0
C421 C 0.22816 0.89646 0.48854 0.0
O422 O 0.15644 0.84763 0.52652 0.0
O423 O 0.12483 0.90088 0.51958 0.0
O424 O 0.1771 0.82361 0.4616 0.0
O425 O 0.14273 0.86577 0.47867 0.0
Co426 Co 0.17537 0.68279 0.75818 0.0
O427 O 0.13031 0.71184 0.7563 0.0
O428 O 0.18652 0.73219 0.74675 0.0
C429 C 0.16394 0.66032 0.79326 0.0
O430 O 0.22848 0.66124 0.75915 0.0
Co431 Co 0.17075 0.59653 0.76217 0.0
O432 O 0.22525 0.60001 0.76742 0.0
C433 C 0.15476 0.63226 0.71824 0.0
C434 C 0.15084 0.73887 0.7488 0.0
C435 C 0.24379 0.62971 0.76395 0.0
O436 O 0.16645 0.66375 0.72613 0.0
O437 O 0.15187 0.60296 0.73038 0.0
O438 O 0.17865 0.69318 0.79084 0.0
O439 O 0.15406 0.64375 0.77463 0.0
Co440 Co 0.85306 0.18826 0.49427 0.0
O441 O 0.89498 0.22196 0.49615 0.0
O442 O 0.83647 0.2373 0.50417 0.0
C443 C 0.86733 0.16355 0.45977 0.0
O444 O 0.80248 0.16109 0.49343 0.0
Co445 Co 0.86813 0.10298 0.49311 0.0
O446 O 0.81306 0.09937 0.48994 0.0
C447 C 0.88207 0.14564 0.53482 0.0
C448 C 0.8714 0.24736 0.50261 0.0
C449 C 0.79093 0.12715 0.49127 0.0
O450 O 0.86249 0.17281 0.52697 0.0
O451 O 0.89137 0.1172 0.5229 0.0
O452 O 0.84997 0.19529 0.4612 0.0
O453 O 0.87866 0.15016 0.47888 0.0
Co454 Co 0.83908 0.34512 0.74406 0.0
O455 O 0.80772 0.38835 0.74614 0.0
O456 O 0.78932 0.33128 0.75448 0.0
C457 C 0.86262 0.35865 0.70946 0.0
O458 O 0.86383 0.29346 0.74245 0.0
Co459 Co 0.9252 0.35483 0.74185 0.0
O460 O 0.92321 0.30272 0.73103 0.0
C461 C 0.88664 0.36625 0.78545 0.0
C462 C 0.78108 0.3665 0.75279 0.0
C463 C 0.89538 0.28139 0.73458 0.0
O464 O 0.85598 0.3539 0.77661 0.0
O465 O 0.91677 0.37075 0.77406 0.0
O466 O 0.83026 0.34239 0.71125 0.0
O467 O 0.87782 0.36906 0.72843 0.0
Co468 Co 0.66837 0.32815 0.99213 0.0
O469 O 0.63078 0.29006 0.99064 0.0
O470 O 0.68701 0.28278 0.00601 0.0
C471 C 0.66086 0.34702 0.95609 0.0
O472 O 0.71502 0.36113 0.99512 0.0
Co473 Co 0.645 0.41074 0.98557 0.0
O474 O 0.69968 0.41938 0.98448 0.0
C475 C 0.62475 0.3718 0.02762 0.0
C476 C 0.65444 0.26861 0.00089 0.0
C477 C 0.7238 0.39503 0.99025 0.0
O478 O 0.64779 0.34542 0.02257 0.0
O479 O 0.61702 0.39833 0.01397 0.0
O480 O 0.682 0.31841 0.96029 0.0
O481 O 0.6429 0.36078 0.97315 0.0
Co482 Co 0.67146 0.17935 0.25729 0.0
O483 O 0.62584 0.20775 0.25554 0.0
O484 O 0.68224 0.23025 0.24855 0.0
C485 C 0.65772 0.1514 0.2907 0.0
O486 O 0.72514 0.15913 0.25838 0.0
Co487 Co 0.66996 0.09253 0.25739 0.0
O488 O 0.72384 0.09714 0.2644 0.0
C489 C 0.65496 0.13329 0.21487 0.0
C490 C 0.64629 0.23595 0.24962 0.0
C491 C 0.74141 0.12777 0.26236 0.0
O492 O 0.66509 0.16428 0.22423 0.0
O493 O 0.65257 0.10259 0.2257 0.0
O494 O 0.67195 0.18479 0.29063 0.0
O495 O 0.6502 0.13767 0.27091 0.0
C496 C 0.2031 0.92695 0.27478 0.0
C497 C 0.16957 0.90733 0.27069 0.0
C498 C 0.23803 0.91114 0.26994 0.0
C499 C 0.24115 0.87472 0.2612 0.0
H500 H 0.2025 0.95485 0.28193 0.0
H501 H 0.2629 0.92768 0.27317 0.0
S502 S 0.16244 0.81131 0.247 0.0
N503 N 0.14192 0.84944 0.25676 0.0
N504 N 0.20795 0.81929 0.2485 0.0
C505 C 0.20811 0.85433 0.25739 0.0
C506 C 0.17228 0.87071 0.26195 0.0
C507 C 0.12981 0.68866 0.53799 0.0
C508 C 0.1112 0.6659 0.52193 0.0
C509 C 0.14788 0.72163 0.5314 0.0
C510 C 0.14721 0.73315 0.50863 0.0
H511 H 0.12912 0.68163 0.55588 0.0
H512 H 0.16027 0.73937 0.54438 0.0
S513 S 0.10436 0.68254 0.45996 0.0
N514 N 0.09537 0.65604 0.48216 0.0
N515 N 0.12826 0.7186 0.46989 0.0
C516 C 0.13006 0.70995 0.49233 0.0
C517 C 0.11236 0.67607 0.49895 0.0
C518 C 0.34133 0.59251 0.75575 0.0
C519 C 0.35987 0.6047 0.77563 0.0
C520 C 0.30431 0.60308 0.75118 0.0
C521 C 0.28472 0.62682 0.76606 0.0
H522 H 0.35502 0.57343 0.74407 0.0
H523 H 0.29032 0.59131 0.73641 0.0
S524 S 0.32018 0.66746 0.81999 0.0
N525 N 0.35554 0.64247 0.81015 0.0
N526 N 0.28633 0.66317 0.80096 0.0
C527 C 0.30331 0.64084 0.78532 0.0
C528 C 0.34086 0.62966 0.79022 0.0
C529 C 0.43881 0.82256 0.03573 0.0
C530 C 0.41674 0.8514 0.02686 0.0
C531 C 0.42851 0.78521 0.03309 0.0
C532 C 0.39558 0.7747 0.0214 0.0
H533 H 0.46427 0.82889 0.04505 0.0
H534 H 0.44685 0.76439 0.04034 0.0
S535 S 0.32766 0.8398 0.995 0.0
N536 N 0.36017 0.86729 0.00604 0.0
N537 N 0.34056 0.79678 0.00103 0.0
C538 C 0.37278 0.80334 0.0127 0.0
C539 C 0.38339 0.84168 0.01545 0.0
C540 C 0.16524 0.64695 0.98654 0.0
C541 C 0.16096 0.61072 0.97742 0.0
C542 C 0.20086 0.66142 0.99191 0.0
C543 C 0.2334 0.64005 0.98853 0.0
H544 H 0.14083 0.664 0.98995 0.0
H545 H 0.20282 0.68905 -0.00063 0.0
S546 S 0.23813 0.54583 0.96226 0.0
N547 N 0.19299 0.55561 0.963 0.0
N548 N 0.25942 0.58222 0.97375 0.0
C549 C 0.22961 0.60435 0.97878 0.0
C550 C 0.19356 0.58983 0.97307 0.0
C551 C 0.39548 0.67356 0.23897 0.0
C552 C 0.42334 0.66339 0.22315 0.0
C553 C 0.38558 0.7112 0.24242 0.0
C554 C 0.40321 0.73978 0.23011 0.0
H555 H 0.38193 0.65238 0.24908 0.0
H556 H 0.3649 0.71802 0.25525 0.0
S557 S 0.47338 0.72685 0.18408 0.0
N558 N 0.46514 0.68435 0.19335 0.0
N559 N 0.44681 0.75462 0.19968 0.0
C560 C 0.42973 0.72955 0.21346 0.0
C561 C 0.43973 0.69151 0.21003 0.0
C562 C 0.31464 0.95164 0.47185 0.0
C563 C 0.34471 0.92974 0.47944 0.0
C564 C 0.2775 0.94055 0.47505 0.0
C565 C 0.26842 0.90688 0.48597 0.0
H566 H 0.3198 0.97737 0.46285 0.0
H567 H 0.25572 0.95858 0.46853 0.0
S568 S 0.33696 0.83991 0.50994 0.0
N569 N 0.36315 0.87326 0.49907 0.0
N570 N 0.29311 0.85201 0.50491 0.0
C571 C 0.29825 0.88467 0.49382 0.0
C572 C 0.33635 0.89615 0.49058 0.0
C573 C 0.07828 0.8155 0.74395 0.0
C574 C 0.09599 0.84248 0.73051 0.0
C575 C 0.09662 0.78258 0.75001 0.0
C576 C 0.13356 0.77519 0.74295 0.0
H577 H 0.04973 0.81967 0.74965 0.0
H578 H 0.08145 0.76261 0.7602 0.0
S579 S 0.19246 0.83681 0.70738 0.0
N580 N 0.15259 0.85969 0.7102 0.0
N581 N 0.1874 0.79789 0.72188 0.0
C582 C 0.15199 0.80227 0.72989 0.0
C583 C 0.13315 0.83588 0.72362 0.0
C584 C 0.70183 0.43618 0.7577 0.0
C585 C 0.6744 0.41718 0.77017 0.0
C586 C 0.73563 0.41905 0.75179 0.0
C587 C 0.74356 0.3821 0.75809 0.0
H588 H 0.6974 0.4649 0.7528 0.0
H589 H 0.75596 0.43529 0.74246 0.0
S590 S 0.68061 0.31983 0.79056 0.0
N591 N 0.65692 0.35918 0.78841 0.0
N592 N 0.72057 0.32664 0.77708 0.0
C593 C 0.71591 0.36228 0.77 0.0
C594 C 0.68131 0.37988 0.77607 0.0
C595 C 0.60351 0.17653 0.99864 0.0
C596 C 0.60675 0.16388 0.02108 0.0
C597 C 0.62103 0.2096 0.99189 0.0
C598 C 0.64298 0.23062 0.00722 0.0
H599 H 0.58559 0.16194 0.98663 0.0
H600 H 0.61623 0.21955 0.97477 0.0
S601 S 0.6617 0.208 0.06756 0.0
N602 N 0.63439 0.17382 0.05842 0.0
N603 N 0.66828 0.23554 0.04551 0.0
C604 C 0.64813 0.21712 0.02935 0.0
C605 C 0.62967 0.18383 0.03635 0.0
C606 C 0.83792 0.12431 0.28829 0.0
C607 C 0.85837 0.10465 0.27158 0.0
C608 C 0.80048 0.13468 0.28455 0.0
C609 C 0.78246 0.12588 0.26395 0.0
H610 H 0.85012 0.12963 0.3049 0.0
H611 H 0.78489 0.14754 0.29833 0.0
S612 S 0.82473 0.07954 0.21371 0.0
N613 N 0.8588 0.0807 0.23276 0.0
N614 N 0.78827 0.09955 0.22601 0.0
C615 C 0.80315 0.10844 0.24665 0.0
C616 C 0.84119 0.09802 0.25037 0.0
C617 C 0.93525 0.32654 0.52114 0.0
C618 C 0.91275 0.35855 0.51882 0.0
C619 C 0.92153 0.29093 0.51579 0.0
C620 C 0.8845 0.28557 0.50828 0.0
H621 H 0.96362 0.32882 0.52755 0.0
H622 H 0.94003 0.26729 0.51794 0.0
S623 S 0.81449 0.35978 0.49786 0.0
N624 N 0.85194 0.38239 0.50705 0.0
N625 N 0.82581 0.31518 0.49798 0.0
C626 C 0.86159 0.3171 0.50581 0.0
C627 C 0.87577 0.35359 0.51085 0.0
C628 C 0.70066 0.07281 0.49581 0.0
C629 C 0.67582 0.0925 0.48173 0.0
C630 C 0.73713 0.08555 0.49978 0.0
C631 C 0.7503 0.11877 0.49006 0.0
H632 H 0.69231 0.04645 0.5031 0.0
H633 H 0.75565 0.0685 0.50996 0.0
S634 S 0.69575 0.18225 0.45322 0.0
N635 N 0.66636 0.14803 0.45896 0.0
N636 N 0.73495 0.17242 0.4669 0.0
C637 C 0.72513 0.14007 0.47715 0.0
C638 C 0.68787 0.12684 0.47288 0.0
C639 C 0.8937 0.17559 0.74014 0.0
C640 C 0.92045 0.16457 0.72387 0.0
C641 C 0.88417 0.21344 0.74305 0.0
C642 C 0.90109 0.24118 0.7297 0.0
H643 H 0.88097 0.15501 0.75107 0.0
H644 H 0.86459 0.22112 0.75634 0.0
S645 S 0.96811 0.22532 0.68228 0.0
N646 N 0.96037 0.18344 0.69267 0.0
N647 N 0.94252 0.25409 0.69782 0.0
C648 C 0.92623 0.22991 0.71252 0.0
C649 C 0.93591 0.19172 0.70969 0.0
C650 C 0.80796 0.45878 0.99219 0.0
C651 C 0.83631 0.43723 0.98201 0.0
C652 C 0.77231 0.44399 0.99613 0.0
C653 C 0.76355 0.40693 0.99023 0.0
H654 H 0.81291 0.48786 0.99628 0.0
H655 H 0.75094 0.46223 0.00307 0.0
S656 S 0.82839 0.33811 0.96429 0.0
N657 N 0.85379 0.37637 0.96701 0.0
N658 N 0.78672 0.34835 0.97479 0.0
C659 C 0.79223 0.38433 0.98131 0.0
C660 C 0.82863 0.39953 0.97712 0.0
C661 C 0.57188 0.31024 0.24174 0.0
C662 C 0.59063 0.3385 0.22985 0.0
C663 C 0.59045 0.27778 0.24848 0.0
C664 C 0.62865 0.27211 0.24368 0.0
H665 H 0.54236 0.31303 0.24563 0.0
H666 H 0.57445 0.25671 0.2573 0.0
S667 S 0.69071 0.33768 0.21297 0.0
N668 N 0.64965 0.35883 0.21356 0.0
N669 N 0.6848 0.29795 0.22649 0.0
C670 C 0.64806 0.30054 0.23226 0.0
C671 C 0.62902 0.33368 0.22532 0.0
C672 C 0.15006 0.88143 0.39768 0.0
C673 C 0.11455 0.89836 0.3966 0.0
C674 C 0.16305 0.86552 0.41807 0.0
C675 C 0.14119 0.86699 0.43795 0.0
H676 H 0.16769 0.88038 0.38271 0.0
H677 H 0.19054 0.8528 0.41839 0.0
S678 S 0.04631 0.90843 0.44372 0.0
N679 N 0.058 0.91567 0.41698 0.0
N680 N 0.0821 0.88616 0.45503 0.0
C681 C 0.10566 0.88384 0.43691 0.0
C682 C 0.09243 0.89949 0.41629 0.0
C683 C 0.13044 0.58876 0.66139 0.0
C684 C 0.10932 0.61663 0.65067 0.0
C685 C 0.14662 0.59485 0.68277 0.0
C686 C 0.14275 0.62922 0.69419 0.0
H687 H 0.13271 0.56124 0.6538 0.0
H688 H 0.16125 0.57196 0.69077 0.0
S689 S 0.09364 0.71269 0.67229 0.0
N690 N 0.08778 0.68083 0.65214 0.0
N691 N 0.11874 0.69256 0.69238 0.0
C692 C 0.12373 0.65817 0.68305 0.0
C693 C 0.10676 0.65177 0.66131 0.0
C694 C 0.39376 0.58584 0.91794 0.0
C695 C 0.40544 0.61144 0.90139 0.0
C696 C 0.38212 0.59794 0.93951 0.0
C697 C 0.38103 0.63602 0.94509 0.0
H698 H 0.39617 0.55616 0.91479 0.0
H699 H 0.37576 0.5773 0.9523 0.0
S700 S 0.40442 0.71439 0.9071 0.0
N701 N 0.41208 0.67673 0.89143 0.0
N702 N 0.3896 0.6994 0.93203 0.0
C703 C 0.39 0.66202 0.92828 0.0
C704 C 0.40237 0.64972 0.90638 0.0
C705 C 0.36357 0.89093 0.14934 0.0
C706 C 0.40188 0.89878 0.14663 0.0
C707 C 0.35004 0.87527 0.16954 0.0
C708 C 0.37427 0.86788 0.18788 0.0
H709 H 0.34386 0.89792 0.13601 0.0
H710 H 0.32018 0.87072 0.17122 0.0
S711 S 0.47731 0.88134 0.18863 0.0
N712 N 0.46407 0.89612 0.16333 0.0
N713 N 0.43867 0.86738 0.20136 0.0
C714 C 0.41278 0.87434 0.18498 0.0
C715 C 0.4266 0.88962 0.16432 0.0
C716 C 0.1311 0.59132 0.83721 0.0
C717 C 0.12364 0.61413 0.85619 0.0
C718 C 0.14605 0.60628 0.81725 0.0
C719 C 0.1545 0.64447 0.81568 0.0
H720 H 0.12326 0.56215 0.83731 0.0
H721 H 0.14966 0.588 0.80267 0.0
S722 S 0.14432 0.71492 0.8618 0.0
N723 N 0.12863 0.67588 0.87303 0.0
N724 N 0.15746 0.70409 0.83563 0.0
C725 C 0.1496 0.66705 0.83512 0.0
C726 C 0.13387 0.65186 0.85534 0.0
C727 C 0.41559 0.62122 0.08739 0.0
C728 C 0.39253 0.61492 0.10632 0.0
C729 C 0.40101 0.63609 0.06729 0.0
C730 C 0.36294 0.64572 0.06545 0.0
H731 H 0.44472 0.61278 0.0877 0.0
H732 H 0.41958 0.63905 0.05286 0.0
S733 S 0.29173 0.63816 0.11108 0.0
N734 N 0.33049 0.62174 0.12267 0.0
N735 N 0.30305 0.65042 0.08494 0.0
C736 C 0.34004 0.64159 0.08472 0.0
C737 C 0.35483 0.6259 0.10512 0.0
C738 C 0.39864 0.93292 0.33457 0.0
C739 C 0.40101 0.90826 0.35299 0.0
C740 C 0.39045 0.91993 0.31262 0.0
C741 C 0.38359 0.88197 0.30835 0.0
H742 H 0.40567 0.96208 0.33684 0.0
H743 H 0.39108 0.93951 0.29868 0.0
S744 S 0.38229 0.80668 0.35105 0.0
N745 N 0.39306 0.84456 0.36585 0.0
N746 N 0.37669 0.82027 0.32445 0.0
C747 C 0.38322 0.85738 0.32679 0.0
C748 C 0.39226 0.87051 0.34916 0.0
C749 C 0.11865 0.8721 0.5964 0.0
C750 C 0.0812 0.88419 0.59835 0.0
C751 C 0.13516 0.86604 0.57495 0.0
C752 C 0.11484 0.87252 0.55486 0.0
H753 H 0.13565 0.86862 0.61152 0.0
H754 H 0.16447 0.85838 0.57409 0.0
S755 S 0.0154 0.90149 0.55057 0.0
N756 N 0.02397 0.90037 0.57815 0.0
N757 N 0.05475 0.88855 0.53817 0.0
C758 C 0.07694 0.8826 0.55663 0.0
C759 C 0.06016 0.88856 0.57829 0.0
C760 C 0.60707 0.37643 0.90451 0.0
C761 C 0.63223 0.40041 0.89347 0.0
C762 C 0.61758 0.35736 0.92415 0.0
C763 C 0.65378 0.36098 0.93315 0.0
H764 H 0.57832 0.37409 0.89874 0.0
H765 H 0.59675 0.34085 0.93291 0.0
S766 S 0.73121 0.41742 0.90975 0.0
N767 N 0.69575 0.42486 0.89224 0.0
N768 N 0.7156 0.38822 0.92918 0.0
C769 C 0.67993 0.3831 0.92172 0.0
C770 C 0.6691 0.40306 0.90184 0.0
C771 C 0.6318 0.09367 0.15704 0.0
C772 C 0.60773 0.12062 0.14779 0.0
C773 C 0.64918 0.09934 0.1781 0.0
C774 C 0.64347 0.13231 0.1907 0.0
H775 H 0.63529 0.06686 0.14872 0.0
H776 H 0.66577 0.07688 0.18509 0.0
S777 S 0.58763 0.21392 0.17245 0.0
N778 N 0.58242 0.18325 0.15156 0.0
N779 N 0.61538 0.19402 0.19132 0.0
C780 C 0.62197 0.16079 0.18086 0.0
C781 C 0.6039 0.15485 0.1594 0.0
C782 C 0.90099 0.15141 0.39898 0.0
C783 C 0.90507 0.11254 0.39692 0.0
C784 C 0.88665 0.16768 0.41897 0.0
C785 C 0.87691 0.14566 0.43776 0.0
H786 H 0.90982 0.16935 0.38525 0.0
H787 H 0.88496 0.19777 0.42012 0.0
S788 S 0.88028 0.04248 0.44039 0.0
N789 N 0.89633 0.05242 0.41482 0.0
N790 N 0.87015 0.08292 0.45243 0.0
C791 C 0.8797 0.10675 0.43557 0.0
C792 C 0.89358 0.09019 0.41513 0.0
C793 C 0.86896 0.38968 0.64815 0.0
C794 C 0.90722 0.39792 0.64572 0.0
C795 C 0.85505 0.37483 0.66847 0.0
C796 C 0.87881 0.36868 0.6872 0.0
H797 H 0.84954 0.39585 0.6345 0.0
H798 H 0.8252 0.36999 0.66989 0.0
S799 S 0.98162 0.38361 0.68882 0.0
N800 N 0.96895 0.3969 0.66311 0.0
N801 N 0.9428 0.36975 0.70141 0.0
C802 C 0.91733 0.37549 0.68461 0.0
C803 C 0.93155 0.38992 0.66382 0.0
C804 C 0.64633 0.12766 0.35343 0.0
C805 C 0.6278 0.09304 0.35258 0.0
C806 C 0.6569 0.14606 0.33338 0.0
C807 C 0.64902 0.13061 0.3118 0.0
H808 H 0.65233 0.14077 0.3697 0.0
H809 H 0.6707 0.17285 0.33483 0.0
S810 S 0.59978 0.04103 0.30044 0.0
N811 N 0.60123 0.04453 0.32842 0.0
N812 N 0.62124 0.07851 0.29097 0.0
C813 C 0.63082 0.09578 0.31082 0.0
C814 C 0.62016 0.07717 0.33114 0.0
C815 C 0.8758 0.12764 0.59767 0.0
C816 C 0.91352 0.12079 0.60336 0.0
C817 C 0.86572 0.13983 0.57582 0.0
C818 C 0.89304 0.14499 0.55896 0.0
H819 H 0.85384 0.12144 0.60976 0.0
H820 H 0.83628 0.14227 0.57158 0.0
S821 S 0.99557 0.13417 0.56566 0.0
N822 N 0.97831 0.12309 0.59076 0.0
N823 N 0.95918 0.14539 0.54975 0.0
C824 C 0.93084 0.14069 0.56487 0.0
C825 C 0.94117 0.12879 0.5871 0.0
C826 C 0.92575 0.39012 0.84344 0.0
C827 C 0.89729 0.41199 0.85325 0.0
C828 C 0.92107 0.37351 0.82202 0.0
C829 C 0.88756 0.37764 0.80969 0.0
H830 H 0.95279 0.38778 0.8517 0.0
H831 H 0.94451 0.35857 0.81465 0.0
S832 S 0.80273 0.42821 0.82912 0.0
N833 N 0.83324 0.43421 0.85001 0.0
N834 N 0.82413 0.40234 0.80974 0.0
C835 C 0.85784 0.39713 0.81999 0.0
C836 C 0.86283 0.41459 0.84175 0.0
C837 C 0.55496 0.39702 0.07356 0.0
C838 C 0.57095 0.38248 0.09346 0.0
C839 C 0.57214 0.39228 0.05242 0.0
C840 C 0.60603 0.37258 0.05015 0.0
H841 H 0.52967 0.41364 0.07441 0.0
H842 H 0.55896 0.40489 0.03775 0.0
S843 S 0.65763 0.32594 0.09683 0.0
N844 N 0.62131 0.34552 0.10956 0.0
N845 N 0.65371 0.33614 0.06956 0.0
C846 C 0.62152 0.3563 0.06976 0.0
C847 C 0.60407 0.36151 0.09148 0.0
loop_
_geom_bond_atom_site_label_1
_geom_bond_atom_site_label_2
_geom_bond_distance
_geom_bond_site_symmetry_2
_ccdc_geom_bond_type
H0 C19 0.949 . S
H1 C20 0.950 . S
H2 C22 0.950 . S
H3 C23 0.950 . S
H4 C25 0.950 . S
H5 C28 0.950 . S
H6 C29 0.950 . S
H7 C31 0.951 . S
H8 C32 0.949 1_565 S
H9 C34 0.949 . S
H10 C35 0.950 . S
H11 C37 0.950 . S
H12 C38 0.950 . S
H13 C40 0.956 . S
H14 C43 0.950 . S
H15 C44 0.950 . S
H16 C46 0.951 . S
H17 C47 0.949 1_545 S
C18 C19 1.376 . S
C18 C23 1.386 . S
C18 C24 1.483 . S
C19 H0 0.949 . S
C19 C18 1.376 . S
C19 C20 1.397 . S
C20 H1 0.950 . S
C20 C19 1.397 . S
C20 C21 1.391 . S
C21 C20 1.391 . S
C21 C22 1.405 . S
C22 H2 0.950 . S
C22 C21 1.405 . S
C22 C23 1.367 . S
C23 H3 0.950 . S
C23 C18 1.386 . S
C23 C22 1.367 . S
C24 C18 1.483 . S
C24 C25 1.382 1_655 S
C24 C26 1.403 . S
C25 H4 0.950 . S
C25 C24 1.382 1_455 S
C25 C41 1.411 1_545 S
C26 C24 1.403 . S
C26 C27 1.489 . S
C26 C40 1.397 1_645 S
C27 C26 1.489 . S
C27 C28 1.383 . S
C27 C32 1.382 . S
C28 H5 0.950 . S
C28 C27 1.383 . S
C28 C29 1.395 . S
C29 H6 0.950 . S
C29 C28 1.395 . S
C29 C30 1.288 . S
C30 C29 1.288 . S
C30 C31 1.392 . S
C31 H7 0.951 . S
C31 C30 1.392 . S
C31 C32 1.392 . S
C32 H8 0.949 1_545 S
C32 C27 1.382 . S
C32 C31 1.392 . S
C33 C34 1.376 . S
C33 C38 1.386 . S
C33 C39 1.483 . S
C34 H9 0.949 . S
C34 C33 1.376 . S
C34 C35 1.397 . S
C35 H10 0.950 . S
C35 C34 1.397 . S
C35 C36 1.391 . S
C36 C35 1.391 . S
C36 C37 1.405 . S
C37 H11 0.950 . S
C37 C36 1.405 . S
C37 C38 1.367 . S
C38 H12 0.950 . S
C38 C33 1.386 . S
C38 C37 1.367 . S
C39 C33 1.483 . S
C39 C40 1.393 . S
C39 C41 1.403 . S
C40 H13 0.956 . S
C40 C26 1.397 1_465 S
C40 C39 1.393 . S
C41 C25 1.411 1_565 S
C41 C39 1.403 . S
C41 C42 1.489 . S
C42 C41 1.489 . S
C42 C43 1.383 . S
C42 C47 1.382 . S
C43 H14 0.950 . S
C43 C42 1.383 . S
C43 C44 1.395 . S
C44 H15 0.950 . S
C44 C43 1.395 . S
C44 C45 1.288 . S
C45 C44 1.288 . S
C45 C46 1.392 . S
C46 H16 0.951 . S
C46 C45 1.392 . S
C46 C47 1.392 . S
C47 H17 0.949 1_565 S
C47 C42 1.382 . S
C47 C46 1.392 . S
H48 C67 0.949 1_455 S
H49 C68 0.950 . S
H50 C70 0.950 . S
H51 C71 0.950 . S
H52 C73 0.950 . S
H53 C76 0.950 . S
H54 C77 0.950 . S
H55 C79 0.951 . S
H56 C80 0.949 . S
H57 C82 0.949 . S
H58 C83 0.950 . S
H59 C85 0.950 . S
H60 C86 0.950 . S
H61 C88 0.947 1_655 S
H62 C91 0.950 . S
H63 C92 0.950 . S
H64 C94 0.951 . S
H65 C95 0.949 . S
C66 C67 1.376 . S
C66 C71 1.386 . S
C66 C72 1.483 . S
C67 H48 0.949 1_655 S
C67 C66 1.376 . S
C67 C68 1.397 . S
C68 H49 0.950 . S
C68 C67 1.397 . S
C68 C69 1.391 . S
C69 C68 1.391 . S
C69 C70 1.405 . S
C70 H50 0.950 . S
C70 C69 1.405 . S
C70 C71 1.367 . S
C71 H51 0.950 . S
C71 C66 1.386 . S
C71 C70 1.367 . S
C72 C66 1.483 . S
C72 C73 1.382 1_655 S
C72 C74 1.403 . S
C73 H52 0.950 . S
C73 C72 1.382 1_455 S
C73 C89 1.411 . S
C74 C72 1.403 . S
C74 C75 1.489 . S
C74 C88 1.397 1_655 S
C75 C74 1.489 . S
C75 C76 1.383 . S
C75 C80 1.382 . S
C76 H53 0.950 . S
C76 C75 1.383 . S
C76 C77 1.395 . S
C77 H54 0.950 . S
C77 C76 1.395 . S
C77 C78 1.288 . S
C78 C77 1.288 . S
C78 C79 1.392 . S
C79 H55 0.951 . S
C79 C78 1.392 . S
C79 C80 1.392 . S
C80 H56 0.949 . S
C80 C75 1.382 . S
C80 C79 1.392 . S
C81 C82 1.376 . S
C81 C86 1.386 . S
C81 C87 1.483 . S
C82 H57 0.949 . S
C82 C81 1.376 . S
C82 C83 1.397 . S
C83 H58 0.950 . S
C83 C82 1.397 . S
C83 C84 1.391 . S
C84 C83 1.391 . S
C84 C85 1.405 . S
C85 H59 0.950 . S
C85 C84 1.405 . S
C85 C86 1.367 . S
C86 H60 0.950 . S
C86 C81 1.386 . S
C86 C85 1.367 . S
C87 C81 1.483 . S
C87 C88 1.399 . S
C87 C89 1.403 . S
C88 H61 0.947 1_455 S
C88 C74 1.397 1_455 S
C88 C87 1.399 . S
C89 C73 1.411 . S
C89 C87 1.403 . S
C89 C90 1.489 . S
C90 C89 1.489 . S
C90 C91 1.383 . S
C90 C95 1.382 . S
C91 H62 0.950 . S
C91 C90 1.383 . S
C91 C92 1.395 . S
C92 H63 0.950 . S
C92 C91 1.395 . S
C92 C93 1.288 . S
C93 C92 1.288 . S
C93 C94 1.392 . S
C94 H64 0.951 . S
C94 C93 1.392 . S
C94 C95 1.392 . S
C95 H65 0.949 . S
C95 C90 1.382 . S
C95 C94 1.392 . S
H96 C115 0.949 . S
H97 C116 0.950 . S
H98 C118 0.950 . S
H99 C119 0.950 . S
H100 C121 0.950 . S
H101 C124 0.950 . S
H102 C125 0.950 . S
H103 C127 0.951 . S
H104 C128 0.949 . S
H105 C130 0.949 . S
H106 C131 0.950 . S
H107 C133 0.950 . S
H108 C134 0.950 . S
H109 C136 0.950 . S
H110 C139 0.950 . S
H111 C140 0.950 . S
H112 C142 0.951 . S
H113 C143 0.949 . S
C114 C115 1.376 . S
C114 C119 1.386 . S
C114 C120 1.483 . S
C115 H96 0.949 . S
C115 C114 1.376 . S
C115 C116 1.397 . S
C116 H97 0.950 . S
C116 C115 1.397 . S
C116 C117 1.391 . S
C117 C116 1.391 . S
C117 C118 1.405 . S
C118 H98 0.950 . S
C118 C117 1.405 . S
C118 C119 1.367 . S
C119 H99 0.950 . S
C119 C114 1.386 . S
C119 C118 1.367 . S
C120 C114 1.483 . S
C120 C121 1.382 . S
C120 C122 1.403 . S
C121 H100 0.950 . S
C121 C120 1.382 . S
C121 C137 1.411 . S
C122 C120 1.403 . S
C122 C123 1.489 . S
C122 C136 1.411 . S
C123 C122 1.489 . S
C123 C124 1.383 . S
C123 C128 1.382 . S
C124 H101 0.950 . S
C124 C123 1.383 . S
C124 C125 1.395 . S
C125 H102 0.950 . S
C125 C124 1.395 . S
C125 C126 1.288 . S
C126 C125 1.288 . S
C126 C127 1.392 . S
C127 H103 0.951 . S
C127 C126 1.392 . S
C127 C128 1.392 . S
C128 H104 0.949 . S
C128 C123 1.382 . S
C128 C127 1.392 . S
C129 C130 1.376 . S
C129 C134 1.386 . S
C129 C135 1.483 . S
C130 H105 0.949 . S
C130 C129 1.376 . S
C130 C131 1.397 . S
C131 H106 0.950 . S
C131 C130 1.397 . S
C131 C132 1.391 . S
C132 C131 1.391 . S
C132 C133 1.405 . S
C133 H107 0.950 . S
C133 C132 1.405 . S
C133 C134 1.367 . S
C134 H108 0.950 . S
C134 C129 1.386 . S
C134 C133 1.367 . S
C135 C129 1.483 . S
C135 C136 1.382 . S
C135 C137 1.403 . S
C136 H109 0.950 . S
C136 C122 1.411 . S
C136 C135 1.382 . S
C137 C121 1.411 . S
C137 C135 1.403 . S
C137 C138 1.489 . S
C138 C137 1.489 . S
C138 C139 1.383 . S
C138 C143 1.382 . S
C139 H110 0.950 . S
C139 C138 1.383 . S
C139 C140 1.395 . S
C140 H111 0.950 . S
C140 C139 1.395 . S
C140 C141 1.288 . S
C141 C140 1.288 . S
C141 C142 1.392 . S
C142 H112 0.951 . S
C142 C141 1.392 . S
C142 C143 1.392 . S
C143 H113 0.949 . S
C143 C138 1.382 . S
C143 C142 1.392 . S
H144 C163 0.949 . S
H145 C164 0.950 . S
H146 C166 0.950 . S
H147 C167 0.950 . S
H148 C169 0.950 . S
H149 C172 0.950 . S
H150 C173 0.950 . S
H151 C175 0.951 . S
H152 C176 0.949 . S
H153 C178 0.949 . S
H154 C179 0.950 . S
H155 C181 0.950 . S
H156 C182 0.950 . S
H157 C184 0.950 . S
H158 C187 0.950 . S
H159 C188 0.950 . S
H160 C190 0.951 . S
H161 C191 0.949 . S
C162 C163 1.376 . S
C162 C167 1.386 . S
C162 C168 1.483 . S
C163 H144 0.949 . S
C163 C162 1.376 . S
C163 C164 1.397 . S
C164 H145 0.950 . S
C164 C163 1.397 . S
C164 C165 1.391 . S
C165 C164 1.391 . S
C165 C166 1.405 . S
C166 H146 0.950 . S
C166 C165 1.405 . S
C166 C167 1.367 . S
C167 H147 0.950 . S
C167 C162 1.386 . S
C167 C166 1.367 . S
C168 C162 1.483 . S
C168 C169 1.382 . S
C168 C170 1.403 . S
C169 H148 0.950 . S
C169 C168 1.382 . S
C169 C185 1.411 1_565 S
C170 C168 1.403 . S
C170 C171 1.489 . S
C170 C184 1.411 1_565 S
C171 C170 1.489 . S
C171 C172 1.383 . S
C171 C176 1.382 . S
C172 H149 0.950 . S
C172 C171 1.383 . S
C172 C173 1.395 . S
C173 H150 0.950 . S
C173 C172 1.395 . S
C173 C174 1.288 . S
C174 C173 1.288 . S
C174 C175 1.392 . S
C175 H151 0.951 . S
C175 C174 1.392 . S
C175 C176 1.392 . S
C176 H152 0.949 . S
C176 C171 1.382 . S
C176 C175 1.392 . S
C177 C178 1.376 . S
C177 C182 1.386 . S
C177 C183 1.483 . S
C178 H153 0.949 . S
C178 C177 1.376 . S
C178 C179 1.397 . S
C179 H154 0.950 . S
C179 C178 1.397 . S
C179 C180 1.391 . S
C180 C179 1.391 . S
C180 C181 1.405 . S
C181 H155 0.950 . S
C181 C180 1.405 . S
C181 C182 1.367 . S
C182 H156 0.950 . S
C182 C177 1.386 . S
C182 C181 1.367 . S
C183 C177 1.483 . S
C183 C184 1.382 . S
C183 C185 1.403 . S
C184 H157 0.950 . S
C184 C170 1.411 1_545 S
C184 C183 1.382 . S
C185 C169 1.411 1_545 S
C185 C183 1.403 . S
C185 C186 1.489 . S
C186 C185 1.489 . S
C186 C187 1.383 . S
C186 C191 1.382 . S
C187 H158 0.950 . S
C187 C186 1.383 . S
C187 C188 1.395 . S
C188 H159 0.950 . S
C188 C187 1.395 . S
C188 C189 1.288 . S
C189 C188 1.288 . S
C189 C190 1.392 . S
C190 H160 0.951 . S
C190 C189 1.392 . S
C190 C191 1.392 . S
C191 H161 0.949 . S
C191 C186 1.382 . S
C191 C190 1.392 . S
H192 C211 0.949 . S
H193 C212 0.950 . S
H194 C214 0.950 . S
H195 C215 0.950 . S
H196 C217 0.950 . S
H197 C220 0.950 . S
H198 C221 0.950 . S
H199 C223 0.951 . S
H200 C224 0.949 . S
H201 C226 0.949 . S
H202 C227 0.950 . S
H203 C229 0.950 . S
H204 C230 0.950 . S
H205 C232 0.950 . S
H206 C235 0.950 . S
H207 C236 0.950 . S
H208 C238 0.951 . S
H209 C239 0.949 . S
C210 C211 1.376 . S
C210 C215 1.386 . S
C210 C216 1.483 . S
C211 H192 0.949 . S
C211 C210 1.376 . S
C211 C212 1.397 . S
C212 H193 0.950 . S
C212 C211 1.397 . S
C212 C213 1.391 . S
C213 C212 1.391 . S
C213 C214 1.405 . S
C214 H194 0.950 . S
C214 C213 1.405 . S
C214 C215 1.367 . S
C215 H195 0.950 . S
C215 C210 1.386 . S
C215 C214 1.367 . S
C216 C210 1.483 . S
C216 C217 1.382 1_455 S
C216 C218 1.403 . S
C217 H196 0.950 . S
C217 C216 1.382 1_655 S
C217 C233 1.411 . S
C218 C216 1.403 . S
C218 C219 1.489 . S
C218 C232 1.411 . S
C219 C218 1.489 . S
C219 C220 1.383 . S
C219 C224 1.382 . S
C220 H197 0.950 . S
C220 C219 1.383 . S
C220 C221 1.395 . S
C221 H198 0.950 . S
C221 C220 1.395 . S
C221 C222 1.288 . S
C222 C221 1.288 . S
C222 C223 1.392 . S
C223 H199 0.951 . S
C223 C222 1.392 . S
C223 C224 1.392 . S
C224 H200 0.949 . S
C224 C219 1.382 . S
C224 C223 1.392 . S
C225 C226 1.376 . S
C225 C230 1.386 . S
C225 C231 1.483 . S
C226 H201 0.949 . S
C226 C225 1.376 . S
C226 C227 1.397 . S
C227 H202 0.950 . S
C227 C226 1.397 . S
C227 C228 1.391 . S
C228 C227 1.391 . S
C228 C229 1.405 . S
C229 H203 0.950 . S
C229 C228 1.405 . S
C229 C230 1.367 . S
C230 H204 0.950 . S
C230 C225 1.386 . S
C230 C229 1.367 . S
C231 C225 1.483 . S
C231 C232 1.382 1_655 S
C231 C233 1.403 . S
C232 H205 0.950 . S
C232 C218 1.411 . S
C232 C231 1.382 1_455 S
C233 C217 1.411 . S
C233 C231 1.403 . S
C233 C234 1.489 . S
C234 C233 1.489 . S
C234 C235 1.383 . S
C234 C239 1.382 . S
C235 H206 0.950 . S
C235 C234 1.383 . S
C235 C236 1.395 . S
C236 H207 0.950 . S
C236 C235 1.395 . S
C236 C237 1.288 . S
C237 C236 1.288 . S
C237 C238 1.392 . S
C238 H208 0.951 . S
C238 C237 1.392 . S
C238 C239 1.392 . S
C239 H209 0.949 . S
C239 C234 1.382 . S
C239 C238 1.392 . S
H240 C259 0.949 . S
H241 C260 0.950 . S
H242 C262 0.950 . S
H243 C263 0.950 . S
H244 C265 0.950 . S
H245 C268 0.950 . S
H246 C269 0.950 . S
H247 C271 0.951 . S
H248 C272 0.949 . S
H249 C274 0.949 . S
H250 C275 0.950 . S
H251 C277 0.950 . S
H252 C278 0.950 . S
H253 C280 0.950 . S
H254 C283 0.950 . S
H255 C284 0.950 . S
H256 C286 0.951 . S
H257 C287 0.949 . S
C258 C259 1.376 . S
C258 C263 1.386 . S
C258 C264 1.483 . S
C259 H240 0.949 . S
C259 C258 1.376 . S
C259 C260 1.397 . S
C260 H241 0.950 . S
C260 C259 1.397 . S
C260 C261 1.391 . S
C261 C260 1.391 . S
C261 C262 1.405 . S
C262 H242 0.950 . S
C262 C261 1.405 . S
C262 C263 1.367 . S
C263 H243 0.950 . S
C263 C258 1.386 . S
C263 C262 1.367 . S
C264 C258 1.483 . S
C264 C265 1.382 . S
C264 C266 1.403 . S
C265 H244 0.950 . S
C265 C264 1.382 . S
C265 C281 1.411 . S
C266 C264 1.403 . S
C266 C267 1.489 . S
C266 C280 1.411 . S
C267 C266 1.489 . S
C267 C268 1.383 . S
C267 C272 1.382 . S
C268 H245 0.950 . S
C268 C267 1.383 . S
C268 C269 1.395 . S
C269 H246 0.950 . S
C269 C268 1.395 . S
C269 C270 1.288 . S
C270 C269 1.288 . S
C270 C271 1.392 . S
C271 H247 0.951 . S
C271 C270 1.392 . S
C271 C272 1.392 . S
C272 H248 0.949 . S
C272 C267 1.382 . S
C272 C271 1.392 . S
C273 C274 1.376 . S
C273 C278 1.386 . S
C273 C279 1.483 . S
C274 H249 0.949 . S
C274 C273 1.376 . S
C274 C275 1.397 . S
C275 H250 0.950 . S
C275 C274 1.397 . S
C275 C276 1.391 . S
C276 C275 1.391 . S
C276 C277 1.405 . S
C277 H251 0.950 . S
C277 C276 1.405 . S
C277 C278 1.367 . S
C278 H252 0.950 . S
C278 C273 1.386 . S
C278 C277 1.367 . S
C279 C273 1.483 . S
C279 C280 1.382 . S
C279 C281 1.403 . S
C280 H253 0.950 . S
C280 C266 1.411 . S
C280 C279 1.382 . S
C281 C265 1.411 . S
C281 C279 1.403 . S
C281 C282 1.489 . S
C282 C281 1.489 . S
C282 C283 1.383 . S
C282 C287 1.382 . S
C283 H254 0.950 . S
C283 C282 1.383 . S
C283 C284 1.395 . S
C284 H255 0.950 . S
C284 C283 1.395 . S
C284 C285 1.288 . S
C285 C284 1.288 . S
C285 C286 1.392 . S
C286 H256 0.951 . S
C286 C285 1.392 . S
C286 C287 1.392 . S
C287 H257 0.949 . S
C287 C282 1.382 . S
C287 C286 1.392 . S
H288 C307 0.949 . S
H289 C308 0.950 . S
H290 C310 0.950 . S
H291 C311 0.950 . S
H292 C313 0.950 . S
H293 C316 0.950 . S
H294 C317 0.950 . S
H295 C319 0.951 . S
H296 C320 0.949 1_545 S
H297 C322 0.949 . S
H298 C323 0.950 . S
H299 C325 0.950 . S
H300 C326 0.950 . S
H301 C328 0.950 . S
H302 C331 0.950 . S
H303 C332 0.950 . S
H304 C334 0.951 . S
H305 C335 0.949 1_565 S
C306 C307 1.376 . S
C306 C311 1.386 . S
C306 C312 1.483 . S
C307 H288 0.949 . S
C307 C306 1.376 . S
C307 C308 1.397 . S
C308 H289 0.950 . S
C308 C307 1.397 . S
C308 C309 1.391 . S
C309 C308 1.391 . S
C309 C310 1.405 . S
C310 H290 0.950 . S
C310 C309 1.405 . S
C310 C311 1.367 . S
C311 H291 0.950 . S
C311 C306 1.386 . S
C311 C310 1.367 . S
C312 C306 1.483 . S
C312 C313 1.382 . S
C312 C314 1.403 . S
C313 H292 0.950 . S
C313 C312 1.382 . S
C313 C329 1.411 1_565 S
C314 C312 1.403 . S
C314 C315 1.489 . S
C314 C328 1.411 1_565 S
C315 C314 1.489 . S
C315 C316 1.383 . S
C315 C320 1.382 . S
C316 H293 0.950 . S
C316 C315 1.383 . S
C316 C317 1.395 . S
C317 H294 0.950 . S
C317 C316 1.395 . S
C317 C318 1.288 . S
C318 C317 1.288 . S
C318 C319 1.392 . S
C319 H295 0.951 . S
C319 C318 1.392 . S
C319 C320 1.392 . S
C320 H296 0.949 1_565 S
C320 C315 1.382 . S
C320 C319 1.392 . S
C321 C322 1.376 . S
C321 C326 1.386 . S
C321 C327 1.483 . S
C322 H297 0.949 . S
C322 C321 1.376 . S
C322 C323 1.397 . S
C323 H298 0.950 . S
C323 C322 1.397 . S
C323 C324 1.391 . S
C324 C323 1.391 . S
C324 C325 1.405 . S
C325 H299 0.950 . S
C325 C324 1.405 . S
C325 C326 1.367 . S
C326 H300 0.950 . S
C326 C321 1.386 . S
C326 C325 1.367 . S
C327 C321 1.483 . S
C327 C328 1.382 . S
C327 C329 1.403 . S
C328 H301 0.950 . S
C328 C314 1.411 1_545 S
C328 C327 1.382 . S
C329 C313 1.411 1_545 S
C329 C327 1.403 . S
C329 C330 1.489 . S
C330 C329 1.489 . S
C330 C331 1.383 . S
C330 C335 1.382 . S
C331 H302 0.950 . S
C331 C330 1.383 . S
C331 C332 1.395 . S
C332 H303 0.950 . S
C332 C331 1.395 . S
C332 C333 1.288 . S
C333 C332 1.288 . S
C333 C334 1.392 . S
C334 H304 0.951 . S
C334 C333 1.392 . S
C334 C335 1.392 . S
C335 H305 0.949 1_545 S
C335 C330 1.382 . S
C335 C334 1.392 . S
H336 C355 0.949 1_455 S
H337 C356 0.950 . S
H338 C358 0.950 . S
H339 C359 0.950 . S
H340 C361 0.950 . S
H341 C364 0.950 . S
H342 C365 0.950 . S
H343 C367 0.951 . S
H344 C368 0.949 . S
H345 C370 0.949 . S
H346 C371 0.950 . S
H347 C373 0.950 . S
H348 C374 0.950 . S
H349 C376 0.950 . S
H350 C379 0.950 . S
H351 C380 0.950 . S
H352 C382 0.951 . S
H353 C383 0.927 1_545 S
C354 C355 1.376 . S
C354 C359 1.386 . S
C354 C360 1.483 . S
C355 H336 0.949 1_655 S
C355 C354 1.376 . S
C355 C356 1.397 . S
C356 H337 0.950 . S
C356 C355 1.397 . S
C356 C357 1.391 . S
C357 C356 1.391 . S
C357 C358 1.405 . S
C358 H338 0.950 . S
C358 C357 1.405 . S
C358 C359 1.367 . S
C359 H339 0.950 . S
C359 C354 1.386 . S
C359 C358 1.367 . S
C360 C354 1.483 . S
C360 C361 1.382 1_655 S
C360 C362 1.403 . S
C361 H340 0.950 . S
C361 C360 1.382 1_455 S
C361 C377 1.411 1_545 S
C362 C360 1.403 . S
C362 C363 1.489 . S
C362 C376 1.411 1_655 S
C363 C362 1.489 . S
C363 C364 1.383 . S
C363 C368 1.382 . S
C364 H341 0.950 . S
C364 C363 1.383 . S
C364 C365 1.395 . S
C365 H342 0.950 . S
C365 C364 1.395 . S
C365 C366 1.288 . S
C366 C365 1.288 . S
C366 C367 1.392 . S
C367 H343 0.951 . S
C367 C366 1.392 . S
C367 C368 1.392 . S
C368 H344 0.949 . S
C368 C363 1.382 . S
C368 C367 1.392 . S
C369 C370 1.376 . S
C369 C374 1.386 . S
C369 C375 1.483 . S
C370 H345 0.949 . S
C370 C369 1.376 . S
C370 C371 1.397 . S
C371 H346 0.950 . S
C371 C370 1.397 . S
C371 C372 1.391 . S
C372 C371 1.391 . S
C372 C373 1.405 . S
C373 H347 0.950 . S
C373 C372 1.405 . S
C373 C374 1.367 . S
C374 H348 0.950 . S
C374 C369 1.386 . S
C374 C373 1.367 . S
C375 C369 1.483 . S
C375 C376 1.382 1_565 S
C375 C377 1.403 . S
C376 H349 0.950 . S
C376 C362 1.411 1_455 S
C376 C375 1.382 1_545 S
C377 C361 1.411 1_565 S
C377 C375 1.403 . S
C377 C378 1.489 . S
C378 C377 1.489 . S
C378 C379 1.383 . S
C378 C383 1.382 . S
C379 H350 0.950 . S
C379 C378 1.383 . S
C379 C380 1.395 . S
C380 H351 0.950 . S
C380 C379 1.395 . S
C380 C381 1.288 . S
C381 C380 1.288 . S
C381 C382 1.392 . S
C382 H352 0.951 . S
C382 C381 1.392 . S
C382 C383 1.392 . S
C383 H353 0.927 1_565 S
C383 C378 1.382 . S
C383 C382 1.392 . S
Co384 O385 2.216 1_554 S
Co384 O386 2.091 1_554 S
Co384 O388 2.004 . S
Co384 O394 2.021 1_554 S
Co384 O396 2.137 . S
Co384 O397 2.244 . S
O385 Co384 2.216 1_556 S
O385 C392 1.247 . S
O386 Co384 2.091 1_556 S
O386 C392 1.261 . S
C387 O396 1.247 . S
C387 O397 1.272 . S
O388 Co384 2.004 . S
O388 C393 1.259 . S
Co389 O390 2.061 . S
Co389 O395 2.052 1_554 S
Co389 O397 2.135 . S
O390 Co389 2.061 . S
O390 C393 1.235 . S
C391 O394 1.238 . S
C391 O395 1.241 . S
C392 O385 1.247 . S
C392 O386 1.261 . S
C393 O388 1.259 . S
C393 O390 1.235 . S
O394 Co384 2.021 1_556 S
O394 C391 1.238 . S
O395 Co389 2.052 1_556 S
O395 C391 1.241 . S
O396 Co384 2.137 . S
O396 C387 1.247 . S
O397 Co384 2.244 . S
O397 C387 1.272 . S
O397 Co389 2.135 . S
Co398 O399 2.216 . S
Co398 O400 2.091 . S
Co398 O402 2.004 . S
Co398 O408 2.021 . S
Co398 O410 2.137 . S
Co398 O411 2.244 . S
O399 Co398 2.216 . S
O399 C406 1.247 . S
O400 Co398 2.091 . S
O400 C406 1.261 . S
C401 O410 1.247 . S
C401 O411 1.272 . S
O402 Co398 2.004 . S
O402 C407 1.259 . S
Co403 O404 2.061 . S
Co403 O409 2.052 . S
Co403 O411 2.135 . S
O404 Co403 2.061 . S
O404 C407 1.235 . S
C405 O408 1.238 . S
C405 O409 1.241 . S
C406 O399 1.247 . S
C406 O400 1.261 . S
C407 O402 1.259 . S
C407 O404 1.235 . S
O408 Co398 2.021 . S
O408 C405 1.238 . S
O409 Co403 2.052 . S
O409 C405 1.241 . S
O410 Co398 2.137 . S
O410 C401 1.247 . S
O411 Co398 2.244 . S
O411 C401 1.272 . S
O411 Co403 2.135 . S
Co412 O413 2.216 . S
Co412 O414 2.091 . S
Co412 O416 2.004 . S
Co412 O422 2.021 . S
Co412 O424 2.137 . S
Co412 O425 2.244 . S
O413 Co412 2.216 . S
O413 C420 1.247 . S
O414 Co412 2.091 . S
O414 C420 1.261 . S
C415 O424 1.247 . S
C415 O425 1.272 . S
O416 Co412 2.004 . S
O416 C421 1.259 . S
Co417 O418 2.061 . S
Co417 O423 2.052 . S
Co417 O425 2.135 . S
O418 Co417 2.061 . S
O418 C421 1.235 . S
C419 O422 1.238 . S
C419 O423 1.241 . S
C420 O413 1.247 . S
C420 O414 1.261 . S
C421 O416 1.259 . S
C421 O418 1.235 . S
O422 Co412 2.021 . S
O422 C419 1.238 . S
O423 Co417 2.052 . S
O423 C419 1.241 . S
O424 Co412 2.137 . S
O424 C415 1.247 . S
O425 Co412 2.244 . S
O425 C415 1.272 . S
O425 Co417 2.135 . S
Co426 O427 2.216 . S
Co426 O428 2.091 . S
Co426 O430 2.004 . S
Co426 O436 2.021 . S
Co426 O438 2.137 . S
Co426 O439 2.244 . S
O427 Co426 2.216 . S
O427 C434 1.247 . S
O428 Co426 2.091 . S
O428 C434 1.261 . S
C429 O438 1.247 . S
C429 O439 1.272 . S
O430 Co426 2.004 . S
O430 C435 1.259 . S
Co431 O432 2.061 . S
Co431 O437 2.052 . S
Co431 O439 2.135 . S
O432 Co431 2.061 . S
O432 C435 1.235 . S
C433 O436 1.238 . S
C433 O437 1.241 . S
C434 O427 1.247 . S
C434 O428 1.261 . S
C435 O430 1.259 . S
C435 O432 1.235 . S
O436 Co426 2.021 . S
O436 C433 1.238 . S
O437 Co431 2.052 . S
O437 C433 1.241 . S
O438 Co426 2.137 . S
O438 C429 1.247 . S
O439 Co426 2.244 . S
O439 C429 1.272 . S
O439 Co431 2.135 . S
Co440 O441 2.216 . S
Co440 O442 2.091 . S
Co440 O444 2.004 . S
Co440 O450 2.021 . S
Co440 O452 2.137 . S
Co440 O453 2.244 . S
O441 Co440 2.216 . S
O441 C448 1.247 . S
O442 Co440 2.091 . S
O442 C448 1.261 . S
C443 O452 1.247 . S
C443 O453 1.272 . S
O444 Co440 2.004 . S
O444 C449 1.259 . S
Co445 O446 2.061 . S
Co445 O451 2.052 . S
Co445 O453 2.135 . S
O446 Co445 2.061 . S
O446 C449 1.235 . S
C447 O450 1.238 . S
C447 O451 1.241 . S
C448 O441 1.247 . S
C448 O442 1.261 . S
C449 O444 1.259 . S
C449 O446 1.235 . S
O450 Co440 2.021 . S
O450 C447 1.238 . S
O451 Co445 2.052 . S
O451 C447 1.241 . S
O452 Co440 2.137 . S
O452 C443 1.247 . S
O453 Co440 2.244 . S
O453 C443 1.272 . S
O453 Co445 2.135 . S
Co454 O455 2.216 . S
Co454 O456 2.091 . S
Co454 O458 2.004 . S
Co454 O464 2.021 . S
Co454 O466 2.137 . S
Co454 O467 2.244 . S
O455 Co454 2.216 . S
O455 C462 1.247 . S
O456 Co454 2.091 . S
O456 C462 1.261 . S
C457 O466 1.247 . S
C457 O467 1.272 . S
O458 Co454 2.004 . S
O458 C463 1.259 . S
Co459 O460 2.061 . S
Co459 O465 2.052 . S
Co459 O467 2.135 . S
O460 Co459 2.061 . S
O460 C463 1.235 . S
C461 O464 1.238 . S
C461 O465 1.241 . S
C462 O455 1.247 . S
C462 O456 1.261 . S
C463 O458 1.259 . S
C463 O460 1.235 . S
O464 Co454 2.021 . S
O464 C461 1.238 . S
O465 Co459 2.052 . S
O465 C461 1.241 . S
O466 Co454 2.137 . S
O466 C457 1.247 . S
O467 Co454 2.244 . S
O467 C457 1.272 . S
O467 Co459 2.135 . S
Co468 O469 2.216 1_556 S
Co468 O470 2.091 1_556 S
Co468 O472 2.004 . S
Co468 O478 2.021 1_556 S
Co468 O480 2.137 . S
Co468 O481 2.244 . S
O469 Co468 2.216 1_554 S
O469 C476 1.247 . S
O470 Co468 2.091 1_554 S
O470 C476 1.261 . S
C471 O480 1.247 . S
C471 O481 1.272 . S
O472 Co468 2.004 . S
O472 C477 1.259 . S
Co473 O474 2.061 . S
Co473 O479 2.052 1_556 S
Co473 O481 2.135 . S
O474 Co473 2.061 . S
O474 C477 1.235 . S
C475 O478 1.238 . S
C475 O479 1.241 . S
C476 O469 1.247 . S
C476 O470 1.261 . S
C477 O472 1.259 . S
C477 O474 1.235 . S
O478 Co468 2.021 1_554 S
O478 C475 1.238 . S
O479 Co473 2.052 1_554 S
O479 C475 1.241 . S
O480 Co468 2.137 . S
O480 C471 1.247 . S
O481 Co468 2.244 . S
O481 C471 1.272 . S
O481 Co473 2.135 . S
Co482 O483 2.216 . S
Co482 O484 2.091 . S
Co482 O486 2.004 . S
Co482 O492 2.021 . S
Co482 O494 2.137 . S
Co482 O495 2.244 . S
O483 Co482 2.216 . S
O483 C490 1.247 . S
O484 Co482 2.091 . S
O484 C490 1.261 . S
C485 O494 1.247 . S
C485 O495 1.272 . S
O486 Co482 2.004 . S
O486 C491 1.259 . S
Co487 O488 2.061 . S
Co487 O493 2.052 . S
Co487 O495 2.135 . S
O488 Co487 2.061 . S
O488 C491 1.235 . S
C489 O492 1.238 . S
C489 O493 1.241 . S
C490 O483 1.247 . S
C490 O484 1.261 . S
C491 O486 1.259 . S
C491 O488 1.235 . S
O492 Co482 2.021 . S
O492 C489 1.238 . S
O493 Co487 2.052 . S
O493 C489 1.241 . S
O494 Co482 2.137 . S
O494 C485 1.247 . S
O495 Co482 2.244 . S
O495 C485 1.272 . S
O495 Co487 2.135 . S
C496 C497 1.369 . S
C496 C498 1.419 . S
C496 H500 0.930 . S
C497 C496 1.369 . S
C497 C506 1.429 . S
C498 C496 1.419 . S
C498 C499 1.363 . S
C498 H501 0.929 . S
C499 C498 1.363 . S
C499 C505 1.428 . S
H500 C496 0.930 . S
H501 C498 0.929 . S
S502 N503 1.613 . S
S502 N504 1.610 . S
N503 S502 1.613 . S
N503 C506 1.350 . S
N504 S502 1.610 . S
N504 C505 1.351 . S
C505 C499 1.428 . S
C505 N504 1.351 . S
C505 C506 1.434 . S
C506 C497 1.429 . S
C506 N503 1.350 . S
C506 C505 1.434 . S
C507 C508 1.369 . S
C507 C509 1.419 . S
C507 H511 0.930 . S
C508 C507 1.369 . S
C508 C517 1.429 . S
C509 C507 1.419 . S
C509 C510 1.363 . S
C509 H512 0.929 . S
C510 C509 1.363 . S
C510 C516 1.428 . S
H511 C507 0.930 . S
H512 C509 0.929 . S
S513 N514 1.613 . S
S513 N515 1.610 . S
N514 S513 1.613 . S
N514 C517 1.350 . S
N515 S513 1.610 . S
N515 C516 1.351 . S
C516 C510 1.428 . S
C516 N515 1.351 . S
C516 C517 1.434 . S
C517 C508 1.429 . S
C517 N514 1.350 . S
C517 C516 1.434 . S
C518 C519 1.369 . S
C518 C520 1.419 . S
C518 H522 0.930 . S
C519 C518 1.369 . S
C519 C528 1.429 . S
C520 C518 1.419 . S
C520 C521 1.363 . S
C520 H523 0.929 . S
C521 C520 1.363 . S
C521 C527 1.428 . S
H522 C518 0.930 . S
H523 C520 0.929 . S
S524 N525 1.613 . S
S524 N526 1.610 . S
N525 S524 1.613 . S
N525 C528 1.350 . S
N526 S524 1.610 . S
N526 C527 1.351 . S
C527 C521 1.428 . S
C527 N526 1.351 . S
C527 C528 1.434 . S
C528 C519 1.429 . S
C528 N525 1.350 . S
C528 C527 1.434 . S
C529 C530 1.369 . S
C529 C531 1.419 . S
C529 H533 0.930 . S
C530 C529 1.369 . S
C530 C539 1.427 1_554 S
C531 C529 1.419 . S
C531 C532 1.363 . S
C531 H534 0.929 . S
C532 C531 1.363 . S
C532 C538 1.428 1_554 S
H533 C529 0.930 . S
H534 C531 0.929 . S
S535 N536 1.613 . S
S535 N537 1.610 . S
N536 S535 1.613 . S
N536 C539 1.351 . S
N537 S535 1.610 . S
N537 C538 1.351 . S
C538 C532 1.428 1_556 S
C538 N537 1.351 . S
C538 C539 1.434 . S
C539 C530 1.427 1_556 S
C539 N536 1.351 . S
C539 C538 1.434 . S
C540 C541 1.369 . S
C540 C542 1.419 . S
C540 H544 0.930 . S
C541 C540 1.369 . S
C541 C550 1.429 . S
C542 C540 1.419 . S
C542 C543 1.363 . S
C542 H545 0.929 . S
C543 C542 1.363 . S
C543 C549 1.430 1_556 S
H544 C540 0.930 . S
H545 C542 0.929 . S
S546 N547 1.613 . S
S546 N548 1.610 . S
N547 S546 1.613 . S
N547 C550 1.350 1_554 S
N548 S546 1.610 . S
N548 C549 1.349 . S
C549 C543 1.430 1_554 S
C549 N548 1.349 . S
C549 C550 1.434 1_554 S
C550 C541 1.429 . S
C550 N547 1.350 1_556 S
C550 C549 1.434 1_556 S
C551 C552 1.369 . S
C551 C553 1.419 . S
C551 H555 0.930 . S
C552 C551 1.369 . S
C552 C561 1.429 . S
C553 C551 1.419 . S
C553 C554 1.363 . S
C553 H556 0.929 . S
C554 C553 1.363 . S
C554 C560 1.428 . S
H555 C551 0.930 . S
H556 C553 0.929 . S
S557 N558 1.613 . S
S557 N559 1.610 . S
N558 S557 1.613 . S
N558 C561 1.350 . S
N559 S557 1.610 . S
N559 C560 1.351 . S
C560 C554 1.428 . S
C560 N559 1.351 . S
C560 C561 1.434 . S
C561 C552 1.429 . S
C561 N558 1.350 . S
C561 C560 1.434 . S
C562 C563 1.369 . S
C562 C564 1.419 . S
C562 H566 0.930 . S
C563 C562 1.369 . S
C563 C572 1.429 . S
C564 C562 1.419 . S
C564 C565 1.363 . S
C564 H567 0.929 . S
C565 C564 1.363 . S
C565 C571 1.428 . S
H566 C562 0.930 . S
H567 C564 0.929 . S
S568 N569 1.613 . S
S568 N570 1.610 . S
N569 S568 1.613 . S
N569 C572 1.350 . S
N570 S568 1.610 . S
N570 C571 1.351 . S
C571 C565 1.428 . S
C571 N570 1.351 . S
C571 C572 1.434 . S
C572 C563 1.429 . S
C572 N569 1.350 . S
C572 C571 1.434 . S
C573 C574 1.369 . S
C573 C575 1.419 . S
C573 H577 0.930 . S
C574 C573 1.369 . S
C574 C583 1.429 . S
C575 C573 1.419 . S
C575 C576 1.363 . S
C575 H578 0.929 . S
C576 C575 1.363 . S
C576 C582 1.428 . S
H577 C573 0.930 . S
H578 C575 0.929 . S
S579 N580 1.613 . S
S579 N581 1.610 . S
N580 S579 1.613 . S
N580 C583 1.350 . S
N581 S579 1.610 . S
N581 C582 1.351 . S
C582 C576 1.428 . S
C582 N581 1.351 . S
C582 C583 1.434 . S
C583 C574 1.429 . S
C583 N580 1.350 . S
C583 C582 1.434 . S
C584 C585 1.369 . S
C584 C586 1.419 . S
C584 H588 0.930 . S
C585 C584 1.369 . S
C585 C594 1.429 . S
C586 C584 1.419 . S
C586 C587 1.363 . S
C586 H589 0.929 . S
C587 C586 1.363 . S
C587 C593 1.428 . S
H588 C584 0.930 . S
H589 C586 0.929 . S
S590 N591 1.613 . S
S590 N592 1.610 . S
N591 S590 1.613 . S
N591 C594 1.350 . S
N592 S590 1.610 . S
N592 C593 1.351 . S
C593 C587 1.428 . S
C593 N592 1.351 . S
C593 C594 1.434 . S
C594 C585 1.429 . S
C594 N591 1.350 . S
C594 C593 1.434 . S
C595 C596 1.369 1_556 S
C595 C597 1.419 . S
C595 H599 0.930 . S
C596 C595 1.369 1_554 S
C596 C605 1.429 . S
C597 C595 1.419 . S
C597 C598 1.363 1_556 S
C597 H600 0.929 . S
C598 C597 1.363 1_554 S
C598 C604 1.428 . S
H599 C595 0.930 . S
H600 C597 0.929 . S
S601 N602 1.613 . S
S601 N603 1.610 . S
N602 S601 1.613 . S
N602 C605 1.350 . S
N603 S601 1.610 . S
N603 C604 1.351 . S
C604 C598 1.428 . S
C604 N603 1.351 . S
C604 C605 1.434 . S
C605 C596 1.429 . S
C605 N602 1.350 . S
C605 C604 1.434 . S
C606 C607 1.369 . S
C606 C608 1.419 . S
C606 H610 0.930 . S
C607 C606 1.369 . S
C607 C616 1.429 . S
C608 C606 1.419 . S
C608 C609 1.363 . S
C608 H611 0.929 . S
C609 C608 1.363 . S
C609 C615 1.428 . S
H610 C606 0.930 . S
H611 C608 0.929 . S
S612 N613 1.613 . S
S612 N614 1.610 . S
N613 S612 1.613 . S
N613 C616 1.350 . S
N614 S612 1.610 . S
N614 C615 1.351 . S
C615 C609 1.428 . S
C615 N614 1.351 . S
C615 C616 1.434 . S
C616 C607 1.429 . S
C616 N613 1.350 . S
C616 C615 1.434 . S
C617 C618 1.369 . S
C617 C619 1.419 . S
C617 H621 0.930 . S
C618 C617 1.369 . S
C618 C627 1.429 . S
C619 C617 1.419 . S
C619 C620 1.363 . S
C619 H622 0.929 . S
C620 C619 1.363 . S
C620 C626 1.428 . S
H621 C617 0.930 . S
H622 C619 0.929 . S
S623 N624 1.613 . S
S623 N625 1.610 . S
N624 S623 1.613 . S
N624 C627 1.350 . S
N625 S623 1.610 . S
N625 C626 1.351 . S
C626 C620 1.428 . S
C626 N625 1.351 . S
C626 C627 1.434 . S
C627 C618 1.429 . S
C627 N624 1.350 . S
C627 C626 1.434 . S
C628 C629 1.369 . S
C628 C630 1.419 . S
C628 H632 0.930 . S
C629 C628 1.369 . S
C629 C638 1.429 . S
C630 C628 1.419 . S
C630 C631 1.363 . S
C630 H633 0.929 . S
C631 C630 1.363 . S
C631 C637 1.428 . S
H632 C628 0.930 . S
H633 C630 0.929 . S
S634 N635 1.613 . S
S634 N636 1.610 . S
N635 S634 1.613 . S
N635 C638 1.350 . S
N636 S634 1.610 . S
N636 C637 1.351 . S
C637 C631 1.428 . S
C637 N636 1.351 . S
C637 C638 1.434 . S
C638 C629 1.429 . S
C638 N635 1.350 . S
C638 C637 1.434 . S
C639 C640 1.369 . S
C639 C641 1.419 . S
C639 H643 0.930 . S
C640 C639 1.369 . S
C640 C649 1.429 . S
C641 C639 1.419 . S
C641 C642 1.363 . S
C641 H644 0.929 . S
C642 C641 1.363 . S
C642 C648 1.428 . S
H643 C639 0.930 . S
H644 C641 0.929 . S
S645 N646 1.613 . S
S645 N647 1.610 . S
N646 S645 1.613 . S
N646 C649 1.350 . S
N647 S645 1.610 . S
N647 C648 1.351 . S
C648 C642 1.428 . S
C648 N647 1.351 . S
C648 C649 1.434 . S
C649 C640 1.429 . S
C649 N646 1.350 . S
C649 C648 1.434 . S
C650 C651 1.369 . S
C650 C652 1.419 . S
C650 H654 0.930 . S
C651 C650 1.369 . S
C651 C660 1.429 . S
C652 C650 1.419 . S
C652 C653 1.363 . S
C652 H655 0.929 . S
C653 C652 1.363 . S
C653 C659 1.428 . S
H654 C650 0.930 . S
H655 C652 0.929 . S
S656 N657 1.605 1_554 S
S656 N658 1.610 . S
N657 S656 1.605 1_556 S
N657 C660 1.359 . S
N658 S656 1.610 . S
N658 C659 1.351 1_554 S
C659 C653 1.428 . S
C659 N658 1.351 1_556 S
C659 C660 1.434 . S
C660 C651 1.429 . S
C660 N657 1.359 . S
C660 C659 1.434 . S
C661 C662 1.369 . S
C661 C663 1.419 . S
C661 H665 0.930 . S
C662 C661 1.369 . S
C662 C671 1.429 . S
C663 C661 1.419 . S
C663 C664 1.363 . S
C663 H666 0.929 . S
C664 C663 1.363 . S
C664 C670 1.428 . S
H665 C661 0.930 . S
H666 C663 0.929 . S
S667 N668 1.613 . S
S667 N669 1.610 . S
N668 S667 1.613 . S
N668 C671 1.350 . S
N669 S667 1.610 . S
N669 C670 1.351 . S
C670 C664 1.428 . S
C670 N669 1.351 . S
C670 C671 1.434 . S
C671 C662 1.429 . S
C671 N668 1.350 . S
C671 C670 1.434 . S
C672 C673 1.369 . S
C672 C674 1.419 . S
C672 H676 0.930 . S
C673 C672 1.369 . S
C673 C682 1.429 . S
C674 C672 1.419 . S
C674 C675 1.363 . S
C674 H677 0.929 . S
C675 C674 1.363 . S
C675 C681 1.428 . S
H676 C672 0.930 . S
H677 C674 0.929 . S
S678 N679 1.613 . S
S678 N680 1.610 . S
N679 S678 1.613 . S
N679 C682 1.350 . S
N680 S678 1.610 . S
N680 C681 1.351 . S
C681 C675 1.428 . S
C681 N680 1.351 . S
C681 C682 1.434 . S
C682 C673 1.429 . S
C682 N679 1.350 . S
C682 C681 1.434 . S
C683 C684 1.369 . S
C683 C685 1.419 . S
C683 H687 0.930 . S
C684 C683 1.369 . S
C684 C693 1.429 . S
C685 C683 1.419 . S
C685 C686 1.363 . S
C685 H688 0.929 . S
C686 C685 1.363 . S
C686 C692 1.428 . S
H687 C683 0.930 . S
H688 C685 0.929 . S
S689 N690 1.613 . S
S689 N691 1.610 . S
N690 S689 1.613 . S
N690 C693 1.350 . S
N691 S689 1.610 . S
N691 C692 1.351 . S
C692 C686 1.428 . S
C692 N691 1.351 . S
C692 C693 1.434 . S
C693 C684 1.429 . S
C693 N690 1.350 . S
C693 C692 1.434 . S
C694 C695 1.369 . S
C694 C696 1.419 . S
C694 H698 0.930 . S
C695 C694 1.369 . S
C695 C704 1.429 . S
C696 C694 1.419 . S
C696 C697 1.363 . S
C696 H699 0.929 . S
C697 C696 1.363 . S
C697 C703 1.428 . S
H698 C694 0.930 . S
H699 C696 0.929 . S
S700 N701 1.613 . S
S700 N702 1.610 . S
N701 S700 1.613 . S
N701 C704 1.350 . S
N702 S700 1.610 . S
N702 C703 1.351 . S
C703 C697 1.428 . S
C703 N702 1.351 . S
C703 C704 1.434 . S
C704 C695 1.429 . S
C704 N701 1.350 . S
C704 C703 1.434 . S
C705 C706 1.369 . S
C705 C707 1.419 . S
C705 H709 0.930 . S
C706 C705 1.369 . S
C706 C715 1.429 . S
C707 C705 1.419 . S
C707 C708 1.363 . S
C707 H710 0.929 . S
C708 C707 1.363 . S
C708 C714 1.428 . S
H709 C705 0.930 . S
H710 C707 0.929 . S
S711 N712 1.613 . S
S711 N713 1.610 . S
N712 S711 1.613 . S
N712 C715 1.350 . S
N713 S711 1.610 . S
N713 C714 1.351 . S
C714 C708 1.428 . S
C714 N713 1.351 . S
C714 C715 1.434 . S
C715 C706 1.429 . S
C715 N712 1.350 . S
C715 C714 1.434 . S
C716 C717 1.369 . S
C716 C718 1.419 . S
C716 H720 0.930 . S
C717 C716 1.369 . S
C717 C726 1.429 . S
C718 C716 1.419 . S
C718 C719 1.363 . S
C718 H721 0.929 . S
C719 C718 1.363 . S
C719 C725 1.428 . S
H720 C716 0.930 . S
H721 C718 0.929 . S
S722 N723 1.613 . S
S722 N724 1.610 . S
N723 S722 1.613 . S
N723 C726 1.350 . S
N724 S722 1.610 . S
N724 C725 1.351 . S
C725 C719 1.428 . S
C725 N724 1.351 . S
C725 C726 1.434 . S
C726 C717 1.429 . S
C726 N723 1.350 . S
C726 C725 1.434 . S
C727 C728 1.369 . S
C727 C729 1.419 . S
C727 H731 0.930 . S
C728 C727 1.369 . S
C728 C737 1.429 . S
C729 C727 1.419 . S
C729 C730 1.363 . S
C729 H732 0.929 . S
C730 C729 1.363 . S
C730 C736 1.428 . S
H731 C727 0.930 . S
H732 C729 0.929 . S
S733 N734 1.613 . S
S733 N735 1.610 . S
N734 S733 1.613 . S
N734 C737 1.350 . S
N735 S733 1.610 . S
N735 C736 1.351 . S
C736 C730 1.428 . S
C736 N735 1.351 . S
C736 C737 1.434 . S
C737 C728 1.429 . S
C737 N734 1.350 . S
C737 C736 1.434 . S
C738 C739 1.369 . S
C738 C740 1.419 . S
C738 H742 0.930 . S
C739 C738 1.369 . S
C739 C748 1.429 . S
C740 C738 1.419 . S
C740 C741 1.363 . S
C740 H743 0.929 . S
C741 C740 1.363 . S
C741 C747 1.428 . S
H742 C738 0.930 . S
H743 C740 0.929 . S
S744 N745 1.613 . S
S744 N746 1.610 . S
N745 S744 1.613 . S
N745 C748 1.350 . S
N746 S744 1.610 . S
N746 C747 1.351 . S
C747 C741 1.428 . S
C747 N746 1.351 . S
C747 C748 1.434 . S
C748 C739 1.429 . S
C748 N745 1.350 . S
C748 C747 1.434 . S
C749 C750 1.369 . S
C749 C751 1.419 . S
C749 H753 0.930 . S
C750 C749 1.369 . S
C750 C759 1.429 . S
C751 C749 1.419 . S
C751 C752 1.363 . S
C751 H754 0.929 . S
C752 C751 1.363 . S
C752 C758 1.428 . S
H753 C749 0.930 . S
H754 C751 0.929 . S
S755 N756 1.613 . S
S755 N757 1.610 . S
N756 S755 1.613 . S
N756 C759 1.350 . S
N757 S755 1.610 . S
N757 C758 1.351 . S
C758 C752 1.428 . S
C758 N757 1.351 . S
C758 C759 1.434 . S
C759 C750 1.429 . S
C759 N756 1.350 . S
C759 C758 1.434 . S
C760 C761 1.369 . S
C760 C762 1.419 . S
C760 H764 0.930 . S
C761 C760 1.369 . S
C761 C770 1.429 . S
C762 C760 1.419 . S
C762 C763 1.363 . S
C762 H765 0.929 . S
C763 C762 1.363 . S
C763 C769 1.428 . S
H764 C760 0.930 . S
H765 C762 0.929 . S
S766 N767 1.613 . S
S766 N768 1.610 . S
N767 S766 1.613 . S
N767 C770 1.350 . S
N768 S766 1.610 . S
N768 C769 1.351 . S
C769 C763 1.428 . S
C769 N768 1.351 . S
C769 C770 1.434 . S
C770 C761 1.429 . S
C770 N767 1.350 . S
C770 C769 1.434 . S
C771 C772 1.369 . S
C771 C773 1.419 . S
C771 H775 0.930 . S
C772 C771 1.369 . S
C772 C781 1.429 . S
C773 C771 1.419 . S
C773 C774 1.363 . S
C773 H776 0.929 . S
C774 C773 1.363 . S
C774 C780 1.428 . S
H775 C771 0.930 . S
H776 C773 0.929 . S
S777 N778 1.613 . S
S777 N779 1.610 . S
N778 S777 1.613 . S
N778 C781 1.350 . S
N779 S777 1.610 . S
N779 C780 1.351 . S
C780 C774 1.428 . S
C780 N779 1.351 . S
C780 C781 1.434 . S
C781 C772 1.429 . S
C781 N778 1.350 . S
C781 C780 1.434 . S
C782 C783 1.369 . S
C782 C784 1.419 . S
C782 H786 0.930 . S
C783 C782 1.369 . S
C783 C792 1.429 . S
C784 C782 1.419 . S
C784 C785 1.363 . S
C784 H787 0.929 . S
C785 C784 1.363 . S
C785 C791 1.428 . S
H786 C782 0.930 . S
H787 C784 0.929 . S
S788 N789 1.613 . S
S788 N790 1.610 . S
N789 S788 1.613 . S
N789 C792 1.350 . S
N790 S788 1.610 . S
N790 C791 1.351 . S
C791 C785 1.428 . S
C791 N790 1.351 . S
C791 C792 1.434 . S
C792 C783 1.429 . S
C792 N789 1.350 . S
C792 C791 1.434 . S
C793 C794 1.369 . S
C793 C795 1.419 . S
C793 H797 0.930 . S
C794 C793 1.369 . S
C794 C803 1.429 . S
C795 C793 1.419 . S
C795 C796 1.363 . S
C795 H798 0.929 . S
C796 C795 1.363 . S
C796 C802 1.428 . S
H797 C793 0.930 . S
H798 C795 0.929 . S
S799 N800 1.613 . S
S799 N801 1.610 . S
N800 S799 1.613 . S
N800 C803 1.350 . S
N801 S799 1.610 . S
N801 C802 1.351 . S
C802 C796 1.428 . S
C802 N801 1.351 . S
C802 C803 1.434 . S
C803 C794 1.429 . S
C803 N800 1.350 . S
C803 C802 1.434 . S
C804 C805 1.369 . S
C804 C806 1.419 . S
C804 H808 0.930 . S
C805 C804 1.369 . S
C805 C814 1.429 . S
C806 C804 1.419 . S
C806 C807 1.363 . S
C806 H809 0.929 . S
C807 C806 1.363 . S
C807 C813 1.428 . S
H808 C804 0.930 . S
H809 C806 0.929 . S
S810 N811 1.613 . S
S810 N812 1.610 . S
N811 S810 1.613 . S
N811 C814 1.350 . S
N812 S810 1.610 . S
N812 C813 1.351 . S
C813 C807 1.428 . S
C813 N812 1.351 . S
C813 C814 1.434 . S
C814 C805 1.429 . S
C814 N811 1.350 . S
C814 C813 1.434 . S
C815 C816 1.369 . S
C815 C817 1.419 . S
C815 H819 0.930 . S
C816 C815 1.369 . S
C816 C825 1.429 . S
C817 C815 1.419 . S
C817 C818 1.363 . S
C817 H820 0.929 . S
C818 C817 1.363 . S
C818 C824 1.428 . S
H819 C815 0.930 . S
H820 C817 0.929 . S
S821 N822 1.613 . S
S821 N823 1.610 . S
N822 S821 1.613 . S
N822 C825 1.350 . S
N823 S821 1.610 . S
N823 C824 1.351 . S
C824 C818 1.428 . S
C824 N823 1.351 . S
C824 C825 1.434 . S
C825 C816 1.429 . S
C825 N822 1.350 . S
C825 C824 1.434 . S
C826 C827 1.369 . S
C826 C828 1.419 . S
C826 H830 0.930 . S
C827 C826 1.369 . S
C827 C836 1.429 . S
C828 C826 1.419 . S
C828 C829 1.363 . S
C828 H831 0.929 . S
C829 C828 1.363 . S
C829 C835 1.428 . S
H830 C826 0.930 . S
H831 C828 0.929 . S
S832 N833 1.613 . S
S832 N834 1.610 . S
N833 S832 1.613 . S
N833 C836 1.350 . S
N834 S832 1.610 . S
N834 C835 1.351 . S
C835 C829 1.428 . S
C835 N834 1.351 . S
C835 C836 1.434 . S
C836 C827 1.429 . S
C836 N833 1.350 . S
C836 C835 1.434 . S
C837 C838 1.369 . S
C837 C839 1.419 . S
C837 H841 0.930 . S
C838 C837 1.369 . S
C838 C847 1.429 . S
C839 C837 1.419 . S
C839 C840 1.363 . S
C839 H842 0.929 . S
C840 C839 1.363 . S
C840 C846 1.428 . S
H841 C837 0.930 . S
H842 C839 0.929 . S
S843 N844 1.613 . S
S843 N845 1.610 . S
N844 S843 1.613 . S
N844 C847 1.350 . S
N845 S843 1.610 . S
N845 C846 1.351 . S
C846 C840 1.428 . S
C846 N845 1.351 . S
C846 C847 1.434 . S
C847 C838 1.429 . S
C847 N844 1.350 . S
C847 C846 1.434 . S
C499 C406 1.460 . S
C497 C36 1.400 . S
C510 C420 1.456 . S
C508 C93 1.421 . S
C521 C435 1.441 . S
C519 C126 1.416 . S
C530 C165 1.394 . S
C532 C393 1.429 . S
C541 C222 1.397 . S
C543 C392 1.446 . S
C552 C261 1.386 . S
C554 C407 1.417 . S
C565 C421 1.464 . S
C563 C318 1.436 . S
C576 C434 1.469 . S
C574 C381 1.427 . S
C585 C132 1.386 . S
C587 C462 1.449 . S
C598 C476 1.481 . S
C596 C189 1.435 . S
C607 C30 1.407 . S
C609 C491 1.426 . S
C620 C448 1.433 . S
C618 C69 1.367 . S
C629 C324 1.405 . S
C631 C449 1.440 . S
C640 C357 1.402 . S
C642 C463 1.429 . S
C653 C477 1.439 . S
C651 C228 1.408 . S
C662 C285 1.435 . S
C664 C490 1.479 . S
C675 C415 1.751 . S
C673 C45 1.739 . S
C686 C433 1.734 . S
C684 C84 1.753 . S
C695 C117 1.740 . S
C697 C391 1.744 . S
C706 C174 1.717 . S
C708 C401 1.769 . S
C717 C213 1.733 . S
C719 C429 1.748 . S
C730 C387 1.761 . S
C728 C270 1.704 . S
C741 C405 1.736 . S
C739 C309 1.737 . S
C752 C419 1.725 . S
C750 C372 1.748 . S
C763 C471 1.746 . S
C761 C141 1.744 . S
C774 C489 1.721 . S
C772 C180 1.741 . S
C783 C21 1.737 . S
C785 C443 1.751 . S
C796 C457 1.746 . S
C794 C78 1.702 . S
C807 C485 1.766 . S
C805 C333 1.756 . S
C816 C366 1.715 . S
C818 C447 1.751 . S
C829 C461 1.746 . S
C827 C237 1.760 . S
C840 C475 1.735 . S
C838 C276 1.748 . S
