# Generated by pormake.
# Topology ctn, (3,4)-cn, num edge types: 1
# Building blocks:
#     Node 0, Type 0, BuildingBlock: VETTIZ_charged_linker_0, # of connection points: 3
#     Node 1, Type 0, BuildingBlock: VETTIZ_charged_linker_0, # of connection points: 3
#     Node 2, Type 0, BuildingBlock: VETTIZ_charged_linker_0, # of connection points: 3
#     Node 3, Type 0, BuildingBlock: VETTIZ_charged_linker_0, # of connection points: 3
#     Node 4, Type 0, BuildingBlock: VETTIZ_charged_linker_0, # of connection points: 3
#     Node 5, Type 0, BuildingBlock: VETTIZ_charged_linker_0, # of connection points: 3
#     Node 6, Type 0, BuildingBlock: VETTIZ_charged_linker_0, # of connection points: 3
#     Node 7, Type 0, BuildingBlock: VETTIZ_charged_linker_0, # of connection points: 3
#     Node 8, Type 0, BuildingBlock: VETTIZ_charged_linker_0, # of connection points: 3
#     Node 9, Type 0, BuildingBlock: VETTIZ_charged_linker_0, # of connection points: 3
#     Node 10, Type 0, BuildingBlock: VETTIZ_charged_linker_0, # of connection points: 3
#     Node 11, Type 0, BuildingBlock: VETTIZ_charged_linker_0, # of connection points: 3
#     Node 12, Type 0, BuildingBlock: VETTIZ_charged_linker_0, # of connection points: 3
#     Node 13, Type 0, BuildingBlock: VETTIZ_charged_linker_0, # of connection points: 3
#     Node 14, Type 0, BuildingBlock: VETTIZ_charged_linker_0, # of connection points: 3
#     Node 15, Type 0, BuildingBlock: VETTIZ_charged_linker_0, # of connection points: 3
#     Node 16, Type 1, BuildingBlock: QUQFOY_clean_sbu_1, # of connection points: 4
#     Node 17, Type 1, BuildingBlock: QUQFOY_clean_sbu_1, # of connection points: 4
#     Node 18, Type 1, BuildingBlock: QUQFOY_clean_sbu_1, # of connection points: 4
#     Node 19, Type 1, BuildingBlock: QUQFOY_clean_sbu_1, # of connection points: 4
#     Node 20, Type 1, BuildingBlock: QUQFOY_clean_sbu_1, # of connection points: 4
#     Node 21, Type 1, BuildingBlock: QUQFOY_clean_sbu_1, # of connection points: 4
#     Node 22, Type 1, BuildingBlock: QUQFOY_clean_sbu_1, # of connection points: 4
#     Node 23, Type 1, BuildingBlock: QUQFOY_clean_sbu_1, # of connection points: 4
#     Node 24, Type 1, BuildingBlock: QUQFOY_clean_sbu_1, # of connection points: 4
#     Node 25, Type 1, BuildingBlock: QUQFOY_clean_sbu_1, # of connection points: 4
#     Node 26, Type 1, BuildingBlock: QUQFOY_clean_sbu_1, # of connection points: 4
#     Node 27, Type 1, BuildingBlock: QUQFOY_clean_sbu_1, # of connection points: 4
#     Edge 28, Type (0, 1), None
#     Edge 29, Type (0, 1), None
#     Edge 30, Type (0, 1), None
#     Edge 31, Type (0, 1), None
#     Edge 32, Type (0, 1), None
#     Edge 33, Type (0, 1), None
#     Edge 34, Type (0, 1), None
#     Edge 35, Type (0, 1), None
#     Edge 36, Type (0, 1), None
#     Edge 37, Type (0, 1), None
#     Edge 38, Type (0, 1), None
#     Edge 39, Type (0, 1), None
#     Edge 40, Type (0, 1), None
#     Edge 41, Type (0, 1), None
#     Edge 42, Type (0, 1), None
#     Edge 43, Type (0, 1), None
#     Edge 44, Type (0, 1), None
#     Edge 45, Type (0, 1), None
#     Edge 46, Type (0, 1), None
#     Edge 47, Type (0, 1), None
#     Edge 48, Type (0, 1), None
#     Edge 49, Type (0, 1), None
#     Edge 50, Type (0, 1), None
#     Edge 51, Type (0, 1), None
#     Edge 52, Type (0, 1), None
#     Edge 53, Type (0, 1), None
#     Edge 54, Type (0, 1), None
#     Edge 55, Type (0, 1), None
#     Edge 56, Type (0, 1), None
#     Edge 57, Type (0, 1), None
#     Edge 58, Type (0, 1), None
#     Edge 59, Type (0, 1), None
#     Edge 60, Type (0, 1), None
#     Edge 61, Type (0, 1), None
#     Edge 62, Type (0, 1), None
#     Edge 63, Type (0, 1), None
#     Edge 64, Type (0, 1), None
#     Edge 65, Type (0, 1), None
#     Edge 66, Type (0, 1), None
#     Edge 67, Type (0, 1), None
#     Edge 68, Type (0, 1), None
#     Edge 69, Type (0, 1), None
#     Edge 70, Type (0, 1), None
#     Edge 71, Type (0, 1), None
#     Edge 72, Type (0, 1), None
#     Edge 73, Type (0, 1), None
#     Edge 74, Type (0, 1), None
#     Edge 75, Type (0, 1), None
# Relax obj value: 0.038
# Max RMSD: 0.146
# Mean RMSD: 0.068
data_MOF--net-ctn--node1-QUQFOY_clean_sbu_1--node2-VETTIZ_charged_linker_0--edge1-none
_symmetry_space_group_name_H-M    P1
_symmetry_Int_Tables_number       1
_symmetry_cell_setting            triclinic
loop_
_symmetry_equiv_pos_as_xyz
'x, y, z'
_cell_length_a     36.781583
_cell_length_b     36.770955
_cell_length_c     36.92628
_cell_angle_alpha  93.046539
_cell_angle_beta   89.967833
_cell_angle_gamma 95.223961
loop_
_atom_site_label
_atom_site_type_symbol
_atom_site_fract_x
_atom_site_fract_y
_atom_site_fract_z
_atom_type_partial_charge
C0 C 0.02383 0.1609 0.96757 0.0
C1 C -0.00403 0.18415 0.97418 0.0
C2 C 0.97208 0.1778 0.00353 0.0
C3 C 0.00374 0.12592 0.0191 0.0
C4 C 0.02715 0.132 0.99029 0.0
C5 C 0.05494 0.1044 0.98704 0.0
H6 H 0.1266 0.95836 0.05439 0.0
C7 C 0.01433 0.09377 0.03736 0.0
C8 C 0.04431 0.08091 0.01866 0.0
H9 H 0.16145 0.01625 0.95965 0.0
H10 H 0.11342 0.05637 0.96904 0.0
H11 H 0.11237 0.02908 0.10476 0.0
H12 H 0.04459 0.95283 0.03675 0.0
H13 H 0.01619 0.96532 0.07256 0.0
H14 H 0.05659 0.94286 0.08197 0.0
H15 H 0.09915 0.98291 0.11612 0.0
H16 H 0.07165 0.01969 0.12868 0.0
C17 C 0.09334 0.12504 0.99231 0.0
C18 C 0.04922 0.08268 0.95007 0.0
C19 C 0.94681 0.05124 0.15037 0.0
C20 C 0.95167 0.02242 0.17297 0.0
C21 C 0.97854 -0.00153 0.16418 0.0
C22 C 0.0008 0.00348 0.13399 0.0
C23 C -0.00362 0.03279 0.11216 0.0
C24 C 0.96951 0.05587 0.12008 0.0
C25 C 0.96893 0.08525 0.0932 0.0
C26 C 0.00013 0.076 0.06826 0.0
C27 C 0.01606 0.04542 0.07982 0.0
C28 C 0.97719 0.12281 0.11399 0.0
C29 C 0.93157 0.08027 0.07332 0.0
C30 C 0.12403 0.97977 0.03574 0.0
C31 C 0.14792 0.98429 0.00643 0.0
C32 C 0.14333 0.01223 0.98251 0.0
C33 C 0.11547 0.03554 0.98802 0.0
C34 C 0.09185 0.03075 0.01764 0.0
C35 C 0.09627 0.00301 0.04065 0.0
C36 C 0.06829 0.00114 0.07013 0.0
C37 C 0.04646 0.03256 0.0613 0.0
C38 C 0.06044 0.05003 0.03074 0.0
C39 C 0.08863 0.00829 0.10699 0.0
C40 C 0.04525 0.96361 0.06551 0.0
H41 H 0.95677 0.14558 0.04779 0.0
H42 H 0.04254 0.16495 0.94518 0.0
H43 H 0.01977 0.07888 0.94255 0.0
H44 H 0.05778 0.05468 0.95045 0.0
H45 H 0.06397 0.09725 0.92807 0.0
H46 H 0.09297 0.14706 0.01414 0.0
H47 H 0.10276 0.138 0.96704 0.0
H48 H 0.11406 0.1074 0.00096 0.0
H49 H 0.92634 0.07005 0.15638 0.0
H50 H 0.98279 0.97592 0.18095 0.0
H51 H 0.0209 0.98447 0.1292 0.0
H52 H -0.00183 0.12123 0.13541 0.0
H53 H 0.95228 0.13188 0.12742 0.0
H54 H 0.98874 0.14442 0.09658 0.0
H55 H 0.92138 0.05084 0.07 0.0
H56 H 0.93305 0.08975 0.04542 0.0
H57 H 0.91067 0.0946 0.08872 0.0
H58 H 0.95036 0.19525 0.00927 0.0
C59 C 0.97581 0.14889 0.02596 0.0
C60 C 0.21026 0.62695 0.27626 0.0
C61 C 0.1779 0.61449 0.25793 0.0
C62 C 0.16485 0.63571 0.2308 0.0
C63 C 0.21758 0.68016 0.23988 0.0
C64 C 0.22929 0.65955 0.26709 0.0
C65 C 0.26386 0.67585 0.28483 0.0
H66 H 0.40952 0.7993 0.28943 0.0
C67 C 0.24493 0.71204 0.23683 0.0
C68 C 0.27181 0.70944 0.26333 0.0
H69 H 0.38281 0.71115 0.36077 0.0
H70 H 0.32602 0.69568 0.32957 0.0
H71 H 0.33151 0.8284 0.29224 0.0
H72 H 0.37934 0.75555 0.21483 0.0
H73 H 0.35641 0.78643 0.19053 0.0
H74 H 0.39353 0.80355 0.22029 0.0
H75 H 0.36246 0.84511 0.25809 0.0
H76 H 0.3139 0.83721 0.24975 0.0
C77 C 0.25552 0.68585 0.32523 0.0
C78 C 0.29304 0.64816 0.27869 0.0
C79 C 0.23765 0.80031 0.13559 0.0
C80 C 0.26175 0.82966 0.125 0.0
C81 C 0.29265 0.84129 0.14633 0.0
C82 C 0.3002 0.82334 0.17752 0.0
C83 C 0.27694 0.79296 0.18708 0.0
C84 C 0.24582 0.78225 0.16677 0.0
C85 C 0.22487 0.74879 0.18097 0.0
C86 C 0.24883 0.74109 0.21272 0.0
C87 C 0.2794 0.76703 0.21589 0.0
C88 C 0.18694 0.75927 0.1936 0.0
C89 C 0.22341 0.71776 0.15087 0.0
C90 C 0.39142 0.7765 0.29806 0.0
C91 C 0.40077 0.75606 0.32728 0.0
C92 C 0.37624 0.7272 0.33828 0.0
C93 C 0.34316 0.71829 0.3201 0.0
C94 C 0.33431 0.73853 0.29065 0.0
C95 C 0.35788 0.76748 0.28042 0.0
C96 C 0.34289 0.78665 0.2494 0.0
C97 C 0.30665 0.76393 0.24252 0.0
C98 C 0.30234 0.73561 0.26641 0.0
C99 C 0.33755 0.82652 0.2627 0.0
C100 C 0.36934 0.78325 0.21696 0.0
H101 H 0.17375 0.68342 0.20049 0.0
H102 H 0.22068 0.61175 0.29774 0.0
H103 H 0.28982 0.63381 0.25142 0.0
H104 H 0.32131 0.66109 0.27908 0.0
H105 H 0.29054 0.62702 0.29916 0.0
H106 H 0.22634 0.69077 0.32924 0.0
H107 H 0.26144 0.66358 0.34291 0.0
H108 H 0.27082 0.71171 0.33539 0.0
H109 H 0.21407 0.79058 0.11906 0.0
H110 H 0.31162 0.86364 0.13816 0.0
H111 H 0.32449 0.83316 0.19234 0.0
H112 H 0.18916 0.78705 0.20737 0.0
H113 H 0.168 0.75947 0.1702 0.0
H114 H 0.17443 0.7409 0.21374 0.0
H115 H 0.25033 0.71712 0.13721 0.0
H116 H 0.21736 0.69036 0.16132 0.0
H117 H 0.20271 0.72182 0.12991 0.0
H118 H 0.13971 0.62668 0.21642 0.0
C119 C 0.18465 0.66851 0.22157 0.0
C120 C 0.01153 0.38242 0.9825 0.0
C121 C 0.00158 0.37935 0.94572 0.0
C122 C 0.98611 0.40845 0.93006 0.0
C123 C 0.98573 0.44076 0.98879 0.0
C124 C 0.00399 0.4137 0.00334 0.0
C125 C 0.01354 0.42222 0.04264 0.0
H126 H 0.00303 0.53423 0.19236 0.0
C127 C 0.97832 0.46744 0.01838 0.0
C128 C 0.99522 0.45726 0.04982 0.0
H129 H 0.06948 0.44359 0.17554 0.0
H130 H 0.04344 0.43057 0.11577 0.0
H131 H 0.9296 0.49258 0.1532 0.0
H132 H 0.01694 0.56759 0.1164 0.0
H133 H 0.97517 0.58154 0.10135 0.0
H134 H 0.98373 0.58048 0.14922 0.0
H135 H 0.93161 0.54073 0.16473 0.0
H136 H 0.91018 0.52101 0.12334 0.0
C137 C -0.004 0.39082 0.06501 0.0
C138 C 0.05575 0.42853 0.04611 0.0
C139 C 0.88636 0.55885 -0.00199 0.0
C140 C 0.86925 0.58333 0.02141 0.0
C141 C 0.881 0.58848 0.0578 0.0
C142 C 0.90863 0.56863 0.07088 0.0
C143 C 0.92448 0.54322 0.04738 0.0
C144 C 0.91347 0.53896 0.01153 0.0
C145 C 0.93205 0.50976 0.99069 0.0
C146 C 0.95559 0.49664 0.02016 0.0
C147 C 0.95119 0.51638 0.05323 0.0
C148 C 0.9022 0.47977 0.97685 0.0
C149 C 0.95532 0.52777 0.96029 0.0
C150 C 0.01169 0.51128 0.176 0.0
C151 C 0.03856 0.49006 0.18855 0.0
C152 C 0.04898 0.46044 0.16641 0.0
C153 C 0.03411 0.45315 0.13159 0.0
C154 C 0.00874 0.47583 0.11875 0.0
C155 C -0.00254 0.50396 0.14103 0.0
C156 C 0.97091 0.52572 0.12246 0.0
C157 C 0.96987 0.50734 0.08469 0.0
C158 C 0.99171 0.47791 0.08291 0.0
C159 C 0.93361 0.52011 0.14189 0.0
C160 C 0.9872 0.56607 0.1224 0.0
H161 H 0.96506 0.45995 0.93842 0.0
H162 H 0.02432 0.3607 0.99483 0.0
H163 H 0.06889 0.43509 0.01981 0.0
H164 H 0.06462 0.45229 0.06474 0.0
H165 H 0.06754 0.40389 0.05549 0.0
H166 H 0.96728 0.38315 0.05621 0.0
H167 H 0.01116 0.36611 0.06134 0.0
H168 H 0.99478 0.39836 0.09429 0.0
H169 H 0.87802 0.55425 0.96988 0.0
H170 H 0.86835 0.60731 0.07636 0.0
H171 H 0.91617 0.57341 0.09892 0.0
H172 H 0.8823 0.47306 -0.00124 0.0
H173 H 0.88685 0.48913 0.95372 0.0
H174 H 0.91294 0.45373 0.96821 0.0
H175 H 0.96301 0.55733 0.96703 0.0
H176 H 0.9817 0.51578 0.95642 0.0
H177 H 0.94023 0.52561 0.9341 0.0
H178 H 0.97843 0.40657 0.90165 0.0
C179 C 0.97802 0.43917 0.95148 0.0
C180 C 0.6289 0.7956 0.33056 0.0
C181 C 0.59884 0.7706 0.32212 0.0
C182 C 0.60237 0.74129 0.29673 0.0
C183 C 0.66474 0.76519 0.28508 0.0
C184 C 0.66147 0.79243 0.31183 0.0
C185 C 0.69454 0.81937 0.3149 0.0
H186 H 0.84449 0.89654 0.23706 0.0
C187 C 0.70058 0.77277 0.26752 0.0
C188 C 0.71821 0.80422 0.28515 0.0
H189 H 0.78601 0.935 0.33117 0.0
H190 H 0.74899 0.87794 0.33092 0.0
H191 H 0.77267 0.85825 0.19173 0.0
H192 H 0.84946 0.81498 0.26245 0.0
H193 H 0.8336 0.7791 0.23143 0.0
H194 H 0.85885 0.81947 0.21517 0.0
H195 H 0.82106 0.85967 0.18408 0.0
H196 H 0.79175 0.82003 0.1706 0.0
C197 C 0.68274 0.85786 0.30711 0.0
C198 C 0.71178 0.81668 0.35285 0.0
C199 C 0.72805 0.70559 0.14873 0.0
C200 C 0.7582 0.70805 0.12543 0.0
C201 C 0.79037 0.72932 0.13654 0.0
C202 C 0.79138 0.75038 0.16941 0.0
C203 C 0.75991 0.74994 0.19107 0.0
C204 C 0.72974 0.72618 0.18168 0.0
C205 C 0.69996 0.72715 0.20952 0.0
C206 C 0.7166 0.75672 0.23632 0.0
C207 C 0.75121 0.77086 0.22465 0.0
C208 C 0.66538 0.73861 0.19081 0.0
C209 C 0.69469 0.68936 0.22641 0.0
C210 C 0.82375 0.89243 0.25764 0.0
C211 C 0.81747 0.92062 0.28357 0.0
C212 C 0.79081 0.91408 0.31038 0.0
C213 C 0.76932 0.88084 0.31025 0.0
C214 C 0.77389 0.85401 0.2826 0.0
C215 C 0.80144 0.85939 0.25752 0.0
C216 C 0.80184 0.8275 0.23016 0.0
C217 C 0.76868 0.80317 0.24206 0.0
C218 C 0.75242 0.81925 0.27252 0.0
C219 C 0.79665 0.84187 0.19201 0.0
C220 C 0.83782 0.8093 0.2347 0.0
H221 H 0.63639 0.71619 0.25817 0.0
H222 H 0.62642 0.81857 0.34979 0.0
H223 H 0.70975 0.78783 0.36089 0.0
H224 H 0.74131 0.8256 0.35365 0.0
H225 H 0.69763 0.83285 0.37387 0.0
H226 H 0.65638 0.85609 0.29207 0.0
H227 H 0.67928 0.87457 0.33262 0.0
H228 H 0.70205 0.8733 0.28936 0.0
H229 H 0.70335 0.68862 0.14101 0.0
H230 H 0.81398 0.73118 0.11894 0.0
H231 H 0.81606 0.76718 0.17617 0.0
H232 H 0.67264 0.76164 0.17301 0.0
H233 H 0.65187 0.71552 0.17369 0.0
H234 H 0.6451 0.74851 0.20999 0.0
H235 H 0.72051 0.67574 0.22591 0.0
H236 H 0.68718 0.69149 0.25541 0.0
H237 H 0.67371 0.67079 0.21138 0.0
H238 H 0.57907 0.72198 0.28984 0.0
C239 C 0.63545 0.73827 0.27825 0.0
C240 C 0.02046 0.9035 0.55762 0.0
C241 C 0.9856 0.8843 0.55798 0.0
C242 C 0.9574 0.89623 0.53701 0.0
C243 C -0.0009 0.94428 0.51425 0.0
C244 C 0.02655 0.93341 0.53564 0.0
C245 C 0.06186 0.957 0.53173 0.0
H246 H 0.15622 0.09804 0.452 0.0
C247 C 0.01461 0.97482 0.4931 0.0
C248 C 0.05137 0.98251 0.50318 0.0
H249 H 0.19158 0.0358 0.53913 0.0
H250 H 0.1343 -0.00254 0.5362 0.0
H251 H 0.07334 0.10435 0.48075 0.0
H252 H 0.12081 0.03103 0.40352 0.0
H253 H 0.07567 0.03308 0.38888 0.0
H254 H 0.10694 0.07401 0.39064 0.0
H255 H 0.09412 0.11764 0.43882 0.0
H256 H 0.04704 0.10008 0.44044 0.0
C257 C 0.07113 0.9777 0.56874 0.0
C258 C 0.09133 0.93231 0.51769 0.0
C259 C 0.93734 0.02287 0.39591 0.0
C260 C 0.94643 0.04446 0.36651 0.0
C261 C 0.98177 0.0623 0.36422 0.0
C262 C 0.00805 0.0582 0.39087 0.0
C263 C -0.00088 0.03504 0.41933 0.0
C264 C 0.96425 0.01777 0.4214 0.0
C265 C 0.96098 0.99028 0.4502 0.0
C266 C -0.00048 0.9942 0.46539 0.0
C267 C 0.02152 0.0209 0.44771 0.0
C268 C 0.93306 0.00267 0.47863 0.0
C269 C 0.95073 0.95182 0.43154 0.0
C270 C 0.15158 0.07574 0.46997 0.0
C271 C 0.17803 0.06935 0.49556 0.0
C272 C 0.17139 0.04064 0.519 0.0
C273 C 0.1381 0.01875 0.51743 0.0
C274 C 0.11127 0.02602 0.49234 0.0
C275 C 0.11838 0.0539 0.4689 0.0
C276 C 0.08653 0.05804 0.44443 0.0
C277 C 0.05853 0.02926 0.45828 0.0
C278 C 0.07329 0.01034 0.48603 0.0
C279 C 0.07453 0.09711 0.45116 0.0
C280 C 0.0979 0.04884 0.40475 0.0
H281 H 0.94139 0.93352 0.49976 0.0
H282 H 0.04258 0.89532 0.57378 0.0
H283 H 0.07995 0.91248 0.49587 0.0
H284 H 0.11496 0.94773 0.50549 0.0
H285 H 0.10129 0.91642 0.53983 0.0
H286 H 0.04602 0.98189 0.58467 0.0
H287 H 0.08888 0.96229 0.58547 0.0
H288 H 0.08436 0.0056 0.56575 0.0
H289 H 0.91077 0.00762 0.39727 0.0
H290 H 0.9893 0.07846 0.34123 0.0
H291 H 0.03466 0.07212 0.38759 0.0
H292 H 0.93648 0.03287 0.48382 0.0
H293 H 0.90462 0.99512 0.46902 0.0
H294 H 0.93659 0.9913 0.50536 0.0
H295 H 0.96059 0.95025 0.40305 0.0
H296 H 0.96369 0.92986 0.44453 0.0
H297 H 0.92069 0.94499 0.43086 0.0
H298 H 0.9302 0.88218 0.53697 0.0
C299 C 0.96394 0.92609 0.51528 0.0
C300 C 0.27659 0.63301 0.81722 0.0
C301 C 0.28368 0.61067 0.78669 0.0
C302 C 0.26764 0.61694 0.75315 0.0
C303 C 0.23767 0.66744 0.78159 0.0
C304 C 0.25443 0.66139 0.81394 0.0
C305 C 0.24774 0.68934 0.84347 0.0
H306 H 0.18438 0.84855 0.89763 0.0
C307 C 0.21777 0.70055 0.78765 0.0
C308 C 0.22463 0.71379 0.82358 0.0
H309 H 0.24384 0.77629 0.95946 0.0
H310 H 0.24249 0.733 0.90882 0.0
H311 H 0.12784 0.77663 0.85955 0.0
H312 H 0.22357 0.84292 0.82647 0.0
H313 H 0.19665 0.83225 0.78742 0.0
H314 H 0.17902 0.85905 0.82478 0.0
H315 H 0.12908 0.82493 0.85386 0.0
H316 H 0.12018 0.79241 0.81632 0.0
C317 C 0.22605 0.66961 0.874 0.0
C318 C 0.28522 0.70932 0.85539 0.0
C319 C 0.12241 0.73495 0.69927 0.0
C320 C 0.10104 0.76486 0.69939 0.0
C321 C 0.10996 0.79538 0.72327 0.0
C322 C 0.13735 0.79462 0.7494 0.0
C323 C 0.156 0.76311 0.75139 0.0
C324 C 0.15045 0.73503 0.72504 0.0
C325 C 0.17673 0.70618 0.72917 0.0
C326 C 0.19457 0.71892 0.76537 0.0
C327 C 0.18176 0.7521 0.77832 0.0
C328 C 0.15516 0.66825 0.73079 0.0
C329 C 0.20445 0.70862 0.69763 0.0
C330 C 0.19684 0.82323 0.90025 0.0
C331 C 0.21477 0.81616 0.93244 0.0
C332 C 0.23006 0.78262 0.93497 0.0
C333 C 0.22946 0.75748 0.90533 0.0
C334 C 0.21324 0.76573 0.87276 0.0
C335 C 0.1962 0.79749 0.87088 0.0
C336 C 0.17838 0.80021 0.83456 0.0
C337 C 0.18963 0.76585 0.81439 0.0
C338 C 0.21014 0.74614 0.83699 0.0
C339 C 0.13668 0.79867 0.84107 0.0
C340 C 0.19491 0.83551 0.81731 0.0
H341 H 0.2321 0.64846 0.72463 0.0
H342 H 0.28907 0.62927 0.84319 0.0
H343 H 0.30428 0.71158 0.83203 0.0
H344 H 0.28345 0.73785 0.86562 0.0
H345 H 0.29839 0.69434 0.87639 0.0
H346 H 0.20876 0.64512 0.86294 0.0
H347 H 0.2447 0.66024 0.8945 0.0
H348 H 0.20653 0.68684 0.88777 0.0
H349 H 0.11664 0.71171 0.68022 0.0
H350 H 0.09408 0.81881 0.72337 0.0
H351 H 0.14206 0.81805 0.7679 0.0
H352 H 0.13337 0.66904 0.75164 0.0
H353 H 0.14207 0.6596 0.70425 0.0
H354 H 0.17264 0.64684 0.73795 0.0
H355 H 0.20835 0.7368 0.68782 0.0
H356 H 0.23202 0.70254 0.70598 0.0
H357 H 0.19507 0.68993 0.67419 0.0
H358 H 0.27274 0.59981 0.72926 0.0
C359 C 0.24423 0.64509 0.75052 0.0
C360 C 0.84505 0.49264 0.51076 0.0
C361 C 0.83995 0.45531 0.50054 0.0
C362 C 0.8684 0.43788 0.48352 0.0
C363 C 0.90604 0.49542 0.48556 0.0
C364 C 0.8786 0.51192 0.50385 0.0
C365 C 0.88994 0.55095 0.51582 0.0
H366 H 0.02504 0.68636 0.54161 0.0
C367 C 0.93748 0.52285 0.48297 0.0
C368 C 0.92872 0.55508 0.50157 0.0
H369 H 0.91144 0.68693 0.57127 0.0
H370 H 0.89796 0.6276 0.5407 0.0
H371 H 0.00528 0.65957 0.4607 0.0
H372 H 0.03714 0.60097 0.55128 0.0
H373 H 0.062 0.58738 0.51265 0.0
H374 H 0.0665 0.63457 0.52907 0.0
H375 H 0.05238 0.6569 0.4716 0.0
H376 H 0.02745 0.62294 0.4418 0.0
C377 C 0.86484 0.5759 0.49686 0.0
C378 C 0.8887 0.55405 0.55781 0.0
C379 C 0.03977 0.50149 0.39522 0.0
C380 C 0.07201 0.52283 0.38724 0.0
C381 C 0.08397 0.55325 0.41029 0.0
C382 C 0.06231 0.56422 0.43936 0.0
C383 C 0.02868 0.54427 0.44541 0.0
C384 C 0.01882 0.51233 0.42488 0.0
C385 C 0.98342 0.49327 0.43731 0.0
C386 C 0.97152 0.52166 0.46519 0.0
C387 C -0.00196 0.55152 0.46962 0.0
C388 C 0.95663 0.48713 0.4048 0.0
C389 C 0.99172 0.45741 0.45478 0.0
C390 C -0.00266 0.67349 0.54134 0.0
C391 C 0.96926 0.69063 0.55919 0.0
C392 C 0.93333 0.67395 0.55762 0.0
C393 C 0.92568 0.63941 0.54024 0.0
C394 C 0.95423 0.6217 0.52393 0.0
C395 C 0.989 0.63936 0.52314 0.0
C396 C 0.01459 0.61806 0.50039 0.0
C397 C 0.99004 0.5835 0.49025 0.0
C398 C 0.95507 0.58564 0.50488 0.0
C399 C 0.02583 0.64036 0.46697 0.0
C400 C 0.04701 0.60986 0.52438 0.0
H401 H 0.92201 0.44358 0.46208 0.0
H402 H 0.82363 0.50634 0.52444 0.0
H403 H 0.90052 0.53039 0.56941 0.0
H404 H 0.90479 0.57847 0.56978 0.0
H405 H 0.86013 0.55425 0.56755 0.0
H406 H 0.85371 0.56282 0.47082 0.0
H407 H 0.84126 0.58201 0.51424 0.0
H408 H 0.87965 0.6019 0.48916 0.0
H409 H 0.03065 0.47759 0.37807 0.0
H410 H 0.10893 0.56986 0.40443 0.0
H411 H 0.0719 0.58847 0.45526 0.0
H412 H 0.95481 0.51307 0.391 0.0
H413 H 0.96585 0.46646 0.38463 0.0
H414 H 0.92867 0.47758 0.41296 0.0
H415 H 0.02139 0.45633 0.45999 0.0
H416 H 0.97861 0.45471 0.4817 0.0
H417 H 0.98261 0.43294 0.43703 0.0
H418 H 0.86466 0.40901 0.47545 0.0
C419 C 0.90144 0.45789 0.47571 0.0
C420 C 0.80437 0.72566 0.90586 0.0
C421 C 0.77868 0.72753 0.93396 0.0
C422 C 0.75559 0.75615 0.9353 0.0
C423 C 0.78245 0.77897 0.88005 0.0
C424 C 0.80581 0.75158 0.87937 0.0
C425 C 0.83126 0.75327 0.84751 0.0
H426 H 0.88505 0.83078 0.69218 0.0
C427 C 0.78964 0.80011 0.84751 0.0
C428 C 0.8182 0.78522 0.82835 0.0
H429 H 0.93313 0.74494 0.74608 0.0
H430 H 0.88836 0.74778 0.79354 0.0
H431 H 0.87208 0.88173 0.76699 0.0
H432 H 0.80254 0.80135 0.70381 0.0
H433 H 0.77549 0.83581 0.71957 0.0
H434 H 0.81295 0.8469 0.68924 0.0
H435 H 0.85835 0.88783 0.72119 0.0
H436 H 0.82987 0.89914 0.7589 0.0
C437 C 0.87088 0.76161 0.86209 0.0
C438 C 0.82456 0.71693 0.82429 0.0
C439 C 0.71472 0.9058 0.82442 0.0
C440 C 0.71253 0.92824 0.79515 0.0
C441 C 0.73372 0.92225 0.76405 0.0
C442 C 0.75802 0.89485 0.76271 0.0
C443 C 0.76071 0.8731 0.79267 0.0
C444 C 0.73842 0.8781 0.82237 0.0
C445 C 0.74279 0.85075 0.8505 0.0
C446 C 0.77249 0.82948 0.83356 0.0
C447 C 0.78338 0.84302 0.79999 0.0
C448 C 0.75584 0.87181 0.88628 0.0
C449 C 0.70604 0.82677 0.85346 0.0
C450 C 0.88603 0.81261 0.71423 0.0
C451 C 0.91279 0.78757 0.7153 0.0
C452 C 0.91297 0.76453 0.74458 0.0
C453 C 0.88689 0.7662 0.77215 0.0
C454 C 0.86032 0.79126 0.77061 0.0
C455 C 0.8603 0.8141 0.74212 0.0
C456 C 0.83037 0.83947 0.74539 0.0
C457 C 0.81278 0.82839 0.78086 0.0
C458 C 0.8303 0.79993 0.79524 0.0
C459 C 0.84833 0.87925 0.74809 0.0
C460 C 0.80394 0.83082 0.71278 0.0
H461 H 0.73877 0.8027 0.91083 0.0
H462 H 0.82283 0.7043 0.90425 0.0
H463 H 0.79482 0.70834 0.82194 0.0
H464 H 0.83429 0.71906 0.79615 0.0
H465 H 0.83778 0.69463 0.83676 0.0
H466 H 0.87149 0.77653 0.88914 0.0
H467 H 0.88429 0.73606 0.86507 0.0
H468 H 0.88795 0.77987 0.84474 0.0
H469 H 0.69828 0.90977 0.84843 0.0
H470 H 0.7323 0.93952 0.74131 0.0
H471 H 0.77404 0.8919 0.73862 0.0
H472 H 0.77635 0.89497 0.88069 0.0
H473 H 0.73269 0.88328 0.90086 0.0
H474 H 0.7697 0.85482 0.90475 0.0
H475 H 0.69054 0.8248 0.82745 0.0
H476 H 0.70974 0.79809 0.85902 0.0
H477 H 0.68834 0.8383 0.87471 0.0
H478 H 0.73565 0.75835 0.95671 0.0
C479 C 0.75731 0.78181 0.9085 0.0
C480 C 0.30437 0.22566 0.40586 0.0
C481 C 0.27868 0.22753 0.43396 0.0
C482 C 0.25559 0.25615 0.4353 0.0
C483 C 0.28245 0.27897 0.38005 0.0
C484 C 0.30581 0.25158 0.37937 0.0
C485 C 0.33126 0.25327 0.34751 0.0
H486 H 0.38505 0.33078 0.19217 0.0
C487 C 0.28964 0.30011 0.34751 0.0
C488 C 0.3182 0.28522 0.32835 0.0
H489 H 0.43313 0.24494 0.24608 0.0
H490 H 0.38836 0.24778 0.29354 0.0
H491 H 0.37208 0.38173 0.26699 0.0
H492 H 0.30254 0.30135 0.20381 0.0
H493 H 0.27549 0.33581 0.21957 0.0
H494 H 0.31295 0.3469 0.18924 0.0
H495 H 0.35835 0.38783 0.22119 0.0
H496 H 0.32987 0.39914 0.2589 0.0
C497 C 0.37088 0.26161 0.36209 0.0
C498 C 0.32456 0.21693 0.32429 0.0
C499 C 0.21472 0.4058 0.32442 0.0
C500 C 0.21253 0.42824 0.29515 0.0
C501 C 0.23372 0.42225 0.26405 0.0
C502 C 0.25802 0.39485 0.26271 0.0
C503 C 0.26071 0.3731 0.29267 0.0
C504 C 0.23842 0.3781 0.32237 0.0
C505 C 0.24279 0.35075 0.3505 0.0
C506 C 0.27249 0.32948 0.33356 0.0
C507 C 0.28338 0.34301 0.29999 0.0
C508 C 0.25584 0.37181 0.38628 0.0
C509 C 0.20604 0.32677 0.35346 0.0
C510 C 0.38603 0.31261 0.21423 0.0
C511 C 0.41279 0.28757 0.2153 0.0
C512 C 0.41297 0.26453 0.24458 0.0
C513 C 0.38689 0.2662 0.27215 0.0
C514 C 0.36032 0.29126 0.27061 0.0
C515 C 0.3603 0.3141 0.24212 0.0
C516 C 0.33037 0.33947 0.24539 0.0
C517 C 0.31278 0.32839 0.28086 0.0
C518 C 0.3303 0.29993 0.29523 0.0
C519 C 0.34833 0.37925 0.24809 0.0
C520 C 0.30394 0.33082 0.21278 0.0
H521 H 0.23877 0.3027 0.41083 0.0
H522 H 0.32283 0.2043 0.40425 0.0
H523 H 0.29481 0.20834 0.32194 0.0
H524 H 0.33429 0.21906 0.29615 0.0
H525 H 0.33778 0.19463 0.33676 0.0
H526 H 0.37149 0.27653 0.38914 0.0
H527 H 0.38429 0.23606 0.36507 0.0
H528 H 0.38795 0.27987 0.34474 0.0
H529 H 0.19828 0.40977 0.34843 0.0
H530 H 0.2323 0.43952 0.24131 0.0
H531 H 0.27404 0.3919 0.23862 0.0
H532 H 0.27635 0.39497 0.38069 0.0
H533 H 0.23269 0.38328 0.40086 0.0
H534 H 0.2697 0.35482 0.40475 0.0
H535 H 0.19054 0.3248 0.32745 0.0
H536 H 0.20974 0.29809 0.35902 0.0
H537 H 0.18834 0.3383 0.37471 0.0
H538 H 0.23565 0.25835 0.45671 0.0
C539 C 0.25731 0.28181 0.4085 0.0
C540 C 0.51153 0.88242 0.4825 0.0
C541 C 0.50158 0.87935 0.44572 0.0
C542 C 0.48611 0.90845 0.43006 0.0
C543 C 0.48573 0.94076 0.48879 0.0
C544 C 0.50399 0.9137 0.50334 0.0
C545 C 0.51354 0.92222 0.54263 0.0
H546 H 0.50303 0.03423 0.69236 0.0
C547 C 0.47832 0.96744 0.51838 0.0
C548 C 0.49522 0.95726 0.54982 0.0
H549 H 0.56948 0.94359 0.67554 0.0
H550 H 0.54344 0.93057 0.61577 0.0
H551 H 0.4296 0.99258 0.6532 0.0
H552 H 0.51694 0.06759 0.6164 0.0
H553 H 0.47517 0.08154 0.60135 0.0
H554 H 0.48373 0.08048 0.64922 0.0
H555 H 0.43161 0.04073 0.66473 0.0
H556 H 0.41018 0.02101 0.62334 0.0
C557 C 0.496 0.89082 0.56501 0.0
C558 C 0.55575 0.92853 0.54611 0.0
C559 C 0.38635 0.05885 0.498 0.0
C560 C 0.36925 0.08333 0.52141 0.0
C561 C 0.381 0.08848 0.5578 0.0
C562 C 0.40863 0.06863 0.57088 0.0
C563 C 0.42448 0.04322 0.54738 0.0
C564 C 0.41347 0.03896 0.51153 0.0
C565 C 0.43205 0.00976 0.49069 0.0
C566 C 0.45559 -0.00336 0.52016 0.0
C567 C 0.45119 0.01638 0.55323 0.0
C568 C 0.4022 0.97977 0.47685 0.0
C569 C 0.45532 0.02777 0.46029 0.0
C570 C 0.51169 0.01128 0.676 0.0
C571 C 0.53856 0.99006 0.68855 0.0
C572 C 0.54898 0.96044 0.66641 0.0
C573 C 0.53411 0.95315 0.63159 0.0
C574 C 0.50874 0.97583 0.61875 0.0
C575 C 0.49746 0.00396 0.64103 0.0
C576 C 0.47091 0.02572 0.62246 0.0
C577 C 0.46987 0.00734 0.58468 0.0
C578 C 0.49171 0.97791 0.58291 0.0
C579 C 0.43361 0.02011 0.64188 0.0
C580 C 0.4872 0.06607 0.6224 0.0
H581 H 0.46506 0.95995 0.43842 0.0
H582 H 0.52432 0.8607 0.49483 0.0
H583 H 0.56889 0.93509 0.5198 0.0
H584 H 0.56462 0.95229 0.56474 0.0
H585 H 0.56754 0.90389 0.55549 0.0
H586 H 0.46728 0.88315 0.55621 0.0
H587 H 0.51116 0.86611 0.56134 0.0
H588 H 0.49478 0.89836 0.59429 0.0
H589 H 0.37802 0.05425 0.46988 0.0
H590 H 0.36835 0.10731 0.57636 0.0
H591 H 0.41617 0.07341 0.59891 0.0
H592 H 0.3823 0.97306 0.49876 0.0
H593 H 0.38685 0.98913 0.45372 0.0
H594 H 0.41294 0.95373 0.4682 0.0
H595 H 0.46301 0.05733 0.46703 0.0
H596 H 0.4817 0.01578 0.45642 0.0
H597 H 0.44023 0.02561 0.4341 0.0
H598 H 0.47843 0.90657 0.40165 0.0
C599 C 0.47802 0.93917 0.45148 0.0
C600 C 0.1289 0.2956 0.83056 0.0
C601 C 0.09884 0.2706 0.82212 0.0
C602 C 0.10237 0.24129 0.79673 0.0
C603 C 0.16473 0.2652 0.78508 0.0
C604 C 0.16147 0.29243 0.81183 0.0
C605 C 0.19454 0.31938 0.8149 0.0
H606 H 0.34449 0.39654 0.73706 0.0
C607 C 0.20058 0.27277 0.76752 0.0
C608 C 0.21821 0.30423 0.78515 0.0
H609 H 0.28601 0.435 0.83117 0.0
H610 H 0.24899 0.37794 0.83091 0.0
H611 H 0.27267 0.35825 0.69173 0.0
H612 H 0.34946 0.31498 0.76245 0.0
H613 H 0.3336 0.2791 0.73143 0.0
H614 H 0.35885 0.31947 0.71516 0.0
H615 H 0.32106 0.35967 0.68408 0.0
H616 H 0.29175 0.32003 0.6706 0.0
C617 C 0.18274 0.35787 0.80711 0.0
C618 C 0.21178 0.31669 0.85284 0.0
C619 C 0.22805 0.20559 0.64873 0.0
C620 C 0.2582 0.20805 0.62543 0.0
C621 C 0.29037 0.22932 0.63654 0.0
C622 C 0.29137 0.25038 0.66941 0.0
C623 C 0.25991 0.24995 0.69107 0.0
C624 C 0.22973 0.22619 0.68168 0.0
C625 C 0.19995 0.22715 0.70951 0.0
C626 C 0.2166 0.25672 0.73632 0.0
C627 C 0.25121 0.27086 0.72465 0.0
C628 C 0.16538 0.23861 0.69081 0.0
C629 C 0.19469 0.18936 0.72641 0.0
C630 C 0.32375 0.39244 0.75764 0.0
C631 C 0.31747 0.42062 0.78357 0.0
C632 C 0.2908 0.41408 0.81037 0.0
C633 C 0.26931 0.38084 0.81025 0.0
C634 C 0.27389 0.35401 0.7826 0.0
C635 C 0.30144 0.35939 0.75752 0.0
C636 C 0.30184 0.3275 0.73016 0.0
C637 C 0.26868 0.30317 0.74206 0.0
C638 C 0.25242 0.31925 0.77252 0.0
C639 C 0.29664 0.34187 0.69201 0.0
C640 C 0.33782 0.3093 0.7347 0.0
H641 H 0.13639 0.2162 0.75817 0.0
H642 H 0.12642 0.31857 0.84979 0.0
H643 H 0.20975 0.28783 0.86089 0.0
H644 H 0.24131 0.3256 0.85365 0.0
H645 H 0.19763 0.33286 0.87387 0.0
H646 H 0.15638 0.35609 0.79207 0.0
H647 H 0.17928 0.37457 0.83262 0.0
H648 H 0.20204 0.3733 0.78936 0.0
H649 H 0.20335 0.18862 0.64101 0.0
H650 H 0.31397 0.23118 0.61894 0.0
H651 H 0.31606 0.26718 0.67617 0.0
H652 H 0.17264 0.26164 0.67301 0.0
H653 H 0.15187 0.21552 0.67368 0.0
H654 H 0.1451 0.24851 0.70999 0.0
H655 H 0.22051 0.17575 0.72591 0.0
H656 H 0.18718 0.19149 0.75541 0.0
H657 H 0.17371 0.17079 0.71138 0.0
H658 H 0.07907 0.22198 0.78984 0.0
C659 C 0.13545 0.23827 0.77825 0.0
C660 C 0.71026 0.12695 0.77626 0.0
C661 C 0.6779 0.11449 0.75793 0.0
C662 C 0.66485 0.13571 0.7308 0.0
C663 C 0.71757 0.18016 0.73988 0.0
C664 C 0.72929 0.15955 0.76709 0.0
C665 C 0.76386 0.17586 0.78483 0.0
H666 H 0.90951 0.2993 0.78943 0.0
C667 C 0.74493 0.21204 0.73683 0.0
C668 C 0.77181 0.20944 0.76333 0.0
H669 H 0.88281 0.21115 0.86077 0.0
H670 H 0.82602 0.19568 0.82957 0.0
H671 H 0.8315 0.3284 0.79224 0.0
H672 H 0.87934 0.25555 0.71483 0.0
H673 H 0.85641 0.28643 0.69053 0.0
H674 H 0.89353 0.30355 0.7203 0.0
H675 H 0.86245 0.34511 0.75809 0.0
H676 H 0.8139 0.33721 0.74975 0.0
C677 C 0.75552 0.18585 0.82523 0.0
C678 C 0.79304 0.14816 0.77869 0.0
C679 C 0.73765 0.30031 0.63559 0.0
C680 C 0.76175 0.32967 0.625 0.0
C681 C 0.79265 0.34129 0.64633 0.0
C682 C 0.8002 0.32334 0.67753 0.0
C683 C 0.77693 0.29296 0.68709 0.0
C684 C 0.74582 0.28225 0.66677 0.0
C685 C 0.72486 0.24879 0.68097 0.0
C686 C 0.74882 0.24109 0.71272 0.0
C687 C 0.7794 0.26703 0.71589 0.0
C688 C 0.68694 0.25927 0.6936 0.0
C689 C 0.72341 0.21776 0.65087 0.0
C690 C 0.89142 0.27651 0.79806 0.0
C691 C 0.90077 0.25606 0.82728 0.0
C692 C 0.87624 0.2272 0.83829 0.0
C693 C 0.84316 0.21829 0.8201 0.0
C694 C 0.83431 0.23853 0.79066 0.0
C695 C 0.85788 0.26748 0.78042 0.0
C696 C 0.84289 0.28665 0.7494 0.0
C697 C 0.80665 0.26393 0.74252 0.0
C698 C 0.80234 0.23561 0.76641 0.0
C699 C 0.83755 0.32652 0.76271 0.0
C700 C 0.86933 0.28325 0.71697 0.0
H701 H 0.67375 0.18342 0.70049 0.0
H702 H 0.72067 0.11176 0.79774 0.0
H703 H 0.78982 0.13381 0.75142 0.0
H704 H 0.8213 0.1611 0.77908 0.0
H705 H 0.79054 0.12702 0.79916 0.0
H706 H 0.72634 0.19077 0.82924 0.0
H707 H 0.76144 0.16358 0.84291 0.0
H708 H 0.77081 0.21171 0.83539 0.0
H709 H 0.71407 0.29058 0.61906 0.0
H710 H 0.81162 0.36364 0.63816 0.0
H711 H 0.82449 0.33316 0.69234 0.0
H712 H 0.68915 0.28705 0.70737 0.0
H713 H 0.668 0.25947 0.6702 0.0
H714 H 0.67443 0.2409 0.71374 0.0
H715 H 0.75033 0.21712 0.63721 0.0
H716 H 0.71736 0.19036 0.66132 0.0
H717 H 0.70271 0.22182 0.62991 0.0
H718 H 0.63971 0.12668 0.71642 0.0
C719 C 0.68465 0.16851 0.72157 0.0
C720 C 0.52383 0.6609 0.46757 0.0
C721 C 0.49597 0.68415 0.47418 0.0
C722 C 0.47208 0.6778 0.50353 0.0
C723 C 0.50374 0.62592 0.5191 0.0
C724 C 0.52715 0.632 0.49029 0.0
C725 C 0.55495 0.6044 0.48704 0.0
H726 H 0.6266 0.45836 0.55439 0.0
C727 C 0.51433 0.59377 0.53736 0.0
C728 C 0.54431 0.58091 0.51866 0.0
H729 H 0.66145 0.51625 0.45965 0.0
H730 H 0.61342 0.55638 0.46904 0.0
H731 H 0.61237 0.52908 0.60476 0.0
H732 H 0.54459 0.45283 0.53675 0.0
H733 H 0.51619 0.46532 0.57256 0.0
H734 H 0.55659 0.44286 0.58197 0.0
H735 H 0.59915 0.48291 0.61612 0.0
H736 H 0.57166 0.51969 0.62868 0.0
C737 C 0.59334 0.62504 0.49231 0.0
C738 C 0.54922 0.58268 0.45007 0.0
C739 C 0.44682 0.55124 0.65037 0.0
C740 C 0.45168 0.52242 0.67297 0.0
C741 C 0.47854 0.49847 0.66418 0.0
C742 C 0.5008 0.50348 0.634 0.0
C743 C 0.49638 0.53279 0.61216 0.0
C744 C 0.46951 0.55587 0.62008 0.0
C745 C 0.46894 0.58525 0.5932 0.0
C746 C 0.50013 0.576 0.56826 0.0
C747 C 0.51606 0.54542 0.57982 0.0
C748 C 0.47719 0.62281 0.61399 0.0
C749 C 0.43158 0.58027 0.57332 0.0
C750 C 0.62404 0.47977 0.53574 0.0
C751 C 0.64792 0.48429 0.50643 0.0
C752 C 0.64333 0.51223 0.48252 0.0
C753 C 0.61548 0.53554 0.48802 0.0
C754 C 0.59186 0.53075 0.51764 0.0
C755 C 0.59627 0.50302 0.54065 0.0
C756 C 0.56829 0.50114 0.57013 0.0
C757 C 0.54646 0.53256 0.5613 0.0
C758 C 0.56044 0.55003 0.53074 0.0
C759 C 0.58863 0.50829 0.60699 0.0
C760 C 0.54525 0.46361 0.56551 0.0
H761 H 0.45677 0.64558 0.54779 0.0
H762 H 0.54254 0.66495 0.44518 0.0
H763 H 0.51978 0.57888 0.44255 0.0
H764 H 0.55778 0.55468 0.45045 0.0
H765 H 0.56397 0.59725 0.42807 0.0
H766 H 0.59297 0.64706 0.51414 0.0
H767 H 0.60276 0.638 0.46704 0.0
H768 H 0.61406 0.6074 0.50096 0.0
H769 H 0.42634 0.57005 0.65638 0.0
H770 H 0.48279 0.47592 0.68095 0.0
H771 H 0.5209 0.48447 0.6292 0.0
H772 H 0.49817 0.62123 0.63541 0.0
H773 H 0.45229 0.63188 0.62742 0.0
H774 H 0.48874 0.64442 0.59658 0.0
H775 H 0.42139 0.55084 0.57 0.0
H776 H 0.43305 0.58975 0.54542 0.0
H777 H 0.41067 0.5946 0.58872 0.0
H778 H 0.45036 0.69525 0.50927 0.0
C779 C 0.47581 0.64889 0.52596 0.0
C780 C 0.52046 0.40351 0.05762 0.0
C781 C 0.4856 0.3843 0.05798 0.0
C782 C 0.4574 0.39623 0.03701 0.0
C783 C 0.4991 0.44428 0.01425 0.0
C784 C 0.52655 0.43341 0.03564 0.0
C785 C 0.56186 0.457 0.03173 0.0
H786 H 0.65622 0.59804 0.952 0.0
C787 C 0.51461 0.47482 0.9931 0.0
C788 C 0.55137 0.48251 0.00318 0.0
H789 H 0.69158 0.5358 0.03913 0.0
H790 H 0.6343 0.49746 0.0362 0.0
H791 H 0.57334 0.60435 0.98075 0.0
H792 H 0.62081 0.53103 0.90352 0.0
H793 H 0.57567 0.53308 0.88888 0.0
H794 H 0.60694 0.57401 0.89064 0.0
H795 H 0.59412 0.61764 0.93882 0.0
H796 H 0.54704 0.60008 0.94044 0.0
C797 C 0.57113 0.4777 0.06874 0.0
C798 C 0.59133 0.43231 0.01769 0.0
C799 C 0.43734 0.52287 0.89591 0.0
C800 C 0.44643 0.54446 0.86651 0.0
C801 C 0.48177 0.5623 0.86422 0.0
C802 C 0.50805 0.5582 0.89087 0.0
C803 C 0.49912 0.53504 0.91933 0.0
C804 C 0.46425 0.51777 0.9214 0.0
C805 C 0.46098 0.49028 0.9502 0.0
C806 C 0.49952 0.49421 0.96539 0.0
C807 C 0.52152 0.5209 0.94771 0.0
C808 C 0.43306 0.50267 0.97863 0.0
C809 C 0.45073 0.45182 0.93154 0.0
C810 C 0.65158 0.57574 0.96998 0.0
C811 C 0.67803 0.56935 -0.00444 0.0
C812 C 0.67139 0.54064 0.019 0.0
C813 C 0.6381 0.51875 0.01743 0.0
C814 C 0.61127 0.52602 0.99234 0.0
C815 C 0.61838 0.5539 0.9689 0.0
C816 C 0.58653 0.55804 0.94443 0.0
C817 C 0.55853 0.52926 0.95828 0.0
C818 C 0.57329 0.51034 0.98603 0.0
C819 C 0.57453 0.59711 0.95116 0.0
C820 C 0.5979 0.54884 0.90475 0.0
H821 H 0.44139 0.43352 -0.00024 0.0
H822 H 0.54258 0.39532 0.07378 0.0
H823 H 0.57995 0.41248 -0.00413 0.0
H824 H 0.61496 0.44773 0.00549 0.0
H825 H 0.60129 0.41642 0.03983 0.0
H826 H 0.54602 0.48189 0.08467 0.0
H827 H 0.58888 0.46229 0.08547 0.0
H828 H 0.58436 0.5056 0.06575 0.0
H829 H 0.41077 0.50762 0.89727 0.0
H830 H 0.4893 0.57846 0.84123 0.0
H831 H 0.53466 0.57212 0.88759 0.0
H832 H 0.43648 0.53288 0.98382 0.0
H833 H 0.40462 0.49512 0.96902 0.0
H834 H 0.43659 0.4913 0.00536 0.0
H835 H 0.46059 0.45025 0.90305 0.0
H836 H 0.46369 0.42986 0.94453 0.0
H837 H 0.42069 0.44499 0.93086 0.0
H838 H 0.4302 0.38218 0.03697 0.0
C839 C 0.46394 0.42609 0.01528 0.0
C840 C 0.77658 0.13301 0.31722 0.0
C841 C 0.78367 0.11067 0.2867 0.0
C842 C 0.76763 0.11694 0.25315 0.0
C843 C 0.73767 0.16744 0.28159 0.0
C844 C 0.75442 0.16139 0.31394 0.0
C845 C 0.74774 0.18933 0.34347 0.0
H846 H 0.68438 0.34855 0.39763 0.0
C847 C 0.71777 0.20054 0.28765 0.0
C848 C 0.72463 0.21379 0.32358 0.0
H849 H 0.74384 0.27629 0.45947 0.0
H850 H 0.74249 0.233 0.40882 0.0
H851 H 0.62784 0.27663 0.35955 0.0
H852 H 0.72356 0.34291 0.32647 0.0
H853 H 0.69665 0.33224 0.28742 0.0
H854 H 0.67902 0.35905 0.32478 0.0
H855 H 0.62908 0.32493 0.35386 0.0
H856 H 0.62018 0.29241 0.31633 0.0
C857 C 0.72605 0.16961 0.374 0.0
C858 C 0.78522 0.20932 0.35539 0.0
C859 C 0.62241 0.23494 0.19927 0.0
C860 C 0.60104 0.26486 0.19939 0.0
C861 C 0.60996 0.29538 0.22327 0.0
C862 C 0.63735 0.29462 0.2494 0.0
C863 C 0.656 0.26311 0.25139 0.0
C864 C 0.65045 0.23503 0.22504 0.0
C865 C 0.67673 0.20618 0.22917 0.0
C866 C 0.69457 0.21891 0.26537 0.0
C867 C 0.68176 0.2521 0.27832 0.0
C868 C 0.65516 0.16825 0.23079 0.0
C869 C 0.70445 0.20862 0.19763 0.0
C870 C 0.69684 0.32323 0.40026 0.0
C871 C 0.71477 0.31616 0.43244 0.0
C872 C 0.73006 0.28262 0.43497 0.0
C873 C 0.72946 0.25748 0.40533 0.0
C874 C 0.71324 0.26573 0.37276 0.0
C875 C 0.6962 0.29749 0.37088 0.0
C876 C 0.67838 0.30021 0.33457 0.0
C877 C 0.68963 0.26585 0.31439 0.0
C878 C 0.71014 0.24613 0.33699 0.0
C879 C 0.63667 0.29867 0.34107 0.0
C880 C 0.69491 0.3355 0.31731 0.0
H881 H 0.7321 0.14846 0.22463 0.0
H882 H 0.78907 0.12927 0.34319 0.0
H883 H 0.80428 0.21158 0.33203 0.0
H884 H 0.78345 0.23785 0.36562 0.0
H885 H 0.79838 0.19434 0.37639 0.0
H886 H 0.70875 0.14512 0.36295 0.0
H887 H 0.7447 0.16024 0.3945 0.0
H888 H 0.70653 0.18684 0.38777 0.0
H889 H 0.61664 0.21171 0.18022 0.0
H890 H 0.59408 0.3188 0.22338 0.0
H891 H 0.64206 0.31805 0.2679 0.0
H892 H 0.63337 0.16904 0.25164 0.0
H893 H 0.64207 0.1596 0.20425 0.0
H894 H 0.67264 0.14684 0.23795 0.0
H895 H 0.70835 0.2368 0.18782 0.0
H896 H 0.73202 0.20253 0.20598 0.0
H897 H 0.69507 0.18993 0.17419 0.0
H898 H 0.77274 0.0998 0.22926 0.0
C899 C 0.74423 0.14508 0.25053 0.0
C900 C 0.34505 0.99264 0.01076 0.0
C901 C 0.33995 0.95531 0.00054 0.0
C902 C 0.36839 0.93788 0.98352 0.0
C903 C 0.40604 -0.00457 0.98556 0.0
C904 C 0.3786 0.01192 0.00384 0.0
C905 C 0.38994 0.05095 0.01581 0.0
H906 H 0.52504 0.18636 0.04161 0.0
C907 C 0.43748 0.02285 0.98297 0.0
C908 C 0.42872 0.05508 0.00157 0.0
H909 H 0.41144 0.18693 0.07127 0.0
H910 H 0.39796 0.1276 0.0407 0.0
H911 H 0.50528 0.15957 0.9607 0.0
H912 H 0.53714 0.10097 0.05128 0.0
H913 H 0.562 0.08738 0.01265 0.0
H914 H 0.5665 0.13457 0.02907 0.0
H915 H 0.55238 0.1569 0.97159 0.0
H916 H 0.52745 0.12294 0.9418 0.0
C917 C 0.36484 0.0759 -0.00315 0.0
C918 C 0.3887 0.05405 0.05781 0.0
C919 C 0.53977 0.00149 0.89522 0.0
C920 C 0.572 0.02283 0.88723 0.0
C921 C 0.58397 0.05325 0.91029 0.0
C922 C 0.56231 0.06422 0.93935 0.0
C923 C 0.52868 0.04427 0.94541 0.0
C924 C 0.51882 0.01233 0.92487 0.0
C925 C 0.48342 0.99327 0.93731 0.0
C926 C 0.47152 0.02166 0.96519 0.0
C927 C 0.49804 0.05152 0.96962 0.0
C928 C 0.45663 0.98713 0.9048 0.0
C929 C 0.49172 0.95741 0.95478 0.0
C930 C 0.49734 0.17349 0.04134 0.0
C931 C 0.46926 0.19063 0.05919 0.0
C932 C 0.43333 0.17395 0.05762 0.0
C933 C 0.42568 0.13941 0.04024 0.0
C934 C 0.45422 0.1217 0.02393 0.0
C935 C 0.489 0.13936 0.02313 0.0
C936 C 0.51459 0.11806 0.00038 0.0
C937 C 0.49004 0.0835 0.99024 0.0
C938 C 0.45507 0.08564 0.00488 0.0
C939 C 0.52583 0.14036 0.96697 0.0
C940 C 0.54701 0.10986 0.02438 0.0
H941 H 0.42201 0.94358 0.96208 0.0
H942 H 0.32363 0.00634 0.02444 0.0
H943 H 0.40052 0.03039 0.06941 0.0
H944 H 0.40479 0.07847 0.06978 0.0
H945 H 0.36013 0.05425 0.06755 0.0
H946 H 0.3537 0.06282 0.97082 0.0
H947 H 0.34126 0.08201 0.01424 0.0
H948 H 0.37965 0.1019 0.98916 0.0
H949 H 0.53065 0.97759 0.87807 0.0
H950 H 0.60893 0.06986 0.90443 0.0
H951 H 0.5719 0.08847 0.95526 0.0
H952 H 0.45481 0.01307 0.891 0.0
H953 H 0.46585 0.96646 0.88463 0.0
H954 H 0.42867 0.97758 0.91296 0.0
H955 H 0.52139 0.95633 0.95999 0.0
H956 H 0.47861 0.95471 0.9817 0.0
H957 H 0.48261 0.93294 0.93703 0.0
H958 H 0.36466 0.90901 0.97545 0.0
C959 C 0.40144 0.95789 0.97571 0.0
O960 O 0.23629 0.83664 0.99093 0.0
Cd961 Cd 0.25779 0.87026 0.03281 0.0
Cd962 Cd 0.22417 0.92237 0.99173 0.0
O963 O 0.21426 0.87717 0.95684 0.0
O964 O 0.27998 0.83544 0.06374 0.0
O965 O 0.23596 0.86863 0.0832 0.0
C966 C 0.25843 0.84468 0.08932 0.0
C967 C 0.17735 0.95996 0.00083 0.0
C968 C 0.2209 0.84455 0.96199 0.0
C969 C 0.30458 0.93497 0.00617 0.0
O970 O 0.27604 0.94764 0.99478 0.0
O971 O 0.30315 0.90449 0.0209 0.0
O972 O 0.19582 0.96 0.97119 0.0
O973 O 0.18539 0.93815 0.02536 0.0
O974 O 0.17584 0.55717 0.28451 0.0
Cd975 Cd 0.15572 0.50919 0.30584 0.0
Cd976 Cd 0.09296 0.52549 0.27207 0.0
O977 O 0.12475 0.57267 0.2609 0.0
O978 O 0.19879 0.48551 0.32258 0.0
O979 O 0.16198 0.46129 0.27838 0.0
C980 C 0.19036 0.45945 0.29855 0.0
C981 C 0.05805 0.50136 0.22277 0.0
C982 C 0.15851 0.57958 0.26782 0.0
C983 C 0.09028 0.51701 0.35247 0.0
O984 O 0.0724 0.51978 0.32351 0.0
O985 O 0.12435 0.514 0.35172 0.0
O986 O 0.04925 0.52952 0.24186 0.0
O987 O 0.0861 0.4856 0.23281 0.0
O988 O 0.75467 0.70301 0.98836 0.0
Cd989 Cd 0.74665 0.6673 0.0294 0.0
Cd990 Cd 0.78627 0.62553 0.9872 0.0
O991 O 0.79161 0.6704 0.95593 0.0
O992 O 0.72527 0.69532 0.07008 0.0
O993 O 0.77968 0.6742 0.07321 0.0
C994 C 0.75434 0.69165 0.08842 0.0
C995 C 0.83792 0.60137 0.00813 0.0
C996 C 0.77512 0.69914 0.96093 0.0
C997 C 0.71038 0.59528 0.00047 0.0
O998 O 0.73905 0.59076 0.98233 0.0
O999 O 0.70838 0.62333 0.02158 0.0
O1000 O 0.8271 0.59559 0.97491 0.0
O1001 O 0.81957 0.62175 0.02954 0.0
O1002 O 0.93142 0.02688 0.30597 0.0
Cd1003 Cd 0.90014 0.00943 0.26117 0.0
Cd1004 Cd 0.84722 0.037 0.30235 0.0
O1005 O 0.88845 0.0489 0.34008 0.0
O1006 O 0.93807 0.99293 0.22804 0.0
O1007 O 0.90467 0.03772 0.21568 0.0
C1008 C 0.9304 0.01748 0.20646 0.0
C1009 C 0.80765 0.08123 0.29121 0.0
C1010 C 0.92137 0.04203 0.33548 0.0
C1011 C 0.83742 0.95713 0.28238 0.0
O1012 O 0.82513 0.98396 0.29991 0.0
O1013 O 0.8664 0.96167 0.26387 0.0
O1014 O 0.80751 0.0653 0.32145 0.0
O1015 O 0.83066 0.07221 0.26665 0.0
O1016 O 0.25467 0.20301 0.48836 0.0
Cd1017 Cd 0.24665 0.1673 0.5294 0.0
Cd1018 Cd 0.28627 0.12553 0.4872 0.0
O1019 O 0.29161 0.1704 0.45593 0.0
O1020 O 0.22527 0.19532 0.57008 0.0
O1021 O 0.27968 0.1742 0.57321 0.0
C1022 C 0.25434 0.19165 0.58842 0.0
C1023 C 0.33792 0.10137 0.50813 0.0
C1024 C 0.27512 0.19913 0.46093 0.0
C1025 C 0.21038 0.09528 0.50047 0.0
O1026 O 0.23905 0.09076 0.48233 0.0
O1027 O 0.20838 0.12333 0.52158 0.0
O1028 O 0.3271 0.09559 0.47491 0.0
O1029 O 0.31957 0.12175 0.52953 0.0
O1030 O 0.43142 0.52688 0.80597 0.0
Cd1031 Cd 0.40014 0.50943 0.76116 0.0
Cd1032 Cd 0.34723 0.537 0.80235 0.0
O1033 O 0.38845 0.5489 0.84008 0.0
O1034 O 0.43807 0.49293 0.72804 0.0
O1035 O 0.40467 0.53772 0.71568 0.0
C1036 C 0.4304 0.51748 0.70646 0.0
C1037 C 0.30765 0.58123 0.79121 0.0
C1038 C 0.42137 0.54203 0.83548 0.0
C1039 C 0.33742 0.45713 0.78238 0.0
O1040 O 0.32513 0.48396 0.79991 0.0
O1041 O 0.3664 0.46167 0.76387 0.0
O1042 O 0.30751 0.5653 0.82145 0.0
O1043 O 0.33067 0.57221 0.76665 0.0
O1044 O 0.73629 0.33664 0.49093 0.0
Cd1045 Cd 0.75779 0.37026 0.53281 0.0
Cd1046 Cd 0.72417 0.42237 0.49173 0.0
O1047 O 0.71426 0.37717 0.45684 0.0
O1048 O 0.77998 0.33544 0.56374 0.0
O1049 O 0.73596 0.36863 0.5832 0.0
C1050 C 0.75843 0.34468 0.58932 0.0
C1051 C 0.67735 0.45996 0.50083 0.0
C1052 C 0.7209 0.34455 0.46199 0.0
C1053 C 0.80458 0.43497 0.50617 0.0
O1054 O 0.77604 0.44764 0.49478 0.0
O1055 O 0.80315 0.40449 0.5209 0.0
O1056 O 0.69582 0.46 0.47119 0.0
O1057 O 0.68539 0.43815 0.52536 0.0
O1058 O 0.67584 0.05717 0.78451 0.0
Cd1059 Cd 0.65572 0.00919 0.80584 0.0
Cd1060 Cd 0.59296 0.02548 0.77207 0.0
O1061 O 0.62475 0.07267 0.7609 0.0
O1062 O 0.69879 0.98551 0.82258 0.0
O1063 O 0.66198 0.96129 0.77838 0.0
C1064 C 0.69036 0.95945 0.79855 0.0
C1065 C 0.55804 0.00135 0.72277 0.0
C1066 C 0.65851 0.07958 0.76782 0.0
C1067 C 0.59028 0.01701 0.85247 0.0
O1068 O 0.5724 0.01978 0.82351 0.0
O1069 O 0.62435 0.014 0.85172 0.0
O1070 O 0.54925 0.02952 0.74186 0.0
O1071 O 0.5861 0.9856 0.73281 0.0
O1072 O 0.99341 0.31497 0.93954 0.0
Cd1073 Cd 0.98233 0.26355 0.91473 0.0
Cd1074 Cd 0.00957 0.29838 0.85793 0.0
O1075 O 0.01036 0.34468 0.89111 0.0
O1076 O 0.96447 0.23457 0.95614 0.0
O1077 O 0.01344 0.22267 0.92468 0.0
C1078 C 0.99127 0.21479 0.95082 0.0
C1079 C 0.06309 0.27938 0.83519 0.0
C1080 C 0.00327 0.34461 0.92469 0.0
C1081 C 0.93549 0.26501 0.84683 0.0
O1082 O 0.96164 0.28319 0.83177 0.0
O1083 O 0.93879 0.25474 0.87892 0.0
O1084 O 0.04836 0.30628 0.82181 0.0
O1085 O 0.04727 0.26282 0.86175 0.0
O1086 O 0.49341 0.81497 0.43953 0.0
Cd1087 Cd 0.48233 0.76355 0.41473 0.0
Cd1088 Cd 0.50957 0.79838 0.35793 0.0
O1089 O 0.51036 0.84468 0.39111 0.0
O1090 O 0.46447 0.73457 0.45614 0.0
O1091 O 0.51345 0.72267 0.42468 0.0
C1092 C 0.49127 0.71479 0.45082 0.0
C1093 C 0.56309 0.77938 0.33519 0.0
C1094 C 0.50327 0.84461 0.42469 0.0
C1095 C 0.43549 0.76501 0.34683 0.0
O1096 O 0.46165 0.78319 0.33177 0.0
O1097 O 0.43879 0.75474 0.37892 0.0
O1098 O 0.54837 0.80628 0.32181 0.0
O1099 O 0.54727 0.76282 0.36175 0.0
O1100 O 0.96546 0.7643 0.68769 0.0
Cd1101 Cd 0.00891 0.75877 0.65208 0.0
Cd1102 Cd 0.96544 0.79891 0.61095 0.0
O1103 O 0.93649 0.80345 0.65791 0.0
O1104 O 0.0445 0.73322 0.67977 0.0
O1105 O 0.05619 0.7898 0.66255 0.0
C1106 C 0.06666 0.76229 0.6788 0.0
C1107 C 0.97828 0.85154 0.57926 0.0
C1108 C 0.93976 0.78512 0.68567 0.0
C1109 C 0.97751 0.72382 0.58246 0.0
O1110 O 0.95756 0.75008 0.58102 0.0
O1111 O 0.00181 0.72386 0.60677 0.0
O1112 O 0.94599 0.83475 0.5796 0.0
O1113 O 0.00373 0.83839 0.59729 0.0
O1114 O 0.46546 0.2643 0.18769 0.0
Cd1115 Cd 0.50891 0.25877 0.15208 0.0
Cd1116 Cd 0.46544 0.29891 0.11095 0.0
O1117 O 0.43649 0.30345 0.15791 0.0
O1118 O 0.5445 0.23322 0.17977 0.0
O1119 O 0.55619 0.2898 0.16255 0.0
C1120 C 0.56666 0.26229 0.1788 0.0
C1121 C 0.47828 0.35154 0.07926 0.0
C1122 C 0.43976 0.28512 0.18567 0.0
C1123 C 0.47751 0.22382 0.08245 0.0
O1124 O 0.45756 0.25008 0.08102 0.0
O1125 O 0.50181 0.22386 0.10677 0.0
O1126 O 0.44599 0.33475 0.0796 0.0
O1127 O 0.50373 0.33839 0.09729 0.0
loop_
_geom_bond_atom_site_label_1
_geom_bond_atom_site_label_2
_geom_bond_distance
_geom_bond_site_symmetry_2
_ccdc_geom_bond_type
C0 C1 1.391 . S
C0 C4 1.391 . S
C0 H42 0.948 . S
C1 C0 1.391 . S
C1 C2 1.391 . S
C2 C1 1.391 . S
C2 H58 0.947 . S
C2 C59 1.392 . S
C3 C4 1.391 . S
C3 C7 1.397 . S
C3 C59 1.419 . S
C4 C0 1.391 . S
C4 C3 1.391 . S
C4 C5 1.399 . S
C5 C4 1.399 . S
C5 C8 1.396 . S
C5 C17 1.453 . S
C5 C18 1.684 . S
H6 C30 0.948 . S
C7 C3 1.397 . S
C7 C8 1.394 . S
C7 C26 1.723 . S
C8 C5 1.396 . S
C8 C7 1.394 . S
C8 C38 1.723 . S
H9 C32 0.947 . S
H10 C33 0.948 . S
H11 C39 0.982 . S
H12 C40 0.979 . S
H13 C40 0.980 . S
H14 C40 0.983 . S
H15 C39 0.979 . S
H16 C39 0.977 . S
C17 C5 1.453 . S
C17 H46 0.982 . S
C17 H47 0.979 . S
C17 H48 0.977 . S
C18 C5 1.684 . S
C18 H43 0.979 . S
C18 H44 0.980 . S
C18 H45 0.983 1_554 S
C19 C20 1.391 . S
C19 C24 1.391 . S
C19 H49 0.948 1_455 S
C20 C19 1.391 . S
C20 C21 1.391 . S
C21 C20 1.391 . S
C21 C22 1.392 . S
C21 H50 0.947 . S
C22 C21 1.392 . S
C22 C23 1.419 . S
C22 H51 0.948 . S
C23 C22 1.419 . S
C23 C24 1.391 . S
C23 C27 1.397 . S
C24 C19 1.391 . S
C24 C23 1.391 . S
C24 C25 1.399 . S
C25 C24 1.399 . S
C25 C26 1.396 . S
C25 C28 1.453 . S
C25 C29 1.665 1_455 S
C26 C7 1.723 . S
C26 C25 1.396 . S
C26 C27 1.394 . S
C27 C23 1.397 . S
C27 C26 1.394 . S
C27 C37 1.723 . S
C28 C25 1.453 . S
C28 H52 0.982 . S
C28 H53 0.979 . S
C28 H54 0.977 . S
C29 C25 1.665 1_655 S
C29 H55 0.986 . S
C29 H56 0.977 1_655 S
C29 H57 0.998 . S
C30 H6 0.948 . S
C30 C31 1.391 . S
C30 C35 1.391 . S
C31 C30 1.391 . S
C31 C32 1.391 . S
C32 H9 0.947 . S
C32 C31 1.391 . S
C32 C33 1.392 . S
C33 H10 0.948 . S
C33 C32 1.392 . S
C33 C34 1.419 . S
C34 C33 1.419 . S
C34 C35 1.391 . S
C34 C38 1.397 . S
C35 C30 1.391 . S
C35 C34 1.391 . S
C35 C36 1.399 . S
C36 C35 1.399 . S
C36 C37 1.396 . S
C36 C39 1.453 . S
C36 C40 1.684 . S
C37 C27 1.723 . S
C37 C36 1.396 . S
C37 C38 1.394 . S
C38 C8 1.723 . S
C38 C34 1.397 . S
C38 C37 1.394 . S
C39 H11 0.982 . S
C39 H15 0.979 . S
C39 H16 0.977 . S
C39 C36 1.453 . S
C40 H12 0.979 . S
C40 H13 0.980 . S
C40 H14 0.983 . S
C40 C36 1.684 . S
H41 C59 0.948 . S
H42 C0 0.948 . S
H43 C18 0.979 . S
H44 C18 0.980 . S
H45 C18 0.983 1_556 S
H46 C17 0.982 . S
H47 C17 0.979 . S
H48 C17 0.977 . S
H49 C19 0.948 1_655 S
H50 C21 0.947 . S
H51 C22 0.948 . S
H52 C28 0.982 . S
H53 C28 0.979 . S
H54 C28 0.977 . S
H55 C29 0.986 . S
H56 C29 0.977 1_455 S
H57 C29 0.998 . S
H58 C2 0.947 . S
C59 C2 1.392 . S
C59 C3 1.419 . S
C59 H41 0.948 . S
C60 C61 1.391 . S
C60 C64 1.391 . S
C60 H102 0.948 . S
C61 C60 1.391 . S
C61 C62 1.391 . S
C62 C61 1.391 . S
C62 H118 0.947 . S
C62 C119 1.392 . S
C63 C64 1.391 . S
C63 C67 1.397 . S
C63 C119 1.419 . S
C64 C60 1.391 . S
C64 C63 1.391 . S
C64 C65 1.399 . S
C65 C64 1.399 . S
C65 C68 1.396 . S
C65 C77 1.453 . S
C65 C78 1.684 . S
H66 C90 0.948 . S
C67 C63 1.397 . S
C67 C68 1.394 . S
C67 C86 1.723 . S
C68 C65 1.396 . S
C68 C67 1.394 . S
C68 C98 1.723 . S
H69 C92 0.947 . S
H70 C93 0.948 . S
H71 C99 0.982 . S
H72 C100 0.979 . S
H73 C100 0.980 . S
H74 C100 0.983 . S
H75 C99 0.979 . S
H76 C99 0.977 . S
C77 C65 1.453 . S
C77 H106 0.982 . S
C77 H107 0.979 . S
C77 H108 0.977 . S
C78 C65 1.684 . S
C78 H103 0.979 . S
C78 H104 0.980 . S
C78 H105 0.983 . S
C79 C80 1.391 . S
C79 C84 1.391 . S
C79 H109 0.948 . S
C80 C79 1.391 . S
C80 C81 1.391 . S
C81 C80 1.391 . S
C81 C82 1.392 . S
C81 H110 0.947 . S
C82 C81 1.392 . S
C82 C83 1.419 . S
C82 H111 0.948 . S
C83 C82 1.419 . S
C83 C84 1.391 . S
C83 C87 1.397 . S
C84 C79 1.391 . S
C84 C83 1.391 . S
C84 C85 1.399 . S
C85 C84 1.399 . S
C85 C86 1.396 . S
C85 C88 1.453 . S
C85 C89 1.684 . S
C86 C67 1.723 . S
C86 C85 1.396 . S
C86 C87 1.394 . S
C87 C83 1.397 . S
C87 C86 1.394 . S
C87 C97 1.723 . S
C88 C85 1.453 . S
C88 H112 0.982 . S
C88 H113 0.979 . S
C88 H114 0.977 . S
C89 C85 1.684 . S
C89 H115 0.979 . S
C89 H116 0.980 . S
C89 H117 0.983 . S
C90 H66 0.948 . S
C90 C91 1.391 . S
C90 C95 1.391 . S
C91 C90 1.391 . S
C91 C92 1.391 . S
C92 H69 0.947 . S
C92 C91 1.391 . S
C92 C93 1.392 . S
C93 H70 0.948 . S
C93 C92 1.392 . S
C93 C94 1.419 . S
C94 C93 1.419 . S
C94 C95 1.391 . S
C94 C98 1.397 . S
C95 C90 1.391 . S
C95 C94 1.391 . S
C95 C96 1.399 . S
C96 C95 1.399 . S
C96 C97 1.396 . S
C96 C99 1.453 . S
C96 C100 1.684 . S
C97 C87 1.723 . S
C97 C96 1.396 . S
C97 C98 1.394 . S
C98 C68 1.723 . S
C98 C94 1.397 . S
C98 C97 1.394 . S
C99 H71 0.982 . S
C99 H75 0.979 . S
C99 H76 0.977 . S
C99 C96 1.453 . S
C100 H72 0.979 . S
C100 H73 0.980 . S
C100 H74 0.983 . S
C100 C96 1.684 . S
H101 C119 0.948 . S
H102 C60 0.948 . S
H103 C78 0.979 . S
H104 C78 0.980 . S
H105 C78 0.983 . S
H106 C77 0.982 . S
H107 C77 0.979 . S
H108 C77 0.977 . S
H109 C79 0.948 . S
H110 C81 0.947 . S
H111 C82 0.948 . S
H112 C88 0.982 . S
H113 C88 0.979 . S
H114 C88 0.977 . S
H115 C89 0.979 . S
H116 C89 0.980 . S
H117 C89 0.983 . S
H118 C62 0.947 . S
C119 C62 1.392 . S
C119 C63 1.419 . S
C119 H101 0.948 . S
C120 C121 1.391 1_554 S
C120 C124 1.391 . S
C120 H162 0.948 . S
C121 C120 1.391 1_556 S
C121 C122 1.391 . S
C122 C121 1.391 . S
C122 H178 0.947 . S
C122 C179 1.392 . S
C123 C124 1.391 . S
C123 C127 1.397 . S
C123 C179 1.419 1_554 S
C124 C120 1.391 . S
C124 C123 1.391 . S
C124 C125 1.399 . S
C125 C124 1.399 . S
C125 C128 1.396 . S
C125 C137 1.453 . S
C125 C138 1.689 . S
H126 C150 0.948 . S
C127 C123 1.397 . S
C127 C128 1.394 . S
C127 C146 1.723 . S
C128 C125 1.396 . S
C128 C127 1.394 . S
C128 C158 1.723 . S
H129 C152 0.947 . S
H130 C153 0.948 . S
H131 C159 0.982 . S
H132 C160 0.979 . S
H133 C160 0.980 . S
H134 C160 0.983 . S
H135 C159 0.979 . S
H136 C159 0.977 . S
C137 C125 1.453 . S
C137 H166 0.982 . S
C137 H167 0.979 . S
C137 H168 0.977 . S
C138 C125 1.689 . S
C138 H163 0.977 1_655 S
C138 H164 0.979 1_655 S
C138 H165 0.981 1_655 S
C139 C140 1.391 . S
C139 C144 1.391 . S
C139 H169 0.948 . S
C140 C139 1.391 . S
C140 C141 1.391 . S
C141 C140 1.391 . S
C141 C142 1.392 . S
C141 H170 0.947 . S
C142 C141 1.392 . S
C142 C143 1.419 . S
C142 H171 0.948 . S
C143 C142 1.419 . S
C143 C144 1.391 . S
C143 C147 1.397 . S
C144 C139 1.391 . S
C144 C143 1.391 . S
C144 C145 1.399 . S
C145 C144 1.399 . S
C145 C146 1.396 . S
C145 C148 1.453 . S
C145 C149 1.684 1_554 S
C146 C127 1.723 . S
C146 C145 1.396 . S
C146 C147 1.394 . S
C147 C143 1.397 . S
C147 C146 1.394 . S
C147 C157 1.723 . S
C148 C145 1.453 . S
C148 H172 0.982 . S
C148 H173 0.979 . S
C148 H174 0.977 . S
C149 C145 1.684 1_556 S
C149 H175 0.979 . S
C149 H176 0.980 . S
C149 H177 0.983 . S
C150 H126 0.948 . S
C150 C151 1.391 . S
C150 C155 1.391 . S
C151 C150 1.391 . S
C151 C152 1.391 1_655 S
C152 H129 0.947 . S
C152 C151 1.391 1_455 S
C152 C153 1.392 1_455 S
C153 H130 0.948 . S
C153 C152 1.392 1_655 S
C153 C154 1.419 . S
C154 C153 1.419 . S
C154 C155 1.391 . S
C154 C158 1.397 . S
C155 C150 1.391 . S
C155 C154 1.391 . S
C155 C156 1.399 . S
C156 C155 1.399 . S
C156 C157 1.396 . S
C156 C159 1.453 . S
C156 C160 1.684 . S
C157 C147 1.723 . S
C157 C156 1.396 . S
C157 C158 1.394 . S
C158 C128 1.723 . S
C158 C154 1.397 . S
C158 C157 1.394 . S
C159 H131 0.982 . S
C159 H135 0.979 . S
C159 H136 0.977 . S
C159 C156 1.453 . S
C160 H132 0.979 . S
C160 H133 0.980 . S
C160 H134 0.983 . S
C160 C156 1.684 . S
H161 C179 0.948 . S
H162 C120 0.948 . S
H163 C138 0.977 1_455 S
H164 C138 0.979 1_455 S
H165 C138 0.981 1_455 S
H166 C137 0.982 . S
H167 C137 0.979 . S
H168 C137 0.977 . S
H169 C139 0.948 . S
H170 C141 0.947 . S
H171 C142 0.948 . S
H172 C148 0.982 . S
H173 C148 0.979 . S
H174 C148 0.977 . S
H175 C149 0.979 . S
H176 C149 0.980 . S
H177 C149 0.983 . S
H178 C122 0.947 . S
C179 C122 1.392 . S
C179 C123 1.419 1_556 S
C179 H161 0.948 . S
C180 C181 1.391 . S
C180 C184 1.391 . S
C180 H222 0.948 . S
C181 C180 1.391 . S
C181 C182 1.391 . S
C182 C181 1.391 . S
C182 H238 0.947 . S
C182 C239 1.392 . S
C183 C184 1.391 . S
C183 C187 1.397 . S
C183 C239 1.419 . S
C184 C180 1.391 . S
C184 C183 1.391 . S
C184 C185 1.399 . S
C185 C184 1.399 . S
C185 C188 1.396 . S
C185 C197 1.453 . S
C185 C198 1.684 . S
H186 C210 0.948 . S
C187 C183 1.397 . S
C187 C188 1.394 . S
C187 C206 1.723 . S
C188 C185 1.396 . S
C188 C187 1.394 . S
C188 C218 1.723 . S
H189 C212 0.947 . S
H190 C213 0.948 . S
H191 C219 0.982 . S
H192 C220 0.979 . S
H193 C220 0.980 . S
H194 C220 0.983 . S
H195 C219 0.979 . S
H196 C219 0.977 . S
C197 C185 1.453 . S
C197 H226 0.982 . S
C197 H227 0.979 . S
C197 H228 0.977 . S
C198 C185 1.684 . S
C198 H223 0.979 . S
C198 H224 0.980 . S
C198 H225 0.983 . S
C199 C200 1.391 . S
C199 C204 1.391 . S
C199 H229 0.948 . S
C200 C199 1.391 . S
C200 C201 1.391 . S
C201 C200 1.391 . S
C201 C202 1.392 . S
C201 H230 0.947 . S
C202 C201 1.392 . S
C202 C203 1.419 . S
C202 H231 0.948 . S
C203 C202 1.419 . S
C203 C204 1.391 . S
C203 C207 1.397 . S
C204 C199 1.391 . S
C204 C203 1.391 . S
C204 C205 1.399 . S
C205 C204 1.399 . S
C205 C206 1.396 . S
C205 C208 1.453 . S
C205 C209 1.684 . S
C206 C187 1.723 . S
C206 C205 1.396 . S
C206 C207 1.394 . S
C207 C203 1.397 . S
C207 C206 1.394 . S
C207 C217 1.723 . S
C208 C205 1.453 . S
C208 H232 0.982 . S
C208 H233 0.979 . S
C208 H234 0.977 . S
C209 C205 1.684 . S
C209 H235 0.979 . S
C209 H236 0.980 . S
C209 H237 0.983 . S
C210 H186 0.948 . S
C210 C211 1.391 . S
C210 C215 1.391 . S
C211 C210 1.391 . S
C211 C212 1.391 . S
C212 H189 0.947 . S
C212 C211 1.391 . S
C212 C213 1.392 . S
C213 H190 0.948 . S
C213 C212 1.392 . S
C213 C214 1.419 . S
C214 C213 1.419 . S
C214 C215 1.391 . S
C214 C218 1.397 . S
C215 C210 1.391 . S
C215 C214 1.391 . S
C215 C216 1.399 . S
C216 C215 1.399 . S
C216 C217 1.396 . S
C216 C219 1.453 . S
C216 C220 1.684 . S
C217 C207 1.723 . S
C217 C216 1.396 . S
C217 C218 1.394 . S
C218 C188 1.723 . S
C218 C214 1.397 . S
C218 C217 1.394 . S
C219 H191 0.982 . S
C219 H195 0.979 . S
C219 H196 0.977 . S
C219 C216 1.453 . S
C220 H192 0.979 . S
C220 H193 0.980 . S
C220 H194 0.983 . S
C220 C216 1.684 . S
H221 C239 0.948 . S
H222 C180 0.948 . S
H223 C198 0.979 . S
H224 C198 0.980 . S
H225 C198 0.983 . S
H226 C197 0.982 . S
H227 C197 0.979 . S
H228 C197 0.977 . S
H229 C199 0.948 . S
H230 C201 0.947 . S
H231 C202 0.948 . S
H232 C208 0.982 . S
H233 C208 0.979 . S
H234 C208 0.977 . S
H235 C209 0.979 . S
H236 C209 0.980 . S
H237 C209 0.983 . S
H238 C182 0.947 . S
C239 C182 1.392 . S
C239 C183 1.419 . S
C239 H221 0.948 . S
C240 C241 1.391 . S
C240 C244 1.391 . S
C240 H282 0.948 . S
C241 C240 1.391 . S
C241 C242 1.391 . S
C242 C241 1.391 . S
C242 H298 0.947 1_455 S
C242 C299 1.392 . S
C243 C244 1.391 . S
C243 C247 1.397 . S
C243 C299 1.419 . S
C244 C240 1.391 . S
C244 C243 1.391 . S
C244 C245 1.399 . S
C245 C244 1.399 . S
C245 C248 1.396 . S
C245 C257 1.453 . S
C245 C258 1.684 . S
H246 C270 0.948 . S
C247 C243 1.397 . S
C247 C248 1.394 . S
C247 C266 1.723 . S
C248 C245 1.396 . S
C248 C247 1.394 . S
C248 C278 1.723 . S
H249 C272 0.947 . S
H250 C273 0.948 . S
H251 C279 0.982 . S
H252 C280 0.979 . S
H253 C280 0.980 . S
H254 C280 0.983 . S
H255 C279 0.979 . S
H256 C279 0.977 . S
C257 C245 1.453 . S
C257 H286 0.982 . S
C257 H287 0.979 . S
C257 H288 0.977 . S
C258 C245 1.684 . S
C258 H283 0.979 . S
C258 H284 0.980 . S
C258 H285 0.983 . S
C259 C260 1.391 . S
C259 C264 1.391 1_655 S
C259 H289 0.948 . S
C260 C259 1.391 . S
C260 C261 1.391 1_665 S
C261 C260 1.391 1_445 S
C261 C262 1.392 . S
C261 H290 0.947 . S
C262 C261 1.392 . S
C262 C263 1.419 1_545 S
C262 H291 0.948 . S
C263 C262 1.419 1_565 S
C263 C264 1.391 . S
C263 C267 1.397 . S
C264 C259 1.391 1_455 S
C264 C263 1.391 . S
C264 C265 1.399 . S
C265 C264 1.399 . S
C265 C266 1.396 . S
C265 C268 1.453 1_455 S
C265 C269 1.684 1_455 S
C266 C247 1.723 . S
C266 C265 1.396 . S
C266 C267 1.394 . S
C267 C263 1.397 . S
C267 C266 1.394 . S
C267 C277 1.723 . S
C268 C265 1.453 1_655 S
C268 H292 0.982 . S
C268 H293 0.979 . S
C268 H294 0.977 . S
C269 C265 1.684 1_655 S
C269 H295 0.979 1_655 S
C269 H296 0.980 . S
C269 H297 0.983 . S
C270 H246 0.948 . S
C270 C271 1.391 . S
C270 C275 1.391 . S
C271 C270 1.391 . S
C271 C272 1.391 . S
C272 H249 0.947 . S
C272 C271 1.391 . S
C272 C273 1.392 1_545 S
C273 H250 0.948 . S
C273 C272 1.392 1_565 S
C273 C274 1.419 . S
C274 C273 1.419 . S
C274 C275 1.391 1_565 S
C274 C278 1.397 . S
C275 C270 1.391 . S
C275 C274 1.391 1_545 S
C275 C276 1.399 . S
C276 C275 1.399 . S
C276 C277 1.396 1_545 S
C276 C279 1.453 . S
C276 C280 1.684 . S
C277 C267 1.723 . S
C277 C276 1.396 1_565 S
C277 C278 1.394 . S
C278 C248 1.723 . S
C278 C274 1.397 . S
C278 C277 1.394 . S
C279 H251 0.982 . S
C279 H255 0.979 . S
C279 H256 0.977 . S
C279 C276 1.453 . S
C280 H252 0.979 . S
C280 H253 0.980 . S
C280 H254 0.983 . S
C280 C276 1.684 . S
H281 C299 0.948 . S
H282 C240 0.948 . S
H283 C258 0.979 . S
H284 C258 0.980 . S
H285 C258 0.983 . S
H286 C257 0.982 . S
H287 C257 0.979 . S
H288 C257 0.977 . S
H289 C259 0.948 . S
H290 C261 0.947 . S
H291 C262 0.948 . S
H292 C268 0.982 . S
H293 C268 0.979 . S
H294 C268 0.977 . S
H295 C269 0.979 1_455 S
H296 C269 0.980 . S
H297 C269 0.983 . S
H298 C242 0.947 1_655 S
C299 C242 1.392 . S
C299 C243 1.419 . S
C299 H281 0.948 . S
C300 C301 1.391 . S
C300 C304 1.391 . S
C300 H342 0.948 . S
C301 C300 1.391 . S
C301 C302 1.391 . S
C302 C301 1.391 . S
C302 H358 0.947 . S
C302 C359 1.392 . S
C303 C304 1.391 . S
C303 C307 1.397 . S
C303 C359 1.419 . S
C304 C300 1.391 . S
C304 C303 1.391 . S
C304 C305 1.399 . S
C305 C304 1.399 . S
C305 C308 1.396 . S
C305 C317 1.453 . S
C305 C318 1.684 . S
H306 C330 0.948 . S
C307 C303 1.397 . S
C307 C308 1.394 . S
C307 C326 1.723 . S
C308 C305 1.396 . S
C308 C307 1.394 . S
C308 C338 1.723 . S
H309 C332 0.947 . S
H310 C333 0.948 . S
H311 C339 0.982 . S
H312 C340 0.979 . S
H313 C340 0.980 . S
H314 C340 0.983 . S
H315 C339 0.979 . S
H316 C339 0.977 . S
C317 C305 1.453 . S
C317 H346 0.982 . S
C317 H347 0.979 . S
C317 H348 0.977 . S
C318 C305 1.684 . S
C318 H343 0.979 . S
C318 H344 0.980 . S
C318 H345 0.983 . S
C319 C320 1.391 . S
C319 C324 1.391 . S
C319 H349 0.948 . S
C320 C319 1.391 . S
C320 C321 1.391 . S
C321 C320 1.391 . S
C321 C322 1.392 . S
C321 H350 0.947 . S
C322 C321 1.392 . S
C322 C323 1.419 . S
C322 H351 0.948 . S
C323 C322 1.419 . S
C323 C324 1.391 . S
C323 C327 1.397 . S
C324 C319 1.391 . S
C324 C323 1.391 . S
C324 C325 1.399 . S
C325 C324 1.399 . S
C325 C326 1.396 . S
C325 C328 1.453 . S
C325 C329 1.684 . S
C326 C307 1.723 . S
C326 C325 1.396 . S
C326 C327 1.394 . S
C327 C323 1.397 . S
C327 C326 1.394 . S
C327 C337 1.723 . S
C328 C325 1.453 . S
C328 H352 0.982 . S
C328 H353 0.979 . S
C328 H354 0.977 . S
C329 C325 1.684 . S
C329 H355 0.979 . S
C329 H356 0.980 . S
C329 H357 0.983 . S
C330 H306 0.948 . S
C330 C331 1.391 . S
C330 C335 1.391 . S
C331 C330 1.391 . S
C331 C332 1.391 . S
C332 H309 0.947 . S
C332 C331 1.391 . S
C332 C333 1.392 . S
C333 H310 0.948 . S
C333 C332 1.392 . S
C333 C334 1.419 . S
C334 C333 1.419 . S
C334 C335 1.391 . S
C334 C338 1.397 . S
C335 C330 1.391 . S
C335 C334 1.391 . S
C335 C336 1.399 . S
C336 C335 1.399 . S
C336 C337 1.396 . S
C336 C339 1.453 . S
C336 C340 1.684 . S
C337 C327 1.723 . S
C337 C336 1.396 . S
C337 C338 1.394 . S
C338 C308 1.723 . S
C338 C334 1.397 . S
C338 C337 1.394 . S
C339 H311 0.982 . S
C339 H315 0.979 . S
C339 H316 0.977 . S
C339 C336 1.453 . S
C340 H312 0.979 . S
C340 H313 0.980 . S
C340 H314 0.983 . S
C340 C336 1.684 . S
H341 C359 0.948 . S
H342 C300 0.948 . S
H343 C318 0.979 . S
H344 C318 0.980 . S
H345 C318 0.983 . S
H346 C317 0.982 . S
H347 C317 0.979 . S
H348 C317 0.977 . S
H349 C319 0.948 . S
H350 C321 0.947 . S
H351 C322 0.948 . S
H352 C328 0.982 . S
H353 C328 0.979 . S
H354 C328 0.977 . S
H355 C329 0.979 . S
H356 C329 0.980 . S
H357 C329 0.983 . S
H358 C302 0.947 . S
C359 C302 1.392 . S
C359 C303 1.419 . S
C359 H341 0.948 . S
C360 C361 1.391 . S
C360 C364 1.391 . S
C360 H402 0.948 . S
C361 C360 1.391 . S
C361 C362 1.391 . S
C362 C361 1.391 . S
C362 H418 0.947 . S
C362 C419 1.392 . S
C363 C364 1.391 . S
C363 C367 1.397 . S
C363 C419 1.419 . S
C364 C360 1.391 . S
C364 C363 1.391 . S
C364 C365 1.399 . S
C365 C364 1.399 . S
C365 C368 1.396 . S
C365 C377 1.453 . S
C365 C378 1.684 . S
H366 C390 0.948 1_455 S
C367 C363 1.397 . S
C367 C368 1.394 . S
C367 C386 1.723 . S
C368 C365 1.396 . S
C368 C367 1.394 . S
C368 C398 1.723 . S
H369 C392 0.947 . S
H370 C393 0.948 . S
H371 C399 0.982 . S
H372 C400 0.979 . S
H373 C400 0.980 . S
H374 C400 0.983 . S
H375 C399 0.979 1_455 S
H376 C399 0.980 . S
C377 C365 1.453 . S
C377 H406 0.982 . S
C377 H407 0.979 . S
C377 H408 0.977 . S
C378 C365 1.684 . S
C378 H403 0.979 . S
C378 H404 0.980 . S
C378 H405 0.983 . S
C379 C380 1.391 1_655 S
C379 C384 1.391 . S
C379 H409 0.948 . S
C380 C379 1.391 1_455 S
C380 C381 1.391 . S
C381 C380 1.391 . S
C381 C382 1.392 . S
C381 H410 0.947 . S
C382 C381 1.392 . S
C382 C383 1.419 1_455 S
C382 H411 0.948 . S
C383 C382 1.419 1_655 S
C383 C384 1.391 . S
C383 C387 1.397 . S
C384 C379 1.391 . S
C384 C383 1.391 . S
C384 C385 1.399 . S
C385 C384 1.399 . S
C385 C386 1.396 . S
C385 C388 1.453 . S
C385 C389 1.684 . S
C386 C367 1.723 . S
C386 C385 1.396 . S
C386 C387 1.394 . S
C387 C383 1.397 . S
C387 C386 1.394 . S
C387 C397 1.723 . S
C388 C385 1.453 . S
C388 H412 0.982 . S
C388 H413 0.979 . S
C388 H414 0.977 . S
C389 C385 1.684 . S
C389 H415 0.979 . S
C389 H416 0.980 . S
C389 H417 0.983 . S
C390 H366 0.948 1_655 S
C390 C391 1.391 . S
C390 C395 1.391 . S
C391 C390 1.391 . S
C391 C392 1.391 . S
C392 H369 0.947 . S
C392 C391 1.391 . S
C392 C393 1.392 . S
C393 H370 0.948 . S
C393 C392 1.392 . S
C393 C394 1.419 . S
C394 C393 1.419 . S
C394 C395 1.391 . S
C394 C398 1.397 . S
C395 C390 1.391 . S
C395 C394 1.391 . S
C395 C396 1.399 . S
C396 C395 1.399 . S
C396 C397 1.396 . S
C396 C399 1.453 . S
C396 C400 1.684 1_655 S
C397 C387 1.723 . S
C397 C396 1.396 . S
C397 C398 1.394 . S
C398 C368 1.723 . S
C398 C394 1.397 . S
C398 C397 1.394 . S
C399 H371 0.982 . S
C399 H375 0.979 1_655 S
C399 H376 0.980 . S
C399 C396 1.453 . S
C400 H372 0.979 . S
C400 H373 0.980 . S
C400 H374 0.983 . S
C400 C396 1.684 1_455 S
H401 C419 0.948 . S
H402 C360 0.948 . S
H403 C378 0.979 . S
H404 C378 0.980 . S
H405 C378 0.983 . S
H406 C377 0.982 . S
H407 C377 0.979 . S
H408 C377 0.977 . S
H409 C379 0.948 . S
H410 C381 0.947 . S
H411 C382 0.948 . S
H412 C388 0.982 . S
H413 C388 0.979 . S
H414 C388 0.977 . S
H415 C389 0.979 . S
H416 C389 0.980 . S
H417 C389 0.983 . S
H418 C362 0.947 . S
C419 C362 1.392 . S
C419 C363 1.419 . S
C419 H401 0.948 . S
C420 C421 1.391 . S
C420 C424 1.391 . S
C420 H462 0.948 . S
C421 C420 1.391 . S
C421 C422 1.391 . S
C422 C421 1.391 . S
C422 H478 0.947 . S
C422 C479 1.392 . S
C423 C424 1.391 . S
C423 C427 1.397 . S
C423 C479 1.419 . S
C424 C420 1.391 . S
C424 C423 1.391 . S
C424 C425 1.399 . S
C425 C424 1.399 . S
C425 C428 1.396 . S
C425 C437 1.453 . S
C425 C438 1.684 . S
H426 C450 0.948 . S
C427 C423 1.397 . S
C427 C428 1.394 . S
C427 C446 1.723 . S
C428 C425 1.396 . S
C428 C427 1.394 . S
C428 C458 1.723 . S
H429 C452 0.947 . S
H430 C453 0.948 . S
H431 C459 0.982 . S
H432 C460 0.979 . S
H433 C460 0.980 . S
H434 C460 0.983 . S
H435 C459 0.979 . S
H436 C459 0.977 . S
C437 C425 1.453 . S
C437 H466 0.982 . S
C437 H467 0.979 . S
C437 H468 0.977 . S
C438 C425 1.684 . S
C438 H463 0.979 . S
C438 H464 0.980 . S
C438 H465 0.983 . S
C439 C440 1.391 . S
C439 C444 1.391 . S
C439 H469 0.948 . S
C440 C439 1.391 . S
C440 C441 1.391 . S
C441 C440 1.391 . S
C441 C442 1.392 . S
C441 H470 0.947 . S
C442 C441 1.392 . S
C442 C443 1.419 . S
C442 H471 0.948 . S
C443 C442 1.419 . S
C443 C444 1.391 . S
C443 C447 1.397 . S
C444 C439 1.391 . S
C444 C443 1.391 . S
C444 C445 1.399 . S
C445 C444 1.399 . S
C445 C446 1.396 . S
C445 C448 1.453 . S
C445 C449 1.684 . S
C446 C427 1.723 . S
C446 C445 1.396 . S
C446 C447 1.394 . S
C447 C443 1.397 . S
C447 C446 1.394 . S
C447 C457 1.723 . S
C448 C445 1.453 . S
C448 H472 0.982 . S
C448 H473 0.979 . S
C448 H474 0.977 . S
C449 C445 1.684 . S
C449 H475 0.979 . S
C449 H476 0.980 . S
C449 H477 0.983 . S
C450 H426 0.948 . S
C450 C451 1.391 . S
C450 C455 1.391 . S
C451 C450 1.391 . S
C451 C452 1.391 . S
C452 H429 0.947 . S
C452 C451 1.391 . S
C452 C453 1.392 . S
C453 H430 0.948 . S
C453 C452 1.392 . S
C453 C454 1.419 . S
C454 C453 1.419 . S
C454 C455 1.391 . S
C454 C458 1.397 . S
C455 C450 1.391 . S
C455 C454 1.391 . S
C455 C456 1.399 . S
C456 C455 1.399 . S
C456 C457 1.396 . S
C456 C459 1.453 . S
C456 C460 1.684 . S
C457 C447 1.723 . S
C457 C456 1.396 . S
C457 C458 1.394 . S
C458 C428 1.723 . S
C458 C454 1.397 . S
C458 C457 1.394 . S
C459 H431 0.982 . S
C459 H435 0.979 . S
C459 H436 0.977 . S
C459 C456 1.453 . S
C460 H432 0.979 . S
C460 H433 0.980 . S
C460 H434 0.983 . S
C460 C456 1.684 . S
H461 C479 0.948 . S
H462 C420 0.948 . S
H463 C438 0.979 . S
H464 C438 0.980 . S
H465 C438 0.983 . S
H466 C437 0.982 . S
H467 C437 0.979 . S
H468 C437 0.977 . S
H469 C439 0.948 . S
H470 C441 0.947 . S
H471 C442 0.948 . S
H472 C448 0.982 . S
H473 C448 0.979 . S
H474 C448 0.977 . S
H475 C449 0.979 . S
H476 C449 0.980 . S
H477 C449 0.983 . S
H478 C422 0.947 . S
C479 C422 1.392 . S
C479 C423 1.419 . S
C479 H461 0.948 . S
C480 C481 1.391 . S
C480 C484 1.391 . S
C480 H522 0.948 . S
C481 C480 1.391 . S
C481 C482 1.391 . S
C482 C481 1.391 . S
C482 H538 0.947 . S
C482 C539 1.392 . S
C483 C484 1.391 . S
C483 C487 1.397 . S
C483 C539 1.419 . S
C484 C480 1.391 . S
C484 C483 1.391 . S
C484 C485 1.399 . S
C485 C484 1.399 . S
C485 C488 1.396 . S
C485 C497 1.453 . S
C485 C498 1.684 . S
H486 C510 0.948 . S
C487 C483 1.397 . S
C487 C488 1.394 . S
C487 C506 1.723 . S
C488 C485 1.396 . S
C488 C487 1.394 . S
C488 C518 1.723 . S
H489 C512 0.947 . S
H490 C513 0.948 . S
H491 C519 0.982 . S
H492 C520 0.979 . S
H493 C520 0.980 . S
H494 C520 0.983 . S
H495 C519 0.979 . S
H496 C519 0.977 . S
C497 C485 1.453 . S
C497 H526 0.982 . S
C497 H527 0.979 . S
C497 H528 0.977 . S
C498 C485 1.684 . S
C498 H523 0.979 . S
C498 H524 0.980 . S
C498 H525 0.983 . S
C499 C500 1.391 . S
C499 C504 1.391 . S
C499 H529 0.948 . S
C500 C499 1.391 . S
C500 C501 1.391 . S
C501 C500 1.391 . S
C501 C502 1.392 . S
C501 H530 0.947 . S
C502 C501 1.392 . S
C502 C503 1.419 . S
C502 H531 0.948 . S
C503 C502 1.419 . S
C503 C504 1.391 . S
C503 C507 1.397 . S
C504 C499 1.391 . S
C504 C503 1.391 . S
C504 C505 1.399 . S
C505 C504 1.399 . S
C505 C506 1.396 . S
C505 C508 1.453 . S
C505 C509 1.684 . S
C506 C487 1.723 . S
C506 C505 1.396 . S
C506 C507 1.394 . S
C507 C503 1.397 . S
C507 C506 1.394 . S
C507 C517 1.723 . S
C508 C505 1.453 . S
C508 H532 0.982 . S
C508 H533 0.979 . S
C508 H534 0.977 . S
C509 C505 1.684 . S
C509 H535 0.979 . S
C509 H536 0.980 . S
C509 H537 0.983 . S
C510 H486 0.948 . S
C510 C511 1.391 . S
C510 C515 1.391 . S
C511 C510 1.391 . S
C511 C512 1.391 . S
C512 H489 0.947 . S
C512 C511 1.391 . S
C512 C513 1.392 . S
C513 H490 0.948 . S
C513 C512 1.392 . S
C513 C514 1.419 . S
C514 C513 1.419 . S
C514 C515 1.391 . S
C514 C518 1.397 . S
C515 C510 1.391 . S
C515 C514 1.391 . S
C515 C516 1.399 . S
C516 C515 1.399 . S
C516 C517 1.396 . S
C516 C519 1.453 . S
C516 C520 1.684 . S
C517 C507 1.723 . S
C517 C516 1.396 . S
C517 C518 1.394 . S
C518 C488 1.723 . S
C518 C514 1.397 . S
C518 C517 1.394 . S
C519 H491 0.982 . S
C519 H495 0.979 . S
C519 H496 0.977 . S
C519 C516 1.453 . S
C520 H492 0.979 . S
C520 H493 0.980 . S
C520 H494 0.983 . S
C520 C516 1.684 . S
H521 C539 0.948 . S
H522 C480 0.948 . S
H523 C498 0.979 . S
H524 C498 0.980 . S
H525 C498 0.983 . S
H526 C497 0.982 . S
H527 C497 0.979 . S
H528 C497 0.977 . S
H529 C499 0.948 . S
H530 C501 0.947 . S
H531 C502 0.948 . S
H532 C508 0.982 . S
H533 C508 0.979 . S
H534 C508 0.977 . S
H535 C509 0.979 . S
H536 C509 0.980 . S
H537 C509 0.983 . S
H538 C482 0.947 . S
C539 C482 1.392 . S
C539 C483 1.419 . S
C539 H521 0.948 . S
C540 C541 1.391 . S
C540 C544 1.391 . S
C540 H582 0.948 . S
C541 C540 1.391 . S
C541 C542 1.391 . S
C542 C541 1.391 . S
C542 H598 0.947 . S
C542 C599 1.392 . S
C543 C544 1.391 . S
C543 C547 1.397 . S
C543 C599 1.419 . S
C544 C540 1.391 . S
C544 C543 1.391 . S
C544 C545 1.399 . S
C545 C544 1.399 . S
C545 C548 1.396 . S
C545 C557 1.453 . S
C545 C558 1.684 . S
H546 C570 0.948 . S
C547 C543 1.397 . S
C547 C548 1.394 . S
C547 C566 1.723 . S
C548 C545 1.396 . S
C548 C547 1.394 . S
C548 C578 1.723 . S
H549 C572 0.947 . S
H550 C573 0.948 . S
H551 C579 0.982 . S
H552 C580 0.979 . S
H553 C580 0.980 . S
H554 C580 0.983 . S
H555 C579 0.979 . S
H556 C579 0.977 . S
C557 C545 1.453 . S
C557 H586 0.982 . S
C557 H587 0.979 . S
C557 H588 0.977 . S
C558 C545 1.684 . S
C558 H583 0.979 . S
C558 H584 0.980 . S
C558 H585 0.983 . S
C559 C560 1.391 1_565 S
C559 C564 1.391 . S
C559 H589 0.948 . S
C560 C559 1.391 1_545 S
C560 C561 1.391 . S
C561 C560 1.391 . S
C561 C562 1.392 . S
C561 H590 0.947 . S
C562 C561 1.392 . S
C562 C563 1.419 1_545 S
C562 H591 0.948 . S
C563 C562 1.419 1_565 S
C563 C564 1.391 . S
C563 C567 1.397 . S
C564 C559 1.391 . S
C564 C563 1.391 . S
C564 C565 1.399 . S
C565 C564 1.399 . S
C565 C566 1.396 . S
C565 C568 1.453 . S
C565 C569 1.684 . S
C566 C547 1.723 . S
C566 C565 1.396 . S
C566 C567 1.394 . S
C567 C563 1.397 . S
C567 C566 1.394 . S
C567 C577 1.723 . S
C568 C565 1.453 . S
C568 H592 0.982 . S
C568 H593 0.979 . S
C568 H594 0.977 . S
C569 C565 1.684 . S
C569 H595 0.979 . S
C569 H596 0.980 . S
C569 H597 0.983 . S
C570 H546 0.948 . S
C570 C571 1.391 . S
C570 C575 1.391 . S
C571 C570 1.391 . S
C571 C572 1.391 . S
C572 H549 0.947 . S
C572 C571 1.391 . S
C572 C573 1.392 . S
C573 H550 0.948 . S
C573 C572 1.392 . S
C573 C574 1.419 . S
C574 C573 1.419 . S
C574 C575 1.391 . S
C574 C578 1.397 . S
C575 C570 1.391 . S
C575 C574 1.391 . S
C575 C576 1.399 . S
C576 C575 1.399 . S
C576 C577 1.396 . S
C576 C579 1.453 . S
C576 C580 1.684 1_565 S
C577 C567 1.723 . S
C577 C576 1.396 . S
C577 C578 1.394 . S
C578 C548 1.723 . S
C578 C574 1.397 . S
C578 C577 1.394 . S
C579 H551 0.982 . S
C579 H555 0.979 . S
C579 H556 0.977 . S
C579 C576 1.453 . S
C580 H552 0.979 . S
C580 H553 0.980 . S
C580 H554 0.983 . S
C580 C576 1.684 1_545 S
H581 C599 0.948 . S
H582 C540 0.948 . S
H583 C558 0.979 . S
H584 C558 0.980 . S
H585 C558 0.983 . S
H586 C557 0.982 . S
H587 C557 0.979 . S
H588 C557 0.977 . S
H589 C559 0.948 . S
H590 C561 0.947 . S
H591 C562 0.948 . S
H592 C568 0.982 . S
H593 C568 0.979 . S
H594 C568 0.977 . S
H595 C569 0.979 . S
H596 C569 0.980 . S
H597 C569 0.983 . S
H598 C542 0.947 . S
C599 C542 1.392 . S
C599 C543 1.419 . S
C599 H581 0.948 . S
C600 C601 1.391 . S
C600 C604 1.391 . S
C600 H642 0.948 . S
C601 C600 1.391 . S
C601 C602 1.391 . S
C602 C601 1.391 . S
C602 H658 0.947 . S
C602 C659 1.392 . S
C603 C604 1.391 . S
C603 C607 1.397 . S
C603 C659 1.419 . S
C604 C600 1.391 . S
C604 C603 1.391 . S
C604 C605 1.399 . S
C605 C604 1.399 . S
C605 C608 1.396 . S
C605 C617 1.453 . S
C605 C618 1.684 . S
H606 C630 0.948 . S
C607 C603 1.397 . S
C607 C608 1.394 . S
C607 C626 1.723 . S
C608 C605 1.396 . S
C608 C607 1.394 . S
C608 C638 1.723 . S
H609 C632 0.947 . S
H610 C633 0.948 . S
H611 C639 0.982 . S
H612 C640 0.979 . S
H613 C640 0.980 . S
H614 C640 0.983 . S
H615 C639 0.979 . S
H616 C639 0.977 . S
C617 C605 1.453 . S
C617 H646 0.982 . S
C617 H647 0.979 . S
C617 H648 0.977 . S
C618 C605 1.684 . S
C618 H643 0.979 . S
C618 H644 0.980 . S
C618 H645 0.983 . S
C619 C620 1.391 . S
C619 C624 1.391 . S
C619 H649 0.948 . S
C620 C619 1.391 . S
C620 C621 1.391 . S
C621 C620 1.391 . S
C621 C622 1.392 . S
C621 H650 0.947 . S
C622 C621 1.392 . S
C622 C623 1.419 . S
C622 H651 0.948 . S
C623 C622 1.419 . S
C623 C624 1.391 . S
C623 C627 1.397 . S
C624 C619 1.391 . S
C624 C623 1.391 . S
C624 C625 1.399 . S
C625 C624 1.399 . S
C625 C626 1.396 . S
C625 C628 1.453 . S
C625 C629 1.684 . S
C626 C607 1.723 . S
C626 C625 1.396 . S
C626 C627 1.394 . S
C627 C623 1.397 . S
C627 C626 1.394 . S
C627 C637 1.723 . S
C628 C625 1.453 . S
C628 H652 0.982 . S
C628 H653 0.979 . S
C628 H654 0.977 . S
C629 C625 1.684 . S
C629 H655 0.979 . S
C629 H656 0.980 . S
C629 H657 0.983 . S
C630 H606 0.948 . S
C630 C631 1.391 . S
C630 C635 1.391 . S
C631 C630 1.391 . S
C631 C632 1.391 . S
C632 H609 0.947 . S
C632 C631 1.391 . S
C632 C633 1.392 . S
C633 H610 0.948 . S
C633 C632 1.392 . S
C633 C634 1.419 . S
C634 C633 1.419 . S
C634 C635 1.391 . S
C634 C638 1.397 . S
C635 C630 1.391 . S
C635 C634 1.391 . S
C635 C636 1.399 . S
C636 C635 1.399 . S
C636 C637 1.396 . S
C636 C639 1.453 . S
C636 C640 1.684 . S
C637 C627 1.723 . S
C637 C636 1.396 . S
C637 C638 1.394 . S
C638 C608 1.723 . S
C638 C634 1.397 . S
C638 C637 1.394 . S
C639 H611 0.982 . S
C639 H615 0.979 . S
C639 H616 0.977 . S
C639 C636 1.453 . S
C640 H612 0.979 . S
C640 H613 0.980 . S
C640 H614 0.983 . S
C640 C636 1.684 . S
H641 C659 0.948 . S
H642 C600 0.948 . S
H643 C618 0.979 . S
H644 C618 0.980 . S
H645 C618 0.983 . S
H646 C617 0.982 . S
H647 C617 0.979 . S
H648 C617 0.977 . S
H649 C619 0.948 . S
H650 C621 0.947 . S
H651 C622 0.948 . S
H652 C628 0.982 . S
H653 C628 0.979 . S
H654 C628 0.977 . S
H655 C629 0.979 . S
H656 C629 0.980 . S
H657 C629 0.983 . S
H658 C602 0.947 . S
C659 C602 1.392 . S
C659 C603 1.419 . S
C659 H641 0.948 . S
C660 C661 1.391 . S
C660 C664 1.391 . S
C660 H702 0.948 . S
C661 C660 1.391 . S
C661 C662 1.391 . S
C662 C661 1.391 . S
C662 H718 0.947 . S
C662 C719 1.392 . S
C663 C664 1.391 . S
C663 C667 1.397 . S
C663 C719 1.419 . S
C664 C660 1.391 . S
C664 C663 1.391 . S
C664 C665 1.399 . S
C665 C664 1.399 . S
C665 C668 1.396 . S
C665 C677 1.453 . S
C665 C678 1.684 . S
H666 C690 0.948 . S
C667 C663 1.397 . S
C667 C668 1.394 . S
C667 C686 1.723 . S
C668 C665 1.396 . S
C668 C667 1.394 . S
C668 C698 1.723 . S
H669 C692 0.947 . S
H670 C693 0.948 . S
H671 C699 0.982 . S
H672 C700 0.979 . S
H673 C700 0.980 . S
H674 C700 0.983 . S
H675 C699 0.979 . S
H676 C699 0.977 . S
C677 C665 1.453 . S
C677 H706 0.982 . S
C677 H707 0.979 . S
C677 H708 0.977 . S
C678 C665 1.684 . S
C678 H703 0.979 . S
C678 H704 0.980 . S
C678 H705 0.983 . S
C679 C680 1.391 . S
C679 C684 1.391 . S
C679 H709 0.948 . S
C680 C679 1.391 . S
C680 C681 1.391 . S
C681 C680 1.391 . S
C681 C682 1.392 . S
C681 H710 0.947 . S
C682 C681 1.392 . S
C682 C683 1.419 . S
C682 H711 0.948 . S
C683 C682 1.419 . S
C683 C684 1.391 . S
C683 C687 1.397 . S
C684 C679 1.391 . S
C684 C683 1.391 . S
C684 C685 1.399 . S
C685 C684 1.399 . S
C685 C686 1.396 . S
C685 C688 1.453 . S
C685 C689 1.684 . S
C686 C667 1.723 . S
C686 C685 1.396 . S
C686 C687 1.394 . S
C687 C683 1.397 . S
C687 C686 1.394 . S
C687 C697 1.723 . S
C688 C685 1.453 . S
C688 H712 0.982 . S
C688 H713 0.979 . S
C688 H714 0.977 . S
C689 C685 1.684 . S
C689 H715 0.979 . S
C689 H716 0.980 . S
C689 H717 0.983 . S
C690 H666 0.948 . S
C690 C691 1.391 . S
C690 C695 1.391 . S
C691 C690 1.391 . S
C691 C692 1.391 . S
C692 H669 0.947 . S
C692 C691 1.391 . S
C692 C693 1.392 . S
C693 H670 0.948 . S
C693 C692 1.392 . S
C693 C694 1.419 . S
C694 C693 1.419 . S
C694 C695 1.391 . S
C694 C698 1.397 . S
C695 C690 1.391 . S
C695 C694 1.391 . S
C695 C696 1.399 . S
C696 C695 1.399 . S
C696 C697 1.396 . S
C696 C699 1.453 . S
C696 C700 1.684 . S
C697 C687 1.723 . S
C697 C696 1.396 . S
C697 C698 1.394 . S
C698 C668 1.723 . S
C698 C694 1.397 . S
C698 C697 1.394 . S
C699 H671 0.982 . S
C699 H675 0.979 . S
C699 H676 0.977 . S
C699 C696 1.453 . S
C700 H672 0.979 . S
C700 H673 0.980 . S
C700 H674 0.983 . S
C700 C696 1.684 . S
H701 C719 0.948 . S
H702 C660 0.948 . S
H703 C678 0.979 . S
H704 C678 0.980 . S
H705 C678 0.983 . S
H706 C677 0.982 . S
H707 C677 0.979 . S
H708 C677 0.977 . S
H709 C679 0.948 . S
H710 C681 0.947 . S
H711 C682 0.948 . S
H712 C688 0.982 . S
H713 C688 0.979 . S
H714 C688 0.977 . S
H715 C689 0.979 . S
H716 C689 0.980 . S
H717 C689 0.983 . S
H718 C662 0.947 . S
C719 C662 1.392 . S
C719 C663 1.419 . S
C719 H701 0.948 . S
C720 C721 1.391 . S
C720 C724 1.391 . S
C720 H762 0.948 . S
C721 C720 1.391 . S
C721 C722 1.391 . S
C722 C721 1.391 . S
C722 H778 0.947 . S
C722 C779 1.392 . S
C723 C724 1.391 . S
C723 C727 1.397 . S
C723 C779 1.419 . S
C724 C720 1.391 . S
C724 C723 1.391 . S
C724 C725 1.399 . S
C725 C724 1.399 . S
C725 C728 1.396 . S
C725 C737 1.453 . S
C725 C738 1.684 . S
H726 C750 0.948 . S
C727 C723 1.397 . S
C727 C728 1.394 . S
C727 C746 1.723 . S
C728 C725 1.396 . S
C728 C727 1.394 . S
C728 C758 1.723 . S
H729 C752 0.947 . S
H730 C753 0.948 . S
H731 C759 0.982 . S
H732 C760 0.979 . S
H733 C760 0.980 . S
H734 C760 0.983 . S
H735 C759 0.979 . S
H736 C759 0.977 . S
C737 C725 1.453 . S
C737 H766 0.982 . S
C737 H767 0.979 . S
C737 H768 0.977 . S
C738 C725 1.684 . S
C738 H763 0.979 . S
C738 H764 0.980 . S
C738 H765 0.983 . S
C739 C740 1.391 . S
C739 C744 1.391 . S
C739 H769 0.948 . S
C740 C739 1.391 . S
C740 C741 1.391 . S
C741 C740 1.391 . S
C741 C742 1.392 . S
C741 H770 0.947 . S
C742 C741 1.392 . S
C742 C743 1.419 . S
C742 H771 0.948 . S
C743 C742 1.419 . S
C743 C744 1.391 . S
C743 C747 1.397 . S
C744 C739 1.391 . S
C744 C743 1.391 . S
C744 C745 1.399 . S
C745 C744 1.399 . S
C745 C746 1.396 . S
C745 C748 1.453 . S
C745 C749 1.684 . S
C746 C727 1.723 . S
C746 C745 1.396 . S
C746 C747 1.394 . S
C747 C743 1.397 . S
C747 C746 1.394 . S
C747 C757 1.723 . S
C748 C745 1.453 . S
C748 H772 0.982 . S
C748 H773 0.979 . S
C748 H774 0.977 . S
C749 C745 1.684 . S
C749 H775 0.979 . S
C749 H776 0.980 . S
C749 H777 0.983 . S
C750 H726 0.948 . S
C750 C751 1.391 . S
C750 C755 1.391 . S
C751 C750 1.391 . S
C751 C752 1.391 . S
C752 H729 0.947 . S
C752 C751 1.391 . S
C752 C753 1.392 . S
C753 H730 0.948 . S
C753 C752 1.392 . S
C753 C754 1.419 . S
C754 C753 1.419 . S
C754 C755 1.391 . S
C754 C758 1.397 . S
C755 C750 1.391 . S
C755 C754 1.391 . S
C755 C756 1.399 . S
C756 C755 1.399 . S
C756 C757 1.396 . S
C756 C759 1.453 . S
C756 C760 1.684 . S
C757 C747 1.723 . S
C757 C756 1.396 . S
C757 C758 1.394 . S
C758 C728 1.723 . S
C758 C754 1.397 . S
C758 C757 1.394 . S
C759 H731 0.982 . S
C759 H735 0.979 . S
C759 H736 0.977 . S
C759 C756 1.453 . S
C760 H732 0.979 . S
C760 H733 0.980 . S
C760 H734 0.983 . S
C760 C756 1.684 . S
H761 C779 0.948 . S
H762 C720 0.948 . S
H763 C738 0.979 . S
H764 C738 0.980 . S
H765 C738 0.983 . S
H766 C737 0.982 . S
H767 C737 0.979 . S
H768 C737 0.977 . S
H769 C739 0.948 . S
H770 C741 0.947 . S
H771 C742 0.948 . S
H772 C748 0.982 . S
H773 C748 0.979 . S
H774 C748 0.977 . S
H775 C749 0.979 . S
H776 C749 0.980 . S
H777 C749 0.983 . S
H778 C722 0.947 . S
C779 C722 1.392 . S
C779 C723 1.419 . S
C779 H761 0.948 . S
C780 C781 1.391 . S
C780 C784 1.391 1_554 S
C780 H822 0.948 . S
C781 C780 1.391 . S
C781 C782 1.391 1_554 S
C782 C781 1.391 1_556 S
C782 H838 0.947 . S
C782 C839 1.392 . S
C783 C784 1.391 . S
C783 C787 1.397 . S
C783 C839 1.419 . S
C784 C780 1.391 1_556 S
C784 C783 1.391 . S
C784 C785 1.399 . S
C785 C784 1.399 . S
C785 C788 1.396 . S
C785 C797 1.453 1_556 S
C785 C798 1.684 . S
H786 C810 0.948 . S
C787 C783 1.397 . S
C787 C788 1.394 . S
C787 C806 1.723 . S
C788 C785 1.396 . S
C788 C787 1.394 . S
C788 C818 1.723 . S
H789 C812 0.947 . S
H790 C813 0.948 . S
H791 C819 0.982 . S
H792 C820 0.979 . S
H793 C820 0.980 . S
H794 C820 0.983 . S
H795 C819 0.979 . S
H796 C819 0.977 . S
C797 C785 1.453 1_554 S
C797 H826 0.982 . S
C797 H827 0.979 . S
C797 H828 0.977 . S
C798 C785 1.684 . S
C798 H823 0.979 . S
C798 H824 0.980 . S
C798 H825 0.983 1_556 S
C799 C800 1.391 . S
C799 C804 1.391 . S
C799 H829 0.948 . S
C800 C799 1.391 . S
C800 C801 1.391 . S
C801 C800 1.391 . S
C801 C802 1.392 . S
C801 H830 0.947 . S
C802 C801 1.392 . S
C802 C803 1.419 . S
C802 H831 0.948 . S
C803 C802 1.419 . S
C803 C804 1.391 . S
C803 C807 1.397 . S
C804 C799 1.391 . S
C804 C803 1.391 . S
C804 C805 1.399 . S
C805 C804 1.399 . S
C805 C806 1.396 . S
C805 C808 1.453 . S
C805 C809 1.684 . S
C806 C787 1.723 . S
C806 C805 1.396 . S
C806 C807 1.394 . S
C807 C803 1.397 . S
C807 C806 1.394 . S
C807 C817 1.723 . S
C808 C805 1.453 . S
C808 H832 0.982 . S
C808 H833 0.979 . S
C808 H834 0.977 . S
C809 C805 1.684 . S
C809 H835 0.979 . S
C809 H836 0.980 . S
C809 H837 0.983 . S
C810 H786 0.948 . S
C810 C811 1.391 . S
C810 C815 1.391 . S
C811 C810 1.391 . S
C811 C812 1.391 . S
C812 H789 0.947 . S
C812 C811 1.391 . S
C812 C813 1.392 . S
C813 H790 0.948 . S
C813 C812 1.392 . S
C813 C814 1.419 . S
C814 C813 1.419 . S
C814 C815 1.391 . S
C814 C818 1.397 . S
C815 C810 1.391 . S
C815 C814 1.391 . S
C815 C816 1.399 . S
C816 C815 1.399 . S
C816 C817 1.396 . S
C816 C819 1.453 . S
C816 C820 1.684 . S
C817 C807 1.723 . S
C817 C816 1.396 . S
C817 C818 1.394 . S
C818 C788 1.723 . S
C818 C814 1.397 . S
C818 C817 1.394 . S
C819 H791 0.982 . S
C819 H795 0.979 . S
C819 H796 0.977 . S
C819 C816 1.453 . S
C820 H792 0.979 . S
C820 H793 0.980 . S
C820 H794 0.983 . S
C820 C816 1.684 . S
H821 C839 0.948 . S
H822 C780 0.948 . S
H823 C798 0.979 . S
H824 C798 0.980 . S
H825 C798 0.983 1_554 S
H826 C797 0.982 . S
H827 C797 0.979 . S
H828 C797 0.977 . S
H829 C799 0.948 . S
H830 C801 0.947 . S
H831 C802 0.948 . S
H832 C808 0.982 . S
H833 C808 0.979 . S
H834 C808 0.977 . S
H835 C809 0.979 . S
H836 C809 0.980 . S
H837 C809 0.983 . S
H838 C782 0.947 . S
C839 C782 1.392 . S
C839 C783 1.419 . S
C839 H821 0.948 . S
C840 C841 1.391 . S
C840 C844 1.391 . S
C840 H882 0.948 . S
C841 C840 1.391 . S
C841 C842 1.391 . S
C842 C841 1.391 . S
C842 H898 0.947 . S
C842 C899 1.392 . S
C843 C844 1.391 . S
C843 C847 1.397 . S
C843 C899 1.419 . S
C844 C840 1.391 . S
C844 C843 1.391 . S
C844 C845 1.399 . S
C845 C844 1.399 . S
C845 C848 1.396 . S
C845 C857 1.453 . S
C845 C858 1.684 . S
H846 C870 0.948 . S
C847 C843 1.397 . S
C847 C848 1.394 . S
C847 C866 1.723 . S
C848 C845 1.396 . S
C848 C847 1.394 . S
C848 C878 1.723 . S
H849 C872 0.947 . S
H850 C873 0.948 . S
H851 C879 0.982 . S
H852 C880 0.979 . S
H853 C880 0.980 . S
H854 C880 0.983 . S
H855 C879 0.979 . S
H856 C879 0.977 . S
C857 C845 1.453 . S
C857 H886 0.982 . S
C857 H887 0.979 . S
C857 H888 0.977 . S
C858 C845 1.684 . S
C858 H883 0.979 . S
C858 H884 0.980 . S
C858 H885 0.983 . S
C859 C860 1.391 . S
C859 C864 1.391 . S
C859 H889 0.948 . S
C860 C859 1.391 . S
C860 C861 1.391 . S
C861 C860 1.391 . S
C861 C862 1.392 . S
C861 H890 0.947 . S
C862 C861 1.392 . S
C862 C863 1.419 . S
C862 H891 0.948 . S
C863 C862 1.419 . S
C863 C864 1.391 . S
C863 C867 1.397 . S
C864 C859 1.391 . S
C864 C863 1.391 . S
C864 C865 1.399 . S
C865 C864 1.399 . S
C865 C866 1.396 . S
C865 C868 1.453 . S
C865 C869 1.684 . S
C866 C847 1.723 . S
C866 C865 1.396 . S
C866 C867 1.394 . S
C867 C863 1.397 . S
C867 C866 1.394 . S
C867 C877 1.723 . S
C868 C865 1.453 . S
C868 H892 0.982 . S
C868 H893 0.979 . S
C868 H894 0.977 . S
C869 C865 1.684 . S
C869 H895 0.979 . S
C869 H896 0.980 . S
C869 H897 0.983 . S
C870 H846 0.948 . S
C870 C871 1.391 . S
C870 C875 1.391 . S
C871 C870 1.391 . S
C871 C872 1.391 . S
C872 H849 0.947 . S
C872 C871 1.391 . S
C872 C873 1.392 . S
C873 H850 0.948 . S
C873 C872 1.392 . S
C873 C874 1.419 . S
C874 C873 1.419 . S
C874 C875 1.391 . S
C874 C878 1.397 . S
C875 C870 1.391 . S
C875 C874 1.391 . S
C875 C876 1.399 . S
C876 C875 1.399 . S
C876 C877 1.396 . S
C876 C879 1.453 . S
C876 C880 1.684 . S
C877 C867 1.723 . S
C877 C876 1.396 . S
C877 C878 1.394 . S
C878 C848 1.723 . S
C878 C874 1.397 . S
C878 C877 1.394 . S
C879 H851 0.982 . S
C879 H855 0.979 . S
C879 H856 0.977 . S
C879 C876 1.453 . S
C880 H852 0.979 . S
C880 H853 0.980 . S
C880 H854 0.983 . S
C880 C876 1.684 . S
H881 C899 0.948 . S
H882 C840 0.948 . S
H883 C858 0.979 . S
H884 C858 0.980 . S
H885 C858 0.983 . S
H886 C857 0.982 . S
H887 C857 0.979 . S
H888 C857 0.977 . S
H889 C859 0.948 . S
H890 C861 0.947 . S
H891 C862 0.948 . S
H892 C868 0.982 . S
H893 C868 0.979 . S
H894 C868 0.977 . S
H895 C869 0.979 . S
H896 C869 0.980 . S
H897 C869 0.983 . S
H898 C842 0.947 . S
C899 C842 1.392 . S
C899 C843 1.419 . S
C899 H881 0.948 . S
C900 C901 1.391 1_544 S
C900 C904 1.391 1_554 S
C900 H942 0.948 . S
C901 C900 1.391 1_566 S
C901 C902 1.391 . S
C902 C901 1.391 . S
C902 H958 0.947 . S
C902 C959 1.392 1_565 S
C903 C904 1.391 . S
C903 C907 1.397 . S
C903 C959 1.419 . S
C904 C900 1.391 1_556 S
C904 C903 1.391 . S
C904 C905 1.399 1_556 S
C905 C904 1.399 1_554 S
C905 C908 1.396 1_554 S
C905 C917 1.453 . S
C905 C918 1.684 . S
H906 C930 0.948 . S
C907 C903 1.397 . S
C907 C908 1.394 . S
C907 C926 1.723 . S
C908 C905 1.396 1_556 S
C908 C907 1.394 . S
C908 C938 1.723 . S
H909 C932 0.947 . S
H910 C933 0.948 . S
H911 C939 0.982 . S
H912 C940 0.979 . S
H913 C940 0.980 . S
H914 C940 0.983 . S
H915 C939 0.979 . S
H916 C939 0.977 . S
C917 C905 1.453 . S
C917 H946 0.982 1_554 S
C917 H947 0.979 . S
C917 H948 0.977 . S
C918 C905 1.684 . S
C918 H943 0.979 . S
C918 H944 0.980 . S
C918 H945 0.983 . S
C919 C920 1.391 . S
C919 C924 1.391 . S
C919 H949 0.948 . S
C920 C919 1.391 . S
C920 C921 1.391 . S
C921 C920 1.391 . S
C921 C922 1.392 . S
C921 H950 0.947 . S
C922 C921 1.392 . S
C922 C923 1.419 . S
C922 H951 0.948 . S
C923 C922 1.419 . S
C923 C924 1.391 . S
C923 C927 1.397 . S
C924 C919 1.391 . S
C924 C923 1.391 . S
C924 C925 1.399 . S
C925 C924 1.399 . S
C925 C926 1.396 . S
C925 C928 1.453 . S
C925 C929 1.684 1_545 S
C926 C907 1.723 . S
C926 C925 1.396 . S
C926 C927 1.394 . S
C927 C923 1.397 . S
C927 C926 1.394 . S
C927 C937 1.723 . S
C928 C925 1.453 . S
C928 H952 0.982 . S
C928 H953 0.979 . S
C928 H954 0.977 . S
C929 C925 1.684 1_565 S
C929 H955 0.979 . S
C929 H956 0.980 . S
C929 H957 0.983 . S
C930 H906 0.948 . S
C930 C931 1.391 . S
C930 C935 1.391 1_554 S
C931 C930 1.391 . S
C931 C932 1.391 . S
C932 H909 0.947 . S
C932 C931 1.391 . S
C932 C933 1.392 . S
C933 H910 0.948 . S
C933 C932 1.392 . S
C933 C934 1.419 . S
C934 C933 1.419 . S
C934 C935 1.391 1_554 S
C934 C938 1.397 1_554 S
C935 C930 1.391 1_556 S
C935 C934 1.391 1_556 S
C935 C936 1.399 . S
C936 C935 1.399 . S
C936 C937 1.396 . S
C936 C939 1.453 . S
C936 C940 1.684 . S
C937 C927 1.723 . S
C937 C936 1.396 . S
C937 C938 1.394 . S
C938 C908 1.723 . S
C938 C934 1.397 1_556 S
C938 C937 1.394 . S
C939 H911 0.982 . S
C939 H915 0.979 . S
C939 H916 0.977 . S
C939 C936 1.453 . S
C940 H912 0.979 . S
C940 H913 0.980 . S
C940 H914 0.983 . S
C940 C936 1.684 . S
H941 C959 0.948 1_565 S
H942 C900 0.948 . S
H943 C918 0.979 . S
H944 C918 0.980 . S
H945 C918 0.983 . S
H946 C917 0.982 1_556 S
H947 C917 0.979 . S
H948 C917 0.977 . S
H949 C919 0.948 . S
H950 C921 0.947 . S
H951 C922 0.948 . S
H952 C928 0.982 . S
H953 C928 0.979 . S
H954 C928 0.977 . S
H955 C929 0.979 . S
H956 C929 0.980 . S
H957 C929 0.983 . S
H958 C902 0.947 . S
C959 C902 1.392 1_545 S
C959 C903 1.419 . S
C959 H941 0.948 1_545 S
O960 Cd961 2.223 . S
O960 C968 1.319 . S
Cd961 O960 2.223 . S
Cd961 O964 2.297 . S
Cd961 O965 2.439 . S
Cd961 O971 2.240 . S
Cd962 O963 2.240 . S
Cd962 O970 2.223 1_554 S
Cd962 O972 2.297 . S
Cd962 O973 2.439 . S
O963 Cd962 2.240 . S
O963 C968 1.287 . S
O964 Cd961 2.297 . S
O964 C966 1.247 . S
O965 Cd961 2.439 . S
O965 C966 1.208 . S
C966 O964 1.247 . S
C966 O965 1.208 . S
C967 O972 1.247 . S
C967 O973 1.208 . S
C968 O960 1.319 . S
C968 O963 1.287 . S
C969 O970 1.315 1_554 S
C969 O971 1.279 . S
O970 Cd962 2.223 1_556 S
O970 C969 1.315 1_556 S
O971 Cd961 2.240 . S
O971 C969 1.279 . S
O972 Cd962 2.297 . S
O972 C967 1.247 . S
O973 Cd962 2.439 . S
O973 C967 1.208 . S
O974 Cd975 2.223 . S
O974 C982 1.315 . S
Cd975 O974 2.223 . S
Cd975 O978 2.297 . S
Cd975 O979 2.439 . S
Cd975 O985 2.240 . S
Cd976 O977 2.240 . S
Cd976 O984 2.223 . S
Cd976 O986 2.297 . S
Cd976 O987 2.439 . S
O977 Cd976 2.240 . S
O977 C982 1.279 . S
O978 Cd975 2.297 . S
O978 C980 1.247 . S
O979 Cd975 2.439 . S
O979 C980 1.208 . S
C980 O978 1.247 . S
C980 O979 1.208 . S
C981 O986 1.247 . S
C981 O987 1.208 . S
C982 O974 1.315 . S
C982 O977 1.279 . S
C983 O984 1.315 . S
C983 O985 1.279 . S
O984 Cd976 2.223 . S
O984 C983 1.315 . S
O985 Cd975 2.240 . S
O985 C983 1.279 . S
O986 Cd976 2.297 . S
O986 C981 1.247 . S
O987 Cd976 2.439 . S
O987 C981 1.208 . S
O988 Cd989 2.223 1_556 S
O988 C996 1.315 . S
Cd989 O988 2.223 1_554 S
Cd989 O992 2.297 . S
Cd989 O993 2.439 . S
Cd989 O999 2.240 . S
Cd990 O991 2.240 . S
Cd990 O998 2.223 . S
Cd990 O1000 2.309 . S
Cd990 O1001 2.439 1_556 S
O991 Cd990 2.240 . S
O991 C996 1.279 . S
O992 Cd989 2.297 . S
O992 C994 1.247 . S
O993 Cd989 2.439 . S
O993 C994 1.208 . S
C994 O992 1.247 . S
C994 O993 1.208 . S
C995 O1000 1.217 1_554 S
C995 O1001 1.208 . S
C996 O988 1.315 . S
C996 O991 1.279 . S
C997 O998 1.315 . S
C997 O999 1.279 1_556 S
O998 Cd990 2.223 . S
O998 C997 1.315 . S
O999 Cd989 2.240 . S
O999 C997 1.279 1_554 S
O1000 Cd990 2.309 . S
O1000 C995 1.217 1_556 S
O1001 Cd990 2.439 1_554 S
O1001 C995 1.208 . S
O1002 Cd1003 2.223 1_565 S
O1002 C1010 1.315 1_565 S
Cd1003 O1002 2.223 1_545 S
Cd1003 O1006 2.297 . S
Cd1003 O1007 2.439 . S
Cd1003 O1013 2.240 . S
Cd1004 O1005 2.240 . S
Cd1004 O1012 2.223 . S
Cd1004 O1014 2.297 . S
Cd1004 O1015 2.439 . S
O1005 Cd1004 2.240 . S
O1005 C1010 1.279 . S
O1006 Cd1003 2.297 . S
O1006 C1008 1.247 . S
O1007 Cd1003 2.439 . S
O1007 C1008 1.208 . S
C1008 O1006 1.247 . S
C1008 O1007 1.208 . S
C1009 O1014 1.247 . S
C1009 O1015 1.208 . S
C1010 O1002 1.315 1_545 S
C1010 O1005 1.279 . S
C1011 O1012 1.315 1_565 S
C1011 O1013 1.279 1_565 S
O1012 Cd1004 2.223 . S
O1012 C1011 1.315 1_545 S
O1013 Cd1003 2.240 . S
O1013 C1011 1.279 1_545 S
O1014 Cd1004 2.297 . S
O1014 C1009 1.247 . S
O1015 Cd1004 2.439 . S
O1015 C1009 1.208 . S
O1016 Cd1017 2.223 . S
O1016 C1024 1.315 . S
Cd1017 O1016 2.223 . S
Cd1017 O1020 2.297 . S
Cd1017 O1021 2.439 . S
Cd1017 O1027 2.240 . S
Cd1018 O1019 2.240 . S
Cd1018 O1026 2.223 . S
Cd1018 O1028 2.297 . S
Cd1018 O1029 2.439 . S
O1019 Cd1018 2.240 . S
O1019 C1024 1.279 . S
O1020 Cd1017 2.297 . S
O1020 C1022 1.247 . S
O1021 Cd1017 2.439 . S
O1021 C1022 1.208 . S
C1022 O1020 1.247 . S
C1022 O1021 1.208 . S
C1023 O1028 1.247 . S
C1023 O1029 1.208 . S
C1024 O1016 1.315 . S
C1024 O1019 1.279 . S
C1025 O1026 1.315 . S
C1025 O1027 1.279 . S
O1026 Cd1018 2.223 . S
O1026 C1025 1.315 . S
O1027 Cd1017 2.240 . S
O1027 C1025 1.279 . S
O1028 Cd1018 2.297 . S
O1028 C1023 1.247 . S
O1029 Cd1018 2.439 . S
O1029 C1023 1.208 . S
O1030 Cd1031 2.223 . S
O1030 C1038 1.315 . S
Cd1031 O1030 2.223 . S
Cd1031 O1034 2.297 . S
Cd1031 O1035 2.439 . S
Cd1031 O1041 2.240 . S
Cd1032 O1033 2.240 . S
Cd1032 O1040 2.223 . S
Cd1032 O1042 2.297 . S
Cd1032 O1043 2.439 . S
O1033 Cd1032 2.240 . S
O1033 C1038 1.279 . S
O1034 Cd1031 2.297 . S
O1034 C1036 1.247 . S
O1035 Cd1031 2.439 . S
O1035 C1036 1.208 . S
C1036 O1034 1.247 . S
C1036 O1035 1.208 . S
C1037 O1042 1.247 . S
C1037 O1043 1.208 . S
C1038 O1030 1.315 . S
C1038 O1033 1.279 . S
C1039 O1040 1.315 . S
C1039 O1041 1.279 . S
O1040 Cd1032 2.223 . S
O1040 C1039 1.315 . S
O1041 Cd1031 2.240 . S
O1041 C1039 1.279 . S
O1042 Cd1032 2.297 . S
O1042 C1037 1.247 . S
O1043 Cd1032 2.439 . S
O1043 C1037 1.208 . S
O1044 Cd1045 2.223 . S
O1044 C1052 1.315 . S
Cd1045 O1044 2.223 . S
Cd1045 O1048 2.297 . S
Cd1045 O1049 2.439 . S
Cd1045 O1055 2.240 . S
Cd1046 O1047 2.240 . S
Cd1046 O1054 2.223 . S
Cd1046 O1056 2.297 . S
Cd1046 O1057 2.439 . S
O1047 Cd1046 2.240 . S
O1047 C1052 1.279 . S
O1048 Cd1045 2.297 . S
O1048 C1050 1.247 . S
O1049 Cd1045 2.439 . S
O1049 C1050 1.208 . S
C1050 O1048 1.247 . S
C1050 O1049 1.208 . S
C1051 O1056 1.247 . S
C1051 O1057 1.208 . S
C1052 O1044 1.315 . S
C1052 O1047 1.279 . S
C1053 O1054 1.315 . S
C1053 O1055 1.279 . S
O1054 Cd1046 2.223 . S
O1054 C1053 1.315 . S
O1055 Cd1045 2.240 . S
O1055 C1053 1.279 . S
O1056 Cd1046 2.297 . S
O1056 C1051 1.247 . S
O1057 Cd1046 2.439 . S
O1057 C1051 1.208 . S
O1058 Cd1059 2.223 1_545 S
O1058 C1066 1.315 . S
Cd1059 O1058 2.223 1_565 S
Cd1059 O1062 2.297 . S
Cd1059 O1063 2.439 . S
Cd1059 O1069 2.240 1_565 S
Cd1060 O1061 2.240 . S
Cd1060 O1068 2.223 . S
Cd1060 O1070 2.297 . S
Cd1060 O1071 2.439 1_545 S
O1061 Cd1060 2.240 . S
O1061 C1066 1.279 . S
O1062 Cd1059 2.297 . S
O1062 C1064 1.247 . S
O1063 Cd1059 2.439 . S
O1063 C1064 1.208 . S
C1064 O1062 1.247 . S
C1064 O1063 1.208 . S
C1065 O1070 1.247 1_565 S
C1065 O1071 1.208 . S
C1066 O1058 1.315 . S
C1066 O1061 1.279 . S
C1067 O1068 1.315 . S
C1067 O1069 1.279 . S
O1068 Cd1060 2.223 . S
O1068 C1067 1.315 . S
O1069 Cd1059 2.240 1_545 S
O1069 C1067 1.279 . S
O1070 Cd1060 2.297 . S
O1070 C1065 1.247 1_545 S
O1071 Cd1060 2.439 1_565 S
O1071 C1065 1.208 . S
O1072 Cd1073 2.223 . S
O1072 C1080 1.315 . S
Cd1073 O1072 2.223 . S
Cd1073 O1076 2.297 1_655 S
Cd1073 O1077 2.439 1_655 S
Cd1073 O1083 2.240 . S
Cd1074 O1075 2.240 . S
Cd1074 O1082 2.223 1_455 S
Cd1074 O1084 2.297 . S
Cd1074 O1085 2.439 . S
O1075 Cd1074 2.240 . S
O1075 C1080 1.279 1_455 S
O1076 Cd1073 2.297 1_455 S
O1076 C1078 1.247 . S
O1077 Cd1073 2.439 1_455 S
O1077 C1078 1.208 . S
C1078 O1076 1.247 . S
C1078 O1077 1.208 . S
C1079 O1084 1.247 . S
C1079 O1085 1.208 . S
C1080 O1072 1.315 . S
C1080 O1075 1.279 1_655 S
C1081 O1082 1.315 . S
C1081 O1083 1.279 . S
O1082 Cd1074 2.223 1_655 S
O1082 C1081 1.315 . S
O1083 Cd1073 2.240 . S
O1083 C1081 1.279 . S
O1084 Cd1074 2.297 . S
O1084 C1079 1.247 . S
O1085 Cd1074 2.439 . S
O1085 C1079 1.208 . S
O1086 Cd1087 2.223 . S
O1086 C1094 1.315 . S
Cd1087 O1086 2.223 . S
Cd1087 O1090 2.297 . S
Cd1087 O1091 2.439 . S
Cd1087 O1097 2.240 . S
Cd1088 O1089 2.240 . S
Cd1088 O1096 2.223 . S
Cd1088 O1098 2.297 . S
Cd1088 O1099 2.439 . S
O1089 Cd1088 2.240 . S
O1089 C1094 1.279 . S
O1090 Cd1087 2.297 . S
O1090 C1092 1.247 . S
O1091 Cd1087 2.439 . S
O1091 C1092 1.208 . S
C1092 O1090 1.247 . S
C1092 O1091 1.208 . S
C1093 O1098 1.247 . S
C1093 O1099 1.208 . S
C1094 O1086 1.315 . S
C1094 O1089 1.279 . S
C1095 O1096 1.315 . S
C1095 O1097 1.279 . S
O1096 Cd1088 2.223 . S
O1096 C1095 1.315 . S
O1097 Cd1087 2.240 . S
O1097 C1095 1.279 . S
O1098 Cd1088 2.297 . S
O1098 C1093 1.247 . S
O1099 Cd1088 2.439 . S
O1099 C1093 1.208 . S
O1100 Cd1101 2.223 1_655 S
O1100 C1108 1.315 . S
Cd1101 O1100 2.223 1_455 S
Cd1101 O1104 2.297 . S
Cd1101 O1105 2.439 . S
Cd1101 O1111 2.240 . S
Cd1102 O1103 2.240 . S
Cd1102 O1110 2.223 . S
Cd1102 O1112 2.301 . S
Cd1102 O1113 2.439 1_655 S
O1103 Cd1102 2.240 . S
O1103 C1108 1.279 . S
O1104 Cd1101 2.297 . S
O1104 C1106 1.247 . S
O1105 Cd1101 2.439 . S
O1105 C1106 1.208 . S
C1106 O1104 1.247 . S
C1106 O1105 1.208 . S
C1107 O1112 1.234 1_455 S
C1107 O1113 1.208 . S
C1108 O1100 1.315 . S
C1108 O1103 1.279 . S
C1109 O1110 1.315 . S
C1109 O1111 1.279 1_655 S
O1110 Cd1102 2.223 . S
O1110 C1109 1.315 . S
O1111 Cd1101 2.240 . S
O1111 C1109 1.279 1_455 S
O1112 Cd1102 2.301 . S
O1112 C1107 1.234 1_655 S
O1113 Cd1102 2.439 1_455 S
O1113 C1107 1.208 . S
O1114 Cd1115 2.223 . S
O1114 C1122 1.315 . S
Cd1115 O1114 2.223 . S
Cd1115 O1118 2.297 . S
Cd1115 O1119 2.439 . S
Cd1115 O1125 2.240 . S
Cd1116 O1117 2.240 . S
Cd1116 O1124 2.223 . S
Cd1116 O1126 2.297 . S
Cd1116 O1127 2.439 . S
O1117 Cd1116 2.240 . S
O1117 C1122 1.279 . S
O1118 Cd1115 2.297 . S
O1118 C1120 1.247 . S
O1119 Cd1115 2.439 . S
O1119 C1120 1.208 . S
C1120 O1118 1.247 . S
C1120 O1119 1.208 . S
C1121 O1126 1.247 . S
C1121 O1127 1.208 . S
C1122 O1114 1.315 . S
C1122 O1117 1.279 . S
C1123 O1124 1.315 . S
C1123 O1125 1.279 . S
O1124 Cd1116 2.223 . S
O1124 C1123 1.315 . S
O1125 Cd1115 2.240 . S
O1125 C1123 1.279 . S
O1126 Cd1116 2.297 . S
O1126 C1121 1.247 . S
O1127 Cd1116 2.439 . S
O1127 C1121 1.208 . S
C968 C331 1.616 1_554 S
C983 C380 1.944 . S
C421 C996 1.812 . S
C1010 C260 2.133 1_545 S
C1022 C620 1.595 . S
C1036 C740 1.983 . S
C680 C1050 1.779 . S
C1065 C571 1.908 . S
C691 C1081 1.823 . S
C1094 C541 1.945 . S
C601 C1079 1.475 . S
C1092 C721 2.337 . S
C451 C1108 1.963 . S
C241 C1107 2.354 . S
C320 C1106 1.656 . S
C391 C1109 1.798 . S
C211 C1011 1.821 . S
C841 C1009 1.496 . S
C969 C901 1.712 1_554 S
C980 C500 2.084 . S
C271 C1025 2.054 . S
C1066 C661 2.121 . S
C1023 C560 2.173 . S
C1051 C751 2.211 . S
C1052 C871 1.627 . S
C920 C1067 1.944 . S
C481 C1024 1.812 . S
C1038 C800 2.133 . S
C200 C994 1.595 . S
C1008 C20 1.983 1_655 S
C966 C80 1.779 . S
C981 C151 1.908 1_455 S
C91 C1095 1.823 . S
C121 C1080 1.945 . S
C181 C1093 1.475 . S
C1 C1078 2.337 1_554 S
C1122 C511 1.964 . S
C1121 C781 2.354 . S
C1120 C860 1.656 . S
C931 C1123 1.798 . S
C631 C1039 1.822 . S
C1037 C301 1.496 . S
C1053 C361 1.712 . S
C1064 C440 2.084 . S
C811 C997 2.054 . S
C982 C61 2.121 . S
C140 C995 2.173 . S
C967 C31 2.211 1_565 S
