# Generated by pormake.
# Topology rtl, (3,6)-cn, num edge types: 1
# Building blocks:
#     Node 0, Type 0, BuildingBlock: PAMTOO_clean_linker_0, # of connection points: 3
#     Node 1, Type 0, BuildingBlock: PAMTOO_clean_linker_0, # of connection points: 3
#     Node 2, Type 0, BuildingBlock: PAMTOO_clean_linker_0, # of connection points: 3
#     Node 3, Type 0, BuildingBlock: PAMTOO_clean_linker_0, # of connection points: 3
#     Node 4, Type 1, BuildingBlock: LEVNOQ01_clean_sbu_1, # of connection points: 6
#     Node 5, Type 1, BuildingBlock: LEVNOQ01_clean_sbu_1, # of connection points: 6
#     Edge 6, Type (0, 1), BuildingBlock: FUNLAD_clean_linker_1, # of connection points: 2
#     Edge 7, Type (0, 1), BuildingBlock: FUNLAD_clean_linker_1, # of connection points: 2
#     Edge 8, Type (0, 1), BuildingBlock: FUNLAD_clean_linker_1, # of connection points: 2
#     Edge 9, Type (0, 1), BuildingBlock: FUNLAD_clean_linker_1, # of connection points: 2
#     Edge 10, Type (0, 1), BuildingBlock: FUNLAD_clean_linker_1, # of connection points: 2
#     Edge 11, Type (0, 1), BuildingBlock: FUNLAD_clean_linker_1, # of connection points: 2
#     Edge 12, Type (0, 1), BuildingBlock: FUNLAD_clean_linker_1, # of connection points: 2
#     Edge 13, Type (0, 1), BuildingBlock: FUNLAD_clean_linker_1, # of connection points: 2
#     Edge 14, Type (0, 1), BuildingBlock: FUNLAD_clean_linker_1, # of connection points: 2
#     Edge 15, Type (0, 1), BuildingBlock: FUNLAD_clean_linker_1, # of connection points: 2
#     Edge 16, Type (0, 1), BuildingBlock: FUNLAD_clean_linker_1, # of connection points: 2
#     Edge 17, Type (0, 1), BuildingBlock: FUNLAD_clean_linker_1, # of connection points: 2
# Relax obj value: 0.020
# Max RMSD: 0.116
# Mean RMSD: 0.091
data_MOF--net-rtl--node1-LEVNOQ01_clean_sbu_1--node2-PAMTOO_clean_linker_0--edge1-FUNLAD_clean_linker_1
_symmetry_space_group_name_H-M    P1
_symmetry_Int_Tables_number       1
_symmetry_cell_setting            triclinic
loop_
_symmetry_equiv_pos_as_xyz
'x, y, z'
_cell_length_a     37.306554
_cell_length_b     37.286905
_cell_length_c     23.129199
_cell_angle_alpha  92.165163
_cell_angle_beta   97.283778
_cell_angle_gamma 90.690625
loop_
_atom_site_label
_atom_site_type_symbol
_atom_site_fract_x
_atom_site_fract_y
_atom_site_fract_z
_atom_type_partial_charge
H0 H 0.14878 0.89295 0.05859 0.0
H1 H 0.23309 0.83929 0.16551 0.0
H2 H 0.22082 0.82199 0.98 0.0
H3 H 0.23 0.75743 0.05629 0.0
C4 C 0.25119 0.76938 0.08996 0.0
O5 O 0.25721 0.80488 0.07901 0.0
H6 H 0.2423 0.7674 0.13389 0.0
C7 C 0.17158 0.87519 0.06276 0.0
C8 C 0.18321 0.85917 0.01221 0.0
C9 C 0.18919 0.86784 0.11859 0.0
C10 C 0.21901 0.84516 0.12307 0.0
C11 C 0.22992 0.82838 0.07338 0.0
C12 C 0.21202 0.83522 0.01819 0.0
H13 H 0.64058 0.63819 0.57593 0.0
H14 H 0.70757 0.70556 0.48622 0.0
H15 H 0.71672 0.71261 0.67343 0.0
H16 H 0.72603 0.78225 0.61752 0.0
C17 C 0.73867 0.77219 0.57912 0.0
O18 O 0.74295 0.73557 0.58134 0.0
H19 H 0.72125 0.77864 0.53825 0.0
C20 C 0.6606 0.65964 0.5775 0.0
C21 C 0.67593 0.67528 0.63122 0.0
C22 C 0.6714 0.67079 0.5253 0.0
C23 C 0.69837 0.69741 0.52642 0.0
C24 C 0.71483 0.71229 0.57995 0.0
C25 C 0.70363 0.7012 0.63221 0.0
H26 H 0.8771 0.14567 0.021 0.0
H27 H 0.81298 0.22061 0.91731 0.0
H28 H 0.81676 0.22649 0.10339 0.0
H29 H 0.74355 0.23111 0.02516 0.0
C30 C 0.7533 0.24907 0.9929 0.0
O31 O 0.79007 0.25468 0.00535 0.0
H32 H 0.74691 0.23655 0.94825 0.0
C33 C 0.86029 0.16919 0.01826 0.0
C34 C 0.84978 0.18545 0.06937 0.0
C35 C 0.84679 0.18158 0.96319 0.0
C36 C 0.82363 0.21084 0.95952 0.0
C37 C 0.81309 0.22706 0.00992 0.0
C38 C 0.82572 0.21414 0.06466 0.0
H39 H 0.36467 0.38465 0.51543 0.0
H40 H 0.29346 0.30727 0.57782 0.0
H41 H 0.29587 0.31647 0.39384 0.0
H42 H 0.21966 0.29375 0.4295 0.0
C43 C 0.2313 0.28404 0.47261 0.0
O44 O 0.26821 0.28118 0.4743 0.0
H45 H 0.22462 0.30303 0.50788 0.0
C46 C 0.34317 0.3646 0.50721 0.0
C47 C 0.33113 0.35334 0.44958 0.0
C48 C 0.32901 0.34881 0.55392 0.0
C49 C 0.30356 0.32073 0.54226 0.0
C50 C 0.29111 0.30961 0.48466 0.0
C51 C 0.30458 0.32615 0.43823 0.0
O52 O 0.99267 0.08899 0.64842 0.0
Mg53 Mg 0.04528 0.07312 0.64085 0.0
O54 O 0.97124 0.0357 0.61457 0.0
Mg55 Mg 0.00832 0.01412 0.54558 0.0
O56 O 0.04756 0.06163 0.5565 0.0
O57 O 0.07963 0.10651 0.60448 0.0
O58 O 0.04677 0.99255 0.47905 0.0
O59 O 0.97642 0.04693 0.47244 0.0
Mg60 Mg 0.96899 0.96325 0.44343 0.0
O61 O 0.96757 0.96625 0.53166 0.0
O62 O 0.02 0.94884 0.42106 0.0
O63 O 0.94578 0.01014 0.40575 0.0
O64 O 0.93667 0.92491 0.47234 0.0
C65 C 0.061 0.99443 0.66964 0.0
C66 C 0.96838 0.06484 0.64446 0.0
C67 C 0.07016 0.08811 0.55654 0.0
C68 C 0.04768 0.96795 0.43933 0.0
C69 C 0.95475 0.04167 0.42549 0.0
C70 C 0.94472 0.93943 0.52395 0.0
O71 O 0.06504 0.02751 0.68431 0.0
O72 O 0.0422 0.98341 0.62171 0.0
O73 O 0.55257 0.51177 0.16947 0.0
Mg74 Mg 0.53431 0.46954 0.11059 0.0
O75 O 0.53877 0.54697 0.09696 0.0
Mg76 Mg 0.50257 0.50987 0.02986 0.0
O77 O 0.54469 0.46333 0.02447 0.0
O78 O 0.57839 0.44102 0.10226 0.0
O79 O 0.46514 0.47948 0.95647 0.0
O80 O 0.53802 0.52579 0.9563 0.0
Mg81 Mg 0.48701 0.5618 0.96848 0.0
O82 O 0.46158 0.5578 0.04017 0.0
O83 O 0.46397 0.52584 0.89934 0.0
O84 O 0.54042 0.58304 0.97211 0.0
O85 O 0.45528 0.6036 0.97906 0.0
C86 C 0.46531 0.45997 0.13053 0.0
C87 C 0.55262 0.54257 0.14908 0.0
C88 C 0.57183 0.44455 0.04677 0.0
C89 C 0.45613 0.49331 0.90714 0.0
C90 C 0.55273 0.55572 0.9487 0.0
C91 C 0.44772 0.58846 0.02534 0.0
O92 O 0.49222 0.43966 0.13604 0.0
O93 O 0.46583 0.48737 0.09895 0.0
H94 H 0.23348 0.22501 0.48687 0.0
C95 C 0.21557 0.2478 0.48148 0.0
H96 H 0.16166 0.2651 0.47534 0.0
H97 H 0.10569 0.10643 0.39372 0.0
H98 H 0.09388 0.13707 0.30266 0.0
H99 H 0.11425 0.19981 0.2958 0.0
H100 H 0.14694 0.23209 0.37965 0.0
C101 C 0.18002 0.24284 0.48242 0.0
C102 C 0.1649 0.20633 0.4885 0.0
C103 C 0.14535 0.18807 0.43938 0.0
C104 C 0.13277 0.15227 0.4437 0.0
C105 C 0.1147 0.1341 0.39328 0.0
C106 C 0.10801 0.15128 0.34067 0.0
C107 C 0.11954 0.18656 0.33678 0.0
C108 C 0.13824 0.2048 0.38528 0.0
H109 H 0.06824 0.11908 0.48002 0.0
C110 C 0.0844 0.09914 0.50398 0.0
H111 H 0.13609 0.08024 0.52995 0.0
H112 H 0.19868 0.23516 0.5921 0.0
H113 H 0.20804 0.20588 0.68446 0.0
H114 H 0.18582 0.144 0.69287 0.0
H115 H 0.15441 0.11113 0.60965 0.0
C116 C 0.12044 0.10027 0.50536 0.0
C117 C 0.13848 0.13531 0.49779 0.0
C118 C 0.15789 0.15376 0.54733 0.0
C119 C 0.17094 0.18938 0.54261 0.0
C120 C 0.18893 0.20777 0.59299 0.0
C121 C 0.19428 0.19139 0.64643 0.0
C122 C 0.18175 0.15659 0.65117 0.0
C123 C 0.1637 0.13793 0.60256 0.0
H124 H 0.308 0.76172 0.07094 0.0
C125 C 0.28531 0.749 0.08792 0.0
H126 H 0.26439 0.70111 0.11749 0.0
H127 H 0.37622 0.62411 0.96231 0.0
H128 H 0.32297 0.62226 0.89071 0.0
H129 H 0.26717 0.65241 0.91118 0.0
H130 H 0.26453 0.68477 0.00359 0.0
C131 C 0.28734 0.71463 0.10271 0.0
C132 C 0.31965 0.69356 0.09344 0.0
C133 C 0.3202 0.67375 0.04012 0.0
C134 C 0.35212 0.65605 0.02867 0.0
C135 C 0.35253 0.63765 0.97394 0.0
C136 C 0.32213 0.63645 0.93223 0.0
C137 C 0.29075 0.65344 0.94374 0.0
C138 C 0.28962 0.67192 0.99696 0.0
H139 H 0.40489 0.58934 0.08323 0.0
C140 C 0.42197 0.60585 0.05985 0.0
H141 H 0.43421 0.65783 0.03383 0.0
H142 H 0.3269 0.72858 0.20045 0.0
H143 H 0.38079 0.73135 0.27175 0.0
H144 H 0.43617 0.70003 0.25212 0.0
H145 H 0.43803 0.66576 0.16092 0.0
C146 C 0.41677 0.64129 0.05657 0.0
C147 C 0.38306 0.6576 0.07117 0.0
C148 C 0.38242 0.67696 0.12477 0.0
C149 C 0.35055 0.69501 0.136 0.0
C150 C 0.35054 0.71452 0.18968 0.0
C151 C 0.38123 0.71626 0.23094 0.0
C152 C 0.41243 0.69861 0.21989 0.0
C153 C 0.41316 0.67909 0.16747 0.0
H154 H 0.7991 0.7737 0.58505 0.0
C155 C 0.77503 0.79005 0.57996 0.0
H156 H 0.75457 0.84224 0.57113 0.0
H157 H 0.90264 0.91849 0.67749 0.0
H158 H 0.86446 0.93281 0.75242 0.0
H159 H 0.80327 0.90608 0.74738 0.0
H160 H 0.77987 0.8649 0.66749 0.0
C161 C 0.7784 0.82559 0.5743 0.0
C162 C 0.81457 0.84321 0.57518 0.0
C163 C 0.82778 0.86756 0.62183 0.0
C164 C 0.86293 0.88339 0.6243 0.0
C165 C 0.87579 0.90659 0.67252 0.0
C166 C 0.85427 0.9148 0.71609 0.0
C167 C 0.81983 0.89972 0.71329 0.0
C168 C 0.80669 0.87617 0.66707 0.0
H169 H 0.90172 0.94591 0.57832 0.0
C170 C 0.92346 0.92818 0.56957 0.0
H171 H 0.94278 0.87594 0.56913 0.0
H172 H 0.79542 0.80174 0.47533 0.0
H173 H 0.83236 0.78894 0.39857 0.0
H174 H 0.89356 0.8154 0.40309 0.0
H175 H 0.91799 0.85471 0.48372 0.0
C176 C 0.92072 0.89298 0.57893 0.0
C177 C 0.88457 0.87537 0.57942 0.0
C178 C 0.87098 0.85144 0.53201 0.0
C179 C 0.83586 0.8357 0.52966 0.0
C180 C 0.82235 0.81341 0.48048 0.0
C181 C 0.84315 0.80608 0.43568 0.0
C182 C 0.87755 0.821 0.43819 0.0
C183 C 0.89133 0.84354 0.48532 0.0
H184 H 0.74748 0.30542 0.02603 0.0
C185 C 0.73471 0.28422 0.99657 0.0
H186 H 0.68726 0.26701 0.94242 0.0
H187 H 0.61027 0.37871 0.10666 0.0
H188 H 0.60464 0.32526 0.16083 0.0
H189 H 0.63335 0.26896 0.1333 0.0
H190 H 0.66811 0.26613 0.05141 0.0
C191 C 0.7012 0.28858 0.96958 0.0
C192 C 0.68119 0.32146 0.98184 0.0
C193 C 0.66015 0.32225 0.02866 0.0
C194 C 0.64325 0.35447 0.04395 0.0
C195 C 0.62336 0.35491 0.09234 0.0
C196 C 0.61995 0.32435 0.12406 0.0
C197 C 0.63614 0.2927 0.10859 0.0
C198 C 0.65604 0.29148 0.06152 0.0
H199 H 0.58162 0.41148 0.96923 0.0
C200 C 0.59449 0.42504 0.00903 0.0
H201 H 0.64151 0.4325 0.06919 0.0
H202 H 0.71948 0.32841 0.88952 0.0
H203 H 0.72607 0.38248 0.83598 0.0
H204 H 0.69611 0.43844 0.86192 0.0
H205 H 0.65929 0.44068 0.94175 0.0
C206 C 0.62912 0.41879 0.02913 0.0
C207 C 0.6466 0.3855 0.01126 0.0
C208 C 0.66745 0.38469 0.96423 0.0
C209 C 0.68484 0.35251 0.94947 0.0
C210 C 0.70587 0.35228 0.90266 0.0
C211 C 0.70982 0.38308 0.87159 0.0
C212 C 0.69291 0.4146 0.88619 0.0
C213 C 0.67188 0.41555 0.93194 0.0
H214 H 0.19677 0.8829 0.21281 0.0
C215 C 0.17737 0.88278 0.17347 0.0
H216 H 0.12254 0.89101 0.14133 0.0
H217 H 0.0597 0.87631 0.37807 0.0
H218 H 0.03668 0.82234 0.32504 0.0
H219 H 0.05751 0.80421 0.23144 0.0
H220 H 0.10135 0.84059 0.19008 0.0
C221 C 0.14353 0.8934 0.17837 0.0
C222 C 0.13263 0.90386 0.23645 0.0
C223 C 0.10767 0.88185 0.26091 0.0
C224 C 0.09656 0.89176 0.31586 0.0
C225 C 0.07028 0.86989 0.33766 0.0
C226 C 0.05653 0.83871 0.3074 0.0
C227 C 0.06819 0.82857 0.25467 0.0
C228 C 0.09336 0.84978 0.23141 0.0
H229 H 0.07999 0.98562 0.37309 0.0
C230 C 0.07847 0.96559 0.40566 0.0
H231 H 0.09374 0.91489 0.4344 0.0
H232 H 0.17853 0.95376 0.19998 0.0
H233 H 0.20509 0.00591 0.25578 0.0
H234 H 0.19065 0.01984 0.35528 0.0
H235 H 0.14888 0.98199 0.39904 0.0
C236 C 0.09648 0.93481 0.40208 0.0
C237 C 0.11113 0.92333 0.34714 0.0
C238 C 0.1373 0.94452 0.32368 0.0
C239 C 0.1472 0.93537 0.26755 0.0
C240 C 0.17129 0.95848 0.24341 0.0
C241 C 0.18657 0.98868 0.27483 0.0
C242 C 0.17832 -0.0034 0.33075 0.0
C243 C 0.15407 0.97483 0.35516 0.0
H244 H 0.68557 0.66217 0.72437 0.0
C245 C 0.66511 0.66259 0.68647 0.0
H246 H 0.61033 0.65176 0.65366 0.0
H247 H 0.59992 0.52134 0.81772 0.0
H248 H 0.5913 0.49191 0.72153 0.0
H249 H 0.59686 0.52609 0.63377 0.0
H250 H 0.61182 0.58959 0.64181 0.0
C251 C 0.63138 0.65063 0.69055 0.0
C252 C 0.62282 0.63171 0.74258 0.0
C253 C 0.61331 0.59469 0.73692 0.0
C254 C 0.60856 0.57533 0.78728 0.0
C255 C 0.60168 0.53782 0.78069 0.0
C256 C 0.59715 0.52047 0.72575 0.0
C257 C 0.60039 0.53967 0.67637 0.0
C258 C 0.60889 0.57621 0.68167 0.0
H259 H 0.55056 0.55746 0.85449 0.0
C260 C 0.56879 0.56049 0.89499 0.0
H261 H 0.61913 0.57891 0.93632 0.0
H262 H 0.6349 0.70363 0.76636 0.0
H263 H 0.63784 0.73459 0.86086 0.0
H264 H 0.62826 0.70167 0.94823 0.0
H265 H 0.61573 0.63797 0.94177 0.0
C266 C 0.6017 0.57513 0.89514 0.0
C267 C 0.6111 0.59361 0.84282 0.0
C268 C 0.61916 0.63107 0.84785 0.0
C269 C 0.62494 0.6501 0.79764 0.0
C270 C 0.63144 0.68767 0.8034 0.0
C271 C 0.63285 0.70588 0.85731 0.0
C272 C 0.62742 0.68736 0.90645 0.0
C273 C 0.62044 0.65053 0.90204 0.0
H274 H 0.84153 0.17107 0.15873 0.0
C275 C 0.86097 0.17081 0.12742 0.0
H276 H 0.91352 0.15659 0.11152 0.0
H277 H 0.90978 0.13418 0.3973 0.0
H278 H 0.90621 0.19902 0.40622 0.0
H279 H 0.90127 0.23566 0.31904 0.0
H280 H 0.89937 0.20755 0.22225 0.0
C281 C 0.89362 0.15659 0.14198 0.0
C282 C 0.90139 0.13559 0.19543 0.0
C283 C 0.90364 0.15249 0.25179 0.0
C284 C 0.9081 0.13142 0.30227 0.0
C285 C 0.9081 0.14888 0.3577 0.0
C286 C 0.90576 0.18611 0.36341 0.0
C287 C 0.90285 0.20674 0.31431 0.0
C288 C 0.90163 0.19026 0.25902 0.0
H289 H 0.96298 0.09518 0.39122 0.0
C290 C 0.94437 0.07235 0.38877 0.0
H291 H 0.89735 0.04714 0.3457 0.0
H292 H 0.89924 0.09494 0.09361 0.0
H293 H 0.90779 0.03089 0.08448 0.0
H294 H 0.91966 0.99476 0.17178 0.0
H295 H 0.92255 0.0224 0.26849 0.0
C296 C 0.91553 0.07029 0.34754 0.0
C297 C 0.91187 0.09361 0.29615 0.0
C298 C 0.91146 0.07707 0.23966 0.0
C299 C 0.90577 0.09801 0.18935 0.0
C300 C 0.90416 0.08054 0.13348 0.0
C301 C 0.90898 0.04369 0.1275 0.0
C302 C 0.91557 0.02336 0.17661 0.0
C303 C 0.91691 0.03966 0.23203 0.0
H304 H 0.34524 0.33827 0.64706 0.0
C305 C 0.34305 0.35903 0.61507 0.0
H306 H 0.3517 0.41384 0.6004 0.0
H307 H 0.37745 0.41656 0.88937 0.0
H308 H 0.31328 0.40248 0.88398 0.0
H309 H 0.27676 0.38789 0.78923 0.0
H310 H 0.30417 0.38703 0.69937 0.0
C311 C 0.35417 0.39264 0.63154 0.0
C312 C 0.37546 0.40074 0.68917 0.0
C313 C 0.35884 0.40091 0.74102 0.0
C314 C 0.37966 0.41002 0.79549 0.0
C315 C 0.36262 0.41024 0.8468 0.0
C316 C 0.3259 0.40214 0.84432 0.0
C317 C 0.30536 0.39386 0.79096 0.0
C318 C 0.32146 0.39327 0.73974 0.0
H319 H 0.42269 0.48808 0.82241 0.0
C320 C 0.4362 0.47276 0.85772 0.0
H321 H 0.44989 0.4205 0.88518 0.0
H322 H 0.41591 0.40129 0.59794 0.0
H323 H 0.47968 0.41623 0.60371 0.0
H324 H 0.51561 0.43237 0.69838 0.0
H325 H 0.48773 0.4336 0.788 0.0
C326 C 0.43592 0.4369 0.85189 0.0
C327 C 0.41663 0.41971 0.79767 0.0
C328 C 0.4335 0.41837 0.74609 0.0
C329 C 0.41283 0.40904 0.69166 0.0
C330 C 0.43023 0.40839 0.64055 0.0
C331 C 0.46688 0.41684 0.64322 0.0
C332 C 0.4871 0.42593 0.69651 0.0
C333 C 0.47076 0.42669 0.74752 0.0
H334 H 0.65256 0.62325 0.4705 0.0
C335 C 0.65532 0.65235 0.47073 0.0
H336 H 0.64139 0.69917 0.42493 0.0
H337 H 0.62986 0.60381 0.18725 0.0
H338 H 0.67614 0.64743 0.17345 0.0
H339 H 0.69728 0.69298 0.25075 0.0
H340 H 0.6723 0.6948 0.34266 0.0
C341 C 0.6398 0.67006 0.42502 0.0
C342 C 0.6204 0.64958 0.37383 0.0
C343 C 0.63405 0.64999 0.31949 0.0
C344 C 0.62111 0.62434 0.27438 0.0
C345 C 0.63736 0.62353 0.2222 0.0
C346 C 0.66431 0.64828 0.21386 0.0
C347 C 0.67627 0.67386 0.25742 0.0
C348 C 0.66168 0.67462 0.30994 0.0
H349 H 0.56207 0.60046 0.17104 0.0
C350 C 0.56657 0.57359 0.18682 0.0
H351 H 0.58669 0.5421 0.25716 0.0
H352 H 0.58245 0.64785 0.46776 0.0
H353 H 0.53376 0.60626 0.48051 0.0
H354 H 0.51121 0.56156 0.40258 0.0
H355 H 0.53721 0.55823 0.3116 0.0
C356 C 0.58322 0.56899 0.24092 0.0
C357 C 0.59357 0.59929 0.28338 0.0
C358 C 0.57766 0.60112 0.33594 0.0
C359 C 0.59088 0.62652 0.38105 0.0
C360 C 0.57422 0.62818 0.43285 0.0
C361 C 0.546 0.60473 0.4405 0.0
C362 C 0.5333 0.57959 0.39662 0.0
C363 C 0.54865 0.57783 0.34473 0.0
H364 H 0.83144 0.16042 0.87315 0.0
C365 C 0.85357 0.16252 0.90864 0.0
H366 H 0.90843 0.15156 0.93496 0.0
H367 H 0.9133 0.01824 0.7598 0.0
H368 H 0.92776 0.99156 0.8541 0.0
H369 H 0.92495 0.02738 0.94531 0.0
H370 H 0.90728 0.08964 0.94292 0.0
C371 C 0.88585 0.1492 0.90034 0.0
C372 C 0.89065 0.12882 0.84527 0.0
C373 C 0.90072 0.09231 0.84759 0.0
C374 C 0.90324 0.07191 0.79513 0.0
C375 C 0.91233 0.03521 0.79858 0.0
C376 C 0.92036 0.01953 0.85231 0.0
C377 C 0.91872 0.03967 0.90363 0.0
C378 C 0.9086 0.07549 0.90158 0.0
H379 H 0.96309 0.0694 0.73584 0.0
C380 C 0.94711 0.06544 0.69325 0.0
H381 H 0.89565 0.07049 0.64588 0.0
H382 H 0.8764 0.19975 0.82544 0.0
H383 H 0.86434 0.22672 0.73162 0.0
H384 H 0.86634 0.1907 0.6405 0.0
H385 H 0.8807 0.12767 0.64282 0.0
C386 C 0.91161 0.07135 0.68858 0.0
C387 C 0.89745 0.08845 0.74044 0.0
C388 C 0.88656 0.12476 0.73806 0.0
C389 C 0.88408 0.14524 0.79055 0.0
C390 C 0.87665 0.18236 0.78703 0.0
C391 C 0.87016 0.19838 0.73338 0.0
C392 C 0.87142 0.17814 0.68212 0.0
C393 C 0.87977 0.14187 0.68416 0.0
H394 H 0.37845 0.35854 0.40266 0.0
C395 C 0.35047 0.36641 0.40268 0.0
H396 H 0.30854 0.39877 0.36427 0.0
H397 H 0.4346 0.49066 0.26742 0.0
H398 H 0.41845 0.53195 0.34315 0.0
H399 H 0.37376 0.5144 0.40735 0.0
H400 H 0.34507 0.45522 0.3964 0.0
C401 C 0.33569 0.38885 0.36278 0.0
C402 C 0.35745 0.40169 0.31774 0.0
C403 C 0.37281 0.43681 0.32309 0.0
C404 C 0.39825 0.44708 0.28549 0.0
C405 C 0.41462 0.48167 0.29391 0.0
C406 C 0.40569 0.5056 0.3374 0.0
C407 C 0.38055 0.4957 0.37361 0.0
C408 C 0.36429 0.4617 0.36687 0.0
H409 H 0.41005 0.46842 0.15413 0.0
C410 C 0.43474 0.45345 0.16395 0.0
H411 H 0.46243 0.41538 0.21754 0.0
H412 H 0.32927 0.33414 0.2911 0.0
H413 H 0.34577 0.29241 0.21623 0.0
H414 H 0.3907 0.30964 0.15223 0.0
H415 H 0.41906 0.36882 0.16227 0.0
C416 C 0.43781 0.43049 0.2078 0.0
C417 C 0.40777 0.42228 0.24209 0.0
C418 C 0.39129 0.38766 0.23544 0.0
C419 C 0.36583 0.3775 0.27285 0.0
C420 C 0.34943 0.34291 0.26471 0.0
C421 C 0.3585 0.31877 0.2217 0.0
C422 C 0.38376 0.32849 0.18564 0.0
C423 C 0.39993 0.36252 0.19203 0.0
H424 H 0.16502 0.84444 0.91928 0.0
C425 C 0.16492 0.86569 0.95279 0.0
H426 H 0.1496 0.91898 0.9705 0.0
H427 H 0.13239 0.91943 0.68287 0.0
H428 H 0.19777 0.91403 0.69292 0.0
H429 H 0.23247 0.90354 0.78872 0.0
H430 H 0.20209 0.89791 0.87477 0.0
C431 C 0.14949 0.89701 0.93832 0.0
C432 C 0.12911 0.90195 0.87965 0.0
C433 C 0.14745 0.90509 0.82991 0.0
C434 C 0.12763 0.91242 0.77505 0.0
C435 C 0.14641 0.91498 0.72584 0.0
C436 C 0.18384 0.91172 0.73096 0.0
C437 C 0.20335 0.90572 0.78487 0.0
C438 C 0.18553 0.90237 0.8339 0.0
H439 H 0.10252 0.98226 0.74052 0.0
C440 C 0.08059 0.96996 0.71043 0.0
H441 H 0.04758 0.9234 0.6926 0.0
H442 H 0.08559 0.89537 0.96559 0.0
H443 H 0.02075 0.90343 0.95616 0.0
H444 H 0.98664 0.9179 0.86168 0.0
H445 H 0.01721 0.92413 0.77585 0.0
C446 C 0.07109 0.93591 0.71841 0.0
C447 C 0.08979 0.91806 0.77042 0.0
C448 C 0.07133 0.91341 0.81966 0.0
C449 C 0.09103 0.90543 0.87431 0.0
C450 C 0.07203 0.90174 0.92313 0.0
C451 C 0.03478 0.90624 0.91833 0.0
C452 C 0.01559 0.91437 0.86512 0.0
C453 C 0.03348 0.91794 0.81622 0.0
loop_
_geom_bond_atom_site_label_1
_geom_bond_atom_site_label_2
_geom_bond_distance
_geom_bond_site_symmetry_2
_ccdc_geom_bond_type
H0 C7 0.929 . S
H1 C10 0.930 . S
H2 C12 0.929 1_556 S
H3 C4 0.969 . S
C4 H3 0.969 . S
C4 O5 1.550 . S
C4 H6 0.973 . S
O5 C4 1.550 . S
O5 C11 1.412 . S
H6 C4 0.973 . S
C7 H0 0.929 . S
C7 C8 1.400 . S
C7 C9 1.364 . S
C8 C7 1.400 . S
C8 C12 1.377 . S
C9 C7 1.364 . S
C9 C10 1.374 . S
C10 H1 0.930 . S
C10 C9 1.374 . S
C10 C11 1.383 . S
C11 O5 1.412 . S
C11 C10 1.383 . S
C11 C12 1.394 . S
C12 H2 0.929 1_554 S
C12 C8 1.377 . S
C12 C11 1.394 . S
H13 C20 0.929 . S
H14 C23 0.930 . S
H15 C25 0.929 . S
H16 C17 0.969 . S
C17 H16 0.969 . S
C17 O18 1.550 . S
C17 H19 0.973 . S
O18 C17 1.550 . S
O18 C24 1.412 . S
H19 C17 0.973 . S
C20 H13 0.929 . S
C20 C21 1.400 . S
C20 C22 1.364 . S
C21 C20 1.400 . S
C21 C25 1.377 . S
C22 C20 1.364 . S
C22 C23 1.374 . S
C23 H14 0.930 . S
C23 C22 1.374 . S
C23 C24 1.383 . S
C24 O18 1.412 . S
C24 C23 1.383 . S
C24 C25 1.394 . S
C25 H15 0.929 . S
C25 C21 1.377 . S
C25 C24 1.394 . S
H26 C33 0.929 . S
H27 C36 0.930 . S
H28 C38 0.929 . S
H29 C30 0.969 . S
C30 H29 0.969 . S
C30 O31 1.550 1_556 S
C30 H32 0.973 . S
O31 C30 1.550 1_554 S
O31 C37 1.412 . S
H32 C30 0.973 . S
C33 H26 0.929 . S
C33 C34 1.400 . S
C33 C35 1.364 1_554 S
C34 C33 1.400 . S
C34 C38 1.377 . S
C35 C33 1.364 1_556 S
C35 C36 1.374 . S
C36 H27 0.930 . S
C36 C35 1.374 . S
C36 C37 1.383 1_556 S
C37 O31 1.412 . S
C37 C36 1.383 1_554 S
C37 C38 1.394 . S
C38 H28 0.929 . S
C38 C34 1.377 . S
C38 C37 1.394 . S
H39 C46 0.929 . S
H40 C49 0.930 . S
H41 C51 0.929 . S
H42 C43 0.969 . S
C43 H42 0.969 . S
C43 O44 1.550 . S
C43 H45 0.973 . S
O44 C43 1.550 . S
O44 C50 1.412 . S
H45 C43 0.973 . S
C46 H39 0.929 . S
C46 C47 1.400 . S
C46 C48 1.364 . S
C47 C46 1.400 . S
C47 C51 1.377 . S
C48 C46 1.364 . S
C48 C49 1.374 . S
C49 H40 0.930 . S
C49 C48 1.374 . S
C49 C50 1.383 . S
C50 O44 1.412 . S
C50 C49 1.383 . S
C50 C51 1.394 . S
C51 H41 0.929 . S
C51 C47 1.377 . S
C51 C50 1.394 . S
O52 Mg53 1.990 . S
O52 C66 1.253 1_455 S
Mg53 O52 1.990 . S
Mg53 O56 2.180 . S
Mg53 O57 2.117 . S
Mg53 O71 2.030 . S
O54 Mg55 2.072 1_655 S
O54 C66 1.260 . S
Mg55 O54 2.072 1_455 S
Mg55 O56 2.099 . S
Mg55 O58 2.079 1_545 S
Mg55 O59 2.072 1_455 S
Mg55 O61 2.099 1_445 S
Mg55 O72 2.079 1_545 S
O56 Mg53 2.180 . S
O56 Mg55 2.099 . S
O56 C67 1.279 . S
O57 Mg53 2.117 . S
O57 C67 1.250 . S
O58 Mg55 2.079 1_565 S
O58 C68 1.264 . S
O59 Mg55 2.072 1_655 S
O59 C69 1.260 . S
Mg60 O61 2.180 . S
Mg60 O62 2.030 1_655 S
Mg60 O63 1.990 1_565 S
Mg60 O64 2.117 . S
O61 Mg55 2.099 1_665 S
O61 Mg60 2.180 . S
O61 C70 1.279 . S
O62 Mg60 2.030 1_455 S
O62 C68 1.248 . S
O63 Mg60 1.990 1_545 S
O63 C69 1.253 . S
O64 Mg60 2.117 . S
O64 C70 1.250 . S
C65 O71 1.248 1_565 S
C65 O72 1.264 . S
C66 O52 1.253 1_655 S
C66 O54 1.260 . S
C67 O56 1.279 . S
C67 O57 1.250 . S
C68 O58 1.264 . S
C68 O62 1.248 . S
C69 O59 1.260 . S
C69 O63 1.253 . S
C70 O61 1.279 . S
C70 O64 1.250 . S
O71 Mg53 2.030 . S
O71 C65 1.248 1_545 S
O72 Mg55 2.079 1_565 S
O72 C65 1.264 . S
O73 Mg74 1.990 . S
O73 C87 1.253 . S
Mg74 O73 1.990 . S
Mg74 O77 2.180 . S
Mg74 O78 2.117 . S
Mg74 O92 2.030 . S
O75 Mg76 2.072 . S
O75 C87 1.260 . S
Mg76 O75 2.072 . S
Mg76 O77 2.099 . S
Mg76 O79 2.079 1_554 S
Mg76 O80 2.072 1_554 S
Mg76 O82 2.099 . S
Mg76 O93 2.079 . S
O77 Mg74 2.180 . S
O77 Mg76 2.099 . S
O77 C88 1.279 . S
O78 Mg74 2.117 . S
O78 C88 1.250 . S
O79 Mg76 2.079 1_556 S
O79 C89 1.264 . S
O80 Mg76 2.072 1_556 S
O80 C90 1.260 . S
Mg81 O82 2.180 1_556 S
Mg81 O83 2.030 . S
Mg81 O84 1.990 . S
Mg81 O85 2.117 . S
O82 Mg76 2.099 . S
O82 Mg81 2.180 1_554 S
O82 C91 1.279 . S
O83 Mg81 2.030 . S
O83 C89 1.248 . S
O84 Mg81 1.990 . S
O84 C90 1.253 . S
O85 Mg81 2.117 . S
O85 C91 1.250 1_556 S
C86 O92 1.248 . S
C86 O93 1.264 . S
C87 O73 1.253 . S
C87 O75 1.260 . S
C88 O77 1.279 . S
C88 O78 1.250 . S
C89 O79 1.264 . S
C89 O83 1.248 . S
C90 O80 1.260 . S
C90 O84 1.253 . S
C91 O82 1.279 . S
C91 O85 1.250 1_554 S
O92 Mg74 2.030 . S
O92 C86 1.248 . S
O93 Mg76 2.079 . S
O93 C86 1.264 . S
H94 C95 0.951 . S
C95 H94 0.951 . S
C95 C101 1.265 . S
H96 C101 0.950 . S
H97 C105 0.949 . S
H98 C106 0.950 . S
H99 C107 0.951 . S
H100 C108 0.951 . S
C101 C95 1.265 . S
C101 H96 0.950 . S
C101 C102 1.478 . S
C102 C101 1.478 . S
C102 C103 1.397 . S
C102 C119 1.394 . S
C103 C102 1.397 . S
C103 C104 1.438 . S
C103 C108 1.429 . S
C104 C103 1.438 . S
C104 C105 1.428 . S
C104 C117 1.394 . S
C105 H97 0.949 . S
C105 C104 1.428 . S
C105 C106 1.345 . S
C106 H98 0.950 . S
C106 C105 1.345 . S
C106 C107 1.424 . S
C107 H99 0.951 . S
C107 C106 1.424 . S
C107 C108 1.347 . S
C108 H100 0.951 . S
C108 C103 1.429 . S
C108 C107 1.347 . S
H109 C110 0.951 . S
C110 H109 0.951 . S
C110 C116 1.265 . S
H111 C116 0.950 . S
H112 C120 0.949 . S
H113 C121 0.950 . S
H114 C122 0.951 . S
H115 C123 0.951 . S
C116 C110 1.265 . S
C116 H111 0.950 . S
C116 C117 1.478 . S
C117 C104 1.394 . S
C117 C116 1.478 . S
C117 C118 1.397 . S
C118 C117 1.397 . S
C118 C119 1.438 . S
C118 C123 1.429 . S
C119 C102 1.394 . S
C119 C118 1.438 . S
C119 C120 1.428 . S
C120 H112 0.949 . S
C120 C119 1.428 . S
C120 C121 1.345 . S
C121 H113 0.950 . S
C121 C120 1.345 . S
C121 C122 1.424 . S
C122 H114 0.951 . S
C122 C121 1.424 . S
C122 C123 1.347 . S
C123 H115 0.951 . S
C123 C118 1.429 . S
C123 C122 1.347 . S
H124 C125 0.951 . S
C125 H124 0.951 . S
C125 C131 1.265 . S
H126 C131 0.950 . S
H127 C135 0.949 . S
H128 C136 0.950 . S
H129 C137 0.951 . S
H130 C138 0.951 . S
C131 C125 1.265 . S
C131 H126 0.950 . S
C131 C132 1.478 . S
C132 C131 1.478 . S
C132 C133 1.397 . S
C132 C149 1.394 . S
C133 C132 1.397 . S
C133 C134 1.438 . S
C133 C138 1.429 1_554 S
C134 C133 1.438 . S
C134 C135 1.428 1_554 S
C134 C147 1.394 . S
C135 H127 0.949 . S
C135 C134 1.428 1_556 S
C135 C136 1.345 . S
C136 H128 0.950 . S
C136 C135 1.345 . S
C136 C137 1.424 . S
C137 H129 0.951 . S
C137 C136 1.424 . S
C137 C138 1.347 . S
C138 H130 0.951 . S
C138 C133 1.429 1_556 S
C138 C137 1.347 . S
H139 C140 0.951 . S
C140 H139 0.951 . S
C140 C146 1.265 . S
H141 C146 0.950 . S
H142 C150 0.949 . S
H143 C151 0.950 . S
H144 C152 0.951 . S
H145 C153 0.951 . S
C146 C140 1.265 . S
C146 H141 0.950 . S
C146 C147 1.478 . S
C147 C134 1.394 . S
C147 C146 1.478 . S
C147 C148 1.397 . S
C148 C147 1.397 . S
C148 C149 1.438 . S
C148 C153 1.429 . S
C149 C132 1.394 . S
C149 C148 1.438 . S
C149 C150 1.428 . S
C150 H142 0.949 . S
C150 C149 1.428 . S
C150 C151 1.345 . S
C151 H143 0.950 . S
C151 C150 1.345 . S
C151 C152 1.424 . S
C152 H144 0.951 . S
C152 C151 1.424 . S
C152 C153 1.347 . S
C153 H145 0.951 . S
C153 C148 1.429 . S
C153 C152 1.347 . S
H154 C155 0.951 . S
C155 H154 0.951 . S
C155 C161 1.265 . S
H156 C161 0.950 . S
H157 C165 0.949 . S
H158 C166 0.950 . S
H159 C167 0.951 . S
H160 C168 0.951 . S
C161 C155 1.265 . S
C161 H156 0.950 . S
C161 C162 1.478 . S
C162 C161 1.478 . S
C162 C163 1.397 . S
C162 C179 1.394 . S
C163 C162 1.397 . S
C163 C164 1.438 . S
C163 C168 1.429 . S
C164 C163 1.438 . S
C164 C165 1.428 . S
C164 C177 1.394 . S
C165 H157 0.949 . S
C165 C164 1.428 . S
C165 C166 1.345 . S
C166 H158 0.950 . S
C166 C165 1.345 . S
C166 C167 1.424 . S
C167 H159 0.951 . S
C167 C166 1.424 . S
C167 C168 1.347 . S
C168 H160 0.951 . S
C168 C163 1.429 . S
C168 C167 1.347 . S
H169 C170 0.951 . S
C170 H169 0.951 . S
C170 C176 1.265 . S
H171 C176 0.950 . S
H172 C180 0.949 . S
H173 C181 0.950 . S
H174 C182 0.951 . S
H175 C183 0.951 . S
C176 C170 1.265 . S
C176 H171 0.950 . S
C176 C177 1.478 . S
C177 C164 1.394 . S
C177 C176 1.478 . S
C177 C178 1.397 . S
C178 C177 1.397 . S
C178 C179 1.438 . S
C178 C183 1.429 . S
C179 C162 1.394 . S
C179 C178 1.438 . S
C179 C180 1.428 . S
C180 H172 0.949 . S
C180 C179 1.428 . S
C180 C181 1.345 . S
C181 H173 0.950 . S
C181 C180 1.345 . S
C181 C182 1.424 . S
C182 H174 0.951 . S
C182 C181 1.424 . S
C182 C183 1.347 . S
C183 H175 0.951 . S
C183 C178 1.429 . S
C183 C182 1.347 . S
H184 C185 0.951 1_554 S
C185 H184 0.951 1_556 S
C185 C191 1.265 . S
H186 C191 0.950 . S
H187 C195 0.949 . S
H188 C196 0.950 . S
H189 C197 0.951 . S
H190 C198 0.951 . S
C191 C185 1.265 . S
C191 H186 0.950 . S
C191 C192 1.478 . S
C192 C191 1.478 . S
C192 C193 1.397 1_556 S
C192 C209 1.394 . S
C193 C192 1.397 1_554 S
C193 C194 1.438 . S
C193 C198 1.429 . S
C194 C193 1.438 . S
C194 C195 1.428 . S
C194 C207 1.394 . S
C195 H187 0.949 . S
C195 C194 1.428 . S
C195 C196 1.345 . S
C196 H188 0.950 . S
C196 C195 1.345 . S
C196 C197 1.424 . S
C197 H189 0.951 . S
C197 C196 1.424 . S
C197 C198 1.347 . S
C198 H190 0.951 . S
C198 C193 1.429 . S
C198 C197 1.347 . S
H199 C200 0.951 . S
C200 H199 0.951 . S
C200 C206 1.265 . S
H201 C206 0.950 . S
H202 C210 0.949 . S
H203 C211 0.950 . S
H204 C212 0.951 . S
H205 C213 0.951 . S
C206 C200 1.265 . S
C206 H201 0.950 . S
C206 C207 1.478 . S
C207 C194 1.394 . S
C207 C206 1.478 . S
C207 C208 1.397 1_554 S
C208 C207 1.397 1_556 S
C208 C209 1.438 . S
C208 C213 1.429 . S
C209 C192 1.394 . S
C209 C208 1.438 . S
C209 C210 1.428 . S
C210 H202 0.949 . S
C210 C209 1.428 . S
C210 C211 1.345 . S
C211 H203 0.950 . S
C211 C210 1.345 . S
C211 C212 1.424 . S
C212 H204 0.951 . S
C212 C211 1.424 . S
C212 C213 1.347 . S
C213 H205 0.951 . S
C213 C208 1.429 . S
C213 C212 1.347 . S
H214 C215 0.951 . S
C215 H214 0.951 . S
C215 C221 1.265 . S
H216 C221 0.950 . S
H217 C225 0.949 . S
H218 C226 0.950 . S
H219 C227 0.951 . S
H220 C228 0.951 . S
C221 C215 1.265 . S
C221 H216 0.950 . S
C221 C222 1.478 . S
C222 C221 1.478 . S
C222 C223 1.397 . S
C222 C239 1.394 . S
C223 C222 1.397 . S
C223 C224 1.438 . S
C223 C228 1.429 . S
C224 C223 1.438 . S
C224 C225 1.428 . S
C224 C237 1.394 . S
C225 H217 0.949 . S
C225 C224 1.428 . S
C225 C226 1.345 . S
C226 H218 0.950 . S
C226 C225 1.345 . S
C226 C227 1.424 . S
C227 H219 0.951 . S
C227 C226 1.424 . S
C227 C228 1.347 . S
C228 H220 0.951 . S
C228 C223 1.429 . S
C228 C227 1.347 . S
H229 C230 0.951 . S
C230 H229 0.951 . S
C230 C236 1.265 . S
H231 C236 0.950 . S
H232 C240 0.949 . S
H233 C241 0.950 . S
H234 C242 0.951 1_545 S
H235 C243 0.951 . S
C236 C230 1.265 . S
C236 H231 0.950 . S
C236 C237 1.478 . S
C237 C224 1.394 . S
C237 C236 1.478 . S
C237 C238 1.397 . S
C238 C237 1.397 . S
C238 C239 1.438 . S
C238 C243 1.429 . S
C239 C222 1.394 . S
C239 C238 1.438 . S
C239 C240 1.428 . S
C240 H232 0.949 . S
C240 C239 1.428 . S
C240 C241 1.345 . S
C241 H233 0.950 . S
C241 C240 1.345 . S
C241 C242 1.424 . S
C242 H234 0.951 1_565 S
C242 C241 1.424 . S
C242 C243 1.347 . S
C243 H235 0.951 . S
C243 C238 1.429 . S
C243 C242 1.347 . S
H244 C245 0.951 . S
C245 H244 0.951 . S
C245 C251 1.265 . S
H246 C251 0.950 . S
H247 C255 0.949 . S
H248 C256 0.950 . S
H249 C257 0.951 . S
H250 C258 0.951 . S
C251 C245 1.265 . S
C251 H246 0.950 . S
C251 C252 1.478 . S
C252 C251 1.478 . S
C252 C253 1.397 . S
C252 C269 1.394 . S
C253 C252 1.397 . S
C253 C254 1.438 . S
C253 C258 1.429 . S
C254 C253 1.438 . S
C254 C255 1.428 . S
C254 C267 1.394 . S
C255 H247 0.949 . S
C255 C254 1.428 . S
C255 C256 1.345 . S
C256 H248 0.950 . S
C256 C255 1.345 . S
C256 C257 1.424 . S
C257 H249 0.951 . S
C257 C256 1.424 . S
C257 C258 1.347 . S
C258 H250 0.951 . S
C258 C253 1.429 . S
C258 C257 1.347 . S
H259 C260 0.951 . S
C260 H259 0.951 . S
C260 C266 1.265 . S
H261 C266 0.950 . S
H262 C270 0.949 . S
H263 C271 0.950 . S
H264 C272 0.951 . S
H265 C273 0.951 . S
C266 C260 1.265 . S
C266 H261 0.950 . S
C266 C267 1.478 . S
C267 C254 1.394 . S
C267 C266 1.478 . S
C267 C268 1.397 . S
C268 C267 1.397 . S
C268 C269 1.438 . S
C268 C273 1.429 . S
C269 C252 1.394 . S
C269 C268 1.438 . S
C269 C270 1.428 . S
C270 H262 0.949 . S
C270 C269 1.428 . S
C270 C271 1.345 . S
C271 H263 0.950 . S
C271 C270 1.345 . S
C271 C272 1.424 . S
C272 H264 0.951 . S
C272 C271 1.424 . S
C272 C273 1.347 . S
C273 H265 0.951 . S
C273 C268 1.429 . S
C273 C272 1.347 . S
H274 C275 0.951 . S
C275 H274 0.951 . S
C275 C281 1.265 . S
H276 C281 0.950 . S
H277 C285 0.949 . S
H278 C286 0.950 . S
H279 C287 0.951 . S
H280 C288 0.951 . S
C281 C275 1.265 . S
C281 H276 0.950 . S
C281 C282 1.478 . S
C282 C281 1.478 . S
C282 C283 1.397 . S
C282 C299 1.394 . S
C283 C282 1.397 . S
C283 C284 1.438 . S
C283 C288 1.429 . S
C284 C283 1.438 . S
C284 C285 1.428 . S
C284 C297 1.394 . S
C285 H277 0.949 . S
C285 C284 1.428 . S
C285 C286 1.345 . S
C286 H278 0.950 . S
C286 C285 1.345 . S
C286 C287 1.424 . S
C287 H279 0.951 . S
C287 C286 1.424 . S
C287 C288 1.347 . S
C288 H280 0.951 . S
C288 C283 1.429 . S
C288 C287 1.347 . S
H289 C290 0.951 . S
C290 H289 0.951 . S
C290 C296 1.265 . S
H291 C296 0.950 . S
H292 C300 0.949 . S
H293 C301 0.950 . S
H294 C302 0.951 1_565 S
H295 C303 0.951 . S
C296 C290 1.265 . S
C296 H291 0.950 . S
C296 C297 1.478 . S
C297 C284 1.394 . S
C297 C296 1.478 . S
C297 C298 1.397 . S
C298 C297 1.397 . S
C298 C299 1.438 . S
C298 C303 1.429 . S
C299 C282 1.394 . S
C299 C298 1.438 . S
C299 C300 1.428 . S
C300 H292 0.949 . S
C300 C299 1.428 . S
C300 C301 1.345 . S
C301 H293 0.950 . S
C301 C300 1.345 . S
C301 C302 1.424 . S
C302 H294 0.951 1_545 S
C302 C301 1.424 . S
C302 C303 1.347 . S
C303 H295 0.951 . S
C303 C298 1.429 . S
C303 C302 1.347 . S
H304 C305 0.951 . S
C305 H304 0.951 . S
C305 C311 1.265 . S
H306 C311 0.950 . S
H307 C315 0.949 . S
H308 C316 0.950 . S
H309 C317 0.951 . S
H310 C318 0.951 . S
C311 C305 1.265 . S
C311 H306 0.950 . S
C311 C312 1.478 . S
C312 C311 1.478 . S
C312 C313 1.397 . S
C312 C329 1.394 . S
C313 C312 1.397 . S
C313 C314 1.438 . S
C313 C318 1.429 . S
C314 C313 1.438 . S
C314 C315 1.428 . S
C314 C327 1.394 . S
C315 H307 0.949 . S
C315 C314 1.428 . S
C315 C316 1.345 . S
C316 H308 0.950 . S
C316 C315 1.345 . S
C316 C317 1.424 . S
C317 H309 0.951 . S
C317 C316 1.424 . S
C317 C318 1.347 . S
C318 H310 0.951 . S
C318 C313 1.429 . S
C318 C317 1.347 . S
H319 C320 0.951 . S
C320 H319 0.951 . S
C320 C326 1.265 . S
H321 C326 0.950 . S
H322 C330 0.949 . S
H323 C331 0.950 . S
H324 C332 0.951 . S
H325 C333 0.951 . S
C326 C320 1.265 . S
C326 H321 0.950 . S
C326 C327 1.478 . S
C327 C314 1.394 . S
C327 C326 1.478 . S
C327 C328 1.397 . S
C328 C327 1.397 . S
C328 C329 1.438 . S
C328 C333 1.429 . S
C329 C312 1.394 . S
C329 C328 1.438 . S
C329 C330 1.428 . S
C330 H322 0.949 . S
C330 C329 1.428 . S
C330 C331 1.345 . S
C331 H323 0.950 . S
C331 C330 1.345 . S
C331 C332 1.424 . S
C332 H324 0.951 . S
C332 C331 1.424 . S
C332 C333 1.347 . S
C333 H325 0.951 . S
C333 C328 1.429 . S
C333 C332 1.347 . S
H334 C335 0.951 . S
C335 H334 0.951 . S
C335 C341 1.265 . S
H336 C341 0.950 . S
H337 C345 0.949 . S
H338 C346 0.950 . S
H339 C347 0.951 . S
H340 C348 0.951 . S
C341 C335 1.265 . S
C341 H336 0.950 . S
C341 C342 1.478 . S
C342 C341 1.478 . S
C342 C343 1.397 . S
C342 C359 1.394 . S
C343 C342 1.397 . S
C343 C344 1.438 . S
C343 C348 1.429 . S
C344 C343 1.438 . S
C344 C345 1.428 . S
C344 C357 1.394 . S
C345 H337 0.949 . S
C345 C344 1.428 . S
C345 C346 1.345 . S
C346 H338 0.950 . S
C346 C345 1.345 . S
C346 C347 1.424 . S
C347 H339 0.951 . S
C347 C346 1.424 . S
C347 C348 1.347 . S
C348 H340 0.951 . S
C348 C343 1.429 . S
C348 C347 1.347 . S
H349 C350 0.951 . S
C350 H349 0.951 . S
C350 C356 1.265 . S
H351 C356 0.950 . S
H352 C360 0.949 . S
H353 C361 0.950 . S
H354 C362 0.951 . S
H355 C363 0.951 . S
C356 C350 1.265 . S
C356 H351 0.950 . S
C356 C357 1.478 . S
C357 C344 1.394 . S
C357 C356 1.478 . S
C357 C358 1.397 . S
C358 C357 1.397 . S
C358 C359 1.438 . S
C358 C363 1.429 . S
C359 C342 1.394 . S
C359 C358 1.438 . S
C359 C360 1.428 . S
C360 H352 0.949 . S
C360 C359 1.428 . S
C360 C361 1.345 . S
C361 H353 0.950 . S
C361 C360 1.345 . S
C361 C362 1.424 . S
C362 H354 0.951 . S
C362 C361 1.424 . S
C362 C363 1.347 . S
C363 H355 0.951 . S
C363 C358 1.429 . S
C363 C362 1.347 . S
H364 C365 0.951 . S
C365 H364 0.951 . S
C365 C371 1.265 . S
H366 C371 0.950 . S
H367 C375 0.949 . S
H368 C376 0.950 . S
H369 C377 0.951 . S
H370 C378 0.951 . S
C371 C365 1.265 . S
C371 H366 0.950 . S
C371 C372 1.478 . S
C372 C371 1.478 . S
C372 C373 1.397 . S
C372 C389 1.394 . S
C373 C372 1.397 . S
C373 C374 1.438 . S
C373 C378 1.429 . S
C374 C373 1.438 . S
C374 C375 1.428 . S
C374 C387 1.394 . S
C375 H367 0.949 . S
C375 C374 1.428 . S
C375 C376 1.345 . S
C376 H368 0.950 . S
C376 C375 1.345 . S
C376 C377 1.424 . S
C377 H369 0.951 . S
C377 C376 1.424 . S
C377 C378 1.347 . S
C378 H370 0.951 . S
C378 C373 1.429 . S
C378 C377 1.347 . S
H379 C380 0.951 . S
C380 H379 0.951 . S
C380 C386 1.265 . S
H381 C386 0.950 . S
H382 C390 0.949 . S
H383 C391 0.950 . S
H384 C392 0.951 . S
H385 C393 0.951 . S
C386 C380 1.265 . S
C386 H381 0.950 . S
C386 C387 1.478 . S
C387 C374 1.394 . S
C387 C386 1.478 . S
C387 C388 1.397 . S
C388 C387 1.397 . S
C388 C389 1.438 . S
C388 C393 1.429 . S
C389 C372 1.394 . S
C389 C388 1.438 . S
C389 C390 1.428 . S
C390 H382 0.949 . S
C390 C389 1.428 . S
C390 C391 1.345 . S
C391 H383 0.950 . S
C391 C390 1.345 . S
C391 C392 1.424 . S
C392 H384 0.951 . S
C392 C391 1.424 . S
C392 C393 1.347 . S
C393 H385 0.951 . S
C393 C388 1.429 . S
C393 C392 1.347 . S
H394 C395 0.951 . S
C395 H394 0.951 . S
C395 C401 1.265 . S
H396 C401 0.950 . S
H397 C405 0.949 . S
H398 C406 0.950 . S
H399 C407 0.951 . S
H400 C408 0.951 . S
C401 C395 1.265 . S
C401 H396 0.950 . S
C401 C402 1.478 . S
C402 C401 1.478 . S
C402 C403 1.397 . S
C402 C419 1.394 . S
C403 C402 1.397 . S
C403 C404 1.438 . S
C403 C408 1.429 . S
C404 C403 1.438 . S
C404 C405 1.428 . S
C404 C417 1.394 . S
C405 H397 0.949 . S
C405 C404 1.428 . S
C405 C406 1.345 . S
C406 H398 0.950 . S
C406 C405 1.345 . S
C406 C407 1.424 . S
C407 H399 0.951 . S
C407 C406 1.424 . S
C407 C408 1.347 . S
C408 H400 0.951 . S
C408 C403 1.429 . S
C408 C407 1.347 . S
H409 C410 0.951 . S
C410 H409 0.951 . S
C410 C416 1.265 . S
H411 C416 0.950 . S
H412 C420 0.949 . S
H413 C421 0.950 . S
H414 C422 0.951 . S
H415 C423 0.951 . S
C416 C410 1.265 . S
C416 H411 0.950 . S
C416 C417 1.478 . S
C417 C404 1.394 . S
C417 C416 1.478 . S
C417 C418 1.397 . S
C418 C417 1.397 . S
C418 C419 1.438 . S
C418 C423 1.429 . S
C419 C402 1.394 . S
C419 C418 1.438 . S
C419 C420 1.428 . S
C420 H412 0.949 . S
C420 C419 1.428 . S
C420 C421 1.345 . S
C421 H413 0.950 . S
C421 C420 1.345 . S
C421 C422 1.424 . S
C422 H414 0.951 . S
C422 C421 1.424 . S
C422 C423 1.347 . S
C423 H415 0.951 . S
C423 C418 1.429 . S
C423 C422 1.347 . S
H424 C425 0.951 . S
C425 H424 0.951 . S
C425 C431 1.265 . S
H426 C431 0.950 . S
H427 C435 0.949 . S
H428 C436 0.950 . S
H429 C437 0.951 . S
H430 C438 0.951 . S
C431 C425 1.265 . S
C431 H426 0.950 . S
C431 C432 1.478 . S
C432 C431 1.478 . S
C432 C433 1.397 . S
C432 C449 1.394 . S
C433 C432 1.397 . S
C433 C434 1.438 . S
C433 C438 1.429 . S
C434 C433 1.438 . S
C434 C435 1.428 . S
C434 C447 1.394 . S
C435 H427 0.949 . S
C435 C434 1.428 . S
C435 C436 1.345 . S
C436 H428 0.950 . S
C436 C435 1.345 . S
C436 C437 1.424 . S
C437 H429 0.951 . S
C437 C436 1.424 . S
C437 C438 1.347 . S
C438 H430 0.951 . S
C438 C433 1.429 . S
C438 C437 1.347 . S
H439 C440 0.951 . S
C440 H439 0.951 . S
C440 C446 1.265 . S
H441 C446 0.950 . S
H442 C450 0.949 . S
H443 C451 0.950 . S
H444 C452 0.951 . S
H445 C453 0.951 . S
C446 C440 1.265 . S
C446 H441 0.950 . S
C446 C447 1.478 . S
C447 C434 1.394 . S
C447 C446 1.478 . S
C447 C448 1.397 . S
C448 C447 1.397 . S
C448 C449 1.438 . S
C448 C453 1.429 . S
C449 C432 1.394 . S
C449 C448 1.438 . S
C449 C450 1.428 . S
C450 H442 0.949 . S
C450 C449 1.428 . S
C450 C451 1.345 . S
C451 H443 0.950 . S
C451 C450 1.345 . S
C451 C452 1.424 . S
C452 H444 0.951 . S
C452 C451 1.424 . S
C452 C453 1.347 . S
C453 H445 0.951 . S
C453 C448 1.429 . S
C453 C452 1.347 . S
C110 C67 1.276 . S
C95 C43 1.404 . S
C125 C4 1.465 . S
C140 C91 1.288 . S
C155 C17 1.548 . S
C170 C70 1.382 . S
C185 C30 1.601 . S
C200 C88 1.409 . S
C230 C68 1.407 . S
C215 C9 1.487 . S
C260 C90 1.465 . S
C245 C21 1.582 . S
C275 C34 1.557 . S
C290 C69 1.547 . S
C305 C48 1.473 . S
C320 C89 1.380 . S
C350 C87 1.534 . S
C335 C22 1.531 . S
C380 C66 1.467 . S
C365 C35 1.566 . S
C410 C86 1.474 . S
C395 C47 1.467 . S
C425 C8 1.479 1_556 S
C440 C65 1.386 . S
