# Generated by pormake.
# Topology anh, (6,3)-cn, num edge types: 1
# Building blocks:
#     Node 0, Type 0, BuildingBlock: CUKXOW_clean_sbu_0, # of connection points: 6
#     Node 1, Type 0, BuildingBlock: CUKXOW_clean_sbu_0, # of connection points: 6
#     Node 2, Type 0, BuildingBlock: CUKXOW_clean_sbu_0, # of connection points: 6
#     Node 3, Type 1, BuildingBlock: BETDIP_clean_linker_0, # of connection points: 3
#     Node 4, Type 1, BuildingBlock: BETDIP_clean_linker_0, # of connection points: 3
#     Node 5, Type 1, BuildingBlock: BETDIP_clean_linker_0, # of connection points: 3
#     Node 6, Type 1, BuildingBlock: BETDIP_clean_linker_0, # of connection points: 3
#     Node 7, Type 1, BuildingBlock: BETDIP_clean_linker_0, # of connection points: 3
#     Node 8, Type 1, BuildingBlock: BETDIP_clean_linker_0, # of connection points: 3
#     Edge 9, Type (0, 1), BuildingBlock: MIFKUJ_clean_linker_0, # of connection points: 2
#     Edge 10, Type (0, 1), BuildingBlock: MIFKUJ_clean_linker_0, # of connection points: 2
#     Edge 11, Type (0, 1), BuildingBlock: MIFKUJ_clean_linker_0, # of connection points: 2
#     Edge 12, Type (0, 1), BuildingBlock: MIFKUJ_clean_linker_0, # of connection points: 2
#     Edge 13, Type (0, 1), BuildingBlock: MIFKUJ_clean_linker_0, # of connection points: 2
#     Edge 14, Type (0, 1), BuildingBlock: MIFKUJ_clean_linker_0, # of connection points: 2
#     Edge 15, Type (0, 1), BuildingBlock: MIFKUJ_clean_linker_0, # of connection points: 2
#     Edge 16, Type (0, 1), BuildingBlock: MIFKUJ_clean_linker_0, # of connection points: 2
#     Edge 17, Type (0, 1), BuildingBlock: MIFKUJ_clean_linker_0, # of connection points: 2
#     Edge 18, Type (0, 1), BuildingBlock: MIFKUJ_clean_linker_0, # of connection points: 2
#     Edge 19, Type (0, 1), BuildingBlock: MIFKUJ_clean_linker_0, # of connection points: 2
#     Edge 20, Type (0, 1), BuildingBlock: MIFKUJ_clean_linker_0, # of connection points: 2
#     Edge 21, Type (0, 1), BuildingBlock: MIFKUJ_clean_linker_0, # of connection points: 2
#     Edge 22, Type (0, 1), BuildingBlock: MIFKUJ_clean_linker_0, # of connection points: 2
#     Edge 23, Type (0, 1), BuildingBlock: MIFKUJ_clean_linker_0, # of connection points: 2
#     Edge 24, Type (0, 1), BuildingBlock: MIFKUJ_clean_linker_0, # of connection points: 2
#     Edge 25, Type (0, 1), BuildingBlock: MIFKUJ_clean_linker_0, # of connection points: 2
#     Edge 26, Type (0, 1), BuildingBlock: MIFKUJ_clean_linker_0, # of connection points: 2
# Relax obj value: 0.077
# Max RMSD: 0.171
# Mean RMSD: 0.106
data_MOF--net-anh--node1-CUKXOW_clean_sbu_0--node2-BETDIP_clean_linker_0--edge1-MIFKUJ_clean_linker_0
_symmetry_space_group_name_H-M    P1
_symmetry_Int_Tables_number       1
_symmetry_cell_setting            triclinic
loop_
_symmetry_equiv_pos_as_xyz
'x, y, z'
_cell_length_a     38.489316
_cell_length_b     37.391837
_cell_length_c     63.571884
_cell_angle_alpha  99.181287
_cell_angle_beta   90.253663
_cell_angle_gamma 115.76483
loop_
_atom_site_label
_atom_site_type_symbol
_atom_site_fract_x
_atom_site_fract_y
_atom_site_fract_z
_atom_type_partial_charge
Tb0 Tb 0.10372 0.574 0.15409 0.0
C1 C 0.07334 0.53181 0.19271 0.0
Tb2 Tb 0.04968 0.48186 0.14562 0.0
O3 O 0.05558 0.58643 0.16614 0.0
O4 O 0.04413 0.53559 0.14344 0.0
O5 O 0.10331 0.56089 0.18608 0.0
C6 C 0.9836 0.4142 0.14165 0.0
O7 O 0.04574 0.502 0.17932 0.0
C8 C 0.12406 0.49533 0.14937 0.0
C9 C 0.08619 0.52221 0.10661 0.0
O10 O 1.01286 0.42445 0.15535 0.0
O11 O 0.99205 0.44151 0.12972 0.0
O12 O 0.09471 0.45967 0.14515 0.0
O13 O 0.10946 0.52006 0.15108 0.0
O14 O 0.05948 0.4896 0.1128 0.0
O15 O 0.10779 0.55647 0.11998 0.0
C16 C 0.16374 0.64668 0.15737 0.0
O17 O 0.13056 0.63543 0.14685 0.0
O18 O 0.16274 0.61729 0.16615 0.0
C19 C 0.02816 0.5534 0.15548 0.0
Tb20 Tb 0.50687 0.03841 0.50352 0.0
C21 C 0.55204 0.06218 0.46227 0.0
Tb22 Tb 0.59166 0.09859 0.50895 0.0
O23 O 0.4899 0.08654 0.51482 0.0
O24 O 0.5394 0.09848 0.49856 0.0
O25 O 0.52168 0.03527 0.47012 0.0
C26 C 0.65529 0.16844 0.51711 0.0
O27 O 0.58075 0.09277 0.47473 0.0
C28 C 0.57816 0.02239 0.50358 0.0
C29 C 0.54764 0.07266 0.5502 0.0
O30 O 0.6548 0.13332 0.51122 0.0
O31 O 0.62017 0.16394 0.51875 0.0
O32 O 0.6093 0.05052 0.49805 0.0
O33 O 0.55912 0.03865 0.5136 0.0
O34 O 0.57757 0.10016 0.5424 0.0
O35 O 0.5187 0.04253 0.53759 0.0
C36 C 0.43991 0.97205 0.49558 0.0
O37 O 0.44365 0.00828 0.50215 0.0
O38 O 0.47377 0.97324 0.49313 0.0
C39 C 0.52031 0.11455 0.50874 0.0
Tb40 Tb 0.52684 0.54726 0.83323 0.0
C41 C 0.56492 0.55772 0.87823 0.0
Tb42 Tb 0.61083 0.5648 0.83619 0.0
O43 O 0.50878 0.48786 0.8418 0.0
O44 O 0.55825 0.51296 0.82523 0.0
O45 O 0.5363 0.56012 0.86778 0.0
C46 C 0.67832 0.56282 0.84175 0.0
O47 O 0.59453 0.55506 0.86857 0.0
C48 C 0.59759 0.62741 0.8346 0.0
C49 C 0.57235 0.55305 0.7909 0.0
O50 O 0.67134 0.5932 0.84918 0.0
O51 O 0.64739 0.5337 0.83139 0.0
O52 O 0.62707 0.62346 0.82676 0.0
O53 O 0.57927 0.59866 0.84431 0.0
O54 O 0.60231 0.55373 0.80157 0.0
O55 O 0.5415 0.5525 0.80031 0.0
C56 C 0.46382 0.55574 0.82385 0.0
O57 O 0.46452 0.52159 0.82467 0.0
O58 O 0.49814 0.58489 0.82901 0.0
C59 C 0.53879 0.48393 0.83465 0.0
H60 H 0.52994 0.04288 0.17339 0.0
H61 H 0.59713 0.10576 0.23346 0.0
H62 H 0.49338 0.99538 0.23083 0.0
H63 H 0.61187 0.16051 0.21726 0.0
C64 C 0.61716 0.14881 0.20146 0.0
C65 C 0.53419 0.04537 0.19052 0.0
C66 C 0.50858 0.01485 0.20082 0.0
C67 C 0.56571 0.0789 0.20229 0.0
C68 C 0.57177 0.08124 0.22448 0.0
C69 C 0.54598 0.05109 0.235 0.0
C70 C 0.51427 0.01836 0.22297 0.0
N71 N 0.592 0.10872 0.19132 0.0
H72 H 0.54356 0.53437 0.50401 0.0
H73 H 0.5618 0.61411 0.56434 0.0
H74 H 0.56329 0.49951 0.56254 0.0
H75 H 0.5065 0.61584 0.54336 0.0
C76 C 0.52591 0.62738 0.5311 0.0
C77 C 0.5497 0.54118 0.52121 0.0
C78 C 0.55326 0.51271 0.53202 0.0
C79 C 0.55196 0.57759 0.53289 0.0
C80 C 0.55933 0.58586 0.55529 0.0
C81 C 0.56427 0.5582 0.56602 0.0
C82 C 0.56094 0.5217 0.55427 0.0
N83 N 0.54652 0.60566 0.52215 0.0
H84 H 0.04907 0.53651 0.82806 0.0
H85 H 0.12458 0.51615 0.86968 0.0
H86 H 0.02737 0.53264 0.89398 0.0
H87 H 0.10478 0.56562 0.8119 0.0
C88 C 0.11776 0.54511 0.81244 0.0
C89 C 0.05729 0.53336 0.84372 0.0
C90 C 0.03493 0.5358 0.86067 0.0
C91 C 0.08998 0.52684 0.847 0.0
C92 C 0.09952 0.52156 0.86722 0.0
C93 C 0.07693 0.52348 0.88423 0.0
C94 C 0.04482 0.53087 0.88086 0.0
N95 N 0.11376 0.5254 0.83027 0.0
H96 H 0.05565 0.60039 0.48224 0.0
H97 H 0.99534 0.52561 0.42258 0.0
H98 H 0.10719 0.62641 0.42348 0.0
H99 H 0.94235 0.52805 0.44375 0.0
C100 C 0.95172 0.51797 0.45686 0.0
C101 C 0.05424 0.59343 0.46494 0.0
C102 C 0.08509 0.61657 0.45398 0.0
C103 C 0.02142 0.56131 0.45361 0.0
C104 C 0.02 0.55171 0.43118 0.0
C105 C 0.05109 0.57462 0.42002 0.0
C106 C 0.08332 0.60743 0.43168 0.0
N107 N 0.99101 0.53772 0.46516 0.0
H108 H 0.56396 0.08525 0.83664 0.0
H109 H 0.56547 0.01257 0.777 0.0
H110 H 0.58042 0.13336 0.77835 0.0
H111 H 0.51633 0.96437 0.79378 0.0
C112 C 0.53497 0.97063 0.80814 0.0
C113 C 0.56675 0.08177 0.81957 0.0
C114 C 0.57378 0.1143 0.80888 0.0
C115 C 0.56301 0.04454 0.80806 0.0
C116 C 0.56695 0.0405 0.78589 0.0
C117 C 0.57351 0.07246 0.77511 0.0
C118 C 0.57678 0.10902 0.78674 0.0
N119 N 0.55595 0.01151 0.81876 0.0
H120 H 0.54304 0.52067 0.16147 0.0
H121 H 0.60406 0.53476 0.10424 0.0
H122 H 0.49668 0.54368 0.10603 0.0
H123 H 0.61632 0.48476 0.116 0.0
C124 C 0.63003 0.50323 0.13145 0.0
C125 C 0.54523 0.52603 0.14518 0.0
C126 C 0.51543 0.53182 0.13491 0.0
C127 C 0.57774 0.52688 0.13407 0.0
C128 C 0.57964 0.53387 0.1129 0.0
C129 C 0.55052 0.53951 0.10261 0.0
C130 C 0.51898 0.53878 0.11382 0.0
N131 N 0.60871 0.52144 0.14389 0.0
H132 H 0.15181 0.43934 0.14649 0.0
H133 H 0.21853 0.44847 0.14731 0.0
H134 H 0.2593 0.57728 0.15496 0.0
H135 H 0.19179 0.56792 0.1536 0.0
H136 H 0.30236 0.55548 0.1281 0.0
H137 H 0.26508 0.52804 0.19744 0.0
H138 H 0.22384 0.4909 0.2237 0.0
H139 H 0.2392 0.38598 0.19763 0.0
H140 H 0.28011 0.42231 0.17101 0.0
H141 H 0.49814 0.5948 0.14872 0.0
H142 H 0.43413 0.59184 0.15467 0.0
H143 H 0.38499 0.46213 0.14622 0.0
H144 H 0.44946 0.46535 0.14074 0.0
H145 H 0.34738 0.48781 0.17533 0.0
H146 H 0.38263 0.51484 0.10515 0.0
H147 H 0.42434 0.55232 0.07914 0.0
H148 H 0.41282 0.65863 0.1071 0.0
H149 H 0.3716 0.62196 0.13354 0.0
C150 C 0.17486 0.46977 0.14843 0.0
C151 C 0.16597 0.50291 0.15022 0.0
C152 C 0.21336 0.475 0.14903 0.0
C153 C 0.24479 0.51369 0.15165 0.0
C154 C 0.23605 0.547 0.1531 0.0
C155 C 0.19724 0.5417 0.15246 0.0
C156 C 0.28626 0.51881 0.15255 0.0
C157 C 0.31223 0.54121 0.13874 0.0
C158 C 0.29974 0.49967 0.16601 0.0
C159 C 0.27541 0.47781 0.18211 0.0
C160 C 0.25947 0.49696 0.19721 0.0
C161 C 0.23617 0.47607 0.21218 0.0
C162 C 0.22883 0.43608 0.2123 0.0
C163 C 0.24488 0.41694 0.1975 0.0
C164 C 0.26816 0.43769 0.18249 0.0
C165 C 0.47396 0.56574 0.14896 0.0
C166 C 0.4794 0.53041 0.1448 0.0
C167 C 0.437 0.56395 0.15198 0.0
C168 C 0.40386 0.52665 0.15045 0.0
C169 C 0.40961 0.49142 0.14747 0.0
C170 C 0.44673 0.49325 0.14457 0.0
C171 C 0.36338 0.5243 0.15082 0.0
C172 C 0.33756 0.5023 0.1648 0.0
C173 C 0.35006 0.54385 0.13754 0.0
C174 C 0.37434 0.56576 0.12145 0.0
C175 C 0.38918 0.54628 0.10583 0.0
C176 C 0.41273 0.56737 0.09101 0.0
C177 C 0.42129 0.60785 0.0915 0.0
C178 C 0.40622 0.62729 0.10677 0.0
C179 C 0.38276 0.60636 0.12167 0.0
H180 H 0.43952 0.62414 0.08001 0.0
H181 H 0.21078 0.41995 0.22389 0.0
H182 H 0.73202 0.18613 0.5207 0.0
H183 H 0.78645 0.24879 0.51454 0.0
H184 H 0.70699 0.29858 0.50421 0.0
H185 H 0.65307 0.23749 0.51156 0.0
H186 H 0.75872 0.29224 0.46959 0.0
H187 H 0.75717 0.33996 0.54514 0.0
H188 H 0.76025 0.33583 0.58336 0.0
H189 H 0.87329 0.34007 0.57937 0.0
H190 H 0.87054 0.34361 0.54099 0.0
H191 H 0.8738 0.48729 0.45152 0.0
H192 H 0.82582 0.42963 0.46532 0.0
H193 H 0.91769 0.41428 0.4958 0.0
H194 H 0.96563 0.47309 0.48288 0.0
H195 H 0.86249 0.40052 0.52098 0.0
H196 H 0.86797 0.35451 0.44731 0.0
H197 H 0.86698 0.35458 0.40853 0.0
H198 H 0.75038 0.34125 0.40768 0.0
H199 H 0.75085 0.34167 0.44653 0.0
C200 C 0.7265 0.21101 0.51774 0.0
C201 C 0.68861 0.20729 0.51669 0.0
C202 C 0.75742 0.24657 0.51421 0.0
C203 C 0.75046 0.27813 0.50911 0.0
C204 C 0.71275 0.27467 0.5085 0.0
C205 C 0.68211 0.23981 0.51268 0.0
C206 C 0.78171 0.31336 0.50247 0.0
C207 C 0.78127 0.3162 0.48079 0.0
C208 C 0.81168 0.3435 0.51709 0.0
C209 C 0.81341 0.34152 0.54014 0.0
C210 C 0.78247 0.33956 0.55236 0.0
C211 C 0.78421 0.33743 0.57406 0.0
C212 C 0.81689 0.33754 0.58378 0.0
C213 C 0.84795 0.33991 0.57181 0.0
C214 C 0.84632 0.342 0.55009 0.0
C215 C 0.88362 0.47173 0.46132 0.0
C216 C 0.92322 0.48442 0.4661 0.0
C217 C 0.85628 0.4387 0.46909 0.0
C218 C 0.86819 0.41708 0.48122 0.0
C219 C 0.90784 0.43042 0.48644 0.0
C220 C 0.93519 0.46396 0.47901 0.0
C221 C 0.83924 0.38007 0.48799 0.0
C222 C 0.84014 0.37663 0.50966 0.0
C223 C 0.81003 0.34879 0.47326 0.0
C224 C 0.80959 0.34849 0.44988 0.0
C225 C 0.84222 0.35189 0.43889 0.0
C226 C 0.84173 0.3518 0.41689 0.0
C227 C 0.80867 0.34802 0.40566 0.0
C228 C 0.77598 0.34423 0.4164 0.0
C229 C 0.77633 0.34435 0.43841 0.0
H230 H 0.80834 0.34795 0.38863 0.0
H231 H 0.8182 0.33591 0.60059 0.0
H232 H 0.62842 0.68431 0.80955 0.0
H233 H 0.61639 0.74313 0.80866 0.0
H234 H 0.53713 0.70929 0.85771 0.0
H235 H 0.54889 0.65 0.85846 0.0
H236 H 0.50797 0.73296 0.82795 0.0
H237 H 0.62916 0.78754 0.86932 0.0
H238 H 0.69638 0.79928 0.87745 0.0
H239 H 0.73111 0.8557 0.82239 0.0
H240 H 0.66398 0.84381 0.81376 0.0
H241 H 0.57495 0.96906 0.84412 0.0
H242 H 0.58321 0.91116 0.85263 0.0
H243 H 0.51699 0.83831 0.79358 0.0
H244 H 0.50752 0.89522 0.78556 0.0
H245 H 0.61757 0.86954 0.83445 0.0
H246 H 0.47014 0.74087 0.79618 0.0
H247 H 0.40292 0.73033 0.78958 0.0
H248 H 0.41939 0.82318 0.8434 0.0
H249 H 0.48663 0.83402 0.85046 0.0
C250 C 0.60847 0.68945 0.82016 0.0
C251 C 0.58958 0.66258 0.83406 0.0
C252 C 0.60171 0.72319 0.81971 0.0
C253 C 0.57629 0.73114 0.83336 0.0
C254 C 0.55695 0.70394 0.84706 0.0
C255 C 0.56364 0.67006 0.84747 0.0
C256 C 0.56985 0.76768 0.83314 0.0
C257 C 0.53193 0.76284 0.82947 0.0
C258 C 0.60097 0.80692 0.83556 0.0
C259 C 0.64147 0.81454 0.84082 0.0
C260 C 0.65109 0.80225 0.85888 0.0
C261 C 0.68918 0.80895 0.86358 0.0
C262 C 0.71798 0.82816 0.85043 0.0
C263 C 0.70877 0.84081 0.83256 0.0
C264 C 0.67071 0.83415 0.82777 0.0
C265 C 0.56188 0.94053 0.83312 0.0
C266 C 0.54031 0.93652 0.81425 0.0
C267 C 0.56669 0.90746 0.83794 0.0
C268 C 0.55014 0.86991 0.82396 0.0
C269 C 0.52914 0.86637 0.80499 0.0
C270 C 0.52394 0.89907 0.80033 0.0
C271 C 0.55574 0.83473 0.82865 0.0
C272 C 0.59353 0.83977 0.83315 0.0
C273 C 0.52441 0.79576 0.82733 0.0
C274 C 0.48357 0.78852 0.82371 0.0
C275 C 0.45937 0.7589 0.80668 0.0
C276 C 0.42131 0.75298 0.80281 0.0
C277 C 0.40698 0.77627 0.81597 0.0
C278 C 0.43061 0.80535 0.83313 0.0
C279 C 0.46872 0.81142 0.83706 0.0
H280 H 0.37747 0.77158 0.81296 0.0
H281 H 0.74745 0.83331 0.85409 0.0
H282 H 0.98908 0.57853 0.18562 0.0
H283 H 0.92132 0.56758 0.18325 0.0
H284 H 0.90377 0.49839 0.1198 0.0
H285 H 0.9713 0.50801 0.12246 0.0
H286 H 0.87742 0.56294 0.12449 0.0
H287 H 0.86157 0.44771 0.15299 0.0
H288 H 0.87372 0.40892 0.17755 0.0
H289 H 0.83994 0.47176 0.22977 0.0
H290 H 0.82843 0.51169 0.20559 0.0
H291 H 0.67361 0.47996 0.10495 0.0
H292 H 0.73945 0.48815 0.11088 0.0
H293 H 0.74636 0.54812 0.1756 0.0
H294 H 0.67956 0.54029 0.16953 0.0
H295 H 0.77835 0.48906 0.17136 0.0
H296 H 0.7932 0.60369 0.14047 0.0
H297 H 0.77905 0.6381 0.11397 0.0
H298 H 0.8126 0.5706 0.06401 0.0
H299 H 0.82643 0.53535 0.09017 0.0
C300 C 0.97072 0.56058 0.17123 0.0
C301 C 0.9859 0.54417 0.15425 0.0
C302 C 0.9318 0.5543 0.16989 0.0
C303 C 0.90697 0.5322 0.15131 0.0
C304 C 0.92204 0.51562 0.13433 0.0
C305 C 0.96074 0.52099 0.1359 0.0
C306 C 0.86594 0.5277 0.14947 0.0
C307 C 0.85576 0.54643 0.13463 0.0
C308 C 0.83734 0.50671 0.16283 0.0
C309 C 0.84476 0.48323 0.17753 0.0
C310 C 0.85729 0.45375 0.16977 0.0
C311 C 0.86396 0.43145 0.18361 0.0
C312 C 0.85777 0.438 0.20523 0.0
C313 C 0.84485 0.46683 0.21303 0.0
C314 C 0.83829 0.48935 0.19927 0.0
C315 C 0.68895 0.495 0.12052 0.0
C316 C 0.67093 0.50956 0.13669 0.0
C317 C 0.72691 0.49971 0.12389 0.0
C318 C 0.74858 0.51899 0.14366 0.0
C319 C 0.73057 0.5331 0.16014 0.0
C320 C 0.69232 0.52878 0.15665 0.0
C321 C 0.78996 0.52466 0.1465 0.0
C322 C 0.80016 0.50598 0.16141 0.0
C323 C 0.81854 0.54528 0.13301 0.0
C324 C 0.81055 0.56664 0.11726 0.0
C325 C 0.79729 0.59597 0.12381 0.0
C326 C 0.78937 0.61566 0.10885 0.0
C327 C 0.79484 0.60647 0.08732 0.0
C328 C 0.80835 0.57766 0.0807 0.0
C329 C 0.81627 0.55785 0.09559 0.0
H330 H 0.78869 0.62174 0.07576 0.0
H331 H 0.86281 0.4206 0.21591 0.0
H332 H 0.43057 0.89477 0.48841 0.0
H333 H 0.36982 0.83319 0.48548 0.0
H334 H 0.3063 0.90465 0.49408 0.0
H335 H 0.36721 0.96643 0.49761 0.0
H336 H 0.27878 0.84532 0.51691 0.0
H337 H 0.31059 0.85615 0.44444 0.0
H338 H 0.35218 0.86376 0.41445 0.0
H339 H 0.35963 0.75469 0.42093 0.0
H340 H 0.31847 0.74671 0.45116 0.0
H341 H 0.09316 0.69112 0.4713 0.0
H342 H 0.15431 0.75129 0.48337 0.0
H343 H 0.21593 0.67793 0.47379 0.0
H344 H 0.15491 0.61819 0.46109 0.0
H345 H 0.24501 0.73794 0.45284 0.0
H346 H 0.20874 0.7253 0.52444 0.0
H347 H 0.16588 0.71828 0.55379 0.0
H348 H 0.16489 0.83083 0.54836 0.0
H349 H 0.20733 0.83827 0.51876 0.0
C350 C 0.4036 0.89725 0.48958 0.0
C351 C 0.40333 0.93512 0.49303 0.0
C352 C 0.36897 0.86214 0.48791 0.0
C353 C 0.33355 0.86438 0.48932 0.0
C354 C 0.33334 0.9023 0.49296 0.0
C355 C 0.36803 0.93746 0.49483 0.0
C356 C 0.29669 0.82712 0.48664 0.0
C357 C 0.27112 0.82194 0.50282 0.0
C358 C 0.28717 0.79642 0.46843 0.0
C359 C 0.31177 0.80106 0.45019 0.0
C360 C 0.32133 0.83395 0.43957 0.0
C361 C 0.34478 0.8383 0.42251 0.0
C362 C 0.35862 0.80978 0.41583 0.0
C363 C 0.34894 0.77678 0.42615 0.0
C364 C 0.32552 0.77231 0.44323 0.0
C365 C 0.11975 0.68794 0.47242 0.0
C366 C 0.1198 0.65048 0.46547 0.0
C367 C 0.15457 0.72215 0.47933 0.0
C368 C 0.18966 0.71903 0.47956 0.0
C369 C 0.18919 0.68097 0.47374 0.0
C370 C 0.15449 0.64695 0.46661 0.0
C371 C 0.22706 0.75575 0.48322 0.0
C372 C 0.25271 0.76102 0.46708 0.0
C373 C 0.2364 0.78652 0.50139 0.0
C374 C 0.21098 0.78217 0.51925 0.0
C375 C 0.19915 0.7484 0.52938 0.0
C376 C 0.17497 0.74438 0.54609 0.0
C377 C 0.1626 0.77404 0.5529 0.0
C378 C 0.17447 0.80786 0.54305 0.0
C379 C 0.19863 0.81202 0.52633 0.0
H380 H 0.14387 0.77086 0.56583 0.0
H381 H 0.37678 0.81321 0.40262 0.0
H382 H 0.59358 0.4651 0.81505 0.0
H383 H 0.60362 0.405 0.81541 0.0
H384 H 0.50551 0.3581 0.85279 0.0
H385 H 0.49739 0.41968 0.8538 0.0
H386 H 0.55643 0.33913 0.86658 0.0
H387 H 0.50237 0.32611 0.79624 0.0
H388 H 0.49731 0.34637 0.76171 0.0
H389 H 0.6086 0.35209 0.74809 0.0
H390 H 0.61454 0.33234 0.78267 0.0
H391 H 0.52131 0.12925 0.83339 0.0
H392 H 0.51855 0.1944 0.84251 0.0
H393 H 0.62852 0.2532 0.81658 0.0
H394 H 0.63146 0.1886 0.80767 0.0
H395 H 0.57066 0.26507 0.79776 0.0
H396 H 0.62121 0.27409 0.86893 0.0
H397 H 0.62179 0.25022 0.90285 0.0
H398 H 0.51058 0.24698 0.91394 0.0
H399 H 0.50909 0.27032 0.87991 0.0
C400 C 0.57475 0.44244 0.82375 0.0
C401 C 0.54503 0.44744 0.8346 0.0
C402 C 0.58006 0.40763 0.82366 0.0
C403 C 0.55489 0.37633 0.83381 0.0
C404 C 0.52538 0.38158 0.84483 0.0
C405 C 0.5206 0.41675 0.84528 0.0
C406 C 0.55878 0.33792 0.83259 0.0
C407 C 0.55907 0.32275 0.85146 0.0
C408 C 0.56259 0.31637 0.81296 0.0
C409 C 0.55906 0.32814 0.79213 0.0
C410 C 0.52587 0.33195 0.78594 0.0
C411 C 0.52283 0.34331 0.76636 0.0
C412 C 0.55266 0.35062 0.75275 0.0
C413 C 0.58554 0.34647 0.75867 0.0
C414 C 0.58875 0.33517 0.77824 0.0
C415 C 0.54551 0.15637 0.83041 0.0
C416 C 0.57654 0.15386 0.81978 0.0
C417 C 0.54382 0.19354 0.83548 0.0
C418 C 0.57317 0.22868 0.83002 0.0
C419 C 0.60541 0.22653 0.8208 0.0
C420 C 0.60717 0.18963 0.81584 0.0
C421 C 0.56874 0.26669 0.83172 0.0
C422 C 0.56812 0.2816 0.81287 0.0
C423 C 0.56394 0.28745 0.85127 0.0
C424 C 0.56487 0.27356 0.87176 0.0
C425 C 0.59672 0.26795 0.8785 0.0
C426 C 0.59725 0.25459 0.89777 0.0
C427 C 0.56619 0.24698 0.91051 0.0
C428 C 0.53459 0.25283 0.90404 0.0
C429 C 0.53391 0.26617 0.88477 0.0
H430 H 0.56665 0.23664 0.92543 0.0
H431 H 0.55025 0.35941 0.73759 0.0
H432 H 0.51977 0.96477 0.52064 0.0
H433 H 0.51005 0.8963 0.52214 0.0
H434 H 0.61345 0.91707 0.4896 0.0
H435 H 0.62209 0.98522 0.48703 0.0
H436 H 0.55888 0.84203 0.47566 0.0
H437 H 0.61243 0.92441 0.54524 0.0
H438 H 0.61411 0.97172 0.57749 0.0
H439 H 0.50246 0.88603 0.59108 0.0
H440 H 0.49984 0.83839 0.55873 0.0
H441 H 0.58019 0.67539 0.50669 0.0
H442 H 0.58926 0.74151 0.49975 0.0
H443 H 0.49037 0.73138 0.53462 0.0
H444 H 0.48215 0.66623 0.54211 0.0
H445 H 0.54564 0.80222 0.54706 0.0
H446 H 0.48942 0.72086 0.47821 0.0
H447 H 0.48362 0.67328 0.44519 0.0
H448 H 0.59557 0.75529 0.42979 0.0
H449 H 0.60226 0.80317 0.46288 0.0
C450 C 0.54005 0.95455 0.51343 0.0
C451 C 0.57163 0.98034 0.50363 0.0
C452 C 0.53471 0.91548 0.51452 0.0
C453 C 0.56146 0.90166 0.5064 0.0
C454 C 0.5925 0.92702 0.49608 0.0
C455 C 0.59752 0.96601 0.49469 0.0
C456 C 0.55766 0.86134 0.50931 0.0
C457 C 0.55654 0.8335 0.49131 0.0
C458 C 0.55373 0.84975 0.52966 0.0
C459 C 0.55584 0.87794 0.54947 0.0
C460 C 0.58819 0.91571 0.55507 0.0
C461 C 0.58929 0.9426 0.57337 0.0
C462 C 0.55838 0.93194 0.58631 0.0
C463 C 0.52637 0.89426 0.58103 0.0
C464 C 0.52508 0.86728 0.56273 0.0
C465 C 0.5602 0.68716 0.51266 0.0
C466 C 0.53039 0.66567 0.52491 0.0
C467 C 0.56531 0.72492 0.50863 0.0
C468 C 0.54035 0.74154 0.51654 0.0
C469 C 0.51015 0.71949 0.5284 0.0
C470 C 0.50534 0.68213 0.5326 0.0
C471 C 0.54633 0.78251 0.51337 0.0
C472 C 0.54807 0.81063 0.53138 0.0
C473 C 0.55043 0.79414 0.49302 0.0
C474 C 0.54652 0.76538 0.47314 0.0
C475 C 0.51295 0.7286 0.46788 0.0
C476 C 0.50947 0.7016 0.44913 0.0
C477 C 0.53926 0.7112 0.43543 0.0
C478 C 0.57255 0.74786 0.44043 0.0
C479 C 0.57619 0.77495 0.45917 0.0
H480 H 0.5365 0.69027 0.42092 0.0
H481 H 0.55922 0.95281 0.60044 0.0
H482 H 0.74397 0.61945 0.86523 0.0
H483 H 0.80679 0.61785 0.8678 0.0
H484 H 0.75972 0.50327 0.82453 0.0
H485 H 0.69675 0.5042 0.82248 0.0
H486 H 0.80037 0.50097 0.8567 0.0
H487 H 0.81948 0.59213 0.8081 0.0
H488 H 0.81973 0.65139 0.79564 0.0
H489 H 0.90239 0.73007 0.84783 0.0
H490 H 0.90223 0.67121 0.86078 0.0
H491 H 0.97564 0.49479 0.82979 0.0
H492 H 0.91659 0.50351 0.82569 0.0
H493 H 0.95856 0.60138 0.87976 0.0
H494 H 0.01768 0.59267 0.884 0.0
H495 H 0.92209 0.61369 0.84233 0.0
H496 H 0.90085 0.51902 0.89035 0.0
H497 H 0.9012 0.45824 0.90052 0.0
H498 H 0.82195 0.38424 0.84611 0.0
H499 H 0.82165 0.44474 0.83542 0.0
C500 C 0.74717 0.59397 0.85634 0.0
C501 C 0.71582 0.56196 0.84366 0.0
C502 C 0.78301 0.59319 0.85769 0.0
C503 C 0.78796 0.5607 0.84611 0.0
C504 C 0.75646 0.52862 0.83356 0.0
C505 C 0.7206 0.5292 0.83239 0.0
C506 C 0.82571 0.55952 0.8474 0.0
C507 C 0.82686 0.52544 0.85329 0.0
C508 C 0.86034 0.59175 0.84328 0.0
C509 C 0.86053 0.62723 0.83554 0.0
C510 C 0.83747 0.62205 0.81702 0.0
C511 C 0.83764 0.65557 0.80985 0.0
C512 C 0.86098 0.69446 0.82097 0.0
C513 C 0.88428 0.69992 0.83925 0.0
C514 C 0.88418 0.66649 0.8465 0.0
C515 C 0.97241 0.51848 0.84058 0.0
C516 C 1.0008 0.54292 0.85728 0.0
C517 C 0.93883 0.52338 0.83825 0.0
C518 C 0.93347 0.55293 0.8525 0.0
C519 C 0.96246 0.57849 0.86864 0.0
C520 C 0.99587 0.57329 0.87114 0.0
C521 C 0.89636 0.55518 0.85146 0.0
C522 C 0.89544 0.58939 0.84569 0.0
C523 C 0.86181 0.52288 0.85539 0.0
C524 C 0.86153 0.48644 0.86197 0.0
C525 C 0.88375 0.48983 0.88046 0.0
C526 C 0.8839 0.45543 0.88634 0.0
C527 C 0.86169 0.41741 0.87394 0.0
C528 C 0.83918 0.41372 0.85568 0.0
C529 C 0.83899 0.44804 0.84971 0.0
H530 H 0.86184 0.39081 0.87852 0.0
H531 H 0.86107 0.72038 0.81539 0.0
H532 H 0.2363 0.66682 0.17346 0.0
H533 H 0.29321 0.73171 0.1766 0.0
H534 H 0.22543 0.78059 0.14796 0.0
H535 H 0.16827 0.71477 0.14416 0.0
H536 H 0.29629 0.80713 0.13328 0.0
H537 H 0.24729 0.80241 0.20196 0.0
H538 H 0.22249 0.77338 0.23408 0.0
H539 H 0.33005 0.7697 0.24794 0.0
H540 H 0.35532 0.79819 0.21574 0.0
H541 H 0.44706 0.01017 0.1767 0.0
H542 H 0.38637 0.94899 0.16445 0.0
H543 H 0.43577 0.87682 0.187 0.0
H544 H 0.49578 0.93756 0.19935 0.0
H545 H 0.36892 0.86741 0.20461 0.0
H546 H 0.41595 0.86995 0.13397 0.0
H547 H 0.43961 0.90064 0.10217 0.0
H548 H 0.33445 0.91183 0.09286 0.0
H549 H 0.31038 0.88168 0.12479 0.0
C550 C 0.2335 0.69137 0.16781 0.0
C551 C 0.19786 0.68601 0.1588 0.0
C552 C 0.26602 0.72848 0.16965 0.0
C553 C 0.26344 0.76131 0.16292 0.0
C554 C 0.22804 0.75575 0.15336 0.0
C555 C 0.19543 0.71829 0.15129 0.0
C556 C 0.2977 0.8014 0.16645 0.0
C557 C 0.31187 0.82068 0.14894 0.0
C558 C 0.3181 0.81911 0.18686 0.0
C559 C 0.30309 0.80219 0.20635 0.0
C560 C 0.26557 0.79517 0.21178 0.0
C561 C 0.25144 0.77885 0.23002 0.0
C562 C 0.27465 0.76964 0.24302 0.0
C563 C 0.31209 0.77683 0.23785 0.0
C564 C 0.32635 0.79312 0.21962 0.0
C565 C 0.44517 0.98102 0.17838 0.0
C566 C 0.47582 0.97836 0.189 0.0
C567 C 0.41057 0.94617 0.17146 0.0
C568 C 0.4065 0.9084 0.17497 0.0
C569 C 0.43819 0.90566 0.18426 0.0
C570 C 0.47246 0.94028 0.19123 0.0
C571 C 0.36841 0.87231 0.17132 0.0
C572 C 0.35327 0.854 0.18895 0.0
C573 C 0.3471 0.85595 0.15111 0.0
C574 C 0.36156 0.87399 0.13191 0.0
C575 C 0.39802 0.8793 0.12526 0.0
C576 C 0.41147 0.89652 0.10719 0.0
C577 C 0.3886 0.9083 0.09554 0.0
C578 C 0.35217 0.90276 0.10192 0.0
C579 C 0.3386 0.88558 0.11999 0.0
H580 H 0.39906 0.92162 0.08155 0.0
H581 H 0.26365 0.75699 0.25713 0.0
H582 H 0.57611 0.17337 0.49048 0.0
H583 H 0.58374 0.24195 0.4902 0.0
H584 H 0.48251 0.21733 0.52521 0.0
H585 H 0.47559 0.14938 0.52623 0.0
H586 H 0.48252 0.25266 0.48913 0.0
H587 H 0.5667 0.26944 0.54946 0.0
H588 H 0.62114 0.26798 0.56916 0.0
H589 H 0.70149 0.35099 0.53314 0.0
H590 H 0.64748 0.35118 0.51236 0.0
H591 H 0.49115 0.44236 0.53363 0.0
H592 H 0.48649 0.37445 0.52375 0.0
H593 H 0.59734 0.42347 0.49734 0.0
H594 H 0.6021 0.49188 0.50759 0.0
H595 H 0.59604 0.37624 0.52472 0.0
H596 H 0.51287 0.36135 0.46501 0.0
H597 H 0.4588 0.36485 0.44597 0.0
H598 H 0.37776 0.28171 0.48168 0.0
H599 H 0.43138 0.27813 0.50117 0.0
C600 C 0.5559 0.18283 0.49844 0.0
C601 C 0.52559 0.15621 0.50867 0.0
C602 C 0.56014 0.22192 0.49813 0.0
C603 C 0.53372 0.23477 0.50772 0.0
C604 C 0.50318 0.20802 0.51769 0.0
C605 C 0.49934 0.16926 0.51832 0.0
C606 C 0.53753 0.27596 0.50733 0.0
C607 C 0.50727 0.27972 0.497 0.0
C608 C 0.57037 0.31128 0.51707 0.0
C609 C 0.60284 0.30968 0.529 0.0
C610 C 0.59588 0.2866 0.54532 0.0
C611 C 0.62672 0.28602 0.55673 0.0
C612 C 0.66477 0.30912 0.55231 0.0
C613 C 0.67202 0.33279 0.53644 0.0
C614 C 0.64127 0.33291 0.52473 0.0
C615 C 0.51382 0.43839 0.52502 0.0
C616 C 0.54666 0.47208 0.52101 0.0
C617 C 0.51122 0.39959 0.5194 0.0
C618 C 0.54143 0.39364 0.50964 0.0
C619 C 0.57359 0.42724 0.50477 0.0
C620 C 0.57615 0.46621 0.51039 0.0
C621 C 0.54092 0.35304 0.50664 0.0
C622 C 0.57168 0.34929 0.51644 0.0
C623 C 0.50863 0.31772 0.49637 0.0
C624 C 0.47622 0.31969 0.48465 0.0
C625 C 0.48355 0.34404 0.46892 0.0
C626 C 0.45297 0.346 0.45802 0.0
C627 C 0.41488 0.32357 0.46264 0.0
C628 C 0.40728 0.29907 0.47813 0.0
C629 C 0.43776 0.29702 0.48908 0.0
H630 H 0.39124 0.32513 0.45419 0.0
H631 H 0.68861 0.3088 0.56123 0.0
H632 H 0.46394 0.62453 0.81522 0.0
H633 H 0.40966 0.63228 0.79993 0.0
H634 H 0.3359 0.50553 0.79799 0.0
H635 H 0.39038 0.49748 0.81271 0.0
H636 H 0.32109 0.53003 0.76259 0.0
H637 H 0.34005 0.5765 0.83952 0.0
H638 H 0.37801 0.61954 0.87297 0.0
H639 H 0.3918 0.72539 0.84885 0.0
H640 H 0.35426 0.68288 0.81505 0.0
H641 H 0.14354 0.48859 0.80062 0.0
H642 H 0.2058 0.50033 0.78687 0.0
H643 H 0.22646 0.62119 0.78083 0.0
H644 H 0.16341 0.60914 0.79442 0.0
H645 H 0.27718 0.61853 0.80994 0.0
H646 H 0.23531 0.56258 0.73746 0.0
H647 H 0.19317 0.51445 0.70638 0.0
H648 H 0.21644 0.42063 0.72442 0.0
H649 H 0.25824 0.46795 0.7558 0.0
C650 C 0.4361 0.59836 0.81148 0.0
C651 C 0.43094 0.5605 0.81537 0.0
C652 C 0.4053 0.60278 0.80262 0.0
C653 C 0.36883 0.5695 0.79789 0.0
C654 C 0.36394 0.5315 0.80137 0.0
C655 C 0.39483 0.52701 0.81003 0.0
C656 C 0.33468 0.57455 0.79127 0.0
C657 C 0.3114 0.54948 0.7728 0.0
C658 C 0.32299 0.60112 0.80425 0.0
C659 C 0.34511 0.62664 0.82461 0.0
C660 C 0.35151 0.60899 0.84126 0.0
C661 C 0.37289 0.63327 0.86028 0.0
C662 C 0.38757 0.67521 0.86294 0.0
C663 C 0.38067 0.69293 0.84665 0.0
C664 C 0.35938 0.66878 0.82757 0.0
C665 C 0.16074 0.51711 0.7956 0.0
C666 C 0.14937 0.5483 0.7989 0.0
C667 C 0.19612 0.52369 0.78751 0.0
C668 C 0.22073 0.56168 0.78285 0.0
C669 C 0.2077 0.59162 0.78422 0.0
C670 C 0.17186 0.58476 0.79201 0.0
C671 C 0.26226 0.57218 0.78189 0.0
C672 C 0.28733 0.60032 0.79904 0.0
C673 C 0.27503 0.54773 0.76798 0.0
C674 C 0.25003 0.51897 0.74903 0.0
C675 C 0.23131 0.53164 0.73489 0.0
C676 C 0.20748 0.50448 0.71719 0.0
C677 C 0.20215 0.46452 0.71342 0.0
C678 C 0.22066 0.45163 0.72733 0.0
C679 C 0.24453 0.47866 0.74506 0.0
H680 H 0.18367 0.44354 0.69972 0.0
H681 H 0.40411 0.69397 0.87767 0.0
H682 H 0.96241 0.35806 0.16744 0.0
H683 H 0.89678 0.30926 0.17215 0.0
H684 H 0.85141 0.34801 0.12273 0.0
H685 H 0.91715 0.39741 0.11821 0.0
H686 H 0.81243 0.34582 0.15686 0.0
H687 H 0.8512 0.25473 0.11429 0.0
H688 H 0.89365 0.22226 0.10357 0.0
H689 H 0.88161 0.17908 0.16306 0.0
H690 H 0.8395 0.21177 0.17427 0.0
H691 H 0.6406 0.13254 0.16167 0.0
H692 H 0.69904 0.17578 0.14624 0.0
H693 H 0.72966 0.26668 0.20325 0.0
H694 H 0.67091 0.22392 0.2185 0.0
H695 H 0.77179 0.20117 0.15898 0.0
H696 H 0.78329 0.36098 0.19147 0.0
H697 H 0.74101 0.3946 0.19953 0.0
H698 H 0.65011 0.29969 0.15613 0.0
H699 H 0.69219 0.26598 0.14741 0.0
C700 C 0.93849 0.35563 0.15732 0.0
C701 C 0.94478 0.38126 0.14238 0.0
C702 C 0.90101 0.32767 0.15998 0.0
C703 C 0.86917 0.32467 0.14764 0.0
C704 C 0.87555 0.34969 0.13235 0.0
C705 C 0.91309 0.3777 0.12969 0.0
C706 C 0.82918 0.29738 0.1518 0.0
C707 C 0.80345 0.31414 0.15725 0.0
C708 C 0.81724 0.25589 0.15191 0.0
C709 C 0.84237 0.23594 0.14517 0.0
C710 C 0.8578 0.23854 0.12515 0.0
C711 C 0.88178 0.22006 0.11898 0.0
C712 C 0.89038 0.19868 0.13264 0.0
C713 C 0.87494 0.19566 0.15249 0.0
C714 C 0.85096 0.21411 0.15875 0.0
C715 C 0.65959 0.16191 0.1708 0.0
C716 C 0.65124 0.17498 0.19128 0.0
C717 C 0.69302 0.18657 0.16199 0.0
C718 C 0.71861 0.22471 0.17346 0.0
C719 C 0.71005 0.23779 0.19387 0.0
C720 C 0.6766 0.21326 0.20263 0.0
C721 C 0.75531 0.24988 0.16468 0.0
C722 C 0.78055 0.23275 0.15843 0.0
C723 C 0.76666 0.29102 0.16365 0.0
C724 C 0.74082 0.31072 0.16895 0.0
C725 C 0.75433 0.34734 0.18358 0.0
C726 C 0.7304 0.36644 0.18826 0.0
C727 C 0.69282 0.3492 0.17842 0.0
C728 C 0.67916 0.3129 0.16382 0.0
C729 C 0.70305 0.29377 0.15901 0.0
H730 H 0.67432 0.36401 0.18206 0.0
H731 H 0.90895 0.1844 0.12784 0.0
H732 H 0.14795 0.57323 0.08809 0.0
H733 H 0.15654 0.57178 0.04997 0.0
H734 H 0.04614 0.46689 0.035 0.0
H735 H 0.03789 0.46738 0.07307 0.0
H736 H 0.0963 0.45857 0.00929 0.0
H737 H 0.05772 0.56406 0.0332 0.0
H738 H 0.06283 0.62656 0.05574 0.0
H739 H 0.17526 0.69314 0.03479 0.0
H740 H 0.171 0.63086 0.01233 0.0
H741 H 0.02939 0.47194 0.90852 0.0
H742 H 0.04225 0.46997 0.94592 0.0
H743 H 0.15869 0.56297 0.94611 0.0
H744 H 0.14589 0.56487 0.90847 0.0
H745 H 0.11679 0.58001 0.97907 0.0
H746 H 0.14815 0.47277 0.9503 0.0
H747 H 0.13831 0.40927 0.92692 0.0
H748 H 0.03413 0.34475 0.95614 0.0
H749 H 0.04302 0.40797 0.9795 0.0
C750 C 0.12555 0.54978 0.07669 0.0
C751 C 0.09208 0.52061 0.0836 0.0
C752 C 0.13048 0.54902 0.0549 0.0
C753 C 0.10172 0.51959 0.03962 0.0
C754 C 0.06874 0.48987 0.0465 0.0
C755 C 0.06402 0.49029 0.06828 0.0
C756 C 0.10511 0.52037 0.01646 0.0
C757 C 0.1006 0.48506 0.00267 0.0
C758 C 0.11169 0.55526 0.00786 0.0
C759 C 0.11424 0.59274 0.0213 0.0
C760 C 0.08365 0.59197 0.03354 0.0
C761 C 0.08637 0.62736 0.04627 0.0
C762 C 0.1194 0.66377 0.04676 0.0
C763 C 0.14973 0.66489 0.03444 0.0
C764 C 0.14717 0.62957 0.0217 0.0
C765 C 0.05792 0.49143 0.91647 0.0
C766 C 0.08668 0.51858 0.90574 0.0
C767 C 0.06529 0.49018 0.93775 0.0
C768 C 0.10147 0.51619 0.9487 0.0
C769 C 0.13067 0.54255 0.93785 0.0
C770 C 0.12343 0.54346 0.91641 0.0
C771 C 0.10719 0.518 0.97193 0.0
C772 C 0.1133 0.55379 0.98573 0.0
C773 C 0.10148 0.48339 0.98049 0.0
C774 C 0.09616 0.4452 0.96658 0.0
C775 C 0.123 0.4451 0.95165 0.0
C776 C 0.11761 0.40913 0.93841 0.0
C777 C 0.08559 0.37301 0.94002 0.0
C778 C 0.05893 0.37276 0.95491 0.0
C779 C 0.06416 0.40865 0.96818 0.0
H780 H 0.08147 0.3452 0.92976 0.0
H781 H 0.12146 0.69114 0.05663 0.0
H782 H 0.51279 0.99686 0.43053 0.0
H783 H 0.51417 0.99507 0.39175 0.0
H784 H 0.59294 0.12188 0.40266 0.0
H785 H 0.59234 0.12385 0.44124 0.0
H786 H 0.52567 0.09565 0.372 0.0
H787 H 0.63072 0.06349 0.38894 0.0
H788 H 0.65847 0.02395 0.40415 0.0
H789 H 0.57892 0.91614 0.36245 0.0
H790 H 0.55031 0.95498 0.34721 0.0
H791 H 0.57389 0.11852 0.26676 0.0
H792 H 0.57892 0.12107 0.30528 0.0
H793 H 0.533 0.99128 0.29512 0.0
H794 H 0.53131 0.98878 0.25668 0.0
H795 H 0.58351 0.01899 0.32611 0.0
H796 H 0.47644 0.04535 0.30936 0.0
H797 H 0.44277 0.07985 0.2944 0.0
H798 H 0.51706 0.19126 0.33541 0.0
H799 H 0.55151 0.15751 0.35043 0.0
C800 C 0.53041 0.0243 0.42464 0.0
C801 C 0.55258 0.06042 0.4389 0.0
C802 C 0.53122 0.02321 0.40254 0.0
C803 C 0.55372 0.05836 0.39446 0.0
C804 C 0.57544 0.09449 0.40865 0.0
C805 C 0.57519 0.09545 0.43067 0.0
C806 C 0.55472 0.05767 0.37116 0.0
C807 C 0.53866 0.07929 0.36193 0.0
C808 C 0.57066 0.03532 0.35809 0.0
C809 C 0.58813 0.01207 0.36709 0.0
C810 C 0.61893 0.0313 0.38314 0.0
C811 C 0.63485 0.00902 0.39174 0.0
C812 C 0.62039 0.96754 0.38431 0.0
C813 C 0.59006 0.94826 0.36821 0.0
C814 C 0.574 0.9704 0.35957 0.0
C815 C 0.56566 0.09057 0.27266 0.0
C816 C 0.55155 0.05337 0.25849 0.0
C817 C 0.56796 0.09201 0.29477 0.0
C818 C 0.55524 0.05625 0.30321 0.0
C819 C 0.54261 0.0193 0.28909 0.0
C820 C 0.54114 0.01789 0.26703 0.0
C821 C 0.55434 0.05704 0.32667 0.0
C822 C 0.57042 0.03541 0.33603 0.0
C823 C 0.53753 0.07863 0.3398 0.0
C824 C 0.51681 0.099 0.33085 0.0
C825 C 0.48577 0.07727 0.31508 0.0
C826 C 0.46652 0.09668 0.3066 0.0
C827 C 0.47784 0.13774 0.3139 0.0
C828 C 0.50837 0.15946 0.32974 0.0
C829 C 0.52775 0.14021 0.33825 0.0
H830 H 0.4629 0.15272 0.30732 0.0
H831 H 0.63276 0.95034 0.39099 0.0
H832 H 0.62568 0.54615 0.76405 0.0
H833 H 0.62739 0.5498 0.72594 0.0
H834 H 0.52349 0.5669 0.72748 0.0
H835 H 0.521 0.56236 0.76525 0.0
H836 H 0.5189 0.51529 0.69321 0.0
H837 H 0.61431 0.64611 0.72755 0.0
H838 H 0.67242 0.69387 0.75112 0.0
H839 H 0.74231 0.64978 0.71309 0.0
H840 H 0.68448 0.60131 0.68946 0.0
H841 H 0.52448 0.58329 0.59549 0.0
H842 H 0.5298 0.58683 0.63429 0.0
H843 H 0.62362 0.55303 0.62841 0.0
H844 H 0.61855 0.54963 0.58964 0.0
H845 H 0.63476 0.61328 0.66453 0.0
H846 H 0.53819 0.48228 0.63038 0.0
H847 H 0.47972 0.43563 0.60679 0.0
H848 H 0.41148 0.48196 0.64489 0.0
H849 H 0.46972 0.52938 0.66853 0.0
C850 C 0.60316 0.55056 0.75626 0.0
C851 C 0.57325 0.55397 0.76772 0.0
C852 C 0.60426 0.55285 0.7345 0.0
C853 C 0.57582 0.55915 0.72392 0.0
C854 C 0.54572 0.56203 0.73529 0.0
C855 C 0.54442 0.55944 0.75693 0.0
C856 C 0.57702 0.56258 0.70097 0.0
C857 C 0.54409 0.5371 0.68704 0.0
C858 C 0.61015 0.59048 0.69279 0.0
C859 C 0.645 0.61981 0.70687 0.0
C860 C 0.64203 0.6464 0.7243 0.0
C861 C 0.67492 0.67362 0.73766 0.0
C862 C 0.71102 0.67478 0.73364 0.0
C863 C 0.71432 0.6488 0.71621 0.0
C864 C 0.6815 0.62146 0.70282 0.0
C865 C 0.54677 0.5775 0.60255 0.0
C866 C 0.57092 0.5659 0.58961 0.0
C867 C 0.54965 0.57931 0.62465 0.0
C868 C 0.57682 0.56973 0.63411 0.0
C869 C 0.60244 0.56043 0.62137 0.0
C870 C 0.59936 0.55829 0.59927 0.0
C871 C 0.57654 0.56635 0.65699 0.0
C872 C 0.60962 0.59163 0.67082 0.0
C873 C 0.5435 0.53845 0.66515 0.0
C874 C 0.50838 0.50966 0.65109 0.0
C875 C 0.51077 0.48274 0.63363 0.0
C876 C 0.47767 0.45613 0.62026 0.0
C877 C 0.44193 0.4559 0.6243 0.0
C878 C 0.4392 0.48221 0.64176 0.0
C879 C 0.47224 0.50895 0.65516 0.0
H880 H 0.41633 0.43527 0.61394 0.0
H881 H 0.73645 0.69588 0.74399 0.0
H882 H 0.59692 0.13209 0.58202 0.0
H883 H 0.60248 0.12871 0.61991 0.0
H884 H 0.50888 0.00826 0.60848 0.0
H885 H 0.50249 0.0117 0.57077 0.0
H886 H 0.50124 0.05162 0.644 0.0
H887 H 0.6043 0.02581 0.61379 0.0
H888 H 0.66245 0.04036 0.59391 0.0
H889 H 0.72582 0.14956 0.63913 0.0
H890 H 0.66792 0.13605 0.65909 0.0
H891 H 0.52759 0.00734 0.74474 0.0
H892 H 0.52548 1.00292 0.70593 0.0
H893 H 0.6196 0.12275 0.71346 0.0
H894 H 0.62311 0.12662 0.75216 0.0
H895 H 0.6267 0.07611 0.6794 0.0
H896 H 0.52459 0.10624 0.70771 0.0
H897 H 0.46715 0.09469 0.72783 0.0
H898 H 0.40286 0.98064 0.68636 0.0
H899 H 0.46014 0.99128 0.66616 0.0
C900 C 0.57733 0.10498 0.5876 0.0
C901 C 0.54929 0.07216 0.57337 0.0
C902 C 0.58073 0.10301 0.60923 0.0
C903 C 0.55653 0.06795 0.61693 0.0
C904 C 0.52791 0.03556 0.60286 0.0
C905 C 0.52426 0.03763 0.5813 0.0
C906 C 0.56086 0.06504 0.63969 0.0
C907 C 0.52853 0.05634 0.65165 0.0
C908 C 0.5967 0.07209 0.64977 0.0
C909 C 0.63164 0.08004 0.63785 0.0
C910 C 0.63054 0.05303 0.61942 0.0
C911 C 0.66346 0.06108 0.60814 0.0
C912 C 0.69775 0.09585 0.61523 0.0
C913 C 0.69923 0.12264 0.63364 0.0
C914 C 0.66638 0.11479 0.64495 0.0
C915 C 0.54846 0.03235 0.73811 0.0
C916 C 0.57519 0.06757 0.75154 0.0
C917 C 0.54696 0.02994 0.71594 0.0
C918 C 0.57181 0.06287 0.70685 0.0
C919 C 0.59994 0.0971 0.72014 0.0
C920 C 0.60167 0.09941 0.74227 0.0
C921 C 0.56713 0.06284 0.68368 0.0
C922 C 0.59936 0.07104 0.67167 0.0
C923 C 0.53129 0.05567 0.67355 0.0
C924 C 0.49675 0.04936 0.68557 0.0
C925 C 0.49828 0.07857 0.70297 0.0
C926 C 0.46575 0.0722 0.71438 0.0
C927 C 0.43141 0.0369 0.70841 0.0
C928 C 0.4295 0.00794 0.69098 0.0
C929 C 0.46198 0.01412 0.67955 0.0
H930 H 0.40625 0.03202 0.71726 0.0
H931 H 0.72319 0.10202 0.60648 0.0
H932 H 0.50187 0.53601 0.90155 0.0
H933 H 0.5005 0.53538 0.9399 0.0
H934 H 0.62488 0.58124 0.94592 0.0
H935 H 0.62611 0.57997 0.90738 0.0
H936 H 0.59698 0.52707 0.96877 0.0
H937 H 0.57554 0.64141 0.96228 0.0
H938 H 0.54446 0.67907 0.94814 0.0
H939 H 0.43627 0.60313 0.9703 0.0
H940 H 0.46658 0.56463 0.98432 0.0
H941 H 0.61451 0.58332 0.08255 0.0
H942 H 0.6179 0.58895 0.04474 0.0
H943 H 0.49462 0.51554 0.0335 0.0
H944 H 0.49102 0.50828 0.07103 0.0
H945 H 0.52402 0.58655 0.0142 0.0
H946 H 0.54936 0.47213 0.0201 0.0
H947 H 0.58429 0.43917 0.03539 0.0
H948 H 0.69107 0.52298 0.01543 0.0
H949 H 0.65682 0.55682 0.00028 0.0
C950 C 0.52892 0.54609 0.91108 0.0
C951 C 0.5641 0.5582 0.9015 0.0
C952 C 0.52815 0.54594 0.93304 0.0
C953 C 0.56268 0.55902 0.94597 0.0
C954 C 0.59784 0.57105 0.93635 0.0
C955 C 0.59853 0.57039 0.91432 0.0
C956 C 0.56208 0.55935 0.9694 0.0
C957 C 0.5815 0.54069 0.97869 0.0
C958 C 0.54155 0.57666 0.98246 0.0
C959 C 0.52326 0.5999 0.97418 0.0
C960 C 0.54505 0.63256 0.96401 0.0
C961 C 0.52758 0.65408 0.95603 0.0
C962 C 0.48839 0.64343 0.95827 0.0
C963 C 0.46661 0.61131 0.96855 0.0
C964 C 0.48393 0.58965 0.97654 0.0
C965 C 0.58813 0.56803 0.07204 0.0
C966 C 0.55252 0.5451 0.07988 0.0
C967 C 0.59011 0.57155 0.05047 0.0
C968 C 0.55653 0.5525 0.03637 0.0
C969 C 0.52082 0.53059 0.04419 0.0
C970 C 0.51885 0.52666 0.06569 0.0
C971 C 0.55874 0.55427 0.01329 0.0
C972 C 0.53961 0.57324 0.00415 0.0
C973 C 0.58013 0.53798 0.00046 0.0
C974 C 0.60059 0.51724 0.00925 0.0
C975 C 0.58033 0.48371 0.01911 0.0
C976 C 0.6 0.46484 0.02773 0.0
C977 C 0.63989 0.47904 0.02643 0.0
C978 C 0.66018 0.51205 0.01645 0.0
C979 C 0.64065 0.53106 0.00782 0.0
H980 H 0.65507 0.46442 0.03313 0.0
H981 H 0.47492 0.66012 0.95208 0.0
H982 H 0.13032 0.57175 0.22532 0.0
H983 H 0.12324 0.57419 0.26375 0.0
H984 H 1.00044 0.49906 0.25078 0.0
H985 H 1.00725 0.4959 0.21236 0.0
H986 H 0.02443 0.57235 0.28353 0.0
H987 H 0.04821 0.45496 0.26347 0.0
H988 H 0.08512 0.41978 0.24666 0.0
H989 H 0.18565 0.50118 0.28865 0.0
H990 H 0.14946 0.53723 0.30551 0.0
H991 H 0.98879 0.54516 0.39003 0.0
H992 H 0.98901 0.5316 0.35122 0.0
H993 H 0.11245 0.57061 0.3575 0.0
H994 H 0.1119 0.58055 0.39616 0.0
H995 H 0.08468 0.51191 0.32702 0.0
H996 H 0.06793 0.63265 0.34555 0.0
H997 H 0.03715 0.67491 0.36179 0.0
H998 H 0.93157 0.59693 0.3229 0.0
H999 H 0.96159 0.5539 0.30662 0.0
C1000 C 0.10183 0.55576 0.23066 0.0
C1001 C 0.06937 0.53351 0.21587 0.0
C1002 C 0.09787 0.5571 0.25257 0.0
C1003 C 0.06135 0.53666 0.25998 0.0
C1004 C 0.02883 0.51493 0.24529 0.0
C1005 C 0.03284 0.51302 0.22338 0.0
C1006 C 0.05714 0.53804 0.28312 0.0
C1007 C 0.03704 0.55867 0.29308 0.0
C1008 C 0.07467 0.52116 0.29547 0.0
C1009 C 0.09621 0.499 0.28562 0.0
C1010 C 0.07826 0.46553 0.26902 0.0
C1011 C 0.09904 0.4454 0.2595 0.0
C1012 C 0.13774 0.4583 0.26654 0.0
C1013 C 0.15568 0.49125 0.2832 0.0
C1014 C 0.13503 0.5115 0.29276 0.0
C1015 C 0.01587 0.55006 0.3832 0.0
C1016 C 0.05044 0.56459 0.39634 0.0
C1017 C 0.01605 0.54287 0.36094 0.0
C1018 C 0.05092 0.55109 0.35136 0.0
C1019 C 0.08518 0.56433 0.36444 0.0
C1020 C 0.08489 0.57062 0.38664 0.0
C1021 C 0.05217 0.54673 0.32776 0.0
C1022 C 0.07175 0.52549 0.31761 0.0
C1023 C 0.03499 0.56399 0.3153 0.0
C1024 C 0.01687 0.58981 0.32505 0.0
C1025 C 0.03806 0.62436 0.34058 0.0
C1026 C 0.02077 0.64847 0.34977 0.0
C1027 C 0.98239 0.63854 0.34343 0.0
C1028 C 0.96126 0.60453 0.32783 0.0
C1029 C 0.97841 0.58029 0.31861 0.0
H1030 H 0.96906 0.65725 0.35056 0.0
H1031 H 0.15381 0.44273 0.25913 0.0
loop_
_geom_bond_atom_site_label_1
_geom_bond_atom_site_label_2
_geom_bond_distance
_geom_bond_site_symmetry_2
_ccdc_geom_bond_type
Tb0 O3 2.453 . S
Tb0 O4 2.596 . S
Tb0 O5 2.374 . S
Tb0 O13 2.343 . S
Tb0 O15 2.353 . S
Tb0 O17 2.427 . S
Tb0 O18 2.513 . S
C1 O5 1.251 . S
C1 O7 1.263 . S
Tb2 O4 2.343 . S
Tb2 O7 2.353 . S
Tb2 O10 2.427 1_455 S
Tb2 O11 2.513 1_455 S
Tb2 O12 2.453 . S
Tb2 O13 2.596 . S
Tb2 O14 2.374 . S
O3 Tb0 2.453 . S
O3 C19 1.245 . S
O4 Tb0 2.596 . S
O4 Tb2 2.343 . S
O4 C19 1.259 . S
O5 Tb0 2.374 . S
O5 C1 1.251 . S
C6 O10 1.275 . S
C6 O11 1.246 . S
O7 C1 1.263 . S
O7 Tb2 2.353 . S
C8 O12 1.245 . S
C8 O13 1.259 . S
C9 O14 1.250 . S
C9 O15 1.263 . S
O10 Tb2 2.427 1_655 S
O10 C6 1.275 . S
O11 Tb2 2.513 1_655 S
O11 C6 1.246 . S
O12 Tb2 2.453 . S
O12 C8 1.245 . S
O13 Tb0 2.343 . S
O13 Tb2 2.596 . S
O13 C8 1.259 . S
O14 Tb2 2.374 . S
O14 C9 1.250 . S
O15 Tb0 2.353 . S
O15 C9 1.263 . S
C16 O17 1.275 . S
C16 O18 1.246 . S
O17 Tb0 2.427 . S
O17 C16 1.275 . S
O18 Tb0 2.513 . S
O18 C16 1.246 . S
C19 O3 1.245 . S
C19 O4 1.259 . S
Tb20 O23 2.453 . S
Tb20 O24 2.596 . S
Tb20 O25 2.374 . S
Tb20 O33 2.343 . S
Tb20 O35 2.353 . S
Tb20 O37 2.427 1_545 S
Tb20 O38 2.513 1_545 S
C21 O25 1.251 . S
C21 O27 1.263 . S
Tb22 O24 2.343 . S
Tb22 O27 2.353 . S
Tb22 O30 2.427 . S
Tb22 O31 2.513 . S
Tb22 O32 2.453 . S
Tb22 O33 2.596 . S
Tb22 O34 2.374 . S
O23 Tb20 2.453 . S
O23 C39 1.245 . S
O24 Tb20 2.596 . S
O24 Tb22 2.343 . S
O24 C39 1.259 . S
O25 Tb20 2.374 . S
O25 C21 1.251 . S
C26 O30 1.275 . S
C26 O31 1.246 . S
O27 C21 1.263 . S
O27 Tb22 2.353 . S
C28 O32 1.245 1_565 S
C28 O33 1.259 1_565 S
C29 O34 1.250 . S
C29 O35 1.263 . S
O30 Tb22 2.427 . S
O30 C26 1.275 . S
O31 Tb22 2.513 . S
O31 C26 1.246 . S
O32 Tb22 2.453 . S
O32 C28 1.245 1_545 S
O33 Tb20 2.343 . S
O33 Tb22 2.596 . S
O33 C28 1.259 1_545 S
O34 Tb22 2.374 . S
O34 C29 1.250 . S
O35 Tb20 2.353 . S
O35 C29 1.263 . S
C36 O37 1.275 . S
C36 O38 1.246 . S
O37 Tb20 2.427 1_565 S
O37 C36 1.275 . S
O38 Tb20 2.513 1_565 S
O38 C36 1.246 . S
C39 O23 1.245 . S
C39 O24 1.259 . S
Tb40 O43 2.453 . S
Tb40 O44 2.596 . S
Tb40 O45 2.374 . S
Tb40 O53 2.343 . S
Tb40 O55 2.353 . S
Tb40 O57 2.427 . S
Tb40 O58 2.513 . S
C41 O45 1.251 . S
C41 O47 1.263 . S
Tb42 O44 2.343 . S
Tb42 O47 2.353 . S
Tb42 O50 2.427 . S
Tb42 O51 2.513 . S
Tb42 O52 2.453 . S
Tb42 O53 2.596 . S
Tb42 O54 2.374 . S
O43 Tb40 2.453 . S
O43 C59 1.245 . S
O44 Tb40 2.596 . S
O44 Tb42 2.343 . S
O44 C59 1.259 . S
O45 Tb40 2.374 . S
O45 C41 1.251 . S
C46 O50 1.275 . S
C46 O51 1.246 . S
O47 C41 1.263 . S
O47 Tb42 2.353 . S
C48 O52 1.245 . S
C48 O53 1.259 . S
C49 O54 1.250 . S
C49 O55 1.263 . S
O50 Tb42 2.427 . S
O50 C46 1.275 . S
O51 Tb42 2.513 . S
O51 C46 1.246 . S
O52 Tb42 2.453 . S
O52 C48 1.245 . S
O53 Tb40 2.343 . S
O53 Tb42 2.596 . S
O53 C48 1.259 . S
O54 Tb42 2.374 . S
O54 C49 1.250 . S
O55 Tb40 2.353 . S
O55 C49 1.263 . S
C56 O57 1.275 . S
C56 O58 1.246 . S
O57 Tb40 2.427 . S
O57 C56 1.275 . S
O58 Tb40 2.513 . S
O58 C56 1.246 . S
C59 O43 1.245 . S
C59 O44 1.259 . S
H60 C65 0.930 . S
H61 C68 0.930 . S
H62 C70 0.930 . S
H63 C64 1.016 . S
C64 H63 1.016 . S
C64 N71 1.286 . S
C65 H60 0.930 . S
C65 C66 1.397 . S
C65 C67 1.361 . S
C66 C65 1.397 . S
C66 C70 1.390 . S
C67 C65 1.361 . S
C67 C68 1.393 . S
C67 N71 1.413 . S
C68 H61 0.930 . S
C68 C67 1.393 . S
C68 C69 1.399 . S
C69 C68 1.399 . S
C69 C70 1.381 . S
C70 H62 0.930 . S
C70 C66 1.390 . S
C70 C69 1.381 . S
N71 C64 1.286 . S
N71 C67 1.413 . S
H72 C77 0.930 . S
H73 C80 0.930 . S
H74 C82 0.930 . S
H75 C76 1.016 . S
C76 H75 1.016 . S
C76 N83 1.286 . S
C77 H72 0.930 . S
C77 C78 1.397 . S
C77 C79 1.361 . S
C78 C77 1.397 . S
C78 C82 1.390 . S
C79 C77 1.361 . S
C79 C80 1.393 . S
C79 N83 1.413 . S
C80 H73 0.930 . S
C80 C79 1.393 . S
C80 C81 1.399 . S
C81 C80 1.399 . S
C81 C82 1.381 . S
C82 H74 0.930 . S
C82 C78 1.390 . S
C82 C81 1.381 . S
N83 C76 1.286 . S
N83 C79 1.413 . S
H84 C89 0.930 . S
H85 C92 0.930 . S
H86 C94 0.930 . S
H87 C88 1.016 . S
C88 H87 1.016 . S
C88 N95 1.286 . S
C89 H84 0.930 . S
C89 C90 1.397 . S
C89 C91 1.361 . S
C90 C89 1.397 . S
C90 C94 1.390 . S
C91 C89 1.361 . S
C91 C92 1.393 . S
C91 N95 1.413 . S
C92 H85 0.930 . S
C92 C91 1.393 . S
C92 C93 1.399 . S
C93 C92 1.399 . S
C93 C94 1.381 . S
C94 H86 0.930 . S
C94 C90 1.390 . S
C94 C93 1.381 . S
N95 C88 1.286 . S
N95 C91 1.413 . S
H96 C101 0.930 . S
H97 C104 0.930 . S
H98 C106 0.930 . S
H99 C100 1.016 . S
C100 H99 1.016 . S
C100 N107 1.286 . S
C101 H96 0.930 . S
C101 C102 1.397 . S
C101 C103 1.361 1_455 S
C102 C101 1.397 . S
C102 C106 1.390 . S
C103 C101 1.361 1_655 S
C103 C104 1.393 . S
C103 N107 1.413 . S
C104 H97 0.930 . S
C104 C103 1.393 . S
C104 C105 1.399 1_655 S
C105 C104 1.399 1_455 S
C105 C106 1.381 . S
C106 H98 0.930 . S
C106 C102 1.390 . S
C106 C105 1.381 . S
N107 C100 1.286 . S
N107 C103 1.413 . S
H108 C113 0.930 . S
H109 C116 0.930 1_565 S
H110 C118 0.930 . S
H111 C112 1.016 . S
C112 H111 1.016 . S
C112 N119 1.286 . S
C113 H108 0.930 . S
C113 C114 1.397 . S
C113 C115 1.361 . S
C114 C113 1.397 . S
C114 C118 1.390 . S
C115 C113 1.361 . S
C115 C116 1.393 . S
C115 N119 1.413 1_545 S
C116 H109 0.930 1_545 S
C116 C115 1.393 . S
C116 C117 1.399 . S
C117 C116 1.399 . S
C117 C118 1.381 . S
C118 H110 0.930 . S
C118 C114 1.390 . S
C118 C117 1.381 . S
N119 C112 1.286 . S
N119 C115 1.413 1_565 S
H120 C125 0.930 . S
H121 C128 0.930 . S
H122 C130 0.930 . S
H123 C124 1.016 . S
C124 H123 1.016 . S
C124 N131 1.286 . S
C125 H120 0.930 . S
C125 C126 1.397 . S
C125 C127 1.361 . S
C126 C125 1.397 . S
C126 C130 1.390 . S
C127 C125 1.361 . S
C127 C128 1.393 . S
C127 N131 1.413 . S
C128 H121 0.930 . S
C128 C127 1.393 . S
C128 C129 1.399 . S
C129 C128 1.399 . S
C129 C130 1.381 . S
C130 H122 0.930 . S
C130 C126 1.390 . S
C130 C129 1.381 . S
N131 C124 1.286 . S
N131 C127 1.413 . S
H132 C150 0.951 . S
H133 C152 0.951 . S
H134 C154 0.950 . S
H135 C155 0.950 . S
H136 C157 0.950 . S
H137 C160 0.950 . S
H138 C161 0.950 . S
H139 C163 0.950 . S
H140 C164 0.950 . S
H141 C165 0.951 . S
H142 C167 0.951 . S
H143 C169 0.950 . S
H144 C170 0.950 . S
H145 C172 0.950 . S
H146 C175 0.950 . S
H147 C176 0.950 . S
H148 C178 0.950 . S
H149 C179 0.950 . S
C150 H132 0.951 . S
C150 C151 1.366 . S
C150 C152 1.388 . S
C151 C150 1.366 . S
C151 C155 1.385 . S
C152 H133 0.951 . S
C152 C150 1.388 . S
C152 C153 1.366 . S
C153 C152 1.366 . S
C153 C154 1.414 . S
C153 C156 1.499 . S
C154 H134 0.950 . S
C154 C153 1.414 . S
C154 C155 1.374 . S
C155 H135 0.950 . S
C155 C151 1.385 . S
C155 C154 1.374 . S
C156 C153 1.499 . S
C156 C157 1.373 . S
C156 C158 1.389 . S
C157 H136 0.950 . S
C157 C156 1.373 . S
C157 C173 1.377 . S
C158 C156 1.389 . S
C158 C159 1.524 . S
C158 C172 1.377 . S
C159 C158 1.524 . S
C159 C160 1.397 . S
C159 C164 1.363 . S
C160 H137 0.950 . S
C160 C159 1.397 . S
C160 C161 1.334 . S
C161 H138 0.950 . S
C161 C160 1.334 . S
C161 C162 1.287 . S
C162 C161 1.287 . S
C162 C163 1.524 . S
C162 H181 0.913 . S
C163 H139 0.950 . S
C163 C162 1.524 . S
C163 C164 1.415 . S
C164 H140 0.950 . S
C164 C159 1.363 . S
C164 C163 1.415 . S
C165 H141 0.951 . S
C165 C166 1.366 . S
C165 C167 1.388 . S
C166 C165 1.366 . S
C166 C170 1.385 . S
C167 H142 0.951 . S
C167 C165 1.388 . S
C167 C168 1.366 . S
C168 C167 1.366 . S
C168 C169 1.414 . S
C168 C171 1.499 . S
C169 H143 0.950 . S
C169 C168 1.414 . S
C169 C170 1.374 . S
C170 H144 0.950 . S
C170 C166 1.385 . S
C170 C169 1.374 . S
C171 C168 1.499 . S
C171 C172 1.373 . S
C171 C173 1.389 . S
C172 H145 0.950 . S
C172 C158 1.377 . S
C172 C171 1.373 . S
C173 C157 1.377 . S
C173 C171 1.389 . S
C173 C174 1.524 . S
C174 C173 1.524 . S
C174 C175 1.397 . S
C174 C179 1.363 . S
C175 H146 0.950 . S
C175 C174 1.397 . S
C175 C176 1.334 . S
C176 H147 0.950 . S
C176 C175 1.334 . S
C176 C177 1.287 . S
C177 C176 1.287 . S
C177 C178 1.524 . S
C177 H180 0.999 . S
C178 H148 0.950 . S
C178 C177 1.524 . S
C178 C179 1.415 . S
C179 H149 0.950 . S
C179 C174 1.363 . S
C179 C178 1.415 . S
H180 C177 0.999 . S
H181 C162 0.913 . S
H182 C200 0.951 . S
H183 C202 0.951 . S
H184 C204 0.950 . S
H185 C205 0.950 . S
H186 C207 0.950 . S
H187 C210 0.950 . S
H188 C211 0.950 . S
H189 C213 0.950 . S
H190 C214 0.950 . S
H191 C215 0.951 . S
H192 C217 0.951 . S
H193 C219 0.950 . S
H194 C220 0.950 . S
H195 C222 0.950 . S
H196 C225 0.950 . S
H197 C226 0.950 . S
H198 C228 0.950 . S
H199 C229 0.950 . S
C200 H182 0.951 . S
C200 C201 1.366 . S
C200 C202 1.388 . S
C201 C200 1.366 . S
C201 C205 1.385 . S
C202 H183 0.951 . S
C202 C200 1.388 . S
C202 C203 1.366 . S
C203 C202 1.366 . S
C203 C204 1.414 . S
C203 C206 1.499 . S
C204 H184 0.950 . S
C204 C203 1.414 . S
C204 C205 1.374 . S
C205 H185 0.950 . S
C205 C201 1.385 . S
C205 C204 1.374 . S
C206 C203 1.499 . S
C206 C207 1.373 . S
C206 C208 1.389 . S
C207 H186 0.950 . S
C207 C206 1.373 . S
C207 C223 1.377 . S
C208 C206 1.389 . S
C208 C209 1.524 . S
C208 C222 1.377 . S
C209 C208 1.524 . S
C209 C210 1.397 . S
C209 C214 1.363 . S
C210 H187 0.950 . S
C210 C209 1.397 . S
C210 C211 1.334 . S
C211 H188 0.950 . S
C211 C210 1.334 . S
C211 C212 1.287 . S
C212 C211 1.287 . S
C212 C213 1.524 . S
C212 H231 0.913 . S
C213 H189 0.950 . S
C213 C212 1.524 . S
C213 C214 1.415 . S
C214 H190 0.950 . S
C214 C209 1.363 . S
C214 C213 1.415 . S
C215 H191 0.951 . S
C215 C216 1.366 . S
C215 C217 1.388 . S
C216 C215 1.366 . S
C216 C220 1.385 . S
C217 H192 0.951 . S
C217 C215 1.388 . S
C217 C218 1.366 . S
C218 C217 1.366 . S
C218 C219 1.414 . S
C218 C221 1.499 . S
C219 H193 0.950 . S
C219 C218 1.414 . S
C219 C220 1.374 . S
C220 H194 0.950 . S
C220 C216 1.385 . S
C220 C219 1.374 . S
C221 C218 1.499 . S
C221 C222 1.373 . S
C221 C223 1.389 . S
C222 H195 0.950 . S
C222 C208 1.377 . S
C222 C221 1.373 . S
C223 C207 1.377 . S
C223 C221 1.389 . S
C223 C224 1.524 . S
C224 C223 1.524 . S
C224 C225 1.397 . S
C224 C229 1.363 . S
C225 H196 0.950 . S
C225 C224 1.397 . S
C225 C226 1.334 . S
C226 H197 0.950 . S
C226 C225 1.334 . S
C226 C227 1.287 . S
C227 C226 1.287 . S
C227 C228 1.524 . S
C227 H230 0.999 . S
C228 H198 0.950 . S
C228 C227 1.524 . S
C228 C229 1.415 . S
C229 H199 0.950 . S
C229 C224 1.363 . S
C229 C228 1.415 . S
H230 C227 0.999 . S
H231 C212 0.913 . S
H232 C250 0.951 . S
H233 C252 0.951 . S
H234 C254 0.950 . S
H235 C255 0.950 . S
H236 C257 0.950 . S
H237 C260 0.950 . S
H238 C261 0.950 . S
H239 C263 0.950 . S
H240 C264 0.950 . S
H241 C265 0.951 . S
H242 C267 0.951 . S
H243 C269 0.950 . S
H244 C270 0.950 . S
H245 C272 0.950 . S
H246 C275 0.950 . S
H247 C276 0.950 . S
H248 C278 0.950 . S
H249 C279 0.950 . S
C250 H232 0.951 . S
C250 C251 1.366 . S
C250 C252 1.388 . S
C251 C250 1.366 . S
C251 C255 1.385 . S
C252 H233 0.951 . S
C252 C250 1.388 . S
C252 C253 1.366 . S
C253 C252 1.366 . S
C253 C254 1.414 . S
C253 C256 1.499 . S
C254 H234 0.950 . S
C254 C253 1.414 . S
C254 C255 1.374 . S
C255 H235 0.950 . S
C255 C251 1.385 . S
C255 C254 1.374 . S
C256 C253 1.499 . S
C256 C257 1.373 . S
C256 C258 1.389 . S
C257 H236 0.950 . S
C257 C256 1.373 . S
C257 C273 1.377 . S
C258 C256 1.389 . S
C258 C259 1.524 . S
C258 C272 1.377 . S
C259 C258 1.524 . S
C259 C260 1.397 . S
C259 C264 1.363 . S
C260 H237 0.950 . S
C260 C259 1.397 . S
C260 C261 1.334 . S
C261 H238 0.950 . S
C261 C260 1.334 . S
C261 C262 1.287 . S
C262 C261 1.287 . S
C262 C263 1.524 . S
C262 H281 0.913 . S
C263 H239 0.950 . S
C263 C262 1.524 . S
C263 C264 1.415 . S
C264 H240 0.950 . S
C264 C259 1.363 . S
C264 C263 1.415 . S
C265 H241 0.951 . S
C265 C266 1.366 . S
C265 C267 1.388 . S
C266 C265 1.366 . S
C266 C270 1.385 . S
C267 H242 0.951 . S
C267 C265 1.388 . S
C267 C268 1.366 . S
C268 C267 1.366 . S
C268 C269 1.414 . S
C268 C271 1.499 . S
C269 H243 0.950 . S
C269 C268 1.414 . S
C269 C270 1.374 . S
C270 H244 0.950 . S
C270 C266 1.385 . S
C270 C269 1.374 . S
C271 C268 1.499 . S
C271 C272 1.373 . S
C271 C273 1.389 . S
C272 H245 0.950 . S
C272 C258 1.377 . S
C272 C271 1.373 . S
C273 C257 1.377 . S
C273 C271 1.389 . S
C273 C274 1.524 . S
C274 C273 1.524 . S
C274 C275 1.397 . S
C274 C279 1.363 . S
C275 H246 0.950 . S
C275 C274 1.397 . S
C275 C276 1.334 . S
C276 H247 0.950 . S
C276 C275 1.334 . S
C276 C277 1.287 . S
C277 C276 1.287 . S
C277 C278 1.524 . S
C277 H280 0.999 . S
C278 H248 0.950 . S
C278 C277 1.524 . S
C278 C279 1.415 . S
C279 H249 0.950 . S
C279 C274 1.363 . S
C279 C278 1.415 . S
H280 C277 0.999 . S
H281 C262 0.913 . S
H282 C300 0.951 . S
H283 C302 0.951 . S
H284 C304 0.950 . S
H285 C305 0.950 . S
H286 C307 0.950 . S
H287 C310 0.950 . S
H288 C311 0.950 . S
H289 C313 0.950 . S
H290 C314 0.950 . S
H291 C315 0.951 . S
H292 C317 0.951 . S
H293 C319 0.950 . S
H294 C320 0.950 . S
H295 C322 0.950 . S
H296 C325 0.950 . S
H297 C326 0.950 . S
H298 C328 0.950 . S
H299 C329 0.950 . S
C300 H282 0.951 . S
C300 C301 1.366 . S
C300 C302 1.388 . S
C301 C300 1.366 . S
C301 C305 1.385 . S
C302 H283 0.951 . S
C302 C300 1.388 . S
C302 C303 1.366 . S
C303 C302 1.366 . S
C303 C304 1.414 . S
C303 C306 1.499 . S
C304 H284 0.950 . S
C304 C303 1.414 . S
C304 C305 1.374 . S
C305 H285 0.950 . S
C305 C301 1.385 . S
C305 C304 1.374 . S
C306 C303 1.499 . S
C306 C307 1.373 . S
C306 C308 1.389 . S
C307 H286 0.950 . S
C307 C306 1.373 . S
C307 C323 1.377 . S
C308 C306 1.389 . S
C308 C309 1.524 . S
C308 C322 1.377 . S
C309 C308 1.524 . S
C309 C310 1.397 . S
C309 C314 1.363 . S
C310 H287 0.950 . S
C310 C309 1.397 . S
C310 C311 1.334 . S
C311 H288 0.950 . S
C311 C310 1.334 . S
C311 C312 1.287 . S
C312 C311 1.287 . S
C312 C313 1.524 . S
C312 H331 0.913 . S
C313 H289 0.950 . S
C313 C312 1.524 . S
C313 C314 1.415 . S
C314 H290 0.950 . S
C314 C309 1.363 . S
C314 C313 1.415 . S
C315 H291 0.951 . S
C315 C316 1.366 . S
C315 C317 1.388 . S
C316 C315 1.366 . S
C316 C320 1.385 . S
C317 H292 0.951 . S
C317 C315 1.388 . S
C317 C318 1.366 . S
C318 C317 1.366 . S
C318 C319 1.414 . S
C318 C321 1.499 . S
C319 H293 0.950 . S
C319 C318 1.414 . S
C319 C320 1.374 . S
C320 H294 0.950 . S
C320 C316 1.385 . S
C320 C319 1.374 . S
C321 C318 1.499 . S
C321 C322 1.373 . S
C321 C323 1.389 . S
C322 H295 0.950 . S
C322 C308 1.377 . S
C322 C321 1.373 . S
C323 C307 1.377 . S
C323 C321 1.389 . S
C323 C324 1.524 . S
C324 C323 1.524 . S
C324 C325 1.397 . S
C324 C329 1.363 . S
C325 H296 0.950 . S
C325 C324 1.397 . S
C325 C326 1.334 . S
C326 H297 0.950 . S
C326 C325 1.334 . S
C326 C327 1.287 . S
C327 C326 1.287 . S
C327 C328 1.524 . S
C327 H330 0.999 . S
C328 H298 0.950 . S
C328 C327 1.524 . S
C328 C329 1.415 . S
C329 H299 0.950 . S
C329 C324 1.363 . S
C329 C328 1.415 . S
H330 C327 0.999 . S
H331 C312 0.913 . S
H332 C350 0.951 . S
H333 C352 0.951 . S
H334 C354 0.950 . S
H335 C355 0.950 . S
H336 C357 0.950 . S
H337 C360 0.950 . S
H338 C361 0.950 . S
H339 C363 0.950 . S
H340 C364 0.950 . S
H341 C365 0.951 . S
H342 C367 0.951 . S
H343 C369 0.950 . S
H344 C370 0.950 . S
H345 C372 0.950 . S
H346 C375 0.950 . S
H347 C376 0.950 . S
H348 C378 0.950 . S
H349 C379 0.950 . S
C350 H332 0.951 . S
C350 C351 1.366 . S
C350 C352 1.388 . S
C351 C350 1.366 . S
C351 C355 1.385 . S
C352 H333 0.951 . S
C352 C350 1.388 . S
C352 C353 1.366 . S
C353 C352 1.366 . S
C353 C354 1.414 . S
C353 C356 1.499 . S
C354 H334 0.950 . S
C354 C353 1.414 . S
C354 C355 1.374 . S
C355 H335 0.950 . S
C355 C351 1.385 . S
C355 C354 1.374 . S
C356 C353 1.499 . S
C356 C357 1.373 . S
C356 C358 1.389 . S
C357 H336 0.950 . S
C357 C356 1.373 . S
C357 C373 1.377 . S
C358 C356 1.389 . S
C358 C359 1.524 . S
C358 C372 1.377 . S
C359 C358 1.524 . S
C359 C360 1.397 . S
C359 C364 1.363 . S
C360 H337 0.950 . S
C360 C359 1.397 . S
C360 C361 1.334 . S
C361 H338 0.950 . S
C361 C360 1.334 . S
C361 C362 1.287 . S
C362 C361 1.287 . S
C362 C363 1.524 . S
C362 H381 0.913 . S
C363 H339 0.950 . S
C363 C362 1.524 . S
C363 C364 1.415 . S
C364 H340 0.950 . S
C364 C359 1.363 . S
C364 C363 1.415 . S
C365 H341 0.951 . S
C365 C366 1.366 . S
C365 C367 1.388 . S
C366 C365 1.366 . S
C366 C370 1.385 . S
C367 H342 0.951 . S
C367 C365 1.388 . S
C367 C368 1.366 . S
C368 C367 1.366 . S
C368 C369 1.414 . S
C368 C371 1.499 . S
C369 H343 0.950 . S
C369 C368 1.414 . S
C369 C370 1.374 . S
C370 H344 0.950 . S
C370 C366 1.385 . S
C370 C369 1.374 . S
C371 C368 1.499 . S
C371 C372 1.373 . S
C371 C373 1.389 . S
C372 H345 0.950 . S
C372 C358 1.377 . S
C372 C371 1.373 . S
C373 C357 1.377 . S
C373 C371 1.389 . S
C373 C374 1.524 . S
C374 C373 1.524 . S
C374 C375 1.397 . S
C374 C379 1.363 . S
C375 H346 0.950 . S
C375 C374 1.397 . S
C375 C376 1.334 . S
C376 H347 0.950 . S
C376 C375 1.334 . S
C376 C377 1.287 . S
C377 C376 1.287 . S
C377 C378 1.524 . S
C377 H380 0.999 . S
C378 H348 0.950 . S
C378 C377 1.524 . S
C378 C379 1.415 . S
C379 H349 0.950 . S
C379 C374 1.363 . S
C379 C378 1.415 . S
H380 C377 0.999 . S
H381 C362 0.913 . S
H382 C400 0.951 . S
H383 C402 0.951 . S
H384 C404 0.950 . S
H385 C405 0.950 . S
H386 C407 0.950 . S
H387 C410 0.950 . S
H388 C411 0.950 . S
H389 C413 0.950 . S
H390 C414 0.950 . S
H391 C415 0.951 . S
H392 C417 0.951 . S
H393 C419 0.950 . S
H394 C420 0.950 . S
H395 C422 0.950 . S
H396 C425 0.950 . S
H397 C426 0.950 . S
H398 C428 0.950 . S
H399 C429 0.950 . S
C400 H382 0.951 . S
C400 C401 1.366 . S
C400 C402 1.388 . S
C401 C400 1.366 . S
C401 C405 1.385 . S
C402 H383 0.951 . S
C402 C400 1.388 . S
C402 C403 1.366 . S
C403 C402 1.366 . S
C403 C404 1.414 . S
C403 C406 1.499 . S
C404 H384 0.950 . S
C404 C403 1.414 . S
C404 C405 1.374 . S
C405 H385 0.950 . S
C405 C401 1.385 . S
C405 C404 1.374 . S
C406 C403 1.499 . S
C406 C407 1.373 . S
C406 C408 1.389 . S
C407 H386 0.950 . S
C407 C406 1.373 . S
C407 C423 1.377 . S
C408 C406 1.389 . S
C408 C409 1.524 . S
C408 C422 1.377 . S
C409 C408 1.524 . S
C409 C410 1.397 . S
C409 C414 1.363 . S
C410 H387 0.950 . S
C410 C409 1.397 . S
C410 C411 1.334 . S
C411 H388 0.950 . S
C411 C410 1.334 . S
C411 C412 1.287 . S
C412 C411 1.287 . S
C412 C413 1.524 . S
C412 H431 0.913 . S
C413 H389 0.950 . S
C413 C412 1.524 . S
C413 C414 1.415 . S
C414 H390 0.950 . S
C414 C409 1.363 . S
C414 C413 1.415 . S
C415 H391 0.951 . S
C415 C416 1.366 . S
C415 C417 1.388 . S
C416 C415 1.366 . S
C416 C420 1.385 . S
C417 H392 0.951 . S
C417 C415 1.388 . S
C417 C418 1.366 . S
C418 C417 1.366 . S
C418 C419 1.414 . S
C418 C421 1.499 . S
C419 H393 0.950 . S
C419 C418 1.414 . S
C419 C420 1.374 . S
C420 H394 0.950 . S
C420 C416 1.385 . S
C420 C419 1.374 . S
C421 C418 1.499 . S
C421 C422 1.373 . S
C421 C423 1.389 . S
C422 H395 0.950 . S
C422 C408 1.377 . S
C422 C421 1.373 . S
C423 C407 1.377 . S
C423 C421 1.389 . S
C423 C424 1.524 . S
C424 C423 1.524 . S
C424 C425 1.397 . S
C424 C429 1.363 . S
C425 H396 0.950 . S
C425 C424 1.397 . S
C425 C426 1.334 . S
C426 H397 0.950 . S
C426 C425 1.334 . S
C426 C427 1.287 . S
C427 C426 1.287 . S
C427 C428 1.524 . S
C427 H430 0.999 . S
C428 H398 0.950 . S
C428 C427 1.524 . S
C428 C429 1.415 . S
C429 H399 0.950 . S
C429 C424 1.363 . S
C429 C428 1.415 . S
H430 C427 0.999 . S
H431 C412 0.913 . S
H432 C450 0.951 . S
H433 C452 0.951 . S
H434 C454 0.950 . S
H435 C455 0.950 . S
H436 C457 0.950 . S
H437 C460 0.950 . S
H438 C461 0.950 . S
H439 C463 0.950 . S
H440 C464 0.950 . S
H441 C465 0.951 . S
H442 C467 0.951 . S
H443 C469 0.950 . S
H444 C470 0.950 . S
H445 C472 0.950 . S
H446 C475 0.950 . S
H447 C476 0.950 . S
H448 C478 0.950 . S
H449 C479 0.950 . S
C450 H432 0.951 . S
C450 C451 1.366 . S
C450 C452 1.388 . S
C451 C450 1.366 . S
C451 C455 1.385 . S
C452 H433 0.951 . S
C452 C450 1.388 . S
C452 C453 1.366 . S
C453 C452 1.366 . S
C453 C454 1.414 . S
C453 C456 1.499 . S
C454 H434 0.950 . S
C454 C453 1.414 . S
C454 C455 1.374 . S
C455 H435 0.950 . S
C455 C451 1.385 . S
C455 C454 1.374 . S
C456 C453 1.499 . S
C456 C457 1.373 . S
C456 C458 1.389 . S
C457 H436 0.950 . S
C457 C456 1.373 . S
C457 C473 1.377 . S
C458 C456 1.389 . S
C458 C459 1.524 . S
C458 C472 1.377 . S
C459 C458 1.524 . S
C459 C460 1.397 . S
C459 C464 1.363 . S
C460 H437 0.950 . S
C460 C459 1.397 . S
C460 C461 1.334 . S
C461 H438 0.950 . S
C461 C460 1.334 . S
C461 C462 1.287 . S
C462 C461 1.287 . S
C462 C463 1.524 . S
C462 H481 0.913 . S
C463 H439 0.950 . S
C463 C462 1.524 . S
C463 C464 1.415 . S
C464 H440 0.950 . S
C464 C459 1.363 . S
C464 C463 1.415 . S
C465 H441 0.951 . S
C465 C466 1.366 . S
C465 C467 1.388 . S
C466 C465 1.366 . S
C466 C470 1.385 . S
C467 H442 0.951 . S
C467 C465 1.388 . S
C467 C468 1.366 . S
C468 C467 1.366 . S
C468 C469 1.414 . S
C468 C471 1.499 . S
C469 H443 0.950 . S
C469 C468 1.414 . S
C469 C470 1.374 . S
C470 H444 0.950 . S
C470 C466 1.385 . S
C470 C469 1.374 . S
C471 C468 1.499 . S
C471 C472 1.373 . S
C471 C473 1.389 . S
C472 H445 0.950 . S
C472 C458 1.377 . S
C472 C471 1.373 . S
C473 C457 1.377 . S
C473 C471 1.389 . S
C473 C474 1.524 . S
C474 C473 1.524 . S
C474 C475 1.397 . S
C474 C479 1.363 . S
C475 H446 0.950 . S
C475 C474 1.397 . S
C475 C476 1.334 . S
C476 H447 0.950 . S
C476 C475 1.334 . S
C476 C477 1.287 . S
C477 C476 1.287 . S
C477 C478 1.524 . S
C477 H480 0.999 . S
C478 H448 0.950 . S
C478 C477 1.524 . S
C478 C479 1.415 . S
C479 H449 0.950 . S
C479 C474 1.363 . S
C479 C478 1.415 . S
H480 C477 0.999 . S
H481 C462 0.913 . S
H482 C500 0.951 . S
H483 C502 0.951 . S
H484 C504 0.950 . S
H485 C505 0.950 . S
H486 C507 0.950 . S
H487 C510 0.950 . S
H488 C511 0.950 . S
H489 C513 0.950 . S
H490 C514 0.950 . S
H491 C515 0.951 . S
H492 C517 0.951 . S
H493 C519 0.950 . S
H494 C520 0.950 1_455 S
H495 C522 0.950 . S
H496 C525 0.950 . S
H497 C526 0.950 . S
H498 C528 0.950 . S
H499 C529 0.950 . S
C500 H482 0.951 . S
C500 C501 1.366 . S
C500 C502 1.388 . S
C501 C500 1.366 . S
C501 C505 1.385 . S
C502 H483 0.951 . S
C502 C500 1.388 . S
C502 C503 1.366 . S
C503 C502 1.366 . S
C503 C504 1.414 . S
C503 C506 1.499 . S
C504 H484 0.950 . S
C504 C503 1.414 . S
C504 C505 1.374 . S
C505 H485 0.950 . S
C505 C501 1.385 . S
C505 C504 1.374 . S
C506 C503 1.499 . S
C506 C507 1.373 . S
C506 C508 1.389 . S
C507 H486 0.950 . S
C507 C506 1.373 . S
C507 C523 1.377 . S
C508 C506 1.389 . S
C508 C509 1.524 . S
C508 C522 1.377 . S
C509 C508 1.524 . S
C509 C510 1.397 . S
C509 C514 1.363 . S
C510 H487 0.950 . S
C510 C509 1.397 . S
C510 C511 1.334 . S
C511 H488 0.950 . S
C511 C510 1.334 . S
C511 C512 1.287 . S
C512 C511 1.287 . S
C512 C513 1.524 . S
C512 H531 0.913 . S
C513 H489 0.950 . S
C513 C512 1.524 . S
C513 C514 1.415 . S
C514 H490 0.950 . S
C514 C509 1.363 . S
C514 C513 1.415 . S
C515 H491 0.951 . S
C515 C516 1.366 1_655 S
C515 C517 1.388 . S
C516 C515 1.366 1_455 S
C516 C520 1.385 1_455 S
C517 H492 0.951 . S
C517 C515 1.388 . S
C517 C518 1.366 . S
C518 C517 1.366 . S
C518 C519 1.414 . S
C518 C521 1.499 . S
C519 H493 0.950 . S
C519 C518 1.414 . S
C519 C520 1.374 . S
C520 H494 0.950 1_655 S
C520 C516 1.385 1_655 S
C520 C519 1.374 . S
C521 C518 1.499 . S
C521 C522 1.373 . S
C521 C523 1.389 . S
C522 H495 0.950 . S
C522 C508 1.377 . S
C522 C521 1.373 . S
C523 C507 1.377 . S
C523 C521 1.389 . S
C523 C524 1.524 . S
C524 C523 1.524 . S
C524 C525 1.397 . S
C524 C529 1.363 . S
C525 H496 0.950 . S
C525 C524 1.397 . S
C525 C526 1.334 . S
C526 H497 0.950 . S
C526 C525 1.334 . S
C526 C527 1.287 . S
C527 C526 1.287 . S
C527 C528 1.524 . S
C527 H530 0.999 . S
C528 H498 0.950 . S
C528 C527 1.524 . S
C528 C529 1.415 . S
C529 H499 0.950 . S
C529 C524 1.363 . S
C529 C528 1.415 . S
H530 C527 0.999 . S
H531 C512 0.913 . S
H532 C550 0.951 . S
H533 C552 0.951 . S
H534 C554 0.950 . S
H535 C555 0.950 . S
H536 C557 0.950 . S
H537 C560 0.950 . S
H538 C561 0.950 . S
H539 C563 0.950 . S
H540 C564 0.950 . S
H541 C565 0.951 1_545 S
H542 C567 0.951 . S
H543 C569 0.950 . S
H544 C570 0.950 . S
H545 C572 0.950 . S
H546 C575 0.950 . S
H547 C576 0.950 . S
H548 C578 0.950 . S
H549 C579 0.950 . S
C550 H532 0.951 . S
C550 C551 1.366 . S
C550 C552 1.388 . S
C551 C550 1.366 . S
C551 C555 1.385 . S
C552 H533 0.951 . S
C552 C550 1.388 . S
C552 C553 1.366 . S
C553 C552 1.366 . S
C553 C554 1.414 . S
C553 C556 1.499 . S
C554 H534 0.950 . S
C554 C553 1.414 . S
C554 C555 1.374 . S
C555 H535 0.950 . S
C555 C551 1.385 . S
C555 C554 1.374 . S
C556 C553 1.499 . S
C556 C557 1.373 . S
C556 C558 1.389 . S
C557 H536 0.950 . S
C557 C556 1.373 . S
C557 C573 1.377 . S
C558 C556 1.389 . S
C558 C559 1.524 . S
C558 C572 1.377 . S
C559 C558 1.524 . S
C559 C560 1.397 . S
C559 C564 1.363 . S
C560 H537 0.950 . S
C560 C559 1.397 . S
C560 C561 1.334 . S
C561 H538 0.950 . S
C561 C560 1.334 . S
C561 C562 1.287 . S
C562 C561 1.287 . S
C562 C563 1.524 . S
C562 H581 0.913 . S
C563 H539 0.950 . S
C563 C562 1.524 . S
C563 C564 1.415 . S
C564 H540 0.950 . S
C564 C559 1.363 . S
C564 C563 1.415 . S
C565 H541 0.951 1_565 S
C565 C566 1.366 . S
C565 C567 1.388 . S
C566 C565 1.366 . S
C566 C570 1.385 . S
C567 H542 0.951 . S
C567 C565 1.388 . S
C567 C568 1.366 . S
C568 C567 1.366 . S
C568 C569 1.414 . S
C568 C571 1.499 . S
C569 H543 0.950 . S
C569 C568 1.414 . S
C569 C570 1.374 . S
C570 H544 0.950 . S
C570 C566 1.385 . S
C570 C569 1.374 . S
C571 C568 1.499 . S
C571 C572 1.373 . S
C571 C573 1.389 . S
C572 H545 0.950 . S
C572 C558 1.377 . S
C572 C571 1.373 . S
C573 C557 1.377 . S
C573 C571 1.389 . S
C573 C574 1.524 . S
C574 C573 1.524 . S
C574 C575 1.397 . S
C574 C579 1.363 . S
C575 H546 0.950 . S
C575 C574 1.397 . S
C575 C576 1.334 . S
C576 H547 0.950 . S
C576 C575 1.334 . S
C576 C577 1.287 . S
C577 C576 1.287 . S
C577 C578 1.524 . S
C577 H580 0.999 . S
C578 H548 0.950 . S
C578 C577 1.524 . S
C578 C579 1.415 . S
C579 H549 0.950 . S
C579 C574 1.363 . S
C579 C578 1.415 . S
H580 C577 0.999 . S
H581 C562 0.913 . S
H582 C600 0.951 . S
H583 C602 0.951 . S
H584 C604 0.950 . S
H585 C605 0.950 . S
H586 C607 0.950 . S
H587 C610 0.950 . S
H588 C611 0.950 . S
H589 C613 0.950 . S
H590 C614 0.950 . S
H591 C615 0.951 . S
H592 C617 0.951 . S
H593 C619 0.950 . S
H594 C620 0.950 . S
H595 C622 0.950 . S
H596 C625 0.950 . S
H597 C626 0.950 . S
H598 C628 0.950 . S
H599 C629 0.950 . S
C600 H582 0.951 . S
C600 C601 1.366 . S
C600 C602 1.388 . S
C601 C600 1.366 . S
C601 C605 1.385 . S
C602 H583 0.951 . S
C602 C600 1.388 . S
C602 C603 1.366 . S
C603 C602 1.366 . S
C603 C604 1.414 . S
C603 C606 1.499 . S
C604 H584 0.950 . S
C604 C603 1.414 . S
C604 C605 1.374 . S
C605 H585 0.950 . S
C605 C601 1.385 . S
C605 C604 1.374 . S
C606 C603 1.499 . S
C606 C607 1.373 . S
C606 C608 1.389 . S
C607 H586 0.950 . S
C607 C606 1.373 . S
C607 C623 1.377 . S
C608 C606 1.389 . S
C608 C609 1.524 . S
C608 C622 1.377 . S
C609 C608 1.524 . S
C609 C610 1.397 . S
C609 C614 1.363 . S
C610 H587 0.950 . S
C610 C609 1.397 . S
C610 C611 1.334 . S
C611 H588 0.950 . S
C611 C610 1.334 . S
C611 C612 1.287 . S
C612 C611 1.287 . S
C612 C613 1.524 . S
C612 H631 0.913 . S
C613 H589 0.950 . S
C613 C612 1.524 . S
C613 C614 1.415 . S
C614 H590 0.950 . S
C614 C609 1.363 . S
C614 C613 1.415 . S
C615 H591 0.951 . S
C615 C616 1.366 . S
C615 C617 1.388 . S
C616 C615 1.366 . S
C616 C620 1.385 . S
C617 H592 0.951 . S
C617 C615 1.388 . S
C617 C618 1.366 . S
C618 C617 1.366 . S
C618 C619 1.414 . S
C618 C621 1.499 . S
C619 H593 0.950 . S
C619 C618 1.414 . S
C619 C620 1.374 . S
C620 H594 0.950 . S
C620 C616 1.385 . S
C620 C619 1.374 . S
C621 C618 1.499 . S
C621 C622 1.373 . S
C621 C623 1.389 . S
C622 H595 0.950 . S
C622 C608 1.377 . S
C622 C621 1.373 . S
C623 C607 1.377 . S
C623 C621 1.389 . S
C623 C624 1.524 . S
C624 C623 1.524 . S
C624 C625 1.397 . S
C624 C629 1.363 . S
C625 H596 0.950 . S
C625 C624 1.397 . S
C625 C626 1.334 . S
C626 H597 0.950 . S
C626 C625 1.334 . S
C626 C627 1.287 . S
C627 C626 1.287 . S
C627 C628 1.524 . S
C627 H630 0.999 . S
C628 H598 0.950 . S
C628 C627 1.524 . S
C628 C629 1.415 . S
C629 H599 0.950 . S
C629 C624 1.363 . S
C629 C628 1.415 . S
H630 C627 0.999 . S
H631 C612 0.913 . S
H632 C650 0.951 . S
H633 C652 0.951 . S
H634 C654 0.950 . S
H635 C655 0.950 . S
H636 C657 0.950 . S
H637 C660 0.950 . S
H638 C661 0.950 . S
H639 C663 0.950 . S
H640 C664 0.950 . S
H641 C665 0.951 . S
H642 C667 0.951 . S
H643 C669 0.950 . S
H644 C670 0.950 . S
H645 C672 0.950 . S
H646 C675 0.950 . S
H647 C676 0.950 . S
H648 C678 0.950 . S
H649 C679 0.950 . S
C650 H632 0.951 . S
C650 C651 1.366 . S
C650 C652 1.388 . S
C651 C650 1.366 . S
C651 C655 1.385 . S
C652 H633 0.951 . S
C652 C650 1.388 . S
C652 C653 1.366 . S
C653 C652 1.366 . S
C653 C654 1.414 . S
C653 C656 1.499 . S
C654 H634 0.950 . S
C654 C653 1.414 . S
C654 C655 1.374 . S
C655 H635 0.950 . S
C655 C651 1.385 . S
C655 C654 1.374 . S
C656 C653 1.499 . S
C656 C657 1.373 . S
C656 C658 1.389 . S
C657 H636 0.950 . S
C657 C656 1.373 . S
C657 C673 1.377 . S
C658 C656 1.389 . S
C658 C659 1.524 . S
C658 C672 1.377 . S
C659 C658 1.524 . S
C659 C660 1.397 . S
C659 C664 1.363 . S
C660 H637 0.950 . S
C660 C659 1.397 . S
C660 C661 1.334 . S
C661 H638 0.950 . S
C661 C660 1.334 . S
C661 C662 1.287 . S
C662 C661 1.287 . S
C662 C663 1.524 . S
C662 H681 0.913 . S
C663 H639 0.950 . S
C663 C662 1.524 . S
C663 C664 1.415 . S
C664 H640 0.950 . S
C664 C659 1.363 . S
C664 C663 1.415 . S
C665 H641 0.951 . S
C665 C666 1.366 . S
C665 C667 1.388 . S
C666 C665 1.366 . S
C666 C670 1.385 . S
C667 H642 0.951 . S
C667 C665 1.388 . S
C667 C668 1.366 . S
C668 C667 1.366 . S
C668 C669 1.414 . S
C668 C671 1.499 . S
C669 H643 0.950 . S
C669 C668 1.414 . S
C669 C670 1.374 . S
C670 H644 0.950 . S
C670 C666 1.385 . S
C670 C669 1.374 . S
C671 C668 1.499 . S
C671 C672 1.373 . S
C671 C673 1.389 . S
C672 H645 0.950 . S
C672 C658 1.377 . S
C672 C671 1.373 . S
C673 C657 1.377 . S
C673 C671 1.389 . S
C673 C674 1.524 . S
C674 C673 1.524 . S
C674 C675 1.397 . S
C674 C679 1.363 . S
C675 H646 0.950 . S
C675 C674 1.397 . S
C675 C676 1.334 . S
C676 H647 0.950 . S
C676 C675 1.334 . S
C676 C677 1.287 . S
C677 C676 1.287 . S
C677 C678 1.524 . S
C677 H680 0.999 . S
C678 H648 0.950 . S
C678 C677 1.524 . S
C678 C679 1.415 . S
C679 H649 0.950 . S
C679 C674 1.363 . S
C679 C678 1.415 . S
H680 C677 0.999 . S
H681 C662 0.913 . S
H682 C700 0.951 . S
H683 C702 0.951 . S
H684 C704 0.950 . S
H685 C705 0.950 . S
H686 C707 0.950 . S
H687 C710 0.950 . S
H688 C711 0.950 . S
H689 C713 0.950 . S
H690 C714 0.950 . S
H691 C715 0.951 . S
H692 C717 0.951 . S
H693 C719 0.950 . S
H694 C720 0.950 . S
H695 C722 0.950 . S
H696 C725 0.950 . S
H697 C726 0.950 . S
H698 C728 0.950 . S
H699 C729 0.950 . S
C700 H682 0.951 . S
C700 C701 1.366 . S
C700 C702 1.388 . S
C701 C700 1.366 . S
C701 C705 1.385 . S
C702 H683 0.951 . S
C702 C700 1.388 . S
C702 C703 1.366 . S
C703 C702 1.366 . S
C703 C704 1.414 . S
C703 C706 1.499 . S
C704 H684 0.950 . S
C704 C703 1.414 . S
C704 C705 1.374 . S
C705 H685 0.950 . S
C705 C701 1.385 . S
C705 C704 1.374 . S
C706 C703 1.499 . S
C706 C707 1.373 . S
C706 C708 1.389 . S
C707 H686 0.950 . S
C707 C706 1.373 . S
C707 C723 1.377 . S
C708 C706 1.389 . S
C708 C709 1.524 . S
C708 C722 1.377 . S
C709 C708 1.524 . S
C709 C710 1.397 . S
C709 C714 1.363 . S
C710 H687 0.950 . S
C710 C709 1.397 . S
C710 C711 1.334 . S
C711 H688 0.950 . S
C711 C710 1.334 . S
C711 C712 1.287 . S
C712 C711 1.287 . S
C712 C713 1.524 . S
C712 H731 0.913 . S
C713 H689 0.950 . S
C713 C712 1.524 . S
C713 C714 1.415 . S
C714 H690 0.950 . S
C714 C709 1.363 . S
C714 C713 1.415 . S
C715 H691 0.951 . S
C715 C716 1.366 . S
C715 C717 1.388 . S
C716 C715 1.366 . S
C716 C720 1.385 . S
C717 H692 0.951 . S
C717 C715 1.388 . S
C717 C718 1.366 . S
C718 C717 1.366 . S
C718 C719 1.414 . S
C718 C721 1.499 . S
C719 H693 0.950 . S
C719 C718 1.414 . S
C719 C720 1.374 . S
C720 H694 0.950 . S
C720 C716 1.385 . S
C720 C719 1.374 . S
C721 C718 1.499 . S
C721 C722 1.373 . S
C721 C723 1.389 . S
C722 H695 0.950 . S
C722 C708 1.377 . S
C722 C721 1.373 . S
C723 C707 1.377 . S
C723 C721 1.389 . S
C723 C724 1.524 . S
C724 C723 1.524 . S
C724 C725 1.397 . S
C724 C729 1.363 . S
C725 H696 0.950 . S
C725 C724 1.397 . S
C725 C726 1.334 . S
C726 H697 0.950 . S
C726 C725 1.334 . S
C726 C727 1.287 . S
C727 C726 1.287 . S
C727 C728 1.524 . S
C727 H730 0.999 . S
C728 H698 0.950 . S
C728 C727 1.524 . S
C728 C729 1.415 . S
C729 H699 0.950 . S
C729 C724 1.363 . S
C729 C728 1.415 . S
H730 C727 0.999 . S
H731 C712 0.913 . S
H732 C750 0.951 . S
H733 C752 0.951 . S
H734 C754 0.950 . S
H735 C755 0.950 . S
H736 C757 0.950 . S
H737 C760 0.950 . S
H738 C761 0.950 . S
H739 C763 0.950 . S
H740 C764 0.950 . S
H741 C765 0.951 . S
H742 C767 0.951 . S
H743 C769 0.950 . S
H744 C770 0.950 . S
H745 C772 0.950 1_556 S
H746 C775 0.950 . S
H747 C776 0.950 . S
H748 C778 0.950 . S
H749 C779 0.950 . S
C750 H732 0.951 . S
C750 C751 1.366 . S
C750 C752 1.388 . S
C751 C750 1.366 . S
C751 C755 1.385 . S
C752 H733 0.951 . S
C752 C750 1.388 . S
C752 C753 1.366 . S
C753 C752 1.366 . S
C753 C754 1.414 . S
C753 C756 1.499 . S
C754 H734 0.950 . S
C754 C753 1.414 . S
C754 C755 1.374 . S
C755 H735 0.950 . S
C755 C751 1.385 . S
C755 C754 1.374 . S
C756 C753 1.499 . S
C756 C757 1.373 . S
C756 C758 1.389 . S
C757 H736 0.950 . S
C757 C756 1.373 . S
C757 C773 1.377 1_554 S
C758 C756 1.389 . S
C758 C759 1.524 . S
C758 C772 1.377 . S
C759 C758 1.524 . S
C759 C760 1.397 . S
C759 C764 1.363 . S
C760 H737 0.950 . S
C760 C759 1.397 . S
C760 C761 1.334 . S
C761 H738 0.950 . S
C761 C760 1.334 . S
C761 C762 1.287 . S
C762 C761 1.287 . S
C762 C763 1.524 . S
C762 H781 0.913 . S
C763 H739 0.950 . S
C763 C762 1.524 . S
C763 C764 1.415 . S
C764 H740 0.950 . S
C764 C759 1.363 . S
C764 C763 1.415 . S
C765 H741 0.951 . S
C765 C766 1.366 . S
C765 C767 1.388 . S
C766 C765 1.366 . S
C766 C770 1.385 . S
C767 H742 0.951 . S
C767 C765 1.388 . S
C767 C768 1.366 . S
C768 C767 1.366 . S
C768 C769 1.414 . S
C768 C771 1.499 . S
C769 H743 0.950 . S
C769 C768 1.414 . S
C769 C770 1.374 . S
C770 H744 0.950 . S
C770 C766 1.385 . S
C770 C769 1.374 . S
C771 C768 1.499 . S
C771 C772 1.373 1_556 S
C771 C773 1.389 . S
C772 H745 0.950 1_554 S
C772 C758 1.377 . S
C772 C771 1.373 1_554 S
C773 C757 1.377 1_556 S
C773 C771 1.389 . S
C773 C774 1.524 . S
C774 C773 1.524 . S
C774 C775 1.397 . S
C774 C779 1.363 . S
C775 H746 0.950 . S
C775 C774 1.397 . S
C775 C776 1.334 . S
C776 H747 0.950 . S
C776 C775 1.334 . S
C776 C777 1.287 . S
C777 C776 1.287 . S
C777 C778 1.524 . S
C777 H780 0.999 . S
C778 H748 0.950 . S
C778 C777 1.524 . S
C778 C779 1.415 . S
C779 H749 0.950 . S
C779 C774 1.363 . S
C779 C778 1.415 . S
H780 C777 0.999 . S
H781 C762 0.913 . S
H782 C800 0.951 . S
H783 C802 0.951 . S
H784 C804 0.950 . S
H785 C805 0.950 . S
H786 C807 0.950 . S
H787 C810 0.950 . S
H788 C811 0.950 . S
H789 C813 0.950 . S
H790 C814 0.950 . S
H791 C815 0.951 . S
H792 C817 0.951 . S
H793 C819 0.950 . S
H794 C820 0.950 . S
H795 C822 0.950 . S
H796 C825 0.950 . S
H797 C826 0.950 . S
H798 C828 0.950 . S
H799 C829 0.950 . S
C800 H782 0.951 . S
C800 C801 1.366 . S
C800 C802 1.388 . S
C801 C800 1.366 . S
C801 C805 1.385 . S
C802 H783 0.951 . S
C802 C800 1.388 . S
C802 C803 1.366 . S
C803 C802 1.366 . S
C803 C804 1.414 . S
C803 C806 1.499 . S
C804 H784 0.950 . S
C804 C803 1.414 . S
C804 C805 1.374 . S
C805 H785 0.950 . S
C805 C801 1.385 . S
C805 C804 1.374 . S
C806 C803 1.499 . S
C806 C807 1.373 . S
C806 C808 1.389 . S
C807 H786 0.950 . S
C807 C806 1.373 . S
C807 C823 1.377 . S
C808 C806 1.389 . S
C808 C809 1.524 . S
C808 C822 1.377 . S
C809 C808 1.524 . S
C809 C810 1.397 . S
C809 C814 1.363 1_545 S
C810 H787 0.950 . S
C810 C809 1.397 . S
C810 C811 1.334 1_545 S
C811 H788 0.950 . S
C811 C810 1.334 1_565 S
C811 C812 1.287 . S
C812 C811 1.287 . S
C812 C813 1.524 . S
C812 H831 0.913 . S
C813 H789 0.950 . S
C813 C812 1.524 . S
C813 C814 1.415 . S
C814 H790 0.950 . S
C814 C809 1.363 1_565 S
C814 C813 1.415 . S
C815 H791 0.951 . S
C815 C816 1.366 . S
C815 C817 1.388 . S
C816 C815 1.366 . S
C816 C820 1.385 . S
C817 H792 0.951 . S
C817 C815 1.388 . S
C817 C818 1.366 . S
C818 C817 1.366 . S
C818 C819 1.414 . S
C818 C821 1.499 . S
C819 H793 0.950 . S
C819 C818 1.414 . S
C819 C820 1.374 . S
C820 H794 0.950 . S
C820 C816 1.385 . S
C820 C819 1.374 . S
C821 C818 1.499 . S
C821 C822 1.373 . S
C821 C823 1.389 . S
C822 H795 0.950 . S
C822 C808 1.377 . S
C822 C821 1.373 . S
C823 C807 1.377 . S
C823 C821 1.389 . S
C823 C824 1.524 . S
C824 C823 1.524 . S
C824 C825 1.397 . S
C824 C829 1.363 . S
C825 H796 0.950 . S
C825 C824 1.397 . S
C825 C826 1.334 . S
C826 H797 0.950 . S
C826 C825 1.334 . S
C826 C827 1.287 . S
C827 C826 1.287 . S
C827 C828 1.524 . S
C827 H830 0.999 . S
C828 H798 0.950 . S
C828 C827 1.524 . S
C828 C829 1.415 . S
C829 H799 0.950 . S
C829 C824 1.363 . S
C829 C828 1.415 . S
H830 C827 0.999 . S
H831 C812 0.913 . S
H832 C850 0.951 . S
H833 C852 0.951 . S
H834 C854 0.950 . S
H835 C855 0.950 . S
H836 C857 0.950 . S
H837 C860 0.950 . S
H838 C861 0.950 . S
H839 C863 0.950 . S
H840 C864 0.950 . S
H841 C865 0.951 . S
H842 C867 0.951 . S
H843 C869 0.950 . S
H844 C870 0.950 . S
H845 C872 0.950 . S
H846 C875 0.950 . S
H847 C876 0.950 . S
H848 C878 0.950 . S
H849 C879 0.950 . S
C850 H832 0.951 . S
C850 C851 1.366 . S
C850 C852 1.388 . S
C851 C850 1.366 . S
C851 C855 1.385 . S
C852 H833 0.951 . S
C852 C850 1.388 . S
C852 C853 1.366 . S
C853 C852 1.366 . S
C853 C854 1.414 . S
C853 C856 1.499 . S
C854 H834 0.950 . S
C854 C853 1.414 . S
C854 C855 1.374 . S
C855 H835 0.950 . S
C855 C851 1.385 . S
C855 C854 1.374 . S
C856 C853 1.499 . S
C856 C857 1.373 . S
C856 C858 1.389 . S
C857 H836 0.950 . S
C857 C856 1.373 . S
C857 C873 1.377 . S
C858 C856 1.389 . S
C858 C859 1.524 . S
C858 C872 1.377 . S
C859 C858 1.524 . S
C859 C860 1.397 . S
C859 C864 1.363 . S
C860 H837 0.950 . S
C860 C859 1.397 . S
C860 C861 1.334 . S
C861 H838 0.950 . S
C861 C860 1.334 . S
C861 C862 1.287 . S
C862 C861 1.287 . S
C862 C863 1.524 . S
C862 H881 0.913 . S
C863 H839 0.950 . S
C863 C862 1.524 . S
C863 C864 1.415 . S
C864 H840 0.950 . S
C864 C859 1.363 . S
C864 C863 1.415 . S
C865 H841 0.951 . S
C865 C866 1.366 . S
C865 C867 1.388 . S
C866 C865 1.366 . S
C866 C870 1.385 . S
C867 H842 0.951 . S
C867 C865 1.388 . S
C867 C868 1.366 . S
C868 C867 1.366 . S
C868 C869 1.414 . S
C868 C871 1.499 . S
C869 H843 0.950 . S
C869 C868 1.414 . S
C869 C870 1.374 . S
C870 H844 0.950 . S
C870 C866 1.385 . S
C870 C869 1.374 . S
C871 C868 1.499 . S
C871 C872 1.373 . S
C871 C873 1.389 . S
C872 H845 0.950 . S
C872 C858 1.377 . S
C872 C871 1.373 . S
C873 C857 1.377 . S
C873 C871 1.389 . S
C873 C874 1.524 . S
C874 C873 1.524 . S
C874 C875 1.397 . S
C874 C879 1.363 . S
C875 H846 0.950 . S
C875 C874 1.397 . S
C875 C876 1.334 . S
C876 H847 0.950 . S
C876 C875 1.334 . S
C876 C877 1.287 . S
C877 C876 1.287 . S
C877 C878 1.524 . S
C877 H880 0.999 . S
C878 H848 0.950 . S
C878 C877 1.524 . S
C878 C879 1.415 . S
C879 H849 0.950 . S
C879 C874 1.363 . S
C879 C878 1.415 . S
H880 C877 0.999 . S
H881 C862 0.913 . S
H882 C900 0.951 . S
H883 C902 0.951 . S
H884 C904 0.950 1_565 S
H885 C905 0.950 1_565 S
H886 C907 0.950 1_565 S
H887 C910 0.950 . S
H888 C911 0.950 . S
H889 C913 0.950 . S
H890 C914 0.950 . S
H891 C915 0.974 . S
H892 C917 0.951 1_565 S
H893 C919 0.950 . S
H894 C920 0.950 . S
H895 C922 0.950 . S
H896 C925 0.950 1_545 S
H897 C926 0.950 . S
H898 C928 0.950 . S
H899 C929 0.950 . S
C900 H882 0.951 . S
C900 C901 1.366 . S
C900 C902 1.388 . S
C901 C900 1.366 . S
C901 C905 1.385 . S
C902 H883 0.951 . S
C902 C900 1.388 . S
C902 C903 1.366 . S
C903 C902 1.366 . S
C903 C904 1.414 . S
C903 C906 1.499 . S
C904 H884 0.950 1_545 S
C904 C903 1.414 . S
C904 C905 1.374 . S
C905 H885 0.950 1_545 S
C905 C901 1.385 . S
C905 C904 1.374 . S
C906 C903 1.499 . S
C906 C907 1.373 . S
C906 C908 1.389 . S
C907 H886 0.950 1_545 S
C907 C906 1.373 . S
C907 C923 1.377 . S
C908 C906 1.389 . S
C908 C909 1.524 . S
C908 C922 1.377 . S
C909 C908 1.524 . S
C909 C910 1.397 . S
C909 C914 1.363 . S
C910 H887 0.950 . S
C910 C909 1.397 . S
C910 C911 1.334 . S
C911 H888 0.950 . S
C911 C910 1.334 . S
C911 C912 1.287 . S
C912 C911 1.287 . S
C912 C913 1.524 . S
C912 H931 0.913 . S
C913 H889 0.950 . S
C913 C912 1.524 . S
C913 C914 1.415 . S
C914 H890 0.950 . S
C914 C909 1.363 . S
C914 C913 1.415 . S
C915 H891 0.974 . S
C915 C916 1.351 1_565 S
C915 C917 1.381 1_565 S
C916 C915 1.351 1_545 S
C916 C920 1.385 . S
C917 H892 0.951 1_545 S
C917 C915 1.381 1_545 S
C917 C918 1.366 . S
C918 C917 1.366 . S
C918 C919 1.414 . S
C918 C921 1.499 . S
C919 H893 0.950 . S
C919 C918 1.414 . S
C919 C920 1.374 . S
C920 H894 0.950 . S
C920 C916 1.385 . S
C920 C919 1.374 . S
C921 C918 1.499 . S
C921 C922 1.373 . S
C921 C923 1.389 . S
C922 H895 0.950 . S
C922 C908 1.377 . S
C922 C921 1.373 . S
C923 C907 1.377 . S
C923 C921 1.389 . S
C923 C924 1.524 1_545 S
C924 C923 1.524 1_565 S
C924 C925 1.397 . S
C924 C929 1.363 . S
C925 H896 0.950 1_565 S
C925 C924 1.397 . S
C925 C926 1.334 . S
C926 H897 0.950 . S
C926 C925 1.334 . S
C926 C927 1.287 . S
C927 C926 1.287 . S
C927 C928 1.524 . S
C927 H930 0.999 . S
C928 H898 0.950 . S
C928 C927 1.524 . S
C928 C929 1.415 . S
C929 H899 0.950 . S
C929 C924 1.363 . S
C929 C928 1.415 . S
H930 C927 0.999 . S
H931 C912 0.913 . S
H932 C950 0.951 . S
H933 C952 0.951 . S
H934 C954 0.950 . S
H935 C955 0.950 . S
H936 C957 0.950 . S
H937 C960 0.950 . S
H938 C961 0.950 . S
H939 C963 0.950 . S
H940 C964 0.950 . S
H941 C965 0.951 . S
H942 C967 0.951 . S
H943 C969 0.950 . S
H944 C970 0.950 . S
H945 C972 0.950 1_554 S
H946 C975 0.950 . S
H947 C976 0.950 . S
H948 C978 0.950 . S
H949 C979 0.950 . S
C950 H932 0.951 . S
C950 C951 1.366 . S
C950 C952 1.388 . S
C951 C950 1.366 . S
C951 C955 1.385 . S
C952 H933 0.951 . S
C952 C950 1.388 . S
C952 C953 1.366 . S
C953 C952 1.366 . S
C953 C954 1.414 . S
C953 C956 1.499 . S
C954 H934 0.950 . S
C954 C953 1.414 . S
C954 C955 1.374 . S
C955 H935 0.950 . S
C955 C951 1.385 . S
C955 C954 1.374 . S
C956 C953 1.499 . S
C956 C957 1.373 . S
C956 C958 1.389 . S
C957 H936 0.950 . S
C957 C956 1.373 . S
C957 C973 1.377 . S
C958 C956 1.389 . S
C958 C959 1.524 . S
C958 C972 1.377 . S
C959 C958 1.524 . S
C959 C960 1.397 . S
C959 C964 1.363 . S
C960 H937 0.950 . S
C960 C959 1.397 . S
C960 C961 1.334 . S
C961 H938 0.950 . S
C961 C960 1.334 . S
C961 C962 1.287 . S
C962 C961 1.287 . S
C962 C963 1.524 . S
C962 H981 0.913 . S
C963 H939 0.950 . S
C963 C962 1.524 . S
C963 C964 1.415 . S
C964 H940 0.950 . S
C964 C959 1.363 . S
C964 C963 1.415 . S
C965 H941 0.951 . S
C965 C966 1.366 . S
C965 C967 1.388 . S
C966 C965 1.366 . S
C966 C970 1.385 . S
C967 H942 0.951 . S
C967 C965 1.388 . S
C967 C968 1.366 . S
C968 C967 1.366 . S
C968 C969 1.414 . S
C968 C971 1.499 . S
C969 H943 0.950 . S
C969 C968 1.414 . S
C969 C970 1.374 . S
C970 H944 0.950 . S
C970 C966 1.385 . S
C970 C969 1.374 . S
C971 C968 1.499 . S
C971 C972 1.373 1_554 S
C971 C973 1.389 1_554 S
C972 H945 0.950 1_556 S
C972 C958 1.377 . S
C972 C971 1.373 1_556 S
C973 C957 1.377 . S
C973 C971 1.389 1_556 S
C973 C974 1.506 1_556 S
C974 C973 1.506 1_554 S
C974 C975 1.421 . S
C974 C979 1.355 1_554 S
C975 H946 0.950 . S
C975 C974 1.421 . S
C975 C976 1.334 . S
C976 H947 0.950 . S
C976 C975 1.334 . S
C976 C977 1.287 . S
C977 C976 1.287 . S
C977 C978 1.524 . S
C977 H980 0.999 . S
C978 H948 0.950 . S
C978 C977 1.524 . S
C978 C979 1.415 1_554 S
C979 H949 0.950 . S
C979 C974 1.355 1_556 S
C979 C978 1.415 1_556 S
H980 C977 0.999 . S
H981 C962 0.913 . S
H982 C1000 0.951 . S
H983 C1002 0.951 . S
H984 C1004 0.950 1_655 S
H985 C1005 0.950 . S
H986 C1007 0.950 . S
H987 C1010 0.950 . S
H988 C1011 0.950 . S
H989 C1013 0.950 . S
H990 C1014 0.950 . S
H991 C1015 0.951 . S
H992 C1017 0.951 . S
H993 C1019 0.950 . S
H994 C1020 0.950 . S
H995 C1022 0.950 . S
H996 C1025 0.950 . S
H997 C1026 0.950 . S
H998 C1028 0.950 . S
H999 C1029 0.950 . S
C1000 H982 0.951 . S
C1000 C1001 1.366 . S
C1000 C1002 1.388 . S
C1001 C1000 1.366 . S
C1001 C1005 1.385 . S
C1002 H983 0.951 . S
C1002 C1000 1.388 . S
C1002 C1003 1.366 . S
C1003 C1002 1.366 . S
C1003 C1004 1.414 . S
C1003 C1006 1.499 . S
C1004 H984 0.950 1_455 S
C1004 C1003 1.414 . S
C1004 C1005 1.374 . S
C1005 H985 0.950 . S
C1005 C1001 1.385 . S
C1005 C1004 1.374 . S
C1006 C1003 1.499 . S
C1006 C1007 1.373 . S
C1006 C1008 1.389 . S
C1007 H986 0.950 . S
C1007 C1006 1.373 . S
C1007 C1023 1.377 . S
C1008 C1006 1.389 . S
C1008 C1009 1.524 . S
C1008 C1022 1.377 . S
C1009 C1008 1.524 . S
C1009 C1010 1.397 . S
C1009 C1014 1.363 . S
C1010 H987 0.950 . S
C1010 C1009 1.397 . S
C1010 C1011 1.334 . S
C1011 H988 0.950 . S
C1011 C1010 1.334 . S
C1011 C1012 1.287 . S
C1012 C1011 1.287 . S
C1012 C1013 1.524 . S
C1012 H1031 0.913 . S
C1013 H989 0.950 . S
C1013 C1012 1.524 . S
C1013 C1014 1.415 . S
C1014 H990 0.950 . S
C1014 C1009 1.363 . S
C1014 C1013 1.415 . S
C1015 H991 0.951 . S
C1015 C1016 1.366 1_655 S
C1015 C1017 1.388 . S
C1016 C1015 1.366 1_455 S
C1016 C1020 1.385 . S
C1017 H992 0.951 . S
C1017 C1015 1.388 . S
C1017 C1018 1.366 1_655 S
C1018 C1017 1.366 1_455 S
C1018 C1019 1.414 . S
C1018 C1021 1.499 . S
C1019 H993 0.950 . S
C1019 C1018 1.414 . S
C1019 C1020 1.374 . S
C1020 H994 0.950 . S
C1020 C1016 1.385 . S
C1020 C1019 1.374 . S
C1021 C1018 1.499 . S
C1021 C1022 1.373 . S
C1021 C1023 1.389 . S
C1022 H995 0.950 . S
C1022 C1008 1.377 . S
C1022 C1021 1.373 . S
C1023 C1007 1.377 . S
C1023 C1021 1.389 . S
C1023 C1024 1.524 . S
C1024 C1023 1.524 . S
C1024 C1025 1.397 . S
C1024 C1029 1.363 1_455 S
C1025 H996 0.950 . S
C1025 C1024 1.397 . S
C1025 C1026 1.334 . S
C1026 H997 0.950 . S
C1026 C1025 1.334 . S
C1026 C1027 1.287 1_455 S
C1027 C1026 1.287 1_655 S
C1027 C1028 1.524 . S
C1027 H1030 0.999 . S
C1028 H998 0.950 . S
C1028 C1027 1.524 . S
C1028 C1029 1.415 . S
C1029 H999 0.950 . S
C1029 C1024 1.363 1_655 S
C1029 C1028 1.415 . S
H1030 C1027 0.999 . S
H1031 C1012 0.913 . S
C151 C8 2.287 . S
C166 C126 2.365 . S
C201 C26 1.367 . S
C216 C100 1.359 . S
C251 C48 1.548 . S
C266 C112 1.570 . S
C301 C19 1.468 1_655 S
C316 C124 1.456 . S
C366 C102 1.335 . S
C351 C36 1.330 . S
C416 C114 1.523 . S
C401 C59 1.475 . S
C451 C28 1.558 . S
C466 C76 1.584 . S
C501 C46 1.471 . S
C516 C90 1.497 . S
C551 C16 1.358 . S
C566 C66 1.358 1_565 S
C616 C78 1.519 . S
C601 C39 1.478 . S
C666 C88 0.690 . S
C651 C56 0.686 . S
C701 C6 1.388 . S
C716 C64 1.369 . S
C766 C93 1.478 . S
C751 C9 1.447 . S
C801 C21 1.532 . S
C816 C69 1.544 . S
C851 C49 1.483 . S
C866 C81 1.479 . S
C916 C117 1.505 . S
C901 C29 1.509 . S
C966 C129 1.616 . S
C951 C41 1.591 . S
C1001 C1 1.503 . S
C1016 C105 1.507 . S
