# Generated by pormake.
# Topology zzz, (3,6)-cn, num edge types: 1
# Building blocks:
#     Node 0, Type 0, BuildingBlock: BETDAH_clean_linker_0, # of connection points: 3
#     Node 1, Type 0, BuildingBlock: BETDAH_clean_linker_0, # of connection points: 3
#     Node 2, Type 0, BuildingBlock: BETDAH_clean_linker_0, # of connection points: 3
#     Node 3, Type 0, BuildingBlock: BETDAH_clean_linker_0, # of connection points: 3
#     Node 4, Type 0, BuildingBlock: BETDAH_clean_linker_0, # of connection points: 3
#     Node 5, Type 0, BuildingBlock: BETDAH_clean_linker_0, # of connection points: 3
#     Node 6, Type 0, BuildingBlock: BETDAH_clean_linker_0, # of connection points: 3
#     Node 7, Type 0, BuildingBlock: BETDAH_clean_linker_0, # of connection points: 3
#     Node 8, Type 1, BuildingBlock: NUHQIS_clean_sbu_0, # of connection points: 6
#     Node 9, Type 1, BuildingBlock: NUHQIS_clean_sbu_0, # of connection points: 6
#     Node 10, Type 1, BuildingBlock: NUHQIS_clean_sbu_0, # of connection points: 6
#     Node 11, Type 1, BuildingBlock: NUHQIS_clean_sbu_0, # of connection points: 6
#     Edge 12, Type (0, 1), BuildingBlock: KIFKEQ_clean_linker_1, # of connection points: 2
#     Edge 13, Type (0, 1), BuildingBlock: KIFKEQ_clean_linker_1, # of connection points: 2
#     Edge 14, Type (0, 1), BuildingBlock: KIFKEQ_clean_linker_1, # of connection points: 2
#     Edge 15, Type (0, 1), BuildingBlock: KIFKEQ_clean_linker_1, # of connection points: 2
#     Edge 16, Type (0, 1), BuildingBlock: KIFKEQ_clean_linker_1, # of connection points: 2
#     Edge 17, Type (0, 1), BuildingBlock: KIFKEQ_clean_linker_1, # of connection points: 2
#     Edge 18, Type (0, 1), BuildingBlock: KIFKEQ_clean_linker_1, # of connection points: 2
#     Edge 19, Type (0, 1), BuildingBlock: KIFKEQ_clean_linker_1, # of connection points: 2
#     Edge 20, Type (0, 1), BuildingBlock: KIFKEQ_clean_linker_1, # of connection points: 2
#     Edge 21, Type (0, 1), BuildingBlock: KIFKEQ_clean_linker_1, # of connection points: 2
#     Edge 22, Type (0, 1), BuildingBlock: KIFKEQ_clean_linker_1, # of connection points: 2
#     Edge 23, Type (0, 1), BuildingBlock: KIFKEQ_clean_linker_1, # of connection points: 2
#     Edge 24, Type (0, 1), BuildingBlock: KIFKEQ_clean_linker_1, # of connection points: 2
#     Edge 25, Type (0, 1), BuildingBlock: KIFKEQ_clean_linker_1, # of connection points: 2
#     Edge 26, Type (0, 1), BuildingBlock: KIFKEQ_clean_linker_1, # of connection points: 2
#     Edge 27, Type (0, 1), BuildingBlock: KIFKEQ_clean_linker_1, # of connection points: 2
#     Edge 28, Type (0, 1), BuildingBlock: KIFKEQ_clean_linker_1, # of connection points: 2
#     Edge 29, Type (0, 1), BuildingBlock: KIFKEQ_clean_linker_1, # of connection points: 2
#     Edge 30, Type (0, 1), BuildingBlock: KIFKEQ_clean_linker_1, # of connection points: 2
#     Edge 31, Type (0, 1), BuildingBlock: KIFKEQ_clean_linker_1, # of connection points: 2
#     Edge 32, Type (0, 1), BuildingBlock: KIFKEQ_clean_linker_1, # of connection points: 2
#     Edge 33, Type (0, 1), BuildingBlock: KIFKEQ_clean_linker_1, # of connection points: 2
#     Edge 34, Type (0, 1), BuildingBlock: KIFKEQ_clean_linker_1, # of connection points: 2
#     Edge 35, Type (0, 1), BuildingBlock: KIFKEQ_clean_linker_1, # of connection points: 2
# Relax obj value: 0.251
# Max RMSD: 0.156
# Mean RMSD: 0.138
data_MOF--net-zzz--node1-NUHQIS_clean_sbu_0--node2-BETDAH_clean_linker_0--edge1-KIFKEQ_clean_linker_1
_symmetry_space_group_name_H-M    P1
_symmetry_Int_Tables_number       1
_symmetry_cell_setting            triclinic
loop_
_symmetry_equiv_pos_as_xyz
'x, y, z'
_cell_length_a     53.12666
_cell_length_b     52.927243
_cell_length_c     14.308532
_cell_angle_alpha  89.773214
_cell_angle_beta   89.805812
_cell_angle_gamma 89.905781
loop_
_atom_site_label
_atom_site_type_symbol
_atom_site_fract_x
_atom_site_fract_y
_atom_site_fract_z
_atom_type_partial_charge
H0 H 0.80568 0.47543 0.35532 0.0
H1 H 0.73671 0.49162 0.2117 0.0
H2 H 0.7626 0.54101 0.43065 0.0
C3 C 0.78873 0.48675 0.34853 0.0
C4 C 0.7861 0.50852 0.40288 0.0
C5 C 0.77119 0.4807 0.27914 0.0
C6 C 0.74997 0.49614 0.26646 0.0
C7 C 0.74641 0.51767 0.32274 0.0
C8 C 0.76483 0.524 0.38951 0.0
N9 N 0.72507 0.53374 0.31212 0.0
C10 C 0.70506 0.52925 0.25144 0.0
H11 H 0.04864 0.81487 0.33791 0.0
H12 H 0.03074 0.74207 0.22646 0.0
H13 H 0.99287 0.76885 0.4749 0.0
C14 C 0.03848 0.79716 0.34421 0.0
C15 C 0.02067 0.79415 0.41572 0.0
C16 C 0.04193 0.77858 0.27595 0.0
C17 C 0.02816 0.75609 0.28059 0.0
C18 C 1.01078 0.75211 0.35378 0.0
C19 C 1.00677 0.77147 0.42015 0.0
N20 N 0.99676 0.72922 0.36112 0.0
C21 C 0.99891 0.70894 0.2992 0.0
H22 H 0.71592 0.05919 0.3717 0.0
H23 H 0.7877 0.04138 0.25105 0.0
H24 H 0.7629 1.00305 0.50203 0.0
C25 C 0.73367 0.04906 0.37584 0.0
C26 C 0.73721 0.03106 0.4466 0.0
C27 C 0.75166 0.05261 0.30531 0.0
C28 C 0.77413 0.03876 0.30693 0.0
C29 C 0.77866 0.02122 0.37934 0.0
C30 C 0.75987 1.01711 0.44797 0.0
N31 N 0.8015 1.00707 0.38361 0.0
C32 C 0.8214 1.00942 0.31996 0.0
H33 H 0.54766 0.71816 0.3474 0.0
H34 H 0.53806 0.79536 0.26363 0.0
H35 H 0.51155 0.77019 0.53435 0.0
C36 C 0.54221 0.73737 0.36469 0.0
C37 C 0.52988 0.74182 0.44937 0.0
C38 C 0.54506 0.75655 0.2977 0.0
C39 C 0.5365 0.78097 0.31727 0.0
C40 C 0.52498 0.78635 0.4038 0.0
C41 C 0.52147 0.76653 0.46953 0.0
N42 N 0.5157 0.81107 0.4241 0.0
C43 C 0.51676 0.83148 0.36159 0.0
H44 H 0.21153 0.5581 0.12524 0.0
H45 H 0.28041 0.53864 0.26321 0.0
H46 H 0.25075 0.49028 0.04754 0.0
C47 C 0.22788 0.54587 0.13075 0.0
C48 C 0.22903 0.52394 0.07653 0.0
C49 C 0.24621 0.55121 0.19796 0.0
C50 C 0.2666 0.53468 0.20973 0.0
C51 C 0.26866 0.51284 0.15401 0.0
C52 C 0.24955 0.50737 0.08872 0.0
N53 N 0.28924 0.49575 0.16349 0.0
C54 C 0.30983 0.49951 0.22221 0.0
H55 H 0.99187 0.21509 0.22527 0.0
H56 H 0.99401 0.29406 0.28854 0.0
H57 H 0.02797 0.2664 0.03336 0.0
C58 C 0.9977 0.23406 0.20606 0.0
C59 C 1.01075 0.23804 0.12214 0.0
C60 C 0.99163 0.25414 0.26532 0.0
C61 C 0.99878 0.27876 0.24166 0.0
C62 C 1.01219 0.28339 0.15816 0.0
C63 C 0.01772 0.26295 0.09774 0.0
N64 N 0.02053 0.30819 0.13403 0.0
C65 C 0.01855 0.32916 0.19288 0.0
H66 H 0.30847 0.97942 0.1634 0.0
H67 H 0.23709 0.9972 0.28704 0.0
H68 H 0.26558 0.04207 0.05692 0.0
C69 C 0.29132 0.9906 0.16282 0.0
C70 C 0.28927 1.01094 0.10053 0.0
C71 C 0.27271 0.98565 0.2299 0.0
C72 C 0.25113 1.00085 0.23364 0.0
C73 C 0.24811 0.02099 0.16976 0.0
C74 C 0.26751 0.02622 0.10449 0.0
N75 N 0.2262 0.03659 0.17074 0.0
C76 C 0.20548 0.03302 0.22981 0.0
H77 H 0.55063 0.31069 0.13956 0.0
H78 H 0.53374 0.241 0.27976 0.0
H79 H 0.48394 0.2696 0.06561 0.0
C80 C 0.53883 0.29405 0.14623 0.0
C81 C 0.51688 0.29236 0.09274 0.0
C82 C 0.54495 0.27572 0.21338 0.0
C83 C 0.52912 0.25483 0.22651 0.0
C84 C 0.50724 0.2522 0.17192 0.0
C85 C 0.50101 0.27129 0.10627 0.0
N86 N 0.49095 0.23095 0.18237 0.0
C87 C 0.49521 0.21042 0.2422 0.0
Tb88 Tb 0.02859 1.00907 0.83729 0.0
Eu89 Eu 0.9902 0.02612 0.67188 0.0
C90 C 0.04947 0.01985 0.6361 0.0
C91 C 1.01392 0.06676 0.81279 0.0
C92 C 0.07367 0.96981 0.96307 0.0
C93 C 0.08926 0.93209 0.88546 0.0
C94 C 0.07959 0.95664 0.88079 0.0
C95 C 0.07872 0.95872 0.04977 0.0
C96 C 0.08814 0.93413 0.05459 0.0
C97 C 0.09279 0.92017 0.9725 0.0
C98 C 0.05885 0.9932 0.95918 0.0
O99 O 0.99358 0.01946 0.90866 0.0
O100 O 0.967 1.00985 0.78958 0.0
O101 O 1.0 0.98584 0.63631 0.0
O102 O 1.01344 0.97359 0.78225 0.0
C103 C 0.97089 1.01407 0.87853 0.0
O104 O 0.95217 0.0268 0.6143 0.0
O105 O 0.9822 0.04627 0.54199 0.0
O106 O 0.02966 0.03399 0.61906 0.0
O107 O 0.04969 1.00432 0.70775 0.0
O108 O 0.03182 0.05032 0.83221 0.0
O109 O 0.9938 0.06004 0.766 0.0
C110 C 1.00638 0.9681 0.6964 0.0
O111 O 0.06502 1.00936 0.89402 0.0
O112 O 0.03459 0.98982 0.96363 0.0
C113 C 0.94353 0.06703 0.55104 0.0
C114 C 0.92724 0.11769 0.55383 0.0
C115 C 0.9296 0.10395 0.63764 0.0
C116 C 0.93784 0.07888 0.63628 0.0
C117 C 0.93918 0.07991 0.46714 0.0
C118 C 0.9311 0.10502 0.46839 0.0
C119 C 0.95796 0.04335 0.55015 0.0
H120 H 0.09288 0.9221 0.8209 0.0
H121 H 0.07558 0.96484 0.81294 0.0
H122 H 0.07396 0.96849 0.11387 0.0
H123 H 0.09007 0.92557 0.12302 0.0
H124 H 0.92649 0.11297 0.7045 0.0
H125 H 0.94123 0.06929 0.7021 0.0
H126 H 0.9437 0.07114 0.40084 0.0
H127 H 0.92989 0.11499 0.40235 0.0
Tb128 Tb 0.52138 0.03648 0.86164 0.0
Eu129 Eu 0.50691 0.99631 0.69771 0.0
C130 C 0.51 0.05562 0.65876 0.0
C131 C 0.46408 0.02162 0.83002 0.0
C132 C 0.55913 0.08245 0.9882 0.0
C133 C 0.59727 0.09812 0.91381 0.0
C134 C 0.57285 0.08852 0.90707 0.0
C135 C 0.56958 0.08726 0.07582 0.0
C136 C 0.59404 0.09659 0.0827 0.0
C137 C 0.60854 0.10141 1.00179 0.0
C138 C 0.53586 0.06766 0.98234 0.0
O139 O 0.51088 1.00135 0.93239 0.0
O140 O 0.52435 0.97486 0.8181 0.0
O141 O 0.54742 1.00576 0.66783 0.0
O142 O 0.55777 0.02213 0.81147 0.0
C143 C 0.51827 0.97881 0.90573 0.0
O144 O 0.49798 0.95737 0.66194 0.0
O145 O 0.49834 0.98589 0.55358 0.0
O146 O 0.49638 0.0353 0.6443 0.0
O147 O 0.52573 0.05648 0.72918 0.0
O148 O 0.48022 0.03888 0.85791 0.0
O149 O 0.47117 1.00208 0.78001 0.0
C150 C 0.56424 1.01372 0.72808 0.0
O151 O 0.52054 0.07347 0.91447 0.0
O152 O 0.53913 0.04332 0.98966 0.0
C153 C 0.46611 0.95547 0.55126 0.0
C154 C 0.41622 0.93971 0.52131 0.0
C155 C 0.43653 0.92468 0.49094 0.0
C156 C 0.46137 0.93243 0.50662 0.0
C157 C 0.44589 0.97062 0.58002 0.0
C158 C 0.42121 0.9628 0.56562 0.0
C159 C 0.49177 0.96292 0.57635 0.0
H160 H 0.60767 0.10191 0.85007 0.0
H161 H 0.56517 0.08469 0.83851 0.0
H162 H 0.55938 0.08238 0.13907 0.0
H163 H 0.60208 0.09832 0.15179 0.0
H164 H 0.43317 0.90689 0.45597 0.0
H165 H 0.47681 0.9204 0.4848 0.0
H166 H 0.44925 0.9885 0.61427 0.0
H167 H 0.406 0.9751 0.58758 0.0
Tb168 Tb 0.49386 0.52107 0.81167 0.0
Eu169 Eu 0.52831 0.5037 0.63395 0.0
C170 C 0.46743 0.50847 0.61552 0.0
C171 C 0.50354 0.46324 0.7816 0.0
C172 C 0.48248 0.56525 0.99018 0.0
C173 C 0.48114 0.61104 0.99858 0.0
C174 C 0.46889 0.58798 0.98582 0.0
C175 C 0.50811 0.5659 0.01454 0.0
C176 C 0.5203 0.58889 0.02755 0.0
C177 C 0.50714 0.61171 0.01639 0.0
C178 C 0.47222 0.54262 0.9447 0.0
O179 O 0.53024 0.51131 0.87184 0.0
O180 O 0.55493 0.51833 0.74377 0.0
O181 O 0.5175 0.54414 0.60387 0.0
O182 O 0.51401 0.55427 0.7577 0.0
C183 C 0.5524 0.51552 0.83436 0.0
O184 O 0.56507 0.50392 0.56419 0.0
O185 O 0.53443 0.48238 0.50611 0.0
O186 O 0.48894 0.50199 0.57684 0.0
O187 O 0.46576 0.51646 0.7023 0.0
O188 O 0.48749 0.4804 0.81161 0.0
O189 O 0.52239 0.46914 0.72557 0.0
C190 C 0.51597 0.56124 0.66976 0.0
O191 O 0.46605 0.54635 0.85768 0.0
O192 O 0.48495 0.52168 0.95519 0.0
C193 C 0.5745 0.46409 0.50012 0.0
C194 C 0.59952 0.41746 0.47754 0.0
C195 C 0.60563 0.43837 0.42031 0.0
C196 C 0.59301 0.46144 0.43101 0.0
C197 C 0.56998 0.44411 0.56244 0.0
C198 C 0.58217 0.421 0.55099 0.0
C199 C 0.55856 0.48677 0.50393 0.0
H200 H 0.47043 0.62838 0.99172 0.0
H201 H 0.44924 0.58799 0.96584 0.0
H202 H 0.5193 0.54878 0.01695 0.0
H203 H 0.54034 0.5888 0.04118 0.0
H204 H 0.61931 0.43661 0.36448 0.0
H205 H 0.59702 0.47685 0.38315 0.0
H206 H 0.55597 0.44594 0.61702 0.0
H207 H 0.57657 0.40551 0.59603 0.0
Tb208 Tb 0.99909 0.50192 0.81687 0.0
Eu209 Eu 0.01597 0.54164 0.65149 0.0
C210 C 1.01072 0.48256 0.61394 0.0
C211 C 0.05697 0.51551 0.78874 0.0
C212 C 0.96036 0.45563 0.94387 0.0
C213 C 0.93478 0.42459 0.02513 0.0
C214 C 0.95805 0.43634 0.01049 0.0
C215 C 0.9397 0.46188 0.8877 0.0
C216 C 0.91638 0.45055 0.90329 0.0
C217 C 0.91334 0.43236 0.97455 0.0
C218 C 0.98365 0.47041 0.93679 0.0
O219 O 1.00995 0.53672 0.88801 0.0
O220 O 0.99845 0.56334 0.77053 0.0
O221 O 0.97566 0.53236 0.6194 0.0
O222 O 0.96384 0.51859 0.76574 0.0
C223 C 1.00368 0.55943 0.85887 0.0
O224 O 0.02268 0.58091 0.61236 0.0
O225 O 0.02797 0.55162 0.50973 0.0
O226 O 0.02502 0.50239 0.59865 0.0
O227 O 0.99478 0.48222 0.68429 0.0
O228 O 0.04015 0.49876 0.81609 0.0
O229 O 0.05094 0.53515 0.73689 0.0
C230 C 0.95815 0.52622 0.68047 0.0
O231 O 0.9986 0.46458 0.86781 0.0
O232 O 0.98074 0.49479 0.94409 0.0
C233 C 0.05665 0.5854 0.5103 0.0
C234 C 0.10537 0.60458 0.4784 0.0
C235 C 0.08432 0.61587 0.43536 0.0
C236 C 0.06007 0.60638 0.45158 0.0
C237 C 0.0775 0.57438 0.554 0.0
C238 C 0.10159 0.58384 0.5385 0.0
C239 C 0.03147 0.57536 0.52997 0.0
H240 H 0.93338 0.41021 0.07888 0.0
H241 H 0.97397 0.431 0.05343 0.0
H242 H 0.94133 0.47644 0.83474 0.0
H243 H 0.90047 0.45735 0.86328 0.0
H244 H 0.08664 0.63185 0.3886 0.0
H245 H 0.04409 0.61528 0.41796 0.0
H246 H 0.07509 0.55817 0.59927 0.0
H247 H 0.11734 0.57425 0.57096 0.0
H248 H 0.18568 0.9902 0.30383 0.0
H249 H 0.17502 0.07078 0.28642 0.0
H250 H 0.14746 0.98648 0.39948 0.0
H251 H 0.1371 0.06741 0.38338 0.0
H252 H 0.05689 0.04992 0.48114 0.0
H253 H 0.09427 0.05259 0.38187 0.0
H254 H 0.13093 0.99601 0.55217 0.0
H255 H 0.09347 0.99298 0.65009 0.0
C256 C 0.17516 1.00712 0.32113 0.0
C257 C 0.18318 0.03076 0.28827 0.0
C258 C 0.15333 1.00506 0.37622 0.0
C259 C 0.13903 0.02665 0.39945 0.0
C260 C 0.1473 0.05032 0.36604 0.0
C261 C 0.16913 0.05233 0.3111 0.0
C262 C 0.07287 0.03797 0.49727 0.0
C263 C 0.07205 0.02124 0.57389 0.0
C264 C 0.09444 0.03962 0.44058 0.0
C265 C 0.11579 0.02456 0.45878 0.0
C266 C 0.11482 1.00768 0.53497 0.0
C267 C 0.09331 1.00606 0.59166 0.0
H268 H 0.45785 0.17985 0.30157 0.0
H269 H 0.53807 0.19077 0.31548 0.0
H270 H 0.46146 0.14215 0.40039 0.0
H271 H 0.54203 0.15278 0.41302 0.0
H272 H 0.53625 0.10004 0.6676 0.0
H273 H 0.5328 0.13701 0.56692 0.0
H274 H 0.4763 0.09909 0.40286 0.0
H275 H 0.47943 0.06211 0.50512 0.0
C276 C 0.47628 0.17407 0.32585 0.0
C277 C 0.49767 0.18818 0.30154 0.0
C278 C 0.47842 0.15235 0.38188 0.0
C279 C 0.50206 0.14423 0.41503 0.0
C280 C 0.52347 0.15853 0.3901 0.0
C281 C 0.52128 0.18025 0.33391 0.0
C282 C 0.52309 0.09947 0.61 0.0
C283 C 0.50809 0.07795 0.59487 0.0
C284 C 0.52123 0.12073 0.55165 0.0
C285 C 0.50429 0.12121 0.47624 0.0
C286 C 0.48935 0.09963 0.4608 0.0
C287 C 0.49124 0.0783 0.51921 0.0
H288 H 0.35573 0.5157 0.16811 0.0
H289 H 0.31376 0.48868 0.40636 0.0
H290 H 0.39377 0.51834 0.26381 0.0
H291 H 0.3518 0.49073 0.50249 0.0
H292 H 0.41917 0.5208 0.66809 0.0
H293 H 0.38106 0.51954 0.57399 0.0
H294 H 0.42416 0.49151 0.33977 0.0
H295 H 0.46238 0.49323 0.43316 0.0
C296 C 0.35473 0.51039 0.24125 0.0
C297 C 0.33197 0.50207 0.28031 0.0
C298 C 0.37652 0.51168 0.29599 0.0
C299 C 0.376 0.50464 0.39109 0.0
C300 C 0.35293 0.49659 0.43 0.0
C301 C 0.33116 0.49529 0.37505 0.0
C302 C 0.42058 0.51433 0.59655 0.0
C303 C 0.44399 0.50713 0.55852 0.0
C304 C 0.39863 0.51349 0.54258 0.0
C305 C 0.39942 0.50546 0.44895 0.0
C306 C 0.42281 0.49817 0.41107 0.0
C307 C 0.44477 0.49899 0.46503 0.0
H308 H 0.01841 0.37815 0.13846 0.0
H309 H 0.0159 0.32995 0.38165 0.0
H310 H 0.0165 0.41557 0.23882 0.0
H311 H 1.01434 0.36717 0.48269 0.0
H312 H 0.98499 0.43795 0.62955 0.0
H313 H 0.98669 0.40137 0.52729 0.0
H314 H 0.04101 0.43952 0.35172 0.0
H315 H 0.03905 0.47645 0.45374 0.0
C316 C 0.01748 0.37564 0.21359 0.0
C317 C 0.01719 0.35128 0.2526 0.0
C318 C 0.01655 0.39704 0.2712 0.0
C319 C 1.01526 0.39452 0.36922 0.0
C320 C 1.01497 0.36994 0.4077 0.0
C321 C 0.01597 0.34858 0.34999 0.0
C322 C 0.99731 0.43866 0.56913 0.0
C323 C 1.01189 0.46029 0.55022 0.0
C324 C 0.9984 0.41751 0.51061 0.0
C325 C 1.01405 0.41731 0.43108 0.0
C326 C 0.02853 0.43902 0.4117 0.0
C327 C 0.02752 0.46019 0.4706 0.0
H328 H 0.8294 0.98038 0.1682 0.0
H329 H 0.86132 0.04104 0.32862 0.0
H330 H 0.86581 0.9812 0.06302 0.0
H331 H 0.89766 0.04247 0.22257 0.0
H332 H 0.97088 0.02062 0.06947 0.0
H333 H 0.93487 0.01962 0.17619 0.0
H334 H 0.88534 1.00579 0.94321 0.0
H335 H 0.92123 1.00621 0.83736 0.0
C336 C 0.8442 0.99404 0.18024 0.0
C337 C 0.84263 1.0107 0.2559 0.0
C338 C 0.86504 0.99463 0.11983 0.0
C339 C 0.88482 1.01195 0.13375 0.0
C340 C 0.88305 0.02866 0.21003 0.0
C341 C 0.86216 0.02802 0.27042 0.0
C342 C 0.95231 1.01729 0.04105 0.0
C343 C 0.94909 1.01339 0.9446 0.0
C344 C 0.93158 1.01689 0.10228 0.0
C345 C 0.90705 1.01257 0.06877 0.0
C346 C 0.9039 1.00874 0.97221 0.0
C347 C 0.92457 1.00912 0.91117 0.0
H348 H 0.55091 0.84045 0.22456 0.0
H349 H 0.48414 0.87074 0.35439 0.0
H350 H 0.55198 0.87632 0.11603 0.0
H351 H 0.48472 0.90649 0.24516 0.0
H352 H 0.50664 0.97961 0.0931 0.0
H353 H 0.50681 0.94445 0.20395 0.0
H354 H 0.53069 0.89406 0.98399 0.0
H355 H 0.53101 0.92928 0.87382 0.0
C356 C 0.53639 0.8548 0.22942 0.0
C357 C 0.51741 0.85287 0.29739 0.0
C358 C 0.53688 0.87532 0.16694 0.0
C359 C 0.51839 0.89444 0.1711 0.0
C360 C 0.49947 0.89241 0.24014 0.0
C361 C 0.499 0.87184 0.30246 0.0
C362 C 0.51202 0.96106 0.06834 0.0
C363 C 0.51885 0.95741 0.9742 0.0
C364 C 0.51195 0.94078 0.13197 0.0
C365 C 0.51873 0.91623 0.10344 0.0
C366 C 0.52569 0.91266 0.0093 0.0
C367 C 0.52575 0.93292 0.94571 0.0
H368 H 0.65821 0.54616 0.28594 0.0
H369 H 0.70293 0.50609 0.083 0.0
H370 H 0.62133 0.54273 0.18492 0.0
H371 H 0.66597 0.50201 0.98191 0.0
H372 H 0.60157 0.52369 0.78288 0.0
H373 H 0.63839 0.52658 0.88354 0.0
H374 H 0.59136 0.51313 0.12549 0.0
H375 H 0.5545 0.51082 0.02516 0.0
C376 C 0.66 0.53643 0.21974 0.0
C377 C 0.68323 0.52634 0.19193 0.0
C378 C 0.63887 0.53432 0.16198 0.0
C379 C 0.64054 0.52204 0.07496 0.0
C380 C 0.66398 0.51186 0.04771 0.0
C381 C 0.68512 0.514 0.1057 0.0
C382 C 0.59904 0.52136 0.85756 0.0
C383 C 0.57497 0.51706 0.89566 0.0
C384 C 0.62025 0.52284 0.91538 0.0
C385 C 0.61798 0.52008 0.01296 0.0
C386 C 0.59387 0.51571 0.05093 0.0
C387 C 0.57269 0.51423 0.99315 0.0
H388 H 0.03111 0.6692 0.3065 0.0
H389 H 0.96897 0.70031 0.15104 0.0
H390 H 0.0325 0.63279 0.20115 0.0
H391 H 0.96975 0.66381 0.04674 0.0
H392 H 0.99414 0.60915 0.81901 0.0
H393 H 0.99364 0.64491 0.925 0.0
H394 H 1.0106 0.59504 0.15613 0.0
H395 H 1.01172 0.55917 0.04908 0.0
C396 C 0.01774 0.66816 0.2496 0.0
C397 C 1.00003 0.68751 0.23617 0.0
C398 C 0.01837 0.64722 0.18959 0.0
C399 C 1.00126 0.64521 0.11481 0.0
C400 C 0.98351 0.66477 0.10225 0.0
C401 C 0.98293 0.68566 0.16221 0.0
C402 C 0.99772 0.6057 0.89244 0.0
C403 C 1.00291 0.58114 0.92521 0.0
C404 C 0.99729 0.6263 0.95361 0.0
C405 C 1.00196 0.62304 0.04971 0.0
C406 C 1.0072 0.59844 0.08258 0.0
C407 C 1.00767 0.57778 0.02117 0.0
H408 H 0.94177 0.26102 0.30015 0.0
H409 H 1.01039 0.23244 0.42052 0.0
H410 H 0.91717 0.23635 0.41293 0.0
H411 H 0.9864 0.20734 0.53079 0.0
H412 H 0.90142 0.14854 0.43266 0.0
H413 H 0.91143 0.19228 0.39975 0.0
H414 H 0.95768 0.19502 0.64755 0.0
H415 H 0.94916 0.15068 0.67646 0.0
C416 C 0.95152 0.25039 0.35384 0.0
C417 C 0.97782 0.24833 0.35196 0.0
C418 C 0.9375 0.23605 0.41776 0.0
C419 C 0.9497 0.21923 0.47937 0.0
C420 C 0.97617 0.22001 0.48501 0.0
C421 C 0.99008 0.23437 0.42155 0.0
C422 C 0.91329 0.15862 0.48129 0.0
C423 C 0.92534 0.14575 0.55464 0.0
C424 C 0.91877 0.18396 0.46331 0.0
C425 C 0.93618 0.19701 0.51918 0.0
C426 C 0.94486 0.18528 0.60134 0.0
C427 C 0.93972 0.1598 0.61846 0.0
H428 H 0.28105 0.93517 0.21052 0.0
H429 H 0.28019 0.99527 0.41273 0.0
H430 H 0.31039 0.91132 0.30782 0.0
H431 H 0.31013 0.97229 0.50816 0.0
H432 H 0.39719 0.92327 0.35624 0.0
H433 H 0.35336 0.9232 0.31052 0.0
H434 H 0.33135 0.94051 0.59451 0.0
H435 H 0.37565 0.94115 0.63946 0.0
C436 C 0.28614 0.94262 0.27829 0.0
C437 C 0.27883 0.96716 0.30376 0.0
C438 C 0.30321 0.92917 0.33347 0.0
C439 C 0.3135 0.94034 0.41378 0.0
C440 C 0.30286 0.96306 0.44654 0.0
C441 C 0.28554 0.97633 0.39191 0.0
C442 C 0.38297 0.92614 0.40961 0.0
C443 C 0.38982 0.93281 0.50073 0.0
C444 C 0.35767 0.92597 0.38365 0.0
C445 C 0.33868 0.93234 0.44853 0.0
C446 C 0.34548 0.9361 0.54233 0.0
C447 C 0.37083 0.93648 0.56807 0.0
H448 H 0.59424 0.28243 0.16763 0.0
H449 H 0.54245 0.28346 0.40008 0.0
H450 H 0.62226 0.31096 0.25107 0.0
H451 H 0.56997 0.31233 0.48285 0.0
H452 H 0.60945 0.37675 0.59401 0.0
H453 H 0.6083 0.33233 0.54873 0.0
H454 H 0.60718 0.35465 0.25813 0.0
H455 H 0.60722 0.39839 0.30227 0.0
C456 C 0.58959 0.28765 0.23878 0.0
C457 C 0.56604 0.28128 0.27695 0.0
C458 C 0.60552 0.30411 0.28633 0.0
C459 C 0.59789 0.31463 0.37197 0.0
C460 C 0.57639 0.30473 0.41673 0.0
C461 C 0.56054 0.28811 0.36936 0.0
C462 C 0.60946 0.37216 0.52034 0.0
C463 C 0.60754 0.39134 0.45203 0.0
C464 C 0.60905 0.34667 0.49458 0.0
C465 C 0.60724 0.33992 0.4 0.0
C466 C 0.60877 0.35905 0.33174 0.0
C467 C 0.60878 0.38442 0.35736 0.0
H468 H 0.23902 0.60114 0.15884 0.0
H469 H 0.23931 0.54701 0.38468 0.0
H470 H 0.21065 0.62828 0.24792 0.0
H471 H 0.21052 0.57347 0.47268 0.0
H472 H 0.12368 0.61593 0.30527 0.0
H473 H 0.16733 0.61554 0.25739 0.0
H474 H 0.19035 0.60915 0.54602 0.0
H475 H 0.14619 0.60953 0.59414 0.0
C476 C 0.23407 0.59574 0.22968 0.0
C477 C 0.24079 0.57181 0.26437 0.0
C478 C 0.21762 0.61113 0.28036 0.0
C479 C 0.20747 0.60257 0.36565 0.0
C480 C 0.21774 0.58066 0.40691 0.0
C481 C 0.23436 0.56539 0.35651 0.0
C482 C 0.13799 0.61555 0.35899 0.0
C483 C 0.13146 0.61206 0.45323 0.0
C484 C 0.16321 0.61542 0.33155 0.0
C485 C 0.18245 0.61179 0.39782 0.0
C486 C 0.17598 0.61145 0.49314 0.0
C487 C 0.1507 0.61157 0.5206 0.0
H488 H 0.02464 0.79207 0.10686 0.0
H489 H 0.09302 0.78165 0.26311 0.0
H490 H 0.0463 0.81966 0.99866 0.0
H491 H 0.11579 0.80785 0.1504 0.0
H492 H 0.0755 0.88262 0.85681 0.0
H493 H 0.07285 0.83801 0.89367 0.0
H494 H 0.11599 0.85073 0.14519 0.0
H495 H 0.12086 0.89454 0.10282 0.0
C496 C 0.04478 0.79455 0.11441 0.0
C497 C 0.05716 0.78517 0.19341 0.0
C498 C 0.05741 0.81043 0.05205 0.0
C499 C 0.0828 0.81697 0.06725 0.0
C500 C 0.09602 0.80418 0.1385 0.0
C501 C 0.08316 0.78883 0.20237 0.0
C502 C 0.08548 0.87572 0.91764 0.0
C503 C 0.09754 0.89247 0.97909 0.0
C504 C 0.0836 0.85004 0.93969 0.0
C505 C 0.09303 0.84072 0.02501 0.0
C506 C 0.10806 0.85688 0.07939 0.0
C507 C 0.11052 0.88237 0.05601 0.0
H508 H 0.74642 0.10376 0.29441 0.0
H509 H 0.73871 0.03521 0.13605 0.0
H510 H 0.71929 0.12591 0.18368 0.0
H511 H 0.7102 0.05621 0.02981 0.0
H512 H 0.63304 0.1291 0.13531 0.0
H513 H 0.67659 0.12472 0.17891 0.0
H514 H 0.69116 0.08253 0.92582 0.0
H515 H 0.64683 0.08461 0.88765 0.0
C516 C 0.73962 0.09376 0.23363 0.0
C517 C 0.74435 0.06785 0.22353 0.0
C518 C 0.72372 0.10625 0.17091 0.0
C519 C 0.71148 0.09272 0.09962 0.0
C520 C 0.719 0.06753 0.08329 0.0
C521 C 0.73542 0.05529 0.14447 0.0
C522 C 0.64555 0.11903 0.0885 0.0
C523 C 0.63606 0.10621 0.01044 0.0
C524 C 0.67088 0.11688 0.1126 0.0
C525 C 0.68754 0.10234 0.05785 0.0
C526 C 0.67877 0.09293 0.97202 0.0
C527 C 0.65325 0.0945 0.94921 0.0
H528 H 0.51501 0.7594 0.14683 0.0
H529 H 0.58843 0.73443 0.23547 0.0
H530 H 0.51358 0.72581 0.03308 0.0
H531 H 0.58774 0.70125 0.11784 0.0
H532 H 0.54266 0.62542 0.14281 0.0
H533 H 0.56182 0.66642 0.16209 0.0
H534 H 0.52203 0.69424 0.91909 0.0
H535 H 0.50233 0.65284 0.90124 0.0
C536 C 0.53167 0.74784 0.13709 0.0
C537 C 0.5514 0.74875 0.2018 0.0
C538 C 0.53086 0.72839 0.07174 0.0
C539 C 0.54999 0.70996 0.07023 0.0
C540 C 0.57224 0.71456 0.12039 0.0
C541 C 0.57284 0.73376 0.18692 0.0
C542 C 0.53844 0.64009 0.09219 0.0
C543 C 0.52065 0.63608 0.0217 0.0
C544 C 0.5497 0.66364 0.10234 0.0
C545 C 0.54352 0.68379 0.04198 0.0
C546 C 0.52702 0.67924 0.9673 0.0
C547 C 0.51558 0.65563 0.9576 0.0
H548 H 0.78237 0.43136 0.31557 0.0
H549 H 0.77735 0.48599 0.09208 0.0
H550 H 0.81146 0.40607 0.22219 0.0
H551 H 0.80679 0.46126 0.99961 0.0
H552 H 0.87089 0.42496 0.8665 0.0
H553 H 0.82738 0.42509 0.92236 0.0
H554 H 0.85402 0.42246 0.20711 0.0
H555 H 0.89686 0.42321 0.15267 0.0
C556 C 0.78651 0.43725 0.24456 0.0
C557 C 0.77815 0.46082 0.21154 0.0
C558 C 0.80329 0.42289 0.19131 0.0
C559 C 0.81214 0.43212 0.10498 0.0
C560 C 0.8005 0.45362 0.06601 0.0
C561 C 0.78355 0.46787 0.11903 0.0
C562 C 0.86743 0.42393 0.94103 0.0
C563 C 0.88754 0.42478 0.00494 0.0
C564 C 0.84247 0.42379 0.97285 0.0
C565 C 0.83718 0.4241 0.06912 0.0
C566 C 0.85728 0.42194 0.13238 0.0
C567 C 0.8821 0.42239 0.1008 0.0
H568 H 0.03418 0.19482 0.17682 0.0
H569 H 0.99977 0.22984 0.93649 0.0
H570 H 0.03673 0.15487 0.09419 0.0
H571 H 1.00281 0.18967 0.85157 0.0
H572 H 0.98029 0.10595 0.79084 0.0
H573 H 0.98282 0.14856 0.85438 0.0
H574 H 0.05547 0.13091 0.97275 0.0
H575 H 0.05267 0.08817 0.91122 0.0
C576 C 0.02768 0.19408 0.10517 0.0
C577 C 0.01676 0.21553 0.0633 0.0
C578 C 0.02923 0.17112 0.05738 0.0
C579 C 0.01986 0.16878 0.96593 0.0
C580 C 1.00993 0.19058 0.92229 0.0
C581 C 1.00849 0.21373 0.97034 0.0
C582 C 0.99689 0.11115 0.83008 0.0
C583 C 0.01616 0.09337 0.84658 0.0
C584 C 0.99843 0.13577 0.86599 0.0
C585 C 0.01929 0.14335 0.91953 0.0
C586 C 0.03889 0.12576 0.93343 0.0
C587 C 0.03734 0.10117 0.89766 0.0
H588 H 0.31468 0.05573 0.07354 0.0
H589 H 0.314 0.97767 0.98868 0.0
H590 H 0.35566 0.06136 0.99672 0.0
H591 H 0.35498 0.9827 0.91637 0.0
H592 H 0.42398 0.99749 0.75152 0.0
H593 H 0.38013 0.99868 0.79848 0.0
H594 H 0.39859 0.05061 0.02026 0.0
H595 H 0.44255 0.05038 0.96932 0.0
C596 C 0.323 0.03995 0.0366 0.0
C597 C 0.31108 1.01626 0.0373 0.0
C598 C 0.34672 0.04302 0.99389 0.0
C599 C 0.35904 0.02244 0.95081 0.0
C600 C 0.34626 0.99917 0.94738 0.0
C601 C 0.32267 0.99619 0.98945 0.0
C602 C 0.41874 1.00939 0.80969 0.0
C603 C 0.43698 0.0237 0.85686 0.0
C604 C 0.39345 1.00995 0.8373 0.0
C605 C 0.38555 0.02446 0.91439 0.0
C606 C 0.4037 0.03939 0.95999 0.0
C607 C 0.42904 0.03914 0.93121 0.0
H608 H 0.47247 0.31903 0.07495 0.0
H609 H 0.54813 0.31478 0.96616 0.0
H610 H 0.46599 0.35887 0.99001 0.0
H611 H 0.54228 0.35467 0.88519 0.0
H612 H 0.52441 0.42079 0.70472 0.0
H613 H 0.52392 0.37782 0.76513 0.0
H614 H 0.47808 0.40213 0.99822 0.0
H615 H 0.47784 0.44509 0.93523 0.0
C616 C 0.48752 0.32632 0.03137 0.0
C617 C 0.51083 0.31371 0.02759 0.0
C618 C 0.48399 0.3494 0.98376 0.0
C619 C 0.50367 0.36039 0.93095 0.0
C620 C 0.52649 0.34695 0.92374 0.0
C621 C 0.52995 0.324 0.97087 0.0
C622 C 0.51407 0.417 0.76855 0.0
C623 C 0.50139 0.43658 0.81543 0.0
C624 C 0.51386 0.39224 0.80369 0.0
C625 C 0.50126 0.38626 0.88773 0.0
C626 C 0.48781 0.40573 0.93295 0.0
C627 C 0.48778 0.43051 0.89704 0.0
H628 H 0.20166 0.48004 0.06151 0.0
H629 H 0.20699 0.55584 0.95166 0.0
H630 H 0.16135 0.47457 0.98123 0.0
H631 H 0.16662 0.55102 0.87552 0.0
H632 H 0.09905 0.53503 0.70543 0.0
H633 H 0.14229 0.53305 0.7589 0.0
H634 H 0.11879 0.48821 0.99667 0.0
H635 H 0.07545 0.48939 0.94019 0.0
C636 C 0.1945 0.49531 0.01853 0.0
C637 C 0.2075 0.51839 0.01316 0.0
C638 C 0.17117 0.49236 0.9737 0.0
C639 C 0.16036 0.51243 0.92235 0.0
C640 C 0.17421 0.53496 0.91313 0.0
C641 C 0.19742 0.53783 0.95741 0.0
C642 C 0.10305 0.52464 0.76884 0.0
C643 C 0.08363 0.51267 0.81899 0.0
C644 C 0.12797 0.52355 0.79992 0.0
C645 C 0.13425 0.51077 0.88319 0.0
C646 C 0.1149 0.49802 0.93178 0.0
C647 C 0.08994 0.49883 0.89973 0.0
H648 H 0.97632 0.81924 0.44755 0.0
H649 H 0.05484 0.81923 0.52239 0.0
H650 H 0.97087 0.86025 0.52469 0.0
H651 H 0.04954 0.86001 0.5994 0.0
H652 H 0.02829 0.92718 0.7827 0.0
H653 H 0.02954 0.88339 0.72936 0.0
H654 H 0.98537 0.90394 0.48798 0.0
H655 H 0.98408 0.94771 0.54118 0.0
C656 C 0.99222 0.82766 0.48285 0.0
C657 C 0.01596 0.81594 0.4794 0.0
C658 C 0.98921 0.85131 0.52598 0.0
C659 C 1.00982 0.86362 0.5677 0.0
C660 C 0.03321 0.85111 0.56872 0.0
C661 C 0.03627 0.8277 0.52461 0.0
C662 C 0.01862 0.92236 0.71869 0.0
C663 C 1.00609 0.9411 0.66629 0.0
C664 C 0.01945 0.89721 0.68785 0.0
C665 C 1.0075 0.89002 0.60437 0.0
C666 C 0.9945 0.90866 0.55318 0.0
C667 C 0.99393 0.93386 0.58338 0.0
H668 H 0.71401 0.98592 0.4843 0.0
H669 H 0.71131 0.06514 0.5525 0.0
H670 H 0.67357 0.97958 0.56414 0.0
H671 H 0.671 0.05899 0.63165 0.0
H672 H 0.60385 0.03762 0.81378 0.0
H673 H 0.64773 0.03957 0.76218 0.0
H674 H 0.62995 0.99207 0.52692 0.0
H675 H 0.58623 0.98999 0.57851 0.0
C676 C 0.70513 1.00182 0.51868 0.0
C677 C 0.71589 0.02601 0.51227 0.0
C678 C 0.68179 0.99829 0.56338 0.0
C679 C 0.6688 0.01883 0.60362 0.0
C680 C 0.68042 0.0427 0.60214 0.0
C681 C 0.70355 0.04625 0.55665 0.0
C682 C 0.60933 0.02734 0.75162 0.0
C683 C 0.59137 1.01367 0.70032 0.0
C684 C 0.63452 0.02857 0.72175 0.0
C685 C 0.6425 1.01594 0.64034 0.0
C686 C 0.62465 1.00175 0.59058 0.0
C687 C 0.59945 1.00073 0.61985 0.0
H688 H 0.55598 0.7212 0.59632 0.0
H689 H 0.49073 0.71014 0.42357 0.0
H690 H 0.55171 0.6779 0.65716 0.0
H691 H 0.48645 0.66699 0.48316 0.0
H692 H 0.51127 0.58345 0.49722 0.0
H693 H 0.51227 0.62834 0.45776 0.0
H694 H 0.52486 0.64661 0.74739 0.0
H695 H 0.52347 0.60158 0.78758 0.0
C696 C 0.54015 0.70984 0.57428 0.0
C697 C 0.52333 0.71924 0.50691 0.0
C698 C 0.53782 0.68494 0.60833 0.0
C699 C 0.51893 0.66876 0.5741 0.0
C700 C 0.50142 0.67873 0.51018 0.0
C701 C 0.50359 0.70361 0.47715 0.0
C702 C 0.51426 0.59697 0.5527 0.0
C703 C 0.51732 0.58874 0.64557 0.0
C704 C 0.51463 0.6228 0.53016 0.0
C705 C 0.51839 0.64122 0.59955 0.0
C706 C 0.52188 0.633 0.69228 0.0
C707 C 0.52107 0.60713 0.71519 0.0
H708 H 0.81259 0.55282 0.40647 0.0
H709 H 0.8081 0.47944 0.53743 0.0
H710 H 0.85292 0.56035 0.4843 0.0
H711 H 0.84831 0.48675 0.61457 0.0
H712 H 0.93891 0.54293 0.5137 0.0
H713 H 0.89534 0.54213 0.4616 0.0
H714 H 0.87245 0.5115 0.72869 0.0
H715 H 0.91612 0.51234 0.78126 0.0
C716 C 0.81986 0.53863 0.45408 0.0
C717 C 0.80718 0.51556 0.46599 0.0
C718 C 0.84311 0.54278 0.49772 0.0
C719 C 0.85404 0.52405 0.55498 0.0
C720 C 0.84046 0.50167 0.57157 0.0
C721 C 0.8174 0.49745 0.52729 0.0
C722 C 0.92462 0.53623 0.5619 0.0
C723 C 0.93122 0.52743 0.65152 0.0
C724 C 0.89953 0.53595 0.53211 0.0
C725 C 0.88031 0.52673 0.59082 0.0
C726 C 0.88679 0.51851 0.68129 0.0
C727 C 0.91188 0.519 0.71145 0.0
loop_
_geom_bond_atom_site_label_1
_geom_bond_atom_site_label_2
_geom_bond_distance
_geom_bond_site_symmetry_2
_ccdc_geom_bond_type
H0 C3 0.929 . S
H1 C6 0.929 . S
H2 C8 0.930 . S
C3 H0 0.929 . S
C3 C4 1.398 . S
C3 C5 1.396 . S
C4 C3 1.398 . S
C4 C8 1.407 . S
C5 C3 1.396 . S
C5 C6 1.394 . S
C6 H1 0.929 . S
C6 C5 1.394 . S
C6 C7 1.382 . S
C7 C6 1.382 . S
C7 C8 1.392 . S
C7 N9 1.420 . S
C8 H2 0.930 . S
C8 C4 1.407 . S
C8 C7 1.392 . S
N9 C7 1.420 . S
N9 C10 1.244 . S
C10 N9 1.244 . S
H11 C14 0.929 . S
H12 C17 0.929 . S
H13 C19 0.930 . S
C14 H11 0.929 . S
C14 C15 1.395 1_655 S
C14 C16 1.395 1_655 S
C15 C14 1.395 1_455 S
C15 C19 1.413 . S
C16 C14 1.395 1_455 S
C16 C17 1.397 . S
C17 H12 0.929 . S
C17 C16 1.397 . S
C17 C18 1.382 . S
C18 C17 1.382 . S
C18 C19 1.392 . S
C18 N20 1.420 . S
C19 H13 0.930 . S
C19 C15 1.413 . S
C19 C18 1.392 . S
N20 C18 1.420 . S
N20 C21 1.232 1_455 S
C21 N20 1.232 1_655 S
H22 C25 0.929 . S
H23 C28 0.929 . S
H24 C30 0.930 . S
C25 H22 0.929 . S
C25 C26 1.395 1_565 S
C25 C27 1.395 1_565 S
C26 C25 1.395 1_545 S
C26 C30 1.413 . S
C27 C25 1.395 1_545 S
C27 C28 1.397 . S
C28 H23 0.929 . S
C28 C27 1.397 . S
C28 C29 1.382 . S
C29 C28 1.382 . S
C29 C30 1.392 . S
C29 N31 1.420 . S
C30 H24 0.930 . S
C30 C26 1.413 . S
C30 C29 1.392 . S
N31 C29 1.420 . S
N31 C32 1.232 1_545 S
C32 N31 1.232 1_565 S
H33 C36 0.929 . S
H34 C39 0.929 . S
H35 C41 0.930 . S
C36 H33 0.929 . S
C36 C37 1.398 . S
C36 C38 1.396 . S
C37 C36 1.398 . S
C37 C41 1.407 . S
C38 C36 1.396 . S
C38 C39 1.394 . S
C39 H34 0.929 . S
C39 C38 1.394 . S
C39 C40 1.382 . S
C40 C39 1.382 . S
C40 C41 1.392 . S
C40 N42 1.420 . S
C41 H35 0.930 . S
C41 C37 1.407 . S
C41 C40 1.392 . S
N42 C40 1.420 . S
N42 C43 1.244 . S
C43 N42 1.244 . S
H44 C47 0.929 . S
H45 C50 0.929 . S
H46 C52 0.930 . S
C47 H44 0.929 . S
C47 C48 1.398 1_554 S
C47 C49 1.396 . S
C48 C47 1.398 1_556 S
C48 C52 1.407 . S
C49 C47 1.396 . S
C49 C50 1.394 . S
C50 H45 0.929 . S
C50 C49 1.394 . S
C50 C51 1.382 . S
C51 C50 1.382 . S
C51 C52 1.392 1_554 S
C51 N53 1.420 . S
C52 H46 0.930 . S
C52 C48 1.407 . S
C52 C51 1.392 1_556 S
N53 C51 1.420 . S
N53 C54 1.244 . S
C54 N53 1.244 . S
H55 C58 0.929 . S
H56 C61 0.929 . S
H57 C63 0.930 . S
C58 H55 0.929 . S
C58 C59 1.395 1_654 S
C58 C60 1.394 1_655 S
C59 C58 1.395 1_456 S
C59 C63 1.416 . S
C60 C58 1.394 1_455 S
C60 C61 1.398 . S
C61 H56 0.929 . S
C61 C60 1.398 . S
C61 C62 1.382 . S
C62 C61 1.382 . S
C62 C63 1.392 1_554 S
C62 N64 1.420 . S
C63 H57 0.930 . S
C63 C59 1.416 . S
C63 C62 1.392 1_556 S
N64 C62 1.420 . S
N64 C65 1.237 1_455 S
C65 N64 1.237 1_655 S
H66 C69 0.929 . S
H67 C72 0.929 . S
H68 C74 0.930 . S
C69 H66 0.929 . S
C69 C70 1.395 1_564 S
C69 C71 1.394 1_565 S
C70 C69 1.395 1_546 S
C70 C74 1.416 . S
C71 C69 1.394 1_545 S
C71 C72 1.398 . S
C72 H67 0.929 . S
C72 C71 1.398 . S
C72 C73 1.382 . S
C73 C72 1.382 . S
C73 C74 1.392 1_554 S
C73 N75 1.420 . S
C74 H68 0.930 . S
C74 C70 1.416 . S
C74 C73 1.392 1_556 S
N75 C73 1.420 . S
N75 C76 1.237 1_545 S
C76 N75 1.237 1_565 S
H77 C80 0.929 . S
H78 C83 0.929 . S
H79 C85 0.930 . S
C80 H77 0.929 . S
C80 C81 1.398 1_554 S
C80 C82 1.396 . S
C81 C80 1.398 1_556 S
C81 C85 1.407 . S
C82 C80 1.396 . S
C82 C83 1.394 . S
C83 H78 0.929 . S
C83 C82 1.394 . S
C83 C84 1.382 . S
C84 C83 1.382 . S
C84 C85 1.392 1_554 S
C84 N86 1.420 . S
C85 H79 0.930 . S
C85 C81 1.407 . S
C85 C84 1.392 1_556 S
N86 C84 1.420 . S
N86 C87 1.244 . S
C87 N86 1.244 . S
Tb88 C98 2.825 . S
Tb88 O99 2.347 1_455 S
Tb88 O102 2.366 . S
Tb88 O107 2.418 . S
Tb88 O108 2.384 1_565 S
Tb88 O111 2.479 . S
Tb88 O112 2.471 . S
Eu89 O100 2.418 . S
Eu89 O101 2.384 1_545 S
Eu89 O104 2.479 . S
Eu89 O105 2.471 . S
Eu89 O106 2.347 1_655 S
Eu89 O109 2.366 . S
Eu89 C119 2.825 . S
C90 O106 1.259 1_565 S
C90 O107 1.265 . S
C91 O108 1.255 . S
C91 O109 1.265 1_455 S
C92 C94 1.380 1_556 S
C92 C95 1.374 1_556 S
C92 C98 1.507 . S
C93 C94 1.384 . S
C93 C97 1.387 . S
C93 H120 0.930 . S
C94 C92 1.380 1_554 S
C94 C93 1.384 . S
C94 H121 0.934 . S
C95 C92 1.374 1_554 S
C95 C96 1.390 . S
C95 H122 0.930 1_455 S
C96 C95 1.390 . S
C96 C97 1.391 . S
C96 H123 0.930 1_455 S
C97 C93 1.387 . S
C97 C96 1.391 . S
C98 Tb88 2.825 . S
C98 C92 1.507 . S
C98 O111 1.238 . S
C98 O112 1.247 . S
O99 Tb88 2.347 1_655 S
O99 C103 1.259 1_565 S
O100 Eu89 2.418 . S
O100 C103 1.265 . S
O101 Eu89 2.384 1_565 S
O101 C110 1.255 . S
O102 Tb88 2.366 . S
O102 C110 1.265 1_455 S
C103 O99 1.259 1_545 S
C103 O100 1.265 . S
O104 Eu89 2.479 . S
O104 C119 1.238 . S
O105 Eu89 2.471 . S
O105 C119 1.247 . S
O106 Eu89 2.347 1_455 S
O106 C90 1.259 1_545 S
O107 Tb88 2.418 . S
O107 C90 1.265 . S
O108 Tb88 2.384 1_545 S
O108 C91 1.255 . S
O109 Eu89 2.366 . S
O109 C91 1.265 1_655 S
C110 O101 1.255 . S
C110 O102 1.265 1_655 S
O111 Tb88 2.479 . S
O111 C98 1.238 . S
O112 Tb88 2.471 . S
O112 C98 1.247 . S
C113 C116 1.380 . S
C113 C117 1.374 . S
C113 C119 1.507 . S
C114 C115 1.387 . S
C114 C118 1.391 . S
C115 C114 1.387 . S
C115 C116 1.384 . S
C115 H124 0.930 . S
C116 C113 1.380 . S
C116 C115 1.384 . S
C116 H125 0.931 . S
C117 C113 1.374 . S
C117 C118 1.390 . S
C117 H126 0.930 1_655 S
C118 C114 1.391 . S
C118 C117 1.390 . S
C118 H127 0.930 1_655 S
C119 Eu89 2.825 . S
C119 O104 1.238 . S
C119 O105 1.247 . S
C119 C113 1.507 . S
H120 C93 0.930 . S
H121 C94 0.934 . S
H122 C95 0.930 1_655 S
H123 C96 0.930 1_655 S
H124 C115 0.930 . S
H125 C116 0.931 . S
H126 C117 0.930 1_455 S
H127 C118 0.930 1_455 S
Tb128 C138 2.825 . S
Tb128 O139 2.347 1_545 S
Tb128 O142 2.366 . S
Tb128 O147 2.418 . S
Tb128 O148 2.384 . S
Tb128 O151 2.479 . S
Tb128 O152 2.471 . S
Eu129 O140 2.418 . S
Eu129 O141 2.384 . S
Eu129 O144 2.479 . S
Eu129 O145 2.471 . S
Eu129 O146 2.347 1_565 S
Eu129 O149 2.366 . S
Eu129 C159 2.825 . S
C130 O146 1.259 . S
C130 O147 1.265 . S
C131 O148 1.255 . S
C131 O149 1.265 1_545 S
C132 C134 1.380 1_556 S
C132 C135 1.374 1_556 S
C132 C138 1.507 . S
C133 C134 1.384 . S
C133 C137 1.387 . S
C133 H160 0.930 . S
C134 C132 1.380 1_554 S
C134 C133 1.384 . S
C134 H161 0.931 . S
C135 C132 1.374 1_554 S
C135 C136 1.390 . S
C135 H162 0.930 1_545 S
C136 C135 1.390 . S
C136 C137 1.391 . S
C136 H163 0.930 1_545 S
C137 C133 1.387 . S
C137 C136 1.391 . S
C138 Tb128 2.825 . S
C138 C132 1.507 . S
C138 O151 1.238 . S
C138 O152 1.247 . S
O139 Tb128 2.347 1_565 S
O139 C143 1.259 . S
O140 Eu129 2.418 . S
O140 C143 1.265 . S
O141 Eu129 2.384 . S
O141 C150 1.255 . S
O142 Tb128 2.366 . S
O142 C150 1.265 1_545 S
C143 O139 1.259 . S
C143 O140 1.265 . S
O144 Eu129 2.479 . S
O144 C159 1.238 . S
O145 Eu129 2.471 . S
O145 C159 1.247 . S
O146 Eu129 2.347 1_545 S
O146 C130 1.259 . S
O147 Tb128 2.418 . S
O147 C130 1.265 . S
O148 Tb128 2.384 . S
O148 C131 1.255 . S
O149 Eu129 2.366 . S
O149 C131 1.265 1_565 S
C150 O141 1.255 . S
C150 O142 1.265 1_565 S
O151 Tb128 2.479 . S
O151 C138 1.238 . S
O152 Tb128 2.471 . S
O152 C138 1.247 . S
C153 C156 1.380 . S
C153 C157 1.374 . S
C153 C159 1.507 . S
C154 C155 1.387 . S
C154 C158 1.391 . S
C155 C154 1.387 . S
C155 C156 1.384 . S
C155 H164 0.930 . S
C156 C153 1.380 . S
C156 C155 1.384 . S
C156 H165 0.931 . S
C157 C153 1.374 . S
C157 C158 1.390 . S
C157 H166 0.930 1_565 S
C158 C154 1.391 . S
C158 C157 1.390 . S
C158 H167 0.930 1_565 S
C159 Eu129 2.825 . S
C159 O144 1.238 . S
C159 O145 1.247 . S
C159 C153 1.507 . S
H160 C133 0.930 . S
H161 C134 0.931 . S
H162 C135 0.930 1_565 S
H163 C136 0.930 1_565 S
H164 C155 0.930 . S
H165 C156 0.931 . S
H166 C157 0.930 1_545 S
H167 C158 0.930 1_545 S
Tb168 C178 2.825 . S
Tb168 O179 2.347 . S
Tb168 O182 2.366 . S
Tb168 O187 2.418 . S
Tb168 O188 2.384 . S
Tb168 O191 2.479 . S
Tb168 O192 2.471 . S
Eu169 O180 2.418 . S
Eu169 O181 2.384 . S
Eu169 O184 2.479 . S
Eu169 O185 2.471 . S
Eu169 O186 2.347 . S
Eu169 O189 2.366 . S
Eu169 C199 2.825 . S
C170 O186 1.259 . S
C170 O187 1.265 . S
C171 O188 1.255 . S
C171 O189 1.265 . S
C172 C174 1.380 . S
C172 C175 1.374 . S
C172 C178 1.506 1_554 S
C173 C174 1.384 . S
C173 C177 1.387 . S
C173 H200 0.930 . S
C174 C172 1.380 . S
C174 C173 1.384 . S
C174 H201 0.931 . S
C175 C172 1.374 . S
C175 C176 1.390 . S
C175 H202 0.930 . S
C176 C175 1.390 . S
C176 C177 1.391 . S
C176 H203 0.930 . S
C177 C173 1.387 . S
C177 C176 1.391 . S
C178 Tb168 2.825 . S
C178 C172 1.506 1_556 S
C178 O191 1.238 . S
C178 O192 1.247 . S
O179 Tb168 2.347 . S
O179 C183 1.259 . S
O180 Eu169 2.418 . S
O180 C183 1.265 . S
O181 Eu169 2.384 . S
O181 C190 1.255 . S
O182 Tb168 2.366 . S
O182 C190 1.265 . S
C183 O179 1.259 . S
C183 O180 1.265 . S
O184 Eu169 2.479 . S
O184 C199 1.238 . S
O185 Eu169 2.471 . S
O185 C199 1.247 . S
O186 Eu169 2.347 . S
O186 C170 1.259 . S
O187 Tb168 2.418 . S
O187 C170 1.265 . S
O188 Tb168 2.384 . S
O188 C171 1.255 . S
O189 Eu169 2.366 . S
O189 C171 1.265 . S
C190 O181 1.255 . S
C190 O182 1.265 . S
O191 Tb168 2.479 . S
O191 C178 1.238 . S
O192 Tb168 2.471 . S
O192 C178 1.247 . S
C193 C196 1.380 . S
C193 C197 1.374 . S
C193 C199 1.507 . S
C194 C195 1.387 . S
C194 C198 1.391 . S
C195 C194 1.387 . S
C195 C196 1.384 . S
C195 H204 0.930 . S
C196 C193 1.380 . S
C196 C195 1.384 . S
C196 H205 0.931 . S
C197 C193 1.374 . S
C197 C198 1.390 . S
C197 H206 0.930 . S
C198 C194 1.391 . S
C198 C197 1.390 . S
C198 H207 0.930 . S
C199 Eu169 2.825 . S
C199 O184 1.238 . S
C199 O185 1.247 . S
C199 C193 1.507 . S
H200 C173 0.930 . S
H201 C174 0.931 . S
H202 C175 0.930 . S
H203 C176 0.930 . S
H204 C195 0.930 . S
H205 C196 0.931 . S
H206 C197 0.930 . S
H207 C198 0.930 . S
Tb208 C218 2.825 . S
Tb208 O219 2.347 . S
Tb208 O222 2.366 . S
Tb208 O227 2.418 . S
Tb208 O228 2.384 1_655 S
Tb208 O231 2.479 . S
Tb208 O232 2.471 . S
Eu209 O220 2.418 . S
Eu209 O221 2.384 1_455 S
Eu209 O224 2.479 . S
Eu209 O225 2.471 . S
Eu209 O226 2.347 . S
Eu209 O229 2.366 . S
Eu209 C239 2.825 . S
C210 O226 1.259 1_655 S
C210 O227 1.265 . S
C211 O228 1.255 . S
C211 O229 1.265 . S
C212 C214 1.379 1_556 S
C212 C215 1.373 1_556 S
C212 C218 1.508 . S
C213 C214 1.384 . S
C213 C217 1.387 . S
C213 H240 0.930 . S
C214 C212 1.379 1_554 S
C214 C213 1.384 . S
C214 H241 0.931 . S
C215 C212 1.373 1_554 S
C215 C216 1.390 . S
C215 H242 0.930 . S
C216 C215 1.390 . S
C216 C217 1.391 . S
C216 H243 0.930 . S
C217 C213 1.387 . S
C217 C216 1.391 . S
C218 Tb208 2.825 . S
C218 C212 1.508 . S
C218 O231 1.238 . S
C218 O232 1.247 . S
O219 Tb208 2.347 . S
O219 C223 1.259 1_655 S
O220 Eu209 2.418 . S
O220 C223 1.265 . S
O221 Eu209 2.384 1_655 S
O221 C230 1.255 . S
O222 Tb208 2.366 . S
O222 C230 1.265 . S
C223 O219 1.259 1_455 S
C223 O220 1.265 . S
O224 Eu209 2.479 . S
O224 C239 1.238 . S
O225 Eu209 2.471 . S
O225 C239 1.247 . S
O226 Eu209 2.347 . S
O226 C210 1.259 1_455 S
O227 Tb208 2.418 . S
O227 C210 1.265 . S
O228 Tb208 2.384 1_455 S
O228 C211 1.255 . S
O229 Eu209 2.366 . S
O229 C211 1.265 . S
C230 O221 1.255 . S
C230 O222 1.265 . S
O231 Tb208 2.479 . S
O231 C218 1.238 . S
O232 Tb208 2.471 . S
O232 C218 1.247 . S
C233 C236 1.380 . S
C233 C237 1.374 . S
C233 C239 1.507 . S
C234 C235 1.387 . S
C234 C238 1.391 . S
C235 C234 1.387 . S
C235 C236 1.384 . S
C235 H244 0.930 . S
C236 C233 1.380 . S
C236 C235 1.384 . S
C236 H245 0.931 . S
C237 C233 1.374 . S
C237 C238 1.390 . S
C237 H246 0.930 . S
C238 C234 1.391 . S
C238 C237 1.390 . S
C238 H247 0.930 . S
C239 Eu209 2.825 . S
C239 O224 1.238 . S
C239 O225 1.247 . S
C239 C233 1.507 . S
H240 C213 0.930 . S
H241 C214 0.931 . S
H242 C215 0.930 . S
H243 C216 0.930 . S
H244 C235 0.930 . S
H245 C236 0.931 . S
H246 C237 0.930 . S
H247 C238 0.930 . S
H248 C256 0.950 . S
H249 C261 0.950 . S
H250 C258 0.950 . S
H251 C260 0.950 . S
H252 C262 0.950 . S
H253 C264 0.950 . S
H254 C266 0.950 . S
H255 C267 0.950 . S
C256 H248 0.950 . S
C256 C257 1.373 1_565 S
C256 C258 1.391 . S
C257 C256 1.373 1_545 S
C257 C261 1.406 . S
C258 H250 0.950 . S
C258 C256 1.391 . S
C258 C259 1.389 1_565 S
C259 C258 1.389 1_545 S
C259 C260 1.409 . S
C259 C265 1.491 . S
C260 H251 0.950 . S
C260 C259 1.409 . S
C260 C261 1.391 . S
C261 H249 0.950 . S
C261 C257 1.406 . S
C261 C260 1.391 . S
C262 H252 0.950 . S
C262 C263 1.386 . S
C262 C264 1.391 . S
C263 C262 1.386 . S
C263 C267 1.392 1_545 S
C264 H253 0.950 . S
C264 C262 1.391 . S
C264 C265 1.403 . S
C265 C259 1.491 . S
C265 C264 1.403 . S
C265 C266 1.396 1_545 S
C266 H254 0.950 . S
C266 C265 1.396 1_565 S
C266 C267 1.391 . S
C267 H255 0.950 . S
C267 C263 1.392 1_565 S
C267 C266 1.391 . S
H268 C276 0.950 . S
H269 C281 0.950 . S
H270 C278 0.950 . S
H271 C280 0.950 . S
H272 C282 0.950 . S
H273 C284 0.950 . S
H274 C286 0.950 . S
H275 C287 0.950 . S
C276 H268 0.950 . S
C276 C277 1.386 . S
C276 C278 1.391 . S
C277 C276 1.386 . S
C277 C281 1.393 . S
C278 H270 0.950 . S
C278 C276 1.391 . S
C278 C279 1.400 . S
C279 C278 1.400 . S
C279 C280 1.398 . S
C279 C285 1.491 . S
C280 H271 0.950 . S
C280 C279 1.398 . S
C280 C281 1.391 . S
C281 H269 0.950 . S
C281 C277 1.393 . S
C281 C280 1.391 . S
C282 H272 0.950 . S
C282 C283 1.386 . S
C282 C284 1.391 . S
C283 C282 1.386 . S
C283 C287 1.393 . S
C284 H273 0.950 . S
C284 C282 1.391 . S
C284 C285 1.400 . S
C285 C279 1.491 . S
C285 C284 1.400 . S
C285 C286 1.398 . S
C286 H274 0.950 . S
C286 C285 1.398 . S
C286 C287 1.391 . S
C287 H275 0.950 . S
C287 C283 1.393 . S
C287 C286 1.391 . S
H288 C296 0.950 . S
H289 C301 0.950 . S
H290 C298 0.950 . S
H291 C300 0.950 . S
H292 C302 0.950 . S
H293 C304 0.950 . S
H294 C306 0.950 . S
H295 C307 0.950 . S
C296 H288 0.950 . S
C296 C297 1.386 . S
C296 C298 1.391 . S
C297 C296 1.386 . S
C297 C301 1.393 . S
C298 H290 0.950 . S
C298 C296 1.391 . S
C298 C299 1.400 . S
C299 C298 1.400 . S
C299 C300 1.398 . S
C299 C305 1.491 . S
C300 H291 0.950 . S
C300 C299 1.398 . S
C300 C301 1.391 . S
C301 H289 0.950 . S
C301 C297 1.393 . S
C301 C300 1.391 . S
C302 H292 0.950 . S
C302 C303 1.386 . S
C302 C304 1.391 . S
C303 C302 1.386 . S
C303 C307 1.393 . S
C304 H293 0.950 . S
C304 C302 1.391 . S
C304 C305 1.400 . S
C305 C299 1.491 . S
C305 C304 1.400 . S
C305 C306 1.398 . S
C306 H294 0.950 . S
C306 C305 1.398 . S
C306 C307 1.391 . S
C307 H295 0.950 . S
C307 C303 1.393 . S
C307 C306 1.391 . S
H308 C316 0.950 . S
H309 C321 0.950 . S
H310 C318 0.950 . S
H311 C320 0.950 . S
H312 C322 0.950 . S
H313 C324 0.950 . S
H314 C326 0.950 . S
H315 C327 0.950 . S
C316 H308 0.950 . S
C316 C317 1.384 . S
C316 C318 1.391 . S
C317 C316 1.384 . S
C317 C321 1.395 1_655 S
C318 H310 0.950 . S
C318 C316 1.391 . S
C318 C319 1.390 1_655 S
C319 C318 1.390 1_455 S
C319 C320 1.408 . S
C319 C325 1.490 . S
C320 H311 0.950 . S
C320 C319 1.408 . S
C320 C321 1.391 . S
C321 H309 0.950 . S
C321 C317 1.395 1_455 S
C321 C320 1.391 . S
C322 H312 0.950 . S
C322 C323 1.386 . S
C322 C324 1.391 . S
C323 C322 1.386 . S
C323 C327 1.393 1_455 S
C324 H313 0.950 . S
C324 C322 1.391 . S
C324 C325 1.430 . S
C325 C319 1.490 . S
C325 C324 1.430 . S
C325 C326 1.370 1_455 S
C326 H314 0.950 . S
C326 C325 1.370 1_655 S
C326 C327 1.391 . S
C327 H315 0.950 . S
C327 C323 1.393 1_655 S
C327 C326 1.391 . S
H328 C336 0.950 . S
H329 C341 0.950 . S
H330 C338 0.950 . S
H331 C340 0.950 . S
H332 C342 0.950 . S
H333 C344 0.950 . S
H334 C346 0.950 . S
H335 C347 0.950 . S
C336 H328 0.950 . S
C336 C337 1.364 1_565 S
C336 C338 1.391 . S
C337 C336 1.364 1_545 S
C337 C341 1.415 . S
C338 H330 0.950 . S
C338 C336 1.391 . S
C338 C339 1.394 1_565 S
C339 C338 1.394 1_545 S
C339 C340 1.405 . S
C339 C345 1.490 1_545 S
C340 H331 0.950 . S
C340 C339 1.405 . S
C340 C341 1.391 . S
C341 H329 0.950 . S
C341 C337 1.415 . S
C341 C340 1.391 . S
C342 H332 0.950 . S
C342 C343 1.361 1_545 S
C342 C344 1.391 1_556 S
C343 C342 1.361 1_565 S
C343 C347 1.418 . S
C344 H333 0.950 . S
C344 C342 1.391 1_554 S
C344 C345 1.390 1_545 S
C345 C339 1.490 1_565 S
C345 C344 1.390 1_565 S
C345 C346 1.409 . S
C346 H334 0.950 . S
C346 C345 1.409 . S
C346 C347 1.391 1_554 S
C347 H335 0.950 . S
C347 C343 1.418 . S
C347 C346 1.391 1_556 S
H348 C356 0.950 . S
H349 C361 0.950 . S
H350 C358 0.950 . S
H351 C360 0.950 . S
H352 C362 0.950 . S
H353 C364 0.950 . S
H354 C366 0.950 . S
H355 C367 0.950 . S
C356 H348 0.950 . S
C356 C357 1.386 . S
C356 C358 1.391 . S
C357 C356 1.386 . S
C357 C361 1.393 . S
C358 H350 0.950 . S
C358 C356 1.391 . S
C358 C359 1.400 . S
C359 C358 1.400 . S
C359 C360 1.398 . S
C359 C365 1.491 . S
C360 H351 0.950 . S
C360 C359 1.398 . S
C360 C361 1.391 . S
C361 H349 0.950 . S
C361 C357 1.393 . S
C361 C360 1.391 . S
C362 H352 0.950 . S
C362 C363 1.386 1_554 S
C362 C364 1.391 . S
C363 C362 1.386 1_556 S
C363 C367 1.393 . S
C364 H353 0.950 . S
C364 C362 1.391 . S
C364 C365 1.400 . S
C365 C359 1.491 . S
C365 C364 1.400 . S
C365 C366 1.398 1_554 S
C366 H354 0.950 . S
C366 C365 1.398 1_556 S
C366 C367 1.391 . S
C367 H355 0.950 . S
C367 C363 1.393 . S
C367 C366 1.391 . S
H368 C376 0.950 . S
H369 C381 0.950 . S
H370 C378 0.950 . S
H371 C380 0.950 . S
H372 C382 0.950 . S
H373 C384 0.950 1_556 S
H374 C386 0.950 . S
H375 C387 0.950 . S
C376 H368 0.950 . S
C376 C377 1.386 . S
C376 C378 1.391 . S
C377 C376 1.386 . S
C377 C381 1.393 . S
C378 H370 0.950 . S
C378 C376 1.391 . S
C378 C379 1.400 . S
C379 C378 1.400 . S
C379 C380 1.398 . S
C379 C385 1.491 . S
C380 H371 0.950 . S
C380 C379 1.398 . S
C380 C381 1.391 . S
C381 H369 0.950 . S
C381 C377 1.393 . S
C381 C380 1.391 . S
C382 H372 0.950 . S
C382 C383 1.386 . S
C382 C384 1.391 1_556 S
C383 C382 1.386 . S
C383 C387 1.393 1_556 S
C384 H373 0.950 1_554 S
C384 C382 1.391 1_554 S
C384 C385 1.400 . S
C385 C379 1.491 . S
C385 C384 1.400 . S
C385 C386 1.398 . S
C386 H374 0.950 . S
C386 C385 1.398 . S
C386 C387 1.391 . S
C387 H375 0.950 . S
C387 C383 1.393 1_554 S
C387 C386 1.391 . S
H388 C396 0.950 . S
H389 C401 0.950 . S
H390 C398 0.950 . S
H391 C400 0.950 . S
H392 C402 0.950 . S
H393 C404 0.950 . S
H394 C406 0.950 . S
H395 C407 0.950 . S
C396 H388 0.950 . S
C396 C397 1.360 1_455 S
C396 C398 1.391 . S
C397 C396 1.360 1_655 S
C397 C401 1.420 . S
C398 H390 0.950 . S
C398 C396 1.391 . S
C398 C399 1.378 1_455 S
C399 C398 1.378 1_655 S
C399 C400 1.423 . S
C399 C405 1.490 . S
C400 H391 0.950 . S
C400 C399 1.423 . S
C400 C401 1.391 . S
C401 H389 0.950 . S
C401 C397 1.420 . S
C401 C400 1.391 . S
C402 H392 0.950 . S
C402 C403 1.387 . S
C402 C404 1.394 . S
C403 C402 1.387 . S
C403 C407 1.391 1_656 S
C404 H393 0.950 . S
C404 C402 1.394 . S
C404 C405 1.401 1_556 S
C405 C399 1.490 . S
C405 C404 1.401 1_554 S
C405 C406 1.394 1_655 S
C406 H394 0.950 . S
C406 C405 1.394 1_455 S
C406 C407 1.391 . S
C407 H395 0.950 . S
C407 C403 1.391 1_454 S
C407 C406 1.391 . S
H408 C416 0.950 . S
H409 C421 0.950 . S
H410 C418 0.950 . S
H411 C420 0.950 . S
H412 C422 0.975 . S
H413 C424 0.950 1_455 S
H414 C426 0.950 . S
H415 C427 0.950 . S
C416 H408 0.950 . S
C416 C417 1.386 1_655 S
C416 C418 1.391 . S
C417 C416 1.386 1_455 S
C417 C421 1.393 . S
C418 H410 0.950 . S
C418 C416 1.391 . S
C418 C419 1.400 . S
C419 C418 1.400 . S
C419 C420 1.398 1_655 S
C419 C425 1.491 . S
C420 H411 0.950 . S
C420 C419 1.398 1_455 S
C420 C421 1.391 . S
C421 H409 0.950 . S
C421 C417 1.393 . S
C421 C420 1.391 . S
C422 H412 0.975 . S
C422 C423 1.386 . S
C422 C424 1.391 . S
C423 C422 1.386 . S
C423 C427 1.393 . S
C424 H413 0.950 1_655 S
C424 C422 1.391 . S
C424 C425 1.400 . S
C425 C419 1.491 . S
C425 C424 1.400 . S
C425 C426 1.398 . S
C426 H414 0.950 . S
C426 C425 1.398 . S
C426 C427 1.391 . S
C427 H415 0.950 . S
C427 C423 1.393 . S
C427 C426 1.391 . S
H428 C436 0.950 . S
H429 C441 0.949 1_545 S
H430 C438 0.950 . S
H431 C440 0.950 . S
H432 C442 0.950 . S
H433 C444 0.950 . S
H434 C446 0.950 . S
H435 C447 0.950 . S
C436 H428 0.950 . S
C436 C437 1.380 1_565 S
C436 C438 1.391 . S
C437 C436 1.380 1_545 S
C437 C441 1.392 1_545 S
C438 H430 0.950 . S
C438 C436 1.391 . S
C438 C439 1.400 . S
C439 C438 1.400 . S
C439 C440 1.398 . S
C439 C445 1.491 . S
C440 H431 0.950 . S
C440 C439 1.398 . S
C440 C441 1.391 . S
C441 H429 0.949 1_565 S
C441 C437 1.392 1_565 S
C441 C440 1.391 . S
C442 H432 0.950 . S
C442 C443 1.386 . S
C442 C444 1.391 . S
C443 C442 1.386 . S
C443 C447 1.393 . S
C444 H433 0.950 . S
C444 C442 1.391 . S
C444 C445 1.400 . S
C445 C439 1.491 . S
C445 C444 1.400 . S
C445 C446 1.398 . S
C446 H434 0.950 . S
C446 C445 1.398 . S
C446 C447 1.391 . S
C447 H435 0.950 . S
C447 C443 1.393 . S
C447 C446 1.391 . S
H448 C456 0.950 . S
H449 C461 0.950 . S
H450 C458 0.950 . S
H451 C460 0.950 . S
H452 C462 0.950 . S
H453 C464 0.950 . S
H454 C466 0.950 . S
H455 C467 0.950 . S
C456 H448 0.950 . S
C456 C457 1.386 . S
C456 C458 1.391 . S
C457 C456 1.386 . S
C457 C461 1.393 . S
C458 H450 0.950 . S
C458 C456 1.391 . S
C458 C459 1.400 . S
C459 C458 1.400 . S
C459 C460 1.398 . S
C459 C465 1.491 . S
C460 H451 0.950 . S
C460 C459 1.398 . S
C460 C461 1.391 . S
C461 H449 0.950 . S
C461 C457 1.393 . S
C461 C460 1.391 . S
C462 H452 0.950 . S
C462 C463 1.386 . S
C462 C464 1.391 . S
C463 C462 1.386 . S
C463 C467 1.393 . S
C464 H453 0.950 . S
C464 C462 1.391 . S
C464 C465 1.400 . S
C465 C459 1.491 . S
C465 C464 1.400 . S
C465 C466 1.398 . S
C466 H454 0.950 . S
C466 C465 1.398 . S
C466 C467 1.391 . S
C467 H455 0.950 . S
C467 C463 1.393 . S
C467 C466 1.391 . S
H468 C476 0.950 . S
H469 C481 0.950 . S
H470 C478 0.950 . S
H471 C480 0.950 . S
H472 C482 0.950 . S
H473 C484 0.950 . S
H474 C486 0.950 . S
H475 C487 0.950 . S
C476 H468 0.950 . S
C476 C477 1.386 . S
C476 C478 1.391 . S
C477 C476 1.386 . S
C477 C481 1.393 . S
C478 H470 0.950 . S
C478 C476 1.391 . S
C478 C479 1.400 . S
C479 C478 1.400 . S
C479 C480 1.398 . S
C479 C485 1.491 . S
C480 H471 0.950 . S
C480 C479 1.398 . S
C480 C481 1.391 . S
C481 H469 0.950 . S
C481 C477 1.393 . S
C481 C480 1.391 . S
C482 H472 0.950 . S
C482 C483 1.386 . S
C482 C484 1.391 . S
C483 C482 1.386 . S
C483 C487 1.393 . S
C484 H473 0.950 . S
C484 C482 1.391 . S
C484 C485 1.400 . S
C485 C479 1.491 . S
C485 C484 1.400 . S
C485 C486 1.398 . S
C486 H474 0.950 . S
C486 C485 1.398 . S
C486 C487 1.391 . S
C487 H475 0.950 . S
C487 C483 1.393 . S
C487 C486 1.391 . S
H488 C496 0.950 . S
H489 C501 0.950 . S
H490 C498 0.947 1_655 S
H491 C500 0.950 . S
H492 C502 0.950 . S
H493 C504 0.950 . S
H494 C506 0.950 . S
H495 C507 0.950 . S
C496 H488 0.950 . S
C496 C497 1.392 . S
C496 C498 1.388 1_655 S
C497 C496 1.392 . S
C497 C501 1.379 1_655 S
C498 H490 0.947 1_455 S
C498 C496 1.388 1_455 S
C498 C499 1.407 . S
C499 C498 1.407 . S
C499 C500 1.398 . S
C499 C505 1.491 . S
C500 H491 0.950 . S
C500 C499 1.398 . S
C500 C501 1.391 . S
C501 H489 0.950 . S
C501 C497 1.379 1_455 S
C501 C500 1.391 . S
C502 H492 0.950 . S
C502 C503 1.386 . S
C502 C504 1.391 . S
C503 C502 1.386 . S
C503 C507 1.393 . S
C504 H493 0.950 . S
C504 C502 1.391 . S
C504 C505 1.400 . S
C505 C499 1.491 . S
C505 C504 1.400 . S
C505 C506 1.398 . S
C506 H494 0.950 . S
C506 C505 1.398 . S
C506 C507 1.391 . S
C507 H495 0.950 . S
C507 C503 1.393 . S
C507 C506 1.391 . S
H508 C516 0.950 . S
H509 C521 0.950 . S
H510 C518 0.950 . S
H511 C520 0.946 1_565 S
H512 C522 0.950 . S
H513 C524 0.950 . S
H514 C526 0.950 . S
H515 C527 0.946 1_556 S
C516 H508 0.950 . S
C516 C517 1.386 1_545 S
C516 C518 1.391 . S
C517 C516 1.386 1_565 S
C517 C521 1.393 . S
C518 H510 0.950 . S
C518 C516 1.391 . S
C518 C519 1.400 . S
C519 C518 1.400 . S
C519 C520 1.410 . S
C519 C525 1.491 . S
C520 H511 0.946 1_545 S
C520 C519 1.410 . S
C520 C521 1.384 1_545 S
C521 H509 0.950 . S
C521 C517 1.393 . S
C521 C520 1.384 1_565 S
C522 H512 0.950 . S
C522 C523 1.386 . S
C522 C524 1.391 . S
C523 C522 1.386 . S
C523 C527 1.393 . S
C524 H513 0.950 . S
C524 C522 1.391 . S
C524 C525 1.400 . S
C525 C519 1.491 . S
C525 C524 1.400 . S
C525 C526 1.398 . S
C526 H514 0.950 . S
C526 C525 1.398 . S
C526 C527 1.391 . S
C527 H515 0.946 1_554 S
C527 C523 1.393 . S
C527 C526 1.391 . S
H528 C536 0.950 . S
H529 C541 0.950 . S
H530 C538 0.950 . S
H531 C540 0.950 . S
H532 C542 0.950 . S
H533 C544 0.950 . S
H534 C546 0.950 . S
H535 C547 0.950 . S
C536 H528 0.950 . S
C536 C537 1.386 . S
C536 C538 1.391 . S
C537 C536 1.386 . S
C537 C541 1.393 . S
C538 H530 0.950 . S
C538 C536 1.391 . S
C538 C539 1.400 . S
C539 C538 1.400 . S
C539 C540 1.398 . S
C539 C545 1.491 . S
C540 H531 0.950 . S
C540 C539 1.398 . S
C540 C541 1.391 . S
C541 H529 0.950 . S
C541 C537 1.393 . S
C541 C540 1.391 . S
C542 H532 0.950 . S
C542 C543 1.386 . S
C542 C544 1.391 . S
C543 C542 1.386 . S
C543 C547 1.393 . S
C544 H533 0.950 . S
C544 C542 1.391 . S
C544 C545 1.400 . S
C545 C539 1.491 . S
C545 C544 1.400 . S
C545 C546 1.398 . S
C546 H534 0.950 . S
C546 C545 1.398 . S
C546 C547 1.391 . S
C547 H535 0.950 . S
C547 C543 1.393 . S
C547 C546 1.391 . S
H548 C556 0.950 . S
H549 C561 0.950 . S
H550 C558 0.950 . S
H551 C560 0.950 . S
H552 C562 0.950 . S
H553 C564 0.950 . S
H554 C566 0.950 . S
H555 C567 0.950 . S
C556 H548 0.950 . S
C556 C557 1.386 . S
C556 C558 1.391 . S
C557 C556 1.386 . S
C557 C561 1.393 . S
C558 H550 0.950 . S
C558 C556 1.391 . S
C558 C559 1.400 . S
C559 C558 1.400 . S
C559 C560 1.398 . S
C559 C565 1.491 . S
C560 H551 0.950 . S
C560 C559 1.398 . S
C560 C561 1.391 . S
C561 H549 0.950 . S
C561 C557 1.393 . S
C561 C560 1.391 . S
C562 H552 0.950 . S
C562 C563 1.386 . S
C562 C564 1.391 . S
C563 C562 1.386 . S
C563 C567 1.393 . S
C564 H553 0.950 . S
C564 C562 1.391 . S
C564 C565 1.400 . S
C565 C559 1.491 . S
C565 C564 1.400 . S
C565 C566 1.398 . S
C566 H554 0.950 . S
C566 C565 1.398 . S
C566 C567 1.391 . S
C567 H555 0.950 . S
C567 C563 1.393 . S
C567 C566 1.391 . S
H568 C576 0.950 . S
H569 C581 0.950 1_554 S
H570 C578 0.950 . S
H571 C580 0.950 . S
H572 C582 0.950 . S
H573 C584 0.950 . S
H574 C586 0.950 . S
H575 C587 0.950 . S
C576 H568 0.950 . S
C576 C577 1.386 . S
C576 C578 1.391 . S
C577 C576 1.386 . S
C577 C581 1.393 1_455 S
C578 H570 0.950 . S
C578 C576 1.391 . S
C578 C579 1.400 . S
C579 C578 1.400 . S
C579 C580 1.398 1_455 S
C579 C585 1.491 . S
C580 H571 0.950 . S
C580 C579 1.398 1_655 S
C580 C581 1.391 . S
C581 H569 0.950 1_556 S
C581 C577 1.393 1_655 S
C581 C580 1.391 . S
C582 H572 0.950 . S
C582 C583 1.386 1_655 S
C582 C584 1.391 . S
C583 C582 1.386 1_455 S
C583 C587 1.393 . S
C584 H573 0.950 . S
C584 C582 1.391 . S
C584 C585 1.400 1_655 S
C585 C579 1.491 . S
C585 C584 1.400 1_455 S
C585 C586 1.398 . S
C586 H574 0.950 . S
C586 C585 1.398 . S
C586 C587 1.391 . S
C587 H575 0.950 . S
C587 C583 1.393 . S
C587 C586 1.391 . S
H588 C596 0.950 . S
H589 C601 0.950 . S
H590 C598 0.950 . S
H591 C600 0.950 . S
H592 C602 0.950 . S
H593 C604 0.950 . S
H594 C606 0.950 . S
H595 C607 0.950 . S
C596 H588 0.950 . S
C596 C597 1.386 . S
C596 C598 1.391 . S
C597 C596 1.386 . S
C597 C601 1.393 1_545 S
C598 H590 0.950 . S
C598 C596 1.391 . S
C598 C599 1.400 . S
C599 C598 1.400 . S
C599 C600 1.398 1_545 S
C599 C605 1.491 . S
C600 H591 0.950 . S
C600 C599 1.398 1_565 S
C600 C601 1.391 . S
C601 H589 0.950 . S
C601 C597 1.393 1_565 S
C601 C600 1.391 . S
C602 H592 0.950 . S
C602 C603 1.386 1_565 S
C602 C604 1.391 . S
C603 C602 1.386 1_545 S
C603 C607 1.393 . S
C604 H593 0.950 . S
C604 C602 1.391 . S
C604 C605 1.400 1_565 S
C605 C599 1.491 . S
C605 C604 1.400 1_545 S
C605 C606 1.398 . S
C606 H594 0.950 . S
C606 C605 1.398 . S
C606 C607 1.391 . S
C607 H595 0.950 . S
C607 C603 1.393 . S
C607 C606 1.391 . S
H608 C616 0.950 . S
H609 C621 0.950 . S
H610 C618 0.950 . S
H611 C620 0.950 . S
H612 C622 0.950 . S
H613 C624 0.950 . S
H614 C626 0.950 . S
H615 C627 0.950 . S
C616 H608 0.950 . S
C616 C617 1.386 . S
C616 C618 1.391 . S
C617 C616 1.386 . S
C617 C621 1.393 . S
C618 H610 0.950 . S
C618 C616 1.391 . S
C618 C619 1.400 . S
C619 C618 1.400 . S
C619 C620 1.398 . S
C619 C625 1.491 . S
C620 H611 0.950 . S
C620 C619 1.398 . S
C620 C621 1.391 . S
C621 H609 0.950 . S
C621 C617 1.393 . S
C621 C620 1.391 . S
C622 H612 0.950 . S
C622 C623 1.386 . S
C622 C624 1.391 . S
C623 C622 1.386 . S
C623 C627 1.393 . S
C624 H613 0.950 . S
C624 C622 1.391 . S
C624 C625 1.400 . S
C625 C619 1.491 . S
C625 C624 1.400 . S
C625 C626 1.398 . S
C626 H614 0.950 . S
C626 C625 1.398 . S
C626 C627 1.391 . S
C627 H615 0.950 . S
C627 C623 1.393 . S
C627 C626 1.391 . S
H628 C636 0.950 . S
H629 C641 0.950 . S
H630 C638 0.950 . S
H631 C640 0.950 . S
H632 C642 0.950 . S
H633 C644 0.950 . S
H634 C646 0.950 . S
H635 C647 0.950 . S
C636 H628 0.950 . S
C636 C637 1.386 . S
C636 C638 1.391 . S
C637 C636 1.386 . S
C637 C641 1.393 . S
C638 H630 0.950 . S
C638 C636 1.391 . S
C638 C639 1.400 . S
C639 C638 1.400 . S
C639 C640 1.398 . S
C639 C645 1.491 . S
C640 H631 0.950 . S
C640 C639 1.398 . S
C640 C641 1.391 . S
C641 H629 0.950 . S
C641 C637 1.393 . S
C641 C640 1.391 . S
C642 H632 0.950 . S
C642 C643 1.386 . S
C642 C644 1.391 . S
C643 C642 1.386 . S
C643 C647 1.393 . S
C644 H633 0.950 . S
C644 C642 1.391 . S
C644 C645 1.400 . S
C645 C639 1.491 . S
C645 C644 1.400 . S
C645 C646 1.398 . S
C646 H634 0.950 . S
C646 C645 1.398 . S
C646 C647 1.391 . S
C647 H635 0.950 . S
C647 C643 1.393 . S
C647 C646 1.391 . S
H648 C656 0.950 . S
H649 C661 0.950 . S
H650 C658 0.950 . S
H651 C660 0.950 . S
H652 C662 0.950 . S
H653 C664 0.950 . S
H654 C666 0.950 . S
H655 C667 0.950 . S
C656 H648 0.950 . S
C656 C657 1.386 . S
C656 C658 1.391 . S
C657 C656 1.386 . S
C657 C661 1.393 1_655 S
C658 H650 0.950 . S
C658 C656 1.391 . S
C658 C659 1.400 . S
C659 C658 1.400 . S
C659 C660 1.398 1_655 S
C659 C665 1.491 . S
C660 H651 0.950 . S
C660 C659 1.398 1_455 S
C660 C661 1.391 . S
C661 H649 0.950 . S
C661 C657 1.393 1_455 S
C661 C660 1.391 . S
C662 H652 0.950 . S
C662 C663 1.386 1_455 S
C662 C664 1.391 . S
C663 C662 1.386 1_655 S
C663 C667 1.393 . S
C664 H653 0.950 . S
C664 C662 1.391 . S
C664 C665 1.400 1_455 S
C665 C659 1.491 . S
C665 C664 1.400 1_655 S
C665 C666 1.398 . S
C666 H654 0.950 . S
C666 C665 1.398 . S
C666 C667 1.391 . S
C667 H655 0.950 . S
C667 C663 1.393 . S
C667 C666 1.391 . S
H668 C676 0.950 . S
H669 C681 0.950 . S
H670 C678 0.950 . S
H671 C680 0.950 . S
H672 C682 0.960 . S
H673 C684 0.950 . S
H674 C686 0.950 . S
H675 C687 0.950 . S
C676 H668 0.950 . S
C676 C677 1.386 . S
C676 C678 1.391 . S
C677 C676 1.386 . S
C677 C681 1.393 1_565 S
C678 H670 0.950 . S
C678 C676 1.391 . S
C678 C679 1.400 . S
C679 C678 1.400 . S
C679 C680 1.398 1_565 S
C679 C685 1.491 . S
C680 H671 0.950 . S
C680 C679 1.398 1_545 S
C680 C681 1.391 . S
C681 H669 0.950 . S
C681 C677 1.393 1_545 S
C681 C680 1.391 . S
C682 H672 0.960 . S
C682 C683 1.375 1_545 S
C682 C684 1.393 . S
C683 C682 1.375 1_565 S
C683 C687 1.393 . S
C684 H673 0.950 . S
C684 C682 1.393 . S
C684 C685 1.400 1_545 S
C685 C679 1.491 . S
C685 C684 1.400 1_565 S
C685 C686 1.398 . S
C686 H674 0.950 . S
C686 C685 1.398 . S
C686 C687 1.391 . S
C687 H675 0.950 . S
C687 C683 1.393 . S
C687 C686 1.391 . S
H688 C696 0.950 . S
H689 C701 0.950 . S
H690 C698 0.950 . S
H691 C700 0.950 . S
H692 C702 0.950 . S
H693 C704 0.950 . S
H694 C706 0.950 . S
H695 C707 0.950 . S
C696 H688 0.950 . S
C696 C697 1.386 . S
C696 C698 1.391 . S
C697 C696 1.386 . S
C697 C701 1.393 . S
C698 H690 0.950 . S
C698 C696 1.391 . S
C698 C699 1.400 . S
C699 C698 1.400 . S
C699 C700 1.398 . S
C699 C705 1.491 . S
C700 H691 0.950 . S
C700 C699 1.398 . S
C700 C701 1.391 . S
C701 H689 0.950 . S
C701 C697 1.393 . S
C701 C700 1.391 . S
C702 H692 0.950 . S
C702 C703 1.386 . S
C702 C704 1.391 . S
C703 C702 1.386 . S
C703 C707 1.393 . S
C704 H693 0.950 . S
C704 C702 1.391 . S
C704 C705 1.400 . S
C705 C699 1.491 . S
C705 C704 1.400 . S
C705 C706 1.398 . S
C706 H694 0.950 . S
C706 C705 1.398 . S
C706 C707 1.391 . S
C707 H695 0.950 . S
C707 C703 1.393 . S
C707 C706 1.391 . S
H708 C716 0.950 . S
H709 C721 0.950 . S
H710 C718 0.950 . S
H711 C720 0.950 . S
H712 C722 0.950 . S
H713 C724 0.950 . S
H714 C726 0.950 . S
H715 C727 0.950 . S
C716 H708 0.950 . S
C716 C717 1.386 . S
C716 C718 1.391 . S
C717 C716 1.386 . S
C717 C721 1.393 . S
C718 H710 0.950 . S
C718 C716 1.391 . S
C718 C719 1.400 . S
C719 C718 1.400 . S
C719 C720 1.398 . S
C719 C725 1.491 . S
C720 H711 0.950 . S
C720 C719 1.398 . S
C720 C721 1.391 . S
C721 H709 0.950 . S
C721 C717 1.393 . S
C721 C720 1.391 . S
C722 H712 0.950 . S
C722 C723 1.386 . S
C722 C724 1.391 . S
C723 C722 1.386 . S
C723 C727 1.393 . S
C724 H713 0.950 . S
C724 C722 1.391 . S
C724 C725 1.400 . S
C725 C719 1.491 . S
C725 C724 1.400 . S
C725 C726 1.398 . S
C726 H714 0.950 . S
C726 C725 1.398 . S
C726 C727 1.391 . S
C727 H715 0.950 . S
C727 C723 1.393 . S
C727 C726 1.391 . S
C257 C76 1.815 1_545 S
C263 C90 1.963 1_545 S
C283 C130 1.978 . S
C277 C87 1.845 . S
C303 C170 1.985 . S
C297 C54 1.842 . S
C323 C210 1.974 1_455 S
C317 C65 1.823 . S
C343 C103 1.967 1_565 S
C337 C32 1.823 1_545 S
C357 C43 1.839 . S
C363 C143 1.982 . S
C377 C10 1.835 . S
C383 C183 1.979 . S
C397 C21 1.843 . S
C403 C223 1.970 1_655 S
C423 C114 0.449 . S
C417 C60 0.452 . S
C443 C154 0.447 . S
C437 C71 0.476 . S
C463 C194 0.482 . S
C457 C82 0.474 . S
C477 C49 0.480 . S
C483 C234 0.436 . S
C497 C16 0.465 1_655 S
C503 C97 0.439 . S
C523 C137 0.487 . S
C517 C27 0.520 1_565 S
C543 C177 0.484 . S
C537 C38 0.541 . S
C557 C5 0.509 . S
C563 C217 0.448 . S
C577 C59 2.025 . S
C583 C91 2.282 . S
C597 C70 1.998 . S
C603 C131 2.264 . S
C623 C171 2.250 . S
C617 C81 1.980 . S
C643 C211 2.277 . S
C637 C48 2.003 . S
C657 C15 2.053 1_655 S
C663 C110 2.300 . S
C683 C150 2.262 . S
C677 C26 2.017 1_565 S
C703 C190 2.254 . S
C697 C37 1.998 . S
C717 C4 2.025 . S
C723 C230 2.286 . S
