# Generated by pormake.
# Topology ssa, (4,4)-cn, num edge types: 1
# Building blocks:
#     Node 0, Type 0, BuildingBlock: NAWXER_clean_sbu_0, # of connection points: 4
#     Node 1, Type 0, BuildingBlock: NAWXER_clean_sbu_0, # of connection points: 4
#     Node 2, Type 0, BuildingBlock: NAWXER_clean_sbu_0, # of connection points: 4
#     Node 3, Type 0, BuildingBlock: NAWXER_clean_sbu_0, # of connection points: 4
#     Node 4, Type 0, BuildingBlock: NAWXER_clean_sbu_0, # of connection points: 4
#     Node 5, Type 0, BuildingBlock: NAWXER_clean_sbu_0, # of connection points: 4
#     Node 6, Type 1, BuildingBlock: NAHDIM_clean_linker_0, # of connection points: 4
#     Node 7, Type 1, BuildingBlock: NAHDIM_clean_linker_0, # of connection points: 4
#     Node 8, Type 1, BuildingBlock: NAHDIM_clean_linker_0, # of connection points: 4
#     Node 9, Type 1, BuildingBlock: NAHDIM_clean_linker_0, # of connection points: 4
#     Node 10, Type 1, BuildingBlock: NAHDIM_clean_linker_0, # of connection points: 4
#     Node 11, Type 1, BuildingBlock: NAHDIM_clean_linker_0, # of connection points: 4
#     Edge 12, Type (0, 1), BuildingBlock: AJUNOK_clean_linker_0, # of connection points: 2
#     Edge 13, Type (0, 1), BuildingBlock: AJUNOK_clean_linker_0, # of connection points: 2
#     Edge 14, Type (0, 1), BuildingBlock: AJUNOK_clean_linker_0, # of connection points: 2
#     Edge 15, Type (0, 1), BuildingBlock: AJUNOK_clean_linker_0, # of connection points: 2
#     Edge 16, Type (0, 1), BuildingBlock: AJUNOK_clean_linker_0, # of connection points: 2
#     Edge 17, Type (0, 1), BuildingBlock: AJUNOK_clean_linker_0, # of connection points: 2
#     Edge 18, Type (0, 1), BuildingBlock: AJUNOK_clean_linker_0, # of connection points: 2
#     Edge 19, Type (0, 1), BuildingBlock: AJUNOK_clean_linker_0, # of connection points: 2
#     Edge 20, Type (0, 1), BuildingBlock: AJUNOK_clean_linker_0, # of connection points: 2
#     Edge 21, Type (0, 1), BuildingBlock: AJUNOK_clean_linker_0, # of connection points: 2
#     Edge 22, Type (0, 1), BuildingBlock: AJUNOK_clean_linker_0, # of connection points: 2
#     Edge 23, Type (0, 1), BuildingBlock: AJUNOK_clean_linker_0, # of connection points: 2
#     Edge 24, Type (0, 1), BuildingBlock: AJUNOK_clean_linker_0, # of connection points: 2
#     Edge 25, Type (0, 1), BuildingBlock: AJUNOK_clean_linker_0, # of connection points: 2
#     Edge 26, Type (0, 1), BuildingBlock: AJUNOK_clean_linker_0, # of connection points: 2
#     Edge 27, Type (0, 1), BuildingBlock: AJUNOK_clean_linker_0, # of connection points: 2
#     Edge 28, Type (0, 1), BuildingBlock: AJUNOK_clean_linker_0, # of connection points: 2
#     Edge 29, Type (0, 1), BuildingBlock: AJUNOK_clean_linker_0, # of connection points: 2
#     Edge 30, Type (0, 1), BuildingBlock: AJUNOK_clean_linker_0, # of connection points: 2
#     Edge 31, Type (0, 1), BuildingBlock: AJUNOK_clean_linker_0, # of connection points: 2
#     Edge 32, Type (0, 1), BuildingBlock: AJUNOK_clean_linker_0, # of connection points: 2
#     Edge 33, Type (0, 1), BuildingBlock: AJUNOK_clean_linker_0, # of connection points: 2
#     Edge 34, Type (0, 1), BuildingBlock: AJUNOK_clean_linker_0, # of connection points: 2
#     Edge 35, Type (0, 1), BuildingBlock: AJUNOK_clean_linker_0, # of connection points: 2
# Relax obj value: 0.028
# Max RMSD: 0.057
# Mean RMSD: 0.044
data_MOF--net-ssa--node1-NAWXER_clean_sbu_0--node2-NAHDIM_clean_linker_0--edge1-AJUNOK_clean_linker_0
_symmetry_space_group_name_H-M    P1
_symmetry_Int_Tables_number       1
_symmetry_cell_setting            triclinic
loop_
_symmetry_equiv_pos_as_xyz
'x, y, z'
_cell_length_a     49.184476
_cell_length_b     49.213972
_cell_length_c     42.052266
_cell_angle_alpha  89.729944
_cell_angle_beta   90.519891
_cell_angle_gamma 119.9811
loop_
_atom_site_label
_atom_site_type_symbol
_atom_site_fract_x
_atom_site_fract_y
_atom_site_fract_z
_atom_type_partial_charge
C0 C 0.0716 0.53227 0.03362 0.0
C1 C 0.00878 0.43472 0.97504 0.0
O2 O 0.0441 0.51512 0.04498 0.0
Zn3 Zn 0.00271 0.47164 0.03506 0.0
O4 O 0.0801 0.52345 0.00914 0.0
Zn5 Zn 0.04108 0.48391 0.00386 0.0
O6 O 0.01002 0.5006 0.99008 0.0
O7 O 0.97277 0.48535 0.02593 0.0
O8 O 0.03676 0.45616 0.96943 0.0
O9 O 0.99405 0.43794 0.99843 0.0
O10 O 0.99867 0.44895 0.07372 0.0
O11 O 0.03983 0.45748 0.04533 0.0
C12 C 0.98527 0.49998 0.00035 0.0
C13 C 0.0226 0.44587 0.06998 0.0
C14 C 0.45108 0.00763 0.56766 0.0
C15 C 0.49914 0.96077 0.50397 0.0
O16 O 0.44733 0.98021 0.56993 0.0
Zn17 Zn 0.47373 0.98343 0.53514 0.0
O18 O 0.46958 0.02655 0.54647 0.0
Zn19 Zn 0.49911 0.02581 0.50917 0.0
O20 O 0.48115 0.03252 0.47097 0.0
O21 O 0.449 0.98808 0.4952 0.0
O22 O 0.50824 0.9892 0.49609 0.0
O23 O 0.47786 0.94735 0.52473 0.0
O24 O 0.51985 0.01574 0.55323 0.0
O25 O 0.54086 0.05753 0.5221 0.0
C26 C 0.4545 0.00776 0.47267 0.0
C27 C 0.54303 0.04268 0.54591 0.0
C28 C 0.47631 0.48167 0.9711 0.0
C29 C 0.53038 0.56905 0.04511 0.0
O30 O 0.47912 0.50873 0.96875 0.0
Zn31 Zn 0.5029 0.52554 0.00763 0.0
O32 O 0.48916 0.47549 0.99456 0.0
Zn33 Zn 0.51661 0.49847 0.03613 0.0
O34 O 0.48955 0.47183 0.0696 0.0
O35 O 0.4695 0.49662 0.04297 0.0
O36 O 0.53221 0.54493 0.05348 0.0
O37 O 0.51513 0.56786 0.0201 0.0
O38 O 0.54691 0.52962 0.99546 0.0
O39 O 0.55585 0.49943 0.02754 0.0
C40 C 0.46718 0.47726 0.06471 0.0
C41 C 0.56453 0.5187 0.00446 0.0
C42 C 0.03699 0.56669 0.46983 0.0
C43 C 0.97838 0.47017 0.53094 0.0
O44 O 0.05175 0.56611 0.49488 0.0
Zn45 Zn 0.0446 0.53452 0.53335 0.0
O46 O 0.01041 0.54309 0.46327 0.0
Zn47 Zn 0.00723 0.51784 0.49994 0.0
O48 O 0.00444 0.54494 0.53888 0.0
O49 O 0.04551 0.55796 0.57012 0.0
O50 O 0.96981 0.47728 0.5051 0.0
O51 O 0.005 0.48933 0.54353 0.0
O52 O 0.07786 0.52491 0.52831 0.0
O53 O 0.04117 0.50334 0.4913 0.0
C54 C 0.02053 0.55867 0.56391 0.0
C55 C 0.0667 0.50735 0.50404 0.0
C56 C 0.56237 0.02413 0.06897 0.0
C57 C 0.523 0.07083 0.99221 0.0
O58 O 0.57006 0.05289 0.06723 0.0
Zn59 Zn 0.54507 0.04875 0.02984 0.0
O60 O 0.54412 0.0046 0.04793 0.0
Zn61 Zn 0.51946 0.00497 0.00565 0.0
O62 O 0.53961 0.99489 0.97217 0.0
O63 O 0.5707 0.04124 0.99344 0.0
O64 O 0.51388 0.04204 0.98614 0.0
O65 O 0.54162 0.0844 0.01541 0.0
O66 O 0.49826 0.01788 0.04658 0.0
O67 O 0.47653 0.97511 0.01684 0.0
C68 C 0.56623 0.01979 0.97345 0.0
C69 C 0.47477 0.99088 0.03982 0.0
C70 C 0.57052 0.504 0.52414 0.0
C71 C 0.48769 0.47138 0.44459 0.0
O72 O 0.54815 0.5083 0.53317 0.0
Zn73 Zn 0.5044 0.50113 0.51462 0.0
O74 O 0.56908 0.49168 0.49725 0.0
Zn75 Zn 0.52884 0.48623 0.48428 0.0
O76 O 0.54017 0.53441 0.47864 0.0
O77 O 0.51174 0.54329 0.51285 0.0
O78 O 0.51144 0.46772 0.44313 0.0
O79 O 0.48297 0.4835 0.46929 0.0
O80 O 0.47362 0.47197 0.54397 0.0
O81 O 0.49597 0.45083 0.51577 0.0
C82 C 0.53215 0.55317 0.49096 0.0
C83 C 0.47628 0.44838 0.53692 0.0
C84 C 0.11759 0.41041 0.49419 0.0
C85 C 0.12564 0.43429 0.4674 0.0
C86 C 0.13515 0.4185 0.41597 0.0
C87 C 0.16038 0.44659 0.40483 0.0
C88 C 0.18125 0.44628 0.38251 0.0
C89 C 0.17691 0.41721 0.37142 0.0
C90 C 0.15079 0.38886 0.38186 0.0
C91 C 0.12988 0.38992 0.40369 0.0
C92 C 0.20837 0.47702 0.37129 0.0
C93 C 0.14552 0.35752 0.37063 0.0
C94 C 0.40731 0.43141 0.41886 0.0
C95 C 0.37577 0.41584 0.40342 0.0
C96 C 0.33282 0.42708 0.39662 0.0
C97 C 0.3128 0.40069 0.37833 0.0
C98 C 0.28615 0.3985 0.36333 0.0
C99 C 0.28027 0.42387 0.36561 0.0
C100 C 0.30053 0.45047 0.38411 0.0
C101 C 0.32617 0.45136 0.3999 0.0
C102 C 0.26441 0.36905 0.34507 0.0
C103 C 0.29541 0.47814 0.38709 0.0
C104 C 0.33422 0.45214 0.16288 0.0
C105 C 0.31469 0.4215 0.17419 0.0
C106 C 0.28629 0.41337 0.18938 0.0
C107 C 0.27774 0.43658 0.19425 0.0
C108 C 0.29705 0.46724 0.18228 0.0
C109 C 0.32486 0.47447 0.16641 0.0
C110 C 0.26582 0.38016 0.20094 0.0
C111 C 0.28877 0.49261 0.18704 0.0
C112 C 0.02355 0.35062 0.1754 0.0
C113 C 0.054 0.38074 0.16749 0.0
C114 C 0.10553 0.38459 0.17093 0.0
C115 C 0.11772 0.36448 0.17394 0.0
C116 C 0.14715 0.37464 0.18812 0.0
C117 C 0.16525 0.4061 0.19859 0.0
C118 C 0.15387 0.42717 0.19367 0.0
C119 C 0.12388 0.41609 0.18019 0.0
C120 C 0.15856 0.35151 0.19257 0.0
C121 C 0.17314 0.46121 0.20314 0.0
C122 C 0.20111 0.4168 0.35086 0.0
C123 C 0.22748 0.41864 0.36583 0.0
C124 C 0.25326 0.42275 0.34827 0.0
C125 C 0.25308 0.42581 0.31483 0.0
C126 C 0.27974 0.43316 0.29667 0.0
C127 C 0.27902 0.43511 0.26373 0.0
C128 C 0.25139 0.42912 0.24757 0.0
C129 C 0.25 0.42953 0.21396 0.0
C130 C 0.22195 0.42288 0.19869 0.0
C131 C 0.19517 0.41618 0.21613 0.0
C132 C 0.1965 0.41673 0.2498 0.0
C133 C 0.17043 0.41122 0.2682 0.0
C134 C 0.1721 0.41202 0.3013 0.0
C135 C 0.19934 0.41677 0.31727 0.0
C136 C 0.22562 0.42168 0.29922 0.0
C137 C 0.22454 0.42263 0.2655 0.0
C138 C 0.40628 0.45933 0.12709 0.0
C139 C 0.37807 0.44456 0.14791 0.0
O140 O 0.11568 0.41846 0.43863 0.0
O141 O 0.07622 0.37284 0.15854 0.0
O142 O 0.36211 0.46116 0.14851 0.0
O143 O 0.35852 0.42995 0.41185 0.0
H144 H 0.15165 0.44975 0.46772 0.0
H145 H 0.1295 0.39661 0.49011 0.0
H146 H 0.09187 0.39396 0.49515 0.0
H147 H 0.12571 0.42257 0.51747 0.0
H148 H 0.16377 0.46871 0.41372 0.0
H149 H 0.11002 0.36839 0.41223 0.0
H150 H 0.23073 0.47931 0.38018 0.0
H151 H 0.20675 0.4975 0.37977 0.0
H152 H 0.20922 0.47755 0.34491 0.0
H153 H 0.12396 0.33761 0.38082 0.0
H154 H 0.16598 0.35494 0.37743 0.0
H155 H 0.14357 0.35624 0.3443 0.0
H156 H 0.36239 0.38977 0.40527 0.0
H157 H 0.40728 0.41287 0.4347 0.0
H158 H 0.40639 0.44571 0.43925 0.0
H159 H 0.43844 0.45153 0.38079 0.0
H160 H 0.31756 0.38155 0.37619 0.0
H161 H 0.34174 0.47151 0.41431 0.0
H162 H 0.23948 0.36197 0.34933 0.0
H163 H 0.26806 0.34921 0.35168 0.0
H164 H 0.2689 0.37349 0.31924 0.0
H165 H 0.31635 0.49908 0.39709 0.0
H166 H 0.27534 0.47183 0.40317 0.0
H167 H 0.28962 0.48443 0.36359 0.0
H168 H 0.38193 0.43766 0.1721 0.0
H169 H 0.32146 0.40385 0.17131 0.0
H170 H 0.33994 0.49796 0.15738 0.0
H171 H 0.26769 0.37952 0.22722 0.0
H172 H 0.27282 0.36383 0.19062 0.0
H173 H 0.24083 0.37166 0.1948 0.0
H174 H 0.3068 0.51555 0.17718 0.0
H175 H 0.28615 0.49551 0.21281 0.0
H176 H 0.2659 0.48567 0.17533 0.0
H177 H 0.06171 0.39518 0.18959 0.0
H178 H 0.00543 0.35613 0.1836 0.0
H179 H 0.02794 0.33781 0.19476 0.0
H180 H 0.01445 0.33509 0.15421 0.0
H181 H 0.10354 0.34038 0.1661 0.0
H182 H 0.1149 0.432 0.1767 0.0
H183 H 0.16468 0.35084 0.21793 0.0
H184 H 0.18015 0.35915 0.17844 0.0
H185 H 0.14077 0.32742 0.185 0.0
H186 H 0.16318 0.47546 0.19348 0.0
H187 H 0.19763 0.47122 0.19465 0.0
H188 H 0.17404 0.4631 0.22946 0.0
H189 H 0.22818 0.41747 0.39158 0.0
H190 H 0.30155 0.43761 0.30773 0.0
H191 H 0.30033 0.44093 0.25111 0.0
H192 H 0.22079 0.42244 0.17291 0.0
H193 H 0.14852 0.40657 0.25727 0.0
H194 H 0.15152 0.40812 0.31423 0.0
H195 H 0.42682 0.4664 0.14371 0.0
H196 H 0.41174 0.48412 0.1224 0.0
H197 H 0.39491 0.42636 0.0908 0.0
C198 C 0.94488 0.29146 0.92712 0.0
C199 C 0.94442 0.31598 0.90476 0.0
C200 C 0.8931 0.28615 0.87731 0.0
C201 C 0.90018 0.26625 0.85971 0.0
C202 C 0.87749 0.24292 0.83981 0.0
C203 C 0.84749 0.24007 0.83664 0.0
C204 C 0.84055 0.26049 0.85382 0.0
C205 C 0.86339 0.28305 0.87412 0.0
C206 C 0.88555 0.2212 0.8223 0.0
C207 C 0.80899 0.25846 0.8508 0.0
C208 C 0.66178 0.00942 0.86834 0.0
C209 C 0.66711 0.03854 0.88681 0.0
C210 C 0.69588 0.08625 0.8544 0.0
C211 C 0.69376 0.11176 0.84287 0.0
C212 C 0.71989 0.13803 0.82996 0.0
C213 C 0.74872 0.13829 0.8275 0.0
C214 C 0.75116 0.11261 0.83931 0.0
C215 C 0.72474 0.08688 0.85284 0.0
C216 C 0.71645 0.1653 0.81851 0.0
C217 C 0.78146 0.11203 0.83688 0.0
C218 C 0.70513 0.10705 0.61833 0.0
C219 C 0.69654 0.12512 0.63683 0.0
C220 C 0.71893 0.14983 0.65563 0.0
C221 C 0.75025 0.15575 0.65662 0.0
C222 C 0.75891 0.13766 0.63758 0.0
C223 C 0.73628 0.11395 0.61811 0.0
C224 C 0.70904 0.16935 0.67458 0.0
C225 C 0.79194 0.14308 0.63794 0.0
C226 C 0.95575 0.35295 0.61075 0.0
C227 C 0.92599 0.35004 0.59518 0.0
C228 C 0.88388 0.31763 0.63285 0.0
C229 C 0.86107 0.31719 0.65275 0.0
C230 C 0.83962 0.28974 0.66875 0.0
C231 C 0.84201 0.26234 0.66585 0.0
C232 C 0.86529 0.26271 0.64599 0.0
C233 C 0.88542 0.29005 0.62912 0.0
C234 C 0.81432 0.2901 0.6885 0.0
C235 C 0.86883 0.23415 0.64208 0.0
C236 C 0.8233 0.2157 0.81547 0.0
C237 C 0.7994 0.18841 0.8295 0.0
C238 C 0.7756 0.16478 0.81106 0.0
C239 C 0.77612 0.16786 0.7776 0.0
C240 C 0.75368 0.1437 0.75822 0.0
C241 C 0.75334 0.1475 0.72547 0.0
C242 C 0.77504 0.17584 0.71088 0.0
C243 C 0.7739 0.18052 0.6778 0.0
C244 C 0.7958 0.209 0.66411 0.0
C245 C 0.81943 0.23295 0.68241 0.0
C246 C 0.82123 0.22855 0.7155 0.0
C247 C 0.84505 0.25177 0.73462 0.0
C248 C 0.84587 0.24763 0.76733 0.0
C249 C 0.82314 0.21991 0.78215 0.0
C250 C 0.79942 0.19587 0.76319 0.0
C251 C 0.79859 0.20009 0.72983 0.0
C252 C 0.65162 0.02769 0.60466 0.0
C253 C 0.65478 0.05972 0.61101 0.0
O254 O 0.91377 0.30831 0.89784 0.0
O255 O 0.90382 0.34508 0.61804 0.0
O256 O 0.68382 0.08285 0.6004 0.0
O257 O 0.66933 0.06136 0.86591 0.0
H258 H 0.95666 0.31698 0.88231 0.0
H259 H 0.93339 0.26796 0.91585 0.0
H260 H 0.9323 0.28974 0.94953 0.0
H261 H 0.96948 0.29799 0.933 0.0
H262 H 0.92315 0.26849 0.86152 0.0
H263 H 0.85815 0.29853 0.88767 0.0
H264 H 0.86708 0.1964 0.82618 0.0
H265 H 0.90855 0.22415 0.82996 0.0
H266 H 0.88647 0.22592 0.79638 0.0
H267 H 0.80849 0.27817 0.86301 0.0
H268 H 0.79069 0.23609 0.86137 0.0
H269 H 0.80282 0.25849 0.82533 0.0
H270 H 0.68938 0.04703 0.9005 0.0
H271 H 0.656 0.98965 0.88491 0.0
H272 H 0.68342 0.01461 0.85539 0.0
H273 H 0.64266 0.00226 0.85045 0.0
H274 H 0.67142 0.11106 0.84418 0.0
H275 H 0.72664 0.06711 0.86134 0.0
H276 H 0.71596 0.16544 0.79212 0.0
H277 H 0.73674 0.18788 0.82653 0.0
H278 H 0.6945 0.16386 0.82716 0.0
H279 H 0.77913 0.08964 0.84564 0.0
H280 H 0.80002 0.13163 0.85101 0.0
H281 H 0.7893 0.11555 0.81176 0.0
H282 H 0.65311 0.06161 0.63727 0.0
H283 H 0.67242 0.12007 0.63627 0.0
H284 H 0.74259 0.09995 0.6034 0.0
H285 H 0.70802 0.16331 0.70016 0.0
H286 H 0.68556 0.16526 0.6671 0.0
H287 H 0.72642 0.1947 0.67198 0.0
H288 H 0.7935 0.12378 0.62608 0.0
H289 H 0.80085 0.14546 0.66272 0.0
H290 H 0.80748 0.16525 0.62523 0.0
H291 H 0.91603 0.32999 0.57829 0.0
H292 H 0.97372 0.35789 0.59235 0.0
H293 H 0.95072 0.331 0.62305 0.0
H294 H 0.96573 0.37216 0.6286 0.0
H295 H 0.85982 0.33844 0.65532 0.0
H296 H 0.90234 0.28953 0.6133 0.0
H297 H 0.82013 0.29045 0.7141 0.0
H298 H 0.7913 0.26868 0.68406 0.0
H299 H 0.81199 0.31102 0.68343 0.0
H300 H 0.89244 0.24045 0.63309 0.0
H301 H 0.85113 0.21814 0.62457 0.0
H302 H 0.86489 0.22128 0.66488 0.0
H303 H 0.79892 0.18586 0.85517 0.0
H304 H 0.73608 0.12154 0.76817 0.0
H305 H 0.73551 0.12806 0.71182 0.0
H306 H 0.79458 0.21249 0.63875 0.0
H307 H 0.8632 0.27355 0.72455 0.0
H308 H 0.86445 0.26655 0.78087 0.0
H309 H 0.65314 0.02424 0.57877 0.0
H310 H 0.62882 0.0086 0.61365 0.0
H311 H 0.6708 0.02609 0.61709 0.0
C312 C 0.62772 0.7014 0.47611 0.0
C313 C 0.6002 0.68519 0.45275 0.0
C314 C 0.60597 0.70499 0.39899 0.0
C315 C 0.57528 0.69794 0.39175 0.0
C316 C 0.56973 0.7166 0.37033 0.0
C317 C 0.59551 0.7432 0.35649 0.0
C318 C 0.62645 0.74925 0.36251 0.0
C319 C 0.63119 0.72956 0.38327 0.0
C320 C 0.53639 0.70878 0.36377 0.0
C321 C 0.65463 0.77762 0.34871 0.0
C322 C 0.57392 0.88453 0.48721 0.0
C323 C 0.56541 0.89772 0.45811 0.0
C324 C 0.55604 0.85994 0.41529 0.0
C325 C 0.58768 0.86852 0.41081 0.0
C326 C 0.59604 0.85317 0.38817 0.0
C327 C 0.57233 0.82857 0.3699 0.0
C328 C 0.54053 0.81996 0.37421 0.0
C329 C 0.53287 0.83592 0.39676 0.0
C330 C 0.63018 0.86297 0.38403 0.0
C331 C 0.51462 0.79355 0.35537 0.0
C332 C 0.58735 0.91199 0.17622 0.0
C333 C 0.61606 0.91675 0.18859 0.0
C334 C 0.61866 0.89143 0.20057 0.0
C335 C 0.59197 0.86095 0.20058 0.0
C336 C 0.56323 0.85611 0.18772 0.0
C337 C 0.56142 0.8817 0.1755 0.0
C338 C 0.64983 0.89727 0.21357 0.0
C339 C 0.53428 0.82397 0.18733 0.0
C340 C 0.64144 0.69394 0.10989 0.0
C341 C 0.6075 0.6829 0.11932 0.0
C342 C 0.60045 0.72532 0.13762 0.0
C343 C 0.62836 0.7517 0.14745 0.0
C344 C 0.62813 0.77189 0.17079 0.0
C345 C 0.59924 0.76556 0.18416 0.0
C346 C 0.57097 0.73885 0.17411 0.0
C347 C 0.57196 0.71902 0.15085 0.0
C348 C 0.65863 0.80022 0.1808 0.0
C349 C 0.53969 0.7316 0.18752 0.0
C350 C 0.59049 0.7673 0.34046 0.0
C351 C 0.58431 0.78641 0.36004 0.0
C352 C 0.58057 0.81063 0.34753 0.0
C353 C 0.58406 0.81686 0.31457 0.0
C354 C 0.58199 0.84208 0.30144 0.0
C355 C 0.58534 0.84796 0.26893 0.0
C356 C 0.59059 0.82867 0.24828 0.0
C357 C 0.5937 0.83431 0.21515 0.0
C358 C 0.5973 0.81377 0.19512 0.0
C359 C 0.59823 0.78774 0.20728 0.0
C360 C 0.59659 0.7825 0.2405 0.0
C361 C 0.59871 0.75729 0.25371 0.0
C362 C 0.59679 0.75224 0.28646 0.0
C363 C 0.59242 0.77205 0.30716 0.0
C364 C 0.5897 0.7973 0.29427 0.0
C365 C 0.59243 0.8029 0.261 0.0
C366 C 0.60446 0.97987 0.19994 0.0
C367 C 0.60355 0.96769 0.16625 0.0
O368 O 0.61181 0.68926 0.42208 0.0
O369 O 0.60063 0.70665 0.11424 0.0
O370 O 0.58326 0.93557 0.16478 0.0
O371 O 0.54665 0.87374 0.43725 0.0
H372 H 0.58582 0.69677 0.45536 0.0
H373 H 0.64156 0.72684 0.47053 0.0
H374 H 0.64343 0.69129 0.47448 0.0
H375 H 0.61899 0.69873 0.50086 0.0
H376 H 0.55578 0.67829 0.40347 0.0
H377 H 0.65477 0.73445 0.38889 0.0
H378 H 0.53116 0.72455 0.37799 0.0
H379 H 0.51924 0.68416 0.37029 0.0
H380 H 0.53315 0.71248 0.33826 0.0
H381 H 0.67713 0.77987 0.35717 0.0
H382 H 0.65424 0.79927 0.35522 0.0
H383 H 0.65381 0.776 0.32239 0.0
H384 H 0.58732 0.91485 0.44592 0.0
H385 H 0.58746 0.87312 0.47994 0.0
H386 H 0.5524 0.86682 0.49959 0.0
H387 H 0.58864 0.90374 0.5041 0.0
H388 H 0.60607 0.88687 0.42497 0.0
H389 H 0.50856 0.82942 0.40034 0.0
H390 H 0.63412 0.84363 0.39188 0.0
H391 H 0.64604 0.88436 0.39792 0.0
H392 H 0.63657 0.86749 0.35851 0.0
H393 H 0.49097 0.78906 0.36228 0.0
H394 H 0.51564 0.7717 0.35891 0.0
H395 H 0.51792 0.79929 0.32963 0.0
H396 H 0.62756 0.97312 0.15944 0.0
H397 H 0.63644 0.94002 0.18908 0.0
H398 H 0.53945 0.87828 0.16574 0.0
H399 H 0.64802 0.89326 0.23965 0.0
H400 H 0.66905 0.92158 0.20891 0.0
H401 H 0.65605 0.88053 0.20287 0.0
H402 H 0.51327 0.82448 0.17819 0.0
H403 H 0.52933 0.81394 0.21171 0.0
H404 H 0.5384 0.80806 0.17207 0.0
H405 H 0.60505 0.67666 0.14509 0.0
H406 H 0.6466 0.67447 0.11256 0.0
H407 H 0.65791 0.71341 0.12559 0.0
H408 H 0.64569 0.70225 0.08485 0.0
H409 H 0.65023 0.75671 0.1365 0.0
H410 H 0.55052 0.69865 0.1427 0.0
H411 H 0.66103 0.80085 0.20711 0.0
H412 H 0.65857 0.82187 0.17335 0.0
H413 H 0.67932 0.80041 0.17016 0.0
H414 H 0.51979 0.71057 0.17634 0.0
H415 H 0.53608 0.75195 0.18393 0.0
H416 H 0.53946 0.72749 0.21352 0.0
H417 H 0.58234 0.78234 0.38553 0.0
H418 H 0.57791 0.85764 0.3162 0.0
H419 H 0.58354 0.86773 0.2602 0.0
H420 H 0.59876 0.81775 0.16963 0.0
H421 H 0.60203 0.74128 0.23885 0.0
H422 H 0.59859 0.73252 0.29541 0.0
H423 H 0.62027 0.0057 0.20083 0.0
H424 H 0.61351 0.96902 0.21709 0.0
H425 H 0.5806 0.97419 0.2075 0.0
C426 C 0.71307 0.57104 0.9731 0.0
C427 C 0.68862 0.56542 0.94712 0.0
C428 C 0.71065 0.55207 0.90135 0.0
C429 C 0.73468 0.58284 0.89461 0.0
C430 C 0.75807 0.58849 0.87242 0.0
C431 C 0.75778 0.56294 0.85685 0.0
C432 C 0.7331 0.53207 0.86268 0.0
C433 C 0.70968 0.5271 0.88464 0.0
C434 C 0.78382 0.62179 0.86646 0.0
C435 C 0.73216 0.50427 0.84661 0.0
C436 C 0.97483 0.61498 0.93789 0.0
C437 C 0.94601 0.58192 0.93891 0.0
C438 C 0.91141 0.57368 0.89295 0.0
C439 C 0.89508 0.5518 0.8691 0.0
C440 C 0.87081 0.55233 0.85194 0.0
C441 C 0.86409 0.57676 0.85749 0.0
C442 C 0.88096 0.59939 0.88138 0.0
C443 C 0.904 0.5972 0.89935 0.0
C444 C 0.8524 0.5265 0.82813 0.0
C445 C 0.87486 0.62601 0.88792 0.0
C446 C 0.93276 0.62213 0.65579 0.0
C447 C 0.91537 0.59171 0.66816 0.0
C448 C 0.88667 0.582 0.68352 0.0
C449 C 0.87577 0.60357 0.6874 0.0
C450 C 0.89318 0.63412 0.67438 0.0
C451 C 0.92114 0.64274 0.65817 0.0
C452 C 0.86815 0.54874 0.69562 0.0
C453 C 0.88245 0.65783 0.67772 0.0
C454 C 0.66297 0.58387 0.6344 0.0
C455 C 0.67557 0.5686 0.61148 0.0
C456 C 0.71001 0.55755 0.64548 0.0
C457 C 0.71391 0.53368 0.65887 0.0
C458 C 0.7404 0.54052 0.67748 0.0
C459 C 0.76325 0.57219 0.68348 0.0
C460 C 0.75953 0.59654 0.67004 0.0
C461 C 0.73321 0.58901 0.65083 0.0
C462 C 0.74395 0.51388 0.69069 0.0
C463 C 0.78334 0.63057 0.67601 0.0
C464 C 0.78534 0.56846 0.83774 0.0
C465 C 0.81098 0.57033 0.8543 0.0
C466 C 0.83893 0.578 0.83883 0.0
C467 C 0.84165 0.58449 0.80585 0.0
C468 C 0.87018 0.59481 0.78994 0.0
C469 C 0.87206 0.59896 0.75714 0.0
C470 C 0.84534 0.59244 0.73893 0.0
C471 C 0.84646 0.59446 0.70533 0.0
C472 C 0.81936 0.58777 0.6881 0.0
C473 C 0.79122 0.57978 0.70348 0.0
C474 C 0.78986 0.57831 0.73709 0.0
C475 C 0.7623 0.57145 0.75348 0.0
C476 C 0.76091 0.56888 0.78653 0.0
C477 C 0.78683 0.57253 0.80434 0.0
C478 C 0.81511 0.58039 0.78835 0.0
C479 C 0.8168 0.58382 0.75477 0.0
C480 C 0.01403 0.65942 0.65591 0.0
C481 C 0.98458 0.62739 0.65119 0.0
O482 O 0.68846 0.54533 0.924 0.0
O483 O 0.68355 0.54907 0.62793 0.0
O484 O 0.96039 0.63202 0.64071 0.0
O485 O 0.93458 0.5716 0.90851 0.0
H486 H 0.69549 0.58865 0.93657 0.0
H487 H 0.7107 0.58406 0.99341 0.0
H488 H 0.71054 0.54855 0.98177 0.0
H489 H 0.73713 0.58531 0.9635 0.0
H490 H 0.73587 0.60268 0.90678 0.0
H491 H 0.691 0.50347 0.8897 0.0
H492 H 0.80621 0.62522 0.87669 0.0
H493 H 0.77869 0.63928 0.87728 0.0
H494 H 0.78726 0.62635 0.84051 0.0
H495 H 0.71092 0.4818 0.85298 0.0
H496 H 0.7533 0.50291 0.85352 0.0
H497 H 0.73266 0.50726 0.8204 0.0
H498 H 0.92758 0.58258 0.95354 0.0
H499 H 0.98416 0.62286 0.96233 0.0
H500 H 0.96859 0.63198 0.92772 0.0
H501 H 0.99366 0.61553 0.92305 0.0
H502 H 0.90096 0.5337 0.86445 0.0
H503 H 0.91647 0.61426 0.91784 0.0
H504 H 0.86164 0.53494 0.80393 0.0
H505 H 0.82714 0.51942 0.82818 0.0
H506 H 0.85453 0.50544 0.83306 0.0
H507 H 0.89414 0.645 0.90204 0.0
H508 H 0.8528 0.61698 0.90158 0.0
H509 H 0.87196 0.63614 0.86535 0.0
H510 H 0.97878 0.61545 0.67479 0.0
H511 H 0.92398 0.57546 0.66536 0.0
H512 H 0.93459 0.666 0.64801 0.0
H513 H 0.8709 0.54861 0.72182 0.0
H514 H 0.8763 0.53341 0.68509 0.0
H515 H 0.84277 0.53864 0.6902 0.0
H516 H 0.90097 0.68181 0.67078 0.0
H517 H 0.87541 0.65849 0.7026 0.0
H518 H 0.86165 0.65087 0.66218 0.0
H519 H 0.6967 0.5873 0.59939 0.0
H520 H 0.65591 0.59889 0.62097 0.0
H521 H 0.68111 0.59886 0.65207 0.0
H522 H 0.64233 0.56572 0.64758 0.0
H523 H 0.69607 0.5095 0.65451 0.0
H524 H 0.73097 0.60791 0.64039 0.0
H525 H 0.74171 0.51322 0.71695 0.0
H526 H 0.76762 0.51759 0.68518 0.0
H527 H 0.72597 0.49078 0.68098 0.0
H528 H 0.77509 0.6466 0.66735 0.0
H529 H 0.80545 0.63653 0.66361 0.0
H530 H 0.78877 0.63474 0.70182 0.0
H531 H 0.80912 0.5657 0.87968 0.0
H532 H 0.89134 0.5996 0.80269 0.0
H533 H 0.89461 0.60676 0.7462 0.0
H534 H 0.82017 0.58879 0.66232 0.0
H535 H 0.74145 0.56785 0.7409 0.0
H536 H 0.73907 0.56334 0.79791 0.0
H537 H 0.0337 0.65661 0.66524 0.0
H538 H 0.00928 0.6734 0.67334 0.0
H539 H 0.0212 0.67251 0.63306 0.0
C540 C 0.08874 0.7082 0.4227 0.0
C541 C 0.09186 0.68561 0.39997 0.0
C542 C 0.14225 0.71993 0.37315 0.0
C543 C 0.13232 0.73797 0.35578 0.0
C544 C 0.15331 0.76271 0.33621 0.0
C545 C 0.18456 0.76895 0.33316 0.0
C546 C 0.19443 0.75048 0.35017 0.0
C547 C 0.17318 0.7264 0.37012 0.0
C548 C 0.1421 0.78224 0.31883 0.0
C549 C 0.22742 0.75613 0.34724 0.0
C550 C 0.35217 0.00695 0.36847 0.0
C551 C 0.35102 0.97821 0.38415 0.0
C552 C 0.3262 0.93149 0.3501 0.0
C553 C 0.33145 0.90803 0.33846 0.0
C554 C 0.3068 0.88008 0.32601 0.0
C555 C 0.27625 0.87609 0.32396 0.0
C556 C 0.27068 0.89972 0.33581 0.0
C557 C 0.29569 0.92713 0.349 0.0
C558 C 0.31363 0.85506 0.31461 0.0
C559 C 0.2385 0.89637 0.33374 0.0
C560 C 0.31441 0.90962 0.11383 0.0
C561 C 0.3266 0.89447 0.13246 0.0
C562 C 0.30682 0.86893 0.15182 0.0
C563 C 0.27443 0.85916 0.15319 0.0
C564 C 0.26217 0.87438 0.13409 0.0
C565 C 0.28231 0.89904 0.1141 0.0
C566 C 0.32058 0.85261 0.17095 0.0
C567 C 0.22789 0.86492 0.13505 0.0
C568 C 0.08733 0.64728 0.10695 0.0
C569 C 0.11855 0.65264 0.09324 0.0
C570 C 0.15806 0.68991 0.13103 0.0
C571 C 0.18139 0.69405 0.15284 0.0
C572 C 0.19978 0.72282 0.1684 0.0
C573 C 0.19347 0.74763 0.16317 0.0
C574 C 0.16968 0.7435 0.14123 0.0
C575 C 0.1529 0.71506 0.12474 0.0
C576 C 0.22602 0.72652 0.19016 0.0
C577 C 0.16202 0.76914 0.13468 0.0
C578 C 0.20688 0.79464 0.31205 0.0
C579 C 0.22892 0.82308 0.32607 0.0
C580 C 0.25085 0.84804 0.30761 0.0
C581 C 0.2502 0.84505 0.27415 0.0
C582 C 0.2705 0.87037 0.25474 0.0
C583 C 0.271 0.86676 0.22202 0.0
C584 C 0.2517 0.83751 0.20754 0.0
C585 C 0.25329 0.83312 0.17455 0.0
C586 C 0.23421 0.80359 0.16107 0.0
C587 C 0.21265 0.77829 0.1794 0.0
C588 C 0.21003 0.78247 0.2123 0.0
C589 C 0.18783 0.75796 0.23135 0.0
C590 C 0.18657 0.7619 0.26397 0.0
C591 C 0.20723 0.79063 0.27876 0.0
C592 C 0.22903 0.81595 0.2598 0.0
C593 C 0.2302 0.81199 0.22651 0.0
C594 C 0.35711 0.98995 0.10012 0.0
C595 C 0.36006 0.96096 0.10677 0.0
O596 O 0.12319 0.69641 0.39326 0.0
O597 O 0.14117 0.66134 0.11692 0.0
O598 O 0.33326 0.93472 0.09561 0.0
O599 O 0.35129 0.95816 0.36133 0.0
H600 H 0.07896 0.68364 0.37747 0.0
H601 H 0.09812 0.73175 0.41184 0.0
H602 H 0.1019 0.71085 0.44518 0.0
H603 H 0.06364 0.69921 0.42838 0.0
H604 H 0.1084 0.73315 0.35747 0.0
H605 H 0.18063 0.71236 0.3835 0.0
H606 H 0.1586 0.80758 0.3231 0.0
H607 H 0.11822 0.7766 0.32627 0.0
H608 H 0.14161 0.77807 0.29286 0.0
H609 H 0.23051 0.73784 0.3596 0.0
H610 H 0.24421 0.77931 0.35768 0.0
H611 H 0.23351 0.75669 0.32179 0.0
H612 H 0.32893 0.96605 0.3981 0.0
H613 H 0.35376 0.02377 0.38694 0.0
H614 H 0.33048 0.99969 0.35428 0.0
H615 H 0.37245 0.01905 0.35225 0.0
H616 H 0.35506 0.91161 0.33942 0.0
H617 H 0.29141 0.94533 0.35758 0.0
H618 H 0.31378 0.85495 0.28823 0.0
H619 H 0.29513 0.8315 0.32265 0.0
H620 H 0.33678 0.85914 0.3233 0.0
H621 H 0.23833 0.91754 0.34252 0.0
H622 H 0.22174 0.87585 0.34804 0.0
H623 H 0.22999 0.89196 0.30871 0.0
H624 H 0.36205 0.95941 0.13308 0.0
H625 H 0.3515 0.90251 0.13162 0.0
H626 H 0.27326 0.91093 0.09939 0.0
H627 H 0.3209 0.85821 0.19653 0.0
H628 H 0.34496 0.85996 0.16369 0.0
H629 H 0.30589 0.82677 0.16826 0.0
H630 H 0.22303 0.88187 0.12229 0.0
H631 H 0.21998 0.86292 0.16004 0.0
H632 H 0.2138 0.84159 0.12373 0.0
H633 H 0.12685 0.67146 0.07493 0.0
H634 H 0.06918 0.63933 0.08786 0.0
H635 H 0.08978 0.66908 0.11721 0.0
H636 H 0.0788 0.62931 0.12607 0.0
H637 H 0.1855 0.67468 0.1573 0.0
H638 H 0.13571 0.71282 0.10719 0.0
H639 H 0.21824 0.72391 0.21521 0.0
H640 H 0.24713 0.75008 0.18748 0.0
H641 H 0.23272 0.70845 0.18544 0.0
H642 H 0.13795 0.75957 0.1247 0.0
H643 H 0.17881 0.78558 0.11696 0.0
H644 H 0.16402 0.78257 0.15657 0.0
H645 H 0.22946 0.82557 0.35173 0.0
H646 H 0.28631 0.89329 0.26464 0.0
H647 H 0.28715 0.88708 0.20833 0.0
H648 H 0.23606 0.8003 0.13584 0.0
H649 H 0.17136 0.73534 0.22129 0.0
H650 H 0.1694 0.74202 0.27748 0.0
H651 H 0.35489 0.99277 0.07415 0.0
H652 H 0.37798 0.01137 0.10947 0.0
H653 H 0.33593 0.98749 0.11205 0.0
C654 C 0.36069 0.02169 0.67621 0.0
C655 C 0.38434 0.0472 0.65392 0.0
C656 C 0.40912 0.09873 0.68018 0.0
C657 C 0.43833 0.12381 0.68903 0.0
C658 C 0.44166 0.15259 0.69854 0.0
C659 C 0.4148 0.15603 0.70003 0.0
C660 C 0.38508 0.13074 0.69115 0.0
C661 C 0.38252 0.10234 0.68121 0.0
C662 C 0.47384 0.1792 0.70731 0.0
C663 C 0.35597 0.13359 0.69271 0.0
C664 C 0.45296 0.38448 0.59659 0.0
C665 C 0.43661 0.35574 0.61658 0.0
C666 C 0.44383 0.31264 0.63518 0.0
C667 C 0.41342 0.29393 0.64724 0.0
C668 C 0.40626 0.26792 0.66664 0.0
C669 C 0.43023 0.26116 0.67489 0.0
C670 C 0.46054 0.27931 0.66177 0.0
C671 C 0.46676 0.30456 0.64168 0.0
C672 C 0.37336 0.24831 0.67916 0.0
C673 C 0.48668 0.27273 0.66978 0.0
C674 C 0.43565 0.35039 0.85844 0.0
C675 C 0.40662 0.32306 0.85294 0.0
C676 C 0.4052 0.29462 0.84541 0.0
C677 C 0.43333 0.29359 0.84272 0.0
C678 C 0.46252 0.32093 0.84855 0.0
C679 C 0.46325 0.34898 0.85633 0.0
C680 C 0.37364 0.26583 0.83941 0.0
C681 C 0.49295 0.32069 0.84563 0.0
C682 C 0.41446 0.08295 0.92541 0.0
C683 C 0.44747 0.11107 0.92103 0.0
C684 C 0.44434 0.15753 0.91079 0.0
C685 C 0.41636 0.15833 0.91065 0.0
C686 C 0.4115 0.17716 0.88875 0.0
C687 C 0.43567 0.19616 0.86725 0.0
C688 C 0.46456 0.19626 0.86835 0.0
C689 C 0.46836 0.17655 0.8899 0.0
C690 C 0.3804 0.17628 0.88819 0.0
C691 C 0.49136 0.21695 0.84664 0.0
C692 C 0.41771 0.18572 0.71197 0.0
C693 C 0.42021 0.20808 0.68973 0.0
C694 C 0.42467 0.23717 0.69947 0.0
C695 C 0.42613 0.24405 0.73229 0.0
C696 C 0.4305 0.27303 0.74294 0.0
C697 C 0.43197 0.27962 0.7752 0.0
C698 C 0.43011 0.25789 0.79813 0.0
C699 C 0.43222 0.26466 0.83098 0.0
C700 C 0.43318 0.24382 0.85305 0.0
C701 C 0.43081 0.21559 0.8432 0.0
C702 C 0.42596 0.20724 0.81062 0.0
C703 C 0.42091 0.17798 0.80012 0.0
C704 C 0.41747 0.17056 0.76789 0.0
C705 C 0.41951 0.19234 0.74488 0.0
C706 C 0.42377 0.22164 0.75502 0.0
C707 C 0.42644 0.22885 0.78795 0.0
C708 C 0.40212 0.39332 0.8441 0.0
C709 C 0.41482 0.38481 0.87366 0.0
O710 O 0.40769 0.07147 0.67155 0.0
O711 O 0.44794 0.13808 0.93101 0.0
O712 O 0.43834 0.37866 0.86507 0.0
O713 O 0.45209 0.3387 0.61746 0.0
H714 H 0.37095 0.05561 0.63945 0.0
H715 H 0.34689 0.03045 0.68887 0.0
H716 H 0.37287 0.01516 0.69448 0.0
H717 H 0.34405 0.00055 0.66241 0.0
H718 H 0.45869 0.12078 0.68824 0.0
H719 H 0.35964 0.08299 0.67496 0.0
H720 H 0.47843 0.20105 0.69491 0.0
H721 H 0.49271 0.174 0.70123 0.0
H722 H 0.47495 0.18365 0.73327 0.0
H723 H 0.33439 0.11142 0.68611 0.0
H724 H 0.35838 0.15244 0.67636 0.0
H725 H 0.35323 0.14033 0.71714 0.0
H726 H 0.42947 0.35937 0.64059 0.0
H727 H 0.46041 0.4046 0.61364 0.0
H728 H 0.42128 0.37567 0.55922 0.0
H729 H 0.47753 0.38901 0.5927 0.0
H730 H 0.39529 0.29959 0.64168 0.0
H731 H 0.49 0.3189 0.63187 0.0
H732 H 0.3656 0.22295 0.67724 0.0
H733 H 0.35634 0.25297 0.66619 0.0
H734 H 0.373 0.25371 0.70469 0.0
H735 H 0.50937 0.29016 0.65903 0.0
H736 H 0.48041 0.24905 0.66102 0.0
H737 H 0.48983 0.27286 0.69598 0.0
H738 H 0.39464 0.36376 0.88434 0.0
H739 H 0.38501 0.32374 0.85372 0.0
H740 H 0.48553 0.37016 0.8605 0.0
H741 H 0.37131 0.25965 0.81378 0.0
H742 H 0.35388 0.26947 0.84605 0.0
H743 H 0.37174 0.24558 0.85306 0.0
H744 H 0.51373 0.34392 0.85105 0.0
H745 H 0.49518 0.31379 0.82111 0.0
H746 H 0.49292 0.30299 0.86213 0.0
H747 H 0.45313 0.11286 0.89519 0.0
H748 H 0.41349 0.06106 0.91715 0.0
H749 H 0.39727 0.08638 0.9112 0.0
H750 H 0.40757 0.08024 0.95083 0.0
H751 H 0.39804 0.14351 0.92714 0.0
H752 H 0.49007 0.1759 0.89058 0.0
H753 H 0.37063 0.17177 0.86363 0.0
H754 H 0.38391 0.19942 0.8957 0.0
H755 H 0.363 0.15797 0.90425 0.0
H756 H 0.51374 0.21845 0.85435 0.0
H757 H 0.49473 0.241 0.84577 0.0
H758 H 0.48585 0.20725 0.82216 0.0
H759 H 0.41947 0.20308 0.66453 0.0
H760 H 0.43274 0.29101 0.72651 0.0
H761 H 0.43516 0.30226 0.78187 0.0
H762 H 0.43622 0.24984 0.87812 0.0
H763 H 0.41954 0.16046 0.81673 0.0
H764 H 0.41365 0.14768 0.76124 0.0
H765 H 0.38586 0.40175 0.85108 0.0
H766 H 0.42154 0.41155 0.8297 0.0
H767 H 0.38892 0.37226 0.82885 0.0
C768 C 0.0276 0.43329 0.12653 0.0
C769 C 0.031 0.42936 0.09405 0.0
C770 C 0.03609 0.41831 0.14975 0.0
C771 C 0.04793 0.39852 0.14137 0.0
H772 H 0.01863 0.44833 0.13409 0.0
H773 H 0.03297 0.42188 0.17455 0.0
S774 S 0.05874 0.37863 0.05902 0.0
N775 N 0.04589 0.40364 0.05435 0.0
N776 N 0.06061 0.37435 0.09781 0.0
C777 C 0.0507 0.39385 0.10877 0.0
C778 C 0.04266 0.40965 0.08518 0.0
C779 C 0.57269 0.04666 0.59547 0.0
C780 C 0.57307 0.05376 0.56302 0.0
C781 C 0.59975 0.05074 0.61103 0.0
C782 C 0.62819 0.06171 0.59467 0.0
H783 H 0.55095 0.03665 0.60865 0.0
H784 H 0.59802 0.04374 0.63573 0.0
S785 S 0.64153 0.08409 0.50937 0.0
N786 N 0.60432 0.07333 0.51516 0.0
N787 N 0.6551 0.08014 0.5441 0.0
C788 C 0.62912 0.06985 0.56236 0.0
C789 C 0.60161 0.06621 0.54665 0.0
C790 C 0.55572 0.59682 0.09576 0.0
C791 C 0.54744 0.59833 0.06394 0.0
C792 C 0.57416 0.62409 0.11352 0.0
C793 C 0.58514 0.65403 0.10022 0.0
H794 H 0.54825 0.57434 0.10699 0.0
H795 H 0.58041 0.62171 0.13773 0.0
S796 S 0.57087 0.67097 0.01754 0.0
N797 N 0.55184 0.6323 0.01972 0.0
N798 N 0.58691 0.68359 0.05298 0.0
C799 C 0.57693 0.65592 0.06843 0.0
C800 C 0.55788 0.62809 0.0504 0.0
C801 C 0.01496 0.57529 0.61833 0.0
C802 C 0.01006 0.57527 0.58538 0.0
C803 C 0.00555 0.59118 0.63912 0.0
C804 C 0.99121 0.608 0.62777 0.0
H805 H 0.02607 0.56284 0.62818 0.0
H806 H 0.01006 0.5908 0.66433 0.0
S807 S 0.97527 0.61701 0.54295 0.0
N808 N 0.99079 0.59403 0.54204 0.0
N809 N 0.97421 0.62497 0.58087 0.0
C810 C 0.98668 0.60858 0.59467 0.0
C811 C 0.99571 0.59185 0.57357 0.0
C812 C 0.41615 0.96226 0.04313 0.0
C813 C 0.44559 0.97937 0.05818 0.0
C814 C 0.38847 0.95527 0.05912 0.0
C815 C 0.38924 0.96444 0.09099 0.0
H816 H 0.41461 0.95564 0.01836 0.0
H817 H 0.36645 0.94349 0.04612 0.0
S818 S 0.4603 0.00725 0.14176 0.0
N819 N 0.47379 0.00373 0.10714 0.0
N820 N 0.42183 0.99004 0.13734 0.0
C821 C 0.41847 0.98032 0.10662 0.0
C822 C 0.4466 0.98783 0.09023 0.0
C823 C 0.46059 0.38486 0.53962 0.0
C824 C 0.4563 0.41788 0.5519 0.0
C825 C 0.43675 0.34652 0.55733 0.0
C826 C 0.41355 0.34604 0.59258 0.0
H827 H 0.47751 0.38803 0.52165 0.0
H828 H 0.44063 0.32724 0.552 0.0
S829 S 0.39461 0.41637 0.61947 0.0
N830 N 0.42193 0.43594 0.59141 0.0
N831 N 0.38516 0.37845 0.62258 0.0
C832 C 0.40248 0.37662 0.59909 0.0
C833 C 0.42694 0.41328 0.58029 0.0
C834 C 0.50063 0.91219 0.48931 0.0
C835 C 0.51564 0.94508 0.491 0.0
C836 C 0.51654 0.89714 0.47815 0.0
C837 C 0.54811 0.91443 0.46851 0.0
H838 H 0.47643 0.89798 0.49666 0.0
H839 H 0.50416 0.87174 0.47739 0.0
S840 S 0.59876 0.00105 0.47086 0.0
N841 N 0.56433 0.99446 0.48352 0.0
N842 N 0.5942 0.96618 0.46304 0.0
C843 C 0.56349 0.94732 0.47063 0.0
C844 C 0.54726 0.96264 0.48166 0.0
C845 C 0.6143 0.51686 0.99717 0.0
C846 C 0.59508 0.52936 0.98837 0.0
C847 C 0.64383 0.52771 0.98329 0.0
C848 C 0.65574 0.55212 0.96062 0.0
H849 H 0.60662 0.49867 0.01508 0.0
H850 H 0.65755 0.51718 0.99087 0.0
S851 S 0.61319 0.59011 0.92633 0.0
N852 N 0.589 0.56546 0.95308 0.0
N853 N 0.64446 0.58598 0.92755 0.0
C854 C 0.63608 0.56367 0.95048 0.0
C855 C 0.60593 0.55245 0.96433 0.0
C856 C 0.08187 0.61939 0.45553 0.0
C857 C 0.05072 0.59546 0.44984 0.0
C858 C 0.09508 0.6478 0.43885 0.0
C859 C 0.07784 0.6535 0.41552 0.0
H860 H 0.09617 0.61646 0.47343 0.0
H861 H 0.11887 0.66573 0.44473 0.0
S862 S 0.99525 0.5989 0.39165 0.0
N863 N 0.00289 0.5795 0.41911 0.0
N864 N 0.02781 0.63304 0.38784 0.0
C865 C 0.04674 0.62976 0.40938 0.0
C866 C 0.03323 0.6007 0.42637 0.0
C867 C 0.50267 0.07992 0.94132 0.0
C868 C 0.50891 0.08643 0.97391 0.0
C869 C 0.48436 0.08959 0.92434 0.0
C870 C 0.47121 0.10581 0.93934 0.0
H871 H 0.51117 0.06633 0.92906 0.0
H872 H 0.47935 0.08315 0.89949 0.0
S873 S 0.48015 0.12798 0.0247 0.0
N874 N 0.50096 0.11031 0.02066 0.0
N875 N 0.46563 0.12768 0.98906 0.0
C876 C 0.47775 0.11293 0.97193 0.0
C877 C 0.49694 0.10356 0.98908 0.0
C878 C 0.44748 0.48557 0.41004 0.0
C879 C 0.46451 0.46114 0.41897 0.0
C880 C 0.41304 0.47116 0.38493 0.0
C881 C 0.39369 0.42833 0.37565 0.0
H882 H 0.45723 0.5085 0.42083 0.0
H883 H 0.40108 0.48442 0.38175 0.0
S884 S 0.43149 0.36989 0.38882 0.0
N885 N 0.45894 0.40213 0.40809 0.0
N886 N 0.40414 0.37576 0.37065 0.0
C887 C 0.41541 0.40634 0.37664 0.0
C888 C 0.44942 0.42283 0.40149 0.0
C889 C 0.96123 0.38361 0.9611 0.0
C890 C 0.993 0.40567 0.95549 0.0
C891 C 0.94576 0.35532 0.94429 0.0
C892 C 0.96124 0.34787 0.92086 0.0
H893 H 0.94812 0.38795 0.97894 0.0
H894 H 0.92151 0.33889 0.95001 0.0
S895 S 0.04451 0.39707 0.89721 0.0
N896 N 0.03951 0.41789 0.92482 0.0
N897 N 0.0103 0.36455 0.89328 0.0
C898 C 0.99297 0.36964 0.91491 0.0
C899 C 0.00882 0.39858 0.93207 0.0
C900 C 0.95459 0.52817 0.99963 0.0
C901 C 0.97317 0.51837 0.98351 0.0
C902 C 0.94573 0.54835 0.9851 0.0
C903 C 0.95478 0.55916 0.95379 0.0
H904 H 0.94762 0.52101 0.02399 0.0
H905 H 0.93199 0.55584 0.99861 0.0
S906 S 0.00196 0.53897 0.90063 0.0
N907 N 0.99921 0.52001 0.93399 0.0
N908 N 0.98255 0.55775 0.90682 0.0
C909 C 0.97277 0.54895 0.9372 0.0
C910 C 0.98188 0.52856 0.95198 0.0
C911 C 0.39805 0.9876 0.46037 0.0
C912 C 0.42922 0.00181 0.44977 0.0
C913 C 0.37329 0.98087 0.43926 0.0
C914 C 0.37866 0.98758 0.40659 0.0
H915 H 0.39274 0.98176 0.48527 0.0
H916 H 0.34968 0.96991 0.44858 0.0
S917 S 0.45608 0.02333 0.36669 0.0
N918 N 0.4643 0.02207 0.40465 0.0
N919 N 0.41765 0.00826 0.36456 0.0
C920 C 0.40983 0.0016 0.39567 0.0
C921 C 0.43512 0.00904 0.41735 0.0
C922 C 0.45697 0.46541 0.91531 0.0
C923 C 0.45863 0.45716 0.947 0.0
C924 C 0.44242 0.44239 0.8917 0.0
C925 C 0.42803 0.41012 0.89912 0.0
H926 H 0.46797 0.48988 0.90846 0.0
H927 H 0.44302 0.45021 0.86753 0.0
S928 S 0.42533 0.37635 0.97893 0.0
N929 N 0.44435 0.41463 0.98477 0.0
N930 N 0.4167 0.37143 0.94061 0.0
C931 C 0.42926 0.40173 0.93091 0.0
C932 C 0.44443 0.42514 0.95479 0.0
C933 C 0.11356 0.50046 0.49842 0.0
C934 C 0.08168 0.48974 0.49196 0.0
C935 C 0.12763 0.483 0.48927 0.0
C936 C 0.1104 0.45407 0.47339 0.0
H937 H 0.1277 0.52234 0.51101 0.0
H938 H 0.15209 0.49189 0.49535 0.0
S939 S 0.02573 0.41483 0.45215 0.0
N940 N 0.03305 0.448 0.46915 0.0
N941 N 0.05941 0.41505 0.45248 0.0
C942 C 0.07847 0.44308 0.46676 0.0
C943 C 0.06419 0.46099 0.4758 0.0
C944 C 0.58559 0.00519 0.92513 0.0
C945 C 0.59209 0.0241 0.95228 0.0
C946 C 0.60952 0.00934 0.90434 0.0
C947 C 0.6412 0.03198 0.91037 0.0
H948 H 0.56169 0.98742 0.91944 0.0
H949 H 0.60283 0.99476 0.88334 0.0
S950 S 0.67072 0.08806 0.97786 0.0
N951 N 0.63255 0.06683 0.98377 0.0
N952 N 0.67742 0.07431 0.94494 0.0
C953 C 0.64792 0.05112 0.93738 0.0
C954 C 0.62352 0.04718 0.95833 0.0
C955 C 0.57447 0.59814 0.46084 0.0
C956 C 0.54771 0.58634 0.48024 0.0
C957 C 0.59072 0.62965 0.45147 0.0
C958 C 0.58067 0.65062 0.46073 0.0
H959 H 0.58347 0.58313 0.45334 0.0
H960 H 0.61167 0.63781 0.4373 0.0
S961 S 0.51177 0.63171 0.51095 0.0
N962 N 0.51166 0.59822 0.50799 0.0
N963 N 0.54229 0.65747 0.4903 0.0
C964 C 0.55381 0.63914 0.47983 0.0
C965 C 0.53728 0.60703 0.48952 0.0
C966 C 0.42163 0.00169 0.61783 0.0
C967 C 0.43386 0.0176 0.58901 0.0
C968 C 0.40551 0.0108 0.6386 0.0
C969 C 0.40005 0.03563 0.63092 0.0
H970 H 0.42504 0.98236 0.62475 0.0
H971 H 0.39752 0.9982 0.6608 0.0
S972 S 0.42791 0.08543 0.55862 0.0
N973 N 0.44004 0.0599 0.55413 0.0
N974 N 0.4094 0.07672 0.59295 0.0
C975 C 0.41244 0.05186 0.60225 0.0
C976 C 0.42924 0.04287 0.58131 0.0
C977 C 0.40512 0.46558 0.06991 0.0
C978 C 0.43752 0.45987 0.08191 0.0
C979 C 0.36719 0.44358 0.08874 0.0
C980 C 0.36681 0.42084 0.1247 0.0
H981 H 0.40833 0.48203 0.05118 0.0
H982 H 0.34838 0.4483 0.08346 0.0
S983 S 0.43524 0.39838 0.15107 0.0
N984 N 0.45472 0.42469 0.12205 0.0
N985 N 0.398 0.39084 0.15507 0.0
C986 C 0.39633 0.40822 0.13124 0.0
C987 C 0.4326 0.43089 0.11128 0.0
C988 C 0.95666 0.437 0.57899 0.0
C989 C 0.95954 0.43914 0.54575 0.0
C990 C 0.94404 0.40801 0.59447 0.0
C991 C 0.93453 0.38011 0.57733 0.0
H992 H 0.96517 0.45806 0.59322 0.0
H993 H 0.94306 0.40757 0.6202 0.0
S994 S 0.93679 0.37334 0.48961 0.0
N995 N 0.95092 0.41117 0.49594 0.0
N996 N 0.92805 0.35656 0.52501 0.0
C997 C 0.93641 0.3819 0.5439 0.0
C998 C 0.94868 0.41145 0.52811 0.0
C999 C 0.60468 0.02416 0.10234 0.0
C1000 C 0.57265 0.01221 0.09584 0.0
C1001 C 0.61442 0.01002 0.12541 0.0
C1002 C 0.59242 0.9837 0.14282 0.0
H1003 H 0.62224 0.0437 0.08869 0.0
H1004 H 0.63934 0.0193 0.1292 0.0
S1005 S 0.50565 0.94706 0.13757 0.0
N1006 N 0.519 0.97474 0.11012 0.0
N1007 N 0.53703 0.94902 0.15444 0.0
C1008 C 0.56026 0.97304 0.13782 0.0
C1009 C 0.55047 0.987 0.11396 0.0
C1010 C 0.59796 0.50583 0.57467 0.0
C1011 C 0.59916 0.51706 0.5437 0.0
C1012 C 0.62337 0.52159 0.59574 0.0
C1013 C 0.65054 0.54958 0.58678 0.0
H1014 H 0.57688 0.48527 0.58294 0.0
H1015 H 0.62123 0.51257 0.61969 0.0
S1016 S 0.66433 0.58881 0.50816 0.0
N1017 N 0.62922 0.55732 0.50476 0.0
N1018 N 0.67672 0.58768 0.54453 0.0
C1019 C 0.65202 0.56069 0.55555 0.0
C1020 C 0.62638 0.54424 0.53397 0.0
C1021 C 0.10035 0.59039 0.02964 0.0
C1022 C 0.09138 0.56331 0.04792 0.0
C1023 C 0.11086 0.61955 0.04434 0.0
C1024 C 0.11324 0.62259 0.07771 0.0
H1025 H 0.09688 0.58861 0.00409 0.0
H1026 H 0.11561 0.63951 0.02957 0.0
S1027 S 0.09623 0.5589 0.13554 0.0
N1028 N 0.08784 0.54141 0.10051 0.0
N1029 N 0.10867 0.59629 0.12822 0.0
C1030 C 0.10657 0.59592 0.09595 0.0
C1031 C 0.09537 0.56626 0.08101 0.0
loop_
_geom_bond_atom_site_label_1
_geom_bond_atom_site_label_2
_geom_bond_distance
_geom_bond_site_symmetry_2
_ccdc_geom_bond_type
C0 O2 1.247 . S
C0 O4 1.258 . S
C1 O8 1.269 . S
C1 O9 1.240 1_455 S
O2 C0 1.247 . S
O2 Zn3 2.034 . S
Zn3 O2 2.034 . S
Zn3 O7 2.014 1_454 S
Zn3 O9 2.039 1_454 S
Zn3 O10 2.059 . S
O4 C0 1.258 . S
O4 Zn5 2.035 1_554 S
Zn5 O4 2.035 1_556 S
Zn5 O6 2.028 . S
Zn5 O8 2.028 . S
Zn5 O11 2.035 1_556 S
O6 Zn5 2.028 . S
O6 C12 1.287 . S
O7 Zn3 2.014 1_656 S
O7 C12 1.246 1_655 S
O8 C1 1.269 . S
O8 Zn5 2.028 . S
O9 C1 1.240 1_655 S
O9 Zn3 2.039 1_656 S
O10 Zn3 2.059 . S
O10 C13 1.247 . S
O11 Zn5 2.035 1_554 S
O11 C13 1.258 . S
C12 O6 1.287 . S
C12 O7 1.246 1_455 S
C13 O10 1.247 . S
C13 O11 1.258 . S
C14 O16 1.247 . S
C14 O18 1.258 . S
C15 O22 1.247 1_565 S
C15 O23 1.258 . S
O16 C14 1.247 . S
O16 Zn17 2.028 1_545 S
Zn17 O16 2.028 1_565 S
Zn17 O21 2.035 . S
Zn17 O23 2.035 . S
Zn17 O24 2.028 1_565 S
O18 C14 1.258 . S
O18 Zn19 2.035 . S
Zn19 O18 2.035 . S
Zn19 O20 2.028 . S
Zn19 O22 2.028 . S
Zn19 O25 2.035 . S
O20 Zn19 2.028 . S
O20 C26 1.247 1_545 S
O21 Zn17 2.035 . S
O21 C26 1.258 . S
O22 C15 1.247 1_545 S
O22 Zn19 2.028 . S
O23 C15 1.258 . S
O23 Zn17 2.035 . S
O24 Zn17 2.028 1_545 S
O24 C27 1.247 . S
O25 Zn19 2.035 . S
O25 C27 1.258 . S
C26 O20 1.247 1_565 S
C26 O21 1.258 . S
C27 O24 1.247 . S
C27 O25 1.258 . S
C28 O30 1.247 . S
C28 O32 1.258 1_556 S
C29 O36 1.247 . S
C29 O37 1.258 . S
O30 C28 1.247 . S
O30 Zn31 2.028 . S
Zn31 O30 2.028 . S
Zn31 O35 2.035 1_556 S
Zn31 O37 2.035 1_556 S
Zn31 O38 2.028 . S
O32 C28 1.258 1_554 S
O32 Zn33 2.035 . S
Zn33 O32 2.035 . S
Zn33 O34 2.028 . S
Zn33 O36 2.028 . S
Zn33 O39 2.035 . S
O34 Zn33 2.028 . S
O34 C40 1.247 . S
O35 Zn31 2.035 1_554 S
O35 C40 1.258 . S
O36 C29 1.247 . S
O36 Zn33 2.028 . S
O37 C29 1.258 . S
O37 Zn31 2.035 1_554 S
O38 Zn31 2.028 . S
O38 C41 1.247 . S
O39 Zn33 2.035 . S
O39 C41 1.258 1_554 S
C40 O34 1.247 . S
C40 O35 1.258 . S
C41 O38 1.247 . S
C41 O39 1.258 1_556 S
C42 O44 1.247 . S
C42 O46 1.258 . S
C43 O50 1.247 . S
C43 O51 1.258 1_655 S
O44 C42 1.247 . S
O44 Zn45 2.028 . S
Zn45 O44 2.028 . S
Zn45 O49 2.035 . S
Zn45 O51 2.035 . S
Zn45 O52 2.028 . S
O46 C42 1.258 . S
O46 Zn47 2.035 1_455 S
Zn47 O46 2.035 1_655 S
Zn47 O48 2.028 . S
Zn47 O50 2.028 . S
Zn47 O53 2.035 1_655 S
O48 Zn47 2.028 . S
O48 C54 1.247 . S
O49 Zn45 2.035 . S
O49 C54 1.258 1_455 S
O50 C43 1.247 . S
O50 Zn47 2.028 . S
O51 C43 1.258 1_455 S
O51 Zn45 2.035 . S
O52 Zn45 2.028 . S
O52 C55 1.247 . S
O53 Zn47 2.035 1_455 S
O53 C55 1.258 . S
C54 O48 1.247 . S
C54 O49 1.258 1_655 S
C55 O52 1.247 . S
C55 O53 1.258 . S
C56 O58 1.247 1_565 S
C56 O60 1.258 . S
C57 O64 1.247 . S
C57 O65 1.258 1_556 S
O58 C56 1.247 1_545 S
O58 Zn59 2.028 . S
Zn59 O58 2.028 . S
Zn59 O63 2.035 . S
Zn59 O65 2.035 . S
Zn59 O66 2.028 . S
O60 C56 1.258 . S
O60 Zn61 2.035 1_554 S
Zn61 O60 2.035 1_556 S
Zn61 O62 2.028 1_565 S
Zn61 O64 2.028 1_565 S
Zn61 O67 2.035 1_556 S
O62 Zn61 2.028 1_545 S
O62 C68 1.247 . S
O63 Zn59 2.035 . S
O63 C68 1.258 1_554 S
O64 C57 1.247 . S
O64 Zn61 2.028 1_545 S
O65 C57 1.258 1_554 S
O65 Zn59 2.035 . S
O66 Zn59 2.028 . S
O66 C69 1.247 1_545 S
O67 Zn61 2.035 1_554 S
O67 C69 1.258 . S
C68 O62 1.247 . S
C68 O63 1.258 1_556 S
C69 O66 1.247 1_565 S
C69 O67 1.258 . S
C70 O72 1.247 . S
C70 O74 1.258 . S
C71 O78 1.247 . S
C71 O79 1.258 . S
O72 C70 1.247 . S
O72 Zn73 2.028 . S
Zn73 O72 2.028 . S
Zn73 O77 2.035 . S
Zn73 O79 2.035 . S
Zn73 O80 2.028 . S
O74 C70 1.258 . S
O74 Zn75 2.035 . S
Zn75 O74 2.035 . S
Zn75 O76 2.028 . S
Zn75 O78 2.028 . S
Zn75 O81 2.035 . S
O76 Zn75 2.028 . S
O76 C82 1.247 . S
O77 Zn73 2.035 . S
O77 C82 1.258 . S
O78 C71 1.247 . S
O78 Zn75 2.028 . S
O79 C71 1.258 . S
O79 Zn73 2.035 . S
O80 Zn73 2.028 . S
O80 C83 1.247 . S
O81 Zn75 2.035 . S
O81 C83 1.258 . S
C82 O76 1.247 . S
C82 O77 1.258 . S
C83 O80 1.247 . S
C83 O81 1.258 . S
C84 C85 1.560 . S
C84 H145 0.959 . S
C84 H146 0.959 . S
C84 H147 0.960 . S
C85 C84 1.560 . S
C85 O140 1.426 . S
C85 H144 0.980 . S
C86 C87 1.407 . S
C86 C91 1.418 . S
C86 O140 1.334 . S
C87 C86 1.407 . S
C87 C88 1.360 . S
C87 H148 0.929 . S
C88 C87 1.360 . S
C88 C89 1.401 . S
C88 C92 1.527 . S
C89 C88 1.401 . S
C89 C90 1.405 . S
C89 C122 1.587 . S
C90 C89 1.405 . S
C90 C91 1.332 . S
C90 C93 1.496 . S
C91 C86 1.418 . S
C91 C90 1.332 . S
C91 H149 0.929 . S
C92 C88 1.527 . S
C92 H150 0.959 . S
C92 H151 0.961 . S
C92 H152 0.961 . S
C93 C90 1.496 . S
C93 H153 0.960 . S
C93 H154 0.960 . S
C93 H155 0.961 . S
C94 C95 1.517 . S
C94 H157 0.961 . S
C94 H158 0.960 . S
C94 H159 0.959 . S
C95 C94 1.517 . S
C95 O143 1.468 . S
C95 H156 0.980 . S
C96 C97 1.349 . S
C96 C101 1.367 . S
C96 O143 1.408 . S
C97 C96 1.349 . S
C97 C98 1.407 . S
C97 H160 0.930 . S
C98 C97 1.407 . S
C98 C99 1.449 . S
C98 C102 1.535 . S
C99 C98 1.449 . S
C99 C100 1.384 . S
C99 C124 1.553 . S
C100 C99 1.384 . S
C100 C101 1.364 . S
C100 C103 1.450 . S
C101 C96 1.367 . S
C101 C100 1.364 . S
C101 H161 0.931 . S
C102 C98 1.535 . S
C102 H162 0.959 . S
C102 H163 0.961 . S
C102 H164 0.959 . S
C103 C100 1.450 . S
C103 H165 0.960 . S
C103 H166 0.960 . S
C103 H167 0.960 . S
C104 C105 1.309 . S
C104 C109 1.304 . S
C104 O142 1.435 . S
C105 C104 1.309 . S
C105 C106 1.476 . S
C105 H169 0.930 . S
C106 C105 1.476 . S
C106 C107 1.400 . S
C106 C110 1.567 . S
C107 C106 1.400 . S
C107 C108 1.373 . S
C107 C129 1.432 . S
C108 C107 1.373 . S
C108 C109 1.339 . S
C108 C111 1.530 . S
C109 C104 1.304 . S
C109 C108 1.339 . S
C109 H170 0.930 . S
C110 C106 1.567 . S
C110 H171 0.961 . S
C110 H172 0.960 . S
C110 H173 0.958 . S
C111 C108 1.530 . S
C111 H174 0.961 . S
C111 H175 0.960 . S
C111 H176 0.960 . S
C112 C113 1.530 . S
C112 H178 0.961 . S
C112 H179 0.961 . S
C112 H180 0.959 . S
C113 C112 1.530 . S
C113 O141 1.412 . S
C113 H177 0.980 . S
C114 C115 1.288 . S
C114 C119 1.377 . S
C114 O141 1.393 . S
C115 C114 1.288 . S
C115 C116 1.369 . S
C115 H181 0.932 . S
C116 C115 1.369 . S
C116 C117 1.398 . S
C116 C120 1.527 . S
C117 C116 1.398 . S
C117 C118 1.380 . S
C117 C131 1.497 . S
C118 C117 1.380 . S
C118 C119 1.383 . S
C118 C121 1.603 . S
C119 C114 1.377 . S
C119 C118 1.383 . S
C119 H182 0.929 . S
C120 C116 1.527 . S
C120 H183 0.961 . S
C120 H184 0.959 . S
C120 H185 0.959 . S
C121 C118 1.603 . S
C121 H186 0.960 . S
C121 H187 0.962 . S
C121 H188 0.961 . S
C122 C89 1.587 . S
C122 C123 1.360 . S
C122 C135 1.412 . S
C123 C122 1.360 . S
C123 C124 1.365 . S
C123 H189 0.929 . S
C124 C99 1.553 . S
C124 C123 1.365 . S
C124 C125 1.404 . S
C125 C124 1.404 . S
C125 C126 1.395 . S
C125 C136 1.451 . S
C126 C125 1.395 . S
C126 C127 1.322 . S
C126 H190 0.930 . S
C127 C126 1.322 . S
C127 C128 1.459 . S
C127 H191 0.929 . S
C128 C127 1.459 . S
C128 C129 1.445 . S
C128 C137 1.395 . S
C129 C107 1.432 . S
C129 C128 1.445 . S
C129 C130 1.370 . S
C130 C129 1.370 . S
C130 C131 1.438 . S
C130 H192 0.930 . S
C131 C117 1.497 . S
C131 C130 1.438 . S
C131 C132 1.360 . S
C132 C131 1.360 . S
C132 C133 1.401 . S
C132 C137 1.446 . S
C133 C132 1.401 . S
C133 C134 1.347 . S
C133 H193 0.929 . S
C134 C133 1.347 . S
C134 C135 1.455 . S
C134 H194 0.930 . S
C135 C122 1.412 . S
C135 C134 1.455 . S
C135 C136 1.331 . S
C136 C125 1.451 . S
C136 C135 1.331 . S
C136 C137 1.497 . S
C137 C128 1.395 . S
C137 C132 1.446 . S
C137 C136 1.497 . S
C138 C139 1.582 . S
C138 H195 0.962 . S
C138 H196 0.959 . S
C138 H197 0.958 . S
C139 C138 1.582 . S
C139 O142 1.458 . S
C139 H168 0.980 . S
O140 C85 1.426 . S
O140 C86 1.334 . S
O141 C113 1.412 . S
O141 C114 1.393 . S
O142 C104 1.435 . S
O142 C139 1.458 . S
O143 C95 1.468 . S
O143 C96 1.408 . S
H144 C85 0.980 . S
H145 C84 0.959 . S
H146 C84 0.959 . S
H147 C84 0.960 . S
H148 C87 0.929 . S
H149 C91 0.929 . S
H150 C92 0.959 . S
H151 C92 0.961 . S
H152 C92 0.961 . S
H153 C93 0.960 . S
H154 C93 0.960 . S
H155 C93 0.961 . S
H156 C95 0.980 . S
H157 C94 0.961 . S
H158 C94 0.960 . S
H159 C94 0.959 . S
H160 C97 0.930 . S
H161 C101 0.931 . S
H162 C102 0.959 . S
H163 C102 0.961 . S
H164 C102 0.959 . S
H165 C103 0.960 . S
H166 C103 0.960 . S
H167 C103 0.960 . S
H168 C139 0.980 . S
H169 C105 0.930 . S
H170 C109 0.930 . S
H171 C110 0.961 . S
H172 C110 0.960 . S
H173 C110 0.958 . S
H174 C111 0.961 . S
H175 C111 0.960 . S
H176 C111 0.960 . S
H177 C113 0.980 . S
H178 C112 0.961 . S
H179 C112 0.961 . S
H180 C112 0.959 . S
H181 C115 0.932 . S
H182 C119 0.929 . S
H183 C120 0.961 . S
H184 C120 0.959 . S
H185 C120 0.959 . S
H186 C121 0.960 . S
H187 C121 0.962 . S
H188 C121 0.961 . S
H189 C123 0.929 . S
H190 C126 0.930 . S
H191 C127 0.929 . S
H192 C130 0.930 . S
H193 C133 0.929 . S
H194 C134 0.930 . S
H195 C138 0.962 . S
H196 C138 0.959 . S
H197 C138 0.958 . S
C198 C199 1.560 . S
C198 H259 0.959 . S
C198 H260 0.959 . S
C198 H261 0.960 . S
C199 C198 1.560 . S
C199 O254 1.426 . S
C199 H258 0.980 . S
C200 C201 1.407 . S
C200 C205 1.418 . S
C200 O254 1.334 . S
C201 C200 1.407 . S
C201 C202 1.360 . S
C201 H262 0.929 . S
C202 C201 1.360 . S
C202 C203 1.401 . S
C202 C206 1.527 . S
C203 C202 1.401 . S
C203 C204 1.405 . S
C203 C236 1.587 . S
C204 C203 1.405 . S
C204 C205 1.332 . S
C204 C207 1.496 . S
C205 C200 1.418 . S
C205 C204 1.332 . S
C205 H263 0.929 . S
C206 C202 1.527 . S
C206 H264 0.959 . S
C206 H265 0.961 . S
C206 H266 0.961 . S
C207 C204 1.496 . S
C207 H267 0.960 . S
C207 H268 0.960 . S
C207 H269 0.961 . S
C208 C209 1.517 . S
C208 H271 0.961 . S
C208 H272 0.960 . S
C208 H273 0.959 . S
C209 C208 1.517 . S
C209 O257 1.468 . S
C209 H270 0.980 . S
C210 C211 1.349 . S
C210 C215 1.367 . S
C210 O257 1.408 . S
C211 C210 1.349 . S
C211 C212 1.407 . S
C211 H274 0.930 . S
C212 C211 1.407 . S
C212 C213 1.449 . S
C212 C216 1.535 . S
C213 C212 1.449 . S
C213 C214 1.384 . S
C213 C238 1.553 . S
C214 C213 1.384 . S
C214 C215 1.364 . S
C214 C217 1.450 . S
C215 C210 1.367 . S
C215 C214 1.364 . S
C215 H275 0.931 . S
C216 C212 1.535 . S
C216 H276 0.959 . S
C216 H277 0.961 . S
C216 H278 0.959 . S
C217 C214 1.450 . S
C217 H279 0.960 . S
C217 H280 0.960 . S
C217 H281 0.960 . S
C218 C219 1.309 . S
C218 C223 1.304 . S
C218 O256 1.435 . S
C219 C218 1.309 . S
C219 C220 1.476 . S
C219 H283 0.930 . S
C220 C219 1.476 . S
C220 C221 1.400 . S
C220 C224 1.567 . S
C221 C220 1.400 . S
C221 C222 1.373 . S
C221 C243 1.432 . S
C222 C221 1.373 . S
C222 C223 1.339 . S
C222 C225 1.530 . S
C223 C218 1.304 . S
C223 C222 1.339 . S
C223 H284 0.930 . S
C224 C220 1.567 . S
C224 H285 0.961 . S
C224 H286 0.960 . S
C224 H287 0.958 . S
C225 C222 1.530 . S
C225 H288 0.961 . S
C225 H289 0.960 . S
C225 H290 0.960 . S
C226 C227 1.530 . S
C226 H292 0.961 . S
C226 H293 0.961 . S
C226 H294 0.959 . S
C227 C226 1.530 . S
C227 O255 1.412 . S
C227 H291 0.980 . S
C228 C229 1.288 . S
C228 C233 1.377 . S
C228 O255 1.393 . S
C229 C228 1.288 . S
C229 C230 1.369 . S
C229 H295 0.932 . S
C230 C229 1.369 . S
C230 C231 1.398 . S
C230 C234 1.527 . S
C231 C230 1.398 . S
C231 C232 1.380 . S
C231 C245 1.497 . S
C232 C231 1.380 . S
C232 C233 1.383 . S
C232 C235 1.603 . S
C233 C228 1.377 . S
C233 C232 1.383 . S
C233 H296 0.929 . S
C234 C230 1.527 . S
C234 H297 0.961 . S
C234 H298 0.959 . S
C234 H299 0.959 . S
C235 C232 1.603 . S
C235 H300 0.960 . S
C235 H301 0.962 . S
C235 H302 0.961 . S
C236 C203 1.587 . S
C236 C237 1.360 . S
C236 C249 1.412 . S
C237 C236 1.360 . S
C237 C238 1.365 . S
C237 H303 0.929 . S
C238 C213 1.553 . S
C238 C237 1.365 . S
C238 C239 1.404 . S
C239 C238 1.404 . S
C239 C240 1.395 . S
C239 C250 1.451 . S
C240 C239 1.395 . S
C240 C241 1.322 . S
C240 H304 0.930 . S
C241 C240 1.322 . S
C241 C242 1.459 . S
C241 H305 0.929 . S
C242 C241 1.459 . S
C242 C243 1.445 . S
C242 C251 1.395 . S
C243 C221 1.432 . S
C243 C242 1.445 . S
C243 C244 1.370 . S
C244 C243 1.370 . S
C244 C245 1.438 . S
C244 H306 0.930 . S
C245 C231 1.497 . S
C245 C244 1.438 . S
C245 C246 1.360 . S
C246 C245 1.360 . S
C246 C247 1.401 . S
C246 C251 1.446 . S
C247 C246 1.401 . S
C247 C248 1.347 . S
C247 H307 0.929 . S
C248 C247 1.347 . S
C248 C249 1.455 . S
C248 H308 0.930 . S
C249 C236 1.412 . S
C249 C248 1.455 . S
C249 C250 1.331 . S
C250 C239 1.451 . S
C250 C249 1.331 . S
C250 C251 1.497 . S
C251 C242 1.395 . S
C251 C246 1.446 . S
C251 C250 1.497 . S
C252 C253 1.582 . S
C252 H309 0.962 . S
C252 H310 0.959 1_545 S
C252 H311 0.958 . S
C253 C252 1.582 . S
C253 O256 1.458 . S
C253 H282 0.980 . S
O254 C199 1.426 . S
O254 C200 1.334 . S
O255 C227 1.412 . S
O255 C228 1.393 . S
O256 C218 1.435 . S
O256 C253 1.458 . S
O257 C209 1.468 . S
O257 C210 1.408 . S
H258 C199 0.980 . S
H259 C198 0.959 . S
H260 C198 0.959 . S
H261 C198 0.960 . S
H262 C201 0.929 . S
H263 C205 0.929 . S
H264 C206 0.959 . S
H265 C206 0.961 . S
H266 C206 0.961 . S
H267 C207 0.960 . S
H268 C207 0.960 . S
H269 C207 0.961 . S
H270 C209 0.980 . S
H271 C208 0.961 . S
H272 C208 0.960 . S
H273 C208 0.959 . S
H274 C211 0.930 . S
H275 C215 0.931 . S
H276 C216 0.959 . S
H277 C216 0.961 . S
H278 C216 0.959 . S
H279 C217 0.960 . S
H280 C217 0.960 . S
H281 C217 0.960 . S
H282 C253 0.980 . S
H283 C219 0.930 . S
H284 C223 0.930 . S
H285 C224 0.961 . S
H286 C224 0.960 . S
H287 C224 0.958 . S
H288 C225 0.961 . S
H289 C225 0.960 . S
H290 C225 0.960 . S
H291 C227 0.980 . S
H292 C226 0.961 . S
H293 C226 0.961 . S
H294 C226 0.959 . S
H295 C229 0.932 . S
H296 C233 0.929 . S
H297 C234 0.961 . S
H298 C234 0.959 . S
H299 C234 0.959 . S
H300 C235 0.960 . S
H301 C235 0.962 . S
H302 C235 0.961 . S
H303 C237 0.929 . S
H304 C240 0.930 . S
H305 C241 0.929 . S
H306 C244 0.930 . S
H307 C247 0.929 . S
H308 C248 0.930 . S
H309 C252 0.962 . S
H310 C252 0.959 1_565 S
H311 C252 0.958 . S
C312 C313 1.560 . S
C312 H373 0.959 . S
C312 H374 0.959 . S
C312 H375 0.960 . S
C313 C312 1.560 . S
C313 O368 1.426 . S
C313 H372 0.980 . S
C314 C315 1.407 . S
C314 C319 1.418 . S
C314 O368 1.334 . S
C315 C314 1.407 . S
C315 C316 1.360 . S
C315 H376 0.929 . S
C316 C315 1.360 . S
C316 C317 1.401 . S
C316 C320 1.527 . S
C317 C316 1.401 . S
C317 C318 1.405 . S
C317 C350 1.587 . S
C318 C317 1.405 . S
C318 C319 1.332 . S
C318 C321 1.496 . S
C319 C314 1.418 . S
C319 C318 1.332 . S
C319 H377 0.929 . S
C320 C316 1.527 . S
C320 H378 0.959 . S
C320 H379 0.961 . S
C320 H380 0.961 . S
C321 C318 1.496 . S
C321 H381 0.960 . S
C321 H382 0.960 . S
C321 H383 0.961 . S
C322 C323 1.517 . S
C322 H385 0.961 . S
C322 H386 0.960 . S
C322 H387 0.959 . S
C323 C322 1.517 . S
C323 O371 1.468 . S
C323 H384 0.980 . S
C324 C325 1.349 . S
C324 C329 1.367 . S
C324 O371 1.408 . S
C325 C324 1.349 . S
C325 C326 1.407 . S
C325 H388 0.930 . S
C326 C325 1.407 . S
C326 C327 1.449 . S
C326 C330 1.535 . S
C327 C326 1.449 . S
C327 C328 1.384 . S
C327 C352 1.553 . S
C328 C327 1.384 . S
C328 C329 1.364 . S
C328 C331 1.450 . S
C329 C324 1.367 . S
C329 C328 1.364 . S
C329 H389 0.931 . S
C330 C326 1.535 . S
C330 H390 0.959 . S
C330 H391 0.961 . S
C330 H392 0.959 . S
C331 C328 1.450 . S
C331 H393 0.960 . S
C331 H394 0.960 . S
C331 H395 0.960 . S
C332 C333 1.309 . S
C332 C337 1.304 . S
C332 O370 1.435 . S
C333 C332 1.309 . S
C333 C334 1.476 . S
C333 H397 0.930 . S
C334 C333 1.476 . S
C334 C335 1.400 . S
C334 C338 1.567 . S
C335 C334 1.400 . S
C335 C336 1.373 . S
C335 C357 1.432 . S
C336 C335 1.373 . S
C336 C337 1.339 . S
C336 C339 1.530 . S
C337 C332 1.304 . S
C337 C336 1.339 . S
C337 H398 0.930 . S
C338 C334 1.567 . S
C338 H399 0.961 . S
C338 H400 0.960 . S
C338 H401 0.958 . S
C339 C336 1.530 . S
C339 H402 0.961 . S
C339 H403 0.960 . S
C339 H404 0.960 . S
C340 C341 1.530 . S
C340 H406 0.961 . S
C340 H407 0.961 . S
C340 H408 0.959 . S
C341 C340 1.530 . S
C341 O369 1.412 . S
C341 H405 0.980 . S
C342 C343 1.288 . S
C342 C347 1.377 . S
C342 O369 1.393 . S
C343 C342 1.288 . S
C343 C344 1.369 . S
C343 H409 0.932 . S
C344 C343 1.369 . S
C344 C345 1.398 . S
C344 C348 1.527 . S
C345 C344 1.398 . S
C345 C346 1.380 . S
C345 C359 1.497 . S
C346 C345 1.380 . S
C346 C347 1.383 . S
C346 C349 1.603 . S
C347 C342 1.377 . S
C347 C346 1.383 . S
C347 H410 0.929 . S
C348 C344 1.527 . S
C348 H411 0.961 . S
C348 H412 0.959 . S
C348 H413 0.959 . S
C349 C346 1.603 . S
C349 H414 0.960 . S
C349 H415 0.962 . S
C349 H416 0.961 . S
C350 C317 1.587 . S
C350 C351 1.360 . S
C350 C363 1.412 . S
C351 C350 1.360 . S
C351 C352 1.365 . S
C351 H417 0.929 . S
C352 C327 1.553 . S
C352 C351 1.365 . S
C352 C353 1.404 . S
C353 C352 1.404 . S
C353 C354 1.395 . S
C353 C364 1.451 . S
C354 C353 1.395 . S
C354 C355 1.322 . S
C354 H418 0.930 . S
C355 C354 1.322 . S
C355 C356 1.459 . S
C355 H419 0.929 . S
C356 C355 1.459 . S
C356 C357 1.445 . S
C356 C365 1.395 . S
C357 C335 1.432 . S
C357 C356 1.445 . S
C357 C358 1.370 . S
C358 C357 1.370 . S
C358 C359 1.438 . S
C358 H420 0.930 . S
C359 C345 1.497 . S
C359 C358 1.438 . S
C359 C360 1.360 . S
C360 C359 1.360 . S
C360 C361 1.401 . S
C360 C365 1.446 . S
C361 C360 1.401 . S
C361 C362 1.347 . S
C361 H421 0.929 . S
C362 C361 1.347 . S
C362 C363 1.455 . S
C362 H422 0.930 . S
C363 C350 1.412 . S
C363 C362 1.455 . S
C363 C364 1.331 . S
C364 C353 1.451 . S
C364 C363 1.331 . S
C364 C365 1.497 . S
C365 C356 1.395 . S
C365 C360 1.446 . S
C365 C364 1.497 . S
C366 C367 1.582 . S
C366 H423 0.962 . S
C366 H424 0.959 . S
C366 H425 0.958 . S
C367 C366 1.582 . S
C367 O370 1.458 . S
C367 H396 0.980 . S
O368 C313 1.426 . S
O368 C314 1.334 . S
O369 C341 1.412 . S
O369 C342 1.393 . S
O370 C332 1.435 . S
O370 C367 1.458 . S
O371 C323 1.468 . S
O371 C324 1.408 . S
H372 C313 0.980 . S
H373 C312 0.959 . S
H374 C312 0.959 . S
H375 C312 0.960 . S
H376 C315 0.929 . S
H377 C319 0.929 . S
H378 C320 0.959 . S
H379 C320 0.961 . S
H380 C320 0.961 . S
H381 C321 0.960 . S
H382 C321 0.960 . S
H383 C321 0.961 . S
H384 C323 0.980 . S
H385 C322 0.961 . S
H386 C322 0.960 . S
H387 C322 0.959 . S
H388 C325 0.930 . S
H389 C329 0.931 . S
H390 C330 0.959 . S
H391 C330 0.961 . S
H392 C330 0.959 . S
H393 C331 0.960 . S
H394 C331 0.960 . S
H395 C331 0.960 . S
H396 C367 0.980 . S
H397 C333 0.930 . S
H398 C337 0.930 . S
H399 C338 0.961 . S
H400 C338 0.960 . S
H401 C338 0.958 . S
H402 C339 0.961 . S
H403 C339 0.960 . S
H404 C339 0.960 . S
H405 C341 0.980 . S
H406 C340 0.961 . S
H407 C340 0.961 . S
H408 C340 0.959 . S
H409 C343 0.932 . S
H410 C347 0.929 . S
H411 C348 0.961 . S
H412 C348 0.959 . S
H413 C348 0.959 . S
H414 C349 0.960 . S
H415 C349 0.962 . S
H416 C349 0.961 . S
H417 C351 0.929 . S
H418 C354 0.930 . S
H419 C355 0.929 . S
H420 C358 0.930 . S
H421 C361 0.929 . S
H422 C362 0.930 . S
H423 C366 0.962 . S
H424 C366 0.959 . S
H425 C366 0.958 . S
C426 C427 1.560 . S
C426 H487 0.959 . S
C426 H488 0.959 . S
C426 H489 0.960 . S
C427 C426 1.560 . S
C427 O482 1.426 . S
C427 H486 0.980 . S
C428 C429 1.407 . S
C428 C433 1.418 . S
C428 O482 1.334 . S
C429 C428 1.407 . S
C429 C430 1.360 . S
C429 H490 0.929 . S
C430 C429 1.360 . S
C430 C431 1.401 . S
C430 C434 1.527 . S
C431 C430 1.401 . S
C431 C432 1.405 . S
C431 C464 1.587 . S
C432 C431 1.405 . S
C432 C433 1.332 . S
C432 C435 1.496 . S
C433 C428 1.418 . S
C433 C432 1.332 . S
C433 H491 0.929 . S
C434 C430 1.527 . S
C434 H492 0.959 . S
C434 H493 0.961 . S
C434 H494 0.961 . S
C435 C432 1.496 . S
C435 H495 0.960 . S
C435 H496 0.960 . S
C435 H497 0.961 . S
C436 C437 1.517 1_455 S
C436 H499 0.961 . S
C436 H500 0.960 . S
C436 H501 0.959 . S
C437 C436 1.517 1_655 S
C437 O485 1.468 . S
C437 H498 0.980 . S
C438 C439 1.349 . S
C438 C443 1.367 . S
C438 O485 1.408 . S
C439 C438 1.349 . S
C439 C440 1.407 . S
C439 H502 0.930 . S
C440 C439 1.407 . S
C440 C441 1.449 . S
C440 C444 1.535 . S
C441 C440 1.449 . S
C441 C442 1.384 . S
C441 C466 1.553 . S
C442 C441 1.384 . S
C442 C443 1.364 . S
C442 C445 1.450 . S
C443 C438 1.367 . S
C443 C442 1.364 . S
C443 H503 0.931 . S
C444 C440 1.535 . S
C444 H504 0.959 . S
C444 H505 0.961 . S
C444 H506 0.959 . S
C445 C442 1.450 . S
C445 H507 0.960 . S
C445 H508 0.960 . S
C445 H509 0.960 . S
C446 C447 1.309 . S
C446 C451 1.304 . S
C446 O484 1.435 . S
C447 C446 1.309 . S
C447 C448 1.476 . S
C447 H511 0.930 . S
C448 C447 1.476 . S
C448 C449 1.400 . S
C448 C452 1.567 . S
C449 C448 1.400 . S
C449 C450 1.373 . S
C449 C471 1.432 . S
C450 C449 1.373 . S
C450 C451 1.339 . S
C450 C453 1.530 . S
C451 C446 1.304 . S
C451 C450 1.339 . S
C451 H512 0.930 . S
C452 C448 1.567 . S
C452 H513 0.961 . S
C452 H514 0.960 . S
C452 H515 0.958 . S
C453 C450 1.530 . S
C453 H516 0.961 . S
C453 H517 0.960 . S
C453 H518 0.960 . S
C454 C455 1.530 . S
C454 H520 0.961 . S
C454 H521 0.961 . S
C454 H522 0.959 . S
C455 C454 1.530 . S
C455 O483 1.412 . S
C455 H519 0.980 . S
C456 C457 1.288 . S
C456 C461 1.377 . S
C456 O483 1.393 . S
C457 C456 1.288 . S
C457 C458 1.369 . S
C457 H523 0.932 . S
C458 C457 1.369 . S
C458 C459 1.398 . S
C458 C462 1.527 . S
C459 C458 1.398 . S
C459 C460 1.380 . S
C459 C473 1.497 . S
C460 C459 1.380 . S
C460 C461 1.383 . S
C460 C463 1.603 . S
C461 C456 1.377 . S
C461 C460 1.383 . S
C461 H524 0.929 . S
C462 C458 1.527 . S
C462 H525 0.961 . S
C462 H526 0.959 . S
C462 H527 0.959 . S
C463 C460 1.603 . S
C463 H528 0.960 . S
C463 H529 0.962 . S
C463 H530 0.961 . S
C464 C431 1.587 . S
C464 C465 1.360 . S
C464 C477 1.412 . S
C465 C464 1.360 . S
C465 C466 1.365 . S
C465 H531 0.929 . S
C466 C441 1.553 . S
C466 C465 1.365 . S
C466 C467 1.404 . S
C467 C466 1.404 . S
C467 C468 1.395 . S
C467 C478 1.451 . S
C468 C467 1.395 . S
C468 C469 1.322 . S
C468 H532 0.930 . S
C469 C468 1.322 . S
C469 C470 1.459 . S
C469 H533 0.929 . S
C470 C469 1.459 . S
C470 C471 1.445 . S
C470 C479 1.395 . S
C471 C449 1.432 . S
C471 C470 1.445 . S
C471 C472 1.370 . S
C472 C471 1.370 . S
C472 C473 1.438 . S
C472 H534 0.930 . S
C473 C459 1.497 . S
C473 C472 1.438 . S
C473 C474 1.360 . S
C474 C473 1.360 . S
C474 C475 1.401 . S
C474 C479 1.446 . S
C475 C474 1.401 . S
C475 C476 1.347 . S
C475 H535 0.929 . S
C476 C475 1.347 . S
C476 C477 1.455 . S
C476 H536 0.930 . S
C477 C464 1.412 . S
C477 C476 1.455 . S
C477 C478 1.331 . S
C478 C467 1.451 . S
C478 C477 1.331 . S
C478 C479 1.497 . S
C479 C470 1.395 . S
C479 C474 1.446 . S
C479 C478 1.497 . S
C480 C481 1.559 1_455 S
C480 H537 0.965 . S
C480 H538 0.983 . S
C480 H539 0.946 . S
C481 C480 1.559 1_655 S
C481 O484 1.458 . S
C481 H510 0.980 . S
O482 C427 1.426 . S
O482 C428 1.334 . S
O483 C455 1.412 . S
O483 C456 1.393 . S
O484 C446 1.435 . S
O484 C481 1.458 . S
O485 C437 1.468 . S
O485 C438 1.408 . S
H486 C427 0.980 . S
H487 C426 0.959 . S
H488 C426 0.959 . S
H489 C426 0.960 . S
H490 C429 0.929 . S
H491 C433 0.929 . S
H492 C434 0.959 . S
H493 C434 0.961 . S
H494 C434 0.961 . S
H495 C435 0.960 . S
H496 C435 0.960 . S
H497 C435 0.961 . S
H498 C437 0.980 . S
H499 C436 0.961 . S
H500 C436 0.960 . S
H501 C436 0.959 . S
H502 C439 0.930 . S
H503 C443 0.931 . S
H504 C444 0.959 . S
H505 C444 0.961 . S
H506 C444 0.959 . S
H507 C445 0.960 . S
H508 C445 0.960 . S
H509 C445 0.960 . S
H510 C481 0.980 . S
H511 C447 0.930 . S
H512 C451 0.930 . S
H513 C452 0.961 . S
H514 C452 0.960 . S
H515 C452 0.958 . S
H516 C453 0.961 . S
H517 C453 0.960 . S
H518 C453 0.960 . S
H519 C455 0.980 . S
H520 C454 0.961 . S
H521 C454 0.961 . S
H522 C454 0.959 . S
H523 C457 0.932 . S
H524 C461 0.929 . S
H525 C462 0.961 . S
H526 C462 0.959 . S
H527 C462 0.959 . S
H528 C463 0.960 . S
H529 C463 0.962 . S
H530 C463 0.961 . S
H531 C465 0.929 . S
H532 C468 0.930 . S
H533 C469 0.929 . S
H534 C472 0.930 . S
H535 C475 0.929 . S
H536 C476 0.930 . S
H537 C480 0.965 . S
H538 C480 0.983 . S
H539 C480 0.946 . S
C540 C541 1.560 . S
C540 H601 0.959 . S
C540 H602 0.959 . S
C540 H603 0.960 . S
C541 C540 1.560 . S
C541 O596 1.426 . S
C541 H600 0.980 . S
C542 C543 1.407 . S
C542 C547 1.418 . S
C542 O596 1.334 . S
C543 C542 1.407 . S
C543 C544 1.360 . S
C543 H604 0.929 . S
C544 C543 1.360 . S
C544 C545 1.401 . S
C544 C548 1.527 . S
C545 C544 1.401 . S
C545 C546 1.405 . S
C545 C578 1.587 . S
C546 C545 1.405 . S
C546 C547 1.332 . S
C546 C549 1.496 . S
C547 C542 1.418 . S
C547 C546 1.332 . S
C547 H605 0.929 . S
C548 C544 1.527 . S
C548 H606 0.959 . S
C548 H607 0.961 . S
C548 H608 0.961 . S
C549 C546 1.496 . S
C549 H609 0.960 . S
C549 H610 0.960 . S
C549 H611 0.961 . S
C550 C551 1.517 . S
C550 H613 0.961 . S
C550 H614 0.960 . S
C550 H615 0.959 1_565 S
C551 C550 1.517 . S
C551 O599 1.468 . S
C551 H612 0.980 . S
C552 C553 1.349 . S
C552 C557 1.367 . S
C552 O599 1.408 . S
C553 C552 1.349 . S
C553 C554 1.407 . S
C553 H616 0.930 . S
C554 C553 1.407 . S
C554 C555 1.449 . S
C554 C558 1.535 . S
C555 C554 1.449 . S
C555 C556 1.384 . S
C555 C580 1.553 . S
C556 C555 1.384 . S
C556 C557 1.364 . S
C556 C559 1.450 . S
C557 C552 1.367 . S
C557 C556 1.364 . S
C557 H617 0.931 . S
C558 C554 1.535 . S
C558 H618 0.959 . S
C558 H619 0.961 . S
C558 H620 0.959 . S
C559 C556 1.450 . S
C559 H621 0.960 . S
C559 H622 0.960 . S
C559 H623 0.960 . S
C560 C561 1.309 . S
C560 C565 1.304 . S
C560 O598 1.435 . S
C561 C560 1.309 . S
C561 C562 1.476 . S
C561 H625 0.930 . S
C562 C561 1.476 . S
C562 C563 1.400 . S
C562 C566 1.567 . S
C563 C562 1.400 . S
C563 C564 1.373 . S
C563 C585 1.432 . S
C564 C563 1.373 . S
C564 C565 1.339 . S
C564 C567 1.530 . S
C565 C560 1.304 . S
C565 C564 1.339 . S
C565 H626 0.930 . S
C566 C562 1.567 . S
C566 H627 0.961 . S
C566 H628 0.960 . S
C566 H629 0.958 . S
C567 C564 1.530 . S
C567 H630 0.961 . S
C567 H631 0.960 . S
C567 H632 0.960 . S
C568 C569 1.530 . S
C568 H634 0.961 . S
C568 H635 0.961 . S
C568 H636 0.959 . S
C569 C568 1.530 . S
C569 O597 1.412 . S
C569 H633 0.980 . S
C570 C571 1.288 . S
C570 C575 1.377 . S
C570 O597 1.393 . S
C571 C570 1.288 . S
C571 C572 1.369 . S
C571 H637 0.932 . S
C572 C571 1.369 . S
C572 C573 1.398 . S
C572 C576 1.527 . S
C573 C572 1.398 . S
C573 C574 1.380 . S
C573 C587 1.497 . S
C574 C573 1.380 . S
C574 C575 1.383 . S
C574 C577 1.603 . S
C575 C570 1.377 . S
C575 C574 1.383 . S
C575 H638 0.929 . S
C576 C572 1.527 . S
C576 H639 0.961 . S
C576 H640 0.959 . S
C576 H641 0.959 . S
C577 C574 1.603 . S
C577 H642 0.960 . S
C577 H643 0.962 . S
C577 H644 0.961 . S
C578 C545 1.587 . S
C578 C579 1.360 . S
C578 C591 1.412 . S
C579 C578 1.360 . S
C579 C580 1.365 . S
C579 H645 0.929 . S
C580 C555 1.553 . S
C580 C579 1.365 . S
C580 C581 1.404 . S
C581 C580 1.404 . S
C581 C582 1.395 . S
C581 C592 1.451 . S
C582 C581 1.395 . S
C582 C583 1.322 . S
C582 H646 0.930 . S
C583 C582 1.322 . S
C583 C584 1.459 . S
C583 H647 0.929 . S
C584 C583 1.459 . S
C584 C585 1.445 . S
C584 C593 1.395 . S
C585 C563 1.432 . S
C585 C584 1.445 . S
C585 C586 1.370 . S
C586 C585 1.370 . S
C586 C587 1.438 . S
C586 H648 0.930 . S
C587 C573 1.497 . S
C587 C586 1.438 . S
C587 C588 1.360 . S
C588 C587 1.360 . S
C588 C589 1.401 . S
C588 C593 1.446 . S
C589 C588 1.401 . S
C589 C590 1.347 . S
C589 H649 0.929 . S
C590 C589 1.347 . S
C590 C591 1.455 . S
C590 H650 0.930 . S
C591 C578 1.412 . S
C591 C590 1.455 . S
C591 C592 1.331 . S
C592 C581 1.451 . S
C592 C591 1.331 . S
C592 C593 1.497 . S
C593 C584 1.395 . S
C593 C588 1.446 . S
C593 C592 1.497 . S
C594 C595 1.582 . S
C594 H651 0.962 . S
C594 H652 0.959 1_565 S
C594 H653 0.958 . S
C595 C594 1.582 . S
C595 O598 1.458 . S
C595 H624 0.980 . S
O596 C541 1.426 . S
O596 C542 1.334 . S
O597 C569 1.412 . S
O597 C570 1.393 . S
O598 C560 1.435 . S
O598 C595 1.458 . S
O599 C551 1.468 . S
O599 C552 1.408 . S
H600 C541 0.980 . S
H601 C540 0.959 . S
H602 C540 0.959 . S
H603 C540 0.960 . S
H604 C543 0.929 . S
H605 C547 0.929 . S
H606 C548 0.959 . S
H607 C548 0.961 . S
H608 C548 0.961 . S
H609 C549 0.960 . S
H610 C549 0.960 . S
H611 C549 0.961 . S
H612 C551 0.980 . S
H613 C550 0.961 . S
H614 C550 0.960 . S
H615 C550 0.959 1_545 S
H616 C553 0.930 . S
H617 C557 0.931 . S
H618 C558 0.959 . S
H619 C558 0.961 . S
H620 C558 0.959 . S
H621 C559 0.960 . S
H622 C559 0.960 . S
H623 C559 0.960 . S
H624 C595 0.980 . S
H625 C561 0.930 . S
H626 C565 0.930 . S
H627 C566 0.961 . S
H628 C566 0.960 . S
H629 C566 0.958 . S
H630 C567 0.961 . S
H631 C567 0.960 . S
H632 C567 0.960 . S
H633 C569 0.980 . S
H634 C568 0.961 . S
H635 C568 0.961 . S
H636 C568 0.959 . S
H637 C571 0.932 . S
H638 C575 0.929 . S
H639 C576 0.961 . S
H640 C576 0.959 . S
H641 C576 0.959 . S
H642 C577 0.960 . S
H643 C577 0.962 . S
H644 C577 0.961 . S
H645 C579 0.929 . S
H646 C582 0.930 . S
H647 C583 0.929 . S
H648 C586 0.930 . S
H649 C589 0.929 . S
H650 C590 0.930 . S
H651 C594 0.962 . S
H652 C594 0.959 1_545 S
H653 C594 0.958 . S
C654 C655 1.560 . S
C654 H715 0.959 . S
C654 H716 0.959 . S
C654 H717 0.960 . S
C655 C654 1.560 . S
C655 O710 1.426 . S
C655 H714 0.980 . S
C656 C657 1.407 . S
C656 C661 1.418 . S
C656 O710 1.334 . S
C657 C656 1.407 . S
C657 C658 1.360 . S
C657 H718 0.929 . S
C658 C657 1.360 . S
C658 C659 1.401 . S
C658 C662 1.527 . S
C659 C658 1.401 . S
C659 C660 1.405 . S
C659 C692 1.587 . S
C660 C659 1.405 . S
C660 C661 1.332 . S
C660 C663 1.496 . S
C661 C656 1.418 . S
C661 C660 1.332 . S
C661 H719 0.929 . S
C662 C658 1.527 . S
C662 H720 0.959 . S
C662 H721 0.961 . S
C662 H722 0.961 . S
C663 C660 1.496 . S
C663 H723 0.960 . S
C663 H724 0.960 . S
C663 H725 0.961 . S
C664 C665 1.517 . S
C664 H727 0.961 . S
C664 H728 0.960 . S
C664 H729 0.959 . S
C665 C664 1.517 . S
C665 O713 1.468 . S
C665 H726 0.980 . S
C666 C667 1.349 . S
C666 C671 1.367 . S
C666 O713 1.408 . S
C667 C666 1.349 . S
C667 C668 1.407 . S
C667 H730 0.930 . S
C668 C667 1.407 . S
C668 C669 1.449 . S
C668 C672 1.535 . S
C669 C668 1.449 . S
C669 C670 1.384 . S
C669 C694 1.553 . S
C670 C669 1.384 . S
C670 C671 1.364 . S
C670 C673 1.450 . S
C671 C666 1.367 . S
C671 C670 1.364 . S
C671 H731 0.931 . S
C672 C668 1.535 . S
C672 H732 0.959 . S
C672 H733 0.961 . S
C672 H734 0.959 . S
C673 C670 1.450 . S
C673 H735 0.960 . S
C673 H736 0.960 . S
C673 H737 0.960 . S
C674 C675 1.309 . S
C674 C679 1.304 . S
C674 O712 1.435 . S
C675 C674 1.309 . S
C675 C676 1.476 . S
C675 H739 0.930 . S
C676 C675 1.476 . S
C676 C677 1.400 . S
C676 C680 1.567 . S
C677 C676 1.400 . S
C677 C678 1.373 . S
C677 C699 1.432 . S
C678 C677 1.373 . S
C678 C679 1.339 . S
C678 C681 1.530 . S
C679 C674 1.304 . S
C679 C678 1.339 . S
C679 H740 0.930 . S
C680 C676 1.567 . S
C680 H741 0.961 . S
C680 H742 0.960 . S
C680 H743 0.958 . S
C681 C678 1.530 . S
C681 H744 0.961 . S
C681 H745 0.960 . S
C681 H746 0.960 . S
C682 C683 1.530 . S
C682 H748 0.961 . S
C682 H749 0.961 . S
C682 H750 0.959 . S
C683 C682 1.530 . S
C683 O711 1.412 . S
C683 H747 0.980 . S
C684 C685 1.288 . S
C684 C689 1.377 . S
C684 O711 1.393 . S
C685 C684 1.288 . S
C685 C686 1.369 . S
C685 H751 0.932 . S
C686 C685 1.369 . S
C686 C687 1.398 . S
C686 C690 1.527 . S
C687 C686 1.398 . S
C687 C688 1.380 . S
C687 C701 1.497 . S
C688 C687 1.380 . S
C688 C689 1.383 . S
C688 C691 1.603 . S
C689 C684 1.377 . S
C689 C688 1.383 . S
C689 H752 0.929 . S
C690 C686 1.527 . S
C690 H753 0.961 . S
C690 H754 0.959 . S
C690 H755 0.959 . S
C691 C688 1.603 . S
C691 H756 0.960 . S
C691 H757 0.962 . S
C691 H758 0.961 . S
C692 C659 1.587 . S
C692 C693 1.360 . S
C692 C705 1.412 . S
C693 C692 1.360 . S
C693 C694 1.365 . S
C693 H759 0.929 . S
C694 C669 1.553 . S
C694 C693 1.365 . S
C694 C695 1.404 . S
C695 C694 1.404 . S
C695 C696 1.395 . S
C695 C706 1.451 . S
C696 C695 1.395 . S
C696 C697 1.322 . S
C696 H760 0.930 . S
C697 C696 1.322 . S
C697 C698 1.459 . S
C697 H761 0.929 . S
C698 C697 1.459 . S
C698 C699 1.445 . S
C698 C707 1.395 . S
C699 C677 1.432 . S
C699 C698 1.445 . S
C699 C700 1.370 . S
C700 C699 1.370 . S
C700 C701 1.438 . S
C700 H762 0.930 . S
C701 C687 1.497 . S
C701 C700 1.438 . S
C701 C702 1.360 . S
C702 C701 1.360 . S
C702 C703 1.401 . S
C702 C707 1.446 . S
C703 C702 1.401 . S
C703 C704 1.347 . S
C703 H763 0.929 . S
C704 C703 1.347 . S
C704 C705 1.455 . S
C704 H764 0.930 . S
C705 C692 1.412 . S
C705 C704 1.455 . S
C705 C706 1.331 . S
C706 C695 1.451 . S
C706 C705 1.331 . S
C706 C707 1.497 . S
C707 C698 1.395 . S
C707 C702 1.446 . S
C707 C706 1.497 . S
C708 C709 1.582 . S
C708 H765 0.962 . S
C708 H766 0.959 . S
C708 H767 0.958 . S
C709 C708 1.582 . S
C709 O712 1.458 . S
C709 H738 0.980 . S
O710 C655 1.426 . S
O710 C656 1.334 . S
O711 C683 1.412 . S
O711 C684 1.393 . S
O712 C674 1.435 . S
O712 C709 1.458 . S
O713 C665 1.468 . S
O713 C666 1.408 . S
H714 C655 0.980 . S
H715 C654 0.959 . S
H716 C654 0.959 . S
H717 C654 0.960 . S
H718 C657 0.929 . S
H719 C661 0.929 . S
H720 C662 0.959 . S
H721 C662 0.961 . S
H722 C662 0.961 . S
H723 C663 0.960 . S
H724 C663 0.960 . S
H725 C663 0.961 . S
H726 C665 0.980 . S
H727 C664 0.961 . S
H728 C664 0.960 . S
H729 C664 0.959 . S
H730 C667 0.930 . S
H731 C671 0.931 . S
H732 C672 0.959 . S
H733 C672 0.961 . S
H734 C672 0.959 . S
H735 C673 0.960 . S
H736 C673 0.960 . S
H737 C673 0.960 . S
H738 C709 0.980 . S
H739 C675 0.930 . S
H740 C679 0.930 . S
H741 C680 0.961 . S
H742 C680 0.960 . S
H743 C680 0.958 . S
H744 C681 0.961 . S
H745 C681 0.960 . S
H746 C681 0.960 . S
H747 C683 0.980 . S
H748 C682 0.961 . S
H749 C682 0.961 . S
H750 C682 0.959 . S
H751 C685 0.932 . S
H752 C689 0.929 . S
H753 C690 0.961 . S
H754 C690 0.959 . S
H755 C690 0.959 . S
H756 C691 0.960 . S
H757 C691 0.962 . S
H758 C691 0.961 . S
H759 C693 0.929 . S
H760 C696 0.930 . S
H761 C697 0.929 . S
H762 C700 0.930 . S
H763 C703 0.929 . S
H764 C704 0.930 . S
H765 C708 0.962 . S
H766 C708 0.959 . S
H767 C708 0.958 . S
C768 C769 1.369 . S
C768 C770 1.419 . S
C768 H772 0.930 . S
C769 C768 1.369 . S
C769 C778 1.429 . S
C770 C768 1.419 . S
C770 C771 1.363 . S
C770 H773 0.929 . S
C771 C770 1.363 . S
C771 C777 1.428 . S
H772 C768 0.930 . S
H773 C770 0.929 . S
S774 N775 1.613 . S
S774 N776 1.610 . S
N775 S774 1.613 . S
N775 C778 1.350 . S
N776 S774 1.610 . S
N776 C777 1.351 . S
C777 C771 1.428 . S
C777 N776 1.351 . S
C777 C778 1.434 . S
C778 C769 1.429 . S
C778 N775 1.350 . S
C778 C777 1.434 . S
C779 C780 1.369 . S
C779 C781 1.419 . S
C779 H783 0.930 . S
C780 C779 1.369 . S
C780 C789 1.429 . S
C781 C779 1.419 . S
C781 C782 1.363 . S
C781 H784 0.929 . S
C782 C781 1.363 . S
C782 C788 1.428 . S
H783 C779 0.930 . S
H784 C781 0.929 . S
S785 N786 1.613 . S
S785 N787 1.610 . S
N786 S785 1.613 . S
N786 C789 1.350 . S
N787 S785 1.610 . S
N787 C788 1.351 . S
C788 C782 1.428 . S
C788 N787 1.351 . S
C788 C789 1.434 . S
C789 C780 1.429 . S
C789 N786 1.350 . S
C789 C788 1.434 . S
C790 C791 1.369 . S
C790 C792 1.419 . S
C790 H794 0.930 . S
C791 C790 1.369 . S
C791 C800 1.429 . S
C792 C790 1.419 . S
C792 C793 1.363 . S
C792 H795 0.929 . S
C793 C792 1.363 . S
C793 C799 1.428 . S
H794 C790 0.930 . S
H795 C792 0.929 . S
S796 N797 1.613 . S
S796 N798 1.610 . S
N797 S796 1.613 . S
N797 C800 1.350 . S
N798 S796 1.610 . S
N798 C799 1.351 . S
C799 C793 1.428 . S
C799 N798 1.351 . S
C799 C800 1.434 . S
C800 C791 1.429 . S
C800 N797 1.350 . S
C800 C799 1.434 . S
C801 C802 1.369 . S
C801 C803 1.419 . S
C801 H805 0.930 . S
C802 C801 1.369 . S
C802 C811 1.429 . S
C803 C801 1.419 . S
C803 C804 1.363 . S
C803 H806 0.929 . S
C804 C803 1.363 . S
C804 C810 1.428 . S
H805 C801 0.930 . S
H806 C803 0.929 . S
S807 N808 1.613 . S
S807 N809 1.610 . S
N808 S807 1.613 . S
N808 C811 1.350 . S
N809 S807 1.610 . S
N809 C810 1.351 . S
C810 C804 1.428 . S
C810 N809 1.351 . S
C810 C811 1.434 . S
C811 C802 1.429 . S
C811 N808 1.350 . S
C811 C810 1.434 . S
C812 C813 1.369 . S
C812 C814 1.419 . S
C812 H816 0.930 . S
C813 C812 1.369 . S
C813 C822 1.429 . S
C814 C812 1.419 . S
C814 C815 1.363 . S
C814 H817 0.929 . S
C815 C814 1.363 . S
C815 C821 1.428 . S
H816 C812 0.930 . S
H817 C814 0.929 . S
S818 N819 1.613 . S
S818 N820 1.610 . S
N819 S818 1.613 . S
N819 C822 1.350 1_545 S
N820 S818 1.610 . S
N820 C821 1.351 1_545 S
C821 C815 1.428 . S
C821 N820 1.351 1_565 S
C821 C822 1.434 . S
C822 C813 1.429 . S
C822 N819 1.350 1_565 S
C822 C821 1.434 . S
C823 C824 1.369 . S
C823 C825 1.419 . S
C823 H827 0.930 . S
C824 C823 1.369 . S
C824 C833 1.429 . S
C825 C823 1.419 . S
C825 C826 1.363 . S
C825 H828 0.929 . S
C826 C825 1.363 . S
C826 C832 1.428 . S
H827 C823 0.930 . S
H828 C825 0.929 . S
S829 N830 1.613 . S
S829 N831 1.610 . S
N830 S829 1.613 . S
N830 C833 1.350 . S
N831 S829 1.610 . S
N831 C832 1.351 . S
C832 C826 1.428 . S
C832 N831 1.351 . S
C832 C833 1.434 . S
C833 C824 1.429 . S
C833 N830 1.350 . S
C833 C832 1.434 . S
C834 C835 1.369 . S
C834 C836 1.419 . S
C834 H838 0.930 . S
C835 C834 1.369 . S
C835 C844 1.429 . S
C836 C834 1.419 . S
C836 C837 1.363 . S
C836 H839 0.929 . S
C837 C836 1.363 . S
C837 C843 1.428 . S
H838 C834 0.930 . S
H839 C836 0.929 . S
S840 N841 1.613 . S
S840 N842 1.610 1_545 S
N841 S840 1.613 . S
N841 C844 1.350 1_545 S
N842 S840 1.610 1_565 S
N842 C843 1.351 . S
C843 C837 1.428 . S
C843 N842 1.351 . S
C843 C844 1.434 . S
C844 C835 1.429 . S
C844 N841 1.350 1_565 S
C844 C843 1.434 . S
C845 C846 1.369 . S
C845 C847 1.419 . S
C845 H849 0.930 . S
C846 C845 1.369 . S
C846 C855 1.429 . S
C847 C845 1.419 . S
C847 C848 1.363 . S
C847 H850 0.929 . S
C848 C847 1.363 . S
C848 C854 1.428 . S
H849 C845 0.930 . S
H850 C847 0.929 . S
S851 N852 1.613 . S
S851 N853 1.610 . S
N852 S851 1.613 . S
N852 C855 1.350 . S
N853 S851 1.610 . S
N853 C854 1.351 . S
C854 C848 1.428 . S
C854 N853 1.351 . S
C854 C855 1.434 . S
C855 C846 1.429 . S
C855 N852 1.350 . S
C855 C854 1.434 . S
C856 C857 1.369 . S
C856 C858 1.419 . S
C856 H860 0.930 . S
C857 C856 1.369 . S
C857 C866 1.429 . S
C858 C856 1.419 . S
C858 C859 1.363 . S
C858 H861 0.929 . S
C859 C858 1.363 . S
C859 C865 1.428 . S
H860 C856 0.930 . S
H861 C858 0.929 . S
S862 N863 1.613 . S
S862 N864 1.610 1_655 S
N863 S862 1.613 . S
N863 C866 1.350 1_655 S
N864 S862 1.610 1_455 S
N864 C865 1.351 . S
C865 C859 1.428 . S
C865 N864 1.351 . S
C865 C866 1.434 . S
C866 C857 1.429 . S
C866 N863 1.350 1_455 S
C866 C865 1.434 . S
C867 C868 1.369 . S
C867 C869 1.419 . S
C867 H871 0.930 . S
C868 C867 1.369 . S
C868 C877 1.429 . S
C869 C867 1.419 . S
C869 C870 1.363 . S
C869 H872 0.929 . S
C870 C869 1.363 . S
C870 C876 1.428 . S
H871 C867 0.930 . S
H872 C869 0.929 . S
S873 N874 1.613 . S
S873 N875 1.610 1_554 S
N874 S873 1.613 . S
N874 C877 1.350 1_554 S
N875 S873 1.610 1_556 S
N875 C876 1.351 . S
C876 C870 1.428 . S
C876 N875 1.351 . S
C876 C877 1.434 . S
C877 C868 1.429 . S
C877 N874 1.350 1_556 S
C877 C876 1.434 . S
C878 C879 1.369 . S
C878 C880 1.419 . S
C878 H882 0.930 . S
C879 C878 1.369 . S
C879 C888 1.429 . S
C880 C878 1.419 . S
C880 C881 1.363 . S
C880 H883 0.929 . S
C881 C880 1.363 . S
C881 C887 1.428 . S
H882 C878 0.930 . S
H883 C880 0.929 . S
S884 N885 1.613 . S
S884 N886 1.610 . S
N885 S884 1.613 . S
N885 C888 1.350 . S
N886 S884 1.610 . S
N886 C887 1.351 . S
C887 C881 1.428 . S
C887 N886 1.351 . S
C887 C888 1.434 . S
C888 C879 1.429 . S
C888 N885 1.350 . S
C888 C887 1.434 . S
C889 C890 1.369 . S
C889 C891 1.419 . S
C889 H893 0.930 . S
C890 C889 1.369 . S
C890 C899 1.429 1_655 S
C891 C889 1.419 . S
C891 C892 1.363 . S
C891 H894 0.929 . S
C892 C891 1.363 . S
C892 C898 1.428 1_655 S
H893 C889 0.930 . S
H894 C891 0.929 . S
S895 N896 1.613 . S
S895 N897 1.610 . S
N896 S895 1.613 . S
N896 C899 1.350 . S
N897 S895 1.610 . S
N897 C898 1.351 . S
C898 C892 1.428 1_455 S
C898 N897 1.351 . S
C898 C899 1.434 . S
C899 C890 1.429 1_455 S
C899 N896 1.350 . S
C899 C898 1.434 . S
C900 C901 1.369 . S
C900 C902 1.419 . S
C900 H904 0.930 . S
C901 C900 1.369 . S
C901 C910 1.429 . S
C902 C900 1.419 . S
C902 C903 1.363 . S
C902 H905 0.929 . S
C903 C902 1.363 . S
C903 C909 1.428 . S
H904 C900 0.930 . S
H905 C902 0.929 . S
S906 N907 1.613 . S
S906 N908 1.610 . S
N907 S906 1.613 . S
N907 C910 1.350 . S
N908 S906 1.610 . S
N908 C909 1.351 . S
C909 C903 1.428 . S
C909 N908 1.351 . S
C909 C910 1.434 . S
C910 C901 1.429 . S
C910 N907 1.350 . S
C910 C909 1.434 . S
C911 C912 1.369 . S
C911 C913 1.419 . S
C911 H915 0.930 . S
C912 C911 1.369 . S
C912 C921 1.429 . S
C913 C911 1.419 . S
C913 C914 1.363 . S
C913 H916 0.929 . S
C914 C913 1.363 . S
C914 C920 1.428 . S
H915 C911 0.930 . S
H916 C913 0.929 . S
S917 N918 1.613 1_545 S
S917 N919 1.610 1_545 S
N918 S917 1.613 1_565 S
N918 C921 1.350 . S
N919 S917 1.610 1_565 S
N919 C920 1.351 . S
C920 C914 1.428 . S
C920 N919 1.351 . S
C920 C921 1.434 . S
C921 C912 1.429 . S
C921 N918 1.350 . S
C921 C920 1.434 . S
C922 C923 1.369 . S
C922 C924 1.419 . S
C922 H926 0.930 . S
C923 C922 1.369 . S
C923 C932 1.429 . S
C924 C922 1.419 . S
C924 C925 1.363 . S
C924 H927 0.929 . S
C925 C924 1.363 . S
C925 C931 1.428 . S
H926 C922 0.930 . S
H927 C924 0.929 . S
S928 N929 1.613 . S
S928 N930 1.610 . S
N929 S928 1.613 . S
N929 C932 1.350 . S
N930 S928 1.610 . S
N930 C931 1.351 . S
C931 C925 1.428 . S
C931 N930 1.351 . S
C931 C932 1.434 . S
C932 C923 1.429 . S
C932 N929 1.350 . S
C932 C931 1.434 . S
C933 C934 1.369 . S
C933 C935 1.419 . S
C933 H937 0.930 . S
C934 C933 1.369 . S
C934 C943 1.429 . S
C935 C933 1.419 . S
C935 C936 1.363 . S
C935 H938 0.929 . S
C936 C935 1.363 . S
C936 C942 1.428 . S
H937 C933 0.930 . S
H938 C935 0.929 . S
S939 N940 1.613 . S
S939 N941 1.610 1_655 S
N940 S939 1.613 . S
N940 C943 1.350 1_655 S
N941 S939 1.610 1_455 S
N941 C942 1.351 . S
C942 C936 1.428 . S
C942 N941 1.351 . S
C942 C943 1.434 . S
C943 C934 1.429 . S
C943 N940 1.350 1_455 S
C943 C942 1.434 . S
C944 C945 1.369 . S
C944 C946 1.419 . S
C944 H948 0.930 . S
C945 C944 1.369 . S
C945 C954 1.429 . S
C946 C944 1.419 . S
C946 C947 1.363 . S
C946 H949 0.929 . S
C947 C946 1.363 . S
C947 C953 1.428 . S
H948 C944 0.930 . S
H949 C946 0.929 . S
S950 N951 1.613 . S
S950 N952 1.610 . S
N951 S950 1.613 . S
N951 C954 1.350 . S
N952 S950 1.610 . S
N952 C953 1.351 . S
C953 C947 1.428 . S
C953 N952 1.351 . S
C953 C954 1.434 . S
C954 C945 1.429 . S
C954 N951 1.350 . S
C954 C953 1.434 . S
C955 C956 1.369 . S
C955 C957 1.419 . S
C955 H959 0.930 . S
C956 C955 1.369 . S
C956 C965 1.429 . S
C957 C955 1.419 . S
C957 C958 1.363 . S
C957 H960 0.929 . S
C958 C957 1.363 . S
C958 C964 1.428 . S
H959 C955 0.930 . S
H960 C957 0.929 . S
S961 N962 1.613 . S
S961 N963 1.610 . S
N962 S961 1.613 . S
N962 C965 1.350 . S
N963 S961 1.610 . S
N963 C964 1.351 . S
C964 C958 1.428 . S
C964 N963 1.351 . S
C964 C965 1.434 . S
C965 C956 1.429 . S
C965 N962 1.350 . S
C965 C964 1.434 . S
C966 C967 1.369 . S
C966 C968 1.419 . S
C966 H970 0.955 . S
C967 C966 1.369 . S
C967 C976 1.429 . S
C968 C966 1.419 . S
C968 C969 1.363 . S
C968 H971 0.929 . S
C969 C968 1.363 . S
C969 C975 1.428 . S
H970 C966 0.955 . S
H971 C968 0.929 . S
S972 N973 1.613 . S
S972 N974 1.610 . S
N973 S972 1.613 . S
N973 C976 1.350 . S
N974 S972 1.610 . S
N974 C975 1.351 . S
C975 C969 1.428 . S
C975 N974 1.351 . S
C975 C976 1.434 . S
C976 C967 1.429 . S
C976 N973 1.350 . S
C976 C975 1.434 . S
C977 C978 1.369 . S
C977 C979 1.419 . S
C977 H981 0.930 . S
C978 C977 1.369 . S
C978 C987 1.429 . S
C979 C977 1.419 . S
C979 C980 1.363 . S
C979 H982 0.929 . S
C980 C979 1.363 . S
C980 C986 1.428 . S
H981 C977 0.930 . S
H982 C979 0.929 . S
S983 N984 1.613 . S
S983 N985 1.610 . S
N984 S983 1.613 . S
N984 C987 1.350 . S
N985 S983 1.610 . S
N985 C986 1.351 . S
C986 C980 1.428 . S
C986 N985 1.351 . S
C986 C987 1.434 . S
C987 C978 1.429 . S
C987 N984 1.350 . S
C987 C986 1.434 . S
C988 C989 1.369 . S
C988 C990 1.419 . S
C988 H992 0.930 . S
C989 C988 1.369 . S
C989 C998 1.429 . S
C990 C988 1.419 . S
C990 C991 1.363 . S
C990 H993 0.929 . S
C991 C990 1.363 . S
C991 C997 1.428 . S
H992 C988 0.930 . S
H993 C990 0.929 . S
S994 N995 1.613 . S
S994 N996 1.610 . S
N995 S994 1.613 . S
N995 C998 1.350 . S
N996 S994 1.610 . S
N996 C997 1.351 . S
C997 C991 1.428 . S
C997 N996 1.351 . S
C997 C998 1.434 . S
C998 C989 1.429 . S
C998 N995 1.350 . S
C998 C997 1.434 . S
C999 C1000 1.369 . S
C999 C1001 1.419 . S
C999 H1003 0.930 1_565 S
C1000 C999 1.369 . S
C1000 C1009 1.429 . S
C1001 C999 1.419 . S
C1001 C1002 1.363 . S
C1001 H1004 0.929 1_565 S
C1002 C1001 1.363 . S
C1002 C1008 1.428 . S
H1003 C999 0.930 1_545 S
H1004 C1001 0.929 1_545 S
S1005 N1006 1.613 . S
S1005 N1007 1.610 . S
N1006 S1005 1.613 . S
N1006 C1009 1.350 . S
N1007 S1005 1.610 . S
N1007 C1008 1.351 . S
C1008 C1002 1.428 . S
C1008 N1007 1.351 . S
C1008 C1009 1.434 . S
C1009 C1000 1.429 . S
C1009 N1006 1.350 . S
C1009 C1008 1.434 . S
C1010 C1011 1.369 . S
C1010 C1012 1.419 . S
C1010 H1014 0.930 . S
C1011 C1010 1.369 . S
C1011 C1020 1.429 . S
C1012 C1010 1.419 . S
C1012 C1013 1.363 . S
C1012 H1015 0.929 . S
C1013 C1012 1.363 . S
C1013 C1019 1.428 . S
H1014 C1010 0.930 . S
H1015 C1012 0.929 . S
S1016 N1017 1.613 . S
S1016 N1018 1.610 . S
N1017 S1016 1.613 . S
N1017 C1020 1.350 . S
N1018 S1016 1.610 . S
N1018 C1019 1.351 . S
C1019 C1013 1.428 . S
C1019 N1018 1.351 . S
C1019 C1020 1.434 . S
C1020 C1011 1.429 . S
C1020 N1017 1.350 . S
C1020 C1019 1.434 . S
C1021 C1022 1.369 . S
C1021 C1023 1.419 . S
C1021 H1025 0.930 . S
C1022 C1021 1.369 . S
C1022 C1031 1.429 . S
C1023 C1021 1.419 . S
C1023 C1024 1.363 . S
C1023 H1026 0.929 . S
C1024 C1023 1.363 . S
C1024 C1030 1.428 . S
H1025 C1021 0.930 . S
H1026 C1023 0.929 . S
S1027 N1028 1.613 . S
S1027 N1029 1.610 . S
N1028 S1027 1.613 . S
N1028 C1031 1.350 . S
N1029 S1027 1.610 . S
N1029 C1030 1.351 . S
C1030 C1024 1.428 . S
C1030 N1029 1.351 . S
C1030 C1031 1.434 . S
C1031 C1022 1.429 . S
C1031 N1028 1.350 . S
C1031 C1030 1.434 . S
C769 C13 2.010 . S
C771 C113 1.927 . S
C780 C27 1.990 . S
C782 C253 1.865 . S
C793 C341 1.842 . S
C791 C29 1.970 . S
C804 C481 1.895 . S
C802 C54 2.016 . S
C815 C595 1.825 . S
C813 C69 1.981 . S
C826 C665 1.022 . S
C824 C83 1.995 . S
C835 C15 1.994 . S
C837 C323 1.051 . S
C846 C41 1.932 . S
C848 C427 1.365 . S
C859 C541 1.367 . S
C857 C42 1.933 . S
C870 C683 1.848 . S
C868 C57 1.959 . S
C879 C71 2.065 . S
C881 C95 1.110 . S
C892 C199 1.373 . S
C890 C1 1.888 1_655 S
C903 C437 1.814 . S
C901 C12 2.106 1_655 S
C912 C26 2.158 . S
C914 C551 1.859 . S
C925 C709 1.324 . S
C923 C28 2.215 . S
C934 C55 2.052 . S
C936 C85 1.928 . S
C945 C68 2.253 . S
C947 C209 1.900 . S
C956 C82 2.053 . S
C958 C313 1.927 . S
C967 C14 2.108 . S
C969 C655 1.957 . S
C980 C139 1.287 . S
C978 C40 2.141 . S
C989 C43 2.137 . S
C991 C227 1.399 . S
C1000 C56 2.158 . S
C1002 C367 1.242 . S
C1011 C70 2.080 . S
C1013 C455 1.378 . S
C1022 C0 2.152 . S
C1024 C569 1.440 . S
