# Generated by pormake.
# Topology pto, (3,4)-cn, num edge types: 1
# Building blocks:
#     Node 0, Type 0, BuildingBlock: WUSLED_clean_sbu_0, # of connection points: 3
#     Node 1, Type 0, BuildingBlock: WUSLED_clean_sbu_0, # of connection points: 3
#     Node 2, Type 0, BuildingBlock: WUSLED_clean_sbu_0, # of connection points: 3
#     Node 3, Type 0, BuildingBlock: WUSLED_clean_sbu_0, # of connection points: 3
#     Node 4, Type 0, BuildingBlock: WUSLED_clean_sbu_0, # of connection points: 3
#     Node 5, Type 0, BuildingBlock: WUSLED_clean_sbu_0, # of connection points: 3
#     Node 6, Type 0, BuildingBlock: WUSLED_clean_sbu_0, # of connection points: 3
#     Node 7, Type 0, BuildingBlock: WUSLED_clean_sbu_0, # of connection points: 3
#     Node 8, Type 1, BuildingBlock: MUDLON_clean_linker_0, # of connection points: 4
#     Node 9, Type 1, BuildingBlock: MUDLON_clean_linker_0, # of connection points: 4
#     Node 10, Type 1, BuildingBlock: MUDLON_clean_linker_0, # of connection points: 4
#     Node 11, Type 1, BuildingBlock: MUDLON_clean_linker_0, # of connection points: 4
#     Node 12, Type 1, BuildingBlock: MUDLON_clean_linker_0, # of connection points: 4
#     Node 13, Type 1, BuildingBlock: MUDLON_clean_linker_0, # of connection points: 4
#     Edge 14, Type (0, 1), BuildingBlock: EZIPEK_clean_linker_0, # of connection points: 2
#     Edge 15, Type (0, 1), BuildingBlock: EZIPEK_clean_linker_0, # of connection points: 2
#     Edge 16, Type (0, 1), BuildingBlock: EZIPEK_clean_linker_0, # of connection points: 2
#     Edge 17, Type (0, 1), BuildingBlock: EZIPEK_clean_linker_0, # of connection points: 2
#     Edge 18, Type (0, 1), BuildingBlock: EZIPEK_clean_linker_0, # of connection points: 2
#     Edge 19, Type (0, 1), BuildingBlock: EZIPEK_clean_linker_0, # of connection points: 2
#     Edge 20, Type (0, 1), BuildingBlock: EZIPEK_clean_linker_0, # of connection points: 2
#     Edge 21, Type (0, 1), BuildingBlock: EZIPEK_clean_linker_0, # of connection points: 2
#     Edge 22, Type (0, 1), BuildingBlock: EZIPEK_clean_linker_0, # of connection points: 2
#     Edge 23, Type (0, 1), BuildingBlock: EZIPEK_clean_linker_0, # of connection points: 2
#     Edge 24, Type (0, 1), BuildingBlock: EZIPEK_clean_linker_0, # of connection points: 2
#     Edge 25, Type (0, 1), BuildingBlock: EZIPEK_clean_linker_0, # of connection points: 2
#     Edge 26, Type (0, 1), BuildingBlock: EZIPEK_clean_linker_0, # of connection points: 2
#     Edge 27, Type (0, 1), BuildingBlock: EZIPEK_clean_linker_0, # of connection points: 2
#     Edge 28, Type (0, 1), BuildingBlock: EZIPEK_clean_linker_0, # of connection points: 2
#     Edge 29, Type (0, 1), BuildingBlock: EZIPEK_clean_linker_0, # of connection points: 2
#     Edge 30, Type (0, 1), BuildingBlock: EZIPEK_clean_linker_0, # of connection points: 2
#     Edge 31, Type (0, 1), BuildingBlock: EZIPEK_clean_linker_0, # of connection points: 2
#     Edge 32, Type (0, 1), BuildingBlock: EZIPEK_clean_linker_0, # of connection points: 2
#     Edge 33, Type (0, 1), BuildingBlock: EZIPEK_clean_linker_0, # of connection points: 2
#     Edge 34, Type (0, 1), BuildingBlock: EZIPEK_clean_linker_0, # of connection points: 2
#     Edge 35, Type (0, 1), BuildingBlock: EZIPEK_clean_linker_0, # of connection points: 2
#     Edge 36, Type (0, 1), BuildingBlock: EZIPEK_clean_linker_0, # of connection points: 2
#     Edge 37, Type (0, 1), BuildingBlock: EZIPEK_clean_linker_0, # of connection points: 2
# Relax obj value: 0.006
# Max RMSD: 0.037
# Mean RMSD: 0.021
data_MOF--net-pto--node1-WUSLED_clean_sbu_0--node2-MUDLON_clean_linker_0--edge1-EZIPEK_clean_linker_0
_symmetry_space_group_name_H-M    P1
_symmetry_Int_Tables_number       1
_symmetry_cell_setting            triclinic
loop_
_symmetry_equiv_pos_as_xyz
'x, y, z'
_cell_length_a     41.341515
_cell_length_b     69.127573
_cell_length_c     55.661621
_cell_angle_alpha  89.587679
_cell_angle_beta   90.546096
_cell_angle_gamma 90.634642
loop_
_atom_site_label
_atom_site_type_symbol
_atom_site_fract_x
_atom_site_fract_y
_atom_site_fract_z
_atom_type_partial_charge
C0 C 0.22073 0.22595 0.36909 0.0
C1 C 0.245 0.21231 0.36502 0.0
C2 C 0.22223 0.19125 0.39587 0.0
C3 C 0.2458 0.19507 0.3784 0.0
C4 C 0.19781 0.20481 0.39969 0.0
C5 C 0.19709 0.22204 0.38639 0.0
U6 U 0.24749 0.25841 0.3169 0.0
O7 O 0.21923 0.27852 0.29435 0.0
O8 O 0.26003 0.2894 0.31609 0.0
C9 C 0.23512 0.2938 0.3023 0.0
C10 C 0.21985 0.24436 0.35566 0.0
C11 C 0.21507 0.3102 0.30995 0.0
C12 C 0.17486 0.33446 0.29982 0.0
C13 C 0.19369 0.31869 0.2933 0.0
C14 C 0.19869 0.3337 0.33975 0.0
C15 C 0.17733 0.34208 0.32304 0.0
C16 C 0.21738 0.31783 0.3333 0.0
C17 C 0.30723 0.23929 0.27106 0.0
C18 C 0.32661 0.25878 0.23751 0.0
C19 C 0.34637 0.22618 0.24352 0.0
C20 C 0.32687 0.22407 0.26375 0.0
C21 C 0.34642 0.24355 0.23032 0.0
C22 C 0.30707 0.25666 0.2578 0.0
C23 C 0.28749 0.23687 0.2927 0.0
O24 O 0.24672 0.2547 0.35616 0.0
O25 O 0.20637 0.24357 0.33421 0.0
O26 O 0.25603 0.23664 0.2891 0.0
O27 O 0.29652 0.24743 0.31118 0.0
H28 H 0.26341 0.21508 0.35166 0.0
H29 H 0.26487 0.18479 0.37529 0.0
H30 H 0.1795 0.20211 0.41313 0.0
H31 H 0.17818 0.23238 0.38973 0.0
H32 H 0.15841 0.34075 0.28675 0.0
H33 H 0.19158 0.31312 0.2752 0.0
H34 H 0.20074 0.3394 0.35779 0.0
H35 H 0.23362 0.31159 0.34654 0.0
H36 H 0.32654 0.2723 0.22756 0.0
H37 H 0.36163 0.21433 0.23825 0.0
H38 H 0.32729 0.21059 0.27381 0.0
H39 H 0.29205 0.26857 0.26326 0.0
C40 C 0.21423 0.79812 0.65834 0.0
C41 C 0.23551 0.81326 0.66475 0.0
C42 C 0.21496 0.83287 0.63163 0.0
C43 C 0.23591 0.83053 0.65143 0.0
C44 C 0.1933 0.81786 0.62556 0.0
C45 C 0.19296 0.80061 0.63883 0.0
U46 U 0.24293 0.76595 0.71023 0.0
O47 O 0.21731 0.74334 0.73078 0.0
O48 O 0.26003 0.73588 0.70974 0.0
C49 C 0.23571 0.72945 0.7227 0.0
C50 C 0.2148 0.77944 0.67116 0.0
C51 C 0.21914 0.71184 0.71376 0.0
C52 C 0.17103 0.6946 0.69954 0.0
C53 C 0.18631 0.7118 0.70682 0.0
C54 C 0.22125 0.67738 0.70549 0.0
C55 C 0.18839 0.67727 0.69898 0.0
C56 C 0.23644 0.69451 0.71291 0.0
C57 C 0.29928 0.78669 0.75864 0.0
C58 C 0.33313 0.76734 0.78526 0.0
C59 C 0.32534 0.80137 0.79342 0.0
C60 C 0.30533 0.80288 0.7731 0.0
C61 C 0.33963 0.78365 0.79944 0.0
C62 C 0.31293 0.76881 0.76502 0.0
C63 C 0.27943 0.78883 0.7367 0.0
O64 O 0.24276 0.77058 0.67114 0.0
O65 O 0.20068 0.779 0.69222 0.0
O66 O 0.24802 0.78705 0.73956 0.0
O67 O 0.28999 0.77981 0.71764 0.0
H68 H 0.25213 0.81156 0.67977 0.0
H69 H 0.25287 0.84194 0.65629 0.0
H70 H 0.17706 0.81941 0.6103 0.0
H71 H 0.17643 0.78907 0.63362 0.0
H72 H 0.14568 0.69475 0.69445 0.0
H73 H 0.1724 0.72498 0.70722 0.0
H74 H 0.23502 0.66414 0.70506 0.0
H75 H 0.26173 0.69419 0.7182 0.0
H76 H 0.34405 0.75358 0.78968 0.0
H77 H 0.33024 0.8141 0.80415 0.0
H78 H 0.29496 0.81675 0.76848 0.0
H79 H 0.30838 0.75611 0.75416 0.0
C80 C 0.72057 0.78611 0.26789 0.0
C81 C 0.72019 0.76809 0.25639 0.0
C82 C 0.67995 0.77977 0.22785 0.0
C83 C 0.69996 0.76494 0.23647 0.0
C84 C 0.68068 0.79786 0.23917 0.0
C85 C 0.70088 0.80099 0.25909 0.0
U86 U 0.78244 0.76829 0.31363 0.0
O87 O 0.82403 0.7834 0.33032 0.0
O88 O 0.78488 0.77188 0.35281 0.0
C89 C 0.81157 0.78237 0.35194 0.0
C90 C 0.74091 0.78938 0.28929 0.0
C91 C 0.81098 0.80063 0.36534 0.0
C92 C 0.78615 0.83141 0.37455 0.0
C93 C 0.78696 0.81446 0.36092 0.0
C94 C 0.83367 0.821 0.39677 0.0
C95 C 0.80944 0.83473 0.39264 0.0
C96 C 0.83441 0.80407 0.38321 0.0
C97 C 0.81465 0.71679 0.30734 0.0
C98 C 0.85529 0.70323 0.33421 0.0
C99 C 0.83272 0.6838 0.30191 0.0
C100 C 0.81319 0.69926 0.29484 0.0
C101 C 0.85393 0.68571 0.3216 0.0
C102 C 0.83573 0.71871 0.32713 0.0
C103 C 0.79421 0.73292 0.29938 0.0
O104 O 0.733 0.77902 0.30828 0.0
O105 O 0.77223 0.78994 0.28547 0.0
O106 O 0.80974 0.74826 0.2912 0.0
O107 O 0.7703 0.73722 0.31372 0.0
H108 H 0.73527 0.75644 0.26298 0.0
H109 H 0.69957 0.75089 0.22797 0.0
H110 H 0.6653 0.80942 0.23275 0.0
H111 H 0.70091 0.81497 0.26777 0.0
H112 H 0.76722 0.84183 0.3712 0.0
H113 H 0.76868 0.81204 0.34715 0.0
H114 H 0.85175 0.82331 0.4107 0.0
H115 H 0.8531 0.79355 0.38685 0.0
H116 H 0.87159 0.70493 0.34941 0.0
H117 H 0.83145 0.67039 0.29197 0.0
H118 H 0.79704 0.69756 0.27954 0.0
H119 H 0.83712 0.73216 0.33697 0.0
C120 C 0.77094 0.20429 0.68637 0.0
C121 C 0.75764 0.20584 0.66306 0.0
C122 C 0.7816 0.17522 0.65204 0.0
C123 C 0.76293 0.19142 0.64607 0.0
C124 C 0.7948 0.17357 0.67526 0.0
C125 C 0.78937 0.18793 0.6923 0.0
U126 U 0.783 0.25499 0.71352 0.0
O127 O 0.74816 0.27427 0.73048 0.0
O128 O 0.78953 0.26342 0.75134 0.0
C129 C 0.76231 0.27305 0.75167 0.0
C130 C 0.76493 0.21913 0.7049 0.0
C131 C 0.74066 0.26852 0.77176 0.0
C132 C 0.71491 0.27851 0.80862 0.0
C133 C 0.7365 0.2822 0.78991 0.0
C134 C 0.70177 0.24723 0.79139 0.0
C135 C 0.69726 0.26107 0.80937 0.0
C136 C 0.72339 0.25093 0.77267 0.0
C137 C 0.83716 0.29252 0.68283 0.0
C138 C 0.85551 0.32209 0.70235 0.0
C139 C 0.86463 0.31763 0.65979 0.0
C140 C 0.84929 0.29952 0.66096 0.0
C141 C 0.86809 0.32893 0.68051 0.0
C142 C 0.84001 0.30401 0.70349 0.0
C143 C 0.82207 0.27316 0.68385 0.0
O144 O 0.78969 0.22369 0.71884 0.0
O145 O 0.74784 0.23423 0.69828 0.0
O146 O 0.7905 0.27264 0.68089 0.0
O147 O 0.83226 0.26186 0.70139 0.0
H148 H 0.74309 0.21815 0.65789 0.0
H149 H 0.75255 0.1929 0.62821 0.0
H150 H 0.80927 0.16116 0.68017 0.0
H151 H 0.79959 0.18622 0.71018 0.0
H152 H 0.71161 0.28934 0.82232 0.0
H153 H 0.74963 0.29585 0.78943 0.0
H154 H 0.68824 0.23373 0.79171 0.0
H155 H 0.72633 0.24022 0.75876 0.0
H156 H 0.85808 0.33065 0.7185 0.0
H157 H 0.87432 0.3227 0.64283 0.0
H158 H 0.84722 0.29088 0.64484 0.0
H159 H 0.83061 0.29887 0.72052 0.0
C160 C 0.81324 0.71416 0.72007 0.0
C161 C 0.8392 0.70819 0.73473 0.0
C162 C 0.85308 0.68348 0.70593 0.0
C163 C 0.85904 0.69304 0.72767 0.0
C164 C 0.8271 0.68925 0.69127 0.0
C165 C 0.80732 0.70449 0.69825 0.0
U166 U 0.77782 0.76527 0.71417 0.0
O167 O 0.72854 0.77551 0.72055 0.0
O168 O 0.76901 0.78678 0.74231 0.0
C169 C 0.7375 0.78609 0.73903 0.0
C170 C 0.7923 0.73004 0.72824 0.0
C171 C 0.71818 0.78348 0.76089 0.0
C172 C 0.69139 0.76283 0.79033 0.0
C173 C 0.71098 0.76495 0.77006 0.0
C174 C 0.68679 0.7977 0.79276 0.0
C175 C 0.67902 0.77921 0.80166 0.0
C176 C 0.70622 0.79981 0.77249 0.0
C177 C 0.80246 0.7982 0.66174 0.0
C178 C 0.77815 0.82957 0.65409 0.0
C179 C 0.82265 0.81885 0.62962 0.0
C180 C 0.82401 0.80161 0.64285 0.0
C181 C 0.79971 0.83292 0.63511 0.0
C182 C 0.77957 0.8123 0.66738 0.0
C183 C 0.80413 0.77983 0.67516 0.0
O184 O 0.8074 0.74557 0.73629 0.0
O185 O 0.76682 0.73407 0.71485 0.0
O186 O 0.77758 0.76919 0.67493 0.0
O187 O 0.81796 0.78077 0.69649 0.0
H188 H 0.84413 0.71526 0.75171 0.0
H189 H 0.87904 0.68875 0.73917 0.0
H190 H 0.82225 0.682 0.6744 0.0
H191 H 0.78746 0.70864 0.68656 0.0
H192 H 0.68553 0.74846 0.79699 0.0
H193 H 0.72013 0.75218 0.76138 0.0
H194 H 0.67734 0.81047 0.80129 0.0
H195 H 0.7116 0.8142 0.76567 0.0
H196 H 0.76024 0.84026 0.65849 0.0
H197 H 0.83939 0.82119 0.615 0.0
H198 H 0.84181 0.79089 0.63827 0.0
H199 H 0.76276 0.80988 0.68195 0.0
C200 C 0.72199 0.24037 0.27459 0.0
C201 C 0.71673 0.25899 0.26515 0.0
C202 C 0.68311 0.24534 0.23333 0.0
C203 C 0.69729 0.26147 0.24463 0.0
C204 C 0.68882 0.22675 0.24257 0.0
C205 C 0.70812 0.22428 0.26309 0.0
U206 U 0.78243 0.25837 0.32196 0.0
O207 O 0.78346 0.25377 0.36106 0.0
O208 O 0.82321 0.24312 0.33908 0.0
C209 C 0.80988 0.24338 0.36041 0.0
C210 C 0.74161 0.23743 0.29644 0.0
C211 C 0.80857 0.22467 0.37325 0.0
C212 C 0.77969 0.19543 0.3856 0.0
C213 C 0.78074 0.2128 0.37249 0.0
C214 C 0.83451 0.20134 0.39978 0.0
C215 C 0.80653 0.18968 0.39942 0.0
C216 C 0.8355 0.21873 0.38681 0.0
C217 C 0.8165 0.31013 0.31706 0.0
C218 C 0.84541 0.32723 0.34887 0.0
C219 C 0.84726 0.33938 0.30793 0.0
C220 C 0.8274 0.32403 0.30045 0.0
C221 C 0.85636 0.34107 0.33216 0.0
C222 C 0.82567 0.31178 0.34135 0.0
C223 C 0.79582 0.29406 0.30858 0.0
O224 O 0.77305 0.23724 0.29325 0.0
O225 O 0.73302 0.2475 0.31524 0.0
O226 O 0.77115 0.28937 0.32227 0.0
O227 O 0.81117 0.27898 0.30036 0.0
H228 H 0.7274 0.27157 0.27377 0.0
H229 H 0.69305 0.27591 0.23771 0.0
H230 H 0.67797 0.21418 0.23406 0.0
H231 H 0.71202 0.20982 0.2701 0.0
H232 H 0.7579 0.18659 0.38519 0.0
H233 H 0.75976 0.21707 0.36201 0.0
H234 H 0.85538 0.19712 0.41042 0.0
H235 H 0.85718 0.22766 0.38757 0.0
H236 H 0.85239 0.32831 0.36762 0.0
H237 H 0.85562 0.34992 0.29482 0.0
H238 H 0.82063 0.32297 0.28164 0.0
H239 H 0.81764 0.30113 0.35442 0.0
C240 C 0.22667 0.22579 0.65759 0.0
C241 C 0.24902 0.21146 0.66408 0.0
C242 C 0.22827 0.19074 0.6322 0.0
C243 C 0.24986 0.19403 0.65141 0.0
C244 C 0.20584 0.20504 0.62586 0.0
C245 C 0.20505 0.22244 0.63848 0.0
U246 U 0.25359 0.2588 0.70894 0.0
O247 O 0.2658 0.28986 0.70866 0.0
O248 O 0.22561 0.27905 0.73063 0.0
C249 C 0.24147 0.2943 0.72254 0.0
C250 C 0.22576 0.24435 0.67034 0.0
C251 C 0.22128 0.31043 0.71421 0.0
C252 C 0.18573 0.32529 0.68451 0.0
C253 C 0.20538 0.3099 0.69181 0.0
C254 C 0.19779 0.34182 0.72187 0.0
C255 C 0.1817 0.34129 0.69958 0.0
C256 C 0.21747 0.32649 0.72912 0.0
C257 C 0.31341 0.24037 0.75633 0.0
C258 C 0.34379 0.22634 0.78955 0.0
C259 C 0.34141 0.26121 0.78497 0.0
C260 C 0.32177 0.25897 0.76452 0.0
C261 C 0.35268 0.24488 0.79748 0.0
C262 C 0.3243 0.22411 0.76908 0.0
C263 C 0.29371 0.23763 0.73445 0.0
O264 O 0.2124 0.24378 0.69167 0.0
O265 O 0.25263 0.25468 0.66981 0.0
O266 O 0.30262 0.24791 0.71563 0.0
O267 O 0.26225 0.2373 0.73761 0.0
H268 H 0.26588 0.21382 0.67883 0.0
H269 H 0.26738 0.18317 0.65647 0.0
H270 H 0.18908 0.20275 0.61105 0.0
H271 H 0.18767 0.23334 0.63323 0.0
H272 H 0.1734 0.32464 0.66727 0.0
H273 H 0.208 0.29757 0.68011 0.0
H274 H 0.19486 0.35403 0.73373 0.0
H275 H 0.22953 0.3271 0.74647 0.0
H276 H 0.35237 0.21361 0.79901 0.0
H277 H 0.34813 0.27561 0.79088 0.0
H278 H 0.3134 0.2717 0.75496 0.0
H279 H 0.31799 0.20967 0.76306 0.0
C280 C 0.2033 0.73431 0.35723 0.0
C281 C 0.20653 0.72059 0.33893 0.0
C282 C 0.1692 0.6989 0.35958 0.0
C283 C 0.18955 0.70298 0.3401 0.0
C284 C 0.16624 0.71256 0.37796 0.0
C285 C 0.1832 0.73016 0.37678 0.0
U286 U 0.25985 0.76911 0.32473 0.0
O287 O 0.25735 0.80074 0.31962 0.0
O288 O 0.29904 0.7879 0.33826 0.0
C289 C 0.28412 0.80389 0.33198 0.0
C290 C 0.22042 0.75304 0.35591 0.0
C291 C 0.28267 0.81898 0.35051 0.0
C292 C 0.27826 0.8289 0.39211 0.0
C293 C 0.27731 0.81439 0.37467 0.0
C294 C 0.2874 0.85288 0.36128 0.0
C295 C 0.2862 0.84837 0.38616 0.0
C296 C 0.28663 0.83838 0.34388 0.0
C297 C 0.29648 0.75251 0.26531 0.0
C298 C 0.32782 0.77322 0.23854 0.0
C299 C 0.32805 0.73841 0.23344 0.0
C300 C 0.30705 0.73626 0.25282 0.0
C301 C 0.33865 0.75688 0.22626 0.0
C302 C 0.3069 0.77105 0.25805 0.0
C303 C 0.27546 0.74968 0.28624 0.0
O304 O 0.25208 0.75221 0.35786 0.0
O305 O 0.21066 0.76469 0.3386 0.0
O306 O 0.24992 0.76081 0.28727 0.0
O307 O 0.29061 0.74786 0.30697 0.0
H308 H 0.22196 0.72359 0.32369 0.0
H309 H 0.19197 0.69263 0.32573 0.0
H310 H 0.15053 0.70965 0.39306 0.0
H311 H 0.18044 0.74059 0.39104 0.0
H312 H 0.27211 0.82453 0.41015 0.0
H313 H 0.27234 0.79958 0.3801 0.0
H314 H 0.28824 0.86753 0.35462 0.0
H315 H 0.28903 0.84238 0.32511 0.0
H316 H 0.33597 0.78756 0.23325 0.0
H317 H 0.33632 0.72568 0.22419 0.0
H318 H 0.29935 0.72185 0.25825 0.0
H319 H 0.29914 0.78376 0.2676 0.0
H320 H 0.9932 0.41956 0.40224 0.0
N321 N 0.02083 0.44301 0.37037 0.0
H322 H 0.95013 0.39552 0.39446 0.0
H323 H 0.98278 0.44124 0.32979 0.0
H324 H 0.93973 0.41741 0.32214 0.0
H325 H 0.04065 0.43652 0.32441 0.0
H326 H 0.08205 0.41338 0.31265 0.0
H327 H 0.06404 0.42629 0.39902 0.0
H328 H 0.10552 0.40306 0.38723 0.0
H329 H 0.02324 0.46604 0.40807 0.0
H330 H 0.01808 0.46705 0.33077 0.0
H331 H 0.02255 0.50133 0.40865 0.0
H332 H 0.01551 0.50228 0.33107 0.0
H333 H 0.98051 0.61151 0.40238 0.0
H334 H 0.93818 0.63372 0.38846 0.0
H335 H 0.94424 0.6101 0.3172 0.0
H336 H 0.98642 0.5877 0.33125 0.0
H337 H 0.04195 0.60004 0.33298 0.0
H338 H 0.08333 0.62533 0.32834 0.0
H339 H 0.0948 0.62812 0.40528 0.0
H340 H 0.05339 0.60259 0.40997 0.0
H341 H 0.98832 0.56281 0.40524 0.0
H342 H 0.98836 0.52759 0.40293 0.0
H343 H 0.04461 0.53136 0.33792 0.0
N344 N 0.01537 0.58817 0.37561 0.0
H345 H 0.04283 0.56656 0.33976 0.0
C346 C 0.99111 0.43231 0.36676 0.0
C347 C 0.98091 0.41956 0.38497 0.0
C348 C 0.95655 0.40584 0.38051 0.0
C349 C 0.94192 0.40475 0.35774 0.0
C350 C 0.95073 0.41816 0.33986 0.0
C351 C 0.97524 0.43183 0.3443 0.0
C352 C 0.04943 0.43322 0.36269 0.0
C353 C 0.05537 0.42984 0.33824 0.0
C354 C 0.07888 0.41656 0.3315 0.0
C355 C 0.09665 0.40652 0.34911 0.0
C356 C 0.09207 0.41074 0.37343 0.0
C357 C 0.06863 0.42402 0.38013 0.0
C358 C 0.0203 0.46385 0.36952 0.0
C359 C 0.02159 0.47393 0.39122 0.0
C360 C 0.02091 0.49413 0.39147 0.0
C361 C 0.01853 0.50483 0.3699 0.0
C362 C 0.01758 0.49464 0.34804 0.0
C363 C 0.01865 0.47436 0.34784 0.0
C364 C 0.98652 0.59801 0.36791 0.0
C365 C 0.97202 0.61075 0.38394 0.0
C366 C 0.94808 0.62343 0.376 0.0
C367 C 0.93834 0.62357 0.35182 0.0
C368 C 0.95154 0.61014 0.33594 0.0
C369 C 0.97548 0.59738 0.34394 0.0
C370 C 0.04471 0.59925 0.37194 0.0
C371 C 0.05413 0.60547 0.34886 0.0
C372 C 0.07763 0.62001 0.34618 0.0
C373 C 0.0919 0.62862 0.36648 0.0
C374 C 0.08408 0.62158 0.38942 0.0
C375 C 0.06067 0.60699 0.39209 0.0
C376 C 0.01587 0.56741 0.37299 0.0
C377 C 1.00054 0.55599 0.39046 0.0
C378 C 0.00087 0.53582 0.38918 0.0
C379 C 0.01695 0.52645 0.37043 0.0
C380 C 0.0318 0.53796 0.35256 0.0
C381 C 0.03107 0.55823 0.35371 0.0
H382 H 0.99327 0.41476 0.62318 0.0
N383 N 0.01759 0.44 0.65421 0.0
H384 H 0.95269 0.38943 0.63134 0.0
H385 H 0.97833 0.43853 0.69351 0.0
H386 H 0.93761 0.4131 0.70174 0.0
H387 H 0.06446 0.42789 0.62586 0.0
H388 H 0.10754 0.40504 0.63664 0.0
H389 H 0.0352 0.42937 0.69996 0.0
H390 H 0.07831 0.40688 0.7107 0.0
H391 H 0.03066 0.46251 0.69394 0.0
H392 H 0.99833 0.46427 0.62017 0.0
H393 H 0.02936 0.49774 0.69556 0.0
H394 H 0.9953 0.49947 0.62189 0.0
H395 H 0.99973 0.59526 0.7041 0.0
H396 H 0.95745 0.61795 0.71535 0.0
H397 H 0.92751 0.62272 0.64118 0.0
H398 H 0.96995 0.5999 0.62985 0.0
H399 H 0.04593 0.61066 0.63049 0.0
H400 H 0.09486 0.62859 0.63921 0.0
H401 H 0.10109 0.59927 0.70817 0.0
H402 H 0.05283 0.58148 0.69863 0.0
H403 H 0.99891 0.56136 0.6961 0.0
H404 H 0.99721 0.52602 0.69598 0.0
H405 H 0.02989 0.52653 0.6224 0.0
N406 N 0.01561 0.58514 0.65819 0.0
H407 H 0.03002 0.56182 0.62248 0.0
C408 C 0.98876 0.42848 0.65766 0.0
C409 C 0.98045 0.41486 0.64005 0.0
C410 C 0.9575 0.40041 0.64474 0.0
C411 C 0.9424 0.39941 0.66714 0.0
C412 C 0.94905 0.41374 0.68432 0.0
C413 C 0.97216 0.42822 0.67961 0.0
C414 C 0.04684 0.43056 0.66203 0.0
C415 C 0.06809 0.42388 0.64452 0.0
C416 C 0.09245 0.41079 0.65063 0.0
C417 C 0.09594 0.40427 0.67443 0.0
C418 C 0.07602 0.41184 0.69226 0.0
C419 C 0.05156 0.42482 0.68612 0.0
C420 C 0.01515 0.4607 0.65667 0.0
C421 C 0.02306 0.47041 0.6781 0.0
C422 C 0.022 0.49067 0.67907 0.0
C423 C 0.01262 0.50162 0.65876 0.0
C424 C 0.00351 0.49169 0.63772 0.0
C425 C 0.00493 0.47153 0.63671 0.0
C426 C 0.9879 0.59581 0.66603 0.0
C427 C 0.98366 0.60074 0.69028 0.0
C428 C 0.95961 0.61375 0.69673 0.0
C429 C 0.93952 0.622 0.67907 0.0
C430 C 0.94277 0.61643 0.65503 0.0
C431 C 0.96681 0.60342 0.6486 0.0
C432 C 0.0465 0.59412 0.66334 0.0
C433 C 0.05906 0.60753 0.64697 0.0
C434 C 0.08786 0.61751 0.65196 0.0
C435 C 0.10605 0.61392 0.67323 0.0
C436 C 0.09161 0.60122 0.6903 0.0
C437 C 0.06281 0.59116 0.68519 0.0
C438 C 0.01414 0.56428 0.65907 0.0
C439 C 0.00536 0.55389 0.67988 0.0
C440 C 0.0047 0.53359 0.67984 0.0
C441 C 0.01315 0.52326 0.65911 0.0
C442 C 0.02241 0.53384 0.63853 0.0
C443 C 0.02275 0.55404 0.63854 0.0
H444 H 0.15832 0.10315 0.53908 0.0
N445 N 0.20278 0.08413 0.51505 0.0
H446 H 0.16786 0.12727 0.57062 0.0
H447 H 0.25987 0.08985 0.53917 0.0
H448 H 0.26956 0.11409 0.57071 0.0
H449 H 0.26064 0.09532 0.49578 0.0
H450 H 0.26803 0.11968 0.46399 0.0
H451 H 0.15726 0.09828 0.48615 0.0
H452 H 0.16461 0.12283 0.45444 0.0
H453 H 0.15556 0.05862 0.52203 0.0
H454 H 0.25781 0.06299 0.50886 0.0
H455 H 0.15866 0.02336 0.52162 0.0
H456 H 0.26115 0.02766 0.50748 0.0
H457 H 0.1608 0.92262 0.53171 0.0
H458 H 0.16277 0.89826 0.56411 0.0
H459 H 0.26623 0.90582 0.56921 0.0
H460 H 0.26433 0.92989 0.53675 0.0
H461 H 0.27397 0.94021 0.49564 0.0
H462 H 0.29805 0.91942 0.46511 0.0
H463 H 0.20375 0.89574 0.44811 0.0
H464 H 0.17974 0.91639 0.47887 0.0
H465 H 0.16589 0.96266 0.49283 0.0
H466 H 0.16529 0.99797 0.49391 0.0
H467 H 0.25794 0.99804 0.53059 0.0
N468 N 0.21082 0.93916 0.5098 0.0
H469 H 0.25872 0.96271 0.52858 0.0
C470 C 0.20829 0.09475 0.53685 0.0
C471 C 0.18248 0.10504 0.54645 0.0
C472 C 0.18795 0.11883 0.56428 0.0
C473 C 0.21942 0.12253 0.57279 0.0
C474 C 0.24511 0.11141 0.5643 0.0
C475 C 0.23958 0.09758 0.54639 0.0
C476 C 0.20828 0.09487 0.49319 0.0
C477 C 0.23959 0.10069 0.48632 0.0
C478 C 0.24382 0.11468 0.46828 0.0
C479 C 0.21684 0.12312 0.45704 0.0
C480 C 0.1857 0.11647 0.46291 0.0
C481 C 0.18151 0.10243 0.48084 0.0
C482 C 0.20624 0.06342 0.51526 0.0
C483 C 0.17868 0.0519 0.51894 0.0
C484 C 0.18052 0.03174 0.5185 0.0
C485 C 0.2101 0.02254 0.51418 0.0
C486 C 0.23799 0.03417 0.51098 0.0
C487 C 0.2361 0.05444 0.51158 0.0
C488 C 0.21223 0.92821 0.53191 0.0
C489 C 0.18374 0.91944 0.54033 0.0
C490 C 0.18489 0.90553 0.55868 0.0
C491 C 0.21466 0.90023 0.56893 0.0
C492 C 0.24304 0.90979 0.56154 0.0
C493 C 0.24189 0.92364 0.54309 0.0
C494 C 0.22498 0.92983 0.48945 0.0
C495 C 0.25839 0.93085 0.48506 0.0
C496 C 0.27212 0.91899 0.46769 0.0
C497 C 0.25261 0.90608 0.45445 0.0
C498 C 0.21911 0.90568 0.45811 0.0
C499 C 0.20545 0.91746 0.47551 0.0
C500 C 0.21203 0.96 0.51079 0.0
C501 C 0.18606 0.97034 0.50106 0.0
C502 C 0.18571 0.99053 0.50188 0.0
C503 C 0.21139 1.00097 0.51263 0.0
C504 C 0.23782 0.99055 0.52205 0.0
C505 C 0.23819 0.97026 0.52108 0.0
H506 H 0.54179 0.7277 0.13005 0.0
N507 N 0.51117 0.75312 0.10242 0.0
H508 H 0.58564 0.73431 0.15907 0.0
H509 H 0.54562 0.78717 0.10622 0.0
H510 H 0.58932 0.79377 0.13529 0.0
H511 H 0.49115 0.78627 0.12447 0.0
H512 H 0.44669 0.7886 0.15296 0.0
H513 H 0.46607 0.72647 0.11164 0.0
H514 H 0.42128 0.72888 0.14026 0.0
H515 H 0.52957 0.7312 0.06626 0.0
H516 H 0.49295 0.78778 0.08204 0.0
H517 H 0.53029 0.73937 0.02341 0.0
H518 H 0.49249 0.79586 0.03937 0.0
H519 H 0.54046 0.81559 0.90178 0.0
H520 H 0.58434 0.81112 0.87296 0.0
H521 H 0.58885 0.75074 0.89246 0.0
H522 H 0.54481 0.7552 0.92124 0.0
H523 H 0.46743 0.81548 0.91604 0.0
H524 H 0.42315 0.81308 0.88633 0.0
H525 H 0.44368 0.75266 0.87669 0.0
H526 H 0.48821 0.75511 0.90587 0.0
H527 H 0.49534 0.75297 0.94708 0.0
H528 H 0.49525 0.7448 0.98972 0.0
H529 H 0.5274 0.80292 0.00648 0.0
N530 N 0.51028 0.78847 0.92714 0.0
H531 H 0.52629 0.81112 0.96365 0.0
C532 C 0.54047 0.75684 0.11595 0.0
C533 C 0.55265 0.74202 0.13066 0.0
C534 C 0.57749 0.74579 0.14721 0.0
C535 C 0.59054 0.76452 0.14928 0.0
C536 C 0.57954 0.77922 0.13383 0.0
C537 C 0.55466 0.77543 0.11723 0.0
C538 C 0.48194 0.7561 0.11581 0.0
C539 C 0.47564 0.77378 0.12722 0.0
C540 C 0.4503 0.77514 0.14356 0.0
C541 C 0.43088 0.7589 0.14868 0.0
C542 C 0.43602 0.74157 0.13641 0.0
C543 C 0.4614 0.74021 0.1201 0.0
C544 C 0.51107 0.75873 0.07739 0.0
C545 C 0.5215 0.74535 0.06043 0.0
C546 C 0.52167 0.75001 0.03594 0.0
C547 C 0.51129 0.76826 0.02782 0.0
C548 C 0.50101 0.78175 0.04493 0.0
C549 C 0.501 0.77708 0.06945 0.0
C550 C 0.53948 0.78583 0.9137 0.0
C551 C 0.55146 0.80151 0.90025 0.0
C552 C 0.57629 0.79895 0.88382 0.0
C553 C 0.58965 0.78061 0.88063 0.0
C554 C 0.57881 0.765 0.89481 0.0
C555 C 0.55377 0.76757 0.91123 0.0
C556 C 0.48091 0.78552 0.91343 0.0
C557 C 0.46176 0.80161 0.90803 0.0
C558 C 0.43669 0.80026 0.89108 0.0
C559 C 0.43029 0.7827 0.87941 0.0
C560 C 0.4482 0.76628 0.88569 0.0
C561 C 0.47349 0.76768 0.90248 0.0
C562 C 0.51058 0.7828 0.95213 0.0
C563 C 0.50224 0.764 0.95983 0.0
C564 C 0.50245 0.75929 0.98434 0.0
C565 C 0.51123 0.77321 1.00167 0.0
C566 C 0.51994 0.79192 0.99378 0.0
C567 C 0.51956 0.79661 0.9693 0.0
H568 H 0.77 0.09572 0.53166 0.0
N569 N 0.8303 0.08341 0.5196 0.0
H570 H 0.75728 0.11678 0.56553 0.0
H571 H 0.86887 0.09232 0.55647 0.0
H572 H 0.85605 0.11324 0.59058 0.0
H573 H 0.87236 0.10932 0.50308 0.0
H574 H 0.8633 0.13351 0.47126 0.0
H575 H 0.77812 0.08443 0.48907 0.0
H576 H 0.76904 0.10864 0.45698 0.0
H577 H 0.77735 0.06039 0.52958 0.0
H578 H 0.87546 0.05976 0.50432 0.0
H579 H 0.77522 0.025 0.52848 0.0
H580 H 0.87317 0.02455 0.50192 0.0
H581 H 0.76995 0.93311 0.53775 0.0
H582 H 0.75903 0.90913 0.56977 0.0
H583 H 0.8602 0.89462 0.57201 0.0
H584 H 0.87092 0.91844 0.54002 0.0
H585 H 0.8735 0.92463 0.4871 0.0
H586 H 0.86649 0.901 0.45461 0.0
H587 H 0.76295 0.90452 0.46152 0.0
H588 H 0.77002 0.92795 0.49414 0.0
H589 H 0.77501 0.96096 0.50493 0.0
H590 H 0.77394 0.9964 0.50464 0.0
H591 H 0.8741 0.99775 0.52778 0.0
N592 N 0.82753 0.93837 0.51504 0.0
H593 H 0.87511 0.96249 0.52683 0.0
C594 C 0.8205 0.09244 0.54159 0.0
C595 C 0.78874 0.09905 0.54472 0.0
C596 C 0.78149 0.11111 0.56399 0.0
C597 C 0.80579 0.11662 0.58042 0.0
C598 C 0.83701 0.10912 0.57807 0.0
C599 C 0.84427 0.09715 0.55876 0.0
C600 C 0.82606 0.0951 0.49832 0.0
C601 C 0.85008 0.10882 0.49271 0.0
C602 C 0.84486 0.12261 0.47469 0.0
C603 C 0.81551 0.12285 0.46191 0.0
C604 C 0.79188 0.1086 0.46668 0.0
C605 C 0.79707 0.09481 0.48488 0.0
C606 C 0.82691 0.06271 0.51743 0.0
C607 C 0.79836 0.05266 0.5236 0.0
C608 C 0.79711 0.03236 0.52276 0.0
C609 C 0.82421 0.02175 0.51547 0.0
C610 C 0.85212 0.03206 0.50832 0.0
C611 C 0.85344 0.05223 0.50943 0.0
C612 C 0.8213 0.92746 0.53661 0.0
C613 C 0.78981 0.92507 0.54554 0.0
C614 C 0.78361 0.91142 0.56371 0.0
C615 C 0.80883 0.90006 0.57306 0.0
C616 C 0.84048 0.90325 0.565 0.0
C617 C 0.84662 0.91684 0.5469 0.0
C618 C 0.8224 0.92816 0.49288 0.0
C619 C 0.84932 0.92076 0.48107 0.0
C620 C 0.84532 0.90726 0.46268 0.0
C621 C 0.81422 0.90098 0.45582 0.0
C622 C 0.78712 0.90925 0.46658 0.0
C623 C 0.79117 0.9227 0.48508 0.0
C624 C 0.8254 0.95913 0.51555 0.0
C625 C 0.79673 0.96892 0.50974 0.0
C626 C 0.79612 0.98924 0.5098 0.0
C627 C 0.82406 1.0001 0.51588 0.0
C628 C 0.85234 0.99004 0.52233 0.0
C629 C 0.85296 0.96986 0.52202 0.0
H630 H 0.54283 0.20759 0.13448 0.0
N631 N 0.51493 0.23335 0.10587 0.0
H632 H 0.58681 0.21341 0.1636 0.0
H633 H 0.55124 0.26645 0.1092 0.0
H634 H 0.59549 0.27236 0.13842 0.0
H635 H 0.49316 0.26842 0.12063 0.0
H636 H 0.44872 0.2735 0.1488 0.0
H637 H 0.47101 0.20737 0.11958 0.0
H638 H 0.42659 0.21241 0.14783 0.0
H639 H 0.53477 0.20634 0.07623 0.0
H640 H 0.49922 0.26462 0.07764 0.0
H641 H 0.53662 0.20761 0.03246 0.0
H642 H 0.49934 0.26582 0.03363 0.0
H643 H 0.56476 0.20955 0.91179 0.0
H644 H 0.6105 0.21654 0.88501 0.0
H645 H 0.58721 0.27717 0.88593 0.0
H646 H 0.54145 0.27016 0.91244 0.0
H647 H 0.48382 0.26682 0.92158 0.0
H648 H 0.44015 0.27205 0.89179 0.0
H649 H 0.44881 0.21302 0.8684 0.0
H650 H 0.49244 0.20791 0.89796 0.0
H651 H 0.50312 0.20599 0.95574 0.0
H652 H 0.50093 0.2068 0.9995 0.0
H653 H 0.53155 0.26683 0.99807 0.0
N654 N 0.52012 0.23419 0.92599 0.0
H655 H 0.53201 0.26601 0.95412 0.0
C656 C 0.54397 0.23653 0.11975 0.0
C657 C 0.55474 0.22162 0.13489 0.0
C658 C 0.57962 0.22496 0.15148 0.0
C659 C 0.59419 0.2433 0.15313 0.0
C660 C 0.58447 0.25811 0.1373 0.0
C661 C 0.55938 0.25474 0.12067 0.0
C662 C 0.48522 0.23746 0.11797 0.0
C663 C 0.47812 0.25622 0.12583 0.0
C664 C 0.4529 0.25912 0.14196 0.0
C665 C 0.43462 0.24329 0.15044 0.0
C666 C 0.44044 0.22477 0.14144 0.0
C667 C 0.46558 0.22191 0.1253 0.0
C668 C 0.51648 0.2352 0.08014 0.0
C669 C 0.52718 0.21938 0.06698 0.0
C670 C 0.52789 0.22012 0.04194 0.0
C671 C 0.51752 0.2367 0.02934 0.0
C672 C 0.50758 0.25282 0.04265 0.0
C673 C 0.50724 0.25212 0.06786 0.0
C674 C 0.54991 0.23928 0.91424 0.0
C675 C 0.57011 0.22439 0.90673 0.0
C676 C 0.59601 0.22836 0.89144 0.0
C677 C 0.60206 0.24735 0.88351 0.0
C678 C 0.5829 0.26244 0.89197 0.0
C679 C 0.55691 0.25844 0.90719 0.0
C680 C 0.49123 0.23693 0.91186 0.0
C681 C 0.47585 0.25494 0.91035 0.0
C682 C 0.45104 0.25792 0.89342 0.0
C683 C 0.44144 0.2429 0.87796 0.0
C684 C 0.45589 0.22473 0.88025 0.0
C685 C 0.48058 0.22179 0.89708 0.0
C686 C 0.51815 0.23576 0.9517 0.0
C687 C 0.50917 0.21933 0.96493 0.0
C688 C 0.50825 0.21981 0.98997 0.0
C689 C 0.51669 0.23679 1.00249 0.0
C690 C 0.52482 0.25351 0.98911 0.0
C691 C 0.52538 0.25303 0.96391 0.0
C692 C 0.16887 0.37789 0.32706 0.0
C693 C 0.15695 0.35868 0.32997 0.0
C694 C 0.10482 0.37097 0.34349 0.0
C695 C 0.11752 0.39013 0.34227 0.0
N696 N 0.16235 0.41202 0.33578 0.0
N697 N 0.11561 0.33655 0.34388 0.0
C698 C 0.14978 0.39365 0.33482 0.0
C699 C 0.12548 0.35511 0.33904 0.0
N700 N 0.19814 0.38103 0.3164 0.0
N701 N 0.07271 0.368 0.34821 0.0
H702 H 0.12973 0.32452 0.34026 0.0
H703 H 0.09453 0.33307 0.3531 0.0
H704 H 0.05685 0.3792 0.3519 0.0
H705 H 0.0611 0.35462 0.34667 0.0
H706 H 0.20669 0.39465 0.31128 0.0
H707 H 0.21314 0.36983 0.31113 0.0
H708 H 0.18667 0.41534 0.33312 0.0
H709 H 0.1488 0.42392 0.3409 0.0
C710 C 0.16708 0.65484 0.66691 0.0
C711 C 0.1723 0.65888 0.69164 0.0
C712 C 0.15073 0.62679 0.70172 0.0
C713 C 0.13707 0.62544 0.67837 0.0
N714 N 0.15442 0.63001 0.63765 0.0
N715 N 0.1698 0.64809 0.73304 0.0
C716 C 0.15171 0.63711 0.66034 0.0
C717 C 0.16455 0.64463 0.70921 0.0
N718 N 0.17617 0.66799 0.64977 0.0
N719 N 0.1561 0.61042 0.71486 0.0
H720 H 0.17994 0.66098 0.73941 0.0
H721 H 0.16173 0.63862 0.74643 0.0
H722 H 0.15289 0.59674 0.7073 0.0
H723 H 0.1685 0.61045 0.73127 0.0
H724 H 0.16959 0.66671 0.63173 0.0
H725 H 0.18878 0.68073 0.65381 0.0
H726 H 0.16743 0.63695 0.6241 0.0
H727 H 0.14679 0.61596 0.63348 0.0
C728 C 0.90847 0.6701 0.32242 0.0
C729 C 0.87529 0.66944 0.32869 0.0
C730 C 0.88264 0.63739 0.34712 0.0
C731 C 0.91635 0.63894 0.34291 0.0
N732 N 0.9624 0.65784 0.32973 0.0
N733 N 0.8312 0.65381 0.34952 0.0
C734 C 0.92958 0.65558 0.33136 0.0
C735 C 0.86243 0.65341 0.34169 0.0
N736 N 0.91963 0.68435 0.30737 0.0
N737 N 0.86993 0.62044 0.35588 0.0
H738 H 0.81563 0.66523 0.34573 0.0
H739 H 0.8214 0.6436 0.36129 0.0
H740 H 0.88415 0.60851 0.36024 0.0
H741 H 0.84521 0.61761 0.35702 0.0
H742 H 0.94268 0.68441 0.29998 0.0
H743 H 0.90496 0.69533 0.30058 0.0
H744 H 0.9736 0.67063 0.32411 0.0
H745 H 0.97874 0.64745 0.33577 0.0
C746 C 0.87023 0.3648 0.67283 0.0
C747 C 0.88641 0.34753 0.67941 0.0
C748 C 0.93796 0.36533 0.6823 0.0
C749 C 0.9224 0.38211 0.67324 0.0
N750 N 0.8746 0.39801 0.65844 0.0
N751 N 0.93566 0.33059 0.6888 0.0
C752 C 0.88868 0.38195 0.66826 0.0
C753 C 0.92027 0.34761 0.68388 0.0
N754 N 0.8372 0.36481 0.67127 0.0
N755 N 0.96963 0.36643 0.68961 0.0
H756 H 0.92343 0.31742 0.6909 0.0
H757 H 0.9607 0.32919 0.68934 0.0
H758 H 0.98362 0.37903 0.68819 0.0
H759 H 0.98149 0.35536 0.69876 0.0
H760 H 0.82358 0.37726 0.66893 0.0
H761 H 0.82308 0.35241 0.67407 0.0
H762 H 0.851 0.39825 0.65179 0.0
H763 H 0.88721 0.41098 0.65569 0.0
C764 C 0.21368 0.15528 0.40114 0.0
C765 C 0.2235 0.17337 0.41089 0.0
C766 C 0.22871 0.15853 0.45087 0.0
C767 C 0.22079 0.14021 0.44088 0.0
N768 N 0.21149 0.12036 0.40606 0.0
N769 N 0.24701 0.19147 0.44366 0.0
C770 C 0.21503 0.13835 0.41583 0.0
C771 C 0.23308 0.17475 0.43536 0.0
N772 N 0.20186 0.15441 0.37814 0.0
N773 N 0.23061 0.16066 0.47526 0.0
H774 H 0.25069 0.20365 0.4328 0.0
H775 H 0.25764 0.19269 0.46063 0.0
H776 H 0.22742 0.14922 0.48735 0.0
H777 H 0.2326 0.17405 0.48363 0.0
H778 H 0.19095 0.1421 0.37088 0.0
H779 H 0.2007 0.16646 0.3668 0.0
H780 H 0.21054 0.11787 0.38764 0.0
H781 H 0.21227 0.10769 0.41635 0.0
C782 C 0.39613 0.7867 0.81584 0.0
C783 C 0.36292 0.78252 0.81988 0.0
C784 C 0.37363 0.77869 0.86312 0.0
C785 C 0.40703 0.78206 0.85891 0.0
N786 N 0.45118 0.78672 0.83135 0.0
N787 N 0.3202 0.77212 0.84627 0.0
C788 C 0.4186 0.78529 0.83526 0.0
C789 C 0.35171 0.77779 0.84324 0.0
N790 N 0.40599 0.79255 0.79351 0.0
N791 N 0.36289 0.77679 0.88619 0.0
H792 H 0.30336 0.77178 0.8322 0.0
H793 H 0.31112 0.76651 0.86227 0.0
H794 H 0.37844 0.77669 0.90106 0.0
H795 H 0.33857 0.77646 0.89083 0.0
H796 H 0.42896 0.79808 0.78992 0.0
H797 H 0.39053 0.79305 0.77861 0.0
H798 H 0.46149 0.78676 0.81437 0.0
H799 H 0.4684 0.78659 0.84517 0.0
C800 C 0.81839 0.87048 0.39913 0.0
C801 C 0.80795 0.85218 0.40807 0.0
C802 C 0.80178 0.86586 0.44827 0.0
C803 C 0.81038 0.88441 0.43906 0.0
N804 N 0.82113 0.90523 0.40511 0.0
N805 N 0.78308 0.83328 0.43958 0.0
C806 C 0.81694 0.88698 0.41425 0.0
C807 C 0.79758 0.85014 0.43218 0.0
N808 N 0.83088 0.87194 0.37653 0.0
N809 N 0.79911 0.86301 0.47252 0.0
H810 H 0.77954 0.82145 0.42827 0.0
H811 H 0.7719 0.83163 0.45616 0.0
H812 H 0.80217 0.87405 0.48503 0.0
H813 H 0.79658 0.84939 0.48044 0.0
H814 H 0.84224 0.88438 0.36994 0.0
H815 H 0.83206 0.86023 0.36487 0.0
H816 H 0.82271 0.90825 0.38681 0.0
H817 H 0.82026 0.91758 0.41573 0.0
C818 C 0.68331 0.25244 0.85205 0.0
C819 C 0.67301 0.25765 0.8285 0.0
C820 C 0.61633 0.25472 0.84068 0.0
C821 C 0.62663 0.25114 0.86469 0.0
N822 N 0.66952 0.24932 0.89421 0.0
N823 N 0.63023 0.26708 0.80122 0.0
C824 C 0.66006 0.25075 0.87067 0.0
C825 C 0.63963 0.25974 0.82304 0.0
N826 N 0.71519 0.24855 0.85642 0.0
N827 N 0.58438 0.25264 0.83452 0.0
H828 H 0.64656 0.27083 0.78775 0.0
H829 H 0.60654 0.271 0.79718 0.0
H830 H 0.56647 0.24895 0.84686 0.0
H831 H 0.57593 0.25292 0.81683 0.0
H832 H 0.72374 0.24266 0.87251 0.0
H833 H 0.7329 0.24977 0.84326 0.0
H834 H 0.6934 0.25101 0.90001 0.0
H835 H 0.65312 0.24797 0.90827 0.0
C836 C 0.23115 0.8496 0.59341 0.0
C837 C 0.21668 0.8506 0.61636 0.0
C838 C 0.20516 0.885 0.60955 0.0
C839 C 0.21634 0.88336 0.58564 0.0
N840 N 0.23527 0.86333 0.5534 0.0
N841 N 0.18649 0.86843 0.64552 0.0
C842 C 0.22817 0.86546 0.57719 0.0
C843 C 0.20284 0.86812 0.6243 0.0
N844 N 0.24844 0.83365 0.58732 0.0
N845 N 0.19747 0.90277 0.6183 0.0
H846 H 0.18457 0.85641 0.65688 0.0
H847 H 0.1728 0.88011 0.65105 0.0
H848 H 0.1988 0.91539 0.60794 0.0
H849 H 0.19238 0.90529 0.63629 0.0
H850 H 0.26249 0.83293 0.57192 0.0
H851 H 0.25121 0.82173 0.59874 0.0
H852 H 0.24043 0.85005 0.54568 0.0
H853 H 0.23329 0.87452 0.54081 0.0
C854 C 0.66879 0.77576 0.18362 0.0
C855 C 0.65716 0.77613 0.20753 0.0
C856 C 0.60165 0.77118 0.19277 0.0
C857 C 0.61361 0.76902 0.16913 0.0
N858 N 0.65857 0.76683 0.1421 0.0
N859 N 0.61354 0.77123 0.23548 0.0
C860 C 0.64722 0.77067 0.16454 0.0
C861 C 0.62383 0.77304 0.21228 0.0
N862 N 0.70024 0.7808 0.17913 0.0
N863 N 0.56903 0.77198 0.19647 0.0
H864 H 0.62901 0.77258 0.2503 0.0
H865 H 0.59024 0.76679 0.24006 0.0
H866 H 0.55194 0.77057 0.18266 0.0
H867 H 0.55889 0.77567 0.21284 0.0
H868 H 0.70937 0.78284 0.16192 0.0
H869 H 0.71676 0.78445 0.19269 0.0
H870 H 0.68304 0.76567 0.13818 0.0
H871 H 0.64339 0.76337 0.12765 0.0
C872 C 0.77248 0.14164 0.63575 0.0
C873 C 0.78776 0.16009 0.63379 0.0
C874 C 0.81199 0.15056 0.59568 0.0
C875 C 0.79933 0.13154 0.59884 0.0
N876 N 0.77151 0.10802 0.62349 0.0
N877 N 0.82662 0.18104 0.61426 0.0
C878 C 0.78065 0.1268 0.61935 0.0
C879 C 0.80881 0.16426 0.6144 0.0
N880 N 0.74936 0.13852 0.65279 0.0
N881 N 0.82609 0.15575 0.57442 0.0
H882 H 0.82513 0.19141 0.62771 0.0
H883 H 0.84498 0.1839 0.60201 0.0
H884 H 0.82871 0.14621 0.56016 0.0
H885 H 0.83253 0.16995 0.57008 0.0
H886 H 0.7349 0.1261 0.6535 0.0
H887 H 0.74267 0.14904 0.66506 0.0
H888 H 0.7609 0.10327 0.6394 0.0
H889 H 0.77691 0.09681 0.61179 0.0
C890 C 0.35619 0.24337 0.18573 0.0
C891 C 0.36834 0.24581 0.20946 0.0
C892 C 0.42382 0.24731 0.19442 0.0
C893 C 0.41165 0.2456 0.17057 0.0
N894 N 0.36653 0.24569 0.1429 0.0
N895 N 0.41245 0.25431 0.23609 0.0
C896 C 0.37785 0.24479 0.16603 0.0
C897 C 0.40181 0.24913 0.21369 0.0
N898 N 0.32421 0.23895 0.1821 0.0
N899 N 0.45638 0.24626 0.1988 0.0
H900 H 0.39698 0.25569 0.25067 0.0
H901 H 0.43603 0.25893 0.23977 0.0
H902 H 0.47345 0.245 0.18525 0.0
H903 H 0.46641 0.2451 0.21598 0.0
H904 H 0.31454 0.23481 0.16556 0.0
H905 H 0.30755 0.23815 0.19604 0.0
H906 H 0.34217 0.24711 0.1384 0.0
H907 H 0.38184 0.24665 0.12813 0.0
C908 C 0.86638 0.6481 0.70402 0.0
C909 C 0.87459 0.6676 0.69836 0.0
C910 C 0.92598 0.65724 0.68127 0.0
C911 C 0.91685 0.63764 0.68548 0.0
N912 N 0.87688 0.61402 0.69764 0.0
N913 N 0.90938 0.69073 0.67846 0.0
C914 C 0.88659 0.63295 0.69597 0.0
C915 C 0.90359 0.67216 0.68604 0.0
N916 N 0.83971 0.64414 0.71761 0.0
N917 N 0.95652 0.66161 0.67352 0.0
H918 H 0.89387 0.70213 0.68207 0.0
H919 H 0.92817 0.69463 0.66702 0.0
H920 H 0.97357 0.6511 0.6696 0.0
H921 H 0.96593 0.67562 0.67273 0.0
H922 H 0.83433 0.63052 0.72468 0.0
H923 H 0.82392 0.65482 0.72328 0.0
H924 H 0.85374 0.60966 0.70271 0.0
H925 H 0.89129 0.60258 0.6922 0.0
C926 C 0.86485 0.37507 0.34694 0.0
C927 C 0.87815 0.35717 0.33981 0.0
C928 C 0.93304 0.37073 0.34361 0.0
C929 C 0.91981 0.38833 0.35187 0.0
N930 N 0.87403 0.40674 0.36461 0.0
N931 N 0.92439 0.33677 0.33451 0.0
C932 C 0.88592 0.39035 0.35448 0.0
C933 C 0.91214 0.35466 0.33909 0.0
N934 N 0.83209 0.37756 0.34593 0.0
N935 N 0.96554 0.36959 0.33947 0.0
H936 H 0.90986 0.32478 0.33046 0.0
H937 H 0.94875 0.33337 0.33638 0.0
H938 H 0.98182 0.38084 0.34321 0.0
H939 H 0.97628 0.35805 0.33082 0.0
H940 H 0.82094 0.39083 0.34823 0.0
H941 H 0.8159 0.36649 0.34128 0.0
H942 H 0.84997 0.40836 0.36946 0.0
H943 H 0.88876 0.41836 0.36978 0.0
C944 C 0.17309 0.37551 0.68534 0.0
C945 C 0.15985 0.35732 0.69239 0.0
C946 C 0.10509 0.36939 0.68491 0.0
C947 C 0.11818 0.38812 0.6803 0.0
N948 N 0.16414 0.40983 0.67911 0.0
N949 N 0.11329 0.33772 0.7027 0.0
C950 C 0.15209 0.39142 0.68129 0.0
C951 C 0.12583 0.35445 0.6932 0.0
N952 N 0.20567 0.37742 0.68187 0.0
N953 N 0.07298 0.3657 0.68065 0.0
H954 H 0.12764 0.3264 0.70897 0.0
H955 H 0.08881 0.3357 0.70629 0.0
H956 H 0.05694 0.3762 0.67444 0.0
H957 H 0.06276 0.35187 0.68117 0.0
H958 H 0.21645 0.38968 0.67432 0.0
H959 H 0.22175 0.36608 0.68466 0.0
H960 H 0.1883 0.41349 0.68227 0.0
H961 H 0.14947 0.42179 0.67599 0.0
C962 C 0.11637 0.68112 0.35476 0.0
C963 C 0.14989 0.68063 0.36038 0.0
C964 C 0.14618 0.64553 0.36715 0.0
C965 C 0.11215 0.64641 0.36388 0.0
N966 N 0.06395 0.66541 0.35832 0.0
N967 N 0.19638 0.66309 0.37473 0.0
C968 C 0.09698 0.66431 0.35865 0.0
C969 C 0.16477 0.66301 0.36729 0.0
N970 N 0.10322 0.69752 0.34509 0.0
N971 N 0.16074 0.62796 0.36956 0.0
H972 H 0.21082 0.67557 0.37481 0.0
H973 H 0.20767 0.65116 0.38249 0.0
H974 H 0.14777 0.61492 0.36972 0.0
H975 H 0.1857 0.62615 0.36947 0.0
H976 H 0.07978 0.69811 0.33813 0.0
H977 H 0.11662 0.71017 0.34205 0.0
H978 H 0.05153 0.67842 0.35733 0.0
H979 H 0.04876 0.65348 0.36109 0.0
C980 C 0.78498 0.85007 0.59678 0.0
C981 C 0.79808 0.85095 0.62039 0.0
C982 C 0.81118 0.88537 0.61444 0.0
C983 C 0.8022 0.88371 0.58988 0.0
N984 N 0.78372 0.864 0.55673 0.0
N985 N 0.82609 0.86882 0.65144 0.0
C986 C 0.78966 0.86597 0.58081 0.0
C987 C 0.8116 0.86849 0.62927 0.0
N988 N 0.76763 0.83409 0.58976 0.0
N989 N 0.81893 0.90314 0.62359 0.0
H990 H 0.82652 0.85683 0.66293 0.0
H991 H 0.83963 0.88051 0.65784 0.0
H992 H 0.81891 0.91573 0.61313 0.0
H993 H 0.82261 0.90569 0.64183 0.0
H994 H 0.75462 0.83336 0.57367 0.0
H995 H 0.76376 0.82217 0.60101 0.0
H996 H 0.77832 0.8508 0.54865 0.0
H997 H 0.78656 0.8753 0.54439 0.0
C998 C 0.67336 0.24517 0.18876 0.0
C999 C 0.66119 0.24775 0.21225 0.0
C1000 C 0.60651 0.25215 0.19576 0.0
C1001 C 0.61798 0.24705 0.17274 0.0
N1002 N 0.66159 0.23805 0.14687 0.0
N1003 N 0.61634 0.25271 0.2388 0.0
C1004 C 0.65131 0.24356 0.16905 0.0
C1005 C 0.62783 0.25119 0.21593 0.0
N1006 N 0.70604 0.24446 0.18536 0.0
N1007 N 0.57521 0.25797 0.19825 0.0
H1008 H 0.63131 0.25263 0.25399 0.0
H1009 H 0.59185 0.25284 0.24295 0.0
H1010 H 0.55877 0.25848 0.18394 0.0
H1011 H 0.56614 0.26379 0.21398 0.0
H1012 H 0.71679 0.24447 0.16853 0.0
H1013 H 0.72274 0.24539 0.1995 0.0
H1014 H 0.68476 0.23307 0.1435 0.0
H1015 H 0.64627 0.23748 0.13188 0.0
C1016 C 0.21573 0.15517 0.62747 0.0
C1017 C 0.22943 0.17254 0.6181 0.0
C1018 C 0.23786 0.15689 0.57929 0.0
C1019 C 0.22543 0.13927 0.58895 0.0
N1020 N 0.20841 0.12044 0.62321 0.0
N1021 N 0.26 0.18886 0.58722 0.0
C1022 C 0.21623 0.13805 0.6134 0.0
C1023 C 0.24255 0.17304 0.59465 0.0
N1024 N 0.20102 0.15524 0.64936 0.0
N1025 N 0.24373 0.1585 0.55521 0.0
H1026 H 0.26391 0.20096 0.59801 0.0
H1027 H 0.27305 0.18931 0.57131 0.0
H1028 H 0.24078 0.14704 0.54328 0.0
H1029 H 0.24909 0.17158 0.54667 0.0
H1030 H 0.18738 0.14367 0.65599 0.0
H1031 H 0.20046 0.16743 0.66028 0.0
H1032 H 0.20461 0.11821 0.64148 0.0
H1033 H 0.20847 0.10767 0.61331 0.0
C1034 C 0.39581 0.75767 0.21171 0.0
C1035 C 0.36225 0.75887 0.20642 0.0
C1036 C 0.37398 0.76253 0.16344 0.0
C1037 C 0.40722 0.75948 0.16857 0.0
N1038 N 0.44986 0.75202 0.19694 0.0
N1039 N 0.31859 0.76083 0.17755 0.0
C1040 C 0.4182 0.75656 0.19256 0.0
C1041 C 0.35109 0.76093 0.18234 0.0
N1042 N 0.40626 0.7579 0.2351 0.0
N1043 N 0.36449 0.76734 0.14059 0.0
H1044 H 0.30119 0.76034 0.19101 0.0
H1045 H 0.30873 0.76005 0.16031 0.0
H1046 H 0.38061 0.76831 0.12631 0.0
H1047 H 0.34122 0.77173 0.13604 0.0
H1048 H 0.43046 0.75927 0.24018 0.0
H1049 H 0.39053 0.75823 0.24963 0.0
H1050 H 0.45861 0.74748 0.21362 0.0
H1051 H 0.4672 0.75142 0.18348 0.0
C1052 C 0.79478 0.17307 0.43868 0.0
C1053 C 0.80512 0.17184 0.4145 0.0
C1054 C 0.81966 0.13781 0.42069 0.0
C1055 C 0.80907 0.139 0.44481 0.0
N1056 N 0.78146 0.15629 0.47583 0.0
N1057 N 0.82205 0.15268 0.38102 0.0
C1058 C 0.79493 0.15619 0.45347 0.0
C1059 C 0.81585 0.15404 0.40503 0.0
N1060 N 0.78595 0.19057 0.44772 0.0
N1061 N 0.83429 0.12133 0.41305 0.0
H1062 H 0.82011 0.1644 0.36921 0.0
H1063 H 0.82684 0.13973 0.3724 0.0
H1064 H 0.83621 0.10893 0.42375 0.0
H1065 H 0.846 0.12018 0.39667 0.0
H1066 H 0.782 0.19306 0.46587 0.0
H1067 H 0.78434 0.20309 0.43723 0.0
H1068 H 0.76771 0.1676 0.48231 0.0
H1069 H 0.78193 0.14438 0.48743 0.0
C1070 C 0.40881 0.24867 0.81446 0.0
C1071 C 0.37502 0.24699 0.81838 0.0
C1072 C 0.3844 0.2444 0.86188 0.0
C1073 C 0.41814 0.24632 0.85795 0.0
N1074 N 0.46226 0.25433 0.83156 0.0
N1075 N 0.32994 0.24702 0.84546 0.0
C1076 C 0.43025 0.24978 0.83452 0.0
C1077 C 0.36259 0.24607 0.84204 0.0
N1078 N 0.42045 0.24842 0.79154 0.0
N1079 N 0.37339 0.24025 0.88444 0.0
H1080 H 0.31337 0.248 0.83125 0.0
H1081 H 0.31936 0.24836 0.86224 0.0
H1082 H 0.38864 0.23951 0.89946 0.0
H1083 H 0.34952 0.23645 0.88816 0.0
H1084 H 0.44487 0.2472 0.78751 0.0
H1085 H 0.40549 0.24817 0.77634 0.0
H1086 H 0.47205 0.25896 0.81532 0.0
H1087 H 0.47871 0.25509 0.84587 0.0
C1088 C 0.29225 0.88392 0.39971 0.0
C1089 C 0.28917 0.86395 0.40547 0.0
C1090 C 0.27341 0.87275 0.44624 0.0
C1091 C 0.26753 0.89192 0.43807 0.0
N1092 N 0.27311 0.91624 0.40695 0.0
N1093 N 0.3036 0.84366 0.43907 0.0
C1094 C 0.27772 0.89773 0.41484 0.0
C1095 C 0.28742 0.85932 0.4303 0.0
N1096 N 0.31362 0.88984 0.3826 0.0
N1097 N 0.26536 0.86725 0.46906 0.0
H1098 H 0.31852 0.8355 0.42811 0.0
H1099 H 0.30578 0.84049 0.45734 0.0
H1100 H 0.25646 0.87686 0.4817 0.0
H1101 H 0.26586 0.85289 0.47487 0.0
H1102 H 0.31894 0.90436 0.37912 0.0
H1103 H 0.32945 0.88013 0.37471 0.0
H1104 H 0.27741 0.9205 0.38924 0.0
H1105 H 0.26294 0.92689 0.41762 0.0
C1106 C 0.62295 0.77477 0.8178 0.0
C1107 C 0.65662 0.77718 0.82225 0.0
C1108 C 0.64675 0.7804 0.86545 0.0
C1109 C 0.61316 0.7777 0.86102 0.0
N1110 N 0.56951 0.76878 0.83414 0.0
N1111 N 0.70149 0.7788 0.85009 0.0
C1112 C 0.60136 0.77372 0.83752 0.0
C1113 C 0.66881 0.77889 0.84607 0.0
N1114 N 0.61154 0.77428 0.79466 0.0
N1115 N 0.65736 0.78503 0.88805 0.0
H1116 H 0.71822 0.77795 0.83623 0.0
H1117 H 0.71207 0.77807 0.8671 0.0
H1118 H 0.64198 0.78555 0.90279 0.0
H1119 H 0.68095 0.78941 0.89206 0.0
H1120 H 0.58711 0.77495 0.79007 0.0
H1121 H 0.62663 0.77445 0.77975 0.0
H1122 H 0.56003 0.76369 0.81796 0.0
H1123 H 0.55281 0.76832 0.84807 0.0
loop_
_geom_bond_atom_site_label_1
_geom_bond_atom_site_label_2
_geom_bond_distance
_geom_bond_site_symmetry_2
_ccdc_geom_bond_type
C0 C1 1.264 . S
C0 C5 1.479 . S
C0 C10 1.465 . S
C1 C0 1.264 . S
C1 C3 1.339 . S
C1 H28 0.931 . S
C2 C3 1.395 . S
C2 C4 1.320 . S
C3 C1 1.339 . S
C3 C2 1.395 . S
C3 H29 0.929 . S
C4 C2 1.320 . S
C4 C5 1.405 . S
C4 H30 0.930 . S
C5 C0 1.479 . S
C5 C4 1.405 . S
C5 H31 0.931 . S
U6 O7 2.454 . S
U6 O8 2.458 . S
U6 C9 2.984 . S
U6 C10 2.847 . S
U6 C23 2.882 . S
U6 O24 2.441 . S
U6 O25 2.420 . S
U6 O26 2.455 . S
U6 O27 2.449 . S
O7 U6 2.454 . S
O7 C9 1.353 . S
O8 U6 2.458 . S
O8 C9 1.286 . S
C9 U6 2.984 . S
C9 O7 1.353 . S
C9 O8 1.286 . S
C9 C11 1.363 . S
C10 C0 1.465 . S
C10 U6 2.847 . S
C10 O24 1.249 . S
C10 O25 1.202 . S
C11 C9 1.363 . S
C11 C13 1.408 . S
C11 C16 1.342 . S
C12 C13 1.310 . S
C12 C15 1.461 . S
C12 H32 0.932 . S
C13 C11 1.408 . S
C13 C12 1.310 . S
C13 H33 0.930 . S
C14 C15 1.474 . S
C14 C16 1.285 . S
C14 H34 0.929 . S
C15 C12 1.461 . S
C15 C14 1.474 . S
C16 C11 1.342 . S
C16 C14 1.285 . S
C16 H35 0.930 . S
C17 C20 1.424 . S
C17 C22 1.245 . S
C17 C23 1.428 . S
C18 C21 1.260 . S
C18 C22 1.477 . S
C18 H36 0.932 . S
C19 C20 1.384 . S
C19 C21 1.479 . S
C19 H37 0.929 . S
C20 C17 1.424 . S
C20 C19 1.384 . S
C20 H38 0.928 . S
C21 C18 1.260 . S
C21 C19 1.479 . S
C22 C17 1.245 . S
C22 C18 1.477 . S
C22 H39 0.932 . S
C23 U6 2.882 . S
C23 C17 1.428 . S
C23 O26 1.301 . S
C23 O27 1.282 . S
O24 U6 2.441 . S
O24 C10 1.249 . S
O25 U6 2.420 . S
O25 C10 1.202 . S
O26 U6 2.455 . S
O26 C23 1.301 . S
O27 U6 2.449 . S
O27 C23 1.282 . S
H28 C1 0.931 . S
H29 C3 0.929 . S
H30 C4 0.930 . S
H31 C5 0.931 . S
H32 C12 0.932 . S
H33 C13 0.930 . S
H34 C14 0.929 . S
H35 C16 0.930 . S
H36 C18 0.932 . S
H37 C19 0.929 . S
H38 C20 0.928 . S
H39 C22 0.932 . S
C40 C41 1.264 . S
C40 C45 1.479 . S
C40 C50 1.465 . S
C41 C40 1.264 . S
C41 C43 1.339 . S
C41 H68 0.931 . S
C42 C43 1.395 . S
C42 C44 1.320 . S
C43 C41 1.339 . S
C43 C42 1.395 . S
C43 H69 0.929 . S
C44 C42 1.320 . S
C44 C45 1.405 . S
C44 H70 0.930 . S
C45 C40 1.479 . S
C45 C44 1.405 . S
C45 H71 0.931 . S
U46 O47 2.454 . S
U46 O48 2.458 . S
U46 C49 2.984 . S
U46 C50 2.847 . S
U46 C63 2.882 . S
U46 O64 2.441 . S
U46 O65 2.420 . S
U46 O66 2.455 . S
U46 O67 2.449 . S
O47 U46 2.454 . S
O47 C49 1.353 . S
O48 U46 2.458 . S
O48 C49 1.286 . S
C49 U46 2.984 . S
C49 O47 1.353 . S
C49 O48 1.286 . S
C49 C51 1.363 . S
C50 C40 1.465 . S
C50 U46 2.847 . S
C50 O64 1.249 . S
C50 O65 1.202 . S
C51 C49 1.363 . S
C51 C53 1.408 . S
C51 C56 1.342 . S
C52 C53 1.310 . S
C52 C55 1.461 . S
C52 H72 0.932 . S
C53 C51 1.408 . S
C53 C52 1.310 . S
C53 H73 0.930 . S
C54 C55 1.474 . S
C54 C56 1.285 . S
C54 H74 0.929 . S
C55 C52 1.461 . S
C55 C54 1.474 . S
C56 C51 1.342 . S
C56 C54 1.285 . S
C56 H75 0.930 . S
C57 C60 1.424 . S
C57 C62 1.245 . S
C57 C63 1.428 . S
C58 C61 1.260 . S
C58 C62 1.477 . S
C58 H76 0.932 . S
C59 C60 1.384 . S
C59 C61 1.479 . S
C59 H77 0.929 . S
C60 C57 1.424 . S
C60 C59 1.384 . S
C60 H78 0.928 . S
C61 C58 1.260 . S
C61 C59 1.479 . S
C62 C57 1.245 . S
C62 C58 1.477 . S
C62 H79 0.932 . S
C63 U46 2.882 . S
C63 C57 1.428 . S
C63 O66 1.301 . S
C63 O67 1.282 . S
O64 U46 2.441 . S
O64 C50 1.249 . S
O65 U46 2.420 . S
O65 C50 1.202 . S
O66 U46 2.455 . S
O66 C63 1.301 . S
O67 U46 2.449 . S
O67 C63 1.282 . S
H68 C41 0.931 . S
H69 C43 0.929 . S
H70 C44 0.930 . S
H71 C45 0.931 . S
H72 C52 0.932 . S
H73 C53 0.930 . S
H74 C54 0.929 . S
H75 C56 0.930 . S
H76 C58 0.932 . S
H77 C59 0.929 . S
H78 C60 0.928 . S
H79 C62 0.932 . S
C80 C81 1.264 . S
C80 C85 1.479 . S
C80 C90 1.465 . S
C81 C80 1.264 . S
C81 C83 1.339 . S
C81 H108 0.931 . S
C82 C83 1.395 . S
C82 C84 1.320 . S
C83 C81 1.339 . S
C83 C82 1.395 . S
C83 H109 0.929 . S
C84 C82 1.320 . S
C84 C85 1.405 . S
C84 H110 0.930 . S
C85 C80 1.479 . S
C85 C84 1.405 . S
C85 H111 0.931 . S
U86 O87 2.454 . S
U86 O88 2.458 . S
U86 C89 2.984 . S
U86 C90 2.847 . S
U86 C103 2.882 . S
U86 O104 2.441 . S
U86 O105 2.420 . S
U86 O106 2.455 . S
U86 O107 2.449 . S
O87 U86 2.454 . S
O87 C89 1.353 . S
O88 U86 2.458 . S
O88 C89 1.286 . S
C89 U86 2.984 . S
C89 O87 1.353 . S
C89 O88 1.286 . S
C89 C91 1.363 . S
C90 C80 1.465 . S
C90 U86 2.847 . S
C90 O104 1.249 . S
C90 O105 1.202 . S
C91 C89 1.363 . S
C91 C93 1.408 . S
C91 C96 1.342 . S
C92 C93 1.310 . S
C92 C95 1.461 . S
C92 H112 0.932 . S
C93 C91 1.408 . S
C93 C92 1.310 . S
C93 H113 0.930 . S
C94 C95 1.474 . S
C94 C96 1.285 . S
C94 H114 0.929 . S
C95 C92 1.461 . S
C95 C94 1.474 . S
C96 C91 1.342 . S
C96 C94 1.285 . S
C96 H115 0.930 . S
C97 C100 1.424 . S
C97 C102 1.245 . S
C97 C103 1.428 . S
C98 C101 1.260 . S
C98 C102 1.477 . S
C98 H116 0.932 . S
C99 C100 1.384 . S
C99 C101 1.479 . S
C99 H117 0.929 . S
C100 C97 1.424 . S
C100 C99 1.384 . S
C100 H118 0.928 . S
C101 C98 1.260 . S
C101 C99 1.479 . S
C102 C97 1.245 . S
C102 C98 1.477 . S
C102 H119 0.932 . S
C103 U86 2.882 . S
C103 C97 1.428 . S
C103 O106 1.301 . S
C103 O107 1.282 . S
O104 U86 2.441 . S
O104 C90 1.249 . S
O105 U86 2.420 . S
O105 C90 1.202 . S
O106 U86 2.455 . S
O106 C103 1.301 . S
O107 U86 2.449 . S
O107 C103 1.282 . S
H108 C81 0.931 . S
H109 C83 0.929 . S
H110 C84 0.930 . S
H111 C85 0.931 . S
H112 C92 0.932 . S
H113 C93 0.930 . S
H114 C94 0.929 . S
H115 C96 0.930 . S
H116 C98 0.932 . S
H117 C99 0.929 . S
H118 C100 0.928 . S
H119 C102 0.932 . S
C120 C121 1.264 . S
C120 C125 1.479 . S
C120 C130 1.465 . S
C121 C120 1.264 . S
C121 C123 1.339 . S
C121 H148 0.931 . S
C122 C123 1.395 . S
C122 C124 1.320 . S
C123 C121 1.339 . S
C123 C122 1.395 . S
C123 H149 0.929 . S
C124 C122 1.320 . S
C124 C125 1.405 . S
C124 H150 0.930 . S
C125 C120 1.479 . S
C125 C124 1.405 . S
C125 H151 0.931 . S
U126 O127 2.454 . S
U126 O128 2.458 . S
U126 C129 2.984 . S
U126 C130 2.847 . S
U126 C143 2.882 . S
U126 O144 2.441 . S
U126 O145 2.420 . S
U126 O146 2.455 . S
U126 O147 2.449 . S
O127 U126 2.454 . S
O127 C129 1.353 . S
O128 U126 2.458 . S
O128 C129 1.286 . S
C129 U126 2.984 . S
C129 O127 1.353 . S
C129 O128 1.286 . S
C129 C131 1.363 . S
C130 C120 1.465 . S
C130 U126 2.847 . S
C130 O144 1.249 . S
C130 O145 1.202 . S
C131 C129 1.363 . S
C131 C133 1.408 . S
C131 C136 1.342 . S
C132 C133 1.310 . S
C132 C135 1.461 . S
C132 H152 0.932 . S
C133 C131 1.408 . S
C133 C132 1.310 . S
C133 H153 0.930 . S
C134 C135 1.474 . S
C134 C136 1.285 . S
C134 H154 0.929 . S
C135 C132 1.461 . S
C135 C134 1.474 . S
C136 C131 1.342 . S
C136 C134 1.285 . S
C136 H155 0.930 . S
C137 C140 1.424 . S
C137 C142 1.245 . S
C137 C143 1.428 . S
C138 C141 1.260 . S
C138 C142 1.477 . S
C138 H156 0.932 . S
C139 C140 1.384 . S
C139 C141 1.479 . S
C139 H157 0.929 . S
C140 C137 1.424 . S
C140 C139 1.384 . S
C140 H158 0.928 . S
C141 C138 1.260 . S
C141 C139 1.479 . S
C142 C137 1.245 . S
C142 C138 1.477 . S
C142 H159 0.932 . S
C143 U126 2.882 . S
C143 C137 1.428 . S
C143 O146 1.301 . S
C143 O147 1.282 . S
O144 U126 2.441 . S
O144 C130 1.249 . S
O145 U126 2.420 . S
O145 C130 1.202 . S
O146 U126 2.455 . S
O146 C143 1.301 . S
O147 U126 2.449 . S
O147 C143 1.282 . S
H148 C121 0.931 . S
H149 C123 0.929 . S
H150 C124 0.930 . S
H151 C125 0.931 . S
H152 C132 0.932 . S
H153 C133 0.930 . S
H154 C134 0.929 . S
H155 C136 0.930 . S
H156 C138 0.932 . S
H157 C139 0.929 . S
H158 C140 0.928 . S
H159 C142 0.932 . S
C160 C161 1.264 . S
C160 C165 1.479 . S
C160 C170 1.465 . S
C161 C160 1.264 . S
C161 C163 1.339 . S
C161 H188 0.931 . S
C162 C163 1.395 . S
C162 C164 1.320 . S
C163 C161 1.339 . S
C163 C162 1.395 . S
C163 H189 0.929 . S
C164 C162 1.320 . S
C164 C165 1.405 . S
C164 H190 0.930 . S
C165 C160 1.479 . S
C165 C164 1.405 . S
C165 H191 0.931 . S
U166 O167 2.454 . S
U166 O168 2.458 . S
U166 C169 2.984 . S
U166 C170 2.847 . S
U166 C183 2.882 . S
U166 O184 2.441 . S
U166 O185 2.420 . S
U166 O186 2.455 . S
U166 O187 2.449 . S
O167 U166 2.454 . S
O167 C169 1.353 . S
O168 U166 2.458 . S
O168 C169 1.286 . S
C169 U166 2.984 . S
C169 O167 1.353 . S
C169 O168 1.286 . S
C169 C171 1.363 . S
C170 C160 1.465 . S
C170 U166 2.847 . S
C170 O184 1.249 . S
C170 O185 1.202 . S
C171 C169 1.363 . S
C171 C173 1.408 . S
C171 C176 1.342 . S
C172 C173 1.310 . S
C172 C175 1.461 . S
C172 H192 0.932 . S
C173 C171 1.408 . S
C173 C172 1.310 . S
C173 H193 0.930 . S
C174 C175 1.474 . S
C174 C176 1.285 . S
C174 H194 0.929 . S
C175 C172 1.461 . S
C175 C174 1.474 . S
C176 C171 1.342 . S
C176 C174 1.285 . S
C176 H195 0.930 . S
C177 C180 1.424 . S
C177 C182 1.245 . S
C177 C183 1.428 . S
C178 C181 1.260 . S
C178 C182 1.477 . S
C178 H196 0.932 . S
C179 C180 1.384 . S
C179 C181 1.479 . S
C179 H197 0.929 . S
C180 C177 1.424 . S
C180 C179 1.384 . S
C180 H198 0.928 . S
C181 C178 1.260 . S
C181 C179 1.479 . S
C182 C177 1.245 . S
C182 C178 1.477 . S
C182 H199 0.932 . S
C183 U166 2.882 . S
C183 C177 1.428 . S
C183 O186 1.301 . S
C183 O187 1.282 . S
O184 U166 2.441 . S
O184 C170 1.249 . S
O185 U166 2.420 . S
O185 C170 1.202 . S
O186 U166 2.455 . S
O186 C183 1.301 . S
O187 U166 2.449 . S
O187 C183 1.282 . S
H188 C161 0.931 . S
H189 C163 0.929 . S
H190 C164 0.930 . S
H191 C165 0.931 . S
H192 C172 0.932 . S
H193 C173 0.930 . S
H194 C174 0.929 . S
H195 C176 0.930 . S
H196 C178 0.932 . S
H197 C179 0.929 . S
H198 C180 0.928 . S
H199 C182 0.932 . S
C200 C201 1.264 . S
C200 C205 1.479 . S
C200 C210 1.465 . S
C201 C200 1.264 . S
C201 C203 1.339 . S
C201 H228 0.931 . S
C202 C203 1.395 . S
C202 C204 1.320 . S
C203 C201 1.339 . S
C203 C202 1.395 . S
C203 H229 0.929 . S
C204 C202 1.320 . S
C204 C205 1.405 . S
C204 H230 0.930 . S
C205 C200 1.479 . S
C205 C204 1.405 . S
C205 H231 0.931 . S
U206 O207 2.454 . S
U206 O208 2.458 . S
U206 C209 2.984 . S
U206 C210 2.847 . S
U206 C223 2.882 . S
U206 O224 2.441 . S
U206 O225 2.420 . S
U206 O226 2.455 . S
U206 O227 2.449 . S
O207 U206 2.454 . S
O207 C209 1.353 . S
O208 U206 2.458 . S
O208 C209 1.286 . S
C209 U206 2.984 . S
C209 O207 1.353 . S
C209 O208 1.286 . S
C209 C211 1.363 . S
C210 C200 1.465 . S
C210 U206 2.847 . S
C210 O224 1.249 . S
C210 O225 1.202 . S
C211 C209 1.363 . S
C211 C213 1.408 . S
C211 C216 1.342 . S
C212 C213 1.310 . S
C212 C215 1.461 . S
C212 H232 0.932 . S
C213 C211 1.408 . S
C213 C212 1.310 . S
C213 H233 0.930 . S
C214 C215 1.474 . S
C214 C216 1.285 . S
C214 H234 0.929 . S
C215 C212 1.461 . S
C215 C214 1.474 . S
C216 C211 1.342 . S
C216 C214 1.285 . S
C216 H235 0.930 . S
C217 C220 1.424 . S
C217 C222 1.245 . S
C217 C223 1.428 . S
C218 C221 1.260 . S
C218 C222 1.477 . S
C218 H236 0.932 . S
C219 C220 1.384 . S
C219 C221 1.479 . S
C219 H237 0.929 . S
C220 C217 1.424 . S
C220 C219 1.384 . S
C220 H238 0.928 . S
C221 C218 1.260 . S
C221 C219 1.479 . S
C222 C217 1.245 . S
C222 C218 1.477 . S
C222 H239 0.932 . S
C223 U206 2.882 . S
C223 C217 1.428 . S
C223 O226 1.301 . S
C223 O227 1.282 . S
O224 U206 2.441 . S
O224 C210 1.249 . S
O225 U206 2.420 . S
O225 C210 1.202 . S
O226 U206 2.455 . S
O226 C223 1.301 . S
O227 U206 2.449 . S
O227 C223 1.282 . S
H228 C201 0.931 . S
H229 C203 0.929 . S
H230 C204 0.930 . S
H231 C205 0.931 . S
H232 C212 0.932 . S
H233 C213 0.930 . S
H234 C214 0.929 . S
H235 C216 0.930 . S
H236 C218 0.932 . S
H237 C219 0.929 . S
H238 C220 0.928 . S
H239 C222 0.932 . S
C240 C241 1.264 . S
C240 C245 1.479 . S
C240 C250 1.465 . S
C241 C240 1.264 . S
C241 C243 1.339 . S
C241 H268 0.931 . S
C242 C243 1.395 . S
C242 C244 1.320 . S
C243 C241 1.339 . S
C243 C242 1.395 . S
C243 H269 0.929 . S
C244 C242 1.320 . S
C244 C245 1.405 . S
C244 H270 0.930 . S
C245 C240 1.479 . S
C245 C244 1.405 . S
C245 H271 0.931 . S
U246 O247 2.454 . S
U246 O248 2.458 . S
U246 C249 2.984 . S
U246 C250 2.847 . S
U246 C263 2.882 . S
U246 O264 2.441 . S
U246 O265 2.420 . S
U246 O266 2.455 . S
U246 O267 2.449 . S
O247 U246 2.454 . S
O247 C249 1.353 . S
O248 U246 2.458 . S
O248 C249 1.286 . S
C249 U246 2.984 . S
C249 O247 1.353 . S
C249 O248 1.286 . S
C249 C251 1.363 . S
C250 C240 1.465 . S
C250 U246 2.847 . S
C250 O264 1.249 . S
C250 O265 1.202 . S
C251 C249 1.363 . S
C251 C253 1.408 . S
C251 C256 1.342 . S
C252 C253 1.310 . S
C252 C255 1.461 . S
C252 H272 0.932 . S
C253 C251 1.408 . S
C253 C252 1.310 . S
C253 H273 0.930 . S
C254 C255 1.474 . S
C254 C256 1.285 . S
C254 H274 0.929 . S
C255 C252 1.461 . S
C255 C254 1.474 . S
C256 C251 1.342 . S
C256 C254 1.285 . S
C256 H275 0.930 . S
C257 C260 1.424 . S
C257 C262 1.245 . S
C257 C263 1.428 . S
C258 C261 1.260 . S
C258 C262 1.477 . S
C258 H276 0.932 . S
C259 C260 1.384 . S
C259 C261 1.479 . S
C259 H277 0.929 . S
C260 C257 1.424 . S
C260 C259 1.384 . S
C260 H278 0.928 . S
C261 C258 1.260 . S
C261 C259 1.479 . S
C262 C257 1.245 . S
C262 C258 1.477 . S
C262 H279 0.932 . S
C263 U246 2.882 . S
C263 C257 1.428 . S
C263 O266 1.301 . S
C263 O267 1.282 . S
O264 U246 2.441 . S
O264 C250 1.249 . S
O265 U246 2.420 . S
O265 C250 1.202 . S
O266 U246 2.455 . S
O266 C263 1.301 . S
O267 U246 2.449 . S
O267 C263 1.282 . S
H268 C241 0.931 . S
H269 C243 0.929 . S
H270 C244 0.930 . S
H271 C245 0.931 . S
H272 C252 0.932 . S
H273 C253 0.930 . S
H274 C254 0.929 . S
H275 C256 0.930 . S
H276 C258 0.932 . S
H277 C259 0.929 . S
H278 C260 0.928 . S
H279 C262 0.932 . S
C280 C281 1.264 . S
C280 C285 1.479 . S
C280 C290 1.465 . S
C281 C280 1.264 . S
C281 C283 1.339 . S
C281 H308 0.931 . S
C282 C283 1.395 . S
C282 C284 1.320 . S
C283 C281 1.339 . S
C283 C282 1.395 . S
C283 H309 0.929 . S
C284 C282 1.320 . S
C284 C285 1.405 . S
C284 H310 0.930 . S
C285 C280 1.479 . S
C285 C284 1.405 . S
C285 H311 0.931 . S
U286 O287 2.454 . S
U286 O288 2.458 . S
U286 C289 2.984 . S
U286 C290 2.847 . S
U286 C303 2.882 . S
U286 O304 2.441 . S
U286 O305 2.420 . S
U286 O306 2.455 . S
U286 O307 2.449 . S
O287 U286 2.454 . S
O287 C289 1.353 . S
O288 U286 2.458 . S
O288 C289 1.286 . S
C289 U286 2.984 . S
C289 O287 1.353 . S
C289 O288 1.286 . S
C289 C291 1.363 . S
C290 C280 1.465 . S
C290 U286 2.847 . S
C290 O304 1.249 . S
C290 O305 1.202 . S
C291 C289 1.363 . S
C291 C293 1.408 . S
C291 C296 1.342 . S
C292 C293 1.310 . S
C292 C295 1.461 . S
C292 H312 0.932 . S
C293 C291 1.408 . S
C293 C292 1.310 . S
C293 H313 0.930 . S
C294 C295 1.474 . S
C294 C296 1.285 . S
C294 H314 0.929 . S
C295 C292 1.461 . S
C295 C294 1.474 . S
C296 C291 1.342 . S
C296 C294 1.285 . S
C296 H315 0.930 . S
C297 C300 1.424 . S
C297 C302 1.245 . S
C297 C303 1.428 . S
C298 C301 1.260 . S
C298 C302 1.477 . S
C298 H316 0.932 . S
C299 C300 1.384 . S
C299 C301 1.479 . S
C299 H317 0.929 . S
C300 C297 1.424 . S
C300 C299 1.384 . S
C300 H318 0.928 . S
C301 C298 1.260 . S
C301 C299 1.479 . S
C302 C297 1.245 . S
C302 C298 1.477 . S
C302 H319 0.932 . S
C303 U286 2.882 . S
C303 C297 1.428 . S
C303 O306 1.301 . S
C303 O307 1.282 . S
O304 U286 2.441 . S
O304 C290 1.249 . S
O305 U286 2.420 . S
O305 C290 1.202 . S
O306 U286 2.455 . S
O306 C303 1.301 . S
O307 U286 2.449 . S
O307 C303 1.282 . S
H308 C281 0.931 . S
H309 C283 0.929 . S
H310 C284 0.930 . S
H311 C285 0.931 . S
H312 C292 0.932 . S
H313 C293 0.930 . S
H314 C294 0.929 . S
H315 C296 0.930 . S
H316 C298 0.932 . S
H317 C299 0.929 . S
H318 C300 0.928 . S
H319 C302 0.932 . S
H320 C347 0.929 . S
N321 C346 1.433 1_455 S
N321 C352 1.435 . S
N321 C358 1.423 . S
H322 C348 0.930 . S
H323 C351 0.931 . S
H324 C350 0.929 . S
H325 C353 0.930 . S
H326 C354 0.932 . S
H327 C357 0.929 . S
H328 C356 0.931 . S
H329 C359 0.929 . S
H330 C363 0.932 . S
H331 C360 0.931 1_655 S
H332 C362 0.929 . S
H333 C365 0.929 . S
H334 C366 0.930 . S
H335 C368 0.929 . S
H336 C369 0.931 . S
H337 C371 0.930 . S
H338 C372 0.932 . S
H339 C374 0.931 . S
H340 C375 0.929 . S
H341 C377 0.929 . S
H342 C378 0.931 1_655 S
H343 C380 0.929 . S
N344 C364 1.433 1_455 S
N344 C370 1.435 . S
N344 C376 1.423 . S
H345 C381 0.932 . S
C346 N321 1.433 1_655 S
C346 C347 1.363 . S
C346 C351 1.370 . S
C347 H320 0.929 . S
C347 C346 1.363 . S
C347 C348 1.385 . S
C348 H322 0.930 . S
C348 C347 1.385 . S
C348 C349 1.357 . S
C349 C348 1.357 . S
C349 C350 1.406 . S
C350 H324 0.929 . S
C350 C349 1.406 . S
C350 C351 1.391 . S
C351 H323 0.931 . S
C351 C346 1.370 . S
C351 C350 1.391 . S
C352 N321 1.435 . S
C352 C353 1.358 . S
C352 C357 1.371 . S
C353 H325 0.930 . S
C353 C352 1.358 . S
C353 C354 1.405 . S
C354 H326 0.932 . S
C354 C353 1.405 . S
C354 C355 1.383 . S
C355 C354 1.383 . S
C355 C356 1.393 . S
C356 H328 0.931 . S
C356 C355 1.393 . S
C356 C357 1.382 . S
C357 H327 0.929 . S
C357 C352 1.371 . S
C357 C356 1.382 . S
C358 N321 1.423 . S
C358 C359 1.362 1_455 S
C358 C363 1.388 . S
C359 H329 0.929 . S
C359 C358 1.362 1_655 S
C359 C360 1.376 1_655 S
C360 H331 0.931 1_455 S
C360 C359 1.376 1_455 S
C360 C361 1.396 . S
C361 C360 1.396 . S
C361 C362 1.348 . S
C361 C379 1.472 . S
C362 H332 0.929 . S
C362 C361 1.348 . S
C362 C363 1.443 . S
C363 H330 0.932 . S
C363 C358 1.388 . S
C363 C362 1.443 . S
C364 N344 1.433 1_655 S
C364 C365 1.363 . S
C364 C369 1.370 . S
C365 H333 0.929 . S
C365 C364 1.363 . S
C365 C366 1.385 . S
C366 H334 0.930 . S
C366 C365 1.385 . S
C366 C367 1.357 . S
C367 C366 1.357 . S
C367 C368 1.406 . S
C368 H335 0.929 . S
C368 C367 1.406 . S
C368 C369 1.391 . S
C369 H336 0.931 . S
C369 C364 1.370 . S
C369 C368 1.391 . S
C370 N344 1.435 . S
C370 C371 1.358 . S
C370 C375 1.371 . S
C371 H337 0.930 . S
C371 C370 1.358 . S
C371 C372 1.405 . S
C372 H338 0.932 . S
C372 C371 1.405 . S
C372 C373 1.383 . S
C373 C372 1.383 . S
C373 C374 1.393 . S
C374 H339 0.931 . S
C374 C373 1.393 . S
C374 C375 1.382 . S
C375 H340 0.929 . S
C375 C370 1.371 . S
C375 C374 1.382 . S
C376 N344 1.423 . S
C376 C377 1.362 1_455 S
C376 C381 1.388 . S
C377 H341 0.929 . S
C377 C376 1.362 1_655 S
C377 C378 1.376 1_655 S
C378 H342 0.931 1_455 S
C378 C377 1.376 1_455 S
C378 C379 1.396 . S
C379 C361 1.472 . S
C379 C378 1.396 . S
C379 C380 1.348 . S
C380 H343 0.929 . S
C380 C379 1.348 . S
C380 C381 1.443 . S
C381 H345 0.932 . S
C381 C376 1.388 . S
C381 C380 1.443 . S
H382 C409 0.929 . S
N383 C408 1.433 1_455 S
N383 C414 1.435 . S
N383 C420 1.423 . S
H384 C410 0.930 . S
H385 C413 0.931 . S
H386 C412 0.929 . S
H387 C415 0.930 . S
H388 C416 0.932 . S
H389 C419 0.929 . S
H390 C418 0.931 . S
H391 C421 0.928 . S
H392 C425 0.932 . S
H393 C422 0.931 1_655 S
H394 C424 0.929 . S
H395 C427 0.929 . S
H396 C428 0.930 . S
H397 C430 0.929 . S
H398 C431 0.931 . S
H399 C433 0.930 . S
H400 C434 0.932 . S
H401 C436 0.931 . S
H402 C437 0.929 . S
H403 C439 0.929 1_655 S
H404 C440 0.931 1_655 S
H405 C442 0.929 . S
N406 C426 1.433 1_455 S
N406 C432 1.435 . S
N406 C438 1.423 . S
H407 C443 0.932 . S
C408 N383 1.433 1_655 S
C408 C409 1.363 . S
C408 C413 1.370 . S
C409 H382 0.929 . S
C409 C408 1.363 . S
C409 C410 1.385 . S
C410 H384 0.930 . S
C410 C409 1.385 . S
C410 C411 1.357 . S
C411 C410 1.357 . S
C411 C412 1.406 . S
C412 H386 0.929 . S
C412 C411 1.406 . S
C412 C413 1.391 . S
C413 H385 0.931 . S
C413 C408 1.370 . S
C413 C412 1.391 . S
C414 N383 1.435 . S
C414 C415 1.358 . S
C414 C419 1.371 . S
C415 H387 0.930 . S
C415 C414 1.358 . S
C415 C416 1.405 . S
C416 H388 0.932 . S
C416 C415 1.405 . S
C416 C417 1.383 . S
C417 C416 1.383 . S
C417 C418 1.393 . S
C418 H390 0.931 . S
C418 C417 1.393 . S
C418 C419 1.382 . S
C419 H389 0.929 . S
C419 C414 1.371 . S
C419 C418 1.382 . S
C420 N383 1.423 . S
C420 C421 1.363 1_455 S
C420 C425 1.388 . S
C421 H391 0.928 . S
C421 C420 1.363 1_655 S
C421 C422 1.377 1_655 S
C422 H393 0.931 1_455 S
C422 C421 1.377 1_455 S
C422 C423 1.396 . S
C423 C422 1.396 . S
C423 C424 1.348 . S
C423 C441 1.472 . S
C424 H394 0.929 . S
C424 C423 1.348 . S
C424 C425 1.443 . S
C425 H392 0.932 . S
C425 C420 1.388 . S
C425 C424 1.443 . S
C426 N406 1.433 1_655 S
C426 C427 1.363 . S
C426 C431 1.370 . S
C427 H395 0.929 . S
C427 C426 1.363 . S
C427 C428 1.385 . S
C428 H396 0.930 . S
C428 C427 1.385 . S
C428 C429 1.357 . S
C429 C428 1.357 . S
C429 C430 1.406 . S
C430 H397 0.929 . S
C430 C429 1.406 . S
C430 C431 1.391 . S
C431 H398 0.931 . S
C431 C426 1.370 . S
C431 C430 1.391 . S
C432 N406 1.435 . S
C432 C433 1.358 . S
C432 C437 1.371 . S
C433 H399 0.930 . S
C433 C432 1.358 . S
C433 C434 1.405 . S
C434 H400 0.932 . S
C434 C433 1.405 . S
C434 C435 1.383 . S
C435 C434 1.383 . S
C435 C436 1.393 . S
C436 H401 0.931 . S
C436 C435 1.393 . S
C436 C437 1.382 . S
C437 H402 0.929 . S
C437 C432 1.371 . S
C437 C436 1.382 . S
C438 N406 1.423 . S
C438 C439 1.362 . S
C438 C443 1.388 . S
C439 H403 0.929 1_455 S
C439 C438 1.362 . S
C439 C440 1.376 . S
C440 H404 0.931 1_455 S
C440 C439 1.376 . S
C440 C441 1.396 . S
C441 C423 1.472 . S
C441 C440 1.396 . S
C441 C442 1.348 . S
C442 H405 0.929 . S
C442 C441 1.348 . S
C442 C443 1.443 . S
C443 H407 0.932 . S
C443 C438 1.388 . S
C443 C442 1.443 . S
H444 C471 0.929 . S
N445 C470 1.433 . S
N445 C476 1.435 . S
N445 C482 1.423 . S
H446 C472 0.930 . S
H447 C475 0.931 . S
H448 C474 0.929 . S
H449 C477 0.930 . S
H450 C478 0.932 . S
H451 C481 0.929 . S
H452 C480 0.931 . S
H453 C483 0.929 . S
H454 C487 0.932 . S
H455 C484 0.931 . S
H456 C486 0.929 . S
H457 C489 0.929 . S
H458 C490 0.930 . S
H459 C492 0.929 . S
H460 C493 0.931 . S
H461 C495 0.930 . S
H462 C496 0.932 . S
H463 C498 0.931 . S
H464 C499 0.929 . S
H465 C501 0.929 . S
H466 C502 0.931 . S
H467 C504 0.929 . S
N468 C488 1.433 . S
N468 C494 1.435 . S
N468 C500 1.423 . S
H469 C505 0.932 . S
C470 N445 1.433 . S
C470 C471 1.363 . S
C470 C475 1.370 . S
C471 H444 0.929 . S
C471 C470 1.363 . S
C471 C472 1.385 . S
C472 H446 0.930 . S
C472 C471 1.385 . S
C472 C473 1.357 . S
C473 C472 1.357 . S
C473 C474 1.406 . S
C474 H448 0.929 . S
C474 C473 1.406 . S
C474 C475 1.391 . S
C475 H447 0.931 . S
C475 C470 1.370 . S
C475 C474 1.391 . S
C476 N445 1.435 . S
C476 C477 1.358 . S
C476 C481 1.371 . S
C477 H449 0.930 . S
C477 C476 1.358 . S
C477 C478 1.405 . S
C478 H450 0.932 . S
C478 C477 1.405 . S
C478 C479 1.383 . S
C479 C478 1.383 . S
C479 C480 1.393 . S
C480 H452 0.931 . S
C480 C479 1.393 . S
C480 C481 1.382 . S
C481 H451 0.929 . S
C481 C476 1.371 . S
C481 C480 1.382 . S
C482 N445 1.423 . S
C482 C483 1.362 . S
C482 C487 1.388 . S
C483 H453 0.929 . S
C483 C482 1.362 . S
C483 C484 1.376 . S
C484 H455 0.931 . S
C484 C483 1.376 . S
C484 C485 1.396 . S
C485 C484 1.396 . S
C485 C486 1.348 . S
C485 C503 1.472 1_545 S
C486 H456 0.929 . S
C486 C485 1.348 . S
C486 C487 1.443 . S
C487 H454 0.932 . S
C487 C482 1.388 . S
C487 C486 1.443 . S
C488 N468 1.433 . S
C488 C489 1.363 . S
C488 C493 1.370 . S
C489 H457 0.929 . S
C489 C488 1.363 . S
C489 C490 1.385 . S
C490 H458 0.930 . S
C490 C489 1.385 . S
C490 C491 1.357 . S
C491 C490 1.357 . S
C491 C492 1.406 . S
C492 H459 0.929 . S
C492 C491 1.406 . S
C492 C493 1.391 . S
C493 H460 0.931 . S
C493 C488 1.370 . S
C493 C492 1.391 . S
C494 N468 1.435 . S
C494 C495 1.358 . S
C494 C499 1.371 . S
C495 H461 0.930 . S
C495 C494 1.358 . S
C495 C496 1.405 . S
C496 H462 0.932 . S
C496 C495 1.405 . S
C496 C497 1.383 . S
C497 C496 1.383 . S
C497 C498 1.393 . S
C498 H463 0.931 . S
C498 C497 1.393 . S
C498 C499 1.382 . S
C499 H464 0.929 . S
C499 C494 1.371 . S
C499 C498 1.382 . S
C500 N468 1.423 . S
C500 C501 1.362 . S
C500 C505 1.388 . S
C501 H465 0.929 . S
C501 C500 1.362 . S
C501 C502 1.376 . S
C502 H466 0.931 . S
C502 C501 1.376 . S
C502 C503 1.396 . S
C503 C485 1.472 1_565 S
C503 C502 1.396 . S
C503 C504 1.348 . S
C504 H467 0.929 . S
C504 C503 1.348 . S
C504 C505 1.443 . S
C505 H469 0.932 . S
C505 C500 1.388 . S
C505 C504 1.443 . S
H506 C533 0.929 . S
N507 C532 1.433 . S
N507 C538 1.435 . S
N507 C544 1.423 . S
H508 C534 0.930 . S
H509 C537 0.931 . S
H510 C536 0.929 . S
H511 C539 0.930 . S
H512 C540 0.932 . S
H513 C543 0.929 . S
H514 C542 0.931 . S
H515 C545 0.929 . S
H516 C549 0.932 . S
H517 C546 0.931 . S
H518 C548 0.929 . S
H519 C551 0.929 . S
H520 C552 0.930 . S
H521 C554 0.929 . S
H522 C555 0.931 . S
H523 C557 0.930 . S
H524 C558 0.932 . S
H525 C560 0.931 . S
H526 C561 0.929 . S
H527 C563 0.929 . S
H528 C564 0.931 . S
H529 C566 0.929 . S
N530 C550 1.433 . S
N530 C556 1.435 . S
N530 C562 1.423 . S
H531 C567 0.932 . S
C532 N507 1.433 . S
C532 C533 1.363 . S
C532 C537 1.370 . S
C533 H506 0.929 . S
C533 C532 1.363 . S
C533 C534 1.385 . S
C534 H508 0.930 . S
C534 C533 1.385 . S
C534 C535 1.357 . S
C535 C534 1.357 . S
C535 C536 1.406 . S
C536 H510 0.929 . S
C536 C535 1.406 . S
C536 C537 1.391 . S
C537 H509 0.931 . S
C537 C532 1.370 . S
C537 C536 1.391 . S
C538 N507 1.435 . S
C538 C539 1.358 . S
C538 C543 1.371 . S
C539 H511 0.930 . S
C539 C538 1.358 . S
C539 C540 1.405 . S
C540 H512 0.932 . S
C540 C539 1.405 . S
C540 C541 1.383 . S
C541 C540 1.383 . S
C541 C542 1.393 . S
C542 H514 0.931 . S
C542 C541 1.393 . S
C542 C543 1.382 . S
C543 H513 0.929 . S
C543 C538 1.371 . S
C543 C542 1.382 . S
C544 N507 1.423 . S
C544 C545 1.362 . S
C544 C549 1.388 . S
C545 H515 0.929 . S
C545 C544 1.362 . S
C545 C546 1.376 . S
C546 H517 0.931 . S
C546 C545 1.376 . S
C546 C547 1.396 . S
C547 C546 1.396 . S
C547 C548 1.348 . S
C547 C565 1.472 1_554 S
C548 H518 0.929 . S
C548 C547 1.348 . S
C548 C549 1.443 . S
C549 H516 0.932 . S
C549 C544 1.388 . S
C549 C548 1.443 . S
C550 N530 1.433 . S
C550 C551 1.363 . S
C550 C555 1.370 . S
C551 H519 0.929 . S
C551 C550 1.363 . S
C551 C552 1.385 . S
C552 H520 0.930 . S
C552 C551 1.385 . S
C552 C553 1.357 . S
C553 C552 1.357 . S
C553 C554 1.406 . S
C554 H521 0.929 . S
C554 C553 1.406 . S
C554 C555 1.391 . S
C555 H522 0.931 . S
C555 C550 1.370 . S
C555 C554 1.391 . S
C556 N530 1.435 . S
C556 C557 1.358 . S
C556 C561 1.371 . S
C557 H523 0.930 . S
C557 C556 1.358 . S
C557 C558 1.405 . S
C558 H524 0.932 . S
C558 C557 1.405 . S
C558 C559 1.383 . S
C559 C558 1.383 . S
C559 C560 1.393 . S
C560 H525 0.931 . S
C560 C559 1.393 . S
C560 C561 1.382 . S
C561 H526 0.929 . S
C561 C556 1.371 . S
C561 C560 1.382 . S
C562 N530 1.423 . S
C562 C563 1.362 . S
C562 C567 1.388 . S
C563 H527 0.929 . S
C563 C562 1.362 . S
C563 C564 1.376 . S
C564 H528 0.931 . S
C564 C563 1.376 . S
C564 C565 1.396 . S
C565 C547 1.472 1_556 S
C565 C564 1.396 . S
C565 C566 1.348 . S
C566 H529 0.929 . S
C566 C565 1.348 . S
C566 C567 1.443 . S
C567 H531 0.932 . S
C567 C562 1.388 . S
C567 C566 1.443 . S
H568 C595 0.929 . S
N569 C594 1.433 . S
N569 C600 1.435 . S
N569 C606 1.423 . S
H570 C596 0.930 . S
H571 C599 0.931 . S
H572 C598 0.929 . S
H573 C601 0.930 . S
H574 C602 0.932 . S
H575 C605 0.929 . S
H576 C604 0.931 . S
H577 C607 0.929 . S
H578 C611 0.932 . S
H579 C608 0.931 . S
H580 C610 0.929 . S
H581 C613 0.929 . S
H582 C614 0.930 . S
H583 C616 0.929 . S
H584 C617 0.931 . S
H585 C619 0.930 . S
H586 C620 0.932 . S
H587 C622 0.931 . S
H588 C623 0.929 . S
H589 C625 0.929 . S
H590 C626 0.931 . S
H591 C628 0.929 . S
N592 C612 1.433 . S
N592 C618 1.435 . S
N592 C624 1.423 . S
H593 C629 0.932 . S
C594 N569 1.433 . S
C594 C595 1.363 . S
C594 C599 1.370 . S
C595 H568 0.929 . S
C595 C594 1.363 . S
C595 C596 1.385 . S
C596 H570 0.930 . S
C596 C595 1.385 . S
C596 C597 1.357 . S
C597 C596 1.357 . S
C597 C598 1.406 . S
C598 H572 0.929 . S
C598 C597 1.406 . S
C598 C599 1.391 . S
C599 H571 0.931 . S
C599 C594 1.370 . S
C599 C598 1.391 . S
C600 N569 1.435 . S
C600 C601 1.358 . S
C600 C605 1.371 . S
C601 H573 0.930 . S
C601 C600 1.358 . S
C601 C602 1.405 . S
C602 H574 0.932 . S
C602 C601 1.405 . S
C602 C603 1.383 . S
C603 C602 1.383 . S
C603 C604 1.393 . S
C604 H576 0.931 . S
C604 C603 1.393 . S
C604 C605 1.382 . S
C605 H575 0.929 . S
C605 C600 1.371 . S
C605 C604 1.382 . S
C606 N569 1.423 . S
C606 C607 1.362 . S
C606 C611 1.388 . S
C607 H577 0.929 . S
C607 C606 1.362 . S
C607 C608 1.376 . S
C608 H579 0.931 . S
C608 C607 1.376 . S
C608 C609 1.396 . S
C609 C608 1.396 . S
C609 C610 1.348 . S
C609 C627 1.472 1_545 S
C610 H580 0.929 . S
C610 C609 1.348 . S
C610 C611 1.443 . S
C611 H578 0.932 . S
C611 C606 1.388 . S
C611 C610 1.443 . S
C612 N592 1.433 . S
C612 C613 1.363 . S
C612 C617 1.370 . S
C613 H581 0.929 . S
C613 C612 1.363 . S
C613 C614 1.385 . S
C614 H582 0.930 . S
C614 C613 1.385 . S
C614 C615 1.357 . S
C615 C614 1.357 . S
C615 C616 1.406 . S
C616 H583 0.929 . S
C616 C615 1.406 . S
C616 C617 1.391 . S
C617 H584 0.931 . S
C617 C612 1.370 . S
C617 C616 1.391 . S
C618 N592 1.435 . S
C618 C619 1.358 . S
C618 C623 1.371 . S
C619 H585 0.930 . S
C619 C618 1.358 . S
C619 C620 1.405 . S
C620 H586 0.932 . S
C620 C619 1.405 . S
C620 C621 1.383 . S
C621 C620 1.383 . S
C621 C622 1.393 . S
C622 H587 0.931 . S
C622 C621 1.393 . S
C622 C623 1.382 . S
C623 H588 0.929 . S
C623 C618 1.371 . S
C623 C622 1.382 . S
C624 N592 1.423 . S
C624 C625 1.362 . S
C624 C629 1.388 . S
C625 H589 0.929 . S
C625 C624 1.362 . S
C625 C626 1.376 . S
C626 H590 0.931 . S
C626 C625 1.376 . S
C626 C627 1.396 . S
C627 C609 1.472 1_565 S
C627 C626 1.396 . S
C627 C628 1.348 . S
C628 H591 0.929 . S
C628 C627 1.348 . S
C628 C629 1.443 . S
C629 H593 0.932 . S
C629 C624 1.388 . S
C629 C628 1.443 . S
H630 C657 0.929 . S
N631 C656 1.433 . S
N631 C662 1.435 . S
N631 C668 1.423 . S
H632 C658 0.930 . S
H633 C661 0.931 . S
H634 C660 0.929 . S
H635 C663 0.930 . S
H636 C664 0.932 . S
H637 C667 0.929 . S
H638 C666 0.931 . S
H639 C669 0.929 . S
H640 C673 0.932 . S
H641 C670 0.931 . S
H642 C672 0.929 . S
H643 C675 0.929 . S
H644 C676 0.930 . S
H645 C678 0.929 . S
H646 C679 0.931 . S
H647 C681 0.930 . S
H648 C682 0.932 . S
H649 C684 0.931 . S
H650 C685 0.929 . S
H651 C687 0.929 . S
H652 C688 0.931 . S
H653 C690 0.929 . S
N654 C674 1.433 . S
N654 C680 1.435 . S
N654 C686 1.423 . S
H655 C691 0.932 . S
C656 N631 1.433 . S
C656 C657 1.363 . S
C656 C661 1.370 . S
C657 H630 0.929 . S
C657 C656 1.363 . S
C657 C658 1.385 . S
C658 H632 0.930 . S
C658 C657 1.385 . S
C658 C659 1.357 . S
C659 C658 1.357 . S
C659 C660 1.406 . S
C660 H634 0.929 . S
C660 C659 1.406 . S
C660 C661 1.391 . S
C661 H633 0.931 . S
C661 C656 1.370 . S
C661 C660 1.391 . S
C662 N631 1.435 . S
C662 C663 1.358 . S
C662 C667 1.371 . S
C663 H635 0.930 . S
C663 C662 1.358 . S
C663 C664 1.405 . S
C664 H636 0.932 . S
C664 C663 1.405 . S
C664 C665 1.383 . S
C665 C664 1.383 . S
C665 C666 1.393 . S
C666 H638 0.931 . S
C666 C665 1.393 . S
C666 C667 1.382 . S
C667 H637 0.929 . S
C667 C662 1.371 . S
C667 C666 1.382 . S
C668 N631 1.423 . S
C668 C669 1.362 . S
C668 C673 1.388 . S
C669 H639 0.929 . S
C669 C668 1.362 . S
C669 C670 1.376 . S
C670 H641 0.931 . S
C670 C669 1.376 . S
C670 C671 1.396 . S
C671 C670 1.396 . S
C671 C672 1.348 . S
C671 C689 1.472 1_554 S
C672 H642 0.929 . S
C672 C671 1.348 . S
C672 C673 1.443 . S
C673 H640 0.932 . S
C673 C668 1.388 . S
C673 C672 1.443 . S
C674 N654 1.433 . S
C674 C675 1.363 . S
C674 C679 1.370 . S
C675 H643 0.929 . S
C675 C674 1.363 . S
C675 C676 1.385 . S
C676 H644 0.930 . S
C676 C675 1.385 . S
C676 C677 1.357 . S
C677 C676 1.357 . S
C677 C678 1.406 . S
C678 H645 0.929 . S
C678 C677 1.406 . S
C678 C679 1.391 . S
C679 H646 0.931 . S
C679 C674 1.370 . S
C679 C678 1.391 . S
C680 N654 1.435 . S
C680 C681 1.358 . S
C680 C685 1.371 . S
C681 H647 0.930 . S
C681 C680 1.358 . S
C681 C682 1.405 . S
C682 H648 0.932 . S
C682 C681 1.405 . S
C682 C683 1.383 . S
C683 C682 1.383 . S
C683 C684 1.393 . S
C684 H649 0.931 . S
C684 C683 1.393 . S
C684 C685 1.382 . S
C685 H650 0.929 . S
C685 C680 1.371 . S
C685 C684 1.382 . S
C686 N654 1.423 . S
C686 C687 1.362 . S
C686 C691 1.388 . S
C687 H651 0.929 . S
C687 C686 1.362 . S
C687 C688 1.376 . S
C688 H652 0.931 . S
C688 C687 1.376 . S
C688 C689 1.396 . S
C689 C671 1.472 1_556 S
C689 C688 1.396 . S
C689 C690 1.348 . S
C690 H653 0.929 . S
C690 C689 1.348 . S
C690 C691 1.443 . S
C691 H655 0.932 . S
C691 C686 1.388 . S
C691 C690 1.443 . S
C692 C693 1.363 . S
C692 C698 1.379 . S
C692 N700 1.356 . S
C693 C692 1.363 . S
C693 C699 1.363 . S
C694 C695 1.363 . S
C694 C699 1.379 . S
C694 N701 1.356 . S
C695 C694 1.363 . S
C695 C698 1.363 . S
N696 C698 1.356 . S
N696 H708 0.984 . S
N696 H709 0.985 . S
N697 C699 1.356 . S
N697 H702 0.984 . S
N697 H703 0.985 . S
C698 C692 1.379 . S
C698 C695 1.363 . S
C698 N696 1.356 . S
C699 C693 1.363 . S
C699 C694 1.379 . S
C699 N697 1.356 . S
N700 C692 1.356 . S
N700 H706 0.984 . S
N700 H707 0.984 . S
N701 C694 1.356 . S
N701 H704 0.984 . S
N701 H705 0.985 . S
H702 N697 0.984 . S
H703 N697 0.985 . S
H704 N701 0.984 . S
H705 N701 0.985 . S
H706 N700 0.984 . S
H707 N700 0.984 . S
H708 N696 0.984 . S
H709 N696 0.985 . S
C710 C711 1.363 . S
C710 C716 1.379 . S
C710 N718 1.356 . S
C711 C710 1.363 . S
C711 C717 1.363 . S
C712 C713 1.363 . S
C712 C717 1.379 . S
C712 N719 1.356 . S
C713 C712 1.363 . S
C713 C716 1.363 . S
N714 C716 1.356 . S
N714 H726 0.984 . S
N714 H727 0.985 . S
N715 C717 1.356 . S
N715 H720 0.984 . S
N715 H721 0.985 . S
C716 C710 1.379 . S
C716 C713 1.363 . S
C716 N714 1.356 . S
C717 C711 1.363 . S
C717 C712 1.379 . S
C717 N715 1.356 . S
N718 C710 1.356 . S
N718 H724 0.984 . S
N718 H725 0.984 . S
N719 C712 1.356 . S
N719 H722 0.984 . S
N719 H723 0.985 . S
H720 N715 0.984 . S
H721 N715 0.985 . S
H722 N719 0.984 . S
H723 N719 0.985 . S
H724 N718 0.984 . S
H725 N718 0.984 . S
H726 N714 0.984 . S
H727 N714 0.985 . S
C728 C729 1.363 . S
C728 C734 1.379 . S
C728 N736 1.356 . S
C729 C728 1.363 . S
C729 C735 1.363 . S
C730 C731 1.363 . S
C730 C735 1.379 . S
C730 N737 1.356 . S
C731 C730 1.363 . S
C731 C734 1.363 . S
N732 C734 1.356 . S
N732 H744 0.984 . S
N732 H745 0.985 . S
N733 C735 1.356 . S
N733 H738 0.984 . S
N733 H739 0.985 . S
C734 C728 1.379 . S
C734 C731 1.363 . S
C734 N732 1.356 . S
C735 C729 1.363 . S
C735 C730 1.379 . S
C735 N733 1.356 . S
N736 C728 1.356 . S
N736 H742 0.984 . S
N736 H743 0.984 . S
N737 C730 1.356 . S
N737 H740 0.984 . S
N737 H741 0.985 . S
H738 N733 0.984 . S
H739 N733 0.985 . S
H740 N737 0.984 . S
H741 N737 0.985 . S
H742 N736 0.984 . S
H743 N736 0.984 . S
H744 N732 0.984 . S
H745 N732 0.985 . S
C746 C747 1.363 . S
C746 C752 1.379 . S
C746 N754 1.356 . S
C747 C746 1.363 . S
C747 C753 1.363 . S
C748 C749 1.363 . S
C748 C753 1.379 . S
C748 N755 1.356 . S
C749 C748 1.363 . S
C749 C752 1.363 . S
N750 C752 1.356 . S
N750 H762 0.984 . S
N750 H763 0.985 . S
N751 C753 1.356 . S
N751 H756 0.984 . S
N751 H757 0.985 . S
C752 C746 1.379 . S
C752 C749 1.363 . S
C752 N750 1.356 . S
C753 C747 1.363 . S
C753 C748 1.379 . S
C753 N751 1.356 . S
N754 C746 1.356 . S
N754 H760 0.984 . S
N754 H761 0.984 . S
N755 C748 1.356 . S
N755 H758 0.984 . S
N755 H759 0.985 . S
H756 N751 0.984 . S
H757 N751 0.985 . S
H758 N755 0.984 . S
H759 N755 0.985 . S
H760 N754 0.984 . S
H761 N754 0.984 . S
H762 N750 0.984 . S
H763 N750 0.985 . S
C764 C765 1.363 . S
C764 C770 1.379 . S
C764 N772 1.356 . S
C765 C764 1.363 . S
C765 C771 1.363 . S
C766 C767 1.363 . S
C766 C771 1.379 . S
C766 N773 1.356 . S
C767 C766 1.363 . S
C767 C770 1.363 . S
N768 C770 1.356 . S
N768 H780 0.984 . S
N768 H781 0.985 . S
N769 C771 1.356 . S
N769 H774 0.984 . S
N769 H775 0.985 . S
C770 C764 1.379 . S
C770 C767 1.363 . S
C770 N768 1.356 . S
C771 C765 1.363 . S
C771 C766 1.379 . S
C771 N769 1.356 . S
N772 C764 1.356 . S
N772 H778 0.984 . S
N772 H779 0.984 . S
N773 C766 1.356 . S
N773 H776 0.984 . S
N773 H777 0.985 . S
H774 N769 0.984 . S
H775 N769 0.985 . S
H776 N773 0.984 . S
H777 N773 0.985 . S
H778 N772 0.984 . S
H779 N772 0.984 . S
H780 N768 0.984 . S
H781 N768 0.985 . S
C782 C783 1.363 . S
C782 C788 1.379 . S
C782 N790 1.356 . S
C783 C782 1.363 . S
C783 C789 1.363 . S
C784 C785 1.363 . S
C784 C789 1.379 . S
C784 N791 1.356 . S
C785 C784 1.363 . S
C785 C788 1.363 . S
N786 C788 1.356 . S
N786 H798 0.984 . S
N786 H799 0.985 . S
N787 C789 1.356 . S
N787 H792 0.984 . S
N787 H793 0.985 . S
C788 C782 1.379 . S
C788 C785 1.363 . S
C788 N786 1.356 . S
C789 C783 1.363 . S
C789 C784 1.379 . S
C789 N787 1.356 . S
N790 C782 1.356 . S
N790 H796 0.984 . S
N790 H797 0.984 . S
N791 C784 1.356 . S
N791 H794 0.984 . S
N791 H795 0.985 . S
H792 N787 0.984 . S
H793 N787 0.985 . S
H794 N791 0.984 . S
H795 N791 0.985 . S
H796 N790 0.984 . S
H797 N790 0.984 . S
H798 N786 0.984 . S
H799 N786 0.985 . S
C800 C801 1.363 . S
C800 C806 1.379 . S
C800 N808 1.356 . S
C801 C800 1.363 . S
C801 C807 1.363 . S
C802 C803 1.363 . S
C802 C807 1.379 . S
C802 N809 1.356 . S
C803 C802 1.363 . S
C803 C806 1.363 . S
N804 C806 1.356 . S
N804 H816 0.984 . S
N804 H817 0.985 . S
N805 C807 1.356 . S
N805 H810 0.984 . S
N805 H811 0.985 . S
C806 C800 1.379 . S
C806 C803 1.363 . S
C806 N804 1.356 . S
C807 C801 1.363 . S
C807 C802 1.379 . S
C807 N805 1.356 . S
N808 C800 1.356 . S
N808 H814 0.984 . S
N808 H815 0.984 . S
N809 C802 1.356 . S
N809 H812 0.984 . S
N809 H813 0.985 . S
H810 N805 0.984 . S
H811 N805 0.985 . S
H812 N809 0.984 . S
H813 N809 0.985 . S
H814 N808 0.984 . S
H815 N808 0.984 . S
H816 N804 0.984 . S
H817 N804 0.985 . S
C818 C819 1.363 . S
C818 C824 1.379 . S
C818 N826 1.356 . S
C819 C818 1.363 . S
C819 C825 1.363 . S
C820 C821 1.363 . S
C820 C825 1.379 . S
C820 N827 1.356 . S
C821 C820 1.363 . S
C821 C824 1.363 . S
N822 C824 1.356 . S
N822 H834 0.984 . S
N822 H835 0.985 . S
N823 C825 1.356 . S
N823 H828 0.984 . S
N823 H829 0.985 . S
C824 C818 1.379 . S
C824 C821 1.363 . S
C824 N822 1.356 . S
C825 C819 1.363 . S
C825 C820 1.379 . S
C825 N823 1.356 . S
N826 C818 1.356 . S
N826 H832 0.984 . S
N826 H833 0.984 . S
N827 C820 1.356 . S
N827 H830 0.984 . S
N827 H831 0.985 . S
H828 N823 0.984 . S
H829 N823 0.985 . S
H830 N827 0.984 . S
H831 N827 0.985 . S
H832 N826 0.984 . S
H833 N826 0.984 . S
H834 N822 0.984 . S
H835 N822 0.985 . S
C836 C837 1.363 . S
C836 C842 1.379 . S
C836 N844 1.356 . S
C837 C836 1.363 . S
C837 C843 1.363 . S
C838 C839 1.363 . S
C838 C843 1.379 . S
C838 N845 1.356 . S
C839 C838 1.363 . S
C839 C842 1.363 . S
N840 C842 1.356 . S
N840 H852 0.984 . S
N840 H853 0.985 . S
N841 C843 1.356 . S
N841 H846 0.984 . S
N841 H847 0.985 . S
C842 C836 1.379 . S
C842 C839 1.363 . S
C842 N840 1.356 . S
C843 C837 1.363 . S
C843 C838 1.379 . S
C843 N841 1.356 . S
N844 C836 1.356 . S
N844 H850 0.984 . S
N844 H851 0.984 . S
N845 C838 1.356 . S
N845 H848 0.984 . S
N845 H849 0.985 . S
H846 N841 0.984 . S
H847 N841 0.985 . S
H848 N845 0.984 . S
H849 N845 0.985 . S
H850 N844 0.984 . S
H851 N844 0.984 . S
H852 N840 0.984 . S
H853 N840 0.985 . S
C854 C855 1.363 . S
C854 C860 1.379 . S
C854 N862 1.356 . S
C855 C854 1.363 . S
C855 C861 1.363 . S
C856 C857 1.363 . S
C856 C861 1.379 . S
C856 N863 1.356 . S
C857 C856 1.363 . S
C857 C860 1.363 . S
N858 C860 1.356 . S
N858 H870 0.984 . S
N858 H871 0.985 . S
N859 C861 1.356 . S
N859 H864 0.984 . S
N859 H865 0.985 . S
C860 C854 1.379 . S
C860 C857 1.363 . S
C860 N858 1.356 . S
C861 C855 1.363 . S
C861 C856 1.379 . S
C861 N859 1.356 . S
N862 C854 1.356 . S
N862 H868 0.984 . S
N862 H869 0.984 . S
N863 C856 1.356 . S
N863 H866 0.984 . S
N863 H867 0.985 . S
H864 N859 0.984 . S
H865 N859 0.985 . S
H866 N863 0.984 . S
H867 N863 0.985 . S
H868 N862 0.984 . S
H869 N862 0.984 . S
H870 N858 0.984 . S
H871 N858 0.985 . S
C872 C873 1.363 . S
C872 C878 1.379 . S
C872 N880 1.356 . S
C873 C872 1.363 . S
C873 C879 1.363 . S
C874 C875 1.363 . S
C874 C879 1.379 . S
C874 N881 1.356 . S
C875 C874 1.363 . S
C875 C878 1.363 . S
N876 C878 1.356 . S
N876 H888 0.984 . S
N876 H889 0.985 . S
N877 C879 1.356 . S
N877 H882 0.984 . S
N877 H883 0.985 . S
C878 C872 1.379 . S
C878 C875 1.363 . S
C878 N876 1.356 . S
C879 C873 1.363 . S
C879 C874 1.379 . S
C879 N877 1.356 . S
N880 C872 1.356 . S
N880 H886 0.984 . S
N880 H887 0.984 . S
N881 C874 1.356 . S
N881 H884 0.984 . S
N881 H885 0.985 . S
H882 N877 0.984 . S
H883 N877 0.985 . S
H884 N881 0.984 . S
H885 N881 0.985 . S
H886 N880 0.984 . S
H887 N880 0.984 . S
H888 N876 0.984 . S
H889 N876 0.985 . S
C890 C891 1.363 . S
C890 C896 1.379 . S
C890 N898 1.356 . S
C891 C890 1.363 . S
C891 C897 1.363 . S
C892 C893 1.363 . S
C892 C897 1.379 . S
C892 N899 1.356 . S
C893 C892 1.363 . S
C893 C896 1.363 . S
N894 C896 1.356 . S
N894 H906 0.984 . S
N894 H907 0.985 . S
N895 C897 1.356 . S
N895 H900 0.984 . S
N895 H901 0.985 . S
C896 C890 1.379 . S
C896 C893 1.363 . S
C896 N894 1.356 . S
C897 C891 1.363 . S
C897 C892 1.379 . S
C897 N895 1.356 . S
N898 C890 1.356 . S
N898 H904 0.984 . S
N898 H905 0.984 . S
N899 C892 1.356 . S
N899 H902 0.984 . S
N899 H903 0.985 . S
H900 N895 0.984 . S
H901 N895 0.985 . S
H902 N899 0.984 . S
H903 N899 0.985 . S
H904 N898 0.984 . S
H905 N898 0.984 . S
H906 N894 0.984 . S
H907 N894 0.985 . S
C908 C909 1.363 . S
C908 C914 1.379 . S
C908 N916 1.356 . S
C909 C908 1.363 . S
C909 C915 1.363 . S
C910 C911 1.363 . S
C910 C915 1.379 . S
C910 N917 1.356 . S
C911 C910 1.363 . S
C911 C914 1.363 . S
N912 C914 1.356 . S
N912 H924 0.984 . S
N912 H925 0.985 . S
N913 C915 1.356 . S
N913 H918 0.984 . S
N913 H919 0.985 . S
C914 C908 1.379 . S
C914 C911 1.363 . S
C914 N912 1.356 . S
C915 C909 1.363 . S
C915 C910 1.379 . S
C915 N913 1.356 . S
N916 C908 1.356 . S
N916 H922 0.984 . S
N916 H923 0.984 . S
N917 C910 1.356 . S
N917 H920 0.984 . S
N917 H921 0.985 . S
H918 N913 0.984 . S
H919 N913 0.985 . S
H920 N917 0.984 . S
H921 N917 0.985 . S
H922 N916 0.984 . S
H923 N916 0.984 . S
H924 N912 0.984 . S
H925 N912 0.985 . S
C926 C927 1.363 . S
C926 C932 1.379 . S
C926 N934 1.356 . S
C927 C926 1.363 . S
C927 C933 1.363 . S
C928 C929 1.363 . S
C928 C933 1.379 . S
C928 N935 1.356 . S
C929 C928 1.363 . S
C929 C932 1.363 . S
N930 C932 1.356 . S
N930 H942 0.984 . S
N930 H943 0.985 . S
N931 C933 1.356 . S
N931 H936 0.984 . S
N931 H937 0.985 . S
C932 C926 1.379 . S
C932 C929 1.363 . S
C932 N930 1.356 . S
C933 C927 1.363 . S
C933 C928 1.379 . S
C933 N931 1.356 . S
N934 C926 1.356 . S
N934 H940 0.984 . S
N934 H941 0.984 . S
N935 C928 1.356 . S
N935 H938 0.984 . S
N935 H939 0.985 . S
H936 N931 0.984 . S
H937 N931 0.985 . S
H938 N935 0.984 . S
H939 N935 0.985 . S
H940 N934 0.984 . S
H941 N934 0.984 . S
H942 N930 0.984 . S
H943 N930 0.985 . S
C944 C945 1.363 . S
C944 C950 1.379 . S
C944 N952 1.356 . S
C945 C944 1.363 . S
C945 C951 1.363 . S
C946 C947 1.363 . S
C946 C951 1.379 . S
C946 N953 1.356 . S
C947 C946 1.363 . S
C947 C950 1.363 . S
N948 C950 1.356 . S
N948 H960 0.984 . S
N948 H961 0.985 . S
N949 C951 1.356 . S
N949 H954 0.984 . S
N949 H955 0.985 . S
C950 C944 1.379 . S
C950 C947 1.363 . S
C950 N948 1.356 . S
C951 C945 1.363 . S
C951 C946 1.379 . S
C951 N949 1.356 . S
N952 C944 1.356 . S
N952 H958 0.984 . S
N952 H959 0.984 . S
N953 C946 1.356 . S
N953 H956 0.984 . S
N953 H957 0.985 . S
H954 N949 0.984 . S
H955 N949 0.985 . S
H956 N953 0.984 . S
H957 N953 0.985 . S
H958 N952 0.984 . S
H959 N952 0.984 . S
H960 N948 0.984 . S
H961 N948 0.985 . S
C962 C963 1.363 . S
C962 C968 1.379 . S
C962 N970 1.356 . S
C963 C962 1.363 . S
C963 C969 1.363 . S
C964 C965 1.363 . S
C964 C969 1.379 . S
C964 N971 1.356 . S
C965 C964 1.363 . S
C965 C968 1.363 . S
N966 C968 1.356 . S
N966 H978 0.984 . S
N966 H979 0.985 . S
N967 C969 1.356 . S
N967 H972 0.984 . S
N967 H973 0.985 . S
C968 C962 1.379 . S
C968 C965 1.363 . S
C968 N966 1.356 . S
C969 C963 1.363 . S
C969 C964 1.379 . S
C969 N967 1.356 . S
N970 C962 1.356 . S
N970 H976 0.984 . S
N970 H977 0.984 . S
N971 C964 1.356 . S
N971 H974 0.984 . S
N971 H975 0.985 . S
H972 N967 0.984 . S
H973 N967 0.985 . S
H974 N971 0.984 . S
H975 N971 0.985 . S
H976 N970 0.984 . S
H977 N970 0.984 . S
H978 N966 0.984 . S
H979 N966 0.985 . S
C980 C981 1.363 . S
C980 C986 1.379 . S
C980 N988 1.356 . S
C981 C980 1.363 . S
C981 C987 1.363 . S
C982 C983 1.363 . S
C982 C987 1.379 . S
C982 N989 1.356 . S
C983 C982 1.363 . S
C983 C986 1.363 . S
N984 C986 1.356 . S
N984 H996 0.984 . S
N984 H997 0.985 . S
N985 C987 1.356 . S
N985 H990 0.984 . S
N985 H991 0.985 . S
C986 C980 1.379 . S
C986 C983 1.363 . S
C986 N984 1.356 . S
C987 C981 1.363 . S
C987 C982 1.379 . S
C987 N985 1.356 . S
N988 C980 1.356 . S
N988 H994 0.984 . S
N988 H995 0.984 . S
N989 C982 1.356 . S
N989 H992 0.984 . S
N989 H993 0.985 . S
H990 N985 0.984 . S
H991 N985 0.985 . S
H992 N989 0.984 . S
H993 N989 0.985 . S
H994 N988 0.984 . S
H995 N988 0.984 . S
H996 N984 0.984 . S
H997 N984 0.985 . S
C998 C999 1.363 . S
C998 C1004 1.379 . S
C998 N1006 1.356 . S
C999 C998 1.363 . S
C999 C1005 1.363 . S
C1000 C1001 1.363 . S
C1000 C1005 1.379 . S
C1000 N1007 1.356 . S
C1001 C1000 1.363 . S
C1001 C1004 1.363 . S
N1002 C1004 1.356 . S
N1002 H1014 0.984 . S
N1002 H1015 0.985 . S
N1003 C1005 1.356 . S
N1003 H1008 0.984 . S
N1003 H1009 0.985 . S
C1004 C998 1.379 . S
C1004 C1001 1.363 . S
C1004 N1002 1.356 . S
C1005 C999 1.363 . S
C1005 C1000 1.379 . S
C1005 N1003 1.356 . S
N1006 C998 1.356 . S
N1006 H1012 0.984 . S
N1006 H1013 0.984 . S
N1007 C1000 1.356 . S
N1007 H1010 0.984 . S
N1007 H1011 0.985 . S
H1008 N1003 0.984 . S
H1009 N1003 0.985 . S
H1010 N1007 0.984 . S
H1011 N1007 0.985 . S
H1012 N1006 0.984 . S
H1013 N1006 0.984 . S
H1014 N1002 0.984 . S
H1015 N1002 0.985 . S
C1016 C1017 1.363 . S
C1016 C1022 1.379 . S
C1016 N1024 1.356 . S
C1017 C1016 1.363 . S
C1017 C1023 1.363 . S
C1018 C1019 1.363 . S
C1018 C1023 1.379 . S
C1018 N1025 1.356 . S
C1019 C1018 1.363 . S
C1019 C1022 1.363 . S
N1020 C1022 1.356 . S
N1020 H1032 0.984 . S
N1020 H1033 0.985 . S
N1021 C1023 1.356 . S
N1021 H1026 0.984 . S
N1021 H1027 0.985 . S
C1022 C1016 1.379 . S
C1022 C1019 1.363 . S
C1022 N1020 1.356 . S
C1023 C1017 1.363 . S
C1023 C1018 1.379 . S
C1023 N1021 1.356 . S
N1024 C1016 1.356 . S
N1024 H1030 0.984 . S
N1024 H1031 0.984 . S
N1025 C1018 1.356 . S
N1025 H1028 0.984 . S
N1025 H1029 0.985 . S
H1026 N1021 0.984 . S
H1027 N1021 0.985 . S
H1028 N1025 0.984 . S
H1029 N1025 0.985 . S
H1030 N1024 0.984 . S
H1031 N1024 0.984 . S
H1032 N1020 0.984 . S
H1033 N1020 0.985 . S
C1034 C1035 1.363 . S
C1034 C1040 1.379 . S
C1034 N1042 1.356 . S
C1035 C1034 1.363 . S
C1035 C1041 1.363 . S
C1036 C1037 1.363 . S
C1036 C1041 1.379 . S
C1036 N1043 1.356 . S
C1037 C1036 1.363 . S
C1037 C1040 1.363 . S
N1038 C1040 1.356 . S
N1038 H1050 0.984 . S
N1038 H1051 0.985 . S
N1039 C1041 1.356 . S
N1039 H1044 0.984 . S
N1039 H1045 0.985 . S
C1040 C1034 1.379 . S
C1040 C1037 1.363 . S
C1040 N1038 1.356 . S
C1041 C1035 1.363 . S
C1041 C1036 1.379 . S
C1041 N1039 1.356 . S
N1042 C1034 1.356 . S
N1042 H1048 0.984 . S
N1042 H1049 0.984 . S
N1043 C1036 1.356 . S
N1043 H1046 0.984 . S
N1043 H1047 0.985 . S
H1044 N1039 0.984 . S
H1045 N1039 0.985 . S
H1046 N1043 0.984 . S
H1047 N1043 0.985 . S
H1048 N1042 0.984 . S
H1049 N1042 0.984 . S
H1050 N1038 0.984 . S
H1051 N1038 0.985 . S
C1052 C1053 1.363 . S
C1052 C1058 1.379 . S
C1052 N1060 1.356 . S
C1053 C1052 1.363 . S
C1053 C1059 1.363 . S
C1054 C1055 1.363 . S
C1054 C1059 1.379 . S
C1054 N1061 1.356 . S
C1055 C1054 1.363 . S
C1055 C1058 1.363 . S
N1056 C1058 1.356 . S
N1056 H1068 0.984 . S
N1056 H1069 0.985 . S
N1057 C1059 1.356 . S
N1057 H1062 0.984 . S
N1057 H1063 0.985 . S
C1058 C1052 1.379 . S
C1058 C1055 1.363 . S
C1058 N1056 1.356 . S
C1059 C1053 1.363 . S
C1059 C1054 1.379 . S
C1059 N1057 1.356 . S
N1060 C1052 1.356 . S
N1060 H1066 0.984 . S
N1060 H1067 0.984 . S
N1061 C1054 1.356 . S
N1061 H1064 0.984 . S
N1061 H1065 0.985 . S
H1062 N1057 0.984 . S
H1063 N1057 0.985 . S
H1064 N1061 0.984 . S
H1065 N1061 0.985 . S
H1066 N1060 0.984 . S
H1067 N1060 0.984 . S
H1068 N1056 0.984 . S
H1069 N1056 0.985 . S
C1070 C1071 1.363 . S
C1070 C1076 1.379 . S
C1070 N1078 1.356 . S
C1071 C1070 1.363 . S
C1071 C1077 1.363 . S
C1072 C1073 1.363 . S
C1072 C1077 1.379 . S
C1072 N1079 1.356 . S
C1073 C1072 1.363 . S
C1073 C1076 1.363 . S
N1074 C1076 1.356 . S
N1074 H1086 0.984 . S
N1074 H1087 0.985 . S
N1075 C1077 1.356 . S
N1075 H1080 0.984 . S
N1075 H1081 0.985 . S
C1076 C1070 1.379 . S
C1076 C1073 1.363 . S
C1076 N1074 1.356 . S
C1077 C1071 1.363 . S
C1077 C1072 1.379 . S
C1077 N1075 1.356 . S
N1078 C1070 1.356 . S
N1078 H1084 0.984 . S
N1078 H1085 0.984 . S
N1079 C1072 1.356 . S
N1079 H1082 0.984 . S
N1079 H1083 0.985 . S
H1080 N1075 0.984 . S
H1081 N1075 0.985 . S
H1082 N1079 0.984 . S
H1083 N1079 0.985 . S
H1084 N1078 0.984 . S
H1085 N1078 0.984 . S
H1086 N1074 0.984 . S
H1087 N1074 0.985 . S
C1088 C1089 1.363 . S
C1088 C1094 1.379 . S
C1088 N1096 1.356 . S
C1089 C1088 1.363 . S
C1089 C1095 1.363 . S
C1090 C1091 1.363 . S
C1090 C1095 1.379 . S
C1090 N1097 1.356 . S
C1091 C1090 1.363 . S
C1091 C1094 1.363 . S
N1092 C1094 1.356 . S
N1092 H1104 0.984 . S
N1092 H1105 0.985 . S
N1093 C1095 1.356 . S
N1093 H1098 0.984 . S
N1093 H1099 0.985 . S
C1094 C1088 1.379 . S
C1094 C1091 1.363 . S
C1094 N1092 1.356 . S
C1095 C1089 1.363 . S
C1095 C1090 1.379 . S
C1095 N1093 1.356 . S
N1096 C1088 1.356 . S
N1096 H1102 0.984 . S
N1096 H1103 0.984 . S
N1097 C1090 1.356 . S
N1097 H1100 0.984 . S
N1097 H1101 0.985 . S
H1098 N1093 0.984 . S
H1099 N1093 0.985 . S
H1100 N1097 0.984 . S
H1101 N1097 0.985 . S
H1102 N1096 0.984 . S
H1103 N1096 0.984 . S
H1104 N1092 0.984 . S
H1105 N1092 0.985 . S
C1106 C1107 1.363 . S
C1106 C1112 1.379 . S
C1106 N1114 1.356 . S
C1107 C1106 1.363 . S
C1107 C1113 1.363 . S
C1108 C1109 1.363 . S
C1108 C1113 1.379 . S
C1108 N1115 1.356 . S
C1109 C1108 1.363 . S
C1109 C1112 1.363 . S
N1110 C1112 1.356 . S
N1110 H1122 0.984 . S
N1110 H1123 0.985 . S
N1111 C1113 1.356 . S
N1111 H1116 0.984 . S
N1111 H1117 0.985 . S
C1112 C1106 1.379 . S
C1112 C1109 1.363 . S
C1112 N1110 1.356 . S
C1113 C1107 1.363 . S
C1113 C1108 1.379 . S
C1113 N1111 1.356 . S
N1114 C1106 1.356 . S
N1114 H1120 0.984 . S
N1114 H1121 0.984 . S
N1115 C1108 1.356 . S
N1115 H1118 0.984 . S
N1115 H1119 0.985 . S
H1116 N1111 0.984 . S
H1117 N1111 0.985 . S
H1118 N1115 0.984 . S
H1119 N1115 0.985 . S
H1120 N1114 0.984 . S
H1121 N1114 0.984 . S
H1122 N1110 0.984 . S
H1123 N1110 0.985 . S
C695 C355 1.578 . S
C693 C15 1.567 . S
C713 C435 1.698 . S
C711 C55 1.753 . S
C731 C367 1.633 . S
C729 C101 1.727 . S
C749 C411 1.773 . S
C747 C141 1.970 . S
C767 C479 1.545 . S
C765 C2 1.505 . S
C785 C559 1.474 . S
C783 C61 1.494 . S
C801 C95 1.848 . S
C803 C621 1.772 . S
C821 C677 1.490 . S
C819 C135 1.623 . S
C839 C491 1.587 . S
C837 C42 1.659 . S
C855 C82 1.606 . S
C857 C535 1.478 . S
C875 C597 1.806 . S
C873 C122 2.064 . S
C893 C665 1.487 . S
C891 C21 1.494 . S
C909 C162 1.970 . S
C911 C429 1.766 . S
C929 C349 1.629 . S
C927 C221 1.718 . S
C945 C255 1.756 . S
C947 C417 1.699 . S
C963 C282 1.522 . S
C965 C373 1.576 . S
C983 C615 1.817 . S
C981 C181 2.078 . S
C1001 C659 1.505 . S
C999 C202 1.652 . S
C1019 C473 1.584 . S
C1017 C242 1.756 . S
C1035 C301 1.494 . S
C1037 C541 1.470 . S
C1055 C603 1.767 . S
C1053 C215 1.850 . S
C1073 C683 1.486 . S
C1071 C261 1.529 . S
C1091 C497 1.531 . S
C1089 C295 1.559 . S
C1107 C175 1.627 . S
C1109 C553 1.463 . S
