# Generated by pormake.
# Topology ssb, (4,4)-cn, num edge types: 1
# Building blocks:
#     Node 0, Type 0, BuildingBlock: NAHDIM_clean_linker_0, # of connection points: 4
#     Node 1, Type 0, BuildingBlock: NAHDIM_clean_linker_0, # of connection points: 4
#     Node 2, Type 0, BuildingBlock: NAHDIM_clean_linker_0, # of connection points: 4
#     Node 3, Type 0, BuildingBlock: NAHDIM_clean_linker_0, # of connection points: 4
#     Node 4, Type 0, BuildingBlock: NAHDIM_clean_linker_0, # of connection points: 4
#     Node 5, Type 0, BuildingBlock: NAHDIM_clean_linker_0, # of connection points: 4
#     Node 6, Type 0, BuildingBlock: NAHDIM_clean_linker_0, # of connection points: 4
#     Node 7, Type 0, BuildingBlock: NAHDIM_clean_linker_0, # of connection points: 4
#     Node 8, Type 1, BuildingBlock: KOZSID_clean_sbu_0, # of connection points: 4
#     Node 9, Type 1, BuildingBlock: KOZSID_clean_sbu_0, # of connection points: 4
#     Node 10, Type 1, BuildingBlock: KOZSID_clean_sbu_0, # of connection points: 4
#     Node 11, Type 1, BuildingBlock: KOZSID_clean_sbu_0, # of connection points: 4
#     Node 12, Type 1, BuildingBlock: KOZSID_clean_sbu_0, # of connection points: 4
#     Node 13, Type 1, BuildingBlock: KOZSID_clean_sbu_0, # of connection points: 4
#     Node 14, Type 1, BuildingBlock: KOZSID_clean_sbu_0, # of connection points: 4
#     Node 15, Type 1, BuildingBlock: KOZSID_clean_sbu_0, # of connection points: 4
#     Edge 16, Type (0, 1), BuildingBlock: MIFKUJ_clean_linker_0, # of connection points: 2
#     Edge 17, Type (0, 1), BuildingBlock: MIFKUJ_clean_linker_0, # of connection points: 2
#     Edge 18, Type (0, 1), BuildingBlock: MIFKUJ_clean_linker_0, # of connection points: 2
#     Edge 19, Type (0, 1), BuildingBlock: MIFKUJ_clean_linker_0, # of connection points: 2
#     Edge 20, Type (0, 1), BuildingBlock: MIFKUJ_clean_linker_0, # of connection points: 2
#     Edge 21, Type (0, 1), BuildingBlock: MIFKUJ_clean_linker_0, # of connection points: 2
#     Edge 22, Type (0, 1), BuildingBlock: MIFKUJ_clean_linker_0, # of connection points: 2
#     Edge 23, Type (0, 1), BuildingBlock: MIFKUJ_clean_linker_0, # of connection points: 2
#     Edge 24, Type (0, 1), BuildingBlock: MIFKUJ_clean_linker_0, # of connection points: 2
#     Edge 25, Type (0, 1), BuildingBlock: MIFKUJ_clean_linker_0, # of connection points: 2
#     Edge 26, Type (0, 1), BuildingBlock: MIFKUJ_clean_linker_0, # of connection points: 2
#     Edge 27, Type (0, 1), BuildingBlock: MIFKUJ_clean_linker_0, # of connection points: 2
#     Edge 28, Type (0, 1), BuildingBlock: MIFKUJ_clean_linker_0, # of connection points: 2
#     Edge 29, Type (0, 1), BuildingBlock: MIFKUJ_clean_linker_0, # of connection points: 2
#     Edge 30, Type (0, 1), BuildingBlock: MIFKUJ_clean_linker_0, # of connection points: 2
#     Edge 31, Type (0, 1), BuildingBlock: MIFKUJ_clean_linker_0, # of connection points: 2
#     Edge 32, Type (0, 1), BuildingBlock: MIFKUJ_clean_linker_0, # of connection points: 2
#     Edge 33, Type (0, 1), BuildingBlock: MIFKUJ_clean_linker_0, # of connection points: 2
#     Edge 34, Type (0, 1), BuildingBlock: MIFKUJ_clean_linker_0, # of connection points: 2
#     Edge 35, Type (0, 1), BuildingBlock: MIFKUJ_clean_linker_0, # of connection points: 2
#     Edge 36, Type (0, 1), BuildingBlock: MIFKUJ_clean_linker_0, # of connection points: 2
#     Edge 37, Type (0, 1), BuildingBlock: MIFKUJ_clean_linker_0, # of connection points: 2
#     Edge 38, Type (0, 1), BuildingBlock: MIFKUJ_clean_linker_0, # of connection points: 2
#     Edge 39, Type (0, 1), BuildingBlock: MIFKUJ_clean_linker_0, # of connection points: 2
#     Edge 40, Type (0, 1), BuildingBlock: MIFKUJ_clean_linker_0, # of connection points: 2
#     Edge 41, Type (0, 1), BuildingBlock: MIFKUJ_clean_linker_0, # of connection points: 2
#     Edge 42, Type (0, 1), BuildingBlock: MIFKUJ_clean_linker_0, # of connection points: 2
#     Edge 43, Type (0, 1), BuildingBlock: MIFKUJ_clean_linker_0, # of connection points: 2
#     Edge 44, Type (0, 1), BuildingBlock: MIFKUJ_clean_linker_0, # of connection points: 2
#     Edge 45, Type (0, 1), BuildingBlock: MIFKUJ_clean_linker_0, # of connection points: 2
#     Edge 46, Type (0, 1), BuildingBlock: MIFKUJ_clean_linker_0, # of connection points: 2
#     Edge 47, Type (0, 1), BuildingBlock: MIFKUJ_clean_linker_0, # of connection points: 2
# Relax obj value: 0.003
# Max RMSD: 0.050
# Mean RMSD: 0.032
data_MOF--net-ssb--node1-KOZSID_clean_sbu_0--node2-NAHDIM_clean_linker_0--edge1-MIFKUJ_clean_linker_0
_symmetry_space_group_name_H-M    P1
_symmetry_Int_Tables_number       1
_symmetry_cell_setting            triclinic
loop_
_symmetry_equiv_pos_as_xyz
'x, y, z'
_cell_length_a     86.603454
_cell_length_b     86.479038
_cell_length_c     63.167019
_cell_angle_alpha  91.652991
_cell_angle_beta   93.339547
_cell_angle_gamma 90.022548
loop_
_atom_site_label
_atom_site_type_symbol
_atom_site_fract_x
_atom_site_fract_y
_atom_site_fract_z
_atom_type_partial_charge
C0 C 0.30322 0.16151 0.32753 0.0
C1 C 0.29761 0.16748 0.34885 0.0
C2 C 0.28255 0.1894 0.33663 0.0
C3 C 0.29136 0.20207 0.34471 0.0
C4 C 0.29096 0.21619 0.33425 0.0
C5 C 0.28171 0.21756 0.31517 0.0
C6 C 0.2724 0.20491 0.3074 0.0
C7 C 0.27273 0.19106 0.31851 0.0
C8 C 0.30077 0.2295 0.34328 0.0
C9 C 0.26259 0.20578 0.28692 0.0
C10 C 0.36109 0.21286 0.23596 0.0
C11 C 0.35291 0.223 0.21927 0.0
C12 C 0.33664 0.24044 0.2388 0.0
C13 C 0.32192 0.23585 0.23049 0.0
C14 C 0.3089 0.23786 0.24244 0.0
C15 C 0.31063 0.24489 0.26294 0.0
C16 C 0.3253 0.25042 0.27081 0.0
C17 C 0.33815 0.24821 0.25851 0.0
C18 C 0.29336 0.23208 0.23341 0.0
C19 C 0.32744 0.25822 0.29244 0.0
C20 C 0.25107 0.32779 0.22613 0.0
C21 C 0.24634 0.31284 0.21921 0.0
C22 C 0.24607 0.30071 0.23349 0.0
C23 C 0.2507 0.30354 0.25512 0.0
C24 C 0.2552 0.31864 0.26221 0.0
C25 C 0.25515 0.3306 0.24763 0.0
C26 C 0.24068 0.28487 0.22551 0.0
C27 C 0.26011 0.32209 0.28516 0.0
C28 C 0.18258 0.24292 0.36435 0.0
C29 C 0.18395 0.26042 0.36208 0.0
C30 C 0.19553 0.26835 0.32971 0.0
C31 C 0.19636 0.26286 0.30882 0.0
C32 C 0.20917 0.26619 0.29717 0.0
C33 C 0.22131 0.27542 0.30667 0.0
C34 C 0.22002 0.28194 0.32728 0.0
C35 C 0.20706 0.27839 0.33859 0.0
C36 C 0.21004 0.25935 0.27502 0.0
C37 C 0.23257 0.2922 0.33756 0.0
C38 C 0.28289 0.23165 0.30236 0.0
C39 C 0.29566 0.23283 0.28999 0.0
C40 C 0.29735 0.24528 0.2767 0.0
C41 C 0.28605 0.25705 0.27568 0.0
C42 C 0.28741 0.26974 0.26249 0.0
C43 C 0.27589 0.28095 0.26096 0.0
C44 C 0.26254 0.27984 0.27249 0.0
C45 C 0.25043 0.29078 0.27036 0.0
C46 C 0.2373 0.28925 0.28203 0.0
C47 C 0.2359 0.27704 0.2958 0.0
C48 C 0.2479 0.26604 0.29824 0.0
C49 C 0.24684 0.25365 0.31207 0.0
C50 C 0.25842 0.24254 0.31378 0.0
C51 C 0.27142 0.24329 0.30155 0.0
C52 C 0.27294 0.25595 0.28799 0.0
C53 C 0.26118 0.26735 0.28636 0.0
C54 C 0.27368 0.33945 0.19214 0.0
C55 C 0.256 0.33911 0.19204 0.0
O56 O 0.28373 0.17534 0.34561 0.0
O57 O 0.18343 0.26377 0.34072 0.0
O58 O 0.25142 0.33982 0.21275 0.0
O59 O 0.34956 0.23731 0.22832 0.0
H60 H 0.30655 0.17546 0.35637 0.0
H61 H 0.30537 0.17136 0.31719 0.0
H62 H 0.2944 0.15377 0.31928 0.0
H63 H 0.31423 0.15504 0.32997 0.0
H64 H 0.29862 0.20089 0.35912 0.0
H65 H 0.2659 0.18121 0.31252 0.0
H66 H 0.31068 0.23117 0.3332 0.0
H67 H 0.30538 0.22743 0.35974 0.0
H68 H 0.29393 0.24036 0.34323 0.0
H69 H 0.25709 0.19451 0.28214 0.0
H70 H 0.26975 0.20953 0.27396 0.0
H71 H 0.25334 0.2145 0.28873 0.0
H72 H 0.34215 0.21678 0.21358 0.0
H73 H 0.36435 0.20156 0.22869 0.0
H74 H 0.35319 0.21062 0.24878 0.0
H75 H 0.37165 0.21865 0.24319 0.0
H76 H 0.32058 0.23057 0.21474 0.0
H77 H 0.34953 0.25199 0.26459 0.0
H78 H 0.28495 0.24176 0.23289 0.0
H79 H 0.28888 0.22321 0.24384 0.0
H80 H 0.29395 0.22694 0.21715 0.0
H81 H 0.33927 0.26308 0.2955 0.0
H82 H 0.32534 0.24971 0.30479 0.0
H83 H 0.31887 0.26768 0.29401 0.0
H84 H 0.25193 0.32823 0.1838 0.0
H85 H 0.24244 0.3106 0.20285 0.0
H86 H 0.25857 0.34221 0.2529 0.0
H87 H 0.25034 0.27651 0.22741 0.0
H88 H 0.23653 0.28478 0.20853 0.0
H89 H 0.23119 0.28081 0.23504 0.0
H90 H 0.26422 0.33419 0.28791 0.0
H91 H 0.2695 0.31409 0.29041 0.0
H92 H 0.2502 0.32014 0.29516 0.0
H93 H 0.1952 0.26391 0.37022 0.0
H94 H 0.18274 0.24 0.38138 0.0
H95 H 0.19251 0.23706 0.35718 0.0
H96 H 0.17171 0.23843 0.35617 0.0
H97 H 0.18718 0.25543 0.30195 0.0
H98 H 0.20604 0.28343 0.35433 0.0
H99 H 0.21983 0.25108 0.27464 0.0
H100 H 0.21229 0.26863 0.2638 0.0
H101 H 0.19924 0.25318 0.26944 0.0
H102 H 0.22938 0.2972 0.35309 0.0
H103 H 0.23508 0.30178 0.32692 0.0
H104 H 0.24336 0.2854 0.34004 0.0
H105 H 0.30429 0.22372 0.29036 0.0
H106 H 0.29736 0.27108 0.25309 0.0
H107 H 0.2775 0.29041 0.25045 0.0
H108 H 0.22792 0.2975 0.28004 0.0
H109 H 0.237 0.25232 0.32167 0.0
H110 H 0.25697 0.23324 0.3246 0.0
H111 H 0.2775 0.33907 0.17564 0.0
H112 H 0.27856 0.32922 0.20041 0.0
H113 H 0.27835 0.35009 0.2005 0.0
C114 C 0.68296 0.19002 0.16503 0.0
C115 C 0.67757 0.20648 0.17026 0.0
C116 C 0.69848 0.2234 0.18251 0.0
C117 C 0.69221 0.23221 0.19885 0.0
C118 C 0.70161 0.23755 0.21638 0.0
C119 C 0.71753 0.23375 0.21766 0.0
C120 C 0.72396 0.22535 0.20067 0.0
C121 C 0.71434 0.22055 0.18307 0.0
C122 C 0.69441 0.24675 0.23389 0.0
C123 C 0.74082 0.22082 0.20144 0.0
C124 C 0.73209 0.15233 0.34172 0.0
C125 C 0.73478 0.16303 0.32434 0.0
C126 C 0.73125 0.18992 0.31477 0.0
C127 C 0.74093 0.18889 0.29767 0.0
C128 C 0.74243 0.20131 0.28421 0.0
C129 C 0.73399 0.21505 0.28778 0.0
C130 C 0.72441 0.21626 0.30511 0.0
C131 C 0.72324 0.20366 0.3185 0.0
C132 C 0.75284 0.19963 0.26591 0.0
C133 C 0.7153 0.23077 0.30929 0.0
C134 C 0.82161 0.26641 0.32657 0.0
C135 C 0.81962 0.25508 0.31019 0.0
C136 C 0.80778 0.25634 0.29426 0.0
C137 C 0.79737 0.26894 0.295 0.0
C138 C 0.79915 0.28023 0.31161 0.0
C139 C 0.81131 0.27883 0.32714 0.0
C140 C 0.80639 0.24408 0.27671 0.0
C141 C 0.78817 0.2937 0.31297 0.0
C142 C 0.77681 0.30458 0.13093 0.0
C143 C 0.77686 0.31278 0.1527 0.0
C144 C 0.78664 0.30125 0.18546 0.0
C145 C 0.79465 0.28797 0.19154 0.0
C146 C 0.79196 0.28098 0.21071 0.0
C147 C 0.78132 0.28781 0.22439 0.0
C148 C 0.77412 0.30197 0.21907 0.0
C149 C 0.77675 0.3085 0.19951 0.0
C150 C 0.80011 0.26602 0.21599 0.0
C151 C 0.76326 0.3099 0.23371 0.0
C152 C 0.72701 0.23694 0.23766 0.0
C153 C 0.72518 0.22693 0.2543 0.0
C154 C 0.73488 0.2278 0.27273 0.0
C155 C 0.74655 0.23924 0.27501 0.0
C156 C 0.75655 0.24036 0.29333 0.0
C157 C 0.76874 0.25088 0.29476 0.0
C158 C 0.7715 0.26052 0.27781 0.0
C159 C 0.7847 0.27017 0.27829 0.0
C160 C 0.78709 0.27965 0.26122 0.0
C161 C 0.77687 0.2794 0.24326 0.0
C162 C 0.76369 0.26968 0.24236 0.0
C163 C 0.75333 0.26888 0.22434 0.0
C164 C 0.74096 0.25857 0.22307 0.0
C165 C 0.73867 0.24841 0.23956 0.0
C166 C 0.74859 0.24944 0.25823 0.0
C167 C 0.7611 0.2601 0.25964 0.0
C168 C 0.83987 0.24074 0.35487 0.0
C169 C 0.84511 0.25514 0.34362 0.0
O170 O 0.68925 0.21687 0.16668 0.0
O171 O 0.7885 0.3066 0.16582 0.0
O172 O 0.83319 0.26583 0.34206 0.0
O173 O 0.72927 0.17789 0.32776 0.0
H174 H 0.675 0.20673 0.18738 0.0
H175 H 0.69306 0.18706 0.17581 0.0
H176 H 0.6865 0.18894 0.14843 0.0
H177 H 0.67356 0.18158 0.16728 0.0
H178 H 0.67991 0.23459 0.19803 0.0
H179 H 0.719 0.21381 0.1702 0.0
H180 H 0.6934 0.23933 0.2478 0.0
H181 H 0.68269 0.25101 0.22891 0.0
H182 H 0.70185 0.2568 0.23903 0.0
H183 H 0.7434 0.21238 0.18853 0.0
H184 H 0.74431 0.21569 0.2169 0.0
H185 H 0.74805 0.23126 0.19979 0.0
H186 H 0.73153 0.1583 0.30806 0.0
H187 H 0.72391 0.14328 0.33441 0.0
H188 H 0.72317 0.15797 0.3517 0.0
H189 H 0.75453 0.14704 0.35377 0.0
H190 H 0.74734 0.1784 0.29463 0.0
H191 H 0.71585 0.2044 0.33177 0.0
H192 H 0.76117 0.20941 0.26625 0.0
H193 H 0.74575 0.19998 0.25072 0.0
H194 H 0.75944 0.18862 0.26619 0.0
H195 H 0.7085 0.22998 0.3236 0.0
H196 H 0.70727 0.23302 0.29537 0.0
H197 H 0.72329 0.24081 0.31143 0.0
H198 H 0.84862 0.2516 0.32754 0.0
H199 H 0.82718 0.24516 0.30962 0.0
H200 H 0.81284 0.28747 0.33986 0.0
H201 H 0.79628 0.23656 0.27908 0.0
H202 H 0.81684 0.23665 0.27637 0.0
H203 H 0.80448 0.24944 0.26103 0.0
H204 H 0.79044 0.30089 0.32769 0.0
H205 H 0.77605 0.28943 0.31244 0.0
H206 H 0.78929 0.30112 0.29908 0.0
H207 H 0.7653 0.31056 0.15895 0.0
H208 H 0.7675 0.30931 0.12011 0.0
H209 H 0.77463 0.29202 0.13257 0.0
H210 H 0.78812 0.30602 0.12376 0.0
H211 H 0.8025 0.28269 0.1807 0.0
H212 H 0.77099 0.31915 0.1951 0.0
H213 H 0.79155 0.25702 0.21952 0.0
H214 H 0.80793 0.26788 0.23039 0.0
H215 H 0.80708 0.26163 0.20289 0.0
H216 H 0.76042 0.32185 0.22881 0.0
H217 H 0.76844 0.31034 0.25022 0.0
H218 H 0.75234 0.30317 0.23368 0.0
H219 H 0.71659 0.21776 0.25242 0.0
H220 H 0.75518 0.23298 0.30664 0.0
H221 H 0.77619 0.25114 0.30914 0.0
H222 H 0.7975 0.28666 0.26141 0.0
H223 H 0.75475 0.27607 0.21085 0.0
H224 H 0.73341 0.25838 0.20878 0.0
H225 H 0.84951 0.23229 0.35644 0.0
H226 H 0.83007 0.23505 0.3456 0.0
H227 H 0.83603 0.24388 0.37091 0.0
C228 C 0.70225 0.84586 0.318 0.0
C229 C 0.71081 0.8397 0.33794 0.0
C230 C 0.72645 0.81959 0.32246 0.0
C231 C 0.7196 0.80612 0.32948 0.0
C232 C 0.72037 0.79212 0.31778 0.0
C233 C 0.72807 0.79165 0.29861 0.0
C234 C 0.73548 0.80513 0.29192 0.0
C235 C 0.73477 0.81889 0.30418 0.0
C236 C 0.71267 0.77791 0.32566 0.0
C237 C 0.74368 0.80511 0.27149 0.0
C238 C 0.63526 0.77936 0.22703 0.0
C239 C 0.64737 0.77689 0.21056 0.0
C240 C 0.66888 0.76108 0.22262 0.0
C241 C 0.68144 0.76906 0.21513 0.0
C242 C 0.69599 0.7687 0.22604 0.0
C243 C 0.69792 0.76023 0.24484 0.0
C244 C 0.68543 0.7515 0.25178 0.0
C245 C 0.67106 0.75188 0.24034 0.0
C246 C 0.70916 0.77783 0.21791 0.0
C247 C 0.6871 0.74237 0.27177 0.0
C248 C 0.75965 0.67854 0.2138 0.0
C249 C 0.76344 0.69286 0.20559 0.0
C250 C 0.76442 0.70625 0.21873 0.0
C251 C 0.7614 0.70526 0.24044 0.0
C252 C 0.75785 0.69075 0.2488 0.0
C253 C 0.75724 0.67753 0.23538 0.0
C254 C 0.76875 0.72143 0.20946 0.0
C255 C 0.75464 0.68924 0.27187 0.0
C256 C 0.83304 0.77193 0.35952 0.0
C257 C 0.83082 0.75479 0.35346 0.0
C258 C 0.81801 0.74726 0.31903 0.0
C259 C 0.81595 0.7526 0.29842 0.0
C260 C 0.80305 0.7481 0.28525 0.0
C261 C 0.79202 0.73793 0.29297 0.0
C262 C 0.79461 0.73161 0.31327 0.0
C263 C 0.80768 0.73624 0.32607 0.0
C264 C 0.80085 0.75472 0.26344 0.0
C265 C 0.78327 0.7204 0.32167 0.0
C266 C 0.72741 0.7774 0.28486 0.0
C267 C 0.71399 0.77479 0.27193 0.0
C268 C 0.71247 0.7618 0.25829 0.0
C269 C 0.72468 0.75101 0.2574 0.0
C270 C 0.72357 0.73784 0.24382 0.0
C271 C 0.73572 0.72734 0.24301 0.0
C272 C 0.74954 0.72975 0.25551 0.0
C273 C 0.76211 0.71934 0.25449 0.0
C274 C 0.77574 0.72221 0.26695 0.0
C275 C 0.77713 0.73516 0.28067 0.0
C276 C 0.76462 0.74556 0.28219 0.0
C277 C 0.76558 0.75855 0.29616 0.0
C278 C 0.75335 0.7689 0.29725 0.0
C279 C 0.73974 0.76673 0.2843 0.0
C280 C 0.7384 0.75354 0.2704 0.0
C281 C 0.75085 0.74292 0.26939 0.0
C282 C 0.73397 0.65938 0.18514 0.0
C283 C 0.75076 0.66385 0.1819 0.0
O284 O 0.72491 0.83345 0.33277 0.0
O285 O 0.83006 0.75304 0.33153 0.0
O286 O 0.75877 0.66542 0.2015 0.0
O287 O 0.65444 0.76267 0.2135 0.0
H288 H 0.70347 0.83065 0.34449 0.0
H289 H 0.69978 0.83624 0.30626 0.0
H290 H 0.70936 0.85469 0.31059 0.0
H291 H 0.69105 0.85112 0.32203 0.0
H292 H 0.71364 0.80652 0.34407 0.0
H293 H 0.74016 0.82935 0.29905 0.0
H294 H 0.70238 0.77493 0.31502 0.0
H295 H 0.70889 0.77966 0.34206 0.0
H296 H 0.72071 0.76791 0.32529 0.0
H297 H 0.7481 0.81676 0.26793 0.0
H298 H 0.7357 0.80104 0.25809 0.0
H299 H 0.75358 0.79697 0.2725 0.0
H300 H 0.65591 0.7865 0.21322 0.0
H301 H 0.62929 0.79061 0.2247 0.0
H302 H 0.64099 0.7795 0.24323 0.0
H303 H 0.62652 0.76991 0.22586 0.0
H304 H 0.67973 0.77583 0.20102 0.0
H305 H 0.66126 0.74564 0.2458 0.0
H306 H 0.71184 0.78788 0.22884 0.0
H307 H 0.70634 0.78218 0.20177 0.0
H308 H 0.71971 0.77056 0.21754 0.0
H309 H 0.67631 0.73611 0.27494 0.0
H310 H 0.69025 0.75027 0.28552 0.0
H311 H 0.69659 0.73383 0.27052 0.0
H312 H 0.75068 0.67494 0.17342 0.0
H313 H 0.76598 0.69356 0.18907 0.0
H314 H 0.75457 0.66635 0.24158 0.0
H315 H 0.75887 0.72957 0.21008 0.0
H316 H 0.77192 0.72005 0.19272 0.0
H317 H 0.77864 0.72676 0.21901 0.0
H318 H 0.75091 0.67737 0.27553 0.0
H319 H 0.7455 0.69754 0.27625 0.0
H320 H 0.76525 0.69217 0.28189 0.0
H321 H 0.81981 0.75127 0.36019 0.0
H322 H 0.83384 0.77362 0.37706 0.0
H323 H 0.82301 0.77865 0.35303 0.0
H324 H 0.84371 0.77654 0.353 0.0
H325 H 0.82421 0.76079 0.29296 0.0
H326 H 0.80969 0.73131 0.34153 0.0
H327 H 0.79085 0.76276 0.26304 0.0
H328 H 0.79821 0.74531 0.25143 0.0
H329 H 0.81123 0.76113 0.25895 0.0
H330 H 0.78717 0.71615 0.33753 0.0
H331 H 0.78162 0.71033 0.31046 0.0
H332 H 0.77186 0.7261 0.32288 0.0
H333 H 0.70458 0.78306 0.27238 0.0
H334 H 0.71327 0.73551 0.23368 0.0
H335 H 0.73418 0.71738 0.23233 0.0
H336 H 0.78541 0.71431 0.26591 0.0
H337 H 0.7758 0.7609 0.30643 0.0
H338 H 0.75474 0.77869 0.30827 0.0
H339 H 0.73348 0.64827 0.1935 0.0
H340 H 0.72728 0.65818 0.16963 0.0
H341 H 0.72843 0.66852 0.19482 0.0
C342 C 0.33251 0.81523 0.18031 0.0
C343 C 0.33455 0.79771 0.17732 0.0
C344 C 0.31004 0.78608 0.18449 0.0
C345 C 0.31436 0.77633 0.20119 0.0
C346 C 0.30369 0.77225 0.21597 0.0
C347 C 0.2884 0.77801 0.21391 0.0
C348 C 0.28387 0.78735 0.19657 0.0
C349 C 0.29475 0.79109 0.18189 0.0
C350 C 0.30878 0.76196 0.23394 0.0
C351 C 0.26767 0.79367 0.19383 0.0
C352 C 0.2641 0.85628 0.34202 0.0
C353 C 0.25915 0.84436 0.32557 0.0
C354 C 0.26595 0.81859 0.31265 0.0
C355 C 0.25655 0.81939 0.29377 0.0
C356 C 0.25687 0.80768 0.27804 0.0
C357 C 0.26677 0.79484 0.28115 0.0
C358 C 0.27614 0.79387 0.30016 0.0
C359 C 0.27555 0.80576 0.31575 0.0
C360 C 0.24667 0.80909 0.25795 0.0
C361 C 0.28678 0.7803 0.30391 0.0
C362 C 0.18844 0.73075 0.30126 0.0
C363 C 0.18667 0.74294 0.28718 0.0
C364 C 0.1969 0.74466 0.27097 0.0
C365 C 0.20927 0.73409 0.26911 0.0
C366 C 0.21072 0.72148 0.28288 0.0
C367 C 0.20011 0.71986 0.29863 0.0
C368 C 0.19459 0.75787 0.25602 0.0
C369 C 0.22365 0.70989 0.28121 0.0
C370 C 0.24401 0.69792 0.10814 0.0
C371 C 0.23953 0.69195 0.12953 0.0
C372 C 0.22714 0.70672 0.15737 0.0
C373 C 0.21896 0.72038 0.16074 0.0
C374 C 0.21912 0.72761 0.1809 0.0
C375 C 0.22756 0.72083 0.1981 0.0
C376 C 0.2349 0.7064 0.19513 0.0
C377 C 0.23458 0.69944 0.17478 0.0
C378 C 0.21089 0.74285 0.18365 0.0
C379 C 0.24361 0.69868 0.21331 0.0
C380 C 0.27735 0.7748 0.23037 0.0
C381 C 0.2778 0.78447 0.24851 0.0
C382 C 0.26729 0.78263 0.26422 0.0
C383 C 0.25628 0.77054 0.26219 0.0
C384 C 0.24585 0.76809 0.27802 0.0
C385 C 0.23454 0.75666 0.27539 0.0
C386 C 0.23298 0.74749 0.25661 0.0
C387 C 0.22093 0.73647 0.2532 0.0
C388 C 0.21957 0.72777 0.23417 0.0
C389 C 0.23008 0.72965 0.21847 0.0
C390 C 0.24238 0.74036 0.22177 0.0
C391 C 0.25332 0.7423 0.20641 0.0
C392 C 0.26502 0.7533 0.20942 0.0
C393 C 0.26609 0.76296 0.22772 0.0
C394 C 0.25546 0.76089 0.24366 0.0
C395 C 0.24367 0.74949 0.24075 0.0
C396 C 0.18867 0.74147 0.3496 0.0
C397 C 0.1757 0.74068 0.33206 0.0
O398 O 0.32047 0.79096 0.1709 0.0
O399 O 0.22786 0.70113 0.13714 0.0
O400 O 0.17892 0.7291 0.31734 0.0
O401 O 0.2662 0.83005 0.32792 0.0
H402 H 0.33885 0.79338 0.193 0.0
H403 H 0.32471 0.81767 0.19334 0.0
H404 H 0.32733 0.82038 0.16564 0.0
H405 H 0.34385 0.82086 0.18458 0.0
H406 H 0.32606 0.77193 0.20269 0.0
H407 H 0.29152 0.79844 0.16875 0.0
H408 H 0.30848 0.76859 0.24923 0.0
H409 H 0.32067 0.75742 0.23236 0.0
H410 H 0.30067 0.75205 0.23456 0.0
H411 H 0.26617 0.80126 0.17997 0.0
H412 H 0.2648 0.80038 0.20832 0.0
H413 H 0.25927 0.78398 0.19166 0.0
H414 H 0.24638 0.84346 0.32225 0.0
H415 H 0.27552 0.87284 0.3249 0.0
H416 H 0.26999 0.84981 0.35544 0.0
H417 H 0.25341 0.85903 0.35072 0.0
H418 H 0.24896 0.82915 0.29111 0.0
H419 H 0.28275 0.8052 0.33032 0.0
H420 H 0.25389 0.80886 0.24399 0.0
H421 H 0.23977 0.81991 0.25785 0.0
H422 H 0.23862 0.79909 0.25614 0.0
H423 H 0.29311 0.78108 0.31971 0.0
H424 H 0.29532 0.77971 0.29145 0.0
H425 H 0.28 0.76938 0.30266 0.0
H426 H 0.175 0.75211 0.32442 0.0
H427 H 0.17721 0.75101 0.28868 0.0
H428 H 0.20116 0.71034 0.30941 0.0
H429 H 0.20382 0.76664 0.25951 0.0
H430 H 0.18321 0.76361 0.25753 0.0
H431 H 0.19545 0.75369 0.23934 0.0
H432 H 0.22374 0.70132 0.29398 0.0
H433 H 0.23498 0.71597 0.28202 0.0
H434 H 0.22238 0.7036 0.26564 0.0
H435 H 0.25023 0.69299 0.14017 0.0
H436 H 0.25303 0.6904 0.10144 0.0
H437 H 0.24877 0.70983 0.11035 0.0
H438 H 0.23383 0.69831 0.09663 0.0
H439 H 0.21299 0.72573 0.14729 0.0
H440 H 0.24035 0.68848 0.1725 0.0
H441 H 0.21954 0.75216 0.18738 0.0
H442 H 0.20329 0.74238 0.19718 0.0
H443 H 0.20379 0.74593 0.16918 0.0
H444 H 0.24776 0.68696 0.20877 0.0
H445 H 0.23608 0.69771 0.22685 0.0
H446 H 0.25374 0.7059 0.21883 0.0
H447 H 0.28608 0.79392 0.25005 0.0
H448 H 0.24631 0.77501 0.2926 0.0
H449 H 0.22684 0.75531 0.28811 0.0
H450 H 0.21012 0.71958 0.23145 0.0
H451 H 0.25293 0.7354 0.19182 0.0
H452 H 0.27305 0.75433 0.19702 0.0
H453 H 0.18984 0.73022 0.35761 0.0
H454 H 0.18625 0.75069 0.36157 0.0
H455 H 0.19982 0.74422 0.34271 0.0
C456 C 0.18246 0.69132 0.6532 0.0
C457 C 0.17718 0.7076 0.65956 0.0
C458 C 0.19881 0.72348 0.67221 0.0
C459 C 0.19343 0.73137 0.68998 0.0
C460 C 0.20365 0.7358 0.70712 0.0
C461 C 0.21953 0.73203 0.70647 0.0
C462 C 0.22503 0.72447 0.68819 0.0
C463 C 0.21458 0.72053 0.67108 0.0
C464 C 0.19744 0.74415 0.72612 0.0
C465 C 0.24183 0.72004 0.68702 0.0
C466 C 0.23389 0.65357 0.83479 0.0
C467 C 0.23915 0.66398 0.81825 0.0
C468 C 0.23563 0.69022 0.8054 0.0
C469 C 0.24641 0.6887 0.78962 0.0
C470 C 0.24818 0.7004 0.77498 0.0
C471 C 0.23914 0.71398 0.77622 0.0
C472 C 0.22864 0.71577 0.79246 0.0
C473 C 0.22705 0.70385 0.80686 0.0
C474 C 0.25954 0.69815 0.75792 0.0
C475 C 0.21892 0.73015 0.79435 0.0
C476 C 0.31855 0.77454 0.81711 0.0
C477 C 0.32166 0.76668 0.79804 0.0
C478 C 0.31089 0.76672 0.78058 0.0
C479 C 0.29691 0.775 0.7821 0.0
C480 C 0.29416 0.78366 0.80082 0.0
C481 C 0.3051 0.78337 0.81809 0.0
C482 C 0.31432 0.75768 0.7606 0.0
C483 C 0.2795 0.79287 0.80276 0.0
C484 C 0.25609 0.82653 0.64153 0.0
C485 C 0.26599 0.83631 0.65777 0.0
C486 C 0.27697 0.81721 0.68228 0.0
C487 C 0.28583 0.80372 0.68153 0.0
C488 C 0.28504 0.79256 0.69717 0.0
C489 C 0.27534 0.79513 0.71418 0.0
C490 C 0.26672 0.80898 0.71543 0.0
C491 C 0.26764 0.81989 0.69951 0.0
C492 C 0.29452 0.77799 0.69547 0.0
C493 C 0.2566 0.81227 0.73369 0.0
C494 C 0.23016 0.73496 0.72545 0.0
C495 C 0.22982 0.72449 0.74188 0.0
C496 C 0.24003 0.72589 0.75979 0.0
C497 C 0.25103 0.73801 0.76135 0.0
C498 C 0.26172 0.73958 0.77889 0.0
C499 C 0.27276 0.75131 0.78001 0.0
C500 C 0.27345 0.76202 0.76372 0.0
C501 C 0.2848 0.77381 0.76456 0.0
C502 C 0.28509 0.78438 0.74825 0.0
C503 C 0.27436 0.78345 0.73086 0.0
C504 C 0.26302 0.7716 0.72958 0.0
C505 C 0.25213 0.7702 0.71223 0.0
C506 C 0.24123 0.75833 0.71095 0.0
C507 C 0.24083 0.74737 0.72694 0.0
C508 C 0.25144 0.74877 0.74483 0.0
C509 C 0.2626 0.76084 0.74608 0.0
C510 C 0.32893 0.75281 0.85776 0.0
C511 C 0.33735 0.76179 0.84135 0.0
O512 O 0.18885 0.7181 0.65639 0.0
O513 O 0.27799 0.82743 0.66641 0.0
O514 O 0.32831 0.77417 0.83471 0.0
O515 O 0.23305 0.67881 0.81921 0.0
H516 H 0.17473 0.70739 0.67669 0.0
H517 H 0.19281 0.68809 0.66333 0.0
H518 H 0.18554 0.69077 0.63637 0.0
H519 H 0.17316 0.68276 0.65542 0.0
H520 H 0.18119 0.73386 0.69049 0.0
H521 H 0.21855 0.71449 0.65715 0.0
H522 H 0.19765 0.73623 0.73966 0.0
H523 H 0.18537 0.74818 0.72292 0.0
H524 H 0.20486 0.75427 0.73095 0.0
H525 H 0.24395 0.713 0.67249 0.0
H526 H 0.24569 0.71337 0.70113 0.0
H527 H 0.24905 0.73065 0.68709 0.0
H528 H 0.23847 0.65875 0.80185 0.0
H529 H 0.22714 0.64421 0.82564 0.0
H530 H 0.22344 0.65919 0.84154 0.0
H531 H 0.25419 0.64908 0.85313 0.0
H532 H 0.2534 0.67838 0.78851 0.0
H533 H 0.21886 0.70502 0.81915 0.0
H534 H 0.26813 0.70772 0.75899 0.0
H535 H 0.25334 0.69853 0.74205 0.0
H536 H 0.26581 0.68698 0.75915 0.0
H537 H 0.21197 0.7302 0.8086 0.0
H538 H 0.21094 0.73101 0.78003 0.0
H539 H 0.22646 0.74057 0.79516 0.0
H540 H 0.33935 0.75348 0.82809 0.0
H541 H 0.33247 0.76062 0.79655 0.0
H542 H 0.30299 0.7897 0.83269 0.0
H543 H 0.30543 0.74854 0.75733 0.0
H544 H 0.3259 0.75214 0.76173 0.0
H545 H 0.31375 0.76547 0.7469 0.0
H546 H 0.27947 0.79966 0.81796 0.0
H547 H 0.26941 0.78491 0.80173 0.0
H548 H 0.27802 0.80091 0.78941 0.0
H549 H 0.25824 0.84032 0.67017 0.0
H550 H 0.24682 0.8337 0.6339 0.0
H551 H 0.25055 0.81692 0.64961 0.0
H552 H 0.26327 0.82145 0.62909 0.0
H553 H 0.29318 0.80184 0.66839 0.0
H554 H 0.26129 0.83058 0.70099 0.0
H555 H 0.2868 0.76772 0.69526 0.0
H556 H 0.3027 0.77724 0.7096 0.0
H557 H 0.3012 0.77754 0.68099 0.0
H558 H 0.25074 0.82366 0.73253 0.0
H559 H 0.2637 0.81205 0.7489 0.0
H560 H 0.24766 0.80309 0.73412 0.0
H561 H 0.22163 0.71496 0.74057 0.0
H562 H 0.26174 0.73167 0.79187 0.0
H563 H 0.28077 0.75184 0.79382 0.0
H564 H 0.29385 0.79338 0.74906 0.0
H565 H 0.25198 0.77822 0.69937 0.0
H566 H 0.23315 0.75779 0.6972 0.0
H567 H 0.33623 0.74312 0.86371 0.0
H568 H 0.318 0.74789 0.8503 0.0
H569 H 0.32602 0.76047 0.87137 0.0
C570 C 0.21504 0.36037 0.81187 0.0
C571 C 0.21741 0.3504 0.83143 0.0
C572 C 0.23068 0.32716 0.82113 0.0
C573 C 0.22247 0.31526 0.83 0.0
C574 C 0.22179 0.30044 0.82037 0.0
C575 C 0.22931 0.29763 0.80133 0.0
C576 C 0.23788 0.30961 0.79262 0.0
C577 C 0.23868 0.3242 0.80291 0.0
C578 C 0.21281 0.28789 0.83036 0.0
C579 C 0.2459 0.30711 0.77221 0.0
C580 C 0.14577 0.23029 0.69809 0.0
C581 C 0.15408 0.24592 0.69873 0.0
C582 C 0.16899 0.25555 0.73059 0.0
C583 C 0.18151 0.26202 0.72077 0.0
C584 C 0.19535 0.26565 0.73254 0.0
C585 C 0.19663 0.26277 0.75451 0.0
C586 C 0.1838 0.25686 0.76457 0.0
C587 C 0.17007 0.25347 0.75245 0.0
C588 C 0.20871 0.27233 0.72148 0.0
C589 C 0.18471 0.25382 0.788 0.0
C590 C 0.24825 0.17742 0.73587 0.0
C591 C 0.25539 0.18956 0.72578 0.0
C592 C 0.25963 0.20325 0.73711 0.0
C593 C 0.25673 0.20474 0.75888 0.0
C594 C 0.25047 0.19214 0.76933 0.0
C595 C 0.24641 0.17858 0.75765 0.0
C596 C 0.26668 0.21635 0.72567 0.0
C597 C 0.24747 0.19326 0.79261 0.0
C598 C 0.33476 0.27515 0.86515 0.0
C599 C 0.33101 0.25792 0.86201 0.0
C600 C 0.31701 0.24881 0.82914 0.0
C601 C 0.31507 0.2526 0.80782 0.0
C602 C 0.30165 0.24828 0.7956 0.0
C603 C 0.28997 0.23987 0.80501 0.0
C604 C 0.2923 0.23513 0.8262 0.0
C605 C 0.30588 0.23954 0.83803 0.0
C606 C 0.29971 0.25316 0.77286 0.0
C607 C 0.28023 0.22577 0.83648 0.0
C608 C 0.22766 0.28238 0.79009 0.0
C609 C 0.21396 0.27941 0.77785 0.0
C610 C 0.21157 0.2653 0.76683 0.0
C611 C 0.22319 0.25383 0.76778 0.0
C612 C 0.22113 0.2395 0.75691 0.0
C613 C 0.2327 0.22836 0.75775 0.0
C614 C 0.2468 0.23112 0.76947 0.0
C615 C 0.25871 0.21993 0.77019 0.0
C616 C 0.27261 0.22303 0.78189 0.0
C617 C 0.2749 0.23706 0.79319 0.0
C618 C 0.26304 0.24832 0.7929 0.0
C619 C 0.26486 0.26244 0.80444 0.0
C620 C 0.25323 0.27354 0.80376 0.0
C621 C 0.2394 0.27102 0.79136 0.0
C622 C 0.2372 0.25676 0.77997 0.0
C623 C 0.24902 0.24539 0.78079 0.0
C624 C 0.22309 0.15425 0.70141 0.0
C625 C 0.23842 0.1631 0.70382 0.0
O626 O 0.23071 0.34166 0.82974 0.0
O627 O 0.32976 0.25426 0.84047 0.0
O628 O 0.24287 0.16449 0.72522 0.0
O629 O 0.15565 0.2513 0.71964 0.0
H630 H 0.20711 0.34274 0.83205 0.0
H631 H 0.21379 0.35284 0.79732 0.0
H632 H 0.2251 0.3682 0.81051 0.0
H633 H 0.20438 0.36744 0.81286 0.0
H634 H 0.21656 0.31763 0.84439 0.0
H635 H 0.24506 0.33354 0.79635 0.0
H636 H 0.20204 0.28543 0.82045 0.0
H637 H 0.20961 0.29126 0.84663 0.0
H638 H 0.21967 0.27705 0.83108 0.0
H639 H 0.25077 0.31801 0.76648 0.0
H640 H 0.23768 0.30214 0.75967 0.0
H641 H 0.25547 0.29872 0.77469 0.0
H642 H 0.16558 0.24385 0.69217 0.0
H643 H 0.14461 0.22544 0.68159 0.0
H644 H 0.13406 0.23153 0.70428 0.0
H645 H 0.15252 0.222 0.70803 0.0
H646 H 0.18049 0.26432 0.70398 0.0
H647 H 0.16022 0.24874 0.75992 0.0
H648 H 0.21847 0.264 0.72194 0.0
H649 H 0.21286 0.28313 0.7299 0.0
H650 H 0.20553 0.27492 0.70466 0.0
H651 H 0.17377 0.24895 0.79336 0.0
H652 H 0.18734 0.26476 0.79711 0.0
H653 H 0.19426 0.24561 0.7918 0.0
H654 H 0.23623 0.17467 0.69696 0.0
H655 H 0.25752 0.18846 0.70909 0.0
H656 H 0.24119 0.169 0.76534 0.0
H657 H 0.25839 0.22613 0.72469 0.0
H658 H 0.26963 0.21286 0.70933 0.0
H659 H 0.27731 0.22061 0.73468 0.0
H660 H 0.2431 0.18222 0.79857 0.0
H661 H 0.23882 0.20247 0.79537 0.0
H662 H 0.25828 0.19655 0.80197 0.0
H663 H 0.31988 0.25606 0.86951 0.0
H664 H 0.33592 0.27836 0.88233 0.0
H665 H 0.32526 0.28211 0.85767 0.0
H666 H 0.34569 0.27805 0.85776 0.0
H667 H 0.32391 0.25943 0.80097 0.0
H668 H 0.30771 0.23577 0.85417 0.0
H669 H 0.29027 0.26181 0.7713 0.0
H670 H 0.29634 0.24305 0.76235 0.0
H671 H 0.31044 0.25834 0.7673 0.0
H672 H 0.28386 0.22282 0.85303 0.0
H673 H 0.27787 0.21489 0.82708 0.0
H674 H 0.26924 0.23237 0.83659 0.0
H675 H 0.205 0.28817 0.77695 0.0
H676 H 0.21056 0.23673 0.74757 0.0
H677 H 0.23043 0.21757 0.749 0.0
H678 H 0.28174 0.21443 0.78223 0.0
H679 H 0.27529 0.26508 0.81415 0.0
H680 H 0.25527 0.28416 0.81299 0.0
H681 H 0.22442 0.14247 0.70787 0.0
H682 H 0.21897 0.15321 0.68443 0.0
H683 H 0.21417 0.16056 0.71018 0.0
C684 C 0.82651 0.3222 0.68027 0.0
C685 C 0.8305 0.30502 0.68214 0.0
C686 C 0.8076 0.29104 0.6904 0.0
C687 C 0.81287 0.28257 0.70797 0.0
C688 C 0.80275 0.27858 0.72348 0.0
C689 C 0.78708 0.2832 0.72131 0.0
C690 C 0.7816 0.29112 0.70306 0.0
C691 C 0.79195 0.29476 0.68763 0.0
C692 C 0.80888 0.26979 0.74247 0.0
C693 C 0.76497 0.29624 0.70024 0.0
C694 C 0.77595 0.36642 0.84704 0.0
C695 C 0.77024 0.35519 0.8301 0.0
C696 C 0.77294 0.32816 0.81871 0.0
C697 C 0.76168 0.32881 0.80178 0.0
C698 C 0.75964 0.31643 0.78702 0.0
C699 C 0.76897 0.30309 0.78926 0.0
C700 C 0.77995 0.30218 0.80666 0.0
C701 C 0.78174 0.31473 0.82123 0.0
C702 C 0.74772 0.31772 0.76875 0.0
C703 C 0.79001 0.28808 0.80957 0.0
C704 C 0.69376 0.23841 0.82296 0.0
C705 C 0.68982 0.24772 0.80563 0.0
C706 C 0.69958 0.24866 0.78874 0.0
C707 C 0.71349 0.24006 0.78922 0.0
C708 C 0.71716 0.2302 0.80627 0.0
C709 C 0.70712 0.2294 0.82285 0.0
C710 C 0.69511 0.25891 0.77045 0.0
C711 C 0.73179 0.22073 0.80711 0.0
C712 C 0.74665 0.191 0.64296 0.0
C713 C 0.74004 0.18126 0.66018 0.0
C714 C 0.72902 0.19891 0.68613 0.0
C715 C 0.72015 0.2124 0.6858 0.0
C716 C 0.72125 0.22323 0.7028 0.0
C717 C 0.73134 0.22033 0.72067 0.0
C718 C 0.73985 0.20639 0.72151 0.0
C719 C 0.73853 0.19576 0.70427 0.0
C720 C 0.71182 0.23788 0.70157 0.0
C721 C 0.75039 0.20277 0.74058 0.0
C722 C 0.77676 0.28083 0.73887 0.0
C723 C 0.77751 0.2917 0.7557 0.0
C724 C 0.76792 0.29059 0.77262 0.0
C725 C 0.75724 0.27823 0.77289 0.0
C726 C 0.74742 0.27673 0.78966 0.0
C727 C 0.73674 0.2647 0.78956 0.0
C728 C 0.73542 0.25375 0.77262 0.0
C729 C 0.72437 0.24167 0.77214 0.0
C730 C 0.72335 0.23099 0.75508 0.0
C731 C 0.73315 0.23198 0.73836 0.0
C732 C 0.7443 0.24396 0.73855 0.0
C733 C 0.75438 0.24526 0.72201 0.0
C734 C 0.76514 0.25723 0.72218 0.0
C735 C 0.76616 0.2684 0.73882 0.0
C736 C 0.7563 0.26716 0.75584 0.0
C737 C 0.74536 0.25492 0.7557 0.0
C738 C 0.68826 0.25581 0.86854 0.0
C739 C 0.67771 0.24991 0.84977 0.0
O740 O 0.81753 0.29614 0.67632 0.0
O741 O 0.72786 0.1891 0.66892 0.0
O742 O 0.68475 0.23753 0.83975 0.0
O743 O 0.77579 0.34027 0.83264 0.0
H744 H 0.83428 0.30328 0.69907 0.0
H745 H 0.81752 0.32538 0.69146 0.0
H746 H 0.82196 0.32477 0.66394 0.0
H747 H 0.83692 0.32945 0.68434 0.0
H748 H 0.82494 0.27929 0.70967 0.0
H749 H 0.78802 0.30115 0.67383 0.0
H750 H 0.80893 0.27748 0.75685 0.0
H751 H 0.82083 0.2655 0.74061 0.0
H752 H 0.80122 0.2598 0.74508 0.0
H753 H 0.76265 0.30266 0.68541 0.0
H754 H 0.76201 0.30379 0.71393 0.0
H755 H 0.75722 0.286 0.69986 0.0
H756 H 0.77107 0.3593 0.8136 0.0
H757 H 0.78304 0.37493 0.83859 0.0
H758 H 0.78619 0.36089 0.85566 0.0
H759 H 0.75588 0.37281 0.862 0.0
H760 H 0.75453 0.33899 0.79986 0.0
H761 H 0.79029 0.31425 0.83441 0.0
H762 H 0.73947 0.30789 0.76873 0.0
H763 H 0.75351 0.31704 0.75352 0.0
H764 H 0.74112 0.32871 0.76949 0.0
H765 H 0.79736 0.28876 0.82459 0.0
H766 H 0.79762 0.28681 0.79608 0.0
H767 H 0.78268 0.27754 0.80953 0.0
H768 H 0.67581 0.25968 0.83888 0.0
H769 H 0.67907 0.2541 0.80506 0.0
H770 H 0.70987 0.22201 0.83611 0.0
H771 H 0.70369 0.26841 0.76989 0.0
H772 H 0.68345 0.26407 0.77178 0.0
H773 H 0.69528 0.25216 0.75524 0.0
H774 H 0.73313 0.21387 0.8217 0.0
H775 H 0.74198 0.22847 0.80647 0.0
H776 H 0.73175 0.2127 0.79307 0.0
H777 H 0.74966 0.17942 0.67224 0.0
H778 H 0.75608 0.18463 0.63531 0.0
H779 H 0.7515 0.20195 0.65017 0.0
H780 H 0.73753 0.19395 0.63064 0.0
H781 H 0.7126 0.21458 0.67191 0.0
H782 H 0.74479 0.18496 0.70521 0.0
H783 H 0.71967 0.24806 0.70233 0.0
H784 H 0.70448 0.23886 0.71539 0.0
H785 H 0.70427 0.23827 0.68676 0.0
H786 H 0.75617 0.19138 0.73886 0.0
H787 H 0.74365 0.20279 0.755 0.0
H788 H 0.7594 0.21189 0.74303 0.0
H789 H 0.78557 0.30131 0.7555 0.0
H790 H 0.74788 0.28487 0.80303 0.0
H791 H 0.72947 0.26414 0.80289 0.0
H792 H 0.71479 0.22181 0.75479 0.0
H793 H 0.75403 0.23707 0.7087 0.0
H794 H 0.77258 0.25768 0.70902 0.0
H795 H 0.68277 0.2657 0.87684 0.0
H796 H 0.69941 0.25984 0.86278 0.0
H797 H 0.69069 0.24647 0.87999 0.0
C798 C 0.75592 0.66594 0.82026 0.0
C799 C 0.7735 0.66722 0.82475 0.0
C800 C 0.77983 0.69462 0.82022 0.0
C801 C 0.7855 0.70808 0.83069 0.0
C802 C 0.78797 0.7216 0.81957 0.0
C803 C 0.78435 0.72168 0.79745 0.0
C804 C 0.77865 0.7081 0.7867 0.0
C805 C 0.77658 0.69467 0.79813 0.0
C806 C 0.79432 0.73581 0.83148 0.0
C807 C 0.77464 0.70779 0.7631 0.0
C808 C 0.85511 0.78204 0.68955 0.0
C809 C 0.85096 0.76493 0.69112 0.0
C810 C 0.8404 0.75706 0.72423 0.0
C811 C 0.82756 0.74851 0.71585 0.0
C812 C 0.81499 0.74572 0.72826 0.0
C813 C 0.81541 0.75145 0.7495 0.0
C814 C 0.82876 0.75918 0.75836 0.0
C815 C 0.84116 0.76179 0.74558 0.0
C816 C 0.80107 0.73709 0.71852 0.0
C817 C 0.82965 0.7652 0.78105 0.0
C818 C 0.76528 0.83498 0.71863 0.0
C819 C 0.75455 0.82353 0.71137 0.0
C820 C 0.75063 0.81154 0.72457 0.0
C821 C 0.75726 0.81125 0.74555 0.0
C822 C 0.76692 0.82355 0.75347 0.0
C823 C 0.77082 0.83526 0.73983 0.0
C824 C 0.7399 0.79883 0.71586 0.0
C825 C 0.77372 0.82392 0.77602 0.0
C826 C 0.69125 0.75303 0.85426 0.0
C827 C 0.68913 0.77049 0.85186 0.0
C828 C 0.70069 0.77716 0.81889 0.0
C829 C 0.70033 0.77172 0.79784 0.0
C830 C 0.71297 0.77391 0.78533 0.0
C831 C 0.72619 0.7819 0.79415 0.0
C832 C 0.72627 0.78821 0.81505 0.0
C833 C 0.71346 0.78588 0.82718 0.0
C834 C 0.71242 0.7673 0.76294 0.0
C835 C 0.74004 0.79715 0.8247 0.0
C836 C 0.78613 0.73604 0.78555 0.0
C837 C 0.79938 0.73766 0.77416 0.0
C838 C 0.80138 0.75055 0.76178 0.0
C839 C 0.78999 0.76226 0.7608 0.0
C840 C 0.79164 0.77533 0.74838 0.0
C841 C 0.78036 0.78675 0.74743 0.0
C842 C 0.76702 0.78563 0.75899 0.0
C843 C 0.75557 0.79729 0.75832 0.0
C844 C 0.74238 0.79577 0.76982 0.0
C845 C 0.7403 0.7828 0.78206 0.0
C846 C 0.75164 0.77103 0.78299 0.0
C847 C 0.74986 0.75782 0.79513 0.0
C848 C 0.76108 0.74631 0.79591 0.0
C849 C 0.7746 0.74763 0.78478 0.0
C850 C 0.77658 0.76081 0.77241 0.0
C851 C 0.76508 0.7725 0.77147 0.0
C852 C 0.78806 0.84729 0.67808 0.0
C853 C 0.77137 0.84464 0.68391 0.0
O854 O 0.77755 0.68201 0.83206 0.0
O855 O 0.68845 0.77397 0.83054 0.0
O856 O 0.77069 0.84581 0.70577 0.0
O857 O 0.85224 0.76092 0.71225 0.0
H858 H 0.77923 0.66444 0.80979 0.0
H859 H 0.75199 0.67358 0.80722 0.0
H860 H 0.74966 0.66939 0.8345 0.0
H861 H 0.75267 0.65386 0.81539 0.0
H862 H 0.78803 0.70795 0.84769 0.0
H863 H 0.77223 0.6844 0.78965 0.0
H864 H 0.80436 0.74043 0.82347 0.0
H865 H 0.798 0.73341 0.8482 0.0
H866 H 0.78532 0.74495 0.83143 0.0
H867 H 0.7691 0.69673 0.75739 0.0
H868 H 0.78533 0.70941 0.75454 0.0
H869 H 0.76669 0.71746 0.75897 0.0
H870 H 0.83887 0.7636 0.68432 0.0
H871 H 0.85423 0.78552 0.67272 0.0
H872 H 0.86705 0.78435 0.69629 0.0
H873 H 0.84695 0.78923 0.69853 0.0
H874 H 0.82728 0.74406 0.69964 0.0
H875 H 0.85129 0.76808 0.752 0.0
H876 H 0.79086 0.74485 0.71806 0.0
H877 H 0.79839 0.72716 0.72846 0.0
H878 H 0.80285 0.7327 0.70215 0.0
H879 H 0.84121 0.77011 0.78595 0.0
H880 H 0.82704 0.75573 0.79182 0.0
H881 H 0.8208 0.77434 0.783 0.0
H882 H 0.76837 0.83279 0.67772 0.0
H883 H 0.74936 0.82375 0.69538 0.0
H884 H 0.77874 0.84439 0.74546 0.0
H885 H 0.74605 0.78757 0.71631 0.0
H886 H 0.73554 0.80083 0.69928 0.0
H887 H 0.72987 0.79795 0.72594 0.0
H888 H 0.77897 0.83533 0.78066 0.0
H889 H 0.78282 0.81493 0.7777 0.0
H890 H 0.76467 0.82126 0.78714 0.0
H891 H 0.69917 0.77616 0.86061 0.0
H892 H 0.69121 0.75002 0.87124 0.0
H893 H 0.70253 0.74943 0.8482 0.0
H894 H 0.68193 0.74645 0.84513 0.0
H895 H 0.69027 0.76532 0.79143 0.0
H896 H 0.7135 0.79099 0.843 0.0
H897 H 0.72128 0.75809 0.76171 0.0
H898 H 0.71524 0.77645 0.75179 0.0
H899 H 0.70092 0.76231 0.75794 0.0
H900 H 0.73817 0.80164 0.841 0.0
H901 H 0.74254 0.80705 0.8146 0.0
H902 H 0.7504 0.78958 0.8253 0.0
H903 H 0.80813 0.72868 0.7747 0.0
H904 H 0.80166 0.77689 0.73919 0.0
H905 H 0.78229 0.79648 0.7375 0.0
H906 H 0.73367 0.80478 0.76927 0.0
H907 H 0.73976 0.75619 0.80414 0.0
H908 H 0.75903 0.73639 0.80543 0.0
H909 H 0.78878 0.84691 0.66057 0.0
H910 H 0.7956 0.83804 0.68481 0.0
H911 H 0.79254 0.85862 0.68453 0.0
C912 C 0.02891 0.31496 0.55018 0.0
C913 C 0.03291 0.32932 0.55925 0.0
C914 C 0.02393 0.33996 0.54881 0.0
C915 C 0.01502 0.33154 0.53398 0.0
N916 N 0.01768 0.31614 0.53443 0.0
Co917 Co 0.00756 0.29972 0.51524 0.0
N918 N 0.9963 0.3156 0.49769 0.0
C919 C 0.99754 0.33115 0.50004 0.0
C920 C 0.98855 0.33906 0.48542 0.0
C921 C 0.98108 0.32789 0.47302 0.0
C922 C 0.9859 0.31378 0.48093 0.0
N923 N 0.99693 0.28325 0.49671 0.0
C924 C 0.98605 0.2845 0.48056 0.0
C925 C 0.98088 0.27006 0.47288 0.0
C926 C 0.98876 0.25934 0.48461 0.0
C927 C 0.99816 0.26777 0.4988 0.0
N928 N 0.01947 0.28389 0.53206 0.0
C929 C 0.01885 0.26833 0.5291 0.0
C930 C 0.02873 0.26046 0.54263 0.0
C931 C 0.03639 0.27166 0.55468 0.0
C932 C 0.03075 0.28578 0.54768 0.0
N933 N 0.99016 0.29885 0.53438 0.0
C934 C 0.96405 0.29707 0.55874 0.0
C935 C 0.97349 0.28422 0.5559 0.0
C936 C 0.98632 0.28533 0.54364 0.0
C937 C 0.96807 0.31093 0.54976 0.0
C938 C 0.98119 0.31163 0.53799 0.0
N939 N 0.02485 0.30057 0.49613 0.0
C940 C 0.04256 0.28756 0.47349 0.0
C941 C 0.0503 0.30142 0.47056 0.0
C942 C 0.04497 0.3149 0.48032 0.0
C943 C 0.03221 0.31425 0.49279 0.0
C944 C 0.03001 0.28738 0.48633 0.0
H945 H 0.02861 0.32493 0.49973 0.0
H946 H 0.02481 0.27639 0.48834 0.0
H947 H 0.99279 0.27499 0.54172 0.0
H948 H 0.98372 0.32261 0.53185 0.0
C949 C 0.00594 0.3379 0.51744 0.0
C950 C 0.03675 0.30064 0.55605 0.0
C951 C 0.97984 0.299 0.47251 0.0
C952 C 0.0086 0.26147 0.51379 0.0
H953 H 0.04179 0.33194 0.57159 0.0
H954 H 0.02443 0.35241 0.551 0.0
H955 H 0.98722 0.35146 0.48433 0.0
H956 H 0.97276 0.32989 0.45992 0.0
H957 H 0.97218 0.2675 0.46028 0.0
H958 H 0.98771 0.24688 0.48304 0.0
H959 H 0.03023 0.24807 0.54353 0.0
H960 H 0.04524 0.26964 0.5671 0.0
H961 H 0.97076 0.27325 0.56265 0.0
H962 H 0.96117 0.32125 0.55194 0.0
H963 H 0.04644 0.27679 0.46639 0.0
H964 H 0.0506 0.32591 0.47829 0.0
C965 C 0.69665 0.0291 0.54135 0.0
C966 C 0.682 0.03319 0.54735 0.0
C967 C 0.67171 0.02463 0.5347 0.0
C968 C 0.68063 0.01572 0.52194 0.0
N969 N 0.696 0.01803 0.5257 0.0
Co970 Co 0.71304 0.00684 0.51146 0.0
N971 N 0.6979 0.99468 0.49246 0.0
C972 C 0.68244 0.99681 0.49047 0.0
C973 C 0.67508 0.98729 0.47537 0.0
C974 C 0.68653 0.97846 0.4673 0.0
C975 C 0.70026 0.98302 0.47819 0.0
N976 N 0.73006 0.9948 0.49833 0.0
C977 C 0.72934 0.98227 0.48488 0.0
C978 C 0.74398 0.97637 0.48165 0.0
C979 C 0.75429 0.98561 0.49317 0.0
C980 C 0.74543 0.99642 0.50302 0.0
N981 N 0.72824 0.01964 0.52958 0.0
C982 C 0.74379 0.01959 0.52856 0.0
C983 C 0.75123 0.03058 0.54144 0.0
C984 C 0.73973 0.03825 0.55114 0.0
C985 C 0.72587 0.03136 0.54375 0.0
N986 N 0.71257 0.99098 0.53331 0.0
C987 C 0.71242 0.96763 0.56339 0.0
C988 C 0.72595 0.97577 0.55998 0.0
C989 C 0.72576 0.98734 0.54509 0.0
C990 C 0.69888 0.97153 0.55161 0.0
C991 C 0.69921 0.98318 0.53676 0.0
N992 N 0.71354 0.02289 0.48955 0.0
C993 C 0.72784 0.03778 0.4654 0.0
C994 C 0.71529 0.04762 0.46179 0.0
C995 C 0.70165 0.04461 0.47158 0.0
C996 C 0.70094 0.03212 0.48502 0.0
C997 C 0.72677 0.02565 0.4793 0.0
H998 H 0.69008 0.03035 0.49166 0.0
H999 H 0.73694 0.01888 0.48165 0.0
H1000 H 0.73648 0.99305 0.54315 0.0
H1001 H 0.68856 0.98562 0.52812 0.0
C1002 C 0.675 0.00634 0.50488 0.0
C1003 C 0.71076 0.03662 0.55023 0.0
C1004 C 0.71512 0.97558 0.47494 0.0
C1005 C 0.75115 0.00844 0.5164 0.0
H1006 H 0.67904 0.04175 0.55927 0.0
H1007 H 0.65921 0.02518 0.53442 0.0
H1008 H 0.6628 0.98645 0.47126 0.0
H1009 H 0.6849 0.96947 0.45511 0.0
H1010 H 0.74697 0.96635 0.47211 0.0
H1011 H 0.76676 0.98449 0.49439 0.0
H1012 H 0.76354 0.03272 0.54359 0.0
H1013 H 0.74145 0.04791 0.56229 0.0
H1014 H 0.73682 0.973 0.56839 0.0
H1015 H 0.68807 0.96567 0.55384 0.0
H1016 H 0.73863 0.03973 0.45803 0.0
H1017 H 0.69156 0.05184 0.46883 0.0
C1018 C 0.02654 0.73128 0.52737 0.0
C1019 C 0.03167 0.746 0.53374 0.0
C1020 C 0.02163 0.75618 0.52427 0.0
C1021 C 0.01106 0.74713 0.51264 0.0
N1022 N 0.01356 0.73176 0.51438 0.0
Co1023 Co 0.00173 0.71451 0.49882 0.0
N1024 N 0.98763 0.7295 0.48377 0.0
C1025 C 0.98718 0.745 0.48724 0.0
C1026 C 0.97541 0.75216 0.47593 0.0
C1027 C 0.96775 0.74054 0.46469 0.0
C1028 C 0.97544 0.72689 0.46966 0.0
N1029 N 0.9906 0.6973 0.48227 0.0
C1030 C 0.97878 0.6978 0.46729 0.0
C1031 C 0.97486 0.68314 0.45917 0.0
C1032 C 0.98435 0.67298 0.4697 0.0
C1033 C 0.99357 0.68199 0.48343 0.0
N1034 N 0.01534 0.69952 0.51466 0.0
C1035 C 0.01413 0.68393 0.51392 0.0
C1036 C 0.02499 0.67671 0.52683 0.0
C1037 C 0.03372 0.6884 0.53631 0.0
C1038 C 0.02765 0.70211 0.52853 0.0
N1039 N 0.98677 0.71357 0.52156 0.0
C1040 C 0.96464 0.71298 0.55245 0.0
C1041 C 0.96748 0.6998 0.54008 0.0
C1042 C 0.97872 0.70027 0.52505 0.0
C1043 C 0.97308 0.72634 0.5494 0.0
C1044 C 0.98387 0.72643 0.53392 0.0
N1045 N 0.0166 0.71551 0.47631 0.0
C1046 C 0.0362 0.7035 0.45568 0.0
C1047 C 0.04016 0.71782 0.44788 0.0
C1048 C 0.03169 0.73081 0.4537 0.0
C1049 C 0.0199 0.72937 0.46761 0.0
C1050 C 0.02448 0.70262 0.46991 0.0
H1051 H 0.01382 0.73969 0.47149 0.0
H1052 H 0.02222 0.69149 0.47593 0.0
H1053 H 0.98057 0.68972 0.51646 0.0
H1054 H 0.98953 0.73718 0.53224 0.0
C1055 C 0.9984 0.75261 0.50044 0.0
C1056 C 0.0344 0.71722 0.53402 0.0
C1057 C 0.97046 0.71172 0.46103 0.0
C1058 C 0.00412 0.6764 0.4989 0.0
H1059 H 0.04166 0.74904 0.54413 0.0
H1060 H 0.02202 0.76869 0.52563 0.0
H1061 H 0.9727 0.76438 0.47587 0.0
H1062 H 0.95756 0.742 0.4542 0.0
H1063 H 0.96583 0.68009 0.44721 0.0
H1064 H 0.98425 0.66049 0.46796 0.0
H1065 H 0.02678 0.66441 0.52847 0.0
H1066 H 0.04368 0.68697 0.54725 0.0
H1067 H 0.96119 0.68917 0.54214 0.0
H1068 H 0.97109 0.73684 0.55862 0.0
H1069 H 0.0425 0.69315 0.45147 0.0
H1070 H 0.03426 0.74208 0.44768 0.0
C1071 C 0.31316 0.98211 0.54431 0.0
C1072 C 0.32765 0.97763 0.55246 0.0
C1073 C 0.33802 0.98821 0.54588 0.0
C1074 C 0.32931 0.99854 0.53417 0.0
N1075 N 0.31413 0.9951 0.53298 0.0
Co1076 Co 0.29748 0.0068 0.51767 0.0
N1077 N 0.31255 0.01734 0.50036 0.0
C1078 C 0.32796 0.01819 0.50471 0.0
C1079 C 0.33547 0.02652 0.49026 0.0
C1080 C 0.32407 0.03146 0.47612 0.0
C1081 C 0.31017 0.02588 0.4828 0.0
N1082 N 0.28071 0.01848 0.5024 0.0
C1083 C 0.28099 0.02688 0.48464 0.0
C1084 C 0.26664 0.03349 0.47979 0.0
C1085 C 0.25719 0.02935 0.4953 0.0
C1086 C 0.26621 0.02045 0.50869 0.0
N1087 N 0.2825 0.99634 0.53516 0.0
C1088 C 0.2679 0.00086 0.53817 0.0
C1089 C 0.26015 0.99093 0.5504 0.0
C1090 C 0.27055 0.97948 0.55547 0.0
C1091 C 0.28417 0.98319 0.54616 0.0
N1092 N 0.29966 0.02357 0.53905 0.0
C1093 C 0.29877 0.04758 0.56929 0.0
C1094 C 0.30009 0.03227 0.5756 0.0
C1095 C 0.30059 0.02039 0.56018 0.0
C1096 C 0.29869 0.05077 0.54778 0.0
C1097 C 0.29926 0.03861 0.53292 0.0
N1098 N 0.29522 0.99004 0.49638 0.0
C1099 C 0.27893 0.97187 0.47609 0.0
C1100 C 0.2918 0.96538 0.46671 0.0
C1101 C 0.30646 0.97157 0.47262 0.0
C1102 C 0.30791 0.9838 0.48755 0.0
C1103 C 0.28086 0.98425 0.49062 0.0
H1104 H 0.31933 0.98818 0.49196 0.0
H1105 H 0.27071 0.98902 0.49735 0.0
H1106 H 0.3011 0.00861 0.56533 0.0
H1107 H 0.29873 0.04143 0.51645 0.0
C1108 C 0.33508 0.00964 0.52103 0.0
C1109 C 0.29866 0.97446 0.54874 0.0
C1110 C 0.29498 0.03077 0.47384 0.0
C1111 C 0.26104 0.01241 0.52582 0.0
H1112 H 0.3304 0.96777 0.56214 0.0
H1113 H 0.35048 0.98799 0.54854 0.0
H1114 H 0.34778 0.0286 0.48989 0.0
H1115 H 0.32574 0.03875 0.46279 0.0
H1116 H 0.26348 0.04095 0.46677 0.0
H1117 H 0.24513 0.03235 0.49654 0.0
H1118 H 0.24813 0.99144 0.55417 0.0
H1119 H 0.26823 0.96951 0.56474 0.0
H1120 H 0.30005 0.02948 0.59221 0.0
H1121 H 0.29759 0.06254 0.54245 0.0
H1122 H 0.26738 0.96737 0.47244 0.0
H1123 H 0.31676 0.96718 0.46562 0.0
C1124 C 0.52808 0.80934 0.03611 0.0
C1125 C 0.5322 0.82307 0.04693 0.0
C1126 C 0.52366 0.83448 0.03747 0.0
C1127 C 0.51477 0.82709 0.02161 0.0
N1128 N 0.51698 0.81162 0.0205 0.0
Co1129 Co 0.50629 0.7964 4e-05 0.0
N1130 N 0.49543 0.81343 0.98422 0.0
C1131 C 0.497 0.82884 0.98816 0.0
C1132 C 0.48837 0.83771 0.97429 0.0
C1133 C 0.48078 0.82737 0.96069 0.0
C1134 C 0.48515 0.81273 0.9672 0.0
N1135 N 0.4952 0.78114 0.98004 0.0
C1136 C 0.48449 0.78347 0.96394 0.0
C1137 C 0.47897 0.76954 0.95492 0.0
C1138 C 0.48644 0.75804 0.96562 0.0
C1139 C 0.496 0.76552 0.98061 0.0
N1140 N 0.51772 0.77942 0.01529 0.0
C1141 C 0.51671 0.76405 0.01073 0.0
C1142 C 0.52695 0.75531 0.02259 0.0
C1143 C 0.53518 0.76571 0.03532 0.0
C1144 C 0.52932 0.78026 0.03065 0.0
N1145 N 0.48892 0.79503 0.01918 0.0
C1146 C 0.46295 0.79282 0.04383 0.0
C1147 C 0.47156 0.77973 0.03881 0.0
C1148 C 0.48435 0.78107 0.02651 0.0
C1149 C 0.46775 0.80708 0.03679 0.0
C1150 C 0.48074 0.80794 0.02477 0.0
N1151 N 0.52353 0.79776 0.98093 0.0
C1152 C 0.54134 0.78529 0.95792 0.0
C1153 C 0.54895 0.79928 0.95528 0.0
C1154 C 0.54344 0.81257 0.96541 0.0
C1155 C 0.53079 0.81156 0.97804 0.0
C1156 C 0.52874 0.7848 0.97065 0.0
H1157 H 0.52717 0.82206 0.98546 0.0
H1158 H 0.52355 0.77376 0.97217 0.0
H1159 H 0.49021 0.7706 0.02299 0.0
H1160 H 0.48382 0.81919 0.0201 0.0
C1161 C 0.50573 0.83454 0.00598 0.0
C1162 C 0.53544 0.79456 0.04073 0.0
C1163 C 0.47882 0.79855 0.95716 0.0
C1164 C 0.50627 0.75821 0.99486 0.0
H1165 H 0.54077 0.82471 0.05996 0.0
H1166 H 0.52431 0.84677 0.04118 0.0
H1167 H 0.48745 0.85019 0.97436 0.0
H1168 H 0.47272 0.83025 0.94766 0.0
H1169 H 0.47034 0.76778 0.94202 0.0
H1170 H 0.48507 0.7457 0.96281 0.0
H1171 H 0.52849 0.74289 0.02171 0.0
H1172 H 0.54463 0.76285 0.04647 0.0
H1173 H 0.46823 0.76841 0.04394 0.0
H1174 H 0.46158 0.81759 0.04068 0.0
H1175 H 0.5453 0.77462 0.95066 0.0
H1176 H 0.54884 0.82372 0.96363 0.0
C1177 C 0.1998 0.53153 0.04492 0.0
C1178 C 0.18507 0.5351 0.05114 0.0
C1179 C 0.17494 0.52664 0.03813 0.0
C1180 C 0.18404 0.5183 0.02494 0.0
N1181 N 0.19936 0.5209 0.02873 0.0
Co1182 Co 0.21661 0.51032 0.01427 0.0
N1183 N 0.20168 0.49814 0.995 0.0
C1184 C 0.18619 0.50001 0.99294 0.0
C1185 C 0.17901 0.49024 0.97798 0.0
C1186 C 0.19062 0.48152 0.97014 0.0
C1187 C 0.20423 0.48642 0.98097 0.0
N1188 N 0.23385 0.4988 0.00095 0.0
C1189 C 0.23331 0.4863 0.98747 0.0
C1190 C 0.24801 0.4808 0.98382 0.0
C1191 C 0.25821 0.49017 0.99541 0.0
C1192 C 0.24918 0.50068 0.00559 0.0
N1193 N 0.23156 0.52323 0.03261 0.0
C1194 C 0.24711 0.52354 0.03157 0.0
C1195 C 0.25432 0.53433 0.04502 0.0
C1196 C 0.24267 0.54145 0.05512 0.0
C1197 C 0.22895 0.53447 0.04736 0.0
N1198 N 0.21654 0.49411 0.03578 0.0
C1199 C 0.21728 0.46988 0.06458 0.0
C1200 C 0.23017 0.47933 0.06282 0.0
C1201 C 0.2296 0.49122 0.04833 0.0
C1202 C 0.20389 0.47291 0.052 0.0
C1203 C 0.20369 0.48515 0.03799 0.0
N1204 N 0.21677 0.52668 0.99261 0.0
C1205 C 0.23062 0.54161 0.96792 0.0
C1206 C 0.21769 0.55083 0.96347 0.0
C1207 C 0.20419 0.54765 0.97362 0.0
C1208 C 0.20393 0.53553 0.98783 0.0
C1209 C 0.22995 0.52979 0.98242 0.0
H1210 H 0.19318 0.53363 0.99476 0.0
H1211 H 0.24037 0.52349 0.98518 0.0
H1212 H 0.23997 0.49774 0.04732 0.0
H1213 H 0.19308 0.48708 0.02892 0.0
C1214 C 0.17857 0.50909 0.00762 0.0
C1215 C 0.21373 0.53919 0.05405 0.0
C1216 C 0.21917 0.47914 0.97813 0.0
C1217 C 0.25469 0.51264 0.01924 0.0
H1218 H 0.18196 0.54327 0.06349 0.0
H1219 H 0.16244 0.52686 0.03794 0.0
H1220 H 0.16673 0.48906 0.97401 0.0
H1221 H 0.18917 0.47226 0.95828 0.0
H1222 H 0.25108 0.47096 0.97399 0.0
H1223 H 0.2707 0.48931 0.99646 0.0
H1224 H 0.2666 0.53661 0.0474 0.0
H1225 H 0.2442 0.55073 0.06688 0.0
H1226 H 0.24084 0.47727 0.07214 0.0
H1227 H 0.1936 0.46589 0.05303 0.0
H1228 H 0.24139 0.54372 0.96058 0.0
H1229 H 0.19381 0.55439 0.97046 0.0
C1230 C 0.47713 0.23081 0.97904 0.0
C1231 C 0.47092 0.24484 0.97264 0.0
C1232 C 0.4798 0.25615 0.9827 0.0
C1233 C 0.49084 0.24842 0.99466 0.0
N1234 N 0.48971 0.23283 0.99262 0.0
Co1235 Co 0.50271 0.21712 0.00816 0.0
N1236 N 0.51531 0.23381 0.0238 0.0
C1237 C 0.5138 0.24929 0.02177 0.0
C1238 C 0.5245 0.2578 0.03396 0.0
C1239 C 0.53354 0.24713 0.04422 0.0
C1240 C 0.52774 0.23269 0.0377 0.0
N1241 N 0.51546 0.20144 0.02408 0.0
C1242 C 0.52768 0.20343 0.03829 0.0
C1243 C 0.5332 0.18942 0.04578 0.0
C1244 C 0.52429 0.17814 0.03569 0.0
C1245 C 0.51385 0.18587 0.02276 0.0
N1246 N 0.49038 0.20045 0.99216 0.0
C1247 C 0.49243 0.18498 0.99333 0.0
C1248 C 0.48204 0.17647 0.9806 0.0
C1249 C 0.47268 0.18713 0.97084 0.0
C1250 C 0.47792 0.20156 0.97831 0.0
N1251 N 0.51768 0.21689 0.98553 0.0
C1252 C 0.54026 0.21708 0.95511 0.0
C1253 C 0.53531 0.2032 0.9633 0.0
C1254 C 0.52411 0.20337 0.9784 0.0
C1255 C 0.53347 0.2308 0.96214 0.0
C1256 C 0.52225 0.23043 0.97705 0.0
N1257 N 0.48772 0.2174 0.03076 0.0
C1258 C 0.4695 0.2042 0.05162 0.0
C1259 C 0.46509 0.2182 0.06097 0.0
C1260 C 0.47235 0.23173 0.0553 0.0
C1261 C 0.48346 0.23108 0.04022 0.0
C1262 C 0.4809 0.20404 0.03683 0.0
H1263 H 0.48826 0.24186 0.03629 0.0
H1264 H 0.4839 0.193 0.0304 0.0
H1265 H 0.52096 0.19244 0.98422 0.0
H1266 H 0.51766 0.2413 0.9817 0.0
C1267 C 0.50221 0.25548 0.00825 0.0
C1268 C 0.47024 0.21591 0.97256 0.0
C1269 C 0.53475 0.21826 0.04463 0.0
C1270 C 0.50322 0.17882 0.00805 0.0
H1271 H 0.46084 0.24671 0.96209 0.0
H1272 H 0.47823 0.26853 0.98172 0.0
H1273 H 0.5257 0.27026 0.03506 0.0
H1274 H 0.5434 0.2497 0.05506 0.0
H1275 H 0.54286 0.18755 0.05708 0.0
H1276 H 0.52553 0.16576 0.03719 0.0
H1277 H 0.48106 0.164 0.97914 0.0
H1278 H 0.46287 0.18459 0.95988 0.0
H1279 H 0.54005 0.19222 0.95818 0.0
H1280 H 0.53705 0.24192 0.95667 0.0
H1281 H 0.46427 0.19341 0.0558 0.0
H1282 H 0.46919 0.24285 0.06209 0.0
C1283 C 0.77987 0.52501 0.04774 0.0
C1284 C 0.76542 0.52915 0.05447 0.0
C1285 C 0.75484 0.52029 0.04277 0.0
C1286 C 0.76341 0.5112 0.02977 0.0
N1287 N 0.77884 0.51355 0.03268 0.0
Co1288 Co 0.79554 0.50249 0.01769 0.0
N1289 N 0.77994 0.4913 0.99805 0.0
C1290 C 0.76436 0.49283 0.99763 0.0
C1291 C 0.75663 0.48356 0.98261 0.0
C1292 C 0.7679 0.47563 0.97278 0.0
C1293 C 0.78197 0.48058 0.98238 0.0
N1294 N 0.81223 0.49094 0.0032 0.0
C1295 C 0.81119 0.47989 0.98749 0.0
C1296 C 0.82567 0.47445 0.98257 0.0
C1297 C 0.83622 0.48217 0.99584 0.0
C1298 C 0.82763 0.49186 0.00803 0.0
N1299 N 0.81112 0.51428 0.03669 0.0
C1300 C 0.8267 0.51312 0.03676 0.0
C1301 C 0.8344 0.52363 0.05017 0.0
C1302 C 0.82307 0.53224 0.05892 0.0
C1303 C 0.80906 0.52635 0.05044 0.0
N1304 N 0.79491 0.48565 0.03841 0.0
C1305 C 0.79398 0.46131 0.06713 0.0
C1306 C 0.80768 0.46942 0.06467 0.0
C1307 C 0.8079 0.4814 0.05029 0.0
C1308 C 0.78076 0.46567 0.05505 0.0
C1309 C 0.78146 0.47778 0.04107 0.0
N1310 N 0.79617 0.51931 0.99718 0.0
C1311 C 0.81069 0.53713 0.97722 0.0
C1312 C 0.79714 0.54481 0.97063 0.0
C1313 C 0.78308 0.53924 0.97708 0.0
C1314 C 0.78285 0.52655 0.99018 0.0
C1315 C 0.80995 0.52448 0.99038 0.0
H1316 H 0.77178 0.52288 0.99463 0.0
H1317 H 0.82068 0.51922 0.99511 0.0
H1318 H 0.81875 0.48696 0.04906 0.0
H1319 H 0.77093 0.48039 0.03249 0.0
C1320 C 0.75728 0.50185 0.01298 0.0
C1321 C 0.7941 0.53298 0.05513 0.0
C1322 C 0.79684 0.47418 0.97679 0.0
C1323 C 0.83372 0.50241 0.02347 0.0
H1324 H 0.76276 0.53801 0.06615 0.0
H1325 H 0.74237 0.52089 0.04305 0.0
H1326 H 0.74424 0.48232 0.97965 0.0
H1327 H 0.76589 0.46687 0.96035 0.0
H1328 H 0.82832 0.4658 0.97061 0.0
H1329 H 0.84867 0.48093 0.99645 0.0
H1330 H 0.84677 0.52514 0.0528 0.0
H1331 H 0.82498 0.54197 0.06991 0.0
H1332 H 0.81822 0.46661 0.0738 0.0
H1333 H 0.76991 0.45957 0.05596 0.0
H1334 H 0.82187 0.54104 0.97263 0.0
H1335 H 0.77224 0.5446 0.97198 0.0
H1336 H 0.1533 0.26138 0.34852 0.0
H1337 H 0.13186 0.27306 0.3667 0.0
H1338 H 0.16375 0.28957 0.41742 0.0
H1339 H 0.18521 0.27753 0.39945 0.0
H1340 H 0.14008 0.27624 0.43309 0.0
H1341 H 0.1459 0.31473 0.38234 0.0
H1342 H 0.14888 0.32558 0.34715 0.0
H1343 H 0.1043 0.30768 0.32546 0.0
H1344 H 0.10114 0.29651 0.36043 0.0
H1345 H 0.07823 0.31475 0.48174 0.0
H1346 H 0.10205 0.31256 0.4627 0.0
H1347 H 0.07754 0.28613 0.41243 0.0
H1348 H 0.05371 0.28827 0.43139 0.0
H1349 H 0.09913 0.30847 0.39829 0.0
H1350 H 0.09603 0.26701 0.44852 0.0
H1351 H 0.09328 0.25708 0.48433 0.0
H1352 H 0.13373 0.28246 0.50754 0.0
H1353 H 0.13658 0.2927 0.47189 0.0
C1354 C 0.15573 0.26766 0.36343 0.0
C1355 C 0.1709 0.26865 0.37254 0.0
C1356 C 0.1435 0.27441 0.37374 0.0
C1357 C 0.14622 0.2824 0.39328 0.0
C1358 C 0.1614 0.28354 0.40231 0.0
C1359 C 0.17364 0.2767 0.39203 0.0
C1360 C 0.13306 0.28854 0.40491 0.0
C1361 C 0.13133 0.28358 0.42561 0.0
C1362 C 0.12152 0.29798 0.3951 0.0
C1363 C 0.12334 0.30467 0.374 0.0
C1364 C 0.13678 0.31299 0.37002 0.0
C1365 C 0.13849 0.31922 0.35011 0.0
C1366 C 0.1268 0.31729 0.33407 0.0
C1367 C 0.11335 0.30916 0.33791 0.0
C1368 C 0.11159 0.30289 0.35778 0.0
C1369 C 0.07788 0.30874 0.46643 0.0
C1370 C 0.0642 0.30158 0.45805 0.0
C1371 C 0.09147 0.30747 0.45564 0.0
C1372 C 0.09151 0.29912 0.43626 0.0
C1373 C 0.07769 0.29264 0.42735 0.0
C1374 C 0.06415 0.29376 0.43824 0.0
C1375 C 0.10616 0.29592 0.42613 0.0
C1376 C 0.1081 0.30138 0.40577 0.0
C1377 C 0.118 0.28709 0.43629 0.0
C1378 C 0.11642 0.28075 0.45762 0.0
C1379 C 0.10427 0.27056 0.4613 0.0
C1380 C 0.1027 0.26486 0.48155 0.0
C1381 C 0.1133 0.26918 0.49821 0.0
C1382 C 0.12551 0.27915 0.49463 0.0
C1383 C 0.12712 0.28489 0.4744 0.0
H1384 H 0.11206 0.26476 0.51389 0.0
H1385 H 0.12814 0.32213 0.31867 0.0
H1386 H 0.75061 0.18085 0.36364 0.0
H1387 H 0.74093 0.15861 0.39366 0.0
H1388 H 0.74384 0.11533 0.33959 0.0
H1389 H 0.75336 0.13638 0.3081 0.0
H1390 H 0.71707 0.11536 0.36176 0.0
H1391 H 0.76974 0.1242 0.38709 0.0
H1392 H 0.79239 0.13972 0.40023 0.0
H1393 H 0.76791 0.15568 0.45384 0.0
H1394 H 0.74502 0.1404 0.44086 0.0
H1395 H 0.72486 0.04787 0.42158 0.0
H1396 H 0.72875 0.07047 0.39997 0.0
H1397 H 0.71319 0.10039 0.4502 0.0
H1398 H 0.70904 0.07772 0.4718 0.0
H1399 H 0.74218 0.10898 0.4336 0.0
H1400 H 0.69033 0.09755 0.40998 0.0
H1401 H 0.66819 0.08134 0.39687 0.0
H1402 H 0.69124 0.0699 0.34013 0.0
H1403 H 0.71365 0.08585 0.35306 0.0
C1404 C 0.75 0.16863 0.35951 0.0
C1405 C 0.7503 0.16126 0.33151 0.0
C1406 C 0.74336 0.15481 0.37775 0.0
C1407 C 0.7405 0.13477 0.36953 0.0
C1408 C 0.74516 0.12752 0.34359 0.0
C1409 C 0.75185 0.14037 0.32423 0.0
C1410 C 0.73492 0.1236 0.38445 0.0
C1411 C 0.72259 0.11391 0.37744 0.0
C1412 C 0.74188 0.12209 0.40507 0.0
C1413 C 0.75559 0.13134 0.41284 0.0
C1414 C 0.76913 0.13114 0.40157 0.0
C1415 C 0.78202 0.13987 0.40901 0.0
C1416 C 0.78156 0.14873 0.42781 0.0
C1417 C 0.76823 0.14884 0.43925 0.0
C1418 C 0.75529 0.14015 0.43186 0.0
C1419 C 0.72215 0.05926 0.42789 0.0
C1420 C 0.71664 0.06112 0.44826 0.0
C1421 C 0.72431 0.07212 0.41556 0.0
C1422 C 0.72119 0.08704 0.42351 0.0
C1423 C 0.7156 0.08894 0.44382 0.0
C1424 C 0.71317 0.07603 0.45604 0.0
C1425 C 0.72447 0.10059 0.41079 0.0
C1426 C 0.73643 0.11066 0.41811 0.0
C1427 C 0.71715 0.10249 0.39045 0.0
C1428 C 0.70375 0.0928 0.38259 0.0
C1429 C 0.69076 0.09145 0.3948 0.0
C1430 C 0.67814 0.08233 0.38738 0.0
C1431 C 0.67833 0.07456 0.3677 0.0
C1432 C 0.69112 0.07591 0.35539 0.0
C1433 C 0.70378 0.08501 0.36275 0.0
H1434 H 0.66854 0.06752 0.36197 0.0
H1435 H 0.79156 0.15547 0.43355 0.0
H1436 H 0.86051 0.75305 0.34064 0.0
H1437 H 0.88265 0.73995 0.3578 0.0
H1438 H 0.85334 0.72262 0.40477 0.0
H1439 H 0.83116 0.73602 0.38781 0.0
H1440 H 0.87852 0.73549 0.42302 0.0
H1441 H 0.86847 0.69806 0.36727 0.0
H1442 H 0.86309 0.68843 0.33047 0.0
H1443 H 0.90682 0.70609 0.31322 0.0
H1444 H 0.91238 0.71604 0.34985 0.0
H1445 H 0.94334 0.6995 0.47216 0.0
H1446 H 0.91815 0.70044 0.4523 0.0
H1447 H 0.93955 0.72246 0.40093 0.0
H1448 H 0.96479 0.72104 0.42057 0.0
H1449 H 0.91638 0.70289 0.38618 0.0
H1450 H 0.92408 0.74372 0.44018 0.0
H1451 H 0.92982 0.75335 0.47693 0.0
H1452 H 0.89018 0.72916 0.49712 0.0
H1453 H 0.88436 0.71917 0.46051 0.0
C1454 C 0.85876 0.74623 0.35442 0.0
C1455 C 0.84411 0.74543 0.36282 0.0
C1456 C 0.87139 0.73868 0.36415 0.0
C1457 C 0.86961 0.73011 0.3824 0.0
C1458 C 0.85494 0.72909 0.39063 0.0
C1459 C 0.84229 0.7367 0.38093 0.0
C1460 C 0.88335 0.72341 0.39382 0.0
C1461 C 0.88659 0.72805 0.41508 0.0
C1462 C 0.89404 0.71393 0.38337 0.0
C1463 C 0.8908 0.70789 0.36131 0.0
C1464 C 0.8769 0.69999 0.35561 0.0
C1465 C 0.87383 0.69446 0.33477 0.0
C1466 C 0.8846 0.69667 0.31951 0.0
C1467 C 0.89849 0.70439 0.32506 0.0
C1468 C 0.90161 0.70996 0.34587 0.0
C1469 C 0.94263 0.70419 0.45641 0.0
C1470 C 0.95579 0.71037 0.44785 0.0
C1471 C 0.9283 0.70476 0.44513 0.0
C1472 C 0.92696 0.71177 0.42532 0.0
C1473 C 0.94034 0.71703 0.4162 0.0
C1474 C 0.95468 0.71631 0.4274 0.0
C1475 C 0.91157 0.71521 0.41514 0.0
C1476 C 0.90808 0.71004 0.39416 0.0
C1477 C 0.90063 0.72423 0.4258 0.0
C1478 C 0.90388 0.73058 0.44767 0.0
C1479 C 0.91663 0.74041 0.45248 0.0
C1480 C 0.9199 0.74592 0.47328 0.0
C1481 C 0.91039 0.74184 0.48936 0.0
C1482 C 0.89755 0.73229 0.48465 0.0
C1483 C 0.89426 0.7267 0.46388 0.0
H1484 H 0.91294 0.7461 0.50546 0.0
H1485 H 0.8822 0.69238 0.30339 0.0
H1486 H 0.29515 0.84444 0.32237 0.0
H1487 H 0.3007 0.86639 0.35765 0.0
H1488 H 0.25019 0.89267 0.34064 0.0
H1489 H 0.24318 0.8715 0.30518 0.0
H1490 H 0.27483 0.91129 0.34932 0.0
H1491 H 0.25999 0.86771 0.39093 0.0
H1492 H 0.26161 0.84062 0.4021 0.0
H1493 H 0.30992 0.84663 0.41983 0.0
H1494 H 0.30858 0.87373 0.40856 0.0
H1495 H 0.26779 0.96049 0.43698 0.0
H1496 H 0.26448 0.93943 0.4109 0.0
H1497 H 0.30848 0.92038 0.4324 0.0
H1498 H 0.31133 0.9408 0.45991 0.0
H1499 H 0.28916 0.89776 0.42367 0.0
H1500 H 0.30392 0.94188 0.38628 0.0
H1501 H 0.3031 0.96893 0.37493 0.0
H1502 H 0.2569 0.96206 0.34782 0.0
H1503 H 0.25736 0.93503 0.35927 0.0
C1504 C 0.28709 0.85369 0.32537 0.0
C1505 C 0.26715 0.85399 0.31244 0.0
C1506 C 0.29002 0.86683 0.34793 0.0
C1507 C 0.27551 0.88105 0.35394 0.0
C1508 C 0.25817 0.88347 0.33712 0.0
C1509 C 0.25412 0.87095 0.31432 0.0
C1510 C 0.27884 0.89277 0.37098 0.0
C1511 C 0.27775 0.90834 0.36565 0.0
C1512 C 0.28336 0.88888 0.39199 0.0
C1513 C 0.28423 0.87263 0.39863 0.0
C1514 C 0.27098 0.8632 0.39707 0.0
C1515 C 0.27184 0.84786 0.40345 0.0
C1516 C 0.28588 0.84188 0.41159 0.0
C1517 C 0.29907 0.85126 0.41345 0.0
C1518 C 0.29826 0.8666 0.40708 0.0
C1519 C 0.27667 0.9517 0.43656 0.0
C1520 C 0.28987 0.95246 0.45063 0.0
C1521 C 0.27486 0.93975 0.42133 0.0
C1522 C 0.2864 0.9285 0.4193 0.0
C1523 C 0.29947 0.929 0.43352 0.0
C1524 C 0.30117 0.94083 0.44908 0.0
C1525 C 0.2848 0.9164 0.40214 0.0
C1526 C 0.2863 0.90075 0.40735 0.0
C1527 C 0.28094 0.92022 0.38082 0.0
C1528 C 0.28064 0.93646 0.37378 0.0
C1529 C 0.29355 0.94617 0.37802 0.0
C1530 C 0.29315 0.96149 0.37155 0.0
C1531 C 0.27995 0.96722 0.3607 0.0
C1532 C 0.26712 0.95761 0.35624 0.0
C1533 C 0.26745 0.94228 0.36269 0.0
H1534 H 0.27966 0.97909 0.35571 0.0
H1535 H 0.28652 0.83001 0.41652 0.0
H1536 H 0.17371 0.71445 0.61723 0.0
H1537 H 0.14957 0.71857 0.59594 0.0
H1538 H 0.12374 0.71433 0.6519 0.0
H1539 H 0.14777 0.70983 0.67305 0.0
H1540 H 0.11177 0.69649 0.6208 0.0
H1541 H 0.12836 0.74947 0.62775 0.0
H1542 H 0.14622 0.77148 0.6253 0.0
H1543 H 0.14704 0.76343 0.55798 0.0
H1544 H 0.12935 0.74124 0.56006 0.0
H1545 H 0.03845 0.71792 0.57691 0.0
H1546 H 0.06306 0.71876 0.59832 0.0
H1547 H 0.08795 0.71967 0.5411 0.0
H1548 H 0.06326 0.71902 0.51975 0.0
H1549 H 0.10044 0.73969 0.5723 0.0
H1550 H 0.08425 0.68661 0.56549 0.0
H1551 H 0.06594 0.66496 0.56766 0.0
H1552 H 0.06446 0.67331 0.63486 0.0
H1553 H 0.08255 0.69522 0.63302 0.0
C1554 C 0.16287 0.71462 0.62497 0.0
C1555 C 0.16259 0.71187 0.64678 0.0
C1556 C 0.14911 0.71703 0.61285 0.0
C1557 C 0.13485 0.71687 0.62236 0.0
C1558 C 0.13461 0.71451 0.64423 0.0
C1559 C 0.14833 0.712 0.65631 0.0
C1560 C 0.12009 0.71802 0.60936 0.0
C1561 C 0.10921 0.70608 0.61047 0.0
C1562 C 0.11695 0.73028 0.59537 0.0
C1563 C 0.12765 0.74358 0.5941 0.0
C1564 C 0.13246 0.7523 0.61245 0.0
C1565 C 0.14253 0.76483 0.61112 0.0
C1566 C 0.1478 0.76882 0.59151 0.0
C1567 C 0.14298 0.76031 0.57317 0.0
C1568 C 0.13292 0.74776 0.57441 0.0
C1569 C 0.04922 0.71839 0.56905 0.0
C1570 C 0.04918 0.7183 0.54687 0.0
C1571 C 0.06321 0.71886 0.58119 0.0
C1572 C 0.07731 0.71911 0.57125 0.0
C1573 C 0.0772 0.71948 0.54904 0.0
C1574 C 0.06319 0.71903 0.5369 0.0
C1575 C 0.09214 0.71827 0.58404 0.0
C1576 C 0.10304 0.73018 0.58276 0.0
C1577 C 0.09535 0.70597 0.59789 0.0
C1578 C 0.08465 0.69265 0.59908 0.0
C1579 C 0.07994 0.6839 0.58071 0.0
C1580 C 0.06961 0.67158 0.58188 0.0
C1581 C 0.06402 0.66778 0.60138 0.0
C1582 C 0.06879 0.67628 0.61976 0.0
C1583 C 0.07908 0.68865 0.61866 0.0
H1584 H 0.05602 0.65823 0.60226 0.0
H1585 H 0.15559 0.77853 0.59052 0.0
H1586 H 0.24396 0.16505 0.66189 0.0
H1587 H 0.25919 0.14733 0.64053 0.0
H1588 H 0.27506 0.12395 0.69714 0.0
H1589 H 0.25945 0.14119 0.71839 0.0
H1590 H 0.2888 0.13616 0.63727 0.0
H1591 H 0.27008 0.08597 0.68792 0.0
H1592 H 0.25002 0.08033 0.71284 0.0
H1593 H 0.21913 0.11222 0.68125 0.0
H1594 H 0.2389 0.11783 0.65596 0.0
H1595 H 0.31916 0.0644 0.59533 0.0
H1596 H 0.31286 0.08587 0.61989 0.0
H1597 H 0.26438 0.07999 0.60142 0.0
H1598 H 0.27069 0.05867 0.5771 0.0
H1599 H 0.26906 0.08269 0.64362 0.0
H1600 H 0.28441 0.10873 0.58211 0.0
H1601 H 0.30198 0.11538 0.55438 0.0
H1602 H 0.33541 0.13284 0.60203 0.0
H1603 H 0.31812 0.12607 0.63009 0.0
C1604 C 0.25106 0.1564 0.6698 0.0
C1605 C 0.25051 0.15452 0.69177 0.0
C1606 C 0.25981 0.14634 0.65762 0.0
C1607 C 0.26809 0.13423 0.66725 0.0
C1608 C 0.26862 0.13316 0.6894 0.0
C1609 C 0.25972 0.14305 0.70154 0.0
C1610 C 0.27394 0.12138 0.65397 0.0
C1611 C 0.28466 0.12443 0.63879 0.0
C1612 C 0.2682 0.10616 0.6556 0.0
C1613 C 0.25602 0.10242 0.67022 0.0
C1614 C 0.25897 0.09169 0.68623 0.0
C1615 C 0.24765 0.08851 0.70042 0.0
C1616 C 0.23333 0.09594 0.69867 0.0
C1617 C 0.23024 0.10649 0.68263 0.0
C1618 C 0.24149 0.10967 0.66836 0.0
C1619 C 0.3072 0.06774 0.59673 0.0
C1620 C 0.29535 0.06001 0.58461 0.0
C1621 C 0.30362 0.07998 0.61059 0.0
C1622 C 0.28816 0.08452 0.61239 0.0
C1623 C 0.27637 0.07663 0.60031 0.0
C1624 C 0.27994 0.06451 0.58647 0.0
C1625 C 0.28402 0.09739 0.62693 0.0
C1626 C 0.27352 0.09433 0.64236 0.0
C1627 C 0.28965 0.11263 0.62503 0.0
C1628 C 0.30006 0.11671 0.60821 0.0
C1629 C 0.29557 0.11384 0.58669 0.0
C1630 C 0.30547 0.11766 0.57091 0.0
C1631 C 0.31982 0.12447 0.57645 0.0
C1632 C 0.3243 0.12752 0.59777 0.0
C1633 C 0.31445 0.1237 0.61362 0.0
H1634 H 0.32746 0.12743 0.56421 0.0
H1635 H 0.22461 0.09351 0.70971 0.0
H1636 H 0.85977 0.29573 0.69478 0.0
H1637 H 0.88184 0.29148 0.67298 0.0
H1638 H 0.85308 0.30081 0.61672 0.0
H1639 H 0.83075 0.30452 0.63849 0.0
H1640 H 0.8735 0.27848 0.60849 0.0
H1641 H 0.87547 0.3291 0.64073 0.0
H1642 H 0.87505 0.34847 0.6701 0.0
H1643 H 0.91586 0.32835 0.69973 0.0
H1644 H 0.91637 0.3087 0.67067 0.0
H1645 H 0.93474 0.30559 0.54629 0.0
H1646 H 0.9115 0.30408 0.56663 0.0
H1647 H 0.93866 0.28489 0.61889 0.0
H1648 H 0.96188 0.28611 0.59846 0.0
H1649 H 0.91912 0.31164 0.62865 0.0
H1650 H 0.91698 0.2614 0.59357 0.0
H1651 H 0.91685 0.24343 0.56255 0.0
H1652 H 0.87576 0.26496 0.53597 0.0
H1653 H 0.87578 0.28323 0.5667 0.0
C1654 C 0.85809 0.29665 0.67774 0.0
C1655 C 0.84361 0.30068 0.66834 0.0
C1656 C 0.87072 0.29428 0.66531 0.0
C1657 C 0.86919 0.29619 0.64329 0.0
C1658 C 0.85454 0.29938 0.6337 0.0
C1659 C 0.84184 0.30157 0.64613 0.0
C1660 C 0.88306 0.29591 0.63058 0.0
C1661 C 0.88341 0.28583 0.61278 0.0
C1662 C 0.89604 0.30545 0.63623 0.0
C1663 C 0.89587 0.31734 0.65363 0.0
C1664 C 0.88429 0.32874 0.65358 0.0
C1665 C 0.88404 0.33978 0.67016 0.0
C1666 C 0.8954 0.33962 0.6868 0.0
C1667 C 0.90705 0.32845 0.68685 0.0
C1668 C 0.90734 0.31736 0.67032 0.0
C1669 C 0.9357 0.30103 0.5621 0.0
C1670 C 0.95004 0.296 0.57089 0.0
C1671 C 0.92246 0.30009 0.57361 0.0
C1672 C 0.92342 0.29432 0.59417 0.0
C1673 C 0.93773 0.28933 0.603 0.0
C1674 C 0.95093 0.29 0.59135 0.0
C1675 C 0.9096 0.29412 0.60679 0.0
C1676 C 0.90924 0.30422 0.62448 0.0
C1677 C 0.89655 0.28482 0.60078 0.0
C1678 C 0.89648 0.2738 0.58234 0.0
C1679 C 0.908 0.26241 0.58102 0.0
C1680 C 0.90793 0.25214 0.5635 0.0
C1681 C 0.89633 0.25308 0.54727 0.0
C1682 C 0.88475 0.26426 0.54854 0.0
C1683 C 0.88478 0.27457 0.56602 0.0
H1684 H 0.8963 0.24512 0.53372 0.0
H1685 H 0.89519 0.34818 0.69963 0.0
H1686 H 0.77122 0.87611 0.69077 0.0
H1687 H 0.75525 0.89529 0.67233 0.0
H1688 H 0.7307 0.85878 0.63647 0.0
H1689 H 0.74725 0.83955 0.65426 0.0
H1690 H 0.73838 0.87977 0.61102 0.0
H1691 H 0.71333 0.88156 0.67594 0.0
H1692 H 0.71132 0.88313 0.71472 0.0
H1693 H 0.73218 0.92824 0.71716 0.0
H1694 H 0.73452 0.92687 0.67844 0.0
H1695 H 0.69738 0.93966 0.55894 0.0
H1696 H 0.70059 0.91747 0.58189 0.0
H1697 H 0.73198 0.94402 0.62425 0.0
H1698 H 0.72817 0.96647 0.6021 0.0
H1699 H 0.71493 0.92532 0.6462 0.0
H1700 H 0.74465 0.92033 0.58271 0.0
H1701 H 0.74702 0.91869 0.54396 0.0
H1702 H 0.7169 0.87912 0.53938 0.0
H1703 H 0.71423 0.88065 0.57808 0.0
C1704 C 0.76239 0.87219 0.67899 0.0
C1705 C 0.76061 0.85638 0.67372 0.0
C1706 C 0.75311 0.88314 0.66864 0.0
C1707 C 0.74158 0.87849 0.6532 0.0
C1708 C 0.73949 0.86265 0.64835 0.0
C1709 C 0.74893 0.85168 0.65851 0.0
C1710 C 0.73272 0.89028 0.64095 0.0
C1711 C 0.7329 0.88952 0.61874 0.0
C1712 C 0.72569 0.90312 0.65095 0.0
C1713 C 0.72415 0.90407 0.67426 0.0
C1714 C 0.71756 0.89178 0.68475 0.0
C1715 C 0.71636 0.89264 0.70673 0.0
C1716 C 0.72163 0.90577 0.71839 0.0
C1717 C 0.72809 0.91808 0.7081 0.0
C1718 C 0.72933 0.91728 0.68612 0.0
C1719 C 0.70464 0.94092 0.57344 0.0
C1720 C 0.71274 0.95477 0.5785 0.0
C1721 C 0.70656 0.92817 0.58644 0.0
C1722 C 0.71679 0.92899 0.60453 0.0
C1723 C 0.72411 0.94309 0.6103 0.0
C1724 C 0.72207 0.95586 0.59746 0.0
C1725 C 0.7211 0.91497 0.61647 0.0
C1726 C 0.72006 0.91533 0.63856 0.0
C1727 C 0.72732 0.90174 0.6064 0.0
C1728 C 0.72912 0.90071 0.58321 0.0
C1729 C 0.73848 0.91133 0.5734 0.0
C1730 C 0.73988 0.91041 0.55146 0.0
C1731 C 0.73208 0.89883 0.53921 0.0
C1732 C 0.72291 0.8881 0.54888 0.0
C1733 C 0.72146 0.88898 0.57081 0.0
H1734 H 0.73316 0.89815 0.52222 0.0
H1735 H 0.7207 0.9064 0.73541 0.0
H1736 H 0.88091 0.75653 0.70192 0.0
H1737 H 0.89926 0.74345 0.67949 0.0
H1738 H 0.86381 0.73883 0.62884 0.0
H1739 H 0.84532 0.7518 0.65135 0.0
H1740 H 0.88352 0.71266 0.63207 0.0
H1741 H 0.88682 0.76799 0.62803 0.0
H1742 H 0.88933 0.7946 0.64292 0.0
H1743 H 0.9338 0.78361 0.67222 0.0
H1744 H 0.93144 0.75683 0.6578 0.0
H1745 H 0.93384 0.70712 0.54551 0.0
H1746 H 0.91359 0.71199 0.57044 0.0
H1747 H 0.94855 0.72416 0.61966 0.0
H1748 H 0.96866 0.71992 0.5945 0.0
H1749 H 0.92817 0.74575 0.61703 0.0
H1750 H 0.92529 0.69025 0.61967 0.0
H1751 H 0.92238 0.66365 0.60479 0.0
H1752 H 0.87727 0.67475 0.57768 0.0
H1753 H 0.87998 0.70147 0.59216 0.0
C1754 C 0.87695 0.7524 0.68618 0.0
C1755 C 0.86168 0.75509 0.67839 0.0
C1756 C 0.88743 0.74498 0.67339 0.0
C1757 C 0.88289 0.74029 0.65249 0.0
C1758 C 0.86749 0.7423 0.64497 0.0
C1759 C 0.85698 0.74975 0.65778 0.0
C1760 C 0.89461 0.73478 0.63792 0.0
C1761 C 0.89325 0.71988 0.62859 0.0
C1762 C 0.90732 0.7442 0.63361 0.0
C1763 C 0.90889 0.76037 0.64201 0.0
C1764 C 0.89709 0.77122 0.63777 0.0
C1765 C 0.89849 0.78633 0.64612 0.0
C1766 C 0.9117 0.79079 0.65855 0.0
C1767 C 0.92357 0.78014 0.66261 0.0
C1768 C 0.92221 0.76499 0.65435 0.0
C1769 C 0.93713 0.71049 0.56181 0.0
C1770 C 0.95272 0.71319 0.5682 0.0
C1771 C 0.92559 0.71323 0.57605 0.0
C1772 C 0.92953 0.71839 0.59699 0.0
C1773 C 0.94521 0.72026 0.60359 0.0
C1774 C 0.95669 0.71779 0.58928 0.0
C1775 C 0.91743 0.72337 0.61143 0.0
C1776 C 0.9186 0.73835 0.62059 0.0
C1777 C 0.90458 0.71399 0.61548 0.0
C1778 C 0.9029 0.6979 0.60685 0.0
C1779 C 0.91479 0.68705 0.6104 0.0
C1780 C 0.91317 0.67195 0.60207 0.0
C1781 C 0.89966 0.66753 0.59026 0.0
C1782 C 0.88773 0.67819 0.58681 0.0
C1783 C 0.8893 0.69331 0.5951 0.0
H1784 H 0.89843 0.65583 0.58381 0.0
H1785 H 0.91276 0.80249 0.665 0.0
H1786 H 0.28631 0.83757 0.62566 0.0
H1787 H 0.29463 0.86042 0.60723 0.0
H1788 H 0.26901 0.88966 0.64917 0.0
H1789 H 0.26017 0.86687 0.66692 0.0
H1790 H 0.26285 0.89792 0.61111 0.0
H1791 H 0.30982 0.88717 0.6517 0.0
H1792 H 0.332 0.87166 0.66505 0.0
H1793 H 0.34686 0.86549 0.60168 0.0
H1794 H 0.32462 0.88079 0.5879 0.0
H1795 H 0.29403 0.97083 0.59051 0.0
H1796 H 0.29165 0.94644 0.60898 0.0
H1797 H 0.30256 0.92095 0.5521 0.0
H1798 H 0.30452 0.94544 0.53338 0.0
H1799 H 0.31693 0.91038 0.5957 0.0
H1800 H 0.2687 0.9219 0.55623 0.0
H1801 H 0.24755 0.93953 0.54523 0.0
H1802 H 0.23591 0.94577 0.61007 0.0
H1803 H 0.25722 0.92841 0.6215 0.0
C1804 C 0.28252 0.8489 0.63094 0.0
C1805 C 0.27244 0.85041 0.64758 0.0
C1806 C 0.28737 0.86196 0.62053 0.0
C1807 C 0.28251 0.87682 0.62683 0.0
C1808 C 0.27286 0.87834 0.64389 0.0
C1809 C 0.26786 0.8653 0.6541 0.0
C1810 C 0.28669 0.89075 0.61506 0.0
C1811 C 0.27472 0.90065 0.60799 0.0
C1812 C 0.30213 0.89427 0.61052 0.0
C1813 C 0.31544 0.88497 0.61874 0.0
C1814 C 0.31773 0.88238 0.64058 0.0
C1815 C 0.33033 0.87365 0.64823 0.0
C1816 C 0.34081 0.86755 0.63421 0.0
C1817 C 0.33872 0.8702 0.61252 0.0
C1818 C 0.32612 0.8789 0.60478 0.0
C1819 C 0.29602 0.96 0.58206 0.0
C1820 C 0.29907 0.95985 0.56048 0.0
C1821 C 0.29476 0.94614 0.5926 0.0
C1822 C 0.29684 0.93195 0.58182 0.0
C1823 C 0.30094 0.93182 0.56064 0.0
C1824 C 0.30198 0.94572 0.54998 0.0
C1825 C 0.29312 0.91737 0.59214 0.0
C1826 C 0.30511 0.90745 0.59883 0.0
C1827 C 0.27774 0.91389 0.59664 0.0
C1828 C 0.26465 0.92398 0.58973 0.0
C1829 C 0.26171 0.92713 0.56816 0.0
C1830 C 0.24968 0.93706 0.56184 0.0
C1831 C 0.24041 0.9438 0.57694 0.0
C1832 C 0.24311 0.94056 0.59839 0.0
C1833 C 0.25516 0.93067 0.60479 0.0
H1834 H 0.23112 0.9515 0.57203 0.0
H1835 H 0.35057 0.86082 0.64017 0.0
H1836 H 0.13179 0.26695 0.71049 0.0
H1837 H 0.1144 0.28191 0.68723 0.0
H1838 H 0.13721 0.26411 0.63272 0.0
H1839 H 0.15511 0.2496 0.65608 0.0
H1840 H 0.12781 0.29347 0.62652 0.0
H1841 H 0.10552 0.24625 0.64967 0.0
H1842 H 0.09788 0.22784 0.67628 0.0
H1843 H 0.06824 0.26214 0.70292 0.0
H1844 H 0.07591 0.28085 0.67666 0.0
H1845 H 0.06595 0.29246 0.5471 0.0
H1846 H 0.08796 0.28837 0.5724 0.0
H1847 H 0.06085 0.30524 0.62345 0.0
H1848 H 0.0386 0.30856 0.59816 0.0
H1849 H 0.0729 0.27894 0.63296 0.0
H1850 H 0.09354 0.32541 0.6056 0.0
H1851 H 0.10121 0.3426 0.57753 0.0
H1852 H 0.13363 0.30862 0.55685 0.0
H1853 H 0.12604 0.29116 0.58465 0.0
C1854 C 0.13343 0.26659 0.69363 0.0
C1855 C 0.14491 0.25718 0.68509 0.0
C1856 C 0.12341 0.27507 0.68032 0.0
C1857 C 0.12434 0.27392 0.65821 0.0
C1858 C 0.13629 0.2652 0.64973 0.0
C1859 C 0.14647 0.25688 0.66306 0.0
C1860 C 0.11191 0.28035 0.6439 0.0
C1861 C 0.1158 0.29029 0.62785 0.0
C1862 C 0.09622 0.2763 0.64577 0.0
C1863 C 0.09141 0.26499 0.66135 0.0
C1864 C 0.09744 0.24989 0.66128 0.0
C1865 C 0.09311 0.23941 0.6763 0.0
C1866 C 0.08261 0.24383 0.69131 0.0
C1867 C 0.07639 0.25874 0.6913 0.0
C1868 C 0.08072 0.26929 0.67636 0.0
C1869 C 0.06488 0.29559 0.56369 0.0
C1870 C 0.05072 0.30089 0.5708 0.0
C1871 C 0.07746 0.29336 0.57812 0.0
C1872 C 0.07615 0.29667 0.59985 0.0
C1873 C 0.06215 0.30265 0.60677 0.0
C1874 C 0.0495 0.30465 0.59237 0.0
C1875 C 0.08869 0.29224 0.61557 0.0
C1876 C 0.08484 0.28247 0.63182 0.0
C1877 C 0.10438 0.29634 0.61366 0.0
C1878 C 0.10916 0.30694 0.59716 0.0
C1879 C 0.10226 0.32158 0.59501 0.0
C1880 C 0.1066 0.33137 0.57916 0.0
C1881 C 0.11789 0.3267 0.5654 0.0
C1882 C 0.1249 0.31223 0.56753 0.0
C1883 C 0.1206 0.3024 0.58336 0.0
H1884 H 0.12121 0.33429 0.55312 0.0
H1885 H 0.07926 0.23569 0.70293 0.0
H1886 H 0.71629 0.17499 0.63018 0.0
H1887 H 0.70874 0.14995 0.61371 0.0
H1888 H 0.74326 0.12741 0.65405 0.0
H1889 H 0.75127 0.15248 0.66984 0.0
H1890 H 0.74526 0.11711 0.61576 0.0
H1891 H 0.70319 0.12468 0.6607 0.0
H1892 H 0.68132 0.13836 0.67606 0.0
H1893 H 0.65728 0.13888 0.61468 0.0
H1894 H 0.67911 0.12539 0.59888 0.0
H1895 H 0.72072 0.0403 0.59177 0.0
H1896 H 0.7227 0.06465 0.6128 0.0
H1897 H 0.70039 0.08885 0.5607 0.0
H1898 H 0.69884 0.06458 0.53943 0.0
H1899 H 0.69134 0.09766 0.60548 0.0
H1900 H 0.73498 0.09167 0.56096 0.0
H1901 H 0.75653 0.07682 0.54666 0.0
H1902 H 0.77729 0.07244 0.60961 0.0
H1903 H 0.75571 0.08709 0.62431 0.0
C1904 C 0.72222 0.16467 0.63553 0.0
C1905 C 0.73447 0.1657 0.65114 0.0
C1906 C 0.71781 0.15034 0.62626 0.0
C1907 C 0.72534 0.13673 0.63275 0.0
C1908 C 0.7373 0.13773 0.64873 0.0
C1909 C 0.74184 0.15206 0.65779 0.0
C1910 C 0.72142 0.12158 0.62207 0.0
C1911 C 0.73348 0.11281 0.61387 0.0
C1912 C 0.70601 0.11602 0.61913 0.0
C1913 C 0.69287 0.12416 0.62857 0.0
C1914 C 0.6933 0.12783 0.65044 0.0
C1915 C 0.6809 0.13553 0.65923 0.0
C1916 C 0.66794 0.13952 0.64635 0.0
C1917 C 0.66734 0.1358 0.62464 0.0
C1918 C 0.67972 0.12811 0.61576 0.0
C1919 C 0.71603 0.0508 0.58503 0.0
C1920 C 0.70978 0.05073 0.56403 0.0
C1921 C 0.71712 0.06463 0.59699 0.0
C1922 C 0.71173 0.07848 0.58822 0.0
C1923 C 0.70454 0.07823 0.56773 0.0
C1924 C 0.70369 0.06444 0.55563 0.0
C1925 C 0.71517 0.0934 0.59949 0.0
C1926 C 0.70307 0.10206 0.60762 0.0
C1927 C 0.73053 0.09885 0.60258 0.0
C1928 C 0.74366 0.09033 0.59375 0.0
C1929 C 0.74409 0.08744 0.57176 0.0
C1930 C 0.75632 0.0791 0.56358 0.0
C1931 C 0.76826 0.07366 0.57722 0.0
C1932 C 0.76802 0.07664 0.59907 0.0
C1933 C 0.7558 0.08498 0.60733 0.0
H1934 H 0.7777 0.06716 0.57086 0.0
H1935 H 0.65834 0.14547 0.65319 0.0
H1936 H 0.8752 0.25531 0.33235 0.0
H1937 H 0.89797 0.26568 0.35257 0.0
H1938 H 0.86927 0.28114 0.40258 0.0
H1939 H 0.84631 0.27112 0.38205 0.0
H1940 H 0.89123 0.30236 0.3959 0.0
H1941 H 0.88949 0.24779 0.40679 0.0
H1942 H 0.88778 0.22015 0.39616 0.0
H1943 H 0.9297 0.22395 0.36355 0.0
H1944 H 0.93154 0.25168 0.37374 0.0
H1945 H 0.95004 0.30511 0.48063 0.0
H1946 H 0.92705 0.30085 0.45656 0.0
H1947 H 0.95631 0.28725 0.40623 0.0
H1948 H 0.97928 0.29147 0.43041 0.0
H1949 H 0.93419 0.26589 0.41237 0.0
H1950 H 0.93639 0.32075 0.40394 0.0
H1951 H 0.93787 0.34809 0.41609 0.0
H1952 H 0.89489 0.34343 0.44596 0.0
H1953 H 0.89327 0.31599 0.43427 0.0
C1954 C 0.87372 0.26107 0.34754 0.0
C1955 C 0.859 0.26241 0.35565 0.0
C1956 C 0.88674 0.26693 0.35912 0.0
C1957 C 0.88534 0.27399 0.3792 0.0
C1958 C 0.8706 0.27573 0.38711 0.0
C1959 C 0.85753 0.26996 0.37545 0.0
C1960 C 0.89933 0.27893 0.39226 0.0
C1961 C 0.90056 0.29436 0.3997 0.0
C1962 C 0.9116 0.26854 0.39693 0.0
C1963 C 0.91056 0.25185 0.39085 0.0
C1964 C 0.89828 0.24276 0.39722 0.0
C1965 C 0.8973 0.22707 0.39129 0.0
C1966 C 0.90861 0.22031 0.37914 0.0
C1967 C 0.92094 0.22921 0.37294 0.0
C1968 C 0.92196 0.24491 0.37879 0.0
C1969 C 0.95147 0.30154 0.46428 0.0
C1970 C 0.96625 0.29858 0.45719 0.0
C1971 C 0.93841 0.29914 0.45057 0.0
C1972 C 0.94 0.29378 0.4296 0.0
C1973 C 0.95486 0.29139 0.42234 0.0
C1974 C 0.96792 0.29384 0.43604 0.0
C1975 C 0.92618 0.28935 0.41588 0.0
C1976 C 0.92493 0.27394 0.40843 0.0
C1977 C 0.91388 0.29973 0.41142 0.0
C1978 C 0.91478 0.31626 0.41837 0.0
C1979 C 0.92732 0.32551 0.41324 0.0
C1980 C 0.92817 0.34104 0.42002 0.0
C1981 C 0.9165 0.34748 0.43183 0.0
C1982 C 0.90393 0.33842 0.43683 0.0
C1983 C 0.90303 0.32288 0.43011 0.0
H1984 H 0.91718 0.3595 0.43706 0.0
H1985 H 0.90783 0.20816 0.37458 0.0
H1986 H 0.73344 0.86235 0.34102 0.0
H1987 H 0.73546 0.88471 0.36577 0.0
H1988 H 0.69502 0.8691 0.39584 0.0
H1989 H 0.69292 0.84683 0.37108 0.0
H1990 H 0.69259 0.89882 0.38727 0.0
H1991 H 0.73069 0.86655 0.42065 0.0
H1992 H 0.75376 0.8499 0.42372 0.0
H1993 H 0.78229 0.8877 0.40679 0.0
H1994 H 0.75933 0.90453 0.40329 0.0
H1995 H 0.70208 0.94765 0.48169 0.0
H1996 H 0.70251 0.92411 0.45896 0.0
H1997 H 0.73027 0.94772 0.41545 0.0
H1998 H 0.72925 0.97149 0.43764 0.0
H1999 H 0.73962 0.91409 0.43162 0.0
H2000 H 0.69983 0.94563 0.39652 0.0
H2001 H 0.67638 0.9618 0.39636 0.0
H2002 H 0.65066 0.92401 0.41955 0.0
H2003 H 0.67407 0.9077 0.42022 0.0
C2004 C 0.72518 0.86355 0.35319 0.0
C2005 C 0.7132 0.85267 0.35442 0.0
C2006 C 0.72633 0.87632 0.36731 0.0
C2007 C 0.71547 0.8785 0.3828 0.0
C2008 C 0.70356 0.86762 0.38408 0.0
C2009 C 0.70242 0.85486 0.37003 0.0
C2010 C 0.716 0.89254 0.39693 0.0
C2011 C 0.70284 0.90202 0.39711 0.0
C2012 C 0.72943 0.89687 0.40961 0.0
C2013 C 0.74325 0.88675 0.41145 0.0
C2014 C 0.74185 0.87127 0.41734 0.0
C2015 C 0.75491 0.86181 0.41921 0.0
C2016 C 0.76947 0.86772 0.41538 0.0
C2017 C 0.771 0.88312 0.4097 0.0
C2018 C 0.75796 0.89263 0.40778 0.0
C2019 C 0.70823 0.94777 0.46724 0.0
C2020 C 0.7157 0.96126 0.46139 0.0
C2021 C 0.70853 0.93436 0.45438 0.0
C2022 C 0.71651 0.93422 0.43568 0.0
C2023 C 0.72417 0.94762 0.42994 0.0
C2024 C 0.72357 0.96114 0.44255 0.0
C2025 C 0.7163 0.92023 0.4217 0.0
C2026 C 0.72945 0.91081 0.42164 0.0
C2027 C 0.70285 0.91582 0.4093 0.0
C2028 C 0.68873 0.92553 0.40868 0.0
C2029 C 0.68922 0.94083 0.40181 0.0
C2030 C 0.67593 0.95001 0.40158 0.0
C2031 C 0.66205 0.94396 0.40801 0.0
C2032 C 0.66143 0.92869 0.41462 0.0
C2033 C 0.6747 0.91948 0.41492 0.0
H2034 H 0.65177 0.95108 0.40782 0.0
H2035 H 0.77957 0.86039 0.41686 0.0
H2036 H 0.16234 0.7125 0.33995 0.0
H2037 H 0.13831 0.70781 0.35738 0.0
H2038 H 0.13142 0.75699 0.36491 0.0
H2039 H 0.15521 0.76177 0.347 0.0
H2040 H 0.13208 0.7189 0.39961 0.0
H2041 H 0.10236 0.76402 0.3572 0.0
H2042 H 0.09845 0.77575 0.32207 0.0
H2043 H 0.09603 0.73051 0.29213 0.0
H2044 H 0.10022 0.71858 0.32711 0.0
H2045 H 0.06448 0.73745 0.45471 0.0
H2046 H 0.08694 0.74001 0.43317 0.0
H2047 H 0.06832 0.70454 0.38953 0.0
H2048 H 0.0459 0.70171 0.41134 0.0
H2049 H 0.07979 0.73406 0.3711 0.0
H2050 H 0.09475 0.69286 0.41818 0.0
H2051 H 0.09855 0.681 0.45313 0.0
H2052 H 0.13019 0.71731 0.474 0.0
H2053 H 0.12639 0.72952 0.43925 0.0
C2054 C 0.15552 0.72231 0.34489 0.0
C2055 C 0.16041 0.73752 0.34156 0.0
C2056 C 0.14186 0.71961 0.35493 0.0
C2057 C 0.13294 0.73206 0.36199 0.0
C2058 C 0.13788 0.74724 0.35897 0.0
C2059 C 0.15149 0.74995 0.34883 0.0
C2060 C 0.11896 0.72917 0.37364 0.0
C2061 C 0.12065 0.7222 0.39341 0.0
C2062 C 0.10408 0.7334 0.3655 0.0
C2063 C 0.10168 0.74047 0.3446 0.0
C2064 C 0.10103 0.75662 0.34307 0.0
C2065 C 0.09881 0.76329 0.32323 0.0
C2066 C 0.09702 0.75388 0.30488 0.0
C2067 C 0.0975 0.73778 0.30634 0.0
C2068 C 0.09986 0.73107 0.32614 0.0
C2069 C 0.06517 0.73026 0.44047 0.0
C2070 C 0.05351 0.71941 0.43459 0.0
C2071 C 0.07798 0.7317 0.42826 0.0
C2072 C 0.07921 0.72246 0.40983 0.0
C2073 C 0.06749 0.71177 0.40372 0.0
C2074 C 0.05479 0.71011 0.41617 0.0
C2075 C 0.09292 0.72391 0.3972 0.0
C2076 C 0.0912 0.73066 0.37729 0.0
C2077 C 0.10779 0.71954 0.40534 0.0
C2078 C 0.11017 0.71218 0.42619 0.0
C2079 C 0.10241 0.69839 0.43029 0.0
C2080 C 0.10458 0.69159 0.45005 0.0
C2081 C 0.11457 0.69842 0.4658 0.0
C2082 C 0.12244 0.71205 0.4618 0.0
C2083 C 0.12029 0.7189 0.44206 0.0
H2084 H 0.11624 0.69314 0.48109 0.0
H2085 H 0.09524 0.75906 0.28953 0.0
H2086 H 0.27208 0.14858 0.35277 0.0
H2087 H 0.27047 0.12545 0.37416 0.0
H2088 H 0.31786 0.13218 0.39747 0.0
H2089 H 0.31947 0.15535 0.37636 0.0
H2090 H 0.31207 0.10234 0.38345 0.0
H2091 H 0.28991 0.14057 0.42917 0.0
H2092 H 0.27177 0.16119 0.43893 0.0
H2093 H 0.23348 0.13007 0.42631 0.0
H2094 H 0.25139 0.10931 0.41617 0.0
H2095 H 0.29775 0.06067 0.48708 0.0
H2096 H 0.29683 0.08377 0.4655 0.0
H2097 H 0.28956 0.05495 0.40885 0.0
H2098 H 0.29064 0.03174 0.43063 0.0
H2099 H 0.27469 0.09571 0.43911 0.0
H2100 H 0.30855 0.07225 0.36923 0.0
H2101 H 0.32811 0.05234 0.36197 0.0
H2102 H 0.34561 0.05555 0.42698 0.0
H2103 H 0.32632 0.07563 0.43452 0.0
C2104 C 0.28204 0.14529 0.3628 0.0
C2105 C 0.2958 0.154 0.36332 0.0
C2106 C 0.28113 0.13205 0.37492 0.0
C2107 C 0.29402 0.12715 0.38748 0.0
C2108 C 0.30777 0.13577 0.38792 0.0
C2109 C 0.30864 0.14906 0.376 0.0
C2110 C 0.29341 0.11282 0.3998 0.0
C2111 C 0.30384 0.10086 0.39554 0.0
C2112 C 0.28277 0.11095 0.41571 0.0
C2113 C 0.27198 0.12344 0.42165 0.0
C2114 C 0.27761 0.13817 0.42826 0.0
C2115 C 0.26737 0.14987 0.43391 0.0
C2116 C 0.25148 0.14695 0.43317 0.0
C2117 C 0.24579 0.13232 0.42682 0.0
C2118 C 0.25598 0.12058 0.42113 0.0
C2119 C 0.29597 0.05934 0.47001 0.0
C2120 C 0.29437 0.04456 0.46037 0.0
C2121 C 0.29535 0.07249 0.45772 0.0
C2122 C 0.29319 0.0711 0.43556 0.0
C2123 C 0.29138 0.05628 0.42591 0.0
C2124 C 0.29199 0.04307 0.43827 0.0
C2125 C 0.2933 0.08519 0.42268 0.0
C2126 C 0.28278 0.09711 0.42683 0.0
C2127 C 0.30402 0.08714 0.4069 0.0
C2128 C 0.31588 0.07531 0.40246 0.0
C2129 C 0.31662 0.06875 0.38193 0.0
C2130 C 0.32765 0.05743 0.37778 0.0
C2131 C 0.33806 0.05265 0.39402 0.0
C2132 C 0.33751 0.05922 0.41443 0.0
C2133 C 0.32652 0.07057 0.41865 0.0
H2134 H 0.34657 0.04386 0.39078 0.0
H2135 H 0.24357 0.15602 0.43758 0.0
H2136 H 0.65905 0.76293 0.83937 0.0
H2137 H 0.63542 0.77102 0.85592 0.0
H2138 H 0.66252 0.79904 0.90198 0.0
H2139 H 0.68622 0.79046 0.88598 0.0
H2140 H 0.64227 0.78333 0.92109 0.0
H2141 H 0.63998 0.81506 0.86044 0.0
H2142 H 0.64044 0.82099 0.82253 0.0
H2143 H 0.60047 0.79227 0.8086 0.0
H2144 H 0.59991 0.78597 0.84638 0.0
H2145 H 0.57572 0.81558 0.9645 0.0
H2146 H 0.59948 0.81446 0.94544 0.0
H2147 H 0.57768 0.78253 0.89919 0.0
H2148 H 0.55369 0.78408 0.91765 0.0
H2149 H 0.59589 0.80304 0.88067 0.0
H2150 H 0.60015 0.76973 0.94134 0.0
H2151 H 0.59976 0.76433 0.97945 0.0
H2152 H 0.63644 0.79715 0.99334 0.0
H2153 H 0.6369 0.80289 0.95533 0.0
C2154 C 0.65994 0.7708 0.85304 0.0
C2155 C 0.67446 0.77597 0.8615 0.0
C2156 C 0.64643 0.77554 0.86235 0.0
C2157 C 0.64718 0.78581 0.88003 0.0
C2158 C 0.66167 0.79113 0.88834 0.0
C2159 C 0.67518 0.78624 0.87918 0.0
C2160 C 0.6329 0.79037 0.89049 0.0
C2161 C 0.63224 0.78792 0.91229 0.0
C2162 C 0.61971 0.79613 0.87898 0.0
C2163 C 0.61998 0.79994 0.85624 0.0
C2164 C 0.63136 0.80991 0.84927 0.0
C2165 C 0.63162 0.81336 0.82781 0.0
C2166 C 0.62051 0.80699 0.81316 0.0
C2167 C 0.60908 0.79718 0.81996 0.0
C2168 C 0.60877 0.79369 0.8414 0.0
C2169 C 0.57587 0.80859 0.95001 0.0
C2170 C 0.56287 0.79978 0.94271 0.0
C2171 C 0.58949 0.80786 0.93925 0.0
C2172 C 0.59041 0.7982 0.92113 0.0
C2173 C 0.57724 0.78999 0.91322 0.0
C2174 C 0.5636 0.79076 0.92391 0.0
C2175 C 0.60528 0.79583 0.9111 0.0
C2176 C 0.60603 0.79864 0.88943 0.0
C2177 C 0.61859 0.79048 0.92272 0.0
C2178 C 0.61845 0.78685 0.94553 0.0
C2179 C 0.60807 0.77586 0.95254 0.0
C2180 C 0.60784 0.77273 0.97412 0.0
C2181 C 0.61804 0.78042 0.98881 0.0
C2182 C 0.62853 0.79122 0.98194 0.0
C2183 C 0.62878 0.7944 0.96039 0.0
H2184 H 0.61785 0.778 0.00551 0.0
H2185 H 0.62074 0.80967 0.79655 0.0
H2186 H 0.2605 0.63741 0.80937 0.0
H2187 H 0.24675 0.6168 0.83822 0.0
H2188 H 0.23483 0.66109 0.88752 0.0
H2189 H 0.24857 0.68297 0.86007 0.0
H2190 H 0.24464 0.63622 0.90682 0.0
H2191 H 0.20404 0.63464 0.85311 0.0
H2192 H 0.19186 0.63315 0.81682 0.0
H2193 H 0.21172 0.58821 0.80691 0.0
H2194 H 0.22413 0.5895 0.84309 0.0
H2195 H 0.20732 0.58055 0.96865 0.0
H2196 H 0.21041 0.60223 0.945 0.0
H2197 H 0.23311 0.57194 0.90119 0.0
H2198 H 0.22997 0.55028 0.92463 0.0
H2199 H 0.21211 0.59157 0.88088 0.0
H2200 H 0.2541 0.59482 0.93501 0.0
H2201 H 0.26521 0.5968 0.97183 0.0
H2202 H 0.24121 0.63964 0.98152 0.0
H2203 H 0.22978 0.63778 0.94481 0.0
C2204 C 0.2563 0.64172 0.82421 0.0
C2205 C 0.25341 0.66273 0.82978 0.0
C2206 C 0.24684 0.62913 0.8416 0.0
C2207 C 0.23812 0.63679 0.86502 0.0
C2208 C 0.23942 0.65708 0.87278 0.0
C2209 C 0.24864 0.67068 0.8564 0.0
C2210 C 0.23194 0.62568 0.8798 0.0
C2211 C 0.2372 0.62668 0.90123 0.0
C2212 C 0.22245 0.61309 0.87252 0.0
C2213 C 0.21516 0.61226 0.8507 0.0
C2214 C 0.20588 0.62448 0.84313 0.0
C2215 C 0.19892 0.62366 0.8226 0.0
C2216 C 0.20106 0.61062 0.80954 0.0
C2217 C 0.21011 0.59833 0.81702 0.0
C2218 C 0.21709 0.59909 0.83755 0.0
C2219 C 0.21278 0.5785 0.95384 0.0
C2220 C 0.21849 0.56374 0.94854 0.0
C2221 C 0.21462 0.59089 0.94041 0.0
C2222 C 0.22211 0.58872 0.92142 0.0
C2223 C 0.22732 0.57389 0.91577 0.0
C2224 C 0.22561 0.56155 0.92925 0.0
C2225 C 0.22513 0.60194 0.9077 0.0
C2226 C 0.2193 0.6013 0.8865 0.0
C2227 C 0.23402 0.61491 0.91524 0.0
C2228 C 0.24093 0.61606 0.93727 0.0
C2229 C 0.25109 0.60459 0.94506 0.0
C2230 C 0.25746 0.6057 0.96589 0.0
C2231 C 0.25388 0.61831 0.97903 0.0
C2232 C 0.24395 0.62986 0.97134 0.0
C2233 C 0.23752 0.62878 0.95052 0.0
H2234 H 0.25883 0.61915 0.99516 0.0
H2235 H 0.19567 0.61001 0.79364 0.0
H2236 H 0.33081 0.24386 0.90038 0.0
H2237 H 0.3524 0.23122 0.91981 0.0
H2238 H 0.38135 0.23863 0.8677 0.0
H2239 H 0.35978 0.25108 0.84816 0.0
H2240 H 0.38697 0.21038 0.88579 0.0
H2241 H 0.38151 0.26412 0.90848 0.0
H2242 H 0.36724 0.28642 0.92269 0.0
H2243 H 0.36039 0.26209 0.97972 0.0
H2244 H 0.37442 0.23954 0.96567 0.0
H2245 H 0.4634 0.21922 0.93046 0.0
H2246 H 0.4376 0.22088 0.91241 0.0
H2247 H 0.41678 0.21332 0.97174 0.0
H2248 H 0.44266 0.21185 0.98975 0.0
H2249 H 0.40482 0.23803 0.95271 0.0
H2250 H 0.41417 0.18583 0.93232 0.0
H2251 H 0.42871 0.16371 0.91818 0.0
H2252 H 0.42853 0.18467 0.85737 0.0
H2253 H 0.4142 0.20705 0.87123 0.0
C2254 C 0.34169 0.24248 0.89293 0.0
C2255 C 0.34362 0.24837 0.87275 0.0
C2256 C 0.354 0.2353 0.90403 0.0
C2257 C 0.36849 0.23411 0.89524 0.0
C2258 C 0.37024 0.23936 0.87471 0.0
C2259 C 0.35795 0.24651 0.8636 0.0
C2260 C 0.38223 0.22884 0.90808 0.0
C2261 C 0.39093 0.21642 0.9004 0.0
C2262 C 0.38714 0.23649 0.92741 0.0
C2263 C 0.37884 0.25009 0.93593 0.0
C2264 C 0.37686 0.26349 0.92398 0.0
C2265 C 0.36883 0.27618 0.93201 0.0
C2266 C 0.36287 0.27566 0.95207 0.0
C2267 C 0.36498 0.26246 0.96416 0.0
C2268 C 0.37296 0.24973 0.95618 0.0
C2269 C 0.45326 0.21769 0.93945 0.0
C2270 C 0.4548 0.21544 0.96133 0.0
C2271 C 0.43857 0.21855 0.9292 0.0
C2272 C 0.42527 0.21708 0.94072 0.0
C2273 C 0.42689 0.21443 0.96257 0.0
C2274 C 0.44159 0.21357 0.97281 0.0
C2275 C 0.40978 0.21971 0.93027 0.0
C2276 C 0.40075 0.23172 0.93836 0.0
C2277 C 0.40461 0.21166 0.91135 0.0
C2278 C 0.41319 0.19819 0.90288 0.0
C2279 C 0.41733 0.18579 0.91598 0.0
C2280 C 0.42552 0.17319 0.908 0.0
C2281 C 0.42956 0.1728 0.8869 0.0
C2282 C 0.42539 0.185 0.87372 0.0
C2283 C 0.41722 0.19764 0.88162 0.0
H2284 H 0.4359 0.16304 0.88076 0.0
H2285 H 0.35666 0.28549 0.95826 0.0
H2286 H 0.75001 0.38194 0.81684 0.0
H2287 H 0.76476 0.4038 0.84711 0.0
H2288 H 0.77482 0.36226 0.89982 0.0
H2289 H 0.7601 0.33922 0.87102 0.0
H2290 H 0.76503 0.38975 0.91592 0.0
H2291 H 0.80723 0.38398 0.87012 0.0
H2292 H 0.81933 0.38203 0.83572 0.0
H2293 H 0.80208 0.42706 0.81996 0.0
H2294 H 0.78982 0.42922 0.85424 0.0
H2295 H 0.80373 0.4442 0.985 0.0
H2296 H 0.80056 0.42174 0.96047 0.0
H2297 H 0.78654 0.45203 0.90974 0.0
H2298 H 0.79028 0.47449 0.93414 0.0
H2299 H 0.80296 0.42861 0.89475 0.0
H2300 H 0.75997 0.43437 0.93912 0.0
H2301 H 0.748 0.4372 0.97348 0.0
H2302 H 0.76566 0.39279 0.99153 0.0
H2303 H 0.77797 0.38981 0.95734 0.0
C2304 C 0.75404 0.37841 0.8325 0.0
C2305 C 0.75606 0.35769 0.83928 0.0
C2306 C 0.76407 0.39172 0.85093 0.0
C2307 C 0.77251 0.3852 0.87595 0.0
C2308 C 0.77035 0.3655 0.88423 0.0
C2309 C 0.76054 0.35126 0.8669 0.0
C2310 C 0.77937 0.39687 0.89122 0.0
C2311 C 0.77361 0.39802 0.91148 0.0
C2312 C 0.7902 0.40791 0.88521 0.0
C2313 C 0.79748 0.40667 0.86459 0.0
C2314 C 0.80597 0.39343 0.85926 0.0
C2315 C 0.81288 0.39229 0.83981 0.0
C2316 C 0.81143 0.40439 0.82564 0.0
C2317 C 0.80316 0.41768 0.83093 0.0
C2318 C 0.79625 0.41888 0.85038 0.0
C2319 C 0.80033 0.446 0.96848 0.0
C2320 C 0.79711 0.46093 0.96135 0.0
C2321 C 0.79842 0.43321 0.95453 0.0
C2322 C 0.79299 0.43518 0.93337 0.0
C2323 C 0.79069 0.45022 0.92599 0.0
C2324 C 0.79277 0.46302 0.93988 0.0
C2325 C 0.78848 0.42162 0.91938 0.0
C2326 C 0.7946 0.42017 0.89934 0.0
C2327 C 0.77779 0.41041 0.9255 0.0
C2328 C 0.77001 0.41193 0.94577 0.0
C2329 C 0.76135 0.42523 0.95045 0.0
C2330 C 0.75452 0.42687 0.96989 0.0
C2331 C 0.7561 0.41519 0.98469 0.0
C2332 C 0.76447 0.40182 0.98004 0.0
C2333 C 0.77137 0.40015 0.96063 0.0
H2334 H 0.75082 0.41651 0.99973 0.0
H2335 H 0.81676 0.40348 0.81057 0.0
H2336 H 0.67368 0.20886 0.12687 0.0
H2337 H 0.64957 0.21286 0.10557 0.0
H2338 H 0.62487 0.2177 0.1628 0.0
H2339 H 0.64881 0.21304 0.18406 0.0
H2340 H 0.61001 0.19883 0.13644 0.0
H2341 H 0.63264 0.249 0.13059 0.0
H2342 H 0.65279 0.26783 0.12286 0.0
H2343 H 0.65137 0.25139 0.05798 0.0
H2344 H 0.63136 0.2323 0.06539 0.0
H2345 H 0.53908 0.2239 0.08707 0.0
H2346 H 0.56369 0.22393 0.10853 0.0
H2347 H 0.58808 0.21334 0.05222 0.0
H2348 H 0.56344 0.21342 0.03082 0.0
H2349 H 0.60285 0.23583 0.07812 0.0
H2350 H 0.5805 0.18535 0.08468 0.0
H2351 H 0.5599 0.16706 0.09253 0.0
H2352 H 0.56064 0.18479 0.15679 0.0
H2353 H 0.58107 0.2034 0.14921 0.0
C2354 C 0.66309 0.21084 0.13485 0.0
C2355 C 0.66306 0.21045 0.15709 0.0
C2356 C 0.64935 0.21326 0.1227 0.0
C2357 C 0.6354 0.21568 0.13258 0.0
C2358 C 0.63547 0.2158 0.15482 0.0
C2359 C 0.64916 0.21318 0.16695 0.0
C2360 C 0.62056 0.21713 0.1198 0.0
C2361 C 0.60839 0.20712 0.12394 0.0
C2362 C 0.61854 0.22765 0.10309 0.0
C2363 C 0.6306 0.23911 0.09861 0.0
C2364 C 0.63672 0.24931 0.11472 0.0
C2365 C 0.6481 0.26005 0.11038 0.0
C2366 C 0.65339 0.26078 0.08996 0.0
C2367 C 0.64728 0.2508 0.07381 0.0
C2368 C 0.63591 0.24002 0.07806 0.0
C2369 C 0.54976 0.22165 0.07941 0.0
C2370 C 0.54957 0.21861 0.05749 0.0
C2371 C 0.56374 0.22165 0.09158 0.0
C2372 C 0.57767 0.21853 0.08195 0.0
C2373 C 0.57746 0.21579 0.05992 0.0
C2374 C 0.56347 0.21577 0.04777 0.0
C2375 C 0.5924 0.21763 0.09495 0.0
C2376 C 0.60452 0.22765 0.09075 0.0
C2377 C 0.59438 0.20717 0.11168 0.0
C2378 C 0.58221 0.19587 0.11632 0.0
C2379 C 0.57619 0.18543 0.10044 0.0
C2380 C 0.56455 0.175 0.10485 0.0
C2381 C 0.55894 0.17479 0.12513 0.0
C2382 C 0.56499 0.18499 0.14107 0.0
C2383 C 0.5766 0.19548 0.13673 0.0
H2384 H 0.54993 0.16669 0.12852 0.0
H2385 H 0.66219 0.26911 0.08663 0.0
H2386 H 0.74959 0.66141 0.13869 0.0
H2387 H 0.75933 0.64048 0.11615 0.0
H2388 H 0.77783 0.61747 0.17169 0.0
H2389 H 0.76784 0.63815 0.19435 0.0
H2390 H 0.79822 0.61784 0.13667 0.0
H2391 H 0.74609 0.60486 0.15215 0.0
H2392 H 0.71815 0.60959 0.15429 0.0
H2393 H 0.71355 0.61555 0.08696 0.0
H2394 H 0.74155 0.61111 0.08449 0.0
H2395 H 0.80278 0.53953 0.09666 0.0
H2396 H 0.79825 0.56366 0.11685 0.0
H2397 H 0.77758 0.58385 0.06033 0.0
H2398 H 0.7824 0.55984 0.04009 0.0
H2399 H 0.7591 0.58588 0.0948 0.0
H2400 H 0.81084 0.59718 0.07868 0.0
H2401 H 0.83876 0.59252 0.07631 0.0
H2402 H 0.84427 0.58976 0.14408 0.0
H2403 H 0.8163 0.59414 0.14686 0.0
C2404 C 0.75594 0.652 0.14605 0.0
C2405 C 0.75819 0.65159 0.16825 0.0
C2406 C 0.76147 0.64007 0.13319 0.0
C2407 C 0.76933 0.6275 0.1423 0.0
C2408 C 0.77191 0.62718 0.1644 0.0
C2409 C 0.76621 0.63901 0.1773 0.0
C2410 C 0.77394 0.61421 0.12882 0.0
C2411 C 0.7897 0.61073 0.12767 0.0
C2412 C 0.76279 0.6052 0.11675 0.0
C2413 C 0.74595 0.60785 0.11818 0.0
C2414 C 0.73916 0.60735 0.13784 0.0
C2415 C 0.7233 0.60994 0.1391 0.0
C2416 C 0.71409 0.61292 0.12078 0.0
C2417 C 0.72071 0.61327 0.10115 0.0
C2418 C 0.73657 0.61072 0.0998 0.0
C2419 C 0.79763 0.54929 0.08854 0.0
C2420 C 0.79306 0.54801 0.06688 0.0
C2421 C 0.79502 0.56301 0.10002 0.0
C2422 C 0.78764 0.57553 0.09003 0.0
C2423 C 0.78332 0.57432 0.06829 0.0
C2424 C 0.7861 0.56069 0.05677 0.0
C2425 C 0.78341 0.58945 0.10261 0.0
C2426 C 0.76768 0.59302 0.10366 0.0
C2427 C 0.7946 0.59852 0.11453 0.0
C2428 C 0.81143 0.59582 0.11296 0.0
C2429 C 0.81797 0.59541 0.09308 0.0
C2430 C 0.83381 0.59286 0.09166 0.0
C2431 C 0.84328 0.5908 0.11003 0.0
C2432 C 0.83691 0.59132 0.12986 0.0
C2433 C 0.82106 0.59385 0.13137 0.0
H2434 H 0.85555 0.58884 0.1089 0.0
H2435 H 0.70182 0.61491 0.12179 0.0
H2436 H 0.36191 0.78211 0.18343 0.0
H2437 H 0.38244 0.77862 0.15883 0.0
H2438 H 0.35469 0.8018 0.1105 0.0
H2439 H 0.33377 0.8047 0.13485 0.0
H2440 H 0.37107 0.77913 0.09295 0.0
H2441 H 0.38202 0.82165 0.14151 0.0
H2442 H 0.38521 0.83477 0.17667 0.0
H2443 H 0.42222 0.80387 0.19449 0.0
H2444 H 0.41909 0.79041 0.15951 0.0
H2445 H 0.43462 0.80584 0.03553 0.0
H2446 H 0.4118 0.80429 0.05658 0.0
H2447 H 0.4371 0.7756 0.10123 0.0
H2448 H 0.45997 0.77711 0.08025 0.0
H2449 H 0.42179 0.8008 0.11991 0.0
H2450 H 0.41085 0.75923 0.06886 0.0
H2451 H 0.40736 0.74766 0.03277 0.0
H2452 H 0.37007 0.77904 0.01828 0.0
H2453 H 0.3735 0.79096 0.05421 0.0
C2454 C 0.36009 0.78627 0.16747 0.0
C2455 C 0.3464 0.79403 0.16122 0.0
C2456 C 0.37185 0.78432 0.15345 0.0
C2457 C 0.37028 0.79034 0.13303 0.0
C2458 C 0.35622 0.7972 0.12625 0.0
C2459 C 0.34433 0.79896 0.14021 0.0
C2460 C 0.3837 0.79045 0.11943 0.0
C2461 C 0.38211 0.784 0.09876 0.0
C2462 C 0.39815 0.79674 0.12704 0.0
C2463 C 0.40023 0.80494 0.14797 0.0
C2464 C 0.39078 0.8176 0.15297 0.0
C2465 C 0.39258 0.8251 0.17286 0.0
C2466 C 0.40389 0.82014 0.18782 0.0
C2467 C 0.41345 0.80769 0.18289 0.0
C2468 C 0.41168 0.80013 0.16303 0.0
C2469 C 0.43529 0.79921 0.04984 0.0
C2470 C 0.44905 0.79162 0.05631 0.0
C2471 C 0.42224 0.79824 0.06174 0.0
C2472 C 0.42276 0.78975 0.08036 0.0
C2473 C 0.43648 0.78215 0.08685 0.0
C2474 C 0.44948 0.78297 0.07483 0.0
C2475 C 0.40921 0.78933 0.09357 0.0
C2476 C 0.41076 0.79584 0.11415 0.0
C2477 C 0.39472 0.78334 0.08571 0.0
C2478 C 0.39253 0.77608 0.06417 0.0
C2479 C 0.40199 0.76375 0.05793 0.0
C2480 C 0.4 0.75711 0.03751 0.0
C2481 C 0.38852 0.76264 0.02322 0.0
C2482 C 0.37897 0.77478 0.02935 0.0
C2483 C 0.38092 0.78147 0.04976 0.0
H2484 H 0.38701 0.75749 0.00741 0.0
H2485 H 0.40526 0.82595 0.20322 0.0
H2486 H 0.25347 0.3697 0.20524 0.0
H2487 H 0.24432 0.39164 0.18426 0.0
H2488 H 0.23494 0.36089 0.13002 0.0
H2489 H 0.24423 0.339 0.15086 0.0
H2490 H 0.2505 0.38559 0.11926 0.0
H2491 H 0.20556 0.37648 0.15753 0.0
H2492 H 0.19054 0.37268 0.18895 0.0
H2493 H 0.20338 0.41812 0.21299 0.0
H2494 H 0.21867 0.42211 0.18185 0.0
H2495 H 0.20978 0.43981 0.05475 0.0
H2496 H 0.21398 0.41739 0.07731 0.0
H2497 H 0.23113 0.44754 0.12897 0.0
H2498 H 0.22715 0.46998 0.10638 0.0
H2499 H 0.21046 0.423 0.14074 0.0
H2500 H 0.25655 0.43122 0.10345 0.0
H2501 H 0.27144 0.43502 0.07191 0.0
H2502 H 0.25593 0.39089 0.04591 0.0
H2503 H 0.24073 0.38694 0.07718 0.0
C2504 C 0.24922 0.36762 0.18895 0.0
C2505 C 0.24928 0.35259 0.1798 0.0
C2506 C 0.24397 0.38014 0.17698 0.0
C2507 C 0.23875 0.37788 0.15563 0.0
C2508 C 0.23884 0.3629 0.14648 0.0
C2509 C 0.24406 0.3504 0.15843 0.0
C2510 C 0.23395 0.39123 0.14249 0.0
C2511 C 0.24155 0.3936 0.12381 0.0
C2512 C 0.22253 0.4019 0.14864 0.0
C2513 C 0.2134 0.39953 0.16745 0.0
C2514 C 0.20531 0.38561 0.16961 0.0
C2515 C 0.19672 0.38343 0.18736 0.0
C2516 C 0.19605 0.39513 0.20299 0.0
C2517 C 0.20394 0.40905 0.20089 0.0
C2518 C 0.21256 0.41128 0.18318 0.0
C2519 C 0.21419 0.44165 0.07103 0.0
C2520 C 0.21819 0.45658 0.07885 0.0
C2521 C 0.21664 0.42886 0.08384 0.0
C2522 C 0.22292 0.43084 0.10474 0.0
C2523 C 0.22625 0.44581 0.11289 0.0
C2524 C 0.22405 0.45857 0.09998 0.0
C2525 C 0.22698 0.41723 0.11762 0.0
C2526 C 0.21931 0.41487 0.13621 0.0
C2527 C 0.2383 0.40652 0.1114 0.0
C2528 C 0.24736 0.40887 0.09253 0.0
C2529 C 0.25617 0.4224 0.0909 0.0
C2530 C 0.2647 0.42457 0.0731 0.0
C2531 C 0.26461 0.41322 0.0569 0.0
C2532 C 0.25598 0.39968 0.05846 0.0
C2533 C 0.24741 0.39747 0.07622 0.0
H2534 H 0.27128 0.41491 0.04319 0.0
H2535 H 0.18938 0.39343 0.21671 0.0
H2536 H 0.34719 0.21287 0.17799 0.0
H2537 H 0.36434 0.21401 0.14868 0.0
H2538 H 0.3984 0.23848 0.1895 0.0
H2539 H 0.38098 0.2379 0.21868 0.0
H2540 H 0.39734 0.24942 0.14983 0.0
H2541 H 0.4 0.19879 0.18143 0.0
H2542 H 0.38843 0.1746 0.193 0.0
H2543 H 0.37086 0.16427 0.12918 0.0
H2544 H 0.38217 0.1885 0.1173 0.0
H2545 H 0.46611 0.23301 0.09965 0.0
H2546 H 0.44551 0.23499 0.12443 0.0
H2547 H 0.41565 0.20732 0.08128 0.0
H2548 H 0.43647 0.20493 0.05673 0.0
H2549 H 0.41278 0.19847 0.11972 0.0
H2550 H 0.41158 0.24748 0.08696 0.0
H2551 H 0.42231 0.27182 0.07462 0.0
H2552 H 0.43601 0.28557 0.13883 0.0
H2553 H 0.42556 0.26121 0.15155 0.0
C2554 C 0.35825 0.21867 0.18062 0.0
C2555 C 0.36288 0.22506 0.2007 0.0
C2556 C 0.36805 0.21926 0.1639 0.0
C2557 C 0.38278 0.226 0.16706 0.0
C2558 C 0.38711 0.23312 0.18677 0.0
C2559 C 0.37722 0.2327 0.20344 0.0
C2560 C 0.39407 0.22475 0.15034 0.0
C2561 C 0.40083 0.23829 0.14335 0.0
C2562 C 0.39828 0.21025 0.14146 0.0
C2563 C 0.39183 0.1955 0.14852 0.0
C2564 C 0.39363 0.19138 0.16989 0.0
C2565 C 0.38711 0.17767 0.1765 0.0
C2566 C 0.37889 0.16792 0.16184 0.0
C2567 C 0.37722 0.17183 0.14052 0.0
C2568 C 0.3837 0.18554 0.13383 0.0
C2569 C 0.45514 0.22736 0.09549 0.0
C2570 C 0.45282 0.21886 0.0763 0.0
C2571 C 0.44335 0.22857 0.10958 0.0
C2572 C 0.4289 0.22159 0.10452 0.0
C2573 C 0.42667 0.21286 0.08549 0.0
C2574 C 0.43856 0.21146 0.07151 0.0
C2575 C 0.41627 0.22314 0.11934 0.0
C2576 C 0.40924 0.20964 0.126 0.0
C2577 C 0.41174 0.2377 0.12776 0.0
C2578 C 0.41788 0.25246 0.12019 0.0
C2579 C 0.41696 0.25565 0.09844 0.0
C2580 C 0.42299 0.26946 0.09138 0.0
C2581 C 0.42986 0.28022 0.10593 0.0
C2582 C 0.43069 0.27722 0.12758 0.0
C2583 C 0.4247 0.26342 0.13473 0.0
H2584 H 0.43453 0.2909 0.10042 0.0
H2585 H 0.37383 0.15732 0.167 0.0
H2586 H 0.80399 0.32827 0.14701 0.0
H2587 H 0.80723 0.35553 0.13881 0.0
H2588 H 0.75837 0.36301 0.14467 0.0
H2589 H 0.75509 0.3357 0.15261 0.0
H2590 H 0.76724 0.3729 0.10814 0.0
H2591 H 0.78498 0.37942 0.18046 0.0
H2592 H 0.80038 0.37421 0.21352 0.0
H2593 H 0.84214 0.38454 0.18326 0.0
H2594 H 0.82701 0.38958 0.14988 0.0
H2595 H 0.77053 0.45325 0.09201 0.0
H2596 H 0.76828 0.42962 0.11185 0.0
H2597 H 0.81404 0.41593 0.09552 0.0
H2598 H 0.8162 0.43922 0.07484 0.0
H2599 H 0.80608 0.41037 0.13973 0.0
H2600 H 0.78764 0.40125 0.0665 0.0
H2601 H 0.7717 0.40662 0.03391 0.0
H2602 H 0.73039 0.40138 0.06748 0.0
H2603 H 0.74611 0.39622 0.10036 0.0
C2604 C 0.79403 0.33584 0.14701 0.0
C2605 C 0.77931 0.32994 0.1506 0.0
C2606 C 0.79589 0.3514 0.14241 0.0
C2607 C 0.78306 0.36132 0.1413 0.0
C2608 C 0.76843 0.35555 0.14553 0.0
C2609 C 0.76657 0.34 0.1501 0.0
C2610 C 0.78461 0.37721 0.1335 0.0
C2611 C 0.77552 0.38119 0.11535 0.0
C2612 C 0.79568 0.38788 0.14259 0.0
C2613 C 0.80486 0.38473 0.16258 0.0
C2614 C 0.79746 0.38042 0.18077 0.0
C2615 C 0.80614 0.37754 0.19959 0.0
C2616 C 0.82224 0.379 0.20047 0.0
C2617 C 0.82968 0.38339 0.18254 0.0
C2618 C 0.82105 0.38627 0.16366 0.0
C2619 C 0.78014 0.44524 0.09259 0.0
C2620 C 0.79345 0.44804 0.08151 0.0
C2621 C 0.77887 0.43183 0.10412 0.0
C2622 C 0.79096 0.42106 0.10499 0.0
C2623 C 0.80463 0.42419 0.09507 0.0
C2624 C 0.80584 0.43753 0.0833 0.0
C2625 C 0.78872 0.4059 0.11452 0.0
C2626 C 0.7977 0.40207 0.13281 0.0
C2627 C 0.7775 0.39534 0.10568 0.0
C2628 C 0.76805 0.39855 0.08595 0.0
C2629 C 0.77517 0.40142 0.06699 0.0
C2630 C 0.76617 0.40439 0.04845 0.0
C2631 C 0.75005 0.40439 0.04865 0.0
C2632 C 0.74288 0.40141 0.06737 0.0
C2633 C 0.75183 0.39846 0.08595 0.0
H2634 H 0.74308 0.40664 0.03429 0.0
H2635 H 0.82893 0.37678 0.21507 0.0
H2636 H 0.65038 0.79965 0.18175 0.0
H2637 H 0.63544 0.80292 0.14813 0.0
H2638 H 0.6122 0.75953 0.15622 0.0
H2639 H 0.62747 0.756 0.18962 0.0
H2640 H 0.61658 0.76415 0.11443 0.0
H2641 H 0.59669 0.79272 0.17381 0.0
H2642 H 0.59869 0.81123 0.2043 0.0
H2643 H 0.61028 0.84759 0.16308 0.0
H2644 H 0.60857 0.82921 0.13238 0.0
H2645 H 0.53711 0.78186 0.07963 0.0
H2646 H 0.56004 0.77969 0.10413 0.0
H2647 H 0.58707 0.80452 0.06098 0.0
H2648 H 0.56422 0.8062 0.03602 0.0
H2649 H 0.58333 0.81088 0.11655 0.0
H2650 H 0.60348 0.78053 0.05649 0.0
H2651 H 0.59945 0.76117 0.02722 0.0
H2652 H 0.58526 0.7277 0.07114 0.0
H2653 H 0.58898 0.74698 0.10062 0.0
C2654 C 0.64234 0.79064 0.17611 0.0
C2655 C 0.63995 0.77765 0.18837 0.0
C2656 C 0.63381 0.79253 0.15693 0.0
C2657 C 0.62253 0.7816 0.14989 0.0
C2658 C 0.62083 0.76811 0.16139 0.0
C2659 C 0.62948 0.76615 0.18049 0.0
C2660 C 0.6113 0.78503 0.13205 0.0
C2661 C 0.60942 0.77443 0.11483 0.0
C2662 C 0.60193 0.79846 0.13252 0.0
C2663 C 0.60266 0.80958 0.15086 0.0
C2664 C 0.59974 0.80465 0.17128 0.0
C2665 C 0.60082 0.81511 0.18859 0.0
C2666 C 0.60464 0.83057 0.18563 0.0
C2667 C 0.60734 0.8356 0.16535 0.0
C2668 C 0.60632 0.82517 0.14799 0.0
C2669 C 0.54799 0.78678 0.07542 0.0
C2670 C 0.54908 0.79402 0.05599 0.0
C2671 C 0.561 0.78556 0.08934 0.0
C2672 C 0.57519 0.79177 0.08413 0.0
C2673 C 0.57621 0.79949 0.06505 0.0
C2674 C 0.56323 0.8005 0.05094 0.0
C2675 C 0.58882 0.79014 0.09897 0.0
C2676 C 0.59091 0.80092 0.11584 0.0
C2677 C 0.5983 0.77689 0.09822 0.0
C2678 C 0.59634 0.76522 0.08067 0.0
C2679 C 0.59937 0.76908 0.05985 0.0
C2680 C 0.59718 0.75812 0.04324 0.0
C2681 C 0.59207 0.74323 0.04731 0.0
C2682 C 0.5892 0.73925 0.06801 0.0
C2683 C 0.59135 0.75018 0.08467 0.0
H2684 H 0.59037 0.73476 0.03443 0.0
H2685 H 0.60548 0.83865 0.19906 0.0
H2686 H 0.21469 0.67977 0.10549 0.0
H2687 H 0.20768 0.6526 0.09958 0.0
H2688 H 0.2446 0.63954 0.14441 0.0
H2689 H 0.25228 0.66669 0.14921 0.0
H2690 H 0.24617 0.62245 0.11182 0.0
H2691 H 0.2043 0.63591 0.15379 0.0
H2692 H 0.18211 0.65098 0.16579 0.0
H2693 H 0.15721 0.64164 0.10602 0.0
H2694 H 0.17932 0.6267 0.09351 0.0
H2695 H 0.22328 0.54389 0.09567 0.0
H2696 H 0.22453 0.56874 0.11566 0.0
H2697 H 0.20205 0.59118 0.0621 0.0
H2698 H 0.20122 0.56648 0.04195 0.0
H2699 H 0.19268 0.60152 0.10536 0.0
H2700 H 0.23783 0.59324 0.06259 0.0
H2701 H 0.25995 0.57762 0.05148 0.0
H2702 H 0.27812 0.57648 0.11614 0.0
H2703 H 0.25604 0.59205 0.12762 0.0
C2704 C 0.22129 0.67108 0.11407 0.0
C2705 C 0.23421 0.67529 0.12749 0.0
C2706 C 0.21713 0.65555 0.11096 0.0
C2707 C 0.22548 0.64396 0.12174 0.0
C2708 C 0.23799 0.64824 0.13587 0.0
C2709 C 0.24236 0.66375 0.13863 0.0
C2710 C 0.22215 0.62737 0.11664 0.0
C2711 C 0.23448 0.61785 0.111 0.0
C2712 C 0.2069 0.62128 0.11522 0.0
C2713 C 0.19353 0.63025 0.12266 0.0
C2714 C 0.19414 0.63716 0.14314 0.0
C2715 C 0.18156 0.64567 0.15004 0.0
C2716 C 0.16827 0.64728 0.13667 0.0
C2717 C 0.16752 0.64037 0.11636 0.0
C2718 C 0.18006 0.63186 0.10937 0.0
C2719 C 0.21839 0.55412 0.08841 0.0
C2720 C 0.21233 0.55347 0.06732 0.0
C2721 C 0.21904 0.56822 0.09979 0.0
C2722 C 0.21339 0.58171 0.09027 0.0
C2723 C 0.20636 0.58083 0.06971 0.0
C2724 C 0.20594 0.5668 0.05823 0.0
C2725 C 0.21664 0.59702 0.10046 0.0
C2726 C 0.20433 0.6062 0.10684 0.0
C2727 C 0.23189 0.6028 0.10288 0.0
C2728 C 0.24526 0.59367 0.09597 0.0
C2729 C 0.24652 0.5896 0.07443 0.0
C2730 C 0.25906 0.5808 0.06806 0.0
C2731 C 0.27041 0.57603 0.0831 0.0
C2732 C 0.26931 0.58016 0.10452 0.0
C2733 C 0.25681 0.589 0.11096 0.0
H2734 H 0.28007 0.56915 0.07815 0.0
H2735 H 0.15855 0.65387 0.14204 0.0
H2736 H 0.34286 0.78385 0.87306 0.0
H2737 H 0.36778 0.79271 0.88917 0.0
H2738 H 0.3914 0.76246 0.84623 0.0
H2739 H 0.36646 0.75317 0.83059 0.0
H2740 H 0.4035 0.75975 0.88456 0.0
H2741 H 0.39068 0.80244 0.84091 0.0
H2742 H 0.37446 0.82332 0.82593 0.0
H2743 H 0.37312 0.84523 0.88767 0.0
H2744 H 0.38915 0.82434 0.90309 0.0
H2745 H 0.47737 0.79076 0.91502 0.0
H2746 H 0.45386 0.7876 0.89155 0.0
H2747 H 0.42633 0.80494 0.94178 0.0
H2748 H 0.44978 0.80768 0.96542 0.0
H2749 H 0.41754 0.81507 0.89702 0.0
H2750 H 0.42701 0.7698 0.94039 0.0
H2751 H 0.44372 0.7491 0.95496 0.0
H2752 H 0.45208 0.7327 0.89185 0.0
H2753 H 0.43546 0.75338 0.87692 0.0
C2754 C 0.35338 0.77913 0.86707 0.0
C2755 C 0.35274 0.76778 0.85065 0.0
C2756 C 0.36761 0.7843 0.87613 0.0
C2757 C 0.38147 0.77841 0.86871 0.0
C2758 C 0.38085 0.76719 0.85217 0.0
C2759 C 0.36662 0.76191 0.84323 0.0
C2760 C 0.39657 0.78332 0.87902 0.0
C2761 C 0.40665 0.77185 0.88687 0.0
C2762 C 0.40063 0.79913 0.8824 0.0
C2763 C 0.39102 0.81174 0.87319 0.0
C2764 C 0.38683 0.81164 0.85133 0.0
C2765 C 0.37768 0.82349 0.84275 0.0
C2766 C 0.37273 0.83558 0.85585 0.0
C2767 C 0.37695 0.83585 0.87755 0.0
C2768 C 0.38608 0.82402 0.88621 0.0
C2769 C 0.4663 0.79417 0.9208 0.0
C2770 C 0.4652 0.79928 0.94193 0.0
C2771 C 0.45295 0.7924 0.90746 0.0
C2772 C 0.43844 0.79599 0.91505 0.0
C2773 C 0.43747 0.80219 0.93569 0.0
C2774 C 0.45079 0.80372 0.94913 0.0
C2775 C 0.42419 0.7915 0.90246 0.0
C2776 C 0.41435 0.80301 0.89433 0.0
C2777 C 0.42034 0.77575 0.89865 0.0
C2778 C 0.43013 0.76319 0.90756 0.0
C2779 C 0.43247 0.76181 0.92964 0.0
C2780 C 0.44188 0.75006 0.93795 0.0
C2781 C 0.44898 0.73961 0.92434 0.0
C2782 C 0.44659 0.74082 0.90237 0.0
C2783 C 0.43715 0.75252 0.89397 0.0
H2784 H 0.45633 0.73057 0.93081 0.0
H2785 H 0.36565 0.84474 0.84918 0.0
H2786 H 0.19394 0.36023 0.85537 0.0
H2787 H 0.19487 0.37993 0.88405 0.0
H2788 H 0.24424 0.38388 0.88015 0.0
H2789 H 0.24338 0.36434 0.85124 0.0
H2790 H 0.23291 0.38587 0.92356 0.0
H2791 H 0.22539 0.40746 0.85356 0.0
H2792 H 0.21207 0.40874 0.81807 0.0
H2793 H 0.16925 0.41909 0.84641 0.0
H2794 H 0.18228 0.41758 0.88211 0.0
H2795 H 0.23012 0.47564 0.93889 0.0
H2796 H 0.23073 0.45186 0.91681 0.0
H2797 H 0.20978 0.42671 0.96581 0.0
H2798 H 0.2095 0.4505 0.98805 0.0
H2799 H 0.20724 0.43445 0.90073 0.0
H2800 H 0.22261 0.38894 0.96328 0.0
H2801 H 0.23644 0.3872 0.99842 0.0
H2802 H 0.26536 0.42548 0.98439 0.0
H2803 H 0.25185 0.42732 0.94908 0.0
C2804 C 0.20503 0.36502 0.86102 0.0
C2805 C 0.21859 0.36062 0.85126 0.0
C2806 C 0.20555 0.37623 0.87737 0.0
C2807 C 0.21963 0.38328 0.88417 0.0
C2808 C 0.23331 0.3784 0.87523 0.0
C2809 C 0.23279 0.36728 0.85871 0.0
C2810 C 0.21976 0.3971 0.89846 0.0
C2811 C 0.22727 0.39649 0.91869 0.0
C2812 C 0.21253 0.41094 0.8919 0.0
C2813 C 0.20477 0.41227 0.87047 0.0
C2814 C 0.21311 0.40991 0.85221 0.0
C2815 C 0.20562 0.41068 0.83207 0.0
C2816 C 0.18982 0.41396 0.82999 0.0
C2817 C 0.18149 0.41653 0.84805 0.0
C2818 C 0.18892 0.41573 0.86824 0.0
C2819 C 0.22581 0.46496 0.94491 0.0
C2820 C 0.21992 0.4647 0.96509 0.0
C2821 C 0.22609 0.45145 0.93234 0.0
C2822 C 0.22042 0.4375 0.93975 0.0
C2823 C 0.21443 0.43729 0.95994 0.0
C2824 C 0.21422 0.45082 0.97255 0.0
C2825 C 0.22042 0.42334 0.926 0.0
C2826 C 0.21285 0.42385 0.90578 0.0
C2827 C 0.22772 0.40949 0.93258 0.0
C2828 C 0.23612 0.40834 0.95362 0.0
C2829 C 0.23197 0.39694 0.96766 0.0
C2830 C 0.23974 0.39594 0.98761 0.0
C2831 C 0.25174 0.40624 0.99363 0.0
C2832 C 0.25603 0.41754 0.97972 0.0
C2833 C 0.24831 0.41857 0.95975 0.0
H2834 H 0.25775 0.40542 0.00904 0.0
H2835 H 0.18403 0.41454 0.81437 0.0
H2836 H 0.67033 0.22253 0.86808 0.0
H2837 H 0.64578 0.21527 0.88244 0.0
H2838 H 0.62613 0.25904 0.86395 0.0
H2839 H 0.65069 0.26637 0.84964 0.0
H2840 H 0.62067 0.25302 0.90411 0.0
H2841 H 0.61515 0.22614 0.83719 0.0
H2842 H 0.62256 0.20867 0.80799 0.0
H2843 H 0.6241 0.17041 0.8499 0.0
H2844 H 0.61691 0.18771 0.87947 0.0
H2845 H 0.54283 0.23612 0.92153 0.0
H2846 H 0.5654 0.23966 0.90076 0.0
H2847 H 0.58865 0.20233 0.93314 0.0
H2848 H 0.56643 0.19913 0.95482 0.0
H2849 H 0.59166 0.20458 0.88503 0.0
H2850 H 0.59867 0.23277 0.95241 0.0
H2851 H 0.59015 0.2506 0.98056 0.0
H2852 H 0.58492 0.28697 0.93585 0.0
H2853 H 0.59317 0.26925 0.90733 0.0
C2854 C 0.66068 0.23047 0.86677 0.0
C2855 C 0.6623 0.24489 0.85737 0.0
C2856 C 0.64668 0.22632 0.87495 0.0
C2857 C 0.63408 0.23653 0.87401 0.0
C2858 C 0.63569 0.25095 0.86471 0.0
C2859 C 0.64967 0.25509 0.85648 0.0
C2860 C 0.61951 0.23254 0.88378 0.0
C2861 C 0.61424 0.24253 0.89969 0.0
C2862 C 0.61126 0.21871 0.87831 0.0
C2863 C 0.61565 0.20826 0.86061 0.0
C2864 C 0.61721 0.21403 0.84024 0.0
C2865 C 0.62135 0.20415 0.82361 0.0
C2866 C 0.62385 0.18845 0.8271 0.0
C2867 C 0.62218 0.18258 0.84723 0.0
C2868 C 0.61807 0.19242 0.86393 0.0
C2869 C 0.55271 0.22862 0.92428 0.0
C2870 C 0.5529 0.21752 0.94016 0.0
C2871 C 0.56552 0.23057 0.91222 0.0
C2872 C 0.57865 0.22131 0.91556 0.0
C2873 C 0.57855 0.20952 0.93032 0.0
C2874 C 0.56581 0.2077 0.94265 0.0
C2875 C 0.59298 0.22505 0.90523 0.0
C2876 C 0.59816 0.21505 0.88932 0.0
C2877 C 0.60113 0.23891 0.91055 0.0
C2878 C 0.59636 0.24964 0.9277 0.0
C2879 C 0.59556 0.24453 0.94854 0.0
C2880 C 0.59081 0.25462 0.96457 0.0
C2881 C 0.58695 0.2699 0.95998 0.0
C2882 C 0.58789 0.27512 0.93937 0.0
C2883 C 0.59261 0.26506 0.92327 0.0
H2884 H 0.58327 0.27769 0.97242 0.0
H2885 H 0.62703 0.18081 0.8142 0.0
H2886 H 0.76589 0.66588 0.86636 0.0
H2887 H 0.77314 0.6462 0.89204 0.0
H2888 H 0.80153 0.6237 0.84641 0.0
H2889 H 0.79358 0.6429 0.8203 0.0
H2890 H 0.78503 0.60327 0.86285 0.0
H2891 H 0.81683 0.64461 0.89228 0.0
H2892 H 0.82292 0.67102 0.90601 0.0
H2893 H 0.79185 0.66546 0.95581 0.0
H2894 H 0.78541 0.63909 0.94221 0.0
H2895 H 0.81456 0.54896 0.93643 0.0
H2896 H 0.81414 0.57106 0.91306 0.0
H2897 H 0.78014 0.5935 0.9506 0.0
H2898 H 0.78081 0.57166 0.97437 0.0
H2899 H 0.80208 0.61394 0.9382 0.0
H2900 H 0.76879 0.57361 0.90618 0.0
H2901 H 0.76301 0.54711 0.89251 0.0
H2902 H 0.79789 0.55109 0.84735 0.0
H2903 H 0.80402 0.57755 0.86096 0.0
C2904 C 0.77366 0.65672 0.86184 0.0
C2905 C 0.77897 0.65578 0.84122 0.0
C2906 C 0.77797 0.64559 0.87661 0.0
C2907 C 0.78803 0.63353 0.87127 0.0
C2908 C 0.79373 0.63287 0.8509 0.0
C2909 C 0.78921 0.64385 0.836 0.0
C2910 C 0.79169 0.621 0.88634 0.0
C2911 C 0.78908 0.60564 0.8792 0.0
C2912 C 0.79665 0.62404 0.90784 0.0
C2913 C 0.80054 0.6399 0.91611 0.0
C2914 C 0.81121 0.64906 0.90607 0.0
C2915 C 0.81474 0.66402 0.91385 0.0
C2916 C 0.80776 0.66993 0.93175 0.0
C2917 C 0.79725 0.66087 0.94194 0.0
C2918 C 0.79367 0.64591 0.93421 0.0
C2919 C 0.80718 0.55871 0.9399 0.0
C2920 C 0.79759 0.55851 0.95709 0.0
C2921 C 0.8069 0.57128 0.92648 0.0
C2922 C 0.79697 0.58381 0.92998 0.0
C2923 C 0.78785 0.58391 0.9476 0.0
C2924 C 0.78812 0.57136 0.96101 0.0
C2925 C 0.79536 0.59639 0.91461 0.0
C2926 C 0.79827 0.61168 0.92173 0.0
C2927 C 0.79076 0.59333 0.89305 0.0
C2928 C 0.78697 0.57749 0.88473 0.0
C2929 C 0.7753 0.56879 0.89343 0.0
C2930 C 0.77195 0.55378 0.88568 0.0
C2931 C 0.78011 0.5474 0.86911 0.0
C2932 C 0.7916 0.55604 0.86021 0.0
C2933 C 0.79501 0.57104 0.86792 0.0
H2934 H 0.7775 0.53578 0.86314 0.0
H2935 H 0.8105 0.68152 0.93774 0.0
loop_
_geom_bond_atom_site_label_1
_geom_bond_atom_site_label_2
_geom_bond_distance
_geom_bond_site_symmetry_2
_ccdc_geom_bond_type
C0 C1 1.560 . S
C0 H61 0.959 . S
C0 H62 0.959 . S
C0 H63 0.960 . S
C1 C0 1.560 . S
C1 O56 1.426 . S
C1 H60 0.980 . S
C2 C3 1.407 . S
C2 C7 1.418 . S
C2 O56 1.334 . S
C3 C2 1.407 . S
C3 C4 1.360 . S
C3 H64 0.929 . S
C4 C3 1.360 . S
C4 C5 1.401 . S
C4 C8 1.527 . S
C5 C4 1.401 . S
C5 C6 1.405 . S
C5 C38 1.587 . S
C6 C5 1.405 . S
C6 C7 1.332 . S
C6 C9 1.496 . S
C7 C2 1.418 . S
C7 C6 1.332 . S
C7 H65 0.929 . S
C8 C4 1.527 . S
C8 H66 0.959 . S
C8 H67 0.961 . S
C8 H68 0.961 . S
C9 C6 1.496 . S
C9 H69 0.960 . S
C9 H70 0.960 . S
C9 H71 0.961 . S
C10 C11 1.517 . S
C10 H73 0.961 . S
C10 H74 0.960 . S
C10 H75 0.959 . S
C11 C10 1.517 . S
C11 O59 1.468 . S
C11 H72 0.980 . S
C12 C13 1.349 . S
C12 C17 1.367 . S
C12 O59 1.408 . S
C13 C12 1.349 . S
C13 C14 1.407 . S
C13 H76 0.930 . S
C14 C13 1.407 . S
C14 C15 1.449 . S
C14 C18 1.535 . S
C15 C14 1.449 . S
C15 C16 1.384 . S
C15 C40 1.553 . S
C16 C15 1.384 . S
C16 C17 1.364 . S
C16 C19 1.450 . S
C17 C12 1.367 . S
C17 C16 1.364 . S
C17 H77 0.931 . S
C18 C14 1.535 . S
C18 H78 0.959 . S
C18 H79 0.961 . S
C18 H80 0.959 . S
C19 C16 1.450 . S
C19 H81 0.960 . S
C19 H82 0.960 . S
C19 H83 0.960 . S
C20 C21 1.309 . S
C20 C25 1.304 . S
C20 O58 1.435 . S
C21 C20 1.309 . S
C21 C22 1.476 . S
C21 H85 0.930 . S
C22 C21 1.476 . S
C22 C23 1.400 . S
C22 C26 1.567 . S
C23 C22 1.400 . S
C23 C24 1.373 . S
C23 C45 1.432 . S
C24 C23 1.373 . S
C24 C25 1.339 . S
C24 C27 1.530 . S
C25 C20 1.304 . S
C25 C24 1.339 . S
C25 H86 0.930 . S
C26 C22 1.567 . S
C26 H87 0.961 . S
C26 H88 0.960 . S
C26 H89 0.958 . S
C27 C24 1.530 . S
C27 H90 0.961 . S
C27 H91 0.960 . S
C27 H92 0.960 . S
C28 C29 1.530 . S
C28 H94 0.961 . S
C28 H95 0.961 . S
C28 H96 0.959 . S
C29 C28 1.530 . S
C29 O57 1.412 . S
C29 H93 0.980 . S
C30 C31 1.288 . S
C30 C35 1.377 . S
C30 O57 1.393 . S
C31 C30 1.288 . S
C31 C32 1.369 . S
C31 H97 0.932 . S
C32 C31 1.369 . S
C32 C33 1.398 . S
C32 C36 1.527 . S
C33 C32 1.398 . S
C33 C34 1.380 . S
C33 C47 1.497 . S
C34 C33 1.380 . S
C34 C35 1.383 . S
C34 C37 1.603 . S
C35 C30 1.377 . S
C35 C34 1.383 . S
C35 H98 0.929 . S
C36 C32 1.527 . S
C36 H99 0.961 . S
C36 H100 0.959 . S
C36 H101 0.959 . S
C37 C34 1.603 . S
C37 H102 0.960 . S
C37 H103 0.962 . S
C37 H104 0.961 . S
C38 C5 1.587 . S
C38 C39 1.360 . S
C38 C51 1.412 . S
C39 C38 1.360 . S
C39 C40 1.365 . S
C39 H105 0.929 . S
C40 C15 1.553 . S
C40 C39 1.365 . S
C40 C41 1.404 . S
C41 C40 1.404 . S
C41 C42 1.395 . S
C41 C52 1.451 . S
C42 C41 1.395 . S
C42 C43 1.322 . S
C42 H106 0.930 . S
C43 C42 1.322 . S
C43 C44 1.459 . S
C43 H107 0.929 . S
C44 C43 1.459 . S
C44 C45 1.445 . S
C44 C53 1.395 . S
C45 C23 1.432 . S
C45 C44 1.445 . S
C45 C46 1.370 . S
C46 C45 1.370 . S
C46 C47 1.438 . S
C46 H108 0.930 . S
C47 C33 1.497 . S
C47 C46 1.438 . S
C47 C48 1.360 . S
C48 C47 1.360 . S
C48 C49 1.401 . S
C48 C53 1.446 . S
C49 C48 1.401 . S
C49 C50 1.347 . S
C49 H109 0.929 . S
C50 C49 1.347 . S
C50 C51 1.455 . S
C50 H110 0.930 . S
C51 C38 1.412 . S
C51 C50 1.455 . S
C51 C52 1.331 . S
C52 C41 1.451 . S
C52 C51 1.331 . S
C52 C53 1.497 . S
C53 C44 1.395 . S
C53 C48 1.446 . S
C53 C52 1.497 . S
C54 C55 1.582 . S
C54 H111 0.962 . S
C54 H112 0.959 . S
C54 H113 0.958 . S
C55 C54 1.582 . S
C55 O58 1.458 . S
C55 H84 0.980 . S
O56 C1 1.426 . S
O56 C2 1.334 . S
O57 C29 1.412 . S
O57 C30 1.393 . S
O58 C20 1.435 . S
O58 C55 1.458 . S
O59 C11 1.468 . S
O59 C12 1.408 . S
H60 C1 0.980 . S
H61 C0 0.959 . S
H62 C0 0.959 . S
H63 C0 0.960 . S
H64 C3 0.929 . S
H65 C7 0.929 . S
H66 C8 0.959 . S
H67 C8 0.961 . S
H68 C8 0.961 . S
H69 C9 0.960 . S
H70 C9 0.960 . S
H71 C9 0.961 . S
H72 C11 0.980 . S
H73 C10 0.961 . S
H74 C10 0.960 . S
H75 C10 0.959 . S
H76 C13 0.930 . S
H77 C17 0.931 . S
H78 C18 0.959 . S
H79 C18 0.961 . S
H80 C18 0.959 . S
H81 C19 0.960 . S
H82 C19 0.960 . S
H83 C19 0.960 . S
H84 C55 0.980 . S
H85 C21 0.930 . S
H86 C25 0.930 . S
H87 C26 0.961 . S
H88 C26 0.960 . S
H89 C26 0.958 . S
H90 C27 0.961 . S
H91 C27 0.960 . S
H92 C27 0.960 . S
H93 C29 0.980 . S
H94 C28 0.961 . S
H95 C28 0.961 . S
H96 C28 0.959 . S
H97 C31 0.932 . S
H98 C35 0.929 . S
H99 C36 0.961 . S
H100 C36 0.959 . S
H101 C36 0.959 . S
H102 C37 0.960 . S
H103 C37 0.962 . S
H104 C37 0.961 . S
H105 C39 0.929 . S
H106 C42 0.930 . S
H107 C43 0.929 . S
H108 C46 0.930 . S
H109 C49 0.929 . S
H110 C50 0.930 . S
H111 C54 0.962 . S
H112 C54 0.959 . S
H113 C54 0.958 . S
C114 C115 1.560 . S
C114 H175 0.959 . S
C114 H176 0.959 . S
C114 H177 0.960 . S
C115 C114 1.560 . S
C115 O170 1.426 . S
C115 H174 0.980 . S
C116 C117 1.407 . S
C116 C121 1.418 . S
C116 O170 1.334 . S
C117 C116 1.407 . S
C117 C118 1.360 . S
C117 H178 0.929 . S
C118 C117 1.360 . S
C118 C119 1.401 . S
C118 C122 1.527 . S
C119 C118 1.401 . S
C119 C120 1.405 . S
C119 C152 1.587 . S
C120 C119 1.405 . S
C120 C121 1.332 . S
C120 C123 1.496 . S
C121 C116 1.418 . S
C121 C120 1.332 . S
C121 H179 0.929 . S
C122 C118 1.527 . S
C122 H180 0.959 . S
C122 H181 0.961 . S
C122 H182 0.961 . S
C123 C120 1.496 . S
C123 H183 0.960 . S
C123 H184 0.960 . S
C123 H185 0.961 . S
C124 C125 1.517 . S
C124 H187 0.961 . S
C124 H188 0.960 . S
C124 H189 0.959 . S
C125 C124 1.517 . S
C125 O173 1.468 . S
C125 H186 0.980 . S
C126 C127 1.349 . S
C126 C131 1.367 . S
C126 O173 1.408 . S
C127 C126 1.349 . S
C127 C128 1.407 . S
C127 H190 0.930 . S
C128 C127 1.407 . S
C128 C129 1.449 . S
C128 C132 1.535 . S
C129 C128 1.449 . S
C129 C130 1.384 . S
C129 C154 1.553 . S
C130 C129 1.384 . S
C130 C131 1.364 . S
C130 C133 1.450 . S
C131 C126 1.367 . S
C131 C130 1.364 . S
C131 H191 0.931 . S
C132 C128 1.535 . S
C132 H192 0.959 . S
C132 H193 0.961 . S
C132 H194 0.959 . S
C133 C130 1.450 . S
C133 H195 0.960 . S
C133 H196 0.960 . S
C133 H197 0.960 . S
C134 C135 1.309 . S
C134 C139 1.304 . S
C134 O172 1.435 . S
C135 C134 1.309 . S
C135 C136 1.476 . S
C135 H199 0.930 . S
C136 C135 1.476 . S
C136 C137 1.400 . S
C136 C140 1.567 . S
C137 C136 1.400 . S
C137 C138 1.373 . S
C137 C159 1.432 . S
C138 C137 1.373 . S
C138 C139 1.339 . S
C138 C141 1.530 . S
C139 C134 1.304 . S
C139 C138 1.339 . S
C139 H200 0.930 . S
C140 C136 1.567 . S
C140 H201 0.961 . S
C140 H202 0.960 . S
C140 H203 0.958 . S
C141 C138 1.530 . S
C141 H204 0.961 . S
C141 H205 0.960 . S
C141 H206 0.960 . S
C142 C143 1.530 . S
C142 H208 0.961 . S
C142 H209 0.961 . S
C142 H210 0.959 . S
C143 C142 1.530 . S
C143 O171 1.412 . S
C143 H207 0.980 . S
C144 C145 1.288 . S
C144 C149 1.377 . S
C144 O171 1.393 . S
C145 C144 1.288 . S
C145 C146 1.369 . S
C145 H211 0.932 . S
C146 C145 1.369 . S
C146 C147 1.398 . S
C146 C150 1.527 . S
C147 C146 1.398 . S
C147 C148 1.380 . S
C147 C161 1.497 . S
C148 C147 1.380 . S
C148 C149 1.383 . S
C148 C151 1.603 . S
C149 C144 1.377 . S
C149 C148 1.383 . S
C149 H212 0.929 . S
C150 C146 1.527 . S
C150 H213 0.961 . S
C150 H214 0.959 . S
C150 H215 0.959 . S
C151 C148 1.603 . S
C151 H216 0.960 . S
C151 H217 0.962 . S
C151 H218 0.961 . S
C152 C119 1.587 . S
C152 C153 1.360 . S
C152 C165 1.412 . S
C153 C152 1.360 . S
C153 C154 1.365 . S
C153 H219 0.929 . S
C154 C129 1.553 . S
C154 C153 1.365 . S
C154 C155 1.404 . S
C155 C154 1.404 . S
C155 C156 1.395 . S
C155 C166 1.451 . S
C156 C155 1.395 . S
C156 C157 1.322 . S
C156 H220 0.930 . S
C157 C156 1.322 . S
C157 C158 1.459 . S
C157 H221 0.929 . S
C158 C157 1.459 . S
C158 C159 1.445 . S
C158 C167 1.395 . S
C159 C137 1.432 . S
C159 C158 1.445 . S
C159 C160 1.370 . S
C160 C159 1.370 . S
C160 C161 1.438 . S
C160 H222 0.930 . S
C161 C147 1.497 . S
C161 C160 1.438 . S
C161 C162 1.360 . S
C162 C161 1.360 . S
C162 C163 1.401 . S
C162 C167 1.446 . S
C163 C162 1.401 . S
C163 C164 1.347 . S
C163 H223 0.929 . S
C164 C163 1.347 . S
C164 C165 1.455 . S
C164 H224 0.930 . S
C165 C152 1.412 . S
C165 C164 1.455 . S
C165 C166 1.331 . S
C166 C155 1.451 . S
C166 C165 1.331 . S
C166 C167 1.497 . S
C167 C158 1.395 . S
C167 C162 1.446 . S
C167 C166 1.497 . S
C168 C169 1.582 . S
C168 H225 0.962 . S
C168 H226 0.959 . S
C168 H227 0.958 . S
C169 C168 1.582 . S
C169 O172 1.458 . S
C169 H198 0.980 . S
O170 C115 1.426 . S
O170 C116 1.334 . S
O171 C143 1.412 . S
O171 C144 1.393 . S
O172 C134 1.435 . S
O172 C169 1.458 . S
O173 C125 1.468 . S
O173 C126 1.408 . S
H174 C115 0.980 . S
H175 C114 0.959 . S
H176 C114 0.959 . S
H177 C114 0.960 . S
H178 C117 0.929 . S
H179 C121 0.929 . S
H180 C122 0.959 . S
H181 C122 0.961 . S
H182 C122 0.961 . S
H183 C123 0.960 . S
H184 C123 0.960 . S
H185 C123 0.961 . S
H186 C125 0.980 . S
H187 C124 0.961 . S
H188 C124 0.960 . S
H189 C124 0.959 . S
H190 C127 0.930 . S
H191 C131 0.931 . S
H192 C132 0.959 . S
H193 C132 0.961 . S
H194 C132 0.959 . S
H195 C133 0.960 . S
H196 C133 0.960 . S
H197 C133 0.960 . S
H198 C169 0.980 . S
H199 C135 0.930 . S
H200 C139 0.930 . S
H201 C140 0.961 . S
H202 C140 0.960 . S
H203 C140 0.958 . S
H204 C141 0.961 . S
H205 C141 0.960 . S
H206 C141 0.960 . S
H207 C143 0.980 . S
H208 C142 0.961 . S
H209 C142 0.961 . S
H210 C142 0.959 . S
H211 C145 0.932 . S
H212 C149 0.929 . S
H213 C150 0.961 . S
H214 C150 0.959 . S
H215 C150 0.959 . S
H216 C151 0.960 . S
H217 C151 0.962 . S
H218 C151 0.961 . S
H219 C153 0.929 . S
H220 C156 0.930 . S
H221 C157 0.929 . S
H222 C160 0.930 . S
H223 C163 0.929 . S
H224 C164 0.930 . S
H225 C168 0.962 . S
H226 C168 0.959 . S
H227 C168 0.958 . S
C228 C229 1.560 . S
C228 H289 0.959 . S
C228 H290 0.959 . S
C228 H291 0.960 . S
C229 C228 1.560 . S
C229 O284 1.426 . S
C229 H288 0.980 . S
C230 C231 1.407 . S
C230 C235 1.418 . S
C230 O284 1.334 . S
C231 C230 1.407 . S
C231 C232 1.360 . S
C231 H292 0.929 . S
C232 C231 1.360 . S
C232 C233 1.401 . S
C232 C236 1.527 . S
C233 C232 1.401 . S
C233 C234 1.405 . S
C233 C266 1.587 . S
C234 C233 1.405 . S
C234 C235 1.332 . S
C234 C237 1.496 . S
C235 C230 1.418 . S
C235 C234 1.332 . S
C235 H293 0.929 . S
C236 C232 1.527 . S
C236 H294 0.959 . S
C236 H295 0.961 . S
C236 H296 0.961 . S
C237 C234 1.496 . S
C237 H297 0.960 . S
C237 H298 0.960 . S
C237 H299 0.961 . S
C238 C239 1.517 . S
C238 H301 0.961 . S
C238 H302 0.960 . S
C238 H303 0.959 . S
C239 C238 1.517 . S
C239 O287 1.468 . S
C239 H300 0.980 . S
C240 C241 1.349 . S
C240 C245 1.367 . S
C240 O287 1.408 . S
C241 C240 1.349 . S
C241 C242 1.407 . S
C241 H304 0.930 . S
C242 C241 1.407 . S
C242 C243 1.449 . S
C242 C246 1.535 . S
C243 C242 1.449 . S
C243 C244 1.384 . S
C243 C268 1.553 . S
C244 C243 1.384 . S
C244 C245 1.364 . S
C244 C247 1.450 . S
C245 C240 1.367 . S
C245 C244 1.364 . S
C245 H305 0.931 . S
C246 C242 1.535 . S
C246 H306 0.959 . S
C246 H307 0.961 . S
C246 H308 0.959 . S
C247 C244 1.450 . S
C247 H309 0.960 . S
C247 H310 0.960 . S
C247 H311 0.960 . S
C248 C249 1.309 . S
C248 C253 1.304 . S
C248 O286 1.435 . S
C249 C248 1.309 . S
C249 C250 1.476 . S
C249 H313 0.930 . S
C250 C249 1.476 . S
C250 C251 1.400 . S
C250 C254 1.567 . S
C251 C250 1.400 . S
C251 C252 1.373 . S
C251 C273 1.432 . S
C252 C251 1.373 . S
C252 C253 1.339 . S
C252 C255 1.530 . S
C253 C248 1.304 . S
C253 C252 1.339 . S
C253 H314 0.930 . S
C254 C250 1.567 . S
C254 H315 0.961 . S
C254 H316 0.960 . S
C254 H317 0.958 . S
C255 C252 1.530 . S
C255 H318 0.961 . S
C255 H319 0.960 . S
C255 H320 0.960 . S
C256 C257 1.530 . S
C256 H322 0.961 . S
C256 H323 0.961 . S
C256 H324 0.959 . S
C257 C256 1.530 . S
C257 O285 1.412 . S
C257 H321 0.980 . S
C258 C259 1.288 . S
C258 C263 1.377 . S
C258 O285 1.393 . S
C259 C258 1.288 . S
C259 C260 1.369 . S
C259 H325 0.932 . S
C260 C259 1.369 . S
C260 C261 1.398 . S
C260 C264 1.527 . S
C261 C260 1.398 . S
C261 C262 1.380 . S
C261 C275 1.497 . S
C262 C261 1.380 . S
C262 C263 1.383 . S
C262 C265 1.603 . S
C263 C258 1.377 . S
C263 C262 1.383 . S
C263 H326 0.929 . S
C264 C260 1.527 . S
C264 H327 0.961 . S
C264 H328 0.959 . S
C264 H329 0.959 . S
C265 C262 1.603 . S
C265 H330 0.960 . S
C265 H331 0.962 . S
C265 H332 0.961 . S
C266 C233 1.587 . S
C266 C267 1.360 . S
C266 C279 1.412 . S
C267 C266 1.360 . S
C267 C268 1.365 . S
C267 H333 0.929 . S
C268 C243 1.553 . S
C268 C267 1.365 . S
C268 C269 1.404 . S
C269 C268 1.404 . S
C269 C270 1.395 . S
C269 C280 1.451 . S
C270 C269 1.395 . S
C270 C271 1.322 . S
C270 H334 0.930 . S
C271 C270 1.322 . S
C271 C272 1.459 . S
C271 H335 0.929 . S
C272 C271 1.459 . S
C272 C273 1.445 . S
C272 C281 1.395 . S
C273 C251 1.432 . S
C273 C272 1.445 . S
C273 C274 1.370 . S
C274 C273 1.370 . S
C274 C275 1.438 . S
C274 H336 0.930 . S
C275 C261 1.497 . S
C275 C274 1.438 . S
C275 C276 1.360 . S
C276 C275 1.360 . S
C276 C277 1.401 . S
C276 C281 1.446 . S
C277 C276 1.401 . S
C277 C278 1.347 . S
C277 H337 0.929 . S
C278 C277 1.347 . S
C278 C279 1.455 . S
C278 H338 0.930 . S
C279 C266 1.412 . S
C279 C278 1.455 . S
C279 C280 1.331 . S
C280 C269 1.451 . S
C280 C279 1.331 . S
C280 C281 1.497 . S
C281 C272 1.395 . S
C281 C276 1.446 . S
C281 C280 1.497 . S
C282 C283 1.582 . S
C282 H339 0.962 . S
C282 H340 0.959 . S
C282 H341 0.958 . S
C283 C282 1.582 . S
C283 O286 1.458 . S
C283 H312 0.980 . S
O284 C229 1.426 . S
O284 C230 1.334 . S
O285 C257 1.412 . S
O285 C258 1.393 . S
O286 C248 1.435 . S
O286 C283 1.458 . S
O287 C239 1.468 . S
O287 C240 1.408 . S
H288 C229 0.980 . S
H289 C228 0.959 . S
H290 C228 0.959 . S
H291 C228 0.960 . S
H292 C231 0.929 . S
H293 C235 0.929 . S
H294 C236 0.959 . S
H295 C236 0.961 . S
H296 C236 0.961 . S
H297 C237 0.960 . S
H298 C237 0.960 . S
H299 C237 0.961 . S
H300 C239 0.980 . S
H301 C238 0.961 . S
H302 C238 0.960 . S
H303 C238 0.959 . S
H304 C241 0.930 . S
H305 C245 0.931 . S
H306 C246 0.959 . S
H307 C246 0.961 . S
H308 C246 0.959 . S
H309 C247 0.960 . S
H310 C247 0.960 . S
H311 C247 0.960 . S
H312 C283 0.980 . S
H313 C249 0.930 . S
H314 C253 0.930 . S
H315 C254 0.961 . S
H316 C254 0.960 . S
H317 C254 0.958 . S
H318 C255 0.961 . S
H319 C255 0.960 . S
H320 C255 0.960 . S
H321 C257 0.980 . S
H322 C256 0.961 . S
H323 C256 0.961 . S
H324 C256 0.959 . S
H325 C259 0.932 . S
H326 C263 0.929 . S
H327 C264 0.961 . S
H328 C264 0.959 . S
H329 C264 0.959 . S
H330 C265 0.960 . S
H331 C265 0.962 . S
H332 C265 0.961 . S
H333 C267 0.929 . S
H334 C270 0.930 . S
H335 C271 0.929 . S
H336 C274 0.930 . S
H337 C277 0.929 . S
H338 C278 0.930 . S
H339 C282 0.962 . S
H340 C282 0.959 . S
H341 C282 0.958 . S
C342 C343 1.560 . S
C342 H403 0.959 . S
C342 H404 0.959 . S
C342 H405 0.960 . S
C343 C342 1.560 . S
C343 O398 1.426 . S
C343 H402 0.980 . S
C344 C345 1.407 . S
C344 C349 1.418 . S
C344 O398 1.334 . S
C345 C344 1.407 . S
C345 C346 1.360 . S
C345 H406 0.929 . S
C346 C345 1.360 . S
C346 C347 1.401 . S
C346 C350 1.527 . S
C347 C346 1.401 . S
C347 C348 1.405 . S
C347 C380 1.587 . S
C348 C347 1.405 . S
C348 C349 1.332 . S
C348 C351 1.496 . S
C349 C344 1.418 . S
C349 C348 1.332 . S
C349 H407 0.929 . S
C350 C346 1.527 . S
C350 H408 0.959 . S
C350 H409 0.961 . S
C350 H410 0.961 . S
C351 C348 1.496 . S
C351 H411 0.960 . S
C351 H412 0.960 . S
C351 H413 0.961 . S
C352 C353 1.517 . S
C352 H415 0.961 . S
C352 H416 0.960 . S
C352 H417 0.959 . S
C353 C352 1.517 . S
C353 O401 1.468 . S
C353 H414 0.980 . S
C354 C355 1.349 . S
C354 C359 1.367 . S
C354 O401 1.408 . S
C355 C354 1.349 . S
C355 C356 1.407 . S
C355 H418 0.930 . S
C356 C355 1.407 . S
C356 C357 1.449 . S
C356 C360 1.535 . S
C357 C356 1.449 . S
C357 C358 1.384 . S
C357 C382 1.553 . S
C358 C357 1.384 . S
C358 C359 1.364 . S
C358 C361 1.450 . S
C359 C354 1.367 . S
C359 C358 1.364 . S
C359 H419 0.931 . S
C360 C356 1.535 . S
C360 H420 0.959 . S
C360 H421 0.961 . S
C360 H422 0.959 . S
C361 C358 1.450 . S
C361 H423 0.960 . S
C361 H424 0.960 . S
C361 H425 0.960 . S
C362 C363 1.309 . S
C362 C367 1.304 . S
C362 O400 1.435 . S
C363 C362 1.309 . S
C363 C364 1.476 . S
C363 H427 0.930 . S
C364 C363 1.476 . S
C364 C365 1.400 . S
C364 C368 1.567 . S
C365 C364 1.400 . S
C365 C366 1.373 . S
C365 C387 1.432 . S
C366 C365 1.373 . S
C366 C367 1.339 . S
C366 C369 1.530 . S
C367 C362 1.304 . S
C367 C366 1.339 . S
C367 H428 0.930 . S
C368 C364 1.567 . S
C368 H429 0.961 . S
C368 H430 0.960 . S
C368 H431 0.958 . S
C369 C366 1.530 . S
C369 H432 0.961 . S
C369 H433 0.960 . S
C369 H434 0.960 . S
C370 C371 1.530 . S
C370 H436 0.961 . S
C370 H437 0.961 . S
C370 H438 0.959 . S
C371 C370 1.530 . S
C371 O399 1.412 . S
C371 H435 0.980 . S
C372 C373 1.288 . S
C372 C377 1.377 . S
C372 O399 1.393 . S
C373 C372 1.288 . S
C373 C374 1.369 . S
C373 H439 0.932 . S
C374 C373 1.369 . S
C374 C375 1.398 . S
C374 C378 1.527 . S
C375 C374 1.398 . S
C375 C376 1.380 . S
C375 C389 1.497 . S
C376 C375 1.380 . S
C376 C377 1.383 . S
C376 C379 1.603 . S
C377 C372 1.377 . S
C377 C376 1.383 . S
C377 H440 0.929 . S
C378 C374 1.527 . S
C378 H441 0.961 . S
C378 H442 0.959 . S
C378 H443 0.959 . S
C379 C376 1.603 . S
C379 H444 0.960 . S
C379 H445 0.962 . S
C379 H446 0.961 . S
C380 C347 1.587 . S
C380 C381 1.360 . S
C380 C393 1.412 . S
C381 C380 1.360 . S
C381 C382 1.365 . S
C381 H447 0.929 . S
C382 C357 1.553 . S
C382 C381 1.365 . S
C382 C383 1.404 . S
C383 C382 1.404 . S
C383 C384 1.395 . S
C383 C394 1.451 . S
C384 C383 1.395 . S
C384 C385 1.322 . S
C384 H448 0.930 . S
C385 C384 1.322 . S
C385 C386 1.459 . S
C385 H449 0.929 . S
C386 C385 1.459 . S
C386 C387 1.445 . S
C386 C395 1.395 . S
C387 C365 1.432 . S
C387 C386 1.445 . S
C387 C388 1.370 . S
C388 C387 1.370 . S
C388 C389 1.438 . S
C388 H450 0.930 . S
C389 C375 1.497 . S
C389 C388 1.438 . S
C389 C390 1.360 . S
C390 C389 1.360 . S
C390 C391 1.401 . S
C390 C395 1.446 . S
C391 C390 1.401 . S
C391 C392 1.347 . S
C391 H451 0.929 . S
C392 C391 1.347 . S
C392 C393 1.455 . S
C392 H452 0.930 . S
C393 C380 1.412 . S
C393 C392 1.455 . S
C393 C394 1.331 . S
C394 C383 1.451 . S
C394 C393 1.331 . S
C394 C395 1.497 . S
C395 C386 1.395 . S
C395 C390 1.446 . S
C395 C394 1.497 . S
C396 C397 1.582 . S
C396 H453 0.962 . S
C396 H454 0.959 . S
C396 H455 0.958 . S
C397 C396 1.582 . S
C397 O400 1.458 . S
C397 H426 0.980 . S
O398 C343 1.426 . S
O398 C344 1.334 . S
O399 C371 1.412 . S
O399 C372 1.393 . S
O400 C362 1.435 . S
O400 C397 1.458 . S
O401 C353 1.468 . S
O401 C354 1.408 . S
H402 C343 0.980 . S
H403 C342 0.959 . S
H404 C342 0.959 . S
H405 C342 0.960 . S
H406 C345 0.929 . S
H407 C349 0.929 . S
H408 C350 0.959 . S
H409 C350 0.961 . S
H410 C350 0.961 . S
H411 C351 0.960 . S
H412 C351 0.960 . S
H413 C351 0.961 . S
H414 C353 0.980 . S
H415 C352 0.961 . S
H416 C352 0.960 . S
H417 C352 0.959 . S
H418 C355 0.930 . S
H419 C359 0.931 . S
H420 C360 0.959 . S
H421 C360 0.961 . S
H422 C360 0.959 . S
H423 C361 0.960 . S
H424 C361 0.960 . S
H425 C361 0.960 . S
H426 C397 0.980 . S
H427 C363 0.930 . S
H428 C367 0.930 . S
H429 C368 0.961 . S
H430 C368 0.960 . S
H431 C368 0.958 . S
H432 C369 0.961 . S
H433 C369 0.960 . S
H434 C369 0.960 . S
H435 C371 0.980 . S
H436 C370 0.961 . S
H437 C370 0.961 . S
H438 C370 0.959 . S
H439 C373 0.932 . S
H440 C377 0.929 . S
H441 C378 0.961 . S
H442 C378 0.959 . S
H443 C378 0.959 . S
H444 C379 0.960 . S
H445 C379 0.962 . S
H446 C379 0.961 . S
H447 C381 0.929 . S
H448 C384 0.930 . S
H449 C385 0.929 . S
H450 C388 0.930 . S
H451 C391 0.929 . S
H452 C392 0.930 . S
H453 C396 0.962 . S
H454 C396 0.959 . S
H455 C396 0.958 . S
C456 C457 1.560 . S
C456 H517 0.959 . S
C456 H518 0.959 . S
C456 H519 0.960 . S
C457 C456 1.560 . S
C457 O512 1.426 . S
C457 H516 0.980 . S
C458 C459 1.407 . S
C458 C463 1.418 . S
C458 O512 1.334 . S
C459 C458 1.407 . S
C459 C460 1.360 . S
C459 H520 0.929 . S
C460 C459 1.360 . S
C460 C461 1.401 . S
C460 C464 1.527 . S
C461 C460 1.401 . S
C461 C462 1.405 . S
C461 C494 1.587 . S
C462 C461 1.405 . S
C462 C463 1.332 . S
C462 C465 1.496 . S
C463 C458 1.418 . S
C463 C462 1.332 . S
C463 H521 0.929 . S
C464 C460 1.527 . S
C464 H522 0.959 . S
C464 H523 0.961 . S
C464 H524 0.961 . S
C465 C462 1.496 . S
C465 H525 0.960 . S
C465 H526 0.960 . S
C465 H527 0.961 . S
C466 C467 1.517 . S
C466 H529 0.961 . S
C466 H530 0.960 . S
C466 H531 0.959 . S
C467 C466 1.517 . S
C467 O515 1.468 . S
C467 H528 0.980 . S
C468 C469 1.349 . S
C468 C473 1.367 . S
C468 O515 1.408 . S
C469 C468 1.349 . S
C469 C470 1.407 . S
C469 H532 0.930 . S
C470 C469 1.407 . S
C470 C471 1.449 . S
C470 C474 1.535 . S
C471 C470 1.449 . S
C471 C472 1.384 . S
C471 C496 1.553 . S
C472 C471 1.384 . S
C472 C473 1.364 . S
C472 C475 1.450 . S
C473 C468 1.367 . S
C473 C472 1.364 . S
C473 H533 0.931 . S
C474 C470 1.535 . S
C474 H534 0.959 . S
C474 H535 0.961 . S
C474 H536 0.959 . S
C475 C472 1.450 . S
C475 H537 0.960 . S
C475 H538 0.960 . S
C475 H539 0.960 . S
C476 C477 1.309 . S
C476 C481 1.304 . S
C476 O514 1.435 . S
C477 C476 1.309 . S
C477 C478 1.476 . S
C477 H541 0.930 . S
C478 C477 1.476 . S
C478 C479 1.400 . S
C478 C482 1.567 . S
C479 C478 1.400 . S
C479 C480 1.373 . S
C479 C501 1.432 . S
C480 C479 1.373 . S
C480 C481 1.339 . S
C480 C483 1.530 . S
C481 C476 1.304 . S
C481 C480 1.339 . S
C481 H542 0.930 . S
C482 C478 1.567 . S
C482 H543 0.961 . S
C482 H544 0.960 . S
C482 H545 0.958 . S
C483 C480 1.530 . S
C483 H546 0.961 . S
C483 H547 0.960 . S
C483 H548 0.960 . S
C484 C485 1.530 . S
C484 H550 0.961 . S
C484 H551 0.961 . S
C484 H552 0.959 . S
C485 C484 1.530 . S
C485 O513 1.412 . S
C485 H549 0.980 . S
C486 C487 1.288 . S
C486 C491 1.377 . S
C486 O513 1.393 . S
C487 C486 1.288 . S
C487 C488 1.369 . S
C487 H553 0.932 . S
C488 C487 1.369 . S
C488 C489 1.398 . S
C488 C492 1.527 . S
C489 C488 1.398 . S
C489 C490 1.380 . S
C489 C503 1.497 . S
C490 C489 1.380 . S
C490 C491 1.383 . S
C490 C493 1.603 . S
C491 C486 1.377 . S
C491 C490 1.383 . S
C491 H554 0.929 . S
C492 C488 1.527 . S
C492 H555 0.961 . S
C492 H556 0.959 . S
C492 H557 0.959 . S
C493 C490 1.603 . S
C493 H558 0.960 . S
C493 H559 0.962 . S
C493 H560 0.961 . S
C494 C461 1.587 . S
C494 C495 1.360 . S
C494 C507 1.412 . S
C495 C494 1.360 . S
C495 C496 1.365 . S
C495 H561 0.929 . S
C496 C471 1.553 . S
C496 C495 1.365 . S
C496 C497 1.404 . S
C497 C496 1.404 . S
C497 C498 1.395 . S
C497 C508 1.451 . S
C498 C497 1.395 . S
C498 C499 1.322 . S
C498 H562 0.930 . S
C499 C498 1.322 . S
C499 C500 1.459 . S
C499 H563 0.929 . S
C500 C499 1.459 . S
C500 C501 1.445 . S
C500 C509 1.395 . S
C501 C479 1.432 . S
C501 C500 1.445 . S
C501 C502 1.370 . S
C502 C501 1.370 . S
C502 C503 1.438 . S
C502 H564 0.930 . S
C503 C489 1.497 . S
C503 C502 1.438 . S
C503 C504 1.360 . S
C504 C503 1.360 . S
C504 C505 1.401 . S
C504 C509 1.446 . S
C505 C504 1.401 . S
C505 C506 1.347 . S
C505 H565 0.929 . S
C506 C505 1.347 . S
C506 C507 1.455 . S
C506 H566 0.930 . S
C507 C494 1.412 . S
C507 C506 1.455 . S
C507 C508 1.331 . S
C508 C497 1.451 . S
C508 C507 1.331 . S
C508 C509 1.497 . S
C509 C500 1.395 . S
C509 C504 1.446 . S
C509 C508 1.497 . S
C510 C511 1.582 . S
C510 H567 0.962 . S
C510 H568 0.959 . S
C510 H569 0.958 . S
C511 C510 1.582 . S
C511 O514 1.458 . S
C511 H540 0.980 . S
O512 C457 1.426 . S
O512 C458 1.334 . S
O513 C485 1.412 . S
O513 C486 1.393 . S
O514 C476 1.435 . S
O514 C511 1.458 . S
O515 C467 1.468 . S
O515 C468 1.408 . S
H516 C457 0.980 . S
H517 C456 0.959 . S
H518 C456 0.959 . S
H519 C456 0.960 . S
H520 C459 0.929 . S
H521 C463 0.929 . S
H522 C464 0.959 . S
H523 C464 0.961 . S
H524 C464 0.961 . S
H525 C465 0.960 . S
H526 C465 0.960 . S
H527 C465 0.961 . S
H528 C467 0.980 . S
H529 C466 0.961 . S
H530 C466 0.960 . S
H531 C466 0.959 . S
H532 C469 0.930 . S
H533 C473 0.931 . S
H534 C474 0.959 . S
H535 C474 0.961 . S
H536 C474 0.959 . S
H537 C475 0.960 . S
H538 C475 0.960 . S
H539 C475 0.960 . S
H540 C511 0.980 . S
H541 C477 0.930 . S
H542 C481 0.930 . S
H543 C482 0.961 . S
H544 C482 0.960 . S
H545 C482 0.958 . S
H546 C483 0.961 . S
H547 C483 0.960 . S
H548 C483 0.960 . S
H549 C485 0.980 . S
H550 C484 0.961 . S
H551 C484 0.961 . S
H552 C484 0.959 . S
H553 C487 0.932 . S
H554 C491 0.929 . S
H555 C492 0.961 . S
H556 C492 0.959 . S
H557 C492 0.959 . S
H558 C493 0.960 . S
H559 C493 0.962 . S
H560 C493 0.961 . S
H561 C495 0.929 . S
H562 C498 0.930 . S
H563 C499 0.929 . S
H564 C502 0.930 . S
H565 C505 0.929 . S
H566 C506 0.930 . S
H567 C510 0.962 . S
H568 C510 0.959 . S
H569 C510 0.958 . S
C570 C571 1.560 . S
C570 H631 0.959 . S
C570 H632 0.959 . S
C570 H633 0.960 . S
C571 C570 1.560 . S
C571 O626 1.426 . S
C571 H630 0.980 . S
C572 C573 1.407 . S
C572 C577 1.418 . S
C572 O626 1.334 . S
C573 C572 1.407 . S
C573 C574 1.360 . S
C573 H634 0.929 . S
C574 C573 1.360 . S
C574 C575 1.401 . S
C574 C578 1.527 . S
C575 C574 1.401 . S
C575 C576 1.405 . S
C575 C608 1.587 . S
C576 C575 1.405 . S
C576 C577 1.332 . S
C576 C579 1.496 . S
C577 C572 1.418 . S
C577 C576 1.332 . S
C577 H635 0.929 . S
C578 C574 1.527 . S
C578 H636 0.959 . S
C578 H637 0.961 . S
C578 H638 0.961 . S
C579 C576 1.496 . S
C579 H639 0.960 . S
C579 H640 0.960 . S
C579 H641 0.961 . S
C580 C581 1.517 . S
C580 H643 0.961 . S
C580 H644 0.960 . S
C580 H645 0.959 . S
C581 C580 1.517 . S
C581 O629 1.468 . S
C581 H642 0.980 . S
C582 C583 1.349 . S
C582 C587 1.367 . S
C582 O629 1.408 . S
C583 C582 1.349 . S
C583 C584 1.407 . S
C583 H646 0.930 . S
C584 C583 1.407 . S
C584 C585 1.449 . S
C584 C588 1.535 . S
C585 C584 1.449 . S
C585 C586 1.384 . S
C585 C610 1.553 . S
C586 C585 1.384 . S
C586 C587 1.364 . S
C586 C589 1.450 . S
C587 C582 1.367 . S
C587 C586 1.364 . S
C587 H647 0.931 . S
C588 C584 1.535 . S
C588 H648 0.959 . S
C588 H649 0.961 . S
C588 H650 0.959 . S
C589 C586 1.450 . S
C589 H651 0.960 . S
C589 H652 0.960 . S
C589 H653 0.960 . S
C590 C591 1.309 . S
C590 C595 1.304 . S
C590 O628 1.435 . S
C591 C590 1.309 . S
C591 C592 1.476 . S
C591 H655 0.930 . S
C592 C591 1.476 . S
C592 C593 1.400 . S
C592 C596 1.567 . S
C593 C592 1.400 . S
C593 C594 1.373 . S
C593 C615 1.432 . S
C594 C593 1.373 . S
C594 C595 1.339 . S
C594 C597 1.530 . S
C595 C590 1.304 . S
C595 C594 1.339 . S
C595 H656 0.930 . S
C596 C592 1.567 . S
C596 H657 0.961 . S
C596 H658 0.960 . S
C596 H659 0.958 . S
C597 C594 1.530 . S
C597 H660 0.961 . S
C597 H661 0.960 . S
C597 H662 0.960 . S
C598 C599 1.530 . S
C598 H664 0.961 . S
C598 H665 0.961 . S
C598 H666 0.959 . S
C599 C598 1.530 . S
C599 O627 1.412 . S
C599 H663 0.980 . S
C600 C601 1.288 . S
C600 C605 1.377 . S
C600 O627 1.393 . S
C601 C600 1.288 . S
C601 C602 1.369 . S
C601 H667 0.932 . S
C602 C601 1.369 . S
C602 C603 1.398 . S
C602 C606 1.527 . S
C603 C602 1.398 . S
C603 C604 1.380 . S
C603 C617 1.497 . S
C604 C603 1.380 . S
C604 C605 1.383 . S
C604 C607 1.603 . S
C605 C600 1.377 . S
C605 C604 1.383 . S
C605 H668 0.929 . S
C606 C602 1.527 . S
C606 H669 0.961 . S
C606 H670 0.959 . S
C606 H671 0.959 . S
C607 C604 1.603 . S
C607 H672 0.960 . S
C607 H673 0.962 . S
C607 H674 0.961 . S
C608 C575 1.587 . S
C608 C609 1.360 . S
C608 C621 1.412 . S
C609 C608 1.360 . S
C609 C610 1.365 . S
C609 H675 0.929 . S
C610 C585 1.553 . S
C610 C609 1.365 . S
C610 C611 1.404 . S
C611 C610 1.404 . S
C611 C612 1.395 . S
C611 C622 1.451 . S
C612 C611 1.395 . S
C612 C613 1.322 . S
C612 H676 0.930 . S
C613 C612 1.322 . S
C613 C614 1.459 . S
C613 H677 0.929 . S
C614 C613 1.459 . S
C614 C615 1.445 . S
C614 C623 1.395 . S
C615 C593 1.432 . S
C615 C614 1.445 . S
C615 C616 1.370 . S
C616 C615 1.370 . S
C616 C617 1.438 . S
C616 H678 0.930 . S
C617 C603 1.497 . S
C617 C616 1.438 . S
C617 C618 1.360 . S
C618 C617 1.360 . S
C618 C619 1.401 . S
C618 C623 1.446 . S
C619 C618 1.401 . S
C619 C620 1.347 . S
C619 H679 0.929 . S
C620 C619 1.347 . S
C620 C621 1.455 . S
C620 H680 0.930 . S
C621 C608 1.412 . S
C621 C620 1.455 . S
C621 C622 1.331 . S
C622 C611 1.451 . S
C622 C621 1.331 . S
C622 C623 1.497 . S
C623 C614 1.395 . S
C623 C618 1.446 . S
C623 C622 1.497 . S
C624 C625 1.582 . S
C624 H681 0.962 . S
C624 H682 0.959 . S
C624 H683 0.958 . S
C625 C624 1.582 . S
C625 O628 1.458 . S
C625 H654 0.980 . S
O626 C571 1.426 . S
O626 C572 1.334 . S
O627 C599 1.412 . S
O627 C600 1.393 . S
O628 C590 1.435 . S
O628 C625 1.458 . S
O629 C581 1.468 . S
O629 C582 1.408 . S
H630 C571 0.980 . S
H631 C570 0.959 . S
H632 C570 0.959 . S
H633 C570 0.960 . S
H634 C573 0.929 . S
H635 C577 0.929 . S
H636 C578 0.959 . S
H637 C578 0.961 . S
H638 C578 0.961 . S
H639 C579 0.960 . S
H640 C579 0.960 . S
H641 C579 0.961 . S
H642 C581 0.980 . S
H643 C580 0.961 . S
H644 C580 0.960 . S
H645 C580 0.959 . S
H646 C583 0.930 . S
H647 C587 0.931 . S
H648 C588 0.959 . S
H649 C588 0.961 . S
H650 C588 0.959 . S
H651 C589 0.960 . S
H652 C589 0.960 . S
H653 C589 0.960 . S
H654 C625 0.980 . S
H655 C591 0.930 . S
H656 C595 0.930 . S
H657 C596 0.961 . S
H658 C596 0.960 . S
H659 C596 0.958 . S
H660 C597 0.961 . S
H661 C597 0.960 . S
H662 C597 0.960 . S
H663 C599 0.980 . S
H664 C598 0.961 . S
H665 C598 0.961 . S
H666 C598 0.959 . S
H667 C601 0.932 . S
H668 C605 0.929 . S
H669 C606 0.961 . S
H670 C606 0.959 . S
H671 C606 0.959 . S
H672 C607 0.960 . S
H673 C607 0.962 . S
H674 C607 0.961 . S
H675 C609 0.929 . S
H676 C612 0.930 . S
H677 C613 0.929 . S
H678 C616 0.930 . S
H679 C619 0.929 . S
H680 C620 0.930 . S
H681 C624 0.962 . S
H682 C624 0.959 . S
H683 C624 0.958 . S
C684 C685 1.560 . S
C684 H745 0.959 . S
C684 H746 0.959 . S
C684 H747 0.960 . S
C685 C684 1.560 . S
C685 O740 1.426 . S
C685 H744 0.980 . S
C686 C687 1.407 . S
C686 C691 1.418 . S
C686 O740 1.334 . S
C687 C686 1.407 . S
C687 C688 1.360 . S
C687 H748 0.929 . S
C688 C687 1.360 . S
C688 C689 1.401 . S
C688 C692 1.527 . S
C689 C688 1.401 . S
C689 C690 1.405 . S
C689 C722 1.587 . S
C690 C689 1.405 . S
C690 C691 1.332 . S
C690 C693 1.496 . S
C691 C686 1.418 . S
C691 C690 1.332 . S
C691 H749 0.929 . S
C692 C688 1.527 . S
C692 H750 0.959 . S
C692 H751 0.961 . S
C692 H752 0.961 . S
C693 C690 1.496 . S
C693 H753 0.960 . S
C693 H754 0.960 . S
C693 H755 0.961 . S
C694 C695 1.517 . S
C694 H757 0.961 . S
C694 H758 0.960 . S
C694 H759 0.959 . S
C695 C694 1.517 . S
C695 O743 1.468 . S
C695 H756 0.980 . S
C696 C697 1.349 . S
C696 C701 1.367 . S
C696 O743 1.408 . S
C697 C696 1.349 . S
C697 C698 1.407 . S
C697 H760 0.930 . S
C698 C697 1.407 . S
C698 C699 1.449 . S
C698 C702 1.535 . S
C699 C698 1.449 . S
C699 C700 1.384 . S
C699 C724 1.553 . S
C700 C699 1.384 . S
C700 C701 1.364 . S
C700 C703 1.450 . S
C701 C696 1.367 . S
C701 C700 1.364 . S
C701 H761 0.931 . S
C702 C698 1.535 . S
C702 H762 0.959 . S
C702 H763 0.961 . S
C702 H764 0.959 . S
C703 C700 1.450 . S
C703 H765 0.960 . S
C703 H766 0.960 . S
C703 H767 0.960 . S
C704 C705 1.309 . S
C704 C709 1.304 . S
C704 O742 1.435 . S
C705 C704 1.309 . S
C705 C706 1.476 . S
C705 H769 0.930 . S
C706 C705 1.476 . S
C706 C707 1.400 . S
C706 C710 1.567 . S
C707 C706 1.400 . S
C707 C708 1.373 . S
C707 C729 1.432 . S
C708 C707 1.373 . S
C708 C709 1.339 . S
C708 C711 1.530 . S
C709 C704 1.304 . S
C709 C708 1.339 . S
C709 H770 0.930 . S
C710 C706 1.567 . S
C710 H771 0.961 . S
C710 H772 0.960 . S
C710 H773 0.958 . S
C711 C708 1.530 . S
C711 H774 0.961 . S
C711 H775 0.960 . S
C711 H776 0.960 . S
C712 C713 1.530 . S
C712 H778 0.961 . S
C712 H779 0.961 . S
C712 H780 0.959 . S
C713 C712 1.530 . S
C713 O741 1.412 . S
C713 H777 0.980 . S
C714 C715 1.288 . S
C714 C719 1.377 . S
C714 O741 1.393 . S
C715 C714 1.288 . S
C715 C716 1.369 . S
C715 H781 0.932 . S
C716 C715 1.369 . S
C716 C717 1.398 . S
C716 C720 1.527 . S
C717 C716 1.398 . S
C717 C718 1.380 . S
C717 C731 1.497 . S
C718 C717 1.380 . S
C718 C719 1.383 . S
C718 C721 1.603 . S
C719 C714 1.377 . S
C719 C718 1.383 . S
C719 H782 0.929 . S
C720 C716 1.527 . S
C720 H783 0.961 . S
C720 H784 0.959 . S
C720 H785 0.959 . S
C721 C718 1.603 . S
C721 H786 0.960 . S
C721 H787 0.962 . S
C721 H788 0.961 . S
C722 C689 1.587 . S
C722 C723 1.360 . S
C722 C735 1.412 . S
C723 C722 1.360 . S
C723 C724 1.365 . S
C723 H789 0.929 . S
C724 C699 1.553 . S
C724 C723 1.365 . S
C724 C725 1.404 . S
C725 C724 1.404 . S
C725 C726 1.395 . S
C725 C736 1.451 . S
C726 C725 1.395 . S
C726 C727 1.322 . S
C726 H790 0.930 . S
C727 C726 1.322 . S
C727 C728 1.459 . S
C727 H791 0.929 . S
C728 C727 1.459 . S
C728 C729 1.445 . S
C728 C737 1.395 . S
C729 C707 1.432 . S
C729 C728 1.445 . S
C729 C730 1.370 . S
C730 C729 1.370 . S
C730 C731 1.438 . S
C730 H792 0.930 . S
C731 C717 1.497 . S
C731 C730 1.438 . S
C731 C732 1.360 . S
C732 C731 1.360 . S
C732 C733 1.401 . S
C732 C737 1.446 . S
C733 C732 1.401 . S
C733 C734 1.347 . S
C733 H793 0.929 . S
C734 C733 1.347 . S
C734 C735 1.455 . S
C734 H794 0.930 . S
C735 C722 1.412 . S
C735 C734 1.455 . S
C735 C736 1.331 . S
C736 C725 1.451 . S
C736 C735 1.331 . S
C736 C737 1.497 . S
C737 C728 1.395 . S
C737 C732 1.446 . S
C737 C736 1.497 . S
C738 C739 1.582 . S
C738 H795 0.962 . S
C738 H796 0.959 . S
C738 H797 0.958 . S
C739 C738 1.582 . S
C739 O742 1.458 . S
C739 H768 0.980 . S
O740 C685 1.426 . S
O740 C686 1.334 . S
O741 C713 1.412 . S
O741 C714 1.393 . S
O742 C704 1.435 . S
O742 C739 1.458 . S
O743 C695 1.468 . S
O743 C696 1.408 . S
H744 C685 0.980 . S
H745 C684 0.959 . S
H746 C684 0.959 . S
H747 C684 0.960 . S
H748 C687 0.929 . S
H749 C691 0.929 . S
H750 C692 0.959 . S
H751 C692 0.961 . S
H752 C692 0.961 . S
H753 C693 0.960 . S
H754 C693 0.960 . S
H755 C693 0.961 . S
H756 C695 0.980 . S
H757 C694 0.961 . S
H758 C694 0.960 . S
H759 C694 0.959 . S
H760 C697 0.930 . S
H761 C701 0.931 . S
H762 C702 0.959 . S
H763 C702 0.961 . S
H764 C702 0.959 . S
H765 C703 0.960 . S
H766 C703 0.960 . S
H767 C703 0.960 . S
H768 C739 0.980 . S
H769 C705 0.930 . S
H770 C709 0.930 . S
H771 C710 0.961 . S
H772 C710 0.960 . S
H773 C710 0.958 . S
H774 C711 0.961 . S
H775 C711 0.960 . S
H776 C711 0.960 . S
H777 C713 0.980 . S
H778 C712 0.961 . S
H779 C712 0.961 . S
H780 C712 0.959 . S
H781 C715 0.932 . S
H782 C719 0.929 . S
H783 C720 0.961 . S
H784 C720 0.959 . S
H785 C720 0.959 . S
H786 C721 0.960 . S
H787 C721 0.962 . S
H788 C721 0.961 . S
H789 C723 0.929 . S
H790 C726 0.930 . S
H791 C727 0.929 . S
H792 C730 0.930 . S
H793 C733 0.929 . S
H794 C734 0.930 . S
H795 C738 0.962 . S
H796 C738 0.959 . S
H797 C738 0.958 . S
C798 C799 1.560 . S
C798 H859 0.959 . S
C798 H860 0.959 . S
C798 H861 0.960 . S
C799 C798 1.560 . S
C799 O854 1.426 . S
C799 H858 0.980 . S
C800 C801 1.407 . S
C800 C805 1.418 . S
C800 O854 1.334 . S
C801 C800 1.407 . S
C801 C802 1.360 . S
C801 H862 0.929 . S
C802 C801 1.360 . S
C802 C803 1.401 . S
C802 C806 1.527 . S
C803 C802 1.401 . S
C803 C804 1.405 . S
C803 C836 1.587 . S
C804 C803 1.405 . S
C804 C805 1.332 . S
C804 C807 1.496 . S
C805 C800 1.418 . S
C805 C804 1.332 . S
C805 H863 0.929 . S
C806 C802 1.527 . S
C806 H864 0.959 . S
C806 H865 0.961 . S
C806 H866 0.961 . S
C807 C804 1.496 . S
C807 H867 0.960 . S
C807 H868 0.960 . S
C807 H869 0.961 . S
C808 C809 1.517 . S
C808 H871 0.961 . S
C808 H872 0.960 . S
C808 H873 0.959 . S
C809 C808 1.517 . S
C809 O857 1.468 . S
C809 H870 0.980 . S
C810 C811 1.349 . S
C810 C815 1.367 . S
C810 O857 1.408 . S
C811 C810 1.349 . S
C811 C812 1.407 . S
C811 H874 0.930 . S
C812 C811 1.407 . S
C812 C813 1.449 . S
C812 C816 1.535 . S
C813 C812 1.449 . S
C813 C814 1.384 . S
C813 C838 1.553 . S
C814 C813 1.384 . S
C814 C815 1.364 . S
C814 C817 1.450 . S
C815 C810 1.367 . S
C815 C814 1.364 . S
C815 H875 0.931 . S
C816 C812 1.535 . S
C816 H876 0.959 . S
C816 H877 0.961 . S
C816 H878 0.959 . S
C817 C814 1.450 . S
C817 H879 0.960 . S
C817 H880 0.960 . S
C817 H881 0.960 . S
C818 C819 1.309 . S
C818 C823 1.304 . S
C818 O856 1.435 . S
C819 C818 1.309 . S
C819 C820 1.476 . S
C819 H883 0.930 . S
C820 C819 1.476 . S
C820 C821 1.400 . S
C820 C824 1.567 . S
C821 C820 1.400 . S
C821 C822 1.373 . S
C821 C843 1.432 . S
C822 C821 1.373 . S
C822 C823 1.339 . S
C822 C825 1.530 . S
C823 C818 1.304 . S
C823 C822 1.339 . S
C823 H884 0.930 . S
C824 C820 1.567 . S
C824 H885 0.961 . S
C824 H886 0.960 . S
C824 H887 0.958 . S
C825 C822 1.530 . S
C825 H888 0.961 . S
C825 H889 0.960 . S
C825 H890 0.960 . S
C826 C827 1.530 . S
C826 H892 0.961 . S
C826 H893 0.961 . S
C826 H894 0.959 . S
C827 C826 1.530 . S
C827 O855 1.412 . S
C827 H891 0.980 . S
C828 C829 1.288 . S
C828 C833 1.377 . S
C828 O855 1.393 . S
C829 C828 1.288 . S
C829 C830 1.369 . S
C829 H895 0.932 . S
C830 C829 1.369 . S
C830 C831 1.398 . S
C830 C834 1.527 . S
C831 C830 1.398 . S
C831 C832 1.380 . S
C831 C845 1.497 . S
C832 C831 1.380 . S
C832 C833 1.383 . S
C832 C835 1.603 . S
C833 C828 1.377 . S
C833 C832 1.383 . S
C833 H896 0.929 . S
C834 C830 1.527 . S
C834 H897 0.961 . S
C834 H898 0.959 . S
C834 H899 0.959 . S
C835 C832 1.603 . S
C835 H900 0.960 . S
C835 H901 0.962 . S
C835 H902 0.961 . S
C836 C803 1.587 . S
C836 C837 1.360 . S
C836 C849 1.412 . S
C837 C836 1.360 . S
C837 C838 1.365 . S
C837 H903 0.929 . S
C838 C813 1.553 . S
C838 C837 1.365 . S
C838 C839 1.404 . S
C839 C838 1.404 . S
C839 C840 1.395 . S
C839 C850 1.451 . S
C840 C839 1.395 . S
C840 C841 1.322 . S
C840 H904 0.930 . S
C841 C840 1.322 . S
C841 C842 1.459 . S
C841 H905 0.929 . S
C842 C841 1.459 . S
C842 C843 1.445 . S
C842 C851 1.395 . S
C843 C821 1.432 . S
C843 C842 1.445 . S
C843 C844 1.370 . S
C844 C843 1.370 . S
C844 C845 1.438 . S
C844 H906 0.930 . S
C845 C831 1.497 . S
C845 C844 1.438 . S
C845 C846 1.360 . S
C846 C845 1.360 . S
C846 C847 1.401 . S
C846 C851 1.446 . S
C847 C846 1.401 . S
C847 C848 1.347 . S
C847 H907 0.929 . S
C848 C847 1.347 . S
C848 C849 1.455 . S
C848 H908 0.930 . S
C849 C836 1.412 . S
C849 C848 1.455 . S
C849 C850 1.331 . S
C850 C839 1.451 . S
C850 C849 1.331 . S
C850 C851 1.497 . S
C851 C842 1.395 . S
C851 C846 1.446 . S
C851 C850 1.497 . S
C852 C853 1.582 . S
C852 H909 0.962 . S
C852 H910 0.959 . S
C852 H911 0.958 . S
C853 C852 1.582 . S
C853 O856 1.458 . S
C853 H882 0.980 . S
O854 C799 1.426 . S
O854 C800 1.334 . S
O855 C827 1.412 . S
O855 C828 1.393 . S
O856 C818 1.435 . S
O856 C853 1.458 . S
O857 C809 1.468 . S
O857 C810 1.408 . S
H858 C799 0.980 . S
H859 C798 0.959 . S
H860 C798 0.959 . S
H861 C798 0.960 . S
H862 C801 0.929 . S
H863 C805 0.929 . S
H864 C806 0.959 . S
H865 C806 0.961 . S
H866 C806 0.961 . S
H867 C807 0.960 . S
H868 C807 0.960 . S
H869 C807 0.961 . S
H870 C809 0.980 . S
H871 C808 0.961 . S
H872 C808 0.960 . S
H873 C808 0.959 . S
H874 C811 0.930 . S
H875 C815 0.931 . S
H876 C816 0.959 . S
H877 C816 0.961 . S
H878 C816 0.959 . S
H879 C817 0.960 . S
H880 C817 0.960 . S
H881 C817 0.960 . S
H882 C853 0.980 . S
H883 C819 0.930 . S
H884 C823 0.930 . S
H885 C824 0.961 . S
H886 C824 0.960 . S
H887 C824 0.958 . S
H888 C825 0.961 . S
H889 C825 0.960 . S
H890 C825 0.960 . S
H891 C827 0.980 . S
H892 C826 0.961 . S
H893 C826 0.961 . S
H894 C826 0.959 . S
H895 C829 0.932 . S
H896 C833 0.929 . S
H897 C834 0.961 . S
H898 C834 0.959 . S
H899 C834 0.959 . S
H900 C835 0.960 . S
H901 C835 0.962 . S
H902 C835 0.961 . S
H903 C837 0.929 . S
H904 C840 0.930 . S
H905 C841 0.929 . S
H906 C844 0.930 . S
H907 C847 0.929 . S
H908 C848 0.930 . S
H909 C852 0.962 . S
H910 C852 0.959 . S
H911 C852 0.958 . S
C912 C913 1.443 . S
C912 N916 1.376 . S
C912 C950 1.389 . S
C913 C912 1.443 . S
C913 C914 1.340 . S
C913 H953 0.951 . S
C914 C913 1.340 . S
C914 C915 1.439 . S
C914 H954 0.950 . S
C915 C914 1.439 . S
C915 N916 1.374 . S
C915 C949 1.395 . S
N916 C912 1.376 . S
N916 C915 1.374 . S
N916 Co917 2.008 . S
Co917 N916 2.008 . S
Co917 N918 1.995 1_455 S
Co917 N923 2.008 1_455 S
Co917 N928 1.995 . S
Co917 N933 2.282 1_455 S
Co917 N939 2.282 . S
N918 Co917 1.995 1_655 S
N918 C919 1.376 . S
N918 C922 1.383 . S
C919 N918 1.376 . S
C919 C920 1.446 . S
C919 C949 1.391 1_655 S
C920 C919 1.446 . S
C920 C921 1.339 . S
C920 H955 0.949 . S
C921 C920 1.339 . S
C921 C922 1.439 . S
C921 H956 0.950 . S
C922 N918 1.383 . S
C922 C921 1.439 . S
C922 C951 1.392 . S
N923 Co917 2.008 1_655 S
N923 C924 1.376 . S
N923 C927 1.374 . S
C924 N923 1.376 . S
C924 C925 1.443 . S
C924 C951 1.389 . S
C925 C924 1.443 . S
C925 C926 1.340 . S
C925 H957 0.951 . S
C926 C925 1.340 . S
C926 C927 1.439 . S
C926 H958 0.950 . S
C927 N923 1.374 . S
C927 C926 1.439 . S
C927 C952 1.395 1_655 S
N928 Co917 1.995 . S
N928 C929 1.376 . S
N928 C932 1.383 . S
C929 N928 1.376 . S
C929 C930 1.446 . S
C929 C952 1.391 . S
C930 C929 1.446 . S
C930 C931 1.339 . S
C930 H959 0.949 . S
C931 C930 1.339 . S
C931 C932 1.439 . S
C931 H960 0.950 . S
C932 N928 1.383 . S
C932 C931 1.439 . S
C932 C950 1.392 . S
N933 Co917 2.282 1_655 S
N933 C936 1.332 . S
N933 C938 1.332 . S
C934 C935 1.386 . S
C934 C937 1.388 . S
C935 C934 1.386 . S
C935 C936 1.382 . S
C935 H961 0.950 . S
C936 N933 1.332 . S
C936 C935 1.382 . S
C936 H947 0.952 . S
C937 C934 1.388 . S
C937 C938 1.382 . S
C937 H962 0.950 . S
C938 N933 1.332 . S
C938 C937 1.382 . S
C938 H948 0.948 . S
N939 Co917 2.282 . S
N939 C943 1.332 . S
N939 C944 1.332 . S
C940 C941 1.388 . S
C940 C944 1.382 . S
C940 H963 0.950 . S
C941 C940 1.388 . S
C941 C942 1.386 . S
C942 C941 1.386 . S
C942 C943 1.382 . S
C942 H964 0.950 . S
C943 N939 1.332 . S
C943 C942 1.382 . S
C943 H945 0.952 . S
C944 N939 1.332 . S
C944 C940 1.382 . S
C944 H946 0.948 . S
H945 C943 0.952 . S
H946 C944 0.948 . S
H947 C936 0.952 . S
H948 C938 0.948 . S
C949 C915 1.395 . S
C949 C919 1.391 1_455 S
C950 C912 1.389 . S
C950 C932 1.392 . S
C951 C922 1.392 . S
C951 C924 1.389 . S
C952 C927 1.395 1_455 S
C952 C929 1.391 . S
H953 C913 0.951 . S
H954 C914 0.950 . S
H955 C920 0.949 . S
H956 C921 0.950 . S
H957 C925 0.951 . S
H958 C926 0.950 . S
H959 C930 0.949 . S
H960 C931 0.950 . S
H961 C935 0.950 . S
H962 C937 0.950 . S
H963 C940 0.950 . S
H964 C942 0.950 . S
C965 C966 1.443 . S
C965 N969 1.376 . S
C965 C1003 1.389 . S
C966 C965 1.443 . S
C966 C967 1.340 . S
C966 H1006 0.951 . S
C967 C966 1.340 . S
C967 C968 1.439 . S
C967 H1007 0.950 . S
C968 C967 1.439 . S
C968 N969 1.374 . S
C968 C1002 1.395 . S
N969 C965 1.376 . S
N969 C968 1.374 . S
N969 Co970 2.008 . S
Co970 N969 2.008 . S
Co970 N971 1.995 1_545 S
Co970 N976 2.008 1_545 S
Co970 N981 1.995 . S
Co970 N986 2.282 1_545 S
Co970 N992 2.282 . S
N971 Co970 1.995 1_565 S
N971 C972 1.376 . S
N971 C975 1.383 . S
C972 N971 1.376 . S
C972 C973 1.446 . S
C972 C1002 1.391 1_565 S
C973 C972 1.446 . S
C973 C974 1.339 . S
C973 H1008 0.949 . S
C974 C973 1.339 . S
C974 C975 1.439 . S
C974 H1009 0.950 . S
C975 N971 1.383 . S
C975 C974 1.439 . S
C975 C1004 1.392 . S
N976 Co970 2.008 1_565 S
N976 C977 1.376 . S
N976 C980 1.374 . S
C977 N976 1.376 . S
C977 C978 1.443 . S
C977 C1004 1.389 . S
C978 C977 1.443 . S
C978 C979 1.340 . S
C978 H1010 0.951 . S
C979 C978 1.340 . S
C979 C980 1.439 . S
C979 H1011 0.950 . S
C980 N976 1.374 . S
C980 C979 1.439 . S
C980 C1005 1.395 1_565 S
N981 Co970 1.995 . S
N981 C982 1.376 . S
N981 C985 1.383 . S
C982 N981 1.376 . S
C982 C983 1.446 . S
C982 C1005 1.391 . S
C983 C982 1.446 . S
C983 C984 1.339 . S
C983 H1012 0.949 . S
C984 C983 1.339 . S
C984 C985 1.439 . S
C984 H1013 0.950 . S
C985 N981 1.383 . S
C985 C984 1.439 . S
C985 C1003 1.392 . S
N986 Co970 2.282 1_565 S
N986 C989 1.332 . S
N986 C991 1.332 . S
C987 C988 1.386 . S
C987 C990 1.388 . S
C988 C987 1.386 . S
C988 C989 1.382 . S
C988 H1014 0.950 . S
C989 N986 1.332 . S
C989 C988 1.382 . S
C989 H1000 0.952 . S
C990 C987 1.388 . S
C990 C991 1.382 . S
C990 H1015 0.950 . S
C991 N986 1.332 . S
C991 C990 1.382 . S
C991 H1001 0.948 . S
N992 Co970 2.282 . S
N992 C996 1.332 . S
N992 C997 1.332 . S
C993 C994 1.388 . S
C993 C997 1.382 . S
C993 H1016 0.950 . S
C994 C993 1.388 . S
C994 C995 1.386 . S
C995 C994 1.386 . S
C995 C996 1.382 . S
C995 H1017 0.950 . S
C996 N992 1.332 . S
C996 C995 1.382 . S
C996 H998 0.952 . S
C997 N992 1.332 . S
C997 C993 1.382 . S
C997 H999 0.948 . S
H998 C996 0.952 . S
H999 C997 0.948 . S
H1000 C989 0.952 . S
H1001 C991 0.948 . S
C1002 C968 1.395 . S
C1002 C972 1.391 1_545 S
C1003 C965 1.389 . S
C1003 C985 1.392 . S
C1004 C975 1.392 . S
C1004 C977 1.389 . S
C1005 C980 1.395 1_545 S
C1005 C982 1.391 . S
H1006 C966 0.951 . S
H1007 C967 0.950 . S
H1008 C973 0.949 . S
H1009 C974 0.950 . S
H1010 C978 0.951 . S
H1011 C979 0.950 . S
H1012 C983 0.949 . S
H1013 C984 0.950 . S
H1014 C988 0.950 . S
H1015 C990 0.950 . S
H1016 C993 0.950 . S
H1017 C995 0.950 . S
C1018 C1019 1.443 . S
C1018 N1022 1.376 . S
C1018 C1056 1.389 . S
C1019 C1018 1.443 . S
C1019 C1020 1.340 . S
C1019 H1059 0.951 . S
C1020 C1019 1.340 . S
C1020 C1021 1.439 . S
C1020 H1060 0.950 . S
C1021 C1020 1.439 . S
C1021 N1022 1.374 . S
C1021 C1055 1.395 . S
N1022 C1018 1.376 . S
N1022 C1021 1.374 . S
N1022 Co1023 2.008 . S
Co1023 N1022 2.008 . S
Co1023 N1024 1.995 1_455 S
Co1023 N1029 2.008 1_455 S
Co1023 N1034 1.995 . S
Co1023 N1039 2.282 1_455 S
Co1023 N1045 2.282 . S
N1024 Co1023 1.995 1_655 S
N1024 C1025 1.376 . S
N1024 C1028 1.383 . S
C1025 N1024 1.376 . S
C1025 C1026 1.446 . S
C1025 C1055 1.391 1_655 S
C1026 C1025 1.446 . S
C1026 C1027 1.339 . S
C1026 H1061 0.949 . S
C1027 C1026 1.339 . S
C1027 C1028 1.439 . S
C1027 H1062 0.950 . S
C1028 N1024 1.383 . S
C1028 C1027 1.439 . S
C1028 C1057 1.392 . S
N1029 Co1023 2.008 1_655 S
N1029 C1030 1.376 . S
N1029 C1033 1.374 . S
C1030 N1029 1.376 . S
C1030 C1031 1.443 . S
C1030 C1057 1.389 . S
C1031 C1030 1.443 . S
C1031 C1032 1.340 . S
C1031 H1063 0.951 . S
C1032 C1031 1.340 . S
C1032 C1033 1.439 . S
C1032 H1064 0.950 . S
C1033 N1029 1.374 . S
C1033 C1032 1.439 . S
C1033 C1058 1.395 1_655 S
N1034 Co1023 1.995 . S
N1034 C1035 1.376 . S
N1034 C1038 1.383 . S
C1035 N1034 1.376 . S
C1035 C1036 1.446 . S
C1035 C1058 1.391 . S
C1036 C1035 1.446 . S
C1036 C1037 1.339 . S
C1036 H1065 0.949 . S
C1037 C1036 1.339 . S
C1037 C1038 1.439 . S
C1037 H1066 0.950 . S
C1038 N1034 1.383 . S
C1038 C1037 1.439 . S
C1038 C1056 1.392 . S
N1039 Co1023 2.282 1_655 S
N1039 C1042 1.332 . S
N1039 C1044 1.332 . S
C1040 C1041 1.386 . S
C1040 C1043 1.388 . S
C1041 C1040 1.386 . S
C1041 C1042 1.382 . S
C1041 H1067 0.950 . S
C1042 N1039 1.332 . S
C1042 C1041 1.382 . S
C1042 H1053 0.952 . S
C1043 C1040 1.388 . S
C1043 C1044 1.382 . S
C1043 H1068 0.950 . S
C1044 N1039 1.332 . S
C1044 C1043 1.382 . S
C1044 H1054 0.948 . S
N1045 Co1023 2.282 . S
N1045 C1049 1.332 . S
N1045 C1050 1.332 . S
C1046 C1047 1.388 . S
C1046 C1050 1.382 . S
C1046 H1069 0.950 . S
C1047 C1046 1.388 . S
C1047 C1048 1.386 . S
C1048 C1047 1.386 . S
C1048 C1049 1.382 . S
C1048 H1070 0.950 . S
C1049 N1045 1.332 . S
C1049 C1048 1.382 . S
C1049 H1051 0.952 . S
C1050 N1045 1.332 . S
C1050 C1046 1.382 . S
C1050 H1052 0.948 . S
H1051 C1049 0.952 . S
H1052 C1050 0.948 . S
H1053 C1042 0.952 . S
H1054 C1044 0.948 . S
C1055 C1021 1.395 . S
C1055 C1025 1.391 1_455 S
C1056 C1018 1.389 . S
C1056 C1038 1.392 . S
C1057 C1028 1.392 . S
C1057 C1030 1.389 . S
C1058 C1033 1.395 1_455 S
C1058 C1035 1.391 . S
H1059 C1019 0.951 . S
H1060 C1020 0.950 . S
H1061 C1026 0.949 . S
H1062 C1027 0.950 . S
H1063 C1031 0.951 . S
H1064 C1032 0.950 . S
H1065 C1036 0.949 . S
H1066 C1037 0.950 . S
H1067 C1041 0.950 . S
H1068 C1043 0.950 . S
H1069 C1046 0.950 . S
H1070 C1048 0.950 . S
C1071 C1072 1.443 . S
C1071 N1075 1.376 . S
C1071 C1109 1.389 . S
C1072 C1071 1.443 . S
C1072 C1073 1.340 . S
C1072 H1112 0.951 . S
C1073 C1072 1.340 . S
C1073 C1074 1.439 . S
C1073 H1113 0.950 . S
C1074 C1073 1.439 . S
C1074 N1075 1.374 . S
C1074 C1108 1.395 1_565 S
N1075 C1071 1.376 . S
N1075 C1074 1.374 . S
N1075 Co1076 2.008 1_565 S
Co1076 N1075 2.008 1_545 S
Co1076 N1077 1.995 . S
Co1076 N1082 2.008 . S
Co1076 N1087 1.995 1_545 S
Co1076 N1092 2.282 . S
Co1076 N1098 2.282 1_545 S
N1077 Co1076 1.995 . S
N1077 C1078 1.376 . S
N1077 C1081 1.383 . S
C1078 N1077 1.376 . S
C1078 C1079 1.446 . S
C1078 C1108 1.391 . S
C1079 C1078 1.446 . S
C1079 C1080 1.339 . S
C1079 H1114 0.949 . S
C1080 C1079 1.339 . S
C1080 C1081 1.439 . S
C1080 H1115 0.950 . S
C1081 N1077 1.383 . S
C1081 C1080 1.439 . S
C1081 C1110 1.392 . S
N1082 Co1076 2.008 . S
N1082 C1083 1.376 . S
N1082 C1086 1.374 . S
C1083 N1082 1.376 . S
C1083 C1084 1.443 . S
C1083 C1110 1.389 . S
C1084 C1083 1.443 . S
C1084 C1085 1.340 . S
C1084 H1116 0.951 . S
C1085 C1084 1.340 . S
C1085 C1086 1.439 . S
C1085 H1117 0.950 . S
C1086 N1082 1.374 . S
C1086 C1085 1.439 . S
C1086 C1111 1.395 . S
N1087 Co1076 1.995 1_565 S
N1087 C1088 1.376 . S
N1087 C1091 1.383 . S
C1088 N1087 1.376 . S
C1088 C1089 1.446 . S
C1088 C1111 1.391 1_565 S
C1089 C1088 1.446 . S
C1089 C1090 1.339 . S
C1089 H1118 0.949 . S
C1090 C1089 1.339 . S
C1090 C1091 1.439 . S
C1090 H1119 0.950 . S
C1091 N1087 1.383 . S
C1091 C1090 1.439 . S
C1091 C1109 1.392 . S
N1092 Co1076 2.282 . S
N1092 C1095 1.332 . S
N1092 C1097 1.332 . S
C1093 C1094 1.386 . S
C1093 C1096 1.388 . S
C1094 C1093 1.386 . S
C1094 C1095 1.382 . S
C1094 H1120 0.950 . S
C1095 N1092 1.332 . S
C1095 C1094 1.382 . S
C1095 H1106 0.952 . S
C1096 C1093 1.388 . S
C1096 C1097 1.382 . S
C1096 H1121 0.950 . S
C1097 N1092 1.332 . S
C1097 C1096 1.382 . S
C1097 H1107 0.948 . S
N1098 Co1076 2.282 1_565 S
N1098 C1102 1.332 . S
N1098 C1103 1.332 . S
C1099 C1100 1.388 . S
C1099 C1103 1.382 . S
C1099 H1122 0.950 . S
C1100 C1099 1.388 . S
C1100 C1101 1.386 . S
C1101 C1100 1.386 . S
C1101 C1102 1.382 . S
C1101 H1123 0.950 . S
C1102 N1098 1.332 . S
C1102 C1101 1.382 . S
C1102 H1104 0.952 . S
C1103 N1098 1.332 . S
C1103 C1099 1.382 . S
C1103 H1105 0.948 . S
H1104 C1102 0.952 . S
H1105 C1103 0.948 . S
H1106 C1095 0.952 . S
H1107 C1097 0.948 . S
C1108 C1074 1.395 1_545 S
C1108 C1078 1.391 . S
C1109 C1071 1.389 . S
C1109 C1091 1.392 . S
C1110 C1081 1.392 . S
C1110 C1083 1.389 . S
C1111 C1086 1.395 . S
C1111 C1088 1.391 1_545 S
H1112 C1072 0.951 . S
H1113 C1073 0.950 . S
H1114 C1079 0.949 . S
H1115 C1080 0.950 . S
H1116 C1084 0.951 . S
H1117 C1085 0.950 . S
H1118 C1089 0.949 . S
H1119 C1090 0.950 . S
H1120 C1094 0.950 . S
H1121 C1096 0.950 . S
H1122 C1099 0.950 . S
H1123 C1101 0.950 . S
C1124 C1125 1.443 . S
C1124 N1128 1.376 . S
C1124 C1162 1.389 . S
C1125 C1124 1.443 . S
C1125 C1126 1.340 . S
C1125 H1165 0.951 . S
C1126 C1125 1.340 . S
C1126 C1127 1.439 . S
C1126 H1166 0.950 . S
C1127 C1126 1.439 . S
C1127 N1128 1.374 . S
C1127 C1161 1.395 1_554 S
N1128 C1124 1.376 . S
N1128 C1127 1.374 . S
N1128 Co1129 2.024 . S
Co1129 N1128 2.024 . S
Co1129 N1130 1.977 1_554 S
Co1129 N1135 1.993 1_554 S
Co1129 N1140 2.013 . S
Co1129 N1145 2.307 . S
Co1129 N1151 2.258 1_554 S
N1130 Co1129 1.977 1_556 S
N1130 C1131 1.376 . S
N1130 C1134 1.383 . S
C1131 N1130 1.376 . S
C1131 C1132 1.446 . S
C1131 C1161 1.391 . S
C1132 C1131 1.446 . S
C1132 C1133 1.339 . S
C1132 H1167 0.949 . S
C1133 C1132 1.339 . S
C1133 C1134 1.439 . S
C1133 H1168 0.950 . S
C1134 N1130 1.383 . S
C1134 C1133 1.439 . S
C1134 C1163 1.392 . S
N1135 Co1129 1.993 1_556 S
N1135 C1136 1.376 . S
N1135 C1139 1.374 . S
C1136 N1135 1.376 . S
C1136 C1137 1.443 . S
C1136 C1163 1.389 . S
C1137 C1136 1.443 . S
C1137 C1138 1.340 . S
C1137 H1169 0.951 . S
C1138 C1137 1.340 . S
C1138 C1139 1.439 . S
C1138 H1170 0.950 . S
C1139 N1135 1.374 . S
C1139 C1138 1.439 . S
C1139 C1164 1.395 1_556 S
N1140 Co1129 2.013 . S
N1140 C1141 1.376 . S
N1140 C1144 1.383 . S
C1141 N1140 1.376 . S
C1141 C1142 1.446 . S
C1141 C1164 1.391 . S
C1142 C1141 1.446 . S
C1142 C1143 1.339 . S
C1142 H1171 0.949 . S
C1143 C1142 1.339 . S
C1143 C1144 1.439 . S
C1143 H1172 0.950 . S
C1144 N1140 1.383 . S
C1144 C1143 1.439 . S
C1144 C1162 1.392 . S
N1145 Co1129 2.307 . S
N1145 C1148 1.332 . S
N1145 C1150 1.332 . S
C1146 C1147 1.386 . S
C1146 C1149 1.388 . S
C1147 C1146 1.386 . S
C1147 C1148 1.382 . S
C1147 H1173 0.950 . S
C1148 N1145 1.332 . S
C1148 C1147 1.382 . S
C1148 H1159 0.952 . S
C1149 C1146 1.388 . S
C1149 C1150 1.382 . S
C1149 H1174 0.950 . S
C1150 N1145 1.332 . S
C1150 C1149 1.382 . S
C1150 H1160 0.948 . S
N1151 Co1129 2.258 1_556 S
N1151 C1155 1.332 . S
N1151 C1156 1.332 . S
C1152 C1153 1.388 . S
C1152 C1156 1.382 . S
C1152 H1175 0.950 . S
C1153 C1152 1.388 . S
C1153 C1154 1.386 . S
C1154 C1153 1.386 . S
C1154 C1155 1.382 . S
C1154 H1176 0.950 . S
C1155 N1151 1.332 . S
C1155 C1154 1.382 . S
C1155 H1157 0.952 . S
C1156 N1151 1.332 . S
C1156 C1152 1.382 . S
C1156 H1158 0.948 . S
H1157 C1155 0.952 . S
H1158 C1156 0.948 . S
H1159 C1148 0.952 . S
H1160 C1150 0.948 . S
C1161 C1127 1.395 1_556 S
C1161 C1131 1.391 . S
C1162 C1124 1.389 . S
C1162 C1144 1.392 . S
C1163 C1134 1.392 . S
C1163 C1136 1.389 . S
C1164 C1139 1.395 1_554 S
C1164 C1141 1.391 . S
H1165 C1125 0.951 . S
H1166 C1126 0.950 . S
H1167 C1132 0.949 . S
H1168 C1133 0.950 . S
H1169 C1137 0.951 . S
H1170 C1138 0.950 . S
H1171 C1142 0.949 . S
H1172 C1143 0.950 . S
H1173 C1147 0.950 . S
H1174 C1149 0.950 . S
H1175 C1152 0.950 . S
H1176 C1154 0.950 . S
C1177 C1178 1.443 . S
C1177 N1181 1.376 . S
C1177 C1215 1.389 . S
C1178 C1177 1.443 . S
C1178 C1179 1.340 . S
C1178 H1218 0.951 . S
C1179 C1178 1.340 . S
C1179 C1180 1.439 . S
C1179 H1219 0.950 . S
C1180 C1179 1.439 . S
C1180 N1181 1.374 . S
C1180 C1214 1.395 . S
N1181 C1177 1.376 . S
N1181 C1180 1.374 . S
N1181 Co1182 2.008 . S
Co1182 N1181 2.008 . S
Co1182 N1183 1.995 1_554 S
Co1182 N1188 2.008 . S
Co1182 N1193 1.995 . S
Co1182 N1198 2.282 . S
Co1182 N1204 2.282 1_554 S
N1183 Co1182 1.995 1_556 S
N1183 C1184 1.376 . S
N1183 C1187 1.383 . S
C1184 N1183 1.376 . S
C1184 C1185 1.446 . S
C1184 C1214 1.391 1_556 S
C1185 C1184 1.446 . S
C1185 C1186 1.339 . S
C1185 H1220 0.949 . S
C1186 C1185 1.339 . S
C1186 C1187 1.439 . S
C1186 H1221 0.950 . S
C1187 N1183 1.383 . S
C1187 C1186 1.439 . S
C1187 C1216 1.392 . S
N1188 Co1182 2.008 . S
N1188 C1189 1.376 1_554 S
N1188 C1192 1.374 . S
C1189 N1188 1.376 1_556 S
C1189 C1190 1.443 . S
C1189 C1216 1.389 . S
C1190 C1189 1.443 . S
C1190 C1191 1.340 . S
C1190 H1222 0.951 . S
C1191 C1190 1.340 . S
C1191 C1192 1.439 1_556 S
C1191 H1223 0.950 . S
C1192 N1188 1.374 . S
C1192 C1191 1.439 1_554 S
C1192 C1217 1.395 . S
N1193 Co1182 1.995 . S
N1193 C1194 1.376 . S
N1193 C1197 1.383 . S
C1194 N1193 1.376 . S
C1194 C1195 1.446 . S
C1194 C1217 1.391 . S
C1195 C1194 1.446 . S
C1195 C1196 1.339 . S
C1195 H1224 0.949 . S
C1196 C1195 1.339 . S
C1196 C1197 1.439 . S
C1196 H1225 0.950 . S
C1197 N1193 1.383 . S
C1197 C1196 1.439 . S
C1197 C1215 1.392 . S
N1198 Co1182 2.282 . S
N1198 C1201 1.332 . S
N1198 C1203 1.332 . S
C1199 C1200 1.386 . S
C1199 C1202 1.388 . S
C1200 C1199 1.386 . S
C1200 C1201 1.382 . S
C1200 H1226 0.950 . S
C1201 N1198 1.332 . S
C1201 C1200 1.382 . S
C1201 H1212 0.952 . S
C1202 C1199 1.388 . S
C1202 C1203 1.382 . S
C1202 H1227 0.950 . S
C1203 N1198 1.332 . S
C1203 C1202 1.382 . S
C1203 H1213 0.948 . S
N1204 Co1182 2.282 1_556 S
N1204 C1208 1.332 . S
N1204 C1209 1.332 . S
C1205 C1206 1.388 . S
C1205 C1209 1.382 . S
C1205 H1228 0.950 . S
C1206 C1205 1.388 . S
C1206 C1207 1.386 . S
C1207 C1206 1.386 . S
C1207 C1208 1.382 . S
C1207 H1229 0.950 . S
C1208 N1204 1.332 . S
C1208 C1207 1.382 . S
C1208 H1210 0.952 . S
C1209 N1204 1.332 . S
C1209 C1205 1.382 . S
C1209 H1211 0.948 . S
H1210 C1208 0.952 . S
H1211 C1209 0.948 . S
H1212 C1201 0.952 . S
H1213 C1203 0.948 . S
C1214 C1180 1.395 . S
C1214 C1184 1.391 1_554 S
C1215 C1177 1.389 . S
C1215 C1197 1.392 . S
C1216 C1187 1.392 . S
C1216 C1189 1.389 . S
C1217 C1192 1.395 . S
C1217 C1194 1.391 . S
H1218 C1178 0.951 . S
H1219 C1179 0.950 . S
H1220 C1185 0.949 . S
H1221 C1186 0.950 . S
H1222 C1190 0.951 . S
H1223 C1191 0.950 . S
H1224 C1195 0.949 . S
H1225 C1196 0.950 . S
H1226 C1200 0.950 . S
H1227 C1202 0.950 . S
H1228 C1205 0.950 . S
H1229 C1207 0.950 . S
C1230 C1231 1.443 . S
C1230 N1234 1.366 1_556 S
C1230 C1268 1.389 . S
C1231 C1230 1.443 . S
C1231 C1232 1.340 . S
C1231 H1271 0.951 . S
C1232 C1231 1.340 . S
C1232 C1233 1.439 1_556 S
C1232 H1272 0.950 . S
C1233 C1232 1.439 1_554 S
C1233 N1234 1.378 . S
C1233 C1267 1.395 . S
N1234 C1230 1.366 1_554 S
N1234 C1233 1.378 . S
N1234 Co1235 2.015 . S
Co1235 N1234 2.015 . S
Co1235 N1236 1.995 . S
Co1235 N1241 2.008 . S
Co1235 N1246 1.995 1_554 S
Co1235 N1251 2.282 1_554 S
Co1235 N1257 2.282 . S
N1236 Co1235 1.995 . S
N1236 C1237 1.376 . S
N1236 C1240 1.383 . S
C1237 N1236 1.376 . S
C1237 C1238 1.446 . S
C1237 C1267 1.391 . S
C1238 C1237 1.446 . S
C1238 C1239 1.339 . S
C1238 H1273 0.949 . S
C1239 C1238 1.339 . S
C1239 C1240 1.439 . S
C1239 H1274 0.950 . S
C1240 N1236 1.383 . S
C1240 C1239 1.439 . S
C1240 C1269 1.392 . S
N1241 Co1235 2.008 . S
N1241 C1242 1.376 . S
N1241 C1245 1.374 . S
C1242 N1241 1.376 . S
C1242 C1243 1.443 . S
C1242 C1269 1.389 . S
C1243 C1242 1.443 . S
C1243 C1244 1.340 . S
C1243 H1275 0.951 . S
C1244 C1243 1.340 . S
C1244 C1245 1.439 . S
C1244 H1276 0.950 . S
C1245 N1241 1.374 . S
C1245 C1244 1.439 . S
C1245 C1270 1.395 . S
N1246 Co1235 1.995 1_556 S
N1246 C1247 1.376 . S
N1246 C1250 1.383 . S
C1247 N1246 1.376 . S
C1247 C1248 1.446 . S
C1247 C1270 1.391 1_556 S
C1248 C1247 1.446 . S
C1248 C1249 1.339 . S
C1248 H1277 0.949 . S
C1249 C1248 1.339 . S
C1249 C1250 1.439 . S
C1249 H1278 0.950 . S
C1250 N1246 1.383 . S
C1250 C1249 1.439 . S
C1250 C1268 1.392 . S
N1251 Co1235 2.282 1_556 S
N1251 C1254 1.332 . S
N1251 C1256 1.332 . S
C1252 C1253 1.386 . S
C1252 C1255 1.388 . S
C1253 C1252 1.386 . S
C1253 C1254 1.382 . S
C1253 H1279 0.950 . S
C1254 N1251 1.332 . S
C1254 C1253 1.382 . S
C1254 H1265 0.952 . S
C1255 C1252 1.388 . S
C1255 C1256 1.382 . S
C1255 H1280 0.950 . S
C1256 N1251 1.332 . S
C1256 C1255 1.382 . S
C1256 H1266 0.948 . S
N1257 Co1235 2.282 . S
N1257 C1261 1.332 . S
N1257 C1262 1.332 . S
C1258 C1259 1.388 . S
C1258 C1262 1.382 . S
C1258 H1281 0.950 . S
C1259 C1258 1.388 . S
C1259 C1260 1.386 . S
C1260 C1259 1.386 . S
C1260 C1261 1.382 . S
C1260 H1282 0.950 . S
C1261 N1257 1.332 . S
C1261 C1260 1.382 . S
C1261 H1263 0.952 . S
C1262 N1257 1.332 . S
C1262 C1258 1.382 . S
C1262 H1264 0.948 . S
H1263 C1261 0.952 . S
H1264 C1262 0.948 . S
H1265 C1254 0.952 . S
H1266 C1256 0.948 . S
C1267 C1233 1.395 . S
C1267 C1237 1.391 . S
C1268 C1230 1.389 . S
C1268 C1250 1.392 . S
C1269 C1240 1.392 . S
C1269 C1242 1.389 . S
C1270 C1245 1.395 . S
C1270 C1247 1.391 1_554 S
H1271 C1231 0.951 . S
H1272 C1232 0.950 . S
H1273 C1238 0.949 . S
H1274 C1239 0.950 . S
H1275 C1243 0.951 . S
H1276 C1244 0.950 . S
H1277 C1248 0.949 . S
H1278 C1249 0.950 . S
H1279 C1253 0.950 . S
H1280 C1255 0.950 . S
H1281 C1258 0.950 . S
H1282 C1260 0.950 . S
C1283 C1284 1.443 . S
C1283 N1287 1.376 . S
C1283 C1321 1.389 . S
C1284 C1283 1.443 . S
C1284 C1285 1.340 . S
C1284 H1324 0.951 . S
C1285 C1284 1.340 . S
C1285 C1286 1.439 . S
C1285 H1325 0.950 . S
C1286 C1285 1.439 . S
C1286 N1287 1.374 . S
C1286 C1320 1.395 . S
N1287 C1283 1.376 . S
N1287 C1286 1.374 . S
N1287 Co1288 2.008 . S
Co1288 N1287 2.008 . S
Co1288 N1289 1.995 1_554 S
Co1288 N1294 2.008 . S
Co1288 N1299 1.995 . S
Co1288 N1304 2.282 . S
Co1288 N1310 2.282 1_554 S
N1289 Co1288 1.995 1_556 S
N1289 C1290 1.376 . S
N1289 C1293 1.383 . S
C1290 N1289 1.376 . S
C1290 C1291 1.446 . S
C1290 C1320 1.391 1_556 S
C1291 C1290 1.446 . S
C1291 C1292 1.339 . S
C1291 H1326 0.949 . S
C1292 C1291 1.339 . S
C1292 C1293 1.439 . S
C1292 H1327 0.950 . S
C1293 N1289 1.383 . S
C1293 C1292 1.439 . S
C1293 C1322 1.392 . S
N1294 Co1288 2.008 . S
N1294 C1295 1.376 1_554 S
N1294 C1298 1.374 . S
C1295 N1294 1.376 1_556 S
C1295 C1296 1.443 . S
C1295 C1322 1.389 . S
C1296 C1295 1.443 . S
C1296 C1297 1.340 . S
C1296 H1328 0.951 . S
C1297 C1296 1.340 . S
C1297 C1298 1.439 1_556 S
C1297 H1329 0.950 . S
C1298 N1294 1.374 . S
C1298 C1297 1.439 1_554 S
C1298 C1323 1.395 . S
N1299 Co1288 1.995 . S
N1299 C1300 1.376 . S
N1299 C1303 1.383 . S
C1300 N1299 1.376 . S
C1300 C1301 1.446 . S
C1300 C1323 1.391 . S
C1301 C1300 1.446 . S
C1301 C1302 1.339 . S
C1301 H1330 0.949 . S
C1302 C1301 1.339 . S
C1302 C1303 1.439 . S
C1302 H1331 0.950 . S
C1303 N1299 1.383 . S
C1303 C1302 1.439 . S
C1303 C1321 1.392 . S
N1304 Co1288 2.282 . S
N1304 C1307 1.332 . S
N1304 C1309 1.332 . S
C1305 C1306 1.386 . S
C1305 C1308 1.388 . S
C1306 C1305 1.386 . S
C1306 C1307 1.382 . S
C1306 H1332 0.950 . S
C1307 N1304 1.332 . S
C1307 C1306 1.382 . S
C1307 H1318 0.952 . S
C1308 C1305 1.388 . S
C1308 C1309 1.382 . S
C1308 H1333 0.950 . S
C1309 N1304 1.332 . S
C1309 C1308 1.382 . S
C1309 H1319 0.948 . S
N1310 Co1288 2.282 1_556 S
N1310 C1314 1.332 . S
N1310 C1315 1.332 . S
C1311 C1312 1.388 . S
C1311 C1315 1.382 . S
C1311 H1334 0.950 . S
C1312 C1311 1.388 . S
C1312 C1313 1.386 . S
C1313 C1312 1.386 . S
C1313 C1314 1.382 . S
C1313 H1335 0.950 . S
C1314 N1310 1.332 . S
C1314 C1313 1.382 . S
C1314 H1316 0.952 . S
C1315 N1310 1.332 . S
C1315 C1311 1.382 . S
C1315 H1317 0.948 . S
H1316 C1314 0.952 . S
H1317 C1315 0.948 . S
H1318 C1307 0.952 . S
H1319 C1309 0.948 . S
C1320 C1286 1.395 . S
C1320 C1290 1.391 1_554 S
C1321 C1283 1.389 . S
C1321 C1303 1.392 . S
C1322 C1293 1.392 . S
C1322 C1295 1.389 . S
C1323 C1298 1.395 . S
C1323 C1300 1.391 . S
H1324 C1284 0.951 . S
H1325 C1285 0.950 . S
H1326 C1291 0.949 . S
H1327 C1292 0.950 . S
H1328 C1296 0.951 . S
H1329 C1297 0.950 . S
H1330 C1301 0.949 . S
H1331 C1302 0.950 . S
H1332 C1306 0.950 . S
H1333 C1308 0.950 . S
H1334 C1311 0.950 . S
H1335 C1313 0.950 . S
H1336 C1354 0.951 . S
H1337 C1356 0.951 . S
H1338 C1358 0.950 . S
H1339 C1359 0.950 . S
H1340 C1361 0.950 . S
H1341 C1364 0.950 . S
H1342 C1365 0.950 . S
H1343 C1367 0.950 . S
H1344 C1368 0.950 . S
H1345 C1369 0.951 . S
H1346 C1371 0.951 . S
H1347 C1373 0.950 . S
H1348 C1374 0.950 . S
H1349 C1376 0.950 . S
H1350 C1379 0.950 . S
H1351 C1380 0.950 . S
H1352 C1382 0.950 . S
H1353 C1383 0.950 . S
C1354 H1336 0.951 . S
C1354 C1355 1.366 . S
C1354 C1356 1.388 . S
C1355 C1354 1.366 . S
C1355 C1359 1.385 . S
C1356 H1337 0.951 . S
C1356 C1354 1.388 . S
C1356 C1357 1.366 . S
C1357 C1356 1.366 . S
C1357 C1358 1.414 . S
C1357 C1360 1.499 . S
C1358 H1338 0.950 . S
C1358 C1357 1.414 . S
C1358 C1359 1.374 . S
C1359 H1339 0.950 . S
C1359 C1355 1.385 . S
C1359 C1358 1.374 . S
C1360 C1357 1.499 . S
C1360 C1361 1.373 . S
C1360 C1362 1.389 . S
C1361 H1340 0.950 . S
C1361 C1360 1.373 . S
C1361 C1377 1.377 . S
C1362 C1360 1.389 . S
C1362 C1363 1.524 . S
C1362 C1376 1.377 . S
C1363 C1362 1.524 . S
C1363 C1364 1.397 . S
C1363 C1368 1.363 . S
C1364 H1341 0.950 . S
C1364 C1363 1.397 . S
C1364 C1365 1.334 . S
C1365 H1342 0.950 . S
C1365 C1364 1.334 . S
C1365 C1366 1.287 . S
C1366 C1365 1.287 . S
C1366 C1367 1.524 . S
C1366 H1385 0.913 . S
C1367 H1343 0.950 . S
C1367 C1366 1.524 . S
C1367 C1368 1.415 . S
C1368 H1344 0.950 . S
C1368 C1363 1.363 . S
C1368 C1367 1.415 . S
C1369 H1345 0.951 . S
C1369 C1370 1.366 . S
C1369 C1371 1.388 . S
C1370 C1369 1.366 . S
C1370 C1374 1.385 . S
C1371 H1346 0.951 . S
C1371 C1369 1.388 . S
C1371 C1372 1.366 . S
C1372 C1371 1.366 . S
C1372 C1373 1.414 . S
C1372 C1375 1.499 . S
C1373 H1347 0.950 . S
C1373 C1372 1.414 . S
C1373 C1374 1.374 . S
C1374 H1348 0.950 . S
C1374 C1370 1.385 . S
C1374 C1373 1.374 . S
C1375 C1372 1.499 . S
C1375 C1376 1.373 . S
C1375 C1377 1.389 . S
C1376 H1349 0.950 . S
C1376 C1362 1.377 . S
C1376 C1375 1.373 . S
C1377 C1361 1.377 . S
C1377 C1375 1.389 . S
C1377 C1378 1.524 . S
C1378 C1377 1.524 . S
C1378 C1379 1.397 . S
C1378 C1383 1.363 . S
C1379 H1350 0.950 . S
C1379 C1378 1.397 . S
C1379 C1380 1.334 . S
C1380 H1351 0.950 . S
C1380 C1379 1.334 . S
C1380 C1381 1.287 . S
C1381 C1380 1.287 . S
C1381 C1382 1.524 . S
C1381 H1384 0.999 . S
C1382 H1352 0.950 . S
C1382 C1381 1.524 . S
C1382 C1383 1.415 . S
C1383 H1353 0.950 . S
C1383 C1378 1.363 . S
C1383 C1382 1.415 . S
H1384 C1381 0.999 . S
H1385 C1366 0.913 . S
H1386 C1404 0.951 . S
H1387 C1406 0.951 . S
H1388 C1408 0.950 . S
H1389 C1409 0.950 . S
H1390 C1411 0.950 . S
H1391 C1414 0.950 . S
H1392 C1415 0.950 . S
H1393 C1417 0.950 . S
H1394 C1418 0.950 . S
H1395 C1419 0.951 . S
H1396 C1421 0.951 . S
H1397 C1423 0.950 . S
H1398 C1424 0.950 . S
H1399 C1426 0.950 . S
H1400 C1429 0.950 . S
H1401 C1430 0.950 . S
H1402 C1432 0.950 . S
H1403 C1433 0.950 . S
C1404 H1386 0.951 . S
C1404 C1405 1.366 . S
C1404 C1406 1.388 . S
C1405 C1404 1.366 . S
C1405 C1409 1.385 . S
C1406 H1387 0.951 . S
C1406 C1404 1.388 . S
C1406 C1407 1.366 . S
C1407 C1406 1.366 . S
C1407 C1408 1.414 . S
C1407 C1410 1.499 . S
C1408 H1388 0.950 . S
C1408 C1407 1.414 . S
C1408 C1409 1.374 . S
C1409 H1389 0.950 . S
C1409 C1405 1.385 . S
C1409 C1408 1.374 . S
C1410 C1407 1.499 . S
C1410 C1411 1.373 . S
C1410 C1412 1.389 . S
C1411 H1390 0.950 . S
C1411 C1410 1.373 . S
C1411 C1427 1.377 . S
C1412 C1410 1.389 . S
C1412 C1413 1.524 . S
C1412 C1426 1.377 . S
C1413 C1412 1.524 . S
C1413 C1414 1.397 . S
C1413 C1418 1.363 . S
C1414 H1391 0.950 . S
C1414 C1413 1.397 . S
C1414 C1415 1.334 . S
C1415 H1392 0.950 . S
C1415 C1414 1.334 . S
C1415 C1416 1.287 . S
C1416 C1415 1.287 . S
C1416 C1417 1.524 . S
C1416 H1435 0.913 . S
C1417 H1393 0.950 . S
C1417 C1416 1.524 . S
C1417 C1418 1.415 . S
C1418 H1394 0.950 . S
C1418 C1413 1.363 . S
C1418 C1417 1.415 . S
C1419 H1395 0.951 . S
C1419 C1420 1.366 . S
C1419 C1421 1.388 . S
C1420 C1419 1.366 . S
C1420 C1424 1.385 . S
C1421 H1396 0.951 . S
C1421 C1419 1.388 . S
C1421 C1422 1.366 . S
C1422 C1421 1.366 . S
C1422 C1423 1.414 . S
C1422 C1425 1.499 . S
C1423 H1397 0.950 . S
C1423 C1422 1.414 . S
C1423 C1424 1.374 . S
C1424 H1398 0.950 . S
C1424 C1420 1.385 . S
C1424 C1423 1.374 . S
C1425 C1422 1.499 . S
C1425 C1426 1.373 . S
C1425 C1427 1.389 . S
C1426 H1399 0.950 . S
C1426 C1412 1.377 . S
C1426 C1425 1.373 . S
C1427 C1411 1.377 . S
C1427 C1425 1.389 . S
C1427 C1428 1.524 . S
C1428 C1427 1.524 . S
C1428 C1429 1.397 . S
C1428 C1433 1.363 . S
C1429 H1400 0.950 . S
C1429 C1428 1.397 . S
C1429 C1430 1.334 . S
C1430 H1401 0.950 . S
C1430 C1429 1.334 . S
C1430 C1431 1.287 . S
C1431 C1430 1.287 . S
C1431 C1432 1.524 . S
C1431 H1434 0.999 . S
C1432 H1402 0.950 . S
C1432 C1431 1.524 . S
C1432 C1433 1.415 . S
C1433 H1403 0.950 . S
C1433 C1428 1.363 . S
C1433 C1432 1.415 . S
H1434 C1431 0.999 . S
H1435 C1416 0.913 . S
H1436 C1454 0.951 . S
H1437 C1456 0.951 . S
H1438 C1458 0.950 . S
H1439 C1459 0.950 . S
H1440 C1461 0.950 . S
H1441 C1464 0.950 . S
H1442 C1465 0.950 . S
H1443 C1467 0.950 . S
H1444 C1468 0.950 . S
H1445 C1469 0.951 . S
H1446 C1471 0.951 . S
H1447 C1473 0.950 . S
H1448 C1474 0.950 . S
H1449 C1476 0.950 . S
H1450 C1479 0.950 . S
H1451 C1480 0.950 . S
H1452 C1482 0.950 . S
H1453 C1483 0.950 . S
C1454 H1436 0.951 . S
C1454 C1455 1.366 . S
C1454 C1456 1.388 . S
C1455 C1454 1.366 . S
C1455 C1459 1.385 . S
C1456 H1437 0.951 . S
C1456 C1454 1.388 . S
C1456 C1457 1.366 . S
C1457 C1456 1.366 . S
C1457 C1458 1.414 . S
C1457 C1460 1.499 . S
C1458 H1438 0.950 . S
C1458 C1457 1.414 . S
C1458 C1459 1.374 . S
C1459 H1439 0.950 . S
C1459 C1455 1.385 . S
C1459 C1458 1.374 . S
C1460 C1457 1.499 . S
C1460 C1461 1.373 . S
C1460 C1462 1.389 . S
C1461 H1440 0.950 . S
C1461 C1460 1.373 . S
C1461 C1477 1.377 . S
C1462 C1460 1.389 . S
C1462 C1463 1.524 . S
C1462 C1476 1.377 . S
C1463 C1462 1.524 . S
C1463 C1464 1.397 . S
C1463 C1468 1.363 . S
C1464 H1441 0.950 . S
C1464 C1463 1.397 . S
C1464 C1465 1.334 . S
C1465 H1442 0.950 . S
C1465 C1464 1.334 . S
C1465 C1466 1.287 . S
C1466 C1465 1.287 . S
C1466 C1467 1.524 . S
C1466 H1485 0.913 . S
C1467 H1443 0.950 . S
C1467 C1466 1.524 . S
C1467 C1468 1.415 . S
C1468 H1444 0.950 . S
C1468 C1463 1.363 . S
C1468 C1467 1.415 . S
C1469 H1445 0.951 . S
C1469 C1470 1.366 . S
C1469 C1471 1.388 . S
C1470 C1469 1.366 . S
C1470 C1474 1.385 . S
C1471 H1446 0.951 . S
C1471 C1469 1.388 . S
C1471 C1472 1.366 . S
C1472 C1471 1.366 . S
C1472 C1473 1.414 . S
C1472 C1475 1.499 . S
C1473 H1447 0.950 . S
C1473 C1472 1.414 . S
C1473 C1474 1.374 . S
C1474 H1448 0.950 . S
C1474 C1470 1.385 . S
C1474 C1473 1.374 . S
C1475 C1472 1.499 . S
C1475 C1476 1.373 . S
C1475 C1477 1.389 . S
C1476 H1449 0.950 . S
C1476 C1462 1.377 . S
C1476 C1475 1.373 . S
C1477 C1461 1.377 . S
C1477 C1475 1.389 . S
C1477 C1478 1.524 . S
C1478 C1477 1.524 . S
C1478 C1479 1.397 . S
C1478 C1483 1.363 . S
C1479 H1450 0.950 . S
C1479 C1478 1.397 . S
C1479 C1480 1.334 . S
C1480 H1451 0.950 . S
C1480 C1479 1.334 . S
C1480 C1481 1.287 . S
C1481 C1480 1.287 . S
C1481 C1482 1.524 . S
C1481 H1484 0.999 . S
C1482 H1452 0.950 . S
C1482 C1481 1.524 . S
C1482 C1483 1.415 . S
C1483 H1453 0.950 . S
C1483 C1478 1.363 . S
C1483 C1482 1.415 . S
H1484 C1481 0.999 . S
H1485 C1466 0.913 . S
H1486 C1504 0.951 . S
H1487 C1506 0.951 . S
H1488 C1508 0.950 . S
H1489 C1509 0.950 . S
H1490 C1511 0.950 . S
H1491 C1514 0.950 . S
H1492 C1515 0.950 . S
H1493 C1517 0.950 . S
H1494 C1518 0.950 . S
H1495 C1519 0.951 . S
H1496 C1521 0.951 . S
H1497 C1523 0.950 . S
H1498 C1524 0.950 . S
H1499 C1526 0.950 . S
H1500 C1529 0.950 . S
H1501 C1530 0.950 . S
H1502 C1532 0.950 . S
H1503 C1533 0.950 . S
C1504 H1486 0.951 . S
C1504 C1505 1.366 . S
C1504 C1506 1.388 . S
C1505 C1504 1.366 . S
C1505 C1509 1.385 . S
C1506 H1487 0.951 . S
C1506 C1504 1.388 . S
C1506 C1507 1.366 . S
C1507 C1506 1.366 . S
C1507 C1508 1.414 . S
C1507 C1510 1.499 . S
C1508 H1488 0.950 . S
C1508 C1507 1.414 . S
C1508 C1509 1.374 . S
C1509 H1489 0.950 . S
C1509 C1505 1.385 . S
C1509 C1508 1.374 . S
C1510 C1507 1.499 . S
C1510 C1511 1.373 . S
C1510 C1512 1.389 . S
C1511 H1490 0.950 . S
C1511 C1510 1.373 . S
C1511 C1527 1.377 . S
C1512 C1510 1.389 . S
C1512 C1513 1.524 . S
C1512 C1526 1.377 . S
C1513 C1512 1.524 . S
C1513 C1514 1.397 . S
C1513 C1518 1.363 . S
C1514 H1491 0.950 . S
C1514 C1513 1.397 . S
C1514 C1515 1.334 . S
C1515 H1492 0.950 . S
C1515 C1514 1.334 . S
C1515 C1516 1.287 . S
C1516 C1515 1.287 . S
C1516 C1517 1.524 . S
C1516 H1535 0.913 . S
C1517 H1493 0.950 . S
C1517 C1516 1.524 . S
C1517 C1518 1.415 . S
C1518 H1494 0.950 . S
C1518 C1513 1.363 . S
C1518 C1517 1.415 . S
C1519 H1495 0.951 . S
C1519 C1520 1.366 . S
C1519 C1521 1.388 . S
C1520 C1519 1.366 . S
C1520 C1524 1.385 . S
C1521 H1496 0.951 . S
C1521 C1519 1.388 . S
C1521 C1522 1.366 . S
C1522 C1521 1.366 . S
C1522 C1523 1.414 . S
C1522 C1525 1.499 . S
C1523 H1497 0.950 . S
C1523 C1522 1.414 . S
C1523 C1524 1.374 . S
C1524 H1498 0.950 . S
C1524 C1520 1.385 . S
C1524 C1523 1.374 . S
C1525 C1522 1.499 . S
C1525 C1526 1.373 . S
C1525 C1527 1.389 . S
C1526 H1499 0.950 . S
C1526 C1512 1.377 . S
C1526 C1525 1.373 . S
C1527 C1511 1.377 . S
C1527 C1525 1.389 . S
C1527 C1528 1.524 . S
C1528 C1527 1.524 . S
C1528 C1529 1.397 . S
C1528 C1533 1.363 . S
C1529 H1500 0.950 . S
C1529 C1528 1.397 . S
C1529 C1530 1.334 . S
C1530 H1501 0.950 . S
C1530 C1529 1.334 . S
C1530 C1531 1.287 . S
C1531 C1530 1.287 . S
C1531 C1532 1.524 . S
C1531 H1534 0.999 . S
C1532 H1502 0.950 . S
C1532 C1531 1.524 . S
C1532 C1533 1.415 . S
C1533 H1503 0.950 . S
C1533 C1528 1.363 . S
C1533 C1532 1.415 . S
H1534 C1531 0.999 . S
H1535 C1516 0.913 . S
H1536 C1554 0.951 . S
H1537 C1556 0.951 . S
H1538 C1558 0.950 . S
H1539 C1559 0.950 . S
H1540 C1561 0.950 . S
H1541 C1564 0.950 . S
H1542 C1565 0.950 . S
H1543 C1567 0.950 . S
H1544 C1568 0.950 . S
H1545 C1569 0.951 . S
H1546 C1571 0.951 . S
H1547 C1573 0.950 . S
H1548 C1574 0.950 . S
H1549 C1576 0.950 . S
H1550 C1579 0.950 . S
H1551 C1580 0.950 . S
H1552 C1582 0.950 . S
H1553 C1583 0.950 . S
C1554 H1536 0.951 . S
C1554 C1555 1.366 . S
C1554 C1556 1.388 . S
C1555 C1554 1.366 . S
C1555 C1559 1.385 . S
C1556 H1537 0.951 . S
C1556 C1554 1.388 . S
C1556 C1557 1.366 . S
C1557 C1556 1.366 . S
C1557 C1558 1.414 . S
C1557 C1560 1.499 . S
C1558 H1538 0.950 . S
C1558 C1557 1.414 . S
C1558 C1559 1.374 . S
C1559 H1539 0.950 . S
C1559 C1555 1.385 . S
C1559 C1558 1.374 . S
C1560 C1557 1.499 . S
C1560 C1561 1.373 . S
C1560 C1562 1.389 . S
C1561 H1540 0.950 . S
C1561 C1560 1.373 . S
C1561 C1577 1.377 . S
C1562 C1560 1.389 . S
C1562 C1563 1.524 . S
C1562 C1576 1.377 . S
C1563 C1562 1.524 . S
C1563 C1564 1.397 . S
C1563 C1568 1.363 . S
C1564 H1541 0.950 . S
C1564 C1563 1.397 . S
C1564 C1565 1.334 . S
C1565 H1542 0.950 . S
C1565 C1564 1.334 . S
C1565 C1566 1.287 . S
C1566 C1565 1.287 . S
C1566 C1567 1.524 . S
C1566 H1585 0.913 . S
C1567 H1543 0.950 . S
C1567 C1566 1.524 . S
C1567 C1568 1.415 . S
C1568 H1544 0.950 . S
C1568 C1563 1.363 . S
C1568 C1567 1.415 . S
C1569 H1545 0.951 . S
C1569 C1570 1.366 . S
C1569 C1571 1.388 . S
C1570 C1569 1.366 . S
C1570 C1574 1.385 . S
C1571 H1546 0.951 . S
C1571 C1569 1.388 . S
C1571 C1572 1.366 . S
C1572 C1571 1.366 . S
C1572 C1573 1.414 . S
C1572 C1575 1.499 . S
C1573 H1547 0.950 . S
C1573 C1572 1.414 . S
C1573 C1574 1.374 . S
C1574 H1548 0.950 . S
C1574 C1570 1.385 . S
C1574 C1573 1.374 . S
C1575 C1572 1.499 . S
C1575 C1576 1.373 . S
C1575 C1577 1.389 . S
C1576 H1549 0.950 . S
C1576 C1562 1.377 . S
C1576 C1575 1.373 . S
C1577 C1561 1.377 . S
C1577 C1575 1.389 . S
C1577 C1578 1.524 . S
C1578 C1577 1.524 . S
C1578 C1579 1.397 . S
C1578 C1583 1.363 . S
C1579 H1550 0.950 . S
C1579 C1578 1.397 . S
C1579 C1580 1.334 . S
C1580 H1551 0.950 . S
C1580 C1579 1.334 . S
C1580 C1581 1.287 . S
C1581 C1580 1.287 . S
C1581 C1582 1.524 . S
C1581 H1584 0.999 . S
C1582 H1552 0.950 . S
C1582 C1581 1.524 . S
C1582 C1583 1.415 . S
C1583 H1553 0.950 . S
C1583 C1578 1.363 . S
C1583 C1582 1.415 . S
H1584 C1581 0.999 . S
H1585 C1566 0.913 . S
H1586 C1604 0.951 . S
H1587 C1606 0.951 . S
H1588 C1608 0.950 . S
H1589 C1609 0.950 . S
H1590 C1611 0.950 . S
H1591 C1614 0.950 . S
H1592 C1615 0.950 . S
H1593 C1617 0.950 . S
H1594 C1618 0.950 . S
H1595 C1619 0.951 . S
H1596 C1621 0.951 . S
H1597 C1623 0.950 . S
H1598 C1624 0.950 . S
H1599 C1626 0.950 . S
H1600 C1629 0.950 . S
H1601 C1630 0.950 . S
H1602 C1632 0.950 . S
H1603 C1633 0.950 . S
C1604 H1586 0.951 . S
C1604 C1605 1.366 . S
C1604 C1606 1.388 . S
C1605 C1604 1.366 . S
C1605 C1609 1.385 . S
C1606 H1587 0.951 . S
C1606 C1604 1.388 . S
C1606 C1607 1.366 . S
C1607 C1606 1.366 . S
C1607 C1608 1.414 . S
C1607 C1610 1.499 . S
C1608 H1588 0.950 . S
C1608 C1607 1.414 . S
C1608 C1609 1.374 . S
C1609 H1589 0.950 . S
C1609 C1605 1.385 . S
C1609 C1608 1.374 . S
C1610 C1607 1.499 . S
C1610 C1611 1.373 . S
C1610 C1612 1.389 . S
C1611 H1590 0.950 . S
C1611 C1610 1.373 . S
C1611 C1627 1.377 . S
C1612 C1610 1.389 . S
C1612 C1613 1.524 . S
C1612 C1626 1.377 . S
C1613 C1612 1.524 . S
C1613 C1614 1.397 . S
C1613 C1618 1.363 . S
C1614 H1591 0.950 . S
C1614 C1613 1.397 . S
C1614 C1615 1.334 . S
C1615 H1592 0.950 . S
C1615 C1614 1.334 . S
C1615 C1616 1.287 . S
C1616 C1615 1.287 . S
C1616 C1617 1.524 . S
C1616 H1635 0.913 . S
C1617 H1593 0.950 . S
C1617 C1616 1.524 . S
C1617 C1618 1.415 . S
C1618 H1594 0.950 . S
C1618 C1613 1.363 . S
C1618 C1617 1.415 . S
C1619 H1595 0.951 . S
C1619 C1620 1.366 . S
C1619 C1621 1.388 . S
C1620 C1619 1.366 . S
C1620 C1624 1.385 . S
C1621 H1596 0.951 . S
C1621 C1619 1.388 . S
C1621 C1622 1.366 . S
C1622 C1621 1.366 . S
C1622 C1623 1.414 . S
C1622 C1625 1.499 . S
C1623 H1597 0.950 . S
C1623 C1622 1.414 . S
C1623 C1624 1.374 . S
C1624 H1598 0.950 . S
C1624 C1620 1.385 . S
C1624 C1623 1.374 . S
C1625 C1622 1.499 . S
C1625 C1626 1.373 . S
C1625 C1627 1.389 . S
C1626 H1599 0.950 . S
C1626 C1612 1.377 . S
C1626 C1625 1.373 . S
C1627 C1611 1.377 . S
C1627 C1625 1.389 . S
C1627 C1628 1.524 . S
C1628 C1627 1.524 . S
C1628 C1629 1.397 . S
C1628 C1633 1.363 . S
C1629 H1600 0.950 . S
C1629 C1628 1.397 . S
C1629 C1630 1.334 . S
C1630 H1601 0.950 . S
C1630 C1629 1.334 . S
C1630 C1631 1.287 . S
C1631 C1630 1.287 . S
C1631 C1632 1.524 . S
C1631 H1634 0.999 . S
C1632 H1602 0.950 . S
C1632 C1631 1.524 . S
C1632 C1633 1.415 . S
C1633 H1603 0.950 . S
C1633 C1628 1.363 . S
C1633 C1632 1.415 . S
H1634 C1631 0.999 . S
H1635 C1616 0.913 . S
H1636 C1654 0.951 . S
H1637 C1656 0.951 . S
H1638 C1658 0.950 . S
H1639 C1659 0.950 . S
H1640 C1661 0.950 . S
H1641 C1664 0.950 . S
H1642 C1665 0.950 . S
H1643 C1667 0.950 . S
H1644 C1668 0.950 . S
H1645 C1669 0.951 . S
H1646 C1671 0.951 . S
H1647 C1673 0.950 . S
H1648 C1674 0.950 . S
H1649 C1676 0.950 . S
H1650 C1679 0.950 . S
H1651 C1680 0.950 . S
H1652 C1682 0.950 . S
H1653 C1683 0.950 . S
C1654 H1636 0.951 . S
C1654 C1655 1.366 . S
C1654 C1656 1.388 . S
C1655 C1654 1.366 . S
C1655 C1659 1.385 . S
C1656 H1637 0.951 . S
C1656 C1654 1.388 . S
C1656 C1657 1.366 . S
C1657 C1656 1.366 . S
C1657 C1658 1.414 . S
C1657 C1660 1.499 . S
C1658 H1638 0.950 . S
C1658 C1657 1.414 . S
C1658 C1659 1.374 . S
C1659 H1639 0.950 . S
C1659 C1655 1.385 . S
C1659 C1658 1.374 . S
C1660 C1657 1.499 . S
C1660 C1661 1.373 . S
C1660 C1662 1.389 . S
C1661 H1640 0.950 . S
C1661 C1660 1.373 . S
C1661 C1677 1.377 . S
C1662 C1660 1.389 . S
C1662 C1663 1.524 . S
C1662 C1676 1.377 . S
C1663 C1662 1.524 . S
C1663 C1664 1.397 . S
C1663 C1668 1.363 . S
C1664 H1641 0.950 . S
C1664 C1663 1.397 . S
C1664 C1665 1.334 . S
C1665 H1642 0.950 . S
C1665 C1664 1.334 . S
C1665 C1666 1.287 . S
C1666 C1665 1.287 . S
C1666 C1667 1.524 . S
C1666 H1685 0.913 . S
C1667 H1643 0.950 . S
C1667 C1666 1.524 . S
C1667 C1668 1.415 . S
C1668 H1644 0.950 . S
C1668 C1663 1.363 . S
C1668 C1667 1.415 . S
C1669 H1645 0.951 . S
C1669 C1670 1.366 . S
C1669 C1671 1.388 . S
C1670 C1669 1.366 . S
C1670 C1674 1.385 . S
C1671 H1646 0.951 . S
C1671 C1669 1.388 . S
C1671 C1672 1.366 . S
C1672 C1671 1.366 . S
C1672 C1673 1.414 . S
C1672 C1675 1.499 . S
C1673 H1647 0.950 . S
C1673 C1672 1.414 . S
C1673 C1674 1.374 . S
C1674 H1648 0.950 . S
C1674 C1670 1.385 . S
C1674 C1673 1.374 . S
C1675 C1672 1.499 . S
C1675 C1676 1.373 . S
C1675 C1677 1.389 . S
C1676 H1649 0.950 . S
C1676 C1662 1.377 . S
C1676 C1675 1.373 . S
C1677 C1661 1.377 . S
C1677 C1675 1.389 . S
C1677 C1678 1.524 . S
C1678 C1677 1.524 . S
C1678 C1679 1.397 . S
C1678 C1683 1.363 . S
C1679 H1650 0.950 . S
C1679 C1678 1.397 . S
C1679 C1680 1.334 . S
C1680 H1651 0.950 . S
C1680 C1679 1.334 . S
C1680 C1681 1.287 . S
C1681 C1680 1.287 . S
C1681 C1682 1.524 . S
C1681 H1684 0.999 . S
C1682 H1652 0.950 . S
C1682 C1681 1.524 . S
C1682 C1683 1.415 . S
C1683 H1653 0.950 . S
C1683 C1678 1.363 . S
C1683 C1682 1.415 . S
H1684 C1681 0.999 . S
H1685 C1666 0.913 . S
H1686 C1704 0.951 . S
H1687 C1706 0.951 . S
H1688 C1708 0.950 . S
H1689 C1709 0.950 . S
H1690 C1711 0.950 . S
H1691 C1714 0.950 . S
H1692 C1715 0.950 . S
H1693 C1717 0.950 . S
H1694 C1718 0.950 . S
H1695 C1719 0.951 . S
H1696 C1721 0.951 . S
H1697 C1723 0.950 . S
H1698 C1724 0.950 . S
H1699 C1726 0.950 . S
H1700 C1729 0.950 . S
H1701 C1730 0.950 . S
H1702 C1732 0.950 . S
H1703 C1733 0.950 . S
C1704 H1686 0.951 . S
C1704 C1705 1.366 . S
C1704 C1706 1.388 . S
C1705 C1704 1.366 . S
C1705 C1709 1.385 . S
C1706 H1687 0.951 . S
C1706 C1704 1.388 . S
C1706 C1707 1.366 . S
C1707 C1706 1.366 . S
C1707 C1708 1.414 . S
C1707 C1710 1.499 . S
C1708 H1688 0.950 . S
C1708 C1707 1.414 . S
C1708 C1709 1.374 . S
C1709 H1689 0.950 . S
C1709 C1705 1.385 . S
C1709 C1708 1.374 . S
C1710 C1707 1.499 . S
C1710 C1711 1.373 . S
C1710 C1712 1.389 . S
C1711 H1690 0.950 . S
C1711 C1710 1.373 . S
C1711 C1727 1.377 . S
C1712 C1710 1.389 . S
C1712 C1713 1.524 . S
C1712 C1726 1.377 . S
C1713 C1712 1.524 . S
C1713 C1714 1.397 . S
C1713 C1718 1.363 . S
C1714 H1691 0.950 . S
C1714 C1713 1.397 . S
C1714 C1715 1.334 . S
C1715 H1692 0.950 . S
C1715 C1714 1.334 . S
C1715 C1716 1.287 . S
C1716 C1715 1.287 . S
C1716 C1717 1.524 . S
C1716 H1735 0.913 . S
C1717 H1693 0.950 . S
C1717 C1716 1.524 . S
C1717 C1718 1.415 . S
C1718 H1694 0.950 . S
C1718 C1713 1.363 . S
C1718 C1717 1.415 . S
C1719 H1695 0.951 . S
C1719 C1720 1.366 . S
C1719 C1721 1.388 . S
C1720 C1719 1.366 . S
C1720 C1724 1.385 . S
C1721 H1696 0.951 . S
C1721 C1719 1.388 . S
C1721 C1722 1.366 . S
C1722 C1721 1.366 . S
C1722 C1723 1.414 . S
C1722 C1725 1.499 . S
C1723 H1697 0.950 . S
C1723 C1722 1.414 . S
C1723 C1724 1.374 . S
C1724 H1698 0.950 . S
C1724 C1720 1.385 . S
C1724 C1723 1.374 . S
C1725 C1722 1.499 . S
C1725 C1726 1.373 . S
C1725 C1727 1.389 . S
C1726 H1699 0.950 . S
C1726 C1712 1.377 . S
C1726 C1725 1.373 . S
C1727 C1711 1.377 . S
C1727 C1725 1.389 . S
C1727 C1728 1.524 . S
C1728 C1727 1.524 . S
C1728 C1729 1.397 . S
C1728 C1733 1.363 . S
C1729 H1700 0.950 . S
C1729 C1728 1.397 . S
C1729 C1730 1.334 . S
C1730 H1701 0.950 . S
C1730 C1729 1.334 . S
C1730 C1731 1.287 . S
C1731 C1730 1.287 . S
C1731 C1732 1.524 . S
C1731 H1734 0.999 . S
C1732 H1702 0.950 . S
C1732 C1731 1.524 . S
C1732 C1733 1.415 . S
C1733 H1703 0.950 . S
C1733 C1728 1.363 . S
C1733 C1732 1.415 . S
H1734 C1731 0.999 . S
H1735 C1716 0.913 . S
H1736 C1754 0.951 . S
H1737 C1756 0.951 . S
H1738 C1758 0.950 . S
H1739 C1759 0.950 . S
H1740 C1761 0.950 . S
H1741 C1764 0.950 . S
H1742 C1765 0.950 . S
H1743 C1767 0.950 . S
H1744 C1768 0.950 . S
H1745 C1769 0.951 . S
H1746 C1771 0.951 . S
H1747 C1773 0.950 . S
H1748 C1774 0.950 . S
H1749 C1776 0.950 . S
H1750 C1779 0.950 . S
H1751 C1780 0.950 . S
H1752 C1782 0.950 . S
H1753 C1783 0.950 . S
C1754 H1736 0.951 . S
C1754 C1755 1.366 . S
C1754 C1756 1.388 . S
C1755 C1754 1.366 . S
C1755 C1759 1.385 . S
C1756 H1737 0.951 . S
C1756 C1754 1.388 . S
C1756 C1757 1.366 . S
C1757 C1756 1.366 . S
C1757 C1758 1.414 . S
C1757 C1760 1.499 . S
C1758 H1738 0.950 . S
C1758 C1757 1.414 . S
C1758 C1759 1.374 . S
C1759 H1739 0.950 . S
C1759 C1755 1.385 . S
C1759 C1758 1.374 . S
C1760 C1757 1.499 . S
C1760 C1761 1.373 . S
C1760 C1762 1.389 . S
C1761 H1740 0.950 . S
C1761 C1760 1.373 . S
C1761 C1777 1.377 . S
C1762 C1760 1.389 . S
C1762 C1763 1.524 . S
C1762 C1776 1.377 . S
C1763 C1762 1.524 . S
C1763 C1764 1.397 . S
C1763 C1768 1.363 . S
C1764 H1741 0.950 . S
C1764 C1763 1.397 . S
C1764 C1765 1.334 . S
C1765 H1742 0.950 . S
C1765 C1764 1.334 . S
C1765 C1766 1.287 . S
C1766 C1765 1.287 . S
C1766 C1767 1.524 . S
C1766 H1785 0.913 . S
C1767 H1743 0.950 . S
C1767 C1766 1.524 . S
C1767 C1768 1.415 . S
C1768 H1744 0.950 . S
C1768 C1763 1.363 . S
C1768 C1767 1.415 . S
C1769 H1745 0.951 . S
C1769 C1770 1.366 . S
C1769 C1771 1.388 . S
C1770 C1769 1.366 . S
C1770 C1774 1.385 . S
C1771 H1746 0.951 . S
C1771 C1769 1.388 . S
C1771 C1772 1.366 . S
C1772 C1771 1.366 . S
C1772 C1773 1.414 . S
C1772 C1775 1.499 . S
C1773 H1747 0.950 . S
C1773 C1772 1.414 . S
C1773 C1774 1.374 . S
C1774 H1748 0.950 . S
C1774 C1770 1.385 . S
C1774 C1773 1.374 . S
C1775 C1772 1.499 . S
C1775 C1776 1.373 . S
C1775 C1777 1.389 . S
C1776 H1749 0.950 . S
C1776 C1762 1.377 . S
C1776 C1775 1.373 . S
C1777 C1761 1.377 . S
C1777 C1775 1.389 . S
C1777 C1778 1.524 . S
C1778 C1777 1.524 . S
C1778 C1779 1.397 . S
C1778 C1783 1.363 . S
C1779 H1750 0.950 . S
C1779 C1778 1.397 . S
C1779 C1780 1.334 . S
C1780 H1751 0.950 . S
C1780 C1779 1.334 . S
C1780 C1781 1.287 . S
C1781 C1780 1.287 . S
C1781 C1782 1.524 . S
C1781 H1784 0.999 . S
C1782 H1752 0.950 . S
C1782 C1781 1.524 . S
C1782 C1783 1.415 . S
C1783 H1753 0.950 . S
C1783 C1778 1.363 . S
C1783 C1782 1.415 . S
H1784 C1781 0.999 . S
H1785 C1766 0.913 . S
H1786 C1804 0.951 . S
H1787 C1806 0.951 . S
H1788 C1808 0.950 . S
H1789 C1809 0.950 . S
H1790 C1811 0.950 . S
H1791 C1814 0.950 . S
H1792 C1815 0.950 . S
H1793 C1817 0.950 . S
H1794 C1818 0.950 . S
H1795 C1819 0.951 . S
H1796 C1821 0.951 . S
H1797 C1823 0.950 . S
H1798 C1824 0.950 . S
H1799 C1826 0.950 . S
H1800 C1829 0.950 . S
H1801 C1830 0.950 . S
H1802 C1832 0.950 . S
H1803 C1833 0.950 . S
C1804 H1786 0.951 . S
C1804 C1805 1.366 . S
C1804 C1806 1.388 . S
C1805 C1804 1.366 . S
C1805 C1809 1.385 . S
C1806 H1787 0.951 . S
C1806 C1804 1.388 . S
C1806 C1807 1.366 . S
C1807 C1806 1.366 . S
C1807 C1808 1.414 . S
C1807 C1810 1.499 . S
C1808 H1788 0.950 . S
C1808 C1807 1.414 . S
C1808 C1809 1.374 . S
C1809 H1789 0.950 . S
C1809 C1805 1.385 . S
C1809 C1808 1.374 . S
C1810 C1807 1.499 . S
C1810 C1811 1.373 . S
C1810 C1812 1.389 . S
C1811 H1790 0.950 . S
C1811 C1810 1.373 . S
C1811 C1827 1.377 . S
C1812 C1810 1.389 . S
C1812 C1813 1.524 . S
C1812 C1826 1.377 . S
C1813 C1812 1.524 . S
C1813 C1814 1.397 . S
C1813 C1818 1.363 . S
C1814 H1791 0.950 . S
C1814 C1813 1.397 . S
C1814 C1815 1.334 . S
C1815 H1792 0.950 . S
C1815 C1814 1.334 . S
C1815 C1816 1.287 . S
C1816 C1815 1.287 . S
C1816 C1817 1.524 . S
C1816 H1835 0.913 . S
C1817 H1793 0.950 . S
C1817 C1816 1.524 . S
C1817 C1818 1.415 . S
C1818 H1794 0.950 . S
C1818 C1813 1.363 . S
C1818 C1817 1.415 . S
C1819 H1795 0.951 . S
C1819 C1820 1.366 . S
C1819 C1821 1.388 . S
C1820 C1819 1.366 . S
C1820 C1824 1.385 . S
C1821 H1796 0.951 . S
C1821 C1819 1.388 . S
C1821 C1822 1.366 . S
C1822 C1821 1.366 . S
C1822 C1823 1.414 . S
C1822 C1825 1.499 . S
C1823 H1797 0.950 . S
C1823 C1822 1.414 . S
C1823 C1824 1.374 . S
C1824 H1798 0.950 . S
C1824 C1820 1.385 . S
C1824 C1823 1.374 . S
C1825 C1822 1.499 . S
C1825 C1826 1.373 . S
C1825 C1827 1.389 . S
C1826 H1799 0.950 . S
C1826 C1812 1.377 . S
C1826 C1825 1.373 . S
C1827 C1811 1.377 . S
C1827 C1825 1.389 . S
C1827 C1828 1.524 . S
C1828 C1827 1.524 . S
C1828 C1829 1.397 . S
C1828 C1833 1.363 . S
C1829 H1800 0.950 . S
C1829 C1828 1.397 . S
C1829 C1830 1.334 . S
C1830 H1801 0.950 . S
C1830 C1829 1.334 . S
C1830 C1831 1.287 . S
C1831 C1830 1.287 . S
C1831 C1832 1.524 . S
C1831 H1834 0.999 . S
C1832 H1802 0.950 . S
C1832 C1831 1.524 . S
C1832 C1833 1.415 . S
C1833 H1803 0.950 . S
C1833 C1828 1.363 . S
C1833 C1832 1.415 . S
H1834 C1831 0.999 . S
H1835 C1816 0.913 . S
H1836 C1854 0.951 . S
H1837 C1856 0.951 . S
H1838 C1858 0.950 . S
H1839 C1859 0.950 . S
H1840 C1861 0.950 . S
H1841 C1864 0.950 . S
H1842 C1865 0.950 . S
H1843 C1867 0.950 . S
H1844 C1868 0.950 . S
H1845 C1869 0.951 . S
H1846 C1871 0.951 . S
H1847 C1873 0.950 . S
H1848 C1874 0.950 . S
H1849 C1876 0.950 . S
H1850 C1879 0.950 . S
H1851 C1880 0.950 . S
H1852 C1882 0.950 . S
H1853 C1883 0.950 . S
C1854 H1836 0.951 . S
C1854 C1855 1.366 . S
C1854 C1856 1.388 . S
C1855 C1854 1.366 . S
C1855 C1859 1.385 . S
C1856 H1837 0.951 . S
C1856 C1854 1.388 . S
C1856 C1857 1.366 . S
C1857 C1856 1.366 . S
C1857 C1858 1.414 . S
C1857 C1860 1.499 . S
C1858 H1838 0.950 . S
C1858 C1857 1.414 . S
C1858 C1859 1.374 . S
C1859 H1839 0.950 . S
C1859 C1855 1.385 . S
C1859 C1858 1.374 . S
C1860 C1857 1.499 . S
C1860 C1861 1.373 . S
C1860 C1862 1.389 . S
C1861 H1840 0.950 . S
C1861 C1860 1.373 . S
C1861 C1877 1.377 . S
C1862 C1860 1.389 . S
C1862 C1863 1.524 . S
C1862 C1876 1.377 . S
C1863 C1862 1.524 . S
C1863 C1864 1.397 . S
C1863 C1868 1.363 . S
C1864 H1841 0.950 . S
C1864 C1863 1.397 . S
C1864 C1865 1.334 . S
C1865 H1842 0.950 . S
C1865 C1864 1.334 . S
C1865 C1866 1.287 . S
C1866 C1865 1.287 . S
C1866 C1867 1.524 . S
C1866 H1885 0.913 . S
C1867 H1843 0.950 . S
C1867 C1866 1.524 . S
C1867 C1868 1.415 . S
C1868 H1844 0.950 . S
C1868 C1863 1.363 . S
C1868 C1867 1.415 . S
C1869 H1845 0.951 . S
C1869 C1870 1.366 . S
C1869 C1871 1.388 . S
C1870 C1869 1.366 . S
C1870 C1874 1.385 . S
C1871 H1846 0.951 . S
C1871 C1869 1.388 . S
C1871 C1872 1.366 . S
C1872 C1871 1.366 . S
C1872 C1873 1.414 . S
C1872 C1875 1.499 . S
C1873 H1847 0.950 . S
C1873 C1872 1.414 . S
C1873 C1874 1.374 . S
C1874 H1848 0.950 . S
C1874 C1870 1.385 . S
C1874 C1873 1.374 . S
C1875 C1872 1.499 . S
C1875 C1876 1.373 . S
C1875 C1877 1.389 . S
C1876 H1849 0.950 . S
C1876 C1862 1.377 . S
C1876 C1875 1.373 . S
C1877 C1861 1.377 . S
C1877 C1875 1.389 . S
C1877 C1878 1.524 . S
C1878 C1877 1.524 . S
C1878 C1879 1.397 . S
C1878 C1883 1.363 . S
C1879 H1850 0.950 . S
C1879 C1878 1.397 . S
C1879 C1880 1.334 . S
C1880 H1851 0.950 . S
C1880 C1879 1.334 . S
C1880 C1881 1.287 . S
C1881 C1880 1.287 . S
C1881 C1882 1.524 . S
C1881 H1884 0.999 . S
C1882 H1852 0.950 . S
C1882 C1881 1.524 . S
C1882 C1883 1.415 . S
C1883 H1853 0.950 . S
C1883 C1878 1.363 . S
C1883 C1882 1.415 . S
H1884 C1881 0.999 . S
H1885 C1866 0.913 . S
H1886 C1904 0.951 . S
H1887 C1906 0.951 . S
H1888 C1908 0.950 . S
H1889 C1909 0.950 . S
H1890 C1911 0.950 . S
H1891 C1914 0.950 . S
H1892 C1915 0.950 . S
H1893 C1917 0.950 . S
H1894 C1918 0.950 . S
H1895 C1919 0.951 . S
H1896 C1921 0.951 . S
H1897 C1923 0.950 . S
H1898 C1924 0.950 . S
H1899 C1926 0.950 . S
H1900 C1929 0.950 . S
H1901 C1930 0.950 . S
H1902 C1932 0.950 . S
H1903 C1933 0.950 . S
C1904 H1886 0.951 . S
C1904 C1905 1.366 . S
C1904 C1906 1.388 . S
C1905 C1904 1.366 . S
C1905 C1909 1.385 . S
C1906 H1887 0.951 . S
C1906 C1904 1.388 . S
C1906 C1907 1.366 . S
C1907 C1906 1.366 . S
C1907 C1908 1.414 . S
C1907 C1910 1.499 . S
C1908 H1888 0.950 . S
C1908 C1907 1.414 . S
C1908 C1909 1.374 . S
C1909 H1889 0.950 . S
C1909 C1905 1.385 . S
C1909 C1908 1.374 . S
C1910 C1907 1.499 . S
C1910 C1911 1.373 . S
C1910 C1912 1.389 . S
C1911 H1890 0.950 . S
C1911 C1910 1.373 . S
C1911 C1927 1.377 . S
C1912 C1910 1.389 . S
C1912 C1913 1.524 . S
C1912 C1926 1.377 . S
C1913 C1912 1.524 . S
C1913 C1914 1.397 . S
C1913 C1918 1.363 . S
C1914 H1891 0.950 . S
C1914 C1913 1.397 . S
C1914 C1915 1.334 . S
C1915 H1892 0.950 . S
C1915 C1914 1.334 . S
C1915 C1916 1.287 . S
C1916 C1915 1.287 . S
C1916 C1917 1.524 . S
C1916 H1935 0.913 . S
C1917 H1893 0.950 . S
C1917 C1916 1.524 . S
C1917 C1918 1.415 . S
C1918 H1894 0.950 . S
C1918 C1913 1.363 . S
C1918 C1917 1.415 . S
C1919 H1895 0.951 . S
C1919 C1920 1.366 . S
C1919 C1921 1.388 . S
C1920 C1919 1.366 . S
C1920 C1924 1.385 . S
C1921 H1896 0.951 . S
C1921 C1919 1.388 . S
C1921 C1922 1.366 . S
C1922 C1921 1.366 . S
C1922 C1923 1.414 . S
C1922 C1925 1.499 . S
C1923 H1897 0.950 . S
C1923 C1922 1.414 . S
C1923 C1924 1.374 . S
C1924 H1898 0.950 . S
C1924 C1920 1.385 . S
C1924 C1923 1.374 . S
C1925 C1922 1.499 . S
C1925 C1926 1.373 . S
C1925 C1927 1.389 . S
C1926 H1899 0.950 . S
C1926 C1912 1.377 . S
C1926 C1925 1.373 . S
C1927 C1911 1.377 . S
C1927 C1925 1.389 . S
C1927 C1928 1.524 . S
C1928 C1927 1.524 . S
C1928 C1929 1.397 . S
C1928 C1933 1.363 . S
C1929 H1900 0.950 . S
C1929 C1928 1.397 . S
C1929 C1930 1.334 . S
C1930 H1901 0.950 . S
C1930 C1929 1.334 . S
C1930 C1931 1.287 . S
C1931 C1930 1.287 . S
C1931 C1932 1.524 . S
C1931 H1934 0.999 . S
C1932 H1902 0.950 . S
C1932 C1931 1.524 . S
C1932 C1933 1.415 . S
C1933 H1903 0.950 . S
C1933 C1928 1.363 . S
C1933 C1932 1.415 . S
H1934 C1931 0.999 . S
H1935 C1916 0.913 . S
H1936 C1954 0.951 . S
H1937 C1956 0.951 . S
H1938 C1958 0.950 . S
H1939 C1959 0.950 . S
H1940 C1961 0.950 . S
H1941 C1964 0.950 . S
H1942 C1965 0.950 . S
H1943 C1967 0.950 . S
H1944 C1968 0.950 . S
H1945 C1969 0.951 . S
H1946 C1971 0.951 . S
H1947 C1973 0.950 . S
H1948 C1974 0.950 . S
H1949 C1976 0.950 . S
H1950 C1979 0.950 . S
H1951 C1980 0.950 . S
H1952 C1982 0.950 . S
H1953 C1983 0.950 . S
C1954 H1936 0.951 . S
C1954 C1955 1.366 . S
C1954 C1956 1.388 . S
C1955 C1954 1.366 . S
C1955 C1959 1.385 . S
C1956 H1937 0.951 . S
C1956 C1954 1.388 . S
C1956 C1957 1.366 . S
C1957 C1956 1.366 . S
C1957 C1958 1.414 . S
C1957 C1960 1.499 . S
C1958 H1938 0.950 . S
C1958 C1957 1.414 . S
C1958 C1959 1.374 . S
C1959 H1939 0.950 . S
C1959 C1955 1.385 . S
C1959 C1958 1.374 . S
C1960 C1957 1.499 . S
C1960 C1961 1.373 . S
C1960 C1962 1.389 . S
C1961 H1940 0.950 . S
C1961 C1960 1.373 . S
C1961 C1977 1.377 . S
C1962 C1960 1.389 . S
C1962 C1963 1.524 . S
C1962 C1976 1.377 . S
C1963 C1962 1.524 . S
C1963 C1964 1.397 . S
C1963 C1968 1.363 . S
C1964 H1941 0.950 . S
C1964 C1963 1.397 . S
C1964 C1965 1.334 . S
C1965 H1942 0.950 . S
C1965 C1964 1.334 . S
C1965 C1966 1.287 . S
C1966 C1965 1.287 . S
C1966 C1967 1.524 . S
C1966 H1985 0.913 . S
C1967 H1943 0.950 . S
C1967 C1966 1.524 . S
C1967 C1968 1.415 . S
C1968 H1944 0.950 . S
C1968 C1963 1.363 . S
C1968 C1967 1.415 . S
C1969 H1945 0.951 . S
C1969 C1970 1.366 . S
C1969 C1971 1.388 . S
C1970 C1969 1.366 . S
C1970 C1974 1.385 . S
C1971 H1946 0.951 . S
C1971 C1969 1.388 . S
C1971 C1972 1.366 . S
C1972 C1971 1.366 . S
C1972 C1973 1.414 . S
C1972 C1975 1.499 . S
C1973 H1947 0.950 . S
C1973 C1972 1.414 . S
C1973 C1974 1.374 . S
C1974 H1948 0.950 . S
C1974 C1970 1.385 . S
C1974 C1973 1.374 . S
C1975 C1972 1.499 . S
C1975 C1976 1.373 . S
C1975 C1977 1.389 . S
C1976 H1949 0.950 . S
C1976 C1962 1.377 . S
C1976 C1975 1.373 . S
C1977 C1961 1.377 . S
C1977 C1975 1.389 . S
C1977 C1978 1.524 . S
C1978 C1977 1.524 . S
C1978 C1979 1.397 . S
C1978 C1983 1.363 . S
C1979 H1950 0.950 . S
C1979 C1978 1.397 . S
C1979 C1980 1.334 . S
C1980 H1951 0.950 . S
C1980 C1979 1.334 . S
C1980 C1981 1.287 . S
C1981 C1980 1.287 . S
C1981 C1982 1.524 . S
C1981 H1984 0.999 . S
C1982 H1952 0.950 . S
C1982 C1981 1.524 . S
C1982 C1983 1.415 . S
C1983 H1953 0.950 . S
C1983 C1978 1.363 . S
C1983 C1982 1.415 . S
H1984 C1981 0.999 . S
H1985 C1966 0.913 . S
H1986 C2004 0.951 . S
H1987 C2006 0.951 . S
H1988 C2008 0.950 . S
H1989 C2009 0.950 . S
H1990 C2011 0.950 . S
H1991 C2014 0.950 . S
H1992 C2015 0.950 . S
H1993 C2017 0.950 . S
H1994 C2018 0.950 . S
H1995 C2019 0.951 . S
H1996 C2021 0.951 . S
H1997 C2023 0.950 . S
H1998 C2024 0.950 . S
H1999 C2026 0.950 . S
H2000 C2029 0.950 . S
H2001 C2030 0.950 . S
H2002 C2032 0.950 . S
H2003 C2033 0.950 . S
C2004 H1986 0.951 . S
C2004 C2005 1.366 . S
C2004 C2006 1.388 . S
C2005 C2004 1.366 . S
C2005 C2009 1.385 . S
C2006 H1987 0.951 . S
C2006 C2004 1.388 . S
C2006 C2007 1.366 . S
C2007 C2006 1.366 . S
C2007 C2008 1.414 . S
C2007 C2010 1.499 . S
C2008 H1988 0.950 . S
C2008 C2007 1.414 . S
C2008 C2009 1.374 . S
C2009 H1989 0.950 . S
C2009 C2005 1.385 . S
C2009 C2008 1.374 . S
C2010 C2007 1.499 . S
C2010 C2011 1.373 . S
C2010 C2012 1.389 . S
C2011 H1990 0.950 . S
C2011 C2010 1.373 . S
C2011 C2027 1.377 . S
C2012 C2010 1.389 . S
C2012 C2013 1.524 . S
C2012 C2026 1.377 . S
C2013 C2012 1.524 . S
C2013 C2014 1.397 . S
C2013 C2018 1.363 . S
C2014 H1991 0.950 . S
C2014 C2013 1.397 . S
C2014 C2015 1.334 . S
C2015 H1992 0.950 . S
C2015 C2014 1.334 . S
C2015 C2016 1.287 . S
C2016 C2015 1.287 . S
C2016 C2017 1.524 . S
C2016 H2035 0.913 . S
C2017 H1993 0.950 . S
C2017 C2016 1.524 . S
C2017 C2018 1.415 . S
C2018 H1994 0.950 . S
C2018 C2013 1.363 . S
C2018 C2017 1.415 . S
C2019 H1995 0.951 . S
C2019 C2020 1.366 . S
C2019 C2021 1.388 . S
C2020 C2019 1.366 . S
C2020 C2024 1.385 . S
C2021 H1996 0.951 . S
C2021 C2019 1.388 . S
C2021 C2022 1.366 . S
C2022 C2021 1.366 . S
C2022 C2023 1.414 . S
C2022 C2025 1.499 . S
C2023 H1997 0.950 . S
C2023 C2022 1.414 . S
C2023 C2024 1.374 . S
C2024 H1998 0.950 . S
C2024 C2020 1.385 . S
C2024 C2023 1.374 . S
C2025 C2022 1.499 . S
C2025 C2026 1.373 . S
C2025 C2027 1.389 . S
C2026 H1999 0.950 . S
C2026 C2012 1.377 . S
C2026 C2025 1.373 . S
C2027 C2011 1.377 . S
C2027 C2025 1.389 . S
C2027 C2028 1.524 . S
C2028 C2027 1.524 . S
C2028 C2029 1.397 . S
C2028 C2033 1.363 . S
C2029 H2000 0.950 . S
C2029 C2028 1.397 . S
C2029 C2030 1.334 . S
C2030 H2001 0.950 . S
C2030 C2029 1.334 . S
C2030 C2031 1.287 . S
C2031 C2030 1.287 . S
C2031 C2032 1.524 . S
C2031 H2034 0.999 . S
C2032 H2002 0.950 . S
C2032 C2031 1.524 . S
C2032 C2033 1.415 . S
C2033 H2003 0.950 . S
C2033 C2028 1.363 . S
C2033 C2032 1.415 . S
H2034 C2031 0.999 . S
H2035 C2016 0.913 . S
H2036 C2054 0.951 . S
H2037 C2056 0.951 . S
H2038 C2058 0.950 . S
H2039 C2059 0.950 . S
H2040 C2061 0.950 . S
H2041 C2064 0.950 . S
H2042 C2065 0.950 . S
H2043 C2067 0.950 . S
H2044 C2068 0.950 . S
H2045 C2069 0.951 . S
H2046 C2071 0.951 . S
H2047 C2073 0.950 . S
H2048 C2074 0.950 . S
H2049 C2076 0.950 . S
H2050 C2079 0.950 . S
H2051 C2080 0.950 . S
H2052 C2082 0.950 . S
H2053 C2083 0.950 . S
C2054 H2036 0.951 . S
C2054 C2055 1.366 . S
C2054 C2056 1.388 . S
C2055 C2054 1.366 . S
C2055 C2059 1.385 . S
C2056 H2037 0.951 . S
C2056 C2054 1.388 . S
C2056 C2057 1.366 . S
C2057 C2056 1.366 . S
C2057 C2058 1.414 . S
C2057 C2060 1.499 . S
C2058 H2038 0.950 . S
C2058 C2057 1.414 . S
C2058 C2059 1.374 . S
C2059 H2039 0.950 . S
C2059 C2055 1.385 . S
C2059 C2058 1.374 . S
C2060 C2057 1.499 . S
C2060 C2061 1.373 . S
C2060 C2062 1.389 . S
C2061 H2040 0.950 . S
C2061 C2060 1.373 . S
C2061 C2077 1.377 . S
C2062 C2060 1.389 . S
C2062 C2063 1.524 . S
C2062 C2076 1.377 . S
C2063 C2062 1.524 . S
C2063 C2064 1.397 . S
C2063 C2068 1.363 . S
C2064 H2041 0.950 . S
C2064 C2063 1.397 . S
C2064 C2065 1.334 . S
C2065 H2042 0.950 . S
C2065 C2064 1.334 . S
C2065 C2066 1.287 . S
C2066 C2065 1.287 . S
C2066 C2067 1.524 . S
C2066 H2085 0.913 . S
C2067 H2043 0.950 . S
C2067 C2066 1.524 . S
C2067 C2068 1.415 . S
C2068 H2044 0.950 . S
C2068 C2063 1.363 . S
C2068 C2067 1.415 . S
C2069 H2045 0.951 . S
C2069 C2070 1.366 . S
C2069 C2071 1.388 . S
C2070 C2069 1.366 . S
C2070 C2074 1.385 . S
C2071 H2046 0.951 . S
C2071 C2069 1.388 . S
C2071 C2072 1.366 . S
C2072 C2071 1.366 . S
C2072 C2073 1.414 . S
C2072 C2075 1.499 . S
C2073 H2047 0.950 . S
C2073 C2072 1.414 . S
C2073 C2074 1.374 . S
C2074 H2048 0.950 . S
C2074 C2070 1.385 . S
C2074 C2073 1.374 . S
C2075 C2072 1.499 . S
C2075 C2076 1.373 . S
C2075 C2077 1.389 . S
C2076 H2049 0.950 . S
C2076 C2062 1.377 . S
C2076 C2075 1.373 . S
C2077 C2061 1.377 . S
C2077 C2075 1.389 . S
C2077 C2078 1.524 . S
C2078 C2077 1.524 . S
C2078 C2079 1.397 . S
C2078 C2083 1.363 . S
C2079 H2050 0.950 . S
C2079 C2078 1.397 . S
C2079 C2080 1.334 . S
C2080 H2051 0.950 . S
C2080 C2079 1.334 . S
C2080 C2081 1.287 . S
C2081 C2080 1.287 . S
C2081 C2082 1.524 . S
C2081 H2084 0.999 . S
C2082 H2052 0.950 . S
C2082 C2081 1.524 . S
C2082 C2083 1.415 . S
C2083 H2053 0.950 . S
C2083 C2078 1.363 . S
C2083 C2082 1.415 . S
H2084 C2081 0.999 . S
H2085 C2066 0.913 . S
H2086 C2104 0.951 . S
H2087 C2106 0.951 . S
H2088 C2108 0.950 . S
H2089 C2109 0.950 . S
H2090 C2111 0.950 . S
H2091 C2114 0.950 . S
H2092 C2115 0.950 . S
H2093 C2117 0.950 . S
H2094 C2118 0.950 . S
H2095 C2119 0.951 . S
H2096 C2121 0.951 . S
H2097 C2123 0.950 . S
H2098 C2124 0.950 . S
H2099 C2126 0.950 . S
H2100 C2129 0.950 . S
H2101 C2130 0.950 . S
H2102 C2132 0.950 . S
H2103 C2133 0.950 . S
C2104 H2086 0.951 . S
C2104 C2105 1.366 . S
C2104 C2106 1.388 . S
C2105 C2104 1.366 . S
C2105 C2109 1.385 . S
C2106 H2087 0.951 . S
C2106 C2104 1.388 . S
C2106 C2107 1.366 . S
C2107 C2106 1.366 . S
C2107 C2108 1.414 . S
C2107 C2110 1.499 . S
C2108 H2088 0.950 . S
C2108 C2107 1.414 . S
C2108 C2109 1.374 . S
C2109 H2089 0.950 . S
C2109 C2105 1.385 . S
C2109 C2108 1.374 . S
C2110 C2107 1.499 . S
C2110 C2111 1.373 . S
C2110 C2112 1.389 . S
C2111 H2090 0.950 . S
C2111 C2110 1.373 . S
C2111 C2127 1.377 . S
C2112 C2110 1.389 . S
C2112 C2113 1.524 . S
C2112 C2126 1.377 . S
C2113 C2112 1.524 . S
C2113 C2114 1.397 . S
C2113 C2118 1.363 . S
C2114 H2091 0.950 . S
C2114 C2113 1.397 . S
C2114 C2115 1.334 . S
C2115 H2092 0.950 . S
C2115 C2114 1.334 . S
C2115 C2116 1.287 . S
C2116 C2115 1.287 . S
C2116 C2117 1.524 . S
C2116 H2135 0.913 . S
C2117 H2093 0.950 . S
C2117 C2116 1.524 . S
C2117 C2118 1.415 . S
C2118 H2094 0.950 . S
C2118 C2113 1.363 . S
C2118 C2117 1.415 . S
C2119 H2095 0.951 . S
C2119 C2120 1.366 . S
C2119 C2121 1.388 . S
C2120 C2119 1.366 . S
C2120 C2124 1.385 . S
C2121 H2096 0.951 . S
C2121 C2119 1.388 . S
C2121 C2122 1.366 . S
C2122 C2121 1.366 . S
C2122 C2123 1.414 . S
C2122 C2125 1.499 . S
C2123 H2097 0.950 . S
C2123 C2122 1.414 . S
C2123 C2124 1.374 . S
C2124 H2098 0.950 . S
C2124 C2120 1.385 . S
C2124 C2123 1.374 . S
C2125 C2122 1.499 . S
C2125 C2126 1.373 . S
C2125 C2127 1.389 . S
C2126 H2099 0.950 . S
C2126 C2112 1.377 . S
C2126 C2125 1.373 . S
C2127 C2111 1.377 . S
C2127 C2125 1.389 . S
C2127 C2128 1.524 . S
C2128 C2127 1.524 . S
C2128 C2129 1.397 . S
C2128 C2133 1.363 . S
C2129 H2100 0.950 . S
C2129 C2128 1.397 . S
C2129 C2130 1.334 . S
C2130 H2101 0.950 . S
C2130 C2129 1.334 . S
C2130 C2131 1.287 . S
C2131 C2130 1.287 . S
C2131 C2132 1.524 . S
C2131 H2134 0.999 . S
C2132 H2102 0.950 . S
C2132 C2131 1.524 . S
C2132 C2133 1.415 . S
C2133 H2103 0.950 . S
C2133 C2128 1.363 . S
C2133 C2132 1.415 . S
H2134 C2131 0.999 . S
H2135 C2116 0.913 . S
H2136 C2154 0.951 . S
H2137 C2156 0.951 . S
H2138 C2158 0.950 . S
H2139 C2159 0.950 . S
H2140 C2161 0.950 . S
H2141 C2164 0.950 . S
H2142 C2165 0.950 . S
H2143 C2167 0.950 . S
H2144 C2168 0.950 . S
H2145 C2169 0.951 . S
H2146 C2171 0.951 . S
H2147 C2173 0.950 . S
H2148 C2174 0.950 . S
H2149 C2176 0.950 . S
H2150 C2179 0.950 . S
H2151 C2180 0.950 . S
H2152 C2182 0.950 . S
H2153 C2183 0.950 . S
C2154 H2136 0.951 . S
C2154 C2155 1.366 . S
C2154 C2156 1.388 . S
C2155 C2154 1.366 . S
C2155 C2159 1.385 . S
C2156 H2137 0.951 . S
C2156 C2154 1.388 . S
C2156 C2157 1.366 . S
C2157 C2156 1.366 . S
C2157 C2158 1.414 . S
C2157 C2160 1.499 . S
C2158 H2138 0.950 . S
C2158 C2157 1.414 . S
C2158 C2159 1.374 . S
C2159 H2139 0.950 . S
C2159 C2155 1.385 . S
C2159 C2158 1.374 . S
C2160 C2157 1.499 . S
C2160 C2161 1.373 . S
C2160 C2162 1.389 . S
C2161 H2140 0.950 . S
C2161 C2160 1.373 . S
C2161 C2177 1.377 . S
C2162 C2160 1.389 . S
C2162 C2163 1.524 . S
C2162 C2176 1.377 . S
C2163 C2162 1.524 . S
C2163 C2164 1.397 . S
C2163 C2168 1.363 . S
C2164 H2141 0.950 . S
C2164 C2163 1.397 . S
C2164 C2165 1.334 . S
C2165 H2142 0.950 . S
C2165 C2164 1.334 . S
C2165 C2166 1.287 . S
C2166 C2165 1.287 . S
C2166 C2167 1.524 . S
C2166 H2185 0.913 . S
C2167 H2143 0.950 . S
C2167 C2166 1.524 . S
C2167 C2168 1.415 . S
C2168 H2144 0.950 . S
C2168 C2163 1.363 . S
C2168 C2167 1.415 . S
C2169 H2145 0.951 . S
C2169 C2170 1.366 . S
C2169 C2171 1.388 . S
C2170 C2169 1.366 . S
C2170 C2174 1.385 . S
C2171 H2146 0.951 . S
C2171 C2169 1.388 . S
C2171 C2172 1.366 . S
C2172 C2171 1.366 . S
C2172 C2173 1.414 . S
C2172 C2175 1.499 . S
C2173 H2147 0.950 . S
C2173 C2172 1.414 . S
C2173 C2174 1.374 . S
C2174 H2148 0.950 . S
C2174 C2170 1.385 . S
C2174 C2173 1.374 . S
C2175 C2172 1.499 . S
C2175 C2176 1.373 . S
C2175 C2177 1.389 . S
C2176 H2149 0.950 . S
C2176 C2162 1.377 . S
C2176 C2175 1.373 . S
C2177 C2161 1.377 . S
C2177 C2175 1.389 . S
C2177 C2178 1.524 . S
C2178 C2177 1.524 . S
C2178 C2179 1.397 . S
C2178 C2183 1.363 . S
C2179 H2150 0.950 . S
C2179 C2178 1.397 . S
C2179 C2180 1.334 . S
C2180 H2151 0.950 . S
C2180 C2179 1.334 . S
C2180 C2181 1.287 . S
C2181 C2180 1.287 . S
C2181 C2182 1.524 . S
C2181 H2184 0.999 1_556 S
C2182 H2152 0.950 . S
C2182 C2181 1.524 . S
C2182 C2183 1.415 . S
C2183 H2153 0.950 . S
C2183 C2178 1.363 . S
C2183 C2182 1.415 . S
H2184 C2181 0.999 1_554 S
H2185 C2166 0.913 . S
H2186 C2204 0.951 . S
H2187 C2206 0.951 . S
H2188 C2208 0.950 . S
H2189 C2209 0.950 . S
H2190 C2211 0.950 . S
H2191 C2214 0.950 . S
H2192 C2215 0.950 . S
H2193 C2217 0.950 . S
H2194 C2218 0.950 . S
H2195 C2219 0.951 . S
H2196 C2221 0.951 . S
H2197 C2223 0.950 . S
H2198 C2224 0.950 . S
H2199 C2226 0.950 . S
H2200 C2229 0.950 . S
H2201 C2230 0.950 . S
H2202 C2232 0.950 . S
H2203 C2233 0.950 . S
C2204 H2186 0.951 . S
C2204 C2205 1.366 . S
C2204 C2206 1.388 . S
C2205 C2204 1.366 . S
C2205 C2209 1.385 . S
C2206 H2187 0.951 . S
C2206 C2204 1.388 . S
C2206 C2207 1.366 . S
C2207 C2206 1.366 . S
C2207 C2208 1.414 . S
C2207 C2210 1.499 . S
C2208 H2188 0.950 . S
C2208 C2207 1.414 . S
C2208 C2209 1.374 . S
C2209 H2189 0.950 . S
C2209 C2205 1.385 . S
C2209 C2208 1.374 . S
C2210 C2207 1.499 . S
C2210 C2211 1.373 . S
C2210 C2212 1.389 . S
C2211 H2190 0.950 . S
C2211 C2210 1.373 . S
C2211 C2227 1.377 . S
C2212 C2210 1.389 . S
C2212 C2213 1.524 . S
C2212 C2226 1.377 . S
C2213 C2212 1.524 . S
C2213 C2214 1.397 . S
C2213 C2218 1.363 . S
C2214 H2191 0.950 . S
C2214 C2213 1.397 . S
C2214 C2215 1.334 . S
C2215 H2192 0.950 . S
C2215 C2214 1.334 . S
C2215 C2216 1.287 . S
C2216 C2215 1.287 . S
C2216 C2217 1.524 . S
C2216 H2235 0.913 . S
C2217 H2193 0.950 . S
C2217 C2216 1.524 . S
C2217 C2218 1.415 . S
C2218 H2194 0.950 . S
C2218 C2213 1.363 . S
C2218 C2217 1.415 . S
C2219 H2195 0.951 . S
C2219 C2220 1.366 . S
C2219 C2221 1.388 . S
C2220 C2219 1.366 . S
C2220 C2224 1.385 . S
C2221 H2196 0.951 . S
C2221 C2219 1.388 . S
C2221 C2222 1.366 . S
C2222 C2221 1.366 . S
C2222 C2223 1.414 . S
C2222 C2225 1.499 . S
C2223 H2197 0.950 . S
C2223 C2222 1.414 . S
C2223 C2224 1.374 . S
C2224 H2198 0.950 . S
C2224 C2220 1.385 . S
C2224 C2223 1.374 . S
C2225 C2222 1.499 . S
C2225 C2226 1.373 . S
C2225 C2227 1.389 . S
C2226 H2199 0.950 . S
C2226 C2212 1.377 . S
C2226 C2225 1.373 . S
C2227 C2211 1.377 . S
C2227 C2225 1.389 . S
C2227 C2228 1.524 . S
C2228 C2227 1.524 . S
C2228 C2229 1.397 . S
C2228 C2233 1.363 . S
C2229 H2200 0.950 . S
C2229 C2228 1.397 . S
C2229 C2230 1.334 . S
C2230 H2201 0.950 . S
C2230 C2229 1.334 . S
C2230 C2231 1.287 . S
C2231 C2230 1.287 . S
C2231 C2232 1.524 . S
C2231 H2234 0.999 . S
C2232 H2202 0.950 . S
C2232 C2231 1.524 . S
C2232 C2233 1.415 . S
C2233 H2203 0.950 . S
C2233 C2228 1.363 . S
C2233 C2232 1.415 . S
H2234 C2231 0.999 . S
H2235 C2216 0.913 . S
H2236 C2254 0.951 . S
H2237 C2256 0.951 . S
H2238 C2258 0.950 . S
H2239 C2259 0.950 . S
H2240 C2261 0.950 . S
H2241 C2264 0.950 . S
H2242 C2265 0.950 . S
H2243 C2267 0.950 . S
H2244 C2268 0.950 . S
H2245 C2269 0.951 . S
H2246 C2271 0.951 . S
H2247 C2273 0.950 . S
H2248 C2274 0.950 . S
H2249 C2276 0.950 . S
H2250 C2279 0.950 . S
H2251 C2280 0.950 . S
H2252 C2282 0.950 . S
H2253 C2283 0.950 . S
C2254 H2236 0.951 . S
C2254 C2255 1.366 . S
C2254 C2256 1.388 . S
C2255 C2254 1.366 . S
C2255 C2259 1.385 . S
C2256 H2237 0.951 . S
C2256 C2254 1.388 . S
C2256 C2257 1.366 . S
C2257 C2256 1.366 . S
C2257 C2258 1.414 . S
C2257 C2260 1.499 . S
C2258 H2238 0.950 . S
C2258 C2257 1.414 . S
C2258 C2259 1.374 . S
C2259 H2239 0.950 . S
C2259 C2255 1.385 . S
C2259 C2258 1.374 . S
C2260 C2257 1.499 . S
C2260 C2261 1.373 . S
C2260 C2262 1.389 . S
C2261 H2240 0.950 . S
C2261 C2260 1.373 . S
C2261 C2277 1.377 . S
C2262 C2260 1.389 . S
C2262 C2263 1.524 . S
C2262 C2276 1.377 . S
C2263 C2262 1.524 . S
C2263 C2264 1.397 . S
C2263 C2268 1.363 . S
C2264 H2241 0.950 . S
C2264 C2263 1.397 . S
C2264 C2265 1.334 . S
C2265 H2242 0.950 . S
C2265 C2264 1.334 . S
C2265 C2266 1.287 . S
C2266 C2265 1.287 . S
C2266 C2267 1.524 . S
C2266 H2285 0.913 . S
C2267 H2243 0.950 . S
C2267 C2266 1.524 . S
C2267 C2268 1.415 . S
C2268 H2244 0.950 . S
C2268 C2263 1.363 . S
C2268 C2267 1.415 . S
C2269 H2245 0.951 . S
C2269 C2270 1.366 . S
C2269 C2271 1.388 . S
C2270 C2269 1.366 . S
C2270 C2274 1.385 . S
C2271 H2246 0.951 . S
C2271 C2269 1.388 . S
C2271 C2272 1.366 . S
C2272 C2271 1.366 . S
C2272 C2273 1.414 . S
C2272 C2275 1.499 . S
C2273 H2247 0.950 . S
C2273 C2272 1.414 . S
C2273 C2274 1.374 . S
C2274 H2248 0.950 . S
C2274 C2270 1.385 . S
C2274 C2273 1.374 . S
C2275 C2272 1.499 . S
C2275 C2276 1.373 . S
C2275 C2277 1.389 . S
C2276 H2249 0.950 . S
C2276 C2262 1.377 . S
C2276 C2275 1.373 . S
C2277 C2261 1.377 . S
C2277 C2275 1.389 . S
C2277 C2278 1.524 . S
C2278 C2277 1.524 . S
C2278 C2279 1.397 . S
C2278 C2283 1.363 . S
C2279 H2250 0.950 . S
C2279 C2278 1.397 . S
C2279 C2280 1.334 . S
C2280 H2251 0.950 . S
C2280 C2279 1.334 . S
C2280 C2281 1.287 . S
C2281 C2280 1.287 . S
C2281 C2282 1.524 . S
C2281 H2284 0.999 . S
C2282 H2252 0.950 . S
C2282 C2281 1.524 . S
C2282 C2283 1.415 . S
C2283 H2253 0.950 . S
C2283 C2278 1.363 . S
C2283 C2282 1.415 . S
H2284 C2281 0.999 . S
H2285 C2266 0.913 . S
H2286 C2304 0.951 . S
H2287 C2306 0.951 . S
H2288 C2308 0.950 . S
H2289 C2309 0.950 . S
H2290 C2311 0.950 . S
H2291 C2314 0.950 . S
H2292 C2315 0.950 . S
H2293 C2317 0.950 . S
H2294 C2318 0.950 . S
H2295 C2319 0.951 . S
H2296 C2321 0.951 . S
H2297 C2323 0.950 . S
H2298 C2324 0.950 . S
H2299 C2326 0.950 . S
H2300 C2329 0.950 . S
H2301 C2330 0.950 . S
H2302 C2332 0.950 . S
H2303 C2333 0.950 . S
C2304 H2286 0.951 . S
C2304 C2305 1.366 . S
C2304 C2306 1.388 . S
C2305 C2304 1.366 . S
C2305 C2309 1.385 . S
C2306 H2287 0.951 . S
C2306 C2304 1.388 . S
C2306 C2307 1.366 . S
C2307 C2306 1.366 . S
C2307 C2308 1.414 . S
C2307 C2310 1.499 . S
C2308 H2288 0.950 . S
C2308 C2307 1.414 . S
C2308 C2309 1.374 . S
C2309 H2289 0.950 . S
C2309 C2305 1.385 . S
C2309 C2308 1.374 . S
C2310 C2307 1.499 . S
C2310 C2311 1.373 . S
C2310 C2312 1.389 . S
C2311 H2290 0.950 . S
C2311 C2310 1.373 . S
C2311 C2327 1.377 . S
C2312 C2310 1.389 . S
C2312 C2313 1.524 . S
C2312 C2326 1.377 . S
C2313 C2312 1.524 . S
C2313 C2314 1.397 . S
C2313 C2318 1.363 . S
C2314 H2291 0.950 . S
C2314 C2313 1.397 . S
C2314 C2315 1.334 . S
C2315 H2292 0.950 . S
C2315 C2314 1.334 . S
C2315 C2316 1.287 . S
C2316 C2315 1.287 . S
C2316 C2317 1.524 . S
C2316 H2335 0.913 . S
C2317 H2293 0.950 . S
C2317 C2316 1.524 . S
C2317 C2318 1.415 . S
C2318 H2294 0.950 . S
C2318 C2313 1.363 . S
C2318 C2317 1.415 . S
C2319 H2295 0.951 . S
C2319 C2320 1.366 . S
C2319 C2321 1.388 . S
C2320 C2319 1.366 . S
C2320 C2324 1.385 . S
C2321 H2296 0.951 . S
C2321 C2319 1.388 . S
C2321 C2322 1.366 . S
C2322 C2321 1.366 . S
C2322 C2323 1.414 . S
C2322 C2325 1.499 . S
C2323 H2297 0.950 . S
C2323 C2322 1.414 . S
C2323 C2324 1.374 . S
C2324 H2298 0.950 . S
C2324 C2320 1.385 . S
C2324 C2323 1.374 . S
C2325 C2322 1.499 . S
C2325 C2326 1.373 . S
C2325 C2327 1.389 . S
C2326 H2299 0.950 . S
C2326 C2312 1.377 . S
C2326 C2325 1.373 . S
C2327 C2311 1.377 . S
C2327 C2325 1.389 . S
C2327 C2328 1.524 . S
C2328 C2327 1.524 . S
C2328 C2329 1.397 . S
C2328 C2333 1.363 . S
C2329 H2300 0.950 . S
C2329 C2328 1.397 . S
C2329 C2330 1.334 . S
C2330 H2301 0.950 . S
C2330 C2329 1.334 . S
C2330 C2331 1.287 . S
C2331 C2330 1.287 . S
C2331 C2332 1.524 . S
C2331 H2334 0.999 1_556 S
C2332 H2302 0.950 . S
C2332 C2331 1.524 . S
C2332 C2333 1.415 . S
C2333 H2303 0.950 . S
C2333 C2328 1.363 . S
C2333 C2332 1.415 . S
H2334 C2331 0.999 1_554 S
H2335 C2316 0.913 . S
H2336 C2354 0.951 . S
H2337 C2356 0.951 . S
H2338 C2358 0.950 . S
H2339 C2359 0.950 . S
H2340 C2361 0.950 . S
H2341 C2364 0.950 . S
H2342 C2365 0.950 . S
H2343 C2367 0.950 . S
H2344 C2368 0.950 . S
H2345 C2369 0.951 . S
H2346 C2371 0.951 . S
H2347 C2373 0.950 . S
H2348 C2374 0.950 . S
H2349 C2376 0.950 . S
H2350 C2379 0.950 . S
H2351 C2380 0.950 . S
H2352 C2382 0.950 . S
H2353 C2383 0.950 . S
C2354 H2336 0.951 . S
C2354 C2355 1.366 . S
C2354 C2356 1.388 . S
C2355 C2354 1.366 . S
C2355 C2359 1.385 . S
C2356 H2337 0.951 . S
C2356 C2354 1.388 . S
C2356 C2357 1.366 . S
C2357 C2356 1.366 . S
C2357 C2358 1.414 . S
C2357 C2360 1.499 . S
C2358 H2338 0.950 . S
C2358 C2357 1.414 . S
C2358 C2359 1.374 . S
C2359 H2339 0.950 . S
C2359 C2355 1.385 . S
C2359 C2358 1.374 . S
C2360 C2357 1.499 . S
C2360 C2361 1.373 . S
C2360 C2362 1.389 . S
C2361 H2340 0.950 . S
C2361 C2360 1.373 . S
C2361 C2377 1.377 . S
C2362 C2360 1.389 . S
C2362 C2363 1.524 . S
C2362 C2376 1.377 . S
C2363 C2362 1.524 . S
C2363 C2364 1.397 . S
C2363 C2368 1.363 . S
C2364 H2341 0.950 . S
C2364 C2363 1.397 . S
C2364 C2365 1.334 . S
C2365 H2342 0.950 . S
C2365 C2364 1.334 . S
C2365 C2366 1.287 . S
C2366 C2365 1.287 . S
C2366 C2367 1.524 . S
C2366 H2385 0.913 . S
C2367 H2343 0.950 . S
C2367 C2366 1.524 . S
C2367 C2368 1.415 . S
C2368 H2344 0.950 . S
C2368 C2363 1.363 . S
C2368 C2367 1.415 . S
C2369 H2345 0.951 . S
C2369 C2370 1.366 . S
C2369 C2371 1.388 . S
C2370 C2369 1.366 . S
C2370 C2374 1.385 . S
C2371 H2346 0.951 . S
C2371 C2369 1.388 . S
C2371 C2372 1.366 . S
C2372 C2371 1.366 . S
C2372 C2373 1.414 . S
C2372 C2375 1.499 . S
C2373 H2347 0.950 . S
C2373 C2372 1.414 . S
C2373 C2374 1.374 . S
C2374 H2348 0.950 . S
C2374 C2370 1.385 . S
C2374 C2373 1.374 . S
C2375 C2372 1.499 . S
C2375 C2376 1.373 . S
C2375 C2377 1.389 . S
C2376 H2349 0.950 . S
C2376 C2362 1.377 . S
C2376 C2375 1.373 . S
C2377 C2361 1.377 . S
C2377 C2375 1.389 . S
C2377 C2378 1.524 . S
C2378 C2377 1.524 . S
C2378 C2379 1.397 . S
C2378 C2383 1.363 . S
C2379 H2350 0.950 . S
C2379 C2378 1.397 . S
C2379 C2380 1.334 . S
C2380 H2351 0.950 . S
C2380 C2379 1.334 . S
C2380 C2381 1.287 . S
C2381 C2380 1.287 . S
C2381 C2382 1.524 . S
C2381 H2384 0.999 . S
C2382 H2352 0.950 . S
C2382 C2381 1.524 . S
C2382 C2383 1.415 . S
C2383 H2353 0.950 . S
C2383 C2378 1.363 . S
C2383 C2382 1.415 . S
H2384 C2381 0.999 . S
H2385 C2366 0.913 . S
H2386 C2404 0.951 . S
H2387 C2406 0.951 . S
H2388 C2408 0.950 . S
H2389 C2409 0.950 . S
H2390 C2411 0.950 . S
H2391 C2414 0.950 . S
H2392 C2415 0.950 . S
H2393 C2417 0.950 . S
H2394 C2418 0.950 . S
H2395 C2419 0.951 . S
H2396 C2421 0.951 . S
H2397 C2423 0.950 . S
H2398 C2424 0.950 . S
H2399 C2426 0.950 . S
H2400 C2429 0.950 . S
H2401 C2430 0.950 . S
H2402 C2432 0.950 . S
H2403 C2433 0.950 . S
C2404 H2386 0.951 . S
C2404 C2405 1.366 . S
C2404 C2406 1.388 . S
C2405 C2404 1.366 . S
C2405 C2409 1.385 . S
C2406 H2387 0.951 . S
C2406 C2404 1.388 . S
C2406 C2407 1.366 . S
C2407 C2406 1.366 . S
C2407 C2408 1.414 . S
C2407 C2410 1.499 . S
C2408 H2388 0.950 . S
C2408 C2407 1.414 . S
C2408 C2409 1.374 . S
C2409 H2389 0.950 . S
C2409 C2405 1.385 . S
C2409 C2408 1.374 . S
C2410 C2407 1.499 . S
C2410 C2411 1.373 . S
C2410 C2412 1.389 . S
C2411 H2390 0.950 . S
C2411 C2410 1.373 . S
C2411 C2427 1.377 . S
C2412 C2410 1.389 . S
C2412 C2413 1.524 . S
C2412 C2426 1.377 . S
C2413 C2412 1.524 . S
C2413 C2414 1.397 . S
C2413 C2418 1.363 . S
C2414 H2391 0.950 . S
C2414 C2413 1.397 . S
C2414 C2415 1.334 . S
C2415 H2392 0.950 . S
C2415 C2414 1.334 . S
C2415 C2416 1.287 . S
C2416 C2415 1.287 . S
C2416 C2417 1.524 . S
C2416 H2435 0.913 . S
C2417 H2393 0.950 . S
C2417 C2416 1.524 . S
C2417 C2418 1.415 . S
C2418 H2394 0.950 . S
C2418 C2413 1.363 . S
C2418 C2417 1.415 . S
C2419 H2395 0.951 . S
C2419 C2420 1.366 . S
C2419 C2421 1.388 . S
C2420 C2419 1.366 . S
C2420 C2424 1.385 . S
C2421 H2396 0.951 . S
C2421 C2419 1.388 . S
C2421 C2422 1.366 . S
C2422 C2421 1.366 . S
C2422 C2423 1.414 . S
C2422 C2425 1.499 . S
C2423 H2397 0.950 . S
C2423 C2422 1.414 . S
C2423 C2424 1.374 . S
C2424 H2398 0.950 . S
C2424 C2420 1.385 . S
C2424 C2423 1.374 . S
C2425 C2422 1.499 . S
C2425 C2426 1.373 . S
C2425 C2427 1.389 . S
C2426 H2399 0.950 . S
C2426 C2412 1.377 . S
C2426 C2425 1.373 . S
C2427 C2411 1.377 . S
C2427 C2425 1.389 . S
C2427 C2428 1.524 . S
C2428 C2427 1.524 . S
C2428 C2429 1.397 . S
C2428 C2433 1.363 . S
C2429 H2400 0.950 . S
C2429 C2428 1.397 . S
C2429 C2430 1.334 . S
C2430 H2401 0.950 . S
C2430 C2429 1.334 . S
C2430 C2431 1.287 . S
C2431 C2430 1.287 . S
C2431 C2432 1.524 . S
C2431 H2434 0.999 . S
C2432 H2402 0.950 . S
C2432 C2431 1.524 . S
C2432 C2433 1.415 . S
C2433 H2403 0.950 . S
C2433 C2428 1.363 . S
C2433 C2432 1.415 . S
H2434 C2431 0.999 . S
H2435 C2416 0.913 . S
H2436 C2454 0.951 . S
H2437 C2456 0.951 . S
H2438 C2458 0.950 . S
H2439 C2459 0.950 . S
H2440 C2461 0.950 . S
H2441 C2464 0.950 . S
H2442 C2465 0.950 . S
H2443 C2467 0.950 . S
H2444 C2468 0.950 . S
H2445 C2469 0.951 . S
H2446 C2471 0.951 . S
H2447 C2473 0.950 . S
H2448 C2474 0.950 . S
H2449 C2476 0.950 . S
H2450 C2479 0.950 . S
H2451 C2480 0.950 . S
H2452 C2482 0.950 . S
H2453 C2483 0.950 . S
C2454 H2436 0.951 . S
C2454 C2455 1.366 . S
C2454 C2456 1.388 . S
C2455 C2454 1.366 . S
C2455 C2459 1.385 . S
C2456 H2437 0.951 . S
C2456 C2454 1.388 . S
C2456 C2457 1.366 . S
C2457 C2456 1.366 . S
C2457 C2458 1.414 . S
C2457 C2460 1.499 . S
C2458 H2438 0.950 . S
C2458 C2457 1.414 . S
C2458 C2459 1.374 . S
C2459 H2439 0.950 . S
C2459 C2455 1.385 . S
C2459 C2458 1.374 . S
C2460 C2457 1.499 . S
C2460 C2461 1.373 . S
C2460 C2462 1.389 . S
C2461 H2440 0.950 . S
C2461 C2460 1.373 . S
C2461 C2477 1.377 . S
C2462 C2460 1.389 . S
C2462 C2463 1.524 . S
C2462 C2476 1.377 . S
C2463 C2462 1.524 . S
C2463 C2464 1.397 . S
C2463 C2468 1.363 . S
C2464 H2441 0.950 . S
C2464 C2463 1.397 . S
C2464 C2465 1.334 . S
C2465 H2442 0.950 . S
C2465 C2464 1.334 . S
C2465 C2466 1.287 . S
C2466 C2465 1.287 . S
C2466 C2467 1.524 . S
C2466 H2485 0.913 . S
C2467 H2443 0.950 . S
C2467 C2466 1.524 . S
C2467 C2468 1.415 . S
C2468 H2444 0.950 . S
C2468 C2463 1.363 . S
C2468 C2467 1.415 . S
C2469 H2445 0.951 . S
C2469 C2470 1.366 . S
C2469 C2471 1.388 . S
C2470 C2469 1.366 . S
C2470 C2474 1.385 . S
C2471 H2446 0.951 . S
C2471 C2469 1.388 . S
C2471 C2472 1.366 . S
C2472 C2471 1.366 . S
C2472 C2473 1.414 . S
C2472 C2475 1.499 . S
C2473 H2447 0.950 . S
C2473 C2472 1.414 . S
C2473 C2474 1.374 . S
C2474 H2448 0.950 . S
C2474 C2470 1.385 . S
C2474 C2473 1.374 . S
C2475 C2472 1.499 . S
C2475 C2476 1.373 . S
C2475 C2477 1.389 . S
C2476 H2449 0.950 . S
C2476 C2462 1.377 . S
C2476 C2475 1.373 . S
C2477 C2461 1.377 . S
C2477 C2475 1.389 . S
C2477 C2478 1.524 . S
C2478 C2477 1.524 . S
C2478 C2479 1.397 . S
C2478 C2483 1.363 . S
C2479 H2450 0.950 . S
C2479 C2478 1.397 . S
C2479 C2480 1.334 . S
C2480 H2451 0.950 . S
C2480 C2479 1.334 . S
C2480 C2481 1.287 . S
C2481 C2480 1.287 . S
C2481 C2482 1.524 . S
C2481 H2484 0.999 . S
C2482 H2452 0.950 . S
C2482 C2481 1.524 . S
C2482 C2483 1.415 . S
C2483 H2453 0.950 . S
C2483 C2478 1.363 . S
C2483 C2482 1.415 . S
H2484 C2481 0.999 . S
H2485 C2466 0.913 . S
H2486 C2504 0.951 . S
H2487 C2506 0.951 . S
H2488 C2508 0.950 . S
H2489 C2509 0.950 . S
H2490 C2511 0.950 . S
H2491 C2514 0.950 . S
H2492 C2515 0.950 . S
H2493 C2517 0.950 . S
H2494 C2518 0.950 . S
H2495 C2519 0.951 . S
H2496 C2521 0.951 . S
H2497 C2523 0.950 . S
H2498 C2524 0.950 . S
H2499 C2526 0.950 . S
H2500 C2529 0.950 . S
H2501 C2530 0.950 . S
H2502 C2532 0.950 . S
H2503 C2533 0.950 . S
C2504 H2486 0.951 . S
C2504 C2505 1.366 . S
C2504 C2506 1.388 . S
C2505 C2504 1.366 . S
C2505 C2509 1.385 . S
C2506 H2487 0.951 . S
C2506 C2504 1.388 . S
C2506 C2507 1.366 . S
C2507 C2506 1.366 . S
C2507 C2508 1.414 . S
C2507 C2510 1.499 . S
C2508 H2488 0.950 . S
C2508 C2507 1.414 . S
C2508 C2509 1.374 . S
C2509 H2489 0.950 . S
C2509 C2505 1.385 . S
C2509 C2508 1.374 . S
C2510 C2507 1.499 . S
C2510 C2511 1.373 . S
C2510 C2512 1.389 . S
C2511 H2490 0.950 . S
C2511 C2510 1.373 . S
C2511 C2527 1.377 . S
C2512 C2510 1.389 . S
C2512 C2513 1.524 . S
C2512 C2526 1.377 . S
C2513 C2512 1.524 . S
C2513 C2514 1.397 . S
C2513 C2518 1.363 . S
C2514 H2491 0.950 . S
C2514 C2513 1.397 . S
C2514 C2515 1.334 . S
C2515 H2492 0.950 . S
C2515 C2514 1.334 . S
C2515 C2516 1.287 . S
C2516 C2515 1.287 . S
C2516 C2517 1.524 . S
C2516 H2535 0.913 . S
C2517 H2493 0.950 . S
C2517 C2516 1.524 . S
C2517 C2518 1.415 . S
C2518 H2494 0.950 . S
C2518 C2513 1.363 . S
C2518 C2517 1.415 . S
C2519 H2495 0.951 . S
C2519 C2520 1.366 . S
C2519 C2521 1.388 . S
C2520 C2519 1.366 . S
C2520 C2524 1.385 . S
C2521 H2496 0.951 . S
C2521 C2519 1.388 . S
C2521 C2522 1.366 . S
C2522 C2521 1.366 . S
C2522 C2523 1.414 . S
C2522 C2525 1.499 . S
C2523 H2497 0.950 . S
C2523 C2522 1.414 . S
C2523 C2524 1.374 . S
C2524 H2498 0.950 . S
C2524 C2520 1.385 . S
C2524 C2523 1.374 . S
C2525 C2522 1.499 . S
C2525 C2526 1.373 . S
C2525 C2527 1.389 . S
C2526 H2499 0.950 . S
C2526 C2512 1.377 . S
C2526 C2525 1.373 . S
C2527 C2511 1.377 . S
C2527 C2525 1.389 . S
C2527 C2528 1.524 . S
C2528 C2527 1.524 . S
C2528 C2529 1.397 . S
C2528 C2533 1.363 . S
C2529 H2500 0.950 . S
C2529 C2528 1.397 . S
C2529 C2530 1.334 . S
C2530 H2501 0.950 . S
C2530 C2529 1.334 . S
C2530 C2531 1.287 . S
C2531 C2530 1.287 . S
C2531 C2532 1.524 . S
C2531 H2534 0.999 . S
C2532 H2502 0.950 . S
C2532 C2531 1.524 . S
C2532 C2533 1.415 . S
C2533 H2503 0.950 . S
C2533 C2528 1.363 . S
C2533 C2532 1.415 . S
H2534 C2531 0.999 . S
H2535 C2516 0.913 . S
H2536 C2554 0.951 . S
H2537 C2556 0.951 . S
H2538 C2558 0.950 . S
H2539 C2559 0.950 . S
H2540 C2561 0.950 . S
H2541 C2564 0.950 . S
H2542 C2565 0.950 . S
H2543 C2567 0.950 . S
H2544 C2568 0.950 . S
H2545 C2569 0.951 . S
H2546 C2571 0.951 . S
H2547 C2573 0.950 . S
H2548 C2574 0.950 . S
H2549 C2576 0.950 . S
H2550 C2579 0.950 . S
H2551 C2580 0.950 . S
H2552 C2582 0.950 . S
H2553 C2583 0.950 . S
C2554 H2536 0.951 . S
C2554 C2555 1.366 . S
C2554 C2556 1.388 . S
C2555 C2554 1.366 . S
C2555 C2559 1.385 . S
C2556 H2537 0.951 . S
C2556 C2554 1.388 . S
C2556 C2557 1.366 . S
C2557 C2556 1.366 . S
C2557 C2558 1.414 . S
C2557 C2560 1.499 . S
C2558 H2538 0.950 . S
C2558 C2557 1.414 . S
C2558 C2559 1.374 . S
C2559 H2539 0.950 . S
C2559 C2555 1.385 . S
C2559 C2558 1.374 . S
C2560 C2557 1.499 . S
C2560 C2561 1.373 . S
C2560 C2562 1.389 . S
C2561 H2540 0.950 . S
C2561 C2560 1.373 . S
C2561 C2577 1.377 . S
C2562 C2560 1.389 . S
C2562 C2563 1.524 . S
C2562 C2576 1.377 . S
C2563 C2562 1.524 . S
C2563 C2564 1.397 . S
C2563 C2568 1.363 . S
C2564 H2541 0.950 . S
C2564 C2563 1.397 . S
C2564 C2565 1.334 . S
C2565 H2542 0.950 . S
C2565 C2564 1.334 . S
C2565 C2566 1.287 . S
C2566 C2565 1.287 . S
C2566 C2567 1.524 . S
C2566 H2585 0.913 . S
C2567 H2543 0.950 . S
C2567 C2566 1.524 . S
C2567 C2568 1.415 . S
C2568 H2544 0.950 . S
C2568 C2563 1.363 . S
C2568 C2567 1.415 . S
C2569 H2545 0.951 . S
C2569 C2570 1.366 . S
C2569 C2571 1.388 . S
C2570 C2569 1.366 . S
C2570 C2574 1.385 . S
C2571 H2546 0.951 . S
C2571 C2569 1.388 . S
C2571 C2572 1.366 . S
C2572 C2571 1.366 . S
C2572 C2573 1.414 . S
C2572 C2575 1.499 . S
C2573 H2547 0.950 . S
C2573 C2572 1.414 . S
C2573 C2574 1.374 . S
C2574 H2548 0.950 . S
C2574 C2570 1.385 . S
C2574 C2573 1.374 . S
C2575 C2572 1.499 . S
C2575 C2576 1.373 . S
C2575 C2577 1.389 . S
C2576 H2549 0.950 . S
C2576 C2562 1.377 . S
C2576 C2575 1.373 . S
C2577 C2561 1.377 . S
C2577 C2575 1.389 . S
C2577 C2578 1.524 . S
C2578 C2577 1.524 . S
C2578 C2579 1.397 . S
C2578 C2583 1.363 . S
C2579 H2550 0.950 . S
C2579 C2578 1.397 . S
C2579 C2580 1.334 . S
C2580 H2551 0.950 . S
C2580 C2579 1.334 . S
C2580 C2581 1.287 . S
C2581 C2580 1.287 . S
C2581 C2582 1.524 . S
C2581 H2584 0.999 . S
C2582 H2552 0.950 . S
C2582 C2581 1.524 . S
C2582 C2583 1.415 . S
C2583 H2553 0.950 . S
C2583 C2578 1.363 . S
C2583 C2582 1.415 . S
H2584 C2581 0.999 . S
H2585 C2566 0.913 . S
H2586 C2604 0.951 . S
H2587 C2606 0.951 . S
H2588 C2608 0.950 . S
H2589 C2609 0.950 . S
H2590 C2611 0.950 . S
H2591 C2614 0.950 . S
H2592 C2615 0.950 . S
H2593 C2617 0.950 . S
H2594 C2618 0.950 . S
H2595 C2619 0.951 . S
H2596 C2621 0.951 . S
H2597 C2623 0.950 . S
H2598 C2624 0.950 . S
H2599 C2626 0.950 . S
H2600 C2629 0.950 . S
H2601 C2630 0.950 . S
H2602 C2632 0.950 . S
H2603 C2633 0.950 . S
C2604 H2586 0.951 . S
C2604 C2605 1.366 . S
C2604 C2606 1.388 . S
C2605 C2604 1.366 . S
C2605 C2609 1.385 . S
C2606 H2587 0.951 . S
C2606 C2604 1.388 . S
C2606 C2607 1.366 . S
C2607 C2606 1.366 . S
C2607 C2608 1.414 . S
C2607 C2610 1.499 . S
C2608 H2588 0.950 . S
C2608 C2607 1.414 . S
C2608 C2609 1.374 . S
C2609 H2589 0.950 . S
C2609 C2605 1.385 . S
C2609 C2608 1.374 . S
C2610 C2607 1.499 . S
C2610 C2611 1.373 . S
C2610 C2612 1.389 . S
C2611 H2590 0.950 . S
C2611 C2610 1.373 . S
C2611 C2627 1.377 . S
C2612 C2610 1.389 . S
C2612 C2613 1.524 . S
C2612 C2626 1.377 . S
C2613 C2612 1.524 . S
C2613 C2614 1.397 . S
C2613 C2618 1.363 . S
C2614 H2591 0.950 . S
C2614 C2613 1.397 . S
C2614 C2615 1.334 . S
C2615 H2592 0.950 . S
C2615 C2614 1.334 . S
C2615 C2616 1.287 . S
C2616 C2615 1.287 . S
C2616 C2617 1.524 . S
C2616 H2635 0.913 . S
C2617 H2593 0.950 . S
C2617 C2616 1.524 . S
C2617 C2618 1.415 . S
C2618 H2594 0.950 . S
C2618 C2613 1.363 . S
C2618 C2617 1.415 . S
C2619 H2595 0.951 . S
C2619 C2620 1.366 . S
C2619 C2621 1.388 . S
C2620 C2619 1.366 . S
C2620 C2624 1.385 . S
C2621 H2596 0.951 . S
C2621 C2619 1.388 . S
C2621 C2622 1.366 . S
C2622 C2621 1.366 . S
C2622 C2623 1.414 . S
C2622 C2625 1.499 . S
C2623 H2597 0.950 . S
C2623 C2622 1.414 . S
C2623 C2624 1.374 . S
C2624 H2598 0.950 . S
C2624 C2620 1.385 . S
C2624 C2623 1.374 . S
C2625 C2622 1.499 . S
C2625 C2626 1.373 . S
C2625 C2627 1.389 . S
C2626 H2599 0.950 . S
C2626 C2612 1.377 . S
C2626 C2625 1.373 . S
C2627 C2611 1.377 . S
C2627 C2625 1.389 . S
C2627 C2628 1.524 . S
C2628 C2627 1.524 . S
C2628 C2629 1.397 . S
C2628 C2633 1.363 . S
C2629 H2600 0.950 . S
C2629 C2628 1.397 . S
C2629 C2630 1.334 . S
C2630 H2601 0.950 . S
C2630 C2629 1.334 . S
C2630 C2631 1.287 . S
C2631 C2630 1.287 . S
C2631 C2632 1.524 . S
C2631 H2634 0.999 . S
C2632 H2602 0.950 . S
C2632 C2631 1.524 . S
C2632 C2633 1.415 . S
C2633 H2603 0.950 . S
C2633 C2628 1.363 . S
C2633 C2632 1.415 . S
H2634 C2631 0.999 . S
H2635 C2616 0.913 . S
H2636 C2654 0.951 . S
H2637 C2656 0.951 . S
H2638 C2658 0.950 . S
H2639 C2659 0.950 . S
H2640 C2661 0.950 . S
H2641 C2664 0.950 . S
H2642 C2665 0.950 . S
H2643 C2667 0.950 . S
H2644 C2668 0.950 . S
H2645 C2669 0.951 . S
H2646 C2671 0.951 . S
H2647 C2673 0.950 . S
H2648 C2674 0.950 . S
H2649 C2676 0.950 . S
H2650 C2679 0.950 . S
H2651 C2680 0.950 . S
H2652 C2682 0.950 . S
H2653 C2683 0.950 . S
C2654 H2636 0.951 . S
C2654 C2655 1.366 . S
C2654 C2656 1.388 . S
C2655 C2654 1.366 . S
C2655 C2659 1.385 . S
C2656 H2637 0.951 . S
C2656 C2654 1.388 . S
C2656 C2657 1.366 . S
C2657 C2656 1.366 . S
C2657 C2658 1.414 . S
C2657 C2660 1.499 . S
C2658 H2638 0.950 . S
C2658 C2657 1.414 . S
C2658 C2659 1.374 . S
C2659 H2639 0.950 . S
C2659 C2655 1.385 . S
C2659 C2658 1.374 . S
C2660 C2657 1.499 . S
C2660 C2661 1.373 . S
C2660 C2662 1.389 . S
C2661 H2640 0.950 . S
C2661 C2660 1.373 . S
C2661 C2677 1.377 . S
C2662 C2660 1.389 . S
C2662 C2663 1.524 . S
C2662 C2676 1.377 . S
C2663 C2662 1.524 . S
C2663 C2664 1.397 . S
C2663 C2668 1.363 . S
C2664 H2641 0.950 . S
C2664 C2663 1.397 . S
C2664 C2665 1.334 . S
C2665 H2642 0.950 . S
C2665 C2664 1.334 . S
C2665 C2666 1.287 . S
C2666 C2665 1.287 . S
C2666 C2667 1.524 . S
C2666 H2685 0.913 . S
C2667 H2643 0.950 . S
C2667 C2666 1.524 . S
C2667 C2668 1.415 . S
C2668 H2644 0.950 . S
C2668 C2663 1.363 . S
C2668 C2667 1.415 . S
C2669 H2645 0.951 . S
C2669 C2670 1.366 . S
C2669 C2671 1.388 . S
C2670 C2669 1.366 . S
C2670 C2674 1.385 . S
C2671 H2646 0.951 . S
C2671 C2669 1.388 . S
C2671 C2672 1.366 . S
C2672 C2671 1.366 . S
C2672 C2673 1.414 . S
C2672 C2675 1.499 . S
C2673 H2647 0.950 . S
C2673 C2672 1.414 . S
C2673 C2674 1.374 . S
C2674 H2648 0.950 . S
C2674 C2670 1.385 . S
C2674 C2673 1.374 . S
C2675 C2672 1.499 . S
C2675 C2676 1.373 . S
C2675 C2677 1.389 . S
C2676 H2649 0.950 . S
C2676 C2662 1.377 . S
C2676 C2675 1.373 . S
C2677 C2661 1.377 . S
C2677 C2675 1.389 . S
C2677 C2678 1.524 . S
C2678 C2677 1.524 . S
C2678 C2679 1.397 . S
C2678 C2683 1.363 . S
C2679 H2650 0.950 . S
C2679 C2678 1.397 . S
C2679 C2680 1.334 . S
C2680 H2651 0.950 . S
C2680 C2679 1.334 . S
C2680 C2681 1.287 . S
C2681 C2680 1.287 . S
C2681 C2682 1.524 . S
C2681 H2684 0.999 . S
C2682 H2652 0.950 . S
C2682 C2681 1.524 . S
C2682 C2683 1.415 . S
C2683 H2653 0.950 . S
C2683 C2678 1.363 . S
C2683 C2682 1.415 . S
H2684 C2681 0.999 . S
H2685 C2666 0.913 . S
H2686 C2704 0.951 . S
H2687 C2706 0.951 . S
H2688 C2708 0.950 . S
H2689 C2709 0.950 . S
H2690 C2711 0.950 . S
H2691 C2714 0.950 . S
H2692 C2715 0.950 . S
H2693 C2717 0.950 . S
H2694 C2718 0.950 . S
H2695 C2719 0.951 . S
H2696 C2721 0.951 . S
H2697 C2723 0.950 . S
H2698 C2724 0.950 . S
H2699 C2726 0.950 . S
H2700 C2729 0.950 . S
H2701 C2730 0.950 . S
H2702 C2732 0.950 . S
H2703 C2733 0.950 . S
C2704 H2686 0.951 . S
C2704 C2705 1.366 . S
C2704 C2706 1.388 . S
C2705 C2704 1.366 . S
C2705 C2709 1.385 . S
C2706 H2687 0.951 . S
C2706 C2704 1.388 . S
C2706 C2707 1.366 . S
C2707 C2706 1.366 . S
C2707 C2708 1.414 . S
C2707 C2710 1.499 . S
C2708 H2688 0.950 . S
C2708 C2707 1.414 . S
C2708 C2709 1.374 . S
C2709 H2689 0.950 . S
C2709 C2705 1.385 . S
C2709 C2708 1.374 . S
C2710 C2707 1.499 . S
C2710 C2711 1.373 . S
C2710 C2712 1.389 . S
C2711 H2690 0.950 . S
C2711 C2710 1.373 . S
C2711 C2727 1.377 . S
C2712 C2710 1.389 . S
C2712 C2713 1.524 . S
C2712 C2726 1.377 . S
C2713 C2712 1.524 . S
C2713 C2714 1.397 . S
C2713 C2718 1.363 . S
C2714 H2691 0.950 . S
C2714 C2713 1.397 . S
C2714 C2715 1.334 . S
C2715 H2692 0.950 . S
C2715 C2714 1.334 . S
C2715 C2716 1.287 . S
C2716 C2715 1.287 . S
C2716 C2717 1.524 . S
C2716 H2735 0.913 . S
C2717 H2693 0.950 . S
C2717 C2716 1.524 . S
C2717 C2718 1.415 . S
C2718 H2694 0.950 . S
C2718 C2713 1.363 . S
C2718 C2717 1.415 . S
C2719 H2695 0.951 . S
C2719 C2720 1.366 . S
C2719 C2721 1.388 . S
C2720 C2719 1.366 . S
C2720 C2724 1.385 . S
C2721 H2696 0.951 . S
C2721 C2719 1.388 . S
C2721 C2722 1.366 . S
C2722 C2721 1.366 . S
C2722 C2723 1.414 . S
C2722 C2725 1.499 . S
C2723 H2697 0.950 . S
C2723 C2722 1.414 . S
C2723 C2724 1.374 . S
C2724 H2698 0.950 . S
C2724 C2720 1.385 . S
C2724 C2723 1.374 . S
C2725 C2722 1.499 . S
C2725 C2726 1.373 . S
C2725 C2727 1.389 . S
C2726 H2699 0.950 . S
C2726 C2712 1.377 . S
C2726 C2725 1.373 . S
C2727 C2711 1.377 . S
C2727 C2725 1.389 . S
C2727 C2728 1.524 . S
C2728 C2727 1.524 . S
C2728 C2729 1.397 . S
C2728 C2733 1.363 . S
C2729 H2700 0.950 . S
C2729 C2728 1.397 . S
C2729 C2730 1.334 . S
C2730 H2701 0.950 . S
C2730 C2729 1.334 . S
C2730 C2731 1.287 . S
C2731 C2730 1.287 . S
C2731 C2732 1.524 . S
C2731 H2734 0.999 . S
C2732 H2702 0.950 . S
C2732 C2731 1.524 . S
C2732 C2733 1.415 . S
C2733 H2703 0.950 . S
C2733 C2728 1.363 . S
C2733 C2732 1.415 . S
H2734 C2731 0.999 . S
H2735 C2716 0.913 . S
H2736 C2754 0.951 . S
H2737 C2756 0.951 . S
H2738 C2758 0.950 . S
H2739 C2759 0.950 . S
H2740 C2761 0.950 . S
H2741 C2764 0.950 . S
H2742 C2765 0.950 . S
H2743 C2767 0.950 . S
H2744 C2768 0.950 . S
H2745 C2769 0.951 . S
H2746 C2771 0.951 . S
H2747 C2773 0.950 . S
H2748 C2774 0.950 . S
H2749 C2776 0.950 . S
H2750 C2779 0.950 . S
H2751 C2780 0.950 . S
H2752 C2782 0.950 . S
H2753 C2783 0.950 . S
C2754 H2736 0.951 . S
C2754 C2755 1.366 . S
C2754 C2756 1.388 . S
C2755 C2754 1.366 . S
C2755 C2759 1.385 . S
C2756 H2737 0.951 . S
C2756 C2754 1.388 . S
C2756 C2757 1.366 . S
C2757 C2756 1.366 . S
C2757 C2758 1.414 . S
C2757 C2760 1.499 . S
C2758 H2738 0.950 . S
C2758 C2757 1.414 . S
C2758 C2759 1.374 . S
C2759 H2739 0.950 . S
C2759 C2755 1.385 . S
C2759 C2758 1.374 . S
C2760 C2757 1.499 . S
C2760 C2761 1.373 . S
C2760 C2762 1.389 . S
C2761 H2740 0.950 . S
C2761 C2760 1.373 . S
C2761 C2777 1.377 . S
C2762 C2760 1.389 . S
C2762 C2763 1.524 . S
C2762 C2776 1.377 . S
C2763 C2762 1.524 . S
C2763 C2764 1.397 . S
C2763 C2768 1.363 . S
C2764 H2741 0.950 . S
C2764 C2763 1.397 . S
C2764 C2765 1.334 . S
C2765 H2742 0.950 . S
C2765 C2764 1.334 . S
C2765 C2766 1.287 . S
C2766 C2765 1.287 . S
C2766 C2767 1.524 . S
C2766 H2785 0.913 . S
C2767 H2743 0.950 . S
C2767 C2766 1.524 . S
C2767 C2768 1.415 . S
C2768 H2744 0.950 . S
C2768 C2763 1.363 . S
C2768 C2767 1.415 . S
C2769 H2745 0.951 . S
C2769 C2770 1.366 . S
C2769 C2771 1.388 . S
C2770 C2769 1.366 . S
C2770 C2774 1.385 . S
C2771 H2746 0.951 . S
C2771 C2769 1.388 . S
C2771 C2772 1.366 . S
C2772 C2771 1.366 . S
C2772 C2773 1.414 . S
C2772 C2775 1.499 . S
C2773 H2747 0.950 . S
C2773 C2772 1.414 . S
C2773 C2774 1.374 . S
C2774 H2748 0.950 . S
C2774 C2770 1.385 . S
C2774 C2773 1.374 . S
C2775 C2772 1.499 . S
C2775 C2776 1.373 . S
C2775 C2777 1.389 . S
C2776 H2749 0.950 . S
C2776 C2762 1.377 . S
C2776 C2775 1.373 . S
C2777 C2761 1.377 . S
C2777 C2775 1.389 . S
C2777 C2778 1.524 . S
C2778 C2777 1.524 . S
C2778 C2779 1.397 . S
C2778 C2783 1.363 . S
C2779 H2750 0.950 . S
C2779 C2778 1.397 . S
C2779 C2780 1.334 . S
C2780 H2751 0.950 . S
C2780 C2779 1.334 . S
C2780 C2781 1.287 . S
C2781 C2780 1.287 . S
C2781 C2782 1.524 . S
C2781 H2784 0.999 . S
C2782 H2752 0.950 . S
C2782 C2781 1.524 . S
C2782 C2783 1.415 . S
C2783 H2753 0.950 . S
C2783 C2778 1.363 . S
C2783 C2782 1.415 . S
H2784 C2781 0.999 . S
H2785 C2766 0.913 . S
H2786 C2804 0.951 . S
H2787 C2806 0.951 . S
H2788 C2808 0.950 . S
H2789 C2809 0.950 . S
H2790 C2811 0.950 . S
H2791 C2814 0.950 . S
H2792 C2815 0.950 . S
H2793 C2817 0.950 . S
H2794 C2818 0.950 . S
H2795 C2819 0.951 . S
H2796 C2821 0.951 . S
H2797 C2823 0.950 . S
H2798 C2824 0.950 . S
H2799 C2826 0.950 . S
H2800 C2829 0.950 . S
H2801 C2830 0.928 1_554 S
H2802 C2832 0.950 . S
H2803 C2833 0.950 . S
C2804 H2786 0.951 . S
C2804 C2805 1.366 . S
C2804 C2806 1.388 . S
C2805 C2804 1.366 . S
C2805 C2809 1.385 . S
C2806 H2787 0.951 . S
C2806 C2804 1.388 . S
C2806 C2807 1.366 . S
C2807 C2806 1.366 . S
C2807 C2808 1.414 . S
C2807 C2810 1.499 . S
C2808 H2788 0.950 . S
C2808 C2807 1.414 . S
C2808 C2809 1.374 . S
C2809 H2789 0.950 . S
C2809 C2805 1.385 . S
C2809 C2808 1.374 . S
C2810 C2807 1.499 . S
C2810 C2811 1.373 . S
C2810 C2812 1.389 . S
C2811 H2790 0.950 . S
C2811 C2810 1.373 . S
C2811 C2827 1.377 . S
C2812 C2810 1.389 . S
C2812 C2813 1.524 . S
C2812 C2826 1.377 . S
C2813 C2812 1.524 . S
C2813 C2814 1.397 . S
C2813 C2818 1.363 . S
C2814 H2791 0.950 . S
C2814 C2813 1.397 . S
C2814 C2815 1.334 . S
C2815 H2792 0.950 . S
C2815 C2814 1.334 . S
C2815 C2816 1.287 . S
C2816 C2815 1.287 . S
C2816 C2817 1.524 . S
C2816 H2835 0.913 . S
C2817 H2793 0.950 . S
C2817 C2816 1.524 . S
C2817 C2818 1.415 . S
C2818 H2794 0.950 . S
C2818 C2813 1.363 . S
C2818 C2817 1.415 . S
C2819 H2795 0.951 . S
C2819 C2820 1.366 . S
C2819 C2821 1.388 . S
C2820 C2819 1.366 . S
C2820 C2824 1.385 . S
C2821 H2796 0.951 . S
C2821 C2819 1.388 . S
C2821 C2822 1.366 . S
C2822 C2821 1.366 . S
C2822 C2823 1.414 . S
C2822 C2825 1.499 . S
C2823 H2797 0.950 . S
C2823 C2822 1.414 . S
C2823 C2824 1.374 . S
C2824 H2798 0.950 . S
C2824 C2820 1.385 . S
C2824 C2823 1.374 . S
C2825 C2822 1.499 . S
C2825 C2826 1.373 . S
C2825 C2827 1.389 . S
C2826 H2799 0.950 . S
C2826 C2812 1.377 . S
C2826 C2825 1.373 . S
C2827 C2811 1.377 . S
C2827 C2825 1.389 . S
C2827 C2828 1.524 . S
C2828 C2827 1.524 . S
C2828 C2829 1.397 . S
C2828 C2833 1.363 . S
C2829 H2800 0.950 . S
C2829 C2828 1.397 . S
C2829 C2830 1.361 . S
C2830 H2801 0.928 1_556 S
C2830 C2829 1.361 . S
C2830 C2831 1.283 1_556 S
C2831 C2830 1.283 1_554 S
C2831 C2832 1.524 1_554 S
C2831 H2834 0.999 . S
C2832 H2802 0.950 . S
C2832 C2831 1.524 1_556 S
C2832 C2833 1.415 . S
C2833 H2803 0.950 . S
C2833 C2828 1.363 . S
C2833 C2832 1.415 . S
H2834 C2831 0.999 . S
H2835 C2816 0.913 . S
H2836 C2854 0.951 . S
H2837 C2856 0.951 . S
H2838 C2858 0.950 . S
H2839 C2859 0.950 . S
H2840 C2861 0.950 . S
H2841 C2864 0.950 . S
H2842 C2865 0.950 . S
H2843 C2867 0.950 . S
H2844 C2868 0.950 . S
H2845 C2869 0.951 . S
H2846 C2871 0.951 . S
H2847 C2873 0.950 . S
H2848 C2874 0.950 . S
H2849 C2876 0.950 . S
H2850 C2879 0.950 . S
H2851 C2880 0.950 . S
H2852 C2882 0.950 . S
H2853 C2883 0.950 . S
C2854 H2836 0.951 . S
C2854 C2855 1.366 . S
C2854 C2856 1.388 . S
C2855 C2854 1.366 . S
C2855 C2859 1.385 . S
C2856 H2837 0.951 . S
C2856 C2854 1.388 . S
C2856 C2857 1.366 . S
C2857 C2856 1.366 . S
C2857 C2858 1.414 . S
C2857 C2860 1.499 . S
C2858 H2838 0.950 . S
C2858 C2857 1.414 . S
C2858 C2859 1.374 . S
C2859 H2839 0.950 . S
C2859 C2855 1.385 . S
C2859 C2858 1.374 . S
C2860 C2857 1.499 . S
C2860 C2861 1.373 . S
C2860 C2862 1.389 . S
C2861 H2840 0.950 . S
C2861 C2860 1.373 . S
C2861 C2877 1.377 . S
C2862 C2860 1.389 . S
C2862 C2863 1.524 . S
C2862 C2876 1.377 . S
C2863 C2862 1.524 . S
C2863 C2864 1.397 . S
C2863 C2868 1.363 . S
C2864 H2841 0.950 . S
C2864 C2863 1.397 . S
C2864 C2865 1.334 . S
C2865 H2842 0.950 . S
C2865 C2864 1.334 . S
C2865 C2866 1.287 . S
C2866 C2865 1.287 . S
C2866 C2867 1.524 . S
C2866 H2885 0.913 . S
C2867 H2843 0.950 . S
C2867 C2866 1.524 . S
C2867 C2868 1.415 . S
C2868 H2844 0.950 . S
C2868 C2863 1.363 . S
C2868 C2867 1.415 . S
C2869 H2845 0.951 . S
C2869 C2870 1.366 . S
C2869 C2871 1.388 . S
C2870 C2869 1.366 . S
C2870 C2874 1.385 . S
C2871 H2846 0.951 . S
C2871 C2869 1.388 . S
C2871 C2872 1.366 . S
C2872 C2871 1.366 . S
C2872 C2873 1.414 . S
C2872 C2875 1.499 . S
C2873 H2847 0.950 . S
C2873 C2872 1.414 . S
C2873 C2874 1.374 . S
C2874 H2848 0.950 . S
C2874 C2870 1.385 . S
C2874 C2873 1.374 . S
C2875 C2872 1.499 . S
C2875 C2876 1.373 . S
C2875 C2877 1.389 . S
C2876 H2849 0.950 . S
C2876 C2862 1.377 . S
C2876 C2875 1.373 . S
C2877 C2861 1.377 . S
C2877 C2875 1.389 . S
C2877 C2878 1.524 . S
C2878 C2877 1.524 . S
C2878 C2879 1.397 . S
C2878 C2883 1.363 . S
C2879 H2850 0.950 . S
C2879 C2878 1.397 . S
C2879 C2880 1.334 . S
C2880 H2851 0.950 . S
C2880 C2879 1.334 . S
C2880 C2881 1.287 . S
C2881 C2880 1.287 . S
C2881 C2882 1.524 . S
C2881 H2884 0.999 . S
C2882 H2852 0.950 . S
C2882 C2881 1.524 . S
C2882 C2883 1.415 . S
C2883 H2853 0.950 . S
C2883 C2878 1.363 . S
C2883 C2882 1.415 . S
H2884 C2881 0.999 . S
H2885 C2866 0.913 . S
H2886 C2904 0.951 . S
H2887 C2906 0.951 . S
H2888 C2908 0.950 . S
H2889 C2909 0.950 . S
H2890 C2911 0.950 . S
H2891 C2914 0.950 . S
H2892 C2915 0.950 . S
H2893 C2917 0.950 . S
H2894 C2918 0.950 . S
H2895 C2919 0.951 . S
H2896 C2921 0.951 . S
H2897 C2923 0.950 . S
H2898 C2924 0.950 . S
H2899 C2926 0.950 . S
H2900 C2929 0.950 . S
H2901 C2930 0.950 . S
H2902 C2932 0.950 . S
H2903 C2933 0.950 . S
C2904 H2886 0.951 . S
C2904 C2905 1.366 . S
C2904 C2906 1.388 . S
C2905 C2904 1.366 . S
C2905 C2909 1.385 . S
C2906 H2887 0.951 . S
C2906 C2904 1.388 . S
C2906 C2907 1.366 . S
C2907 C2906 1.366 . S
C2907 C2908 1.414 . S
C2907 C2910 1.499 . S
C2908 H2888 0.950 . S
C2908 C2907 1.414 . S
C2908 C2909 1.374 . S
C2909 H2889 0.950 . S
C2909 C2905 1.385 . S
C2909 C2908 1.374 . S
C2910 C2907 1.499 . S
C2910 C2911 1.373 . S
C2910 C2912 1.389 . S
C2911 H2890 0.950 . S
C2911 C2910 1.373 . S
C2911 C2927 1.377 . S
C2912 C2910 1.389 . S
C2912 C2913 1.524 . S
C2912 C2926 1.377 . S
C2913 C2912 1.524 . S
C2913 C2914 1.397 . S
C2913 C2918 1.363 . S
C2914 H2891 0.950 . S
C2914 C2913 1.397 . S
C2914 C2915 1.334 . S
C2915 H2892 0.950 . S
C2915 C2914 1.334 . S
C2915 C2916 1.287 . S
C2916 C2915 1.287 . S
C2916 C2917 1.524 . S
C2916 H2935 0.913 . S
C2917 H2893 0.950 . S
C2917 C2916 1.524 . S
C2917 C2918 1.415 . S
C2918 H2894 0.950 . S
C2918 C2913 1.363 . S
C2918 C2917 1.415 . S
C2919 H2895 0.951 . S
C2919 C2920 1.366 . S
C2919 C2921 1.388 . S
C2920 C2919 1.366 . S
C2920 C2924 1.385 . S
C2921 H2896 0.951 . S
C2921 C2919 1.388 . S
C2921 C2922 1.366 . S
C2922 C2921 1.366 . S
C2922 C2923 1.414 . S
C2922 C2925 1.499 . S
C2923 H2897 0.950 . S
C2923 C2922 1.414 . S
C2923 C2924 1.374 . S
C2924 H2898 0.950 . S
C2924 C2920 1.385 . S
C2924 C2923 1.374 . S
C2925 C2922 1.499 . S
C2925 C2926 1.373 . S
C2925 C2927 1.389 . S
C2926 H2899 0.950 . S
C2926 C2912 1.377 . S
C2926 C2925 1.373 . S
C2927 C2911 1.377 . S
C2927 C2925 1.389 . S
C2927 C2928 1.524 . S
C2928 C2927 1.524 . S
C2928 C2929 1.397 . S
C2928 C2933 1.363 . S
C2929 H2900 0.950 . S
C2929 C2928 1.397 . S
C2929 C2930 1.334 . S
C2930 H2901 0.950 . S
C2930 C2929 1.334 . S
C2930 C2931 1.287 . S
C2931 C2930 1.287 . S
C2931 C2932 1.524 . S
C2931 H2934 0.999 . S
C2932 H2902 0.950 . S
C2932 C2931 1.524 . S
C2932 C2933 1.415 . S
C2933 H2903 0.950 . S
C2933 C2928 1.363 . S
C2933 C2932 1.415 . S
H2934 C2931 0.999 . S
H2935 C2916 0.913 . S
C1370 C941 1.450 . S
C1355 C29 1.175 . S
C1420 C994 1.497 . S
C1405 C125 0.838 . S
C1470 C1057 1.548 . S
C1455 C257 1.254 . S
C1520 C1100 1.429 . S
C1505 C353 0.810 . S
C1555 C457 1.161 . S
C1570 C1056 1.501 . S
C1620 C1093 1.511 . S
C1605 C625 1.193 . S
C1670 C934 1.429 . S
C1655 C685 1.116 . S
C1720 C987 1.388 . S
C1705 C853 1.084 . S
C1770 C1040 1.659 . S
C1755 C809 1.074 . S
C1820 C1109 1.762 . S
C1805 C485 1.473 . S
C1870 C950 1.757 . S
C1855 C581 1.126 . S
C1920 C1003 1.679 . S
C1905 C713 1.384 . S
C1970 C951 1.727 . S
C1955 C169 1.270 . S
C2020 C1004 1.734 . S
C2005 C229 1.343 . S
C2070 C1047 1.648 . S
C2055 C397 1.194 . S
C2120 C1110 1.639 . S
C2105 C1 1.271 . S
C2170 C1153 1.416 . S
C2155 C827 1.139 . S
C2205 C467 1.104 . S
C2220 C1206 1.865 . S
C2255 C599 1.292 . S
C2270 C1268 1.575 . S
C2305 C695 1.098 . S
C2320 C1322 1.843 . S
C2355 C115 1.144 . S
C2370 C1269 1.468 . S
C2405 C283 1.531 . S
C2420 C1321 1.926 . S
C2455 C343 1.127 . S
C2470 C1146 1.456 . S
C2520 C1199 1.763 . S
C2505 C55 1.377 . S
C2570 C1259 1.616 . S
C2555 C11 1.044 . S
C2605 C143 1.087 . S
C2620 C1305 1.308 . S
C2655 C239 1.154 . S
C2670 C1162 1.800 . S
C2705 C371 1.077 . S
C2720 C1215 1.288 . S
C2770 C1163 1.673 . S
C2755 C511 1.223 . S
C2820 C1216 1.355 . S
C2805 C571 1.036 . S
C2855 C739 1.228 . S
C2870 C1252 1.681 . S
C2920 C1312 1.200 . S
C2905 C799 0.953 . S
