# Generated by pormake.
# Topology anh, (6,3)-cn, num edge types: 1
# Building blocks:
#     Node 0, Type 0, BuildingBlock: BETFAJ_clean_sbu_0, # of connection points: 6
#     Node 1, Type 0, BuildingBlock: BETFAJ_clean_sbu_0, # of connection points: 6
#     Node 2, Type 0, BuildingBlock: BETFAJ_clean_sbu_0, # of connection points: 6
#     Node 3, Type 1, BuildingBlock: MIDCAF_clean_linker_0, # of connection points: 3
#     Node 4, Type 1, BuildingBlock: MIDCAF_clean_linker_0, # of connection points: 3
#     Node 5, Type 1, BuildingBlock: MIDCAF_clean_linker_0, # of connection points: 3
#     Node 6, Type 1, BuildingBlock: MIDCAF_clean_linker_0, # of connection points: 3
#     Node 7, Type 1, BuildingBlock: MIDCAF_clean_linker_0, # of connection points: 3
#     Node 8, Type 1, BuildingBlock: MIDCAF_clean_linker_0, # of connection points: 3
#     Edge 9, Type (0, 1), BuildingBlock: TEMPAE_clean_linker_10, # of connection points: 2
#     Edge 10, Type (0, 1), BuildingBlock: TEMPAE_clean_linker_10, # of connection points: 2
#     Edge 11, Type (0, 1), BuildingBlock: TEMPAE_clean_linker_10, # of connection points: 2
#     Edge 12, Type (0, 1), BuildingBlock: TEMPAE_clean_linker_10, # of connection points: 2
#     Edge 13, Type (0, 1), BuildingBlock: TEMPAE_clean_linker_10, # of connection points: 2
#     Edge 14, Type (0, 1), BuildingBlock: TEMPAE_clean_linker_10, # of connection points: 2
#     Edge 15, Type (0, 1), BuildingBlock: TEMPAE_clean_linker_10, # of connection points: 2
#     Edge 16, Type (0, 1), BuildingBlock: TEMPAE_clean_linker_10, # of connection points: 2
#     Edge 17, Type (0, 1), BuildingBlock: TEMPAE_clean_linker_10, # of connection points: 2
#     Edge 18, Type (0, 1), BuildingBlock: TEMPAE_clean_linker_10, # of connection points: 2
#     Edge 19, Type (0, 1), BuildingBlock: TEMPAE_clean_linker_10, # of connection points: 2
#     Edge 20, Type (0, 1), BuildingBlock: TEMPAE_clean_linker_10, # of connection points: 2
#     Edge 21, Type (0, 1), BuildingBlock: TEMPAE_clean_linker_10, # of connection points: 2
#     Edge 22, Type (0, 1), BuildingBlock: TEMPAE_clean_linker_10, # of connection points: 2
#     Edge 23, Type (0, 1), BuildingBlock: TEMPAE_clean_linker_10, # of connection points: 2
#     Edge 24, Type (0, 1), BuildingBlock: TEMPAE_clean_linker_10, # of connection points: 2
#     Edge 25, Type (0, 1), BuildingBlock: TEMPAE_clean_linker_10, # of connection points: 2
#     Edge 26, Type (0, 1), BuildingBlock: TEMPAE_clean_linker_10, # of connection points: 2
# Relax obj value: 0.183
# Max RMSD: 0.209
# Mean RMSD: 0.156
data_MOF--net-anh--node1-BETFAJ_clean_sbu_0--node2-MIDCAF_clean_linker_0--edge1-TEMPAE_clean_linker_10
_symmetry_space_group_name_H-M    P1
_symmetry_Int_Tables_number       1
_symmetry_cell_setting            triclinic
loop_
_symmetry_equiv_pos_as_xyz
'x, y, z'
_cell_length_a     37.366527
_cell_length_b     43.967676
_cell_length_c     67.112312
_cell_angle_alpha  91.999229
_cell_angle_beta   89.928609
_cell_angle_gamma 128.47885
loop_
_atom_site_label
_atom_site_type_symbol
_atom_site_fract_x
_atom_site_fract_y
_atom_site_fract_z
_atom_type_partial_charge
Sm0 Sm 0.09708 0.53186 0.13659 0.0
Sm1 Sm 1.04728 0.56248 0.15909 0.0
C2 C 0.13066 0.51402 0.10799 0.0
C3 C 0.16065 0.50341 0.106 0.0
C4 C 0.16936 0.4957 0.08698 0.0
C5 C 0.1935 0.48123 0.08485 0.0
C6 C 0.20916 0.47417 0.10176 0.0
C7 C 0.20187 0.48344 0.12083 0.0
C8 C 0.17766 0.4979 0.12293 0.0
C9 C 0.10624 0.533 0.17747 0.0
C10 C 0.15468 0.62478 0.15111 0.0
C11 C 0.99679 0.57112 0.18225 0.0
C12 C 0.94829 0.54277 0.1871 0.0
C13 C 0.93232 0.54387 0.20587 0.0
C14 C 0.88621 0.51531 0.21043 0.0
C15 C 0.85624 0.48531 0.1963 0.0
C16 C 0.87235 0.48455 0.17759 0.0
C17 C 0.9179 0.51287 0.17304 0.0
C18 C 0.05569 0.56813 0.11838 0.0
C19 C 0.98887 0.46747 0.14782 0.0
O20 O 0.14983 0.5499 0.11401 0.0
O21 O 0.0916 0.48834 0.11636 0.0
O22 O 0.087 0.54281 0.16745 0.0
O23 O 0.12422 0.52234 0.16535 0.0
O24 O 0.14883 0.59964 0.13719 0.0
O25 O 0.12255 0.61514 0.16396 0.0
O26 O 1.02352 0.56404 0.18925 0.0
O27 O 1.00485 0.5813 0.16366 0.0
O28 O 1.04592 0.54034 0.12832 0.0
O29 O 0.05993 0.59471 0.1299 0.0
O30 O 0.99048 0.4955 0.15709 0.0
O31 O 1.02384 0.47441 0.13797 0.0
H32 H 0.1564 0.49987 0.07379 0.0
H33 H 0.19924 0.4749 0.06998 0.0
H34 H 0.21325 0.47803 0.13411 0.0
H35 H 0.17096 0.50361 0.13774 0.0
H36 H 0.95544 0.56663 0.21694 0.0
H37 H 0.87402 0.51654 0.22485 0.0
H38 H 0.84937 0.46219 0.16633 0.0
H39 H 0.92936 0.51129 0.15849 0.0
Sm40 Sm 0.62362 0.03345 0.48423 0.0
Sm41 Sm 0.56584 0.05807 0.47433 0.0
C42 C 0.6576 1.00228 0.50085 0.0
C43 C 0.6451 0.96361 0.50359 0.0
C44 C 0.64632 0.953 0.52288 0.0
C45 C 0.63587 0.91704 0.52595 0.0
C46 C 0.62433 0.89098 0.50975 0.0
C47 C 0.62237 0.90142 0.49043 0.0
C48 C 0.63255 0.93736 0.48738 0.0
C49 C 0.61618 0.04002 0.44423 0.0
C50 C 0.51199 0.96605 0.47603 0.0
C51 C 0.53159 0.09114 0.46064 0.0
C52 C 0.53943 0.12745 0.4663 0.0
C53 C 0.52263 0.14158 0.45419 0.0
C54 C 0.52925 0.17571 0.45997 0.0
C55 C 0.55251 0.19595 0.47802 0.0
C56 C 0.56997 0.18194 0.48991 0.0
C57 C 0.56363 0.14808 0.48406 0.0
C58 C 0.57542 0.05282 0.51441 0.0
C59 C 0.67886 0.12515 0.47948 0.0
O60 O 0.6337 0.01012 0.5106 0.0
O61 O 0.66737 0.01541 0.48284 0.0
O62 O 0.58405 0.02574 0.45633 0.0
O63 O 0.65274 0.04844 0.45272 0.0
O64 O 0.54924 0.97579 0.48532 0.0
O65 O 0.51182 0.9925 0.46736 0.0
O66 O 0.56609 0.09514 0.45253 0.0
O67 O 0.51161 0.06458 0.47399 0.0
O68 O 0.60666 0.06705 0.50192 0.0
O69 O 0.5381 0.04311 0.50617 0.0
O70 O 0.63993 0.11532 0.47214 0.0
O71 O 0.68098 0.09932 0.48756 0.0
H72 H 0.65558 0.97267 0.53561 0.0
H73 H 0.63679 0.90965 0.54107 0.0
H74 H 0.61395 0.8822 0.47761 0.0
H75 H 0.63106 0.94471 0.47233 0.0
H76 H 0.50403 0.12604 0.44039 0.0
H77 H 0.51529 0.18578 0.45057 0.0
H78 H 0.5886 0.19725 0.50373 0.0
H79 H 0.57727 0.13776 0.49349 0.0
Sm80 Sm 0.61682 0.56226 0.84859 0.0
Sm81 Sm 0.55052 0.4744 0.85166 0.0
C82 C 0.66122 0.63562 0.83912 0.0
C83 C 0.65174 0.66252 0.83452 0.0
C84 C 0.60735 0.64884 0.82954 0.0
C85 C 0.59925 0.67499 0.82502 0.0
C86 C 0.63551 0.71526 0.82527 0.0
C87 C 0.67983 0.72871 0.83044 0.0
C88 C 0.6878 0.70258 0.83503 0.0
C89 C 0.60738 0.53558 0.88606 0.0
C90 C 0.50418 0.51715 0.85295 0.0
C91 C 0.51058 0.40187 0.8612 0.0
C92 C 0.52051 0.37466 0.85735 0.0
C93 C 0.501 0.34223 0.86903 0.0
C94 C 0.50969 0.31589 0.86511 0.0
C95 C 0.53792 0.32145 0.84935 0.0
C96 C 0.55808 0.35458 0.83794 0.0
C97 C 0.54962 0.38097 0.84197 0.0
C98 C 0.56226 0.49948 0.81359 0.0
C99 C 0.66389 0.51976 0.84827 0.0
O100 O 0.64677 0.60725 0.82595 0.0
O101 O 0.65499 0.62469 0.85752 0.0
O102 O 0.57537 0.52335 0.87363 0.0
O103 O 0.64646 0.56442 0.87918 0.0
O104 O 0.54446 0.54761 0.84655 0.0
O105 O 0.49895 0.48602 0.85863 0.0
O106 O 0.53971 0.43202 0.87308 0.0
O107 O 0.49828 0.41082 0.84563 0.0
O108 O 0.59371 0.51314 0.82656 0.0
O109 O 0.52315 0.47016 0.82015 0.0
O110 O 0.62213 0.48767 0.85194 0.0
O111 O 0.67089 0.55256 0.84471 0.0
H112 H 0.57911 0.61797 0.82898 0.0
H113 H 0.5648 0.66364 0.82092 0.0
H114 H 0.70838 0.75953 0.83105 0.0
H115 H 0.72226 0.71368 0.83893 0.0
H116 H 0.47882 0.33714 0.8811 0.0
H117 H 0.49424 0.29116 0.87443 0.0
H118 H 0.5795 0.35968 0.82553 0.0
H119 H 0.5653 0.40605 0.83286 0.0
C120 C 0.46863 0.90403 0.19097 0.0
C121 C 0.44808 0.89956 0.17243 0.0
C122 C 0.46488 0.93333 0.16206 0.0
C123 C 0.50041 0.97055 0.17038 0.0
H124 H 0.64039 0.0967 0.16277 0.0
H125 H 0.70221 0.16036 0.14974 0.0
H126 H 0.70895 0.21661 0.20521 0.0
H127 H 0.64821 0.15401 0.21813 0.0
H128 H 0.59718 0.10315 0.25804 0.0
H129 H 0.59844 0.10205 0.29431 0.0
H130 H 0.57598 0.99283 0.28967 0.0
H131 H 0.5714 0.99286 0.25359 0.0
H132 H 0.51763 0.94266 0.21375 0.0
H133 H 0.45642 0.87905 0.19963 0.0
H134 H 0.45017 0.93103 0.14766 0.0
H135 H 0.51162 0.99597 0.16236 0.0
N136 N 0.57914 0.04744 0.19038 0.0
N137 N 0.60815 0.08177 0.22146 0.0
N138 N 0.55448 0.01409 0.22025 0.0
C139 C 0.60748 0.08199 0.2012 0.0
C140 C 0.582 0.04804 0.23105 0.0
C141 C 0.55224 0.01324 0.20002 0.0
C142 C 0.63967 0.12002 0.19162 0.0
C143 C 0.65461 0.12274 0.17202 0.0
C144 C 0.69006 0.1592 0.16457 0.0
C145 C 0.71121 0.19352 0.17661 0.0
C146 C 0.69434 0.19075 0.19573 0.0
C147 C 0.65922 0.15468 0.2031 0.0
C148 C 0.58398 0.04802 0.25303 0.0
C149 C 0.59236 0.07891 0.26487 0.0
C150 C 0.59338 0.07833 0.28569 0.0
C151 C 0.58725 0.0473 0.29515 0.0
C152 C 0.57961 0.01675 0.28313 0.0
C153 C 0.57737 0.01686 0.26236 0.0
C154 C 0.51949 0.9747 0.1893 0.0
C155 C 0.50371 0.94084 0.19921 0.0
C156 C 0.60794 0.43998 0.55469 0.0
C157 C 0.59098 0.43001 0.53491 0.0
C158 C 0.57614 0.44929 0.52636 0.0
C159 C 0.57779 0.47771 0.53747 0.0
H160 H 0.58016 0.57478 0.5327 0.0
H161 H 0.57632 0.62285 0.51806 0.0
H162 H 0.57989 0.66721 0.57711 0.0
H163 H 0.58258 0.61908 0.59168 0.0
H164 H 0.56411 0.56752 0.62874 0.0
H165 H 0.56445 0.56487 0.66482 0.0
H166 H 0.63043 0.51185 0.66048 0.0
H167 H 0.62802 0.51283 0.62425 0.0
H168 H 0.62178 0.47448 0.58116 0.0
H169 H 0.61916 0.42532 0.56174 0.0
H170 H 0.56314 0.4423 0.5111 0.0
H171 H 0.56561 0.49173 0.53054 0.0
N172 N 0.5877 0.53985 0.56115 0.0
N173 N 0.58866 0.56486 0.59276 0.0
N174 N 0.59602 0.51579 0.58999 0.0
C175 C 0.58587 0.565 0.57259 0.0
C176 C 0.59377 0.54044 0.60158 0.0
C177 C 0.5928 0.51515 0.56978 0.0
C178 C 0.58177 0.59298 0.56339 0.0
C179 C 0.57976 0.59459 0.54255 0.0
C180 C 0.57776 0.62225 0.53415 0.0
C181 C 0.57763 0.6488 0.5464 0.0
C182 C 0.57905 0.64678 0.5672 0.0
C183 C 0.58099 0.61924 0.57558 0.0
C184 C 0.59585 0.54022 0.6236 0.0
C185 C 0.57884 0.5554 0.63548 0.0
C186 C 0.57934 0.55412 0.65623 0.0
C187 C 0.59752 0.53818 0.66568 0.0
C188 C 0.61537 0.52368 0.65376 0.0
C189 C 0.61421 0.52441 0.63297 0.0
C190 C 0.59371 0.48698 0.55745 0.0
C191 C 0.60911 0.46799 0.56586 0.0
C192 C 0.93177 0.48693 0.87089 0.0
C193 C 0.93489 0.51241 0.85749 0.0
C194 C 0.97648 0.53699 0.8473 0.0
C195 C 1.01447 0.53791 0.85153 0.0
H196 H 0.12247 0.48133 0.8506 0.0
H197 H 0.185 0.47797 0.84428 0.0
H198 H 0.27646 0.58281 0.88099 0.0
H199 H 0.2145 0.58541 0.8875 0.0
H200 H 0.16785 0.58278 0.93222 0.0
H201 H 0.169 0.5961 0.968 0.0
H202 H 1.0211 0.5197 0.96668 0.0
H203 H 1.02031 0.50836 0.93105 0.0
H204 H 0.96568 0.46901 0.88627 0.0
H205 H 0.90049 0.46699 0.8788 0.0
H206 H 0.98062 0.55717 0.83689 0.0
H207 H 1.04678 0.55934 0.84464 0.0
N208 N 0.08748 0.5237 0.86658 0.0
N209 N 0.12612 0.53977 0.89778 0.0
N210 N 0.05684 0.5293 0.89593 0.0
C211 C 0.12418 0.53232 0.87777 0.0
C212 C 0.0926 0.53802 0.90694 0.0
C213 C 1.0536 0.52256 0.87592 0.0
C214 C 0.16301 0.53377 0.86952 0.0
C215 C 0.15623 0.50417 0.85688 0.0
C216 C 0.19232 0.50215 0.85338 0.0
C217 C 0.23638 0.52963 0.86244 0.0
C218 C 0.24327 0.56023 0.87415 0.0
C219 C 0.20751 0.56208 0.87768 0.0
C220 C 0.09403 0.54483 0.92879 0.0
C221 C 0.13569 0.56893 0.93966 0.0
C222 C 0.13628 0.57643 0.96019 0.0
C223 C 0.09515 0.55941 0.97034 0.0
C224 C 1.05357 0.53441 0.95941 0.0
C225 C 1.05305 0.52759 0.93893 0.0
C226 C 1.01176 0.51382 0.86584 0.0
C227 C 0.96923 0.48763 0.87494 0.0
C228 C 0.21797 0.68013 0.42794 0.0
C229 C 0.23622 0.68573 0.4472 0.0
C230 C 0.21557 0.65335 0.45925 0.0
C231 C 0.17912 0.61581 0.45164 0.0
H232 H 1.02058 0.49222 0.45574 0.0
H233 H 0.95652 0.42984 0.46892 0.0
H234 H 0.98188 0.36959 0.42632 0.0
H235 H 1.04383 0.43122 0.41279 0.0
H236 H 1.0351 0.47424 0.36607 0.0
H237 H 1.03562 0.47264 0.32971 0.0
H238 H 0.17128 0.58357 0.33174 0.0
H239 H 0.16993 0.58588 0.3679 0.0
H240 H 0.16979 0.64011 0.40527 0.0
H241 H 0.23222 0.70452 0.41846 0.0
H242 H 0.22882 0.65683 0.47421 0.0
H243 H 0.16519 0.59116 0.46086 0.0
N244 N 0.09943 0.5383 0.43255 0.0
N245 N 0.07164 0.50053 0.40237 0.0
N246 N 0.12993 0.56748 0.40193 0.0
C247 C 0.0704 0.5029 0.4226 0.0
C248 C 0.10129 0.53269 0.39195 0.0
C249 C 0.12948 0.57086 0.4221 0.0
C250 C 1.03685 0.46657 0.43309 0.0
C251 C 1.0127 0.46558 0.44946 0.0
C252 C 0.976 0.42979 0.45698 0.0
C253 C 0.96318 0.39439 0.44842 0.0
C254 C 0.98953 0.39595 0.43289 0.0
C255 C 1.02544 0.43141 0.42523 0.0
C256 C 0.10231 0.53031 0.3699 0.0
C257 C 0.06508 0.4982 0.35873 0.0
C258 C 0.06548 0.49722 0.33787 0.0
C259 C 0.10338 0.52811 0.32772 0.0
C260 C 0.14105 0.55969 0.33898 0.0
C261 C 0.1404 0.5609 0.35977 0.0
C262 C 0.16283 0.61019 0.43188 0.0
C263 C 0.18193 0.64304 0.42041 0.0
C264 C 0.59567 0.13734 0.77282 0.0
C265 C 0.57787 0.12901 0.79208 0.0
C266 C 0.5668 0.09554 0.80086 0.0
C267 C 0.57212 0.07046 0.79032 0.0
H268 H 0.58522 0.97974 0.79507 0.0
H269 H 0.58576 0.92942 0.80912 0.0
H270 H 0.60624 0.89986 0.75045 0.0
H271 H 0.60478 0.94904 0.73641 0.0
H272 H 0.61897 0.99644 0.69925 0.0
H273 H 0.62208 1.00195 0.66315 0.0
H274 H 0.57993 0.07375 0.66852 0.0
H275 H 0.57848 0.06946 0.7045 0.0
H276 H 0.61394 0.11971 0.74741 0.0
H277 H 0.60579 0.16335 0.76577 0.0
H278 H 0.55286 0.08815 0.81565 0.0
H279 H 0.56236 0.04449 0.79728 0.0
N280 N 0.59122 0.02323 0.76718 0.0
N281 N 0.59702 1.00227 0.73549 0.0
N282 N 0.59381 0.05362 0.73852 0.0
C283 C 0.5943 0.99881 0.75561 0.0
C284 C 0.59662 0.02946 0.72682 0.0
C285 C 0.59125 0.05094 0.75864 0.0
C286 C 0.59479 0.96854 0.76456 0.0
C287 C 0.58972 0.96244 0.78516 0.0
C288 C 0.59021 0.93368 0.79324 0.0
C289 C 0.59571 0.91034 0.78091 0.0
C290 C 0.60098 0.91666 0.76037 0.0
C291 C 0.60045 0.94522 0.75232 0.0
C292 C 0.59859 0.03259 0.70483 0.0
C293 C 0.6105 0.01349 0.69273 0.0
C294 C 0.61207 0.01651 0.67199 0.0
C295 C 0.60139 0.0384 0.66286 0.0
C296 C 0.58933 0.05731 0.67501 0.0
C297 C 0.5882 0.05463 0.6957 0.0
C298 C 0.58833 0.07825 0.77076 0.0
C299 C 0.60058 0.11229 0.7623 0.0
C300 C 0.56796 0.29548 0.11218 0.0
C301 C 0.56618 0.30943 0.13107 0.0
C302 C 0.53194 0.31322 0.13437 0.0
C303 C 0.50256 0.30612 0.1188 0.0
H304 H 0.40016 0.30986 0.10696 0.0
H305 H 0.35898 0.33544 0.11345 0.0
H306 H 0.33782 0.33455 0.05013 0.0
H307 H 0.37925 0.3094 0.0435 0.0
H308 H 0.43481 0.28793 0.01216 0.0
H309 H 0.47023 0.32201 0.98156 0.0
H310 H 0.60386 0.38282 0.00936 0.0
H311 H 0.56844 0.3482 0.03997 0.0
H312 H 0.54286 0.28018 0.0819 0.0
H313 H 0.59312 0.29124 0.10925 0.0
H314 H 0.52968 0.32421 0.14861 0.0
H315 H 0.47824 0.31135 0.12169 0.0
N316 N 0.44673 0.29623 0.08575 0.0
N317 N 0.44214 0.30421 0.05184 0.0
N318 N 0.49791 0.3 0.06357 0.0
C319 C 0.42646 0.30045 0.07054 0.0
C320 C 0.47763 0.30392 0.04818 0.0
C321 C 0.48198 0.29538 0.08239 0.0
C322 C 0.39375 0.30816 0.07468 0.0
C323 C 0.38598 0.31434 0.0944 0.0
C324 C 0.36234 0.32899 0.09815 0.0
C325 C 0.34602 0.33767 0.08228 0.0
C326 C 0.35098 0.32894 0.06264 0.0
C327 C 0.3745 0.31429 0.05887 0.0
C328 C 0.49886 0.31566 0.02847 0.0
C329 C 0.47179 0.30751 0.01149 0.0
C330 C 0.49205 0.32692 0.99396 0.0
C331 C 0.53973 0.35528 0.99321 0.0
C332 C 0.56699 0.36115 0.00963 0.0
C333 C 0.54671 0.34116 0.02708 0.0
C334 C 0.50714 0.29559 0.09949 0.0
C335 C 0.53905 0.289 0.09651 0.0
C336 C 0.21116 0.4229 0.08618 0.0
C337 C 0.23061 0.45509 0.09951 0.0
C338 C 0.23022 0.40387 0.08402 0.0
C339 C 0.26972 0.41739 0.09547 0.0
C340 C 0.28951 0.44983 0.10901 0.0
C341 C 0.26962 0.46828 0.1109 0.0
C342 C 0.20809 0.3693 0.06947 0.0
C343 C 0.33185 0.46517 0.12135 0.0
C344 C 0.2949 0.34669 0.10101 0.0
C345 C 0.32674 0.35824 0.08603 0.0
C346 C 0.27659 0.36615 0.10452 0.0
C347 C 0.29074 0.39797 0.09284 0.0
C348 C 0.32355 0.4102 0.07798 0.0
C349 C 0.3411 0.39015 0.07475 0.0
C350 C 0.24154 0.35227 0.12046 0.0
C351 C 0.33972 0.4442 0.06534 0.0
H352 H 0.18052 0.41218 0.0776 0.0
H353 H 0.28488 0.49332 0.12113 0.0
H354 H 0.23277 0.37526 0.05792 0.0
H355 H 0.19835 0.34345 0.07734 0.0
H356 H 0.17709 0.36213 0.06191 0.0
H357 H 0.34254 0.49027 0.13143 0.0
H358 H 0.32566 0.44184 0.13049 0.0
H359 H 0.36049 0.47443 0.11141 0.0
H360 H 0.28371 0.32199 0.10972 0.0
H361 H 0.36647 0.39968 0.06344 0.0
H362 H 0.20861 0.34215 0.11358 0.0
H363 H 0.25279 0.3766 0.13123 0.0
H364 H 0.23555 0.32811 0.12875 0.0
H365 H 0.31053 0.43777 0.05646 0.0
H366 H 0.36676 0.45095 0.05495 0.0
H367 H 0.35333 0.47046 0.075 0.0
C368 C 0.76446 0.1756 0.47982 0.0
C369 C 0.72107 0.16605 0.47806 0.0
C370 C 0.80443 0.21354 0.47665 0.0
C371 C 0.80106 0.24285 0.47188 0.0
C372 C 0.75744 0.23375 0.47098 0.0
C373 C 0.71805 0.19549 0.47392 0.0
C374 C 0.85015 0.22183 0.47754 0.0
C375 C 0.75221 0.26415 0.46623 0.0
C376 C 0.90894 0.34919 0.47483 0.0
C377 C 0.92141 0.35585 0.45476 0.0
C378 C 0.86979 0.3127 0.48068 0.0
C379 C 0.84259 0.28199 0.46615 0.0
C380 C 0.85487 0.28859 0.44589 0.0
C381 C 0.89367 0.32534 0.44046 0.0
C382 C 0.85757 0.30697 0.50239 0.0
C383 C 0.82697 0.25675 0.42988 0.0
H384 H 0.76718 0.15308 0.48296 0.0
H385 H 0.68472 0.18854 0.47272 0.0
H386 H 0.86501 0.22874 0.46249 0.0
H387 H 0.87438 0.24757 0.48761 0.0
H388 H 0.84737 0.19678 0.48282 0.0
H389 H 0.71656 0.25346 0.46801 0.0
H390 H 0.7753 0.2906 0.47606 0.0
H391 H 0.76213 0.27283 0.45063 0.0
H392 H 0.93011 0.37232 0.48605 0.0
H393 H 0.90202 0.33023 0.42484 0.0
H394 H 0.85785 0.2837 0.50802 0.0
H395 H 0.82242 0.29741 0.50414 0.0
H396 H 0.88156 0.33393 0.5118 0.0
H397 H 0.82477 0.23118 0.43342 0.0
H398 H 0.84172 0.26629 0.41487 0.0
H399 H 0.79156 0.24705 0.42932 0.0
C400 C 0.5897 0.73951 0.82689 0.0
C401 C 0.62754 0.74321 0.81978 0.0
C402 C 0.58215 0.76591 0.82179 0.0
C403 C 0.61299 0.7966 0.80918 0.0
C404 C 0.65119 0.80043 0.80196 0.0
C405 C 0.65801 0.77377 0.80736 0.0
C406 C 0.54118 0.76098 0.82989 0.0
C407 C 0.68467 0.83247 0.78832 0.0
C408 C 0.57533 0.84402 0.77876 0.0
C409 C 0.59679 0.87988 0.78923 0.0
C410 C 0.57924 0.81625 0.7854 0.0
C411 C 0.60499 0.82427 0.80305 0.0
C412 C 0.62526 0.85974 0.81412 0.0
C413 C 0.621 0.88714 0.80706 0.0
C414 C 0.55699 0.77879 0.77317 0.0
C415 C 0.6528 0.86932 0.83306 0.0
H416 H 0.56627 0.71622 0.83666 0.0
H417 H 0.68693 0.7765 0.80156 0.0
H418 H 0.55249 0.78777 0.83846 0.0
H419 H 0.51871 0.7565 0.81741 0.0
H420 H 0.52081 0.73596 0.83974 0.0
H421 H 0.71299 0.83179 0.78424 0.0
H422 H 0.66664 0.82982 0.77444 0.0
H423 H 0.69955 0.86123 0.79562 0.0
H424 H 0.55577 0.83778 0.76518 0.0
H425 H 0.63799 0.91482 0.81518 0.0
H426 H 0.53463 0.75348 0.78262 0.0
H427 H 0.58368 0.7773 0.76731 0.0
H428 H 0.53622 0.7761 0.76037 0.0
H429 H 0.63274 0.84526 0.84346 0.0
H430 H 0.66329 0.89664 0.84076 0.0
H431 H 0.68401 0.87255 0.82955 0.0
C432 C 0.78937 0.41679 0.20106 0.0
C433 C 0.80719 0.45561 0.19977 0.0
C434 C 0.7436 0.38645 0.19557 0.0
C435 C 0.71589 0.39563 0.18841 0.0
C436 C 0.73204 0.43457 0.19006 0.0
C437 C 0.77784 0.46429 0.19572 0.0
C438 C 0.72673 0.34509 0.19497 0.0
C439 C 0.70312 0.44548 0.18312 0.0
C440 C 0.6489 0.34717 0.14009 0.0
C441 C 0.60354 0.3253 0.14626 0.0
C442 C 0.68552 0.36818 0.1539 0.0
C443 C 0.67678 0.3677 0.17448 0.0
C444 C 0.63118 0.34369 0.181 0.0
C445 C 0.59502 0.32277 0.16678 0.0
C446 C 0.73372 0.39285 0.14624 0.0
C447 C 0.62023 0.34171 0.20279 0.0
H448 H 0.81231 0.41031 0.20442 0.0
H449 H 0.79188 0.49444 0.19474 0.0
H450 H 0.69139 0.32529 0.20051 0.0
H451 H 0.72585 0.33554 0.17933 0.0
H452 H 0.74918 0.34208 0.20402 0.0
H453 H 0.71733 0.47529 0.18857 0.0
H454 H 0.70173 0.44437 0.16657 0.0
H455 H 0.66761 0.42464 0.18831 0.0
H456 H 0.6561 0.34989 0.12433 0.0
H457 H 0.56008 0.30541 0.17174 0.0
H458 H 0.75402 0.38588 0.15382 0.0
H459 H 0.75077 0.42408 0.14959 0.0
H460 H 0.73455 0.38846 0.1299 0.0
H461 H 0.64682 0.3454 0.21248 0.0
H462 H 0.58656 0.31364 0.20589 0.0
H463 H 0.61848 0.36541 0.20688 0.0
C464 C 0.42999 0.91337 0.46547 0.0
C465 C 0.47072 0.92438 0.47432 0.0
C466 C 0.39143 0.874 0.46291 0.0
C467 C 0.39356 0.84473 0.46924 0.0
C468 C 0.43419 0.85565 0.47864 0.0
C469 C 0.47217 0.89528 0.48111 0.0
C470 C 0.3488 0.86368 0.45286 0.0
C471 C 0.43806 0.82545 0.48552 0.0
C472 C 0.28059 0.74194 0.4726 0.0
C473 C 0.27789 0.72519 0.45393 0.0
C474 C 0.31847 0.7806 0.47804 0.0
C475 C 0.35458 0.80282 0.46455 0.0
C476 C 0.35267 0.78544 0.44601 0.0
C477 C 0.31449 0.747 0.44095 0.0
C478 C 0.31922 0.79805 0.49795 0.0
C479 C 0.3905 0.80779 0.43123 0.0
H480 H 0.4283 0.93554 0.46028 0.0
H481 H 0.50338 0.90334 0.488 0.0
H482 H 0.34241 0.84785 0.43839 0.0
H483 H 0.31868 0.84403 0.46219 0.0
H484 H 0.35149 0.88978 0.45005 0.0
H485 H 0.47083 0.83866 0.49373 0.0
H486 H 0.40936 0.80504 0.49533 0.0
H487 H 0.43567 0.80806 0.47244 0.0
H488 H 0.25239 0.7253 0.48267 0.0
H489 H 0.31302 0.73399 0.42664 0.0
H490 H 0.31779 0.82213 0.49559 0.0
H491 H 0.35161 0.81062 0.50628 0.0
H492 H 0.29006 0.77633 0.50726 0.0
H493 H 0.39304 0.83288 0.42631 0.0
H494 H 0.38481 0.78951 0.41786 0.0
H495 H 0.42384 0.8196 0.43839 0.0
C496 C 0.58731 0.30403 0.83747 0.0
C497 C 0.5449 0.29218 0.84419 0.0
C498 C 0.59307 0.27676 0.8307 0.0
C499 C 0.55571 0.23653 0.83086 0.0
C500 C 0.51347 0.22428 0.83852 0.0
C501 C 0.50849 0.2522 0.84496 0.0
C502 C 0.63866 0.29109 0.8226 0.0
C503 C 0.47291 0.18168 0.83913 0.0
C504 C 0.55365 0.17091 0.79173 0.0
C505 C 0.57022 0.155 0.80252 0.0
C506 C 0.54858 0.19718 0.80083 0.0
C507 C 0.55966 0.20756 0.82137 0.0
C508 C 0.57514 0.19082 0.83255 0.0
C509 C 0.58037 0.16482 0.82298 0.0
C510 C 0.53195 0.2143 0.78833 0.0
C511 C 0.5868 0.20083 0.85453 0.0
H512 H 0.61598 0.33477 0.83721 0.0
H513 H 0.47543 0.24259 0.8499 0.0
H514 H 0.65093 0.27679 0.82994 0.0
H515 H 0.63472 0.28329 0.8064 0.0
H516 H 0.66513 0.32311 0.82475 0.0
H517 H 0.44421 0.17683 0.84751 0.0
H518 H 0.46052 0.16928 0.82371 0.0
H519 H 0.48296 0.16542 0.84614 0.0
H520 H 0.54463 0.16284 0.77604 0.0
H521 H 0.59342 0.1529 0.83144 0.0
H522 H 0.55808 0.24643 0.78862 0.0
H523 H 0.50036 0.20754 0.79462 0.0
H524 H 0.52463 0.20311 0.77256 0.0
H525 H 0.61588 0.23225 0.85683 0.0
H526 H 0.59615 0.18387 0.86132 0.0
H527 H 0.55735 0.19524 0.86253 0.0
C528 C 0.64222 0.85208 0.527 0.0
C529 C 0.61538 0.8535 0.51306 0.0
C530 C 0.63373 0.81699 0.5308 0.0
C531 C 0.59782 0.78239 0.52024 0.0
C532 C 0.57115 0.78363 0.50584 0.0
C533 C 0.58011 0.81916 0.50248 0.0
C534 C 0.66289 0.81689 0.54633 0.0
C535 C 0.53281 0.74738 0.49419 0.0
C536 C 0.60629 0.70081 0.52182 0.0
C537 C 0.57808 0.67977 0.5378 0.0
C538 C 0.6112 0.73316 0.5152 0.0
C539 C 0.58763 0.7449 0.52489 0.0
C540 C 0.55739 0.72264 0.54034 0.0
C541 C 0.5528 0.69026 0.54653 0.0
C542 C 0.64339 0.75592 0.49851 0.0
C543 C 0.53162 0.73417 0.55106 0.0
H544 H 0.67016 0.87855 0.53493 0.0
H545 H 0.55892 0.81989 0.49182 0.0
H546 H 0.64106 0.79735 0.55837 0.0
H547 H 0.67974 0.80549 0.53955 0.0
H548 H 0.68971 0.84636 0.55311 0.0
H549 H 0.51682 0.75359 0.48281 0.0
H550 H 0.54579 0.73326 0.48661 0.0
H551 H 0.50605 0.72619 0.5045 0.0
H552 H 0.62617 0.6931 0.51506 0.0
H553 H 0.53018 0.67365 0.55859 0.0
H554 H 0.67399 0.78454 0.50456 0.0
H555 H 0.62672 0.76159 0.48723 0.0
H556 H 0.65484 0.74049 0.491 0.0
H557 H 0.55618 0.76225 0.55952 0.0
H558 H 0.50675 0.7121 0.56165 0.0
H559 H 0.51296 0.73847 0.54019 0.0
C560 C 0.74941 0.55333 0.8495 0.0
C561 C 0.70384 0.51881 0.84845 0.0
C562 C 0.78705 0.55286 0.85045 0.0
C563 C 0.77977 0.517 0.84998 0.0
C564 C 0.73382 0.48204 0.84856 0.0
C565 C 0.69679 0.48335 0.84802 0.0
C566 C 0.83483 0.591 0.85235 0.0
C567 C 0.72361 0.44298 0.84769 0.0
C568 C 0.88099 0.51704 0.83657 0.0
C569 C 0.89569 0.5143 0.85526 0.0
C570 C 0.84342 0.51753 0.83458 0.0
C571 C 0.81992 0.5161 0.8517 0.0
C572 C 0.83516 0.51402 0.87061 0.0
C573 C 0.87217 0.51287 0.87212 0.0
C574 C 0.82845 0.51908 0.81405 0.0
C575 C 0.81247 0.51326 0.88942 0.0
H576 H 0.7558 0.581 0.84999 0.0
H577 H 0.66208 0.45634 0.84717 0.0
H578 H 0.85154 0.59239 0.8664 0.0
H579 H 0.85572 0.5932 0.83987 0.0
H580 H 0.83516 0.61644 0.85237 0.0
H581 H 0.68651 0.41852 0.84543 0.0
H582 H 0.74244 0.44159 0.83536 0.0
H583 H 0.73554 0.43898 0.86175 0.0
H584 H 0.89827 0.51793 0.82336 0.0
H585 H 0.8832 0.51141 0.88673 0.0
H586 H 0.83086 0.54543 0.81311 0.0
H587 H 0.79209 0.49352 0.81115 0.0
H588 H 0.84942 0.51944 0.80217 0.0
H589 H 0.81419 0.53937 0.89067 0.0
H590 H 0.82865 0.51241 0.90304 0.0
H591 H 0.77577 0.48744 0.88884 0.0
C592 C 0.21026 0.68929 0.16938 0.0
C593 C 0.19832 0.66538 0.15217 0.0
C594 C 0.25144 0.72757 0.17083 0.0
C595 C 0.28143 0.74279 0.15457 0.0
C596 C 0.26931 0.71904 0.13702 0.0
C597 C 0.22813 0.68056 0.13609 0.0
C598 C 0.26318 0.75157 0.18993 0.0
C599 C 0.29989 0.73427 0.11924 0.0
C600 C 0.36928 0.85357 0.15623 0.0
C601 C 0.40766 0.8598 0.16492 0.0
C602 C 0.32866 0.81567 0.15181 0.0
C603 C 0.32605 0.7831 0.15638 0.0
C604 C 0.36534 0.78922 0.16421 0.0
C605 C 0.40562 0.82734 0.16819 0.0
C606 C 0.28786 0.8105 0.14313 0.0
C607 C 0.36421 0.75548 0.16937 0.0
H608 H 0.18766 0.67788 0.18193 0.0
H609 H 0.21909 0.66248 0.12266 0.0
H610 H 0.29576 0.76029 0.1965 0.0
H611 H 0.26831 0.77863 0.18679 0.0
H612 H 0.23614 0.73559 0.20116 0.0
H613 H 0.28472 0.71278 0.1064 0.0
H614 H 0.30663 0.76128 0.11446 0.0
H615 H 0.33339 0.74184 0.12339 0.0
H616 H 0.37016 0.87824 0.15372 0.0
H617 H 0.4353 0.83169 0.17443 0.0
H618 H 0.26111 0.79873 0.1545 0.0
H619 H 0.27281 0.78923 0.13023 0.0
H620 H 0.29689 0.83833 0.13821 0.0
H621 H 0.34013 0.7396 0.18165 0.0
H622 H 0.39837 0.76501 0.17416 0.0
H623 H 0.35157 0.73463 0.15638 0.0
C624 C 0.54814 0.23483 0.5045 0.0
C625 C 0.55774 0.23105 0.48478 0.0
C626 C 0.55353 0.26798 0.51136 0.0
C627 C 0.56928 0.2983 0.49822 0.0
C628 C 0.57876 0.29459 0.47824 0.0
C629 C 0.57263 0.26085 0.47172 0.0
C630 C 0.54255 0.27062 0.53271 0.0
C631 C 0.59602 0.32646 0.46387 0.0
C632 C 0.54605 0.36843 0.51361 0.0
C633 C 0.58706 0.39833 0.52368 0.0
C634 C 0.54024 0.33622 0.50466 0.0
C635 C 0.57648 0.33408 0.50566 0.0
C636 C 0.61863 0.365 0.51507 0.0
C637 C 0.62332 0.39666 0.52405 0.0
C638 C 0.49468 0.3037 0.49491 0.0
C639 C 0.65826 0.36403 0.51624 0.0
H640 H 0.536 0.21159 0.51455 0.0
H641 H 0.58039 0.25812 0.4565 0.0
H642 H 0.57363 0.29599 0.54074 0.0
H643 H 0.51649 0.27518 0.53314 0.0
H644 H 0.52949 0.24406 0.54084 0.0
H645 H 0.60099 0.31877 0.44874 0.0
H646 H 0.57159 0.33273 0.46268 0.0
H647 H 0.62908 0.35362 0.46955 0.0
H648 H 0.5178 0.36945 0.51345 0.0
H649 H 0.65526 0.41997 0.53161 0.0
H650 H 0.47811 0.27707 0.50351 0.0
H651 H 0.49953 0.29669 0.4796 0.0
H652 H 0.47118 0.31108 0.49409 0.0
H653 H 0.64924 0.34006 0.52569 0.0
H654 H 0.68981 0.39173 0.52262 0.0
H655 H 0.66562 0.35818 0.50119 0.0
C656 C 0.469 0.55117 0.84822 0.0
C657 C 0.46421 0.51819 0.85378 0.0
C658 C 0.4321 0.55265 0.84899 0.0
C659 C 0.38846 0.5204 0.8555 0.0
C660 C 0.38332 0.48694 0.86103 0.0
C661 C 0.42083 0.48625 0.86012 0.0
C662 C 0.44005 0.58913 0.84295 0.0
C663 C 0.33801 0.45173 0.86809 0.0
C664 C 0.30586 0.53799 0.8765 0.0
C665 C 0.2747 0.52632 0.86049 0.0
C666 C 0.34241 0.53619 0.87506 0.0
C667 C 0.34889 0.52215 0.85716 0.0
C668 C 0.3174 0.50988 0.84097 0.0
C669 C 0.28101 0.512 0.84282 0.0
C670 C 0.37428 0.54943 0.89287 0.0
C671 C 0.32237 0.49471 0.82154 0.0
H672 H 0.50189 0.57619 0.84329 0.0
H673 H 0.41604 0.46045 0.86447 0.0
H674 H 0.41554 0.58202 0.83079 0.0
H675 H 0.43382 0.60182 0.85575 0.0
H676 H 0.47538 0.61142 0.83782 0.0
H677 H 0.33886 0.42761 0.87143 0.0
H678 H 0.3283 0.45972 0.88175 0.0
H679 H 0.31088 0.44111 0.85658 0.0
H680 H 0.30148 0.54826 0.89048 0.0
H681 H 0.25794 0.50305 0.83018 0.0
H682 H 0.40989 0.57341 0.88877 0.0
H683 H 0.37369 0.52521 0.89762 0.0
H684 H 0.36506 0.55971 0.90573 0.0
H685 H 0.3561 0.51744 0.81517 0.0
H686 H 0.29513 0.48582 0.8104 0.0
H687 H 0.32123 0.46935 0.82416 0.0
C688 C 0.94606 0.3953 0.14284 0.0
C689 C 0.9464 0.42638 0.14897 0.0
C690 C 0.90736 0.3564 0.14529 0.0
C691 C 0.8677 0.34816 0.15393 0.0
C692 C 0.86713 0.37928 0.15931 0.0
C693 C 0.90646 0.41789 0.15694 0.0
C694 C 0.90955 0.32417 0.13935 0.0
C695 C 0.82551 0.3719 0.16835 0.0
C696 C 0.75355 0.24503 0.15097 0.0
C697 C 0.75209 0.23211 0.17 0.0
C698 C 0.79118 0.28249 0.14534 0.0
C699 C 0.82841 0.30747 0.159 0.0
C700 C 0.82752 0.29408 0.17802 0.0
C701 C 0.78954 0.25675 0.18326 0.0
C702 C 0.79054 0.29577 0.12501 0.0
C703 C 0.86643 0.31948 0.19304 0.0
H704 H 0.97657 0.40131 0.13664 0.0
H705 H 0.90601 0.44145 0.16164 0.0
H706 H 0.90825 0.30972 0.15287 0.0
H707 H 0.8796 0.30177 0.12967 0.0
H708 H 0.94127 0.33504 0.13133 0.0
H709 H 0.82751 0.39813 0.16852 0.0
H710 H 0.79394 0.34797 0.15998 0.0
H711 H 0.82245 0.36297 0.18391 0.0
H712 H 0.72469 0.22629 0.14068 0.0
H713 H 0.78911 0.24678 0.19787 0.0
H714 H 0.82212 0.30622 0.11705 0.0
H715 H 0.7898 0.32057 0.12667 0.0
H716 H 0.76044 0.27224 0.1157 0.0
H717 H 0.89915 0.32937 0.18644 0.0
H718 H 0.8614 0.30419 0.20687 0.0
H719 H 0.86976 0.34583 0.19714 0.0
C720 C 0.09091 0.60658 0.08775 0.0
C721 C 0.06488 0.57077 0.09688 0.0
C722 C 0.10044 0.60874 0.06732 0.0
C723 C 0.08238 0.57414 0.05578 0.0
C724 C 0.05599 0.53796 0.06503 0.0
C725 C 1.04811 0.53681 0.0855 0.0
C726 C 0.12989 0.64794 0.0581 0.0
C727 C 1.03532 0.50029 0.05325 0.0
C728 C 0.06132 0.56878 3e-05 0.0
C729 C 0.095 0.56713 0.99219 0.0
C730 C 0.05763 0.57213 0.02065 0.0
C731 C 0.08927 0.57516 0.03387 0.0
C732 C 0.12499 0.57581 0.02611 0.0
C733 C 0.12713 0.57133 0.00539 0.0
C734 C 1.01854 0.57063 0.02831 0.0
C735 C 0.16 0.57985 0.03972 0.0
H736 H 0.10442 0.63291 0.09663 0.0
H737 H 1.02804 0.50908 0.09259 0.0
H738 H 0.15909 0.65222 0.05057 0.0
H739 H 0.10981 0.64935 0.04655 0.0
H740 H 0.14343 0.6722 0.06932 0.0
H741 H 1.01515 0.47458 0.06268 0.0
H742 H 1.0126 0.49654 0.0411 0.0
H743 H 0.06266 0.50099 0.04619 0.0
H744 H 1.03713 0.5668 0.99004 0.0
H745 H 0.15315 0.56988 -0.00036 0.0
H746 H 1.03168 0.59632 0.03836 0.0
H747 H 0.99577 0.54441 0.03716 0.0
H748 H 0.99787 0.56969 0.01606 0.0
H749 H 0.17389 0.60426 0.05085 0.0
H750 H 0.18883 0.58493 0.03134 0.0
H751 H 0.14359 0.55297 0.04807 0.0
C752 C 0.57574 0.04133 0.41512 0.0
C753 C 0.61091 0.04161 0.42262 0.0
C754 C 0.57097 0.04353 0.39458 0.0
C755 C 0.6011 0.0446 0.38123 0.0
C756 C 0.63626 0.04429 0.38877 0.0
C757 C 0.6412 0.04345 0.40942 0.0
C758 C 0.53395 0.04501 0.38718 0.0
C759 C 0.66826 0.04426 0.37501 0.0
C760 C 0.5625 0.01148 0.32711 0.0
C761 C 0.58925 0.04684 0.31739 0.0
C762 C 0.56595 0.01034 0.34784 0.0
C763 C 0.59566 0.0455 0.35934 0.0
C764 C 0.62143 0.08138 0.34983 0.0
C765 C 0.6185 0.0816 0.32898 0.0
C766 C 0.53856 0.97141 0.35739 0.0
C767 C 0.65266 0.11957 0.36165 0.0
H768 H 0.55235 0.03995 0.42535 0.0
H769 H 0.66826 0.04343 0.41521 0.0
H770 H 0.54914 0.07102 0.37821 0.0
H771 H 0.50928 0.01911 0.37729 0.0
H772 H 0.51495 0.04601 0.39959 0.0
H773 H 0.69296 0.04287 0.38323 0.0
H774 H 0.64828 0.019 0.36418 0.0
H775 H 0.68773 0.0709 0.36629 0.0
H776 H 0.53882 0.98444 0.31852 0.0
H777 H 0.63995 0.10913 0.32179 0.0
H778 H 0.51578 0.9697 0.3687 0.0
H779 H 0.56197 0.96807 0.36525 0.0
H780 H 0.51732 0.9467 0.34632 0.0
H781 H 0.63378 0.12098 0.37395 0.0
H782 H 0.6672 0.14497 0.35225 0.0
H783 H 0.68129 0.1219 0.36854 0.0
C784 C 0.61426 0.53125 0.7849 0.0
C785 C 0.57012 0.50961 0.79248 0.0
C786 C 0.62147 0.53831 0.76447 0.0
C787 C 0.58371 0.524 0.75149 0.0
C788 C 0.53932 0.50343 0.75926 0.0
C789 C 0.53301 0.49617 0.77966 0.0
C790 C 0.66919 0.55989 0.7567 0.0
C791 C 0.49832 0.48838 0.74597 0.0
C792 C 0.60331 0.56532 0.70024 0.0
C793 C 0.59658 0.53569 0.6878 0.0
C794 C 0.59975 0.56217 0.72102 0.0
C795 C 0.59009 0.52894 0.72963 0.0
C796 C 0.58467 0.4995 0.71727 0.0
C797 C 0.58752 0.50304 0.69653 0.0
C798 C 0.60529 0.59397 0.73371 0.0
C799 C 0.57486 0.46381 0.72593 0.0
H800 H 0.643 0.54164 0.79482 0.0
H801 H 0.49891 0.47971 0.78557 0.0
H802 H 0.67036 0.54041 0.74625 0.0
H803 H 0.6787 0.58507 0.74821 0.0
H804 H 0.6951 0.57054 0.76886 0.0
H805 H 0.46668 0.47518 0.75456 0.0
H806 H 0.50465 0.51236 0.73738 0.0
H807 H 0.49252 0.46612 0.73503 0.0
H808 H 0.61121 0.59103 0.69375 0.0
H809 H 0.58151 0.47966 0.68713 0.0
H810 H 0.6327 0.60562 0.74523 0.0
H811 H 0.57318 0.58191 0.74166 0.0
H812 H 0.61374 0.61836 0.72476 0.0
H813 H 0.60088 0.47244 0.73767 0.0
H814 H 0.57465 0.4449 0.71443 0.0
H815 H 0.54109 0.44656 0.73307 0.0
C816 C 0.54555 0.03817 0.54884 0.0
C817 C 0.58141 0.0507 0.53593 0.0
C818 C 0.5505 0.03618 0.56936 0.0
C819 C 0.59213 0.04645 0.57711 0.0
C820 C 0.6283 0.05867 0.56408 0.0
C821 C 0.62266 0.06103 0.54364 0.0
C822 C 0.5113 0.02345 0.58279 0.0
C823 C 0.67294 0.06931 0.57173 0.0
C824 C 0.61734 0.07599 0.63225 0.0
C825 C 0.60198 0.0411 0.64075 0.0
C826 C 0.61518 0.07833 0.61154 0.0
C827 C 0.5979 0.04516 0.59893 0.0
C828 C 0.58391 0.01027 0.60731 0.0
C829 C 0.58582 0.00857 0.62811 0.0
C830 C 0.63025 0.11604 0.6032 0.0
C831 C 0.56574 0.9744 0.59432 0.0
H832 H 0.51362 0.03021 0.54293 0.0
H833 H 0.65051 0.07087 0.53368 0.0
H834 H 0.50054 0.99739 0.59077 0.0
H835 H 0.52249 0.04679 0.59425 0.0
H836 H 0.48122 0.01646 0.57441 0.0
H837 H 0.69696 0.07674 0.55953 0.0
H838 H 0.68964 0.09456 0.58253 0.0
H839 H 0.6665 0.04476 0.57977 0.0
H840 H 0.63083 0.10154 0.64181 0.0
H841 H 0.57341 0.98136 0.63448 0.0
H842 H 0.6008 0.11145 0.59556 0.0
H843 H 0.65676 0.1259 0.59191 0.0
H844 H 0.64422 0.13952 0.61495 0.0
H845 H 0.533 0.96369 0.58697 0.0
H846 H 0.55975 0.95059 0.60298 0.0
H847 H 0.59007 0.98149 0.58236 0.0
C848 C 0.56214 0.48914 0.91261 0.0
C849 C 0.60294 0.5119 0.90228 0.0
C850 C 0.55595 0.46428 0.92719 0.0
C851 C 0.59094 0.4613 0.93103 0.0
C852 C 0.63208 0.48396 0.92041 0.0
C853 C 0.63789 0.50952 0.90634 0.0
C854 C 0.51192 0.44117 0.93847 0.0
C855 C 0.6695 0.48065 0.92363 0.0
C856 C 0.58592 0.42267 0.98139 0.0
C857 C 0.5597 0.38269 0.9768 0.0
C858 C 0.59807 0.44889 0.96648 0.0
C859 C 0.58433 0.43483 0.94644 0.0
C860 C 0.56044 0.3948 0.94153 0.0
C861 C 0.54784 0.36906 0.95684 0.0
C862 C 0.6228 0.4912 0.97238 0.0
C863 C 0.54624 0.3789 0.92025 0.0
H864 H 0.53507 0.49088 0.90929 0.0
H865 H 0.66911 0.5266 0.898 0.0
H866 H 0.49346 0.40961 0.93557 0.0
H867 H 0.51947 0.44728 0.95475 0.0
H868 H 0.48894 0.44796 0.9342 0.0
H869 H 0.69877 0.4994 0.91369 0.0
H870 H 0.68227 0.48893 0.93934 0.0
H871 H 0.65572 0.45004 0.92086 0.0
H872 H 0.5945 0.43318 -0.00315 0.0
H873 H 0.52761 0.33814 0.95329 0.0
H874 H 0.59975 0.49862 0.9698 0.0
H875 H 0.65311 0.51014 0.96305 0.0
H876 H 0.63416 0.49798 0.98832 0.0
H877 H 0.51893 0.38011 0.91516 0.0
H878 H 0.53314 0.34827 0.91861 0.0
H879 H 0.57546 0.39687 0.91022 0.0
C880 C 0.06942 0.52508 0.20979 0.0
C881 C 0.10567 0.5312 0.19933 0.0
C882 C 0.06812 0.52339 0.23063 0.0
C883 C 0.10421 0.5282 0.24121 0.0
C884 C 0.14074 0.534 0.23064 0.0
C885 C 0.14078 0.53504 0.20974 0.0
C886 C 1.02813 0.51643 0.24128 0.0
C887 C 0.1801 0.53973 0.24143 0.0
C888 C 0.12295 0.56248 0.29562 0.0
C889 C 0.1035 0.52791 0.3055 0.0
C890 C 0.12387 0.56302 0.27474 0.0
C891 C 0.10418 0.52803 0.26337 0.0
C892 C 0.08405 0.49294 0.27317 0.0
C893 C 0.08423 0.49334 0.29411 0.0
C894 C 0.14581 0.60107 0.26484 0.0
C895 C 0.06225 0.45496 0.26153 0.0
H896 H 1.04153 0.52075 0.20162 0.0
H897 H 0.1687 0.53959 0.20157 0.0
H898 H 1.01099 0.49006 0.25014 0.0
H899 H 1.04037 0.54125 0.25186 0.0
H900 H 1.00252 0.51266 0.23079 0.0
H901 H 0.20562 0.54356 0.23101 0.0
H902 H 0.19752 0.56573 0.25177 0.0
H903 H 0.16721 0.51438 0.25058 0.0
H904 H 0.13708 0.58921 0.30422 0.0
H905 H 0.06966 0.46657 0.30155 0.0
H906 H 0.12006 0.59915 0.2554 0.0
H907 H 0.17316 0.60716 0.25489 0.0
H908 H 0.16088 0.62593 0.27582 0.0
H909 H 1.03475 0.44878 0.25141 0.0
H910 H 1.04739 0.43011 0.27138 0.0
H911 H 0.08798 0.45703 0.25206 0.0
loop_
_geom_bond_atom_site_label_1
_geom_bond_atom_site_label_2
_geom_bond_distance
_geom_bond_site_symmetry_2
_ccdc_geom_bond_type
Sm0 C2 2.846 . S
Sm0 O20 2.543 . S
Sm0 O21 2.450 . S
Sm0 O22 2.681 . S
Sm0 O23 2.464 . S
Sm0 O24 2.396 . S
Sm0 O28 2.386 . S
Sm0 O31 2.408 1_455 S
Sm1 C11 2.846 . S
Sm1 O22 2.386 1_655 S
Sm1 O25 2.408 1_655 S
Sm1 O26 2.543 . S
Sm1 O27 2.450 . S
Sm1 O28 2.681 1_655 S
Sm1 O29 2.464 . S
Sm1 O30 2.396 . S
C2 Sm0 2.846 . S
C2 C3 1.506 . S
C2 O20 1.261 . S
C2 O21 1.242 . S
C3 C2 1.506 . S
C3 C4 1.358 . S
C3 C8 1.382 . S
C4 C3 1.358 . S
C4 C5 1.385 . S
C4 H32 0.930 . S
C5 C4 1.385 . S
C5 C6 1.395 . S
C5 H33 0.929 . S
C6 C5 1.395 . S
C6 C7 1.335 . S
C7 C6 1.335 . S
C7 C8 1.398 . S
C7 H34 0.930 . S
C8 C3 1.382 . S
C8 C7 1.398 . S
C8 H35 0.929 . S
C9 O22 1.271 . S
C9 O23 1.251 . S
C10 O24 1.252 . S
C10 O25 1.272 . S
C11 Sm1 2.846 . S
C11 C12 1.506 . S
C11 O26 1.261 . S
C11 O27 1.242 . S
C12 C11 1.506 . S
C12 C13 1.358 . S
C12 C17 1.382 . S
C13 C12 1.358 . S
C13 C14 1.385 . S
C13 H36 0.930 . S
C14 C13 1.385 . S
C14 C15 1.395 . S
C14 H37 0.929 . S
C15 C14 1.395 . S
C15 C16 1.335 . S
C16 C15 1.335 . S
C16 C17 1.398 . S
C16 H38 0.930 . S
C17 C12 1.382 . S
C17 C16 1.398 . S
C17 H39 0.929 . S
C18 O28 1.271 . S
C18 O29 1.251 1_455 S
C19 O30 1.252 . S
C19 O31 1.272 . S
O20 Sm0 2.543 . S
O20 C2 1.261 . S
O21 Sm0 2.450 . S
O21 C2 1.242 . S
O22 Sm0 2.681 . S
O22 Sm1 2.386 1_455 S
O22 C9 1.271 . S
O23 Sm0 2.464 . S
O23 C9 1.251 . S
O24 Sm0 2.396 . S
O24 C10 1.252 . S
O25 Sm1 2.408 1_455 S
O25 C10 1.272 . S
O26 Sm1 2.543 . S
O26 C11 1.261 . S
O27 Sm1 2.450 . S
O27 C11 1.242 . S
O28 Sm0 2.386 . S
O28 Sm1 2.681 1_455 S
O28 C18 1.271 . S
O29 Sm1 2.464 . S
O29 C18 1.251 1_655 S
O30 Sm1 2.396 . S
O30 C19 1.252 . S
O31 Sm0 2.408 1_655 S
O31 C19 1.272 . S
H32 C4 0.930 . S
H33 C5 0.929 . S
H34 C7 0.930 . S
H35 C8 0.929 . S
H36 C13 0.930 . S
H37 C14 0.929 . S
H38 C16 0.930 . S
H39 C17 0.929 . S
Sm40 C42 2.846 . S
Sm40 O60 2.543 . S
Sm40 O61 2.450 . S
Sm40 O62 2.681 1_565 S
Sm40 O63 2.464 . S
Sm40 O64 2.396 . S
Sm40 O68 2.403 . S
Sm40 O71 2.408 1_565 S
Sm41 C51 2.846 . S
Sm41 O62 2.386 . S
Sm41 O65 2.408 1_545 S
Sm41 O66 2.543 . S
Sm41 O67 2.450 . S
Sm41 O68 2.654 1_545 S
Sm41 O69 2.464 . S
Sm41 O70 2.396 . S
C42 Sm40 2.846 . S
C42 C43 1.506 . S
C42 O60 1.261 . S
C42 O61 1.242 . S
C43 C42 1.506 . S
C43 C44 1.358 . S
C43 C48 1.382 . S
C44 C43 1.358 . S
C44 C45 1.385 . S
C44 H72 0.930 . S
C45 C44 1.385 . S
C45 C46 1.395 . S
C45 H73 0.929 . S
C46 C45 1.395 . S
C46 C47 1.335 . S
C47 C46 1.335 . S
C47 C48 1.398 . S
C47 H74 0.930 . S
C48 C43 1.382 . S
C48 C47 1.398 . S
C48 H75 0.929 . S
C49 O62 1.271 . S
C49 O63 1.251 1_545 S
C50 O64 1.252 . S
C50 O65 1.272 . S
C51 Sm41 2.846 . S
C51 C52 1.506 . S
C51 O66 1.261 . S
C51 O67 1.242 . S
C52 C51 1.506 . S
C52 C53 1.358 . S
C52 C57 1.382 . S
C53 C52 1.358 . S
C53 C54 1.385 . S
C53 H76 0.930 . S
C54 C53 1.385 . S
C54 C55 1.395 . S
C54 H77 0.929 . S
C55 C54 1.395 . S
C55 C56 1.335 . S
C56 C55 1.335 . S
C56 C57 1.398 . S
C56 H78 0.930 . S
C57 C52 1.382 . S
C57 C56 1.398 . S
C57 H79 0.929 . S
C58 O68 1.256 1_545 S
C58 O69 1.251 . S
C59 O70 1.252 . S
C59 O71 1.272 . S
O60 Sm40 2.543 . S
O60 C42 1.261 . S
O61 Sm40 2.450 . S
O61 C42 1.242 . S
O62 Sm40 2.681 1_545 S
O62 Sm41 2.386 . S
O62 C49 1.271 . S
O63 Sm40 2.464 . S
O63 C49 1.251 1_565 S
O64 Sm40 2.396 . S
O64 C50 1.252 . S
O65 Sm41 2.408 1_565 S
O65 C50 1.272 . S
O66 Sm41 2.543 . S
O66 C51 1.261 . S
O67 Sm41 2.450 . S
O67 C51 1.242 . S
O68 Sm40 2.403 . S
O68 Sm41 2.654 1_565 S
O68 C58 1.256 1_565 S
O69 Sm41 2.464 . S
O69 C58 1.251 . S
O70 Sm41 2.396 . S
O70 C59 1.252 . S
O71 Sm40 2.408 1_545 S
O71 C59 1.272 . S
H72 C44 0.930 . S
H73 C45 0.929 . S
H74 C47 0.930 . S
H75 C48 0.929 . S
H76 C53 0.930 . S
H77 C54 0.929 . S
H78 C56 0.930 . S
H79 C57 0.929 . S
Sm80 C82 2.846 . S
Sm80 O100 2.543 . S
Sm80 O101 2.450 . S
Sm80 O102 2.681 . S
Sm80 O103 2.464 . S
Sm80 O104 2.396 . S
Sm80 O108 2.386 . S
Sm80 O111 2.408 . S
Sm81 C91 2.846 . S
Sm81 O102 2.386 . S
Sm81 O105 2.408 . S
Sm81 O106 2.543 . S
Sm81 O107 2.450 . S
Sm81 O108 2.681 . S
Sm81 O109 2.464 . S
Sm81 O110 2.396 . S
C82 Sm80 2.846 . S
C82 C83 1.506 . S
C82 O100 1.261 . S
C82 O101 1.242 . S
C83 C82 1.506 . S
C83 C84 1.358 . S
C83 C88 1.382 . S
C84 C83 1.358 . S
C84 C85 1.385 . S
C84 H112 0.930 . S
C85 C84 1.385 . S
C85 C86 1.395 . S
C85 H113 0.929 . S
C86 C85 1.395 . S
C86 C87 1.335 . S
C87 C86 1.335 . S
C87 C88 1.398 . S
C87 H114 0.930 . S
C88 C83 1.382 . S
C88 C87 1.398 . S
C88 H115 0.929 . S
C89 O102 1.271 . S
C89 O103 1.251 . S
C90 O104 1.252 . S
C90 O105 1.272 . S
C91 Sm81 2.846 . S
C91 C92 1.506 . S
C91 O106 1.261 . S
C91 O107 1.242 . S
C92 C91 1.506 . S
C92 C93 1.358 . S
C92 C97 1.382 . S
C93 C92 1.358 . S
C93 C94 1.385 . S
C93 H116 0.930 . S
C94 C93 1.385 . S
C94 C95 1.395 . S
C94 H117 0.929 . S
C95 C94 1.395 . S
C95 C96 1.335 . S
C96 C95 1.335 . S
C96 C97 1.398 . S
C96 H118 0.930 . S
C97 C92 1.382 . S
C97 C96 1.398 . S
C97 H119 0.929 . S
C98 O108 1.271 . S
C98 O109 1.251 . S
C99 O110 1.252 . S
C99 O111 1.272 . S
O100 Sm80 2.543 . S
O100 C82 1.261 . S
O101 Sm80 2.450 . S
O101 C82 1.242 . S
O102 Sm80 2.681 . S
O102 Sm81 2.386 . S
O102 C89 1.271 . S
O103 Sm80 2.464 . S
O103 C89 1.251 . S
O104 Sm80 2.396 . S
O104 C90 1.252 . S
O105 Sm81 2.408 . S
O105 C90 1.272 . S
O106 Sm81 2.543 . S
O106 C91 1.261 . S
O107 Sm81 2.450 . S
O107 C91 1.242 . S
O108 Sm80 2.386 . S
O108 Sm81 2.681 . S
O108 C98 1.271 . S
O109 Sm81 2.464 . S
O109 C98 1.251 . S
O110 Sm81 2.396 . S
O110 C99 1.252 . S
O111 Sm80 2.408 . S
O111 C99 1.272 . S
H112 C84 0.930 . S
H113 C85 0.929 . S
H114 C87 0.930 . S
H115 C88 0.929 . S
H116 C93 0.930 . S
H117 C94 0.929 . S
H118 C96 0.930 . S
H119 C97 0.929 . S
C120 C121 1.384 . S
C120 H133 0.947 . S
C120 C155 1.382 . S
C121 C120 1.384 . S
C121 C122 1.378 . S
C122 C121 1.378 . S
C122 C123 1.378 . S
C122 H134 0.952 . S
C123 C122 1.378 . S
C123 H135 0.950 . S
C123 C154 1.383 . S
H124 C143 0.947 . S
H125 C144 0.946 . S
H126 C146 0.953 . S
H127 C147 0.945 . S
H128 C149 0.952 . S
H129 C150 0.949 . S
H130 C152 0.950 . S
H131 C153 0.948 . S
H132 C155 0.951 . S
H133 C120 0.947 . S
H134 C122 0.952 . S
H135 C123 0.950 . S
N136 C139 1.382 . S
N136 C141 1.363 1_545 S
N137 C139 1.371 . S
N137 C140 1.372 . S
N138 C140 1.361 1_565 S
N138 C141 1.377 . S
C139 N136 1.382 . S
C139 N137 1.371 . S
C139 C142 1.480 . S
C140 N137 1.372 . S
C140 N138 1.361 1_545 S
C140 C148 1.457 . S
C141 N136 1.363 1_565 S
C141 N138 1.377 . S
C141 C154 1.479 . S
C142 C139 1.480 . S
C142 C143 1.383 . S
C142 C147 1.385 . S
C143 H124 0.947 . S
C143 C142 1.383 . S
C143 C144 1.388 . S
C144 H125 0.946 . S
C144 C143 1.388 . S
C144 C145 1.384 . S
C145 C144 1.384 . S
C145 C146 1.377 . S
C146 H126 0.953 . S
C146 C145 1.377 . S
C146 C147 1.369 . S
C147 H127 0.945 . S
C147 C142 1.385 . S
C147 C146 1.369 . S
C148 C140 1.457 . S
C148 C149 1.372 . S
C148 C153 1.364 1_545 S
C149 H128 0.952 . S
C149 C148 1.372 . S
C149 C150 1.389 . S
C150 H129 0.949 . S
C150 C149 1.389 . S
C150 C151 1.387 . S
C151 C150 1.387 . S
C151 C152 1.372 1_545 S
C152 H130 0.950 . S
C152 C151 1.372 1_565 S
C152 C153 1.379 . S
C153 H131 0.948 . S
C153 C148 1.364 1_565 S
C153 C152 1.379 . S
C154 C123 1.383 . S
C154 C141 1.479 . S
C154 C155 1.398 . S
C155 C120 1.382 . S
C155 H132 0.951 . S
C155 C154 1.398 . S
C156 C157 1.384 . S
C156 H169 0.947 . S
C156 C191 1.382 . S
C157 C156 1.384 . S
C157 C158 1.378 . S
C158 C157 1.378 . S
C158 C159 1.378 . S
C158 H170 0.952 . S
C159 C158 1.378 . S
C159 H171 0.950 . S
C159 C190 1.383 . S
H160 C179 0.947 . S
H161 C180 0.946 . S
H162 C182 0.953 . S
H163 C183 0.945 . S
H164 C185 0.952 . S
H165 C186 0.949 . S
H166 C188 0.950 . S
H167 C189 0.948 . S
H168 C191 0.951 . S
H169 C156 0.947 . S
H170 C158 0.952 . S
H171 C159 0.950 . S
N172 C175 1.382 . S
N172 C177 1.363 . S
N173 C175 1.371 . S
N173 C176 1.372 . S
N174 C176 1.361 . S
N174 C177 1.377 . S
C175 N172 1.382 . S
C175 N173 1.371 . S
C175 C178 1.480 . S
C176 N173 1.372 . S
C176 N174 1.361 . S
C176 C184 1.457 . S
C177 N172 1.363 . S
C177 N174 1.377 . S
C177 C190 1.479 . S
C178 C175 1.480 . S
C178 C179 1.383 . S
C178 C183 1.385 . S
C179 H160 0.947 . S
C179 C178 1.383 . S
C179 C180 1.388 . S
C180 H161 0.946 . S
C180 C179 1.388 . S
C180 C181 1.384 . S
C181 C180 1.384 . S
C181 C182 1.377 . S
C182 H162 0.953 . S
C182 C181 1.377 . S
C182 C183 1.369 . S
C183 H163 0.945 . S
C183 C178 1.385 . S
C183 C182 1.369 . S
C184 C176 1.457 . S
C184 C185 1.372 . S
C184 C189 1.364 . S
C185 H164 0.952 . S
C185 C184 1.372 . S
C185 C186 1.389 . S
C186 H165 0.949 . S
C186 C185 1.389 . S
C186 C187 1.387 . S
C187 C186 1.387 . S
C187 C188 1.372 . S
C188 H166 0.950 . S
C188 C187 1.372 . S
C188 C189 1.379 . S
C189 H167 0.948 . S
C189 C184 1.364 . S
C189 C188 1.379 . S
C190 C159 1.383 . S
C190 C177 1.479 . S
C190 C191 1.398 . S
C191 C156 1.382 . S
C191 H168 0.951 . S
C191 C190 1.398 . S
C192 C193 1.384 . S
C192 H205 0.947 . S
C192 C227 1.382 . S
C193 C192 1.384 . S
C193 C194 1.378 . S
C194 C193 1.378 . S
C194 C195 1.378 . S
C194 H206 0.952 . S
C195 C194 1.378 . S
C195 H207 0.950 . S
C195 C226 1.383 . S
H196 C215 0.947 . S
H197 C216 0.946 . S
H198 C218 0.953 . S
H199 C219 0.945 . S
H200 C221 0.952 . S
H201 C222 0.949 . S
H202 C224 0.950 1_655 S
H203 C225 0.948 1_655 S
H204 C227 0.951 . S
H205 C192 0.947 . S
H206 C194 0.952 . S
H207 C195 0.950 . S
N208 C211 1.382 . S
N208 C213 1.363 . S
N209 C211 1.371 . S
N209 C212 1.372 . S
N210 C212 1.361 . S
N210 C213 1.377 . S
C211 N208 1.382 . S
C211 N209 1.371 . S
C211 C214 1.480 . S
C212 N209 1.372 . S
C212 N210 1.361 . S
C212 C220 1.457 . S
C213 N208 1.363 . S
C213 N210 1.377 . S
C213 C226 1.479 1_455 S
C214 C211 1.480 . S
C214 C215 1.383 . S
C214 C219 1.385 . S
C215 H196 0.947 . S
C215 C214 1.383 . S
C215 C216 1.388 . S
C216 H197 0.946 . S
C216 C215 1.388 . S
C216 C217 1.384 . S
C217 C216 1.384 . S
C217 C218 1.377 . S
C218 H198 0.953 . S
C218 C217 1.377 . S
C218 C219 1.369 . S
C219 H199 0.945 . S
C219 C214 1.385 . S
C219 C218 1.369 . S
C220 C212 1.457 . S
C220 C221 1.372 . S
C220 C225 1.364 . S
C221 H200 0.952 . S
C221 C220 1.372 . S
C221 C222 1.389 . S
C222 H201 0.949 . S
C222 C221 1.389 . S
C222 C223 1.387 . S
C223 C222 1.387 . S
C223 C224 1.372 . S
C224 H202 0.950 1_455 S
C224 C223 1.372 . S
C224 C225 1.379 . S
C225 H203 0.948 1_455 S
C225 C220 1.364 . S
C225 C224 1.379 . S
C226 C195 1.383 . S
C226 C213 1.479 1_655 S
C226 C227 1.398 . S
C227 C192 1.382 . S
C227 H204 0.951 . S
C227 C226 1.398 . S
C228 C229 1.384 . S
C228 H241 0.947 . S
C228 C263 1.382 . S
C229 C228 1.384 . S
C229 C230 1.378 . S
C230 C229 1.378 . S
C230 C231 1.378 . S
C230 H242 0.952 . S
C231 C230 1.378 . S
C231 H243 0.950 . S
C231 C262 1.383 . S
H232 C251 0.947 . S
H233 C252 0.946 . S
H234 C254 0.953 . S
H235 C255 0.945 . S
H236 C257 0.952 . S
H237 C258 0.949 . S
H238 C260 0.950 . S
H239 C261 0.948 . S
H240 C263 0.951 . S
H241 C228 0.947 . S
H242 C230 0.952 . S
H243 C231 0.950 . S
N244 C247 1.382 1_455 S
N244 C249 1.363 . S
N245 C247 1.371 . S
N245 C248 1.372 1_655 S
N246 C248 1.361 . S
N246 C249 1.377 . S
C247 N244 1.382 1_655 S
C247 N245 1.371 . S
C247 C250 1.480 . S
C248 N245 1.372 1_455 S
C248 N246 1.361 . S
C248 C256 1.457 . S
C249 N244 1.363 . S
C249 N246 1.377 . S
C249 C262 1.479 . S
C250 C247 1.480 . S
C250 C251 1.383 . S
C250 C255 1.385 . S
C251 H232 0.947 . S
C251 C250 1.383 . S
C251 C252 1.388 . S
C252 H233 0.946 . S
C252 C251 1.388 . S
C252 C253 1.384 . S
C253 C252 1.384 . S
C253 C254 1.377 . S
C254 H234 0.953 . S
C254 C253 1.377 . S
C254 C255 1.369 . S
C255 H235 0.945 . S
C255 C250 1.385 . S
C255 C254 1.369 . S
C256 C248 1.457 . S
C256 C257 1.372 1_455 S
C256 C261 1.364 . S
C257 H236 0.952 . S
C257 C256 1.372 1_655 S
C257 C258 1.389 . S
C258 H237 0.949 . S
C258 C257 1.389 . S
C258 C259 1.387 1_655 S
C259 C258 1.387 1_455 S
C259 C260 1.372 . S
C260 H238 0.950 . S
C260 C259 1.372 . S
C260 C261 1.379 . S
C261 H239 0.948 . S
C261 C256 1.364 . S
C261 C260 1.379 . S
C262 C231 1.383 . S
C262 C249 1.479 . S
C262 C263 1.398 . S
C263 C228 1.382 . S
C263 H240 0.951 . S
C263 C262 1.398 . S
C264 C265 1.384 . S
C264 H277 0.947 . S
C264 C299 1.382 . S
C265 C264 1.384 . S
C265 C266 1.378 . S
C266 C265 1.378 . S
C266 C267 1.378 . S
C266 H278 0.952 . S
C267 C266 1.378 . S
C267 H279 0.950 . S
C267 C298 1.383 . S
H268 C287 0.947 . S
H269 C288 0.946 . S
H270 C290 0.953 . S
H271 C291 0.945 . S
H272 C293 0.952 . S
H273 C294 0.949 . S
H274 C296 0.950 . S
H275 C297 0.948 . S
H276 C299 0.951 . S
H277 C264 0.947 . S
H278 C266 0.952 . S
H279 C267 0.950 . S
N280 C283 1.382 1_545 S
N280 C285 1.363 . S
N281 C283 1.371 . S
N281 C284 1.372 1_565 S
N282 C284 1.361 . S
N282 C285 1.377 . S
C283 N280 1.382 1_565 S
C283 N281 1.371 . S
C283 C286 1.480 . S
C284 N281 1.372 1_545 S
C284 N282 1.361 . S
C284 C292 1.457 . S
C285 N280 1.363 . S
C285 N282 1.377 . S
C285 C298 1.479 . S
C286 C283 1.480 . S
C286 C287 1.383 . S
C286 C291 1.385 . S
C287 H268 0.947 . S
C287 C286 1.383 . S
C287 C288 1.388 . S
C288 H269 0.946 . S
C288 C287 1.388 . S
C288 C289 1.384 . S
C289 C288 1.384 . S
C289 C290 1.377 . S
C290 H270 0.953 . S
C290 C289 1.377 . S
C290 C291 1.369 . S
C291 H271 0.945 . S
C291 C286 1.385 . S
C291 C290 1.369 . S
C292 C284 1.457 . S
C292 C293 1.372 1_545 S
C292 C297 1.364 . S
C293 H272 0.952 . S
C293 C292 1.372 1_565 S
C293 C294 1.389 . S
C294 H273 0.949 . S
C294 C293 1.389 . S
C294 C295 1.416 . S
C295 C294 1.416 . S
C295 C296 1.344 1_565 S
C296 H274 0.950 . S
C296 C295 1.344 1_545 S
C296 C297 1.379 . S
C297 H275 0.948 . S
C297 C292 1.364 . S
C297 C296 1.379 . S
C298 C267 1.383 . S
C298 C285 1.479 . S
C298 C299 1.398 . S
C299 C264 1.382 . S
C299 H276 0.951 . S
C299 C298 1.398 . S
C300 C301 1.384 . S
C300 H313 0.947 . S
C300 C335 1.382 . S
C301 C300 1.384 . S
C301 C302 1.378 . S
C302 C301 1.378 . S
C302 C303 1.378 . S
C302 H314 0.952 . S
C303 C302 1.378 . S
C303 H315 0.950 . S
C303 C334 1.383 . S
H304 C323 0.947 . S
H305 C324 0.946 . S
H306 C326 0.953 . S
H307 C327 0.945 . S
H308 C329 0.952 . S
H309 C330 0.949 . S
H310 C332 0.950 . S
H311 C333 0.948 . S
H312 C335 0.951 . S
H313 C300 0.947 . S
H314 C302 0.952 . S
H315 C303 0.950 . S
N316 C319 1.382 . S
N316 C321 1.363 . S
N317 C319 1.371 . S
N317 C320 1.372 . S
N318 C320 1.361 . S
N318 C321 1.377 . S
C319 N316 1.382 . S
C319 N317 1.371 . S
C319 C322 1.480 . S
C320 N317 1.372 . S
C320 N318 1.361 . S
C320 C328 1.457 . S
C321 N316 1.363 . S
C321 N318 1.377 . S
C321 C334 1.479 . S
C322 C319 1.480 . S
C322 C323 1.383 . S
C322 C327 1.385 . S
C323 H304 0.947 . S
C323 C322 1.383 . S
C323 C324 1.388 . S
C324 H305 0.946 . S
C324 C323 1.388 . S
C324 C325 1.384 . S
C325 C324 1.384 . S
C325 C326 1.377 . S
C326 H306 0.953 . S
C326 C325 1.377 . S
C326 C327 1.369 . S
C327 H307 0.945 . S
C327 C322 1.385 . S
C327 C326 1.369 . S
C328 C320 1.457 . S
C328 C329 1.372 . S
C328 C333 1.364 . S
C329 H308 0.952 . S
C329 C328 1.372 . S
C329 C330 1.389 . S
C330 H309 0.949 . S
C330 C329 1.389 . S
C330 C331 1.387 . S
C331 C330 1.387 . S
C331 C332 1.372 . S
C332 H310 0.950 . S
C332 C331 1.372 . S
C332 C333 1.379 . S
C333 H311 0.948 . S
C333 C328 1.364 . S
C333 C332 1.379 . S
C334 C303 1.383 . S
C334 C321 1.479 . S
C334 C335 1.398 . S
C335 C300 1.382 . S
C335 H312 0.951 . S
C335 C334 1.398 . S
C336 C337 1.391 . S
C336 C338 1.394 . S
C336 H352 0.931 . S
C337 C336 1.391 . S
C337 C341 1.376 . S
C338 C336 1.394 . S
C338 C339 1.369 . S
C338 C342 1.531 . S
C339 C338 1.369 . S
C339 C340 1.410 . S
C339 C347 1.503 . S
C340 C339 1.410 . S
C340 C341 1.392 . S
C340 C343 1.511 . S
C341 C337 1.376 . S
C341 C340 1.392 . S
C341 H353 0.929 . S
C342 C338 1.531 . S
C342 H354 0.960 . S
C342 H355 0.962 . S
C342 H356 0.960 . S
C343 C340 1.511 . S
C343 H357 0.961 . S
C343 H358 0.961 . S
C343 H359 0.961 . S
C344 C345 1.370 . S
C344 C346 1.363 . S
C344 H360 0.931 . S
C345 C344 1.370 . S
C345 C349 1.408 . S
C346 C344 1.363 . S
C346 C347 1.370 . S
C346 C350 1.524 . S
C347 C339 1.503 . S
C347 C346 1.370 . S
C347 C348 1.403 . S
C348 C347 1.403 . S
C348 C349 1.404 . S
C348 C351 1.539 . S
C349 C345 1.408 . S
C349 C348 1.404 . S
C349 H361 0.930 . S
C350 C346 1.524 . S
C350 H362 0.956 . S
C350 H363 0.961 . S
C350 H364 0.961 . S
C351 C348 1.539 . S
C351 H365 0.958 . S
C351 H366 0.961 . S
C351 H367 0.960 . S
H352 C336 0.931 . S
H353 C341 0.929 . S
H354 C342 0.960 . S
H355 C342 0.962 . S
H356 C342 0.960 . S
H357 C343 0.961 . S
H358 C343 0.961 . S
H359 C343 0.961 . S
H360 C344 0.931 . S
H361 C349 0.930 . S
H362 C350 0.956 . S
H363 C350 0.961 . S
H364 C350 0.961 . S
H365 C351 0.958 . S
H366 C351 0.961 . S
H367 C351 0.960 . S
C368 C369 1.391 . S
C368 C370 1.394 . S
C368 H384 0.931 . S
C369 C368 1.391 . S
C369 C373 1.376 . S
C370 C368 1.394 . S
C370 C371 1.369 . S
C370 C374 1.531 . S
C371 C370 1.369 . S
C371 C372 1.410 . S
C371 C379 1.503 . S
C372 C371 1.410 . S
C372 C373 1.392 . S
C372 C375 1.511 . S
C373 C369 1.376 . S
C373 C372 1.392 . S
C373 H385 0.929 . S
C374 C370 1.531 . S
C374 H386 0.960 . S
C374 H387 0.962 . S
C374 H388 0.960 . S
C375 C372 1.511 . S
C375 H389 0.961 . S
C375 H390 0.961 . S
C375 H391 0.961 . S
C376 C377 1.370 . S
C376 C378 1.363 . S
C376 H392 0.931 . S
C377 C376 1.370 . S
C377 C381 1.408 . S
C378 C376 1.363 . S
C378 C379 1.370 . S
C378 C382 1.524 . S
C379 C371 1.503 . S
C379 C378 1.370 . S
C379 C380 1.403 . S
C380 C379 1.403 . S
C380 C381 1.404 . S
C380 C383 1.539 . S
C381 C377 1.408 . S
C381 C380 1.404 . S
C381 H393 0.930 . S
C382 C378 1.524 . S
C382 H394 0.956 . S
C382 H395 0.961 . S
C382 H396 0.961 . S
C383 C380 1.539 . S
C383 H397 0.958 . S
C383 H398 0.961 . S
C383 H399 0.960 . S
H384 C368 0.931 . S
H385 C373 0.929 . S
H386 C374 0.960 . S
H387 C374 0.962 . S
H388 C374 0.960 . S
H389 C375 0.961 . S
H390 C375 0.961 . S
H391 C375 0.961 . S
H392 C376 0.931 . S
H393 C381 0.930 . S
H394 C382 0.956 . S
H395 C382 0.961 . S
H396 C382 0.961 . S
H397 C383 0.958 . S
H398 C383 0.961 . S
H399 C383 0.960 . S
C400 C401 1.391 . S
C400 C402 1.394 . S
C400 H416 0.931 . S
C401 C400 1.391 . S
C401 C405 1.376 . S
C402 C400 1.394 . S
C402 C403 1.369 . S
C402 C406 1.531 . S
C403 C402 1.369 . S
C403 C404 1.410 . S
C403 C411 1.503 . S
C404 C403 1.410 . S
C404 C405 1.392 . S
C404 C407 1.511 . S
C405 C401 1.376 . S
C405 C404 1.392 . S
C405 H417 0.929 . S
C406 C402 1.531 . S
C406 H418 0.960 . S
C406 H419 0.962 . S
C406 H420 0.960 . S
C407 C404 1.511 . S
C407 H421 0.961 . S
C407 H422 0.961 . S
C407 H423 0.961 . S
C408 C409 1.370 . S
C408 C410 1.363 . S
C408 H424 0.931 . S
C409 C408 1.370 . S
C409 C413 1.408 . S
C410 C408 1.363 . S
C410 C411 1.370 . S
C410 C414 1.524 . S
C411 C403 1.503 . S
C411 C410 1.370 . S
C411 C412 1.403 . S
C412 C411 1.403 . S
C412 C413 1.404 . S
C412 C415 1.539 . S
C413 C409 1.408 . S
C413 C412 1.404 . S
C413 H425 0.930 . S
C414 C410 1.524 . S
C414 H426 0.956 . S
C414 H427 0.961 . S
C414 H428 0.961 . S
C415 C412 1.539 . S
C415 H429 0.958 . S
C415 H430 0.961 . S
C415 H431 0.960 . S
H416 C400 0.931 . S
H417 C405 0.929 . S
H418 C406 0.960 . S
H419 C406 0.962 . S
H420 C406 0.960 . S
H421 C407 0.961 . S
H422 C407 0.961 . S
H423 C407 0.961 . S
H424 C408 0.931 . S
H425 C413 0.930 . S
H426 C414 0.956 . S
H427 C414 0.961 . S
H428 C414 0.961 . S
H429 C415 0.958 . S
H430 C415 0.961 . S
H431 C415 0.960 . S
C432 C433 1.391 . S
C432 C434 1.394 . S
C432 H448 0.931 . S
C433 C432 1.391 . S
C433 C437 1.376 . S
C434 C432 1.394 . S
C434 C435 1.369 . S
C434 C438 1.531 . S
C435 C434 1.369 . S
C435 C436 1.410 . S
C435 C443 1.503 . S
C436 C435 1.410 . S
C436 C437 1.392 . S
C436 C439 1.511 . S
C437 C433 1.376 . S
C437 C436 1.392 . S
C437 H449 0.929 . S
C438 C434 1.531 . S
C438 H450 0.960 . S
C438 H451 0.962 . S
C438 H452 0.960 . S
C439 C436 1.511 . S
C439 H453 0.961 . S
C439 H454 0.961 . S
C439 H455 0.961 . S
C440 C441 1.370 . S
C440 C442 1.363 . S
C440 H456 0.931 . S
C441 C440 1.370 . S
C441 C445 1.408 . S
C442 C440 1.363 . S
C442 C443 1.370 . S
C442 C446 1.524 . S
C443 C435 1.503 . S
C443 C442 1.370 . S
C443 C444 1.403 . S
C444 C443 1.403 . S
C444 C445 1.404 . S
C444 C447 1.539 . S
C445 C441 1.408 . S
C445 C444 1.404 . S
C445 H457 0.930 . S
C446 C442 1.524 . S
C446 H458 0.956 . S
C446 H459 0.961 . S
C446 H460 0.961 . S
C447 C444 1.539 . S
C447 H461 0.958 . S
C447 H462 0.961 . S
C447 H463 0.960 . S
H448 C432 0.931 . S
H449 C437 0.929 . S
H450 C438 0.960 . S
H451 C438 0.962 . S
H452 C438 0.960 . S
H453 C439 0.961 . S
H454 C439 0.961 . S
H455 C439 0.961 . S
H456 C440 0.931 . S
H457 C445 0.930 . S
H458 C446 0.956 . S
H459 C446 0.961 . S
H460 C446 0.961 . S
H461 C447 0.958 . S
H462 C447 0.961 . S
H463 C447 0.960 . S
C464 C465 1.391 . S
C464 C466 1.394 . S
C464 H480 0.931 . S
C465 C464 1.391 . S
C465 C469 1.376 . S
C466 C464 1.394 . S
C466 C467 1.369 . S
C466 C470 1.531 . S
C467 C466 1.369 . S
C467 C468 1.410 . S
C467 C475 1.503 . S
C468 C467 1.410 . S
C468 C469 1.392 . S
C468 C471 1.511 . S
C469 C465 1.376 . S
C469 C468 1.392 . S
C469 H481 0.929 . S
C470 C466 1.531 . S
C470 H482 0.960 . S
C470 H483 0.962 . S
C470 H484 0.960 . S
C471 C468 1.511 . S
C471 H485 0.961 . S
C471 H486 0.961 . S
C471 H487 0.961 . S
C472 C473 1.370 . S
C472 C474 1.363 . S
C472 H488 0.931 . S
C473 C472 1.370 . S
C473 C477 1.408 . S
C474 C472 1.363 . S
C474 C475 1.370 . S
C474 C478 1.524 . S
C475 C467 1.503 . S
C475 C474 1.370 . S
C475 C476 1.403 . S
C476 C475 1.403 . S
C476 C477 1.404 . S
C476 C479 1.539 . S
C477 C473 1.408 . S
C477 C476 1.404 . S
C477 H489 0.930 . S
C478 C474 1.524 . S
C478 H490 0.956 . S
C478 H491 0.961 . S
C478 H492 0.961 . S
C479 C476 1.539 . S
C479 H493 0.958 . S
C479 H494 0.961 . S
C479 H495 0.960 . S
H480 C464 0.931 . S
H481 C469 0.929 . S
H482 C470 0.960 . S
H483 C470 0.962 . S
H484 C470 0.960 . S
H485 C471 0.961 . S
H486 C471 0.961 . S
H487 C471 0.961 . S
H488 C472 0.931 . S
H489 C477 0.930 . S
H490 C478 0.956 . S
H491 C478 0.961 . S
H492 C478 0.961 . S
H493 C479 0.958 . S
H494 C479 0.961 . S
H495 C479 0.960 . S
C496 C497 1.391 . S
C496 C498 1.394 . S
C496 H512 0.931 . S
C497 C496 1.391 . S
C497 C501 1.376 . S
C498 C496 1.394 . S
C498 C499 1.369 . S
C498 C502 1.531 . S
C499 C498 1.369 . S
C499 C500 1.410 . S
C499 C507 1.503 . S
C500 C499 1.410 . S
C500 C501 1.392 . S
C500 C503 1.511 . S
C501 C497 1.376 . S
C501 C500 1.392 . S
C501 H513 0.929 . S
C502 C498 1.531 . S
C502 H514 0.960 . S
C502 H515 0.962 . S
C502 H516 0.960 . S
C503 C500 1.511 . S
C503 H517 0.961 . S
C503 H518 0.961 . S
C503 H519 0.961 . S
C504 C505 1.370 . S
C504 C506 1.363 . S
C504 H520 0.931 . S
C505 C504 1.370 . S
C505 C509 1.408 . S
C506 C504 1.363 . S
C506 C507 1.370 . S
C506 C510 1.524 . S
C507 C499 1.503 . S
C507 C506 1.370 . S
C507 C508 1.403 . S
C508 C507 1.403 . S
C508 C509 1.404 . S
C508 C511 1.539 . S
C509 C505 1.408 . S
C509 C508 1.404 . S
C509 H521 0.930 . S
C510 C506 1.524 . S
C510 H522 0.956 . S
C510 H523 0.961 . S
C510 H524 0.961 . S
C511 C508 1.539 . S
C511 H525 0.958 . S
C511 H526 0.961 . S
C511 H527 0.960 . S
H512 C496 0.931 . S
H513 C501 0.929 . S
H514 C502 0.960 . S
H515 C502 0.962 . S
H516 C502 0.960 . S
H517 C503 0.961 . S
H518 C503 0.961 . S
H519 C503 0.961 . S
H520 C504 0.931 . S
H521 C509 0.930 . S
H522 C510 0.956 . S
H523 C510 0.961 . S
H524 C510 0.961 . S
H525 C511 0.958 . S
H526 C511 0.961 . S
H527 C511 0.960 . S
C528 C529 1.391 . S
C528 C530 1.394 . S
C528 H544 0.931 . S
C529 C528 1.391 . S
C529 C533 1.376 . S
C530 C528 1.394 . S
C530 C531 1.369 . S
C530 C534 1.531 . S
C531 C530 1.369 . S
C531 C532 1.410 . S
C531 C539 1.503 . S
C532 C531 1.410 . S
C532 C533 1.392 . S
C532 C535 1.511 . S
C533 C529 1.376 . S
C533 C532 1.392 . S
C533 H545 0.929 . S
C534 C530 1.531 . S
C534 H546 0.960 . S
C534 H547 0.962 . S
C534 H548 0.960 . S
C535 C532 1.511 . S
C535 H549 0.961 . S
C535 H550 0.961 . S
C535 H551 0.961 . S
C536 C537 1.370 . S
C536 C538 1.363 . S
C536 H552 0.931 . S
C537 C536 1.370 . S
C537 C541 1.408 . S
C538 C536 1.363 . S
C538 C539 1.370 . S
C538 C542 1.524 . S
C539 C531 1.503 . S
C539 C538 1.370 . S
C539 C540 1.403 . S
C540 C539 1.403 . S
C540 C541 1.404 . S
C540 C543 1.539 . S
C541 C537 1.408 . S
C541 C540 1.404 . S
C541 H553 0.930 . S
C542 C538 1.524 . S
C542 H554 0.956 . S
C542 H555 0.961 . S
C542 H556 0.961 . S
C543 C540 1.539 . S
C543 H557 0.958 . S
C543 H558 0.961 . S
C543 H559 0.960 . S
H544 C528 0.931 . S
H545 C533 0.929 . S
H546 C534 0.960 . S
H547 C534 0.962 . S
H548 C534 0.960 . S
H549 C535 0.961 . S
H550 C535 0.961 . S
H551 C535 0.961 . S
H552 C536 0.931 . S
H553 C541 0.930 . S
H554 C542 0.956 . S
H555 C542 0.961 . S
H556 C542 0.961 . S
H557 C543 0.958 . S
H558 C543 0.961 . S
H559 C543 0.960 . S
C560 C561 1.391 . S
C560 C562 1.394 . S
C560 H576 0.931 . S
C561 C560 1.391 . S
C561 C565 1.376 . S
C562 C560 1.394 . S
C562 C563 1.369 . S
C562 C566 1.531 . S
C563 C562 1.369 . S
C563 C564 1.410 . S
C563 C571 1.503 . S
C564 C563 1.410 . S
C564 C565 1.392 . S
C564 C567 1.511 . S
C565 C561 1.376 . S
C565 C564 1.392 . S
C565 H577 0.929 . S
C566 C562 1.531 . S
C566 H578 0.960 . S
C566 H579 0.962 . S
C566 H580 0.960 . S
C567 C564 1.511 . S
C567 H581 0.961 . S
C567 H582 0.961 . S
C567 H583 0.961 . S
C568 C569 1.370 . S
C568 C570 1.363 . S
C568 H584 0.931 . S
C569 C568 1.370 . S
C569 C573 1.408 . S
C570 C568 1.363 . S
C570 C571 1.370 . S
C570 C574 1.524 . S
C571 C563 1.503 . S
C571 C570 1.370 . S
C571 C572 1.403 . S
C572 C571 1.403 . S
C572 C573 1.404 . S
C572 C575 1.539 . S
C573 C569 1.408 . S
C573 C572 1.404 . S
C573 H585 0.930 . S
C574 C570 1.524 . S
C574 H586 0.956 . S
C574 H587 0.961 . S
C574 H588 0.961 . S
C575 C572 1.539 . S
C575 H589 0.958 . S
C575 H590 0.961 . S
C575 H591 0.960 . S
H576 C560 0.931 . S
H577 C565 0.929 . S
H578 C566 0.960 . S
H579 C566 0.962 . S
H580 C566 0.960 . S
H581 C567 0.961 . S
H582 C567 0.961 . S
H583 C567 0.961 . S
H584 C568 0.931 . S
H585 C573 0.930 . S
H586 C574 0.956 . S
H587 C574 0.961 . S
H588 C574 0.961 . S
H589 C575 0.958 . S
H590 C575 0.961 . S
H591 C575 0.960 . S
C592 C593 1.391 . S
C592 C594 1.394 . S
C592 H608 0.931 . S
C593 C592 1.391 . S
C593 C597 1.376 . S
C594 C592 1.394 . S
C594 C595 1.369 . S
C594 C598 1.531 . S
C595 C594 1.369 . S
C595 C596 1.410 . S
C595 C603 1.503 . S
C596 C595 1.410 . S
C596 C597 1.392 . S
C596 C599 1.511 . S
C597 C593 1.376 . S
C597 C596 1.392 . S
C597 H609 0.929 . S
C598 C594 1.531 . S
C598 H610 0.960 . S
C598 H611 0.962 . S
C598 H612 0.960 . S
C599 C596 1.511 . S
C599 H613 0.961 . S
C599 H614 0.961 . S
C599 H615 0.961 . S
C600 C601 1.370 . S
C600 C602 1.363 . S
C600 H616 0.931 . S
C601 C600 1.370 . S
C601 C605 1.408 . S
C602 C600 1.363 . S
C602 C603 1.370 . S
C602 C606 1.524 . S
C603 C595 1.503 . S
C603 C602 1.370 . S
C603 C604 1.403 . S
C604 C603 1.403 . S
C604 C605 1.404 . S
C604 C607 1.539 . S
C605 C601 1.408 . S
C605 C604 1.404 . S
C605 H617 0.930 . S
C606 C602 1.524 . S
C606 H618 0.956 . S
C606 H619 0.961 . S
C606 H620 0.961 . S
C607 C604 1.539 . S
C607 H621 0.958 . S
C607 H622 0.961 . S
C607 H623 0.960 . S
H608 C592 0.931 . S
H609 C597 0.929 . S
H610 C598 0.960 . S
H611 C598 0.962 . S
H612 C598 0.960 . S
H613 C599 0.961 . S
H614 C599 0.961 . S
H615 C599 0.961 . S
H616 C600 0.931 . S
H617 C605 0.930 . S
H618 C606 0.956 . S
H619 C606 0.961 . S
H620 C606 0.961 . S
H621 C607 0.958 . S
H622 C607 0.961 . S
H623 C607 0.960 . S
C624 C625 1.391 . S
C624 C626 1.394 . S
C624 H640 0.931 . S
C625 C624 1.391 . S
C625 C629 1.376 . S
C626 C624 1.394 . S
C626 C627 1.369 . S
C626 C630 1.531 . S
C627 C626 1.369 . S
C627 C628 1.410 . S
C627 C635 1.503 . S
C628 C627 1.410 . S
C628 C629 1.392 . S
C628 C631 1.511 . S
C629 C625 1.376 . S
C629 C628 1.392 . S
C629 H641 0.929 . S
C630 C626 1.531 . S
C630 H642 0.960 . S
C630 H643 0.962 . S
C630 H644 0.960 . S
C631 C628 1.511 . S
C631 H645 0.961 . S
C631 H646 0.961 . S
C631 H647 0.961 . S
C632 C633 1.370 . S
C632 C634 1.363 . S
C632 H648 0.931 . S
C633 C632 1.370 . S
C633 C637 1.408 . S
C634 C632 1.363 . S
C634 C635 1.370 . S
C634 C638 1.524 . S
C635 C627 1.503 . S
C635 C634 1.370 . S
C635 C636 1.403 . S
C636 C635 1.403 . S
C636 C637 1.404 . S
C636 C639 1.539 . S
C637 C633 1.408 . S
C637 C636 1.404 . S
C637 H649 0.930 . S
C638 C634 1.524 . S
C638 H650 0.956 . S
C638 H651 0.961 . S
C638 H652 0.961 . S
C639 C636 1.539 . S
C639 H653 0.958 . S
C639 H654 0.961 . S
C639 H655 0.960 . S
H640 C624 0.931 . S
H641 C629 0.929 . S
H642 C630 0.960 . S
H643 C630 0.962 . S
H644 C630 0.960 . S
H645 C631 0.961 . S
H646 C631 0.961 . S
H647 C631 0.961 . S
H648 C632 0.931 . S
H649 C637 0.930 . S
H650 C638 0.956 . S
H651 C638 0.961 . S
H652 C638 0.961 . S
H653 C639 0.958 . S
H654 C639 0.961 . S
H655 C639 0.960 . S
C656 C657 1.391 . S
C656 C658 1.394 . S
C656 H672 0.931 . S
C657 C656 1.391 . S
C657 C661 1.376 . S
C658 C656 1.394 . S
C658 C659 1.369 . S
C658 C662 1.531 . S
C659 C658 1.369 . S
C659 C660 1.410 . S
C659 C667 1.503 . S
C660 C659 1.410 . S
C660 C661 1.392 . S
C660 C663 1.511 . S
C661 C657 1.376 . S
C661 C660 1.392 . S
C661 H673 0.929 . S
C662 C658 1.531 . S
C662 H674 0.960 . S
C662 H675 0.962 . S
C662 H676 0.960 . S
C663 C660 1.511 . S
C663 H677 0.961 . S
C663 H678 0.961 . S
C663 H679 0.961 . S
C664 C665 1.370 . S
C664 C666 1.363 . S
C664 H680 0.931 . S
C665 C664 1.370 . S
C665 C669 1.408 . S
C666 C664 1.363 . S
C666 C667 1.370 . S
C666 C670 1.524 . S
C667 C659 1.503 . S
C667 C666 1.370 . S
C667 C668 1.403 . S
C668 C667 1.403 . S
C668 C669 1.404 . S
C668 C671 1.539 . S
C669 C665 1.408 . S
C669 C668 1.404 . S
C669 H681 0.930 . S
C670 C666 1.524 . S
C670 H682 0.956 . S
C670 H683 0.961 . S
C670 H684 0.961 . S
C671 C668 1.539 . S
C671 H685 0.958 . S
C671 H686 0.961 . S
C671 H687 0.960 . S
H672 C656 0.931 . S
H673 C661 0.929 . S
H674 C662 0.960 . S
H675 C662 0.962 . S
H676 C662 0.960 . S
H677 C663 0.961 . S
H678 C663 0.961 . S
H679 C663 0.961 . S
H680 C664 0.931 . S
H681 C669 0.930 . S
H682 C670 0.956 . S
H683 C670 0.961 . S
H684 C670 0.961 . S
H685 C671 0.958 . S
H686 C671 0.961 . S
H687 C671 0.960 . S
C688 C689 1.391 . S
C688 C690 1.394 . S
C688 H704 0.931 . S
C689 C688 1.391 . S
C689 C693 1.376 . S
C690 C688 1.394 . S
C690 C691 1.369 . S
C690 C694 1.531 . S
C691 C690 1.369 . S
C691 C692 1.410 . S
C691 C699 1.503 . S
C692 C691 1.410 . S
C692 C693 1.392 . S
C692 C695 1.511 . S
C693 C689 1.376 . S
C693 C692 1.392 . S
C693 H705 0.929 . S
C694 C690 1.531 . S
C694 H706 0.960 . S
C694 H707 0.962 . S
C694 H708 0.960 . S
C695 C692 1.511 . S
C695 H709 0.961 . S
C695 H710 0.961 . S
C695 H711 0.961 . S
C696 C697 1.370 . S
C696 C698 1.363 . S
C696 H712 0.931 . S
C697 C696 1.370 . S
C697 C701 1.408 . S
C698 C696 1.363 . S
C698 C699 1.370 . S
C698 C702 1.524 . S
C699 C691 1.503 . S
C699 C698 1.370 . S
C699 C700 1.403 . S
C700 C699 1.403 . S
C700 C701 1.404 . S
C700 C703 1.539 . S
C701 C697 1.408 . S
C701 C700 1.404 . S
C701 H713 0.930 . S
C702 C698 1.524 . S
C702 H714 0.956 . S
C702 H715 0.961 . S
C702 H716 0.961 . S
C703 C700 1.539 . S
C703 H717 0.958 . S
C703 H718 0.961 . S
C703 H719 0.960 . S
H704 C688 0.931 . S
H705 C693 0.929 . S
H706 C694 0.960 . S
H707 C694 0.962 . S
H708 C694 0.960 . S
H709 C695 0.961 . S
H710 C695 0.961 . S
H711 C695 0.961 . S
H712 C696 0.931 . S
H713 C701 0.930 . S
H714 C702 0.956 . S
H715 C702 0.961 . S
H716 C702 0.961 . S
H717 C703 0.958 . S
H718 C703 0.961 . S
H719 C703 0.960 . S
C720 C721 1.391 . S
C720 C722 1.394 . S
C720 H736 0.931 . S
C721 C720 1.391 . S
C721 C725 1.376 . S
C722 C720 1.394 . S
C722 C723 1.369 . S
C722 C726 1.531 . S
C723 C722 1.369 . S
C723 C724 1.410 . S
C723 C731 1.503 . S
C724 C723 1.410 . S
C724 C725 1.392 . S
C724 C727 1.511 1_455 S
C725 C721 1.376 . S
C725 C724 1.392 . S
C725 H737 0.929 1_455 S
C726 C722 1.531 . S
C726 H738 0.960 . S
C726 H739 0.962 . S
C726 H740 0.960 . S
C727 C724 1.511 1_655 S
C727 H741 0.961 . S
C727 H742 0.961 . S
C727 H743 0.961 1_655 S
C728 C729 1.345 1_554 S
C728 C730 1.363 . S
C728 H744 0.931 1_455 S
C729 C728 1.345 1_556 S
C729 C733 1.388 1_556 S
C730 C728 1.363 . S
C730 C731 1.370 . S
C730 C734 1.524 1_455 S
C731 C723 1.503 . S
C731 C730 1.370 . S
C731 C732 1.403 . S
C732 C731 1.403 . S
C732 C733 1.404 . S
C732 C735 1.539 . S
C733 C729 1.388 1_554 S
C733 C732 1.404 . S
C733 H745 0.962 . S
C734 C730 1.524 1_655 S
C734 H746 0.956 . S
C734 H747 0.961 . S
C734 H748 0.961 . S
C735 C732 1.539 . S
C735 H749 0.958 . S
C735 H750 0.961 . S
C735 H751 0.960 . S
H736 C720 0.931 . S
H737 C725 0.929 1_655 S
H738 C726 0.960 . S
H739 C726 0.962 . S
H740 C726 0.960 . S
H741 C727 0.961 . S
H742 C727 0.961 . S
H743 C727 0.961 1_455 S
H744 C728 0.931 1_655 S
H745 C733 0.962 . S
H746 C734 0.956 . S
H747 C734 0.961 . S
H748 C734 0.961 . S
H749 C735 0.958 . S
H750 C735 0.961 . S
H751 C735 0.960 . S
C752 C753 1.391 . S
C752 C754 1.394 . S
C752 H768 0.931 . S
C753 C752 1.391 . S
C753 C757 1.388 . S
C754 C752 1.394 . S
C754 C755 1.369 . S
C754 C758 1.531 . S
C755 C754 1.369 . S
C755 C756 1.410 . S
C755 C763 1.503 . S
C756 C755 1.410 . S
C756 C757 1.394 . S
C756 C759 1.511 1_545 S
C757 C753 1.388 . S
C757 C756 1.394 . S
C757 H769 0.915 1_545 S
C758 C754 1.531 . S
C758 H770 0.960 . S
C758 H771 0.962 . S
C758 H772 0.960 . S
C759 C756 1.511 1_565 S
C759 H773 0.961 . S
C759 H774 0.961 . S
C759 H775 0.961 1_565 S
C760 C761 1.370 1_565 S
C760 C762 1.363 . S
C760 H776 0.931 . S
C761 C760 1.370 1_545 S
C761 C765 1.408 . S
C762 C760 1.363 . S
C762 C763 1.370 1_565 S
C762 C766 1.524 . S
C763 C755 1.503 . S
C763 C762 1.370 1_545 S
C763 C764 1.403 . S
C764 C763 1.403 . S
C764 C765 1.404 . S
C764 C767 1.539 . S
C765 C761 1.408 . S
C765 C764 1.404 . S
C765 H777 0.930 . S
C766 C762 1.524 . S
C766 H778 0.956 . S
C766 H779 0.961 . S
C766 H780 0.961 . S
C767 C764 1.539 . S
C767 H781 0.958 . S
C767 H782 0.961 . S
C767 H783 0.960 . S
H768 C752 0.931 . S
H769 C757 0.915 1_565 S
H770 C758 0.960 . S
H771 C758 0.962 . S
H772 C758 0.960 . S
H773 C759 0.961 . S
H774 C759 0.961 . S
H775 C759 0.961 1_545 S
H776 C760 0.931 . S
H777 C765 0.930 . S
H778 C766 0.956 . S
H779 C766 0.961 . S
H780 C766 0.961 . S
H781 C767 0.958 . S
H782 C767 0.961 . S
H783 C767 0.960 . S
C784 C785 1.391 . S
C784 C786 1.394 . S
C784 H800 0.931 . S
C785 C784 1.391 . S
C785 C789 1.376 . S
C786 C784 1.394 . S
C786 C787 1.369 . S
C786 C790 1.531 . S
C787 C786 1.369 . S
C787 C788 1.410 . S
C787 C795 1.503 . S
C788 C787 1.410 . S
C788 C789 1.392 . S
C788 C791 1.511 . S
C789 C785 1.376 . S
C789 C788 1.392 . S
C789 H801 0.929 . S
C790 C786 1.531 . S
C790 H802 0.960 . S
C790 H803 0.962 . S
C790 H804 0.960 . S
C791 C788 1.511 . S
C791 H805 0.961 . S
C791 H806 0.961 . S
C791 H807 0.961 . S
C792 C793 1.370 . S
C792 C794 1.363 . S
C792 H808 0.931 . S
C793 C792 1.370 . S
C793 C797 1.408 . S
C794 C792 1.363 . S
C794 C795 1.370 . S
C794 C798 1.524 . S
C795 C787 1.503 . S
C795 C794 1.370 . S
C795 C796 1.403 . S
C796 C795 1.403 . S
C796 C797 1.404 . S
C796 C799 1.539 . S
C797 C793 1.408 . S
C797 C796 1.404 . S
C797 H809 0.930 . S
C798 C794 1.524 . S
C798 H810 0.956 . S
C798 H811 0.961 . S
C798 H812 0.961 . S
C799 C796 1.539 . S
C799 H813 0.958 . S
C799 H814 0.961 . S
C799 H815 0.960 . S
H800 C784 0.931 . S
H801 C789 0.929 . S
H802 C790 0.960 . S
H803 C790 0.962 . S
H804 C790 0.960 . S
H805 C791 0.961 . S
H806 C791 0.961 . S
H807 C791 0.961 . S
H808 C792 0.931 . S
H809 C797 0.930 . S
H810 C798 0.956 . S
H811 C798 0.961 . S
H812 C798 0.961 . S
H813 C799 0.958 . S
H814 C799 0.961 . S
H815 C799 0.960 . S
C816 C817 1.391 1_565 S
C816 C818 1.394 . S
C816 H832 0.931 . S
C817 C816 1.391 1_545 S
C817 C821 1.376 . S
C818 C816 1.394 . S
C818 C819 1.369 . S
C818 C822 1.531 . S
C819 C818 1.369 . S
C819 C820 1.410 1_565 S
C819 C827 1.503 . S
C820 C819 1.410 1_545 S
C820 C821 1.392 . S
C820 C823 1.511 . S
C821 C817 1.376 . S
C821 C820 1.392 . S
C821 H833 0.929 . S
C822 C818 1.531 . S
C822 H834 0.960 . S
C822 H835 0.962 . S
C822 H836 0.960 . S
C823 C820 1.511 . S
C823 H837 0.961 . S
C823 H838 0.961 . S
C823 H839 0.931 1_545 S
C824 C825 1.370 1_545 S
C824 C826 1.363 . S
C824 H840 0.931 . S
C825 C824 1.370 1_565 S
C825 C829 1.408 . S
C826 C824 1.363 . S
C826 C827 1.370 1_545 S
C826 C830 1.524 . S
C827 C819 1.503 . S
C827 C826 1.370 1_565 S
C827 C828 1.403 . S
C828 C827 1.403 . S
C828 C829 1.404 . S
C828 C831 1.539 . S
C829 C825 1.408 . S
C829 C828 1.404 . S
C829 H841 0.930 . S
C830 C826 1.524 . S
C830 H842 0.956 . S
C830 H843 0.961 . S
C830 H844 0.961 . S
C831 C828 1.539 . S
C831 H845 0.958 . S
C831 H846 0.961 . S
C831 H847 0.960 . S
H832 C816 0.931 . S
H833 C821 0.929 . S
H834 C822 0.960 . S
H835 C822 0.962 . S
H836 C822 0.960 . S
H837 C823 0.961 . S
H838 C823 0.961 . S
H839 C823 0.931 1_565 S
H840 C824 0.931 . S
H841 C829 0.930 . S
H842 C830 0.956 . S
H843 C830 0.961 . S
H844 C830 0.961 . S
H845 C831 0.958 . S
H846 C831 0.961 . S
H847 C831 0.960 . S
C848 C849 1.391 . S
C848 C850 1.394 . S
C848 H864 0.931 . S
C849 C848 1.391 . S
C849 C853 1.376 . S
C850 C848 1.394 . S
C850 C851 1.369 . S
C850 C854 1.531 . S
C851 C850 1.369 . S
C851 C852 1.410 . S
C851 C859 1.503 . S
C852 C851 1.410 . S
C852 C853 1.392 . S
C852 C855 1.511 . S
C853 C849 1.376 . S
C853 C852 1.392 . S
C853 H865 0.929 . S
C854 C850 1.531 . S
C854 H866 0.960 . S
C854 H867 0.962 . S
C854 H868 0.960 . S
C855 C852 1.511 . S
C855 H869 0.961 . S
C855 H870 0.961 . S
C855 H871 0.961 . S
C856 C857 1.370 . S
C856 C858 1.363 . S
C856 H872 0.931 . S
C857 C856 1.370 . S
C857 C861 1.408 . S
C858 C856 1.363 . S
C858 C859 1.370 . S
C858 C862 1.524 . S
C859 C851 1.503 . S
C859 C858 1.370 . S
C859 C860 1.403 . S
C860 C859 1.403 . S
C860 C861 1.404 . S
C860 C863 1.539 . S
C861 C857 1.408 . S
C861 C860 1.404 . S
C861 H873 0.930 . S
C862 C858 1.524 . S
C862 H874 0.956 . S
C862 H875 0.961 . S
C862 H876 0.961 . S
C863 C860 1.539 . S
C863 H877 0.958 . S
C863 H878 0.961 . S
C863 H879 0.960 . S
H864 C848 0.931 . S
H865 C853 0.929 . S
H866 C854 0.960 . S
H867 C854 0.962 . S
H868 C854 0.960 . S
H869 C855 0.961 . S
H870 C855 0.961 . S
H871 C855 0.961 . S
H872 C856 0.931 . S
H873 C861 0.930 . S
H874 C862 0.956 . S
H875 C862 0.961 . S
H876 C862 0.961 . S
H877 C863 0.958 . S
H878 C863 0.961 . S
H879 C863 0.960 . S
C880 C881 1.391 1_655 S
C880 C882 1.394 . S
C880 H896 0.931 . S
C881 C880 1.391 1_455 S
C881 C885 1.376 . S
C882 C880 1.394 . S
C882 C883 1.369 1_655 S
C882 C886 1.531 . S
C883 C882 1.369 1_455 S
C883 C884 1.410 . S
C883 C891 1.503 . S
C884 C883 1.410 . S
C884 C885 1.392 . S
C884 C887 1.511 . S
C885 C881 1.376 . S
C885 C884 1.392 . S
C885 H897 0.929 . S
C886 C882 1.531 . S
C886 H898 0.960 . S
C886 H899 0.962 . S
C886 H900 0.960 . S
C887 C884 1.511 . S
C887 H901 0.961 . S
C887 H902 0.961 . S
C887 H903 0.961 . S
C888 C889 1.371 1_455 S
C888 C890 1.363 . S
C888 H904 0.931 . S
C889 C888 1.371 1_655 S
C889 C893 1.408 . S
C890 C888 1.363 . S
C890 C891 1.370 . S
C890 C894 1.524 . S
C891 C883 1.503 . S
C891 C890 1.370 . S
C891 C892 1.403 1_455 S
C892 C891 1.403 1_655 S
C892 C893 1.404 . S
C892 C895 1.539 . S
C893 C889 1.408 . S
C893 C892 1.404 . S
C893 H905 0.930 . S
C894 C890 1.524 . S
C894 H906 0.956 1_455 S
C894 H907 0.961 . S
C894 H908 0.961 . S
C895 C892 1.539 . S
C895 H909 0.958 . S
C895 H910 0.961 1_655 S
C895 H911 0.960 1_655 S
H896 C880 0.931 . S
H897 C885 0.929 . S
H898 C886 0.960 . S
H899 C886 0.962 . S
H900 C886 0.960 . S
H901 C887 0.961 . S
H902 C887 0.961 . S
H903 C887 0.961 . S
H904 C888 0.931 . S
H905 C893 0.930 . S
H906 C894 0.956 1_655 S
H907 C894 0.961 . S
H908 C894 0.961 . S
H909 C895 0.958 . S
H910 C895 0.961 1_455 S
H911 C895 0.960 1_455 S
C337 C6 0.565 . S
C345 C325 0.542 . S
C369 C59 1.933 . S
C377 C253 1.860 . S
C401 C86 1.246 . S
C409 C289 1.227 . S
C433 C15 0.536 . S
C441 C301 0.330 . S
C473 C229 1.982 . S
C465 C50 2.023 . S
C505 C265 1.314 . S
C497 C95 1.317 . S
C529 C46 1.203 . S
C537 C181 1.209 . S
C561 C99 3.104 . S
C569 C193 3.061 . S
C593 C10 2.057 . S
C601 C121 2.019 . S
C633 C157 1.298 . S
C625 C55 1.262 . S
C665 C217 2.953 . S
C657 C90 3.012 . S
C689 C19 1.925 . S
C697 C145 1.858 . S
C729 C223 1.815 . S
C721 C18 1.724 . S
C753 C49 1.322 . S
C761 C151 1.373 . S
C785 C98 1.419 . S
C793 C187 1.504 . S
C825 C295 1.484 . S
C817 C58 1.459 . S
C857 C331 1.098 1_556 S
C849 C89 1.087 . S
C881 C9 1.297 . S
C889 C259 1.358 1_655 S
