# Generated by pormake.
# Topology dag, (6,3)-cn, num edge types: 1
# Building blocks:
#     Node 0, Type 0, BuildingBlock: IZENUY_clean_sbu_0, # of connection points: 6
#     Node 1, Type 0, BuildingBlock: IZENUY_clean_sbu_0, # of connection points: 6
#     Node 2, Type 0, BuildingBlock: IZENUY_clean_sbu_0, # of connection points: 6
#     Node 3, Type 0, BuildingBlock: IZENUY_clean_sbu_0, # of connection points: 6
#     Node 4, Type 1, BuildingBlock: PAMTOO_clean_linker_0, # of connection points: 3
#     Node 5, Type 1, BuildingBlock: PAMTOO_clean_linker_0, # of connection points: 3
#     Node 6, Type 1, BuildingBlock: PAMTOO_clean_linker_0, # of connection points: 3
#     Node 7, Type 1, BuildingBlock: PAMTOO_clean_linker_0, # of connection points: 3
#     Node 8, Type 1, BuildingBlock: PAMTOO_clean_linker_0, # of connection points: 3
#     Node 9, Type 1, BuildingBlock: PAMTOO_clean_linker_0, # of connection points: 3
#     Node 10, Type 1, BuildingBlock: PAMTOO_clean_linker_0, # of connection points: 3
#     Node 11, Type 1, BuildingBlock: PAMTOO_clean_linker_0, # of connection points: 3
#     Edge 12, Type (0, 1), BuildingBlock: UVAHIK_clean_linker_0, # of connection points: 2
#     Edge 13, Type (0, 1), BuildingBlock: UVAHIK_clean_linker_0, # of connection points: 2
#     Edge 14, Type (0, 1), BuildingBlock: UVAHIK_clean_linker_0, # of connection points: 2
#     Edge 15, Type (0, 1), BuildingBlock: UVAHIK_clean_linker_0, # of connection points: 2
#     Edge 16, Type (0, 1), BuildingBlock: UVAHIK_clean_linker_0, # of connection points: 2
#     Edge 17, Type (0, 1), BuildingBlock: UVAHIK_clean_linker_0, # of connection points: 2
#     Edge 18, Type (0, 1), BuildingBlock: UVAHIK_clean_linker_0, # of connection points: 2
#     Edge 19, Type (0, 1), BuildingBlock: UVAHIK_clean_linker_0, # of connection points: 2
#     Edge 20, Type (0, 1), BuildingBlock: UVAHIK_clean_linker_0, # of connection points: 2
#     Edge 21, Type (0, 1), BuildingBlock: UVAHIK_clean_linker_0, # of connection points: 2
#     Edge 22, Type (0, 1), BuildingBlock: UVAHIK_clean_linker_0, # of connection points: 2
#     Edge 23, Type (0, 1), BuildingBlock: UVAHIK_clean_linker_0, # of connection points: 2
#     Edge 24, Type (0, 1), BuildingBlock: UVAHIK_clean_linker_0, # of connection points: 2
#     Edge 25, Type (0, 1), BuildingBlock: UVAHIK_clean_linker_0, # of connection points: 2
#     Edge 26, Type (0, 1), BuildingBlock: UVAHIK_clean_linker_0, # of connection points: 2
#     Edge 27, Type (0, 1), BuildingBlock: UVAHIK_clean_linker_0, # of connection points: 2
#     Edge 28, Type (0, 1), BuildingBlock: UVAHIK_clean_linker_0, # of connection points: 2
#     Edge 29, Type (0, 1), BuildingBlock: UVAHIK_clean_linker_0, # of connection points: 2
#     Edge 30, Type (0, 1), BuildingBlock: UVAHIK_clean_linker_0, # of connection points: 2
#     Edge 31, Type (0, 1), BuildingBlock: UVAHIK_clean_linker_0, # of connection points: 2
#     Edge 32, Type (0, 1), BuildingBlock: UVAHIK_clean_linker_0, # of connection points: 2
#     Edge 33, Type (0, 1), BuildingBlock: UVAHIK_clean_linker_0, # of connection points: 2
#     Edge 34, Type (0, 1), BuildingBlock: UVAHIK_clean_linker_0, # of connection points: 2
#     Edge 35, Type (0, 1), BuildingBlock: UVAHIK_clean_linker_0, # of connection points: 2
# Relax obj value: 0.095
# Max RMSD: 0.105
# Mean RMSD: 0.084
data_MOF--net-dag--node1-IZENUY_clean_sbu_0--node2-PAMTOO_clean_linker_0--edge1-UVAHIK_clean_linker_0
_symmetry_space_group_name_H-M    P1
_symmetry_Int_Tables_number       1
_symmetry_cell_setting            triclinic
loop_
_symmetry_equiv_pos_as_xyz
'x, y, z'
_cell_length_a     50.663348
_cell_length_b     51.955222
_cell_length_c     45.925332
_cell_angle_alpha  90.017282
_cell_angle_beta   94.343754
_cell_angle_gamma 90.102774
loop_
_atom_site_label
_atom_site_type_symbol
_atom_site_fract_x
_atom_site_fract_y
_atom_site_fract_z
_atom_type_partial_charge
Fe0 Fe 0.17595 0.84922 0.00498 0.0
Fe1 Fe 0.11926 0.86691 0.01275 0.0
O2 O 0.14152 0.8426 0.00378 0.0
Fe3 Fe 0.12913 0.81172 0.99356 0.0
O4 O 0.14841 0.79682 0.0237 0.0
O5 O 0.18594 0.81655 0.01677 0.0
O6 O 0.17728 0.85782 0.04341 0.0
C7 C 0.16285 0.87465 0.05392 0.0
C8 C 0.16968 0.82001 0.95537 0.0
O9 O 0.14242 0.88294 0.0394 0.0
C10 C 0.09199 0.84214 0.96468 0.0
O11 O 0.17186 0.8831 0.99337 0.0
O12 O 0.12891 0.88704 0.9833 0.0
O13 O 0.15461 0.80508 0.96828 0.0
O14 O 0.17719 0.84113 0.96672 0.0
C15 C 0.09839 0.82596 0.03995 0.0
O16 O 0.0918 0.85547 0.98773 0.0
O17 O 0.10909 0.82478 0.96256 0.0
C18 C 0.15224 0.89444 0.98021 0.0
O19 O 0.10844 0.8481 0.04275 0.0
O20 O 0.10132 0.8127 0.01723 0.0
C21 C 0.17319 0.79878 0.02851 0.0
Fe22 Fe 0.68108 0.64732 0.49734 0.0
Fe23 Fe 0.63429 0.68442 0.484 0.0
O24 O 0.64653 0.65352 0.49447 0.0
Fe25 Fe 0.62409 0.62881 0.50216 0.0
O26 O 0.63853 0.62602 0.5392 0.0
O27 O 0.67992 0.62453 0.52797 0.0
O28 O 0.68688 0.67232 0.52447 0.0
C29 C 0.67986 0.69548 0.52152 0.0
C30 C 0.66273 0.60245 0.47225 0.0
O31 O 0.66275 0.70213 0.50138 0.0
C32 C 0.59808 0.65022 0.45396 0.0
O33 O 0.6883 0.66904 0.46725 0.0
O34 O 0.64913 0.68242 0.44959 0.0
O35 O 0.64435 0.60255 0.48941 0.0
O36 O 0.67774 0.62167 0.47047 0.0
C37 C 0.60206 0.67279 0.52706 0.0
O38 O 0.60362 0.67227 0.46462 0.0
O39 O 0.60833 0.63024 0.46551 0.0
C40 C 0.67323 0.67822 0.4465 0.0
O41 O 0.61846 0.68848 0.51782 0.0
O42 O 0.59961 0.65036 0.51646 0.0
C43 C 0.66261 0.62153 0.54625 0.0
Fe44 Fe 0.86796 0.18906 0.05393 0.0
Fe45 Fe 0.88243 0.13556 0.03207 0.0
O46 O 0.85819 0.15807 0.0409 0.0
Fe47 Fe 0.82424 0.14948 0.03649 0.0
O48 O 0.81734 0.17538 0.01079 0.0
O49 O 0.83876 0.20558 0.03659 0.0
O50 O 0.88442 0.19629 0.02114 0.0
C51 C 0.90194 0.18236 0.01116 0.0
C52 C 0.82814 0.1785 0.08908 0.0
O53 O 0.90576 0.15959 0.02018 0.0
C54 C 0.84486 0.10464 0.05867 0.0
O55 O 0.89894 0.17795 0.07349 0.0
O56 O 0.89743 0.1358 0.06914 0.0
O57 O 0.81462 0.16909 0.06727 0.0
O58 O 0.85221 0.18414 0.08757 0.0
C59 C 0.84544 0.12792 0.98662 0.0
O60 O 0.86353 0.1072 0.04208 0.0
O61 O 0.82894 0.12285 0.06197 0.0
C62 C 0.90619 0.15573 0.08231 0.0
O63 O 0.86894 0.13415 0.99451 0.0
O64 O 0.82768 0.12839 0.00465 0.0
C65 C 0.82262 0.19879 0.01552 0.0
Fe66 Fe 0.37146 0.36866 0.53898 0.0
Fe67 Fe 0.31601 0.34754 0.54629 0.0
O68 O 0.35078 0.34314 0.54872 0.0
Fe69 Fe 0.36496 0.31352 0.56103 0.0
O70 O 0.39478 0.32837 0.57952 0.0
O71 O 0.38737 0.36999 0.57557 0.0
O72 O 0.34952 0.39443 0.54983 0.0
C73 C 0.33174 0.39443 0.56773 0.0
C74 C 0.39685 0.32479 0.51755 0.0
O75 O 0.31858 0.37433 0.5718 0.0
C76 C 0.31928 0.29847 0.52514 0.0
O77 O 0.35659 0.36869 0.50193 0.0
O78 O 0.31551 0.36905 0.51428 0.0
O79 O 0.38106 0.30884 0.52745 0.0
O80 O 0.3974 0.34791 0.52619 0.0
C81 C 0.32588 0.31904 0.59862 0.0
O82 O 0.31107 0.32115 0.52083 0.0
O83 O 0.33754 0.29357 0.5448 0.0
C84 C 0.33225 0.37231 0.49537 0.0
O85 O 0.31026 0.32681 0.57763 0.0
O86 O 0.35015 0.31598 0.5955 0.0
C87 C 0.39885 0.35123 0.58853 0.0
H88 H 0.14228 0.06995 0.22753 0.0
H89 H 0.14534 0.12579 0.29698 0.0
H90 H 0.20416 0.06632 0.29695 0.0
H91 H 0.1894 0.08106 0.35691 0.0
C92 C 0.18271 0.10105 0.3518 0.0
O93 O 0.18865 0.10743 0.32392 0.0
H94 H 0.16093 0.10194 0.35362 0.0
C95 C 0.15185 0.07773 0.24756 0.0
C96 C 0.17452 0.0656 0.26052 0.0
C97 C 0.14094 0.09928 0.26059 0.0
C98 C 0.15316 0.10888 0.28685 0.0
C99 C 0.17597 0.09703 0.29981 0.0
C100 C 0.18645 0.07525 0.28686 0.0
H101 H 0.37546 0.63861 0.65977 0.0
H102 H 0.30647 0.65609 0.70521 0.0
H103 H 0.36598 0.71394 0.69666 0.0
H104 H 0.3477 0.71427 0.75263 0.0
C105 C 0.32813 0.70461 0.74873 0.0
O106 O 0.32149 0.70308 0.7191 0.0
H107 H 0.32992 0.68497 0.75841 0.0
C108 C 0.36412 0.65213 0.67176 0.0
C109 C 0.37379 0.67722 0.67688 0.0
C110 C 0.33984 0.64432 0.68169 0.0
C111 C 0.32496 0.66196 0.69677 0.0
C112 C 0.33455 0.68696 0.7022 0.0
C113 C 0.35862 0.6947 0.69181 0.0
H114 H 0.87091 0.84924 0.15287 0.0
H115 H 0.79176 0.83921 0.17947 0.0
H116 H 0.85004 0.77997 0.19665 0.0
H117 H 0.79815 0.7614 0.17865 0.0
C118 C 0.78574 0.77514 0.19023 0.0
O119 O 0.80131 0.79416 0.20356 0.0
H120 H 0.77104 0.78387 0.17392 0.0
C121 C 0.85611 0.83767 0.1627 0.0
C122 C 0.86329 0.81352 0.17417 0.0
C123 C 0.83031 0.84716 0.16415 0.0
C124 C 0.8117 0.83218 0.17777 0.0
C125 C 0.81885 0.80796 0.18934 0.0
C126 C 0.8446 0.79859 0.18745 0.0
H127 H 0.62096 0.45254 0.75237 0.0
H128 H 0.6354 0.38419 0.80397 0.0
H129 H 0.69601 0.44174 0.80122 0.0
H130 H 0.7176 0.39123 0.80058 0.0
C131 C 0.70145 0.38002 0.80976 0.0
O132 O 0.68401 0.39664 0.82168 0.0
H133 H 0.69114 0.36879 0.7916 0.0
C134 C 0.63359 0.44154 0.76787 0.0
C135 C 0.6593 0.45044 0.77601 0.0
C136 C 0.62463 0.41774 0.77781 0.0
C137 C 0.64175 0.40275 0.79629 0.0
C138 C 0.66737 0.41153 0.80471 0.0
C139 C 0.67605 0.43535 0.79478 0.0
H140 H 0.63781 0.34601 0.41031 0.0
H141 H 0.64238 0.27569 0.36129 0.0
H142 H 0.69838 0.33629 0.35041 0.0
H143 H 0.67458 0.31253 0.29721 0.0
C144 C 0.67431 0.29208 0.30437 0.0
O145 O 0.68298 0.29023 0.3335 0.0
H146 H 0.65358 0.28487 0.30124 0.0
C147 C 0.64783 0.334 0.39532 0.0
C148 C 0.66964 0.34397 0.38184 0.0
C149 C 0.63763 0.30947 0.38797 0.0
C150 C 0.64997 0.2946 0.36739 0.0
C151 C 0.67186 0.30428 0.35404 0.0
C152 C 0.68168 0.32887 0.36124 0.0
H153 H 0.11556 0.14954 0.88087 0.0
H154 H 0.14082 0.22216 0.84744 0.0
H155 H 0.19288 0.15692 0.84891 0.0
H156 H 0.21872 0.2091 0.86387 0.0
C157 C 0.20536 0.22093 0.84891 0.0
O158 O 0.18695 0.2053 0.83399 0.0
H159 H 0.19522 0.23525 0.86219 0.0
C160 C 0.13037 0.16112 0.8711 0.0
C161 C 0.15466 0.14994 0.86545 0.0
C162 C 0.12512 0.18714 0.86484 0.0
C163 C 0.14465 0.20217 0.85295 0.0
C164 C 0.16905 0.19124 0.84738 0.0
C165 C 0.17414 0.16526 0.85383 0.0
H166 H 0.36857 0.5617 0.30786 0.0
H167 H 0.35916 0.61839 0.2395 0.0
H168 H 0.2963 0.565 0.25244 0.0
H169 H 0.30088 0.57822 0.18965 0.0
C170 C 0.31118 0.59704 0.19296 0.0
O171 O 0.31105 0.60431 0.22181 0.0
H172 H 0.33188 0.59471 0.18676 0.0
C173 C 0.35688 0.57026 0.28963 0.0
C174 C 0.33133 0.5608 0.28199 0.0
C175 C 0.36729 0.59088 0.27439 0.0
C176 C 0.35166 0.60226 0.25135 0.0
C177 C 0.32624 0.59272 0.24333 0.0
C178 C 0.31615 0.57192 0.25848 0.0
H179 H 0.87606 0.94701 0.79187 0.0
H180 H 0.85632 0.87482 0.74937 0.0
H181 H 0.80338 0.9392 0.73803 0.0
H182 H 0.77567 0.89075 0.74035 0.0
C183 C 0.79136 0.87736 0.734 0.0
O184 O 0.81177 0.89125 0.7234 0.0
H185 H 0.79861 0.86635 0.75383 0.0
C186 C 0.86288 0.93538 0.77754 0.0
C187 C 0.8392 0.94619 0.76548 0.0
C188 C 0.86916 0.90952 0.77248 0.0
C189 C 0.85199 0.89483 0.7536 0.0
C190 C 0.82844 0.90565 0.74103 0.0
C191 C 0.82192 0.9312 0.74722 0.0
C192 C 0.19753 0.88829 0.09301 0.0
C193 C 0.17084 0.88695 0.08223 0.0
C194 C 0.20484 0.90247 0.11833 0.0
C195 C 0.17813 0.93315 0.18284 0.0
H196 H 0.22919 0.98726 0.17171 0.0
C197 C 0.18941 0.0437 0.21634 0.0
C198 C 0.18523 0.04278 0.24618 0.0
C199 C 0.19557 0.02137 0.20144 0.0
C200 C 0.21515 0.97206 0.17533 0.0
H201 H 0.13079 0.89795 0.09034 0.0
H202 H 0.14344 0.92235 0.13438 0.0
H203 H 0.22385 0.95211 0.13638 0.0
H204 H 0.18555 0.01824 0.28429 0.0
H205 H 0.19609 0.97885 0.25804 0.0
H206 H 0.16821 0.95389 0.22071 0.0
C207 C 0.15877 0.91261 0.1234 0.0
C208 C 0.21225 0.95183 0.15525 0.0
C209 C 0.15154 0.89884 0.09799 0.0
C210 C 0.18876 0.01939 0.26127 0.0
C211 C 0.19463 0.9969 0.24625 0.0
C212 C 0.18114 0.95327 0.203 0.0
C213 C 0.18551 0.91505 0.13353 0.0
C214 C 0.1929 0.93279 0.15814 0.0
C215 C 0.19744 0.99758 0.216 0.0
C216 C 0.19888 0.97352 0.19876 0.0
H217 H 0.21281 0.87927 0.08128 0.0
H218 H 0.2256 0.90403 0.12572 0.0
H219 H 0.16326 0.91856 0.18575 0.0
H220 H 0.18694 0.06157 0.20429 0.0
H221 H 0.19728 0.02253 0.17811 0.0
C222 C 0.57381 0.66266 0.56741 0.0
C223 C 0.58359 0.681 0.54853 0.0
C224 C 0.5547 0.66942 0.58627 0.0
C225 C 0.4986 0.71069 0.59038 0.0
H226 H 0.5001 0.68547 0.66996 0.0
C227 C 0.4043 0.70824 0.6539 0.0
C228 C 0.40021 0.68452 0.66759 0.0
C229 C 0.42892 0.7141 0.64358 0.0
C230 C 0.49935 0.69267 0.64778 0.0
H231 H 0.58165 0.72096 0.535 0.0
H232 H 0.54729 0.73267 0.56764 0.0
H233 H 0.54034 0.68438 0.64397 0.0
H234 H 0.41905 0.649 0.68265 0.0
H235 H 0.46149 0.6588 0.66412 0.0
H236 H 0.45724 0.71736 0.59339 0.0
C237 C 0.5548 0.71316 0.56796 0.0
C238 C 0.52242 0.69218 0.63301 0.0
C239 C 0.57444 0.70649 0.54942 0.0
C240 C 0.42144 0.66725 0.67174 0.0
C241 C 0.44594 0.67308 0.6615 0.0
C242 C 0.47541 0.71096 0.60507 0.0
C243 C 0.54463 0.69457 0.58635 0.0
C244 C 0.52201 0.70031 0.60385 0.0
C245 C 0.44993 0.69641 0.64695 0.0
C246 C 0.47532 0.701 0.63355 0.0
H247 H 0.58068 0.64292 0.56728 0.0
H248 H 0.54698 0.65464 0.59997 0.0
H249 H 0.49775 0.71692 0.56782 0.0
H250 H 0.38827 0.72192 0.65039 0.0
H251 H 0.43142 0.73231 0.63264 0.0
C252 C 0.85407 0.05758 0.06194 0.0
C253 C 0.84015 0.079 0.07138 0.0
C254 C 0.85 0.03325 0.07346 0.0
C255 C 0.80369 0.99399 0.11341 0.0
H256 H 0.86538 0.94997 0.1246 0.0
C257 C 0.8107 0.89136 0.16853 0.0
C258 C 0.82374 0.87308 0.15217 0.0
C259 C 0.80889 0.91706 0.15927 0.0
C260 C 0.84797 0.96205 0.12151 0.0
H261 H 0.81081 0.09158 0.10032 0.0
H262 H 0.8041 0.04883 0.1211 0.0
H263 H 0.87068 0.99429 0.10921 0.0
H264 H 0.84274 0.86675 0.11202 0.0
H265 H 0.83999 0.9115 0.09626 0.0
H266 H 0.78119 0.96131 0.12636 0.0
C267 C 0.81792 0.05095 0.10439 0.0
C268 C 0.85095 0.98741 0.11258 0.0
C269 C 0.82185 0.07544 0.0926 0.0
C270 C 0.83314 0.88053 0.12542 0.0
C271 C 0.83152 0.90609 0.11635 0.0
C272 C 0.80075 0.96852 0.12278 0.0
C273 C 0.83214 0.02961 0.09507 0.0
C274 C 0.82881 0.00352 0.10762 0.0
C275 C 0.82021 0.92472 0.13366 0.0
C276 C 0.82284 0.95222 0.12617 0.0
H277 H 0.86807 0.05949 0.04536 0.0
H278 H 0.86079 0.01719 0.06517 0.0
H279 H 0.78622 0.00588 0.10973 0.0
H280 H 0.80333 0.88616 0.18926 0.0
H281 H 0.80007 0.93116 0.17293 0.0
C282 C 0.42086 0.38074 0.626 0.0
C283 C 0.41923 0.35639 0.61266 0.0
C284 C 0.44076 0.38613 0.64787 0.0
C285 C 0.4921 0.35597 0.69924 0.0
H286 H 0.52519 0.42307 0.69506 0.0
C287 C 0.59493 0.38298 0.75577 0.0
C288 C 0.59812 0.40813 0.76679 0.0
C289 C 0.57099 0.3754 0.74103 0.0
C290 C 0.51592 0.4044 0.69686 0.0
H291 H 0.43684 0.31838 0.61235 0.0
H292 H 0.47205 0.32801 0.64996 0.0
H293 H 0.48771 0.41238 0.66115 0.0
H294 H 0.57813 0.44432 0.77318 0.0
H295 H 0.5364 0.43111 0.74752 0.0
H296 H 0.52112 0.34788 0.73453 0.0
C297 C 0.45766 0.34282 0.64391 0.0
C298 C 0.49436 0.39825 0.6774 0.0
C299 C 0.43756 0.33734 0.62219 0.0
C300 C 0.57639 0.42497 0.76444 0.0
C301 C 0.55253 0.41743 0.74972 0.0
C302 C 0.51386 0.3621 0.71865 0.0
C303 C 0.45971 0.36741 0.65674 0.0
C304 C 0.48217 0.37396 0.67827 0.0
C305 C 0.54984 0.39285 0.73705 0.0
C306 C 0.526 0.38639 0.71762 0.0
H307 H 0.40681 0.39574 0.61948 0.0
H308 H 0.44136 0.40509 0.65771 0.0
H309 H 0.483 0.33719 0.70075 0.0
H310 H 0.61138 0.36964 0.75707 0.0
H311 H 0.56955 0.35638 0.73138 0.0
C312 C 0.64724 0.56093 0.4499 0.0
C313 C 0.66801 0.5784 0.45658 0.0
C314 C 0.6521 0.53725 0.43706 0.0
C315 C 0.70228 0.48842 0.43441 0.0
H316 H 0.65552 0.46048 0.37136 0.0
C317 C 0.6808 0.38806 0.36439 0.0
C318 C 0.67813 0.37092 0.38766 0.0
C319 C 0.68494 0.41431 0.36975 0.0
C320 C 0.66903 0.4681 0.38867 0.0
H321 H 0.71009 0.58504 0.45458 0.0
H322 H 0.71873 0.54304 0.43267 0.0
H323 H 0.65177 0.50569 0.38503 0.0
H324 H 0.6793 0.36744 0.43473 0.0
H325 H 0.68676 0.41328 0.44414 0.0
H326 H 0.7187 0.45046 0.43893 0.0
C327 C 0.69867 0.54794 0.43719 0.0
C328 C 0.66675 0.49391 0.3966 0.0
C329 C 0.69371 0.57194 0.44957 0.0
C330 C 0.68115 0.38028 0.41642 0.0
C331 C 0.68562 0.40646 0.42178 0.0
C332 C 0.70433 0.46247 0.42673 0.0
C333 C 0.6779 0.53033 0.43102 0.0
C334 C 0.68296 0.50416 0.41993 0.0
C335 C 0.68683 0.42384 0.39847 0.0
C336 C 0.68735 0.45195 0.40416 0.0
H337 H 0.62721 0.56545 0.45491 0.0
H338 H 0.63577 0.52394 0.43278 0.0
H339 H 0.7149 0.49582 0.45261 0.0
H340 H 0.67837 0.38138 0.342 0.0
H341 H 0.68594 0.42728 0.35139 0.0
C342 C 0.92875 0.17649 0.96869 0.0
C343 C 0.91962 0.19284 0.99005 0.0
C344 C 0.94706 0.18528 0.94984 0.0
C345 C 0.00333 0.22603 0.94894 0.0
H346 H 0.99884 0.20933 0.8664 0.0
C347 C 0.09734 0.22121 0.88647 0.0
C348 C 0.09909 0.19808 0.87088 0.0
C349 C 0.07303 0.22921 0.89597 0.0
C350 C 0.00042 0.21424 0.88939 0.0
H351 H 0.92185 0.23136 0.00815 0.0
H352 H 0.95507 0.24657 0.97563 0.0
H353 H 0.95917 0.20713 0.89334 0.0
H354 H 0.07659 0.16635 0.8509 0.0
H355 H 0.03459 0.17979 0.86781 0.0
H356 H 0.0449 0.23099 0.94576 0.0
C357 C 0.94753 0.2271 0.97327 0.0
C358 C 0.97768 0.21313 0.90471 0.0
C359 C 0.9286 0.21844 0.99176 0.0
C360 C 0.07588 0.18407 0.86326 0.0
C361 C 0.0517 0.19202 0.87267 0.0
C362 C 0.02618 0.22681 0.93369 0.0
C363 C 0.95704 0.21047 0.95231 0.0
C364 C 0.97917 0.21797 0.93486 0.0
C365 C 0.05005 0.21428 0.88987 0.0
C366 C 0.02519 0.21975 0.90403 0.0
H367 H 0.92197 0.15671 0.96683 0.0
H368 H 0.95432 0.17198 0.93412 0.0
H369 H 0.00499 0.22969 0.97223 0.0
H370 H 0.11496 0.23239 0.89261 0.0
H371 H 0.07239 0.24661 0.90889 0.0
C372 C 0.2981 0.39418 0.46148 0.0
C373 C 0.32402 0.38482 0.46715 0.0
C374 C 0.29146 0.40908 0.43665 0.0
C375 C 0.31555 0.43093 0.36596 0.0
H376 H 0.28157 0.4951 0.38437 0.0
C377 C 0.32231 0.54171 0.32998 0.0
C378 C 0.32069 0.53978 0.29942 0.0
C379 C 0.31534 0.52094 0.34699 0.0
C380 C 0.29086 0.47719 0.37878 0.0
H381 H 0.36273 0.38227 0.45007 0.0
H382 H 0.35126 0.40842 0.40717 0.0
H383 H 0.28374 0.4602 0.41982 0.0
H384 H 0.30948 0.51512 0.26252 0.0
H385 H 0.29735 0.47838 0.29246 0.0
H386 H 0.32412 0.44863 0.32564 0.0
C387 C 0.33598 0.40417 0.42173 0.0
C388 C 0.29188 0.45706 0.39898 0.0
C389 C 0.34263 0.38934 0.44653 0.0
C390 C 0.31084 0.51703 0.28607 0.0
C391 C 0.30408 0.49604 0.30317 0.0
C392 C 0.3145 0.45108 0.34572 0.0
C393 C 0.31054 0.41483 0.41691 0.0
C394 C 0.30507 0.43403 0.39324 0.0
C395 C 0.30671 0.49766 0.33384 0.0
C396 C 0.30301 0.47475 0.35241 0.0
H397 H 0.2832 0.39087 0.47678 0.0
H398 H 0.27158 0.41672 0.43334 0.0
H399 H 0.3255 0.41328 0.36072 0.0
H400 H 0.32968 0.55913 0.34076 0.0
H401 H 0.31793 0.52274 0.37053 0.0
C402 C 0.05179 0.86541 0.94413 0.0
C403 C 0.07087 0.84622 0.94102 0.0
C404 C 0.0322 0.87017 0.92188 0.0
C405 C 0.99544 0.8421 0.85773 0.0
H406 H 0.97618 0.91353 0.84387 0.0
C407 C 0.91008 0.88155 0.77462 0.0
C408 C 0.89288 0.89802 0.78848 0.0
C409 C 0.93352 0.8728 0.78966 0.0
C410 C 0.98146 0.89351 0.84737 0.0
H411 H 0.08412 0.81676 0.91198 0.0
H412 H 0.04958 0.8252 0.87279 0.0
H413 H 0.01495 0.90322 0.87632 0.0
H414 H 0.88575 0.91642 0.82961 0.0
H415 H 0.92668 0.90185 0.85525 0.0
H416 H 0.96134 0.83264 0.82888 0.0
C417 C 0.04991 0.83644 0.89269 0.0
C418 C 0.00356 0.88758 0.86603 0.0
C419 C 0.06969 0.83166 0.91508 0.0
C420 C 0.89895 0.90448 0.81795 0.0
C421 C 0.92232 0.89605 0.83273 0.0
C422 C 0.97329 0.84809 0.83876 0.0
C423 C 0.03114 0.85596 0.89579 0.0
C424 C 0.01024 0.86183 0.87231 0.0
C425 C 0.94007 0.8806 0.8186 0.0
C426 C 0.96568 0.87385 0.83428 0.0
H427 H 0.05196 0.87696 0.9638 0.0
H428 H 0.0177 0.88496 0.92526 0.0
H429 H 0.00011 0.82208 0.86215 0.0
H430 H 0.9059 0.87618 0.75195 0.0
H431 H 0.94694 0.86079 0.77841 0.0
C432 C 0.85768 0.12003 0.93568 0.0
C433 C 0.83974 0.11659 0.95724 0.0
C434 C 0.85395 0.10726 0.90894 0.0
C435 C 0.80626 0.06797 0.86155 0.0
H436 H 0.87064 0.03616 0.83861 0.0
C437 C 0.81016 0.97576 0.79141 0.0
C438 C 0.83208 0.97231 0.77488 0.0
C439 C 0.80763 0.99836 0.80755 0.0
C440 C 0.8525 0.04531 0.84415 0.0
H441 H 0.80305 0.09809 0.96706 0.0
H442 H 0.79691 0.0752 0.92063 0.0
H443 H 0.87291 0.06626 0.87887 0.0
H444 H 0.86696 0.99043 0.75968 0.0
H445 H 0.8621 0.03027 0.78694 0.0
H446 H 0.78581 0.04598 0.82725 0.0
C447 C 0.81366 0.08809 0.9242 0.0
C448 C 0.85381 0.06263 0.86738 0.0
C449 C 0.81726 0.10109 0.95091 0.0
C450 C 0.84996 0.99269 0.77241 0.0
C451 C 0.84729 0.01535 0.78824 0.0
C452 C 0.80494 0.05051 0.83821 0.0
C453 C 0.83234 0.09051 0.9032 0.0
C454 C 0.83071 0.07395 0.87667 0.0
C455 C 0.82691 0.01788 0.80722 0.0
C456 C 0.82805 0.03874 0.82949 0.0
H457 H 0.87497 0.1322 0.93969 0.0
H458 H 0.86839 0.11005 0.89301 0.0
H459 H 0.78812 0.07656 0.86796 0.0
H460 H 0.79628 0.96016 0.79383 0.0
H461 H 0.79176 0.9996 0.822 0.0
C462 C 0.42628 0.29034 0.49943 0.0
C463 C 0.41753 0.31602 0.49882 0.0
C464 C 0.44808 0.28312 0.48427 0.0
C465 C 0.48982 0.30355 0.42583 0.0
H466 H 0.54736 0.27082 0.47244 0.0
C467 C 0.60885 0.30431 0.42966 0.0
C468 C 0.6128 0.30064 0.39999 0.0
C469 C 0.58417 0.2994 0.44016 0.0
C470 C 0.53139 0.27977 0.45908 0.0
H471 H 0.42373 0.35388 0.48066 0.0
H472 H 0.46137 0.34124 0.45401 0.0
H473 H 0.50411 0.27538 0.4922 0.0
H474 H 0.59435 0.28785 0.35834 0.0
H475 H 0.55121 0.27918 0.37674 0.0
H476 H 0.5173 0.30903 0.39326 0.0
C477 C 0.45156 0.3267 0.46623 0.0
C478 C 0.50659 0.28217 0.47027 0.0
C479 C 0.43011 0.33398 0.48166 0.0
C480 C 0.59195 0.29071 0.38135 0.0
C481 C 0.5672 0.28596 0.39182 0.0
C482 C 0.51452 0.30097 0.41456 0.0
C483 C 0.46113 0.30134 0.46784 0.0
C484 C 0.48581 0.2948 0.4541 0.0
C485 C 0.56287 0.29086 0.42118 0.0
C486 C 0.53578 0.28973 0.43139 0.0
H487 H 0.41699 0.27609 0.51253 0.0
H488 H 0.45501 0.26342 0.48576 0.0
H489 H 0.47408 0.31319 0.41281 0.0
H490 H 0.62464 0.31175 0.44456 0.0
H491 H 0.58143 0.30357 0.46284 0.0
C492 C 0.17988 0.93263 0.9679 0.0
C493 C 0.15615 0.91854 0.96389 0.0
C494 C 0.18227 0.95666 0.9545 0.0
C495 C 0.13986 0.00945 0.92462 0.0
H496 H 0.20386 0.03511 0.89335 0.0
C497 C 0.1389 0.10442 0.86286 0.0
C498 C 0.15895 0.12216 0.87143 0.0
C499 C 0.14097 0.07878 0.87158 0.0
C500 C 0.18594 0.0282 0.90218 0.0
H501 H 0.11702 0.9178 0.94118 0.0
H502 H 0.12139 0.95919 0.91742 0.0
H503 H 0.20293 0.99135 0.91328 0.0
H504 H 0.19764 0.12668 0.89438 0.0
H505 H 0.20127 0.08154 0.90986 0.0
H506 H 0.12281 0.04605 0.91369 0.0
C507 C 0.13787 0.95217 0.9316 0.0
C508 C 0.18539 0.0032 0.91361 0.0
C509 C 0.1354 0.92836 0.94512 0.0
C510 C 0.18191 0.11338 0.88747 0.0
C511 C 0.18397 0.08758 0.8963 0.0
C512 C 0.14037 0.03424 0.91315 0.0
C513 C 0.16104 0.96694 0.93671 0.0
C514 C 0.16223 0.99348 0.92473 0.0
C515 C 0.16313 0.07024 0.88915 0.0
C516 C 0.16329 0.04385 0.90156 0.0
H517 H 0.19624 0.92555 0.98222 0.0
H518 H 0.20035 0.96758 0.959 0.0
H519 H 0.12193 0.00292 0.93375 0.0
H520 H 0.12123 0.11055 0.84995 0.0
H521 H 0.12487 0.06573 0.86514 0.0
C522 C 0.57153 0.62336 0.41705 0.0
C523 C 0.57737 0.64759 0.42958 0.0
C524 C 0.55124 0.62061 0.39494 0.0
C525 C 0.4891 0.65064 0.36706 0.0
H526 H 0.49429 0.60282 0.30291 0.0
C527 C 0.39854 0.62727 0.28794 0.0
C528 C 0.3941 0.6008 0.28362 0.0
C529 C 0.42293 0.63613 0.30045 0.0
C530 C 0.49253 0.61624 0.32071 0.0
H531 H 0.56693 0.6881 0.42801 0.0
H532 H 0.53143 0.68322 0.3894 0.0
H533 H 0.53349 0.61246 0.33533 0.0
H534 H 0.41216 0.56304 0.28708 0.0
H535 H 0.45444 0.57834 0.30921 0.0
H536 H 0.44798 0.65375 0.35316 0.0
C537 C 0.54246 0.66634 0.39692 0.0
C538 C 0.51496 0.62174 0.33927 0.0
C539 C 0.56285 0.66912 0.41897 0.0
C540 C 0.41494 0.58353 0.2905 0.0
C541 C 0.43927 0.59235 0.3029 0.0
C542 C 0.46665 0.6451 0.34854 0.0
C543 C 0.53626 0.642 0.38486 0.0
C544 C 0.51334 0.63853 0.36307 0.0
C545 C 0.44336 0.61868 0.3087 0.0
C546 C 0.46796 0.62736 0.32557 0.0
H547 H 0.58239 0.60638 0.42458 0.0
H548 H 0.54675 0.60154 0.38637 0.0
H549 H 0.48712 0.66346 0.38537 0.0
H550 H 0.3828 0.64102 0.28291 0.0
H551 H 0.42558 0.65657 0.30433 0.0
C552 C 0.31059 0.41943 0.60668 0.0
C553 C 0.32481 0.41898 0.58155 0.0
C554 C 0.30525 0.44287 0.62015 0.0
C555 C 0.30135 0.5129 0.60687 0.0
H556 H 0.32467 0.52019 0.68884 0.0
C557 C 0.34817 0.59703 0.68379 0.0
C558 C 0.33075 0.61747 0.67676 0.0
C559 C 0.34106 0.57183 0.6762 0.0
C560 C 0.31779 0.51838 0.66602 0.0
H561 H 0.34388 0.44275 0.55039 0.0
H562 H 0.33437 0.48336 0.57362 0.0
H563 H 0.32365 0.47753 0.66622 0.0
H564 H 0.29184 0.62762 0.65751 0.0
H565 H 0.27941 0.5833 0.64378 0.0
H566 H 0.29669 0.55382 0.60623 0.0
C567 C 0.32732 0.46571 0.58294 0.0
C568 C 0.31703 0.49396 0.65314 0.0
C569 C 0.33298 0.44239 0.56979 0.0
C570 C 0.30558 0.61214 0.66317 0.0
C571 C 0.29855 0.58687 0.65522 0.0
C572 C 0.30188 0.53726 0.61978 0.0
C573 C 0.31361 0.46622 0.60838 0.0
C574 C 0.3097 0.49113 0.6232 0.0
C575 C 0.31645 0.56653 0.66118 0.0
C576 C 0.31099 0.54036 0.64924 0.0
H577 H 0.3041 0.40168 0.61626 0.0
H578 H 0.29465 0.44276 0.63977 0.0
H579 H 0.29536 0.51121 0.58379 0.0
H580 H 0.36762 0.60066 0.69448 0.0
H581 H 0.35541 0.55666 0.68081 0.0
C582 C 0.0609 0.79809 0.05391 0.0
C583 C 0.07971 0.81741 0.06122 0.0
C584 C 0.04117 0.79241 0.07263 0.0
C585 C 0.00546 0.82464 0.12885 0.0
H586 H 0.97203 0.75799 0.13618 0.0
C587 C 0.91141 0.81726 0.18796 0.0
C588 C 0.89061 0.80459 0.17198 0.0
C589 C 0.93746 0.81368 0.18097 0.0
C590 C 0.98122 0.7767 0.13437 0.0
H591 H 0.09393 0.84441 0.0949 0.0
H592 H 0.05994 0.8341 0.1278 0.0
H593 H 0.01305 0.76142 0.11145 0.0
H594 H 0.88035 0.77726 0.13746 0.0
H595 H 0.92596 0.77122 0.12468 0.0
H596 H 0.97346 0.84016 0.15072 0.0
C597 C 0.05989 0.82388 0.10723 0.0
C598 C 0.00465 0.77868 0.12017 0.0
C599 C 0.07942 0.82974 0.08842 0.0
C600 C 0.89626 0.78694 0.15024 0.0
C601 C 0.92235 0.78351 0.14301 0.0
C602 C 0.98219 0.82266 0.14302 0.0
C603 C 0.04 0.80577 0.09915 0.0
C604 C 0.0168 0.80277 0.11685 0.0
C605 C 0.9431 0.79772 0.15748 0.0
C606 C 0.96954 0.79876 0.14558 0.0
H607 H 0.06065 0.7882 0.03312 0.0
H608 H 0.02606 0.7785 0.0656 0.0
H609 H 0.01386 0.84359 0.12615 0.0
H610 H 0.90733 0.83104 0.20475 0.0
H611 H 0.95305 0.8245 0.19291 0.0
C612 C 0.69485 0.59832 0.58119 0.0
C613 C 0.67001 0.60999 0.57516 0.0
C614 C 0.70079 0.58563 0.60774 0.0
C615 C 0.67905 0.57731 0.68256 0.0
H616 H 0.7027 0.50699 0.67413 0.0
C617 C 0.65232 0.49576 0.75859 0.0
C618 C 0.66898 0.47426 0.76248 0.0
C619 C 0.65912 0.51623 0.74096 0.0
C620 C 0.69675 0.52675 0.67719 0.0
H621 H 0.63253 0.61872 0.5929 0.0
H622 H 0.64286 0.59658 0.63898 0.0
H623 H 0.70243 0.53613 0.63276 0.0
H624 H 0.70684 0.45826 0.75279 0.0
H625 H 0.71906 0.49434 0.72252 0.0
H626 H 0.67249 0.56763 0.72675 0.0
C627 C 0.65778 0.59726 0.6233 0.0
C628 C 0.69655 0.54347 0.65338 0.0
C629 C 0.65176 0.60972 0.59673 0.0
C630 C 0.69358 0.47458 0.75025 0.0
C631 C 0.70045 0.49512 0.73264 0.0
C632 C 0.67938 0.56062 0.70645 0.0
C633 C 0.68215 0.58465 0.62889 0.0
C634 C 0.68684 0.56865 0.65552 0.0
C635 C 0.68284 0.51572 0.7269 0.0
C636 C 0.68736 0.53488 0.70373 0.0
H637 H 0.7094 0.5983 0.56508 0.0
H638 H 0.7198 0.57622 0.61155 0.0
H639 H 0.67187 0.59677 0.68497 0.0
H640 H 0.63339 0.49622 0.76809 0.0
H641 H 0.64497 0.53165 0.73693 0.0
C642 C 0.9412 0.17506 0.11735 0.0
C643 C 0.92766 0.15319 0.10594 0.0
C644 C 0.96276 0.1725 0.13802 0.0
C645 C 0.99627 0.12722 0.19098 0.0
H646 H 0.05962 0.16515 0.17516 0.0
C647 C 0.11485 0.11629 0.21638 0.0
C648 C 0.11672 0.11133 0.24653 0.0
C649 C 0.09122 0.12515 0.20232 0.0
C650 C 0.04205 0.15452 0.17994 0.0
H651 H 0.92554 0.11152 0.1083 0.0
H652 H 0.96316 0.10711 0.14425 0.0
H653 H 0.01851 0.17278 0.14526 0.0
H654 H 0.09562 0.11245 0.2858 0.0
H655 H 0.05404 0.12794 0.26111 0.0
H656 H 0.02012 0.10831 0.22503 0.0
C657 C 0.95704 0.12624 0.13728 0.0
C658 C 0.01844 0.15904 0.16298 0.0
C659 C 0.93558 0.12877 0.1165 0.0
C660 C 0.09472 0.11624 0.26255 0.0
C661 C 0.07092 0.12488 0.2484 0.0
C662 C 0.01986 0.12282 0.20808 0.0
C663 C 0.97115 0.14804 0.14793 0.0
C664 C 0.99541 0.14507 0.16793 0.0
C665 C 0.06884 0.12909 0.21806 0.0
C666 C 0.04314 0.13603 0.20233 0.0
H667 H 0.93556 0.19418 0.10984 0.0
H668 H 0.97305 0.18968 0.14606 0.0
H669 H 0.97878 0.11635 0.1955 0.0
H670 H 0.13158 0.11284 0.20355 0.0
H671 H 0.09021 0.12797 0.1789 0.0
C672 C 0.21542 0.77974 0.05108 0.0
C673 C 0.18771 0.77868 0.04607 0.0
C674 C 0.22908 0.76044 0.06717 0.0
C675 C 0.21966 0.70835 0.12034 0.0
H676 H 0.2852 0.68199 0.0936 0.0
C677 C 0.2697 0.61673 0.1689 0.0
C678 C 0.29732 0.61735 0.17429 0.0
C679 C 0.25655 0.6365 0.15313 0.0
C680 C 0.26707 0.68933 0.10152 0.0
H681 H 0.15263 0.75655 0.05431 0.0
H682 H 0.17649 0.72286 0.08198 0.0
H683 H 0.26191 0.71666 0.0667 0.0
H684 H 0.33286 0.63934 0.16852 0.0
H685 H 0.30995 0.674 0.14083 0.0
H686 H 0.22474 0.68093 0.15506 0.0
C687 C 0.18764 0.73874 0.07379 0.0
C688 C 0.25374 0.70922 0.08613 0.0
C689 C 0.17398 0.75801 0.05774 0.0
C690 C 0.31159 0.63822 0.16402 0.0
C691 C 0.29847 0.65797 0.14819 0.0
C692 C 0.23296 0.68844 0.13568 0.0
C693 C 0.21535 0.73968 0.07862 0.0
C694 C 0.22984 0.71891 0.09531 0.0
C695 C 0.27079 0.65739 0.14266 0.0
C696 C 0.25677 0.67865 0.1264 0.0
H697 H 0.2266 0.79543 0.04255 0.0
H698 H 0.2504 0.76192 0.07084 0.0
H699 H 0.20153 0.71565 0.12828 0.0
H700 H 0.25829 0.60101 0.17707 0.0
H701 H 0.23525 0.63538 0.14905 0.0
C702 C 0.68426 0.74105 0.53947 0.0
C703 C 0.69253 0.71524 0.54125 0.0
C704 C 0.69556 0.75944 0.55888 0.0
C705 C 0.75426 0.77209 0.60969 0.0
H706 H 0.70797 0.82008 0.64557 0.0
C707 C 0.7896 0.83386 0.70959 0.0
C708 C 0.78017 0.85918 0.71078 0.0
C709 C 0.77939 0.81703 0.6878 0.0
C710 C 0.72123 0.80707 0.63546 0.0
H711 H 0.71937 0.6886 0.56478 0.0
H712 H 0.73893 0.72063 0.5986 0.0
H713 H 0.68937 0.78954 0.60924 0.0
H714 H 0.75378 0.88729 0.68958 0.0
H715 H 0.73597 0.85797 0.65122 0.0
H716 H 0.7861 0.78952 0.63596 0.0
C717 C 0.72391 0.72671 0.582 0.0
C718 C 0.71056 0.78956 0.61464 0.0
C719 C 0.71257 0.70832 0.56268 0.0
C720 C 0.76093 0.86766 0.68936 0.0
C721 C 0.75073 0.85085 0.66753 0.0
C722 C 0.76494 0.78963 0.63046 0.0
C723 C 0.71543 0.75245 0.58044 0.0
C724 C 0.72693 0.77175 0.60167 0.0
C725 C 0.75974 0.82529 0.66657 0.0
C726 C 0.74853 0.80721 0.64375 0.0
H727 H 0.66887 0.74705 0.52325 0.0
H728 H 0.6888 0.77917 0.55693 0.0
H729 H 0.76745 0.75887 0.59976 0.0
H730 H 0.80473 0.82705 0.72567 0.0
H731 H 0.78662 0.79742 0.68788 0.0
C732 C 0.78779 0.18026 0.11741 0.0
C733 C 0.81472 0.18601 0.11535 0.0
C734 C 0.77456 0.1891 0.14107 0.0
C735 C 0.77736 0.24113 0.19498 0.0
H736 H 0.72457 0.20051 0.23125 0.0
C737 C 0.71947 0.28223 0.28776 0.0
C738 C 0.69223 0.27692 0.28616 0.0
C739 C 0.736 0.26924 0.26969 0.0
C740 C 0.73912 0.21216 0.2212 0.0
H741 H 0.8491 0.2047 0.13723 0.0
H742 H 0.82594 0.22009 0.17848 0.0
H743 H 0.75078 0.18078 0.19476 0.0
H744 H 0.66079 0.25407 0.26448 0.0
H745 H 0.6895 0.23167 0.23251 0.0
H746 H 0.76532 0.27268 0.2207 0.0
C747 C 0.81504 0.20899 0.16159 0.0
C748 C 0.75415 0.20084 0.20035 0.0
C749 C 0.82832 0.20006 0.138 0.0
C750 C 0.68179 0.25831 0.26632 0.0
C751 C 0.69829 0.24539 0.24816 0.0
C752 C 0.76227 0.25247 0.21571 0.0
C753 C 0.78792 0.20394 0.16315 0.0
C754 C 0.77324 0.21528 0.1868 0.0
C755 C 0.72556 0.25084 0.24945 0.0
C756 C 0.74276 0.23822 0.22885 0.0
H757 H 0.77673 0.1694 0.10043 0.0
H758 H 0.75361 0.18508 0.14151 0.0
H759 H 0.79163 0.25288 0.18461 0.0
H760 H 0.72788 0.29663 0.30282 0.0
H761 H 0.75695 0.2737 0.27149 0.0
C762 C 0.28884 0.31694 0.63183 0.0
C763 C 0.31523 0.3115 0.62654 0.0
C764 C 0.27869 0.30931 0.65795 0.0
C765 C 0.28839 0.26137 0.71605 0.0
H766 H 0.244 0.30638 0.75865 0.0
C767 C 0.24714 0.22862 0.8234 0.0
C768 C 0.22066 0.23489 0.827 0.0
C769 C 0.26041 0.23999 0.80109 0.0
C770 C 0.25617 0.29349 0.74688 0.0
H771 H 0.35178 0.29417 0.64483 0.0
H772 H 0.33394 0.28072 0.69025 0.0
H773 H 0.26359 0.32234 0.71515 0.0
H774 H 0.18725 0.25785 0.81053 0.0
H775 H 0.21009 0.27736 0.77108 0.0
H776 H 0.28046 0.23227 0.74706 0.0
C777 C 0.32111 0.29077 0.67411 0.0
C778 C 0.26741 0.30267 0.722 0.0
C779 C 0.33133 0.29857 0.64812 0.0
C780 C 0.20779 0.25299 0.80828 0.0
C781 C 0.22094 0.26421 0.78583 0.0
C782 C 0.27701 0.25213 0.74075 0.0
C783 C 0.29465 0.29593 0.67922 0.0
C784 C 0.28351 0.28665 0.70625 0.0
C785 C 0.24732 0.2576 0.7817 0.0
C786 C 0.2606 0.26801 0.75639 0.0
H787 H 0.27595 0.32698 0.61573 0.0
H788 H 0.25815 0.31336 0.66121 0.0
H789 H 0.30043 0.24847 0.70411 0.0
H790 H 0.25744 0.21461 0.83753 0.0
H791 H 0.28083 0.23475 0.79884 0.0
C792 C 0.66813 0.69842 0.39695 0.0
C793 C 0.68428 0.68599 0.41888 0.0
C794 C 0.67843 0.70622 0.37105 0.0
C795 C 0.73279 0.69511 0.3239 0.0
H796 H 0.71584 0.76401 0.29601 0.0
C797 C 0.78699 0.74473 0.2328 0.0
C798 C 0.77222 0.76098 0.21339 0.0
C799 C 0.77541 0.73373 0.2565 0.0
C800 C 0.72042 0.74456 0.30317 0.0
H801 H 0.72384 0.67152 0.43045 0.0
H802 H 0.74187 0.68528 0.38508 0.0
H803 H 0.69753 0.74839 0.34018 0.0
H804 H 0.73385 0.77837 0.20312 0.0
H805 H 0.71327 0.75861 0.24407 0.0
H806 H 0.75569 0.69129 0.28682 0.0
C807 C 0.72118 0.68886 0.38802 0.0
C808 C 0.70999 0.73565 0.32856 0.0
C809 C 0.7109 0.68115 0.41406 0.0
C810 C 0.74554 0.76569 0.21769 0.0
C811 C 0.7339 0.75458 0.24128 0.0
C812 C 0.74314 0.70398 0.29836 0.0
C813 C 0.70509 0.70168 0.36638 0.0
C814 C 0.7161 0.71087 0.33924 0.0
C815 C 0.74882 0.73883 0.26126 0.0
C816 C 0.73712 0.72886 0.28775 0.0
H817 H 0.64748 0.70231 0.39979 0.0
H818 H 0.66546 0.71574 0.3546 0.0
H819 H 0.73758 0.67581 0.33145 0.0
H820 H 0.80773 0.7412 0.23008 0.0
H821 H 0.78759 0.72202 0.27166 0.0
C822 C 0.81599 0.24471 -0.00023 0.0
C823 C 0.80884 0.21862 0.99691 0.0
C824 C 0.8036 0.26325 0.98142 0.0
C825 C 0.74362 0.27513 0.93269 0.0
H826 H 0.78743 0.32523 0.89633 0.0
C827 C 0.70423 0.33667 0.83452 0.0
C828 C 0.71307 0.36221 0.83305 0.0
C829 C 0.71525 0.32012 0.85608 0.0
C830 C 0.77484 0.31164 0.90663 0.0
H831 H 0.78281 0.19161 0.97268 0.0
H832 H 0.76127 0.22393 0.94076 0.0
H833 H 0.8078 0.29472 0.9315 0.0
H834 H 0.73935 0.39093 0.85341 0.0
H835 H 0.7585 0.36212 0.8915 0.0
H836 H 0.71066 0.29196 0.90782 0.0
C837 C 0.77631 0.23007 0.95734 0.0
C838 C 0.78654 0.29415 0.92676 0.0
C839 C 0.78879 0.21154 0.97555 0.0
C840 C 0.73257 0.37116 0.85395 0.0
C841 C 0.74355 0.35464 0.8756 0.0
C842 C 0.7319 0.29269 0.91267 0.0
C843 C 0.7837 0.25609 0.95995 0.0
C844 C 0.77108 0.27554 0.93978 0.0
C845 C 0.73515 0.32886 0.8768 0.0
C846 C 0.74741 0.31099 0.89916 0.0
H847 H 0.83138 0.25083 0.01597 0.0
H848 H 0.80953 0.2832 0.98409 0.0
H849 H 0.73115 0.26125 0.94272 0.0
H850 H 0.689 0.32944 0.81878 0.0
H851 H 0.70852 0.30033 0.85616 0.0
C852 C 0.28316 0.28203 0.48965 0.0
C853 C 0.30577 0.27713 0.50852 0.0
C854 C 0.26998 0.26199 0.47438 0.0
C855 C 0.27893 0.19654 0.44671 0.0
H856 H 0.20219 0.19462 0.44226 0.0
C857 C 0.21922 0.11316 0.38998 0.0
C858 C 0.19617 0.11995 0.37284 0.0
C859 C 0.23246 0.13135 0.40821 0.0
C860 C 0.22361 0.195 0.44302 0.0
H861 H 0.33243 0.24725 0.52577 0.0
H862 H 0.30937 0.2122 0.49891 0.0
H863 H 0.22581 0.22825 0.47063 0.0
H864 H 0.16915 0.15095 0.36063 0.0
H865 H 0.19237 0.18294 0.39209 0.0
H866 H 0.27675 0.1636 0.41864 0.0
C867 C 0.30193 0.23163 0.496 0.0
C868 C 0.23714 0.21426 0.45933 0.0
C869 C 0.31505 0.2517 0.51147 0.0
C870 C 0.18665 0.14523 0.37407 0.0
C871 C 0.19992 0.16345 0.39217 0.0
C872 C 0.26538 0.17734 0.43025 0.0
C873 C 0.27915 0.23656 0.47743 0.0
C874 C 0.26493 0.21538 0.46115 0.0
C875 C 0.22305 0.15677 0.40941 0.0
C876 C 0.23754 0.17646 0.428 0.0
H877 H 0.27547 0.30138 0.48674 0.0
H878 H 0.25272 0.26646 0.45991 0.0
H879 H 0.30034 0.19707 0.44745 0.0
H880 H 0.22707 0.09382 0.38913 0.0
H881 H 0.25004 0.12548 0.42139 0.0
C882 C 0.20231 0.82419 0.91714 0.0
C883 C 0.18106 0.81104 0.92843 0.0
C884 C 0.21447 0.8143 0.89321 0.0
C885 C 0.2249 0.75243 0.85714 0.0
H886 H 0.25423 0.79484 0.79802 0.0
C887 C 0.2829 0.70724 0.76759 0.0
C888 C 0.30722 0.71909 0.7634 0.0
C889 C 0.26426 0.7197 0.78349 0.0
C890 C 0.24619 0.78278 0.81444 0.0
H891 H 0.15487 0.77805 0.9223 0.0
H892 H 0.17583 0.76106 0.88041 0.0
H893 H 0.22722 0.81465 0.8338 0.0
H894 H 0.33064 0.7537 0.77074 0.0
H895 H 0.29826 0.77544 0.79895 0.0
H896 H 0.24426 0.72069 0.83835 0.0
C897 C 0.18352 0.77866 0.89047 0.0
C898 C 0.23076 0.79411 0.83493 0.0
C899 C 0.17146 0.78846 0.91443 0.0
C900 C 0.31208 0.74412 0.77398 0.0
C901 C 0.29346 0.7566 0.7899 0.0
C902 C 0.24025 0.74113 0.83668 0.0
C903 C 0.20554 0.79113 0.87999 0.0
C904 C 0.22021 0.77909 0.85673 0.0
C905 C 0.2696 0.74429 0.7954 0.0
C906 C 0.25136 0.75619 0.81533 0.0
H907 H 0.21014 0.84167 0.92735 0.0
H908 H 0.23153 0.82427 0.88585 0.0
H909 H 0.21751 0.74036 0.87395 0.0
H910 H 0.27868 0.68805 0.75923 0.0
H911 H 0.24587 0.7099 0.78693 0.0
loop_
_geom_bond_atom_site_label_1
_geom_bond_atom_site_label_2
_geom_bond_distance
_geom_bond_site_symmetry_2
_ccdc_geom_bond_type
Fe0 O2 1.918 1_554 S
Fe0 O5 1.997 . S
Fe0 O6 2.002 . S
Fe0 O11 1.976 1_554 S
Fe0 O14 1.996 1_554 S
Fe1 O2 1.918 1_554 S
Fe1 O9 1.997 . S
Fe1 O12 1.996 1_554 S
Fe1 O16 1.976 1_554 S
Fe1 O19 2.002 . S
O2 Fe0 1.918 1_556 S
O2 Fe1 1.918 1_556 S
O2 Fe3 1.918 . S
Fe3 O2 1.918 . S
Fe3 O4 2.002 1_556 S
Fe3 O13 1.976 . S
Fe3 O17 1.996 . S
Fe3 O20 1.997 1_556 S
O4 Fe3 2.002 1_554 S
O4 C21 1.295 . S
O5 Fe0 1.997 . S
O5 C21 1.235 . S
O6 Fe0 2.002 . S
O6 C7 1.295 . S
C7 O6 1.295 . S
C7 O9 1.235 . S
C8 O13 1.287 . S
C8 O14 1.255 . S
O9 Fe1 1.997 . S
O9 C7 1.235 . S
C10 O16 1.287 . S
C10 O17 1.255 . S
O11 Fe0 1.976 1_556 S
O11 C18 1.287 . S
O12 Fe1 1.996 1_556 S
O12 C18 1.255 . S
O13 Fe3 1.976 . S
O13 C8 1.287 . S
O14 Fe0 1.996 1_556 S
O14 C8 1.255 . S
C15 O19 1.295 . S
C15 O20 1.235 . S
O16 Fe1 1.976 1_556 S
O16 C10 1.287 . S
O17 Fe3 1.996 . S
O17 C10 1.255 . S
C18 O11 1.287 . S
C18 O12 1.255 . S
O19 Fe1 2.002 . S
O19 C15 1.295 . S
O20 Fe3 1.997 1_554 S
O20 C15 1.235 . S
C21 O4 1.295 . S
C21 O5 1.235 . S
Fe22 O24 1.918 . S
Fe22 O27 1.997 . S
Fe22 O28 2.002 . S
Fe22 O33 1.976 . S
Fe22 O36 1.996 . S
Fe23 O24 1.918 . S
Fe23 O31 1.997 . S
Fe23 O34 1.996 . S
Fe23 O38 1.976 . S
Fe23 O41 2.002 . S
O24 Fe22 1.918 . S
O24 Fe23 1.918 . S
O24 Fe25 1.918 . S
Fe25 O24 1.918 . S
Fe25 O26 2.002 . S
Fe25 O35 1.976 . S
Fe25 O39 1.996 . S
Fe25 O42 1.997 . S
O26 Fe25 2.002 . S
O26 C43 1.295 . S
O27 Fe22 1.997 . S
O27 C43 1.235 . S
O28 Fe22 2.002 . S
O28 C29 1.295 . S
C29 O28 1.295 . S
C29 O31 1.235 . S
C30 O35 1.287 . S
C30 O36 1.255 . S
O31 Fe23 1.997 . S
O31 C29 1.235 . S
C32 O38 1.287 . S
C32 O39 1.255 . S
O33 Fe22 1.976 . S
O33 C40 1.287 . S
O34 Fe23 1.996 . S
O34 C40 1.255 . S
O35 Fe25 1.976 . S
O35 C30 1.287 . S
O36 Fe22 1.996 . S
O36 C30 1.255 . S
C37 O41 1.295 . S
C37 O42 1.235 . S
O38 Fe23 1.976 . S
O38 C32 1.287 . S
O39 Fe25 1.996 . S
O39 C32 1.255 . S
C40 O33 1.287 . S
C40 O34 1.255 . S
O41 Fe23 2.002 . S
O41 C37 1.295 . S
O42 Fe25 1.997 . S
O42 C37 1.235 . S
C43 O26 1.295 . S
C43 O27 1.235 . S
Fe44 O46 1.918 . S
Fe44 O49 1.997 . S
Fe44 O50 2.002 . S
Fe44 O55 1.976 . S
Fe44 O58 1.996 . S
Fe45 O46 1.918 . S
Fe45 O53 1.997 . S
Fe45 O56 1.996 . S
Fe45 O60 1.976 . S
Fe45 O63 2.002 . S
O46 Fe44 1.918 . S
O46 Fe45 1.918 . S
O46 Fe47 1.918 . S
Fe47 O46 1.918 . S
Fe47 O48 2.002 . S
Fe47 O57 1.976 . S
Fe47 O61 1.996 . S
Fe47 O64 1.997 . S
O48 Fe47 2.002 . S
O48 C65 1.295 . S
O49 Fe44 1.997 . S
O49 C65 1.235 . S
O50 Fe44 2.002 . S
O50 C51 1.295 . S
C51 O50 1.295 . S
C51 O53 1.235 . S
C52 O57 1.287 . S
C52 O58 1.255 . S
O53 Fe45 1.997 . S
O53 C51 1.235 . S
C54 O60 1.287 . S
C54 O61 1.255 . S
O55 Fe44 1.976 . S
O55 C62 1.287 . S
O56 Fe45 1.996 . S
O56 C62 1.255 . S
O57 Fe47 1.976 . S
O57 C52 1.287 . S
O58 Fe44 1.996 . S
O58 C52 1.255 . S
C59 O63 1.295 1_556 S
C59 O64 1.235 1_556 S
O60 Fe45 1.976 . S
O60 C54 1.287 . S
O61 Fe47 1.996 . S
O61 C54 1.255 . S
C62 O55 1.287 . S
C62 O56 1.255 . S
O63 Fe45 2.002 . S
O63 C59 1.295 1_554 S
O64 Fe47 1.997 . S
O64 C59 1.235 1_554 S
C65 O48 1.295 . S
C65 O49 1.235 . S
Fe66 O68 1.918 . S
Fe66 O71 1.997 . S
Fe66 O72 2.002 . S
Fe66 O77 1.976 . S
Fe66 O80 1.996 . S
Fe67 O68 1.918 . S
Fe67 O75 1.997 . S
Fe67 O78 1.996 . S
Fe67 O82 1.976 . S
Fe67 O85 2.002 . S
O68 Fe66 1.918 . S
O68 Fe67 1.918 . S
O68 Fe69 1.918 . S
Fe69 O68 1.918 . S
Fe69 O70 2.002 . S
Fe69 O79 1.976 . S
Fe69 O83 1.996 . S
Fe69 O86 1.997 . S
O70 Fe69 2.002 . S
O70 C87 1.295 . S
O71 Fe66 1.997 . S
O71 C87 1.235 . S
O72 Fe66 2.002 . S
O72 C73 1.295 . S
C73 O72 1.295 . S
C73 O75 1.235 . S
C74 O79 1.287 . S
C74 O80 1.255 . S
O75 Fe67 1.997 . S
O75 C73 1.235 . S
C76 O82 1.287 . S
C76 O83 1.255 . S
O77 Fe66 1.976 . S
O77 C84 1.287 . S
O78 Fe67 1.996 . S
O78 C84 1.255 . S
O79 Fe69 1.976 . S
O79 C74 1.287 . S
O80 Fe66 1.996 . S
O80 C74 1.255 . S
C81 O85 1.295 . S
C81 O86 1.235 . S
O82 Fe67 1.976 . S
O82 C76 1.287 . S
O83 Fe69 1.996 . S
O83 C76 1.255 . S
C84 O77 1.287 . S
C84 O78 1.255 . S
O85 Fe67 2.002 . S
O85 C81 1.295 . S
O86 Fe69 1.997 . S
O86 C81 1.235 . S
C87 O70 1.295 . S
C87 O71 1.235 . S
H88 C95 0.929 . S
H89 C98 0.930 . S
H90 C100 0.929 . S
H91 C92 0.969 . S
C92 H91 0.969 . S
C92 O93 1.550 . S
C92 H94 0.973 . S
O93 C92 1.550 . S
O93 C99 1.412 . S
H94 C92 0.973 . S
C95 H88 0.929 . S
C95 C96 1.400 . S
C95 C97 1.364 . S
C96 C95 1.400 . S
C96 C100 1.377 . S
C97 C95 1.364 . S
C97 C98 1.374 . S
C98 H89 0.930 . S
C98 C97 1.374 . S
C98 C99 1.383 . S
C99 O93 1.412 . S
C99 C98 1.383 . S
C99 C100 1.394 . S
C100 H90 0.929 . S
C100 C96 1.377 . S
C100 C99 1.394 . S
H101 C108 0.929 . S
H102 C111 0.930 . S
H103 C113 0.929 . S
H104 C105 0.969 . S
C105 H104 0.969 . S
C105 O106 1.550 . S
C105 H107 0.973 . S
O106 C105 1.550 . S
O106 C112 1.412 . S
H107 C105 0.973 . S
C108 H101 0.929 . S
C108 C109 1.400 . S
C108 C110 1.364 . S
C109 C108 1.400 . S
C109 C113 1.377 . S
C110 C108 1.364 . S
C110 C111 1.374 . S
C111 H102 0.930 . S
C111 C110 1.374 . S
C111 C112 1.383 . S
C112 O106 1.412 . S
C112 C111 1.383 . S
C112 C113 1.394 . S
C113 H103 0.929 . S
C113 C109 1.377 . S
C113 C112 1.394 . S
H114 C121 0.929 . S
H115 C124 0.930 . S
H116 C126 0.929 . S
H117 C118 0.969 . S
C118 H117 0.969 . S
C118 O119 1.550 . S
C118 H120 0.973 . S
O119 C118 1.550 . S
O119 C125 1.412 . S
H120 C118 0.973 . S
C121 H114 0.929 . S
C121 C122 1.400 . S
C121 C123 1.364 . S
C122 C121 1.400 . S
C122 C126 1.377 . S
C123 C121 1.364 . S
C123 C124 1.374 . S
C124 H115 0.930 . S
C124 C123 1.374 . S
C124 C125 1.383 . S
C125 O119 1.412 . S
C125 C124 1.383 . S
C125 C126 1.394 . S
C126 H116 0.929 . S
C126 C122 1.377 . S
C126 C125 1.394 . S
H127 C134 0.929 . S
H128 C137 0.930 . S
H129 C139 0.929 . S
H130 C131 0.969 . S
C131 H130 0.969 . S
C131 O132 1.550 . S
C131 H133 0.973 . S
O132 C131 1.550 . S
O132 C138 1.412 . S
H133 C131 0.973 . S
C134 H127 0.929 . S
C134 C135 1.400 . S
C134 C136 1.364 . S
C135 C134 1.400 . S
C135 C139 1.377 . S
C136 C134 1.364 . S
C136 C137 1.374 . S
C137 H128 0.930 . S
C137 C136 1.374 . S
C137 C138 1.383 . S
C138 O132 1.412 . S
C138 C137 1.383 . S
C138 C139 1.394 . S
C139 H129 0.929 . S
C139 C135 1.377 . S
C139 C138 1.394 . S
H140 C147 0.929 . S
H141 C150 0.930 . S
H142 C152 0.929 . S
H143 C144 0.969 . S
C144 H143 0.969 . S
C144 O145 1.550 . S
C144 H146 0.973 . S
O145 C144 1.550 . S
O145 C151 1.412 . S
H146 C144 0.973 . S
C147 H140 0.929 . S
C147 C148 1.400 . S
C147 C149 1.364 . S
C148 C147 1.400 . S
C148 C152 1.377 . S
C149 C147 1.364 . S
C149 C150 1.374 . S
C150 H141 0.930 . S
C150 C149 1.374 . S
C150 C151 1.383 . S
C151 O145 1.412 . S
C151 C150 1.383 . S
C151 C152 1.394 . S
C152 H142 0.929 . S
C152 C148 1.377 . S
C152 C151 1.394 . S
H153 C160 0.929 . S
H154 C163 0.930 . S
H155 C165 0.929 . S
H156 C157 0.969 . S
C157 H156 0.969 . S
C157 O158 1.550 . S
C157 H159 0.973 . S
O158 C157 1.550 . S
O158 C164 1.412 . S
H159 C157 0.973 . S
C160 H153 0.929 . S
C160 C161 1.400 . S
C160 C162 1.364 . S
C161 C160 1.400 . S
C161 C165 1.377 . S
C162 C160 1.364 . S
C162 C163 1.374 . S
C163 H154 0.930 . S
C163 C162 1.374 . S
C163 C164 1.383 . S
C164 O158 1.412 . S
C164 C163 1.383 . S
C164 C165 1.394 . S
C165 H155 0.929 . S
C165 C161 1.377 . S
C165 C164 1.394 . S
H166 C173 0.929 . S
H167 C176 0.930 . S
H168 C178 0.929 . S
H169 C170 0.969 . S
C170 H169 0.969 . S
C170 O171 1.550 . S
C170 H172 0.973 . S
O171 C170 1.550 . S
O171 C177 1.412 . S
H172 C170 0.973 . S
C173 H166 0.929 . S
C173 C174 1.400 . S
C173 C175 1.364 . S
C174 C173 1.400 . S
C174 C178 1.377 . S
C175 C173 1.364 . S
C175 C176 1.374 . S
C176 H167 0.930 . S
C176 C175 1.374 . S
C176 C177 1.383 . S
C177 O171 1.412 . S
C177 C176 1.383 . S
C177 C178 1.394 . S
C178 H168 0.929 . S
C178 C174 1.377 . S
C178 C177 1.394 . S
H179 C186 0.929 . S
H180 C189 0.930 . S
H181 C191 0.929 . S
H182 C183 0.969 . S
C183 H182 0.969 . S
C183 O184 1.550 . S
C183 H185 0.973 . S
O184 C183 1.550 . S
O184 C190 1.412 . S
H185 C183 0.973 . S
C186 H179 0.929 . S
C186 C187 1.400 . S
C186 C188 1.364 . S
C187 C186 1.400 . S
C187 C191 1.377 . S
C188 C186 1.364 . S
C188 C189 1.374 . S
C189 H180 0.930 . S
C189 C188 1.374 . S
C189 C190 1.383 . S
C190 O184 1.412 . S
C190 C189 1.383 . S
C190 C191 1.394 . S
C191 H181 0.929 . S
C191 C187 1.377 . S
C191 C190 1.394 . S
C192 C193 1.349 . S
C192 C194 1.327 . S
C192 H217 0.950 . S
C193 C192 1.349 . S
C193 C209 1.349 . S
C194 C192 1.327 . S
C194 C213 1.429 . S
C194 H218 0.950 . S
C195 C212 1.574 1_565 S
C195 C214 1.368 . S
C195 H219 0.949 . S
H196 C200 0.949 . S
C197 C198 1.349 . S
C197 C199 1.327 . S
C197 H220 0.950 . S
C198 C197 1.349 . S
C198 C210 1.349 . S
C199 C197 1.327 . S
C199 C215 1.429 . S
C199 H221 0.950 . S
C200 H196 0.949 . S
C200 C208 1.574 . S
C200 C216 1.368 . S
H201 C209 0.950 . S
H202 C207 0.950 . S
H203 C208 0.949 . S
H204 C210 0.950 . S
H205 C211 0.950 1_565 S
H206 C212 0.949 . S
C207 H202 0.950 . S
C207 C209 1.327 . S
C207 C213 1.429 . S
C208 C200 1.574 . S
C208 H203 0.949 . S
C208 C214 1.368 . S
C209 C193 1.349 . S
C209 H201 0.950 . S
C209 C207 1.327 . S
C210 C198 1.349 . S
C210 H204 0.950 . S
C210 C211 1.327 . S
C211 H205 0.950 1_545 S
C211 C210 1.327 . S
C211 C215 1.429 . S
C212 C195 1.574 1_545 S
C212 H206 0.949 . S
C212 C216 1.368 1_545 S
C213 C194 1.429 . S
C213 C207 1.429 . S
C213 C214 1.523 . S
C214 C195 1.368 . S
C214 C208 1.368 . S
C214 C213 1.523 . S
C215 C199 1.429 . S
C215 C211 1.429 . S
C215 C216 1.523 1_545 S
C216 C200 1.368 . S
C216 C212 1.368 1_565 S
C216 C215 1.523 1_565 S
H217 C192 0.950 . S
H218 C194 0.950 . S
H219 C195 0.949 . S
H220 C197 0.950 . S
H221 C199 0.950 . S
C222 C223 1.349 . S
C222 C224 1.327 . S
C222 H247 0.950 . S
C223 C222 1.349 . S
C223 C239 1.349 . S
C224 C222 1.327 . S
C224 C243 1.429 . S
C224 H248 0.950 . S
C225 C242 1.574 . S
C225 C244 1.368 . S
C225 H249 0.949 . S
H226 C230 0.949 . S
C227 C228 1.349 . S
C227 C229 1.327 . S
C227 H250 0.950 . S
C228 C227 1.349 . S
C228 C240 1.349 . S
C229 C227 1.327 . S
C229 C245 1.429 . S
C229 H251 0.950 . S
C230 H226 0.949 . S
C230 C238 1.574 . S
C230 C246 1.368 . S
H231 C239 0.950 . S
H232 C237 0.950 . S
H233 C238 0.949 . S
H234 C240 0.950 . S
H235 C241 0.950 . S
H236 C242 0.949 . S
C237 H232 0.950 . S
C237 C239 1.327 . S
C237 C243 1.429 . S
C238 C230 1.574 . S
C238 H233 0.949 . S
C238 C244 1.368 . S
C239 C223 1.349 . S
C239 H231 0.950 . S
C239 C237 1.327 . S
C240 C228 1.349 . S
C240 H234 0.950 . S
C240 C241 1.327 . S
C241 H235 0.950 . S
C241 C240 1.327 . S
C241 C245 1.429 . S
C242 C225 1.574 . S
C242 H236 0.949 . S
C242 C246 1.368 . S
C243 C224 1.429 . S
C243 C237 1.429 . S
C243 C244 1.523 . S
C244 C225 1.368 . S
C244 C238 1.368 . S
C244 C243 1.523 . S
C245 C229 1.429 . S
C245 C241 1.429 . S
C245 C246 1.523 . S
C246 C230 1.368 . S
C246 C242 1.368 . S
C246 C245 1.523 . S
H247 C222 0.950 . S
H248 C224 0.950 . S
H249 C225 0.949 . S
H250 C227 0.950 . S
H251 C229 0.950 . S
C252 C253 1.349 . S
C252 C254 1.327 . S
C252 H277 0.950 . S
C253 C252 1.349 . S
C253 C269 1.349 . S
C254 C252 1.327 . S
C254 C273 1.429 . S
C254 H278 0.978 . S
C255 C272 1.574 . S
C255 C274 1.368 . S
C255 H279 0.949 . S
H256 C260 0.949 . S
C257 C258 1.349 . S
C257 C259 1.327 . S
C257 H280 0.950 . S
C258 C257 1.349 . S
C258 C270 1.349 . S
C259 C257 1.327 . S
C259 C275 1.429 . S
C259 H281 0.950 . S
C260 H256 0.949 . S
C260 C268 1.574 . S
C260 C276 1.368 . S
H261 C269 0.950 . S
H262 C267 0.950 . S
H263 C268 0.949 . S
H264 C270 0.950 . S
H265 C271 0.950 . S
H266 C272 0.949 . S
C267 H262 0.950 . S
C267 C269 1.327 . S
C267 C273 1.429 . S
C268 C260 1.574 . S
C268 H263 0.949 . S
C268 C274 1.368 . S
C269 C253 1.349 . S
C269 H261 0.950 . S
C269 C267 1.327 . S
C270 C258 1.349 . S
C270 H264 0.950 . S
C270 C271 1.327 . S
C271 H265 0.950 . S
C271 C270 1.327 . S
C271 C275 1.429 . S
C272 C255 1.574 . S
C272 H266 0.949 . S
C272 C276 1.368 . S
C273 C254 1.429 . S
C273 C267 1.429 . S
C273 C274 1.523 1_545 S
C274 C255 1.368 . S
C274 C268 1.368 . S
C274 C273 1.523 1_565 S
C275 C259 1.429 . S
C275 C271 1.429 . S
C275 C276 1.523 . S
C276 C260 1.368 . S
C276 C272 1.368 . S
C276 C275 1.523 . S
H277 C252 0.950 . S
H278 C254 0.978 . S
H279 C255 0.949 . S
H280 C257 0.950 . S
H281 C259 0.950 . S
C282 C283 1.349 . S
C282 C284 1.327 . S
C282 H307 0.950 . S
C283 C282 1.349 . S
C283 C299 1.349 . S
C284 C282 1.327 . S
C284 C303 1.429 . S
C284 H308 0.950 . S
C285 C302 1.574 . S
C285 C304 1.368 . S
C285 H309 0.949 . S
H286 C290 0.949 . S
C287 C288 1.349 . S
C287 C289 1.327 . S
C287 H310 0.950 . S
C288 C287 1.349 . S
C288 C300 1.349 . S
C289 C287 1.327 . S
C289 C305 1.429 . S
C289 H311 0.950 . S
C290 H286 0.949 . S
C290 C298 1.574 . S
C290 C306 1.368 . S
H291 C299 0.950 . S
H292 C297 0.950 . S
H293 C298 0.949 . S
H294 C300 0.950 . S
H295 C301 0.950 . S
H296 C302 0.949 . S
C297 H292 0.950 . S
C297 C299 1.327 . S
C297 C303 1.429 . S
C298 C290 1.574 . S
C298 H293 0.949 . S
C298 C304 1.368 . S
C299 C283 1.349 . S
C299 H291 0.950 . S
C299 C297 1.327 . S
C300 C288 1.349 . S
C300 H294 0.950 . S
C300 C301 1.327 . S
C301 H295 0.950 . S
C301 C300 1.327 . S
C301 C305 1.429 . S
C302 C285 1.574 . S
C302 H296 0.949 . S
C302 C306 1.368 . S
C303 C284 1.429 . S
C303 C297 1.429 . S
C303 C304 1.523 . S
C304 C285 1.368 . S
C304 C298 1.368 . S
C304 C303 1.523 . S
C305 C289 1.429 . S
C305 C301 1.429 . S
C305 C306 1.523 . S
C306 C290 1.368 . S
C306 C302 1.368 . S
C306 C305 1.523 . S
H307 C282 0.950 . S
H308 C284 0.950 . S
H309 C285 0.949 . S
H310 C287 0.950 . S
H311 C289 0.950 . S
C312 C313 1.349 . S
C312 C314 1.327 . S
C312 H337 0.950 . S
C313 C312 1.349 . S
C313 C329 1.349 . S
C314 C312 1.327 . S
C314 C333 1.429 . S
C314 H338 0.950 . S
C315 C332 1.574 . S
C315 C334 1.368 . S
C315 H339 0.949 . S
H316 C320 0.949 . S
C317 C318 1.349 . S
C317 C319 1.327 . S
C317 H340 0.950 . S
C318 C317 1.349 . S
C318 C330 1.349 . S
C319 C317 1.327 . S
C319 C335 1.429 . S
C319 H341 0.950 . S
C320 H316 0.949 . S
C320 C328 1.574 . S
C320 C336 1.368 . S
H321 C329 0.950 . S
H322 C327 0.950 . S
H323 C328 0.949 . S
H324 C330 0.950 . S
H325 C331 0.950 . S
H326 C332 0.949 . S
C327 H322 0.950 . S
C327 C329 1.327 . S
C327 C333 1.429 . S
C328 C320 1.574 . S
C328 H323 0.949 . S
C328 C334 1.368 . S
C329 C313 1.349 . S
C329 H321 0.950 . S
C329 C327 1.327 . S
C330 C318 1.349 . S
C330 H324 0.950 . S
C330 C331 1.327 . S
C331 H325 0.950 . S
C331 C330 1.327 . S
C331 C335 1.429 . S
C332 C315 1.574 . S
C332 H326 0.949 . S
C332 C336 1.368 . S
C333 C314 1.429 . S
C333 C327 1.429 . S
C333 C334 1.523 . S
C334 C315 1.368 . S
C334 C328 1.368 . S
C334 C333 1.523 . S
C335 C319 1.429 . S
C335 C331 1.429 . S
C335 C336 1.523 . S
C336 C320 1.368 . S
C336 C332 1.368 . S
C336 C335 1.523 . S
H337 C312 0.950 . S
H338 C314 0.950 . S
H339 C315 0.949 . S
H340 C317 0.950 . S
H341 C319 0.950 . S
C342 C343 1.349 . S
C342 C344 1.327 . S
C342 H367 0.950 . S
C343 C342 1.349 . S
C343 C359 1.349 1_556 S
C344 C342 1.327 . S
C344 C363 1.429 . S
C344 H368 0.950 . S
C345 C362 1.574 . S
C345 C364 1.368 . S
C345 H369 0.949 . S
H346 C350 0.949 . S
C347 C348 1.349 . S
C347 C349 1.327 . S
C347 H370 0.950 . S
C348 C347 1.349 . S
C348 C360 1.349 . S
C349 C347 1.327 . S
C349 C365 1.429 . S
C349 H371 0.950 . S
C350 H346 0.949 . S
C350 C358 1.574 . S
C350 C366 1.368 . S
H351 C359 0.950 . S
H352 C357 0.950 1_554 S
H353 C358 0.949 . S
H354 C360 0.950 . S
H355 C361 0.950 . S
H356 C362 0.949 . S
C357 H352 0.950 1_556 S
C357 C359 1.327 1_556 S
C357 C363 1.429 . S
C358 C350 1.574 . S
C358 H353 0.949 . S
C358 C364 1.368 . S
C359 C343 1.349 1_554 S
C359 H351 0.950 . S
C359 C357 1.327 1_554 S
C360 C348 1.349 . S
C360 H354 0.950 . S
C360 C361 1.327 . S
C361 H355 0.950 . S
C361 C360 1.327 . S
C361 C365 1.429 . S
C362 C345 1.574 . S
C362 H356 0.949 . S
C362 C366 1.368 . S
C363 C344 1.429 . S
C363 C357 1.429 . S
C363 C364 1.523 1_655 S
C364 C345 1.368 . S
C364 C358 1.368 . S
C364 C363 1.523 1_455 S
C365 C349 1.429 . S
C365 C361 1.429 . S
C365 C366 1.523 . S
C366 C350 1.368 . S
C366 C362 1.368 . S
C366 C365 1.523 . S
H367 C342 0.950 . S
H368 C344 0.950 . S
H369 C345 0.949 . S
H370 C347 0.950 . S
H371 C349 0.950 . S
C372 C373 1.349 . S
C372 C374 1.327 . S
C372 H397 0.950 . S
C373 C372 1.349 . S
C373 C389 1.349 . S
C374 C372 1.327 . S
C374 C393 1.429 . S
C374 H398 0.950 . S
C375 C392 1.574 . S
C375 C394 1.368 . S
C375 H399 0.949 . S
H376 C380 0.949 . S
C377 C378 1.349 . S
C377 C379 1.327 . S
C377 H400 0.950 . S
C378 C377 1.349 . S
C378 C390 1.349 . S
C379 C377 1.327 . S
C379 C395 1.429 . S
C379 H401 0.950 . S
C380 H376 0.949 . S
C380 C388 1.574 . S
C380 C396 1.368 . S
H381 C389 0.950 . S
H382 C387 0.950 . S
H383 C388 0.949 . S
H384 C390 0.950 . S
H385 C391 0.950 . S
H386 C392 0.949 . S
C387 H382 0.950 . S
C387 C389 1.327 . S
C387 C393 1.429 . S
C388 C380 1.574 . S
C388 H383 0.949 . S
C388 C394 1.368 . S
C389 C373 1.349 . S
C389 H381 0.950 . S
C389 C387 1.327 . S
C390 C378 1.349 . S
C390 H384 0.950 . S
C390 C391 1.327 . S
C391 H385 0.950 . S
C391 C390 1.327 . S
C391 C395 1.429 . S
C392 C375 1.574 . S
C392 H386 0.949 . S
C392 C396 1.368 . S
C393 C374 1.429 . S
C393 C387 1.429 . S
C393 C394 1.523 . S
C394 C375 1.368 . S
C394 C388 1.368 . S
C394 C393 1.523 . S
C395 C379 1.429 . S
C395 C391 1.429 . S
C395 C396 1.523 . S
C396 C380 1.368 . S
C396 C392 1.368 . S
C396 C395 1.523 . S
H397 C372 0.950 . S
H398 C374 0.950 . S
H399 C375 0.949 . S
H400 C377 0.950 . S
H401 C379 0.950 . S
C402 C403 1.349 . S
C402 C404 1.327 . S
C402 H427 0.950 . S
C403 C402 1.349 . S
C403 C419 1.349 . S
C404 C402 1.327 . S
C404 C423 1.429 . S
C404 H428 0.950 . S
C405 C422 1.574 . S
C405 C424 1.368 . S
C405 H429 0.949 1_655 S
H406 C410 0.949 . S
C407 C408 1.349 . S
C407 C409 1.327 . S
C407 H430 0.950 . S
C408 C407 1.349 . S
C408 C420 1.349 . S
C409 C407 1.327 . S
C409 C425 1.429 . S
C409 H431 0.950 . S
C410 H406 0.949 . S
C410 C418 1.574 . S
C410 C426 1.368 . S
H411 C419 0.950 . S
H412 C417 0.950 . S
H413 C418 0.949 . S
H414 C420 0.950 . S
H415 C421 0.950 . S
H416 C422 0.949 . S
C417 H412 0.950 . S
C417 C419 1.327 . S
C417 C423 1.429 . S
C418 C410 1.574 . S
C418 H413 0.949 . S
C418 C424 1.368 . S
C419 C403 1.349 . S
C419 H411 0.950 . S
C419 C417 1.327 . S
C420 C408 1.349 . S
C420 H414 0.950 . S
C420 C421 1.327 . S
C421 H415 0.950 . S
C421 C420 1.327 . S
C421 C425 1.429 . S
C422 C405 1.574 . S
C422 H416 0.949 . S
C422 C426 1.368 . S
C423 C404 1.429 . S
C423 C417 1.429 . S
C423 C424 1.523 1_455 S
C424 C405 1.368 . S
C424 C418 1.368 . S
C424 C423 1.523 1_655 S
C425 C409 1.429 . S
C425 C421 1.429 . S
C425 C426 1.523 . S
C426 C410 1.368 . S
C426 C422 1.368 . S
C426 C425 1.523 . S
H427 C402 0.950 . S
H428 C404 0.950 . S
H429 C405 0.949 1_455 S
H430 C407 0.950 . S
H431 C409 0.950 . S
C432 C433 1.349 . S
C432 C434 1.327 . S
C432 H457 0.950 . S
C433 C432 1.349 . S
C433 C449 1.349 . S
C434 C432 1.327 . S
C434 C453 1.429 . S
C434 H458 0.950 . S
C435 C452 1.552 1_545 S
C435 C454 1.368 . S
C435 H459 0.949 . S
H436 C440 0.949 . S
C437 C438 1.349 . S
C437 C439 1.327 . S
C437 H460 0.950 . S
C438 C437 1.349 . S
C438 C450 1.349 . S
C439 C437 1.327 . S
C439 C455 1.429 . S
C439 H461 0.950 . S
C440 H436 0.949 . S
C440 C448 1.574 . S
C440 C456 1.368 . S
H441 C449 0.950 . S
H442 C447 0.950 . S
H443 C448 0.949 . S
H444 C450 0.950 . S
H445 C451 0.950 . S
H446 C452 0.973 . S
C447 H442 0.950 . S
C447 C449 1.327 . S
C447 C453 1.429 . S
C448 C440 1.574 . S
C448 H443 0.949 . S
C448 C454 1.368 . S
C449 C433 1.349 . S
C449 H441 0.950 . S
C449 C447 1.327 . S
C450 C438 1.349 . S
C450 H444 0.950 . S
C450 C451 1.327 . S
C451 H445 0.950 . S
C451 C450 1.327 . S
C451 C455 1.429 . S
C452 C435 1.552 1_565 S
C452 H446 0.973 . S
C452 C456 1.365 1_565 S
C453 C434 1.429 . S
C453 C447 1.429 . S
C453 C454 1.523 . S
C454 C435 1.368 . S
C454 C448 1.368 . S
C454 C453 1.523 . S
C455 C439 1.429 . S
C455 C451 1.429 . S
C455 C456 1.523 1_565 S
C456 C440 1.368 . S
C456 C452 1.365 1_545 S
C456 C455 1.523 1_545 S
H457 C432 0.950 . S
H458 C434 0.950 . S
H459 C435 0.949 . S
H460 C437 0.950 . S
H461 C439 0.950 . S
C462 C463 1.349 . S
C462 C464 1.327 . S
C462 H487 0.950 . S
C463 C462 1.349 . S
C463 C479 1.349 . S
C464 C462 1.327 . S
C464 C483 1.429 . S
C464 H488 0.950 . S
C465 C482 1.574 . S
C465 C484 1.368 . S
C465 H489 0.949 . S
H466 C470 0.949 . S
C467 C468 1.349 . S
C467 C469 1.327 . S
C467 H490 0.950 . S
C468 C467 1.349 . S
C468 C480 1.349 . S
C469 C467 1.327 . S
C469 C485 1.429 . S
C469 H491 0.950 . S
C470 H466 0.949 . S
C470 C478 1.574 . S
C470 C486 1.368 . S
H471 C479 0.950 . S
H472 C477 0.950 . S
H473 C478 0.949 . S
H474 C480 0.950 . S
H475 C481 0.950 . S
H476 C482 0.949 . S
C477 H472 0.950 . S
C477 C479 1.327 . S
C477 C483 1.429 . S
C478 C470 1.574 . S
C478 H473 0.949 . S
C478 C484 1.368 . S
C479 C463 1.349 . S
C479 H471 0.950 . S
C479 C477 1.327 . S
C480 C468 1.349 . S
C480 H474 0.950 . S
C480 C481 1.327 . S
C481 H475 0.950 . S
C481 C480 1.327 . S
C481 C485 1.429 . S
C482 C465 1.574 . S
C482 H476 0.949 . S
C482 C486 1.368 . S
C483 C464 1.429 . S
C483 C477 1.429 . S
C483 C484 1.523 . S
C484 C465 1.368 . S
C484 C478 1.368 . S
C484 C483 1.523 . S
C485 C469 1.429 . S
C485 C481 1.429 . S
C485 C486 1.523 . S
C486 C470 1.368 . S
C486 C482 1.368 . S
C486 C485 1.523 . S
H487 C462 0.950 . S
H488 C464 0.950 . S
H489 C465 0.949 . S
H490 C467 0.950 . S
H491 C469 0.950 . S
C492 C493 1.349 . S
C492 C494 1.327 . S
C492 H517 0.950 . S
C493 C492 1.349 . S
C493 C509 1.349 . S
C494 C492 1.327 . S
C494 C513 1.429 . S
C494 H518 0.950 . S
C495 C512 1.574 . S
C495 C514 1.368 . S
C495 H519 0.949 . S
H496 C500 0.949 . S
C497 C498 1.349 . S
C497 C499 1.327 . S
C497 H520 0.950 . S
C498 C497 1.349 . S
C498 C510 1.349 . S
C499 C497 1.327 . S
C499 C515 1.429 . S
C499 H521 0.950 . S
C500 H496 0.949 . S
C500 C508 1.574 . S
C500 C516 1.368 . S
H501 C509 0.950 . S
H502 C507 0.950 . S
H503 C508 0.949 . S
H504 C510 0.950 . S
H505 C511 0.950 . S
H506 C512 0.949 . S
C507 H502 0.950 . S
C507 C509 1.327 . S
C507 C513 1.429 . S
C508 C500 1.574 . S
C508 H503 0.949 . S
C508 C514 1.368 . S
C509 C493 1.349 . S
C509 H501 0.950 . S
C509 C507 1.327 . S
C510 C498 1.349 . S
C510 H504 0.950 . S
C510 C511 1.327 . S
C511 H505 0.950 . S
C511 C510 1.327 . S
C511 C515 1.429 . S
C512 C495 1.574 . S
C512 H506 0.949 . S
C512 C516 1.368 . S
C513 C494 1.429 . S
C513 C507 1.429 . S
C513 C514 1.523 1_565 S
C514 C495 1.368 . S
C514 C508 1.368 . S
C514 C513 1.523 1_545 S
C515 C499 1.429 . S
C515 C511 1.429 . S
C515 C516 1.523 . S
C516 C500 1.368 . S
C516 C512 1.368 . S
C516 C515 1.523 . S
H517 C492 0.950 . S
H518 C494 0.950 . S
H519 C495 0.949 . S
H520 C497 0.950 . S
H521 C499 0.950 . S
C522 C523 1.349 . S
C522 C524 1.327 . S
C522 H547 0.950 . S
C523 C522 1.349 . S
C523 C539 1.349 . S
C524 C522 1.327 . S
C524 C543 1.429 . S
C524 H548 0.950 . S
C525 C542 1.574 . S
C525 C544 1.368 . S
C525 H549 0.949 . S
H526 C530 0.949 . S
C527 C528 1.349 . S
C527 C529 1.327 . S
C527 H550 0.950 . S
C528 C527 1.349 . S
C528 C540 1.349 . S
C529 C527 1.327 . S
C529 C545 1.429 . S
C529 H551 0.950 . S
C530 H526 0.949 . S
C530 C538 1.574 . S
C530 C546 1.368 . S
H531 C539 0.950 . S
H532 C537 0.950 . S
H533 C538 0.949 . S
H534 C540 0.950 . S
H535 C541 0.950 . S
H536 C542 0.949 . S
C537 H532 0.950 . S
C537 C539 1.327 . S
C537 C543 1.429 . S
C538 C530 1.574 . S
C538 H533 0.949 . S
C538 C544 1.368 . S
C539 C523 1.349 . S
C539 H531 0.950 . S
C539 C537 1.327 . S
C540 C528 1.349 . S
C540 H534 0.950 . S
C540 C541 1.327 . S
C541 H535 0.950 . S
C541 C540 1.327 . S
C541 C545 1.429 . S
C542 C525 1.574 . S
C542 H536 0.949 . S
C542 C546 1.368 . S
C543 C524 1.429 . S
C543 C537 1.429 . S
C543 C544 1.523 . S
C544 C525 1.368 . S
C544 C538 1.368 . S
C544 C543 1.523 . S
C545 C529 1.429 . S
C545 C541 1.429 . S
C545 C546 1.523 . S
C546 C530 1.368 . S
C546 C542 1.368 . S
C546 C545 1.523 . S
H547 C522 0.950 . S
H548 C524 0.950 . S
H549 C525 0.949 . S
H550 C527 0.950 . S
H551 C529 0.950 . S
C552 C553 1.349 . S
C552 C554 1.327 . S
C552 H577 0.950 . S
C553 C552 1.349 . S
C553 C569 1.349 . S
C554 C552 1.327 . S
C554 C573 1.429 . S
C554 H578 0.950 . S
C555 C572 1.574 . S
C555 C574 1.368 . S
C555 H579 0.949 . S
H556 C560 0.949 . S
C557 C558 1.349 . S
C557 C559 1.327 . S
C557 H580 0.950 . S
C558 C557 1.349 . S
C558 C570 1.349 . S
C559 C557 1.327 . S
C559 C575 1.429 . S
C559 H581 0.950 . S
C560 H556 0.949 . S
C560 C568 1.574 . S
C560 C576 1.368 . S
H561 C569 0.950 . S
H562 C567 0.950 . S
H563 C568 0.949 . S
H564 C570 0.950 . S
H565 C571 0.950 . S
H566 C572 0.949 . S
C567 H562 0.950 . S
C567 C569 1.327 . S
C567 C573 1.429 . S
C568 C560 1.574 . S
C568 H563 0.949 . S
C568 C574 1.368 . S
C569 C553 1.349 . S
C569 H561 0.950 . S
C569 C567 1.327 . S
C570 C558 1.349 . S
C570 H564 0.950 . S
C570 C571 1.327 . S
C571 H565 0.950 . S
C571 C570 1.327 . S
C571 C575 1.429 . S
C572 C555 1.574 . S
C572 H566 0.949 . S
C572 C576 1.368 . S
C573 C554 1.429 . S
C573 C567 1.429 . S
C573 C574 1.523 . S
C574 C555 1.368 . S
C574 C568 1.368 . S
C574 C573 1.523 . S
C575 C559 1.429 . S
C575 C571 1.429 . S
C575 C576 1.523 . S
C576 C560 1.368 . S
C576 C572 1.368 . S
C576 C575 1.523 . S
H577 C552 0.950 . S
H578 C554 0.950 . S
H579 C555 0.949 . S
H580 C557 0.950 . S
H581 C559 0.950 . S
C582 C583 1.349 . S
C582 C584 1.327 . S
C582 H607 0.950 . S
C583 C582 1.349 . S
C583 C599 1.349 . S
C584 C582 1.327 . S
C584 C603 1.429 . S
C584 H608 0.950 . S
C585 C602 1.574 . S
C585 C604 1.368 . S
C585 H609 0.949 . S
H586 C590 0.949 . S
C587 C588 1.349 . S
C587 C589 1.327 . S
C587 H610 0.950 . S
C588 C587 1.349 . S
C588 C600 1.349 . S
C589 C587 1.327 . S
C589 C605 1.429 . S
C589 H611 0.950 . S
C590 H586 0.949 . S
C590 C598 1.574 . S
C590 C606 1.368 . S
H591 C599 0.950 . S
H592 C597 0.950 . S
H593 C598 0.949 . S
H594 C600 0.950 . S
H595 C601 0.950 . S
H596 C602 0.949 . S
C597 H592 0.950 . S
C597 C599 1.327 . S
C597 C603 1.429 . S
C598 C590 1.574 . S
C598 H593 0.949 . S
C598 C604 1.368 . S
C599 C583 1.349 . S
C599 H591 0.950 . S
C599 C597 1.327 . S
C600 C588 1.349 . S
C600 H594 0.950 . S
C600 C601 1.327 . S
C601 H595 0.950 . S
C601 C600 1.327 . S
C601 C605 1.429 . S
C602 C585 1.574 . S
C602 H596 0.949 . S
C602 C606 1.368 . S
C603 C584 1.429 . S
C603 C597 1.429 . S
C603 C604 1.523 1_455 S
C604 C585 1.368 . S
C604 C598 1.368 . S
C604 C603 1.523 1_655 S
C605 C589 1.429 . S
C605 C601 1.429 . S
C605 C606 1.523 . S
C606 C590 1.368 . S
C606 C602 1.368 . S
C606 C605 1.523 . S
H607 C582 0.950 . S
H608 C584 0.950 . S
H609 C585 0.949 . S
H610 C587 0.950 . S
H611 C589 0.950 . S
C612 C613 1.349 . S
C612 C614 1.327 . S
C612 H637 0.950 . S
C613 C612 1.349 . S
C613 C629 1.349 . S
C614 C612 1.327 . S
C614 C633 1.429 . S
C614 H638 0.950 . S
C615 C632 1.574 . S
C615 C634 1.368 . S
C615 H639 0.949 . S
H616 C620 0.949 . S
C617 C618 1.349 . S
C617 C619 1.327 . S
C617 H640 0.950 . S
C618 C617 1.349 . S
C618 C630 1.349 . S
C619 C617 1.327 . S
C619 C635 1.429 . S
C619 H641 0.950 . S
C620 H616 0.949 . S
C620 C628 1.574 . S
C620 C636 1.368 . S
H621 C629 0.950 . S
H622 C627 0.950 . S
H623 C628 0.949 . S
H624 C630 0.950 . S
H625 C631 0.950 . S
H626 C632 0.949 . S
C627 H622 0.950 . S
C627 C629 1.327 . S
C627 C633 1.429 . S
C628 C620 1.574 . S
C628 H623 0.949 . S
C628 C634 1.368 . S
C629 C613 1.349 . S
C629 H621 0.950 . S
C629 C627 1.327 . S
C630 C618 1.349 . S
C630 H624 0.950 . S
C630 C631 1.327 . S
C631 H625 0.950 . S
C631 C630 1.327 . S
C631 C635 1.429 . S
C632 C615 1.574 . S
C632 H626 0.949 . S
C632 C636 1.368 . S
C633 C614 1.429 . S
C633 C627 1.429 . S
C633 C634 1.523 . S
C634 C615 1.368 . S
C634 C628 1.368 . S
C634 C633 1.523 . S
C635 C619 1.429 . S
C635 C631 1.429 . S
C635 C636 1.523 . S
C636 C620 1.368 . S
C636 C632 1.368 . S
C636 C635 1.523 . S
H637 C612 0.950 . S
H638 C614 0.950 . S
H639 C615 0.949 . S
H640 C617 0.950 . S
H641 C619 0.950 . S
C642 C643 1.349 . S
C642 C644 1.327 . S
C642 H667 0.950 . S
C643 C642 1.349 . S
C643 C659 1.349 . S
C644 C642 1.327 . S
C644 C663 1.429 . S
C644 H668 0.950 . S
C645 C662 1.574 . S
C645 C664 1.368 . S
C645 H669 0.949 . S
H646 C650 0.949 . S
C647 C648 1.349 . S
C647 C649 1.327 . S
C647 H670 0.950 . S
C648 C647 1.349 . S
C648 C660 1.349 . S
C649 C647 1.327 . S
C649 C665 1.429 . S
C649 H671 0.950 . S
C650 H646 0.949 . S
C650 C658 1.574 . S
C650 C666 1.368 . S
H651 C659 0.950 . S
H652 C657 0.950 . S
H653 C658 0.949 1_655 S
H654 C660 0.950 . S
H655 C661 0.950 . S
H656 C662 0.949 . S
C657 H652 0.950 . S
C657 C659 1.327 . S
C657 C663 1.429 . S
C658 C650 1.574 . S
C658 H653 0.949 1_455 S
C658 C664 1.368 . S
C659 C643 1.349 . S
C659 H651 0.950 . S
C659 C657 1.327 . S
C660 C648 1.349 . S
C660 H654 0.950 . S
C660 C661 1.327 . S
C661 H655 0.950 . S
C661 C660 1.327 . S
C661 C665 1.429 . S
C662 C645 1.574 . S
C662 H656 0.949 . S
C662 C666 1.368 . S
C663 C644 1.429 . S
C663 C657 1.429 . S
C663 C664 1.523 1_655 S
C664 C645 1.368 . S
C664 C658 1.368 . S
C664 C663 1.523 1_455 S
C665 C649 1.429 . S
C665 C661 1.429 . S
C665 C666 1.523 . S
C666 C650 1.368 . S
C666 C662 1.368 . S
C666 C665 1.523 . S
H667 C642 0.950 . S
H668 C644 0.950 . S
H669 C645 0.949 . S
H670 C647 0.950 . S
H671 C649 0.950 . S
C672 C673 1.349 . S
C672 C674 1.327 . S
C672 H697 0.950 . S
C673 C672 1.349 . S
C673 C689 1.349 . S
C674 C672 1.327 . S
C674 C693 1.429 . S
C674 H698 0.950 . S
C675 C692 1.574 . S
C675 C694 1.368 . S
C675 H699 0.949 . S
H676 C680 0.949 . S
C677 C678 1.349 . S
C677 C679 1.327 . S
C677 H700 0.950 . S
C678 C677 1.349 . S
C678 C690 1.349 . S
C679 C677 1.327 . S
C679 C695 1.429 . S
C679 H701 0.950 . S
C680 H676 0.949 . S
C680 C688 1.574 . S
C680 C696 1.368 . S
H681 C689 0.950 . S
H682 C687 0.950 . S
H683 C688 0.949 . S
H684 C690 0.950 . S
H685 C691 0.950 . S
H686 C692 0.949 . S
C687 H682 0.950 . S
C687 C689 1.327 . S
C687 C693 1.429 . S
C688 C680 1.574 . S
C688 H683 0.949 . S
C688 C694 1.368 . S
C689 C673 1.349 . S
C689 H681 0.950 . S
C689 C687 1.327 . S
C690 C678 1.349 . S
C690 H684 0.950 . S
C690 C691 1.327 . S
C691 H685 0.950 . S
C691 C690 1.327 . S
C691 C695 1.429 . S
C692 C675 1.574 . S
C692 H686 0.949 . S
C692 C696 1.368 . S
C693 C674 1.429 . S
C693 C687 1.429 . S
C693 C694 1.523 . S
C694 C675 1.368 . S
C694 C688 1.368 . S
C694 C693 1.523 . S
C695 C679 1.429 . S
C695 C691 1.429 . S
C695 C696 1.523 . S
C696 C680 1.368 . S
C696 C692 1.368 . S
C696 C695 1.523 . S
H697 C672 0.950 . S
H698 C674 0.950 . S
H699 C675 0.949 . S
H700 C677 0.950 . S
H701 C679 0.950 . S
C702 C703 1.349 . S
C702 C704 1.327 . S
C702 H727 0.950 . S
C703 C702 1.349 . S
C703 C719 1.349 . S
C704 C702 1.327 . S
C704 C723 1.429 . S
C704 H728 0.950 . S
C705 C722 1.574 . S
C705 C724 1.368 . S
C705 H729 0.949 . S
H706 C710 0.949 . S
C707 C708 1.349 . S
C707 C709 1.327 . S
C707 H730 0.950 . S
C708 C707 1.349 . S
C708 C720 1.349 . S
C709 C707 1.327 . S
C709 C725 1.429 . S
C709 H731 0.950 . S
C710 H706 0.949 . S
C710 C718 1.574 . S
C710 C726 1.368 . S
H711 C719 0.950 . S
H712 C717 0.950 . S
H713 C718 0.949 . S
H714 C720 0.950 . S
H715 C721 0.950 . S
H716 C722 0.949 . S
C717 H712 0.950 . S
C717 C719 1.327 . S
C717 C723 1.429 . S
C718 C710 1.574 . S
C718 H713 0.949 . S
C718 C724 1.368 . S
C719 C703 1.349 . S
C719 H711 0.950 . S
C719 C717 1.327 . S
C720 C708 1.349 . S
C720 H714 0.950 . S
C720 C721 1.327 . S
C721 H715 0.950 . S
C721 C720 1.327 . S
C721 C725 1.429 . S
C722 C705 1.574 . S
C722 H716 0.949 . S
C722 C726 1.368 . S
C723 C704 1.429 . S
C723 C717 1.429 . S
C723 C724 1.523 . S
C724 C705 1.368 . S
C724 C718 1.368 . S
C724 C723 1.523 . S
C725 C709 1.429 . S
C725 C721 1.429 . S
C725 C726 1.523 . S
C726 C710 1.368 . S
C726 C722 1.368 . S
C726 C725 1.523 . S
H727 C702 0.950 . S
H728 C704 0.950 . S
H729 C705 0.949 . S
H730 C707 0.950 . S
H731 C709 0.950 . S
C732 C733 1.349 . S
C732 C734 1.327 . S
C732 H757 0.950 . S
C733 C732 1.349 . S
C733 C749 1.349 . S
C734 C732 1.327 . S
C734 C753 1.429 . S
C734 H758 0.950 . S
C735 C752 1.574 . S
C735 C754 1.368 . S
C735 H759 0.949 . S
H736 C740 0.949 . S
C737 C738 1.349 . S
C737 C739 1.327 . S
C737 H760 0.950 . S
C738 C737 1.349 . S
C738 C750 1.349 . S
C739 C737 1.327 . S
C739 C755 1.429 . S
C739 H761 0.950 . S
C740 H736 0.949 . S
C740 C748 1.574 . S
C740 C756 1.368 . S
H741 C749 0.950 . S
H742 C747 0.950 . S
H743 C748 0.949 . S
H744 C750 0.950 . S
H745 C751 0.950 . S
H746 C752 0.949 . S
C747 H742 0.950 . S
C747 C749 1.327 . S
C747 C753 1.429 . S
C748 C740 1.574 . S
C748 H743 0.949 . S
C748 C754 1.368 . S
C749 C733 1.349 . S
C749 H741 0.950 . S
C749 C747 1.327 . S
C750 C738 1.349 . S
C750 H744 0.950 . S
C750 C751 1.327 . S
C751 H745 0.950 . S
C751 C750 1.327 . S
C751 C755 1.429 . S
C752 C735 1.574 . S
C752 H746 0.949 . S
C752 C756 1.368 . S
C753 C734 1.429 . S
C753 C747 1.429 . S
C753 C754 1.523 . S
C754 C735 1.368 . S
C754 C748 1.368 . S
C754 C753 1.523 . S
C755 C739 1.429 . S
C755 C751 1.429 . S
C755 C756 1.523 . S
C756 C740 1.368 . S
C756 C752 1.368 . S
C756 C755 1.523 . S
H757 C732 0.950 . S
H758 C734 0.950 . S
H759 C735 0.949 . S
H760 C737 0.950 . S
H761 C739 0.950 . S
C762 C763 1.349 . S
C762 C764 1.327 . S
C762 H787 0.950 . S
C763 C762 1.349 . S
C763 C779 1.349 . S
C764 C762 1.327 . S
C764 C783 1.429 . S
C764 H788 0.950 . S
C765 C782 1.574 . S
C765 C784 1.368 . S
C765 H789 0.949 . S
H766 C770 0.949 . S
C767 C768 1.349 . S
C767 C769 1.327 . S
C767 H790 0.950 . S
C768 C767 1.349 . S
C768 C780 1.349 . S
C769 C767 1.327 . S
C769 C785 1.429 . S
C769 H791 0.950 . S
C770 H766 0.949 . S
C770 C778 1.574 . S
C770 C786 1.368 . S
H771 C779 0.950 . S
H772 C777 0.950 . S
H773 C778 0.949 . S
H774 C780 0.950 . S
H775 C781 0.950 . S
H776 C782 0.949 . S
C777 H772 0.950 . S
C777 C779 1.327 . S
C777 C783 1.429 . S
C778 C770 1.574 . S
C778 H773 0.949 . S
C778 C784 1.368 . S
C779 C763 1.349 . S
C779 H771 0.950 . S
C779 C777 1.327 . S
C780 C768 1.349 . S
C780 H774 0.950 . S
C780 C781 1.327 . S
C781 H775 0.950 . S
C781 C780 1.327 . S
C781 C785 1.429 . S
C782 C765 1.574 . S
C782 H776 0.949 . S
C782 C786 1.368 . S
C783 C764 1.429 . S
C783 C777 1.429 . S
C783 C784 1.523 . S
C784 C765 1.368 . S
C784 C778 1.368 . S
C784 C783 1.523 . S
C785 C769 1.429 . S
C785 C781 1.429 . S
C785 C786 1.523 . S
C786 C770 1.368 . S
C786 C782 1.368 . S
C786 C785 1.523 . S
H787 C762 0.950 . S
H788 C764 0.950 . S
H789 C765 0.949 . S
H790 C767 0.950 . S
H791 C769 0.950 . S
C792 C793 1.349 . S
C792 C794 1.327 . S
C792 H817 0.950 . S
C793 C792 1.349 . S
C793 C809 1.349 . S
C794 C792 1.327 . S
C794 C813 1.429 . S
C794 H818 0.950 . S
C795 C812 1.574 . S
C795 C814 1.368 . S
C795 H819 0.949 . S
H796 C800 0.949 . S
C797 C798 1.349 . S
C797 C799 1.327 . S
C797 H820 0.950 . S
C798 C797 1.349 . S
C798 C810 1.349 . S
C799 C797 1.327 . S
C799 C815 1.429 . S
C799 H821 0.950 . S
C800 H796 0.949 . S
C800 C808 1.574 . S
C800 C816 1.368 . S
H801 C809 0.950 . S
H802 C807 0.950 . S
H803 C808 0.949 . S
H804 C810 0.950 . S
H805 C811 0.950 . S
H806 C812 0.949 . S
C807 H802 0.950 . S
C807 C809 1.327 . S
C807 C813 1.429 . S
C808 C800 1.574 . S
C808 H803 0.949 . S
C808 C814 1.368 . S
C809 C793 1.349 . S
C809 H801 0.950 . S
C809 C807 1.327 . S
C810 C798 1.349 . S
C810 H804 0.950 . S
C810 C811 1.327 . S
C811 H805 0.950 . S
C811 C810 1.327 . S
C811 C815 1.429 . S
C812 C795 1.574 . S
C812 H806 0.949 . S
C812 C816 1.368 . S
C813 C794 1.429 . S
C813 C807 1.429 . S
C813 C814 1.523 . S
C814 C795 1.368 . S
C814 C808 1.368 . S
C814 C813 1.523 . S
C815 C799 1.429 . S
C815 C811 1.429 . S
C815 C816 1.523 . S
C816 C800 1.368 . S
C816 C812 1.368 . S
C816 C815 1.523 . S
H817 C792 0.950 . S
H818 C794 0.950 . S
H819 C795 0.949 . S
H820 C797 0.950 . S
H821 C799 0.950 . S
C822 C823 1.349 1_554 S
C822 C824 1.327 1_554 S
C822 H847 0.950 . S
C823 C822 1.349 1_556 S
C823 C839 1.349 . S
C824 C822 1.327 1_556 S
C824 C843 1.429 . S
C824 H848 0.950 1_556 S
C825 C842 1.574 . S
C825 C844 1.368 . S
C825 H849 0.949 . S
H826 C830 0.949 . S
C827 C828 1.349 . S
C827 C829 1.327 . S
C827 H850 0.950 . S
C828 C827 1.349 . S
C828 C840 1.349 . S
C829 C827 1.327 . S
C829 C845 1.429 . S
C829 H851 0.950 . S
C830 H826 0.949 . S
C830 C838 1.574 . S
C830 C846 1.368 . S
H831 C839 0.950 . S
H832 C837 0.950 . S
H833 C838 0.949 . S
H834 C840 0.950 . S
H835 C841 0.950 . S
H836 C842 0.949 . S
C837 H832 0.950 . S
C837 C839 1.327 . S
C837 C843 1.429 . S
C838 C830 1.574 . S
C838 H833 0.949 . S
C838 C844 1.368 . S
C839 C823 1.349 . S
C839 H831 0.950 . S
C839 C837 1.327 . S
C840 C828 1.349 . S
C840 H834 0.950 . S
C840 C841 1.327 . S
C841 H835 0.950 . S
C841 C840 1.327 . S
C841 C845 1.429 . S
C842 C825 1.574 . S
C842 H836 0.949 . S
C842 C846 1.368 . S
C843 C824 1.429 . S
C843 C837 1.429 . S
C843 C844 1.523 . S
C844 C825 1.368 . S
C844 C838 1.368 . S
C844 C843 1.523 . S
C845 C829 1.429 . S
C845 C841 1.429 . S
C845 C846 1.523 . S
C846 C830 1.368 . S
C846 C842 1.368 . S
C846 C845 1.523 . S
H847 C822 0.950 . S
H848 C824 0.950 1_554 S
H849 C825 0.949 . S
H850 C827 0.950 . S
H851 C829 0.950 . S
C852 C853 1.349 . S
C852 C854 1.327 . S
C852 H877 0.950 . S
C853 C852 1.349 . S
C853 C869 1.349 . S
C854 C852 1.327 . S
C854 C873 1.429 . S
C854 H878 0.950 . S
C855 C872 1.574 . S
C855 C874 1.368 . S
C855 H879 0.949 . S
H856 C860 0.949 . S
C857 C858 1.349 . S
C857 C859 1.327 . S
C857 H880 0.950 . S
C858 C857 1.349 . S
C858 C870 1.349 . S
C859 C857 1.327 . S
C859 C875 1.429 . S
C859 H881 0.950 . S
C860 H856 0.949 . S
C860 C868 1.574 . S
C860 C876 1.368 . S
H861 C869 0.950 . S
H862 C867 0.950 . S
H863 C868 0.949 . S
H864 C870 0.950 . S
H865 C871 0.950 . S
H866 C872 0.949 . S
C867 H862 0.950 . S
C867 C869 1.327 . S
C867 C873 1.429 . S
C868 C860 1.574 . S
C868 H863 0.949 . S
C868 C874 1.368 . S
C869 C853 1.349 . S
C869 H861 0.950 . S
C869 C867 1.327 . S
C870 C858 1.349 . S
C870 H864 0.950 . S
C870 C871 1.327 . S
C871 H865 0.950 . S
C871 C870 1.327 . S
C871 C875 1.429 . S
C872 C855 1.574 . S
C872 H866 0.949 . S
C872 C876 1.368 . S
C873 C854 1.429 . S
C873 C867 1.429 . S
C873 C874 1.523 . S
C874 C855 1.368 . S
C874 C868 1.368 . S
C874 C873 1.523 . S
C875 C859 1.429 . S
C875 C871 1.429 . S
C875 C876 1.523 . S
C876 C860 1.368 . S
C876 C872 1.368 . S
C876 C875 1.523 . S
H877 C852 0.950 . S
H878 C854 0.950 . S
H879 C855 0.949 . S
H880 C857 0.950 . S
H881 C859 0.950 . S
C882 C883 1.349 . S
C882 C884 1.327 . S
C882 H907 0.950 . S
C883 C882 1.349 . S
C883 C899 1.349 . S
C884 C882 1.327 . S
C884 C903 1.429 . S
C884 H908 0.950 . S
C885 C902 1.574 . S
C885 C904 1.368 . S
C885 H909 0.949 . S
H886 C890 0.949 . S
C887 C888 1.349 . S
C887 C889 1.327 . S
C887 H910 0.950 . S
C888 C887 1.349 . S
C888 C900 1.349 . S
C889 C887 1.327 . S
C889 C905 1.429 . S
C889 H911 0.950 . S
C890 H886 0.949 . S
C890 C898 1.574 . S
C890 C906 1.368 . S
H891 C899 0.950 . S
H892 C897 0.950 . S
H893 C898 0.949 . S
H894 C900 0.950 . S
H895 C901 0.950 . S
H896 C902 0.949 . S
C897 H892 0.950 . S
C897 C899 1.327 . S
C897 C903 1.429 . S
C898 C890 1.574 . S
C898 H893 0.949 . S
C898 C904 1.368 . S
C899 C883 1.349 . S
C899 H891 0.950 . S
C899 C897 1.327 . S
C900 C888 1.349 . S
C900 H894 0.950 . S
C900 C901 1.327 . S
C901 H895 0.950 . S
C901 C900 1.327 . S
C901 C905 1.429 . S
C902 C885 1.574 . S
C902 H896 0.949 . S
C902 C906 1.368 . S
C903 C884 1.429 . S
C903 C897 1.429 . S
C903 C904 1.523 . S
C904 C885 1.368 . S
C904 C898 1.368 . S
C904 C903 1.523 . S
C905 C889 1.429 . S
C905 C901 1.429 . S
C905 C906 1.523 . S
C906 C890 1.368 . S
C906 C902 1.368 . S
C906 C905 1.523 . S
H907 C882 0.950 . S
H908 C884 0.950 . S
H909 C885 0.949 . S
H910 C887 0.950 . S
H911 C889 0.950 . S
C193 C7 1.259 . S
C198 C96 1.226 . S
C223 C37 1.135 . S
C228 C109 1.118 . S
C253 C54 1.356 . S
C258 C123 1.313 . S
C288 C136 1.308 . S
C283 C87 1.339 . S
C318 C148 1.185 . S
C313 C30 1.200 . S
C343 C51 1.403 1_556 S
C348 C162 1.344 . S
C373 C84 1.170 . S
C378 C174 1.134 . S
C403 C10 1.304 . S
C408 C188 1.267 . S
C433 C59 1.226 . S
C438 C187 1.194 . S
C468 C149 1.290 . S
C463 C74 1.358 . S
C498 C161 1.222 . S
C493 C18 1.232 . S
C523 C32 1.323 . S
C528 C175 1.291 . S
C558 C110 1.367 . S
C553 C73 1.396 . S
C583 C15 1.176 . S
C588 C122 1.161 . S
C618 C135 1.234 . S
C613 C43 1.267 . S
C648 C97 1.277 . S
C643 C62 1.311 . S
C678 C170 1.250 . S
C673 C21 1.297 . S
C708 C183 1.250 . S
C703 C29 1.335 . S
C733 C52 1.368 . S
C738 C144 1.313 . S
C768 C157 1.399 . S
C763 C81 1.415 . S
C798 C118 1.280 . S
C793 C40 1.319 . S
C823 C65 1.391 1_556 S
C828 C131 1.303 . S
C858 C92 1.313 . S
C853 C76 1.370 . S
C888 C105 1.237 . S
C883 C8 1.310 . S
