# Generated by pormake.
# Topology pyr, (3,6)-cn, num edge types: 1
# Building blocks:
#     Node 0, Type 0, BuildingBlock: MIDCAF_clean_linker_0, # of connection points: 3
#     Node 1, Type 0, BuildingBlock: MIDCAF_clean_linker_0, # of connection points: 3
#     Node 2, Type 0, BuildingBlock: MIDCAF_clean_linker_0, # of connection points: 3
#     Node 3, Type 0, BuildingBlock: MIDCAF_clean_linker_0, # of connection points: 3
#     Node 4, Type 0, BuildingBlock: MIDCAF_clean_linker_0, # of connection points: 3
#     Node 5, Type 0, BuildingBlock: MIDCAF_clean_linker_0, # of connection points: 3
#     Node 6, Type 0, BuildingBlock: MIDCAF_clean_linker_0, # of connection points: 3
#     Node 7, Type 0, BuildingBlock: MIDCAF_clean_linker_0, # of connection points: 3
#     Node 8, Type 1, BuildingBlock: GEDQOX_clean_sbu_0, # of connection points: 6
#     Node 9, Type 1, BuildingBlock: GEDQOX_clean_sbu_0, # of connection points: 6
#     Node 10, Type 1, BuildingBlock: GEDQOX_clean_sbu_0, # of connection points: 6
#     Node 11, Type 1, BuildingBlock: GEDQOX_clean_sbu_0, # of connection points: 6
#     Edge 12, Type (0, 1), BuildingBlock: UVAHIK_clean_linker_0, # of connection points: 2
#     Edge 13, Type (0, 1), BuildingBlock: UVAHIK_clean_linker_0, # of connection points: 2
#     Edge 14, Type (0, 1), BuildingBlock: UVAHIK_clean_linker_0, # of connection points: 2
#     Edge 15, Type (0, 1), BuildingBlock: UVAHIK_clean_linker_0, # of connection points: 2
#     Edge 16, Type (0, 1), BuildingBlock: UVAHIK_clean_linker_0, # of connection points: 2
#     Edge 17, Type (0, 1), BuildingBlock: UVAHIK_clean_linker_0, # of connection points: 2
#     Edge 18, Type (0, 1), BuildingBlock: UVAHIK_clean_linker_0, # of connection points: 2
#     Edge 19, Type (0, 1), BuildingBlock: UVAHIK_clean_linker_0, # of connection points: 2
#     Edge 20, Type (0, 1), BuildingBlock: UVAHIK_clean_linker_0, # of connection points: 2
#     Edge 21, Type (0, 1), BuildingBlock: UVAHIK_clean_linker_0, # of connection points: 2
#     Edge 22, Type (0, 1), BuildingBlock: UVAHIK_clean_linker_0, # of connection points: 2
#     Edge 23, Type (0, 1), BuildingBlock: UVAHIK_clean_linker_0, # of connection points: 2
#     Edge 24, Type (0, 1), BuildingBlock: UVAHIK_clean_linker_0, # of connection points: 2
#     Edge 25, Type (0, 1), BuildingBlock: UVAHIK_clean_linker_0, # of connection points: 2
#     Edge 26, Type (0, 1), BuildingBlock: UVAHIK_clean_linker_0, # of connection points: 2
#     Edge 27, Type (0, 1), BuildingBlock: UVAHIK_clean_linker_0, # of connection points: 2
#     Edge 28, Type (0, 1), BuildingBlock: UVAHIK_clean_linker_0, # of connection points: 2
#     Edge 29, Type (0, 1), BuildingBlock: UVAHIK_clean_linker_0, # of connection points: 2
#     Edge 30, Type (0, 1), BuildingBlock: UVAHIK_clean_linker_0, # of connection points: 2
#     Edge 31, Type (0, 1), BuildingBlock: UVAHIK_clean_linker_0, # of connection points: 2
#     Edge 32, Type (0, 1), BuildingBlock: UVAHIK_clean_linker_0, # of connection points: 2
#     Edge 33, Type (0, 1), BuildingBlock: UVAHIK_clean_linker_0, # of connection points: 2
#     Edge 34, Type (0, 1), BuildingBlock: UVAHIK_clean_linker_0, # of connection points: 2
#     Edge 35, Type (0, 1), BuildingBlock: UVAHIK_clean_linker_0, # of connection points: 2
# Relax obj value: 0.083
# Max RMSD: 0.146
# Mean RMSD: 0.058
data_MOF--net-pyr--node1-GEDQOX_clean_sbu_0--node2-MIDCAF_clean_linker_0--edge1-UVAHIK_clean_linker_0
_symmetry_space_group_name_H-M    P1
_symmetry_Int_Tables_number       1
_symmetry_cell_setting            triclinic
loop_
_symmetry_equiv_pos_as_xyz
'x, y, z'
_cell_length_a     59.337949
_cell_length_b     59.911818
_cell_length_c     52.911193
_cell_angle_alpha  86.809867
_cell_angle_beta   90.57852
_cell_angle_gamma 87.906137
loop_
_atom_site_label
_atom_site_type_symbol
_atom_site_fract_x
_atom_site_fract_y
_atom_site_fract_z
_atom_type_partial_charge
C0 C 0.14953 0.15886 0.23541 0.0
C1 C 0.1582 0.13862 0.24715 0.0
C2 C 0.17795 0.12893 0.23709 0.0
C3 C 0.18858 0.13911 0.216 0.0
H4 H 0.23716 0.12809 0.16006 0.0
H5 H 0.271 0.11048 0.1436 0.0
H6 H 0.28639 0.17267 0.10326 0.0
H7 H 0.25176 0.18998 0.11892 0.0
H8 H 0.20555 0.22678 0.1089 0.0
H9 H 0.18808 0.26202 0.09129 0.0
H10 H 0.13779 0.25896 0.14963 0.0
H11 H 0.15528 0.22428 0.16735 0.0
H12 H 0.15285 0.18463 0.20613 0.0
H13 H 0.13461 0.16712 0.24268 0.0
H14 H 0.18508 0.11325 0.2453 0.0
H15 H 0.20367 0.13103 0.20888 0.0
N16 N 0.21012 0.16113 0.17179 0.0
N17 N 0.2115 0.19118 0.14121 0.0
N18 N 0.18252 0.19017 0.17117 0.0
C19 C 0.2205 0.1713 0.15153 0.0
C20 C 0.19239 0.20073 0.1509 0.0
C21 C 0.19115 0.17045 0.18183 0.0
C22 C 0.2415 0.1606 0.14098 0.0
C23 C 0.24769 0.13809 0.14765 0.0
C24 C 0.2674 0.12796 0.13826 0.0
C25 C 0.28199 0.13998 0.12208 0.0
C26 C 0.27571 0.16253 0.1153 0.0
C27 C 0.25576 0.1726 0.12446 0.0
C28 C 0.18202 0.22245 0.13971 0.0
C29 C 0.19081 0.23363 0.11803 0.0
C30 C 0.18065 0.25387 0.1078 0.0
C31 C 0.16145 0.26364 0.119 0.0
C32 C 0.15272 0.25237 0.14061 0.0
C33 C 0.16278 0.23222 0.15075 0.0
C34 C 0.17987 0.15936 0.20428 0.0
C35 C 0.16016 0.16904 0.21439 0.0
C36 C 0.27006 0.81973 0.73368 0.0
C37 C 0.26003 0.80835 0.71418 0.0
C38 C 0.27174 0.78987 0.70469 0.0
C39 C 0.29309 0.78314 0.71412 0.0
H40 H 0.34327 0.74041 0.70134 0.0
H41 H 0.36209 0.71015 0.68063 0.0
H42 H 0.42047 0.71498 0.72921 0.0
H43 H 0.4017 0.74602 0.74982 0.0
H44 H 0.40195 0.78839 0.78653 0.0
H45 H 0.42094 0.8118 0.81585 0.0
H46 H 0.36051 0.85384 0.81952 0.0
H47 H 0.34164 0.83085 0.79013 0.0
H48 H 0.29883 0.82229 0.75795 0.0
H49 H 0.26137 0.83389 0.7416 0.0
H50 H 0.2647 0.78095 0.68939 0.0
H51 H 0.30167 0.76902 0.70599 0.0
N52 N 0.33772 0.77067 0.73217 0.0
N53 N 0.36972 0.77657 0.75689 0.0
N54 N 0.33722 0.79989 0.75964 0.0
C55 C 0.35921 0.76468 0.73934 0.0
C56 C 0.35877 0.79422 0.76717 0.0
C57 C 0.32657 0.78816 0.74217 0.0
C58 C 0.37092 0.74574 0.72736 0.0
C59 C 0.36009 0.73509 0.70782 0.0
C60 C 0.37084 0.71753 0.69598 0.0
C61 C 0.39272 0.70996 0.70338 0.0
C62 C 0.40365 0.72052 0.72294 0.0
C63 C 0.39286 0.73824 0.73483 0.0
C64 C 0.37026 0.80774 0.78578 0.0
C65 C 0.39268 0.80258 0.79363 0.0
C66 C 0.40355 0.81593 0.81054 0.0
C67 C 0.39228 0.83476 0.81988 0.0
C68 C 0.3698 0.83968 0.81235 0.0
C69 C 0.35893 0.82636 0.79556 0.0
C70 C 0.30337 0.79476 0.73326 0.0
C71 C 0.2915 0.81301 0.74312 0.0
C72 C 0.68312 0.33935 0.91926 0.0
C73 C 0.65982 0.33692 0.91583 0.0
C74 C 0.64696 0.3545 0.90346 0.0
C75 C 0.65739 0.37316 0.89279 0.0
H76 H 0.65049 0.40538 0.82468 0.0
H77 H 0.6328 0.41561 0.78404 0.0
H78 H 0.69128 0.45219 0.76125 0.0
H79 H 0.70922 0.44209 0.80236 0.0
H80 H 0.75424 0.43443 0.83817 0.0
H81 H 0.79239 0.44463 0.84878 0.0
H82 H 0.7832 0.4193 0.92595 0.0
H83 H 0.74544 0.40837 0.91515 0.0
H84 H 0.71173 0.35907 0.91042 0.0
H85 H 0.6935 0.32607 0.92866 0.0
H86 H 0.62889 0.3534 0.9011 0.0
H87 H 0.64711 0.3859 0.88231 0.0
N88 N 0.68198 0.40062 0.85722 0.0
N89 N 0.71349 0.42166 0.84732 0.0
N90 N 0.71308 0.39878 0.88489 0.0
C91 C 0.69248 0.41522 0.84123 0.0
C92 C 0.72381 0.41364 0.86925 0.0
C93 C 0.69208 0.39232 0.87899 0.0
C94 C 0.68141 0.42277 0.81683 0.0
C95 C 0.6597 0.41564 0.81115 0.0
C96 C 0.64955 0.42137 0.78773 0.0
C97 C 0.66077 0.43443 0.76933 0.0
C98 C 0.68223 0.44211 0.77511 0.0
C99 C 0.6925 0.43629 0.79864 0.0
C100 C 0.74679 0.42049 0.87578 0.0
C101 C 0.76035 0.43106 0.85742 0.0
C102 C 0.78221 0.43701 0.86353 0.0
C103 C 0.79095 0.43273 0.88821 0.0
C104 C 0.77724 0.42243 0.90662 0.0
C105 C 0.75549 0.41628 0.90045 0.0
C106 C 0.68089 0.37483 0.89452 0.0
C107 C 0.69358 0.35822 0.90877 0.0
C108 C 0.81743 0.71223 0.38677 0.0
C109 C 0.81864 0.68939 0.38175 0.0
C110 C 0.8337 0.68215 0.36332 0.0
C111 C 0.84628 0.69749 0.34924 0.0
H112 H 0.88805 0.70487 0.28405 0.0
H113 H 0.8929 0.6918 0.24151 0.0
H114 H 0.87249 0.75733 0.20946 0.0
H115 H 0.86818 0.77071 0.25232 0.0
H116 H 0.90497 0.79798 0.31255 0.0
H117 H 0.91645 0.83269 0.32947 0.0
H118 H 0.85805 0.83275 0.37784 0.0
H119 H 0.8475 0.79717 0.36193 0.0
H120 H 0.82837 0.74517 0.37649 0.0
H121 H 0.80588 0.71839 0.40072 0.0
H122 H 0.83547 0.66463 0.35941 0.0
H123 H 0.85729 0.69136 0.33476 0.0
N124 N 0.86234 0.73075 0.31328 0.0
N125 N 0.876 0.76647 0.30412 0.0
N126 N 0.85962 0.75772 0.34359 0.0
C127 C 0.87217 0.74553 0.29694 0.0
C128 C 0.86991 0.77259 0.32755 0.0
C129 C 0.85591 0.73669 0.33655 0.0
C130 C 0.87776 0.73877 0.27137 0.0
C131 C 0.885 0.7166 0.26793 0.0
C132 C 0.88784 0.70915 0.24365 0.0
C133 C 0.88304 0.72361 0.22235 0.0
C134 C 0.87629 0.74595 0.22569 0.0
C135 C 0.87397 0.75358 0.2501 0.0
C136 C 0.87543 0.79482 0.33604 0.0
C137 C 0.8945 0.80554 0.32664 0.0
C138 C 0.90099 0.82558 0.33629 0.0
C139 C 0.88828 0.83566 0.35519 0.0
C140 C 0.86863 0.82529 0.36379 0.0
C141 C 0.86244 0.80497 0.35454 0.0
C142 C 0.84433 0.72043 0.35345 0.0
C143 C 0.83025 0.7276 0.37282 0.0
C144 C 0.78104 0.90339 0.88463 0.0
C145 C 0.76657 0.89112 0.90072 0.0
C146 C 0.77294 0.86852 0.90707 0.0
C147 C 0.79283 0.85861 0.89757 0.0
H148 H 0.84384 0.8045 0.91212 0.0
H149 H 0.86143 0.76886 0.92849 0.0
H150 H 0.90931 0.77181 0.86765 0.0
H151 H 0.89177 0.80689 0.85122 0.0
H152 H 0.89543 0.84806 0.81521 0.0
H153 H 0.91388 0.86629 0.7793 0.0
H154 H 0.86298 0.91976 0.77714 0.0
H155 H 0.84468 0.90169 0.81361 0.0
H156 H 0.81115 0.90363 0.8626 0.0
H157 H 0.77738 0.92091 0.87961 0.0
H158 H 0.76234 0.8582 0.91903 0.0
H159 H 0.79689 0.84119 0.90279 0.0
N160 N 0.83686 0.84022 0.87991 0.0
N161 N 0.8657 0.8418 0.8498 0.0
N162 N 0.83826 0.87093 0.85018 0.0
C163 C 0.85587 0.83083 0.86981 0.0
C164 C 0.85714 0.86178 0.83977 0.0
C165 C 0.82792 0.86035 0.87021 0.0
C166 C 0.8662 0.80882 0.88021 0.0
C167 C 0.85807 0.79753 0.90218 0.0
C168 C 0.86829 0.77707 0.91169 0.0
C169 C 0.88685 0.76717 0.89942 0.0
C170 C 0.89489 0.77851 0.87749 0.0
C171 C 0.88481 0.7989 0.86811 0.0
C172 C 0.86841 0.87327 0.81756 0.0
C173 C 0.88807 0.86371 0.8072 0.0
C174 C 0.89865 0.87416 0.78633 0.0
C175 C 0.89 0.89457 0.77497 0.0
C176 C 0.87039 0.90422 0.7854 0.0
C177 C 0.85977 0.89374 0.80633 0.0
C178 C 0.80698 0.87086 0.88115 0.0
C179 C 0.80072 0.89344 0.87492 0.0
C180 C 0.67231 0.19835 0.20855 0.0
C181 C 0.64959 0.20223 0.20136 0.0
C182 C 0.63702 0.21928 0.21269 0.0
C183 C 0.64685 0.23181 0.23116 0.0
H184 H 0.63785 0.28985 0.27552 0.0
H185 H 0.61724 0.31851 0.29844 0.0
H186 H 0.66586 0.30977 0.35975 0.0
H187 H 0.68628 0.28144 0.33727 0.0
H188 H 0.72911 0.25473 0.33265 0.0
H189 H 0.76482 0.24093 0.35146 0.0
H190 H 0.77738 0.20122 0.28713 0.0
H191 H 0.74143 0.215 0.26802 0.0
H192 H 0.69957 0.20699 0.23227 0.0
H193 H 0.68242 0.18518 0.20047 0.0
H194 H 0.61955 0.22288 0.20736 0.0
H195 H 0.63657 0.24458 0.23974 0.0
N196 N 0.66761 0.25595 0.2711 0.0
N197 N 0.69765 0.25953 0.29951 0.0
N198 N 0.70069 0.23341 0.26841 0.0
C199 C 0.67665 0.26603 0.29108 0.0
C200 C 0.70983 0.24335 0.28832 0.0
C201 C 0.6796 0.23957 0.25964 0.0
C202 C 0.66373 0.28332 0.3045 0.0
C203 C 0.64407 0.29404 0.29391 0.0
C204 C 0.63235 0.31049 0.30694 0.0
C205 C 0.6399 0.31625 0.33092 0.0
C206 C 0.65947 0.30549 0.34145 0.0
C207 C 0.67126 0.28932 0.32841 0.0
C208 C 0.73227 0.23587 0.29884 0.0
C209 C 0.73946 0.24319 0.32231 0.0
C210 C 0.75989 0.23522 0.3332 0.0
C211 C 0.77374 0.21992 0.32082 0.0
C212 C 0.76702 0.2131 0.297 0.0
C213 C 0.74639 0.2209 0.28616 0.0
C214 C 0.66945 0.22753 0.23879 0.0
C215 C 0.68211 0.21082 0.22699 0.0
C216 C 0.26259 0.60295 0.15102 0.0
C217 C 0.25518 0.60606 0.12574 0.0
C218 C 0.26955 0.61592 0.10774 0.0
C219 C 0.29095 0.62247 0.11486 0.0
H220 H 0.33951 0.67805 0.10497 0.0
H221 H 0.36194 0.70688 0.08398 0.0
H222 H 0.42294 0.6724 0.11288 0.0
H223 H 0.4005 0.64433 0.13465 0.0
H224 H 0.39229 0.63403 0.19697 0.0
H225 H 0.40786 0.62364 0.23866 0.0
H226 H 0.34796 0.58775 0.25757 0.0
H227 H 0.33223 0.59795 0.21544 0.0
H228 H 0.2893 0.6065 0.17774 0.0
H229 H 0.25192 0.59523 0.16524 0.0
H230 H 0.26417 0.6187 0.08816 0.0
H231 H 0.30161 0.62995 0.10048 0.0
N232 N 0.3338 0.63861 0.13153 0.0
N233 N 0.36356 0.6367 0.1611 0.0
N234 N 0.33031 0.61832 0.17054 0.0
C235 C 0.35495 0.64413 0.13821 0.0
C236 C 0.35139 0.62389 0.17743 0.0
C237 C 0.32144 0.62551 0.14756 0.0
C238 C 0.36827 0.6592 0.12175 0.0
C239 C 0.35773 0.67649 0.10641 0.0
C240 C 0.37061 0.69296 0.09434 0.0
C241 C 0.39425 0.69222 0.09716 0.0
C242 C 0.40475 0.67389 0.11093 0.0
C243 C 0.39191 0.65771 0.12329 0.0
C244 C 0.36092 0.61689 0.20277 0.0
C245 C 0.38233 0.6239 0.20989 0.0
C246 C 0.39124 0.61809 0.23392 0.0
C247 C 0.37904 0.60508 0.25148 0.0
C248 C 0.35777 0.59774 0.24437 0.0
C249 C 0.34876 0.60365 0.22026 0.0
C250 C 0.29852 0.61911 0.14011 0.0
C251 C 0.28407 0.6093 0.15811 0.0
C252 C 0.18197 0.20626 0.66479 0.0
C253 C 0.16764 0.19139 0.67753 0.0
C254 C 0.16163 0.19518 0.7026 0.0
C255 C 0.16885 0.21414 0.7142 0.0
H256 H 0.18541 0.24867 0.78787 0.0
H257 H 0.17697 0.25963 0.83105 0.0
H258 H 0.15997 0.32685 0.80163 0.0
H259 H 0.16871 0.31619 0.75906 0.0
H260 H 0.20298 0.33234 0.71423 0.0
H261 H 0.22054 0.3613 0.68809 0.0
H262 H 0.23899 0.3127 0.63384 0.0
H263 H 0.22086 0.28376 0.65965 0.0
H264 H 0.19973 0.23651 0.6656 0.0
H265 H 0.18723 0.20353 0.64562 0.0
H266 H 0.15052 0.18404 0.71286 0.0
H267 H 0.16321 0.21703 0.73318 0.0
N268 N 0.18147 0.25565 0.73571 0.0
N269 N 0.19406 0.29219 0.7293 0.0
N270 N 0.19701 0.26745 0.69676 0.0
C271 C 0.18475 0.27617 0.74455 0.0
C272 C 0.20038 0.28796 0.70546 0.0
C273 C 0.18751 0.25122 0.71167 0.0
C274 C 0.1778 0.28163 0.77023 0.0
C275 C 0.1796 0.26568 0.79073 0.0
C276 C 0.17487 0.27193 0.81533 0.0
C277 C 0.16771 0.29401 0.81954 0.0
C278 C 0.1652 0.30965 0.79886 0.0
C279 C 0.17036 0.30358 0.77453 0.0
C280 C 0.21061 0.30565 0.68913 0.0
C281 C 0.21072 0.32778 0.6967 0.0
C282 C 0.22087 0.34441 0.68175 0.0
C283 C 0.23128 0.33931 0.65894 0.0
C284 C 0.23086 0.31727 0.65115 0.0
C285 C 0.22059 0.30063 0.66604 0.0
C286 C 0.18222 0.22966 0.70092 0.0
C287 C 0.18918 0.22514 0.67633 0.0
Nd288 Nd 0.03807 0.99635 0.50835 0.0
Nd289 Nd 1.012 0.03873 0.51631 0.0
C290 C 0.05233 0.95445 0.50399 0.0
C291 C 0.06134 0.93713 0.52237 0.0
C292 C 0.06973 0.91663 0.51426 0.0
C293 C 0.08055 0.90113 0.5315 0.0
C294 C 0.08324 0.90602 0.55706 0.0
C295 C 0.07401 0.92634 0.56518 0.0
C296 C 0.06314 0.94173 0.54798 0.0
C297 C 0.06042 0.02524 0.53751 0.0
C298 C 1.00406 0.99879 0.55768 0.0
C299 C 0.99682 0.08044 0.51981 0.0
C300 C 0.98727 0.09691 0.50074 0.0
C301 C 0.97285 0.11435 0.50807 0.0
C302 C 0.9605 0.12757 0.4898 0.0
C303 C 0.96234 0.12338 0.46398 0.0
C304 C 0.97781 0.10668 0.45669 0.0
C305 C 0.99012 0.09351 0.47493 0.0
C306 C 0.9897 1.0095 0.48762 0.0
C307 C 0.04619 0.03641 0.46712 0.0
O308 O 0.03106 0.96036 0.5064 0.0
O309 O 0.06516 0.97156 0.50018 0.0
O310 O 0.0704 0.01282 0.52144 0.0
O311 O 0.03988 0.02112 0.53901 0.0
O312 O 1.01335 0.98603 0.54064 0.0
O313 O 1.00489 0.02079 0.5548 0.0
O314 O 1.01824 0.07495 0.51764 0.0
O315 O 0.98446 0.06311 0.52433 0.0
O316 O 0.97992 0.0213 0.50437 0.0
O317 O 1.01011 0.01404 0.48557 0.0
O318 O 0.0368 0.04914 0.48411 0.0
O319 O 0.04552 0.01441 0.47006 0.0
H320 H 0.06843 0.91286 0.49452 0.0
H321 H 0.0872 0.88552 0.52471 0.0
H322 H 0.07604 0.93083 0.58459 0.0
H323 H 0.05683 0.9576 0.55449 0.0
H324 H 0.97029 0.11702 0.52794 0.0
H325 H 0.94855 0.14017 0.49601 0.0
H326 H 0.97976 0.10324 0.43693 0.0
H327 H 1.00107 0.07998 0.46892 0.0
Nd328 Nd 0.52671 0.99891 0.03377 0.0
Nd329 Nd 0.52168 0.03021 0.99151 0.0
C330 C 0.53193 0.96267 0.06456 0.0
C331 C 0.52527 0.93936 0.06339 0.0
C332 C 0.52451 0.92908 0.0402 0.0
C333 C 0.51626 0.90763 0.03896 0.0
C334 C 0.5087 0.89605 0.06092 0.0
C335 C 0.50993 0.90625 0.08419 0.0
C336 C 0.51811 0.92775 0.08539 0.0
C337 C 0.49166 0.0299 0.04021 0.0
C338 C 0.49723 0.98542 0.98445 0.0
C339 C 0.51642 0.06614 0.96033 0.0
C340 C 0.52675 0.08812 0.95831 0.0
C341 C 0.52935 0.10079 0.97965 0.0
C342 C 0.54055 0.1209 0.97775 0.0
C343 C 0.54937 0.12872 0.95448 0.0
C344 C 0.54649 0.1161 0.9331 0.0
C345 C 0.53526 0.09601 0.93502 0.0
C346 C 0.5568 0.99928 0.98513 0.0
C347 C 0.55116 0.04408 0.04103 0.0
O348 O 0.5473 0.96937 0.04865 0.0
O349 O 0.51537 0.9774 0.06634 0.0
O350 O 0.50693 0.02405 0.05725 0.0
O351 O 0.49539 0.01984 0.02011 0.0
O352 O 0.51094 0.97803 1.00308 0.0
O353 O 0.49527 1.00691 0.97823 0.0
O354 O 0.50352 0.06212 0.9798 0.0
O355 O 0.52967 0.04906 0.9556 0.0
O356 O 0.54157 1.00513 0.96807 0.0
O357 O 0.55304 1.00937 1.00521 0.0
O358 O 0.53895 0.05117 0.02101 0.0
O359 O 0.55176 0.02286 0.04881 0.0
H360 H 0.52999 0.93775 0.02296 0.0
H361 H 0.51576 0.90012 0.02081 0.0
H362 H 0.50398 0.89788 0.10139 0.0
H363 H 0.51839 0.9355 0.1034 0.0
H364 H 0.52294 0.09507 0.99788 0.0
H365 H 0.54222 0.13034 0.99449 0.0
H366 H 0.55335 0.12149 0.91498 0.0
H367 H 0.53358 0.08641 0.91839 0.0
Nd368 Nd 0.49455 0.50471 0.50956 0.0
Nd369 Nd 0.53904 0.53009 0.51435 0.0
C370 C 0.45331 0.49239 0.49946 0.0
C371 C 0.43168 0.48849 0.51185 0.0
C372 C 0.41166 0.49177 0.49767 0.0
C373 C 0.39109 0.48587 0.50824 0.0
C374 C 0.39025 0.47645 0.53315 0.0
C375 C 0.41032 0.47411 0.54764 0.0
C376 C 0.43085 0.48014 0.5371 0.0
C377 C 0.52198 0.49048 0.54979 0.0
C378 C 0.49538 0.54934 0.54334 0.0
C379 C 0.58014 0.54257 0.52495 0.0
C380 C 0.602 0.54664 0.51328 0.0
C381 C 0.62132 0.54629 0.52871 0.0
C382 C 0.64191 0.55265 0.5186 0.0
C383 C 0.64345 0.55955 0.49285 0.0
C384 C 0.62418 0.55891 0.4772 0.0
C385 C 0.6036 0.55247 0.48734 0.0
C386 C 0.51154 0.54444 0.47424 0.0
C387 C 0.53808 0.48535 0.48064 0.0
O388 O 0.4594 0.51316 0.49654 0.0
O389 O 0.47002 0.47829 0.50599 0.0
O390 O 0.50917 0.47707 0.53825 0.0
O391 O 0.51821 0.51031 0.54164 0.0
O392 O 0.48293 0.5364 0.52978 0.0
O393 O 0.51762 0.54735 0.54366 0.0
O394 O 0.57413 0.52177 0.52768 0.0
O395 O 0.56351 0.55657 0.51789 0.0
O396 O 0.52445 0.55778 0.48577 0.0
O397 O 0.51536 0.52458 0.48227 0.0
O398 O 0.5506 0.49821 0.49426 0.0
O399 O 0.51586 0.4876 0.48015 0.0
H400 H 0.41202 0.49834 0.47818 0.0
H401 H 0.37591 0.48826 0.49672 0.0
H402 H 0.41036 0.46669 0.56678 0.0
H403 H 0.44616 0.47758 0.54839 0.0
H404 H 0.62035 0.54172 0.54877 0.0
H405 H 0.65652 0.55262 0.53104 0.0
H406 H 0.62474 0.56431 0.45735 0.0
H407 H 0.5888 0.55279 0.47514 0.0
Nd408 Nd 1.00542 0.50923 0.0229 0.0
Nd409 Nd 0.04492 0.52034 0.98875 0.0
C410 C 0.96465 0.50626 0.04184 0.0
C411 C 0.94884 0.52468 0.04745 0.0
C412 C 0.92624 0.521 0.05328 0.0
C413 C 0.91162 0.53911 0.05834 0.0
C414 C 0.91945 0.56105 0.05715 0.0
C415 C 0.94206 0.56451 0.05101 0.0
C416 C 0.95661 0.54652 0.04639 0.0
C417 C 0.03998 0.52989 0.04572 0.0
C418 C 1.00484 0.55791 0.98781 0.0
C419 C 0.08592 0.52409 0.97068 0.0
C420 C 0.10448 0.50716 0.96885 0.0
C421 C 0.1129 0.4948 0.99053 0.0
C422 C 0.12668 0.47562 0.98818 0.0
C423 C 0.13227 0.46842 0.96414 0.0
C424 C 0.12531 0.48182 0.94257 0.0
C425 C 0.1116 0.50102 0.94493 0.0
C426 C 1.00999 0.50042 0.96581 0.0
C427 C 0.04518 0.47152 0.02334 0.0
O428 O 0.96879 0.50451 0.01777 0.0
O429 O 0.983 0.5047 0.05586 0.0
O430 O 0.0289 0.51402 0.057 0.0
O431 O 0.03203 0.53489 0.02394 0.0
O432 O 0.99338 0.54208 0.99993 0.0
O433 O 0.02665 0.55485 0.98354 0.0
O434 O 0.08045 0.52966 0.99347 0.0
O435 O 0.06827 0.52128 0.9563 0.0
O436 O 0.02116 0.51639 0.95476 0.0
O437 O 1.01806 0.49492 0.98745 0.0
O438 O 0.05693 0.48753 0.01191 0.0
O439 O 0.02324 0.47448 0.02681 0.0
H440 H 0.91998 0.50422 0.0541 0.0
H441 H 0.89428 0.53601 0.06318 0.0
H442 H 0.94876 0.58111 0.05056 0.0
H443 H 0.97407 0.54969 0.04228 0.0
H444 H 0.10787 0.49915 1.0093 0.0
H445 H 0.13211 0.46588 1.00515 0.0
H446 H 0.12916 0.4767 0.92374 0.0
H447 H 0.10538 0.51028 0.92794 0.0
C448 C 0.15923 0.1169 0.28988 0.0
C449 C 0.14669 0.12779 0.26972 0.0
C450 C 0.14845 0.1071 0.31106 0.0
C451 C 0.09335 0.10736 0.34525 0.0
H452 H 0.11812 0.05231 0.37808 0.0
C453 C 0.05814 0.07039 0.44064 0.0
C454 C 0.05736 0.04697 0.44437 0.0
C455 C 0.06891 0.08025 0.41948 0.0
C456 C 0.11078 0.06759 0.36909 0.0
H457 H 0.11262 0.13622 0.25626 0.0
H458 H 0.09396 0.11921 0.29291 0.0
H459 H 0.13667 0.06893 0.34112 0.0
H460 H 0.06731 0.01566 0.42827 0.0
H461 H 0.08574 0.03272 0.39143 0.0
H462 H 0.06719 0.10576 0.3729 0.0
C463 C 0.11221 0.1186 0.29264 0.0
C464 C 0.12166 0.07734 0.34796 0.0
C465 C 0.12298 0.12841 0.27147 0.0
C466 C 0.06759 0.03373 0.4262 0.0
C467 C 0.07835 0.04357 0.40505 0.0
C468 C 0.08248 0.09762 0.3664 0.0
C469 C 0.12473 0.10781 0.31286 0.0
C470 C 0.11313 0.09739 0.33562 0.0
C471 C 0.07927 0.06701 0.40132 0.0
C472 C 0.09098 0.07753 0.3787 0.0
H473 H 0.17748 0.1163 0.28956 0.0
H474 H 0.1588 0.09931 0.32629 0.0
H475 H 0.0863 0.12291 0.33661 0.0
H476 H 0.05053 0.0812 0.45417 0.0
H477 H 0.06942 0.09831 0.41761 0.0
C478 C 0.40101 0.87292 0.83361 0.0
C479 C 0.4039 0.84955 0.83707 0.0
C480 C 0.41149 0.88695 0.84994 0.0
C481 C 0.43639 0.88818 0.9139 0.0
H482 H 0.46264 0.94251 0.88633 0.0
C483 C 0.48838 0.94618 0.97448 0.0
C484 C 0.48529 0.96937 0.96928 0.0
C485 C 0.47834 0.93106 0.95902 0.0
C486 C 0.45515 0.92755 0.89439 0.0
H487 H 0.42015 0.82261 0.86041 0.0
H488 H 0.43873 0.84721 0.88884 0.0
H489 H 0.44603 0.91695 0.85785 0.0
H490 H 0.46859 0.99484 0.9442 0.0
H491 H 0.45089 0.96853 0.9175 0.0
H492 H 0.44547 0.89889 0.95049 0.0
C493 C 0.42815 0.85462 0.87358 0.0
C494 C 0.44567 0.91287 0.87804 0.0
C495 C 0.4177 0.84054 0.85715 0.0
C496 C 0.47146 0.9771 0.94868 0.0
C497 C 0.46143 0.962 0.93324 0.0
C498 C 0.44588 0.90291 0.93029 0.0
C499 C 0.42514 0.87799 0.87015 0.0
C500 C 0.43602 0.8931 0.8876 0.0
C501 C 0.46499 0.93881 0.93801 0.0
C502 C 0.45521 0.92286 0.92072 0.0
H503 H 0.39071 0.8804 0.81815 0.0
H504 H 0.40862 0.90486 0.84691 0.0
H505 H 0.42887 0.87321 0.92188 0.0
H506 H 0.49891 0.93965 0.9902 0.0
H507 H 0.48155 0.91331 0.96315 0.0
C508 C 0.63857 0.4233 0.73189 0.0
C509 C 0.64989 0.43984 0.74429 0.0
C510 C 0.62675 0.42861 0.7093 0.0
C511 C 0.59804 0.4762 0.67455 0.0
H512 H 0.597 0.43634 0.61927 0.0
C513 C 0.55048 0.50054 0.58153 0.0
C514 C 0.53783 0.48406 0.57075 0.0
C515 C 0.56537 0.49493 0.6016 0.0
C516 C 0.59696 0.44752 0.63466 0.0
H517 H 0.65829 0.47479 0.74233 0.0
H518 H 0.63779 0.48409 0.70259 0.0
H519 H 0.62173 0.42718 0.65587 0.0
H520 H 0.53094 0.44878 0.57222 0.0
H521 H 0.55681 0.4389 0.60781 0.0
H522 H 0.57311 0.49639 0.65364 0.0
C523 C 0.63788 0.46703 0.71056 0.0
C524 C 0.61116 0.44231 0.65557 0.0
C525 C 0.64979 0.46168 0.73316 0.0
C526 C 0.5405 0.46178 0.58024 0.0
C527 C 0.5554 0.45614 0.60047 0.0
C528 C 0.58385 0.48138 0.6537 0.0
C529 C 0.62596 0.45062 0.6986 0.0
C530 C 0.61179 0.45658 0.67577 0.0
C531 C 0.56787 0.47272 0.61148 0.0
C532 C 0.58311 0.4671 0.63353 0.0
H533 H 0.63862 0.40624 0.73984 0.0
H534 H 0.61762 0.41562 0.70066 0.0
H535 H 0.59781 0.48731 0.69002 0.0
H536 H 0.54886 0.51786 0.57448 0.0
H537 H 0.575 0.50803 0.60934 0.0
C538 C 0.90293 0.7026 0.18935 0.0
C539 C 0.88368 0.7146 0.19696 0.0
C540 C 0.90244 0.69095 0.16727 0.0
C541 C 0.89913 0.67386 0.11453 0.0
H542 H 0.85166 0.631 0.11463 0.0
C543 C 0.90594 0.60101 0.05055 0.0
C544 C 0.90509 0.58034 0.0644 0.0
C545 C 0.89716 0.6205 0.06059 0.0
C546 C 0.86485 0.64305 0.11415 0.0
H547 H 0.84909 0.7246 0.18727 0.0
H548 H 0.84809 0.7038 0.14861 0.0
H549 H 0.84984 0.66133 0.14372 0.0
H550 H 0.89253 0.56352 0.09842 0.0
H551 H 0.87725 0.59752 0.11604 0.0
H552 H 0.91489 0.65496 0.08615 0.0
C553 C 0.86358 0.70361 0.15965 0.0
C554 C 0.86372 0.66049 0.13063 0.0
C555 C 0.8642 0.71559 0.18158 0.0
C556 C 0.89334 0.5792 0.0873 0.0
C557 C 0.88457 0.59872 0.09737 0.0
C558 C 0.90018 0.65656 0.09796 0.0
C559 C 0.88257 0.69082 0.15259 0.0
C560 C 0.88131 0.67553 0.13163 0.0
C561 C 0.88737 0.61968 0.08467 0.0
C562 C 0.88349 0.64047 0.09824 0.0
H563 H 0.91811 0.70159 0.20098 0.0
H564 H 0.91725 0.68103 0.16246 0.0
H565 H 0.91281 0.68534 0.11482 0.0
H566 H 0.91458 0.60227 0.03261 0.0
H567 H 0.89917 0.63636 0.05016 0.0
C568 C 0.3154 0.112 0.12736 0.0
C569 C 0.30358 0.12908 0.11265 0.0
C570 C 0.33529 0.10165 0.11866 0.0
C571 C 0.37039 0.09471 0.06002 0.0
H572 H 0.4152 0.07191 0.10949 0.0
C573 C 0.45063 0.04196 0.03134 0.0
C574 C 0.47037 0.0427 0.04619 0.0
C575 C 0.43037 0.05283 0.03854 0.0
C576 C 0.40315 0.07838 0.09518 0.0
H577 H 0.30422 0.14827 0.07664 0.0
H578 H 0.3392 0.13113 0.06214 0.0
H579 H 0.38109 0.09053 0.12345 0.0
H580 H 0.48435 0.05631 0.07973 0.0
H581 H 0.44981 0.07585 0.09164 0.0
H582 H 0.39306 0.08336 0.03168 0.0
C583 C 0.33278 0.12527 0.0803 0.0
C584 C 0.38312 0.08882 0.10334 0.0
C585 C 0.3127 0.13548 0.08889 0.0
C586 C 0.46945 0.05514 0.06795 0.0
C587 C 0.44939 0.06623 0.07495 0.0
C588 C 0.39061 0.08445 0.05182 0.0
C589 C 0.34452 0.10812 0.095 0.0
C590 C 0.36623 0.09714 0.08598 0.0
C591 C 0.42928 0.06501 0.06069 0.0
C592 C 0.40744 0.07606 0.06924 0.0
H593 H 0.30948 0.10663 0.14591 0.0
H594 H 0.34329 0.08834 0.13061 0.0
H595 H 0.35792 0.10049 0.04585 0.0
H596 H 0.45067 0.03247 0.0145 0.0
H597 H 0.41543 0.05114 0.02702 0.0
C598 C 0.23311 0.83924 0.69788 0.0
C599 C 0.23797 0.81626 0.7028 0.0
C600 C 0.21331 0.84662 0.68503 0.0
C601 C 0.17275 0.82811 0.63893 0.0
H602 H 0.13881 0.88184 0.65529 0.0
C603 C 0.11743 0.88102 0.56662 0.0
C604 C 0.09716 0.89099 0.57479 0.0
C605 C 0.1319 0.86902 0.58381 0.0
C606 C 0.1479 0.86663 0.65067 0.0
H607 H 0.22521 0.78308 0.69926 0.0
H608 H 0.19073 0.796 0.67658 0.0
H609 H 0.16888 0.86673 0.68383 0.0
H610 H 0.07563 0.89503 0.60725 0.0
H611 H 0.10112 0.87426 0.63736 0.0
H612 H 0.15204 0.82825 0.60553 0.0
C613 C 0.20242 0.80826 0.68241 0.0
C614 C 0.16526 0.85812 0.66687 0.0
C615 C 0.22218 0.80088 0.69535 0.0
C616 C 0.0913 0.8879 0.60042 0.0
C617 C 0.10586 0.87599 0.61765 0.0
C618 C 0.15547 0.83669 0.62266 0.0
C619 C 0.19795 0.83119 0.67676 0.0
C620 C 0.17811 0.83899 0.66096 0.0
C621 C 0.1265 0.86678 0.6096 0.0
C622 C 0.14312 0.85625 0.62814 0.0
H623 H 0.24504 0.85153 0.70302 0.0
H624 H 0.21049 0.86439 0.68067 0.0
H625 H 0.18247 0.81344 0.63376 0.0
H626 H 0.12268 0.88335 0.54713 0.0
H627 H 0.14783 0.86237 0.57708 0.0
C628 C 0.8232 0.45884 0.88454 0.0
C629 C 0.81426 0.43892 0.8948 0.0
C630 C 0.84496 0.46478 0.89114 0.0
C631 C 0.8872 0.45651 0.94176 0.0
H632 H 0.92947 0.47697 0.89089 0.0
C633 C 0.97904 0.4734 0.96809 0.0
C634 C 0.9888 0.49203 0.95599 0.0
C635 C 0.9583 0.46615 0.95971 0.0
C636 C 0.91779 0.47157 0.90537 0.0
H637 H 0.8216 0.40932 0.9195 0.0
H638 H 0.8593 0.42002 0.93145 0.0
H639 H 0.89197 0.46617 0.87798 0.0
H640 H 0.98479 0.51767 0.92561 0.0
H641 H 0.94827 0.50544 0.91131 0.0
H642 H 0.91258 0.46239 0.96925 0.0
C643 C 0.84935 0.43107 0.91843 0.0
C644 C 0.89635 0.46532 0.89794 0.0
C645 C 0.82771 0.42501 0.91165 0.0
C646 C 0.97766 0.50314 0.93515 0.0
C647 C 0.95679 0.49605 0.92691 0.0
C648 C 0.90851 0.46297 0.94923 0.0
C649 C 0.85815 0.45104 0.90832 0.0
C650 C 0.88089 0.45768 0.91607 0.0
C651 C 0.94675 0.47756 0.93921 0.0
C652 C 0.92412 0.47053 0.93113 0.0
H653 H 0.81323 0.47012 0.87181 0.0
H654 H 0.85127 0.48039 0.88327 0.0
H655 H 0.87547 0.45097 0.95616 0.0
H656 H 0.98737 0.46448 0.98416 0.0
H657 H 0.95132 0.4516 0.96934 0.0
C658 C 0.79318 0.65704 0.38039 0.0
C659 C 0.80326 0.67337 0.3944 0.0
C660 C 0.77788 0.64258 0.39167 0.0
C661 C 0.75724 0.62026 0.45344 0.0
H662 H 0.70334 0.60985 0.41437 0.0
C663 C 0.67672 0.58373 0.49695 0.0
C664 C 0.66456 0.56895 0.48275 0.0
C665 C 0.69543 0.59423 0.48671 0.0
C666 C 0.71845 0.61228 0.42539 0.0
H667 H 0.80549 0.68691 0.43147 0.0
H668 H 0.77823 0.66195 0.45106 0.0
H669 H 0.73247 0.63278 0.39566 0.0
H670 H 0.66317 0.55282 0.44712 0.0
H671 H 0.69586 0.57126 0.42916 0.0
H672 H 0.74286 0.60006 0.48338 0.0
C673 C 0.78246 0.66019 0.4314 0.0
C674 C 0.73516 0.62544 0.41468 0.0
C675 C 0.79787 0.67466 0.4201 0.0
C676 C 0.67197 0.56438 0.45837 0.0
C677 C 0.69068 0.57492 0.44811 0.0
C678 C 0.74046 0.60711 0.4642 0.0
C679 C 0.77211 0.64415 0.4172 0.0
C680 C 0.75471 0.62966 0.42859 0.0
C681 C 0.70237 0.59024 0.46201 0.0
C682 C 0.72085 0.60307 0.4503 0.0
H683 H 0.79667 0.65576 0.36046 0.0
H684 H 0.77044 0.63022 0.38029 0.0
H685 H 0.77223 0.62297 0.46453 0.0
H686 H 0.67125 0.58791 0.51563 0.0
H687 H 0.70389 0.60617 0.49776 0.0
C688 C 0.14856 0.29043 0.0821 0.0
C689 C 0.15044 0.28535 0.1084 0.0
C690 C 0.13748 0.31034 0.07239 0.0
C691 C 0.09643 0.35571 0.09078 0.0
H692 H 0.11715 0.38716 0.0299 0.0
C693 C 0.04508 0.43194 0.04318 0.0
C694 C 0.05704 0.44987 0.0323 0.0
C695 C 0.05634 0.4118 0.05179 0.0
C696 C 0.11115 0.37875 0.04704 0.0
H697 H 0.14261 0.2982 0.14495 0.0
H698 H 0.12356 0.33259 0.12821 0.0
H699 H 0.13727 0.35305 0.04622 0.0
H700 H 0.09049 0.46032 0.02224 0.0
H701 H 0.11005 0.42561 0.03739 0.0
H702 H 0.07063 0.38161 0.09196 0.0
C703 C 0.13014 0.32096 0.11493 0.0
C704 C 0.1226 0.3589 0.05629 0.0
C705 C 0.14117 0.30109 0.12461 0.0
C706 C 0.08061 0.44695 0.03027 0.0
C707 C 0.09187 0.42685 0.03889 0.0
C708 C 0.08497 0.37551 0.08153 0.0
C709 C 0.1279 0.32591 0.08864 0.0
C710 C 0.11551 0.34705 0.0784 0.0
C711 C 0.07997 0.4089 0.04987 0.0
C712 C 0.09213 0.38745 0.05953 0.0
H713 H 0.15518 0.27874 0.06889 0.0
H714 H 0.13598 0.31325 0.05206 0.0
H715 H 0.09011 0.34707 0.10762 0.0
H716 H 0.02694 0.4334 0.04504 0.0
H717 H 0.0464 0.3984 0.05974 0.0
C718 C 0.65488 0.30281 0.94513 0.0
C719 C 0.64929 0.31533 0.92252 0.0
C720 C 0.64553 0.28194 0.95036 0.0
C721 C 0.61941 0.23632 0.91789 0.0
H722 H 0.5942 0.21987 0.98335 0.0
C723 C 0.55865 0.16471 0.93115 0.0
C724 C 0.56172 0.14984 0.95249 0.0
C725 C 0.57069 0.18425 0.92884 0.0
C726 C 0.60143 0.22413 0.96508 0.0
H727 H 0.62974 0.31561 0.88758 0.0
H728 H 0.61318 0.27974 0.89694 0.0
H729 H 0.61318 0.25532 0.97709 0.0
H730 H 0.57985 0.14391 0.98821 0.0
H731 H 0.60076 0.1783 0.98423 0.0
H732 H 0.60742 0.20543 0.90569 0.0
C733 C 0.62488 0.28587 0.91055 0.0
C734 C 0.61231 0.24439 0.96151 0.0
C735 C 0.63413 0.30661 0.90538 0.0
C736 C 0.57689 0.15516 0.97167 0.0
C737 C 0.5889 0.17481 0.96939 0.0
C738 C 0.60854 0.21618 0.92143 0.0
C739 C 0.63062 0.27318 0.93295 0.0
C740 C 0.62099 0.25087 0.93771 0.0
C741 C 0.58605 0.18944 0.94783 0.0
C742 C 0.59905 0.21006 0.94489 0.0
H743 H 0.66647 0.30913 0.95872 0.0
H744 H 0.65029 0.27248 0.96775 0.0
H745 H 0.62639 0.24062 0.8995 0.0
H746 H 0.54677 0.16134 0.91628 0.0
H747 H 0.56781 0.19545 0.91223 0.0
C748 C 0.90809 0.87226 0.35233 0.0
C749 C 0.89613 0.85622 0.36671 0.0
C750 C 0.91709 0.8905 0.36372 0.0
C751 C 0.91142 0.92717 0.41512 0.0
H752 H 0.9766 0.92994 0.41526 0.0
C753 C 0.95775 0.98481 0.4802 0.0
C754 C 0.97821 0.9936 0.4722 0.0
C755 C 0.94712 0.96917 0.46602 0.0
C756 C 0.95836 0.92982 0.415 0.0
H757 H 0.88401 0.84735 0.40449 0.0
H758 H 0.89875 0.87982 0.42384 0.0
H759 H 0.95841 0.90149 0.39196 0.0
H760 H 1.00347 0.99356 0.44296 0.0
H761 H 0.98442 0.9672 0.41741 0.0
H762 H 0.91106 0.9558 0.43742 0.0
C763 C 0.90125 0.87798 0.40379 0.0
C764 C 0.948 0.9134 0.40176 0.0
C765 C 0.89268 0.85946 0.39258 0.0
C766 C 0.98773 0.98686 0.44958 0.0
C767 C 0.97686 0.9716 0.43507 0.0
C768 C 0.92172 0.94394 0.42791 0.0
C769 C 0.91384 0.89339 0.38955 0.0
C770 C 0.9245 0.91179 0.40201 0.0
C771 C 0.9565 0.96235 0.44321 0.0
C772 C 0.94538 0.9453 0.42836 0.0
H773 H 0.91068 0.87071 0.33227 0.0
H774 H 0.92665 0.90235 0.35238 0.0
H775 H 0.89322 0.92624 0.4154 0.0
H776 H 0.9502 0.98964 0.49773 0.0
H777 H 0.93179 0.96213 0.4733 0.0
C778 C 0.4269 0.69239 0.68352 0.0
C779 C 0.40404 0.69147 0.6901 0.0
C780 C 0.43689 0.67594 0.66906 0.0
C781 C 0.42227 0.63569 0.62244 0.0
H782 H 0.48204 0.60969 0.63722 0.0
C783 C 0.46117 0.56478 0.56497 0.0
C784 C 0.48436 0.56542 0.55997 0.0
C785 C 0.45116 0.57955 0.58149 0.0
C786 C 0.46543 0.61699 0.63263 0.0
H787 H 0.37413 0.67183 0.68783 0.0
H788 H 0.39148 0.6434 0.66234 0.0
H789 H 0.46538 0.63642 0.66543 0.0
H790 H 0.51509 0.58244 0.56792 0.0
H791 H 0.4976 0.60845 0.59606 0.0
H792 H 0.42242 0.61672 0.58938 0.0
C793 C 0.40156 0.65702 0.66804 0.0
C794 C 0.45589 0.63225 0.64886 0.0
C795 C 0.39164 0.67333 0.68262 0.0
C796 C 0.49722 0.58134 0.57152 0.0
C797 C 0.48721 0.59619 0.58784 0.0
C798 C 0.43187 0.62058 0.60609 0.0
C799 C 0.42419 0.65832 0.66079 0.0
C800 C 0.43423 0.64178 0.64391 0.0
C801 C 0.46409 0.59538 0.59322 0.0
C802 C 0.45361 0.61108 0.61093 0.0
H803 H 0.43688 0.70623 0.68873 0.0
H804 H 0.45433 0.67745 0.66359 0.0
H805 H 0.40565 0.64302 0.61795 0.0
H806 H 0.45081 0.55263 0.55647 0.0
H807 H 0.43336 0.57828 0.58541 0.0
C808 C 0.90261 0.92903 0.7494 0.0
C809 C 0.9014 0.90558 0.75243 0.0
C810 C 0.91362 0.9392 0.72857 0.0
C811 C 0.95559 0.92708 0.67821 0.0
H812 H 0.93168 0.98288 0.64631 0.0
C813 C 0.99171 0.9648 0.58379 0.0
C814 C 0.99278 0.98821 0.58034 0.0
C815 C 0.98075 0.95488 0.60478 0.0
C816 C 0.93884 0.96744 0.65512 0.0
H817 H 0.91055 0.87464 0.735 0.0
H818 H 0.92961 0.89223 0.69899 0.0
H819 H 0.91236 0.96559 0.68239 0.0
H820 H 0.98313 0.01946 0.59676 0.0
H821 H 0.96437 1.00228 0.63334 0.0
H822 H 0.98208 0.92893 0.65099 0.0
C823 C 0.92244 0.90283 0.71299 0.0
C824 C 0.92768 0.95747 0.67593 0.0
C825 C 0.91143 0.89269 0.73378 0.0
C826 C 0.98265 1.00139 0.59863 0.0
C827 C 0.97169 0.99149 0.61962 0.0
C828 C 0.96676 0.93706 0.65742 0.0
C829 C 0.92381 0.92627 0.71004 0.0
C830 C 0.93583 0.93708 0.68783 0.0
C831 C 0.97049 0.96805 0.62306 0.0
C832 C 0.95858 0.95741 0.64546 0.0
H833 H 0.89545 0.93962 0.76341 0.0
H834 H 0.91451 0.95724 0.72729 0.0
H835 H 0.96273 0.91163 0.687 0.0
H836 H 0.99922 0.95403 0.57015 0.0
H837 H 0.98001 0.93683 0.6064 0.0
C838 C 0.61717 0.17999 0.18707 0.0
C839 C 0.63892 0.18788 0.1829 0.0
C840 C 0.60777 0.16521 0.17072 0.0
C841 C 0.61302 0.14331 0.10678 0.0
H842 H 0.58117 0.09336 0.13707 0.0
C843 C 0.56243 0.08328 0.04779 0.0
C844 C 0.56314 0.06046 0.05572 0.0
C845 C 0.57238 0.09898 0.06252 0.0
C846 C 0.59019 0.10709 0.12831 0.0
H847 H 0.66749 0.18704 0.15766 0.0
H848 H 0.65126 0.16097 0.12941 0.0
H849 H 0.59676 0.12074 0.16403 0.0
H850 H 0.57553 0.0362 0.08504 0.0
H851 H 0.59312 0.06355 0.11055 0.0
H852 H 0.6068 0.12936 0.07108 0.0
C853 C 0.6414 0.16631 0.14524 0.0
C854 C 0.59886 0.12298 0.14375 0.0
C855 C 0.6508 0.18107 0.1616 0.0
C856 C 0.57456 0.05365 0.0784 0.0
C857 C 0.58451 0.06935 0.09314 0.0
C858 C 0.60432 0.12741 0.09132 0.0
C859 C 0.61988 0.15797 0.14978 0.0
C860 C 0.61038 0.14129 0.13319 0.0
C861 C 0.5833 0.09225 0.08554 0.0
C862 C 0.59282 0.10908 0.10191 0.0
H863 H 0.60763 0.18472 0.2034 0.0
H864 H 0.59103 0.15936 0.17457 0.0
H865 H 0.62165 0.1573 0.09802 0.0
H866 H 0.55384 0.08913 0.0304 0.0
H867 H 0.57096 0.11649 0.05618 0.0
C868 C 0.38801 0.57715 0.28762 0.0
C869 C 0.3888 0.59911 0.27698 0.0
C870 C 0.39893 0.57119 0.31068 0.0
C871 C 0.4243 0.59439 0.36742 0.0
H872 H 0.46132 0.53962 0.36973 0.0
C873 C 0.49343 0.57337 0.44387 0.0
C874 C 0.49582 0.55103 0.45321 0.0
C875 C 0.47876 0.57927 0.42353 0.0
C876 C 0.45082 0.5548 0.36957 0.0
H877 H 0.4006 0.6323 0.28272 0.0
H878 H 0.41991 0.62185 0.32271 0.0
H879 H 0.43775 0.54963 0.33264 0.0
H880 H 0.4845 0.51739 0.44915 0.0
H881 H 0.45874 0.52767 0.414 0.0
H882 H 0.43762 0.59965 0.4043 0.0
C883 C 0.41082 0.60924 0.31335 0.0
C884 C 0.43729 0.56052 0.34831 0.0
C885 C 0.39998 0.61517 0.2903 0.0
C886 C 0.48309 0.53474 0.4422 0.0
C887 C 0.46842 0.54061 0.42198 0.0
C888 C 0.43784 0.58865 0.38873 0.0
C889 C 0.41075 0.5871 0.32359 0.0
C890 C 0.42399 0.58045 0.34691 0.0
C891 C 0.46622 0.5629 0.41224 0.0
C892 C 0.45135 0.56885 0.38997 0.0
H893 H 0.3796 0.56439 0.27774 0.0
H894 H 0.39835 0.55405 0.31826 0.0
H895 H 0.41403 0.60974 0.36701 0.0
H896 H 0.50307 0.58623 0.45208 0.0
H897 H 0.47761 0.59654 0.4163 0.0
C898 C 0.14462 0.31443 0.8505 0.0
C899 C 0.16413 0.30163 0.84534 0.0
C900 C 0.14318 0.32593 0.87265 0.0
C901 C 0.18077 0.3537 0.9141 0.0
H902 H 0.12432 0.37017 0.94556 0.0
C903 C 0.13515 0.42726 0.97574 0.0
C904 C 0.14279 0.44584 0.96125 0.0
C905 C 0.1417 0.40553 0.96986 0.0
C906 C 0.14042 0.36551 0.93753 0.0
H907 H 0.19677 0.28943 0.85996 0.0
H908 H 0.19428 0.3096 0.89896 0.0
H909 H 0.12673 0.33708 0.921 0.0
H910 H 0.16483 0.4562 0.93072 0.0
H911 H 0.17575 0.41842 0.91999 0.0
H912 H 0.19425 0.38257 0.92994 0.0
C913 C 0.18015 0.31082 0.88577 0.0
C914 C 0.14171 0.34663 0.92322 0.0
C915 C 0.18151 0.29914 0.8636 0.0
C916 C 0.1584 0.44224 0.94199 0.0
C917 C 0.16488 0.42053 0.93606 0.0
C918 C 0.1795 0.37256 0.92849 0.0
C919 C 0.1613 0.32497 0.89007 0.0
C920 C 0.16158 0.34113 0.91036 0.0
C921 C 0.15594 0.40191 0.94931 0.0
C922 C 0.15901 0.37927 0.93938 0.0
H923 H 0.13097 0.31653 0.8367 0.0
H924 H 0.12851 0.33683 0.87517 0.0
H925 H 0.19634 0.34998 0.90441 0.0
H926 H 0.12298 0.42941 0.9906 0.0
H927 H 0.13476 0.39157 0.98067 0.0
C928 C 0.73608 0.89516 0.93424 0.0
C929 C 0.74501 0.90184 0.91048 0.0
C930 C 0.71602 0.9052 0.94314 0.0
C931 C 0.66537 0.94154 0.9209 0.0
H932 H 0.65587 0.94643 0.99273 0.0
C933 C 0.57904 0.97419 0.95728 0.0
C934 C 0.57815 0.98661 0.97906 0.0
C935 C 0.59914 0.9633 0.95009 0.0
C936 C 0.6582 0.94549 0.97256 0.0
H937 H 0.73884 0.92461 0.87754 0.0
H938 H 0.70506 0.94258 0.89336 0.0
H939 H 0.69102 0.92962 0.9781 0.0
H940 H 0.59795 0.99695 1.01062 0.0
H941 H 0.63327 0.97858 0.99777 0.0
H942 H 0.63314 0.95826 0.91518 0.0
C943 C 0.71318 0.92919 0.90507 0.0
C944 C 0.67842 0.93543 0.96409 0.0
C945 C 0.73305 0.91902 0.89608 0.0
C946 C 0.59796 0.98748 0.99377 0.0
C947 C 0.61827 0.97679 0.98636 0.0
C948 C 0.64532 0.95178 0.92933 0.0
C949 C 0.70413 0.92244 0.92873 0.0
C950 C 0.68242 0.93321 0.93806 0.0
C951 C 0.61933 0.96467 0.96416 0.0
C952 C 0.6412 0.95388 0.95534 0.0
H953 H 0.74467 0.88227 0.94625 0.0
H954 H 0.70973 0.89913 0.96128 0.0
H955 H 0.66728 0.94 0.90075 0.0
H956 H 0.56409 0.97292 0.94561 0.0
H957 H 0.5987 0.95371 0.93336 0.0
C958 C 0.79402 0.20217 0.35874 0.0
C959 C 0.79462 0.21043 0.3334 0.0
C960 C 0.8135 0.19307 0.37083 0.0
C961 C 0.87484 0.19356 0.37052 0.0
H962 H 0.87107 0.13649 0.40835 0.0
C963 C 0.94072 0.15752 0.44563 0.0
C964 C 0.94639 0.13456 0.44512 0.0
C965 C 0.92389 0.16731 0.42945 0.0
C966 C 0.87244 0.15235 0.39771 0.0
H967 H 0.81602 0.21588 0.30087 0.0
H968 H 0.85038 0.20006 0.32225 0.0
H969 H 0.8381 0.15239 0.385 0.0
H970 H 0.93917 0.10399 0.42695 0.0
H971 H 0.90993 0.12108 0.39877 0.0
H972 H 0.90918 0.1936 0.38369 0.0
C973 C 0.83475 0.20065 0.33263 0.0
C974 C 0.85353 0.16151 0.38452 0.0
C975 C 0.81513 0.20952 0.32038 0.0
C976 C 0.93539 0.12177 0.42761 0.0
C977 C 0.9185 0.13149 0.41164 0.0
C978 C 0.89374 0.18449 0.38402 0.0
C979 C 0.83404 0.19222 0.35792 0.0
C980 C 0.85451 0.18224 0.37092 0.0
C981 C 0.91228 0.15424 0.41273 0.0
C982 C 0.89268 0.16381 0.39775 0.0
H983 H 0.77839 0.2025 0.36914 0.0
H984 H 0.81254 0.18682 0.39039 0.0
H985 H 0.87595 0.20963 0.36027 0.0
H986 H 0.94901 0.1678 0.45885 0.0
H987 H 0.91933 0.18488 0.43074 0.0
C988 C 0.21355 0.60377 0.13253 0.0
C989 C 0.23263 0.59879 0.11809 0.0
C990 C 0.1923 0.59691 0.12525 0.0
C991 C 0.16098 0.57778 0.06989 0.0
H992 H 0.11876 0.55736 0.12084 0.0
C993 C 0.06997 0.55792 0.04334 0.0
C994 C 0.06075 0.53908 0.05564 0.0
C995 C 0.09036 0.56594 0.05174 0.0
C996 C 0.13041 0.56284 0.10635 0.0
H997 H 0.24456 0.58233 0.08506 0.0
H998 H 0.20761 0.56995 0.07258 0.0
H999 H 0.15578 0.56914 0.13379 0.0
H1000 H 0.06531 0.51394 0.08646 0.0
H1001 H 0.10124 0.5276 0.10088 0.0
H1002 H 0.13602 0.57067 0.04241 0.0
C1003 C 0.20888 0.57966 0.08917 0.0
C1004 C 0.15155 0.56988 0.1138 0.0
C1005 C 0.23008 0.58669 0.09633 0.0
C1006 C 0.07203 0.52859 0.07675 0.0
C1007 C 0.09256 0.5365 0.08505 0.0
C1008 C 0.13994 0.57058 0.06245 0.0
C1009 C 0.1897 0.58475 0.10348 0.0
C1010 C 0.16711 0.57742 0.09565 0.0
C1011 C 0.10207 0.55516 0.0725 0.0
C1012 C 0.12437 0.56303 0.08057 0.0
H1013 H 0.21501 0.61328 0.14926 0.0
H1014 H 0.17786 0.60144 0.13649 0.0
H1015 H 0.17239 0.58376 0.0554 0.0
H1016 H 0.06149 0.56638 0.02708 0.0
H1017 H 0.09693 0.58061 0.04193 0.0
C1018 C 0.24223 0.35777 0.61723 0.0
C1019 C 0.24325 0.35674 0.64383 0.0
C1020 C 0.25449 0.37347 0.60313 0.0
C1021 C 0.28462 0.42614 0.60742 0.0
H1022 H 0.32096 0.4031 0.55354 0.0
C1023 C 0.36353 0.46918 0.569 0.0
C1024 C 0.36897 0.46747 0.54337 0.0
C1025 C 0.34497 0.45836 0.57922 0.0
C1026 C 0.3106 0.40999 0.56815 0.0
H1027 H 0.25786 0.37155 0.67644 0.0
H1028 H 0.27905 0.39897 0.65186 0.0
H1029 H 0.29415 0.37912 0.57503 0.0
H1030 H 0.35853 0.45377 0.50814 0.0
H1031 H 0.3258 0.43556 0.52578 0.0
H1032 H 0.30141 0.45692 0.60083 0.0
C1033 C 0.26854 0.38785 0.64191 0.0
C1034 C 0.29525 0.3962 0.5805 0.0
C1035 C 0.25638 0.37211 0.65599 0.0
C1036 C 0.35476 0.45561 0.52792 0.0
C1037 C 0.33614 0.4449 0.5381 0.0
C1038 C 0.29993 0.43999 0.59498 0.0
C1039 C 0.26793 0.38853 0.61534 0.0
C1040 C 0.28241 0.40399 0.60058 0.0
C1041 C 0.33136 0.44567 0.564 0.0
C1042 C 0.31339 0.43193 0.57551 0.0
H1043 H 0.23198 0.34642 0.60728 0.0
H1044 H 0.25352 0.37378 0.58266 0.0
H1045 H 0.27471 0.43268 0.62261 0.0
H1046 H 0.37394 0.47845 0.58133 0.0
H1047 H 0.34187 0.45919 0.59928 0.0
C1048 C 0.90606 0.72948 0.89239 0.0
C1049 C 0.89795 0.74525 0.90923 0.0
C1050 C 0.91723 0.70943 0.90127 0.0
C1051 C 0.92745 0.67131 0.95946 0.0
H1052 H 0.97657 0.64769 0.91995 0.0
C1053 C 0.96949 0.58291 0.98343 0.0
C1054 C 0.99278 0.57956 0.97929 0.0
C1055 C 0.95806 0.6031 0.97546 0.0
C1056 C 0.96306 0.65405 0.93146 0.0
H1057 H 0.89539 0.75173 0.94902 0.0
H1058 H 0.9149 0.71695 0.96449 0.0
H1059 H 0.95688 0.68248 0.90562 0.0
H1060 H 0.02216 0.59535 0.9635 0.0
H1061 H 1.00242 0.63049 0.94989 0.0
H1062 H 0.93403 0.64311 0.98563 0.0
C1063 C 0.91236 0.71995 0.94428 0.0
C1064 C 0.95145 0.674 0.92298 0.0
C1065 C 0.90111 0.74002 0.93537 0.0
C1066 C 1.00425 0.59715 0.96697 0.0
C1067 C 0.99281 0.61736 0.95898 0.0
C1068 C 0.93909 0.65134 0.96796 0.0
C1069 C 0.9208 0.70434 0.92738 0.0
C1070 C 0.93337 0.683 0.93675 0.0
C1071 C 0.96947 0.62072 0.96301 0.0
C1072 C 0.9571 0.64229 0.9541 0.0
H1073 H 0.90363 0.73251 0.87216 0.0
H1074 H 0.92288 0.69778 0.88754 0.0
H1075 H 0.91356 0.6774 0.97061 0.0
H1076 H 0.95994 0.56984 0.99275 0.0
H1077 H 0.9401 0.60469 0.9787 0.0
C1078 C 0.40257 0.72338 0.06484 0.0
C1079 C 0.40782 0.71133 0.08787 0.0
C1080 C 0.41475 0.74213 0.05721 0.0
C1081 C 0.46822 0.76997 0.06902 0.0
H1082 H 0.43438 0.82477 0.04888 0.0
C1083 C 0.50431 0.85668 0.07827 0.0
C1084 C 0.49903 0.87365 0.05953 0.0
C1085 C 0.4944 0.83595 0.07769 0.0
C1086 C 0.44414 0.80953 0.05401 0.0
H1087 H 0.42982 0.70989 0.12104 0.0
H1088 H 0.45108 0.7421 0.10758 0.0
H1089 H 0.41476 0.78978 0.05457 0.0
H1090 H 0.47936 0.88209 0.02532 0.0
H1091 H 0.46223 0.8457 0.02415 0.0
H1092 H 0.4975 0.78976 0.0691 0.0
C1093 C 0.43786 0.73687 0.09519 0.0
C1094 C 0.43289 0.78949 0.05725 0.0
C1095 C 0.42566 0.71832 0.10287 0.0
C1096 C 0.48392 0.86928 0.03992 0.0
C1097 C 0.47394 0.84853 0.03938 0.0
C1098 C 0.47946 0.78997 0.06575 0.0
C1099 C 0.43248 0.74908 0.07238 0.0
C1100 C 0.44474 0.76962 0.06544 0.0
C1101 C 0.47896 0.83169 0.05837 0.0
C1102 C 0.46746 0.81007 0.05884 0.0
H1103 H 0.38906 0.71835 0.05274 0.0
H1104 H 0.41031 0.75119 0.03947 0.0
H1105 H 0.47785 0.75483 0.07491 0.0
H1106 H 0.51606 0.85946 0.09348 0.0
H1107 H 0.49841 0.82344 0.09279 0.0
C1108 C 0.1492 0.17716 0.63924 0.0
C1109 C 0.15773 0.173 0.66399 0.0
C1110 C 0.139 0.16033 0.6266 0.0
C1111 C 0.13513 0.09953 0.62471 0.0
H1112 H 0.07912 0.11495 0.58835 0.0
C1113 C 0.05913 0.05421 0.56952 0.0
C1114 C 0.07179 0.04088 0.55345 0.0
C1115 C 0.06972 0.0695 0.58419 0.0
C1116 C 0.09465 0.11033 0.59856 0.0
H1117 H 0.16258 0.14781 0.69477 0.0
H1118 H 0.14463 0.11821 0.67254 0.0
H1119 H 0.09743 0.14315 0.61196 0.0
H1120 H 0.10539 0.03278 0.54025 0.0
H1121 H 0.12399 0.05957 0.56596 0.0
H1122 H 0.13229 0.06665 0.61123 0.0
C1123 C 0.14595 0.13456 0.66298 0.0
C1124 C 0.10525 0.12653 0.61188 0.0
C1125 C 0.15605 0.15151 0.67575 0.0
C1126 C 0.09527 0.04287 0.55253 0.0
C1127 C 0.1059 0.05808 0.56734 0.0
C1128 C 0.12459 0.08332 0.61121 0.0
C1129 C 0.13713 0.1389 0.63836 0.0
C1130 C 0.12565 0.12135 0.62497 0.0
C1131 C 0.0932 0.07168 0.58316 0.0
C1132 C 0.10427 0.0886 0.59795 0.0
H1133 H 0.14997 0.19362 0.62979 0.0
H1134 H 0.13257 0.16409 0.60754 0.0
H1135 H 0.15091 0.09512 0.63453 0.0
H1136 H 0.04098 0.05299 0.57059 0.0
H1137 H 0.05953 0.07959 0.5964 0.0
C1138 C 0.62362 0.32945 0.37112 0.0
C1139 C 0.62769 0.33345 0.34517 0.0
C1140 C 0.61354 0.34607 0.38515 0.0
C1141 C 0.60485 0.40691 0.38634 0.0
H1142 H 0.55855 0.39187 0.43495 0.0
C1143 C 0.57239 0.46714 0.46165 0.0
C1144 C 0.54888 0.46854 0.46471 0.0
C1145 C 0.58222 0.45103 0.44656 0.0
C1146 C 0.5714 0.39636 0.42139 0.0
H1147 H 0.62417 0.35787 0.31348 0.0
H1148 H 0.60639 0.38705 0.33809 0.0
H1149 H 0.57435 0.36306 0.40883 0.0
H1150 H 0.51729 0.4541 0.4542 0.0
H1151 H 0.53439 0.4262 0.42812 0.0
H1152 H 0.60177 0.4403 0.39892 0.0
C1153 C 0.61116 0.37104 0.34754 0.0
C1154 C 0.58056 0.37982 0.40656 0.0
C1155 C 0.62109 0.35431 0.33342 0.0
C1156 C 0.53546 0.45354 0.45234 0.0
C1157 C 0.54525 0.43741 0.43746 0.0
C1158 C 0.59579 0.42345 0.40134 0.0
C1159 C 0.60741 0.36712 0.37359 0.0
C1160 C 0.59736 0.38491 0.38886 0.0
C1161 C 0.56872 0.4359 0.43446 0.0
C1162 C 0.5789 0.41835 0.41895 0.0
H1163 H 0.62838 0.31347 0.38063 0.0
H1164 H 0.61101 0.34258 0.4052 0.0
H1165 H 0.61795 0.41126 0.37303 0.0
H1166 H 0.5832 0.47847 0.4709 0.0
H1167 H 0.60038 0.45014 0.4447 0.0
loop_
_geom_bond_atom_site_label_1
_geom_bond_atom_site_label_2
_geom_bond_distance
_geom_bond_site_symmetry_2
_ccdc_geom_bond_type
C0 C1 1.384 . S
C0 H13 0.947 . S
C0 C35 1.382 . S
C1 C0 1.384 . S
C1 C2 1.378 . S
C2 C1 1.378 . S
C2 C3 1.378 . S
C2 H14 0.952 . S
C3 C2 1.378 . S
C3 H15 0.950 . S
C3 C34 1.383 . S
H4 C23 0.947 . S
H5 C24 0.946 . S
H6 C26 0.953 . S
H7 C27 0.945 . S
H8 C29 0.952 . S
H9 C30 0.949 . S
H10 C32 0.950 . S
H11 C33 0.948 . S
H12 C35 0.951 . S
H13 C0 0.947 . S
H14 C2 0.952 . S
H15 C3 0.950 . S
N16 C19 1.382 . S
N16 C21 1.363 . S
N17 C19 1.371 . S
N17 C20 1.372 . S
N18 C20 1.361 . S
N18 C21 1.377 . S
C19 N16 1.382 . S
C19 N17 1.371 . S
C19 C22 1.480 . S
C20 N17 1.372 . S
C20 N18 1.361 . S
C20 C28 1.457 . S
C21 N16 1.363 . S
C21 N18 1.377 . S
C21 C34 1.479 . S
C22 C19 1.480 . S
C22 C23 1.383 . S
C22 C27 1.385 . S
C23 H4 0.947 . S
C23 C22 1.383 . S
C23 C24 1.388 . S
C24 H5 0.946 . S
C24 C23 1.388 . S
C24 C25 1.384 . S
C25 C24 1.384 . S
C25 C26 1.377 . S
C26 H6 0.953 . S
C26 C25 1.377 . S
C26 C27 1.369 . S
C27 H7 0.945 . S
C27 C22 1.385 . S
C27 C26 1.369 . S
C28 C20 1.457 . S
C28 C29 1.372 . S
C28 C33 1.364 . S
C29 H8 0.952 . S
C29 C28 1.372 . S
C29 C30 1.389 . S
C30 H9 0.949 . S
C30 C29 1.389 . S
C30 C31 1.387 . S
C31 C30 1.387 . S
C31 C32 1.372 . S
C32 H10 0.950 . S
C32 C31 1.372 . S
C32 C33 1.379 . S
C33 H11 0.948 . S
C33 C28 1.364 . S
C33 C32 1.379 . S
C34 C3 1.383 . S
C34 C21 1.479 . S
C34 C35 1.398 . S
C35 C0 1.382 . S
C35 H12 0.951 . S
C35 C34 1.398 . S
C36 C37 1.384 . S
C36 H49 0.947 . S
C36 C71 1.382 . S
C37 C36 1.384 . S
C37 C38 1.378 . S
C38 C37 1.378 . S
C38 C39 1.378 . S
C38 H50 0.952 . S
C39 C38 1.378 . S
C39 H51 0.950 . S
C39 C70 1.383 . S
H40 C59 0.947 . S
H41 C60 0.946 . S
H42 C62 0.953 . S
H43 C63 0.945 . S
H44 C65 0.952 . S
H45 C66 0.949 . S
H46 C68 0.950 . S
H47 C69 0.948 . S
H48 C71 0.951 . S
H49 C36 0.947 . S
H50 C38 0.952 . S
H51 C39 0.950 . S
N52 C55 1.382 . S
N52 C57 1.363 . S
N53 C55 1.371 . S
N53 C56 1.372 . S
N54 C56 1.361 . S
N54 C57 1.377 . S
C55 N52 1.382 . S
C55 N53 1.371 . S
C55 C58 1.480 . S
C56 N53 1.372 . S
C56 N54 1.361 . S
C56 C64 1.457 . S
C57 N52 1.363 . S
C57 N54 1.377 . S
C57 C70 1.479 . S
C58 C55 1.480 . S
C58 C59 1.383 . S
C58 C63 1.385 . S
C59 H40 0.947 . S
C59 C58 1.383 . S
C59 C60 1.388 . S
C60 H41 0.946 . S
C60 C59 1.388 . S
C60 C61 1.384 . S
C61 C60 1.384 . S
C61 C62 1.377 . S
C62 H42 0.953 . S
C62 C61 1.377 . S
C62 C63 1.369 . S
C63 H43 0.945 . S
C63 C58 1.385 . S
C63 C62 1.369 . S
C64 C56 1.457 . S
C64 C65 1.372 . S
C64 C69 1.364 . S
C65 H44 0.952 . S
C65 C64 1.372 . S
C65 C66 1.389 . S
C66 H45 0.949 . S
C66 C65 1.389 . S
C66 C67 1.387 . S
C67 C66 1.387 . S
C67 C68 1.372 . S
C68 H46 0.950 . S
C68 C67 1.372 . S
C68 C69 1.379 . S
C69 H47 0.948 . S
C69 C64 1.364 . S
C69 C68 1.379 . S
C70 C39 1.383 . S
C70 C57 1.479 . S
C70 C71 1.398 . S
C71 C36 1.382 . S
C71 H48 0.951 . S
C71 C70 1.398 . S
C72 C73 1.384 . S
C72 H85 0.947 . S
C72 C107 1.382 . S
C73 C72 1.384 . S
C73 C74 1.378 . S
C74 C73 1.378 . S
C74 C75 1.378 . S
C74 H86 0.952 . S
C75 C74 1.378 . S
C75 H87 0.950 . S
C75 C106 1.383 . S
H76 C95 0.947 . S
H77 C96 0.946 . S
H78 C98 0.953 . S
H79 C99 0.945 . S
H80 C101 0.952 . S
H81 C102 0.949 . S
H82 C104 0.950 . S
H83 C105 0.948 . S
H84 C107 0.951 . S
H85 C72 0.947 . S
H86 C74 0.952 . S
H87 C75 0.950 . S
N88 C91 1.382 . S
N88 C93 1.363 . S
N89 C91 1.371 . S
N89 C92 1.372 . S
N90 C92 1.361 . S
N90 C93 1.377 . S
C91 N88 1.382 . S
C91 N89 1.371 . S
C91 C94 1.480 . S
C92 N89 1.372 . S
C92 N90 1.361 . S
C92 C100 1.457 . S
C93 N88 1.363 . S
C93 N90 1.377 . S
C93 C106 1.479 . S
C94 C91 1.480 . S
C94 C95 1.383 . S
C94 C99 1.385 . S
C95 H76 0.947 . S
C95 C94 1.383 . S
C95 C96 1.388 . S
C96 H77 0.946 . S
C96 C95 1.388 . S
C96 C97 1.384 . S
C97 C96 1.384 . S
C97 C98 1.377 . S
C98 H78 0.953 . S
C98 C97 1.377 . S
C98 C99 1.369 . S
C99 H79 0.945 . S
C99 C94 1.385 . S
C99 C98 1.369 . S
C100 C92 1.457 . S
C100 C101 1.372 . S
C100 C105 1.364 . S
C101 H80 0.952 . S
C101 C100 1.372 . S
C101 C102 1.389 . S
C102 H81 0.949 . S
C102 C101 1.389 . S
C102 C103 1.387 . S
C103 C102 1.387 . S
C103 C104 1.372 . S
C104 H82 0.950 . S
C104 C103 1.372 . S
C104 C105 1.379 . S
C105 H83 0.948 . S
C105 C100 1.364 . S
C105 C104 1.379 . S
C106 C75 1.383 . S
C106 C93 1.479 . S
C106 C107 1.398 . S
C107 C72 1.382 . S
C107 H84 0.951 . S
C107 C106 1.398 . S
C108 C109 1.384 . S
C108 H121 0.947 . S
C108 C143 1.382 . S
C109 C108 1.384 . S
C109 C110 1.378 . S
C110 C109 1.378 . S
C110 C111 1.378 . S
C110 H122 0.952 . S
C111 C110 1.378 . S
C111 H123 0.950 . S
C111 C142 1.383 . S
H112 C131 0.947 . S
H113 C132 0.946 . S
H114 C134 0.953 . S
H115 C135 0.945 . S
H116 C137 0.952 . S
H117 C138 0.949 . S
H118 C140 0.950 . S
H119 C141 0.948 . S
H120 C143 0.951 . S
H121 C108 0.947 . S
H122 C110 0.952 . S
H123 C111 0.950 . S
N124 C127 1.382 . S
N124 C129 1.363 . S
N125 C127 1.371 . S
N125 C128 1.372 . S
N126 C128 1.361 . S
N126 C129 1.377 . S
C127 N124 1.382 . S
C127 N125 1.371 . S
C127 C130 1.480 . S
C128 N125 1.372 . S
C128 N126 1.361 . S
C128 C136 1.457 . S
C129 N124 1.363 . S
C129 N126 1.377 . S
C129 C142 1.479 . S
C130 C127 1.480 . S
C130 C131 1.383 . S
C130 C135 1.385 . S
C131 H112 0.947 . S
C131 C130 1.383 . S
C131 C132 1.388 . S
C132 H113 0.946 . S
C132 C131 1.388 . S
C132 C133 1.384 . S
C133 C132 1.384 . S
C133 C134 1.377 . S
C134 H114 0.953 . S
C134 C133 1.377 . S
C134 C135 1.369 . S
C135 H115 0.945 . S
C135 C130 1.385 . S
C135 C134 1.369 . S
C136 C128 1.457 . S
C136 C137 1.372 . S
C136 C141 1.364 . S
C137 H116 0.952 . S
C137 C136 1.372 . S
C137 C138 1.389 . S
C138 H117 0.949 . S
C138 C137 1.389 . S
C138 C139 1.387 . S
C139 C138 1.387 . S
C139 C140 1.372 . S
C140 H118 0.950 . S
C140 C139 1.372 . S
C140 C141 1.379 . S
C141 H119 0.948 . S
C141 C136 1.364 . S
C141 C140 1.379 . S
C142 C111 1.383 . S
C142 C129 1.479 . S
C142 C143 1.398 . S
C143 C108 1.382 . S
C143 H120 0.951 . S
C143 C142 1.398 . S
C144 C145 1.384 . S
C144 H157 0.947 . S
C144 C179 1.382 . S
C145 C144 1.384 . S
C145 C146 1.378 . S
C146 C145 1.378 . S
C146 C147 1.378 . S
C146 H158 0.952 . S
C147 C146 1.378 . S
C147 H159 0.950 . S
C147 C178 1.383 . S
H148 C167 0.947 . S
H149 C168 0.946 . S
H150 C170 0.953 . S
H151 C171 0.945 . S
H152 C173 0.952 . S
H153 C174 0.949 . S
H154 C176 0.950 . S
H155 C177 0.948 . S
H156 C179 0.951 . S
H157 C144 0.947 . S
H158 C146 0.952 . S
H159 C147 0.950 . S
N160 C163 1.382 . S
N160 C165 1.363 . S
N161 C163 1.371 . S
N161 C164 1.372 . S
N162 C164 1.361 . S
N162 C165 1.377 . S
C163 N160 1.382 . S
C163 N161 1.371 . S
C163 C166 1.480 . S
C164 N161 1.372 . S
C164 N162 1.361 . S
C164 C172 1.457 . S
C165 N160 1.363 . S
C165 N162 1.377 . S
C165 C178 1.479 . S
C166 C163 1.480 . S
C166 C167 1.383 . S
C166 C171 1.385 . S
C167 H148 0.947 . S
C167 C166 1.383 . S
C167 C168 1.388 . S
C168 H149 0.946 . S
C168 C167 1.388 . S
C168 C169 1.384 . S
C169 C168 1.384 . S
C169 C170 1.377 . S
C170 H150 0.953 . S
C170 C169 1.377 . S
C170 C171 1.369 . S
C171 H151 0.945 . S
C171 C166 1.385 . S
C171 C170 1.369 . S
C172 C164 1.457 . S
C172 C173 1.372 . S
C172 C177 1.364 . S
C173 H152 0.952 . S
C173 C172 1.372 . S
C173 C174 1.389 . S
C174 H153 0.949 . S
C174 C173 1.389 . S
C174 C175 1.387 . S
C175 C174 1.387 . S
C175 C176 1.372 . S
C176 H154 0.950 . S
C176 C175 1.372 . S
C176 C177 1.379 . S
C177 H155 0.948 . S
C177 C172 1.364 . S
C177 C176 1.379 . S
C178 C147 1.383 . S
C178 C165 1.479 . S
C178 C179 1.398 . S
C179 C144 1.382 . S
C179 H156 0.951 . S
C179 C178 1.398 . S
C180 C181 1.384 . S
C180 H193 0.947 . S
C180 C215 1.382 . S
C181 C180 1.384 . S
C181 C182 1.378 . S
C182 C181 1.378 . S
C182 C183 1.378 . S
C182 H194 0.952 . S
C183 C182 1.378 . S
C183 H195 0.950 . S
C183 C214 1.383 . S
H184 C203 0.947 . S
H185 C204 0.946 . S
H186 C206 0.953 . S
H187 C207 0.945 . S
H188 C209 0.952 . S
H189 C210 0.949 . S
H190 C212 0.950 . S
H191 C213 0.948 . S
H192 C215 0.951 . S
H193 C180 0.947 . S
H194 C182 0.952 . S
H195 C183 0.950 . S
N196 C199 1.382 . S
N196 C201 1.363 . S
N197 C199 1.371 . S
N197 C200 1.372 . S
N198 C200 1.361 . S
N198 C201 1.377 . S
C199 N196 1.382 . S
C199 N197 1.371 . S
C199 C202 1.480 . S
C200 N197 1.372 . S
C200 N198 1.361 . S
C200 C208 1.457 . S
C201 N196 1.363 . S
C201 N198 1.377 . S
C201 C214 1.479 . S
C202 C199 1.480 . S
C202 C203 1.383 . S
C202 C207 1.385 . S
C203 H184 0.947 . S
C203 C202 1.383 . S
C203 C204 1.388 . S
C204 H185 0.946 . S
C204 C203 1.388 . S
C204 C205 1.384 . S
C205 C204 1.384 . S
C205 C206 1.377 . S
C206 H186 0.953 . S
C206 C205 1.377 . S
C206 C207 1.369 . S
C207 H187 0.945 . S
C207 C202 1.385 . S
C207 C206 1.369 . S
C208 C200 1.457 . S
C208 C209 1.372 . S
C208 C213 1.364 . S
C209 H188 0.952 . S
C209 C208 1.372 . S
C209 C210 1.389 . S
C210 H189 0.949 . S
C210 C209 1.389 . S
C210 C211 1.387 . S
C211 C210 1.387 . S
C211 C212 1.372 . S
C212 H190 0.950 . S
C212 C211 1.372 . S
C212 C213 1.379 . S
C213 H191 0.948 . S
C213 C208 1.364 . S
C213 C212 1.379 . S
C214 C183 1.383 . S
C214 C201 1.479 . S
C214 C215 1.398 . S
C215 C180 1.382 . S
C215 H192 0.951 . S
C215 C214 1.398 . S
C216 C217 1.384 . S
C216 H229 0.947 . S
C216 C251 1.382 . S
C217 C216 1.384 . S
C217 C218 1.378 . S
C218 C217 1.378 . S
C218 C219 1.378 . S
C218 H230 0.952 . S
C219 C218 1.378 . S
C219 H231 0.950 . S
C219 C250 1.383 . S
H220 C239 0.947 . S
H221 C240 0.946 . S
H222 C242 0.953 . S
H223 C243 0.945 . S
H224 C245 0.952 . S
H225 C246 0.949 . S
H226 C248 0.950 . S
H227 C249 0.948 . S
H228 C251 0.951 . S
H229 C216 0.947 . S
H230 C218 0.952 . S
H231 C219 0.950 . S
N232 C235 1.382 . S
N232 C237 1.363 . S
N233 C235 1.371 . S
N233 C236 1.372 . S
N234 C236 1.361 . S
N234 C237 1.377 . S
C235 N232 1.382 . S
C235 N233 1.371 . S
C235 C238 1.480 . S
C236 N233 1.372 . S
C236 N234 1.361 . S
C236 C244 1.457 . S
C237 N232 1.363 . S
C237 N234 1.377 . S
C237 C250 1.479 . S
C238 C235 1.480 . S
C238 C239 1.383 . S
C238 C243 1.385 . S
C239 H220 0.947 . S
C239 C238 1.383 . S
C239 C240 1.388 . S
C240 H221 0.946 . S
C240 C239 1.388 . S
C240 C241 1.384 . S
C241 C240 1.384 . S
C241 C242 1.377 . S
C242 H222 0.953 . S
C242 C241 1.377 . S
C242 C243 1.369 . S
C243 H223 0.945 . S
C243 C238 1.385 . S
C243 C242 1.369 . S
C244 C236 1.457 . S
C244 C245 1.372 . S
C244 C249 1.364 . S
C245 H224 0.952 . S
C245 C244 1.372 . S
C245 C246 1.389 . S
C246 H225 0.949 . S
C246 C245 1.389 . S
C246 C247 1.387 . S
C247 C246 1.387 . S
C247 C248 1.372 . S
C248 H226 0.950 . S
C248 C247 1.372 . S
C248 C249 1.379 . S
C249 H227 0.948 . S
C249 C244 1.364 . S
C249 C248 1.379 . S
C250 C219 1.383 . S
C250 C237 1.479 . S
C250 C251 1.398 . S
C251 C216 1.382 . S
C251 H228 0.951 . S
C251 C250 1.398 . S
C252 C253 1.384 . S
C252 H265 0.947 . S
C252 C287 1.382 . S
C253 C252 1.384 . S
C253 C254 1.378 . S
C254 C253 1.378 . S
C254 C255 1.378 . S
C254 H266 0.952 . S
C255 C254 1.378 . S
C255 H267 0.950 . S
C255 C286 1.383 . S
H256 C275 0.947 . S
H257 C276 0.946 . S
H258 C278 0.953 . S
H259 C279 0.945 . S
H260 C281 0.952 . S
H261 C282 0.949 . S
H262 C284 0.950 . S
H263 C285 0.948 . S
H264 C287 0.951 . S
H265 C252 0.947 . S
H266 C254 0.952 . S
H267 C255 0.950 . S
N268 C271 1.382 . S
N268 C273 1.363 . S
N269 C271 1.371 . S
N269 C272 1.372 . S
N270 C272 1.361 . S
N270 C273 1.377 . S
C271 N268 1.382 . S
C271 N269 1.371 . S
C271 C274 1.480 . S
C272 N269 1.372 . S
C272 N270 1.361 . S
C272 C280 1.457 . S
C273 N268 1.363 . S
C273 N270 1.377 . S
C273 C286 1.479 . S
C274 C271 1.480 . S
C274 C275 1.383 . S
C274 C279 1.385 . S
C275 H256 0.947 . S
C275 C274 1.383 . S
C275 C276 1.388 . S
C276 H257 0.946 . S
C276 C275 1.388 . S
C276 C277 1.384 . S
C277 C276 1.384 . S
C277 C278 1.377 . S
C278 H258 0.953 . S
C278 C277 1.377 . S
C278 C279 1.369 . S
C279 H259 0.945 . S
C279 C274 1.385 . S
C279 C278 1.369 . S
C280 C272 1.457 . S
C280 C281 1.372 . S
C280 C285 1.364 . S
C281 H260 0.952 . S
C281 C280 1.372 . S
C281 C282 1.389 . S
C282 H261 0.949 . S
C282 C281 1.389 . S
C282 C283 1.387 . S
C283 C282 1.387 . S
C283 C284 1.372 . S
C284 H262 0.950 . S
C284 C283 1.372 . S
C284 C285 1.379 . S
C285 H263 0.948 . S
C285 C280 1.364 . S
C285 C284 1.379 . S
C286 C255 1.383 . S
C286 C273 1.479 . S
C286 C287 1.398 . S
C287 C252 1.382 . S
C287 H264 0.951 . S
C287 C286 1.398 . S
Nd288 C290 2.836 . S
Nd288 O308 2.500 . S
Nd288 O309 2.492 . S
Nd288 O310 2.487 1_565 S
Nd288 O311 2.682 1_565 S
Nd288 O312 2.410 . S
Nd288 O317 2.414 1_455 S
Nd288 O319 2.424 1_565 S
Nd289 C299 2.836 . S
Nd289 O311 2.414 1_655 S
Nd289 O313 2.424 1_545 S
Nd289 O314 2.500 . S
Nd289 O315 2.492 . S
Nd289 O316 2.487 1_545 S
Nd289 O317 2.682 1_545 S
Nd289 O318 2.410 . S
C290 Nd288 2.836 . S
C290 C291 1.498 . S
C290 O308 1.258 . S
C290 O309 1.239 . S
C291 C290 1.498 . S
C291 C292 1.366 . S
C291 C296 1.407 . S
C292 C291 1.366 . S
C292 C293 1.392 . S
C292 H320 0.930 . S
C293 C292 1.392 . S
C293 C294 1.398 . S
C293 H321 0.929 . S
C294 C293 1.398 . S
C294 C295 1.352 . S
C295 C294 1.352 . S
C295 C296 1.384 . S
C295 H322 0.930 . S
C296 C291 1.407 . S
C296 C295 1.384 . S
C296 H323 0.929 . S
C297 O310 1.241 . S
C297 O311 1.273 . S
C298 O312 1.251 1_655 S
C298 O313 1.268 . S
C299 Nd289 2.836 . S
C299 C300 1.498 . S
C299 O314 1.258 . S
C299 O315 1.239 . S
C300 C299 1.498 . S
C300 C301 1.366 . S
C300 C305 1.407 . S
C301 C300 1.366 . S
C301 C302 1.392 . S
C301 H324 0.930 . S
C302 C301 1.392 . S
C302 C303 1.398 . S
C302 H325 0.929 . S
C303 C302 1.398 . S
C303 C304 1.352 . S
C304 C303 1.352 . S
C304 C305 1.384 . S
C304 H326 0.930 . S
C305 C300 1.407 . S
C305 C304 1.384 . S
C305 H327 0.929 . S
C306 O316 1.241 . S
C306 O317 1.273 . S
C307 O318 1.251 1_455 S
C307 O319 1.268 . S
O308 Nd288 2.500 . S
O308 C290 1.258 . S
O309 Nd288 2.492 . S
O309 C290 1.239 . S
O310 Nd288 2.487 1_545 S
O310 C297 1.241 . S
O311 Nd288 2.682 1_545 S
O311 Nd289 2.414 1_455 S
O311 C297 1.273 . S
O312 Nd288 2.410 . S
O312 C298 1.251 1_455 S
O313 Nd289 2.424 1_565 S
O313 C298 1.268 . S
O314 Nd289 2.500 . S
O314 C299 1.258 . S
O315 Nd289 2.492 . S
O315 C299 1.239 . S
O316 Nd289 2.487 1_565 S
O316 C306 1.241 . S
O317 Nd288 2.414 1_655 S
O317 Nd289 2.682 1_565 S
O317 C306 1.273 . S
O318 Nd289 2.410 . S
O318 C307 1.251 1_655 S
O319 Nd288 2.424 1_545 S
O319 C307 1.268 . S
H320 C292 0.930 . S
H321 C293 0.929 . S
H322 C295 0.930 . S
H323 C296 0.929 . S
H324 C301 0.930 . S
H325 C302 0.929 . S
H326 C304 0.930 . S
H327 C305 0.929 . S
Nd328 C330 2.836 . S
Nd328 O348 2.500 . S
Nd328 O349 2.492 . S
Nd328 O350 2.487 1_565 S
Nd328 O351 2.682 1_565 S
Nd328 O352 2.410 1_554 S
Nd328 O357 2.414 1_554 S
Nd328 O359 2.424 1_565 S
Nd329 C339 2.836 . S
Nd329 O351 2.414 1_556 S
Nd329 O353 2.424 1_545 S
Nd329 O354 2.500 . S
Nd329 O355 2.492 . S
Nd329 O356 2.487 . S
Nd329 O357 2.682 1_545 S
Nd329 O358 2.410 1_556 S
C330 Nd328 2.836 . S
C330 C331 1.498 . S
C330 O348 1.258 . S
C330 O349 1.239 . S
C331 C330 1.498 . S
C331 C332 1.366 . S
C331 C336 1.407 . S
C332 C331 1.366 . S
C332 C333 1.392 . S
C332 H360 0.930 . S
C333 C332 1.392 . S
C333 C334 1.398 . S
C333 H361 0.929 . S
C334 C333 1.398 . S
C334 C335 1.352 . S
C335 C334 1.352 . S
C335 C336 1.384 . S
C335 H362 0.930 . S
C336 C331 1.407 . S
C336 C335 1.384 . S
C336 H363 0.929 . S
C337 O350 1.241 . S
C337 O351 1.273 . S
C338 O352 1.251 . S
C338 O353 1.268 . S
C339 Nd329 2.836 . S
C339 C340 1.498 . S
C339 O354 1.258 . S
C339 O355 1.239 . S
C340 C339 1.498 . S
C340 C341 1.366 . S
C340 C345 1.407 . S
C341 C340 1.366 . S
C341 C342 1.392 . S
C341 H364 0.930 . S
C342 C341 1.392 . S
C342 C343 1.398 . S
C342 H365 0.929 . S
C343 C342 1.398 . S
C343 C344 1.352 . S
C344 C343 1.352 . S
C344 C345 1.384 . S
C344 H366 0.930 . S
C345 C340 1.407 . S
C345 C344 1.384 . S
C345 H367 0.929 . S
C346 O356 1.241 1_565 S
C346 O357 1.273 . S
C347 O358 1.251 . S
C347 O359 1.268 . S
O348 Nd328 2.500 . S
O348 C330 1.258 . S
O349 Nd328 2.492 . S
O349 C330 1.239 . S
O350 Nd328 2.487 1_545 S
O350 C337 1.241 . S
O351 Nd328 2.682 1_545 S
O351 Nd329 2.414 1_554 S
O351 C337 1.273 . S
O352 Nd328 2.410 1_556 S
O352 C338 1.251 . S
O353 Nd329 2.424 1_565 S
O353 C338 1.268 . S
O354 Nd329 2.500 . S
O354 C339 1.258 . S
O355 Nd329 2.492 . S
O355 C339 1.239 . S
O356 Nd329 2.487 . S
O356 C346 1.241 1_545 S
O357 Nd328 2.414 1_556 S
O357 Nd329 2.682 1_565 S
O357 C346 1.273 . S
O358 Nd329 2.410 1_554 S
O358 C347 1.251 . S
O359 Nd328 2.424 1_545 S
O359 C347 1.268 . S
H360 C332 0.930 . S
H361 C333 0.929 . S
H362 C335 0.930 . S
H363 C336 0.929 . S
H364 C341 0.930 . S
H365 C342 0.929 . S
H366 C344 0.930 . S
H367 C345 0.929 . S
Nd368 C370 2.836 . S
Nd368 O388 2.500 . S
Nd368 O389 2.492 . S
Nd368 O390 2.487 . S
Nd368 O391 2.682 . S
Nd368 O392 2.410 . S
Nd368 O397 2.414 . S
Nd368 O399 2.424 . S
Nd369 C379 2.836 . S
Nd369 O391 2.414 . S
Nd369 O393 2.424 . S
Nd369 O394 2.500 . S
Nd369 O395 2.492 . S
Nd369 O396 2.487 . S
Nd369 O397 2.682 . S
Nd369 O398 2.410 . S
C370 Nd368 2.836 . S
C370 C371 1.498 . S
C370 O388 1.258 . S
C370 O389 1.239 . S
C371 C370 1.498 . S
C371 C372 1.366 . S
C371 C376 1.407 . S
C372 C371 1.366 . S
C372 C373 1.392 . S
C372 H400 0.930 . S
C373 C372 1.392 . S
C373 C374 1.398 . S
C373 H401 0.929 . S
C374 C373 1.398 . S
C374 C375 1.352 . S
C375 C374 1.352 . S
C375 C376 1.384 . S
C375 H402 0.930 . S
C376 C371 1.407 . S
C376 C375 1.384 . S
C376 H403 0.929 . S
C377 O390 1.241 . S
C377 O391 1.273 . S
C378 O392 1.251 . S
C378 O393 1.268 . S
C379 Nd369 2.836 . S
C379 C380 1.498 . S
C379 O394 1.258 . S
C379 O395 1.239 . S
C380 C379 1.498 . S
C380 C381 1.366 . S
C380 C385 1.407 . S
C381 C380 1.366 . S
C381 C382 1.392 . S
C381 H404 0.930 . S
C382 C381 1.392 . S
C382 C383 1.398 . S
C382 H405 0.929 . S
C383 C382 1.398 . S
C383 C384 1.352 . S
C384 C383 1.352 . S
C384 C385 1.384 . S
C384 H406 0.930 . S
C385 C380 1.407 . S
C385 C384 1.384 . S
C385 H407 0.929 . S
C386 O396 1.241 . S
C386 O397 1.273 . S
C387 O398 1.251 . S
C387 O399 1.268 . S
O388 Nd368 2.500 . S
O388 C370 1.258 . S
O389 Nd368 2.492 . S
O389 C370 1.239 . S
O390 Nd368 2.487 . S
O390 C377 1.241 . S
O391 Nd368 2.682 . S
O391 Nd369 2.414 . S
O391 C377 1.273 . S
O392 Nd368 2.410 . S
O392 C378 1.251 . S
O393 Nd369 2.424 . S
O393 C378 1.268 . S
O394 Nd369 2.500 . S
O394 C379 1.258 . S
O395 Nd369 2.492 . S
O395 C379 1.239 . S
O396 Nd369 2.487 . S
O396 C386 1.241 . S
O397 Nd368 2.414 . S
O397 Nd369 2.682 . S
O397 C386 1.273 . S
O398 Nd369 2.410 . S
O398 C387 1.251 . S
O399 Nd368 2.424 . S
O399 C387 1.268 . S
H400 C372 0.930 . S
H401 C373 0.929 . S
H402 C375 0.930 . S
H403 C376 0.929 . S
H404 C381 0.930 . S
H405 C382 0.929 . S
H406 C384 0.930 . S
H407 C385 0.929 . S
Nd408 C410 2.836 . S
Nd408 O428 2.500 . S
Nd408 O429 2.492 . S
Nd408 O430 2.487 1_655 S
Nd408 O431 2.682 1_655 S
Nd408 O432 2.410 . S
Nd408 O437 2.414 1_554 S
Nd408 O439 2.424 1_655 S
Nd409 C419 2.836 . S
Nd409 O431 2.414 1_556 S
Nd409 O433 2.424 1_455 S
Nd409 O434 2.500 . S
Nd409 O435 2.492 . S
Nd409 O436 2.487 1_455 S
Nd409 O437 2.682 1_455 S
Nd409 O438 2.410 . S
C410 Nd408 2.836 . S
C410 C411 1.498 . S
C410 O428 1.258 . S
C410 O429 1.239 . S
C411 C410 1.498 . S
C411 C412 1.366 . S
C411 C416 1.407 . S
C412 C411 1.366 . S
C412 C413 1.392 . S
C412 H440 0.930 . S
C413 C412 1.392 . S
C413 C414 1.398 . S
C413 H441 0.929 . S
C414 C413 1.398 . S
C414 C415 1.352 . S
C415 C414 1.352 . S
C415 C416 1.384 . S
C415 H442 0.930 . S
C416 C411 1.407 . S
C416 C415 1.384 . S
C416 H443 0.929 . S
C417 O430 1.241 . S
C417 O431 1.273 . S
C418 O432 1.251 1_556 S
C418 O433 1.268 . S
C419 Nd409 2.836 . S
C419 C420 1.498 . S
C419 O434 1.258 . S
C419 O435 1.239 . S
C420 C419 1.498 . S
C420 C421 1.366 . S
C420 C425 1.407 . S
C421 C420 1.366 . S
C421 C422 1.392 . S
C421 H444 0.930 . S
C422 C421 1.392 . S
C422 C423 1.398 . S
C422 H445 0.929 . S
C423 C422 1.398 . S
C423 C424 1.352 . S
C424 C423 1.352 . S
C424 C425 1.384 . S
C424 H446 0.930 . S
C425 C420 1.407 . S
C425 C424 1.384 . S
C425 H447 0.929 . S
C426 O436 1.241 . S
C426 O437 1.273 . S
C427 O438 1.251 1_554 S
C427 O439 1.268 . S
O428 Nd408 2.500 . S
O428 C410 1.258 . S
O429 Nd408 2.492 . S
O429 C410 1.239 . S
O430 Nd408 2.487 1_455 S
O430 C417 1.241 . S
O431 Nd408 2.682 1_455 S
O431 Nd409 2.414 1_554 S
O431 C417 1.273 . S
O432 Nd408 2.410 . S
O432 C418 1.251 1_554 S
O433 Nd409 2.424 1_655 S
O433 C418 1.268 . S
O434 Nd409 2.500 . S
O434 C419 1.258 . S
O435 Nd409 2.492 . S
O435 C419 1.239 . S
O436 Nd409 2.487 1_655 S
O436 C426 1.241 . S
O437 Nd408 2.414 1_556 S
O437 Nd409 2.682 1_655 S
O437 C426 1.273 . S
O438 Nd409 2.410 . S
O438 C427 1.251 1_556 S
O439 Nd408 2.424 1_455 S
O439 C427 1.268 . S
H440 C412 0.930 . S
H441 C413 0.929 . S
H442 C415 0.930 . S
H443 C416 0.929 . S
H444 C421 0.930 . S
H445 C422 0.929 . S
H446 C424 0.930 . S
H447 C425 0.929 . S
C448 C449 1.349 . S
C448 C450 1.327 . S
C448 H473 0.950 . S
C449 C448 1.349 . S
C449 C465 1.349 . S
C450 C448 1.327 . S
C450 C469 1.429 . S
C450 H474 0.950 . S
C451 C468 1.574 . S
C451 C470 1.368 . S
C451 H475 0.949 . S
H452 C456 0.949 . S
C453 C454 1.349 . S
C453 C455 1.327 . S
C453 H476 0.950 . S
C454 C453 1.349 . S
C454 C466 1.349 . S
C455 C453 1.327 . S
C455 C471 1.429 . S
C455 H477 0.950 . S
C456 H452 0.949 . S
C456 C464 1.574 . S
C456 C472 1.368 . S
H457 C465 0.950 . S
H458 C463 0.950 . S
H459 C464 0.949 . S
H460 C466 0.950 . S
H461 C467 0.950 . S
H462 C468 0.949 . S
C463 H458 0.950 . S
C463 C465 1.327 . S
C463 C469 1.429 . S
C464 C456 1.574 . S
C464 H459 0.949 . S
C464 C470 1.368 . S
C465 C449 1.349 . S
C465 H457 0.950 . S
C465 C463 1.327 . S
C466 C454 1.349 . S
C466 H460 0.950 . S
C466 C467 1.327 . S
C467 H461 0.950 . S
C467 C466 1.327 . S
C467 C471 1.429 . S
C468 C451 1.574 . S
C468 H462 0.949 . S
C468 C472 1.368 . S
C469 C450 1.429 . S
C469 C463 1.429 . S
C469 C470 1.523 . S
C470 C451 1.368 . S
C470 C464 1.368 . S
C470 C469 1.523 . S
C471 C455 1.429 . S
C471 C467 1.429 . S
C471 C472 1.523 . S
C472 C456 1.368 . S
C472 C468 1.368 . S
C472 C471 1.523 . S
H473 C448 0.950 . S
H474 C450 0.950 . S
H475 C451 0.949 . S
H476 C453 0.950 . S
H477 C455 0.950 . S
C478 C479 1.349 . S
C478 C480 1.327 . S
C478 H503 0.950 . S
C479 C478 1.349 . S
C479 C495 1.349 . S
C480 C478 1.327 . S
C480 C499 1.429 . S
C480 H504 0.950 . S
C481 C498 1.574 . S
C481 C500 1.368 . S
C481 H505 0.949 . S
H482 C486 0.949 . S
C483 C484 1.349 . S
C483 C485 1.327 . S
C483 H506 0.950 . S
C484 C483 1.349 . S
C484 C496 1.349 . S
C485 C483 1.327 . S
C485 C501 1.429 . S
C485 H507 0.950 . S
C486 H482 0.949 . S
C486 C494 1.574 . S
C486 C502 1.368 . S
H487 C495 0.950 . S
H488 C493 0.950 . S
H489 C494 0.949 . S
H490 C496 0.950 . S
H491 C497 0.950 . S
H492 C498 0.949 . S
C493 H488 0.950 . S
C493 C495 1.327 . S
C493 C499 1.429 . S
C494 C486 1.574 . S
C494 H489 0.949 . S
C494 C500 1.368 . S
C495 C479 1.349 . S
C495 H487 0.950 . S
C495 C493 1.327 . S
C496 C484 1.349 . S
C496 H490 0.950 . S
C496 C497 1.327 . S
C497 H491 0.950 . S
C497 C496 1.327 . S
C497 C501 1.429 . S
C498 C481 1.574 . S
C498 H492 0.949 . S
C498 C502 1.368 . S
C499 C480 1.429 . S
C499 C493 1.429 . S
C499 C500 1.523 . S
C500 C481 1.368 . S
C500 C494 1.368 . S
C500 C499 1.523 . S
C501 C485 1.429 . S
C501 C497 1.429 . S
C501 C502 1.523 . S
C502 C486 1.368 . S
C502 C498 1.368 . S
C502 C501 1.523 . S
H503 C478 0.950 . S
H504 C480 0.950 . S
H505 C481 0.949 . S
H506 C483 0.950 . S
H507 C485 0.950 . S
C508 C509 1.349 . S
C508 C510 1.327 . S
C508 H533 0.950 . S
C509 C508 1.349 . S
C509 C525 1.349 . S
C510 C508 1.327 . S
C510 C529 1.429 . S
C510 H534 0.950 . S
C511 C528 1.574 . S
C511 C530 1.368 . S
C511 H535 0.949 . S
H512 C516 0.949 . S
C513 C514 1.349 . S
C513 C515 1.327 . S
C513 H536 0.950 . S
C514 C513 1.349 . S
C514 C526 1.349 . S
C515 C513 1.327 . S
C515 C531 1.429 . S
C515 H537 0.950 . S
C516 H512 0.949 . S
C516 C524 1.574 . S
C516 C532 1.368 . S
H517 C525 0.950 . S
H518 C523 0.950 . S
H519 C524 0.949 . S
H520 C526 0.950 . S
H521 C527 0.950 . S
H522 C528 0.949 . S
C523 H518 0.950 . S
C523 C525 1.327 . S
C523 C529 1.429 . S
C524 C516 1.574 . S
C524 H519 0.949 . S
C524 C530 1.368 . S
C525 C509 1.349 . S
C525 H517 0.950 . S
C525 C523 1.327 . S
C526 C514 1.349 . S
C526 H520 0.950 . S
C526 C527 1.327 . S
C527 H521 0.950 . S
C527 C526 1.327 . S
C527 C531 1.429 . S
C528 C511 1.574 . S
C528 H522 0.949 . S
C528 C532 1.368 . S
C529 C510 1.429 . S
C529 C523 1.429 . S
C529 C530 1.523 . S
C530 C511 1.368 . S
C530 C524 1.368 . S
C530 C529 1.523 . S
C531 C515 1.429 . S
C531 C527 1.429 . S
C531 C532 1.523 . S
C532 C516 1.368 . S
C532 C528 1.368 . S
C532 C531 1.523 . S
H533 C508 0.950 . S
H534 C510 0.950 . S
H535 C511 0.949 . S
H536 C513 0.950 . S
H537 C515 0.950 . S
C538 C539 1.349 . S
C538 C540 1.327 . S
C538 H563 0.950 . S
C539 C538 1.349 . S
C539 C555 1.349 . S
C540 C538 1.327 . S
C540 C559 1.429 . S
C540 H564 0.950 . S
C541 C558 1.574 . S
C541 C560 1.368 . S
C541 H565 0.949 . S
H542 C546 0.949 . S
C543 C544 1.349 . S
C543 C545 1.327 . S
C543 H566 0.950 . S
C544 C543 1.349 . S
C544 C556 1.349 . S
C545 C543 1.327 . S
C545 C561 1.429 . S
C545 H567 0.950 . S
C546 H542 0.949 . S
C546 C554 1.574 . S
C546 C562 1.368 . S
H547 C555 0.950 . S
H548 C553 0.950 . S
H549 C554 0.949 . S
H550 C556 0.950 . S
H551 C557 0.950 . S
H552 C558 0.949 . S
C553 H548 0.950 . S
C553 C555 1.327 . S
C553 C559 1.429 . S
C554 C546 1.574 . S
C554 H549 0.949 . S
C554 C560 1.368 . S
C555 C539 1.349 . S
C555 H547 0.950 . S
C555 C553 1.327 . S
C556 C544 1.349 . S
C556 H550 0.950 . S
C556 C557 1.327 . S
C557 H551 0.950 . S
C557 C556 1.327 . S
C557 C561 1.429 . S
C558 C541 1.574 . S
C558 H552 0.949 . S
C558 C562 1.368 . S
C559 C540 1.429 . S
C559 C553 1.429 . S
C559 C560 1.523 . S
C560 C541 1.368 . S
C560 C554 1.368 . S
C560 C559 1.523 . S
C561 C545 1.429 . S
C561 C557 1.429 . S
C561 C562 1.523 . S
C562 C546 1.368 . S
C562 C558 1.368 . S
C562 C561 1.523 . S
H563 C538 0.950 . S
H564 C540 0.950 . S
H565 C541 0.949 . S
H566 C543 0.950 . S
H567 C545 0.950 . S
C568 C569 1.349 . S
C568 C570 1.327 . S
C568 H593 0.950 . S
C569 C568 1.349 . S
C569 C585 1.349 . S
C570 C568 1.327 . S
C570 C589 1.429 . S
C570 H594 0.950 . S
C571 C588 1.574 . S
C571 C590 1.368 . S
C571 H595 0.949 . S
H572 C576 0.949 . S
C573 C574 1.349 . S
C573 C575 1.327 . S
C573 H596 0.950 . S
C574 C573 1.349 . S
C574 C586 1.349 . S
C575 C573 1.327 . S
C575 C591 1.429 . S
C575 H597 0.950 . S
C576 H572 0.949 . S
C576 C584 1.574 . S
C576 C592 1.368 . S
H577 C585 0.950 . S
H578 C583 0.950 . S
H579 C584 0.949 . S
H580 C586 0.950 . S
H581 C587 0.950 . S
H582 C588 0.949 . S
C583 H578 0.950 . S
C583 C585 1.327 . S
C583 C589 1.429 . S
C584 C576 1.574 . S
C584 H579 0.949 . S
C584 C590 1.368 . S
C585 C569 1.349 . S
C585 H577 0.950 . S
C585 C583 1.327 . S
C586 C574 1.349 . S
C586 H580 0.950 . S
C586 C587 1.327 . S
C587 H581 0.950 . S
C587 C586 1.327 . S
C587 C591 1.429 . S
C588 C571 1.574 . S
C588 H582 0.949 . S
C588 C592 1.368 . S
C589 C570 1.429 . S
C589 C583 1.429 . S
C589 C590 1.523 . S
C590 C571 1.368 . S
C590 C584 1.368 . S
C590 C589 1.523 . S
C591 C575 1.429 . S
C591 C587 1.429 . S
C591 C592 1.523 . S
C592 C576 1.368 . S
C592 C588 1.368 . S
C592 C591 1.523 . S
H593 C568 0.950 . S
H594 C570 0.950 . S
H595 C571 0.949 . S
H596 C573 0.950 . S
H597 C575 0.950 . S
C598 C599 1.349 . S
C598 C600 1.327 . S
C598 H623 0.950 . S
C599 C598 1.349 . S
C599 C615 1.349 . S
C600 C598 1.327 . S
C600 C619 1.429 . S
C600 H624 0.950 . S
C601 C618 1.574 . S
C601 C620 1.368 . S
C601 H625 0.949 . S
H602 C606 0.949 . S
C603 C604 1.349 . S
C603 C605 1.327 . S
C603 H626 0.950 . S
C604 C603 1.349 . S
C604 C616 1.349 . S
C605 C603 1.327 . S
C605 C621 1.429 . S
C605 H627 0.950 . S
C606 H602 0.949 . S
C606 C614 1.574 . S
C606 C622 1.368 . S
H607 C615 0.950 . S
H608 C613 0.950 . S
H609 C614 0.949 . S
H610 C616 0.950 . S
H611 C617 0.950 . S
H612 C618 0.949 . S
C613 H608 0.950 . S
C613 C615 1.327 . S
C613 C619 1.429 . S
C614 C606 1.574 . S
C614 H609 0.949 . S
C614 C620 1.368 . S
C615 C599 1.349 . S
C615 H607 0.950 . S
C615 C613 1.327 . S
C616 C604 1.349 . S
C616 H610 0.950 . S
C616 C617 1.327 . S
C617 H611 0.950 . S
C617 C616 1.327 . S
C617 C621 1.429 . S
C618 C601 1.574 . S
C618 H612 0.949 . S
C618 C622 1.368 . S
C619 C600 1.429 . S
C619 C613 1.429 . S
C619 C620 1.523 . S
C620 C601 1.368 . S
C620 C614 1.368 . S
C620 C619 1.523 . S
C621 C605 1.429 . S
C621 C617 1.429 . S
C621 C622 1.523 . S
C622 C606 1.368 . S
C622 C618 1.368 . S
C622 C621 1.523 . S
H623 C598 0.950 . S
H624 C600 0.950 . S
H625 C601 0.949 . S
H626 C603 0.950 . S
H627 C605 0.950 . S
C628 C629 1.349 . S
C628 C630 1.327 . S
C628 H653 0.950 . S
C629 C628 1.349 . S
C629 C645 1.349 . S
C630 C628 1.327 . S
C630 C649 1.429 . S
C630 H654 0.950 . S
C631 C648 1.574 . S
C631 C650 1.368 . S
C631 H655 0.949 . S
H632 C636 0.949 . S
C633 C634 1.349 . S
C633 C635 1.327 . S
C633 H656 0.950 . S
C634 C633 1.349 . S
C634 C646 1.349 . S
C635 C633 1.327 . S
C635 C651 1.429 . S
C635 H657 0.950 . S
C636 H632 0.949 . S
C636 C644 1.574 . S
C636 C652 1.368 . S
H637 C645 0.950 . S
H638 C643 0.950 . S
H639 C644 0.949 . S
H640 C646 0.950 . S
H641 C647 0.950 . S
H642 C648 0.949 . S
C643 H638 0.950 . S
C643 C645 1.327 . S
C643 C649 1.429 . S
C644 C636 1.574 . S
C644 H639 0.949 . S
C644 C650 1.368 . S
C645 C629 1.349 . S
C645 H637 0.950 . S
C645 C643 1.327 . S
C646 C634 1.349 . S
C646 H640 0.950 . S
C646 C647 1.327 . S
C647 H641 0.950 . S
C647 C646 1.327 . S
C647 C651 1.429 . S
C648 C631 1.574 . S
C648 H642 0.949 . S
C648 C652 1.368 . S
C649 C630 1.429 . S
C649 C643 1.429 . S
C649 C650 1.523 . S
C650 C631 1.368 . S
C650 C644 1.368 . S
C650 C649 1.523 . S
C651 C635 1.429 . S
C651 C647 1.429 . S
C651 C652 1.523 . S
C652 C636 1.368 . S
C652 C648 1.368 . S
C652 C651 1.523 . S
H653 C628 0.950 . S
H654 C630 0.950 . S
H655 C631 0.949 . S
H656 C633 0.950 . S
H657 C635 0.950 . S
C658 C659 1.349 . S
C658 C660 1.327 . S
C658 H683 0.950 . S
C659 C658 1.349 . S
C659 C675 1.349 . S
C660 C658 1.327 . S
C660 C679 1.429 . S
C660 H684 0.950 . S
C661 C678 1.574 . S
C661 C680 1.368 . S
C661 H685 0.949 . S
H662 C666 0.949 . S
C663 C664 1.349 . S
C663 C665 1.327 . S
C663 H686 0.950 . S
C664 C663 1.349 . S
C664 C676 1.349 . S
C665 C663 1.327 . S
C665 C681 1.429 . S
C665 H687 0.950 . S
C666 H662 0.949 . S
C666 C674 1.574 . S
C666 C682 1.368 . S
H667 C675 0.950 . S
H668 C673 0.950 . S
H669 C674 0.949 . S
H670 C676 0.950 . S
H671 C677 0.950 . S
H672 C678 0.949 . S
C673 H668 0.950 . S
C673 C675 1.327 . S
C673 C679 1.429 . S
C674 C666 1.574 . S
C674 H669 0.949 . S
C674 C680 1.368 . S
C675 C659 1.349 . S
C675 H667 0.950 . S
C675 C673 1.327 . S
C676 C664 1.349 . S
C676 H670 0.950 . S
C676 C677 1.327 . S
C677 H671 0.950 . S
C677 C676 1.327 . S
C677 C681 1.429 . S
C678 C661 1.574 . S
C678 H672 0.949 . S
C678 C682 1.368 . S
C679 C660 1.429 . S
C679 C673 1.429 . S
C679 C680 1.523 . S
C680 C661 1.368 . S
C680 C674 1.368 . S
C680 C679 1.523 . S
C681 C665 1.429 . S
C681 C677 1.429 . S
C681 C682 1.523 . S
C682 C666 1.368 . S
C682 C678 1.368 . S
C682 C681 1.523 . S
H683 C658 0.950 . S
H684 C660 0.950 . S
H685 C661 0.949 . S
H686 C663 0.950 . S
H687 C665 0.950 . S
C688 C689 1.349 . S
C688 C690 1.327 . S
C688 H713 0.950 . S
C689 C688 1.349 . S
C689 C705 1.349 . S
C690 C688 1.327 . S
C690 C709 1.429 . S
C690 H714 0.950 . S
C691 C708 1.574 . S
C691 C710 1.368 . S
C691 H715 0.949 . S
H692 C696 0.949 . S
C693 C694 1.349 . S
C693 C695 1.327 . S
C693 H716 0.950 . S
C694 C693 1.349 . S
C694 C706 1.349 . S
C695 C693 1.327 . S
C695 C711 1.429 . S
C695 H717 0.950 . S
C696 H692 0.949 . S
C696 C704 1.574 . S
C696 C712 1.368 . S
H697 C705 0.950 . S
H698 C703 0.950 . S
H699 C704 0.949 . S
H700 C706 0.950 1_556 S
H701 C707 0.950 1_556 S
H702 C708 0.949 . S
C703 H698 0.950 . S
C703 C705 1.327 . S
C703 C709 1.429 . S
C704 C696 1.574 . S
C704 H699 0.949 . S
C704 C710 1.368 . S
C705 C689 1.349 . S
C705 H697 0.950 . S
C705 C703 1.327 . S
C706 C694 1.349 . S
C706 H700 0.950 1_554 S
C706 C707 1.327 . S
C707 H701 0.950 1_554 S
C707 C706 1.327 . S
C707 C711 1.429 . S
C708 C691 1.574 . S
C708 H702 0.949 . S
C708 C712 1.368 . S
C709 C690 1.429 . S
C709 C703 1.429 . S
C709 C710 1.523 . S
C710 C691 1.368 . S
C710 C704 1.368 . S
C710 C709 1.523 . S
C711 C695 1.429 . S
C711 C707 1.429 . S
C711 C712 1.523 . S
C712 C696 1.368 . S
C712 C708 1.368 . S
C712 C711 1.523 . S
H713 C688 0.950 . S
H714 C690 0.950 . S
H715 C691 0.949 . S
H716 C693 0.950 . S
H717 C695 0.950 . S
C718 C719 1.349 . S
C718 C720 1.327 . S
C718 H743 0.950 . S
C719 C718 1.349 . S
C719 C735 1.349 . S
C720 C718 1.327 . S
C720 C739 1.429 . S
C720 H744 0.950 . S
C721 C738 1.574 . S
C721 C740 1.368 . S
C721 H745 0.949 . S
H722 C726 0.949 . S
C723 C724 1.349 . S
C723 C725 1.327 . S
C723 H746 0.950 . S
C724 C723 1.349 . S
C724 C736 1.349 . S
C725 C723 1.327 . S
C725 C741 1.429 . S
C725 H747 0.950 . S
C726 H722 0.949 . S
C726 C734 1.574 . S
C726 C742 1.368 . S
H727 C735 0.950 . S
H728 C733 0.950 . S
H729 C734 0.949 . S
H730 C736 0.950 . S
H731 C737 0.950 . S
H732 C738 0.949 . S
C733 H728 0.950 . S
C733 C735 1.327 . S
C733 C739 1.429 . S
C734 C726 1.574 . S
C734 H729 0.949 . S
C734 C740 1.368 . S
C735 C719 1.349 . S
C735 H727 0.950 . S
C735 C733 1.327 . S
C736 C724 1.349 . S
C736 H730 0.950 . S
C736 C737 1.327 . S
C737 H731 0.950 . S
C737 C736 1.327 . S
C737 C741 1.429 . S
C738 C721 1.574 . S
C738 H732 0.949 . S
C738 C742 1.368 . S
C739 C720 1.429 . S
C739 C733 1.429 . S
C739 C740 1.523 . S
C740 C721 1.368 . S
C740 C734 1.368 . S
C740 C739 1.523 . S
C741 C725 1.429 . S
C741 C737 1.429 . S
C741 C742 1.523 . S
C742 C726 1.368 . S
C742 C738 1.368 . S
C742 C741 1.523 . S
H743 C718 0.950 . S
H744 C720 0.950 . S
H745 C721 0.949 . S
H746 C723 0.950 . S
H747 C725 0.950 . S
C748 C749 1.349 . S
C748 C750 1.327 . S
C748 H773 0.950 . S
C749 C748 1.349 . S
C749 C765 1.349 . S
C750 C748 1.327 . S
C750 C769 1.429 . S
C750 H774 0.950 . S
C751 C768 1.574 . S
C751 C770 1.368 . S
C751 H775 0.949 . S
H752 C756 0.949 . S
C753 C754 1.349 . S
C753 C755 1.327 . S
C753 H776 0.950 . S
C754 C753 1.349 . S
C754 C766 1.349 . S
C755 C753 1.327 . S
C755 C771 1.429 . S
C755 H777 0.950 . S
C756 H752 0.949 . S
C756 C764 1.574 . S
C756 C772 1.368 . S
H757 C765 0.950 . S
H758 C763 0.950 . S
H759 C764 0.949 . S
H760 C766 0.950 . S
H761 C767 0.950 . S
H762 C768 0.949 . S
C763 H758 0.950 . S
C763 C765 1.327 . S
C763 C769 1.429 . S
C764 C756 1.574 . S
C764 H759 0.949 . S
C764 C770 1.368 . S
C765 C749 1.349 . S
C765 H757 0.950 . S
C765 C763 1.327 . S
C766 C754 1.349 . S
C766 H760 0.950 . S
C766 C767 1.327 . S
C767 H761 0.950 . S
C767 C766 1.327 . S
C767 C771 1.429 . S
C768 C751 1.574 . S
C768 H762 0.949 . S
C768 C772 1.368 . S
C769 C750 1.429 . S
C769 C763 1.429 . S
C769 C770 1.523 . S
C770 C751 1.368 . S
C770 C764 1.368 . S
C770 C769 1.523 . S
C771 C755 1.429 . S
C771 C767 1.429 . S
C771 C772 1.523 . S
C772 C756 1.368 . S
C772 C768 1.368 . S
C772 C771 1.523 . S
H773 C748 0.950 . S
H774 C750 0.950 . S
H775 C751 0.949 . S
H776 C753 0.950 . S
H777 C755 0.950 . S
C778 C779 1.349 . S
C778 C780 1.327 . S
C778 H803 0.950 . S
C779 C778 1.349 . S
C779 C795 1.349 . S
C780 C778 1.327 . S
C780 C799 1.429 . S
C780 H804 0.950 . S
C781 C798 1.574 . S
C781 C800 1.368 . S
C781 H805 0.949 . S
H782 C786 0.949 . S
C783 C784 1.349 . S
C783 C785 1.327 . S
C783 H806 0.950 . S
C784 C783 1.349 . S
C784 C796 1.349 . S
C785 C783 1.327 . S
C785 C801 1.429 . S
C785 H807 0.950 . S
C786 H782 0.949 . S
C786 C794 1.574 . S
C786 C802 1.368 . S
H787 C795 0.950 . S
H788 C793 0.950 . S
H789 C794 0.949 . S
H790 C796 0.950 . S
H791 C797 0.950 . S
H792 C798 0.949 . S
C793 H788 0.950 . S
C793 C795 1.327 . S
C793 C799 1.429 . S
C794 C786 1.574 . S
C794 H789 0.949 . S
C794 C800 1.368 . S
C795 C779 1.349 . S
C795 H787 0.950 . S
C795 C793 1.327 . S
C796 C784 1.349 . S
C796 H790 0.950 . S
C796 C797 1.327 . S
C797 H791 0.950 . S
C797 C796 1.327 . S
C797 C801 1.429 . S
C798 C781 1.574 . S
C798 H792 0.949 . S
C798 C802 1.368 . S
C799 C780 1.429 . S
C799 C793 1.429 . S
C799 C800 1.523 . S
C800 C781 1.368 . S
C800 C794 1.368 . S
C800 C799 1.523 . S
C801 C785 1.429 . S
C801 C797 1.429 . S
C801 C802 1.523 . S
C802 C786 1.368 . S
C802 C798 1.368 . S
C802 C801 1.523 . S
H803 C778 0.950 . S
H804 C780 0.950 . S
H805 C781 0.949 . S
H806 C783 0.950 . S
H807 C785 0.950 . S
C808 C809 1.349 . S
C808 C810 1.327 . S
C808 H833 0.950 . S
C809 C808 1.349 . S
C809 C825 1.349 . S
C810 C808 1.327 . S
C810 C829 1.429 . S
C810 H834 0.950 . S
C811 C828 1.574 . S
C811 C830 1.368 . S
C811 H835 0.949 . S
H812 C816 0.949 . S
C813 C814 1.349 . S
C813 C815 1.327 . S
C813 H836 0.950 . S
C814 C813 1.349 . S
C814 C826 1.349 . S
C815 C813 1.327 . S
C815 C831 1.429 . S
C815 H837 0.950 . S
C816 H812 0.949 . S
C816 C824 1.574 . S
C816 C832 1.368 . S
H817 C825 0.950 . S
H818 C823 0.950 . S
H819 C824 0.949 . S
H820 C826 0.950 . S
H821 C827 0.950 . S
H822 C828 0.949 . S
C823 H818 0.950 . S
C823 C825 1.327 . S
C823 C829 1.429 . S
C824 C816 1.574 . S
C824 H819 0.949 . S
C824 C830 1.368 . S
C825 C809 1.349 . S
C825 H817 0.950 . S
C825 C823 1.327 . S
C826 C814 1.349 . S
C826 H820 0.950 . S
C826 C827 1.327 . S
C827 H821 0.950 . S
C827 C826 1.327 . S
C827 C831 1.429 . S
C828 C811 1.574 . S
C828 H822 0.949 . S
C828 C832 1.368 . S
C829 C810 1.429 . S
C829 C823 1.429 . S
C829 C830 1.523 . S
C830 C811 1.368 . S
C830 C824 1.368 . S
C830 C829 1.523 . S
C831 C815 1.429 . S
C831 C827 1.429 . S
C831 C832 1.523 . S
C832 C816 1.368 . S
C832 C828 1.368 . S
C832 C831 1.523 . S
H833 C808 0.950 . S
H834 C810 0.950 . S
H835 C811 0.949 . S
H836 C813 0.950 . S
H837 C815 0.950 . S
C838 C839 1.349 . S
C838 C840 1.327 . S
C838 H863 0.950 . S
C839 C838 1.349 . S
C839 C855 1.349 . S
C840 C838 1.327 . S
C840 C859 1.429 . S
C840 H864 0.950 . S
C841 C858 1.574 . S
C841 C860 1.368 . S
C841 H865 0.949 . S
H842 C846 0.949 . S
C843 C844 1.349 . S
C843 C845 1.327 . S
C843 H866 0.950 . S
C844 C843 1.349 . S
C844 C856 1.349 . S
C845 C843 1.327 . S
C845 C861 1.429 . S
C845 H867 0.950 . S
C846 H842 0.949 . S
C846 C854 1.574 . S
C846 C862 1.368 . S
H847 C855 0.950 . S
H848 C853 0.950 . S
H849 C854 0.949 . S
H850 C856 0.950 . S
H851 C857 0.950 . S
H852 C858 0.949 . S
C853 H848 0.950 . S
C853 C855 1.327 . S
C853 C859 1.429 . S
C854 C846 1.574 . S
C854 H849 0.949 . S
C854 C860 1.368 . S
C855 C839 1.349 . S
C855 H847 0.950 . S
C855 C853 1.327 . S
C856 C844 1.349 . S
C856 H850 0.950 . S
C856 C857 1.327 . S
C857 H851 0.950 . S
C857 C856 1.327 . S
C857 C861 1.429 . S
C858 C841 1.574 . S
C858 H852 0.949 . S
C858 C862 1.368 . S
C859 C840 1.429 . S
C859 C853 1.429 . S
C859 C860 1.523 . S
C860 C841 1.368 . S
C860 C854 1.368 . S
C860 C859 1.523 . S
C861 C845 1.429 . S
C861 C857 1.429 . S
C861 C862 1.523 . S
C862 C846 1.368 . S
C862 C858 1.368 . S
C862 C861 1.523 . S
H863 C838 0.950 . S
H864 C840 0.950 . S
H865 C841 0.949 . S
H866 C843 0.950 . S
H867 C845 0.950 . S
C868 C869 1.349 . S
C868 C870 1.327 . S
C868 H893 0.950 . S
C869 C868 1.349 . S
C869 C885 1.349 . S
C870 C868 1.327 . S
C870 C889 1.429 . S
C870 H894 0.950 . S
C871 C888 1.574 . S
C871 C890 1.368 . S
C871 H895 0.949 . S
H872 C876 0.949 . S
C873 C874 1.349 . S
C873 C875 1.327 . S
C873 H896 0.950 . S
C874 C873 1.349 . S
C874 C886 1.349 . S
C875 C873 1.327 . S
C875 C891 1.429 . S
C875 H897 0.950 . S
C876 H872 0.949 . S
C876 C884 1.574 . S
C876 C892 1.368 . S
H877 C885 0.950 . S
H878 C883 0.950 . S
H879 C884 0.949 . S
H880 C886 0.950 . S
H881 C887 0.950 . S
H882 C888 0.949 . S
C883 H878 0.950 . S
C883 C885 1.327 . S
C883 C889 1.429 . S
C884 C876 1.574 . S
C884 H879 0.949 . S
C884 C890 1.368 . S
C885 C869 1.349 . S
C885 H877 0.950 . S
C885 C883 1.327 . S
C886 C874 1.349 . S
C886 H880 0.950 . S
C886 C887 1.327 . S
C887 H881 0.950 . S
C887 C886 1.327 . S
C887 C891 1.429 . S
C888 C871 1.574 . S
C888 H882 0.949 . S
C888 C892 1.368 . S
C889 C870 1.429 . S
C889 C883 1.429 . S
C889 C890 1.523 . S
C890 C871 1.368 . S
C890 C884 1.368 . S
C890 C889 1.523 . S
C891 C875 1.429 . S
C891 C887 1.429 . S
C891 C892 1.523 . S
C892 C876 1.368 . S
C892 C888 1.368 . S
C892 C891 1.523 . S
H893 C868 0.950 . S
H894 C870 0.950 . S
H895 C871 0.949 . S
H896 C873 0.950 . S
H897 C875 0.950 . S
C898 C899 1.349 . S
C898 C900 1.327 . S
C898 H923 0.950 . S
C899 C898 1.349 . S
C899 C915 1.349 . S
C900 C898 1.327 . S
C900 C919 1.429 . S
C900 H924 0.950 . S
C901 C918 1.574 . S
C901 C920 1.368 . S
C901 H925 0.949 . S
H902 C906 0.949 . S
C903 C904 1.349 . S
C903 C905 1.327 . S
C903 H926 0.950 . S
C904 C903 1.349 . S
C904 C916 1.349 . S
C905 C903 1.327 . S
C905 C921 1.429 . S
C905 H927 0.950 . S
C906 H902 0.949 . S
C906 C914 1.574 . S
C906 C922 1.368 . S
H907 C915 0.950 . S
H908 C913 0.950 . S
H909 C914 0.949 . S
H910 C916 0.950 . S
H911 C917 0.950 . S
H912 C918 0.949 . S
C913 H908 0.950 . S
C913 C915 1.327 . S
C913 C919 1.429 . S
C914 C906 1.574 . S
C914 H909 0.949 . S
C914 C920 1.368 . S
C915 C899 1.349 . S
C915 H907 0.950 . S
C915 C913 1.327 . S
C916 C904 1.349 . S
C916 H910 0.950 . S
C916 C917 1.327 . S
C917 H911 0.950 . S
C917 C916 1.327 . S
C917 C921 1.429 . S
C918 C901 1.574 . S
C918 H912 0.949 . S
C918 C922 1.368 . S
C919 C900 1.429 . S
C919 C913 1.429 . S
C919 C920 1.523 . S
C920 C901 1.368 . S
C920 C914 1.368 . S
C920 C919 1.523 . S
C921 C905 1.429 . S
C921 C917 1.429 . S
C921 C922 1.523 . S
C922 C906 1.368 . S
C922 C918 1.368 . S
C922 C921 1.523 . S
H923 C898 0.950 . S
H924 C900 0.950 . S
H925 C901 0.949 . S
H926 C903 0.950 . S
H927 C905 0.950 . S
C928 C929 1.349 . S
C928 C930 1.327 . S
C928 H953 0.950 . S
C929 C928 1.349 . S
C929 C945 1.349 . S
C930 C928 1.327 . S
C930 C949 1.429 . S
C930 H954 0.950 . S
C931 C948 1.574 . S
C931 C950 1.368 . S
C931 H955 0.949 . S
H932 C936 0.949 . S
C933 C934 1.349 . S
C933 C935 1.327 . S
C933 H956 0.950 . S
C934 C933 1.349 . S
C934 C946 1.349 . S
C935 C933 1.327 . S
C935 C951 1.429 . S
C935 H957 0.950 . S
C936 H932 0.949 . S
C936 C944 1.574 . S
C936 C952 1.368 . S
H937 C945 0.950 . S
H938 C943 0.950 . S
H939 C944 0.949 . S
H940 C946 0.950 1_554 S
H941 C947 0.950 1_554 S
H942 C948 0.949 . S
C943 H938 0.950 . S
C943 C945 1.327 . S
C943 C949 1.429 . S
C944 C936 1.574 . S
C944 H939 0.949 . S
C944 C950 1.368 . S
C945 C929 1.349 . S
C945 H937 0.950 . S
C945 C943 1.327 . S
C946 C934 1.349 . S
C946 H940 0.950 1_556 S
C946 C947 1.327 . S
C947 H941 0.950 1_556 S
C947 C946 1.327 . S
C947 C951 1.429 . S
C948 C931 1.574 . S
C948 H942 0.949 . S
C948 C952 1.368 . S
C949 C930 1.429 . S
C949 C943 1.429 . S
C949 C950 1.523 . S
C950 C931 1.368 . S
C950 C944 1.368 . S
C950 C949 1.523 . S
C951 C935 1.429 . S
C951 C947 1.429 . S
C951 C952 1.523 . S
C952 C936 1.368 . S
C952 C948 1.368 . S
C952 C951 1.523 . S
H953 C928 0.950 . S
H954 C930 0.950 . S
H955 C931 0.949 . S
H956 C933 0.950 . S
H957 C935 0.950 . S
C958 C959 1.349 . S
C958 C960 1.327 . S
C958 H983 0.950 . S
C959 C958 1.349 . S
C959 C975 1.349 . S
C960 C958 1.327 . S
C960 C979 1.429 . S
C960 H984 0.950 . S
C961 C978 1.574 . S
C961 C980 1.368 . S
C961 H985 0.949 . S
H962 C966 0.949 . S
C963 C964 1.349 . S
C963 C965 1.327 . S
C963 H986 0.950 . S
C964 C963 1.349 . S
C964 C976 1.349 . S
C965 C963 1.327 . S
C965 C981 1.429 . S
C965 H987 0.950 . S
C966 H962 0.949 . S
C966 C974 1.574 . S
C966 C982 1.368 . S
H967 C975 0.950 . S
H968 C973 0.950 . S
H969 C974 0.949 . S
H970 C976 0.950 . S
H971 C977 0.950 . S
H972 C978 0.949 . S
C973 H968 0.950 . S
C973 C975 1.327 . S
C973 C979 1.429 . S
C974 C966 1.574 . S
C974 H969 0.949 . S
C974 C980 1.368 . S
C975 C959 1.349 . S
C975 H967 0.950 . S
C975 C973 1.327 . S
C976 C964 1.349 . S
C976 H970 0.950 . S
C976 C977 1.327 . S
C977 H971 0.950 . S
C977 C976 1.327 . S
C977 C981 1.429 . S
C978 C961 1.574 . S
C978 H972 0.949 . S
C978 C982 1.368 . S
C979 C960 1.429 . S
C979 C973 1.429 . S
C979 C980 1.523 . S
C980 C961 1.368 . S
C980 C974 1.368 . S
C980 C979 1.523 . S
C981 C965 1.429 . S
C981 C977 1.429 . S
C981 C982 1.523 . S
C982 C966 1.368 . S
C982 C978 1.368 . S
C982 C981 1.523 . S
H983 C958 0.950 . S
H984 C960 0.950 . S
H985 C961 0.949 . S
H986 C963 0.950 . S
H987 C965 0.950 . S
C988 C989 1.349 . S
C988 C990 1.327 . S
C988 H1013 0.950 . S
C989 C988 1.349 . S
C989 C1005 1.349 . S
C990 C988 1.327 . S
C990 C1009 1.429 . S
C990 H1014 0.950 . S
C991 C1008 1.574 . S
C991 C1010 1.368 . S
C991 H1015 0.949 . S
H992 C996 0.949 . S
C993 C994 1.349 . S
C993 C995 1.327 . S
C993 H1016 0.950 1_554 S
C994 C993 1.349 . S
C994 C1006 1.349 . S
C995 C993 1.327 . S
C995 C1011 1.429 . S
C995 H1017 0.950 . S
C996 H992 0.949 . S
C996 C1004 1.574 . S
C996 C1012 1.368 . S
H997 C1005 0.950 . S
H998 C1003 0.950 . S
H999 C1004 0.949 . S
H1000 C1006 0.950 . S
H1001 C1007 0.950 . S
H1002 C1008 0.949 . S
C1003 H998 0.950 . S
C1003 C1005 1.327 . S
C1003 C1009 1.429 . S
C1004 C996 1.574 . S
C1004 H999 0.949 . S
C1004 C1010 1.368 . S
C1005 C989 1.349 . S
C1005 H997 0.950 . S
C1005 C1003 1.327 . S
C1006 C994 1.349 . S
C1006 H1000 0.950 . S
C1006 C1007 1.327 . S
C1007 H1001 0.950 . S
C1007 C1006 1.327 . S
C1007 C1011 1.429 . S
C1008 C991 1.574 . S
C1008 H1002 0.949 . S
C1008 C1012 1.368 . S
C1009 C990 1.429 . S
C1009 C1003 1.429 . S
C1009 C1010 1.523 . S
C1010 C991 1.368 . S
C1010 C1004 1.368 . S
C1010 C1009 1.523 . S
C1011 C995 1.429 . S
C1011 C1007 1.429 . S
C1011 C1012 1.523 . S
C1012 C996 1.368 . S
C1012 C1008 1.368 . S
C1012 C1011 1.523 . S
H1013 C988 0.950 . S
H1014 C990 0.950 . S
H1015 C991 0.949 . S
H1016 C993 0.950 1_556 S
H1017 C995 0.950 . S
C1018 C1019 1.349 . S
C1018 C1020 1.327 . S
C1018 H1043 0.950 . S
C1019 C1018 1.349 . S
C1019 C1035 1.349 . S
C1020 C1018 1.327 . S
C1020 C1039 1.429 . S
C1020 H1044 0.950 . S
C1021 C1038 1.574 . S
C1021 C1040 1.368 . S
C1021 H1045 0.949 . S
H1022 C1026 0.949 . S
C1023 C1024 1.349 . S
C1023 C1025 1.327 . S
C1023 H1046 0.950 . S
C1024 C1023 1.349 . S
C1024 C1036 1.349 . S
C1025 C1023 1.327 . S
C1025 C1041 1.429 . S
C1025 H1047 0.950 . S
C1026 H1022 0.949 . S
C1026 C1034 1.574 . S
C1026 C1042 1.368 . S
H1027 C1035 0.950 . S
H1028 C1033 0.950 . S
H1029 C1034 0.949 . S
H1030 C1036 0.950 . S
H1031 C1037 0.950 . S
H1032 C1038 0.949 . S
C1033 H1028 0.950 . S
C1033 C1035 1.327 . S
C1033 C1039 1.429 . S
C1034 C1026 1.574 . S
C1034 H1029 0.949 . S
C1034 C1040 1.368 . S
C1035 C1019 1.349 . S
C1035 H1027 0.950 . S
C1035 C1033 1.327 . S
C1036 C1024 1.349 . S
C1036 H1030 0.950 . S
C1036 C1037 1.327 . S
C1037 H1031 0.950 . S
C1037 C1036 1.327 . S
C1037 C1041 1.429 . S
C1038 C1021 1.574 . S
C1038 H1032 0.949 . S
C1038 C1042 1.368 . S
C1039 C1020 1.429 . S
C1039 C1033 1.429 . S
C1039 C1040 1.523 . S
C1040 C1021 1.368 . S
C1040 C1034 1.368 . S
C1040 C1039 1.523 . S
C1041 C1025 1.429 . S
C1041 C1037 1.429 . S
C1041 C1042 1.523 . S
C1042 C1026 1.368 . S
C1042 C1038 1.368 . S
C1042 C1041 1.523 . S
H1043 C1018 0.950 . S
H1044 C1020 0.950 . S
H1045 C1021 0.949 . S
H1046 C1023 0.950 . S
H1047 C1025 0.950 . S
C1048 C1049 1.349 . S
C1048 C1050 1.327 . S
C1048 H1073 0.950 . S
C1049 C1048 1.349 . S
C1049 C1065 1.349 . S
C1050 C1048 1.327 . S
C1050 C1069 1.429 . S
C1050 H1074 0.950 . S
C1051 C1068 1.574 . S
C1051 C1070 1.368 . S
C1051 H1075 0.949 . S
H1052 C1056 0.949 . S
C1053 C1054 1.349 . S
C1053 C1055 1.327 . S
C1053 H1076 0.950 1_556 S
C1054 C1053 1.349 . S
C1054 C1066 1.349 . S
C1055 C1053 1.327 . S
C1055 C1071 1.429 . S
C1055 H1077 0.950 1_556 S
C1056 H1052 0.949 . S
C1056 C1064 1.574 . S
C1056 C1072 1.368 . S
H1057 C1065 0.950 . S
H1058 C1063 0.950 . S
H1059 C1064 0.949 . S
H1060 C1066 0.950 . S
H1061 C1067 0.950 . S
H1062 C1068 0.949 . S
C1063 H1058 0.950 . S
C1063 C1065 1.327 . S
C1063 C1069 1.429 . S
C1064 C1056 1.574 . S
C1064 H1059 0.949 . S
C1064 C1070 1.368 . S
C1065 C1049 1.349 . S
C1065 H1057 0.950 . S
C1065 C1063 1.327 . S
C1066 C1054 1.349 . S
C1066 H1060 0.950 . S
C1066 C1067 1.327 . S
C1067 H1061 0.950 . S
C1067 C1066 1.327 . S
C1067 C1071 1.429 . S
C1068 C1051 1.574 . S
C1068 H1062 0.949 . S
C1068 C1072 1.368 . S
C1069 C1050 1.429 . S
C1069 C1063 1.429 . S
C1069 C1070 1.523 . S
C1070 C1051 1.368 . S
C1070 C1064 1.368 . S
C1070 C1069 1.523 . S
C1071 C1055 1.429 . S
C1071 C1067 1.429 . S
C1071 C1072 1.523 . S
C1072 C1056 1.368 . S
C1072 C1068 1.368 . S
C1072 C1071 1.523 . S
H1073 C1048 0.950 . S
H1074 C1050 0.950 . S
H1075 C1051 0.949 . S
H1076 C1053 0.950 1_554 S
H1077 C1055 0.950 1_554 S
C1078 C1079 1.349 . S
C1078 C1080 1.327 . S
C1078 H1103 0.950 . S
C1079 C1078 1.349 . S
C1079 C1095 1.349 . S
C1080 C1078 1.327 . S
C1080 C1099 1.429 . S
C1080 H1104 0.950 . S
C1081 C1098 1.574 . S
C1081 C1100 1.368 . S
C1081 H1105 0.949 . S
H1082 C1086 0.949 . S
C1083 C1084 1.349 . S
C1083 C1085 1.327 . S
C1083 H1106 0.950 . S
C1084 C1083 1.349 . S
C1084 C1096 1.349 . S
C1085 C1083 1.327 . S
C1085 C1101 1.429 . S
C1085 H1107 0.950 . S
C1086 H1082 0.949 . S
C1086 C1094 1.574 . S
C1086 C1102 1.368 . S
H1087 C1095 0.950 . S
H1088 C1093 0.950 . S
H1089 C1094 0.949 . S
H1090 C1096 0.950 . S
H1091 C1097 0.950 . S
H1092 C1098 0.949 . S
C1093 H1088 0.950 . S
C1093 C1095 1.327 . S
C1093 C1099 1.429 . S
C1094 C1086 1.574 . S
C1094 H1089 0.949 . S
C1094 C1100 1.368 . S
C1095 C1079 1.349 . S
C1095 H1087 0.950 . S
C1095 C1093 1.327 . S
C1096 C1084 1.349 . S
C1096 H1090 0.950 . S
C1096 C1097 1.327 . S
C1097 H1091 0.950 . S
C1097 C1096 1.327 . S
C1097 C1101 1.429 . S
C1098 C1081 1.574 . S
C1098 H1092 0.949 . S
C1098 C1102 1.368 . S
C1099 C1080 1.429 . S
C1099 C1093 1.429 . S
C1099 C1100 1.523 . S
C1100 C1081 1.368 . S
C1100 C1094 1.368 . S
C1100 C1099 1.523 . S
C1101 C1085 1.429 . S
C1101 C1097 1.429 . S
C1101 C1102 1.523 . S
C1102 C1086 1.368 . S
C1102 C1098 1.368 . S
C1102 C1101 1.523 . S
H1103 C1078 0.950 . S
H1104 C1080 0.950 . S
H1105 C1081 0.949 . S
H1106 C1083 0.950 . S
H1107 C1085 0.950 . S
C1108 C1109 1.349 . S
C1108 C1110 1.327 . S
C1108 H1133 0.950 . S
C1109 C1108 1.349 . S
C1109 C1125 1.349 . S
C1110 C1108 1.327 . S
C1110 C1129 1.429 . S
C1110 H1134 0.950 . S
C1111 C1128 1.574 . S
C1111 C1130 1.368 . S
C1111 H1135 0.949 . S
H1112 C1116 0.949 . S
C1113 C1114 1.349 . S
C1113 C1115 1.327 . S
C1113 H1136 0.950 . S
C1114 C1113 1.349 . S
C1114 C1126 1.349 . S
C1115 C1113 1.327 . S
C1115 C1131 1.429 . S
C1115 H1137 0.950 . S
C1116 H1112 0.949 . S
C1116 C1124 1.574 . S
C1116 C1132 1.368 . S
H1117 C1125 0.950 . S
H1118 C1123 0.950 . S
H1119 C1124 0.949 . S
H1120 C1126 0.950 . S
H1121 C1127 0.950 . S
H1122 C1128 0.949 . S
C1123 H1118 0.950 . S
C1123 C1125 1.327 . S
C1123 C1129 1.429 . S
C1124 C1116 1.574 . S
C1124 H1119 0.949 . S
C1124 C1130 1.368 . S
C1125 C1109 1.349 . S
C1125 H1117 0.950 . S
C1125 C1123 1.327 . S
C1126 C1114 1.349 . S
C1126 H1120 0.950 . S
C1126 C1127 1.327 . S
C1127 H1121 0.950 . S
C1127 C1126 1.327 . S
C1127 C1131 1.429 . S
C1128 C1111 1.574 . S
C1128 H1122 0.949 . S
C1128 C1132 1.368 . S
C1129 C1110 1.429 . S
C1129 C1123 1.429 . S
C1129 C1130 1.523 . S
C1130 C1111 1.368 . S
C1130 C1124 1.368 . S
C1130 C1129 1.523 . S
C1131 C1115 1.429 . S
C1131 C1127 1.429 . S
C1131 C1132 1.523 . S
C1132 C1116 1.368 . S
C1132 C1128 1.368 . S
C1132 C1131 1.523 . S
H1133 C1108 0.950 . S
H1134 C1110 0.950 . S
H1135 C1111 0.949 . S
H1136 C1113 0.950 . S
H1137 C1115 0.950 . S
C1138 C1139 1.349 . S
C1138 C1140 1.327 . S
C1138 H1163 0.950 . S
C1139 C1138 1.349 . S
C1139 C1155 1.349 . S
C1140 C1138 1.327 . S
C1140 C1159 1.429 . S
C1140 H1164 0.950 . S
C1141 C1158 1.574 . S
C1141 C1160 1.368 . S
C1141 H1165 0.949 . S
H1142 C1146 0.949 . S
C1143 C1144 1.349 . S
C1143 C1145 1.327 . S
C1143 H1166 0.950 . S
C1144 C1143 1.349 . S
C1144 C1156 1.349 . S
C1145 C1143 1.327 . S
C1145 C1161 1.429 . S
C1145 H1167 0.950 . S
C1146 H1142 0.949 . S
C1146 C1154 1.574 . S
C1146 C1162 1.368 . S
H1147 C1155 0.950 . S
H1148 C1153 0.950 . S
H1149 C1154 0.949 . S
H1150 C1156 0.950 . S
H1151 C1157 0.950 . S
H1152 C1158 0.949 . S
C1153 H1148 0.950 . S
C1153 C1155 1.327 . S
C1153 C1159 1.429 . S
C1154 C1146 1.574 . S
C1154 H1149 0.949 . S
C1154 C1160 1.368 . S
C1155 C1139 1.349 . S
C1155 H1147 0.950 . S
C1155 C1153 1.327 . S
C1156 C1144 1.349 . S
C1156 H1150 0.950 . S
C1156 C1157 1.327 . S
C1157 H1151 0.950 . S
C1157 C1156 1.327 . S
C1157 C1161 1.429 . S
C1158 C1141 1.574 . S
C1158 H1152 0.949 . S
C1158 C1162 1.368 . S
C1159 C1140 1.429 . S
C1159 C1153 1.429 . S
C1159 C1160 1.523 . S
C1160 C1141 1.368 . S
C1160 C1154 1.368 . S
C1160 C1159 1.523 . S
C1161 C1145 1.429 . S
C1161 C1157 1.429 . S
C1161 C1162 1.523 . S
C1162 C1146 1.368 . S
C1162 C1158 1.368 . S
C1162 C1161 1.523 . S
H1163 C1138 0.950 . S
H1164 C1140 0.950 . S
H1165 C1141 0.949 . S
H1166 C1143 0.950 . S
H1167 C1145 0.950 . S
C449 C1 2.930 . S
C454 C307 2.913 . S
C479 C67 2.445 . S
C484 C338 2.480 . S
C514 C377 1.277 . S
C509 C97 1.305 . S
C539 C133 0.369 . S
C544 C414 0.395 . S
C574 C337 2.849 . S
C569 C25 2.915 . S
C604 C294 1.610 . S
C599 C37 1.608 . S
C634 C426 1.328 . S
C629 C103 1.361 . S
C664 C383 0.906 . S
C659 C109 0.907 . S
C689 C31 2.272 . S
C694 C427 2.287 . S
C724 C343 1.270 . S
C719 C73 1.262 . S
C749 C139 0.587 . S
C754 C306 0.615 . S
C779 C61 2.616 . S
C784 C378 2.606 . S
C814 C298 2.922 . S
C809 C175 2.949 . S
C839 C181 2.433 . S
C844 C347 2.464 . S
C869 C247 1.342 . S
C874 C386 1.294 . S
C899 C277 0.380 . S
C904 C423 0.389 . S
C929 C145 2.927 . S
C934 C346 2.840 . S
C964 C303 1.619 . S
C959 C211 1.611 . S
C994 C417 1.309 . S
C989 C217 1.354 . S
C1024 C374 0.927 . S
C1019 C283 0.932 . S
C1049 C169 2.278 . S
C1054 C418 2.282 . S
C1084 C334 1.269 . S
C1079 C241 1.267 . S
C1114 C297 0.605 . S
C1109 C253 0.574 . S
C1139 C205 2.624 . S
C1144 C387 2.618 . S
