# Generated by pormake.
# Topology hwx, (6,3)-cn, num edge types: 1
# Building blocks:
#     Node 0, Type 0, BuildingBlock: IZENUY_clean_sbu_0, # of connection points: 6
#     Node 1, Type 0, BuildingBlock: IZENUY_clean_sbu_0, # of connection points: 6
#     Node 2, Type 0, BuildingBlock: IZENUY_clean_sbu_0, # of connection points: 6
#     Node 3, Type 0, BuildingBlock: IZENUY_clean_sbu_0, # of connection points: 6
#     Node 4, Type 1, BuildingBlock: PAMTOO_clean_linker_0, # of connection points: 3
#     Node 5, Type 1, BuildingBlock: PAMTOO_clean_linker_0, # of connection points: 3
#     Node 6, Type 1, BuildingBlock: PAMTOO_clean_linker_0, # of connection points: 3
#     Node 7, Type 1, BuildingBlock: PAMTOO_clean_linker_0, # of connection points: 3
#     Node 8, Type 1, BuildingBlock: PAMTOO_clean_linker_0, # of connection points: 3
#     Node 9, Type 1, BuildingBlock: PAMTOO_clean_linker_0, # of connection points: 3
#     Node 10, Type 1, BuildingBlock: PAMTOO_clean_linker_0, # of connection points: 3
#     Node 11, Type 1, BuildingBlock: PAMTOO_clean_linker_0, # of connection points: 3
#     Edge 12, Type (0, 1), BuildingBlock: ZUJKAS_clean_linker_0, # of connection points: 2
#     Edge 13, Type (0, 1), BuildingBlock: ZUJKAS_clean_linker_0, # of connection points: 2
#     Edge 14, Type (0, 1), BuildingBlock: ZUJKAS_clean_linker_0, # of connection points: 2
#     Edge 15, Type (0, 1), BuildingBlock: ZUJKAS_clean_linker_0, # of connection points: 2
#     Edge 16, Type (0, 1), BuildingBlock: ZUJKAS_clean_linker_0, # of connection points: 2
#     Edge 17, Type (0, 1), BuildingBlock: ZUJKAS_clean_linker_0, # of connection points: 2
#     Edge 18, Type (0, 1), BuildingBlock: ZUJKAS_clean_linker_0, # of connection points: 2
#     Edge 19, Type (0, 1), BuildingBlock: ZUJKAS_clean_linker_0, # of connection points: 2
#     Edge 20, Type (0, 1), BuildingBlock: ZUJKAS_clean_linker_0, # of connection points: 2
#     Edge 21, Type (0, 1), BuildingBlock: ZUJKAS_clean_linker_0, # of connection points: 2
#     Edge 22, Type (0, 1), BuildingBlock: ZUJKAS_clean_linker_0, # of connection points: 2
#     Edge 23, Type (0, 1), BuildingBlock: ZUJKAS_clean_linker_0, # of connection points: 2
#     Edge 24, Type (0, 1), BuildingBlock: ZUJKAS_clean_linker_0, # of connection points: 2
#     Edge 25, Type (0, 1), BuildingBlock: ZUJKAS_clean_linker_0, # of connection points: 2
#     Edge 26, Type (0, 1), BuildingBlock: ZUJKAS_clean_linker_0, # of connection points: 2
#     Edge 27, Type (0, 1), BuildingBlock: ZUJKAS_clean_linker_0, # of connection points: 2
#     Edge 28, Type (0, 1), BuildingBlock: ZUJKAS_clean_linker_0, # of connection points: 2
#     Edge 29, Type (0, 1), BuildingBlock: ZUJKAS_clean_linker_0, # of connection points: 2
#     Edge 30, Type (0, 1), BuildingBlock: ZUJKAS_clean_linker_0, # of connection points: 2
#     Edge 31, Type (0, 1), BuildingBlock: ZUJKAS_clean_linker_0, # of connection points: 2
#     Edge 32, Type (0, 1), BuildingBlock: ZUJKAS_clean_linker_0, # of connection points: 2
#     Edge 33, Type (0, 1), BuildingBlock: ZUJKAS_clean_linker_0, # of connection points: 2
#     Edge 34, Type (0, 1), BuildingBlock: ZUJKAS_clean_linker_0, # of connection points: 2
#     Edge 35, Type (0, 1), BuildingBlock: ZUJKAS_clean_linker_0, # of connection points: 2
# Relax obj value: 0.003
# Max RMSD: 0.065
# Mean RMSD: 0.051
data_MOF--net-hwx--node1-IZENUY_clean_sbu_0--node2-PAMTOO_clean_linker_0--edge1-ZUJKAS_clean_linker_0
_symmetry_space_group_name_H-M    P1
_symmetry_Int_Tables_number       1
_symmetry_cell_setting            triclinic
loop_
_symmetry_equiv_pos_as_xyz
'x, y, z'
_cell_length_a     66.354363
_cell_length_b     66.347378
_cell_length_c     26.988042
_cell_angle_alpha  88.408018
_cell_angle_beta   91.57986
_cell_angle_gamma 90.006053
loop_
_atom_site_label
_atom_site_type_symbol
_atom_site_fract_x
_atom_site_fract_y
_atom_site_fract_z
_atom_type_partial_charge
Fe0 Fe 0.23373 0.23092 0.07244 0.0
Fe1 Fe 0.23483 0.23091 0.9588 0.0
O2 O 0.22493 0.22143 0.0151 0.0
Fe3 Fe 0.20617 0.20244 0.01424 0.0
O4 O 0.18844 0.2185 0.04419 0.0
O5 O 0.20947 0.22781 0.10348 0.0
O6 O 0.22558 0.25625 0.0548 0.0
C7 C 0.23119 0.26587 0.01663 0.0
C8 C 0.23138 0.19075 0.0964 0.0
O9 O 0.23871 0.25671 0.98084 0.0
C10 C 0.23109 0.18881 0.94361 0.0
O11 O 0.25957 0.23589 0.052 0.0
O12 O 0.26021 0.22338 0.97759 0.0
O13 O 0.21448 0.19036 0.07342 0.0
O14 O 0.24247 0.20616 0.09365 0.0
C15 C 0.19488 0.22788 0.93215 0.0
O16 O 0.23276 0.20678 0.92681 0.0
O17 O 0.22265 0.18516 0.98415 0.0
C18 C 0.26932 0.22909 0.01633 0.0
O19 O 0.21012 0.23913 0.936 0.0
O20 O 0.1944 0.21096 0.95496 0.0
C21 C 0.19166 0.22633 0.08567 0.0
Fe22 Fe 0.27415 0.73094 0.57541 0.0
Fe23 Fe 0.29992 0.70178 0.51781 0.0
O24 O 0.28222 0.72177 0.51821 0.0
Fe25 Fe 0.27269 0.7326 0.46152 0.0
O26 O 0.27028 0.75821 0.48527 0.0
O27 O 0.2835 0.75602 0.56084 0.0
O28 O 0.29826 0.72611 0.60883 0.0
C29 C 0.31592 0.72383 0.59312 0.0
C30 C 0.23834 0.73161 0.51533 0.0
O31 O 0.31864 0.71632 0.55144 0.0
C32 C 0.27423 0.69063 0.44273 0.0
O33 O 0.26423 0.70645 0.59378 0.0
O34 O 0.29113 0.68932 0.57489 0.0
O35 O 0.24692 0.72627 0.47666 0.0
O36 O 0.24859 0.73747 0.55251 0.0
C37 C 0.31236 0.72769 0.43928 0.0
O38 O 0.28244 0.68593 0.48412 0.0
O39 O 0.27339 0.7089 0.42757 0.0
C40 C 0.27445 0.69041 0.59637 0.0
O41 O 0.31194 0.71047 0.46064 0.0
O42 O 0.29778 0.73975 0.44242 0.0
C43 C 0.27841 0.76643 0.5227 0.0
Fe44 Fe 0.7718 0.78527 0.95066 0.0
Fe45 Fe 0.77373 0.78393 0.06464 0.0
O46 O 0.78166 0.79448 0.00735 0.0
Fe47 Fe 0.79955 0.8143 0.0069 0.0
O48 O 0.78955 0.82663 0.94968 0.0
O49 O 0.76193 0.80988 0.93169 0.0
O50 O 0.74664 0.77954 0.9746 0.0
C51 C 0.73779 0.7856 0.0125 0.0
C52 C 0.81333 0.79159 0.93211 0.0
O53 O 0.74772 0.79066 0.05067 0.0
C54 C 0.81394 0.78846 0.08533 0.0
O55 O 0.78093 0.76004 0.96545 0.0
O56 O 0.77009 0.75829 0.04162 0.0
O57 O 0.8172 0.79944 0.97331 0.0
O58 O 0.79524 0.78934 0.91673 0.0
C59 C 0.77604 0.82591 0.08226 0.0
O60 O 0.79927 0.77644 0.08241 0.0
O61 O 0.81297 0.8057 0.06409 0.0
C62 C 0.77683 0.74983 0.00393 0.0
O63 O 0.77587 0.80773 0.09817 0.0
O64 O 0.78299 0.8304 0.04039 0.0
C65 C 0.77236 0.8257 0.92835 0.0
Fe66 Fe 0.70735 0.31429 0.50483 0.0
Fe67 Fe 0.73532 0.28496 0.56353 0.0
O68 O 0.72533 0.29456 0.50608 0.0
Fe69 Fe 0.73328 0.28445 0.44983 0.0
O70 O 0.7427 0.30873 0.42844 0.0
O71 O 0.71563 0.32585 0.44616 0.0
O72 O 0.72478 0.33098 0.53599 0.0
C73 C 0.73311 0.32719 0.57774 0.0
C74 C 0.69131 0.29063 0.43271 0.0
O75 O 0.73413 0.30923 0.59505 0.0
C76 C 0.73012 0.24991 0.50638 0.0
O77 O 0.69578 0.30638 0.56329 0.0
O78 O 0.71046 0.27758 0.58394 0.0
O79 O 0.7089 0.28828 0.41663 0.0
O80 O 0.68872 0.29885 0.47359 0.0
C81 C 0.76936 0.28578 0.50871 0.0
O82 O 0.73836 0.25898 0.54241 0.0
O83 O 0.72439 0.25954 0.4676 0.0
C84 C 0.69569 0.28947 0.58622 0.0
O85 O 0.76079 0.29171 0.54685 0.0
O86 O 0.75911 0.27879 0.47275 0.0
C87 C 0.73224 0.32459 0.4244 0.0
H88 H 0.23419 0.57222 0.02281 0.0
H89 H 0.23241 0.51568 0.94847 0.0
H90 H 0.23358 0.51627 0.10752 0.0
H91 H 0.26035 0.48597 0.0618 0.0
C92 C 0.25071 0.48241 0.02878 0.0
O93 O 0.23303 0.49337 0.02995 0.0
H94 H 0.25897 0.48664 0.99471 0.0
C95 C 0.23322 0.55591 0.02432 0.0
C96 C 0.23341 0.5457 0.07065 0.0
C97 C 0.23289 0.54534 0.97994 0.0
C98 C 0.23268 0.52416 0.98222 0.0
C99 C 0.23301 0.51376 0.02819 0.0
C100 C 0.23338 0.52449 0.07225 0.0
H101 H 0.93453 0.76308 0.51949 0.0
H102 H 0.99059 0.75807 0.44456 0.0
H103 H 0.99007 0.75445 0.60376 0.0
H104 H 0.02248 0.77954 0.56114 0.0
C105 C 0.02522 0.77098 0.52706 0.0
O106 O 0.01288 0.75426 0.52594 0.0
H107 H 0.02168 0.78116 0.49449 0.0
C108 C 0.95073 0.76091 0.52097 0.0
C109 C 0.96084 0.75842 0.56713 0.0
C110 C 0.96124 0.76085 0.47659 0.0
C111 C 0.98221 0.75806 0.47846 0.0
C112 C 0.99258 0.75604 0.52435 0.0
C113 C 0.98191 0.75618 0.56856 0.0
H114 H 0.76424 0.44525 0.99567 0.0
H115 H 0.77198 0.5004 0.07419 0.0
H116 H 0.76694 0.50207 0.91507 0.0
H117 H 0.79839 0.52863 0.95907 0.0
C118 C 0.79048 0.53299 0.993 0.0
O119 O 0.77186 0.52375 0.99421 0.0
H120 H 0.79989 0.52791 0.02578 0.0
C121 C 0.76582 0.46152 0.99529 0.0
C122 C 0.7651 0.47236 0.94986 0.0
C123 C 0.76834 0.47141 0.04033 0.0
C124 C 0.77011 0.4925 0.03976 0.0
C125 C 0.76992 0.50347 0.99455 0.0
C126 C 0.76742 0.49341 0.94972 0.0
H127 H 0.07299 0.25465 0.49673 0.0
H128 H 0.01877 0.26447 0.57647 0.0
H129 H 0.01572 0.25911 0.41812 0.0
H130 H 0.9915 0.29216 0.45978 0.0
C131 C 0.98649 0.28423 0.4942 0.0
O132 O 0.99485 0.26518 0.49743 0.0
H133 H 0.99174 0.29311 0.52645 0.0
C134 C 0.05677 0.2567 0.4968 0.0
C135 C 0.04559 0.25623 0.45193 0.0
C136 C 0.04733 0.2597 0.54186 0.0
C137 C 0.02632 0.26218 0.54198 0.0
C138 C 0.01502 0.26229 0.49724 0.0
C139 C 0.02464 0.25931 0.45235 0.0
H140 H 0.73376 0.94382 0.49356 0.0
H141 H 0.73041 0.99974 0.57023 0.0
H142 H 0.73479 1.00043 0.41182 0.0
H143 H 0.76055 0.03014 0.46822 0.0
C144 C 0.74964 0.03385 0.49725 0.0
O145 O 0.73229 0.02269 0.49013 0.0
H146 H 0.75658 0.03001 0.5343 0.0
C147 C 0.73284 0.96015 0.49279 0.0
C148 C 0.73393 0.97076 0.44719 0.0
C149 C 0.73173 0.97035 0.53754 0.0
C150 C 0.73138 0.99154 0.53621 0.0
C151 C 0.73252 1.00231 0.49094 0.0
C152 C 0.73389 0.99195 0.44659 0.0
H153 H 0.57202 0.26999 0.00712 0.0
H154 H 0.51495 0.26079 0.07642 0.0
H155 H 0.5186 0.25897 0.91794 0.0
H156 H 0.48359 0.28056 0.95279 0.0
C157 C 0.48112 0.27227 0.98854 0.0
O158 O 0.49445 0.25631 0.99318 0.0
H159 H 0.48387 0.28292 0.01916 0.0
C160 C 0.55591 0.26731 0.00425 0.0
C161 C 0.54675 0.26487 0.9573 0.0
C162 C 0.54469 0.26588 0.04756 0.0
C163 C 0.52396 0.26171 0.04355 0.0
C164 C 0.51459 0.25936 0.99683 0.0
C165 C 0.52601 0.26069 0.95386 0.0
H166 H 0.26123 0.07005 0.53119 0.0
H167 H 0.26748 0.0148 0.45339 0.0
H168 H 0.2725 0.01421 0.61245 0.0
H169 H 0.30145 0.98806 0.56315 0.0
C170 C 0.29182 0.98343 0.53101 0.0
O171 O 0.27299 0.99208 0.53362 0.0
H172 H 0.29921 0.98875 0.4965 0.0
C173 C 0.26387 0.05392 0.53183 0.0
C174 C 0.26706 0.04356 0.57746 0.0
C175 C 0.26401 0.04379 0.48689 0.0
C176 C 0.2674 0.0229 0.4877 0.0
C177 C 0.27034 0.01229 0.53301 0.0
C178 C 0.27009 0.02258 0.57775 0.0
H179 H 0.43496 0.7511 0.01932 0.0
H180 H 0.49162 0.75999 0.94805 0.0
H181 H 0.48928 0.75984 0.10703 0.0
H182 H 0.51569 0.79145 0.06006 0.0
C183 C 0.52086 0.78277 0.02807 0.0
O184 O 0.51276 0.76362 0.03071 0.0
H185 H 0.51562 0.79066 0.99314 0.0
C186 C 0.45109 0.75369 0.02174 0.0
C187 C 0.46072 0.75501 0.06849 0.0
C188 C 0.462 0.75557 0.97804 0.0
C189 C 0.48292 0.75859 0.98137 0.0
C190 C 0.49266 0.76041 0.02784 0.0
C191 C 0.48157 0.75869 0.0713 0.0
H192 H 0.15143 0.22435 0.06034 0.0
H193 H 0.12283 0.23156 0.1123 0.0
H194 H 0.16379 0.24706 0.2321 0.0
H195 H 0.19246 0.24019 0.18034 0.0
H196 H 0.11335 0.21272 0.19984 0.0
H197 H 0.12468 0.29425 0.22827 0.0
H198 H 0.13729 0.28085 0.1807 0.0
H199 H 0.14692 0.27977 0.24374 0.0
C200 C 0.15438 0.22948 0.09759 0.0
C201 C 0.17428 0.23166 0.11617 0.0
C202 C 0.138 0.2336 0.12721 0.0
C203 C 0.14116 0.24012 0.17582 0.0
C204 C 0.16098 0.24249 0.19431 0.0
H205 H 0.07375 0.22744 0.43633 0.0
H206 H 0.09417 0.22362 0.36339 0.0
C207 C 0.17737 0.23841 0.16474 0.0
C208 C 0.12384 0.2432 0.2084 0.0
H209 H 0.1033 0.27689 0.28597 0.0
C210 C 0.11097 0.22685 0.21812 0.0
C211 C 0.12049 0.26173 0.23156 0.0
C212 C 0.13295 0.28021 0.22016 0.0
C213 C 0.09554 0.2282 0.25243 0.0
C214 C 0.09314 0.24627 0.27824 0.0
C215 C 0.10528 0.26297 0.26651 0.0
C216 C 0.07938 0.24764 0.3204 0.0
C217 C 0.08213 0.21016 0.26118 0.0
C218 C 0.06433 0.26253 0.32069 0.0
C219 C 0.05268 0.26486 0.36269 0.0
C220 C 0.05613 0.2525 0.40524 0.0
C221 C 0.07086 0.23729 0.40424 0.0
C222 C 0.0824 0.23495 0.36237 0.0
H223 H 0.08135 0.20047 0.22826 0.0
H224 H 0.08841 0.20093 0.29286 0.0
H225 H 0.0666 0.21483 0.27012 0.0
H226 H 0.06186 0.27258 0.28877 0.0
H227 H 0.04155 0.2768 0.36259 0.0
H228 H 0.29198 0.65325 0.60802 0.0
H229 H 0.28255 0.62572 0.66464 0.0
H230 H 0.23337 0.66139 0.71593 0.0
H231 H 0.24246 0.68894 0.65876 0.0
H232 H 0.28215 0.62731 0.76544 0.0
H233 H 0.20607 0.60751 0.69201 0.0
H234 H 0.22348 0.6228 0.65705 0.0
H235 H 0.20891 0.63379 0.70462 0.0
C236 C 0.27902 0.65521 0.63097 0.0
C237 C 0.26802 0.67337 0.62894 0.0
C238 C 0.27364 0.63943 0.66326 0.0
C239 C 0.25711 0.64138 0.69405 0.0
C240 C 0.24591 0.65936 0.69171 0.0
H241 H 0.21178 0.57912 0.95029 0.0
H242 H 0.21726 0.60071 0.87695 0.0
C243 C 0.25124 0.67517 0.65926 0.0
C244 C 0.25257 0.62522 0.73117 0.0
H245 H 0.21536 0.5939 0.77239 0.0
C246 C 0.26763 0.61982 0.7666 0.0
C247 C 0.23359 0.61553 0.73267 0.0
C248 C 0.21714 0.62004 0.69427 0.0
C249 C 0.26405 0.60545 0.80443 0.0
C250 C 0.24498 0.59597 0.8064 0.0
C251 C 0.22998 0.60115 0.77062 0.0
C252 C 0.24008 0.58155 0.8472 0.0
C253 C 0.28048 0.60107 0.84306 0.0
C254 C 0.25061 0.56328 0.85382 0.0
C255 C 0.24758 0.55094 0.89585 0.0
C256 C 0.23395 0.5567 0.93187 0.0
C257 C 0.22261 0.57445 0.92356 0.0
C258 C 0.22563 0.58674 0.88158 0.0
H259 H 0.29263 0.61258 0.8421 0.0
H260 H 0.27423 0.60043 0.88082 0.0
H261 H 0.28732 0.58619 0.83611 0.0
H262 H 0.26162 0.55888 0.82727 0.0
H263 H 0.25659 0.5374 0.90127 0.0
H264 H 0.82151 0.75303 0.13741 0.0
H265 H 0.84926 0.74588 0.19695 0.0
H266 H 0.87346 0.80531 0.16899 0.0
H267 H 0.84608 0.81249 0.10886 0.0
H268 H 0.90319 0.77537 0.17717 0.0
H269 H 0.85057 0.77086 0.33389 0.0
H270 H 0.84509 0.75381 0.28479 0.0
H271 H 0.84296 0.78054 0.27312 0.0
C272 C 0.8328 0.76455 0.14368 0.0
C273 C 0.8314 0.78345 0.11885 0.0
C274 C 0.84862 0.76044 0.1778 0.0
C275 C 0.86321 0.7752 0.18797 0.0
C276 C 0.86231 0.79374 0.1618 0.0
H277 H 0.9345 0.79072 0.45256 0.0
H278 H 0.91241 0.79373 0.37881 0.0
C279 C 0.84658 0.79784 0.12756 0.0
C280 C 0.8788 0.77185 0.2277 0.0
H281 H 0.88488 0.76471 0.35289 0.0
C282 C 0.89924 0.77293 0.2156 0.0
C283 C 0.87355 0.76893 0.27783 0.0
C284 C 0.85188 0.76863 0.29346 0.0
C285 C 0.9146 0.77132 0.25246 0.0
C286 C 0.9093 0.7683 0.30251 0.0
C287 C 0.88888 0.76696 0.31442 0.0
C288 C 0.9245 0.76755 0.34383 0.0
C289 C 0.93627 0.77352 0.23782 0.0
C290 C 0.93895 0.75208 0.34812 0.0
C291 C 0.95172 0.75041 0.39028 0.0
C292 C 0.94997 0.76403 0.42889 0.0
C293 C 0.93601 0.7799 0.42354 0.0
C294 C 0.92341 0.78164 0.38145 0.0
H295 H 0.93756 0.78016 0.19978 0.0
H296 H 0.94475 0.78314 0.26419 0.0
H297 H 0.94351 0.75844 0.23873 0.0
H298 H 0.93983 0.74085 0.31989 0.0
H299 H 0.96225 0.73795 0.39378 0.0
H300 H 0.73252 0.36755 0.5533 0.0
H301 H 0.74064 0.39562 0.60709 0.0
H302 H 0.75552 0.3536 0.72732 0.0
H303 H 0.74772 0.32542 0.67373 0.0
H304 H 0.72182 0.40466 0.69228 0.0
H305 H 0.80319 0.39209 0.73202 0.0
H306 H 0.78971 0.37998 0.68198 0.0
H307 H 0.78837 0.37 0.7445 0.0
C308 C 0.73774 0.36423 0.59102 0.0
C309 C 0.73941 0.34419 0.60921 0.0
C310 C 0.74239 0.38032 0.62169 0.0
C311 C 0.74892 0.37672 0.67102 0.0
C312 C 0.75093 0.35675 0.68906 0.0
H313 H 0.73701 0.44343 0.9316 0.0
H314 H 0.73336 0.42276 0.85853 0.0
C315 C 0.74632 0.34063 0.65842 0.0
C316 C 0.75218 0.39378 0.70473 0.0
H317 H 0.78606 0.41358 0.78755 0.0
C318 C 0.73596 0.40679 0.71258 0.0
C319 C 0.77073 0.39677 0.73062 0.0
C320 C 0.78906 0.3841 0.72151 0.0
C321 C 0.73746 0.42204 0.74748 0.0
C322 C 0.75556 0.42414 0.77578 0.0
C323 C 0.77213 0.41183 0.76612 0.0
C324 C 0.75705 0.4378 0.81826 0.0
C325 C 0.71955 0.4356 0.75422 0.0
C326 C 0.77172 0.45306 0.82009 0.0
C327 C 0.77391 0.46489 0.86212 0.0
C328 C 0.76167 0.46139 0.90319 0.0
C329 C 0.74677 0.44636 0.9007 0.0
C330 C 0.74453 0.43466 0.85877 0.0
H331 H 0.70967 0.43641 0.72031 0.0
H332 H 0.71047 0.42945 0.78506 0.0
H333 H 0.72439 0.45111 0.76349 0.0
H334 H 0.78162 0.45562 0.7893 0.0
H335 H 0.78562 0.47625 0.86322 0.0
H336 H 0.65132 0.29317 0.45499 0.0
H337 H 0.62211 0.28653 0.40056 0.0
H338 H 0.66177 0.271 0.28355 0.0
H339 H 0.691 0.2772 0.33777 0.0
H340 H 0.6116 0.30556 0.3139 0.0
H341 H 0.62249 0.22446 0.2815 0.0
H342 H 0.63584 0.23737 0.33044 0.0
H343 H 0.64472 0.23874 0.26796 0.0
C344 C 0.65384 0.28814 0.41783 0.0
C345 C 0.67353 0.28573 0.40076 0.0
C346 C 0.63711 0.28434 0.3868 0.0
C347 C 0.63974 0.27795 0.33826 0.0
C348 C 0.65936 0.27541 0.32127 0.0
H349 H 0.57189 0.29503 0.0716 0.0
H350 H 0.59191 0.2977 0.14819 0.0
C351 C 0.67608 0.27913 0.35226 0.0
C352 C 0.6221 0.27524 0.30408 0.0
H353 H 0.6014 0.24267 0.22127 0.0
C354 C 0.60916 0.29169 0.29424 0.0
C355 C 0.61863 0.25702 0.27915 0.0
C356 C 0.63103 0.23834 0.2907 0.0
C357 C 0.59363 0.29082 0.25798 0.0
C358 C 0.59125 0.27317 0.23018 0.0
C359 C 0.60338 0.2563 0.24215 0.0
C360 C 0.57762 0.27248 0.18576 0.0
C361 C 0.58013 0.30895 0.24935 0.0
C362 C 0.56301 0.25727 0.18108 0.0
C363 C 0.55166 0.25554 0.13686 0.0
C364 C 0.55493 0.26886 0.09645 0.0
C365 C 0.56916 0.28441 0.10188 0.0
C366 C 0.58045 0.28611 0.14591 0.0
H367 H 0.57907 0.31783 0.28349 0.0
H368 H 0.58657 0.31893 0.22016 0.0
H369 H 0.56471 0.30446 0.23705 0.0
H370 H 0.5607 0.24648 0.21127 0.0
H371 H 0.54091 0.24332 0.13361 0.0
H372 H 0.22336 0.14861 0.95926 0.0
H373 H 0.23203 0.12072 0.90635 0.0
H374 H 0.26119 0.16231 0.80592 0.0
H375 H 0.25257 0.19036 0.8584 0.0
H376 H 0.21991 0.11863 0.80198 0.0
H377 H 0.30295 0.11568 0.8331 0.0
H378 H 0.28626 0.12731 0.87577 0.0
H379 H 0.2927 0.14034 0.81919 0.0
C380 C 0.23177 0.15185 0.92615 0.0
C381 C 0.23721 0.17176 0.91298 0.0
C382 C 0.2367 0.13587 0.89601 0.0
C383 C 0.24741 0.13945 0.85259 0.0
C384 C 0.25317 0.15922 0.83971 0.0
H385 H 0.28452 0.07995 0.59569 0.0
H386 H 0.28006 0.101 0.66721 0.0
C387 C 0.24811 0.17524 0.86959 0.0
C388 C 0.25147 0.12275 0.81899 0.0
H389 H 0.28945 0.09714 0.76565 0.0
C390 C 0.23508 0.1137 0.79441 0.0
C391 C 0.27128 0.11645 0.80932 0.0
C392 C 0.28935 0.1253 0.83597 0.0
C393 C 0.238 0.09913 0.75853 0.0
C394 C 0.25787 0.09307 0.74803 0.0
C395 C 0.27423 0.10172 0.77384 0.0
C396 C 0.26202 0.07919 0.70733 0.0
C397 C 0.21982 0.09117 0.73045 0.0
C398 C 0.25395 0.05961 0.70676 0.0
C399 C 0.25623 0.04759 0.66541 0.0
C400 C 0.26678 0.05493 0.62415 0.0
C401 C 0.2759 0.07404 0.62635 0.0
C402 C 0.27351 0.08604 0.6674 0.0
H403 H 0.20627 0.1007 0.73501 0.0
H404 H 0.22279 0.09034 0.69027 0.0
H405 H 0.21634 0.07574 0.74467 0.0
H406 H 0.24544 0.05382 0.73772 0.0
H407 H 0.24906 0.03294 0.66492 0.0
H408 H 0.31858 0.76289 0.38585 0.0
H409 H 0.34586 0.77036 0.32884 0.0
H410 H 0.37153 0.71159 0.36102 0.0
H411 H 0.34464 0.7041 0.41854 0.0
H412 H 0.40044 0.74213 0.3571 0.0
H413 H 0.34831 0.7454 0.19217 0.0
H414 H 0.34235 0.76234 0.24042 0.0
H415 H 0.34072 0.73558 0.25179 0.0
C416 C 0.33007 0.75158 0.38094 0.0
C417 C 0.32926 0.73279 0.40636 0.0
C418 C 0.34561 0.75586 0.34825 0.0
C419 C 0.36054 0.7414 0.34015 0.0
C420 C 0.36013 0.72293 0.36663 0.0
H421 H 0.4337 0.72534 0.08875 0.0
H422 H 0.41081 0.72295 0.15799 0.0
C423 C 0.34467 0.71866 0.39937 0.0
C424 C 0.37618 0.74505 0.30274 0.0
H425 H 0.38261 0.75185 0.17837 0.0
C426 C 0.39659 0.74439 0.31802 0.0
C427 C 0.37107 0.74774 0.25175 0.0
C428 C 0.34945 0.74765 0.23279 0.0
C429 C 0.41205 0.74613 0.28356 0.0
C430 C 0.4069 0.74887 0.23262 0.0
C431 C 0.3865 0.74983 0.2175 0.0
C432 C 0.42227 0.74957 0.19373 0.0
C433 C 0.4337 0.74433 0.30167 0.0
C434 C 0.43659 0.76515 0.1913 0.0
C435 C 0.4498 0.76649 0.15169 0.0
C436 C 0.44866 0.75243 0.1137 0.0
C437 C 0.43474 0.73652 0.1172 0.0
C438 C 0.42168 0.73513 0.15675 0.0
H439 H 0.43495 0.73795 0.34014 0.0
H440 H 0.44241 0.73466 0.27703 0.0
H441 H 0.44071 0.75951 0.30127 0.0
H442 H 0.43709 0.77664 0.21903 0.0
H443 H 0.46027 0.779 0.14963 0.0
H444 H 0.7894 0.86299 0.9181 0.0
H445 H 0.77962 0.89016 0.8595 0.0
H446 H 0.7306 0.85387 0.8034 0.0
H447 H 0.74002 0.8267 0.86265 0.0
H448 H 0.7794 0.88793 0.75946 0.0
H449 H 0.70289 0.90766 0.82004 0.0
H450 H 0.72023 0.8926 0.85821 0.0
H451 H 0.70593 0.88133 0.80862 0.0
C452 C 0.77639 0.86083 0.89369 0.0
C453 C 0.76555 0.84261 0.89494 0.0
C454 C 0.77081 0.87641 0.86027 0.0
C455 C 0.75424 0.87416 0.82746 0.0
C456 C 0.74316 0.85613 0.82912 0.0
H457 H 0.71081 0.93606 0.56133 0.0
H458 H 0.71558 0.91416 0.63523 0.0
C459 C 0.74866 0.84054 0.86279 0.0
C460 C 0.74966 0.89001 0.78894 0.0
H461 H 0.71245 0.92101 0.74091 0.0
C462 C 0.76483 0.89532 0.75577 0.0
C463 C 0.73062 0.89958 0.78407 0.0
C464 C 0.71404 0.89516 0.81991 0.0
C465 C 0.76135 0.90956 0.71711 0.0
C466 C 0.74225 0.91896 0.71189 0.0
C467 C 0.72709 0.9138 0.7452 0.0
C468 C 0.73761 0.93348 0.6705 0.0
C469 C 0.77794 0.91397 0.6812 0.0
C470 C 0.74793 0.95191 0.66673 0.0
C471 C 0.74529 0.96442 0.62449 0.0
C472 C 0.73229 0.95868 0.58534 0.0
C473 C 0.72115 0.94073 0.59056 0.0
C474 C 0.72377 0.92827 0.63283 0.0
H475 H 0.79018 0.90255 0.68437 0.0
H476 H 0.77188 0.91448 0.64241 0.0
H477 H 0.7846 0.92892 0.68906 0.0
H478 H 0.75851 0.95628 0.69577 0.0
H479 H 0.75416 0.97808 0.62148 0.0
H480 H 0.85357 0.79976 0.94629 0.0
H481 H 0.88088 0.7935 0.8896 0.0
H482 H 0.83865 0.76601 0.78771 0.0
H483 H 0.81119 0.77254 0.84354 0.0
H484 H 0.8957 0.75841 0.85088 0.0
H485 H 0.86472 0.8092 0.70105 0.0
H486 H 0.85545 0.80909 0.76328 0.0
H487 H 0.84707 0.79029 0.72055 0.0
C488 C 0.85006 0.79237 0.91182 0.0
C489 C 0.83011 0.78689 0.89916 0.0
C490 C 0.86572 0.78878 0.87952 0.0
C491 C 0.86173 0.77967 0.83402 0.0
C492 C 0.84198 0.77353 0.82209 0.0
H493 H 0.92547 0.7391 0.58542 0.0
H494 H 0.90324 0.7439 0.65482 0.0
C495 C 0.8263 0.7772 0.85417 0.0
C496 C 0.87812 0.77675 0.79864 0.0
H497 H 0.89135 0.78725 0.67932 0.0
C498 C 0.89487 0.76487 0.81352 0.0
C499 C 0.87711 0.78538 0.75009 0.0
C500 C 0.86023 0.79937 0.73289 0.0
C501 C 0.91024 0.76076 0.78037 0.0
C502 C 0.90874 0.76875 0.7314 0.0
C503 C 0.8923 0.78103 0.71693 0.0
C504 C 0.92354 0.76393 0.69353 0.0
C505 C 0.92767 0.74745 0.79713 0.0
C506 C 0.94249 0.77333 0.693 0.0
C507 C 0.95521 0.77074 0.65307 0.0
C508 C 0.94906 0.7588 0.61311 0.0
C509 C 0.93048 0.74864 0.61526 0.0
C510 C 0.91781 0.75128 0.65494 0.0
H511 H 0.92585 0.74115 0.83532 0.0
H512 H 0.9292 0.73481 0.77135 0.0
H513 H 0.94186 0.75629 0.79618 0.0
H514 H 0.94705 0.7833 0.72236 0.0
H515 H 0.96936 0.77887 0.65226 0.0
H516 H 0.71386 0.36116 0.40772 0.0
H517 H 0.72293 0.38773 0.3478 0.0
H518 H 0.77359 0.3524 0.30378 0.0
H519 H 0.76464 0.32565 0.36343 0.0
H520 H 0.76084 0.4098 0.33602 0.0
H521 H 0.73915 0.36357 0.17423 0.0
H522 H 0.73119 0.35744 0.23628 0.0
H523 H 0.75645 0.35189 0.2187 0.0
C524 C 0.72698 0.35902 0.38543 0.0
C525 C 0.73838 0.34114 0.38998 0.0
C526 C 0.73217 0.37427 0.35137 0.0
C527 C 0.74877 0.3719 0.32107 0.0
C528 C 0.76056 0.35438 0.32647 0.0
H529 H 0.79086 0.43805 0.06357 0.0
H530 H 0.7879 0.41528 0.1358 0.0
C531 C 0.75543 0.33913 0.36063 0.0
C532 C 0.75326 0.38739 0.28243 0.0
H533 H 0.75368 0.39529 0.15707 0.0
C534 C 0.75932 0.40669 0.29685 0.0
C535 C 0.75117 0.38324 0.23148 0.0
C536 C 0.74398 0.36298 0.21399 0.0
C537 C 0.7637 0.4219 0.26144 0.0
C538 C 0.76154 0.41775 0.21042 0.0
C539 C 0.75544 0.39843 0.19619 0.0
C540 C 0.76526 0.43311 0.17071 0.0
C541 C 0.77095 0.4421 0.27896 0.0
C542 C 0.75383 0.45095 0.16683 0.0
C543 C 0.75562 0.46408 0.12566 0.0
C544 C 0.76863 0.45938 0.08744 0.0
C545 C 0.7806 0.44193 0.09236 0.0
C546 C 0.77893 0.42894 0.13359 0.0
H547 H 0.77727 0.44104 0.3175 0.0
H548 H 0.78263 0.44847 0.25435 0.0
H549 H 0.75804 0.45275 0.27846 0.0
H550 H 0.74286 0.45427 0.19444 0.0
H551 H 0.74607 0.47732 0.12245 0.0
H552 H 0.19356 0.25909 0.86331 0.0
H553 H 0.16647 0.26706 0.80246 0.0
H554 H 0.13135 0.21752 0.86031 0.0
H555 H 0.15828 0.20939 0.92123 0.0
H556 H 0.15127 0.23823 0.73092 0.0
H557 H 0.09147 0.26644 0.85168 0.0
H558 H 0.11781 0.26591 0.87062 0.0
H559 H 0.10332 0.24307 0.8714 0.0
C560 C 0.18 0.25 0.86345 0.0
C561 C 0.17814 0.23353 0.897 0.0
C562 C 0.16454 0.25459 0.82869 0.0
C563 C 0.14686 0.243 0.82732 0.0
C564 C 0.14476 0.22683 0.8613 0.0
H565 H 0.04195 0.2377 0.62773 0.0
H566 H 0.06561 0.23455 0.69923 0.0
C567 C 0.16025 0.22213 0.89583 0.0
C568 C 0.13125 0.24687 0.78797 0.0
H569 H 0.08222 0.26123 0.76748 0.0
C570 C 0.13621 0.2434 0.7388 0.0
C571 C 0.11157 0.25334 0.79862 0.0
C572 C 0.10566 0.25757 0.85087 0.0
C573 C 0.12193 0.24596 0.69986 0.0
C574 C 0.1023 0.25275 0.71028 0.0
C575 C 0.0973 0.25614 0.75957 0.0
C576 C 0.08687 0.25632 0.67021 0.0
C577 C 0.12789 0.24083 0.6481 0.0
C578 C 0.09059 0.27018 0.63133 0.0
C579 C 0.07725 0.27186 0.59056 0.0
C580 C 0.05975 0.25995 0.58828 0.0
C581 C 0.05532 0.24706 0.6287 0.0
C582 C 0.06883 0.24523 0.66939 0.0
H583 H 0.14117 0.23062 0.64859 0.0
H584 H 0.11526 0.23351 0.62759 0.0
H585 H 0.13197 0.25488 0.6275 0.0
H586 H 0.10414 0.27929 0.63185 0.0
H587 H 0.08084 0.28213 0.56016 0.0
H588 H 0.27925 0.64982 0.45655 0.0
H589 H 0.27094 0.62342 0.39797 0.0
H590 H 0.2459 0.66808 0.29475 0.0
H591 H 0.25451 0.69466 0.35256 0.0
H592 H 0.23505 0.61104 0.35386 0.0
H593 H 0.28748 0.64026 0.21233 0.0
H594 H 0.28789 0.64903 0.27504 0.0
H595 H 0.26945 0.65865 0.23031 0.0
C596 C 0.27192 0.65406 0.42145 0.0
C597 C 0.2678 0.67442 0.40899 0.0
C598 C 0.26716 0.63892 0.38805 0.0
C599 C 0.25819 0.64383 0.3416 0.0
C600 C 0.25328 0.66402 0.3299 0.0
H601 H 0.21239 0.57972 0.09106 0.0
H602 H 0.21786 0.60196 0.16096 0.0
C603 C 0.25813 0.67918 0.36311 0.0
C604 C 0.25434 0.62791 0.30496 0.0
H605 H 0.26482 0.61443 0.18717 0.0
C606 C 0.24166 0.61169 0.31755 0.0
C607 C 0.26318 0.62868 0.25778 0.0
C608 C 0.27792 0.64497 0.24314 0.0
C609 C 0.23711 0.59657 0.28352 0.0
C610 C 0.24544 0.59777 0.236 0.0
C611 C 0.25838 0.61371 0.2237 0.0
C612 C 0.24049 0.58298 0.19762 0.0
C613 C 0.22317 0.57959 0.29784 0.0
C614 C 0.25122 0.56481 0.19577 0.0
C615 C 0.24825 0.55211 0.15562 0.0
C616 C 0.23458 0.55749 0.11669 0.0
C617 C 0.22323 0.5753 0.12007 0.0
C618 C 0.22624 0.58796 0.16004 0.0
H619 H 0.21755 0.58102 0.33598 0.0
H620 H 0.21009 0.57926 0.27132 0.0
H621 H 0.2312 0.56498 0.29556 0.0
H622 H 0.26239 0.56085 0.22441 0.0
H623 H 0.25734 0.5386 0.1539 0.0
H624 H 0.31553 0.73788 0.68726 0.0
H625 H 0.34428 0.74343 0.74354 0.0
H626 H 0.38486 0.72472 0.63153 0.0
H627 H 0.35613 0.71919 0.57451 0.0
H628 H 0.37317 0.7131 0.77497 0.0
H629 H 0.4084 0.77934 0.68009 0.0
H630 H 0.38251 0.77213 0.66791 0.0
H631 H 0.40264 0.75784 0.64302 0.0
C632 C 0.33055 0.73504 0.67431 0.0
C633 C 0.33349 0.72801 0.62635 0.0
C634 C 0.34696 0.73823 0.70659 0.0
C635 C 0.36666 0.73461 0.69155 0.0
C636 C 0.36976 0.72784 0.64358 0.0
H637 H 0.47152 0.73241 0.89949 0.0
H638 H 0.45073 0.72701 0.82406 0.0
C639 C 0.35332 0.7246 0.61117 0.0
C640 C 0.38374 0.73716 0.72726 0.0
H641 H 0.42419 0.76719 0.75447 0.0
C642 C 0.38447 0.72476 0.77023 0.0
C643 C 0.39842 0.75242 0.72085 0.0
C644 C 0.39802 0.76633 0.67569 0.0
C645 C 0.39923 0.72751 0.80758 0.0
C646 C 0.41356 0.74307 0.80179 0.0
C647 C 0.41322 0.75518 0.75836 0.0
C648 C 0.42754 0.74812 0.84306 0.0
C649 C 0.39907 0.7143 0.85397 0.0
C650 C 0.42148 0.76205 0.87775 0.0
C651 C 0.43317 0.76506 0.92062 0.0
C652 C 0.45118 0.75423 0.92945 0.0
C653 C 0.45776 0.74102 0.8934 0.0
C654 C 0.44593 0.7379 0.8505 0.0
H655 H 0.38735 0.70236 0.85198 0.0
H656 H 0.41403 0.70704 0.86025 0.0
H657 H 0.39622 0.72369 0.88648 0.0
H658 H 0.40729 0.77002 0.87251 0.0
H659 H 0.42787 0.77549 0.94757 0.0
H660 H 0.77167 0.86612 0.05866 0.0
H661 H 0.76373 0.89335 0.1144 0.0
H662 H 0.75942 0.85021 0.23603 0.0
H663 H 0.76729 0.82286 0.18077 0.0
H664 H 0.7284 0.89716 0.17862 0.0
H665 H 0.80219 0.89348 0.28116 0.0
H666 H 0.7983 0.88295 0.22062 0.0
H667 H 0.78932 0.8698 0.2747 0.0
C668 C 0.76899 0.86239 0.09725 0.0
C669 C 0.77027 0.8423 0.11533 0.0
C670 C 0.76442 0.87797 0.12896 0.0
C671 C 0.76124 0.87377 0.17933 0.0
C672 C 0.76207 0.85374 0.19732 0.0
H673 H 0.71191 0.93838 0.41735 0.0
H674 H 0.71804 0.91695 0.347 0.0
C675 C 0.7665 0.83814 0.16563 0.0
C676 C 0.75728 0.89033 0.21339 0.0
H677 H 0.77688 0.91396 0.31458 0.0
C678 C 0.73903 0.90096 0.20815 0.0
C679 C 0.77132 0.89541 0.25135 0.0
C680 C 0.79148 0.88496 0.25727 0.0
C681 C 0.73414 0.9161 0.2412 0.0
C682 C 0.74783 0.92058 0.28044 0.0
C683 C 0.76639 0.91044 0.28452 0.0
C684 C 0.7428 0.93487 0.31947 0.0
C685 C 0.71435 0.92711 0.23409 0.0
C686 C 0.75466 0.95208 0.32723 0.0
C687 C 0.75118 0.96437 0.36745 0.0
C688 C 0.73598 0.95943 0.40096 0.0
C689 C 0.72378 0.94249 0.39223 0.0
C690 C 0.72716 0.93033 0.35187 0.0
H691 H 0.7081 0.92578 0.19569 0.0
H692 H 0.70326 0.92049 0.25994 0.0
H693 H 0.7161 0.94333 0.24233 0.0
H694 H 0.7669 0.95573 0.3028 0.0
H695 H 0.76093 0.9772 0.37359 0.0
H696 H 0.66309 0.31288 0.60526 0.0
H697 H 0.63635 0.3058 0.66348 0.0
H698 H 0.66303 0.24789 0.70068 0.0
H699 H 0.69016 0.25497 0.64296 0.0
H700 H 0.608 0.2749 0.66969 0.0
H701 H 0.65984 0.2745 0.83514 0.0
H702 H 0.66741 0.28366 0.77491 0.0
H703 H 0.66617 0.25701 0.78838 0.0
C704 C 0.66332 0.29861 0.62572 0.0
C705 C 0.67896 0.2846 0.61986 0.0
C706 C 0.64795 0.29456 0.65886 0.0
C707 C 0.64785 0.27645 0.68691 0.0
C708 C 0.66303 0.26212 0.68006 0.0
H709 H 0.54809 0.23976 0.87835 0.0
H710 H 0.57159 0.24152 0.80958 0.0
C711 C 0.67849 0.26618 0.64695 0.0
C712 C 0.6322 0.27304 0.72443 0.0
H713 H 0.62561 0.26766 0.84908 0.0
C714 C 0.61181 0.27319 0.70892 0.0
C715 C 0.63725 0.27105 0.7756 0.0
C716 C 0.65882 0.2717 0.79474 0.0
C717 C 0.59631 0.27162 0.7433 0.0
C718 C 0.60139 0.26958 0.79443 0.0
C719 C 0.62177 0.26914 0.80981 0.0
C720 C 0.58593 0.2691 0.83314 0.0
C721 C 0.57467 0.27287 0.72483 0.0
C722 C 0.58616 0.28401 0.86898 0.0
C723 C 0.5729 0.28296 0.90818 0.0
C724 C 0.55914 0.26694 0.91249 0.0
C725 C 0.55841 0.25236 0.87566 0.0
C726 C 0.57181 0.25336 0.83641 0.0
H727 H 0.5734 0.2788 0.68596 0.0
H728 H 0.56791 0.25758 0.72618 0.0
H729 H 0.56574 0.28268 0.74867 0.0
H730 H 0.59686 0.29632 0.86707 0.0
H731 H 0.57364 0.29455 0.93568 0.0
H732 H 0.26683 0.18539 0.14992 0.0
H733 H 0.27557 0.15779 0.20868 0.0
H734 H 0.21761 0.13038 0.18009 0.0
H735 H 0.20893 0.15755 0.12069 0.0
H736 H 0.25706 0.14811 0.29292 0.0
H737 H 0.25442 0.08229 0.17167 0.0
H738 H 0.255 0.10791 0.14735 0.0
H739 H 0.23161 0.09678 0.16654 0.0
C740 C 0.25602 0.17338 0.15575 0.0
C741 C 0.23715 0.17372 0.13063 0.0
C742 C 0.26106 0.15759 0.18927 0.0
C743 C 0.24739 0.14182 0.19818 0.0
C744 C 0.22863 0.14206 0.17286 0.0
H745 H 0.23419 0.0709 0.46429 0.0
H746 H 0.23131 0.09365 0.39165 0.0
C747 C 0.22362 0.15776 0.13921 0.0
C748 C 0.25197 0.12603 0.2369 0.0
H749 H 0.25232 0.07507 0.25942 0.0
C750 C 0.25627 0.13215 0.2854 0.0
C751 C 0.25124 0.10518 0.22705 0.0
C752 C 0.24803 0.09764 0.17521 0.0
C753 C 0.259 0.11804 0.32464 0.0
C754 C 0.25693 0.09725 0.31536 0.0
C755 C 0.25356 0.09104 0.26655 0.0
C756 C 0.25757 0.08192 0.35636 0.0
C757 C 0.26399 0.12556 0.37582 0.0
C758 C 0.27266 0.06706 0.35928 0.0
C759 C 0.27424 0.05388 0.40071 0.0
C760 C 0.26075 0.05546 0.43968 0.0
C761 C 0.245 0.06961 0.43518 0.0
C762 C 0.24337 0.08263 0.39382 0.0
H763 H 0.27075 0.14088 0.37419 0.0
H764 H 0.24994 0.12643 0.39702 0.0
H765 H 0.27461 0.11521 0.39636 0.0
H766 H 0.28365 0.06616 0.33049 0.0
H767 H 0.28653 0.04313 0.40334 0.0
H768 H 0.24982 0.2918 0.9518 0.0
H769 H 0.25151 0.32855 0.95451 0.0
H770 H 0.21373 0.32746 0.08205 0.0
H771 H 0.21241 0.29066 0.08048 0.0
H772 H 0.22313 0.35766 0.94698 0.0
H773 H 0.26135 0.35957 0.13213 0.0
H774 H 0.25848 0.33664 0.0983 0.0
H775 H 0.23781 0.34627 0.13241 0.0
C776 C 0.24184 0.29935 0.98043 0.0
C777 C 0.23117 0.28824 0.01628 0.0
C778 C 0.24281 0.32039 0.9819 0.0
C779 C 0.2331 0.33076 0.0191 0.0
C780 C 0.22181 0.31977 0.05383 0.0
H781 H 0.2148 0.46163 0.00958 0.0
H782 H 0.20994 0.42512 0.00787 0.0
C783 C 0.22098 0.29872 0.05269 0.0
C784 C 0.23492 0.35305 0.02155 0.0
H785 H 0.25042 0.39094 0.09682 0.0
C786 C 0.2291 0.36495 0.97973 0.0
C787 C 0.243 0.36254 0.06405 0.0
C788 C 0.25071 0.35061 0.1091 0.0
C789 C 0.23106 0.38605 0.97927 0.0
C790 C 0.23858 0.39557 0.0223 0.0
C791 C 0.24446 0.38366 0.06404 0.0
C792 C 0.24125 0.41779 0.02428 0.0
C793 C 0.2256 0.39784 0.93219 0.0
C794 C 0.26034 0.42586 0.03557 0.0
C795 C 0.26309 0.44671 0.03755 0.0
C796 C 0.2468 0.45996 0.02865 0.0
C797 C 0.22766 0.45188 0.01726 0.0
C798 C 0.22488 0.43098 0.01569 0.0
H799 H 0.22553 0.38813 0.8993 0.0
H800 H 0.21024 0.40424 0.93517 0.0
H801 H 0.23628 0.41048 0.9259 0.0
H802 H 0.27321 0.41601 0.04232 0.0
H803 H 0.27802 0.45255 0.04573 0.0
H804 H 0.21497 0.74079 0.59333 0.0
H805 H 0.17845 0.74495 0.59355 0.0
H806 H 0.1745 0.73048 0.4388 0.0
H807 H 0.21112 0.72594 0.43833 0.0
H808 H 0.15618 0.7725 0.53753 0.0
H809 H 0.13082 0.69468 0.49786 0.0
H810 H 0.15642 0.70042 0.51694 0.0
H811 H 0.14797 0.70526 0.45389 0.0
C812 C 0.20637 0.73831 0.55936 0.0
C813 C 0.21603 0.73307 0.51575 0.0
C814 C 0.18546 0.74069 0.55959 0.0
C815 C 0.17371 0.73783 0.51637 0.0
C816 C 0.18322 0.73237 0.47286 0.0
H817 H 0.04617 0.75917 0.44697 0.0
H818 H 0.08215 0.75052 0.44369 0.0
C819 C 0.20418 0.72991 0.4726 0.0
C820 C 0.15168 0.74172 0.51647 0.0
H821 H 0.10548 0.71996 0.49791 0.0
C822 C 0.1451 0.76098 0.52905 0.0
C823 C 0.13725 0.7267 0.50513 0.0
C824 C 0.1434 0.70554 0.4931 0.0
C825 C 0.12451 0.76568 0.53037 0.0
C826 C 0.11009 0.75064 0.51949 0.0
C827 C 0.11661 0.73143 0.50634 0.0
C828 C 0.08816 0.75464 0.52196 0.0
C829 C 0.11836 0.78683 0.54268 0.0
C830 C 0.07958 0.75929 0.56724 0.0
C831 C 0.05914 0.76421 0.56911 0.0
C832 C 0.04697 0.76462 0.52569 0.0
C833 C 0.05538 0.75919 0.48075 0.0
C834 C 0.07583 0.75423 0.4789 0.0
H835 H 0.13097 0.7977 0.53834 0.0
H836 H 0.10542 0.79202 0.51867 0.0
H837 H 0.11364 0.787 0.58179 0.0
H838 H 0.08877 0.7593 0.60105 0.0
H839 H 0.05291 0.76802 0.60433 0.0
H840 H 0.76947 0.72268 0.07974 0.0
H841 H 0.77183 0.6859 0.07853 0.0
H842 H 0.78961 0.68959 0.92607 0.0
H843 H 0.78764 0.72633 0.92708 0.0
H844 H 0.751 0.65924 0.01892 0.0
H845 H 0.83323 0.65366 0.99007 0.0
H846 H 0.82136 0.67666 0.00842 0.0
H847 H 0.82022 0.66947 0.94462 0.0
C848 C 0.77399 0.7157 0.04599 0.0
C849 C 0.77843 0.72751 0.00355 0.0
C850 C 0.7753 0.69466 0.04537 0.0
C851 C 0.78118 0.685 0.00245 0.0
C852 C 0.78547 0.69672 0.95994 0.0
H853 H 0.79462 0.56078 0.91658 0.0
H854 H 0.79144 0.59758 0.9193 0.0
C855 C 0.78421 0.71775 0.96053 0.0
C856 C 0.78233 0.66266 0.00173 0.0
H857 H 0.81424 0.6235 0.9816 0.0
C858 C 0.76485 0.6514 0.01107 0.0
C859 C 0.80042 0.65247 0.99147 0.0
C860 C 0.81993 0.66365 0.98354 0.0
C861 C 0.76486 0.63025 0.00937 0.0
C862 C 0.7829 0.6201 0.99868 0.0
C863 C 0.8004 0.63134 0.98957 0.0
C864 C 0.78402 0.5978 0.99686 0.0
C865 C 0.74547 0.61896 0.01792 0.0
C866 C 0.78091 0.58575 0.03957 0.0
C867 C 0.78277 0.56477 0.03808 0.0
C868 C 0.78793 0.55553 0.99398 0.0
C869 C 0.79077 0.56757 0.95111 0.0
C870 C 0.78896 0.58855 0.95263 0.0
H871 H 0.73211 0.62902 0.01388 0.0
H872 H 0.74365 0.60648 0.99159 0.0
H873 H 0.74582 0.61231 0.05611 0.0
H874 H 0.77737 0.5926 0.07424 0.0
H875 H 0.78045 0.55574 0.0715 0.0
H876 H 0.79646 0.30015 0.57778 0.0
H877 H 0.8333 0.29932 0.57554 0.0
H878 H 0.82978 0.26989 0.43516 0.0
H879 H 0.79298 0.27052 0.43706 0.0
H880 H 0.85755 0.25189 0.50606 0.0
H881 H 0.86868 0.33463 0.48351 0.0
H882 H 0.85343 0.32679 0.53458 0.0
H883 H 0.84461 0.32267 0.47217 0.0
C884 C 0.80349 0.29352 0.54636 0.0
C885 C 0.79171 0.28544 0.50754 0.0
C886 C 0.82456 0.29314 0.54507 0.0
C887 C 0.83426 0.28473 0.50494 0.0
C888 C 0.82259 0.2765 0.4664 0.0
H889 H 0.95908 0.2971 0.42193 0.0
H890 H 0.92217 0.29632 0.42461 0.0
C891 C 0.80154 0.27692 0.46754 0.0
C892 C 0.85658 0.28433 0.50323 0.0
H893 H 0.89805 0.31466 0.49613 0.0
C894 C 0.86643 0.26559 0.5039 0.0
C895 C 0.86807 0.30224 0.49987 0.0
C896 C 0.85822 0.32275 0.49705 0.0
C897 C 0.88753 0.2643 0.50186 0.0
C898 C 0.89905 0.28222 0.49949 0.0
C899 C 0.88917 0.30095 0.49828 0.0
C900 C 0.92137 0.28191 0.49744 0.0
C901 C 0.89732 0.24379 0.50137 0.0
C902 C 0.93313 0.2741 0.53756 0.0
C903 C 0.9542 0.27457 0.5361 0.0
C904 C 0.96382 0.28286 0.49454 0.0
C905 C 0.95202 0.29055 0.45432 0.0
C906 C 0.93098 0.29015 0.45586 0.0
H907 H 0.88628 0.23179 0.49207 0.0
H908 H 0.9096 0.24362 0.47423 0.0
H909 H 0.90403 0.24013 0.53865 0.0
H910 H 0.92602 0.26798 0.57034 0.0
H911 H 0.96301 0.2687 0.56767 0.0
H912 H 0.70888 0.22558 0.44351 0.0
H913 H 0.70894 0.18873 0.44267 0.0
H914 H 0.75043 0.18686 0.56863 0.0
H915 H 0.74994 0.22362 0.57071 0.0
H916 H 0.73907 0.16397 0.42704 0.0
H917 H 0.70988 0.14601 0.61304 0.0
H918 H 0.70883 0.17112 0.58566 0.0
H919 H 0.73163 0.16198 0.61633 0.0
C920 C 0.71785 0.21732 0.47139 0.0
C921 C 0.72937 0.22756 0.50727 0.0
C922 C 0.71787 0.19624 0.47085 0.0
C923 C 0.72944 0.18496 0.50605 0.0
C924 C 0.74093 0.19516 0.54194 0.0
H925 H 0.77523 0.06426 0.4721 0.0
H926 H 0.76945 0.10067 0.47298 0.0
C927 C 0.74074 0.21622 0.54287 0.0
C928 C 0.73041 0.16261 0.50342 0.0
H929 H 0.72612 0.11897 0.57249 0.0
C930 C 0.73604 0.15413 0.45874 0.0
C931 C 0.72614 0.1497 0.54445 0.0
C932 C 0.71857 0.15766 0.59237 0.0
C933 C 0.73808 0.1332 0.45436 0.0
C934 C 0.73499 0.12037 0.49628 0.0
C935 C 0.72876 0.12879 0.54052 0.0
C936 C 0.73842 0.09824 0.49525 0.0
C937 C 0.74329 0.12507 0.40463 0.0
C938 C 0.72318 0.0847 0.50929 0.0
C939 C 0.72658 0.06388 0.5095 0.0
C940 C 0.7452 0.05619 0.49491 0.0
C941 C 0.76054 0.06977 0.48194 0.0
C942 C 0.75721 0.09057 0.48222 0.0
H943 H 0.73868 0.1357 0.37383 0.0
H944 H 0.75986 0.12302 0.40323 0.0
H945 H 0.73593 0.1103 0.3983 0.0
H946 H 0.70865 0.09025 0.52021 0.0
H947 H 0.71466 0.05383 0.52121 0.0
H948 H 0.2953 0.21676 0.94588 0.0
H949 H 0.33184 0.22143 0.94481 0.0
H950 H 0.3306 0.24899 0.08749 0.0
H951 H 0.29404 0.24456 0.08883 0.0
H952 H 0.35112 0.27165 0.01621 0.0
H953 H 0.37756 0.19224 0.02377 0.0
H954 H 0.35872 0.19773 0.97623 0.0
H955 H 0.3524 0.19937 0.04032 0.0
C956 C 0.3028 0.22361 0.97734 0.0
C957 C 0.29167 0.23034 0.01739 0.0
C958 C 0.32372 0.22615 0.97677 0.0
C959 C 0.33397 0.23537 0.01629 0.0
C960 C 0.32299 0.24176 0.0567 0.0
H961 H 0.46389 0.25006 0.06316 0.0
H962 H 0.42828 0.24039 0.07061 0.0
C963 C 0.30208 0.23919 0.05739 0.0
C964 C 0.35589 0.2396 0.01396 0.0
H965 H 0.40203 0.21735 0.00433 0.0
C966 C 0.36225 0.25977 0.01388 0.0
C967 C 0.37041 0.22407 0.01132 0.0
C968 C 0.36451 0.20211 0.01335 0.0
C969 C 0.3827 0.26488 0.01017 0.0
C970 C 0.39714 0.2494 0.00588 0.0
C971 C 0.39088 0.22919 0.00712 0.0
C972 C 0.41882 0.25403 1.00002 0.0
C973 C 0.3887 0.2868 0.01121 0.0
C974 C 0.4253 0.2645 0.95745 0.0
C975 C 0.44555 0.26992 0.9531 0.0
C976 C 0.45969 0.26486 0.99114 0.0
C977 C 0.45327 0.25397 0.03323 0.0
C978 C 0.433 0.24849 0.0375 0.0
H979 H 0.37663 0.29633 0.02607 0.0
H980 H 0.40268 0.28879 0.03413 0.0
H981 H 0.3917 0.2923 0.97291 0.0
H982 H 0.41463 0.26871 0.92787 0.0
H983 H 0.45009 0.27837 0.92036 0.0
H984 H 0.26886 0.79381 0.44786 0.0
H985 H 0.27146 0.83055 0.44949 0.0
H986 H 0.29436 0.8264 0.6005 0.0
H987 H 0.29213 0.78965 0.59907 0.0
H988 H 0.2526 0.8569 0.51105 0.0
H989 H 0.33574 0.86271 0.53413 0.0
H990 H 0.32331 0.83973 0.51618 0.0
H991 H 0.32421 0.84675 0.58009 0.0
C992 C 0.27456 0.80067 0.48139 0.0
C993 C 0.28033 0.78872 0.52331 0.0
C994 C 0.27602 0.82169 0.48223 0.0
C995 C 0.28336 0.83122 0.52486 0.0
C996 C 0.28905 0.81937 0.56684 0.0
H997 H 0.2994 0.95603 0.60743 0.0
H998 H 0.29657 0.91915 0.606 0.0
C999 C 0.28765 0.79834 0.56602 0.0
C1000 C 0.2845 0.85356 0.52583 0.0
H1001 H 0.31702 0.89284 0.54305 0.0
C1002 C 0.2667 0.86477 0.51779 0.0
C1003 C 0.30291 0.86381 0.53468 0.0
C1004 C 0.32267 0.85267 0.54131 0.0
C1005 C 0.26674 0.88592 0.51922 0.0
C1006 C 0.28513 0.89615 0.52826 0.0
C1007 C 0.30293 0.88496 0.53628 0.0
C1008 C 0.28627 0.91847 0.52928 0.0
C1009 C 0.24705 0.89714 0.51208 0.0
C1010 C 0.28148 0.93029 0.4866 0.0
C1011 C 0.28314 0.9513 0.48735 0.0
C1012 C 0.28982 0.96082 0.53064 0.0
C1013 C 0.2944 0.94901 0.57349 0.0
C1014 C 0.29278 0.92799 0.57269 0.0
H1015 H 0.23388 0.88708 0.51776 0.0
H1016 H 0.24621 0.9098 0.53802 0.0
H1017 H 0.24594 0.90353 0.47366 0.0
H1018 H 0.27671 0.92324 0.45251 0.0
H1019 H 0.27943 0.96014 0.454 0.0
H1020 H 0.71108 0.7793 0.93521 0.0
H1021 H 0.67421 0.77853 0.93736 0.0
H1022 H 0.677 0.79024 0.09368 0.0
H1023 H 0.71383 0.79112 0.09206 0.0
H1024 H 0.65072 0.7563 0.0608 0.0
H1025 H 0.63682 0.82918 0.95834 0.0
H1026 H 0.65401 0.81187 0.9314 0.0
H1027 H 0.66068 0.8232 0.98916 0.0
C1028 C 0.70388 0.78174 0.97008 0.0
C1029 C 0.71544 0.78528 0.01347 0.0
C1030 C 0.68281 0.78135 0.97115 0.0
C1031 C 0.67294 0.78444 0.01561 0.0
C1032 C 0.68438 0.78786 0.059 0.0
H1033 H 0.54762 0.808 0.07393 0.0
H1034 H 0.58455 0.80785 0.07101 0.0
C1035 C 0.70543 0.7884 0.05793 0.0
C1036 C 0.65066 0.78393 0.01706 0.0
H1037 H 0.60824 0.80983 0.97922 0.0
C1038 C 0.6414 0.76796 0.04293 0.0
C1039 C 0.63862 0.79926 0.99398 0.0
C1040 C 0.64794 0.81697 0.96686 0.0
C1041 C 0.62032 0.76684 0.04595 0.0
C1042 C 0.60828 0.78208 0.02246 0.0
C1043 C 0.61755 0.79813 0.99695 0.0
C1044 C 0.58601 0.78181 0.02478 0.0
C1045 C 0.61104 0.74958 0.07483 0.0
C1046 C 0.57467 0.76733 0.99933 0.0
C1047 C 0.55361 0.76744 0.0008 0.0
C1048 C 0.54358 0.78184 0.02844 0.0
C1049 C 0.555 0.79646 0.05335 0.0
C1050 C 0.57604 0.79644 0.05154 0.0
H1051 H 0.62246 0.74097 0.09763 0.0
H1052 H 0.5993 0.75523 0.09953 0.0
H1053 H 0.60364 0.73912 0.04861 0.0
H1054 H 0.58211 0.75615 0.97776 0.0
H1055 H 0.54515 0.75635 0.98012 0.0
loop_
_geom_bond_atom_site_label_1
_geom_bond_atom_site_label_2
_geom_bond_distance
_geom_bond_site_symmetry_2
_ccdc_geom_bond_type
Fe0 O2 1.918 . S
Fe0 O5 1.997 . S
Fe0 O6 2.002 . S
Fe0 O11 1.976 . S
Fe0 O14 1.996 . S
Fe1 O2 1.918 1_556 S
Fe1 O9 1.997 . S
Fe1 O12 1.996 . S
Fe1 O16 1.976 . S
Fe1 O19 2.002 . S
O2 Fe0 1.918 . S
O2 Fe1 1.918 1_554 S
O2 Fe3 1.918 . S
Fe3 O2 1.918 . S
Fe3 O4 2.002 . S
Fe3 O13 1.976 . S
Fe3 O17 1.996 1_554 S
Fe3 O20 1.997 1_554 S
O4 Fe3 2.002 . S
O4 C21 1.295 . S
O5 Fe0 1.997 . S
O5 C21 1.235 . S
O6 Fe0 2.002 . S
O6 C7 1.295 . S
C7 O6 1.295 . S
C7 O9 1.235 1_554 S
C8 O13 1.287 . S
C8 O14 1.255 . S
O9 Fe1 1.997 . S
O9 C7 1.235 1_556 S
C10 O16 1.287 . S
C10 O17 1.255 . S
O11 Fe0 1.976 . S
O11 C18 1.287 . S
O12 Fe1 1.996 . S
O12 C18 1.255 1_556 S
O13 Fe3 1.976 . S
O13 C8 1.287 . S
O14 Fe0 1.996 . S
O14 C8 1.255 . S
C15 O19 1.295 . S
C15 O20 1.235 . S
O16 Fe1 1.976 . S
O16 C10 1.287 . S
O17 Fe3 1.996 1_556 S
O17 C10 1.255 . S
C18 O11 1.287 . S
C18 O12 1.255 1_554 S
O19 Fe1 2.002 . S
O19 C15 1.295 . S
O20 Fe3 1.997 1_556 S
O20 C15 1.235 . S
C21 O4 1.295 . S
C21 O5 1.235 . S
Fe22 O24 1.918 . S
Fe22 O27 1.997 . S
Fe22 O28 2.002 . S
Fe22 O33 1.976 . S
Fe22 O36 1.996 . S
Fe23 O24 1.918 . S
Fe23 O31 1.997 . S
Fe23 O34 1.996 . S
Fe23 O38 1.976 . S
Fe23 O41 2.002 . S
O24 Fe22 1.918 . S
O24 Fe23 1.918 . S
O24 Fe25 1.918 . S
Fe25 O24 1.918 . S
Fe25 O26 2.002 . S
Fe25 O35 1.976 . S
Fe25 O39 1.996 . S
Fe25 O42 1.997 . S
O26 Fe25 2.002 . S
O26 C43 1.295 . S
O27 Fe22 1.997 . S
O27 C43 1.235 . S
O28 Fe22 2.002 . S
O28 C29 1.295 . S
C29 O28 1.295 . S
C29 O31 1.235 . S
C30 O35 1.287 . S
C30 O36 1.255 . S
O31 Fe23 1.997 . S
O31 C29 1.235 . S
C32 O38 1.287 . S
C32 O39 1.255 . S
O33 Fe22 1.976 . S
O33 C40 1.287 . S
O34 Fe23 1.996 . S
O34 C40 1.255 . S
O35 Fe25 1.976 . S
O35 C30 1.287 . S
O36 Fe22 1.996 . S
O36 C30 1.255 . S
C37 O41 1.295 . S
C37 O42 1.235 . S
O38 Fe23 1.976 . S
O38 C32 1.287 . S
O39 Fe25 1.996 . S
O39 C32 1.255 . S
C40 O33 1.287 . S
C40 O34 1.255 . S
O41 Fe23 2.002 . S
O41 C37 1.295 . S
O42 Fe25 1.997 . S
O42 C37 1.235 . S
C43 O26 1.295 . S
C43 O27 1.235 . S
Fe44 O46 1.918 1_556 S
Fe44 O49 1.997 . S
Fe44 O50 2.002 . S
Fe44 O55 1.976 . S
Fe44 O58 1.996 . S
Fe45 O46 1.918 . S
Fe45 O53 1.997 . S
Fe45 O56 1.996 . S
Fe45 O60 1.976 . S
Fe45 O63 2.002 . S
O46 Fe44 1.918 1_554 S
O46 Fe45 1.918 . S
O46 Fe47 1.918 . S
Fe47 O46 1.918 . S
Fe47 O48 2.002 1_554 S
Fe47 O57 1.976 1_554 S
Fe47 O61 1.996 . S
Fe47 O64 1.997 . S
O48 Fe47 2.002 1_556 S
O48 C65 1.295 . S
O49 Fe44 1.997 . S
O49 C65 1.235 . S
O50 Fe44 2.002 . S
O50 C51 1.295 1_556 S
C51 O50 1.295 1_554 S
C51 O53 1.235 . S
C52 O57 1.287 . S
C52 O58 1.255 . S
O53 Fe45 1.997 . S
O53 C51 1.235 . S
C54 O60 1.287 . S
C54 O61 1.255 . S
O55 Fe44 1.976 . S
O55 C62 1.287 1_556 S
O56 Fe45 1.996 . S
O56 C62 1.255 . S
O57 Fe47 1.976 1_556 S
O57 C52 1.287 . S
O58 Fe44 1.996 . S
O58 C52 1.255 . S
C59 O63 1.295 . S
C59 O64 1.235 . S
O60 Fe45 1.976 . S
O60 C54 1.287 . S
O61 Fe47 1.996 . S
O61 C54 1.255 . S
C62 O55 1.287 1_554 S
C62 O56 1.255 . S
O63 Fe45 2.002 . S
O63 C59 1.295 . S
O64 Fe47 1.997 . S
O64 C59 1.235 . S
C65 O48 1.295 . S
C65 O49 1.235 . S
Fe66 O68 1.918 . S
Fe66 O71 1.997 . S
Fe66 O72 2.002 . S
Fe66 O77 1.976 . S
Fe66 O80 1.996 . S
Fe67 O68 1.918 . S
Fe67 O75 1.997 . S
Fe67 O78 1.996 . S
Fe67 O82 1.976 . S
Fe67 O85 2.002 . S
O68 Fe66 1.918 . S
O68 Fe67 1.918 . S
O68 Fe69 1.918 . S
Fe69 O68 1.918 . S
Fe69 O70 2.002 . S
Fe69 O79 1.976 . S
Fe69 O83 1.996 . S
Fe69 O86 1.997 . S
O70 Fe69 2.002 . S
O70 C87 1.295 . S
O71 Fe66 1.997 . S
O71 C87 1.235 . S
O72 Fe66 2.002 . S
O72 C73 1.295 . S
C73 O72 1.295 . S
C73 O75 1.235 . S
C74 O79 1.287 . S
C74 O80 1.255 . S
O75 Fe67 1.997 . S
O75 C73 1.235 . S
C76 O82 1.287 . S
C76 O83 1.255 . S
O77 Fe66 1.976 . S
O77 C84 1.287 . S
O78 Fe67 1.996 . S
O78 C84 1.255 . S
O79 Fe69 1.976 . S
O79 C74 1.287 . S
O80 Fe66 1.996 . S
O80 C74 1.255 . S
C81 O85 1.295 . S
C81 O86 1.235 . S
O82 Fe67 1.976 . S
O82 C76 1.287 . S
O83 Fe69 1.996 . S
O83 C76 1.255 . S
C84 O77 1.287 . S
C84 O78 1.255 . S
O85 Fe67 2.002 . S
O85 C81 1.295 . S
O86 Fe69 1.997 . S
O86 C81 1.235 . S
C87 O70 1.295 . S
C87 O71 1.235 . S
H88 C95 0.929 . S
H89 C98 0.930 . S
H90 C100 0.929 . S
H91 C92 0.971 . S
C92 H91 0.971 . S
C92 O93 1.536 1_556 S
C92 H94 0.990 . S
O93 C92 1.536 1_554 S
O93 C99 1.412 . S
H94 C92 0.990 . S
C95 H88 0.929 . S
C95 C96 1.400 . S
C95 C97 1.364 1_554 S
C96 C95 1.400 . S
C96 C100 1.377 . S
C97 C95 1.364 1_556 S
C97 C98 1.374 . S
C98 H89 0.930 . S
C98 C97 1.374 . S
C98 C99 1.383 1_556 S
C99 O93 1.412 . S
C99 C98 1.383 1_554 S
C99 C100 1.394 . S
C100 H90 0.929 . S
C100 C96 1.377 . S
C100 C99 1.394 . S
H101 C108 0.929 . S
H102 C111 0.930 . S
H103 C113 0.929 . S
H104 C105 0.969 . S
C105 H104 0.969 . S
C105 O106 1.550 . S
C105 H107 0.973 . S
O106 C105 1.550 . S
O106 C112 1.380 1_455 S
H107 C105 0.973 . S
C108 H101 0.929 . S
C108 C109 1.400 . S
C108 C110 1.364 . S
C109 C108 1.400 . S
C109 C113 1.377 . S
C110 C108 1.364 . S
C110 C111 1.374 . S
C111 H102 0.930 . S
C111 C110 1.374 . S
C111 C112 1.398 . S
C112 O106 1.380 1_655 S
C112 C111 1.398 . S
C112 C113 1.417 . S
C113 H103 0.929 . S
C113 C109 1.377 . S
C113 C112 1.417 . S
H114 C121 0.929 . S
H115 C124 0.930 . S
H116 C126 0.929 . S
H117 C118 0.969 . S
C118 H117 0.969 . S
C118 O119 1.550 1_554 S
C118 H120 0.973 . S
O119 C118 1.550 1_556 S
O119 C125 1.412 . S
H120 C118 0.973 . S
C121 H114 0.929 . S
C121 C122 1.400 1_554 S
C121 C123 1.364 . S
C122 C121 1.400 1_556 S
C122 C126 1.377 . S
C123 C121 1.364 . S
C123 C124 1.374 . S
C124 H115 0.930 . S
C124 C123 1.374 . S
C124 C125 1.383 1_554 S
C125 O119 1.412 . S
C125 C124 1.383 1_556 S
C125 C126 1.394 . S
C126 H116 0.929 . S
C126 C122 1.377 . S
C126 C125 1.394 . S
H127 C134 0.929 . S
H128 C137 0.918 1_655 S
H129 C139 0.929 . S
H130 C131 0.969 . S
C131 H130 0.969 . S
C131 O132 1.550 . S
C131 H133 0.973 . S
O132 C131 1.550 . S
O132 C138 1.457 . S
H133 C131 0.973 . S
C134 H127 0.929 . S
C134 C135 1.400 . S
C134 C136 1.364 . S
C135 C134 1.400 . S
C135 C139 1.377 . S
C136 C134 1.364 . S
C136 C137 1.374 . S
C137 H128 0.918 1_455 S
C137 C136 1.374 . S
C137 C138 1.366 1_455 S
C138 O132 1.457 . S
C138 C137 1.366 1_655 S
C138 C139 1.368 1_655 S
C139 H129 0.929 . S
C139 C135 1.377 . S
C139 C138 1.368 1_455 S
H140 C147 0.929 . S
H141 C150 0.930 1_545 S
H142 C152 0.929 . S
H143 C144 0.969 . S
C144 H143 0.969 . S
C144 O145 1.550 . S
C144 H146 0.973 . S
O145 C144 1.550 . S
O145 C151 1.412 . S
H146 C144 0.973 . S
C147 H140 0.929 . S
C147 C148 1.400 . S
C147 C149 1.364 . S
C148 C147 1.400 . S
C148 C152 1.377 . S
C149 C147 1.364 . S
C149 C150 1.374 . S
C150 H141 0.930 1_565 S
C150 C149 1.374 . S
C150 C151 1.383 1_565 S
C151 O145 1.412 . S
C151 C150 1.383 1_545 S
C151 C152 1.394 1_545 S
C152 H142 0.929 . S
C152 C148 1.377 . S
C152 C151 1.394 1_565 S
H153 C160 0.927 1_554 S
H154 C163 0.930 . S
H155 C165 0.929 . S
H156 C157 0.969 . S
C157 H156 0.969 . S
C157 O158 1.550 1_554 S
C157 H159 0.973 . S
O158 C157 1.550 1_556 S
O158 C164 1.412 . S
H159 C157 0.973 . S
C160 H153 0.927 1_556 S
C160 C161 1.415 . S
C160 C162 1.351 1_556 S
C161 C160 1.415 . S
C161 C165 1.377 . S
C162 C160 1.351 1_554 S
C162 C163 1.374 . S
C163 H154 0.930 . S
C163 C162 1.374 . S
C163 C164 1.383 1_554 S
C164 O158 1.412 . S
C164 C163 1.383 1_556 S
C164 C165 1.394 . S
C165 H155 0.929 . S
C165 C161 1.377 . S
C165 C164 1.394 . S
H166 C173 0.929 . S
H167 C176 0.930 . S
H168 C178 0.929 . S
H169 C170 0.969 . S
C170 H169 0.969 . S
C170 O171 1.550 . S
C170 H172 0.973 . S
O171 C170 1.550 . S
O171 C177 1.364 1_565 S
H172 C170 0.973 . S
C173 H166 0.929 . S
C173 C174 1.400 . S
C173 C175 1.364 . S
C174 C173 1.400 . S
C174 C178 1.377 . S
C175 C173 1.364 . S
C175 C176 1.374 . S
C176 H167 0.930 . S
C176 C175 1.374 . S
C176 C177 1.403 . S
C177 O171 1.364 1_545 S
C177 C176 1.403 . S
C177 C178 1.424 . S
C178 H168 0.929 . S
C178 C174 1.377 . S
C178 C177 1.424 . S
H179 C186 0.929 . S
H180 C189 0.930 . S
H181 C191 0.929 . S
H182 C183 0.969 1_556 S
C183 H182 0.969 1_554 S
C183 O184 1.550 . S
C183 H185 0.973 1_554 S
O184 C183 1.550 . S
O184 C190 1.412 . S
H185 C183 0.973 1_556 S
C186 H179 0.929 . S
C186 C187 1.400 . S
C186 C188 1.364 1_554 S
C187 C186 1.400 . S
C187 C191 1.377 . S
C188 C186 1.364 1_556 S
C188 C189 1.374 . S
C189 H180 0.930 . S
C189 C188 1.374 . S
C189 C190 1.383 1_556 S
C190 O184 1.412 . S
C190 C189 1.383 1_554 S
C190 C191 1.394 . S
C191 H181 0.929 . S
C191 C187 1.377 . S
C191 C190 1.394 . S
H192 C200 0.929 . S
H193 C202 0.930 . S
H194 C204 0.930 . S
H195 C207 0.929 . S
H196 C210 0.930 . S
H197 C212 0.960 . S
H198 C212 0.960 . S
H199 C212 0.960 . S
C200 H192 0.929 . S
C200 C201 1.377 . S
C200 C202 1.384 . S
C201 C200 1.377 . S
C201 C207 1.390 . S
C202 H193 0.930 . S
C202 C200 1.384 . S
C202 C203 1.372 . S
C203 C202 1.372 . S
C203 C204 1.400 . S
C203 C208 1.490 . S
C204 H194 0.930 . S
C204 C203 1.400 . S
C204 C207 1.386 . S
H205 C221 0.930 . S
H206 C222 0.931 . S
C207 H195 0.929 . S
C207 C201 1.390 . S
C207 C204 1.386 . S
C208 C203 1.490 . S
C208 C210 1.395 . S
C208 C211 1.403 . S
H209 C215 0.930 . S
C210 H196 0.930 . S
C210 C208 1.395 . S
C210 C213 1.403 . S
C211 C208 1.403 . S
C211 C212 1.524 . S
C211 C215 1.400 . S
C212 H197 0.960 . S
C212 H198 0.960 . S
C212 H199 0.960 . S
C212 C211 1.524 . S
C213 C210 1.403 . S
C213 C214 1.392 . S
C213 C217 1.495 . S
C214 C213 1.392 . S
C214 C215 1.385 . S
C214 C216 1.478 . S
C215 H209 0.930 . S
C215 C211 1.400 . S
C215 C214 1.385 . S
C216 C214 1.478 . S
C216 C218 1.381 . S
C216 C222 1.383 . S
C217 C213 1.495 . S
C217 H223 0.959 . S
C217 H224 0.961 . S
C217 H225 0.960 . S
C218 C216 1.381 . S
C218 C219 1.394 . S
C218 H226 0.930 . S
C219 C218 1.394 . S
C219 C220 1.383 . S
C219 H227 0.929 . S
C220 C219 1.383 . S
C220 C221 1.377 . S
C221 H205 0.930 . S
C221 C220 1.377 . S
C221 C222 1.379 . S
C222 H206 0.931 . S
C222 C216 1.383 . S
C222 C221 1.379 . S
H223 C217 0.959 . S
H224 C217 0.961 . S
H225 C217 0.960 . S
H226 C218 0.930 . S
H227 C219 0.929 . S
H228 C236 0.929 . S
H229 C238 0.930 . S
H230 C240 0.930 . S
H231 C243 0.929 . S
H232 C246 0.930 . S
H233 C248 0.960 . S
H234 C248 0.960 . S
H235 C248 0.960 . S
C236 H228 0.929 . S
C236 C237 1.377 . S
C236 C238 1.384 . S
C237 C236 1.377 . S
C237 C243 1.390 . S
C238 H229 0.930 . S
C238 C236 1.384 . S
C238 C239 1.372 . S
C239 C238 1.372 . S
C239 C240 1.400 . S
C239 C244 1.490 . S
C240 H230 0.930 . S
C240 C239 1.400 . S
C240 C243 1.386 . S
H241 C257 0.930 . S
H242 C258 0.931 . S
C243 H231 0.929 . S
C243 C237 1.390 . S
C243 C240 1.386 . S
C244 C239 1.490 . S
C244 C246 1.395 . S
C244 C247 1.403 . S
H245 C251 0.930 . S
C246 H232 0.930 . S
C246 C244 1.395 . S
C246 C249 1.403 . S
C247 C244 1.403 . S
C247 C248 1.524 . S
C247 C251 1.400 . S
C248 H233 0.960 . S
C248 H234 0.960 . S
C248 H235 0.960 . S
C248 C247 1.524 . S
C249 C246 1.403 . S
C249 C250 1.392 . S
C249 C253 1.495 . S
C250 C249 1.392 . S
C250 C251 1.385 . S
C250 C252 1.478 . S
C251 H245 0.930 . S
C251 C247 1.400 . S
C251 C250 1.385 . S
C252 C250 1.478 . S
C252 C254 1.381 . S
C252 C258 1.383 . S
C253 C249 1.495 . S
C253 H259 0.959 . S
C253 H260 0.961 . S
C253 H261 0.960 . S
C254 C252 1.381 . S
C254 C255 1.394 . S
C254 H262 0.930 . S
C255 C254 1.394 . S
C255 C256 1.383 . S
C255 H263 0.929 . S
C256 C255 1.383 . S
C256 C257 1.377 . S
C257 H241 0.930 . S
C257 C256 1.377 . S
C257 C258 1.379 . S
C258 H242 0.931 . S
C258 C252 1.383 . S
C258 C257 1.379 . S
H259 C253 0.959 . S
H260 C253 0.961 . S
H261 C253 0.960 . S
H262 C254 0.930 . S
H263 C255 0.929 . S
H264 C272 0.929 . S
H265 C274 0.930 . S
H266 C276 0.930 . S
H267 C279 0.929 . S
H268 C282 0.930 . S
H269 C284 0.960 . S
H270 C284 0.960 . S
H271 C284 0.960 . S
C272 H264 0.929 . S
C272 C273 1.377 . S
C272 C274 1.384 . S
C273 C272 1.377 . S
C273 C279 1.390 . S
C274 H265 0.930 . S
C274 C272 1.384 . S
C274 C275 1.372 . S
C275 C274 1.372 . S
C275 C276 1.400 . S
C275 C280 1.490 . S
C276 H266 0.930 . S
C276 C275 1.400 . S
C276 C279 1.386 . S
H277 C293 0.930 . S
H278 C294 0.931 . S
C279 H267 0.929 . S
C279 C273 1.390 . S
C279 C276 1.386 . S
C280 C275 1.490 . S
C280 C282 1.395 . S
C280 C283 1.403 . S
H281 C287 0.930 . S
C282 H268 0.930 . S
C282 C280 1.395 . S
C282 C285 1.403 . S
C283 C280 1.403 . S
C283 C284 1.524 . S
C283 C287 1.400 . S
C284 H269 0.960 . S
C284 H270 0.960 . S
C284 H271 0.960 . S
C284 C283 1.524 . S
C285 C282 1.403 . S
C285 C286 1.392 . S
C285 C289 1.495 . S
C286 C285 1.392 . S
C286 C287 1.385 . S
C286 C288 1.478 . S
C287 H281 0.930 . S
C287 C283 1.400 . S
C287 C286 1.385 . S
C288 C286 1.478 . S
C288 C290 1.381 . S
C288 C294 1.383 . S
C289 C285 1.495 . S
C289 H295 0.959 . S
C289 H296 0.961 . S
C289 H297 0.960 . S
C290 C288 1.381 . S
C290 C291 1.394 . S
C290 H298 0.930 . S
C291 C290 1.394 . S
C291 C292 1.383 . S
C291 H299 0.929 . S
C292 C291 1.383 . S
C292 C293 1.377 . S
C293 H277 0.930 . S
C293 C292 1.377 . S
C293 C294 1.379 . S
C294 H278 0.931 . S
C294 C288 1.383 . S
C294 C293 1.379 . S
H295 C289 0.959 . S
H296 C289 0.961 . S
H297 C289 0.960 . S
H298 C290 0.930 . S
H299 C291 0.929 . S
H300 C308 0.929 . S
H301 C310 0.930 . S
H302 C312 0.930 . S
H303 C315 0.929 . S
H304 C318 0.930 . S
H305 C320 0.960 . S
H306 C320 0.960 . S
H307 C320 0.960 . S
C308 H300 0.929 . S
C308 C309 1.377 . S
C308 C310 1.384 . S
C309 C308 1.377 . S
C309 C315 1.390 . S
C310 H301 0.930 . S
C310 C308 1.384 . S
C310 C311 1.372 . S
C311 C310 1.372 . S
C311 C312 1.400 . S
C311 C316 1.490 . S
C312 H302 0.930 . S
C312 C311 1.400 . S
C312 C315 1.386 . S
H313 C329 0.930 . S
H314 C330 0.931 . S
C315 H303 0.929 . S
C315 C309 1.390 . S
C315 C312 1.386 . S
C316 C311 1.490 . S
C316 C318 1.395 . S
C316 C319 1.403 . S
H317 C323 0.930 . S
C318 H304 0.930 . S
C318 C316 1.395 . S
C318 C321 1.403 . S
C319 C316 1.403 . S
C319 C320 1.524 . S
C319 C323 1.400 . S
C320 H305 0.960 . S
C320 H306 0.960 . S
C320 H307 0.960 . S
C320 C319 1.524 . S
C321 C318 1.403 . S
C321 C322 1.392 . S
C321 C325 1.495 . S
C322 C321 1.392 . S
C322 C323 1.385 . S
C322 C324 1.478 . S
C323 H317 0.930 . S
C323 C319 1.400 . S
C323 C322 1.385 . S
C324 C322 1.478 . S
C324 C326 1.381 . S
C324 C330 1.383 . S
C325 C321 1.495 . S
C325 H331 0.959 . S
C325 H332 0.961 . S
C325 H333 0.960 . S
C326 C324 1.381 . S
C326 C327 1.394 . S
C326 H334 0.930 . S
C327 C326 1.394 . S
C327 C328 1.383 . S
C327 H335 0.929 . S
C328 C327 1.383 . S
C328 C329 1.377 . S
C329 H313 0.930 . S
C329 C328 1.377 . S
C329 C330 1.379 . S
C330 H314 0.931 . S
C330 C324 1.383 . S
C330 C329 1.379 . S
H331 C325 0.959 . S
H332 C325 0.961 . S
H333 C325 0.960 . S
H334 C326 0.930 . S
H335 C327 0.929 . S
H336 C344 0.929 . S
H337 C346 0.930 . S
H338 C348 0.930 . S
H339 C351 0.929 . S
H340 C354 0.930 . S
H341 C356 0.960 . S
H342 C356 0.960 . S
H343 C356 0.960 . S
C344 H336 0.929 . S
C344 C345 1.377 . S
C344 C346 1.384 . S
C345 C344 1.377 . S
C345 C351 1.390 . S
C346 H337 0.930 . S
C346 C344 1.384 . S
C346 C347 1.372 . S
C347 C346 1.372 . S
C347 C348 1.400 . S
C347 C352 1.490 . S
C348 H338 0.930 . S
C348 C347 1.400 . S
C348 C351 1.386 . S
H349 C365 0.930 . S
H350 C366 0.931 . S
C351 H339 0.929 . S
C351 C345 1.390 . S
C351 C348 1.386 . S
C352 C347 1.490 . S
C352 C354 1.395 . S
C352 C355 1.403 . S
H353 C359 0.930 . S
C354 H340 0.930 . S
C354 C352 1.395 . S
C354 C357 1.403 . S
C355 C352 1.403 . S
C355 C356 1.524 . S
C355 C359 1.400 . S
C356 H341 0.960 . S
C356 H342 0.960 . S
C356 H343 0.960 . S
C356 C355 1.524 . S
C357 C354 1.403 . S
C357 C358 1.392 . S
C357 C361 1.495 . S
C358 C357 1.392 . S
C358 C359 1.385 . S
C358 C360 1.478 . S
C359 H353 0.930 . S
C359 C355 1.400 . S
C359 C358 1.385 . S
C360 C358 1.478 . S
C360 C362 1.381 . S
C360 C366 1.383 . S
C361 C357 1.495 . S
C361 H367 0.959 . S
C361 H368 0.961 . S
C361 H369 0.960 . S
C362 C360 1.381 . S
C362 C363 1.394 . S
C362 H370 0.930 . S
C363 C362 1.394 . S
C363 C364 1.383 . S
C363 H371 0.929 . S
C364 C363 1.383 . S
C364 C365 1.377 . S
C365 H349 0.930 . S
C365 C364 1.377 . S
C365 C366 1.379 . S
C366 H350 0.931 . S
C366 C360 1.383 . S
C366 C365 1.379 . S
H367 C361 0.959 . S
H368 C361 0.961 . S
H369 C361 0.960 . S
H370 C362 0.930 . S
H371 C363 0.929 . S
H372 C380 0.929 . S
H373 C382 0.930 . S
H374 C384 0.930 . S
H375 C387 0.929 . S
H376 C390 0.930 . S
H377 C392 0.960 . S
H378 C392 0.960 . S
H379 C392 0.960 . S
C380 H372 0.929 . S
C380 C381 1.377 . S
C380 C382 1.384 . S
C381 C380 1.377 . S
C381 C387 1.390 . S
C382 H373 0.930 . S
C382 C380 1.384 . S
C382 C383 1.372 . S
C383 C382 1.372 . S
C383 C384 1.400 . S
C383 C388 1.490 . S
C384 H374 0.930 . S
C384 C383 1.400 . S
C384 C387 1.386 . S
H385 C401 0.930 . S
H386 C402 0.931 . S
C387 H375 0.929 . S
C387 C381 1.390 . S
C387 C384 1.386 . S
C388 C383 1.490 . S
C388 C390 1.395 . S
C388 C391 1.403 . S
H389 C395 0.930 . S
C390 H376 0.930 . S
C390 C388 1.395 . S
C390 C393 1.403 . S
C391 C388 1.403 . S
C391 C392 1.524 . S
C391 C395 1.400 . S
C392 H377 0.960 . S
C392 H378 0.960 . S
C392 H379 0.960 . S
C392 C391 1.524 . S
C393 C390 1.403 . S
C393 C394 1.392 . S
C393 C397 1.495 . S
C394 C393 1.392 . S
C394 C395 1.385 . S
C394 C396 1.478 . S
C395 H389 0.930 . S
C395 C391 1.400 . S
C395 C394 1.385 . S
C396 C394 1.478 . S
C396 C398 1.381 . S
C396 C402 1.383 . S
C397 C393 1.495 . S
C397 H403 0.959 . S
C397 H404 0.961 . S
C397 H405 0.960 . S
C398 C396 1.381 . S
C398 C399 1.394 . S
C398 H406 0.930 . S
C399 C398 1.394 . S
C399 C400 1.383 . S
C399 H407 0.929 . S
C400 C399 1.383 . S
C400 C401 1.377 . S
C401 H385 0.930 . S
C401 C400 1.377 . S
C401 C402 1.379 . S
C402 H386 0.931 . S
C402 C396 1.383 . S
C402 C401 1.379 . S
H403 C397 0.959 . S
H404 C397 0.961 . S
H405 C397 0.960 . S
H406 C398 0.930 . S
H407 C399 0.929 . S
H408 C416 0.929 . S
H409 C418 0.930 . S
H410 C420 0.930 . S
H411 C423 0.929 . S
H412 C426 0.930 . S
H413 C428 0.960 . S
H414 C428 0.960 . S
H415 C428 0.960 . S
C416 H408 0.929 . S
C416 C417 1.377 . S
C416 C418 1.384 . S
C417 C416 1.377 . S
C417 C423 1.390 . S
C418 H409 0.930 . S
C418 C416 1.384 . S
C418 C419 1.372 . S
C419 C418 1.372 . S
C419 C420 1.400 . S
C419 C424 1.490 . S
C420 H410 0.930 . S
C420 C419 1.400 . S
C420 C423 1.386 . S
H421 C437 0.930 . S
H422 C438 0.931 . S
C423 H411 0.929 . S
C423 C417 1.390 . S
C423 C420 1.386 . S
C424 C419 1.490 . S
C424 C426 1.395 . S
C424 C427 1.403 . S
H425 C431 0.930 . S
C426 H412 0.930 . S
C426 C424 1.395 . S
C426 C429 1.403 . S
C427 C424 1.403 . S
C427 C428 1.524 . S
C427 C431 1.400 . S
C428 H413 0.960 . S
C428 H414 0.960 . S
C428 H415 0.960 . S
C428 C427 1.524 . S
C429 C426 1.403 . S
C429 C430 1.392 . S
C429 C433 1.495 . S
C430 C429 1.392 . S
C430 C431 1.385 . S
C430 C432 1.478 . S
C431 H425 0.930 . S
C431 C427 1.400 . S
C431 C430 1.385 . S
C432 C430 1.478 . S
C432 C434 1.381 . S
C432 C438 1.383 . S
C433 C429 1.495 . S
C433 H439 0.959 . S
C433 H440 0.961 . S
C433 H441 0.960 . S
C434 C432 1.381 . S
C434 C435 1.394 . S
C434 H442 0.930 . S
C435 C434 1.394 . S
C435 C436 1.383 . S
C435 H443 0.929 . S
C436 C435 1.383 . S
C436 C437 1.377 . S
C437 H421 0.930 . S
C437 C436 1.377 . S
C437 C438 1.379 . S
C438 H422 0.931 . S
C438 C432 1.383 . S
C438 C437 1.379 . S
H439 C433 0.959 . S
H440 C433 0.961 . S
H441 C433 0.960 . S
H442 C434 0.930 . S
H443 C435 0.929 . S
H444 C452 0.929 . S
H445 C454 0.930 . S
H446 C456 0.930 . S
H447 C459 0.929 . S
H448 C462 0.930 . S
H449 C464 0.960 . S
H450 C464 0.960 . S
H451 C464 0.960 . S
C452 H444 0.929 . S
C452 C453 1.377 . S
C452 C454 1.384 . S
C453 C452 1.377 . S
C453 C459 1.390 . S
C454 H445 0.930 . S
C454 C452 1.384 . S
C454 C455 1.372 . S
C455 C454 1.372 . S
C455 C456 1.400 . S
C455 C460 1.490 . S
C456 H446 0.930 . S
C456 C455 1.400 . S
C456 C459 1.386 . S
H457 C473 0.930 . S
H458 C474 0.931 . S
C459 H447 0.929 . S
C459 C453 1.390 . S
C459 C456 1.386 . S
C460 C455 1.490 . S
C460 C462 1.395 . S
C460 C463 1.403 . S
H461 C467 0.930 . S
C462 H448 0.930 . S
C462 C460 1.395 . S
C462 C465 1.403 . S
C463 C460 1.403 . S
C463 C464 1.524 . S
C463 C467 1.400 . S
C464 H449 0.960 . S
C464 H450 0.960 . S
C464 H451 0.960 . S
C464 C463 1.524 . S
C465 C462 1.403 . S
C465 C466 1.392 . S
C465 C469 1.495 . S
C466 C465 1.392 . S
C466 C467 1.385 . S
C466 C468 1.478 . S
C467 H461 0.930 . S
C467 C463 1.400 . S
C467 C466 1.385 . S
C468 C466 1.478 . S
C468 C470 1.381 . S
C468 C474 1.383 . S
C469 C465 1.495 . S
C469 H475 0.959 . S
C469 H476 0.961 . S
C469 H477 0.960 . S
C470 C468 1.381 . S
C470 C471 1.394 . S
C470 H478 0.930 . S
C471 C470 1.394 . S
C471 C472 1.383 . S
C471 H479 0.929 . S
C472 C471 1.383 . S
C472 C473 1.377 . S
C473 H457 0.930 . S
C473 C472 1.377 . S
C473 C474 1.379 . S
C474 H458 0.931 . S
C474 C468 1.383 . S
C474 C473 1.379 . S
H475 C469 0.959 . S
H476 C469 0.961 . S
H477 C469 0.960 . S
H478 C470 0.930 . S
H479 C471 0.929 . S
H480 C488 0.929 . S
H481 C490 0.930 . S
H482 C492 0.930 . S
H483 C495 0.929 . S
H484 C498 0.930 . S
H485 C500 0.960 . S
H486 C500 0.960 . S
H487 C500 0.960 . S
C488 H480 0.929 . S
C488 C489 1.377 . S
C488 C490 1.384 . S
C489 C488 1.377 . S
C489 C495 1.390 . S
C490 H481 0.930 . S
C490 C488 1.384 . S
C490 C491 1.372 . S
C491 C490 1.372 . S
C491 C492 1.400 . S
C491 C496 1.490 . S
C492 H482 0.930 . S
C492 C491 1.400 . S
C492 C495 1.386 . S
H493 C509 0.930 . S
H494 C510 0.931 . S
C495 H483 0.929 . S
C495 C489 1.390 . S
C495 C492 1.386 . S
C496 C491 1.490 . S
C496 C498 1.395 . S
C496 C499 1.403 . S
H497 C503 0.930 . S
C498 H484 0.930 . S
C498 C496 1.395 . S
C498 C501 1.403 . S
C499 C496 1.403 . S
C499 C500 1.524 . S
C499 C503 1.400 . S
C500 H485 0.960 . S
C500 H486 0.960 . S
C500 H487 0.960 . S
C500 C499 1.524 . S
C501 C498 1.403 . S
C501 C502 1.392 . S
C501 C505 1.495 . S
C502 C501 1.392 . S
C502 C503 1.385 . S
C502 C504 1.478 . S
C503 H497 0.930 . S
C503 C499 1.400 . S
C503 C502 1.385 . S
C504 C502 1.478 . S
C504 C506 1.381 . S
C504 C510 1.383 . S
C505 C501 1.495 . S
C505 H511 0.959 . S
C505 H512 0.961 . S
C505 H513 0.960 . S
C506 C504 1.381 . S
C506 C507 1.394 . S
C506 H514 0.930 . S
C507 C506 1.394 . S
C507 C508 1.383 . S
C507 H515 0.929 . S
C508 C507 1.383 . S
C508 C509 1.377 . S
C509 H493 0.930 . S
C509 C508 1.377 . S
C509 C510 1.379 . S
C510 H494 0.931 . S
C510 C504 1.383 . S
C510 C509 1.379 . S
H511 C505 0.959 . S
H512 C505 0.961 . S
H513 C505 0.960 . S
H514 C506 0.930 . S
H515 C507 0.929 . S
H516 C524 0.929 . S
H517 C526 0.930 . S
H518 C528 0.930 . S
H519 C531 0.929 . S
H520 C534 0.930 . S
H521 C536 0.960 . S
H522 C536 0.960 . S
H523 C536 0.960 . S
C524 H516 0.929 . S
C524 C525 1.377 . S
C524 C526 1.384 . S
C525 C524 1.377 . S
C525 C531 1.390 . S
C526 H517 0.930 . S
C526 C524 1.384 . S
C526 C527 1.372 . S
C527 C526 1.372 . S
C527 C528 1.400 . S
C527 C532 1.490 . S
C528 H518 0.930 . S
C528 C527 1.400 . S
C528 C531 1.386 . S
H529 C545 0.930 . S
H530 C546 0.931 . S
C531 H519 0.929 . S
C531 C525 1.390 . S
C531 C528 1.386 . S
C532 C527 1.490 . S
C532 C534 1.395 . S
C532 C535 1.403 . S
H533 C539 0.930 . S
C534 H520 0.930 . S
C534 C532 1.395 . S
C534 C537 1.403 . S
C535 C532 1.403 . S
C535 C536 1.524 . S
C535 C539 1.400 . S
C536 H521 0.960 . S
C536 H522 0.960 . S
C536 H523 0.960 . S
C536 C535 1.524 . S
C537 C534 1.403 . S
C537 C538 1.392 . S
C537 C541 1.495 . S
C538 C537 1.392 . S
C538 C539 1.385 . S
C538 C540 1.478 . S
C539 H533 0.930 . S
C539 C535 1.400 . S
C539 C538 1.385 . S
C540 C538 1.478 . S
C540 C542 1.381 . S
C540 C546 1.383 . S
C541 C537 1.495 . S
C541 H547 0.959 . S
C541 H548 0.961 . S
C541 H549 0.960 . S
C542 C540 1.381 . S
C542 C543 1.394 . S
C542 H550 0.930 . S
C543 C542 1.394 . S
C543 C544 1.383 . S
C543 H551 0.929 . S
C544 C543 1.383 . S
C544 C545 1.377 . S
C545 H529 0.930 . S
C545 C544 1.377 . S
C545 C546 1.379 . S
C546 H530 0.931 . S
C546 C540 1.383 . S
C546 C545 1.379 . S
H547 C541 0.959 . S
H548 C541 0.961 . S
H549 C541 0.960 . S
H550 C542 0.930 . S
H551 C543 0.929 . S
H552 C560 0.929 . S
H553 C562 0.930 . S
H554 C564 0.930 . S
H555 C567 0.929 . S
H556 C570 0.930 . S
H557 C572 0.960 . S
H558 C572 0.960 . S
H559 C572 0.960 . S
C560 H552 0.929 . S
C560 C561 1.377 . S
C560 C562 1.384 . S
C561 C560 1.377 . S
C561 C567 1.390 . S
C562 H553 0.930 . S
C562 C560 1.384 . S
C562 C563 1.372 . S
C563 C562 1.372 . S
C563 C564 1.400 . S
C563 C568 1.490 . S
C564 H554 0.930 . S
C564 C563 1.400 . S
C564 C567 1.386 . S
H565 C581 0.930 . S
H566 C582 0.931 . S
C567 H555 0.929 . S
C567 C561 1.390 . S
C567 C564 1.386 . S
C568 C563 1.490 . S
C568 C570 1.395 . S
C568 C571 1.403 . S
H569 C575 0.930 . S
C570 H556 0.930 . S
C570 C568 1.395 . S
C570 C573 1.403 . S
C571 C568 1.403 . S
C571 C572 1.524 . S
C571 C575 1.400 . S
C572 H557 0.960 . S
C572 H558 0.960 . S
C572 H559 0.960 . S
C572 C571 1.524 . S
C573 C570 1.403 . S
C573 C574 1.392 . S
C573 C577 1.495 . S
C574 C573 1.392 . S
C574 C575 1.385 . S
C574 C576 1.478 . S
C575 H569 0.930 . S
C575 C571 1.400 . S
C575 C574 1.385 . S
C576 C574 1.478 . S
C576 C578 1.381 . S
C576 C582 1.383 . S
C577 C573 1.495 . S
C577 H583 0.959 . S
C577 H584 0.961 . S
C577 H585 0.960 . S
C578 C576 1.381 . S
C578 C579 1.394 . S
C578 H586 0.930 . S
C579 C578 1.394 . S
C579 C580 1.383 . S
C579 H587 0.929 . S
C580 C579 1.383 . S
C580 C581 1.377 . S
C581 H565 0.930 . S
C581 C580 1.377 . S
C581 C582 1.379 . S
C582 H566 0.931 . S
C582 C576 1.383 . S
C582 C581 1.379 . S
H583 C577 0.959 . S
H584 C577 0.961 . S
H585 C577 0.960 . S
H586 C578 0.930 . S
H587 C579 0.929 . S
H588 C596 0.929 . S
H589 C598 0.930 . S
H590 C600 0.930 . S
H591 C603 0.929 . S
H592 C606 0.930 . S
H593 C608 0.960 . S
H594 C608 0.960 . S
H595 C608 0.960 . S
C596 H588 0.929 . S
C596 C597 1.377 . S
C596 C598 1.384 . S
C597 C596 1.377 . S
C597 C603 1.390 . S
C598 H589 0.930 . S
C598 C596 1.384 . S
C598 C599 1.372 . S
C599 C598 1.372 . S
C599 C600 1.400 . S
C599 C604 1.490 . S
C600 H590 0.930 . S
C600 C599 1.400 . S
C600 C603 1.386 . S
H601 C617 0.930 . S
H602 C618 0.931 . S
C603 H591 0.929 . S
C603 C597 1.390 . S
C603 C600 1.386 . S
C604 C599 1.490 . S
C604 C606 1.395 . S
C604 C607 1.403 . S
H605 C611 0.930 . S
C606 H592 0.930 . S
C606 C604 1.395 . S
C606 C609 1.403 . S
C607 C604 1.403 . S
C607 C608 1.524 . S
C607 C611 1.400 . S
C608 H593 0.960 . S
C608 H594 0.960 . S
C608 H595 0.960 . S
C608 C607 1.524 . S
C609 C606 1.403 . S
C609 C610 1.392 . S
C609 C613 1.495 . S
C610 C609 1.392 . S
C610 C611 1.385 . S
C610 C612 1.478 . S
C611 H605 0.930 . S
C611 C607 1.400 . S
C611 C610 1.385 . S
C612 C610 1.478 . S
C612 C614 1.381 . S
C612 C618 1.383 . S
C613 C609 1.495 . S
C613 H619 0.959 . S
C613 H620 0.961 . S
C613 H621 0.960 . S
C614 C612 1.381 . S
C614 C615 1.394 . S
C614 H622 0.930 . S
C615 C614 1.394 . S
C615 C616 1.383 . S
C615 H623 0.929 . S
C616 C615 1.383 . S
C616 C617 1.377 . S
C617 H601 0.930 . S
C617 C616 1.377 . S
C617 C618 1.379 . S
C618 H602 0.931 . S
C618 C612 1.383 . S
C618 C617 1.379 . S
H619 C613 0.959 . S
H620 C613 0.961 . S
H621 C613 0.960 . S
H622 C614 0.930 . S
H623 C615 0.929 . S
H624 C632 0.929 . S
H625 C634 0.930 . S
H626 C636 0.930 . S
H627 C639 0.929 . S
H628 C642 0.930 . S
H629 C644 0.960 . S
H630 C644 0.960 . S
H631 C644 0.960 . S
C632 H624 0.929 . S
C632 C633 1.377 . S
C632 C634 1.384 . S
C633 C632 1.377 . S
C633 C639 1.390 . S
C634 H625 0.930 . S
C634 C632 1.384 . S
C634 C635 1.372 . S
C635 C634 1.372 . S
C635 C636 1.400 . S
C635 C640 1.490 . S
C636 H626 0.930 . S
C636 C635 1.400 . S
C636 C639 1.386 . S
H637 C653 0.930 . S
H638 C654 0.931 . S
C639 H627 0.929 . S
C639 C633 1.390 . S
C639 C636 1.386 . S
C640 C635 1.490 . S
C640 C642 1.395 . S
C640 C643 1.403 . S
H641 C647 0.930 . S
C642 H628 0.930 . S
C642 C640 1.395 . S
C642 C645 1.403 . S
C643 C640 1.403 . S
C643 C644 1.524 . S
C643 C647 1.400 . S
C644 H629 0.960 . S
C644 H630 0.960 . S
C644 H631 0.960 . S
C644 C643 1.524 . S
C645 C642 1.403 . S
C645 C646 1.392 . S
C645 C649 1.495 . S
C646 C645 1.392 . S
C646 C647 1.385 . S
C646 C648 1.478 . S
C647 H641 0.930 . S
C647 C643 1.400 . S
C647 C646 1.385 . S
C648 C646 1.478 . S
C648 C650 1.381 . S
C648 C654 1.383 . S
C649 C645 1.495 . S
C649 H655 0.959 . S
C649 H656 0.961 . S
C649 H657 0.960 . S
C650 C648 1.381 . S
C650 C651 1.394 . S
C650 H658 0.930 . S
C651 C650 1.394 . S
C651 C652 1.383 . S
C651 H659 0.929 . S
C652 C651 1.383 . S
C652 C653 1.377 . S
C653 H637 0.930 . S
C653 C652 1.377 . S
C653 C654 1.379 . S
C654 H638 0.931 . S
C654 C648 1.383 . S
C654 C653 1.379 . S
H655 C649 0.959 . S
H656 C649 0.961 . S
H657 C649 0.960 . S
H658 C650 0.930 . S
H659 C651 0.929 . S
H660 C668 0.929 . S
H661 C670 0.930 . S
H662 C672 0.930 . S
H663 C675 0.929 . S
H664 C678 0.930 . S
H665 C680 0.960 . S
H666 C680 0.960 . S
H667 C680 0.960 . S
C668 H660 0.929 . S
C668 C669 1.377 . S
C668 C670 1.384 . S
C669 C668 1.377 . S
C669 C675 1.390 . S
C670 H661 0.930 . S
C670 C668 1.384 . S
C670 C671 1.372 . S
C671 C670 1.372 . S
C671 C672 1.400 . S
C671 C676 1.490 . S
C672 H662 0.930 . S
C672 C671 1.400 . S
C672 C675 1.386 . S
H673 C689 0.930 . S
H674 C690 0.931 . S
C675 H663 0.929 . S
C675 C669 1.390 . S
C675 C672 1.386 . S
C676 C671 1.490 . S
C676 C678 1.395 . S
C676 C679 1.403 . S
H677 C683 0.930 . S
C678 H664 0.930 . S
C678 C676 1.395 . S
C678 C681 1.403 . S
C679 C676 1.403 . S
C679 C680 1.524 . S
C679 C683 1.400 . S
C680 H665 0.960 . S
C680 H666 0.960 . S
C680 H667 0.960 . S
C680 C679 1.524 . S
C681 C678 1.403 . S
C681 C682 1.392 . S
C681 C685 1.495 . S
C682 C681 1.392 . S
C682 C683 1.385 . S
C682 C684 1.478 . S
C683 H677 0.930 . S
C683 C679 1.400 . S
C683 C682 1.385 . S
C684 C682 1.478 . S
C684 C686 1.381 . S
C684 C690 1.383 . S
C685 C681 1.495 . S
C685 H691 0.959 . S
C685 H692 0.961 . S
C685 H693 0.960 . S
C686 C684 1.381 . S
C686 C687 1.394 . S
C686 H694 0.930 . S
C687 C686 1.394 . S
C687 C688 1.383 . S
C687 H695 0.929 . S
C688 C687 1.383 . S
C688 C689 1.377 . S
C689 H673 0.930 . S
C689 C688 1.377 . S
C689 C690 1.379 . S
C690 H674 0.931 . S
C690 C684 1.383 . S
C690 C689 1.379 . S
H691 C685 0.959 . S
H692 C685 0.961 . S
H693 C685 0.960 . S
H694 C686 0.930 . S
H695 C687 0.929 . S
H696 C704 0.929 . S
H697 C706 0.930 . S
H698 C708 0.930 . S
H699 C711 0.929 . S
H700 C714 0.930 . S
H701 C716 0.960 . S
H702 C716 0.960 . S
H703 C716 0.960 . S
C704 H696 0.929 . S
C704 C705 1.377 . S
C704 C706 1.384 . S
C705 C704 1.377 . S
C705 C711 1.390 . S
C706 H697 0.930 . S
C706 C704 1.384 . S
C706 C707 1.372 . S
C707 C706 1.372 . S
C707 C708 1.400 . S
C707 C712 1.490 . S
C708 H698 0.930 . S
C708 C707 1.400 . S
C708 C711 1.386 . S
H709 C725 0.930 . S
H710 C726 0.931 . S
C711 H699 0.929 . S
C711 C705 1.390 . S
C711 C708 1.386 . S
C712 C707 1.490 . S
C712 C714 1.395 . S
C712 C715 1.403 . S
H713 C719 0.930 . S
C714 H700 0.930 . S
C714 C712 1.395 . S
C714 C717 1.403 . S
C715 C712 1.403 . S
C715 C716 1.524 . S
C715 C719 1.400 . S
C716 H701 0.960 . S
C716 H702 0.960 . S
C716 H703 0.960 . S
C716 C715 1.524 . S
C717 C714 1.403 . S
C717 C718 1.392 . S
C717 C721 1.495 . S
C718 C717 1.392 . S
C718 C719 1.385 . S
C718 C720 1.478 . S
C719 H713 0.930 . S
C719 C715 1.400 . S
C719 C718 1.385 . S
C720 C718 1.478 . S
C720 C722 1.381 . S
C720 C726 1.383 . S
C721 C717 1.495 . S
C721 H727 0.959 . S
C721 H728 0.961 . S
C721 H729 0.960 . S
C722 C720 1.381 . S
C722 C723 1.394 . S
C722 H730 0.930 . S
C723 C722 1.394 . S
C723 C724 1.383 . S
C723 H731 0.929 . S
C724 C723 1.383 . S
C724 C725 1.377 . S
C725 H709 0.930 . S
C725 C724 1.377 . S
C725 C726 1.379 . S
C726 H710 0.931 . S
C726 C720 1.383 . S
C726 C725 1.379 . S
H727 C721 0.959 . S
H728 C721 0.961 . S
H729 C721 0.960 . S
H730 C722 0.930 . S
H731 C723 0.929 . S
H732 C740 0.929 . S
H733 C742 0.930 . S
H734 C744 0.930 . S
H735 C747 0.929 . S
H736 C750 0.930 . S
H737 C752 0.960 . S
H738 C752 0.960 . S
H739 C752 0.960 . S
C740 H732 0.929 . S
C740 C741 1.377 . S
C740 C742 1.384 . S
C741 C740 1.377 . S
C741 C747 1.390 . S
C742 H733 0.930 . S
C742 C740 1.384 . S
C742 C743 1.372 . S
C743 C742 1.372 . S
C743 C744 1.400 . S
C743 C748 1.490 . S
C744 H734 0.930 . S
C744 C743 1.400 . S
C744 C747 1.386 . S
H745 C761 0.930 . S
H746 C762 0.931 . S
C747 H735 0.929 . S
C747 C741 1.390 . S
C747 C744 1.386 . S
C748 C743 1.490 . S
C748 C750 1.395 . S
C748 C751 1.403 . S
H749 C755 0.930 . S
C750 H736 0.930 . S
C750 C748 1.395 . S
C750 C753 1.403 . S
C751 C748 1.403 . S
C751 C752 1.524 . S
C751 C755 1.400 . S
C752 H737 0.960 . S
C752 H738 0.960 . S
C752 H739 0.960 . S
C752 C751 1.524 . S
C753 C750 1.403 . S
C753 C754 1.392 . S
C753 C757 1.495 . S
C754 C753 1.392 . S
C754 C755 1.385 . S
C754 C756 1.478 . S
C755 H749 0.930 . S
C755 C751 1.400 . S
C755 C754 1.385 . S
C756 C754 1.478 . S
C756 C758 1.381 . S
C756 C762 1.383 . S
C757 C753 1.495 . S
C757 H763 0.959 . S
C757 H764 0.961 . S
C757 H765 0.960 . S
C758 C756 1.381 . S
C758 C759 1.394 . S
C758 H766 0.930 . S
C759 C758 1.394 . S
C759 C760 1.383 . S
C759 H767 0.929 . S
C760 C759 1.383 . S
C760 C761 1.377 . S
C761 H745 0.930 . S
C761 C760 1.377 . S
C761 C762 1.379 . S
C762 H746 0.931 . S
C762 C756 1.383 . S
C762 C761 1.379 . S
H763 C757 0.959 . S
H764 C757 0.961 . S
H765 C757 0.960 . S
H766 C758 0.930 . S
H767 C759 0.929 . S
H768 C776 0.928 1_556 S
H769 C778 0.930 1_556 S
H770 C780 0.930 . S
H771 C783 0.929 . S
H772 C786 0.930 . S
H773 C788 0.960 . S
H774 C788 0.960 . S
H775 C788 0.960 . S
C776 H768 0.928 1_554 S
C776 C777 1.377 . S
C776 C778 1.384 . S
C777 C776 1.377 . S
C777 C783 1.390 . S
C778 H769 0.930 1_554 S
C778 C776 1.384 . S
C778 C779 1.372 . S
C779 C778 1.372 . S
C779 C780 1.400 . S
C779 C784 1.490 . S
C780 H770 0.930 . S
C780 C779 1.400 . S
C780 C783 1.386 . S
H781 C797 0.930 . S
H782 C798 0.931 . S
C783 H771 0.929 . S
C783 C777 1.390 . S
C783 C780 1.386 . S
C784 C779 1.490 . S
C784 C786 1.395 1_554 S
C784 C787 1.403 . S
H785 C791 0.930 . S
C786 H772 0.930 . S
C786 C784 1.395 1_556 S
C786 C789 1.403 . S
C787 C784 1.403 . S
C787 C788 1.524 . S
C787 C791 1.400 . S
C788 H773 0.960 . S
C788 H774 0.960 . S
C788 H775 0.960 . S
C788 C787 1.524 . S
C789 C786 1.403 . S
C789 C790 1.392 1_556 S
C789 C793 1.495 . S
C790 C789 1.392 1_554 S
C790 C791 1.385 . S
C790 C792 1.477 . S
C791 H785 0.930 . S
C791 C787 1.400 . S
C791 C790 1.385 . S
C792 C790 1.477 . S
C792 C794 1.381 . S
C792 C798 1.384 . S
C793 C789 1.495 . S
C793 H799 0.959 . S
C793 H800 0.961 . S
C793 H801 0.960 . S
C794 C792 1.381 . S
C794 C795 1.394 . S
C794 H802 0.930 1_554 S
C795 C794 1.394 . S
C795 C796 1.383 . S
C795 H803 0.929 . S
C796 C795 1.383 . S
C796 C797 1.377 . S
C797 H781 0.930 . S
C797 C796 1.377 . S
C797 C798 1.379 . S
C798 H782 0.931 . S
C798 C792 1.384 . S
C798 C797 1.379 . S
H799 C793 0.959 . S
H800 C793 0.961 . S
H801 C793 0.960 . S
H802 C794 0.930 1_556 S
H803 C795 0.929 . S
H804 C812 0.929 . S
H805 C814 0.930 . S
H806 C816 0.930 . S
H807 C819 0.929 . S
H808 C822 0.930 . S
H809 C824 0.960 . S
H810 C824 0.960 . S
H811 C824 0.960 . S
C812 H804 0.929 . S
C812 C813 1.377 . S
C812 C814 1.384 . S
C813 C812 1.377 . S
C813 C819 1.390 . S
C814 H805 0.930 . S
C814 C812 1.384 . S
C814 C815 1.372 . S
C815 C814 1.372 . S
C815 C816 1.400 . S
C815 C820 1.490 . S
C816 H806 0.930 . S
C816 C815 1.400 . S
C816 C819 1.386 . S
H817 C833 0.930 . S
H818 C834 0.931 . S
C819 H807 0.929 . S
C819 C813 1.390 . S
C819 C816 1.386 . S
C820 C815 1.490 . S
C820 C822 1.395 . S
C820 C823 1.403 . S
H821 C827 0.930 . S
C822 H808 0.930 . S
C822 C820 1.395 . S
C822 C825 1.403 . S
C823 C820 1.403 . S
C823 C824 1.524 . S
C823 C827 1.400 . S
C824 H809 0.960 . S
C824 H810 0.960 . S
C824 H811 0.960 . S
C824 C823 1.524 . S
C825 C822 1.403 . S
C825 C826 1.392 . S
C825 C829 1.495 . S
C826 C825 1.392 . S
C826 C827 1.385 . S
C826 C828 1.478 . S
C827 H821 0.930 . S
C827 C823 1.400 . S
C827 C826 1.385 . S
C828 C826 1.478 . S
C828 C830 1.381 . S
C828 C834 1.383 . S
C829 C825 1.495 . S
C829 H835 0.959 . S
C829 H836 0.961 . S
C829 H837 0.960 . S
C830 C828 1.381 . S
C830 C831 1.394 . S
C830 H838 0.930 . S
C831 C830 1.394 . S
C831 C832 1.383 . S
C831 H839 0.929 . S
C832 C831 1.383 . S
C832 C833 1.377 . S
C833 H817 0.930 . S
C833 C832 1.377 . S
C833 C834 1.379 . S
C834 H818 0.931 . S
C834 C828 1.383 . S
C834 C833 1.379 . S
H835 C829 0.959 . S
H836 C829 0.961 . S
H837 C829 0.960 . S
H838 C830 0.930 . S
H839 C831 0.929 . S
H840 C848 0.929 . S
H841 C850 0.930 . S
H842 C852 0.930 . S
H843 C855 0.929 . S
H844 C858 0.930 . S
H845 C860 0.960 . S
H846 C860 0.960 1_554 S
H847 C860 0.960 . S
C848 H840 0.929 . S
C848 C849 1.377 . S
C848 C850 1.384 . S
C849 C848 1.377 . S
C849 C855 1.390 1_554 S
C850 H841 0.930 . S
C850 C848 1.384 . S
C850 C851 1.372 . S
C851 C850 1.372 . S
C851 C852 1.400 1_554 S
C851 C856 1.490 . S
C852 H842 0.930 . S
C852 C851 1.400 1_556 S
C852 C855 1.386 . S
H853 C869 0.930 . S
H854 C870 0.931 . S
C855 H843 0.929 . S
C855 C849 1.390 1_556 S
C855 C852 1.386 . S
C856 C851 1.490 . S
C856 C858 1.395 . S
C856 C859 1.403 . S
H857 C863 0.930 1_556 S
C858 H844 0.930 . S
C858 C856 1.395 . S
C858 C861 1.403 . S
C859 C856 1.403 . S
C859 C860 1.524 1_554 S
C859 C863 1.400 . S
C860 H845 0.960 . S
C860 H846 0.960 1_556 S
C860 H847 0.960 . S
C860 C859 1.524 1_556 S
C861 C858 1.403 . S
C861 C862 1.392 . S
C861 C865 1.495 . S
C862 C861 1.392 . S
C862 C863 1.385 . S
C862 C864 1.478 . S
C863 H857 0.930 1_554 S
C863 C859 1.400 . S
C863 C862 1.385 . S
C864 C862 1.478 . S
C864 C866 1.381 . S
C864 C870 1.383 1_554 S
C865 C861 1.495 . S
C865 H871 0.959 . S
C865 H872 0.961 . S
C865 H873 0.960 . S
C866 C864 1.381 . S
C866 C867 1.394 . S
C866 H874 0.930 . S
C867 C866 1.394 . S
C867 C868 1.383 . S
C867 H875 0.929 . S
C868 C867 1.383 . S
C868 C869 1.377 1_554 S
C869 H853 0.930 . S
C869 C868 1.377 1_556 S
C869 C870 1.379 . S
C870 H854 0.931 . S
C870 C864 1.383 1_556 S
C870 C869 1.379 . S
H871 C865 0.959 . S
H872 C865 0.961 . S
H873 C865 0.960 . S
H874 C866 0.930 . S
H875 C867 0.929 . S
H876 C884 0.929 . S
H877 C886 0.930 . S
H878 C888 0.930 . S
H879 C891 0.929 . S
H880 C894 0.930 . S
H881 C896 0.960 . S
H882 C896 0.960 . S
H883 C896 0.960 . S
C884 H876 0.929 . S
C884 C885 1.377 . S
C884 C886 1.384 . S
C885 C884 1.377 . S
C885 C891 1.390 . S
C886 H877 0.930 . S
C886 C884 1.384 . S
C886 C887 1.372 . S
C887 C886 1.372 . S
C887 C888 1.400 . S
C887 C892 1.490 . S
C888 H878 0.930 . S
C888 C887 1.400 . S
C888 C891 1.386 . S
H889 C905 0.930 . S
H890 C906 0.931 . S
C891 H879 0.929 . S
C891 C885 1.390 . S
C891 C888 1.386 . S
C892 C887 1.490 . S
C892 C894 1.395 . S
C892 C895 1.403 . S
H893 C899 0.930 . S
C894 H880 0.930 . S
C894 C892 1.395 . S
C894 C897 1.403 . S
C895 C892 1.403 . S
C895 C896 1.524 . S
C895 C899 1.400 . S
C896 H881 0.960 . S
C896 H882 0.960 . S
C896 H883 0.960 . S
C896 C895 1.524 . S
C897 C894 1.403 . S
C897 C898 1.392 . S
C897 C901 1.495 . S
C898 C897 1.392 . S
C898 C899 1.385 . S
C898 C900 1.478 . S
C899 H893 0.930 . S
C899 C895 1.400 . S
C899 C898 1.385 . S
C900 C898 1.478 . S
C900 C902 1.381 . S
C900 C906 1.383 . S
C901 C897 1.495 . S
C901 H907 0.959 . S
C901 H908 0.961 . S
C901 H909 0.960 . S
C902 C900 1.381 . S
C902 C903 1.394 . S
C902 H910 0.930 . S
C903 C902 1.394 . S
C903 C904 1.383 . S
C903 H911 0.929 . S
C904 C903 1.383 . S
C904 C905 1.377 . S
C905 H889 0.930 . S
C905 C904 1.377 . S
C905 C906 1.379 . S
C906 H890 0.931 . S
C906 C900 1.383 . S
C906 C905 1.379 . S
H907 C901 0.959 . S
H908 C901 0.961 . S
H909 C901 0.960 . S
H910 C902 0.930 . S
H911 C903 0.929 . S
H912 C920 0.929 . S
H913 C922 0.930 . S
H914 C924 0.930 . S
H915 C927 0.929 . S
H916 C930 0.930 . S
H917 C932 0.960 . S
H918 C932 0.960 . S
H919 C932 0.960 . S
C920 H912 0.929 . S
C920 C921 1.377 . S
C920 C922 1.384 . S
C921 C920 1.377 . S
C921 C927 1.390 . S
C922 H913 0.930 . S
C922 C920 1.384 . S
C922 C923 1.372 . S
C923 C922 1.372 . S
C923 C924 1.400 . S
C923 C928 1.490 . S
C924 H914 0.930 . S
C924 C923 1.400 . S
C924 C927 1.386 . S
H925 C941 0.930 . S
H926 C942 0.931 . S
C927 H915 0.929 . S
C927 C921 1.390 . S
C927 C924 1.386 . S
C928 C923 1.490 . S
C928 C930 1.395 . S
C928 C931 1.403 . S
H929 C935 0.930 . S
C930 H916 0.930 . S
C930 C928 1.395 . S
C930 C933 1.403 . S
C931 C928 1.403 . S
C931 C932 1.524 . S
C931 C935 1.400 . S
C932 H917 0.960 . S
C932 H918 0.960 . S
C932 H919 0.960 . S
C932 C931 1.524 . S
C933 C930 1.403 . S
C933 C934 1.392 . S
C933 C937 1.495 . S
C934 C933 1.392 . S
C934 C935 1.385 . S
C934 C936 1.478 . S
C935 H929 0.930 . S
C935 C931 1.400 . S
C935 C934 1.385 . S
C936 C934 1.478 . S
C936 C938 1.381 . S
C936 C942 1.383 . S
C937 C933 1.495 . S
C937 H943 0.959 . S
C937 H944 0.961 . S
C937 H945 0.960 . S
C938 C936 1.381 . S
C938 C939 1.394 . S
C938 H946 0.930 . S
C939 C938 1.394 . S
C939 C940 1.383 . S
C939 H947 0.929 . S
C940 C939 1.383 . S
C940 C941 1.377 . S
C941 H925 0.930 . S
C941 C940 1.377 . S
C941 C942 1.379 . S
C942 H926 0.931 . S
C942 C936 1.383 . S
C942 C941 1.379 . S
H943 C937 0.959 . S
H944 C937 0.961 . S
H945 C937 0.960 . S
H946 C938 0.930 . S
H947 C939 0.929 . S
H948 C956 0.929 . S
H949 C958 0.930 . S
H950 C960 0.930 . S
H951 C963 0.929 . S
H952 C966 0.930 . S
H953 C968 0.960 . S
H954 C968 0.960 . S
H955 C968 0.960 . S
C956 H948 0.929 . S
C956 C957 1.377 1_556 S
C956 C958 1.384 . S
C957 C956 1.377 1_554 S
C957 C963 1.390 . S
C958 H949 0.930 . S
C958 C956 1.384 . S
C958 C959 1.372 1_556 S
C959 C958 1.372 1_554 S
C959 C960 1.400 . S
C959 C964 1.490 . S
C960 H950 0.930 . S
C960 C959 1.400 . S
C960 C963 1.386 . S
H961 C977 0.930 . S
H962 C978 0.931 . S
C963 H951 0.929 . S
C963 C957 1.390 . S
C963 C960 1.386 . S
C964 C959 1.490 . S
C964 C966 1.395 . S
C964 C967 1.403 1_554 S
H965 C971 0.930 . S
C966 H952 0.930 . S
C966 C964 1.395 . S
C966 C969 1.403 . S
C967 C964 1.403 1_556 S
C967 C968 1.524 . S
C967 C971 1.400 . S
C968 H953 0.960 . S
C968 H954 0.960 . S
C968 H955 0.960 . S
C968 C967 1.524 . S
C969 C966 1.403 . S
C969 C970 1.392 . S
C969 C973 1.495 . S
C970 C969 1.392 . S
C970 C971 1.385 1_554 S
C970 C972 1.478 . S
C971 H965 0.930 . S
C971 C967 1.400 . S
C971 C970 1.385 1_556 S
C972 C970 1.478 . S
C972 C974 1.381 1_554 S
C972 C978 1.383 . S
C973 C969 1.495 . S
C973 H979 0.959 . S
C973 H980 0.961 . S
C973 H981 0.960 . S
C974 C972 1.381 1_556 S
C974 C975 1.394 . S
C974 H982 0.930 . S
C975 C974 1.394 . S
C975 C976 1.383 1_556 S
C975 H983 0.929 . S
C976 C975 1.383 1_554 S
C976 C977 1.377 . S
C977 H961 0.930 . S
C977 C976 1.377 . S
C977 C978 1.379 . S
C978 H962 0.931 . S
C978 C972 1.383 . S
C978 C977 1.379 . S
H979 C973 0.959 . S
H980 C973 0.961 . S
H981 C973 0.960 . S
H982 C974 0.930 . S
H983 C975 0.929 . S
H984 C992 0.929 . S
H985 C994 0.930 . S
H986 C996 0.930 . S
H987 C999 0.929 . S
H988 C1002 0.930 . S
H989 C1004 0.960 . S
H990 C1004 0.960 . S
H991 C1004 0.960 . S
C992 H984 0.929 . S
C992 C993 1.377 . S
C992 C994 1.384 . S
C993 C992 1.377 . S
C993 C999 1.390 . S
C994 H985 0.930 . S
C994 C992 1.384 . S
C994 C995 1.372 . S
C995 C994 1.372 . S
C995 C996 1.400 . S
C995 C1000 1.490 . S
C996 H986 0.930 . S
C996 C995 1.400 . S
C996 C999 1.386 . S
H997 C1013 0.930 . S
H998 C1014 0.931 . S
C999 H987 0.929 . S
C999 C993 1.390 . S
C999 C996 1.386 . S
C1000 C995 1.490 . S
C1000 C1002 1.395 . S
C1000 C1003 1.403 . S
H1001 C1007 0.930 . S
C1002 H988 0.930 . S
C1002 C1000 1.395 . S
C1002 C1005 1.403 . S
C1003 C1000 1.403 . S
C1003 C1004 1.524 . S
C1003 C1007 1.400 . S
C1004 H989 0.960 . S
C1004 H990 0.960 . S
C1004 H991 0.960 . S
C1004 C1003 1.524 . S
C1005 C1002 1.403 . S
C1005 C1006 1.392 . S
C1005 C1009 1.495 . S
C1006 C1005 1.392 . S
C1006 C1007 1.385 . S
C1006 C1008 1.478 . S
C1007 H1001 0.930 . S
C1007 C1003 1.400 . S
C1007 C1006 1.385 . S
C1008 C1006 1.478 . S
C1008 C1010 1.381 . S
C1008 C1014 1.383 . S
C1009 C1005 1.495 . S
C1009 H1015 0.959 . S
C1009 H1016 0.961 . S
C1009 H1017 0.960 . S
C1010 C1008 1.381 . S
C1010 C1011 1.394 . S
C1010 H1018 0.930 . S
C1011 C1010 1.394 . S
C1011 C1012 1.383 . S
C1011 H1019 0.929 . S
C1012 C1011 1.383 . S
C1012 C1013 1.377 . S
C1013 H997 0.930 . S
C1013 C1012 1.377 . S
C1013 C1014 1.379 . S
C1014 H998 0.931 . S
C1014 C1008 1.383 . S
C1014 C1013 1.379 . S
H1015 C1009 0.959 . S
H1016 C1009 0.961 . S
H1017 C1009 0.960 . S
H1018 C1010 0.930 . S
H1019 C1011 0.929 . S
H1020 C1028 0.929 . S
H1021 C1030 0.930 . S
H1022 C1032 0.930 . S
H1023 C1035 0.929 . S
H1024 C1038 0.930 . S
H1025 C1040 0.960 . S
H1026 C1040 0.960 . S
H1027 C1040 0.960 . S
C1028 H1020 0.929 . S
C1028 C1029 1.377 . S
C1028 C1030 1.384 . S
C1029 C1028 1.377 . S
C1029 C1035 1.390 . S
C1030 H1021 0.930 . S
C1030 C1028 1.384 . S
C1030 C1031 1.372 . S
C1031 C1030 1.372 . S
C1031 C1032 1.400 . S
C1031 C1036 1.490 . S
C1032 H1022 0.930 . S
C1032 C1031 1.400 . S
C1032 C1035 1.386 . S
H1033 C1049 0.930 . S
H1034 C1050 0.931 . S
C1035 H1023 0.929 . S
C1035 C1029 1.390 . S
C1035 C1032 1.386 . S
C1036 C1031 1.490 . S
C1036 C1038 1.395 . S
C1036 C1039 1.403 1_554 S
H1037 C1043 0.930 . S
C1038 H1024 0.930 . S
C1038 C1036 1.395 . S
C1038 C1041 1.403 . S
C1039 C1036 1.403 1_556 S
C1039 C1040 1.524 . S
C1039 C1043 1.400 . S
C1040 H1025 0.960 . S
C1040 H1026 0.960 . S
C1040 H1027 0.960 . S
C1040 C1039 1.524 . S
C1041 C1038 1.403 . S
C1041 C1042 1.392 . S
C1041 C1045 1.495 . S
C1042 C1041 1.392 . S
C1042 C1043 1.385 1_554 S
C1042 C1044 1.478 . S
C1043 H1037 0.930 . S
C1043 C1039 1.400 . S
C1043 C1042 1.385 1_556 S
C1044 C1042 1.478 . S
C1044 C1046 1.381 . S
C1044 C1050 1.383 . S
C1045 C1041 1.495 . S
C1045 H1051 0.959 . S
C1045 H1052 0.961 . S
C1045 H1053 0.960 . S
C1046 C1044 1.381 . S
C1046 C1047 1.394 . S
C1046 H1054 0.930 . S
C1047 C1046 1.394 . S
C1047 C1048 1.383 . S
C1047 H1055 0.929 . S
C1048 C1047 1.383 . S
C1048 C1049 1.377 . S
C1049 H1033 0.930 . S
C1049 C1048 1.377 . S
C1049 C1050 1.379 . S
C1050 H1034 0.931 . S
C1050 C1044 1.383 . S
C1050 C1049 1.379 . S
H1051 C1045 0.959 . S
H1052 C1045 0.961 . S
H1053 C1045 0.960 . S
H1054 C1046 0.930 . S
H1055 C1047 0.929 . S
C201 C21 1.498 . S
C220 C135 1.506 . S
C237 C40 1.509 . S
C256 C97 1.461 . S
C292 C110 1.449 . S
C273 C54 1.455 . S
C309 C73 1.507 . S
C328 C122 1.513 . S
C364 C162 1.457 . S
C345 C74 1.465 . S
C400 C174 1.466 . S
C381 C10 1.489 . S
C436 C187 1.498 . S
C417 C37 1.486 . S
C472 C149 1.505 . S
C453 C65 1.529 . S
C489 C52 1.440 . S
C508 C109 1.437 . S
C525 C87 1.533 . S
C544 C123 1.532 . S
C561 C15 1.508 . S
C580 C136 1.474 . S
C616 C96 1.471 . S
C597 C32 1.474 . S
C633 C29 1.519 . S
C652 C188 1.484 . S
C688 C148 1.523 . S
C669 C59 1.514 . S
C724 C161 1.435 . S
C705 C84 1.430 . S
C741 C8 1.497 . S
C760 C175 1.470 . S
C796 C92 1.445 1_554 S
C777 C7 1.536 . S
C832 C105 1.428 . S
C813 C30 1.485 . S
C849 C62 1.542 . S
C868 C118 1.501 . S
C885 C81 1.507 . S
C904 C131 1.481 . S
C940 C144 1.492 . S
C921 C76 1.542 . S
C957 C18 1.484 . S
C976 C157 1.420 . S
C993 C43 1.538 . S
C1012 C170 1.525 . S
C1029 C51 1.505 . S
C1048 C183 1.484 . S
