# Generated by pormake.
# Topology wbl, (4,4)-cn, num edge types: 1
# Building blocks:
#     Node 0, Type 0, BuildingBlock: MUDLON_clean_linker_0, # of connection points: 4
#     Node 1, Type 0, BuildingBlock: MUDLON_clean_linker_0, # of connection points: 4
#     Node 2, Type 0, BuildingBlock: MUDLON_clean_linker_0, # of connection points: 4
#     Node 3, Type 0, BuildingBlock: MUDLON_clean_linker_0, # of connection points: 4
#     Node 4, Type 0, BuildingBlock: MUDLON_clean_linker_0, # of connection points: 4
#     Node 5, Type 0, BuildingBlock: MUDLON_clean_linker_0, # of connection points: 4
#     Node 6, Type 0, BuildingBlock: MUDLON_clean_linker_0, # of connection points: 4
#     Node 7, Type 0, BuildingBlock: MUDLON_clean_linker_0, # of connection points: 4
#     Node 8, Type 1, BuildingBlock: KUFVIS_clean_sbu_0, # of connection points: 4
#     Node 9, Type 1, BuildingBlock: KUFVIS_clean_sbu_0, # of connection points: 4
#     Node 10, Type 1, BuildingBlock: KUFVIS_clean_sbu_0, # of connection points: 4
#     Node 11, Type 1, BuildingBlock: KUFVIS_clean_sbu_0, # of connection points: 4
#     Node 12, Type 1, BuildingBlock: KUFVIS_clean_sbu_0, # of connection points: 4
#     Node 13, Type 1, BuildingBlock: KUFVIS_clean_sbu_0, # of connection points: 4
#     Node 14, Type 1, BuildingBlock: KUFVIS_clean_sbu_0, # of connection points: 4
#     Node 15, Type 1, BuildingBlock: KUFVIS_clean_sbu_0, # of connection points: 4
#     Edge 16, Type (0, 1), BuildingBlock: AJUNOK_clean_linker_0, # of connection points: 2
#     Edge 17, Type (0, 1), BuildingBlock: AJUNOK_clean_linker_0, # of connection points: 2
#     Edge 18, Type (0, 1), BuildingBlock: AJUNOK_clean_linker_0, # of connection points: 2
#     Edge 19, Type (0, 1), BuildingBlock: AJUNOK_clean_linker_0, # of connection points: 2
#     Edge 20, Type (0, 1), BuildingBlock: AJUNOK_clean_linker_0, # of connection points: 2
#     Edge 21, Type (0, 1), BuildingBlock: AJUNOK_clean_linker_0, # of connection points: 2
#     Edge 22, Type (0, 1), BuildingBlock: AJUNOK_clean_linker_0, # of connection points: 2
#     Edge 23, Type (0, 1), BuildingBlock: AJUNOK_clean_linker_0, # of connection points: 2
#     Edge 24, Type (0, 1), BuildingBlock: AJUNOK_clean_linker_0, # of connection points: 2
#     Edge 25, Type (0, 1), BuildingBlock: AJUNOK_clean_linker_0, # of connection points: 2
#     Edge 26, Type (0, 1), BuildingBlock: AJUNOK_clean_linker_0, # of connection points: 2
#     Edge 27, Type (0, 1), BuildingBlock: AJUNOK_clean_linker_0, # of connection points: 2
#     Edge 28, Type (0, 1), BuildingBlock: AJUNOK_clean_linker_0, # of connection points: 2
#     Edge 29, Type (0, 1), BuildingBlock: AJUNOK_clean_linker_0, # of connection points: 2
#     Edge 30, Type (0, 1), BuildingBlock: AJUNOK_clean_linker_0, # of connection points: 2
#     Edge 31, Type (0, 1), BuildingBlock: AJUNOK_clean_linker_0, # of connection points: 2
#     Edge 32, Type (0, 1), BuildingBlock: AJUNOK_clean_linker_0, # of connection points: 2
#     Edge 33, Type (0, 1), BuildingBlock: AJUNOK_clean_linker_0, # of connection points: 2
#     Edge 34, Type (0, 1), BuildingBlock: AJUNOK_clean_linker_0, # of connection points: 2
#     Edge 35, Type (0, 1), BuildingBlock: AJUNOK_clean_linker_0, # of connection points: 2
#     Edge 36, Type (0, 1), BuildingBlock: AJUNOK_clean_linker_0, # of connection points: 2
#     Edge 37, Type (0, 1), BuildingBlock: AJUNOK_clean_linker_0, # of connection points: 2
#     Edge 38, Type (0, 1), BuildingBlock: AJUNOK_clean_linker_0, # of connection points: 2
#     Edge 39, Type (0, 1), BuildingBlock: AJUNOK_clean_linker_0, # of connection points: 2
#     Edge 40, Type (0, 1), BuildingBlock: AJUNOK_clean_linker_0, # of connection points: 2
#     Edge 41, Type (0, 1), BuildingBlock: AJUNOK_clean_linker_0, # of connection points: 2
#     Edge 42, Type (0, 1), BuildingBlock: AJUNOK_clean_linker_0, # of connection points: 2
#     Edge 43, Type (0, 1), BuildingBlock: AJUNOK_clean_linker_0, # of connection points: 2
#     Edge 44, Type (0, 1), BuildingBlock: AJUNOK_clean_linker_0, # of connection points: 2
#     Edge 45, Type (0, 1), BuildingBlock: AJUNOK_clean_linker_0, # of connection points: 2
#     Edge 46, Type (0, 1), BuildingBlock: AJUNOK_clean_linker_0, # of connection points: 2
#     Edge 47, Type (0, 1), BuildingBlock: AJUNOK_clean_linker_0, # of connection points: 2
# Relax obj value: 0.111
# Max RMSD: 0.130
# Mean RMSD: 0.127
data_MOF--net-wbl--node1-KUFVIS_clean_sbu_0--node2-MUDLON_clean_linker_0--edge1-AJUNOK_clean_linker_0
_symmetry_space_group_name_H-M    P1
_symmetry_Int_Tables_number       1
_symmetry_cell_setting            triclinic
loop_
_symmetry_equiv_pos_as_xyz
'x, y, z'
_cell_length_a     43.399456
_cell_length_b     43.450956
_cell_length_c     60.856876
_cell_angle_alpha  89.959409
_cell_angle_beta   90.603741
_cell_angle_gamma 89.965198
loop_
_atom_site_label
_atom_site_type_symbol
_atom_site_fract_x
_atom_site_fract_y
_atom_site_fract_z
_atom_type_partial_charge
H0 H 0.13749 0.9492 0.34045 0.0
N1 N 0.09405 0.92784 0.31091 0.0
H2 H 0.1478 0.92956 0.37698 0.0
H3 H 0.064 0.88332 0.33192 0.0
H4 H 0.07358 0.86418 0.36947 0.0
H5 H 0.1028 0.8823 0.28263 0.0
H6 H 0.14996 0.87029 0.26278 0.0
H7 H 0.1433 0.96687 0.30574 0.0
H8 H 0.19167 0.95334 0.28857 0.0
H9 H 0.1013 0.98594 0.32806 0.0
H10 H 0.04135 0.92909 0.28848 0.0
H11 H 0.06294 0.02679 0.32772 0.0
H12 H 1.00311 0.97048 0.28718 0.0
H13 H 0.93673 0.14924 0.33955 0.0
H14 H 0.92545 0.16147 0.37808 0.0
H15 H 0.91194 0.06476 0.39121 0.0
H16 H 0.9241 0.05273 0.35333 0.0
H17 H 0.88373 0.05912 0.32617 0.0
H18 H 0.83418 0.06654 0.3079 0.0
H19 H 0.87343 0.13813 0.26775 0.0
H20 H 0.92336 0.13084 0.28644 0.0
H21 H 0.99539 0.10357 0.3134 0.0
H22 H 0.03572 0.06506 0.30764 0.0
H23 H 0.96725 0.99307 0.3113 0.0
N24 N 0.93585 0.09416 0.32038 0.0
H25 H 0.92733 0.03151 0.31611 0.0
C26 C 0.09989 0.91765 0.33318 0.0
C27 C 0.12329 0.93068 0.34636 0.0
C28 C 0.12903 0.9196 0.36752 0.0
C29 C 0.1112 0.89564 0.37621 0.0
C30 C 0.0877 0.88267 0.36314 0.0
C31 C 0.08212 0.89364 0.34181 0.0
C32 C 0.11971 0.92497 0.29615 0.0
C33 C 0.12182 0.89841 0.28324 0.0
C34 C 0.14899 0.89144 0.27215 0.0
C35 C 0.17511 0.91049 0.27425 0.0
C36 C 0.17217 0.93822 0.28607 0.0
C37 C 0.14451 0.94575 0.29643 0.0
C38 C 0.07407 0.95418 0.30842 0.0
C39 C 0.08015 0.98239 0.3189 0.0
C40 C 0.0581 0.00595 0.31858 0.0
C41 C 0.02963 1.00195 0.3076 0.0
C42 C 0.0244 0.97422 0.29621 0.0
C43 C 0.04635 0.95064 0.29671 0.0
C44 C 0.93165 0.10015 0.3435 0.0
C45 C 0.93189 0.13071 0.35092 0.0
C46 C 0.92524 0.13766 0.37282 0.0
C47 C 0.91822 0.11404 0.38774 0.0
C48 C 0.9181 0.08341 0.38029 0.0
C49 C 0.92491 0.0765 0.35849 0.0
C50 C 0.90754 0.09449 0.30766 0.0
C51 C 0.88212 0.076 0.31317 0.0
C52 C 0.85362 0.08028 0.30271 0.0
C53 C 0.84982 0.10321 0.28663 0.0
C54 C 0.87555 0.12068 0.28039 0.0
C55 C 0.90411 0.11634 0.29086 0.0
C56 C 0.9583 0.0707 0.3152 0.0
C57 C 0.98913 0.07947 0.31261 0.0
C58 C 0.01217 0.05737 0.30952 0.0
C59 C 0.0049 0.02581 0.3091 0.0
C60 C 0.9738 0.01711 0.31118 0.0
C61 C 0.95077 0.03924 0.31411 0.0
H62 H 0.95455 0.37686 0.58868 0.0
N63 N 0.92671 0.42447 0.56678 0.0
H64 H 0.94622 0.3619 0.62692 0.0
H65 H 0.89047 0.45191 0.59582 0.0
H66 H 0.88194 0.43697 0.63426 0.0
H67 H 0.87013 0.40658 0.5563 0.0
H68 H 0.85471 0.35914 0.53777 0.0
H69 H 0.96543 0.38601 0.54299 0.0
H70 H 0.95008 0.33951 0.52394 0.0
H71 H 0.98853 0.41108 0.57092 0.0
H72 H 0.92395 0.4832 0.5551 0.0
H73 H 0.031 0.44599 0.56557 0.0
H74 H 0.9661 0.51982 0.55259 0.0
H75 H 0.1569 0.59782 0.57358 0.0
H76 H 0.17376 0.61589 0.60953 0.0
H77 H 0.08779 0.58426 0.63703 0.0
H78 H 0.06897 0.57222 0.60059 0.0
H79 H 0.06367 0.62546 0.56917 0.0
H80 H 0.06797 0.67644 0.55214 0.0
H81 H 0.13819 0.64163 0.50897 0.0
H82 H 0.13414 0.59087 0.52642 0.0
H83 H 0.10109 0.51996 0.57932 0.0
H84 H 0.05964 0.48293 0.57963 0.0
H85 H 0.00614 0.54192 0.53633 0.0
N86 N 0.10154 0.57644 0.5618 0.0
H87 H 0.04613 0.58022 0.5382 0.0
C88 C 0.92334 0.41582 0.58951 0.0
C89 C 0.93905 0.39041 0.59857 0.0
C90 C 0.93423 0.38185 0.62041 0.0
C91 C 0.91363 0.39846 0.63356 0.0
C92 C 0.8979 0.42377 0.62445 0.0
C93 C 0.90286 0.43241 0.60263 0.0
C94 C 0.91889 0.40016 0.55142 0.0
C95 C 0.88766 0.39247 0.54874 0.0
C96 C 0.87886 0.36538 0.538 0.0
C97 C 0.90118 0.34548 0.52934 0.0
C98 C 0.93234 0.35421 0.53065 0.0
C99 C 0.94117 0.38112 0.54165 0.0
C100 C 0.95283 0.44415 0.56252 0.0
C101 C 0.9834 0.43442 0.56596 0.0
C102 C 0.00792 0.45496 0.56347 0.0
C103 C 1.0026 0.48635 0.55875 0.0
C104 C 0.97178 0.49595 0.55559 0.0
C105 C 0.94739 0.47503 0.55718 0.0
C106 C 0.11179 0.58337 0.58408 0.0
C107 C 0.14156 0.5952 0.58738 0.0
C108 C 0.15128 0.60527 0.60812 0.0
C109 C 0.13202 0.60236 0.62648 0.0
C110 C 0.10281 0.58877 0.62335 0.0
C111 C 0.09229 0.58074 0.60236 0.0
C112 C 0.09873 0.60442 0.54904 0.0
C113 C 0.07945 0.62869 0.5557 0.0
C114 C 0.08199 0.65776 0.54599 0.0
C115 C 0.10387 0.66312 0.52955 0.0
C116 C 0.12161 0.63831 0.52195 0.0
C117 C 0.11907 0.60926 0.53166 0.0
C118 C 0.07677 0.55387 0.55975 0.0
C119 C 0.0802 0.52516 0.57015 0.0
C120 C 0.05637 0.50357 0.56996 0.0
C121 C 0.02875 0.50908 0.55819 0.0
C122 C 0.02621 0.53696 0.5464 0.0
C123 C 0.04962 0.55914 0.54733 0.0
H124 H 0.64016 0.44516 0.83638 0.0
N125 N 0.59308 0.42459 0.80996 0.0
H126 H 0.65351 0.42631 0.87311 0.0
H127 H 0.56314 0.38262 0.83346 0.0
H128 H 0.57656 0.36349 0.87035 0.0
H129 H 0.61278 0.37199 0.79329 0.0
H130 H 0.66203 0.36214 0.77568 0.0
H131 H 0.63221 0.46932 0.79351 0.0
H132 H 0.68047 0.45981 0.77468 0.0
H133 H 0.60404 0.48297 0.82571 0.0
H134 H 0.5376 0.42691 0.79112 0.0
H135 H 0.56764 0.52551 0.82622 0.0
H136 H 0.50037 0.46926 0.79218 0.0
H137 H 0.4381 0.65164 0.84033 0.0
H138 H 0.41706 0.66389 0.87653 0.0
H139 H 0.39868 0.56732 0.88721 0.0
H140 H 0.41798 0.55563 0.85063 0.0
H141 H 0.39851 0.54978 0.81271 0.0
H142 H 0.3485 0.55406 0.79406 0.0
H143 H 0.36668 0.65014 0.78103 0.0
H144 H 0.4174 0.64489 0.79816 0.0
H145 H 0.4843 0.57894 0.84927 0.0
H146 H 0.52193 0.53849 0.84491 0.0
H147 H 0.48698 0.52038 0.77953 0.0
N148 N 0.43924 0.59699 0.82044 0.0
H149 H 0.44846 0.5604 0.78401 0.0
C150 C 0.60043 0.41535 0.8322 0.0
C151 C 0.62585 0.42767 0.84374 0.0
C152 C 0.63356 0.4168 0.86469 0.0
C153 C 0.61625 0.39324 0.87442 0.0
C154 C 0.59057 0.38132 0.86306 0.0
C155 C 0.58274 0.39235 0.84214 0.0
C156 C 0.61863 0.42122 0.79504 0.0
C157 C 0.62718 0.39133 0.78887 0.0
C158 C 0.65538 0.38576 0.77875 0.0
C159 C 0.67568 0.41011 0.77425 0.0
C160 C 0.66593 0.4404 0.77865 0.0
C161 C 0.63793 0.44591 0.78923 0.0
C162 C 0.57366 0.45156 0.80821 0.0
C163 C 0.58175 0.47982 0.81798 0.0
C164 C 0.56066 0.50416 0.81847 0.0
C165 C 0.53081 0.50081 0.80948 0.0
C166 C 0.52317 0.47287 0.79908 0.0
C167 C 0.5444 0.44858 0.79848 0.0
C168 C 0.42976 0.60283 0.84279 0.0
C169 C 0.4296 0.63319 0.85057 0.0
C170 C 0.41759 0.64011 0.87123 0.0
C171 C 0.40561 0.61668 0.8846 0.0
C172 C 0.40671 0.58608 0.87705 0.0
C173 C 0.41816 0.57926 0.85624 0.0
C174 C 0.41207 0.59695 0.80642 0.0
C175 C 0.39214 0.57144 0.80513 0.0
C176 C 0.36336 0.57406 0.79467 0.0
C177 C 0.35348 0.6024 0.7858 0.0
C178 C 0.37373 0.62766 0.78687 0.0
C179 C 0.40275 0.6248 0.79681 0.0
C180 C 0.46122 0.57172 0.81777 0.0
C181 C 0.48375 0.56583 0.83416 0.0
C182 C 0.50597 0.5429 0.83148 0.0
C183 C 0.50735 0.52573 0.81196 0.0
C184 C 0.48604 0.53247 0.79506 0.0
C185 C 0.46366 0.55542 0.79776 0.0
H186 H 0.47078 0.90694 0.09938 0.0
N187 N 0.42846 0.92591 0.06871 0.0
H188 H 0.4606 0.89303 0.13748 0.0
H189 H 0.37485 0.92915 0.08951 0.0
H190 H 0.36466 0.91683 0.12816 0.0
H191 H 0.3913 0.92171 0.03374 0.0
H192 H 0.37726 0.87491 0.01353 0.0
H193 H 0.45836 0.8702 0.07138 0.0
H194 H 0.44283 0.82322 0.05273 0.0
H195 H 0.48659 0.91515 0.05205 0.0
H196 H 0.42652 0.98556 0.07715 0.0
H197 H 0.52729 0.95305 0.04746 0.0
H198 H 0.46769 0.02311 0.07445 0.0
H199 H 0.6525 0.10919 0.07182 0.0
H200 H 0.67068 0.12552 0.10768 0.0
H201 H 0.59415 0.07822 0.13772 0.0
H202 H 0.5734 0.06648 0.1017 0.0
H203 H 0.56814 0.13319 0.07456 0.0
H204 H 0.5711 0.18424 0.05766 0.0
H205 H 0.62596 0.14667 0.00534 0.0
H206 H 0.62283 0.09551 0.02237 0.0
H207 H 0.60481 0.02089 0.06429 0.0
H208 H 0.564 0.98235 0.06482 0.0
H209 H 0.49655 0.05405 0.05307 0.0
N210 N 0.59924 0.0818 0.06151 0.0
H211 H 0.53679 0.09222 0.05455 0.0
C212 C 0.42347 0.91911 0.09162 0.0
C213 C 0.44756 0.90913 0.10551 0.0
C214 C 0.44175 0.90151 0.12737 0.0
C215 C 0.41189 0.90434 0.13596 0.0
C216 C 0.38787 0.91436 0.12202 0.0
C217 C 0.39365 0.92159 0.10005 0.0
C218 C 0.42529 0.89951 0.05441 0.0
C219 C 0.40318 0.90039 0.03749 0.0
C220 C 0.39487 0.87352 0.02622 0.0
C221 C 0.40804 0.84501 0.03208 0.0
C222 C 0.43198 0.84465 0.04786 0.0
C223 C 0.44074 0.87162 0.05875 0.0
C224 C 0.45308 0.94758 0.06469 0.0
C225 C 0.48202 0.93876 0.05655 0.0
C226 C 0.50559 0.96057 0.05421 0.0
C227 C 0.50113 0.99152 0.0605 0.0
C228 C 0.47212 0.99996 0.06876 0.0
C229 C 0.44846 0.9784 0.07054 0.0
C230 C 0.61147 0.08667 0.08361 0.0
C231 C 0.63964 0.10227 0.08616 0.0
C232 C 0.65042 0.1111 0.1069 0.0
C233 C 0.63441 0.10277 0.126 0.0
C234 C 0.60703 0.0856 0.12353 0.0
C235 C 0.59527 0.07834 0.10268 0.0
C236 C 0.59526 0.11047 0.04964 0.0
C237 C 0.58007 0.13577 0.05913 0.0
C238 C 0.58196 0.16493 0.04956 0.0
C239 C 0.59882 0.16939 0.03024 0.0
C240 C 0.61249 0.14381 0.02009 0.0
C241 C 0.61072 0.11462 0.02975 0.0
C242 C 0.57435 0.0596 0.05939 0.0
C243 C 0.58117 0.02818 0.06175 0.0
C244 C 0.55768 0.0061 0.06188 0.0
C245 C 0.52658 0.01479 0.05912 0.0
C246 C 0.51994 0.04625 0.0559 0.0
C247 C 0.54332 0.06837 0.05642 0.0
H248 H 0.12641 0.56989 0.91756 0.0
N249 N 0.07873 0.59694 0.93956 0.0
H250 H 0.14188 0.58008 0.87988 0.0
H251 H 0.05202 0.63518 0.91074 0.0
H252 H 0.06761 0.64555 0.87268 0.0
H253 H 0.10447 0.64954 0.95184 0.0
H254 H 0.15385 0.65674 0.97058 0.0
H255 H 0.11222 0.55137 0.96124 0.0
H256 H 0.16055 0.55861 0.98096 0.0
H257 H 0.08597 0.53649 0.92716 0.0
H258 H 0.02377 0.59957 0.9587 0.0
H259 H 0.04818 0.4957 0.93006 0.0
H260 H 0.98504 0.5585 0.96123 0.0
H261 H 0.9454 0.36905 0.92671 0.0
H262 H 0.93127 0.35022 0.88991 0.0
H263 H 0.87169 0.42911 0.88099 0.0
H264 H 0.88883 0.44937 0.91608 0.0
H265 H 0.87836 0.46039 0.95096 0.0
H266 H 0.83033 0.44598 0.96853 0.0
H267 H 0.87516 0.366 0.99658 0.0
H268 H 0.92184 0.37844 0.97628 0.0
H269 H 0.96514 0.44104 0.91248 0.0
H270 H 1.0001 0.48386 0.91246 0.0
H271 H 0.97259 0.50787 0.97818 0.0
N272 N 0.92804 0.42162 0.94565 0.0
H273 H 0.93624 0.46508 0.97818 0.0
C274 C 0.08776 0.60166 0.91699 0.0
C275 C 0.11318 0.58623 0.90792 0.0
C276 C 0.12211 0.59215 0.88638 0.0
C277 C 0.10607 0.61375 0.87344 0.0
C278 C 0.08064 0.62912 0.88242 0.0
C279 C 0.07157 0.62304 0.90402 0.0
C280 C 0.10426 0.60008 0.95495 0.0
C281 C 0.1162 0.62965 0.95866 0.0
C282 C 0.14443 0.63372 0.96951 0.0
C283 C 0.16118 0.60824 0.97741 0.0
C284 C 0.14838 0.57871 0.97489 0.0
C285 C 0.12037 0.57458 0.96367 0.0
C286 C 0.05776 0.57142 0.94266 0.0
C287 C 0.06421 0.54169 0.93476 0.0
C288 C 0.04235 0.51827 0.93632 0.0
C289 C 0.0133 0.5239 0.94556 0.0
C290 C 0.0072 0.55333 0.95409 0.0
C291 C 0.02924 0.57683 0.95261 0.0
C292 C 0.91788 0.41029 0.9244 0.0
C293 C 0.92945 0.38224 0.91666 0.0
C294 C 0.92121 0.37149 0.89573 0.0
C295 C 0.90072 0.38839 0.88231 0.0
C296 C 0.88837 0.41599 0.89046 0.0
C297 C 0.89746 0.42723 0.91096 0.0
C298 C 0.90329 0.41956 0.96136 0.0
C299 C 0.87778 0.43956 0.96065 0.0
C300 C 0.85035 0.43149 0.97109 0.0
C301 C 0.84823 0.40389 0.98315 0.0
C302 C 0.87524 0.38639 0.98635 0.0
C303 C 0.90223 0.39381 0.97517 0.0
C304 C 0.94611 0.44995 0.9449 0.0
C305 C 0.96538 0.4558 0.92679 0.0
C306 C 0.98614 0.48023 0.92689 0.0
C307 C 0.98935 0.4993 0.94535 0.0
C308 C 0.97037 0.49387 0.96354 0.0
C309 C 0.94932 0.4693 0.96344 0.0
H310 H 0.56462 0.38 0.16592 0.0
N311 N 0.59147 0.42606 0.19015 0.0
H312 H 0.57613 0.3664 0.12799 0.0
H313 H 0.63026 0.45431 0.16319 0.0
H314 H 0.64182 0.44082 0.12493 0.0
H315 H 0.64554 0.40758 0.20571 0.0
H316 H 0.65738 0.35923 0.22435 0.0
H317 H 0.54868 0.38593 0.20731 0.0
H318 H 0.56021 0.33816 0.22682 0.0
H319 H 0.53062 0.41914 0.17793 0.0
H320 H 0.59464 0.47979 0.21083 0.0
H321 H 0.48994 0.45729 0.18169 0.0
H322 H 0.55368 0.51817 0.21504 0.0
H323 H 0.37033 0.61208 0.18466 0.0
H324 H 0.35216 0.62717 0.1483 0.0
H325 H 0.42643 0.57558 0.11919 0.0
H326 H 0.4463 0.5631 0.15533 0.0
H327 H 0.45229 0.63512 0.18391 0.0
H328 H 0.44795 0.68498 0.20221 0.0
H329 H 0.39412 0.64303 0.25339 0.0
H330 H 0.39836 0.59307 0.23483 0.0
H331 H 0.41658 0.52318 0.20606 0.0
H332 H 0.45706 0.48385 0.20763 0.0
H333 H 0.52466 0.55277 0.191 0.0
N334 N 0.42226 0.58224 0.19545 0.0
H335 H 0.48429 0.59173 0.18969 0.0
C336 C 0.59656 0.41838 0.1674 0.0
C337 C 0.5813 0.39361 0.15713 0.0
C338 C 0.58795 0.38578 0.13543 0.0
C339 C 0.61009 0.40236 0.12361 0.0
C340 C 0.62506 0.42731 0.1338 0.0
C341 C 0.61831 0.43521 0.15551 0.0
C342 C 0.59635 0.40066 0.20514 0.0
C343 C 0.62675 0.39293 0.21085 0.0
C344 C 0.63344 0.36531 0.22164 0.0
C345 C 0.60971 0.34485 0.22729 0.0
C346 C 0.57903 0.35337 0.22263 0.0
C347 C 0.57238 0.38091 0.21158 0.0
C348 C 0.56591 0.44658 0.19413 0.0
C349 C 0.53591 0.44044 0.18629 0.0
C350 C 0.5125 0.46234 0.18855 0.0
C351 C 0.51851 0.49091 0.1986 0.0
C352 C 0.54832 0.4966 0.20696 0.0
C353 C 0.57169 0.47463 0.20474 0.0
C354 C 0.41045 0.58745 0.17326 0.0
C355 C 0.38297 0.60426 0.17047 0.0
C356 C 0.37239 0.61266 0.14957 0.0
C357 C 0.38833 0.60343 0.1307 0.0
C358 C 0.41442 0.58447 0.13333 0.0
C359 C 0.42567 0.57697 0.15428 0.0
C360 C 0.42565 0.61026 0.20808 0.0
C361 C 0.44044 0.63639 0.19944 0.0
C362 C 0.43778 0.66494 0.20985 0.0
C363 C 0.42022 0.66798 0.229 0.0
C364 C 0.40726 0.64147 0.2384 0.0
C365 C 0.40995 0.6129 0.22799 0.0
C366 C 0.44726 0.56043 0.19801 0.0
C367 C 0.44023 0.52979 0.20308 0.0
C368 C 0.46335 0.50734 0.2038 0.0
C369 C 0.49416 0.51511 0.19942 0.0
C370 C 0.5013 0.54604 0.19481 0.0
C371 C 0.47814 0.56845 0.19406 0.0
H372 H 0.37664 0.94354 0.42425 0.0
N373 N 0.42398 0.92256 0.45034 0.0
H374 H 0.36358 0.92604 0.38728 0.0
H375 H 0.45469 0.88209 0.42597 0.0
H376 H 0.44199 0.86483 0.38847 0.0
H377 H 0.40319 0.87041 0.46703 0.0
H378 H 0.35311 0.86141 0.48366 0.0
H379 H 0.38504 0.96795 0.46571 0.0
H380 H 0.33576 0.95933 0.48359 0.0
H381 H 0.41653 0.98053 0.43281 0.0
H382 H 0.47691 0.92427 0.47264 0.0
H383 H 0.45483 0.02136 0.43261 0.0
H384 H 0.51519 0.96567 0.47325 0.0
H385 H 0.59091 0.14497 0.42206 0.0
H386 H 0.60641 0.15761 0.38444 0.0
H387 H 0.5958 0.06218 0.36621 0.0
H388 H 0.58189 0.04948 0.40366 0.0
H389 H 0.63297 0.05516 0.42907 0.0
H390 H 0.68396 0.06052 0.44574 0.0
H391 H 0.64787 0.12648 0.49185 0.0
H392 H 0.59665 0.12145 0.47469 0.0
H393 H 0.52218 0.09849 0.4465 0.0
H394 H 0.4821 0.0599 0.45274 0.0
H395 H 0.55057 0.98798 0.44811 0.0
N396 N 0.58167 0.08924 0.43896 0.0
H397 H 0.59027 0.02651 0.44257 0.0
C398 C 0.41683 0.91414 0.42789 0.0
C399 C 0.39126 0.92659 0.41657 0.0
C400 C 0.38386 0.91665 0.39536 0.0
C401 C 0.40197 0.89431 0.38494 0.0
C402 C 0.42763 0.88205 0.39617 0.0
C403 C 0.435 0.89197 0.41745 0.0
C404 C 0.39801 0.91969 0.46491 0.0
C405 C 0.38886 0.88999 0.47107 0.0
C406 C 0.36018 0.88491 0.4806 0.0
C407 C 0.33997 0.90957 0.48448 0.0
C408 C 0.35027 0.93969 0.48011 0.0
C409 C 0.37881 0.94471 0.47015 0.0
C410 C 0.44391 0.94904 0.45268 0.0
C411 C 0.43779 0.97711 0.4419 0.0
C412 C 0.45978 1.00066 0.44191 0.0
C413 C 0.48836 0.99683 0.45275 0.0
C414 C 0.49374 0.96927 0.46437 0.0
C415 C 0.47177 0.94569 0.46426 0.0
C416 C 0.5852 0.09638 0.41589 0.0
C417 C 0.59145 0.12691 0.40981 0.0
C418 C 0.60031 0.13409 0.38836 0.0
C419 C 0.60301 0.11076 0.37254 0.0
C420 C 0.5948 0.08051 0.37823 0.0
C421 C 0.58638 0.07328 0.3997 0.0
C422 C 0.61075 0.08786 0.45075 0.0
C423 C 0.6357 0.07021 0.44311 0.0
C424 C 0.66495 0.07324 0.4527 0.0
C425 C 0.66992 0.09381 0.47019 0.0
C426 C 0.64474 0.11053 0.47834 0.0
C427 C 0.61547 0.1075 0.46871 0.0
C428 C 0.55928 0.06568 0.44412 0.0
C429 C 0.52851 0.0744 0.44713 0.0
C430 C 0.50562 0.05225 0.45053 0.0
C431 C 0.51298 0.0207 0.45088 0.0
C432 C 0.54401 0.01203 0.44832 0.0
C433 C 0.56689 0.0342 0.44503 0.0
H434 H 0.0607 0.8748 0.6693 0.0
N435 N 0.08587 0.92244 0.69269 0.0
H436 H 0.07116 0.86172 0.63099 0.0
H437 H 0.12149 0.9529 0.66476 0.0
H438 H 0.13204 0.93995 0.62627 0.0
H439 H 0.14215 0.90272 0.70249 0.0
H440 H 0.15663 0.85421 0.72011 0.0
H441 H 0.04655 0.88433 0.71635 0.0
H442 H 0.06106 0.83685 0.73463 0.0
H443 H 0.02469 0.90817 0.68617 0.0
H444 H 0.08665 0.98021 0.7067 0.0
H445 H 0.98112 0.9423 0.69073 0.0
H446 H 0.04352 0.0159 0.70908 0.0
H447 H 0.85235 0.09034 0.68439 0.0
H448 H 0.83678 0.11182 0.64908 0.0
H449 H 0.92632 0.08852 0.62309 0.0
H450 H 0.9433 0.07292 0.65926 0.0
H451 H 0.94874 0.11891 0.69207 0.0
H452 H 0.94432 0.16985 0.70904 0.0
H453 H 0.8683 0.13729 0.7479 0.0
H454 H 0.87255 0.08653 0.73053 0.0
H455 H 0.91225 0.01743 0.67553 0.0
H456 H 0.95434 0.98095 0.67559 0.0
H457 H 1.00104 0.03442 0.7258 0.0
N458 N 0.90829 0.07133 0.69692 0.0
H459 H 0.96043 0.07222 0.72416 0.0
C460 C 0.09028 0.915 0.66983 0.0
C461 C 0.076 0.88935 0.65998 0.0
C462 C 0.08209 0.88183 0.63812 0.0
C463 C 0.10267 0.89963 0.62577 0.0
C464 C 0.11653 0.92551 0.63555 0.0
C465 C 0.11035 0.93308 0.65739 0.0
C466 C 0.09328 0.8973 0.7075 0.0
C467 C 0.12435 0.88873 0.70984 0.0
C468 C 0.13261 0.86099 0.71995 0.0
C469 C 0.1099 0.84124 0.72824 0.0
C470 C 0.07901 0.85105 0.7277 0.0
C471 C 0.07069 0.87858 0.71724 0.0
C472 C 0.05909 0.94132 0.69678 0.0
C473 C 0.02897 0.93131 0.69192 0.0
C474 C 0.00391 0.95131 0.69409 0.0
C475 C 0.00833 0.98235 0.70015 0.0
C476 C 0.03865 0.99219 0.70492 0.0
C477 C 0.06355 0.97183 0.70345 0.0
C478 C 0.89882 0.07955 0.6747 0.0
C479 C 0.86865 0.09016 0.67104 0.0
C480 C 0.85973 0.10228 0.65067 0.0
C481 C 0.88036 0.1028 0.63296 0.0
C482 C 0.91009 0.09042 0.63635 0.0
C483 C 0.91963 0.08028 0.6571 0.0
C484 C 0.91086 0.09895 0.71007 0.0
C485 C 0.93164 0.12257 0.70463 0.0
C486 C 0.92903 0.15163 0.71429 0.0
C487 C 0.90555 0.15765 0.72945 0.0
C488 C 0.88617 0.13345 0.73592 0.0
C489 C 0.88881 0.10439 0.72626 0.0
C490 C 0.9334 0.049 0.69868 0.0
C491 C 0.93184 0.02171 0.68627 0.0
C492 C 0.95594 1.00038 0.68665 0.0
C493 C 0.98183 0.0046 0.70048 0.0
C494 C 0.98235 0.03073 0.7142 0.0
C495 C 0.95865 0.05263 0.71329 0.0
Mn496 Mn 0.34106 0.67337 0.01217 0.0
Mn497 Mn 0.35067 0.59616 0.01327 0.0
C498 C 0.3464 0.64784 0.0453 0.0
C499 C 0.36071 0.72336 0.01065 0.0
C500 C 0.28893 0.62665 0.00479 0.0
O501 O 0.35362 0.66366 0.98071 0.0
O502 O 0.36075 0.61228 0.98367 0.0
C503 C 0.41846 0.5951 0.00847 0.0
N504 N 0.3929 0.58759 0.02009 0.0
C505 C 0.42359 0.56297 0.0482 0.0
C506 C 0.45023 0.57024 0.03644 0.0
C507 C 0.44765 0.58645 0.01652 0.0
C508 C 0.39513 0.5722 0.03936 0.0
H509 H 0.41658 0.60768 0.9932 0.0
C510 C 0.36082 0.63747 0.97274 0.0
O511 O 0.33249 0.71725 0.00487 0.0
O512 O 0.3779 0.7002 0.0164 0.0
N513 N 0.34185 0.57744 0.04097 0.0
C514 C 0.3139 0.5721 0.05023 0.0
C515 C 0.31242 0.55607 0.07024 0.0
C516 C 0.33964 0.54551 0.08042 0.0
C517 C 0.36808 0.55078 0.07037 0.0
C518 C 0.36808 0.56657 0.05031 0.0
H519 H 0.2929 0.58012 0.04245 0.0
O520 O 0.33349 0.67475 0.04451 0.0
O521 O 0.3559 0.63681 0.02673 0.0
O522 O 0.29847 0.65431 0.00669 0.0
O523 O 0.30648 0.60313 0.00663 0.0
C524 C 0.39643 0.54112 0.07952 0.0
C525 C 0.42417 0.54732 0.06849 0.0
H526 H 0.47279 0.56371 0.04264 0.0
H527 H 0.46812 0.59231 0.00742 0.0
H528 H 0.29037 0.55198 0.07784 0.0
H529 H 0.33844 0.53342 0.09596 0.0
H530 H 0.39717 0.52908 0.09511 0.0
H531 H 0.44585 0.54003 0.07579 0.0
Mn532 Mn 0.34837 0.84598 0.26272 0.0
Mn533 Mn 0.42498 0.85461 0.27025 0.0
C534 C 0.36883 0.85064 0.29782 0.0
C535 C 0.29917 0.86656 0.25732 0.0
C536 C 0.39509 0.7937 0.25784 0.0
O537 O 0.36321 0.85876 0.23229 0.0
O538 O 0.41333 0.86809 0.24004 0.0
C539 C 0.42848 0.92264 0.26854 0.0
N540 N 0.43381 0.89577 0.27946 0.0
C541 C 0.45661 0.9227 0.3101 0.0
C542 C 0.45213 0.9506 0.29891 0.0
C543 C 0.43781 0.95057 0.2781 0.0
C544 C 0.4471 0.89557 0.29965 0.0
H545 H 0.41693 0.92277 0.25276 0.0
C546 C 0.39008 0.86802 0.22684 0.0
O547 O 0.30551 0.83833 0.25203 0.0
O548 O 0.32172 0.88327 0.26478 0.0
N549 N 0.43906 0.84265 0.29893 0.0
C550 C 0.44105 0.81386 0.30775 0.0
C551 C 0.45385 0.80999 0.32886 0.0
C552 C 0.46464 0.83568 0.34063 0.0
C553 C 0.46268 0.86503 0.33112 0.0
C554 C 0.44993 0.86744 0.30995 0.0
H555 H 0.43284 0.79401 0.29878 0.0
O556 O 0.34205 0.83804 0.29481 0.0
O557 O 0.38268 0.85999 0.28025 0.0
O558 O 0.36735 0.80329 0.25864 0.0
O559 O 0.41829 0.81122 0.26131 0.0
C560 C 0.4726 0.892 0.34189 0.0
C561 C 0.46955 0.92082 0.3314 0.0
H562 H 0.45905 0.97221 0.30632 0.0
H563 H 0.43377 0.97204 0.26952 0.0
H564 H 0.4553 0.78726 0.33608 0.0
H565 H 0.47426 0.83263 0.35698 0.0
H566 H 0.48239 0.89087 0.35832 0.0
H567 H 0.47698 0.94143 0.33994 0.0
Mn568 Mn 0.16599 0.84627 0.49739 0.0
Mn569 Mn 0.08865 0.8501 0.492 0.0
C570 C 0.14332 0.8494 0.46293 0.0
C571 C 0.21411 0.87017 0.50073 0.0
C572 C 0.12272 0.79098 0.503 0.0
O573 O 0.15242 0.85877 0.52805 0.0
O574 O 0.10112 0.86225 0.52238 0.0
C575 C 0.08029 0.91742 0.49657 0.0
N576 N 0.07703 0.89126 0.48445 0.0
C577 C 0.0525 0.91914 0.45489 0.0
C578 C 0.0554 0.94634 0.46712 0.0
C579 C 0.06942 0.94548 0.48803 0.0
C580 C 0.06356 0.89183 0.46432 0.0
H581 H 0.0911 0.91688 0.51263 0.0
C582 C 0.12519 0.86451 0.53473 0.0
O583 O 0.21 0.84187 0.50698 0.0
O584 O 0.18993 0.8849 0.49379 0.0
N585 N 0.07389 0.8393 0.46326 0.0
C586 C 0.07309 0.81108 0.45352 0.0
C587 C 0.06029 0.80807 0.43234 0.0
C588 C 0.04834 0.83406 0.42145 0.0
C589 C 0.04907 0.86278 0.43192 0.0
C590 C 0.06187 0.86432 0.45311 0.0
H591 H 0.08235 0.79106 0.46178 0.0
O592 O 0.17079 0.83801 0.46526 0.0
O593 O 0.12995 0.85818 0.48085 0.0
O594 O 0.14974 0.80255 0.50258 0.0
O595 O 0.09837 0.80679 0.49929 0.0
C596 C 0.03788 0.89 0.42208 0.0
C597 C 0.03955 0.91815 0.43357 0.0
H598 H 0.04724 0.96807 0.46053 0.0
H599 H 0.07191 0.96641 0.49751 0.0
H600 H 0.05979 0.78582 0.42437 0.0
H601 H 0.03876 0.8317 0.40503 0.0
H602 H 0.02807 0.88956 0.40564 0.0
H603 H 0.03101 0.93894 0.42579 0.0
Mn604 Mn 0.17517 0.66796 0.74659 0.0
Mn605 Mn 0.16628 0.59105 0.74374 0.0
C606 C 0.17392 0.64363 0.71278 0.0
C607 C 0.15256 0.71685 0.74753 0.0
C608 C 0.22649 0.62186 0.75687 0.0
O609 O 0.15987 0.65667 0.7772 0.0
O610 O 0.15049 0.60617 0.77225 0.0
C611 C 0.09811 0.58996 0.74186 0.0
N612 N 0.12571 0.5826 0.7328 0.0
C613 C 0.10066 0.55994 0.70127 0.0
C614 C 0.07197 0.56706 0.71035 0.0
C615 C 0.07071 0.5822 0.73072 0.0
C616 C 0.12719 0.56827 0.71313 0.0
H617 H 0.09704 0.60185 0.75742 0.0
C618 C 0.14991 0.63068 0.78395 0.0
O619 O 0.18045 0.71231 0.75487 0.0
O620 O 0.13769 0.6928 0.74073 0.0
N621 N 0.18036 0.57341 0.71683 0.0
C622 C 0.20986 0.5685 0.71023 0.0
C623 C 0.21518 0.55323 0.69029 0.0
C624 C 0.19014 0.54307 0.6774 0.0
C625 C 0.15999 0.54806 0.68466 0.0
C626 C 0.15613 0.56296 0.70484 0.0
H627 H 0.2292 0.57619 0.72008 0.0
O628 O 0.18584 0.67085 0.71467 0.0
O629 O 0.16307 0.63188 0.73069 0.0
O630 O 0.21761 0.6496 0.75381 0.0
O631 O 0.20898 0.59837 0.75451 0.0
C632 C 0.13362 0.53918 0.67254 0.0
C633 C 0.10398 0.54528 0.68078 0.0
H634 H 0.05079 0.56124 0.70176 0.0
H635 H 0.04866 0.58797 0.73776 0.0
H636 H 0.23852 0.54942 0.68481 0.0
H637 H 0.19433 0.53163 0.6619 0.0
H638 H 0.13588 0.52795 0.65675 0.0
H639 H 0.08388 0.53869 0.67119 0.0
Mn640 Mn 0.84285 0.16982 0.51188 0.0
Mn641 Mn 0.85686 0.09386 0.51684 0.0
C642 C 0.84313 0.1467 0.54625 0.0
C643 C 0.86183 0.22016 0.51041 0.0
C644 C 0.79553 0.11991 0.50067 0.0
O645 O 0.86116 0.15858 0.48213 0.0
O646 O 0.87397 0.10913 0.48872 0.0
C647 C 0.92456 0.099 0.52211 0.0
N648 N 0.89699 0.0886 0.52957 0.0
C649 C 0.92109 0.06667 0.56176 0.0
C650 C 0.94985 0.07635 0.55409 0.0
C651 C 0.95155 0.0928 0.53425 0.0
C652 C 0.89499 0.07357 0.54895 0.0
H653 H 0.92586 0.11232 0.50719 0.0
C654 C 0.87374 0.13319 0.47653 0.0
O655 O 0.8349 0.21323 0.50229 0.0
O656 O 0.87791 0.19767 0.51855 0.0
N657 N 0.84191 0.07572 0.54335 0.0
C658 C 0.81232 0.06886 0.54881 0.0
C659 C 0.80653 0.05269 0.56832 0.0
C660 C 0.83121 0.04354 0.58195 0.0
C661 C 0.86149 0.05052 0.57587 0.0
C662 C 0.86586 0.06632 0.55608 0.0
H663 H 0.79325 0.07571 0.53839 0.0
O664 O 0.82956 0.173 0.54336 0.0
O665 O 0.85616 0.13521 0.52906 0.0
O666 O 0.80253 0.14825 0.5033 0.0
O667 O 0.81454 0.0979 0.50441 0.0
C668 C 0.88747 0.04269 0.58878 0.0
C669 C 0.91724 0.05093 0.58179 0.0
H670 H 0.9707 0.07174 0.56346 0.0
H671 H 0.97359 0.10088 0.52843 0.0
H672 H 0.7831 0.04736 0.57288 0.0
H673 H 0.82664 0.03135 0.5971 0.0
H674 H 0.8848 0.03072 0.60426 0.0
H675 H 0.937 0.04525 0.59203 0.0
Mn676 Mn 0.84733 0.34288 0.75982 0.0
Mn677 Mn 0.9244 0.34344 0.76771 0.0
C678 C 0.86798 0.3446 0.79495 0.0
C679 C 0.80022 0.36863 0.75577 0.0
C680 C 0.88872 0.28595 0.75525 0.0
O681 O 0.86317 0.35557 0.72971 0.0
O682 O 0.91418 0.35638 0.73709 0.0
C683 C 0.93648 0.41024 0.76351 0.0
N684 N 0.93751 0.38395 0.7757 0.0
C685 C 0.9624 0.41027 0.80581 0.0
C686 C 0.96177 0.43758 0.79352 0.0
C687 C 0.94868 0.43756 0.7723 0.0
C688 C 0.95012 0.38369 0.79612 0.0
H689 H 0.92649 0.41034 0.74719 0.0
C690 C 0.89111 0.36013 0.724 0.0
O691 O 0.80361 0.34041 0.74915 0.0
O692 O 0.82469 0.3823 0.76324 0.0
N693 N 0.93694 0.3318 0.79681 0.0
C694 C 0.9356 0.30359 0.80654 0.0
C695 C 0.94706 0.29986 0.82805 0.0
C696 C 0.95991 0.3251 0.83927 0.0
C697 C 0.96137 0.35382 0.82881 0.0
C698 C 0.94974 0.35611 0.80731 0.0
H699 H 0.92565 0.28414 0.79803 0.0
O700 O 0.84034 0.33414 0.79167 0.0
O701 O 0.88279 0.35316 0.77755 0.0
O702 O 0.86217 0.29861 0.75465 0.0
O703 O 0.91333 0.30071 0.76 0.0
C704 C 0.97368 0.38032 0.83893 0.0
C705 C 0.97427 0.4085 0.82742 0.0
H706 H 0.97096 0.45876 0.80029 0.0
H707 H 0.94796 0.45858 0.76276 0.0
H708 H 0.94585 0.27762 0.83601 0.0
H709 H 0.96849 0.3222 0.85592 0.0
H710 H 0.98263 0.3793 0.8556 0.0
H711 H 0.98368 0.42874 0.8354 0.0
Mn712 Mn 0.6727 0.34457 0.99601 0.0
Mn713 Mn 0.5961 0.35608 0.98949 0.0
C714 C 0.65119 0.34943 0.96123 0.0
C715 C 0.7232 0.36234 0.00015 0.0
C716 C 0.62373 0.29394 0.00042 0.0
O717 O 0.66001 0.35872 0.02647 0.0
O718 O 0.60921 0.36552 0.02023 0.0
C719 C 0.59655 0.42375 0.99528 0.0
N720 N 0.5895 0.39863 0.98284 0.0
C721 C 0.56863 0.43045 0.9539 0.0
C722 C 0.5755 0.45664 0.96647 0.0
C723 C 0.58956 0.45327 0.98723 0.0
C724 C 0.57605 0.40163 0.96281 0.0
H725 H 0.60748 0.42131 0.0112 0.0
C726 C 0.63305 0.36607 0.03288 0.0
O727 O 0.71539 0.33475 0.00607 0.0
O728 O 0.70139 0.38016 0.99284 0.0
N729 N 0.5802 0.34835 0.96053 0.0
C730 C 0.5755 0.32085 0.95033 0.0
C731 C 0.56183 0.32017 0.92932 0.0
C732 C 0.55284 0.34778 0.9191 0.0
C733 C 0.55739 0.37579 0.93007 0.0
C734 C 0.57085 0.37498 0.95109 0.0
H735 H 0.58227 0.29965 0.95813 0.0
O736 O 0.6773 0.33536 0.96401 0.0
O737 O 0.63838 0.36008 0.97886 0.0
O738 O 0.65162 0.30307 0.00136 0.0
O739 O 0.60093 0.3115 0.99577 0.0
C740 C 0.54942 0.40451 0.92088 0.0
C741 C 0.55511 0.43183 0.93276 0.0
H742 H 0.57026 0.47945 0.96028 0.0
H743 H 0.59506 0.47338 0.99698 0.0
H744 H 0.55834 0.29843 0.921 0.0
H745 H 0.54251 0.34719 0.90283 0.0
H746 H 0.53919 0.40587 0.90459 0.0
H747 H 0.54917 0.4538 0.92543 0.0
Mn748 Mn 0.67066 0.17087 0.24686 0.0
Mn749 Mn 0.66394 0.09355 0.24354 0.0
C750 C 0.67032 0.14664 0.21301 0.0
C751 C 0.64905 0.22016 0.248 0.0
C752 C 0.72371 0.12528 0.25594 0.0
O753 O 0.65465 0.15964 0.27723 0.0
O754 O 0.65139 0.10818 0.27302 0.0
C755 C 0.59586 0.09142 0.24567 0.0
N756 N 0.6224 0.08456 0.23499 0.0
C757 C 0.59425 0.06073 0.20528 0.0
C758 C 0.56662 0.06737 0.21603 0.0
C759 C 0.56743 0.08284 0.23629 0.0
C760 C 0.62186 0.06993 0.21539 0.0
H761 H 0.59637 0.10345 0.26119 0.0
C762 C 0.64876 0.13273 0.28447 0.0
O763 O 0.67659 0.21476 0.25561 0.0
O764 O 0.63373 0.1967 0.24052 0.0
N765 N 0.67515 0.07583 0.21598 0.0
C766 C 0.7039 0.07036 0.20807 0.0
C767 C 0.70718 0.0545 0.18813 0.0
C768 C 0.68092 0.04427 0.17661 0.0
C769 C 0.65163 0.04942 0.18537 0.0
C770 C 0.64982 0.06492 0.20548 0.0
H771 H 0.72417 0.0781 0.21689 0.0
O772 O 0.68232 0.17381 0.21518 0.0
O773 O 0.65886 0.13458 0.23066 0.0
O774 O 0.71296 0.15262 0.25488 0.0
O775 O 0.70746 0.10138 0.25179 0.0
C776 C 0.62416 0.03973 0.17496 0.0
C777 C 0.59547 0.04554 0.18485 0.0
H778 H 0.54465 0.06081 0.20885 0.0
H779 H 0.5462 0.08817 0.24465 0.0
H780 H 0.7299 0.05033 0.1816 0.0
H781 H 0.68354 0.03236 0.1611 0.0
H782 H 0.62481 0.02793 0.1593 0.0
H783 H 0.57449 0.0382 0.1766 0.0
C784 C 0.21392 0.86819 0.26916 0.0
C785 C 0.20593 0.8995 0.26658 0.0
C786 C 0.24367 0.8575 0.26474 0.0
C787 C 0.26699 0.87772 0.25807 0.0
H788 H 0.19753 0.85186 0.27566 0.0
H789 H 0.24886 0.83347 0.26781 0.0
S790 S 0.25779 0.96075 0.24574 0.0
N791 N 0.22336 0.94976 0.25398 0.0
N792 N 0.27985 0.92981 0.24713 0.0
C793 C 0.2593 0.90873 0.25452 0.0
C794 C 0.22869 0.91957 0.25843 0.0
C795 C 0.08471 0.71365 0.51479 0.0
C796 C 0.1095 0.69494 0.52148 0.0
C797 C 0.08935 0.74432 0.5084 0.0
C798 C 0.11899 0.75772 0.50861 0.0
H799 H 0.06148 0.70454 0.51458 0.0
H800 H 0.06935 0.75768 0.50352 0.0
S801 S 0.19163 0.71826 0.52528 0.0
N802 N 0.16469 0.69183 0.52822 0.0
N803 N 0.17362 0.74928 0.51616 0.0
C804 C 0.14407 0.739 0.51508 0.0
C805 C 0.13927 0.70772 0.52152 0.0
C806 C 0.29648 0.59268 0.78833 0.0
C807 C 0.32134 0.60626 0.77715 0.0
C808 C 0.26588 0.59742 0.78144 0.0
C809 C 0.25889 0.61648 0.76343 0.0
H810 H 0.30056 0.57884 0.80288 0.0
H811 H 0.2475 0.58676 0.79065 0.0
S812 S 0.31493 0.65485 0.72702 0.0
N813 N 0.33651 0.63726 0.74569 0.0
N814 N 0.27888 0.64738 0.7336 0.0
C815 C 0.28328 0.62976 0.75183 0.0
C816 C 0.3145 0.62438 0.75848 0.0
C817 C 0.41527 0.79089 0.01825 0.0
C818 C 0.39533 0.81538 0.02345 0.0
C819 C 0.40385 0.76147 0.01323 0.0
C820 C 0.37201 0.75543 0.01287 0.0
H821 H 0.44 0.79425 0.01864 0.0
H822 H 0.42015 0.74314 0.0101 0.0
S823 S 0.30981 0.81142 0.02482 0.0
N824 N 0.34194 0.83133 0.02781 0.0
N825 N 0.3206 0.77652 0.01749 0.0
C826 C 0.35173 0.77995 0.01704 0.0
C827 C 0.36334 0.80978 0.02253 0.0
C828 C 0.21671 0.59225 0.97919 0.0
C829 C 0.19314 0.61214 0.98624 0.0
C830 C 0.24745 0.59669 0.98573 0.0
C831 C 0.25599 0.62147 0.99934 0.0
H832 H 0.21157 0.57359 0.96795 0.0
H833 H 0.2648 0.58115 0.97947 0.0
S834 S 0.20298 0.67825 0.02431 0.0
N835 N 0.18028 0.65596 0.00928 0.0
N836 N 0.23825 0.66491 0.02094 0.0
C837 C 0.23266 0.64109 0.00699 0.0
C838 C 0.20124 0.63629 0.0006 0.0
C839 C 0.43745 0.72029 0.2416 0.0
C840 C 0.4135 0.69907 0.23799 0.0
C841 C 0.43131 0.75047 0.24853 0.0
C842 C 0.4009 0.76085 0.25191 0.0
H843 H 0.46114 0.71357 0.23888 0.0
H844 H 0.45066 0.76591 0.25083 0.0
S845 S 0.3299 0.71388 0.24461 0.0
N846 N 0.35824 0.69029 0.23825 0.0
N847 N 0.34653 0.74673 0.25137 0.0
C848 C 0.37674 0.73955 0.24865 0.0
C849 C 0.38308 0.70879 0.24168 0.0
C850 C 0.30089 0.88006 0.50644 0.0
C851 C 0.30745 0.9032 0.49093 0.0
C852 C 0.27053 0.87037 0.51027 0.0
C853 C 0.24543 0.88369 0.49895 0.0
H854 H 0.31947 0.86868 0.51527 0.0
H855 H 0.26679 0.85175 0.52178 0.0
S856 S 0.24977 0.94552 0.45692 0.0
N857 N 0.28594 0.93926 0.46426 0.0
N858 N 0.22906 0.92195 0.47204 0.0
C859 C 0.25149 0.90779 0.48413 0.0
C860 C 0.28241 0.91734 0.47998 0.0
C861 C 0.14464 0.80414 0.74855 0.0
C862 C 0.11831 0.80943 0.73534 0.0
C863 C 0.15495 0.77413 0.75319 0.0
C864 C 0.1393 0.74822 0.74483 0.0
H865 H 0.15776 0.82338 0.755 0.0
H866 H 0.17577 0.77127 0.76295 0.0
S867 S 0.06901 0.74951 0.70937 0.0
N868 N 0.07689 0.7861 0.71391 0.0
N869 N 0.0956 0.72998 0.72303 0.0
C870 C 0.11235 0.7532 0.73217 0.0
C871 C 0.10203 0.7837 0.72733 0.0
C872 C 0.71344 0.37991 0.75156 0.0
C873 C 0.70781 0.40329 0.76707 0.0
C874 C 0.74351 0.36982 0.74712 0.0
C875 C 0.76923 0.38292 0.75781 0.0
H876 H 0.69436 0.36864 0.74325 0.0
H877 H 0.74652 0.35096 0.73571 0.0
S878 S 0.76737 0.44543 0.79941 0.0
N879 N 0.73085 0.43947 0.79295 0.0
N880 N 0.78714 0.42142 0.78401 0.0
C881 C 0.76407 0.40734 0.77256 0.0
C882 C 0.73346 0.4173 0.77732 0.0
C883 C 0.61632 0.22352 0.03644 0.0
C884 C 0.6045 0.20105 0.02198 0.0
C885 C 0.6228 0.25341 0.02914 0.0
C886 C 0.61726 0.26205 0.00722 0.0
H887 H 0.62103 0.21782 0.05349 0.0
H888 H 0.63193 0.27 0.0408 0.0
S889 S 0.58698 0.21199 0.96272 0.0
N890 N 0.58785 0.18951 0.98463 0.0
N891 N 0.59995 0.24584 0.97099 0.0
C892 C 0.60551 0.23994 0.99257 0.0
C893 C 0.59921 0.20935 0.99993 0.0
C894 C 0.79989 0.08562 0.26975 0.0
C895 C 0.81862 0.1098 0.27742 0.0
C896 C 0.76958 0.09097 0.26249 0.0
C897 C 0.75658 0.12075 0.26269 0.0
H898 H 0.80869 0.06229 0.2695 0.0
H899 H 0.75618 0.07142 0.2569 0.0
S900 S 0.79622 0.19198 0.28164 0.0
N901 N 0.82216 0.16455 0.28503 0.0
N902 N 0.76539 0.17486 0.27129 0.0
C903 C 0.77534 0.14524 0.2701 0.0
C904 C 0.80626 0.13972 0.27746 0.0
C905 C 0.90926 0.28852 0.52946 0.0
C906 C 0.89246 0.31406 0.52167 0.0
C907 C 0.89978 0.2584 0.52489 0.0
C908 C 0.87295 0.25239 0.51241 0.0
H909 H 0.92926 0.29173 0.54001 0.0
H910 H 0.91311 0.23969 0.53194 0.0
S911 S 0.82271 0.31114 0.48593 0.0
N912 N 0.84927 0.3314 0.49909 0.0
N913 N 0.83104 0.27465 0.49079 0.0
C914 C 0.85662 0.27768 0.50366 0.0
C915 C 0.86643 0.30849 0.50825 0.0
C916 C 0.71246 0.12994 0.48089 0.0
C917 C 0.70165 0.09957 0.47878 0.0
C918 C 0.7427 0.13616 0.4879 0.0
C919 C 0.76355 0.11228 0.49315 0.0
H920 H 0.69759 0.14914 0.47667 0.0
H921 H 0.74974 0.16002 0.48905 0.0
S922 S 0.74584 0.02853 0.49142 0.0
N923 N 0.71353 0.04532 0.48332 0.0
N924 N 0.77047 0.05672 0.49624 0.0
C925 C 0.75282 0.08169 0.49132 0.0
C926 C 0.72193 0.07543 0.48419 0.0
C927 C 0.92483 0.20722 0.74551 0.0
C928 C 0.90018 0.18957 0.73732 0.0
C929 C 0.92067 0.23801 0.75169 0.0
C930 C 0.89169 0.25261 0.74976 0.0
H931 H 0.94761 0.19717 0.74707 0.0
H932 H 0.94058 0.25051 0.75778 0.0
S933 S 0.81969 0.21622 0.72875 0.0
N934 N 0.84583 0.18871 0.72734 0.0
N935 N 0.8378 0.24647 0.73899 0.0
C936 C 0.86671 0.23496 0.74179 0.0
C937 C 0.871 0.20353 0.73557 0.0
C938 C 0.79467 0.41265 0.99783 0.0
C939 C 0.81749 0.39214 0.99034 0.0
C940 C 0.7644 0.40272 0.00176 0.0
C941 C 0.75593 0.37175 0.99893 0.0
H942 H 0.79999 0.43677 0.00017 0.0
H943 H 0.74737 0.41951 0.00671 0.0
S944 S 0.80619 0.3086 0.97944 0.0
N945 N 0.82866 0.3392 0.97974 0.0
N946 N 0.77252 0.32052 0.98846 0.0
C947 C 0.77862 0.35074 0.99232 0.0
C948 C 0.80919 0.36091 0.98773 0.0
C949 C 0.60281 0.28764 0.22581 0.0
C950 C 0.61727 0.31334 0.23549 0.0
C951 C 0.61228 0.25758 0.23084 0.0
C952 C 0.63682 0.25192 0.2456 0.0
H953 H 0.58496 0.29072 0.21343 0.0
H954 H 0.60115 0.23872 0.22226 0.0
S955 S 0.6794 0.31091 0.27785 0.0
N956 N 0.65497 0.33093 0.26253 0.0
N957 N 0.67335 0.27444 0.27154 0.0
C958 C 0.65044 0.27728 0.25628 0.0
C959 C 0.64056 0.30795 0.25132 0.0
C960 C 0.12192 0.8522 0.4024 0.0
C961 C 0.11771 0.88395 0.39872 0.0
C962 C 0.13015 0.84092 0.4233 0.0
C963 C 0.13342 0.86095 0.44125 0.0
H964 H 0.11962 0.83605 0.38893 0.0
H965 H 0.13375 0.81643 0.42547 0.0
S966 S 0.12693 0.94596 0.44015 0.0
N967 N 0.11842 0.93519 0.41479 0.0
N968 N 0.13416 0.91392 0.45386 0.0
C969 C 0.12968 0.89265 0.43777 0.0
C970 C 0.12158 0.90416 0.41657 0.0
C971 C 0.17396 0.61244 0.65472 0.0
C972 C 0.14242 0.61361 0.64864 0.0
C973 C 0.18432 0.62276 0.67536 0.0
C974 C 0.16339 0.63301 0.69109 0.0
H975 H 0.1909 0.60297 0.6437 0.0
H976 H 0.2087 0.62179 0.67928 0.0
S977 S 0.07969 0.64554 0.68317 0.0
N978 N 0.09126 0.63088 0.65964 0.0
N979 N 0.11068 0.64702 0.69905 0.0
C980 C 0.13217 0.63522 0.6853 0.0
C981 C 0.12167 0.62609 0.66401 0.0
C982 C 0.4074 0.64463 0.92081 0.0
C983 C 0.3922 0.62407 0.90641 0.0
C984 C 0.39624 0.65027 0.94201 0.0
C985 C 0.3697 0.63533 0.94954 0.0
H986 H 0.42866 0.65563 0.91596 0.0
H987 H 0.40916 0.66532 0.95289 0.0
S988 S 0.31916 0.58273 0.91772 0.0
N989 N 0.34713 0.59156 0.90064 0.0
N990 N 0.32715 0.60119 0.94079 0.0
C991 C 0.35366 0.61573 0.93517 0.0
C992 C 0.36465 0.61034 0.91352 0.0
C993 C 0.38038 0.87822 0.16496 0.0
C994 C 0.40584 0.89659 0.15934 0.0
C995 C 0.37505 0.8696 0.18684 0.0
C996 C 0.39512 0.8788 0.20394 0.0
H997 H 0.36481 0.86985 0.15229 0.0
H998 H 0.35546 0.85499 0.19026 0.0
S999 S 0.46343 0.92971 0.1981 0.0
N1000 N 0.44976 0.9259 0.17286 0.0
N1001 N 0.44058 0.90895 0.21372 0.0
C1002 C 0.42029 0.8978 0.19854 0.0
C1003 C 0.42544 0.90686 0.17634 0.0
C1004 C 0.12 0.59421 0.83635 0.0
C1005 C 0.11572 0.61935 0.85046 0.0
C1006 C 0.13055 0.59833 0.81492 0.0
C1007 C 0.13757 0.62782 0.80663 0.0
H1008 H 0.1152 0.57104 0.84196 0.0
H1009 H 0.13359 0.57797 0.80492 0.0
S1010 S 0.12986 0.70141 0.83719 0.0
N1011 N 0.1189 0.67481 0.85486 0.0
N1012 N 0.13878 0.68281 0.81446 0.0
C1013 C 0.13299 0.65331 0.82057 0.0
C1014 C 0.12201 0.64902 0.84246 0.0
C1015 C 0.34631 0.61663 0.10339 0.0
C1016 C 0.37802 0.61421 0.10851 0.0
C1017 C 0.33607 0.62773 0.08292 0.0
C1018 C 0.35713 0.63557 0.06655 0.0
H1019 H 0.32917 0.60971 0.11521 0.0
H1020 H 0.31153 0.62952 0.0797 0.0
S1021 S 0.44212 0.63783 0.07213 0.0
N1022 N 0.4302 0.62438 0.09595 0.0
N1023 N 0.41069 0.64336 0.05714 0.0
C1024 C 0.38872 0.63406 0.07144 0.0
C1025 C 0.39923 0.6236 0.09244 0.0
C1026 C 0.39093 0.85174 0.3582 0.0
C1027 C 0.39377 0.88347 0.36253 0.0
C1028 C 0.38253 0.84106 0.33721 0.0
C1029 C 0.37775 0.86173 0.31979 0.0
H1030 H 0.39484 0.8351 0.3712 0.0
H1031 H 0.38031 0.81652 0.33449 0.0
S1032 S 0.37943 0.94686 0.32286 0.0
N1033 N 0.38934 0.93536 0.34782 0.0
N1034 N 0.3736 0.91515 0.30847 0.0
C1035 C 0.3797 0.89341 0.32398 0.0
C1036 C 0.38786 0.90432 0.34533 0.0
C1037 C 0.08488 0.8858 0.58786 0.0
C1038 C 0.10932 0.89124 0.60265 0.0
C1039 C 0.09035 0.87749 0.56602 0.0
C1040 C 0.12056 0.87399 0.55801 0.0
H1041 H 0.06125 0.88819 0.59318 0.0
H1042 H 0.07055 0.87361 0.55541 0.0
S1043 S 0.19268 0.88505 0.59056 0.0
N1044 N 0.16483 0.89219 0.60811 0.0
N1045 N 0.17536 0.87665 0.56704 0.0
C1046 C 0.14529 0.8794 0.57274 0.0
C1047 C 0.13962 0.88802 0.59502 0.0
C1048 C 0.62991 0.4019 0.91394 0.0
C1049 C 0.62509 0.38129 0.89643 0.0
C1050 C 0.63813 0.39125 0.93492 0.0
C1051 C 0.64175 0.35965 0.93912 0.0
H1052 H 0.62686 0.42642 0.91147 0.0
H1053 H 0.64163 0.40786 0.94799 0.0
S1054 S 0.63454 0.29648 0.89865 0.0
N1055 N 0.62632 0.32791 0.88445 0.0
N1056 N 0.64219 0.30804 0.92399 0.0
C1057 C 0.6382 0.33889 0.92168 0.0
C1058 C 0.62949 0.34966 0.90034 0.0
C1059 C 0.62265 0.12144 0.16411 0.0
C1060 C 0.64482 0.11353 0.14827 0.0
C1061 C 0.63128 0.13166 0.18508 0.0
C1062 C 0.66238 0.13505 0.19099 0.0
H1063 H 0.59827 0.12015 0.16033 0.0
H1064 H 0.61341 0.13727 0.19673 0.0
S1065 S 0.72986 0.11885 0.15626 0.0
N1066 N 0.69988 0.10946 0.14074 0.0
N1067 N 0.71553 0.13162 0.17957 0.0
C1068 C 0.68487 0.12859 0.17535 0.0
C1069 C 0.67625 0.117 0.15418 0.0
C1070 C 0.88767 0.14395 0.41536 0.0
C1071 C 0.90977 0.12114 0.41081 0.0
C1072 C 0.87699 0.14865 0.43682 0.0
C1073 C 0.88785 0.13053 0.45447 0.0
H1074 H 0.87767 0.15747 0.40213 0.0
H1075 H 0.85919 0.16571 0.43941 0.0
S1076 S 0.94913 0.07089 0.45163 0.0
N1077 N 0.94477 0.08286 0.42605 0.0
N1078 N 0.92421 0.09089 0.46613 0.0
C1079 C 0.91104 0.10866 0.45022 0.0
C1080 C 0.9221 0.10417 0.42848 0.0
C1081 C 0.87829 0.38432 0.6643 0.0
C1082 C 0.90838 0.38925 0.65671 0.0
C1083 C 0.87292 0.37494 0.68601 0.0
C1084 C 0.89743 0.37032 0.70106 0.0
H1085 H 0.85876 0.3873 0.65327 0.0
H1086 H 0.84931 0.37121 0.69094 0.0
S1087 S 0.98063 0.38223 0.68933 0.0
N1088 N 0.96288 0.39024 0.66591 0.0
N1089 N 0.9532 0.37267 0.70661 0.0
C1090 C 0.9277 0.37573 0.69361 0.0
C1091 C 0.93306 0.38514 0.67149 0.0
C1092 C 0.60534 0.14262 0.33795 0.0
C1093 C 0.61602 0.11745 0.35053 0.0
C1094 C 0.61673 0.1483 0.31677 0.0
C1095 C 0.63897 0.12884 0.30748 0.0
H1096 H 0.58754 0.15756 0.3443 0.0
H1097 H 0.60735 0.16734 0.30735 0.0
S1098 S 0.67776 0.06281 0.3348 0.0
N1099 N 0.65275 0.07525 0.35302 0.0
N1100 N 0.67339 0.08538 0.31316 0.0
C1101 C 0.65069 0.10444 0.32022 0.0
C1102 C 0.63941 0.09888 0.34175 0.0
C1103 C 0.83982 0.11382 0.60381 0.0
C1104 C 0.8708 0.116 0.61114 0.0
C1105 C 0.83055 0.12479 0.58306 0.0
C1106 C 0.85215 0.13686 0.56848 0.0
H1107 H 0.82259 0.10271 0.61377 0.0
H1108 H 0.80663 0.1226 0.57805 0.0
S1109 S 0.93422 0.15359 0.58031 0.0
N1110 N 0.92162 0.13696 0.60289 0.0
N1111 N 0.90451 0.15428 0.56319 0.0
C1112 C 0.88264 0.14058 0.57569 0.0
C1113 C 0.89193 0.13078 0.59712 0.0
C1114 C 0.88572 0.34618 0.85604 0.0
C1115 C 0.89255 0.37748 0.8598 0.0
C1116 C 0.87768 0.33547 0.83499 0.0
C1117 C 0.87689 0.35558 0.81695 0.0
H1118 H 0.8862 0.32988 0.86951 0.0
H1119 H 0.87246 0.31129 0.83274 0.0
S1120 S 0.88957 0.43987 0.81802 0.0
N1121 N 0.89658 0.42856 0.84348 0.0
N1122 N 0.88025 0.40842 0.80431 0.0
C1123 C 0.88259 0.38695 0.82051 0.0
C1124 C 0.89088 0.39789 0.84181 0.0
C1125 C 0.59268 0.38974 0.08543 0.0
C1126 C 0.61698 0.39374 0.10057 0.0
C1127 C 0.59826 0.38103 0.0637 0.0
C1128 C 0.62842 0.37571 0.05613 0.0
H1129 H 0.56908 0.39354 0.09041 0.0
H1130 H 0.57854 0.37832 0.05282 0.0
S1131 S 0.70017 0.3826 0.08967 0.0
N1132 N 0.6723 0.39144 0.10683 0.0
N1133 N 0.68303 0.37514 0.06592 0.0
C1134 C 0.65302 0.37968 0.0712 0.0
C1135 C 0.64725 0.38872 0.09338 0.0
loop_
_geom_bond_atom_site_label_1
_geom_bond_atom_site_label_2
_geom_bond_distance
_geom_bond_site_symmetry_2
_ccdc_geom_bond_type
H0 C27 0.929 . S
N1 C26 1.433 . S
N1 C32 1.435 . S
N1 C38 1.423 . S
H2 C28 0.930 . S
H3 C31 0.931 . S
H4 C30 0.929 . S
H5 C33 0.930 . S
H6 C34 0.932 . S
H7 C37 0.929 . S
H8 C36 0.931 . S
H9 C39 0.929 . S
H10 C43 0.932 . S
H11 C40 0.931 . S
H12 C42 0.929 . S
H13 C45 0.929 . S
H14 C46 0.930 . S
H15 C48 0.929 . S
H16 C49 0.931 . S
H17 C51 0.930 . S
H18 C52 0.932 . S
H19 C54 0.931 . S
H20 C55 0.929 . S
H21 C57 0.929 . S
H22 C58 0.931 . S
H23 C60 0.929 . S
N24 C44 1.433 . S
N24 C50 1.435 . S
N24 C56 1.423 . S
H25 C61 0.932 . S
C26 N1 1.433 . S
C26 C27 1.363 . S
C26 C31 1.370 . S
C27 H0 0.929 . S
C27 C26 1.363 . S
C27 C28 1.385 . S
C28 H2 0.930 . S
C28 C27 1.385 . S
C28 C29 1.357 . S
C29 C28 1.357 . S
C29 C30 1.406 . S
C30 H4 0.929 . S
C30 C29 1.406 . S
C30 C31 1.391 . S
C31 H3 0.931 . S
C31 C26 1.370 . S
C31 C30 1.391 . S
C32 N1 1.435 . S
C32 C33 1.358 . S
C32 C37 1.371 . S
C33 H5 0.930 . S
C33 C32 1.358 . S
C33 C34 1.405 . S
C34 H6 0.932 . S
C34 C33 1.405 . S
C34 C35 1.383 . S
C35 C34 1.383 . S
C35 C36 1.393 . S
C36 H8 0.931 . S
C36 C35 1.393 . S
C36 C37 1.382 . S
C37 H7 0.929 . S
C37 C32 1.371 . S
C37 C36 1.382 . S
C38 N1 1.423 . S
C38 C39 1.362 . S
C38 C43 1.388 . S
C39 H9 0.929 . S
C39 C38 1.362 . S
C39 C40 1.376 1_565 S
C40 H11 0.931 . S
C40 C39 1.376 1_545 S
C40 C41 1.396 . S
C41 C40 1.396 . S
C41 C42 1.348 1_545 S
C41 C59 1.472 . S
C42 H12 0.929 . S
C42 C41 1.348 1_565 S
C42 C43 1.443 . S
C43 H10 0.932 . S
C43 C38 1.388 . S
C43 C42 1.443 . S
C44 N24 1.433 . S
C44 C45 1.363 . S
C44 C49 1.370 . S
C45 H13 0.929 . S
C45 C44 1.363 . S
C45 C46 1.385 . S
C46 H14 0.930 . S
C46 C45 1.385 . S
C46 C47 1.357 . S
C47 C46 1.357 . S
C47 C48 1.406 . S
C48 H15 0.929 . S
C48 C47 1.406 . S
C48 C49 1.391 . S
C49 H16 0.931 . S
C49 C44 1.370 . S
C49 C48 1.391 . S
C50 N24 1.435 . S
C50 C51 1.358 . S
C50 C55 1.371 . S
C51 H17 0.930 . S
C51 C50 1.358 . S
C51 C52 1.405 . S
C52 H18 0.932 . S
C52 C51 1.405 . S
C52 C53 1.383 . S
C53 C52 1.383 . S
C53 C54 1.393 . S
C54 H19 0.931 . S
C54 C53 1.393 . S
C54 C55 1.382 . S
C55 H20 0.929 . S
C55 C50 1.371 . S
C55 C54 1.382 . S
C56 N24 1.423 . S
C56 C57 1.362 . S
C56 C61 1.388 . S
C57 H21 0.929 . S
C57 C56 1.362 . S
C57 C58 1.376 1_655 S
C58 H22 0.931 . S
C58 C57 1.376 1_455 S
C58 C59 1.396 . S
C59 C41 1.472 . S
C59 C58 1.396 . S
C59 C60 1.348 1_455 S
C60 H23 0.929 . S
C60 C59 1.348 1_655 S
C60 C61 1.443 . S
C61 H25 0.932 . S
C61 C56 1.388 . S
C61 C60 1.443 . S
H62 C89 0.929 . S
N63 C88 1.433 . S
N63 C94 1.435 . S
N63 C100 1.423 . S
H64 C90 0.930 . S
H65 C93 0.931 . S
H66 C92 0.929 . S
H67 C95 0.930 . S
H68 C96 0.932 . S
H69 C99 0.929 . S
H70 C98 0.931 . S
H71 C101 0.929 . S
H72 C105 0.932 . S
H73 C102 0.931 . S
H74 C104 0.929 . S
H75 C107 0.929 . S
H76 C108 0.930 . S
H77 C110 0.929 . S
H78 C111 0.931 . S
H79 C113 0.930 . S
H80 C114 0.932 . S
H81 C116 0.931 . S
H82 C117 0.929 . S
H83 C119 0.929 . S
H84 C120 0.931 . S
H85 C122 0.929 . S
N86 C106 1.433 . S
N86 C112 1.435 . S
N86 C118 1.423 . S
H87 C123 0.932 . S
C88 N63 1.433 . S
C88 C89 1.363 . S
C88 C93 1.370 . S
C89 H62 0.929 . S
C89 C88 1.363 . S
C89 C90 1.385 . S
C90 H64 0.930 . S
C90 C89 1.385 . S
C90 C91 1.357 . S
C91 C90 1.357 . S
C91 C92 1.406 . S
C92 H66 0.929 . S
C92 C91 1.406 . S
C92 C93 1.391 . S
C93 H65 0.931 . S
C93 C88 1.370 . S
C93 C92 1.391 . S
C94 N63 1.435 . S
C94 C95 1.358 . S
C94 C99 1.371 . S
C95 H67 0.930 . S
C95 C94 1.358 . S
C95 C96 1.405 . S
C96 H68 0.932 . S
C96 C95 1.405 . S
C96 C97 1.383 . S
C97 C96 1.383 . S
C97 C98 1.393 . S
C98 H70 0.931 . S
C98 C97 1.393 . S
C98 C99 1.382 . S
C99 H69 0.929 . S
C99 C94 1.371 . S
C99 C98 1.382 . S
C100 N63 1.423 . S
C100 C101 1.362 . S
C100 C105 1.388 . S
C101 H71 0.929 . S
C101 C100 1.362 . S
C101 C102 1.376 1_655 S
C102 H73 0.931 . S
C102 C101 1.376 1_455 S
C102 C103 1.396 . S
C103 C102 1.396 . S
C103 C104 1.348 1_455 S
C103 C121 1.472 . S
C104 H74 0.929 . S
C104 C103 1.348 1_655 S
C104 C105 1.443 . S
C105 H72 0.932 . S
C105 C100 1.388 . S
C105 C104 1.443 . S
C106 N86 1.433 . S
C106 C107 1.363 . S
C106 C111 1.370 . S
C107 H75 0.929 . S
C107 C106 1.363 . S
C107 C108 1.385 . S
C108 H76 0.930 . S
C108 C107 1.385 . S
C108 C109 1.357 . S
C109 C108 1.357 . S
C109 C110 1.406 . S
C110 H77 0.929 . S
C110 C109 1.406 . S
C110 C111 1.391 . S
C111 H78 0.931 . S
C111 C106 1.370 . S
C111 C110 1.391 . S
C112 N86 1.435 . S
C112 C113 1.358 . S
C112 C117 1.371 . S
C113 H79 0.930 . S
C113 C112 1.358 . S
C113 C114 1.405 . S
C114 H80 0.932 . S
C114 C113 1.405 . S
C114 C115 1.383 . S
C115 C114 1.383 . S
C115 C116 1.393 . S
C116 H81 0.931 . S
C116 C115 1.393 . S
C116 C117 1.382 . S
C117 H82 0.929 . S
C117 C112 1.371 . S
C117 C116 1.382 . S
C118 N86 1.423 . S
C118 C119 1.362 . S
C118 C123 1.388 . S
C119 H83 0.929 . S
C119 C118 1.362 . S
C119 C120 1.376 . S
C120 H84 0.931 . S
C120 C119 1.376 . S
C120 C121 1.396 . S
C121 C103 1.472 . S
C121 C120 1.396 . S
C121 C122 1.348 . S
C122 H85 0.929 . S
C122 C121 1.348 . S
C122 C123 1.443 . S
C123 H87 0.932 . S
C123 C118 1.388 . S
C123 C122 1.443 . S
H124 C151 0.929 . S
N125 C150 1.433 . S
N125 C156 1.435 . S
N125 C162 1.423 . S
H126 C152 0.930 . S
H127 C155 0.931 . S
H128 C154 0.929 . S
H129 C157 0.930 . S
H130 C158 0.932 . S
H131 C161 0.929 . S
H132 C160 0.931 . S
H133 C163 0.929 . S
H134 C167 0.932 . S
H135 C164 0.931 . S
H136 C166 0.929 . S
H137 C169 0.929 . S
H138 C170 0.930 . S
H139 C172 0.929 . S
H140 C173 0.931 . S
H141 C175 0.930 . S
H142 C176 0.932 . S
H143 C178 0.931 . S
H144 C179 0.929 . S
H145 C181 0.929 . S
H146 C182 0.931 . S
H147 C184 0.929 . S
N148 C168 1.433 . S
N148 C174 1.435 . S
N148 C180 1.423 . S
H149 C185 0.932 . S
C150 N125 1.433 . S
C150 C151 1.363 . S
C150 C155 1.370 . S
C151 H124 0.929 . S
C151 C150 1.363 . S
C151 C152 1.385 . S
C152 H126 0.930 . S
C152 C151 1.385 . S
C152 C153 1.357 . S
C153 C152 1.357 . S
C153 C154 1.406 . S
C154 H128 0.929 . S
C154 C153 1.406 . S
C154 C155 1.391 . S
C155 H127 0.931 . S
C155 C150 1.370 . S
C155 C154 1.391 . S
C156 N125 1.435 . S
C156 C157 1.358 . S
C156 C161 1.371 . S
C157 H129 0.930 . S
C157 C156 1.358 . S
C157 C158 1.405 . S
C158 H130 0.932 . S
C158 C157 1.405 . S
C158 C159 1.383 . S
C159 C158 1.383 . S
C159 C160 1.393 . S
C160 H132 0.931 . S
C160 C159 1.393 . S
C160 C161 1.382 . S
C161 H131 0.929 . S
C161 C156 1.371 . S
C161 C160 1.382 . S
C162 N125 1.423 . S
C162 C163 1.362 . S
C162 C167 1.388 . S
C163 H133 0.929 . S
C163 C162 1.362 . S
C163 C164 1.376 . S
C164 H135 0.931 . S
C164 C163 1.376 . S
C164 C165 1.396 . S
C165 C164 1.396 . S
C165 C166 1.348 . S
C165 C183 1.472 . S
C166 H136 0.929 . S
C166 C165 1.348 . S
C166 C167 1.443 . S
C167 H134 0.932 . S
C167 C162 1.388 . S
C167 C166 1.443 . S
C168 N148 1.433 . S
C168 C169 1.363 . S
C168 C173 1.370 . S
C169 H137 0.929 . S
C169 C168 1.363 . S
C169 C170 1.385 . S
C170 H138 0.930 . S
C170 C169 1.385 . S
C170 C171 1.357 . S
C171 C170 1.357 . S
C171 C172 1.406 . S
C172 H139 0.929 . S
C172 C171 1.406 . S
C172 C173 1.391 . S
C173 H140 0.931 . S
C173 C168 1.370 . S
C173 C172 1.391 . S
C174 N148 1.435 . S
C174 C175 1.358 . S
C174 C179 1.371 . S
C175 H141 0.930 . S
C175 C174 1.358 . S
C175 C176 1.405 . S
C176 H142 0.932 . S
C176 C175 1.405 . S
C176 C177 1.383 . S
C177 C176 1.383 . S
C177 C178 1.393 . S
C178 H143 0.931 . S
C178 C177 1.393 . S
C178 C179 1.382 . S
C179 H144 0.929 . S
C179 C174 1.371 . S
C179 C178 1.382 . S
C180 N148 1.423 . S
C180 C181 1.362 . S
C180 C185 1.388 . S
C181 H145 0.929 . S
C181 C180 1.362 . S
C181 C182 1.376 . S
C182 H146 0.931 . S
C182 C181 1.376 . S
C182 C183 1.396 . S
C183 C165 1.472 . S
C183 C182 1.396 . S
C183 C184 1.348 . S
C184 H147 0.929 . S
C184 C183 1.348 . S
C184 C185 1.443 . S
C185 H149 0.932 . S
C185 C180 1.388 . S
C185 C184 1.443 . S
H186 C213 0.929 . S
N187 C212 1.433 . S
N187 C218 1.435 . S
N187 C224 1.423 . S
H188 C214 0.930 . S
H189 C217 0.931 . S
H190 C216 0.929 . S
H191 C219 0.930 . S
H192 C220 0.932 . S
H193 C223 0.929 . S
H194 C222 0.931 1_556 S
H195 C225 0.929 . S
H196 C229 0.932 . S
H197 C226 0.931 . S
H198 C228 0.929 . S
H199 C231 0.929 . S
H200 C232 0.930 . S
H201 C234 0.929 . S
H202 C235 0.931 . S
H203 C237 0.930 . S
H204 C238 0.932 . S
H205 C240 0.932 . S
H206 C241 0.929 . S
H207 C243 0.929 . S
H208 C244 0.931 1_565 S
H209 C246 0.929 . S
N210 C230 1.433 . S
N210 C236 1.435 . S
N210 C242 1.423 . S
H211 C247 0.932 . S
C212 N187 1.433 . S
C212 C213 1.363 . S
C212 C217 1.370 . S
C213 H186 0.929 . S
C213 C212 1.363 . S
C213 C214 1.385 . S
C214 H188 0.930 . S
C214 C213 1.385 . S
C214 C215 1.357 . S
C215 C214 1.357 . S
C215 C216 1.406 . S
C216 H190 0.929 . S
C216 C215 1.406 . S
C216 C217 1.391 . S
C217 H189 0.931 . S
C217 C212 1.370 . S
C217 C216 1.391 . S
C218 N187 1.435 . S
C218 C219 1.358 . S
C218 C223 1.371 . S
C219 H191 0.930 . S
C219 C218 1.358 . S
C219 C220 1.405 . S
C220 H192 0.932 . S
C220 C219 1.405 . S
C220 C221 1.383 . S
C221 C220 1.383 . S
C221 C222 1.393 . S
C222 H194 0.931 1_554 S
C222 C221 1.393 . S
C222 C223 1.382 . S
C223 H193 0.929 . S
C223 C218 1.371 . S
C223 C222 1.382 . S
C224 N187 1.423 . S
C224 C225 1.362 . S
C224 C229 1.388 . S
C225 H195 0.929 . S
C225 C224 1.362 . S
C225 C226 1.376 . S
C226 H197 0.931 . S
C226 C225 1.376 . S
C226 C227 1.396 . S
C227 C226 1.396 . S
C227 C228 1.348 . S
C227 C245 1.472 1_565 S
C228 H198 0.929 . S
C228 C227 1.348 . S
C228 C229 1.443 . S
C229 H196 0.932 . S
C229 C224 1.388 . S
C229 C228 1.443 . S
C230 N210 1.433 . S
C230 C231 1.363 . S
C230 C235 1.370 . S
C231 H199 0.929 . S
C231 C230 1.363 . S
C231 C232 1.385 . S
C232 H200 0.930 . S
C232 C231 1.385 . S
C232 C233 1.357 . S
C233 C232 1.357 . S
C233 C234 1.406 . S
C234 H201 0.929 . S
C234 C233 1.406 . S
C234 C235 1.391 . S
C235 H202 0.931 . S
C235 C230 1.370 . S
C235 C234 1.391 . S
C236 N210 1.435 . S
C236 C237 1.358 . S
C236 C241 1.371 . S
C237 H203 0.930 . S
C237 C236 1.358 . S
C237 C238 1.405 . S
C238 H204 0.932 . S
C238 C237 1.405 . S
C238 C239 1.383 . S
C239 C238 1.383 . S
C239 C240 1.393 . S
C240 H205 0.932 . S
C240 C239 1.393 . S
C240 C241 1.382 . S
C241 H206 0.929 . S
C241 C236 1.371 . S
C241 C240 1.382 . S
C242 N210 1.423 . S
C242 C243 1.362 . S
C242 C247 1.388 . S
C243 H207 0.929 . S
C243 C242 1.362 . S
C243 C244 1.376 . S
C244 H208 0.931 1_545 S
C244 C243 1.376 . S
C244 C245 1.396 . S
C245 C227 1.472 1_545 S
C245 C244 1.396 . S
C245 C246 1.348 . S
C246 H209 0.929 . S
C246 C245 1.348 . S
C246 C247 1.443 . S
C247 H211 0.932 . S
C247 C242 1.388 . S
C247 C246 1.443 . S
H248 C275 0.929 . S
N249 C274 1.433 . S
N249 C280 1.435 . S
N249 C286 1.423 . S
H250 C276 0.930 . S
H251 C279 0.931 . S
H252 C278 0.929 . S
H253 C281 0.930 . S
H254 C282 0.932 . S
H255 C285 0.929 . S
H256 C284 0.931 1_554 S
H257 C287 0.929 . S
H258 C291 0.932 . S
H259 C288 0.931 . S
H260 C290 0.929 . S
H261 C293 0.929 . S
H262 C294 0.930 . S
H263 C296 0.929 . S
H264 C297 0.931 . S
H265 C299 0.930 . S
H266 C300 0.932 . S
H267 C302 0.931 1_554 S
H268 C303 0.929 . S
H269 C305 0.929 . S
H270 C306 0.945 . S
H271 C308 0.929 . S
N272 C292 1.433 . S
N272 C298 1.435 . S
N272 C304 1.423 . S
H273 C309 0.932 . S
C274 N249 1.433 . S
C274 C275 1.363 . S
C274 C279 1.370 . S
C275 H248 0.929 . S
C275 C274 1.363 . S
C275 C276 1.385 . S
C276 H250 0.930 . S
C276 C275 1.385 . S
C276 C277 1.357 . S
C277 C276 1.357 . S
C277 C278 1.406 . S
C278 H252 0.929 . S
C278 C277 1.406 . S
C278 C279 1.391 . S
C279 H251 0.931 . S
C279 C274 1.370 . S
C279 C278 1.391 . S
C280 N249 1.435 . S
C280 C281 1.358 . S
C280 C285 1.371 . S
C281 H253 0.930 . S
C281 C280 1.358 . S
C281 C282 1.405 . S
C282 H254 0.932 . S
C282 C281 1.405 . S
C282 C283 1.383 . S
C283 C282 1.383 . S
C283 C284 1.393 . S
C284 H256 0.931 1_556 S
C284 C283 1.393 . S
C284 C285 1.382 . S
C285 H255 0.929 . S
C285 C280 1.371 . S
C285 C284 1.382 . S
C286 N249 1.423 . S
C286 C287 1.362 . S
C286 C291 1.388 . S
C287 H257 0.929 . S
C287 C286 1.362 . S
C287 C288 1.376 . S
C288 H259 0.931 . S
C288 C287 1.376 . S
C288 C289 1.396 . S
C289 C288 1.396 . S
C289 C290 1.348 . S
C289 C307 1.472 . S
C290 H260 0.929 . S
C290 C289 1.348 . S
C290 C291 1.443 . S
C291 H258 0.932 . S
C291 C286 1.388 . S
C291 C290 1.443 . S
C292 N272 1.433 . S
C292 C293 1.363 . S
C292 C297 1.370 . S
C293 H261 0.929 . S
C293 C292 1.363 . S
C293 C294 1.385 . S
C294 H262 0.930 . S
C294 C293 1.385 . S
C294 C295 1.357 . S
C295 C294 1.357 . S
C295 C296 1.406 . S
C296 H263 0.929 . S
C296 C295 1.406 . S
C296 C297 1.391 . S
C297 H264 0.931 . S
C297 C292 1.370 . S
C297 C296 1.391 . S
C298 N272 1.435 . S
C298 C299 1.358 . S
C298 C303 1.371 . S
C299 H265 0.930 . S
C299 C298 1.358 . S
C299 C300 1.405 . S
C300 H266 0.932 . S
C300 C299 1.405 . S
C300 C301 1.383 . S
C301 C300 1.383 . S
C301 C302 1.393 . S
C302 H267 0.931 1_556 S
C302 C301 1.393 . S
C302 C303 1.382 . S
C303 H268 0.929 . S
C303 C298 1.371 . S
C303 C302 1.382 . S
C304 N272 1.423 . S
C304 C305 1.362 . S
C304 C309 1.388 . S
C305 H269 0.929 . S
C305 C304 1.362 . S
C305 C306 1.361 1_655 S
C306 H270 0.945 . S
C306 C305 1.361 1_455 S
C306 C307 1.398 . S
C307 C289 1.472 . S
C307 C306 1.398 . S
C307 C308 1.348 1_455 S
C308 H271 0.929 . S
C308 C307 1.348 1_655 S
C308 C309 1.443 . S
C309 H273 0.932 . S
C309 C304 1.388 . S
C309 C308 1.443 . S
H310 C337 0.929 . S
N311 C336 1.433 . S
N311 C342 1.435 . S
N311 C348 1.423 . S
H312 C338 0.930 . S
H313 C341 0.931 . S
H314 C340 0.929 . S
H315 C343 0.930 . S
H316 C344 0.932 . S
H317 C347 0.929 . S
H318 C346 0.931 . S
H319 C349 0.929 . S
H320 C353 0.932 . S
H321 C350 0.931 . S
H322 C352 0.929 . S
H323 C355 0.929 . S
H324 C356 0.930 . S
H325 C358 0.929 . S
H326 C359 0.931 . S
H327 C361 0.930 . S
H328 C362 0.932 . S
H329 C364 0.931 . S
H330 C365 0.929 . S
H331 C367 0.929 . S
H332 C368 0.931 . S
H333 C370 0.929 . S
N334 C354 1.433 . S
N334 C360 1.435 . S
N334 C366 1.423 . S
H335 C371 0.932 . S
C336 N311 1.433 . S
C336 C337 1.363 . S
C336 C341 1.370 . S
C337 H310 0.929 . S
C337 C336 1.363 . S
C337 C338 1.385 . S
C338 H312 0.930 . S
C338 C337 1.385 . S
C338 C339 1.357 . S
C339 C338 1.357 . S
C339 C340 1.406 . S
C340 H314 0.929 . S
C340 C339 1.406 . S
C340 C341 1.391 . S
C341 H313 0.931 . S
C341 C336 1.370 . S
C341 C340 1.391 . S
C342 N311 1.435 . S
C342 C343 1.358 . S
C342 C347 1.371 . S
C343 H315 0.930 . S
C343 C342 1.358 . S
C343 C344 1.405 . S
C344 H316 0.932 . S
C344 C343 1.405 . S
C344 C345 1.383 . S
C345 C344 1.383 . S
C345 C346 1.393 . S
C346 H318 0.931 . S
C346 C345 1.393 . S
C346 C347 1.382 . S
C347 H317 0.929 . S
C347 C342 1.371 . S
C347 C346 1.382 . S
C348 N311 1.423 . S
C348 C349 1.362 . S
C348 C353 1.388 . S
C349 H319 0.929 . S
C349 C348 1.362 . S
C349 C350 1.376 . S
C350 H321 0.931 . S
C350 C349 1.376 . S
C350 C351 1.396 . S
C351 C350 1.396 . S
C351 C352 1.348 . S
C351 C369 1.472 . S
C352 H322 0.929 . S
C352 C351 1.348 . S
C352 C353 1.443 . S
C353 H320 0.932 . S
C353 C348 1.388 . S
C353 C352 1.443 . S
C354 N334 1.433 . S
C354 C355 1.363 . S
C354 C359 1.370 . S
C355 H323 0.929 . S
C355 C354 1.363 . S
C355 C356 1.385 . S
C356 H324 0.930 . S
C356 C355 1.385 . S
C356 C357 1.357 . S
C357 C356 1.357 . S
C357 C358 1.406 . S
C358 H325 0.929 . S
C358 C357 1.406 . S
C358 C359 1.391 . S
C359 H326 0.931 . S
C359 C354 1.370 . S
C359 C358 1.391 . S
C360 N334 1.435 . S
C360 C361 1.358 . S
C360 C365 1.371 . S
C361 H327 0.930 . S
C361 C360 1.358 . S
C361 C362 1.405 . S
C362 H328 0.932 . S
C362 C361 1.405 . S
C362 C363 1.383 . S
C363 C362 1.383 . S
C363 C364 1.393 . S
C364 H329 0.931 . S
C364 C363 1.393 . S
C364 C365 1.382 . S
C365 H330 0.929 . S
C365 C360 1.371 . S
C365 C364 1.382 . S
C366 N334 1.423 . S
C366 C367 1.362 . S
C366 C371 1.388 . S
C367 H331 0.929 . S
C367 C366 1.362 . S
C367 C368 1.376 . S
C368 H332 0.931 . S
C368 C367 1.376 . S
C368 C369 1.396 . S
C369 C351 1.472 . S
C369 C368 1.396 . S
C369 C370 1.348 . S
C370 H333 0.929 . S
C370 C369 1.348 . S
C370 C371 1.443 . S
C371 H335 0.932 . S
C371 C366 1.388 . S
C371 C370 1.443 . S
H372 C399 0.929 . S
N373 C398 1.433 . S
N373 C404 1.435 . S
N373 C410 1.423 . S
H374 C400 0.930 . S
H375 C403 0.931 . S
H376 C402 0.929 . S
H377 C405 0.930 . S
H378 C406 0.932 . S
H379 C409 0.929 . S
H380 C408 0.931 . S
H381 C411 0.929 . S
H382 C415 0.932 . S
H383 C412 0.931 . S
H384 C414 0.929 . S
H385 C417 0.929 . S
H386 C418 0.930 . S
H387 C420 0.929 . S
H388 C421 0.931 . S
H389 C423 0.930 . S
H390 C424 0.932 . S
H391 C426 0.931 . S
H392 C427 0.929 . S
H393 C429 0.929 . S
H394 C430 0.931 . S
H395 C432 0.929 . S
N396 C416 1.433 . S
N396 C422 1.435 . S
N396 C428 1.423 . S
H397 C433 0.932 . S
C398 N373 1.433 . S
C398 C399 1.363 . S
C398 C403 1.370 . S
C399 H372 0.929 . S
C399 C398 1.363 . S
C399 C400 1.385 . S
C400 H374 0.930 . S
C400 C399 1.385 . S
C400 C401 1.357 . S
C401 C400 1.357 . S
C401 C402 1.406 . S
C402 H376 0.929 . S
C402 C401 1.406 . S
C402 C403 1.391 . S
C403 H375 0.931 . S
C403 C398 1.370 . S
C403 C402 1.391 . S
C404 N373 1.435 . S
C404 C405 1.358 . S
C404 C409 1.371 . S
C405 H377 0.930 . S
C405 C404 1.358 . S
C405 C406 1.405 . S
C406 H378 0.932 . S
C406 C405 1.405 . S
C406 C407 1.383 . S
C407 C406 1.383 . S
C407 C408 1.393 . S
C408 H380 0.931 . S
C408 C407 1.393 . S
C408 C409 1.382 . S
C409 H379 0.929 . S
C409 C404 1.371 . S
C409 C408 1.382 . S
C410 N373 1.423 . S
C410 C411 1.362 . S
C410 C415 1.388 . S
C411 H381 0.929 . S
C411 C410 1.362 . S
C411 C412 1.376 1_565 S
C412 H383 0.931 . S
C412 C411 1.376 1_545 S
C412 C413 1.396 . S
C413 C412 1.396 . S
C413 C414 1.348 1_545 S
C413 C431 1.472 . S
C414 H384 0.929 . S
C414 C413 1.348 1_565 S
C414 C415 1.443 . S
C415 H382 0.932 . S
C415 C410 1.388 . S
C415 C414 1.443 . S
C416 N396 1.433 . S
C416 C417 1.363 . S
C416 C421 1.370 . S
C417 H385 0.929 . S
C417 C416 1.363 . S
C417 C418 1.385 . S
C418 H386 0.930 . S
C418 C417 1.385 . S
C418 C419 1.357 . S
C419 C418 1.357 . S
C419 C420 1.406 . S
C420 H387 0.929 . S
C420 C419 1.406 . S
C420 C421 1.391 . S
C421 H388 0.931 . S
C421 C416 1.370 . S
C421 C420 1.391 . S
C422 N396 1.435 . S
C422 C423 1.358 . S
C422 C427 1.371 . S
C423 H389 0.930 . S
C423 C422 1.358 . S
C423 C424 1.405 . S
C424 H390 0.932 . S
C424 C423 1.405 . S
C424 C425 1.383 . S
C425 C424 1.383 . S
C425 C426 1.393 . S
C426 H391 0.931 . S
C426 C425 1.393 . S
C426 C427 1.382 . S
C427 H392 0.929 . S
C427 C422 1.371 . S
C427 C426 1.382 . S
C428 N396 1.423 . S
C428 C429 1.362 . S
C428 C433 1.388 . S
C429 H393 0.929 . S
C429 C428 1.362 . S
C429 C430 1.376 . S
C430 H394 0.931 . S
C430 C429 1.376 . S
C430 C431 1.396 . S
C431 C413 1.472 . S
C431 C430 1.396 . S
C431 C432 1.348 . S
C432 H395 0.929 . S
C432 C431 1.348 . S
C432 C433 1.443 . S
C433 H397 0.932 . S
C433 C428 1.388 . S
C433 C432 1.443 . S
H434 C461 0.929 . S
N435 C460 1.433 . S
N435 C466 1.435 . S
N435 C472 1.423 . S
H436 C462 0.930 . S
H437 C465 0.931 . S
H438 C464 0.929 . S
H439 C467 0.930 . S
H440 C468 0.932 . S
H441 C471 0.929 . S
H442 C470 0.931 . S
H443 C473 0.929 . S
H444 C477 0.932 . S
H445 C474 0.931 . S
H446 C476 0.929 . S
H447 C479 0.929 . S
H448 C480 0.930 . S
H449 C482 0.929 . S
H450 C483 0.931 . S
H451 C485 0.930 . S
H452 C486 0.932 . S
H453 C488 0.931 . S
H454 C489 0.929 . S
H455 C491 0.929 . S
H456 C492 0.931 1_565 S
H457 C494 0.929 . S
N458 C478 1.433 . S
N458 C484 1.435 . S
N458 C490 1.423 . S
H459 C495 0.932 . S
C460 N435 1.433 . S
C460 C461 1.363 . S
C460 C465 1.370 . S
C461 H434 0.929 . S
C461 C460 1.363 . S
C461 C462 1.385 . S
C462 H436 0.930 . S
C462 C461 1.385 . S
C462 C463 1.357 . S
C463 C462 1.357 . S
C463 C464 1.406 . S
C464 H438 0.929 . S
C464 C463 1.406 . S
C464 C465 1.391 . S
C465 H437 0.931 . S
C465 C460 1.370 . S
C465 C464 1.391 . S
C466 N435 1.435 . S
C466 C467 1.358 . S
C466 C471 1.371 . S
C467 H439 0.930 . S
C467 C466 1.358 . S
C467 C468 1.405 . S
C468 H440 0.932 . S
C468 C467 1.405 . S
C468 C469 1.383 . S
C469 C468 1.383 . S
C469 C470 1.393 . S
C470 H442 0.931 . S
C470 C469 1.393 . S
C470 C471 1.382 . S
C471 H441 0.929 . S
C471 C466 1.371 . S
C471 C470 1.382 . S
C472 N435 1.423 . S
C472 C473 1.362 . S
C472 C477 1.388 . S
C473 H443 0.929 . S
C473 C472 1.362 . S
C473 C474 1.376 1_455 S
C474 H445 0.931 . S
C474 C473 1.376 1_655 S
C474 C475 1.396 . S
C475 C474 1.396 . S
C475 C476 1.348 1_655 S
C475 C493 1.472 1_565 S
C476 H446 0.929 . S
C476 C475 1.348 1_455 S
C476 C477 1.443 . S
C477 H444 0.932 . S
C477 C472 1.388 . S
C477 C476 1.443 . S
C478 N458 1.433 . S
C478 C479 1.363 . S
C478 C483 1.370 . S
C479 H447 0.929 . S
C479 C478 1.363 . S
C479 C480 1.385 . S
C480 H448 0.930 . S
C480 C479 1.385 . S
C480 C481 1.357 . S
C481 C480 1.357 . S
C481 C482 1.406 . S
C482 H449 0.929 . S
C482 C481 1.406 . S
C482 C483 1.391 . S
C483 H450 0.931 . S
C483 C478 1.370 . S
C483 C482 1.391 . S
C484 N458 1.435 . S
C484 C485 1.358 . S
C484 C489 1.371 . S
C485 H451 0.930 . S
C485 C484 1.358 . S
C485 C486 1.405 . S
C486 H452 0.932 . S
C486 C485 1.405 . S
C486 C487 1.383 . S
C487 C486 1.383 . S
C487 C488 1.393 . S
C488 H453 0.931 . S
C488 C487 1.393 . S
C488 C489 1.382 . S
C489 H454 0.929 . S
C489 C484 1.371 . S
C489 C488 1.382 . S
C490 N458 1.423 . S
C490 C491 1.362 . S
C490 C495 1.388 . S
C491 H455 0.929 . S
C491 C490 1.362 . S
C491 C492 1.376 . S
C492 H456 0.931 1_545 S
C492 C491 1.376 . S
C492 C493 1.396 . S
C493 C475 1.472 1_545 S
C493 C492 1.396 . S
C493 C494 1.348 . S
C494 H457 0.929 . S
C494 C493 1.348 . S
C494 C495 1.443 . S
C495 H459 0.932 . S
C495 C490 1.388 . S
C495 C494 1.443 . S
Mn496 O501 2.095 1_554 S
Mn496 O511 2.162 . S
Mn496 O512 2.297 . S
Mn496 O520 2.385 . S
Mn496 O521 2.209 . S
Mn496 O522 2.099 . S
Mn497 O502 2.121 1_554 S
Mn497 N504 2.257 . S
Mn497 N513 2.282 . S
Mn497 O521 2.215 . S
Mn497 O523 2.117 1_554 S
C498 O520 1.234 . S
C498 O521 1.283 . S
C499 O511 1.281 . S
C499 O512 1.236 . S
C500 O522 1.235 1_556 S
C500 O523 1.264 . S
O501 Mn496 2.095 1_556 S
O501 C510 1.250 . S
O502 Mn497 2.121 1_556 S
O502 C510 1.258 . S
C503 N504 1.325 1_556 S
C503 C507 1.459 1_556 S
C503 H509 0.932 . S
N504 Mn497 2.257 . S
N504 C503 1.325 1_554 S
N504 C508 1.362 . S
C505 C506 1.258 . S
C505 C508 1.431 . S
C505 C525 1.449 . S
C506 C505 1.258 . S
C506 C507 1.477 . S
C506 H526 0.931 . S
C507 C503 1.459 1_554 S
C507 C506 1.477 . S
C507 H527 0.912 1_554 S
C508 N504 1.362 . S
C508 C505 1.431 . S
C508 C518 1.476 . S
H509 C503 0.932 . S
C510 O501 1.250 . S
C510 O502 1.258 . S
O511 Mn496 2.162 . S
O511 C499 1.281 . S
O512 Mn496 2.297 . S
O512 C499 1.236 . S
N513 Mn497 2.282 . S
N513 C514 1.328 . S
N513 C518 1.318 . S
C514 N513 1.328 . S
C514 C515 1.457 . S
C514 H519 0.929 . S
C515 C514 1.457 . S
C515 C516 1.291 . S
C515 H528 0.931 . S
C516 C515 1.291 . S
C516 C517 1.373 . S
C516 H529 0.929 . S
C517 C516 1.373 . S
C517 C518 1.396 . S
C517 C524 1.403 . S
C518 C508 1.476 . S
C518 N513 1.318 . S
C518 C517 1.396 . S
H519 C514 0.929 . S
O520 Mn496 2.385 . S
O520 C498 1.234 . S
O521 Mn496 2.209 . S
O521 Mn497 2.215 . S
O521 C498 1.283 . S
O522 Mn496 2.099 . S
O522 C500 1.235 1_554 S
O523 Mn497 2.117 1_556 S
O523 C500 1.264 . S
C524 C517 1.403 . S
C524 C525 1.399 . S
C524 H530 0.929 . S
C525 C505 1.449 . S
C525 C524 1.399 . S
C525 H531 0.930 . S
H526 C506 0.931 . S
H527 C507 0.912 1_556 S
H528 C515 0.931 . S
H529 C516 0.929 . S
H530 C524 0.929 . S
H531 C525 0.930 . S
Mn532 O537 2.095 . S
Mn532 O547 2.162 . S
Mn532 O548 2.297 . S
Mn532 O556 2.385 . S
Mn532 O557 2.209 . S
Mn532 O558 2.094 . S
Mn533 O538 2.121 . S
Mn533 N540 2.257 . S
Mn533 N549 2.282 . S
Mn533 O557 2.215 . S
Mn533 O559 2.117 . S
C534 O556 1.234 . S
C534 O557 1.283 . S
C535 O547 1.281 . S
C535 O548 1.236 . S
C536 O558 1.240 . S
C536 O559 1.264 . S
O537 Mn532 2.095 . S
O537 C546 1.250 . S
O538 Mn533 2.121 . S
O538 C546 1.258 . S
C539 N540 1.326 . S
C539 C543 1.460 . S
C539 H545 0.929 . S
N540 Mn533 2.257 . S
N540 C539 1.326 . S
N540 C544 1.362 . S
C541 C542 1.258 . S
C541 C544 1.431 . S
C541 C561 1.449 . S
C542 C541 1.258 . S
C542 C543 1.477 . S
C542 H562 0.931 . S
C543 C539 1.460 . S
C543 C542 1.477 . S
C543 H563 0.930 . S
C544 N540 1.362 . S
C544 C541 1.431 . S
C544 C554 1.476 . S
H545 C539 0.929 . S
C546 O537 1.250 . S
C546 O538 1.258 . S
O547 Mn532 2.162 . S
O547 C535 1.281 . S
O548 Mn532 2.297 . S
O548 C535 1.236 . S
N549 Mn533 2.282 . S
N549 C550 1.328 . S
N549 C554 1.318 . S
C550 N549 1.328 . S
C550 C551 1.457 . S
C550 H555 0.929 . S
C551 C550 1.457 . S
C551 C552 1.291 . S
C551 H564 0.931 . S
C552 C551 1.291 . S
C552 C553 1.373 . S
C552 H565 0.929 . S
C553 C552 1.373 . S
C553 C554 1.396 . S
C553 C560 1.403 . S
C554 C544 1.476 . S
C554 N549 1.318 . S
C554 C553 1.396 . S
H555 C550 0.929 . S
O556 Mn532 2.385 . S
O556 C534 1.234 . S
O557 Mn532 2.209 . S
O557 Mn533 2.215 . S
O557 C534 1.283 . S
O558 Mn532 2.094 . S
O558 C536 1.240 . S
O559 Mn533 2.117 . S
O559 C536 1.264 . S
C560 C553 1.403 . S
C560 C561 1.399 . S
C560 H566 0.929 . S
C561 C541 1.449 . S
C561 C560 1.399 . S
C561 H567 0.930 . S
H562 C542 0.931 . S
H563 C543 0.930 . S
H564 C551 0.931 . S
H565 C552 0.929 . S
H566 C560 0.929 . S
H567 C561 0.930 . S
Mn568 O573 2.095 . S
Mn568 O583 2.162 . S
Mn568 O584 2.297 . S
Mn568 O592 2.385 . S
Mn568 O593 2.209 . S
Mn568 O594 2.094 . S
Mn569 O574 2.121 . S
Mn569 N576 2.257 . S
Mn569 N585 2.282 . S
Mn569 O593 2.215 . S
Mn569 O595 2.117 . S
C570 O592 1.234 . S
C570 O593 1.283 . S
C571 O583 1.281 . S
C571 O584 1.236 . S
C572 O594 1.240 . S
C572 O595 1.264 . S
O573 Mn568 2.095 . S
O573 C582 1.250 . S
O574 Mn569 2.121 . S
O574 C582 1.258 . S
C575 N576 1.326 . S
C575 C579 1.460 . S
C575 H581 0.929 . S
N576 Mn569 2.257 . S
N576 C575 1.326 . S
N576 C580 1.362 . S
C577 C578 1.258 . S
C577 C580 1.431 . S
C577 C597 1.449 . S
C578 C577 1.258 . S
C578 C579 1.477 . S
C578 H598 0.931 . S
C579 C575 1.460 . S
C579 C578 1.477 . S
C579 H599 0.930 . S
C580 N576 1.362 . S
C580 C577 1.431 . S
C580 C590 1.476 . S
H581 C575 0.929 . S
C582 O573 1.250 . S
C582 O574 1.258 . S
O583 Mn568 2.162 . S
O583 C571 1.281 . S
O584 Mn568 2.297 . S
O584 C571 1.236 . S
N585 Mn569 2.282 . S
N585 C586 1.328 . S
N585 C590 1.318 . S
C586 N585 1.328 . S
C586 C587 1.457 . S
C586 H591 0.929 . S
C587 C586 1.457 . S
C587 C588 1.291 . S
C587 H600 0.931 . S
C588 C587 1.291 . S
C588 C589 1.373 . S
C588 H601 0.929 . S
C589 C588 1.373 . S
C589 C590 1.396 . S
C589 C596 1.403 . S
C590 C580 1.476 . S
C590 N585 1.318 . S
C590 C589 1.396 . S
H591 C586 0.929 . S
O592 Mn568 2.385 . S
O592 C570 1.234 . S
O593 Mn568 2.209 . S
O593 Mn569 2.215 . S
O593 C570 1.283 . S
O594 Mn568 2.094 . S
O594 C572 1.240 . S
O595 Mn569 2.117 . S
O595 C572 1.264 . S
C596 C589 1.403 . S
C596 C597 1.399 . S
C596 H602 0.929 . S
C597 C577 1.449 . S
C597 C596 1.399 . S
C597 H603 0.930 . S
H598 C578 0.931 . S
H599 C579 0.930 . S
H600 C587 0.931 . S
H601 C588 0.929 . S
H602 C596 0.929 . S
H603 C597 0.930 . S
Mn604 O609 2.095 . S
Mn604 O619 2.162 . S
Mn604 O620 2.297 . S
Mn604 O628 2.385 . S
Mn604 O629 2.209 . S
Mn604 O630 2.094 . S
Mn605 O610 2.121 . S
Mn605 N612 2.257 . S
Mn605 N621 2.282 . S
Mn605 O629 2.215 . S
Mn605 O631 2.117 . S
C606 O628 1.234 . S
C606 O629 1.283 . S
C607 O619 1.281 . S
C607 O620 1.236 . S
C608 O630 1.240 . S
C608 O631 1.264 . S
O609 Mn604 2.095 . S
O609 C618 1.250 . S
O610 Mn605 2.121 . S
O610 C618 1.258 . S
C611 N612 1.326 . S
C611 C615 1.460 . S
C611 H617 0.929 . S
N612 Mn605 2.257 . S
N612 C611 1.326 . S
N612 C616 1.362 . S
C613 C614 1.258 . S
C613 C616 1.431 . S
C613 C633 1.449 . S
C614 C613 1.258 . S
C614 C615 1.477 . S
C614 H634 0.931 . S
C615 C611 1.460 . S
C615 C614 1.477 . S
C615 H635 0.930 . S
C616 N612 1.362 . S
C616 C613 1.431 . S
C616 C626 1.476 . S
H617 C611 0.929 . S
C618 O609 1.250 . S
C618 O610 1.258 . S
O619 Mn604 2.162 . S
O619 C607 1.281 . S
O620 Mn604 2.297 . S
O620 C607 1.236 . S
N621 Mn605 2.282 . S
N621 C622 1.328 . S
N621 C626 1.318 . S
C622 N621 1.328 . S
C622 C623 1.457 . S
C622 H627 0.929 . S
C623 C622 1.457 . S
C623 C624 1.291 . S
C623 H636 0.931 . S
C624 C623 1.291 . S
C624 C625 1.373 . S
C624 H637 0.929 . S
C625 C624 1.373 . S
C625 C626 1.396 . S
C625 C632 1.403 . S
C626 C616 1.476 . S
C626 N621 1.318 . S
C626 C625 1.396 . S
H627 C622 0.929 . S
O628 Mn604 2.385 . S
O628 C606 1.234 . S
O629 Mn604 2.209 . S
O629 Mn605 2.215 . S
O629 C606 1.283 . S
O630 Mn604 2.094 . S
O630 C608 1.240 . S
O631 Mn605 2.117 . S
O631 C608 1.264 . S
C632 C625 1.403 . S
C632 C633 1.399 . S
C632 H638 0.929 . S
C633 C613 1.449 . S
C633 C632 1.399 . S
C633 H639 0.930 . S
H634 C614 0.931 . S
H635 C615 0.930 . S
H636 C623 0.931 . S
H637 C624 0.929 . S
H638 C632 0.929 . S
H639 C633 0.930 . S
Mn640 O645 2.095 . S
Mn640 O655 2.162 . S
Mn640 O656 2.297 . S
Mn640 O664 2.385 . S
Mn640 O665 2.209 . S
Mn640 O666 2.094 . S
Mn641 O646 2.121 . S
Mn641 N648 2.257 . S
Mn641 N657 2.282 . S
Mn641 O665 2.215 . S
Mn641 O667 2.117 . S
C642 O664 1.234 . S
C642 O665 1.283 . S
C643 O655 1.281 . S
C643 O656 1.236 . S
C644 O666 1.240 . S
C644 O667 1.264 . S
O645 Mn640 2.095 . S
O645 C654 1.250 . S
O646 Mn641 2.121 . S
O646 C654 1.258 . S
C647 N648 1.326 . S
C647 C651 1.460 . S
C647 H653 0.929 . S
N648 Mn641 2.257 . S
N648 C647 1.326 . S
N648 C652 1.362 . S
C649 C650 1.258 . S
C649 C652 1.431 . S
C649 C669 1.449 . S
C650 C649 1.258 . S
C650 C651 1.477 . S
C650 H670 0.931 . S
C651 C647 1.460 . S
C651 C650 1.477 . S
C651 H671 0.930 . S
C652 N648 1.362 . S
C652 C649 1.431 . S
C652 C662 1.476 . S
H653 C647 0.929 . S
C654 O645 1.250 . S
C654 O646 1.258 . S
O655 Mn640 2.162 . S
O655 C643 1.281 . S
O656 Mn640 2.297 . S
O656 C643 1.236 . S
N657 Mn641 2.282 . S
N657 C658 1.328 . S
N657 C662 1.318 . S
C658 N657 1.328 . S
C658 C659 1.457 . S
C658 H663 0.929 . S
C659 C658 1.457 . S
C659 C660 1.291 . S
C659 H672 0.931 . S
C660 C659 1.291 . S
C660 C661 1.373 . S
C660 H673 0.929 . S
C661 C660 1.373 . S
C661 C662 1.396 . S
C661 C668 1.403 . S
C662 C652 1.476 . S
C662 N657 1.318 . S
C662 C661 1.396 . S
H663 C658 0.929 . S
O664 Mn640 2.385 . S
O664 C642 1.234 . S
O665 Mn640 2.209 . S
O665 Mn641 2.215 . S
O665 C642 1.283 . S
O666 Mn640 2.094 . S
O666 C644 1.240 . S
O667 Mn641 2.117 . S
O667 C644 1.264 . S
C668 C661 1.403 . S
C668 C669 1.399 . S
C668 H674 0.929 . S
C669 C649 1.449 . S
C669 C668 1.399 . S
C669 H675 0.930 . S
H670 C650 0.931 . S
H671 C651 0.930 . S
H672 C659 0.931 . S
H673 C660 0.929 . S
H674 C668 0.929 . S
H675 C669 0.930 . S
Mn676 O681 2.095 . S
Mn676 O691 2.162 . S
Mn676 O692 2.297 . S
Mn676 O700 2.385 . S
Mn676 O701 2.209 . S
Mn676 O702 2.094 . S
Mn677 O682 2.121 . S
Mn677 N684 2.257 . S
Mn677 N693 2.282 . S
Mn677 O701 2.215 . S
Mn677 O703 2.117 . S
C678 O700 1.234 . S
C678 O701 1.283 . S
C679 O691 1.281 . S
C679 O692 1.236 . S
C680 O702 1.240 . S
C680 O703 1.264 . S
O681 Mn676 2.095 . S
O681 C690 1.250 . S
O682 Mn677 2.121 . S
O682 C690 1.258 . S
C683 N684 1.326 . S
C683 C687 1.460 . S
C683 H689 0.929 . S
N684 Mn677 2.257 . S
N684 C683 1.326 . S
N684 C688 1.362 . S
C685 C686 1.258 . S
C685 C688 1.431 . S
C685 C705 1.449 . S
C686 C685 1.258 . S
C686 C687 1.477 . S
C686 H706 0.931 . S
C687 C683 1.460 . S
C687 C686 1.477 . S
C687 H707 0.930 . S
C688 N684 1.362 . S
C688 C685 1.431 . S
C688 C698 1.476 . S
H689 C683 0.929 . S
C690 O681 1.250 . S
C690 O682 1.258 . S
O691 Mn676 2.162 . S
O691 C679 1.281 . S
O692 Mn676 2.297 . S
O692 C679 1.236 . S
N693 Mn677 2.282 . S
N693 C694 1.328 . S
N693 C698 1.318 . S
C694 N693 1.328 . S
C694 C695 1.457 . S
C694 H699 0.929 . S
C695 C694 1.457 . S
C695 C696 1.291 . S
C695 H708 0.931 . S
C696 C695 1.291 . S
C696 C697 1.373 . S
C696 H709 0.929 . S
C697 C696 1.373 . S
C697 C698 1.396 . S
C697 C704 1.403 . S
C698 C688 1.476 . S
C698 N693 1.318 . S
C698 C697 1.396 . S
H699 C694 0.929 . S
O700 Mn676 2.385 . S
O700 C678 1.234 . S
O701 Mn676 2.209 . S
O701 Mn677 2.215 . S
O701 C678 1.283 . S
O702 Mn676 2.094 . S
O702 C680 1.240 . S
O703 Mn677 2.117 . S
O703 C680 1.264 . S
C704 C697 1.403 . S
C704 C705 1.399 . S
C704 H710 0.929 . S
C705 C685 1.449 . S
C705 C704 1.399 . S
C705 H711 0.930 . S
H706 C686 0.931 . S
H707 C687 0.930 . S
H708 C695 0.931 . S
H709 C696 0.929 . S
H710 C704 0.929 . S
H711 C705 0.930 . S
Mn712 O717 2.095 . S
Mn712 O727 2.162 . S
Mn712 O728 2.291 1_554 S
Mn712 O736 2.385 1_554 S
Mn712 O737 2.209 1_554 S
Mn712 O738 2.094 . S
Mn713 O718 2.121 . S
Mn713 N720 2.257 1_554 S
Mn713 N729 2.282 1_554 S
Mn713 O737 2.215 1_554 S
Mn713 O739 2.117 . S
C714 O736 1.234 . S
C714 O737 1.283 . S
C715 O727 1.279 1_556 S
C715 O728 1.235 . S
C716 O738 1.240 . S
C716 O739 1.264 . S
O717 Mn712 2.095 . S
O717 C726 1.250 . S
O718 Mn713 2.121 . S
O718 C726 1.258 . S
C719 N720 1.326 1_554 S
C719 C723 1.460 . S
C719 H725 0.929 . S
N720 Mn713 2.257 1_556 S
N720 C719 1.326 1_556 S
N720 C724 1.362 . S
C721 C722 1.258 . S
C721 C724 1.431 . S
C721 C741 1.449 . S
C722 C721 1.258 . S
C722 C723 1.477 1_556 S
C722 H742 0.931 . S
C723 C719 1.460 . S
C723 C722 1.477 1_554 S
C723 H743 0.930 . S
C724 N720 1.362 . S
C724 C721 1.431 . S
C724 C734 1.476 . S
H725 C719 0.929 . S
C726 O717 1.250 . S
C726 O718 1.258 . S
O727 Mn712 2.162 . S
O727 C715 1.279 1_554 S
O728 Mn712 2.291 1_556 S
O728 C715 1.235 . S
N729 Mn713 2.282 1_556 S
N729 C730 1.328 . S
N729 C734 1.318 . S
C730 N729 1.328 . S
C730 C731 1.457 . S
C730 H735 0.929 . S
C731 C730 1.457 . S
C731 C732 1.291 . S
C731 H744 0.931 . S
C732 C731 1.291 . S
C732 C733 1.373 . S
C732 H745 0.929 . S
C733 C732 1.373 . S
C733 C734 1.396 . S
C733 C740 1.403 . S
C734 C724 1.476 . S
C734 N729 1.318 . S
C734 C733 1.396 . S
H735 C730 0.929 . S
O736 Mn712 2.385 1_556 S
O736 C714 1.234 . S
O737 Mn712 2.209 1_556 S
O737 Mn713 2.215 1_556 S
O737 C714 1.283 . S
O738 Mn712 2.094 . S
O738 C716 1.240 . S
O739 Mn713 2.117 . S
O739 C716 1.264 . S
C740 C733 1.403 . S
C740 C741 1.399 . S
C740 H746 0.929 . S
C741 C721 1.449 . S
C741 C740 1.399 . S
C741 H747 0.930 . S
H742 C722 0.931 . S
H743 C723 0.930 . S
H744 C731 0.931 . S
H745 C732 0.929 . S
H746 C740 0.929 . S
H747 C741 0.930 . S
Mn748 O753 2.095 . S
Mn748 O763 2.162 . S
Mn748 O764 2.297 . S
Mn748 O772 2.385 . S
Mn748 O773 2.209 . S
Mn748 O774 2.094 . S
Mn749 O754 2.121 . S
Mn749 N756 2.257 . S
Mn749 N765 2.282 . S
Mn749 O773 2.215 . S
Mn749 O775 2.117 . S
C750 O772 1.234 . S
C750 O773 1.283 . S
C751 O763 1.281 . S
C751 O764 1.236 . S
C752 O774 1.240 . S
C752 O775 1.264 . S
O753 Mn748 2.095 . S
O753 C762 1.250 . S
O754 Mn749 2.121 . S
O754 C762 1.258 . S
C755 N756 1.326 . S
C755 C759 1.460 . S
C755 H761 0.929 . S
N756 Mn749 2.257 . S
N756 C755 1.326 . S
N756 C760 1.362 . S
C757 C758 1.258 . S
C757 C760 1.431 . S
C757 C777 1.449 . S
C758 C757 1.258 . S
C758 C759 1.477 . S
C758 H778 0.931 . S
C759 C755 1.460 . S
C759 C758 1.477 . S
C759 H779 0.930 . S
C760 N756 1.362 . S
C760 C757 1.431 . S
C760 C770 1.476 . S
H761 C755 0.929 . S
C762 O753 1.250 . S
C762 O754 1.258 . S
O763 Mn748 2.162 . S
O763 C751 1.281 . S
O764 Mn748 2.297 . S
O764 C751 1.236 . S
N765 Mn749 2.282 . S
N765 C766 1.328 . S
N765 C770 1.318 . S
C766 N765 1.328 . S
C766 C767 1.457 . S
C766 H771 0.929 . S
C767 C766 1.457 . S
C767 C768 1.291 . S
C767 H780 0.931 . S
C768 C767 1.291 . S
C768 C769 1.373 . S
C768 H781 0.929 . S
C769 C768 1.373 . S
C769 C770 1.396 . S
C769 C776 1.403 . S
C770 C760 1.476 . S
C770 N765 1.318 . S
C770 C769 1.396 . S
H771 C766 0.929 . S
O772 Mn748 2.385 . S
O772 C750 1.234 . S
O773 Mn748 2.209 . S
O773 Mn749 2.215 . S
O773 C750 1.283 . S
O774 Mn748 2.094 . S
O774 C752 1.240 . S
O775 Mn749 2.117 . S
O775 C752 1.264 . S
C776 C769 1.403 . S
C776 C777 1.399 . S
C776 H782 0.929 . S
C777 C757 1.449 . S
C777 C776 1.399 . S
C777 H783 0.930 . S
H778 C758 0.931 . S
H779 C759 0.930 . S
H780 C767 0.931 . S
H781 C768 0.929 . S
H782 C776 0.929 . S
H783 C777 0.930 . S
C784 C785 1.369 . S
C784 C786 1.419 . S
C784 H788 0.930 . S
C785 C784 1.369 . S
C785 C794 1.429 . S
C786 C784 1.419 . S
C786 C787 1.363 . S
C786 H789 0.929 . S
C787 C786 1.363 . S
C787 C793 1.428 . S
H788 C784 0.930 . S
H789 C786 0.929 . S
S790 N791 1.613 . S
S790 N792 1.610 . S
N791 S790 1.613 . S
N791 C794 1.350 . S
N792 S790 1.610 . S
N792 C793 1.351 . S
C793 C787 1.428 . S
C793 N792 1.351 . S
C793 C794 1.434 . S
C794 C785 1.429 . S
C794 N791 1.350 . S
C794 C793 1.434 . S
C795 C796 1.369 . S
C795 C797 1.419 . S
C795 H799 0.930 . S
C796 C795 1.369 . S
C796 C805 1.429 . S
C797 C795 1.419 . S
C797 C798 1.363 . S
C797 H800 0.929 . S
C798 C797 1.363 . S
C798 C804 1.428 . S
H799 C795 0.930 . S
H800 C797 0.929 . S
S801 N802 1.613 . S
S801 N803 1.610 . S
N802 S801 1.613 . S
N802 C805 1.350 . S
N803 S801 1.610 . S
N803 C804 1.351 . S
C804 C798 1.428 . S
C804 N803 1.351 . S
C804 C805 1.434 . S
C805 C796 1.429 . S
C805 N802 1.350 . S
C805 C804 1.434 . S
C806 C807 1.369 . S
C806 C808 1.419 . S
C806 H810 0.930 . S
C807 C806 1.369 . S
C807 C816 1.429 . S
C808 C806 1.419 . S
C808 C809 1.363 . S
C808 H811 0.929 . S
C809 C808 1.363 . S
C809 C815 1.428 . S
H810 C806 0.930 . S
H811 C808 0.929 . S
S812 N813 1.613 . S
S812 N814 1.610 . S
N813 S812 1.613 . S
N813 C816 1.350 . S
N814 S812 1.610 . S
N814 C815 1.351 . S
C815 C809 1.428 . S
C815 N814 1.351 . S
C815 C816 1.434 . S
C816 C807 1.429 . S
C816 N813 1.350 . S
C816 C815 1.434 . S
C817 C818 1.369 1_556 S
C817 C819 1.419 . S
C817 H821 0.930 . S
C818 C817 1.369 1_554 S
C818 C827 1.429 . S
C819 C817 1.419 . S
C819 C820 1.363 1_556 S
C819 H822 0.929 . S
C820 C819 1.363 1_554 S
C820 C826 1.428 . S
H821 C817 0.930 . S
H822 C819 0.929 . S
S823 N824 1.613 . S
S823 N825 1.610 . S
N824 S823 1.613 . S
N824 C827 1.350 . S
N825 S823 1.610 . S
N825 C826 1.351 . S
C826 C820 1.428 . S
C826 N825 1.351 . S
C826 C827 1.434 . S
C827 C818 1.429 . S
C827 N824 1.350 . S
C827 C826 1.434 . S
C828 C829 1.369 . S
C828 C830 1.419 . S
C828 H832 0.930 . S
C829 C828 1.369 . S
C829 C838 1.429 1_554 S
C830 C828 1.419 . S
C830 C831 1.363 1_554 S
C830 H833 0.929 . S
C831 C830 1.363 1_556 S
C831 C837 1.428 . S
H832 C828 0.930 . S
H833 C830 0.929 . S
S834 N835 1.613 . S
S834 N836 1.610 . S
N835 S834 1.613 . S
N835 C838 1.350 . S
N836 S834 1.610 . S
N836 C837 1.351 . S
C837 C831 1.428 . S
C837 N836 1.351 . S
C837 C838 1.434 . S
C838 C829 1.429 1_556 S
C838 N835 1.350 . S
C838 C837 1.434 . S
C839 C840 1.369 . S
C839 C841 1.419 . S
C839 H843 0.930 . S
C840 C839 1.369 . S
C840 C849 1.429 . S
C841 C839 1.419 . S
C841 C842 1.363 . S
C841 H844 0.929 . S
C842 C841 1.363 . S
C842 C848 1.428 . S
H843 C839 0.930 . S
H844 C841 0.929 . S
S845 N846 1.613 . S
S845 N847 1.610 . S
N846 S845 1.613 . S
N846 C849 1.350 . S
N847 S845 1.610 . S
N847 C848 1.351 . S
C848 C842 1.428 . S
C848 N847 1.351 . S
C848 C849 1.434 . S
C849 C840 1.429 . S
C849 N846 1.350 . S
C849 C848 1.434 . S
C850 C851 1.369 . S
C850 C852 1.419 . S
C850 H854 0.930 . S
C851 C850 1.369 . S
C851 C860 1.429 . S
C852 C850 1.419 . S
C852 C853 1.363 . S
C852 H855 0.929 . S
C853 C852 1.363 . S
C853 C859 1.428 . S
H854 C850 0.930 . S
H855 C852 0.929 . S
S856 N857 1.613 . S
S856 N858 1.610 . S
N857 S856 1.613 . S
N857 C860 1.350 . S
N858 S856 1.610 . S
N858 C859 1.351 . S
C859 C853 1.428 . S
C859 N858 1.351 . S
C859 C860 1.434 . S
C860 C851 1.429 . S
C860 N857 1.350 . S
C860 C859 1.434 . S
C861 C862 1.369 . S
C861 C863 1.419 . S
C861 H865 0.930 . S
C862 C861 1.369 . S
C862 C871 1.429 . S
C863 C861 1.419 . S
C863 C864 1.363 . S
C863 H866 0.929 . S
C864 C863 1.363 . S
C864 C870 1.428 . S
H865 C861 0.930 . S
H866 C863 0.929 . S
S867 N868 1.613 . S
S867 N869 1.610 . S
N868 S867 1.613 . S
N868 C871 1.350 . S
N869 S867 1.610 . S
N869 C870 1.351 . S
C870 C864 1.428 . S
C870 N869 1.351 . S
C870 C871 1.434 . S
C871 C862 1.429 . S
C871 N868 1.350 . S
C871 C870 1.434 . S
C872 C873 1.369 . S
C872 C874 1.419 . S
C872 H876 0.930 . S
C873 C872 1.369 . S
C873 C882 1.429 . S
C874 C872 1.419 . S
C874 C875 1.363 . S
C874 H877 0.929 . S
C875 C874 1.363 . S
C875 C881 1.428 . S
H876 C872 0.930 . S
H877 C874 0.929 . S
S878 N879 1.613 . S
S878 N880 1.610 . S
N879 S878 1.613 . S
N879 C882 1.350 . S
N880 S878 1.610 . S
N880 C881 1.351 . S
C881 C875 1.428 . S
C881 N880 1.351 . S
C881 C882 1.434 . S
C882 C873 1.429 . S
C882 N879 1.350 . S
C882 C881 1.434 . S
C883 C884 1.369 . S
C883 C885 1.419 . S
C883 H887 0.930 . S
C884 C883 1.369 . S
C884 C893 1.429 1_554 S
C885 C883 1.419 . S
C885 C886 1.363 . S
C885 H888 0.929 . S
C886 C885 1.363 . S
C886 C892 1.428 1_554 S
H887 C883 0.930 . S
H888 C885 0.929 . S
S889 N890 1.613 . S
S889 N891 1.610 . S
N890 S889 1.613 . S
N890 C893 1.350 . S
N891 S889 1.610 . S
N891 C892 1.351 . S
C892 C886 1.428 1_556 S
C892 N891 1.351 . S
C892 C893 1.434 . S
C893 C884 1.429 1_556 S
C893 N890 1.350 . S
C893 C892 1.434 . S
C894 C895 1.369 . S
C894 C896 1.419 . S
C894 H898 0.930 . S
C895 C894 1.369 . S
C895 C904 1.429 . S
C896 C894 1.419 . S
C896 C897 1.363 . S
C896 H899 0.929 . S
C897 C896 1.363 . S
C897 C903 1.428 . S
H898 C894 0.930 . S
H899 C896 0.929 . S
S900 N901 1.613 . S
S900 N902 1.610 . S
N901 S900 1.613 . S
N901 C904 1.350 . S
N902 S900 1.610 . S
N902 C903 1.351 . S
C903 C897 1.428 . S
C903 N902 1.351 . S
C903 C904 1.434 . S
C904 C895 1.429 . S
C904 N901 1.350 . S
C904 C903 1.434 . S
C905 C906 1.369 . S
C905 C907 1.419 . S
C905 H909 0.930 . S
C906 C905 1.369 . S
C906 C915 1.429 . S
C907 C905 1.419 . S
C907 C908 1.363 . S
C907 H910 0.929 . S
C908 C907 1.363 . S
C908 C914 1.428 . S
H909 C905 0.930 . S
H910 C907 0.929 . S
S911 N912 1.613 . S
S911 N913 1.610 . S
N912 S911 1.613 . S
N912 C915 1.350 . S
N913 S911 1.610 . S
N913 C914 1.351 . S
C914 C908 1.428 . S
C914 N913 1.351 . S
C914 C915 1.434 . S
C915 C906 1.429 . S
C915 N912 1.350 . S
C915 C914 1.434 . S
C916 C917 1.369 . S
C916 C918 1.419 . S
C916 H920 0.930 . S
C917 C916 1.369 . S
C917 C926 1.429 . S
C918 C916 1.419 . S
C918 C919 1.363 . S
C918 H921 0.929 . S
C919 C918 1.363 . S
C919 C925 1.428 . S
H920 C916 0.930 . S
H921 C918 0.929 . S
S922 N923 1.613 . S
S922 N924 1.610 . S
N923 S922 1.613 . S
N923 C926 1.350 . S
N924 S922 1.610 . S
N924 C925 1.351 . S
C925 C919 1.428 . S
C925 N924 1.351 . S
C925 C926 1.434 . S
C926 C917 1.429 . S
C926 N923 1.350 . S
C926 C925 1.434 . S
C927 C928 1.369 . S
C927 C929 1.419 . S
C927 H931 0.930 . S
C928 C927 1.369 . S
C928 C937 1.429 . S
C929 C927 1.419 . S
C929 C930 1.363 . S
C929 H932 0.929 . S
C930 C929 1.363 . S
C930 C936 1.428 . S
H931 C927 0.930 . S
H932 C929 0.929 . S
S933 N934 1.613 . S
S933 N935 1.610 . S
N934 S933 1.613 . S
N934 C937 1.350 . S
N935 S933 1.610 . S
N935 C936 1.351 . S
C936 C930 1.428 . S
C936 N935 1.351 . S
C936 C937 1.434 . S
C937 C928 1.429 . S
C937 N934 1.350 . S
C937 C936 1.434 . S
C938 C939 1.369 . S
C938 C940 1.419 . S
C938 H942 0.930 . S
C939 C938 1.369 . S
C939 C948 1.429 1_554 S
C940 C938 1.419 . S
C940 C941 1.363 1_554 S
C940 H943 0.929 . S
C941 C940 1.363 1_556 S
C941 C947 1.428 . S
H942 C938 0.930 . S
H943 C940 0.929 . S
S944 N945 1.613 . S
S944 N946 1.610 . S
N945 S944 1.613 . S
N945 C948 1.350 . S
N946 S944 1.610 . S
N946 C947 1.351 . S
C947 C941 1.428 . S
C947 N946 1.351 . S
C947 C948 1.434 . S
C948 C939 1.429 1_556 S
C948 N945 1.350 . S
C948 C947 1.434 . S
C949 C950 1.369 . S
C949 C951 1.419 . S
C949 H953 0.930 . S
C950 C949 1.369 . S
C950 C959 1.429 . S
C951 C949 1.419 . S
C951 C952 1.363 . S
C951 H954 0.929 . S
C952 C951 1.363 . S
C952 C958 1.428 . S
H953 C949 0.930 . S
H954 C951 0.929 . S
S955 N956 1.613 . S
S955 N957 1.610 . S
N956 S955 1.613 . S
N956 C959 1.350 . S
N957 S955 1.610 . S
N957 C958 1.351 . S
C958 C952 1.428 . S
C958 N957 1.351 . S
C958 C959 1.434 . S
C959 C950 1.429 . S
C959 N956 1.350 . S
C959 C958 1.434 . S
C960 C961 1.369 . S
C960 C962 1.419 . S
C960 H964 0.930 . S
C961 C960 1.369 . S
C961 C970 1.429 . S
C962 C960 1.419 . S
C962 C963 1.363 . S
C962 H965 0.929 . S
C963 C962 1.363 . S
C963 C969 1.428 . S
H964 C960 0.930 . S
H965 C962 0.929 . S
S966 N967 1.613 . S
S966 N968 1.610 . S
N967 S966 1.613 . S
N967 C970 1.350 . S
N968 S966 1.610 . S
N968 C969 1.351 . S
C969 C963 1.428 . S
C969 N968 1.351 . S
C969 C970 1.434 . S
C970 C961 1.429 . S
C970 N967 1.350 . S
C970 C969 1.434 . S
C971 C972 1.369 . S
C971 C973 1.419 . S
C971 H975 0.930 . S
C972 C971 1.369 . S
C972 C981 1.429 . S
C973 C971 1.419 . S
C973 C974 1.363 . S
C973 H976 0.929 . S
C974 C973 1.363 . S
C974 C980 1.428 . S
H975 C971 0.930 . S
H976 C973 0.929 . S
S977 N978 1.613 . S
S977 N979 1.610 . S
N978 S977 1.613 . S
N978 C981 1.350 . S
N979 S977 1.610 . S
N979 C980 1.351 . S
C980 C974 1.428 . S
C980 N979 1.351 . S
C980 C981 1.434 . S
C981 C972 1.429 . S
C981 N978 1.350 . S
C981 C980 1.434 . S
C982 C983 1.369 . S
C982 C984 1.419 . S
C982 H986 0.930 . S
C983 C982 1.369 . S
C983 C992 1.429 . S
C984 C982 1.419 . S
C984 C985 1.363 . S
C984 H987 0.929 . S
C985 C984 1.363 . S
C985 C991 1.428 . S
H986 C982 0.930 . S
H987 C984 0.929 . S
S988 N989 1.613 . S
S988 N990 1.610 . S
N989 S988 1.613 . S
N989 C992 1.350 . S
N990 S988 1.610 . S
N990 C991 1.351 . S
C991 C985 1.428 . S
C991 N990 1.351 . S
C991 C992 1.434 . S
C992 C983 1.429 . S
C992 N989 1.350 . S
C992 C991 1.434 . S
C993 C994 1.369 . S
C993 C995 1.419 . S
C993 H997 0.930 . S
C994 C993 1.369 . S
C994 C1003 1.429 . S
C995 C993 1.419 . S
C995 C996 1.363 . S
C995 H998 0.929 . S
C996 C995 1.363 . S
C996 C1002 1.428 . S
H997 C993 0.930 . S
H998 C995 0.929 . S
S999 N1000 1.613 . S
S999 N1001 1.610 . S
N1000 S999 1.613 . S
N1000 C1003 1.350 . S
N1001 S999 1.610 . S
N1001 C1002 1.351 . S
C1002 C996 1.428 . S
C1002 N1001 1.351 . S
C1002 C1003 1.434 . S
C1003 C994 1.429 . S
C1003 N1000 1.350 . S
C1003 C1002 1.434 . S
C1004 C1005 1.369 . S
C1004 C1006 1.419 . S
C1004 H1008 0.930 . S
C1005 C1004 1.369 . S
C1005 C1014 1.429 . S
C1006 C1004 1.419 . S
C1006 C1007 1.363 . S
C1006 H1009 0.929 . S
C1007 C1006 1.363 . S
C1007 C1013 1.428 . S
H1008 C1004 0.930 . S
H1009 C1006 0.929 . S
S1010 N1011 1.613 . S
S1010 N1012 1.610 . S
N1011 S1010 1.613 . S
N1011 C1014 1.350 . S
N1012 S1010 1.610 . S
N1012 C1013 1.351 . S
C1013 C1007 1.428 . S
C1013 N1012 1.351 . S
C1013 C1014 1.434 . S
C1014 C1005 1.429 . S
C1014 N1011 1.350 . S
C1014 C1013 1.434 . S
C1015 C1016 1.369 . S
C1015 C1017 1.419 . S
C1015 H1019 0.930 . S
C1016 C1015 1.369 . S
C1016 C1025 1.429 . S
C1017 C1015 1.419 . S
C1017 C1018 1.363 . S
C1017 H1020 0.929 . S
C1018 C1017 1.363 . S
C1018 C1024 1.428 . S
H1019 C1015 0.930 . S
H1020 C1017 0.929 . S
S1021 N1022 1.613 . S
S1021 N1023 1.610 . S
N1022 S1021 1.613 . S
N1022 C1025 1.350 . S
N1023 S1021 1.610 . S
N1023 C1024 1.351 . S
C1024 C1018 1.428 . S
C1024 N1023 1.351 . S
C1024 C1025 1.434 . S
C1025 C1016 1.429 . S
C1025 N1022 1.350 . S
C1025 C1024 1.434 . S
C1026 C1027 1.369 . S
C1026 C1028 1.419 . S
C1026 H1030 0.930 . S
C1027 C1026 1.369 . S
C1027 C1036 1.429 . S
C1028 C1026 1.419 . S
C1028 C1029 1.363 . S
C1028 H1031 0.929 . S
C1029 C1028 1.363 . S
C1029 C1035 1.428 . S
H1030 C1026 0.930 . S
H1031 C1028 0.929 . S
S1032 N1033 1.613 . S
S1032 N1034 1.610 . S
N1033 S1032 1.613 . S
N1033 C1036 1.350 . S
N1034 S1032 1.610 . S
N1034 C1035 1.351 . S
C1035 C1029 1.428 . S
C1035 N1034 1.351 . S
C1035 C1036 1.434 . S
C1036 C1027 1.429 . S
C1036 N1033 1.350 . S
C1036 C1035 1.434 . S
C1037 C1038 1.369 . S
C1037 C1039 1.419 . S
C1037 H1041 0.930 . S
C1038 C1037 1.369 . S
C1038 C1047 1.429 . S
C1039 C1037 1.419 . S
C1039 C1040 1.363 . S
C1039 H1042 0.929 . S
C1040 C1039 1.363 . S
C1040 C1046 1.428 . S
H1041 C1037 0.930 . S
H1042 C1039 0.929 . S
S1043 N1044 1.613 . S
S1043 N1045 1.610 . S
N1044 S1043 1.613 . S
N1044 C1047 1.350 . S
N1045 S1043 1.610 . S
N1045 C1046 1.351 . S
C1046 C1040 1.428 . S
C1046 N1045 1.351 . S
C1046 C1047 1.434 . S
C1047 C1038 1.429 . S
C1047 N1044 1.350 . S
C1047 C1046 1.434 . S
C1048 C1049 1.369 . S
C1048 C1050 1.419 . S
C1048 H1052 0.930 . S
C1049 C1048 1.369 . S
C1049 C1058 1.429 . S
C1050 C1048 1.419 . S
C1050 C1051 1.363 . S
C1050 H1053 0.929 . S
C1051 C1050 1.363 . S
C1051 C1057 1.428 . S
H1052 C1048 0.930 . S
H1053 C1050 0.929 . S
S1054 N1055 1.613 . S
S1054 N1056 1.610 . S
N1055 S1054 1.613 . S
N1055 C1058 1.350 . S
N1056 S1054 1.610 . S
N1056 C1057 1.351 . S
C1057 C1051 1.428 . S
C1057 N1056 1.351 . S
C1057 C1058 1.434 . S
C1058 C1049 1.429 . S
C1058 N1055 1.350 . S
C1058 C1057 1.434 . S
C1059 C1060 1.369 . S
C1059 C1061 1.419 . S
C1059 H1063 0.930 . S
C1060 C1059 1.369 . S
C1060 C1069 1.429 . S
C1061 C1059 1.419 . S
C1061 C1062 1.363 . S
C1061 H1064 0.929 . S
C1062 C1061 1.363 . S
C1062 C1068 1.428 . S
H1063 C1059 0.930 . S
H1064 C1061 0.929 . S
S1065 N1066 1.613 . S
S1065 N1067 1.610 . S
N1066 S1065 1.613 . S
N1066 C1069 1.350 . S
N1067 S1065 1.610 . S
N1067 C1068 1.351 . S
C1068 C1062 1.428 . S
C1068 N1067 1.351 . S
C1068 C1069 1.434 . S
C1069 C1060 1.429 . S
C1069 N1066 1.350 . S
C1069 C1068 1.434 . S
C1070 C1071 1.369 . S
C1070 C1072 1.419 . S
C1070 H1074 0.930 . S
C1071 C1070 1.369 . S
C1071 C1080 1.429 . S
C1072 C1070 1.419 . S
C1072 C1073 1.363 . S
C1072 H1075 0.929 . S
C1073 C1072 1.363 . S
C1073 C1079 1.428 . S
H1074 C1070 0.930 . S
H1075 C1072 0.929 . S
S1076 N1077 1.613 . S
S1076 N1078 1.610 . S
N1077 S1076 1.613 . S
N1077 C1080 1.350 . S
N1078 S1076 1.610 . S
N1078 C1079 1.351 . S
C1079 C1073 1.428 . S
C1079 N1078 1.351 . S
C1079 C1080 1.434 . S
C1080 C1071 1.429 . S
C1080 N1077 1.350 . S
C1080 C1079 1.434 . S
C1081 C1082 1.369 . S
C1081 C1083 1.419 . S
C1081 H1085 0.930 . S
C1082 C1081 1.369 . S
C1082 C1091 1.429 . S
C1083 C1081 1.419 . S
C1083 C1084 1.363 . S
C1083 H1086 0.929 . S
C1084 C1083 1.363 . S
C1084 C1090 1.428 . S
H1085 C1081 0.930 . S
H1086 C1083 0.929 . S
S1087 N1088 1.613 . S
S1087 N1089 1.610 . S
N1088 S1087 1.613 . S
N1088 C1091 1.350 . S
N1089 S1087 1.610 . S
N1089 C1090 1.351 . S
C1090 C1084 1.428 . S
C1090 N1089 1.351 . S
C1090 C1091 1.434 . S
C1091 C1082 1.429 . S
C1091 N1088 1.350 . S
C1091 C1090 1.434 . S
C1092 C1093 1.369 . S
C1092 C1094 1.419 . S
C1092 H1096 0.930 . S
C1093 C1092 1.369 . S
C1093 C1102 1.429 . S
C1094 C1092 1.419 . S
C1094 C1095 1.363 . S
C1094 H1097 0.929 . S
C1095 C1094 1.363 . S
C1095 C1101 1.428 . S
H1096 C1092 0.930 . S
H1097 C1094 0.929 . S
S1098 N1099 1.613 . S
S1098 N1100 1.610 . S
N1099 S1098 1.613 . S
N1099 C1102 1.350 . S
N1100 S1098 1.610 . S
N1100 C1101 1.351 . S
C1101 C1095 1.428 . S
C1101 N1100 1.351 . S
C1101 C1102 1.434 . S
C1102 C1093 1.429 . S
C1102 N1099 1.350 . S
C1102 C1101 1.434 . S
C1103 C1104 1.369 . S
C1103 C1105 1.419 . S
C1103 H1107 0.930 . S
C1104 C1103 1.369 . S
C1104 C1113 1.429 . S
C1105 C1103 1.419 . S
C1105 C1106 1.363 . S
C1105 H1108 0.929 . S
C1106 C1105 1.363 . S
C1106 C1112 1.428 . S
H1107 C1103 0.930 . S
H1108 C1105 0.929 . S
S1109 N1110 1.613 . S
S1109 N1111 1.610 . S
N1110 S1109 1.613 . S
N1110 C1113 1.350 . S
N1111 S1109 1.610 . S
N1111 C1112 1.351 . S
C1112 C1106 1.428 . S
C1112 N1111 1.351 . S
C1112 C1113 1.434 . S
C1113 C1104 1.429 . S
C1113 N1110 1.350 . S
C1113 C1112 1.434 . S
C1114 C1115 1.369 . S
C1114 C1116 1.419 . S
C1114 H1118 0.930 . S
C1115 C1114 1.369 . S
C1115 C1124 1.429 . S
C1116 C1114 1.419 . S
C1116 C1117 1.363 . S
C1116 H1119 0.929 . S
C1117 C1116 1.363 . S
C1117 C1123 1.428 . S
H1118 C1114 0.930 . S
H1119 C1116 0.929 . S
S1120 N1121 1.613 . S
S1120 N1122 1.610 . S
N1121 S1120 1.613 . S
N1121 C1124 1.350 . S
N1122 S1120 1.610 . S
N1122 C1123 1.351 . S
C1123 C1117 1.428 . S
C1123 N1122 1.351 . S
C1123 C1124 1.434 . S
C1124 C1115 1.429 . S
C1124 N1121 1.350 . S
C1124 C1123 1.434 . S
C1125 C1126 1.369 . S
C1125 C1127 1.419 . S
C1125 H1129 0.930 . S
C1126 C1125 1.369 . S
C1126 C1135 1.429 . S
C1127 C1125 1.419 . S
C1127 C1128 1.363 . S
C1127 H1130 0.929 . S
C1128 C1127 1.363 . S
C1128 C1134 1.428 . S
H1129 C1125 0.930 . S
H1130 C1127 0.929 . S
S1131 N1132 1.613 . S
S1131 N1133 1.610 . S
N1132 S1131 1.613 . S
N1132 C1135 1.350 . S
N1133 S1131 1.610 . S
N1133 C1134 1.351 . S
C1134 C1128 1.428 . S
C1134 N1133 1.351 . S
C1134 C1135 1.434 . S
C1135 C1126 1.429 . S
C1135 N1132 1.350 . S
C1135 C1134 1.434 . S
C787 C535 1.576 . S
C785 C35 1.371 . S
C798 C572 1.562 . S
C796 C115 1.379 . S
C809 C608 1.595 . S
C807 C177 1.405 . S
C818 C221 1.375 . S
C820 C499 1.615 . S
C829 C283 1.376 1_554 S
C831 C500 1.600 . S
C840 C363 1.372 . S
C842 C536 1.564 . S
C853 C571 1.577 . S
C851 C407 1.364 . S
C864 C607 1.614 . S
C862 C469 1.380 . S
C873 C159 1.361 . S
C875 C679 1.578 . S
C886 C716 1.560 . S
C884 C239 1.384 . S
C895 C53 1.389 . S
C897 C752 1.599 . S
C908 C643 1.614 . S
C906 C97 1.382 . S
C917 C425 1.400 . S
C919 C644 1.595 . S
C928 C487 1.368 . S
C930 C680 1.564 . S
C941 C715 1.580 . S
C939 C301 1.372 1_554 S
C950 C345 1.388 . S
C952 C751 1.612 . S
C963 C570 1.882 . S
C961 C29 1.889 . S
C974 C606 1.870 . S
C972 C109 1.820 . S
C983 C171 1.768 . S
C985 C510 1.665 . S
C994 C215 1.835 . S
C996 C546 1.678 . S
C1005 C277 1.822 . S
C1007 C618 1.671 . S
C1018 C498 1.870 . S
C1016 C357 1.821 . S
C1029 C534 1.882 . S
C1027 C401 1.889 . S
C1040 C582 1.686 . S
C1038 C463 1.833 . S
C1051 C714 1.882 . S
C1049 C153 1.885 . S
C1062 C750 1.873 . S
C1060 C233 1.816 . S
C1071 C47 1.768 . S
C1073 C654 1.667 . S
C1084 C690 1.678 . S
C1082 C91 1.834 . S
C1095 C762 1.663 . S
C1093 C419 1.771 . S
C1104 C481 1.820 . S
C1106 C642 1.870 . S
C1117 C678 1.882 . S
C1115 C295 1.837 . S
C1128 C726 1.685 . S
C1126 C339 1.835 . S
