# Generated by pormake.
# Topology pth, (4,4)-cn, num edge types: 1
# Building blocks:
#     Node 0, Type 0, BuildingBlock: UXUYUI_clean_sbu_0, # of connection points: 4
#     Node 1, Type 0, BuildingBlock: UXUYUI_clean_sbu_0, # of connection points: 4
#     Node 2, Type 0, BuildingBlock: UXUYUI_clean_sbu_0, # of connection points: 4
#     Node 3, Type 1, BuildingBlock: MIFKUJ_clean_linker_1, # of connection points: 4
#     Node 4, Type 1, BuildingBlock: MIFKUJ_clean_linker_1, # of connection points: 4
#     Node 5, Type 1, BuildingBlock: MIFKUJ_clean_linker_1, # of connection points: 4
#     Edge 6, Type (0, 1), BuildingBlock: ZUJKAS_clean_linker_0, # of connection points: 2
#     Edge 7, Type (0, 1), BuildingBlock: ZUJKAS_clean_linker_0, # of connection points: 2
#     Edge 8, Type (0, 1), BuildingBlock: ZUJKAS_clean_linker_0, # of connection points: 2
#     Edge 9, Type (0, 1), BuildingBlock: ZUJKAS_clean_linker_0, # of connection points: 2
#     Edge 10, Type (0, 1), BuildingBlock: ZUJKAS_clean_linker_0, # of connection points: 2
#     Edge 11, Type (0, 1), BuildingBlock: ZUJKAS_clean_linker_0, # of connection points: 2
#     Edge 12, Type (0, 1), BuildingBlock: ZUJKAS_clean_linker_0, # of connection points: 2
#     Edge 13, Type (0, 1), BuildingBlock: ZUJKAS_clean_linker_0, # of connection points: 2
#     Edge 14, Type (0, 1), BuildingBlock: ZUJKAS_clean_linker_0, # of connection points: 2
#     Edge 15, Type (0, 1), BuildingBlock: ZUJKAS_clean_linker_0, # of connection points: 2
#     Edge 16, Type (0, 1), BuildingBlock: ZUJKAS_clean_linker_0, # of connection points: 2
#     Edge 17, Type (0, 1), BuildingBlock: ZUJKAS_clean_linker_0, # of connection points: 2
# Relax obj value: 0.075
# Max RMSD: 0.209
# Mean RMSD: 0.121
data_MOF--net-pth--node1-UXUYUI_clean_sbu_0--node2-MIFKUJ_clean_linker_1--edge1-ZUJKAS_clean_linker_0
_symmetry_space_group_name_H-M    P1
_symmetry_Int_Tables_number       1
_symmetry_cell_setting            triclinic
loop_
_symmetry_equiv_pos_as_xyz
'x, y, z'
_cell_length_a     42.435497
_cell_length_b     42.434316
_cell_length_c     91.567217
_cell_angle_alpha  90.023395
_cell_angle_beta   89.98673
_cell_angle_gamma 119.98807
loop_
_atom_site_label
_atom_site_type_symbol
_atom_site_fract_x
_atom_site_fract_y
_atom_site_fract_z
_atom_type_partial_charge
Li0 Li 0.03019 0.02522 0.03265 0.0
Li1 Li 0.98478 0.01951 0.05087 0.0
Li2 Li 0.00444 0.97505 0.05096 0.0
Li3 Li 0.96573 0.97769 0.03133 0.0
C4 C 0.06963 0.0386 0.05849 0.0
N5 N 0.14039 0.06025 0.0664 0.0
C6 C 0.08794 0.06698 0.06846 0.0
C7 C 0.08725 0.02121 0.05255 0.0
C8 C 0.12373 0.07754 0.07232 0.0
C9 C 0.12303 0.03254 0.05668 0.0
C10 C 0.96887 0.0336 0.01801 0.0
C11 C 0.9136 0.02449 0.00667 0.0
N12 N 0.93132 0.03551 0.99367 0.0
C13 C 0.98659 0.04511 0.00456 0.0
C14 C 0.93214 0.02349 0.01911 0.0
C15 C 0.96712 0.0458 0.99238 0.0
C16 C 0.07704 0.04784 0.00823 0.0
N17 N 0.07183 0.05768 0.02174 0.0
C18 C 0.12375 0.11691 0.01898 0.0
C19 C 0.0945 0.09132 0.02725 0.0
C20 C 0.12939 0.10793 0.0048 0.0
C21 C 0.10578 0.07266 -0.00048 0.0
H22 H 0.05806 0.02113 0.00401 0.0
H23 H 0.08941 0.09854 0.03797 0.0
C24 C 0.98575 0.05165 0.07765 0.0
N25 N 0.97393 0.04805 0.06363 0.0
C26 C 0.9812 0.07454 0.08729 0.0
C27 C 0.95198 0.08923 0.06791 0.0
C28 C 0.95709 0.06602 0.05865 0.0
C29 C 0.96456 0.09411 0.0824 0.0
H30 H -0.00054 0.03731 0.08123 0.0
H31 H 0.94831 0.06294 0.04741 0.0
C32 C 0.01373 0.94624 0.02292 0.0
N33 N 0.02138 0.89207 0.0095 0.0
C34 C 0.98331 0.91189 0.02057 0.0
C35 C 0.04802 0.95304 0.01836 0.0
C36 C 0.98774 0.88487 0.01379 0.0
C37 C 0.05133 0.92528 0.01163 0.0
C38 C 0.93187 0.96396 0.06345 0.0
C39 C 0.9388 0.95693 0.07764 0.0
C40 C 0.90308 0.97039 0.06092 0.0
C41 C 0.91707 0.95691 0.08911 0.0
C42 C 0.882 0.97019 0.07268 0.0
N43 N 0.88939 0.96353 0.08642 0.0
C44 C 0.02865 0.95653 0.07666 0.0
C45 C 0.00413 0.90997 0.05878 0.0
C46 C 0.03308 0.93365 0.08638 0.0
N47 N 0.0142 0.94433 0.06317 0.0
C48 C 0.00852 0.88637 0.06805 0.0
C49 C 0.02272 0.898 0.08211 0.0
H50 H 0.03565 0.98365 0.08007 0.0
H51 H 0.99157 0.90034 0.04828 0.0
C52 C 0.93865 0.94905 0.00347 0.0
N53 N 0.92885 0.94854 0.01764 0.0
C54 C 0.91314 0.92586 0.99328 0.0
C55 C 0.86773 0.90267 0.01239 0.0
C56 C 0.89419 0.92618 0.02224 0.0
C57 C 0.87722 0.90197 0.99774 0.0
H58 H 0.96657 0.96688 0.00018 0.0
H59 H 0.88733 0.9259 0.03362 0.0
O60 O 0.03469 0.02824 0.05453 0.0
O61 O 0.98731 0.03206 0.03 0.0
O62 O 0.00992 0.97338 0.02927 0.0
O63 O 0.95343 0.965 0.05212 0.0
H64 H 0.07463 0.08074 0.07314 0.0
H65 H 0.0734 -0.0009 0.04489 0.0
H66 H 0.13827 0.0995 0.08002 0.0
H67 H 0.13699 0.01928 0.05218 0.0
H68 H 0.88509 0.01642 0.00735 0.0
H69 H 0.01502 0.05332 0.00351 0.0
H70 H 0.91794 0.01447 0.0294 0.0
H71 H 0.98048 0.05449 0.98189 0.0
H72 H 0.1415 0.14355 0.02358 0.0
H73 H 0.10862 0.06469 0.98858 0.0
H74 H 0.99181 0.07787 0.09828 0.0
H75 H 0.93869 0.1035 0.06374 0.0
H76 H 0.95662 0.9059 0.02418 0.0
H77 H 0.07188 0.97948 0.01997 0.0
H78 H 0.96445 0.85814 0.01197 0.0
H79 H 0.07772 0.93018 0.00807 0.0
H80 H 0.96082 0.95177 0.07981 0.0
H81 H 0.8973 0.97591 0.05003 0.0
H82 H 0.92227 0.9517 0.10016 0.0
H83 H 0.85982 0.97541 0.07089 0.0
H84 H 0.04409 0.94358 0.09716 0.0
H85 H -0.00049 0.85883 0.06445 0.0
H86 H 0.9215 0.92635 0.98207 0.0
H87 H 0.84048 0.88431 0.01632 0.0
Li88 Li 0.99188 0.96702 0.36598 0.0
Li89 Li 0.03267 0.00899 0.38455 0.0
Li90 Li 0.96679 0.99119 0.38339 0.0
Li91 Li 0.00922 0.0332 0.36539 0.0
C92 C 0.98035 0.92534 0.38982 0.0
N93 N 0.96384 0.85416 0.39383 0.0
C94 C 0.00662 0.9178 0.3953 0.0
C95 C 0.94552 0.89669 0.3866 0.0
C96 C -0.00221 0.88163 0.3972 0.0
C97 C 0.93776 0.86089 0.38864 0.0
C98 C 0.07557 0.02703 0.3581 0.0
C99 C 0.1326 0.08082 0.35232 0.0
N100 N 0.14612 0.05949 0.34766 0.0
C101 C 0.08987 0.00567 0.35302 0.0
C102 C 0.09697 0.06494 0.35756 0.0
C103 C 0.12565 0.02257 0.34788 0.0
C104 C 0.96025 0.91511 0.34306 0.0
N105 N 0.9845 0.92693 0.35426 0.0
C106 C 0.00362 0.88445 0.34799 0.0
C107 C 0.00588 0.91214 0.35689 0.0
C108 C 0.97943 0.8721 0.33612 0.0
C109 C 0.95717 0.88747 0.33381 0.0
H110 H 0.94397 0.92776 0.34107 0.0
H111 H 0.02535 0.92245 0.36573 0.0
C112 C 0.07278 0.03165 0.4108 0.0
N113 N 0.07182 0.01817 0.39723 0.0
C114 C 0.09959 0.03603 0.42076 0.0
C115 C 0.12381 0.01246 0.40262 0.0
C116 C 0.09657 0.00856 0.39302 0.0
C117 C 0.1254 0.02609 0.41675 0.0
H118 H 0.05231 0.03842 0.41396 0.0
H119 H 0.09437 0.99655 0.38242 0.0
C120 C 0.92587 0.98063 0.35987 0.0
N121 N 0.85445 0.96405 0.35666 0.0
C122 C 0.91789 0.00797 0.35641 0.0
C123 C 0.89756 0.94478 0.36146 0.0
C124 C 0.8816 -0.00094 0.35489 0.0
C125 C 0.86162 0.93697 0.35987 0.0
C126 C 0.02918 0.07528 0.39166 0.0
C127 C 0.01114 0.09158 0.39823 0.0
C128 C 0.06704 0.09496 0.39034 0.0
C129 C 0.03122 0.1276 0.40302 0.0
C130 C 0.08617 0.13088 0.39529 0.0
N131 N 0.06801 0.14636 0.40145 0.0
C132 C 0.90964 0.955 0.40429 0.0
C133 C 0.91552 0.00851 0.39355 0.0
C134 C 0.88155 0.95177 0.4133 0.0
N135 N 0.92606 0.98321 0.39475 0.0
C136 C 0.88767 0.00636 0.4023 0.0
C137 C 0.87063 0.97802 0.4125 0.0
H138 H 0.91895 0.93558 0.40518 0.0
H139 H 0.9293 0.03081 0.38596 0.0
C140 C 0.03121 0.0742 0.33932 0.0
N141 N 0.01864 0.07302 0.35308 0.0
C142 C 0.03576 0.1017 0.32969 0.0
C143 C 0.01431 0.12616 0.3486 0.0
C144 C 0.01013 0.09819 0.35783 0.0
C145 C 0.02702 0.12802 0.33428 0.0
H146 H 0.03716 0.05341 0.33576 0.0
H147 H -0.00115 0.09585 0.3686 0.0
O148 O 0.98862 0.9606 0.38774 0.0
O149 O 0.04041 0.01083 0.36304 0.0
O150 O 0.96122 0.98892 0.3616 0.0
O151 O 0.00984 0.03997 0.38693 0.0
H152 H 0.03359 0.9396 0.39798 0.0
H153 H 0.92475 0.90203 0.38255 0.0
H154 H 0.01793 0.8754 0.40134 0.0
H155 H 0.91098 0.83845 0.3861 0.0
H156 H 0.14944 0.11013 0.35189 0.0
H157 H 0.07366 0.97634 0.35312 0.0
H158 H 0.08613 0.08202 0.36093 0.0
H159 H 0.13711 0.00633 0.34404 0.0
H160 H 0.02094 0.87308 0.35033 0.0
H161 H 0.93847 0.87911 0.32468 0.0
H162 H 0.09992 0.04681 0.43152 0.0
H163 H 0.14259 0.00363 0.39918 0.0
H164 H 0.93944 0.03581 0.35503 0.0
H165 H 0.90326 0.92321 0.36389 0.0
H166 H 0.87503 0.02 0.35232 0.0
H167 H 0.83944 0.90936 0.36115 0.0
H168 H 0.98193 0.07668 0.39957 0.0
H169 H 0.08163 0.08249 0.38579 0.0
H170 H 0.01755 0.14061 0.40802 0.0
H171 H 0.11548 0.1464 0.3943 0.0
H172 H 0.86939 0.92972 0.42112 0.0
H173 H 0.87977 0.02688 0.40118 0.0
H174 H 0.04577 0.10222 0.31877 0.0
H175 H 0.00642 0.14534 0.35248 0.0
Li176 Li 0.02288 0.99128 0.69987 0.0
Li177 Li 0.02165 0.03261 0.71821 0.0
Li178 Li 0.97398 0.96607 0.71768 0.0
Li179 Li 0.97346 0.00767 0.69932 0.0
C180 C 0.05331 0.98029 0.72393 0.0
N181 N 0.10693 0.96256 0.72858 0.0
C182 C 0.08805 0.00699 0.72838 0.0
C183 C 0.04568 0.94447 0.72207 0.0
C184 C 0.11484 0.99752 0.73061 0.0
C185 C 0.07319 0.93607 0.72441 0.0
C186 C 0.04487 0.07484 0.69206 0.0
C187 C 0.04678 0.13192 0.68795 0.0
N188 N 0.08111 0.14622 0.68257 0.0
C189 C 0.07997 0.08995 0.68629 0.0
C190 C 0.02796 0.09584 0.69274 0.0
C191 C 0.09792 0.12614 0.68163 0.0
C192 C 0.04287 0.95896 0.67714 0.0
N193 N 0.05545 0.98385 0.68812 0.0
C194 C 0.11697 0.00345 0.68152 0.0
C195 C 0.09166 0.00591 0.69044 0.0
C196 C 0.10493 0.97845 0.66991 0.0
C197 C 0.06727 0.95572 0.66787 0.0
H198 H 0.01391 0.94228 0.67535 0.0
H199 H 0.10092 0.02604 0.69903 0.0
C200 C 0.03925 0.0737 0.74417 0.0
N201 N 0.05157 0.0724 0.7306 0.0
C202 C 0.06185 0.10074 0.75403 0.0
C203 C 0.10926 0.12468 0.73573 0.0
C204 C 0.08581 0.09713 0.72626 0.0
C205 C 0.09749 0.1265 0.74988 0.0
H206 H 0.01212 0.05324 0.74743 0.0
H207 H 0.09548 0.09464 0.71567 0.0
C208 C 0.94457 0.9242 0.69359 0.0
N209 N 0.89264 0.85224 0.68893 0.0
C210 C 0.90963 0.91507 0.68897 0.0
C211 C 0.95326 0.89679 0.69561 0.0
C212 C 0.88371 0.87852 0.68673 0.0
C213 C 0.92659 0.86056 0.69327 0.0
C214 C 0.94841 0.02471 0.72555 0.0
C215 C 0.91325 0.00297 0.73104 0.0
C216 C 0.96364 0.0625 0.72528 0.0
C217 C 0.89355 0.01934 0.73581 0.0
C218 C 0.94311 0.07785 0.73016 0.0
N219 N 0.90875 0.05614 0.73525 0.0
C220 C 0.95669 0.91568 0.74084 0.0
C221 C 0.90634 0.90901 0.72713 0.0
C222 C 0.9335 0.88777 0.75028 0.0
N223 N 0.94276 0.92569 0.72957 0.0
C224 C 0.88222 0.8808 0.73619 0.0
C225 C 0.89571 0.87009 0.74803 0.0
H226 H 0.98572 0.92988 0.74271 0.0
H227 H 0.89592 0.91831 0.71839 0.0
C228 C 0.95485 0.0304 0.6734 0.0
N229 N 0.94262 0.01622 0.68691 0.0
C230 C 0.93186 0.03429 0.66357 0.0
C231 C 0.8842 0.00904 0.68175 0.0
C232 C 0.90804 0.00551 0.69119 0.0
C233 C 0.89592 0.02328 0.66768 0.0
H234 H 0.98227 0.03803 0.67017 0.0
H235 H 0.89849 0.99295 0.70173 0.0
O236 O 0.02681 0.98911 0.7216 0.0
O237 O 0.02692 0.03938 0.69665 0.0
O238 O 0.97024 0.95983 0.69593 0.0
O239 O 0.96807 0.00905 0.72088 0.0
H240 H 0.09436 0.03478 0.73 0.0
H241 H 0.01878 0.92335 0.71892 0.0
H242 H 0.14191 0.01796 0.73396 0.0
H243 H 0.06769 0.90848 0.72295 0.0
H244 H 0.03402 0.14849 0.68845 0.0
H245 H 0.09333 0.07399 0.6855 0.0
H246 H 0.00042 0.08433 0.69671 0.0
H247 H 0.12521 0.13825 0.67726 0.0
H248 H 0.14568 0.02121 0.68366 0.0
H249 H 0.05673 0.93645 0.65893 0.0
H250 H 0.0517 0.10125 0.76483 0.0
H251 H 0.13678 0.14346 0.7322 0.0
H252 H 0.90252 0.93594 0.68722 0.0
H253 H 0.98033 0.90341 0.69891 0.0
H254 H 0.85649 0.87105 0.68325 0.0
H255 H 0.93291 0.83906 0.69486 0.0
H256 H 0.90116 0.97373 0.73152 0.0
H257 H 0.9912 0.07986 0.72154 0.0
H258 H 0.8662 0.0028 0.73996 0.0
H259 H 0.95456 0.10706 0.72996 0.0
H260 H 0.94495 0.88026 0.75929 0.0
H261 H 0.85325 0.86838 0.73424 0.0
H262 H 0.94198 0.04549 0.65284 0.0
H263 H 0.85647 -0.00056 0.68524 0.0
H264 H 0.04114 0.47067 0.17848 0.0
H265 H 0.03672 0.4201 0.16403 0.0
H266 H 0.93871 0.34568 0.1873 0.0
H267 H 0.9434 0.39625 0.20173 0.0
H268 H 0.99731 0.49791 0.18056 0.0
H269 H 0.04647 0.44825 0.2134 0.0
H270 H 0.05179 0.40267 0.22779 0.0
H271 H 0.95411 0.37874 0.2514 0.0
H272 H 0.94834 0.42365 0.23665 0.0
H273 H 0.94095 0.51586 0.23459 0.0
H274 H 0.93789 0.56241 0.24919 0.0
H275 H 0.03907 0.64462 0.23009 0.0
H276 H 0.0426 0.59759 0.21591 0.0
H277 H 0.9918 0.49491 0.23468 0.0
H278 H 0.94864 0.55238 0.20038 0.0
H279 H 0.95347 0.60407 0.18677 0.0
H280 H 0.05067 0.61789 0.16556 0.0
H281 H 0.0469 0.56773 0.17989 0.0
C282 C 0.9928 0.43721 0.19127 0.0
C283 C 0.01872 0.44344 0.18046 0.0
C284 C 0.01609 0.41454 0.17218 0.0
C285 C 0.98739 0.37885 0.17453 0.0
C286 C 0.96148 0.37272 0.18538 0.0
C287 C 0.9641 0.40163 0.19363 0.0
C288 C 0.99512 0.46794 0.19987 0.0
C289 C 0.99661 0.49752 0.19241 0.0
C290 C 0.99412 0.46737 0.21531 0.0
C291 C 0.99681 0.43912 0.22386 0.0
C292 C 0.02593 0.43286 0.22154 0.0
C293 C 0.02915 0.40705 0.22988 0.0
C294 C 0.0034 0.38712 0.24074 0.0
C295 C 0.97415 0.39333 0.24299 0.0
C296 C 0.97097 0.41918 0.23466 0.0
C297 C 0.99183 0.55329 0.22408 0.0
C298 C 0.96253 0.5439 0.23359 0.0
C299 C 0.96064 0.57061 0.24181 0.0
C300 C 0.9881 0.60729 0.24073 0.0
C301 C 0.0176 0.61659 0.23126 0.0
C302 C 0.01952 0.58981 0.22305 0.0
C303 C 0.99329 0.52457 0.21537 0.0
C304 C 0.99251 0.49532 0.22284 0.0
C305 C 0.99593 0.526 0.19994 0.0
C306 C -0.00224 0.55654 0.19135 0.0
C307 C 0.97127 0.56689 0.19295 0.0
C308 C 0.97384 0.59622 0.18501 0.0
C309 C 0.00258 0.61537 0.17509 0.0
C310 C 0.02861 0.60436 0.17331 0.0
C311 C 0.02625 0.57536 0.18138 0.0
H312 H 0.56934 0.04342 0.51306 0.0
H313 H 0.61462 0.03968 0.49778 0.0
H314 H 0.59141 0.93992 0.51951 0.0
H315 H 0.54526 0.94311 0.53434 0.0
H316 H 0.49889 0.00071 0.51464 0.0
H317 H 0.59493 0.04542 0.54876 0.0
H318 H 0.64514 0.04946 0.5632 0.0
H319 H 0.57196 0.9452 0.58279 0.0
H320 H 0.52165 0.94189 0.56854 0.0
H321 H 0.42124 0.93717 0.56765 0.0
H322 H 0.37188 0.93372 0.58256 0.0
H323 H 0.39361 0.03772 0.56554 0.0
H324 H 0.44392 0.04164 0.55111 0.0
H325 H 0.49329 0.98661 0.56851 0.0
H326 H 0.39543 0.94849 0.53258 0.0
H327 H 0.34983 0.95496 0.5186 0.0
H328 H 0.43387 0.05953 0.50279 0.0
H329 H 0.47923 0.05272 0.51669 0.0
C330 C 0.55409 0.99372 0.52492 0.0
C331 C 0.57403 0.02076 0.51452 0.0
C332 C 0.60011 0.01873 0.50589 0.0
C333 C 0.60666 0.98951 0.50744 0.0
C334 C 0.58678 0.96258 0.51793 0.0
C335 C 0.56068 0.9646 0.52654 0.0
C336 C 0.52541 0.99508 0.53371 0.0
C337 C 0.49794 0.99811 0.52644 0.0
C338 C 0.52408 0.99167 0.54909 0.0
C339 C 0.55463 0.99325 0.55752 0.0
C340 C 0.5898 0.02331 0.55609 0.0
C341 C 0.61852 0.0255 0.56432 0.0
C342 C 0.61266 0.99761 0.57415 0.0
C343 C 0.57736 0.96741 0.57549 0.0
C344 C 0.54859 0.96536 0.56731 0.0
C345 C 0.43605 0.98949 0.55817 0.0
C346 C 0.41539 0.95925 0.56716 0.0
C347 C 0.38695 0.95717 0.57557 0.0
C348 C 0.37865 0.98536 0.57519 0.0
C349 C 0.39947 0.01568 0.56618 0.0
C350 C 0.42801 0.0178 0.55781 0.0
C351 C 0.46639 0.9915 0.54942 0.0
C352 C 0.49423 0.98913 0.55671 0.0
C353 C 0.46859 0.99663 0.5341 0.0
C354 C 0.44067 0.00023 0.52574 0.0
C355 C 0.40393 0.97289 0.52617 0.0
C356 C 0.37791 0.97668 0.51821 0.0
C357 C 0.38824 0.00778 0.50959 0.0
C358 C 0.42509 0.03504 0.50917 0.0
C359 C 0.45103 0.03124 0.51713 0.0
H360 H 0.47268 0.42125 0.84796 0.0
H361 H 0.42213 0.37386 0.83393 0.0
H362 H 0.34897 0.40443 0.85396 0.0
H363 H 0.39943 0.451 0.86816 0.0
H364 H 0.50073 0.49427 0.84799 0.0
H365 H 0.45255 0.39975 0.88279 0.0
H366 H 0.40738 0.35001 0.89782 0.0
H367 H 0.37871 0.42413 0.91818 0.0
H368 H 0.42367 0.47376 0.90294 0.0
H369 H 0.51768 0.57351 0.90086 0.0
H370 H 0.56416 0.62438 0.91501 0.0
H371 H 0.64654 0.60394 0.89717 0.0
H372 H 0.59982 0.55283 0.8831 0.0
H373 H 0.49658 0.50233 0.90194 0.0
H374 H 0.55351 0.59911 0.86579 0.0
H375 H 0.60442 0.64466 0.85126 0.0
H376 H 0.62208 0.56026 0.83365 0.0
H377 H 0.57151 0.51497 0.84828 0.0
C378 C 0.43974 0.43942 0.85917 0.0
C379 C 0.44569 0.41759 0.84933 0.0
C380 C 0.41678 0.39065 0.84128 0.0
C381 C 0.38142 0.3853 0.8428 0.0
C382 C 0.37565 0.4073 0.85269 0.0
C383 C 0.40451 0.43405 0.86079 0.0
C384 C 0.47042 0.46857 0.86749 0.0
C385 C 0.50012 0.49584 0.8598 0.0
C386 C 0.46951 0.47059 0.88287 0.0
C387 C 0.44125 0.44037 0.89168 0.0
C388 C 0.43626 0.4052 0.89038 0.0
C389 C 0.41069 0.37689 0.89905 0.0
C390 C 0.38958 0.38322 0.90918 0.0
C391 C 0.39436 0.41839 0.91037 0.0
C392 C 0.42015 0.44678 0.90175 0.0
C393 C 0.5553 0.55958 0.89082 0.0
C394 C 0.54574 0.57993 0.90002 0.0
C395 C 0.5723 0.60893 0.90812 0.0
C396 C 0.60899 0.61816 0.90719 0.0
C397 C 0.61856 0.59777 0.89796 0.0
C398 C 0.5919 0.56857 0.88992 0.0
C399 C 0.52666 0.5286 0.88242 0.0
C400 C 0.49725 0.50089 0.89012 0.0
C401 C 0.52839 0.52579 0.86706 0.0
C402 C 0.55894 0.55367 0.85823 0.0
C403 C 0.56858 0.59049 0.85891 0.0
C404 C 0.59765 0.61647 0.85061 0.0
C405 C 0.61723 0.606 0.84134 0.0
C406 C 0.60726 0.56908 0.84058 0.0
C407 C 0.57841 0.5432 0.84895 0.0
H408 H 0.94747 0.0872 0.11155 0.0
H409 H 0.94766 0.13321 0.12778 0.0
H410 H 0.97704 0.20757 0.09154 0.0
H411 H 0.97723 0.16202 0.07531 0.0
H412 H 0.00686 0.20256 0.13342 0.0
H413 H 0.89119 0.21166 0.10994 0.0
H414 H 0.89871 0.17418 0.10611 0.0
H415 H 0.92464 0.21677 0.0967 0.0
C416 C 0.95386 0.11332 0.10704 0.0
C417 C 0.9622 0.12089 0.09212 0.0
C418 C 0.95381 0.13948 0.1163 0.0
C419 C 0.96186 0.17357 0.11081 0.0
C420 C 0.96991 0.18112 0.09593 0.0
H421 H -0.00195 0.37811 0.1451 0.0
H422 H 0.99202 0.32747 0.13025 0.0
C423 C 0.96997 0.15502 0.08666 0.0
C424 C 0.96385 0.20203 0.12076 0.0
H425 H 0.92951 0.25856 0.12655 0.0
C426 C 0.98973 0.21459 0.13203 0.0
C427 C 0.9415 0.21767 0.11886 0.0
C428 C 0.9122 0.20419 0.10734 0.0
C429 C 0.99463 0.2432 0.1412 0.0
C430 C 0.97263 0.25919 0.13917 0.0
C431 C 0.94641 0.24629 0.12803 0.0
C432 C 0.97682 0.28982 0.14832 0.0
C433 C 0.02406 0.25683 0.15269 0.0
C434 C 0.97007 0.28531 0.16339 0.0
C435 C 0.97375 0.31427 0.17193 0.0
C436 C 0.98407 0.34821 0.16553 0.0
C437 C 0.99063 0.35251 0.1504 0.0
C438 C 0.98692 0.32355 0.14188 0.0
H439 H 0.04397 0.24761 0.15056 0.0
H440 H 0.0389 0.28701 0.15323 0.0
H441 H 0.01147 0.24619 0.16351 0.0
H442 H 0.96169 0.25932 0.16853 0.0
H443 H 0.96874 0.31014 0.18356 0.0
H444 H 0.87194 0.03493 0.42694 0.0
H445 H 0.82571 0.03365 0.44319 0.0
H446 H 0.76001 0.91757 0.4373 0.0
H447 H 0.80623 0.91861 0.42092 0.0
H448 H 0.75304 0.01016 0.43653 0.0
H449 H 0.76468 0.92955 0.48191 0.0
H450 H 0.79883 0.95031 0.46783 0.0
H451 H 0.75704 0.90895 0.46415 0.0
C452 C 0.84758 0.00912 0.42903 0.0
C453 C 0.84267 0.97686 0.42259 0.0
C454 C 0.8213 0.00843 0.43838 0.0
C455 C 0.78966 0.97549 0.44157 0.0
C456 C 0.78459 0.94318 0.4352 0.0
H457 H 0.60029 0.92861 0.4943 0.0
H458 H 0.64418 0.92445 0.47824 0.0
C459 C 0.81097 0.94382 0.42584 0.0
C460 C 0.7616 0.97547 0.45118 0.0
H461 H 0.71804 0.94446 0.48384 0.0
C462 C 0.74539 0.99582 0.44688 0.0
C463 C 0.75164 0.95661 0.46465 0.0
C464 C 0.76911 0.93534 0.47002 0.0
C465 C 0.71938 0.99781 0.45567 0.0
C466 C 0.70979 0.9794 0.46922 0.0
C467 C 0.72557 0.95858 0.47345 0.0
C468 C 0.68376 0.98188 0.47925 0.0
C469 C 0.70205 0.01924 0.45031 0.0
C470 C 0.69185 0.01546 0.48532 0.0
C471 C 0.66697 0.01792 0.49456 0.0
C472 C 0.63359 0.98677 0.49795 0.0
C473 C 0.6259 0.95304 0.49203 0.0
C474 C 0.65083 0.95062 0.4828 0.0
H475 H 0.70538 0.02387 0.43833 0.0
H476 H 0.67258 0.00505 0.45297 0.0
H477 H 0.71521 0.04619 0.45577 0.0
H478 H 0.71749 0.03977 0.48294 0.0
H479 H 0.674 0.04416 0.49914 0.0
H480 H 0.83582 0.80479 0.7414 0.0
H481 H 0.79138 0.76011 0.75843 0.0
H482 H 0.85344 0.82683 0.7948 0.0
H483 H 0.8979 0.87179 0.77786 0.0
H484 H 0.80645 0.72373 0.78401 0.0
H485 H 0.74574 0.80958 0.79849 0.0
H486 H 0.77125 0.81628 0.78186 0.0
H487 H 0.79456 0.83057 0.79902 0.0
C488 C 0.84001 0.80989 0.75303 0.0
C489 C 0.87024 0.84182 0.75831 0.0
C490 C 0.81473 0.78433 0.76272 0.0
C491 C 0.81909 0.79045 0.77782 0.0
C492 C 0.8496 0.82184 0.78316 0.0
H493 H 0.6721 0.67306 0.84976 0.0
H494 H 0.72281 0.71777 0.83488 0.0
C495 C 0.87505 0.84731 0.77348 0.0
C496 C 0.79118 0.76429 0.78795 0.0
H497 H 0.72164 0.75276 0.81016 0.0
C498 C 0.78792 0.73 0.78978 0.0
C499 C 0.76733 0.77282 0.79547 0.0
C500 C 0.76953 0.8092 0.79362 0.0
C501 C 0.76128 0.70383 0.799 0.0
C502 C 0.73673 0.71198 0.80625 0.0
C503 C 0.74043 0.74656 0.80457 0.0
C504 C 0.70636 0.68471 0.81531 0.0
C505 C 0.76006 0.66795 0.80105 0.0
C506 C 0.68001 0.65159 0.80918 0.0
C507 C 0.65114 0.62606 0.81764 0.0
C508 C 0.6478 0.63334 0.83236 0.0
C509 C 0.67386 0.6668 0.83843 0.0
C510 C 0.7029 0.69226 0.82996 0.0
H511 H 0.78674 0.67023 0.79853 0.0
H512 H 0.75227 0.65777 0.8124 0.0
H513 H 0.73959 0.64754 0.7935 0.0
H514 H 0.68154 0.64564 0.79778 0.0
H515 H 0.6311 0.6008 0.8126 0.0
H516 H 0.04931 0.85215 0.07713 0.0
H517 H 0.04785 0.8062 0.09373 0.0
H518 H -0.00233 0.83887 0.12688 0.0
H519 H -0.00011 0.88543 0.11045 0.0
H520 H 0.04855 0.82631 0.13844 0.0
H521 H 0.95729 0.71111 0.10263 0.0
H522 H -0.0013 0.74315 0.09371 0.0
H523 H 0.96682 0.75697 0.09942 0.0
C524 C 0.03809 0.84956 0.08799 0.0
C525 C 0.02452 0.87217 0.09249 0.0
C526 C 0.03709 0.82321 0.09742 0.0
C527 C 0.02184 0.81852 0.11142 0.0
C528 C 0.00938 0.84189 0.1161 0.0
H529 H 0.94713 0.62225 0.16301 0.0
H530 H 0.95185 0.6729 0.14866 0.0
C531 C 0.01077 0.86854 0.10673 0.0
C532 C 0.01838 0.78896 0.12111 0.0
H533 H 0.98299 0.69701 0.1229 0.0
C534 C 0.0341 0.79801 0.13507 0.0
C535 C -0.00109 0.75197 0.11682 0.0
C536 C 0.97914 0.74012 0.10239 0.0
C537 C 0.0314 0.77114 0.14477 0.0
C538 C 0.01332 0.73433 0.14022 0.0
C539 C 0.99715 0.72526 0.12634 0.0
C540 C 0.01063 0.70464 0.14964 0.0
C541 C 0.04727 0.78245 0.15989 0.0
C542 C 0.04209 0.70558 0.15497 0.0
C543 C 0.03945 0.67697 0.16343 0.0
C544 C 0.0053 0.64643 0.16651 0.0
C545 C 0.97384 0.64554 0.16109 0.0
C546 C 0.9765 0.67436 0.15276 0.0
H547 H 0.0497 0.80881 0.16313 0.0
H548 H 0.03041 0.76161 0.16815 0.0
H549 H 0.07499 0.78593 0.16004 0.0
H550 H 0.06877 0.72823 0.15243 0.0
H551 H 0.06425 0.67885 0.16755 0.0
H552 H 0.19724 0.0486 0.41184 0.0
H553 H 0.24089 0.04738 0.42896 0.0
H554 H 0.15957 0.00802 0.4629 0.0
H555 H 0.1154 0.00805 0.44576 0.0
H556 H 0.26635 0.08252 0.45632 0.0
H557 H 0.19246 0.93178 0.46148 0.0
H558 H 0.18277 0.95494 0.44717 0.0
H559 H 0.16587 0.95304 0.46533 0.0
C560 C 0.18859 0.03953 0.42293 0.0
C561 C 0.15276 0.02815 0.4274 0.0
C562 C 0.21362 0.03908 0.43271 0.0
C563 C 0.20324 0.02708 0.44711 0.0
C564 C 0.1679 0.01681 0.45176 0.0
H565 H 0.31947 0.99106 0.5178 0.0
H566 H 0.27439 0.99724 0.50327 0.0
C567 C 0.14283 0.01725 0.44199 0.0
C568 C 0.22932 0.02475 0.45715 0.0
H569 H 0.24449 0.96455 0.47627 0.0
C570 C 0.2616 0.05677 0.46071 0.0
C571 C 0.22293 0.99107 0.46285 0.0
C572 C 0.1893 0.95566 0.45895 0.0
C573 C 0.28772 0.05603 0.46988 0.0
C574 C 0.28156 0.02229 0.47541 0.0
C575 C 0.24904 0.99035 0.47203 0.0
C576 C 0.30908 0.01933 0.48431 0.0
C577 C 0.3215 0.09138 0.47368 0.0
C578 C 0.34325 0.0292 0.47836 0.0
C579 C 0.36892 0.02552 0.48658 0.0
C580 C 0.36084 0.01167 0.50089 0.0
C581 C 0.32642 0.00151 0.50677 0.0
C582 C 0.30073 0.00521 0.49853 0.0
H583 H 0.31751 0.11509 0.47199 0.0
H584 H 0.32962 0.09136 0.48521 0.0
H585 H 0.34418 0.09497 0.46654 0.0
H586 H 0.34988 0.03929 0.46727 0.0
H587 H 0.3949 0.03293 0.48163 0.0
H588 H 0.10762 0.11587 0.77853 0.0
H589 H 0.15279 0.15988 0.79548 0.0
H590 H 0.1912 0.24228 0.762 0.0
H591 H 0.1457 0.19862 0.74503 0.0
H592 H 0.22992 0.19745 0.79034 0.0
H593 H 0.17655 0.29205 0.79853 0.0
H594 H 0.14873 0.24631 0.79166 0.0
H595 H 0.18054 0.28165 0.77982 0.0
C596 C 0.12519 0.14356 0.77486 0.0
C597 C 0.12305 0.15383 0.76046 0.0
C598 C 0.1511 0.16856 0.78453 0.0
C599 C 0.17504 0.20433 0.78001 0.0
C600 C 0.1726 0.2149 0.76574 0.0
H601 H 0.38261 0.36734 0.81413 0.0
H602 H 0.33203 0.322 0.79949 0.0
C603 C 0.14683 0.18987 0.75604 0.0
C604 C 0.204 0.22999 0.78995 0.0
H605 H 0.23579 0.31104 0.80773 0.0
C606 C 0.23114 0.22219 0.79421 0.0
C607 C 0.20528 0.26207 0.79504 0.0
C608 C 0.17609 0.27103 0.79115 0.0
C609 C 0.26007 0.24613 0.80318 0.0
C610 C 0.26188 0.27867 0.80793 0.0
C611 C 0.23433 0.28611 0.80396 0.0
C612 C 0.29249 0.30553 0.81691 0.0
C613 C 0.28852 0.23653 0.80756 0.0
C614 C 0.28682 0.31129 0.83151 0.0
C615 C 0.31574 0.33684 0.83997 0.0
C616 C 0.35079 0.3574 0.83392 0.0
C617 C 0.3562 0.35156 0.81923 0.0
C618 C 0.32731 0.32582 0.81081 0.0
H619 H 0.27961 0.20754 0.8053 0.0
H620 H 0.31388 0.25372 0.80132 0.0
H621 H 0.295 0.24198 0.81936 0.0
H622 H 0.26006 0.29578 0.83637 0.0
H623 H 0.31068 0.34026 0.85129 0.0
H624 H 0.88665 0.00377 0.63889 0.0
H625 H 0.84136 0.00242 0.62195 0.0
H626 H 0.80075 0.04335 0.65583 0.0
H627 H 0.84635 0.04535 0.67278 0.0
H628 H 0.76393 0.96146 0.62681 0.0
H629 H 0.81554 0.10947 0.61983 0.0
H630 H 0.84374 0.0918 0.62651 0.0
H631 H 0.81133 0.09413 0.63841 0.0
C632 C 0.86854 0.01314 0.64266 0.0
C633 C 0.87011 0.02476 0.65716 0.0
C634 C 0.84257 0.01213 0.633 0.0
C635 C 0.818 0.02308 0.63762 0.0
C636 C 0.81983 0.03525 0.65201 0.0
H637 H 0.61076 0.97792 0.60279 0.0
H638 H 0.66107 0.98323 0.61764 0.0
C639 C 0.84566 0.03608 0.6617 0.0
C640 C 0.78912 0.01983 0.62765 0.0
H641 H 0.75688 0.06906 0.61018 0.0
C642 C 0.76245 0.98496 0.62311 0.0
C643 C 0.7875 0.05061 0.6228 0.0
C644 C 0.81618 0.08869 0.62701 0.0
C645 C 0.73365 0.98 0.61406 0.0
C646 C 0.73153 0.01069 0.60952 0.0
C647 C 0.7586 0.04562 0.61379 0.0
C648 C 0.7011 0.00694 0.60042 0.0
C649 C 0.7057 0.94204 0.60937 0.0
C650 C 0.70714 0.01868 0.58587 0.0
C651 C 0.67839 0.01528 0.57728 0.0
C652 C 0.64313 0.00042 0.58316 0.0
C653 C 0.63735 0.98885 0.59782 0.0
C654 C 0.66607 0.99203 0.60635 0.0
H655 H 0.71474 0.92206 0.61161 0.0
H656 H 0.67997 0.93342 0.6154 0.0
H657 H 0.6998 0.94144 0.59752 0.0
H658 H 0.73407 0.03022 0.58113 0.0
H659 H 0.68374 0.02401 0.566 0.0
H660 H 0.80585 0.88314 0.99423 0.0
H661 H 0.76067 0.836 0.97813 0.0
H662 H 0.84254 0.81326 0.9618 0.0
H663 H 0.88772 0.85989 0.97797 0.0
H664 H 0.76381 0.82873 0.94601 0.0
H665 H 0.75754 0.71403 0.97782 0.0
H666 H 0.77551 0.75917 0.98535 0.0
H667 H 0.80227 0.74976 0.97279 0.0
C668 C 0.81419 0.86806 0.98721 0.0
C669 C 0.85029 0.87512 0.98739 0.0
C670 C 0.78844 0.84134 0.97799 0.0
C671 C 0.7983 0.82104 0.96892 0.0
C672 C 0.83442 0.82851 0.96883 0.0
H673 H 0.67653 0.67159 0.89847 0.0
H674 H 0.72272 0.72164 0.91322 0.0
C675 C 0.86022 0.85533 0.97798 0.0
C676 C 0.77061 0.79145 0.95977 0.0
H677 H 0.72428 0.69913 0.95575 0.0
C678 C 0.75512 0.80038 0.9481 0.0
C679 C 0.75921 0.75456 0.96267 0.0
C680 C 0.7742 0.74357 0.9754 0.0
C681 C 0.7287 0.77324 0.9391 0.0
C682 C 0.71778 0.73639 0.94185 0.0
C683 C 0.73298 0.72747 0.95363 0.0
C684 C 0.68993 0.70651 0.93284 0.0
C685 C 0.71222 0.78403 0.92686 0.0
C686 C 0.65657 0.68121 0.93909 0.0
C687 C 0.63027 0.65261 0.93073 0.0
C688 C 0.63702 0.64862 0.91601 0.0
C689 C 0.67066 0.67386 0.90981 0.0
C690 C 0.6969 0.70261 0.91817 0.0
H691 H 0.71818 0.81257 0.928 0.0
H692 H 0.72358 0.78154 0.91629 0.0
H693 H 0.68226 0.76573 0.9265 0.0
H694 H 0.65085 0.68368 0.95043 0.0
H695 H 0.60482 0.63332 0.93586 0.0
H696 H 0.91991 0.81483 0.32318 0.0
H697 H 0.91922 0.76918 0.30654 0.0
H698 H 0.03603 0.82101 0.30947 0.0
H699 H 0.03714 0.86698 0.32582 0.0
H700 H 0.95777 0.78108 0.27894 0.0
H701 H -0.00135 0.71296 0.32047 0.0
H702 H 0.98077 0.74227 0.3253 0.0
H703 H 0.0273 0.76154 0.31958 0.0
C704 C 0.94546 0.81665 0.3202 0.0
C705 C 0.97855 0.84435 0.32596 0.0
C706 C 0.94499 0.79048 0.31075 0.0
C707 C 0.97752 0.79147 0.30699 0.0
C708 C 0.01057 0.81938 0.3125 0.0
H709 H 0.04357 0.66459 0.25524 0.0
H710 H 0.03992 0.70985 0.27057 0.0
C711 C 0.01111 0.84554 0.32189 0.0
C712 C 0.97721 0.76362 0.29718 0.0
H713 H -0.00101 0.69641 0.29574 0.0
C714 C 0.96649 0.76233 0.2826 0.0
C715 C 0.9887 0.73936 0.30204 0.0
C716 C -0.00077 0.73875 0.31773 0.0
C717 C 0.96798 0.73802 0.27259 0.0
C718 C 0.97984 0.71398 0.27742 0.0
C719 C 0.99008 0.715 0.29206 0.0
C720 C 0.98207 0.68761 0.26748 0.0
C721 C 0.9579 0.73902 0.25687 0.0
C722 C 0.95074 0.66011 0.26067 0.0
C723 C 0.95279 0.6344 0.2518 0.0
C724 C 0.98618 0.63552 0.24967 0.0
C725 C 0.01754 0.66325 0.25647 0.0
C726 C 0.01547 0.68897 0.26532 0.0
H727 H 0.95863 0.76492 0.25419 0.0
H728 H 0.97652 0.73563 0.24934 0.0
H729 H 0.92983 0.71637 0.25488 0.0
H730 H 0.92458 0.65817 0.26241 0.0
H731 H 0.92818 0.61361 0.24661 0.0
H732 H 0.16791 0.03562 0.65933 0.0
H733 H 0.21233 0.03357 0.643 0.0
H734 H 0.14665 0.91673 0.6407 0.0
H735 H 0.10229 0.91831 0.65738 0.0
H736 H 0.24969 0.99186 0.64811 0.0
H737 H 0.16719 0.95347 0.59712 0.0
H738 H 0.15736 0.97357 0.61259 0.0
H739 H 0.14584 0.92676 0.61317 0.0
C740 C 0.16299 0.00939 0.6555 0.0
C741 C 0.13157 0.97708 0.65975 0.0
C742 C 0.1883 0.00834 0.64608 0.0
C743 C 0.18255 0.97506 0.64058 0.0
C744 C 0.15124 0.94273 0.64469 0.0
H745 H 0.3116 0.92602 0.58055 0.0
H746 H 0.26396 0.92241 0.59671 0.0
C747 C 0.12592 0.94371 0.65419 0.0
C748 C 0.21001 0.97436 0.63086 0.0
H749 H 0.22528 0.95905 0.59567 0.0
C750 C 0.24442 0.98465 0.63664 0.0
C751 C 0.20281 0.96473 0.61597 0.0
C752 C 0.16641 0.9542 0.60923 0.0
C753 C 0.27197 0.98554 0.62789 0.0
C754 C 0.26512 0.97677 0.61288 0.0
C755 C 0.23047 0.96591 0.60716 0.0
C756 C 0.29376 0.97918 0.60292 0.0
C757 C 0.30798 0.99536 0.63484 0.0
C758 C 0.32599 0.01244 0.60087 0.0
C759 C 0.35339 0.01453 0.59177 0.0
C760 C 0.34893 0.98343 0.58443 0.0
C761 C 0.31617 0.95033 0.58623 0.0
C762 C 0.28881 0.94826 0.59538 0.0
H763 H 0.30537 0.99106 0.64685 0.0
H764 H 0.3194 0.97907 0.63014 0.0
H765 H 0.3276 0.02456 0.63283 0.0
H766 H 0.33003 0.0368 0.60636 0.0
H767 H 0.37834 0.04037 0.59071 0.0
H768 H 0.17327 0.09832 0.98539 0.0
H769 H 0.21932 0.14378 0.9691 0.0
H770 H 0.19793 0.2256 0.98656 0.0
H771 H 0.15124 0.18035 0.00256 0.0
H772 H 0.20685 0.18851 0.94778 0.0
H773 H 0.31109 0.26944 0.98972 0.0
H774 H 0.27538 0.22309 0.99281 0.0
H775 H 0.26555 0.25958 0.99372 0.0
C776 C 0.17822 0.12594 0.98573 0.0
C777 C 0.1586 0.13566 0.99535 0.0
C778 C 0.20466 0.15187 0.97647 0.0
C779 C 0.2122 0.18802 0.97677 0.0
C780 C 0.19288 0.19792 0.98636 0.0
H781 H 0.31973 0.3655 0.91569 0.0
H782 H 0.27677 0.31672 0.93179 0.0
C783 C 0.16631 0.17201 0.99555 0.0
C784 C 0.2394 0.21528 0.96672 0.0
H785 H 0.32083 0.29459 0.96587 0.0
C786 C 0.23188 0.21161 0.9517 0.0
C787 C 0.27205 0.24515 0.97191 0.0
C788 C 0.28182 0.24959 0.98791 0.0
C789 C 0.25589 0.23767 0.94172 0.0
C790 C 0.28802 0.26811 0.94696 0.0
C791 C 0.29598 0.27129 0.96194 0.0
C792 C 0.31368 0.29712 0.93706 0.0
C793 C 0.24685 0.23251 0.92566 0.0
C794 C 0.34868 0.30238 0.93487 0.0
C795 C 0.37321 0.33015 0.92571 0.0
C796 C 0.36326 0.35338 0.91871 0.0
C797 C 0.3282 0.34815 0.92101 0.0
C798 C 0.30358 0.32018 0.93009 0.0
H799 H 0.22512 0.20428 0.92313 0.0
H800 H 0.23725 0.25137 0.92224 0.0
H801 H 0.27137 0.23894 0.9191 0.0
H802 H 0.35697 0.28495 0.94025 0.0
H803 H 0.4002 0.33384 0.92429 0.0
H804 H 0.00647 0.11964 0.30558 0.0
H805 H 0.00631 0.16516 0.28927 0.0
H806 H 0.05181 0.24542 0.32355 0.0
H807 H 0.0522 0.20007 0.33993 0.0
H808 H 0.99114 0.24155 0.31055 0.0
H809 H 0.09044 0.25204 0.26867 0.0
H810 H 0.0546 0.20632 0.27208 0.0
H811 H 0.08659 0.23144 0.28632 0.0
C812 C 0.01714 0.14717 0.30956 0.0
C813 C 0.0294 0.15627 0.32405 0.0
C814 C 0.01703 0.17314 0.30022 0.0
C815 C 0.02944 0.20875 0.30515 0.0
C816 C 0.04218 0.21808 0.31953 0.0
H817 H 0.06571 0.39487 0.25295 0.0
H818 H 0.07214 0.35161 0.26855 0.0
C819 C 0.04225 0.19212 0.32889 0.0
C820 C 0.02707 0.23567 0.29562 0.0
H821 H 0.05517 0.27986 0.26295 0.0
C822 C 0.00527 0.25008 0.30018 0.0
C823 C 0.04582 0.24697 0.28216 0.0
C824 C 0.07097 0.23368 0.27705 0.0
C825 C 0.0012 0.27507 0.29151 0.0
C826 C 0.01893 0.28541 0.27783 0.0
C827 C 0.0413 0.27154 0.27338 0.0
C828 C 0.01496 0.31099 0.26806 0.0
C829 C 0.97834 0.29054 0.29718 0.0
C830 C 0.98077 0.30217 0.26243 0.0
C831 C 0.97701 0.32677 0.25349 0.0
C832 C 0.00745 0.36053 0.24993 0.0
C833 C 0.04179 0.36895 0.25537 0.0
C834 C 0.0455 0.34435 0.26432 0.0
H835 H 0.97443 0.28716 0.3092 0.0
H836 H 0.99096 0.31992 0.29451 0.0
H837 H 0.95111 0.27606 0.29196 0.0
H838 H 0.95699 0.27622 0.26493 0.0
H839 H 0.95031 0.31924 0.24926 0.0
loop_
_geom_bond_atom_site_label_1
_geom_bond_atom_site_label_2
_geom_bond_distance
_geom_bond_site_symmetry_2
_ccdc_geom_bond_type
Li0 N17 1.990 . S
Li0 O60 1.956 . S
Li0 O61 1.970 1_455 S
Li0 O62 1.961 1_545 S
Li1 N25 1.990 . S
Li1 O60 1.970 1_655 S
Li1 O61 1.956 . S
Li1 O63 1.961 1_545 S
Li2 N47 1.990 . S
Li2 O60 1.961 1_565 S
Li2 O62 1.956 . S
Li2 O63 1.970 1_455 S
Li3 N53 1.990 . S
Li3 O61 1.961 1_565 S
Li3 O62 1.970 1_655 S
Li3 O63 1.956 . S
C4 C6 1.348 . S
C4 C7 1.356 . S
C4 O60 1.325 . S
N5 C8 1.314 . S
N5 C9 1.279 . S
C6 C4 1.348 . S
C6 C8 1.353 . S
C6 H64 0.929 . S
C7 C4 1.356 . S
C7 C9 1.358 . S
C7 H65 0.930 . S
C8 N5 1.314 . S
C8 C6 1.353 . S
C8 H66 0.930 . S
C9 N5 1.279 . S
C9 C7 1.358 . S
C9 H67 0.930 . S
C10 C13 1.348 1_655 S
C10 C14 1.356 . S
C10 O61 1.325 . S
C11 N12 1.279 . S
C11 C14 1.358 . S
C11 H68 0.930 . S
N12 C11 1.279 . S
N12 C15 1.314 . S
C13 C10 1.348 1_455 S
C13 C15 1.353 1_455 S
C13 H69 0.929 . S
C14 C10 1.356 . S
C14 C11 1.358 . S
C14 H70 0.930 . S
C15 N12 1.314 . S
C15 C13 1.353 1_655 S
C15 H71 0.930 1_655 S
C16 N17 1.314 . S
C16 C21 1.353 1_554 S
C16 H22 0.930 . S
N17 Li0 1.990 . S
N17 C16 1.314 . S
N17 C19 1.279 . S
C18 C19 1.358 . S
C18 C20 1.356 . S
C18 H72 0.930 . S
C19 N17 1.279 . S
C19 C18 1.358 . S
C19 H23 0.930 . S
C20 C18 1.356 . S
C20 C21 1.348 1_554 S
C21 C16 1.353 1_556 S
C21 C20 1.348 1_556 S
C21 H73 0.929 . S
H22 C16 0.930 . S
H23 C19 0.930 . S
C24 N25 1.314 . S
C24 C26 1.353 . S
C24 H30 0.930 . S
N25 Li1 1.990 . S
N25 C24 1.314 . S
N25 C28 1.279 . S
C26 C24 1.353 . S
C26 C29 1.348 . S
C26 H74 0.929 . S
C27 C28 1.358 . S
C27 C29 1.356 . S
C27 H75 0.930 . S
C28 N25 1.279 . S
C28 C27 1.358 . S
C28 H31 0.930 . S
C29 C26 1.348 . S
C29 C27 1.356 . S
H30 C24 0.930 . S
H31 C28 0.930 . S
C32 C34 1.348 1_455 S
C32 C35 1.356 . S
C32 O62 1.325 . S
N33 C36 1.314 . S
N33 C37 1.279 . S
C34 C32 1.348 1_655 S
C34 C36 1.353 1_655 S
C34 H76 0.929 . S
C35 C32 1.356 . S
C35 C37 1.358 . S
C35 H77 0.930 . S
C36 N33 1.314 . S
C36 C34 1.353 1_455 S
C36 H78 0.930 1_455 S
C37 N33 1.279 . S
C37 C35 1.358 . S
C37 H79 0.930 . S
C38 C39 1.348 . S
C38 C40 1.356 . S
C38 O63 1.325 . S
C39 C38 1.348 . S
C39 C41 1.353 . S
C39 H80 0.929 . S
C40 C38 1.356 . S
C40 C42 1.358 . S
C40 H81 0.930 . S
C41 C39 1.353 . S
C41 N43 1.314 . S
C41 H82 0.930 . S
C42 C40 1.358 . S
C42 N43 1.279 . S
C42 H83 0.930 . S
N43 C41 1.314 . S
N43 C42 1.279 . S
C44 C46 1.353 . S
C44 N47 1.314 . S
C44 H50 0.930 . S
C45 N47 1.279 . S
C45 C48 1.358 . S
C45 H51 0.930 . S
C46 C44 1.353 . S
C46 C49 1.348 . S
C46 H84 0.929 . S
N47 Li2 1.990 . S
N47 C44 1.314 . S
N47 C45 1.279 . S
C48 C45 1.358 . S
C48 C49 1.356 . S
C48 H85 0.930 . S
C49 C46 1.348 . S
C49 C48 1.356 . S
H50 C44 0.930 . S
H51 C45 0.930 . S
C52 N53 1.314 . S
C52 C54 1.353 1_554 S
C52 H58 0.930 . S
N53 Li3 1.990 . S
N53 C52 1.314 . S
N53 C56 1.279 . S
C54 C52 1.353 1_556 S
C54 C57 1.348 1_556 S
C54 H86 0.929 . S
C55 C56 1.358 . S
C55 C57 1.356 . S
C55 H87 0.930 . S
C56 N53 1.279 . S
C56 C55 1.358 . S
C56 H59 0.930 . S
C57 C54 1.348 1_554 S
C57 C55 1.356 . S
H58 C52 0.930 . S
H59 C56 0.930 . S
O60 Li0 1.956 . S
O60 Li1 1.970 1_455 S
O60 Li2 1.961 1_545 S
O60 C4 1.325 . S
O61 Li0 1.970 1_655 S
O61 Li1 1.956 . S
O61 Li3 1.961 1_545 S
O61 C10 1.325 . S
O62 Li0 1.961 1_565 S
O62 Li2 1.956 . S
O62 Li3 1.970 1_455 S
O62 C32 1.325 . S
O63 Li1 1.961 1_565 S
O63 Li2 1.970 1_655 S
O63 Li3 1.956 . S
O63 C38 1.325 . S
H64 C6 0.929 . S
H65 C7 0.930 . S
H66 C8 0.930 . S
H67 C9 0.930 . S
H68 C11 0.930 . S
H69 C13 0.929 . S
H70 C14 0.930 . S
H71 C15 0.930 1_455 S
H72 C18 0.930 . S
H73 C21 0.929 . S
H74 C26 0.929 . S
H75 C27 0.930 . S
H76 C34 0.929 . S
H77 C35 0.930 . S
H78 C36 0.930 1_655 S
H79 C37 0.930 . S
H80 C39 0.929 . S
H81 C40 0.930 . S
H82 C41 0.930 . S
H83 C42 0.930 . S
H84 C46 0.929 . S
H85 C48 0.930 . S
H86 C54 0.929 . S
H87 C55 0.930 . S
Li88 N105 1.990 . S
Li88 O148 1.956 . S
Li88 O149 1.970 1_665 S
Li88 O150 1.961 . S
Li89 N113 1.990 . S
Li89 O148 1.970 1_445 S
Li89 O149 1.956 . S
Li89 O151 1.961 . S
Li90 N135 1.990 . S
Li90 O148 1.961 . S
Li90 O150 1.956 . S
Li90 O151 1.970 1_665 S
Li91 N141 1.990 . S
Li91 O149 1.961 . S
Li91 O150 1.970 1_445 S
Li91 O151 1.956 . S
C92 C94 1.348 1_655 S
C92 C95 1.356 . S
C92 O148 1.325 . S
N93 C96 1.314 . S
N93 C97 1.279 . S
C94 C92 1.348 1_455 S
C94 C96 1.353 1_455 S
C94 H152 0.929 . S
C95 C92 1.356 . S
C95 C97 1.358 . S
C95 H153 0.930 . S
C96 N93 1.314 . S
C96 C94 1.353 1_655 S
C96 H154 0.930 1_655 S
C97 N93 1.279 . S
C97 C95 1.358 . S
C97 H155 0.930 . S
C98 C101 1.348 1_545 S
C98 C102 1.356 . S
C98 O149 1.325 . S
C99 N100 1.279 . S
C99 C102 1.358 . S
C99 H156 0.930 . S
N100 C99 1.279 . S
N100 C103 1.314 . S
C101 C98 1.348 1_565 S
C101 C103 1.353 1_565 S
C101 H157 0.929 . S
C102 C98 1.356 . S
C102 C99 1.358 . S
C102 H158 0.930 . S
C103 N100 1.314 . S
C103 C101 1.353 1_545 S
C103 H159 0.930 1_545 S
C104 N105 1.314 . S
C104 C109 1.353 . S
C104 H110 0.930 . S
N105 Li88 1.990 . S
N105 C104 1.314 . S
N105 C107 1.279 . S
C106 C107 1.358 . S
C106 C108 1.356 . S
C106 H160 0.930 . S
C107 N105 1.279 . S
C107 C106 1.358 . S
C107 H111 0.930 . S
C108 C106 1.356 . S
C108 C109 1.348 . S
C109 C104 1.353 . S
C109 C108 1.348 . S
C109 H161 0.929 . S
H110 C104 0.930 . S
H111 C107 0.930 . S
C112 N113 1.314 . S
C112 C114 1.353 . S
C112 H118 0.930 . S
N113 Li89 1.990 . S
N113 C112 1.314 . S
N113 C116 1.279 . S
C114 C112 1.353 . S
C114 C117 1.348 . S
C114 H162 0.929 . S
C115 C116 1.358 . S
C115 C117 1.356 . S
C115 H163 0.930 . S
C116 N113 1.279 . S
C116 C115 1.358 . S
C116 H119 0.930 . S
C117 C114 1.348 . S
C117 C115 1.356 . S
H118 C112 0.930 . S
H119 C116 0.930 . S
C120 C122 1.348 1_565 S
C120 C123 1.356 . S
C120 O150 1.325 . S
N121 C124 1.314 . S
N121 C125 1.279 . S
C122 C120 1.348 1_545 S
C122 C124 1.353 1_545 S
C122 H164 0.929 . S
C123 C120 1.356 . S
C123 C125 1.358 . S
C123 H165 0.930 . S
C124 N121 1.314 . S
C124 C122 1.353 1_565 S
C124 H166 0.930 1_565 S
C125 N121 1.279 . S
C125 C123 1.358 . S
C125 H167 0.930 . S
C126 C127 1.348 1_455 S
C126 C128 1.356 . S
C126 O151 1.325 . S
C127 C126 1.348 1_655 S
C127 C129 1.353 1_655 S
C127 H168 0.929 . S
C128 C126 1.356 . S
C128 C130 1.358 . S
C128 H169 0.930 . S
C129 C127 1.353 1_455 S
C129 N131 1.314 . S
C129 H170 0.930 1_455 S
C130 C128 1.358 . S
C130 N131 1.279 . S
C130 H171 0.930 . S
N131 C129 1.314 . S
N131 C130 1.279 . S
C132 C134 1.353 . S
C132 N135 1.314 . S
C132 H138 0.930 . S
C133 N135 1.279 . S
C133 C136 1.358 . S
C133 H139 0.930 . S
C134 C132 1.353 . S
C134 C137 1.348 . S
C134 H172 0.929 . S
N135 Li90 1.990 . S
N135 C132 1.314 . S
N135 C133 1.279 . S
C136 C133 1.358 . S
C136 C137 1.356 . S
C136 H173 0.930 . S
C137 C134 1.348 . S
C137 C136 1.356 . S
H138 C132 0.930 . S
H139 C133 0.930 . S
C140 N141 1.314 . S
C140 C142 1.353 . S
C140 H146 0.930 . S
N141 Li91 1.990 . S
N141 C140 1.314 . S
N141 C144 1.279 . S
C142 C140 1.353 . S
C142 C145 1.348 . S
C142 H174 0.929 . S
C143 C144 1.358 . S
C143 C145 1.356 . S
C143 H175 0.930 . S
C144 N141 1.279 . S
C144 C143 1.358 . S
C144 H147 0.930 . S
C145 C142 1.348 . S
C145 C143 1.356 . S
H146 C140 0.930 . S
H147 C144 0.930 . S
O148 Li88 1.956 . S
O148 Li89 1.970 1_665 S
O148 Li90 1.961 . S
O148 C92 1.325 . S
O149 Li88 1.970 1_445 S
O149 Li89 1.956 . S
O149 Li91 1.961 . S
O149 C98 1.325 . S
O150 Li88 1.961 . S
O150 Li90 1.956 . S
O150 Li91 1.970 1_665 S
O150 C120 1.325 . S
O151 Li89 1.961 . S
O151 Li90 1.970 1_445 S
O151 Li91 1.956 . S
O151 C126 1.325 . S
H152 C94 0.929 . S
H153 C95 0.930 . S
H154 C96 0.930 1_455 S
H155 C97 0.930 . S
H156 C99 0.930 . S
H157 C101 0.929 . S
H158 C102 0.930 . S
H159 C103 0.930 1_565 S
H160 C106 0.930 . S
H161 C109 0.929 . S
H162 C114 0.929 . S
H163 C115 0.930 . S
H164 C122 0.929 . S
H165 C123 0.930 . S
H166 C124 0.930 1_545 S
H167 C125 0.930 . S
H168 C127 0.929 . S
H169 C128 0.930 . S
H170 C129 0.930 1_655 S
H171 C130 0.930 . S
H172 C134 0.929 . S
H173 C136 0.930 . S
H174 C142 0.929 . S
H175 C143 0.930 . S
Li176 N193 1.990 . S
Li176 O236 1.956 . S
Li176 O237 1.970 1_565 S
Li176 O238 1.961 1_455 S
Li177 N201 1.990 . S
Li177 O236 1.970 1_545 S
Li177 O237 1.956 . S
Li177 O239 1.961 1_455 S
Li178 N223 1.990 . S
Li178 O236 1.961 1_655 S
Li178 O238 1.956 . S
Li178 O239 1.970 1_565 S
Li179 N229 1.990 . S
Li179 O237 1.961 1_655 S
Li179 O238 1.970 1_545 S
Li179 O239 1.956 . S
C180 C182 1.348 1_565 S
C180 C183 1.356 . S
C180 O236 1.325 . S
N181 C184 1.314 . S
N181 C185 1.279 . S
C182 C180 1.348 1_545 S
C182 C184 1.353 1_545 S
C182 H240 0.929 . S
C183 C180 1.356 . S
C183 C185 1.358 . S
C183 H241 0.930 . S
C184 N181 1.314 . S
C184 C182 1.353 1_565 S
C184 H242 0.930 1_565 S
C185 N181 1.279 . S
C185 C183 1.358 . S
C185 H243 0.930 . S
C186 C189 1.348 . S
C186 C190 1.356 . S
C186 O237 1.325 . S
C187 N188 1.279 . S
C187 C190 1.358 . S
C187 H244 0.930 . S
N188 C187 1.279 . S
N188 C191 1.314 . S
C189 C186 1.348 . S
C189 C191 1.353 . S
C189 H245 0.929 . S
C190 C186 1.356 . S
C190 C187 1.358 . S
C190 H246 0.930 . S
C191 N188 1.314 . S
C191 C189 1.353 . S
C191 H247 0.930 . S
C192 N193 1.314 . S
C192 C197 1.353 . S
C192 H198 0.930 . S
N193 Li176 1.990 . S
N193 C192 1.314 . S
N193 C195 1.279 . S
C194 C195 1.358 . S
C194 C196 1.356 . S
C194 H248 0.930 . S
C195 N193 1.279 . S
C195 C194 1.358 . S
C195 H199 0.930 . S
C196 C194 1.356 . S
C196 C197 1.348 . S
C197 C192 1.353 . S
C197 C196 1.348 . S
C197 H249 0.929 . S
H198 C192 0.930 . S
H199 C195 0.930 . S
C200 N201 1.314 . S
C200 C202 1.353 . S
C200 H206 0.930 . S
N201 Li177 1.990 . S
N201 C200 1.314 . S
N201 C204 1.279 . S
C202 C200 1.353 . S
C202 C205 1.348 . S
C202 H250 0.929 . S
C203 C204 1.358 . S
C203 C205 1.356 . S
C203 H251 0.930 . S
C204 N201 1.279 . S
C204 C203 1.358 . S
C204 H207 0.930 . S
C205 C202 1.348 . S
C205 C203 1.356 . S
H206 C200 0.930 . S
H207 C204 0.930 . S
C208 C210 1.348 . S
C208 C211 1.356 . S
C208 O238 1.325 . S
N209 C212 1.314 . S
N209 C213 1.279 . S
C210 C208 1.348 . S
C210 C212 1.353 . S
C210 H252 0.929 . S
C211 C208 1.356 . S
C211 C213 1.358 . S
C211 H253 0.930 . S
C212 N209 1.314 . S
C212 C210 1.353 . S
C212 H254 0.930 . S
C213 N209 1.279 . S
C213 C211 1.358 . S
C213 H255 0.930 . S
C214 C215 1.348 1_545 S
C214 C216 1.356 . S
C214 O239 1.325 . S
C215 C214 1.348 1_565 S
C215 C217 1.353 1_565 S
C215 H256 0.929 . S
C216 C214 1.356 . S
C216 C218 1.358 . S
C216 H257 0.930 . S
C217 C215 1.353 1_545 S
C217 N219 1.314 . S
C217 H258 0.930 1_545 S
C218 C216 1.358 . S
C218 N219 1.279 . S
C218 H259 0.930 . S
N219 C217 1.314 . S
N219 C218 1.279 . S
C220 C222 1.353 . S
C220 N223 1.314 . S
C220 H226 0.930 . S
C221 N223 1.279 . S
C221 C224 1.358 . S
C221 H227 0.930 . S
C222 C220 1.353 . S
C222 C225 1.348 . S
C222 H260 0.929 . S
N223 Li178 1.990 . S
N223 C220 1.314 . S
N223 C221 1.279 . S
C224 C221 1.358 . S
C224 C225 1.356 . S
C224 H261 0.930 . S
C225 C222 1.348 . S
C225 C224 1.356 . S
H226 C220 0.930 . S
H227 C221 0.930 . S
C228 N229 1.314 . S
C228 C230 1.353 . S
C228 H234 0.930 . S
N229 Li179 1.990 . S
N229 C228 1.314 . S
N229 C232 1.279 . S
C230 C228 1.353 . S
C230 C233 1.348 . S
C230 H262 0.929 . S
C231 C232 1.358 . S
C231 C233 1.356 . S
C231 H263 0.930 . S
C232 N229 1.279 . S
C232 C231 1.358 . S
C232 H235 0.930 . S
C233 C230 1.348 . S
C233 C231 1.356 . S
H234 C228 0.930 . S
H235 C232 0.930 . S
O236 Li176 1.956 . S
O236 Li177 1.970 1_565 S
O236 Li178 1.961 1_455 S
O236 C180 1.325 . S
O237 Li176 1.970 1_545 S
O237 Li177 1.956 . S
O237 Li179 1.961 1_455 S
O237 C186 1.325 . S
O238 Li176 1.961 1_655 S
O238 Li178 1.956 . S
O238 Li179 1.970 1_565 S
O238 C208 1.325 . S
O239 Li177 1.961 1_655 S
O239 Li178 1.970 1_545 S
O239 Li179 1.956 . S
O239 C214 1.325 . S
H240 C182 0.929 . S
H241 C183 0.930 . S
H242 C184 0.930 1_545 S
H243 C185 0.930 . S
H244 C187 0.930 . S
H245 C189 0.929 . S
H246 C190 0.930 . S
H247 C191 0.930 . S
H248 C194 0.930 . S
H249 C197 0.929 . S
H250 C202 0.929 . S
H251 C203 0.930 . S
H252 C210 0.929 . S
H253 C211 0.930 . S
H254 C212 0.930 . S
H255 C213 0.930 . S
H256 C215 0.929 . S
H257 C216 0.930 . S
H258 C217 0.930 1_565 S
H259 C218 0.930 . S
H260 C222 0.929 . S
H261 C224 0.930 . S
H262 C230 0.929 . S
H263 C231 0.930 . S
H264 C283 0.949 . S
H265 C284 0.950 . S
H266 C286 0.950 . S
H267 C287 0.950 . S
H268 C289 0.950 . S
H269 C292 0.950 . S
H270 C293 0.950 . S
H271 C295 0.951 . S
H272 C296 0.949 . S
H273 C298 0.949 . S
H274 C299 0.950 . S
H275 C301 0.950 . S
H276 C302 0.950 . S
H277 C304 0.950 . S
H278 C307 0.950 . S
H279 C308 0.950 . S
H280 C310 0.951 . S
H281 C311 0.949 . S
C282 C283 1.376 . S
C282 C287 1.386 1_455 S
C282 C288 1.483 . S
C283 H264 0.949 . S
C283 C282 1.376 . S
C283 C284 1.397 . S
C284 H265 0.950 . S
C284 C283 1.397 . S
C284 C285 1.391 . S
C285 C284 1.391 . S
C285 C286 1.405 1_455 S
C286 H266 0.950 . S
C286 C285 1.405 1_655 S
C286 C287 1.367 . S
C287 H267 0.950 . S
C287 C282 1.386 1_655 S
C287 C286 1.367 . S
C288 C282 1.483 . S
C288 C289 1.382 . S
C288 C290 1.403 1_455 S
C289 H268 0.950 . S
C289 C288 1.382 . S
C289 C305 1.411 . S
C290 C288 1.403 1_655 S
C290 C291 1.489 . S
C290 C304 1.411 . S
C291 C290 1.489 . S
C291 C292 1.383 1_655 S
C291 C296 1.382 . S
C292 H269 0.950 . S
C292 C291 1.383 1_455 S
C292 C293 1.395 . S
C293 H270 0.950 . S
C293 C292 1.395 . S
C293 C294 1.288 1_455 S
C294 C293 1.288 1_655 S
C294 C295 1.392 . S
C295 H271 0.951 . S
C295 C294 1.392 . S
C295 C296 1.392 . S
C296 H272 0.949 . S
C296 C291 1.382 . S
C296 C295 1.392 . S
C297 C298 1.376 . S
C297 C302 1.386 1_655 S
C297 C303 1.483 . S
C298 H273 0.949 . S
C298 C297 1.376 . S
C298 C299 1.397 . S
C299 H274 0.950 . S
C299 C298 1.397 . S
C299 C300 1.399 . S
C300 C299 1.399 . S
C300 C301 1.391 1_655 S
C301 H275 0.950 . S
C301 C300 1.391 1_455 S
C301 C302 1.367 . S
C302 H276 0.950 . S
C302 C297 1.386 1_455 S
C302 C301 1.367 . S
C303 C297 1.483 . S
C303 C304 1.382 . S
C303 C305 1.403 1_655 S
C304 H277 0.950 . S
C304 C290 1.411 . S
C304 C303 1.382 . S
C305 C289 1.411 . S
C305 C303 1.403 1_455 S
C305 C306 1.489 . S
C306 C305 1.489 . S
C306 C307 1.383 1_455 S
C306 C311 1.382 . S
C307 H278 0.950 . S
C307 C306 1.383 1_655 S
C307 C308 1.395 . S
C308 H279 0.950 . S
C308 C307 1.395 . S
C308 C309 1.288 1_655 S
C309 C308 1.288 1_455 S
C309 C310 1.392 . S
C310 H280 0.951 . S
C310 C309 1.392 . S
C310 C311 1.392 . S
C311 H281 0.949 . S
C311 C306 1.382 . S
C311 C310 1.392 . S
H312 C331 0.949 . S
H313 C332 0.950 . S
H314 C334 0.950 . S
H315 C335 0.950 . S
H316 C337 0.950 . S
H317 C340 0.950 . S
H318 C341 0.950 . S
H319 C343 0.951 . S
H320 C344 0.949 . S
H321 C346 0.949 . S
H322 C347 0.950 . S
H323 C349 0.950 . S
H324 C350 0.950 . S
H325 C352 0.950 . S
H326 C355 0.950 . S
H327 C356 0.950 . S
H328 C358 0.951 . S
H329 C359 0.949 . S
C330 C331 1.376 . S
C330 C335 1.386 1_545 S
C330 C336 1.483 . S
C331 H312 0.949 . S
C331 C330 1.376 . S
C331 C332 1.397 . S
C332 H313 0.950 . S
C332 C331 1.397 . S
C332 C333 1.391 . S
C333 C332 1.391 . S
C333 C334 1.405 1_545 S
C334 H314 0.950 . S
C334 C333 1.405 1_565 S
C334 C335 1.367 . S
C335 H315 0.950 . S
C335 C330 1.386 1_565 S
C335 C334 1.367 . S
C336 C330 1.483 . S
C336 C337 1.382 . S
C336 C338 1.403 1_545 S
C337 H316 0.950 . S
C337 C336 1.382 . S
C337 C353 1.411 . S
C338 C336 1.403 1_565 S
C338 C339 1.489 . S
C338 C352 1.411 . S
C339 C338 1.489 . S
C339 C340 1.383 1_565 S
C339 C344 1.382 . S
C340 H317 0.950 . S
C340 C339 1.383 1_545 S
C340 C341 1.395 . S
C341 H318 0.950 . S
C341 C340 1.395 . S
C341 C342 1.288 1_545 S
C342 C341 1.288 1_565 S
C342 C343 1.392 . S
C343 H319 0.951 . S
C343 C342 1.392 . S
C343 C344 1.392 . S
C344 H320 0.949 . S
C344 C339 1.382 . S
C344 C343 1.392 . S
C345 C346 1.376 . S
C345 C350 1.386 1_565 S
C345 C351 1.483 . S
C346 H321 0.949 . S
C346 C345 1.376 . S
C346 C347 1.397 . S
C347 H322 0.950 . S
C347 C346 1.397 . S
C347 C348 1.412 . S
C348 C347 1.412 . S
C348 C349 1.394 1_565 S
C349 H323 0.950 . S
C349 C348 1.394 1_545 S
C349 C350 1.367 . S
C350 H324 0.950 . S
C350 C345 1.386 1_545 S
C350 C349 1.367 . S
C351 C345 1.483 . S
C351 C352 1.382 . S
C351 C353 1.403 1_565 S
C352 H325 0.950 . S
C352 C338 1.411 . S
C352 C351 1.382 . S
C353 C337 1.411 . S
C353 C351 1.403 1_545 S
C353 C354 1.489 . S
C354 C353 1.489 . S
C354 C355 1.383 1_545 S
C354 C359 1.382 . S
C355 H326 0.950 . S
C355 C354 1.383 1_565 S
C355 C356 1.395 . S
C356 H327 0.950 . S
C356 C355 1.395 . S
C356 C357 1.288 1_565 S
C357 C356 1.288 1_545 S
C357 C358 1.392 . S
C358 H328 0.951 . S
C358 C357 1.392 . S
C358 C359 1.392 . S
C359 H329 0.949 . S
C359 C354 1.382 . S
C359 C358 1.392 . S
H360 C379 0.949 . S
H361 C380 0.950 . S
H362 C382 0.950 . S
H363 C383 0.950 . S
H364 C385 0.950 . S
H365 C388 0.950 . S
H366 C389 0.950 . S
H367 C391 0.951 . S
H368 C392 0.949 . S
H369 C394 0.949 . S
H370 C395 0.950 . S
H371 C397 0.950 . S
H372 C398 0.950 . S
H373 C400 0.950 . S
H374 C403 0.950 . S
H375 C404 0.950 . S
H376 C406 0.951 . S
H377 C407 0.949 . S
C378 C379 1.376 . S
C378 C383 1.386 . S
C378 C384 1.483 . S
C379 H360 0.949 . S
C379 C378 1.376 . S
C379 C380 1.397 . S
C380 H361 0.950 . S
C380 C379 1.397 . S
C380 C381 1.391 . S
C381 C380 1.391 . S
C381 C382 1.405 . S
C382 H362 0.950 . S
C382 C381 1.405 . S
C382 C383 1.367 . S
C383 H363 0.950 . S
C383 C378 1.386 . S
C383 C382 1.367 . S
C384 C378 1.483 . S
C384 C385 1.382 . S
C384 C386 1.403 . S
C385 H364 0.950 . S
C385 C384 1.382 . S
C385 C401 1.411 . S
C386 C384 1.403 . S
C386 C387 1.489 . S
C386 C400 1.411 . S
C387 C386 1.489 . S
C387 C388 1.383 . S
C387 C392 1.382 . S
C388 H365 0.950 . S
C388 C387 1.383 . S
C388 C389 1.395 . S
C389 H366 0.950 . S
C389 C388 1.395 . S
C389 C390 1.288 . S
C390 C389 1.288 . S
C390 C391 1.392 . S
C391 H367 0.951 . S
C391 C390 1.392 . S
C391 C392 1.392 . S
C392 H368 0.949 . S
C392 C387 1.382 . S
C392 C391 1.392 . S
C393 C394 1.376 . S
C393 C398 1.386 . S
C393 C399 1.483 . S
C394 H369 0.949 . S
C394 C393 1.376 . S
C394 C395 1.397 . S
C395 H370 0.950 . S
C395 C394 1.397 . S
C395 C396 1.391 . S
C396 C395 1.391 . S
C396 C397 1.405 . S
C397 H371 0.950 . S
C397 C396 1.405 . S
C397 C398 1.367 . S
C398 H372 0.950 . S
C398 C393 1.386 . S
C398 C397 1.367 . S
C399 C393 1.483 . S
C399 C400 1.382 . S
C399 C401 1.403 . S
C400 H373 0.950 . S
C400 C386 1.411 . S
C400 C399 1.382 . S
C401 C385 1.411 . S
C401 C399 1.403 . S
C401 C402 1.489 . S
C402 C401 1.489 . S
C402 C403 1.383 . S
C402 C407 1.382 . S
C403 H374 0.950 . S
C403 C402 1.383 . S
C403 C404 1.395 . S
C404 H375 0.950 . S
C404 C403 1.395 . S
C404 C405 1.288 . S
C405 C404 1.288 . S
C405 C406 1.392 . S
C406 H376 0.951 . S
C406 C405 1.392 . S
C406 C407 1.392 . S
C407 H377 0.949 . S
C407 C402 1.382 . S
C407 C406 1.392 . S
H408 C416 0.929 . S
H409 C418 0.930 . S
H410 C420 0.930 . S
H411 C423 0.929 . S
H412 C426 0.930 1_455 S
H413 C428 0.960 . S
H414 C428 0.960 . S
H415 C428 0.960 . S
C416 H408 0.929 . S
C416 C417 1.377 . S
C416 C418 1.384 . S
C417 C416 1.377 . S
C417 C423 1.390 . S
C418 H409 0.930 . S
C418 C416 1.384 . S
C418 C419 1.372 . S
C419 C418 1.372 . S
C419 C420 1.400 . S
C419 C424 1.490 . S
C420 H410 0.930 . S
C420 C419 1.400 . S
C420 C423 1.386 . S
H421 C437 0.930 . S
H422 C438 0.931 . S
C423 H411 0.929 . S
C423 C417 1.390 . S
C423 C420 1.386 . S
C424 C419 1.490 . S
C424 C426 1.395 . S
C424 C427 1.403 . S
H425 C431 0.930 . S
C426 H412 0.930 1_655 S
C426 C424 1.395 . S
C426 C429 1.403 1_655 S
C427 C424 1.403 . S
C427 C428 1.524 . S
C427 C431 1.400 . S
C428 H413 0.960 . S
C428 H414 0.960 . S
C428 H415 0.960 . S
C428 C427 1.524 . S
C429 C426 1.403 1_455 S
C429 C430 1.392 1_455 S
C429 C433 1.495 . S
C430 C429 1.392 1_655 S
C430 C431 1.385 . S
C430 C432 1.478 . S
C431 H425 0.930 . S
C431 C427 1.400 . S
C431 C430 1.385 . S
C432 C430 1.478 . S
C432 C434 1.381 . S
C432 C438 1.383 1_655 S
C433 C429 1.495 . S
C433 H439 0.959 . S
C433 H440 0.961 . S
C433 H441 0.960 . S
C434 C432 1.381 . S
C434 C435 1.394 . S
C434 H442 0.930 . S
C435 C434 1.394 . S
C435 C436 1.383 1_655 S
C435 H443 0.929 . S
C436 C435 1.383 1_455 S
C436 C437 1.377 . S
C437 H421 0.930 . S
C437 C436 1.377 . S
C437 C438 1.379 . S
C438 H422 0.931 . S
C438 C432 1.383 1_455 S
C438 C437 1.379 . S
H439 C433 0.959 . S
H440 C433 0.961 . S
H441 C433 0.960 . S
H442 C434 0.930 . S
H443 C435 0.929 . S
H444 C452 0.929 1_545 S
H445 C454 0.930 . S
H446 C456 0.930 . S
H447 C459 0.929 . S
H448 C462 0.930 . S
H449 C464 0.960 . S
H450 C464 0.960 . S
H451 C464 0.960 . S
C452 H444 0.929 1_565 S
C452 C453 1.377 . S
C452 C454 1.384 1_565 S
C453 C452 1.377 . S
C453 C459 1.390 . S
C454 H445 0.930 . S
C454 C452 1.384 1_545 S
C454 C455 1.372 1_545 S
C455 C454 1.372 1_565 S
C455 C456 1.400 . S
C455 C460 1.490 . S
C456 H446 0.930 . S
C456 C455 1.400 . S
C456 C459 1.386 . S
H457 C473 0.930 . S
H458 C474 0.931 . S
C459 H447 0.929 . S
C459 C453 1.390 . S
C459 C456 1.386 . S
C460 C455 1.490 . S
C460 C462 1.395 . S
C460 C463 1.403 . S
H461 C467 0.930 . S
C462 H448 0.930 . S
C462 C460 1.395 . S
C462 C465 1.403 . S
C463 C460 1.403 . S
C463 C464 1.524 . S
C463 C467 1.400 . S
C464 H449 0.960 . S
C464 H450 0.960 . S
C464 H451 0.960 . S
C464 C463 1.524 . S
C465 C462 1.403 . S
C465 C466 1.392 . S
C465 C469 1.495 1_565 S
C466 C465 1.392 . S
C466 C467 1.385 . S
C466 C468 1.478 . S
C467 H461 0.930 . S
C467 C463 1.400 . S
C467 C466 1.385 . S
C468 C466 1.478 . S
C468 C470 1.381 1_565 S
C468 C474 1.383 . S
C469 C465 1.495 1_545 S
C469 H475 0.959 . S
C469 H476 0.961 1_545 S
C469 H477 0.960 . S
C470 C468 1.381 1_545 S
C470 C471 1.394 . S
C470 H478 0.930 . S
C471 C470 1.394 . S
C471 C472 1.383 1_545 S
C471 H479 0.929 . S
C472 C471 1.383 1_565 S
C472 C473 1.377 . S
C473 H457 0.930 . S
C473 C472 1.377 . S
C473 C474 1.379 . S
C474 H458 0.931 . S
C474 C468 1.383 . S
C474 C473 1.379 . S
H475 C469 0.959 . S
H476 C469 0.961 1_565 S
H477 C469 0.960 . S
H478 C470 0.930 . S
H479 C471 0.929 . S
H480 C488 0.929 . S
H481 C490 0.930 . S
H482 C492 0.930 . S
H483 C495 0.929 . S
H484 C498 0.930 . S
H485 C500 0.960 . S
H486 C500 0.960 . S
H487 C500 0.960 . S
C488 H480 0.929 . S
C488 C489 1.377 . S
C488 C490 1.384 . S
C489 C488 1.377 . S
C489 C495 1.390 . S
C490 H481 0.930 . S
C490 C488 1.384 . S
C490 C491 1.372 . S
C491 C490 1.372 . S
C491 C492 1.400 . S
C491 C496 1.490 . S
C492 H482 0.930 . S
C492 C491 1.400 . S
C492 C495 1.386 . S
H493 C509 0.930 . S
H494 C510 0.931 . S
C495 H483 0.929 . S
C495 C489 1.390 . S
C495 C492 1.386 . S
C496 C491 1.490 . S
C496 C498 1.395 . S
C496 C499 1.403 . S
H497 C503 0.930 . S
C498 H484 0.930 . S
C498 C496 1.395 . S
C498 C501 1.403 . S
C499 C496 1.403 . S
C499 C500 1.524 . S
C499 C503 1.400 . S
C500 H485 0.960 . S
C500 H486 0.960 . S
C500 H487 0.960 . S
C500 C499 1.524 . S
C501 C498 1.403 . S
C501 C502 1.392 . S
C501 C505 1.495 . S
C502 C501 1.392 . S
C502 C503 1.385 . S
C502 C504 1.478 . S
C503 H497 0.930 . S
C503 C499 1.400 . S
C503 C502 1.385 . S
C504 C502 1.478 . S
C504 C506 1.381 . S
C504 C510 1.383 . S
C505 C501 1.495 . S
C505 H511 0.959 . S
C505 H512 0.961 . S
C505 H513 0.960 . S
C506 C504 1.381 . S
C506 C507 1.394 . S
C506 H514 0.930 . S
C507 C506 1.394 . S
C507 C508 1.383 . S
C507 H515 0.929 . S
C508 C507 1.383 . S
C508 C509 1.377 . S
C509 H493 0.930 . S
C509 C508 1.377 . S
C509 C510 1.379 . S
C510 H494 0.931 . S
C510 C504 1.383 . S
C510 C509 1.379 . S
H511 C505 0.959 . S
H512 C505 0.961 . S
H513 C505 0.960 . S
H514 C506 0.930 . S
H515 C507 0.929 . S
H516 C524 0.929 . S
H517 C526 0.930 . S
H518 C528 0.930 1_655 S
H519 C531 0.929 1_655 S
H520 C534 0.930 . S
H521 C536 0.960 . S
H522 C536 0.960 . S
H523 C536 0.960 . S
C524 H516 0.929 . S
C524 C525 1.377 . S
C524 C526 1.384 . S
C525 C524 1.377 . S
C525 C531 1.390 . S
C526 H517 0.930 . S
C526 C524 1.384 . S
C526 C527 1.372 . S
C527 C526 1.372 . S
C527 C528 1.400 . S
C527 C532 1.490 . S
C528 H518 0.930 1_455 S
C528 C527 1.400 . S
C528 C531 1.386 . S
H529 C545 0.930 . S
H530 C546 0.931 . S
C531 H519 0.929 1_455 S
C531 C525 1.390 . S
C531 C528 1.386 . S
C532 C527 1.490 . S
C532 C534 1.395 . S
C532 C535 1.402 1_455 S
H533 C539 0.930 . S
C534 H520 0.930 . S
C534 C532 1.395 . S
C534 C537 1.403 . S
C535 C532 1.402 1_655 S
C535 C536 1.524 . S
C535 C539 1.399 . S
C536 H521 0.960 . S
C536 H522 0.960 . S
C536 H523 0.960 . S
C536 C535 1.524 . S
C537 C534 1.403 . S
C537 C538 1.392 . S
C537 C541 1.495 . S
C538 C537 1.392 . S
C538 C539 1.385 1_455 S
C538 C540 1.478 . S
C539 H533 0.930 . S
C539 C535 1.399 . S
C539 C538 1.385 1_655 S
C540 C538 1.478 . S
C540 C542 1.381 . S
C540 C546 1.383 1_455 S
C541 C537 1.495 . S
C541 H547 0.959 . S
C541 H548 0.961 . S
C541 H549 0.960 . S
C542 C540 1.381 . S
C542 C543 1.394 . S
C542 H550 0.930 . S
C543 C542 1.394 . S
C543 C544 1.383 . S
C543 H551 0.929 . S
C544 C543 1.383 . S
C544 C545 1.377 1_455 S
C545 H529 0.930 . S
C545 C544 1.377 1_655 S
C545 C546 1.379 . S
C546 H530 0.931 . S
C546 C540 1.383 1_655 S
C546 C545 1.379 . S
H547 C541 0.959 . S
H548 C541 0.961 . S
H549 C541 0.960 . S
H550 C542 0.930 . S
H551 C543 0.929 . S
H552 C560 0.929 . S
H553 C562 0.930 . S
H554 C564 0.930 . S
H555 C567 0.929 . S
H556 C570 0.930 . S
H557 C572 0.960 . S
H558 C572 0.960 . S
H559 C572 0.960 . S
C560 H552 0.929 . S
C560 C561 1.377 . S
C560 C562 1.384 . S
C561 C560 1.377 . S
C561 C567 1.390 . S
C562 H553 0.930 . S
C562 C560 1.384 . S
C562 C563 1.372 . S
C563 C562 1.372 . S
C563 C564 1.400 . S
C563 C568 1.490 . S
C564 H554 0.930 . S
C564 C563 1.400 . S
C564 C567 1.386 . S
H565 C581 0.930 . S
H566 C582 0.931 1_565 S
C567 H555 0.929 . S
C567 C561 1.390 . S
C567 C564 1.386 . S
C568 C563 1.490 . S
C568 C570 1.395 . S
C568 C571 1.403 1_545 S
H569 C575 0.930 . S
C570 H556 0.930 . S
C570 C568 1.395 . S
C570 C573 1.403 . S
C571 C568 1.403 1_565 S
C571 C572 1.524 . S
C571 C575 1.400 . S
C572 H557 0.960 . S
C572 H558 0.960 . S
C572 H559 0.960 . S
C572 C571 1.524 . S
C573 C570 1.403 . S
C573 C574 1.392 . S
C573 C577 1.495 . S
C574 C573 1.392 . S
C574 C575 1.385 1_545 S
C574 C576 1.478 . S
C575 H569 0.930 . S
C575 C571 1.400 . S
C575 C574 1.385 1_565 S
C576 C574 1.478 . S
C576 C578 1.381 . S
C576 C582 1.383 . S
C577 C573 1.495 . S
C577 H583 0.959 . S
C577 H584 0.961 . S
C577 H585 0.960 . S
C578 C576 1.381 . S
C578 C579 1.394 . S
C578 H586 0.930 . S
C579 C578 1.394 . S
C579 C580 1.383 . S
C579 H587 0.929 . S
C580 C579 1.383 . S
C580 C581 1.377 1_545 S
C581 H565 0.930 . S
C581 C580 1.377 1_565 S
C581 C582 1.379 1_565 S
C582 H566 0.931 1_545 S
C582 C576 1.383 . S
C582 C581 1.379 1_545 S
H583 C577 0.959 . S
H584 C577 0.961 . S
H585 C577 0.960 . S
H586 C578 0.930 . S
H587 C579 0.929 . S
H588 C596 0.929 . S
H589 C598 0.930 . S
H590 C600 0.930 . S
H591 C603 0.929 . S
H592 C606 0.930 . S
H593 C608 0.960 . S
H594 C608 0.960 . S
H595 C608 0.960 . S
C596 H588 0.929 . S
C596 C597 1.377 . S
C596 C598 1.384 . S
C597 C596 1.377 . S
C597 C603 1.390 . S
C598 H589 0.930 . S
C598 C596 1.384 . S
C598 C599 1.372 . S
C599 C598 1.372 . S
C599 C600 1.400 . S
C599 C604 1.490 . S
C600 H590 0.930 . S
C600 C599 1.400 . S
C600 C603 1.386 . S
H601 C617 0.930 . S
H602 C618 0.931 . S
C603 H591 0.929 . S
C603 C597 1.390 . S
C603 C600 1.386 . S
C604 C599 1.490 . S
C604 C606 1.395 . S
C604 C607 1.403 . S
H605 C611 0.930 . S
C606 H592 0.930 . S
C606 C604 1.395 . S
C606 C609 1.403 . S
C607 C604 1.403 . S
C607 C608 1.524 . S
C607 C611 1.400 . S
C608 H593 0.960 . S
C608 H594 0.960 . S
C608 H595 0.960 . S
C608 C607 1.524 . S
C609 C606 1.403 . S
C609 C610 1.392 . S
C609 C613 1.495 . S
C610 C609 1.392 . S
C610 C611 1.385 . S
C610 C612 1.478 . S
C611 H605 0.930 . S
C611 C607 1.400 . S
C611 C610 1.385 . S
C612 C610 1.478 . S
C612 C614 1.381 . S
C612 C618 1.383 . S
C613 C609 1.495 . S
C613 H619 0.959 . S
C613 H620 0.961 . S
C613 H621 0.960 . S
C614 C612 1.381 . S
C614 C615 1.394 . S
C614 H622 0.930 . S
C615 C614 1.394 . S
C615 C616 1.383 . S
C615 H623 0.929 . S
C616 C615 1.383 . S
C616 C617 1.377 . S
C617 H601 0.930 . S
C617 C616 1.377 . S
C617 C618 1.379 . S
C618 H602 0.931 . S
C618 C612 1.383 . S
C618 C617 1.379 . S
H619 C613 0.959 . S
H620 C613 0.961 . S
H621 C613 0.960 . S
H622 C614 0.930 . S
H623 C615 0.929 . S
H624 C632 0.929 . S
H625 C634 0.930 . S
H626 C636 0.930 . S
H627 C639 0.929 . S
H628 C642 0.930 . S
H629 C644 0.960 . S
H630 C644 0.960 . S
H631 C644 0.960 . S
C632 H624 0.929 . S
C632 C633 1.377 . S
C632 C634 1.384 . S
C633 C632 1.377 . S
C633 C639 1.390 . S
C634 H625 0.930 . S
C634 C632 1.384 . S
C634 C635 1.372 . S
C635 C634 1.372 . S
C635 C636 1.400 . S
C635 C640 1.490 . S
C636 H626 0.930 . S
C636 C635 1.400 . S
C636 C639 1.386 . S
H637 C653 0.930 . S
H638 C654 0.931 . S
C639 H627 0.929 . S
C639 C633 1.390 . S
C639 C636 1.386 . S
C640 C635 1.490 . S
C640 C642 1.395 1_545 S
C640 C643 1.403 . S
H641 C647 0.930 . S
C642 H628 0.930 . S
C642 C640 1.395 1_565 S
C642 C645 1.403 . S
C643 C640 1.403 . S
C643 C644 1.524 . S
C643 C647 1.400 . S
C644 H629 0.960 . S
C644 H630 0.960 . S
C644 H631 0.960 . S
C644 C643 1.524 . S
C645 C642 1.403 . S
C645 C646 1.392 1_565 S
C645 C649 1.495 . S
C646 C645 1.392 1_545 S
C646 C647 1.385 . S
C646 C648 1.478 . S
C647 H641 0.930 . S
C647 C643 1.400 . S
C647 C646 1.385 . S
C648 C646 1.478 . S
C648 C650 1.381 1_545 S
C648 C654 1.383 . S
C649 C645 1.495 . S
C649 H655 0.959 . S
C649 H656 0.961 . S
C649 H657 0.960 . S
C650 C648 1.381 1_565 S
C650 C651 1.394 . S
C650 H658 0.930 . S
C651 C650 1.394 . S
C651 C652 1.385 1_565 S
C651 H659 0.929 . S
C652 C651 1.385 1_545 S
C652 C653 1.376 . S
C653 H637 0.930 . S
C653 C652 1.376 . S
C653 C654 1.379 . S
C654 H638 0.931 . S
C654 C648 1.383 . S
C654 C653 1.379 . S
H655 C649 0.959 . S
H656 C649 0.961 . S
H657 C649 0.960 . S
H658 C650 0.930 . S
H659 C651 0.929 . S
H660 C668 0.929 . S
H661 C670 0.930 . S
H662 C672 0.930 . S
H663 C675 0.929 . S
H664 C678 0.930 . S
H665 C680 0.960 . S
H666 C680 0.960 . S
H667 C680 0.960 . S
C668 H660 0.929 . S
C668 C669 1.377 . S
C668 C670 1.384 . S
C669 C668 1.377 . S
C669 C675 1.390 . S
C670 H661 0.930 . S
C670 C668 1.384 . S
C670 C671 1.372 . S
C671 C670 1.372 . S
C671 C672 1.400 . S
C671 C676 1.490 . S
C672 H662 0.930 . S
C672 C671 1.400 . S
C672 C675 1.386 . S
H673 C689 0.930 . S
H674 C690 0.931 . S
C675 H663 0.929 . S
C675 C669 1.390 . S
C675 C672 1.386 . S
C676 C671 1.490 . S
C676 C678 1.395 . S
C676 C679 1.403 . S
H677 C683 0.930 . S
C678 H664 0.930 . S
C678 C676 1.395 . S
C678 C681 1.403 . S
C679 C676 1.403 . S
C679 C680 1.524 . S
C679 C683 1.400 . S
C680 H665 0.960 . S
C680 H666 0.960 . S
C680 H667 0.960 . S
C680 C679 1.524 . S
C681 C678 1.403 . S
C681 C682 1.392 . S
C681 C685 1.495 . S
C682 C681 1.392 . S
C682 C683 1.385 . S
C682 C684 1.478 . S
C683 H677 0.930 . S
C683 C679 1.400 . S
C683 C682 1.385 . S
C684 C682 1.478 . S
C684 C686 1.381 . S
C684 C690 1.383 . S
C685 C681 1.495 . S
C685 H691 0.959 . S
C685 H692 0.961 . S
C685 H693 0.960 . S
C686 C684 1.381 . S
C686 C687 1.394 . S
C686 H694 0.930 . S
C687 C686 1.394 . S
C687 C688 1.383 . S
C687 H695 0.929 . S
C688 C687 1.383 . S
C688 C689 1.377 . S
C689 H673 0.930 . S
C689 C688 1.377 . S
C689 C690 1.379 . S
C690 H674 0.931 . S
C690 C684 1.383 . S
C690 C689 1.379 . S
H691 C685 0.959 . S
H692 C685 0.961 . S
H693 C685 0.960 . S
H694 C686 0.930 . S
H695 C687 0.929 . S
H696 C704 0.929 . S
H697 C706 0.930 . S
H698 C708 0.923 1_455 S
H699 C711 0.929 1_455 S
H700 C714 0.930 . S
H701 C716 0.960 . S
H702 C716 0.960 1_655 S
H703 C716 0.960 . S
C704 H696 0.929 . S
C704 C705 1.377 . S
C704 C706 1.384 . S
C705 C704 1.377 . S
C705 C711 1.390 . S
C706 H697 0.930 . S
C706 C704 1.384 . S
C706 C707 1.372 . S
C707 C706 1.372 . S
C707 C708 1.403 . S
C707 C712 1.490 . S
C708 H698 0.923 1_655 S
C708 C707 1.403 . S
C708 C711 1.389 . S
H709 C725 0.930 . S
H710 C726 0.931 . S
C711 H699 0.929 1_655 S
C711 C705 1.390 . S
C711 C708 1.389 . S
C712 C707 1.490 . S
C712 C714 1.395 . S
C712 C715 1.403 . S
H713 C719 0.930 1_455 S
C714 H700 0.930 . S
C714 C712 1.395 . S
C714 C717 1.403 . S
C715 C712 1.403 . S
C715 C716 1.524 1_655 S
C715 C719 1.400 . S
C716 H701 0.960 . S
C716 H702 0.960 1_455 S
C716 H703 0.960 . S
C716 C715 1.524 1_455 S
C717 C714 1.403 . S
C717 C718 1.392 . S
C717 C721 1.495 . S
C718 C717 1.392 . S
C718 C719 1.385 . S
C718 C720 1.478 . S
C719 H713 0.930 1_655 S
C719 C715 1.400 . S
C719 C718 1.385 . S
C720 C718 1.478 . S
C720 C722 1.381 . S
C720 C726 1.383 1_655 S
C721 C717 1.495 . S
C721 H727 0.959 . S
C721 H728 0.961 . S
C721 H729 0.960 . S
C722 C720 1.381 . S
C722 C723 1.394 . S
C722 H730 0.930 . S
C723 C722 1.394 . S
C723 C724 1.383 . S
C723 H731 0.929 . S
C724 C723 1.383 . S
C724 C725 1.377 1_655 S
C725 H709 0.930 . S
C725 C724 1.377 1_455 S
C725 C726 1.379 . S
C726 H710 0.931 . S
C726 C720 1.383 1_455 S
C726 C725 1.379 . S
H727 C721 0.959 . S
H728 C721 0.961 . S
H729 C721 0.960 . S
H730 C722 0.930 . S
H731 C723 0.929 . S
H732 C740 0.929 . S
H733 C742 0.930 1_545 S
H734 C744 0.930 . S
H735 C747 0.929 . S
H736 C750 0.930 . S
H737 C752 0.960 . S
H738 C752 0.960 . S
H739 C752 0.960 1_565 S
C740 H732 0.929 . S
C740 C741 1.377 . S
C740 C742 1.384 . S
C741 C740 1.377 . S
C741 C747 1.390 . S
C742 H733 0.930 1_565 S
C742 C740 1.384 . S
C742 C743 1.372 . S
C743 C742 1.372 . S
C743 C744 1.400 . S
C743 C748 1.490 . S
C744 H734 0.930 . S
C744 C743 1.400 . S
C744 C747 1.386 . S
H745 C761 0.930 . S
H746 C762 0.931 . S
C747 H735 0.929 . S
C747 C741 1.390 . S
C747 C744 1.386 . S
C748 C743 1.490 . S
C748 C750 1.395 . S
C748 C751 1.403 . S
H749 C755 0.930 1_545 S
C750 H736 0.930 . S
C750 C748 1.395 . S
C750 C753 1.403 . S
C751 C748 1.403 . S
C751 C752 1.524 1_565 S
C751 C755 1.400 . S
C752 H737 0.960 . S
C752 H738 0.960 . S
C752 H739 0.960 1_545 S
C752 C751 1.524 1_545 S
C753 C750 1.403 . S
C753 C754 1.392 . S
C753 C757 1.495 . S
C754 C753 1.392 . S
C754 C755 1.385 . S
C754 C756 1.478 . S
C755 H749 0.930 1_565 S
C755 C751 1.400 . S
C755 C754 1.385 . S
C756 C754 1.478 . S
C756 C758 1.381 1_565 S
C756 C762 1.383 . S
C757 C753 1.495 . S
C757 H763 0.959 . S
C757 H764 0.961 . S
C757 H765 0.960 . S
C758 C756 1.381 1_545 S
C758 C759 1.394 . S
C758 H766 0.930 . S
C759 C758 1.394 . S
C759 C760 1.383 1_545 S
C759 H767 0.929 . S
C760 C759 1.383 1_565 S
C760 C761 1.377 . S
C761 H745 0.930 . S
C761 C760 1.377 . S
C761 C762 1.379 . S
C762 H746 0.931 . S
C762 C756 1.383 . S
C762 C761 1.379 . S
H763 C757 0.959 . S
H764 C757 0.961 . S
H765 C757 0.960 . S
H766 C758 0.930 . S
H767 C759 0.929 . S
H768 C776 0.929 . S
H769 C778 0.930 . S
H770 C780 0.930 . S
H771 C783 0.929 1_554 S
H772 C786 0.930 . S
H773 C788 0.960 . S
H774 C788 0.960 . S
H775 C788 0.960 . S
C776 H768 0.929 . S
C776 C777 1.377 . S
C776 C778 1.384 . S
C777 C776 1.377 . S
C777 C783 1.390 . S
C778 H769 0.930 . S
C778 C776 1.384 . S
C778 C779 1.372 . S
C779 C778 1.372 . S
C779 C780 1.400 . S
C779 C784 1.490 . S
C780 H770 0.930 . S
C780 C779 1.400 . S
C780 C783 1.386 . S
H781 C797 0.930 . S
H782 C798 0.931 . S
C783 H771 0.929 1_556 S
C783 C777 1.390 . S
C783 C780 1.386 . S
C784 C779 1.490 . S
C784 C786 1.395 . S
C784 C787 1.403 . S
H785 C791 0.930 . S
C786 H772 0.930 . S
C786 C784 1.395 . S
C786 C789 1.403 . S
C787 C784 1.403 . S
C787 C788 1.524 . S
C787 C791 1.400 . S
C788 H773 0.960 . S
C788 H774 0.960 . S
C788 H775 0.960 . S
C788 C787 1.524 . S
C789 C786 1.403 . S
C789 C790 1.392 . S
C789 C793 1.495 . S
C790 C789 1.392 . S
C790 C791 1.385 . S
C790 C792 1.478 . S
C791 H785 0.930 . S
C791 C787 1.400 . S
C791 C790 1.385 . S
C792 C790 1.478 . S
C792 C794 1.381 . S
C792 C798 1.383 . S
C793 C789 1.495 . S
C793 H799 0.959 . S
C793 H800 0.961 . S
C793 H801 0.960 . S
C794 C792 1.381 . S
C794 C795 1.394 . S
C794 H802 0.930 . S
C795 C794 1.394 . S
C795 C796 1.383 . S
C795 H803 0.929 . S
C796 C795 1.383 . S
C796 C797 1.377 . S
C797 H781 0.930 . S
C797 C796 1.377 . S
C797 C798 1.379 . S
C798 H782 0.931 . S
C798 C792 1.383 . S
C798 C797 1.379 . S
H799 C793 0.959 . S
H800 C793 0.961 . S
H801 C793 0.960 . S
H802 C794 0.930 . S
H803 C795 0.929 . S
H804 C812 0.929 1_655 S
H805 C814 0.930 1_655 S
H806 C816 0.930 . S
H807 C819 0.929 . S
H808 C822 0.930 . S
H809 C824 0.960 . S
H810 C824 0.960 . S
H811 C824 0.960 . S
C812 H804 0.929 1_455 S
C812 C813 1.377 . S
C812 C814 1.384 . S
C813 C812 1.377 . S
C813 C819 1.390 . S
C814 H805 0.930 1_455 S
C814 C812 1.384 . S
C814 C815 1.372 . S
C815 C814 1.372 . S
C815 C816 1.400 . S
C815 C820 1.490 . S
C816 H806 0.930 . S
C816 C815 1.400 . S
C816 C819 1.386 . S
H817 C833 0.930 . S
H818 C834 0.931 . S
C819 H807 0.929 . S
C819 C813 1.390 . S
C819 C816 1.386 . S
C820 C815 1.490 . S
C820 C822 1.395 1_455 S
C820 C823 1.403 . S
H821 C827 0.930 . S
C822 H808 0.930 . S
C822 C820 1.395 1_655 S
C822 C825 1.403 . S
C823 C820 1.403 . S
C823 C824 1.524 . S
C823 C827 1.400 . S
C824 H809 0.960 . S
C824 H810 0.960 . S
C824 H811 0.960 . S
C824 C823 1.524 . S
C825 C822 1.403 . S
C825 C826 1.392 1_655 S
C825 C829 1.495 . S
C826 C825 1.392 1_455 S
C826 C827 1.385 . S
C826 C828 1.478 . S
C827 H821 0.930 . S
C827 C823 1.400 . S
C827 C826 1.385 . S
C828 C826 1.478 . S
C828 C830 1.381 1_455 S
C828 C834 1.383 . S
C829 C825 1.495 . S
C829 H835 0.959 . S
C829 H836 0.961 . S
C829 H837 0.960 . S
C830 C828 1.381 1_655 S
C830 C831 1.394 . S
C830 H838 0.930 . S
C831 C830 1.394 . S
C831 C832 1.382 1_655 S
C831 H839 0.929 . S
C832 C831 1.382 1_455 S
C832 C833 1.383 . S
C833 H817 0.930 . S
C833 C832 1.383 . S
C833 C834 1.379 . S
C834 H818 0.931 . S
C834 C828 1.383 . S
C834 C833 1.379 . S
H835 C829 0.959 . S
H836 C829 0.961 . S
H837 C829 0.960 . S
H838 C830 0.930 . S
H839 C831 0.929 . S
C436 C285 1.419 . S
C417 C29 1.411 . S
C453 C137 1.405 . S
C472 C333 1.422 1_565 S
C489 C225 1.404 . S
C508 C405 1.390 . S
C525 C49 1.407 . S
C544 C309 1.396 . S
C580 C357 1.390 . S
C561 C117 1.405 . S
C597 C205 1.409 . S
C616 C381 1.422 . S
C652 C342 1.416 1_545 S
C633 C233 1.409 . S
C669 C57 1.408 1_556 S
C688 C396 1.406 . S
C724 C300 1.418 . S
C705 C108 1.409 . S
C760 C348 1.405 . S
C741 C196 1.404 . S
C796 C390 1.422 . S
C777 C20 1.410 1_556 S
C813 C145 1.407 . S
C832 C294 1.410 1_455 S
