# Generated by pormake.
# Topology rtl, (3,6)-cn, num edge types: 1
# Building blocks:
#     Node 0, Type 0, BuildingBlock: MIDCAF_clean_linker_0, # of connection points: 3
#     Node 1, Type 0, BuildingBlock: MIDCAF_clean_linker_0, # of connection points: 3
#     Node 2, Type 0, BuildingBlock: MIDCAF_clean_linker_0, # of connection points: 3
#     Node 3, Type 0, BuildingBlock: MIDCAF_clean_linker_0, # of connection points: 3
#     Node 4, Type 1, BuildingBlock: VOLQOD_clean_sbu_1, # of connection points: 6
#     Node 5, Type 1, BuildingBlock: VOLQOD_clean_sbu_1, # of connection points: 6
#     Edge 6, Type (0, 1), BuildingBlock: FUNLAD_clean_linker_0, # of connection points: 2
#     Edge 7, Type (0, 1), BuildingBlock: FUNLAD_clean_linker_0, # of connection points: 2
#     Edge 8, Type (0, 1), BuildingBlock: FUNLAD_clean_linker_0, # of connection points: 2
#     Edge 9, Type (0, 1), BuildingBlock: FUNLAD_clean_linker_0, # of connection points: 2
#     Edge 10, Type (0, 1), BuildingBlock: FUNLAD_clean_linker_0, # of connection points: 2
#     Edge 11, Type (0, 1), BuildingBlock: FUNLAD_clean_linker_0, # of connection points: 2
#     Edge 12, Type (0, 1), BuildingBlock: FUNLAD_clean_linker_0, # of connection points: 2
#     Edge 13, Type (0, 1), BuildingBlock: FUNLAD_clean_linker_0, # of connection points: 2
#     Edge 14, Type (0, 1), BuildingBlock: FUNLAD_clean_linker_0, # of connection points: 2
#     Edge 15, Type (0, 1), BuildingBlock: FUNLAD_clean_linker_0, # of connection points: 2
#     Edge 16, Type (0, 1), BuildingBlock: FUNLAD_clean_linker_0, # of connection points: 2
#     Edge 17, Type (0, 1), BuildingBlock: FUNLAD_clean_linker_0, # of connection points: 2
# Relax obj value: 0.080
# Max RMSD: 0.156
# Mean RMSD: 0.089
data_MOF--net-rtl--node1-VOLQOD_clean_sbu_1--node2-MIDCAF_clean_linker_0--edge1-FUNLAD_clean_linker_0
_symmetry_space_group_name_H-M    P1
_symmetry_Int_Tables_number       1
_symmetry_cell_setting            triclinic
loop_
_symmetry_equiv_pos_as_xyz
'x, y, z'
_cell_length_a     50.311943
_cell_length_b     43.378327
_cell_length_c     32.840421
_cell_angle_alpha  89.782549
_cell_angle_beta   90.302669
_cell_angle_gamma 90.033088
loop_
_atom_site_label
_atom_site_type_symbol
_atom_site_fract_x
_atom_site_fract_y
_atom_site_fract_z
_atom_type_partial_charge
C0 C 0.05835 0.7657 0.10536 0.0
C1 C 0.07294 0.7679 0.14181 0.0
C2 C 0.09677 0.75119 0.14573 0.0
C3 C 0.1065 0.734 0.11305 0.0
H4 H 0.17012 0.68083 0.07484 0.0
H5 H 0.21204 0.65298 0.07836 0.0
H6 H 0.20266 0.62614 0.95249 0.0
H7 H 0.16123 0.65484 0.94854 0.0
H8 H 0.13004 0.70816 0.89292 0.0
H9 H 0.11751 0.73275 0.82867 0.0
H10 H 0.04978 0.77442 0.88711 0.0
H11 H 0.06179 0.74949 0.95073 0.0
H12 H 0.05661 0.74828 0.04473 0.0
H13 H 0.03962 0.77773 0.1017 0.0
H14 H 0.10855 0.75254 0.17337 0.0
H15 H 0.12545 0.72243 0.11646 0.0
N16 N 0.1262 0.70058 0.04219 0.0
N17 N 0.12805 0.69723 0.97087 0.0
N18 N 0.09477 0.72645 0.00183 0.0
C19 C 0.13796 0.68933 0.00811 0.0
C20 C 0.10641 0.71579 0.96751 0.0
C21 C 0.10442 0.71898 0.03923 0.0
C22 C 0.16238 0.67034 0.01129 0.0
C23 C 0.17689 0.66882 0.04797 0.0
C24 C 0.20091 0.65268 0.05006 0.0
C25 C 0.21089 0.63747 0.01563 0.0
C26 C 0.1959 0.63814 0.97936 0.0
C27 C 0.17202 0.65449 0.97716 0.0
C28 C 0.09711 0.72708 0.92721 0.0
C29 C 0.11221 0.72212 0.8919 0.0
C30 C 0.10514 0.73638 0.85512 0.0
C31 C 0.08277 0.75576 0.85283 0.0
C32 C 0.06698 0.75942 0.88762 0.0
C33 C 0.07403 0.74526 0.92431 0.0
C34 C 0.09261 0.73331 0.07579 0.0
C35 C 0.06807 0.74868 0.07274 0.0
C36 C 0.55378 0.7527 0.39258 0.0
C37 C 0.56766 0.75826 0.35628 0.0
C38 C 0.589 0.77924 0.35679 0.0
C39 C 0.5969 0.79339 0.39313 0.0
H40 H 0.65549 0.84805 0.44416 0.0
H41 H 0.698 0.87472 0.44823 0.0
H42 H 0.69134 0.87838 0.57919 0.0
H43 H 0.6491 0.85124 0.57539 0.0
H44 H 0.60231 0.81357 0.62052 0.0
H45 H 0.58898 0.78572 0.68218 0.0
H46 H 0.54797 0.71848 0.60851 0.0
H47 H 0.56082 0.7461 0.54713 0.0
H48 H 0.5508 0.76121 0.45626 0.0
H49 H 0.53747 0.73641 0.39348 0.0
H50 H 0.59987 0.78436 0.3292 0.0
H51 H 0.61385 0.80879 0.39266 0.0
N52 N 0.61458 0.81848 0.47101 0.0
N53 N 0.61378 0.81648 0.54247 0.0
N54 N 0.58305 0.78793 0.50444 0.0
C55 C 0.62469 0.82761 0.50756 0.0
C56 C 0.59292 0.79663 0.54113 0.0
C57 C 0.59357 0.79878 0.46925 0.0
C58 C 0.64894 0.84709 0.50947 0.0
C59 C 0.66288 0.85482 0.47384 0.0
C60 C 0.68724 0.87029 0.47613 0.0
C61 C 0.69819 0.87841 0.51407 0.0
C62 C 0.68368 0.87193 0.54954 0.0
C63 C 0.65936 0.85646 0.54729 0.0
C64 C 0.58282 0.78198 0.57882 0.0
C65 C 0.59019 0.79305 0.61749 0.0
C66 C 0.58252 0.77723 0.65277 0.0
C67 C 0.56771 0.74988 0.64988 0.0
C68 C 0.55964 0.73937 0.61143 0.0
C69 C 0.56693 0.75534 0.57631 0.0
C70 C 0.58365 0.78679 0.42975 0.0
C71 C 0.56163 0.76679 0.42878 0.0
C72 C 0.94828 0.23637 0.90106 0.0
C73 C 0.93518 0.24132 0.86371 0.0
C74 C 0.91503 0.26373 0.86158 0.0
C75 C 0.90751 0.27999 0.89636 0.0
H76 H 0.85561 0.34613 0.93708 0.0
H77 H 0.81646 0.37909 0.93458 0.0
H78 H 0.81563 0.38254 0.066 0.0
H79 H 0.855 0.35018 0.06869 0.0
H80 H 0.88892 0.30371 0.11911 0.0
H81 H 0.90025 0.27912 0.18373 0.0
H82 H 0.96015 0.22474 0.12362 0.0
H83 H 0.9492 0.24948 0.05913 0.0
H84 H 0.95099 0.24763 0.96419 0.0
H85 H 0.96424 0.21971 0.90357 0.0
H86 H 0.90439 0.26794 0.83336 0.0
H87 H 0.8914 0.29645 0.89382 0.0
N88 N 0.89087 0.31077 0.97021 0.0
N89 N 0.89006 0.31282 0.04154 0.0
N90 N 0.91938 0.2793 0.00873 0.0
C91 C 0.88076 0.32294 0.00494 0.0
C92 C 0.90943 0.29108 0.04373 0.0
C93 C 0.91029 0.28902 0.97185 0.0
C94 C 0.85839 0.34519 0.00311 0.0
C95 C 0.84729 0.35415 0.96548 0.0
C96 C 0.82474 0.37294 0.96401 0.0
C97 C 0.8128 0.38324 9e-05 0.0
C98 C 0.82448 0.37525 0.03763 0.0
C99 C 0.847 0.35648 0.03913 0.0
C100 C 0.91798 0.27842 0.08372 0.0
C101 C 0.90473 0.28678 0.11966 0.0
C102 C 0.9111 0.27257 0.15671 0.0
C103 C 0.93096 0.24985 0.15873 0.0
C104 C 0.9449 0.24235 0.12315 0.0
C105 C 0.93848 0.25644 0.08608 0.0
C106 C 0.91993 0.27414 0.93409 0.0
C107 C 0.94075 0.25254 0.93582 0.0
C108 C 0.43544 0.27789 0.61724 0.0
C109 C 0.42133 0.27401 0.65369 0.0
C110 C 0.40003 0.25304 0.65471 0.0
C111 C 0.39243 0.23709 0.6196 0.0
H112 H 0.34108 0.17123 0.57609 0.0
H113 H 0.30164 0.13885 0.5776 0.0
H114 H 0.29932 0.1385 0.4461 0.0
H115 H 0.33853 0.17141 0.44438 0.0
H116 H 0.37274 0.22217 0.39636 0.0
H117 H 0.38565 0.24923 0.33415 0.0
H118 H 0.45117 0.29154 0.39856 0.0
H119 H 0.43871 0.26432 0.46022 0.0
H120 H 0.43872 0.26633 0.55436 0.0
H121 H 0.45179 0.29408 0.61534 0.0
H122 H 0.38899 0.24931 0.68253 0.0
H123 H 0.3755 0.22171 0.62119 0.0
N124 N 0.37604 0.20702 0.54467 0.0
N125 N 0.37526 0.2067 0.47319 0.0
N126 N 0.40548 0.23823 0.50808 0.0
C127 C 0.36566 0.19603 0.50926 0.0
C128 C 0.39529 0.22773 0.4724 0.0
C129 C 0.39603 0.22806 0.54431 0.0
C130 C 0.34293 0.17424 0.5101 0.0
C131 C 0.33234 0.16413 0.54741 0.0
C132 C 0.30978 0.14536 0.54833 0.0
C133 C 0.29726 0.13623 0.51198 0.0
C134 C 0.30829 0.14553 0.47466 0.0
C135 C 0.33087 0.16429 0.47371 0.0
C136 C 0.40454 0.24124 0.43344 0.0
C137 C 0.39013 0.23688 0.39709 0.0
C138 C 0.3974 0.25253 0.36151 0.0
C139 C 0.41934 0.27264 0.36148 0.0
C140 C 0.43433 0.27598 0.39739 0.0
C141 C 0.42703 0.26051 0.43291 0.0
C142 C 0.40586 0.24197 0.58268 0.0
C143 C 0.4278 0.26209 0.58216 0.0
O144 O 0.93528 0.00924 0.50648 0.0
Zn145 Zn 0.9711 0.03049 0.50755 0.0
O146 O 0.00013 1.00031 0.50565 0.0
Zn147 Zn 0.02334 0.00511 0.55334 0.0
Zn148 Zn 0.98546 0.95855 0.50493 0.0
Zn149 Zn 0.02084 0.00682 0.4563 0.0
O150 O 0.06051 0.01779 0.53717 0.0
O151 O 0.05848 0.01838 0.46969 0.0
O152 O 0.97325 0.05588 0.55888 0.0
O153 O 0.00912 0.03787 0.59066 0.0
O154 O 0.02585 0.96544 0.58549 0.0
O155 O 0.99793 0.93405 0.55346 0.0
O156 O 0.99716 0.93505 0.45533 0.0
O157 O 0.97248 0.05966 0.45942 0.0
O158 O 0.02209 0.9687 0.42181 0.0
O159 O 0.00579 0.04142 0.42264 0.0
C160 C 0.92831 0.98099 0.50566 0.0
C161 C 0.07145 0.02199 0.5027 0.0
C162 C 0.0143 0.9394 0.58227 0.0
C163 C 0.98934 0.05616 0.58899 0.0
C164 C 0.01182 0.94199 0.42518 0.0
C165 C 0.9871 0.06074 0.42788 0.0
O166 O 0.94552 0.95947 0.50518 0.0
O167 O 0.57701 0.50698 0.00813 0.0
Zn168 Zn 0.54359 0.5326 0.00845 0.0
O169 O 0.51142 0.5072 0.00838 0.0
Zn170 Zn 0.49054 0.51589 0.95921 0.0
Zn171 Zn 0.52203 0.46395 0.00873 0.0
Zn172 Zn 0.48987 0.516 0.05672 0.0
O173 O 0.45405 0.53094 0.97339 0.0
O174 O 0.45309 0.53094 0.04095 0.0
O175 O 0.54482 0.56014 0.9591 0.0
O176 O 0.50766 0.54916 0.92535 0.0
O177 O 0.48626 0.47782 0.92451 0.0
O178 O 0.50797 0.4419 0.95961 0.0
O179 O 0.50807 0.44208 0.058 0.0
O180 O 0.54461 0.55978 0.05776 0.0
O181 O 0.48548 0.47773 0.09163 0.0
O182 O 0.50718 0.54936 0.09074 0.0
C183 C 0.58103 0.47801 0.008 0.0
C184 C 0.44187 0.53579 0.00664 0.0
C185 C 0.49425 0.45012 0.92877 0.0
C186 C 0.52917 0.56441 0.92903 0.0
C187 C 0.49387 0.45014 0.0881 0.0
C188 C 0.52889 0.56432 0.08741 0.0
O189 O 0.56173 0.45905 0.00837 0.0
C190 C 0.25095 0.1263 0.48687 0.0
C191 C 0.27206 0.1184 0.51307 0.0
C192 C 0.22671 0.11074 0.48908 0.0
C193 C 0.22305 0.08665 0.51736 0.0
C194 C 0.24416 0.07875 0.54352 0.0
C195 C 0.26844 0.09436 0.54134 0.0
C196 C 0.19711 0.07057 0.52186 0.0
C197 C 0.179 0.06885 0.49158 0.0
C198 C 0.15218 0.05482 0.49598 0.0
C199 C 0.13797 0.04722 0.46053 0.0
C200 C 0.11202 0.036 0.4628 0.0
C201 C 0.09953 0.03223 0.50069 0.0
H202 H 0.14972 0.05701 0.56209 0.0
C203 C 0.11383 0.0394 0.53631 0.0
C204 C 0.13984 0.0507 0.53403 0.0
H205 H 0.10476 0.03696 0.56598 0.0
H206 H 0.25287 0.14521 0.46545 0.0
H207 H 0.21071 0.11842 0.4694 0.0
H208 H 0.24184 0.06047 0.56581 0.0
H209 H 0.28437 0.08762 0.56181 0.0
H210 H 0.19327 0.05929 0.55079 0.0
H211 H 0.18406 0.07767 0.46162 0.0
H212 H 0.14687 0.05031 0.43081 0.0
H213 H 0.10164 0.0307 0.4347 0.0
C214 C 0.25454 0.62398 0.98352 0.0
C215 C 0.23732 0.62204 0.01701 0.0
C216 C 0.27966 0.61036 0.98492 0.0
C217 C 0.28847 0.59477 0.02021 0.0
C218 C 0.27106 0.59236 0.0534 0.0
C219 C 0.24582 0.60584 0.05188 0.0
C220 C 0.31535 0.58045 0.02362 0.0
C221 C 0.33558 0.58679 -0.00186 0.0
C222 C 0.36232 0.57246 0.00145 0.0
C223 C 0.37778 0.57026 0.96616 0.0
C224 C 0.40338 0.55795 0.96783 0.0
C225 C 0.41435 0.54794 0.00506 0.0
H226 H 0.36216 0.56446 0.06685 0.0
C227 C 0.39894 0.55025 0.04054 0.0
C228 C 0.37317 0.56236 0.03879 0.0
H229 H 0.40684 0.54289 0.06974 0.0
H230 H 0.24881 0.63649 0.95626 0.0
H231 H 0.2918 0.61213 0.958 0.0
H232 H 0.27708 0.5802 0.08081 0.0
H233 H 0.23293 0.60342 0.078 0.0
H234 H 0.31851 0.56419 0.0484 0.0
H235 H 0.33274 0.60277 0.97307 0.0
H236 H 0.37 0.57808 0.93707 0.0
H237 H 0.41468 0.55669 0.93991 0.0
C238 C 0.73412 0.914 0.48876 0.0
C239 C 0.72537 0.89171 0.51687 0.0
C240 C 0.76027 0.92499 0.49018 0.0
C241 C 0.77821 0.91391 0.51988 0.0
C242 C 0.76933 0.89187 0.54809 0.0
C243 C 0.74324 0.88098 0.54674 0.0
C244 C 0.80668 0.92308 0.52101 0.0
C245 C 0.81637 0.94908 0.50409 0.0
C246 C 0.84516 0.95685 0.50477 0.0
C247 C 0.85303 0.98789 0.50336 0.0
C248 C 0.87999 0.99585 0.50383 0.0
C249 C 0.89968 0.97284 0.50521 0.0
H250 H 0.85966 0.90963 0.50514 0.0
C251 C 0.89176 0.94175 0.50587 0.0
C252 C 0.86486 0.93384 0.50553 0.0
H253 H 0.90634 0.92339 0.50651 0.0
H254 H 0.7208 0.92278 0.46544 0.0
H255 H 0.76644 0.9414 0.46724 0.0
H256 H 0.78275 0.8827 0.57104 0.0
H257 H 0.73732 0.86341 0.56839 0.0
H258 H 0.82011 0.90796 0.53768 0.0
H259 H 0.80287 0.96587 0.49077 0.0
H260 H 0.83827 0.00606 0.50228 0.0
H261 H 0.88537 0.02002 0.50303 0.0
C262 C 0.76694 0.39159 0.972 0.0
C263 C 0.78735 0.40057 -0.00117 0.0
C264 C 0.7422 0.40613 0.97291 0.0
C265 C 0.73723 0.42986 0.00096 0.0
C266 C 0.75795 0.43973 0.02655 0.0
C267 C 0.78272 0.42514 0.02569 0.0
C268 C 0.71068 0.4446 0.00434 0.0
C269 C 0.68795 0.42946 0.99572 0.0
C270 C 0.66095 0.4429 0.00022 0.0
C271 C 0.63918 0.42275 0.0027 0.0
C272 C 0.61333 0.43414 0.0058 0.0
C273 C 0.60859 0.46606 0.00624 0.0
H274 H 0.67237 0.49126 -0.00227 0.0
C275 C 0.63037 0.48632 0.0038 0.0
C276 C 0.65628 0.4749 0.00069 0.0
H277 H 0.62742 0.51105 0.00371 0.0
H278 H 0.76979 0.3727 0.95101 0.0
H279 H 0.72704 0.3986 0.95166 0.0
H280 H 0.75478 0.45827 0.04799 0.0
H281 H 0.79819 0.43294 0.04628 0.0
H282 H 0.70993 0.46767 0.01695 0.0
H283 H 0.68893 0.40539 0.98684 0.0
H284 H 0.64215 0.39801 0.00218 0.0
H285 H 0.59706 0.41783 0.00752 0.0
C286 C 0.06619 0.78112 0.21565 0.0
C287 C 0.0642 0.78929 0.17429 0.0
C288 C 0.05884 0.80203 0.24594 0.0
C289 C 0.04932 0.83155 0.23536 0.0
C290 C 0.04741 0.8396 0.19405 0.0
C291 C 0.05467 0.81875 0.16389 0.0
C292 C 0.04253 0.85524 0.26615 0.0
C293 C 0.03613 0.84881 0.30504 0.0
C294 C 0.02979 0.87321 0.33512 0.0
C295 C 0.01339 0.86602 0.36826 0.0
C296 C 0.00726 0.88839 0.39729 0.0
C297 C 0.01765 0.9184 0.39397 0.0
H298 H 0.05391 0.90935 0.3078 0.0
C299 C 0.03432 0.92548 0.36101 0.0
C300 C 0.04042 0.90315 0.33204 0.0
H301 H 0.04294 0.94823 0.35771 0.0
H302 H 0.07347 0.75859 0.22461 0.0
H303 H 0.06129 0.79517 0.27743 0.0
H304 H 0.04045 0.86227 0.185 0.0
H305 H 0.05342 0.82605 0.13236 0.0
H306 H 0.04182 0.87898 0.2556 0.0
H307 H 0.03427 0.82501 0.31491 0.0
H308 H 0.00516 0.84307 0.37161 0.0
H309 H 0.99449 0.88207 0.42244 0.0
C310 C 0.56834 0.69975 0.68712 0.0
C311 C 0.56184 0.73122 0.68649 0.0
C312 C 0.56254 0.68164 0.7211 0.0
C313 C 0.54992 0.69461 0.75505 0.0
C314 C 0.5432 0.72602 0.75431 0.0
C315 C 0.54944 0.74433 0.72048 0.0
C316 C 0.54249 0.6753 0.79051 0.0
C317 C 0.55778 0.65179 0.80358 0.0
C318 C 0.54983 0.63078 0.83699 0.0
C319 C 0.56953 0.6178 0.86207 0.0
C320 C 0.56277 0.59666 0.89249 0.0
C321 C 0.5362 0.58748 0.89767 0.0
H322 H 0.50763 0.63096 0.82288 0.0
C323 C 0.51648 0.60031 0.87233 0.0
C324 C 0.5232 0.62192 0.84243 0.0
H325 H 0.49584 0.59368 0.87561 0.0
H326 H 0.57796 0.68916 0.66127 0.0
H327 H 0.56739 0.65733 0.7203 0.0
H328 H 0.53323 0.73642 0.77999 0.0
H329 H 0.5441 0.76851 0.72049 0.0
H330 H 0.52439 0.68103 0.80671 0.0
H331 H 0.57718 0.64816 0.78998 0.0
H332 H 0.59022 0.62404 0.85812 0.0
H333 H 0.57842 0.58702 0.91139 0.0
C334 C 0.96228 0.22545 0.20914 0.0
C335 C 0.93617 0.2327 0.19716 0.0
C336 C 0.96703 0.20708 0.24345 0.0
C337 C 0.94569 0.19524 0.26629 0.0
C338 C 0.91968 0.20364 0.25532 0.0
C339 C 0.91493 0.22208 0.22107 0.0
C340 C 0.94968 0.17376 0.30121 0.0
C341 C 0.97103 0.15515 0.3047 0.0
C342 C 0.9745 0.13149 0.33724 0.0
C343 C 0.99332 0.1081 0.33123 0.0
C344 C 0.99731 0.08516 0.36053 0.0
C345 C 0.98259 0.08506 0.39679 0.0
H346 H 0.94581 0.1497 0.38039 0.0
C347 C 0.9639 0.10862 0.40313 0.0
C348 C 0.95997 0.13169 0.37381 0.0
H349 H 0.95243 0.10945 0.43092 0.0
H350 H 0.97907 0.23389 0.19184 0.0
H351 H 0.98743 0.20226 0.25183 0.0
H352 H 0.90288 0.19513 0.27256 0.0
H353 H 0.89456 0.2271 0.21252 0.0
H354 H 0.93344 0.17161 0.32262 0.0
H355 H 0.98606 0.1557 0.28112 0.0
H356 H 0.00493 0.1074 0.30355 0.0
H357 H 0.01195 0.06745 0.35462 0.0
C358 C 0.45449 0.29916 0.7003 0.0
C359 C 0.42789 0.29324 0.68963 0.0
C360 C 0.46065 0.31939 0.73196 0.0
C361 C 0.44027 0.33406 0.75382 0.0
C362 C 0.41372 0.32781 0.74347 0.0
C363 C 0.40756 0.30751 0.71188 0.0
C364 C 0.44593 0.35733 0.78579 0.0
C365 C 0.46886 0.35834 0.80707 0.0
C366 C 0.47463 0.3822 0.83815 0.0
C367 C 0.49245 0.37521 0.86983 0.0
C368 C 0.4987 0.39719 0.89931 0.0
C369 C 0.48752 0.42689 0.89743 0.0
H370 H 0.45043 0.41856 0.81127 0.0
C371 C 0.46997 0.43407 0.86534 0.0
C372 C 0.46359 0.41198 0.83598 0.0
H373 H 0.46115 0.45677 0.86281 0.0
H374 H 0.47058 0.28844 0.68376 0.0
H375 H 0.48138 0.32416 0.7382 0.0
H376 H 0.39765 0.33899 0.75954 0.0
H377 H 0.38688 0.30383 0.70398 0.0
H378 H 0.4302 0.37358 0.79281 0.0
H379 H 0.48358 0.34033 0.80305 0.0
H380 H 0.50145 0.35256 0.87195 0.0
H381 H 0.51243 0.3909 0.92346 0.0
C382 C 0.58108 0.72827 0.2945 0.0
C383 C 0.56088 0.74052 0.319 0.0
C384 C 0.57489 0.7087 0.2621 0.0
C385 C 0.54829 0.70066 0.25369 0.0
C386 C 0.52808 0.71416 0.27692 0.0
C387 C 0.53426 0.7338 0.30922 0.0
C388 C 0.5407 0.67805 0.22165 0.0
C389 C 0.55762 0.65725 0.20585 0.0
C390 C 0.54946 0.63378 0.17549 0.0
C391 C 0.56844 0.6229 0.14792 0.0
C392 C 0.56173 0.60042 0.11933 0.0
C393 C 0.53596 0.58787 0.11816 0.0
H394 H 0.50879 0.6282 0.19629 0.0
C395 C 0.51706 0.59833 0.1463 0.0
C396 C 0.52371 0.62109 0.17464 0.0
H397 H 0.49706 0.58905 0.14634 0.0
H398 H 0.6018 0.73291 0.30119 0.0
H399 H 0.59113 0.69989 0.24416 0.0
H400 H 0.50739 0.70885 0.27077 0.0
H401 H 0.51818 0.74335 0.32697 0.0
H402 H 0.52005 0.67794 0.2118 0.0
H403 H 0.57836 0.65717 0.21496 0.0
H404 H 0.58849 0.63202 0.14826 0.0
H405 H 0.57684 0.59276 0.09829 0.0
C406 C 0.94617 0.19032 0.83238 0.0
C407 C 0.94168 0.22212 0.82771 0.0
C408 C 0.95164 0.17189 0.7987 0.0
C409 C 0.95292 0.18487 0.75942 0.0
C410 C 0.94816 0.21658 0.75466 0.0
C411 C 0.9427 0.23506 0.78843 0.0
C412 C 0.95801 0.16576 0.72278 0.0
C413 C 0.9716 0.139 0.72424 0.0
C414 C 0.97617 0.119 0.68829 0.0
C415 C 0.99725 0.09784 0.68963 0.0
C416 C 0.00167 0.07769 0.65729 0.0
C417 C 0.98491 0.07802 0.6229 0.0
H418 H 0.9424 0.13467 0.65212 0.0
C419 C 0.96373 0.09916 0.62154 0.0
C420 C 0.95935 0.11939 0.65389 0.0
H421 H 0.95032 0.09993 0.59564 0.0
H422 H 0.94481 0.17945 0.86205 0.0
H423 H 0.95414 0.14739 0.80358 0.0
H424 H 0.94879 0.22714 0.72472 0.0
H425 H 0.93944 0.2595 0.78379 0.0
H426 H 0.95114 0.1747 0.69366 0.0
H427 H 0.98065 0.1317 0.75278 0.0
H428 H 0.01037 0.09683 0.71588 0.0
H429 H 0.01814 0.06169 0.65949 0.0
C430 C 0.45233 0.29666 0.31387 0.0
C431 C 0.42577 0.29159 0.32509 0.0
C432 C 0.45854 0.31696 0.28219 0.0
C433 C 0.43824 0.33251 0.26076 0.0
C434 C 0.41168 0.32695 0.27148 0.0
C435 C 0.40548 0.30662 0.30316 0.0
C436 C 0.44402 0.35605 0.22898 0.0
C437 C 0.46694 0.3571 0.20802 0.0
C438 C 0.47305 0.38135 0.17741 0.0
C439 C 0.49131 0.37471 0.14656 0.0
C440 C 0.49801 0.39701 0.11762 0.0
C441 C 0.48683 0.4267 0.11918 0.0
H442 H 0.44852 0.41746 0.20342 0.0
C443 C 0.46884 0.43355 0.15047 0.0
C444 C 0.46202 0.41113 0.17932 0.0
H445 H 0.45998 0.45623 0.15272 0.0
H446 H 0.46841 0.28532 0.33008 0.0
H447 H 0.47929 0.3211 0.27572 0.0
H448 H 0.39566 0.33877 0.25574 0.0
H449 H 0.38483 0.30358 0.31145 0.0
H450 H 0.42844 0.3726 0.22201 0.0
H451 H 0.48151 0.33888 0.21202 0.0
H452 H 0.50033 0.35208 0.14464 0.0
H453 H 0.51205 0.39094 0.09409 0.0
C454 C 0.05058 0.77905 0.8027 0.0
C455 C 0.07693 0.77404 0.81547 0.0
C456 C 0.04492 0.79925 0.77055 0.0
C457 C 0.06559 0.81473 0.75015 0.0
C458 C 0.09196 0.80895 0.76217 0.0
C459 C 0.09759 0.7888 0.79436 0.0
C460 C 0.06054 0.83866 0.71846 0.0
C461 C 0.03737 0.84174 0.69806 0.0
C462 C 0.03219 0.86703 0.66841 0.0
C463 C 0.01293 0.86263 0.63793 0.0
C464 C 0.00712 0.88608 0.60999 0.0
C465 C 0.02027 0.91466 0.61219 0.0
H466 H 0.05942 0.90048 0.69489 0.0
C467 C 0.03928 0.91924 0.64312 0.0
C468 C 0.04513 0.89575 0.67098 0.0
H469 H 0.04963 0.94103 0.64594 0.0
H470 H 0.03421 0.76786 0.81817 0.0
H471 H 0.02428 0.8034 0.76306 0.0
H472 H 0.10828 0.82065 0.74725 0.0
H473 H 0.1181 0.78585 0.80378 0.0
H474 H 0.07686 0.85414 0.71142 0.0
H475 H 0.02178 0.82472 0.702 0.0
H476 H 0.00243 0.84089 0.63555 0.0
H477 H 0.99228 0.88176 0.5867 0.0
loop_
_geom_bond_atom_site_label_1
_geom_bond_atom_site_label_2
_geom_bond_distance
_geom_bond_site_symmetry_2
_ccdc_geom_bond_type
C0 C1 1.384 . S
C0 H13 0.947 . S
C0 C35 1.382 . S
C1 C0 1.384 . S
C1 C2 1.378 . S
C2 C1 1.378 . S
C2 C3 1.378 . S
C2 H14 0.952 . S
C3 C2 1.378 . S
C3 H15 0.950 . S
C3 C34 1.383 . S
H4 C23 0.947 . S
H5 C24 0.946 . S
H6 C26 0.953 . S
H7 C27 0.945 . S
H8 C29 0.952 . S
H9 C30 0.949 . S
H10 C32 0.950 . S
H11 C33 0.948 . S
H12 C35 0.951 . S
H13 C0 0.947 . S
H14 C2 0.952 . S
H15 C3 0.950 . S
N16 C19 1.382 . S
N16 C21 1.363 . S
N17 C19 1.371 1_556 S
N17 C20 1.372 . S
N18 C20 1.361 1_554 S
N18 C21 1.377 . S
C19 N16 1.382 . S
C19 N17 1.371 1_554 S
C19 C22 1.480 . S
C20 N17 1.372 . S
C20 N18 1.361 1_556 S
C20 C28 1.457 . S
C21 N16 1.363 . S
C21 N18 1.377 . S
C21 C34 1.479 . S
C22 C19 1.480 . S
C22 C23 1.383 . S
C22 C27 1.385 1_554 S
C23 H4 0.947 . S
C23 C22 1.383 . S
C23 C24 1.388 . S
C24 H5 0.946 . S
C24 C23 1.388 . S
C24 C25 1.384 . S
C25 C24 1.384 . S
C25 C26 1.377 1_554 S
C26 H6 0.953 . S
C26 C25 1.377 1_556 S
C26 C27 1.369 . S
C27 H7 0.945 . S
C27 C22 1.385 1_556 S
C27 C26 1.369 . S
C28 C20 1.457 . S
C28 C29 1.372 . S
C28 C33 1.364 . S
C29 H8 0.952 . S
C29 C28 1.372 . S
C29 C30 1.389 . S
C30 H9 0.949 . S
C30 C29 1.389 . S
C30 C31 1.387 . S
C31 C30 1.387 . S
C31 C32 1.372 . S
C32 H10 0.950 . S
C32 C31 1.372 . S
C32 C33 1.379 . S
C33 H11 0.948 . S
C33 C28 1.364 . S
C33 C32 1.379 . S
C34 C3 1.383 . S
C34 C21 1.479 . S
C34 C35 1.398 . S
C35 C0 1.382 . S
C35 H12 0.951 . S
C35 C34 1.398 . S
C36 C37 1.384 . S
C36 H49 0.947 . S
C36 C71 1.382 . S
C37 C36 1.384 . S
C37 C38 1.378 . S
C38 C37 1.378 . S
C38 C39 1.378 . S
C38 H50 0.952 . S
C39 C38 1.378 . S
C39 H51 0.950 . S
C39 C70 1.383 . S
H40 C59 0.947 . S
H41 C60 0.946 . S
H42 C62 0.953 . S
H43 C63 0.945 . S
H44 C65 0.952 . S
H45 C66 0.949 . S
H46 C68 0.950 . S
H47 C69 0.948 . S
H48 C71 0.951 . S
H49 C36 0.947 . S
H50 C38 0.952 . S
H51 C39 0.950 . S
N52 C55 1.382 . S
N52 C57 1.363 . S
N53 C55 1.371 . S
N53 C56 1.372 . S
N54 C56 1.361 . S
N54 C57 1.377 . S
C55 N52 1.382 . S
C55 N53 1.371 . S
C55 C58 1.480 . S
C56 N53 1.372 . S
C56 N54 1.361 . S
C56 C64 1.457 . S
C57 N52 1.363 . S
C57 N54 1.377 . S
C57 C70 1.479 . S
C58 C55 1.480 . S
C58 C59 1.383 . S
C58 C63 1.385 . S
C59 H40 0.947 . S
C59 C58 1.383 . S
C59 C60 1.388 . S
C60 H41 0.946 . S
C60 C59 1.388 . S
C60 C61 1.384 . S
C61 C60 1.384 . S
C61 C62 1.377 . S
C62 H42 0.953 . S
C62 C61 1.377 . S
C62 C63 1.369 . S
C63 H43 0.945 . S
C63 C58 1.385 . S
C63 C62 1.369 . S
C64 C56 1.457 . S
C64 C65 1.372 . S
C64 C69 1.364 . S
C65 H44 0.952 . S
C65 C64 1.372 . S
C65 C66 1.389 . S
C66 H45 0.949 . S
C66 C65 1.389 . S
C66 C67 1.387 . S
C67 C66 1.387 . S
C67 C68 1.372 . S
C68 H46 0.950 . S
C68 C67 1.372 . S
C68 C69 1.379 . S
C69 H47 0.948 . S
C69 C64 1.364 . S
C69 C68 1.379 . S
C70 C39 1.383 . S
C70 C57 1.479 . S
C70 C71 1.398 . S
C71 C36 1.382 . S
C71 H48 0.951 . S
C71 C70 1.398 . S
C72 C73 1.384 . S
C72 H85 0.947 . S
C72 C107 1.382 . S
C73 C72 1.384 . S
C73 C74 1.378 . S
C74 C73 1.378 . S
C74 C75 1.378 . S
C74 H86 0.952 . S
C75 C74 1.378 . S
C75 H87 0.950 . S
C75 C106 1.383 . S
H76 C95 0.947 . S
H77 C96 0.946 . S
H78 C98 0.953 . S
H79 C99 0.945 . S
H80 C101 0.952 . S
H81 C102 0.949 . S
H82 C104 0.950 . S
H83 C105 0.948 . S
H84 C107 0.951 . S
H85 C72 0.947 . S
H86 C74 0.952 . S
H87 C75 0.950 . S
N88 C91 1.382 1_556 S
N88 C93 1.363 . S
N89 C91 1.371 . S
N89 C92 1.372 . S
N90 C92 1.361 . S
N90 C93 1.377 1_554 S
C91 N88 1.382 1_554 S
C91 N89 1.371 . S
C91 C94 1.480 . S
C92 N89 1.372 . S
C92 N90 1.361 . S
C92 C100 1.457 . S
C93 N88 1.363 . S
C93 N90 1.377 1_556 S
C93 C106 1.479 . S
C94 C91 1.480 . S
C94 C95 1.383 1_554 S
C94 C99 1.385 . S
C95 H76 0.947 . S
C95 C94 1.383 1_556 S
C95 C96 1.388 . S
C96 H77 0.946 . S
C96 C95 1.388 . S
C96 C97 1.384 1_556 S
C97 C96 1.384 1_554 S
C97 C98 1.377 . S
C98 H78 0.953 . S
C98 C97 1.377 . S
C98 C99 1.369 . S
C99 H79 0.945 . S
C99 C94 1.385 . S
C99 C98 1.369 . S
C100 C92 1.457 . S
C100 C101 1.372 . S
C100 C105 1.364 . S
C101 H80 0.952 . S
C101 C100 1.372 . S
C101 C102 1.389 . S
C102 H81 0.949 . S
C102 C101 1.389 . S
C102 C103 1.387 . S
C103 C102 1.387 . S
C103 C104 1.372 . S
C104 H82 0.950 . S
C104 C103 1.372 . S
C104 C105 1.379 . S
C105 H83 0.948 . S
C105 C100 1.364 . S
C105 C104 1.379 . S
C106 C75 1.383 . S
C106 C93 1.479 . S
C106 C107 1.398 . S
C107 C72 1.382 . S
C107 H84 0.951 . S
C107 C106 1.398 . S
C108 C109 1.384 . S
C108 H121 0.947 . S
C108 C143 1.382 . S
C109 C108 1.384 . S
C109 C110 1.378 . S
C110 C109 1.378 . S
C110 C111 1.378 . S
C110 H122 0.952 . S
C111 C110 1.378 . S
C111 H123 0.950 . S
C111 C142 1.383 . S
H112 C131 0.947 . S
H113 C132 0.946 . S
H114 C134 0.953 . S
H115 C135 0.945 . S
H116 C137 0.952 . S
H117 C138 0.949 . S
H118 C140 0.950 . S
H119 C141 0.948 . S
H120 C143 0.951 . S
H121 C108 0.947 . S
H122 C110 0.952 . S
H123 C111 0.950 . S
N124 C127 1.382 . S
N124 C129 1.363 . S
N125 C127 1.371 . S
N125 C128 1.372 . S
N126 C128 1.361 . S
N126 C129 1.377 . S
C127 N124 1.382 . S
C127 N125 1.371 . S
C127 C130 1.480 . S
C128 N125 1.372 . S
C128 N126 1.361 . S
C128 C136 1.457 . S
C129 N124 1.363 . S
C129 N126 1.377 . S
C129 C142 1.479 . S
C130 C127 1.480 . S
C130 C131 1.383 . S
C130 C135 1.385 . S
C131 H112 0.947 . S
C131 C130 1.383 . S
C131 C132 1.388 . S
C132 H113 0.946 . S
C132 C131 1.388 . S
C132 C133 1.384 . S
C133 C132 1.384 . S
C133 C134 1.377 . S
C134 H114 0.953 . S
C134 C133 1.377 . S
C134 C135 1.369 . S
C135 H115 0.945 . S
C135 C130 1.385 . S
C135 C134 1.369 . S
C136 C128 1.457 . S
C136 C137 1.372 . S
C136 C141 1.364 . S
C137 H116 0.952 . S
C137 C136 1.372 . S
C137 C138 1.389 . S
C138 H117 0.949 . S
C138 C137 1.389 . S
C138 C139 1.387 . S
C139 C138 1.387 . S
C139 C140 1.372 . S
C140 H118 0.950 . S
C140 C139 1.372 . S
C140 C141 1.379 . S
C141 H119 0.948 . S
C141 C136 1.364 . S
C141 C140 1.379 . S
C142 C111 1.383 . S
C142 C129 1.479 . S
C142 C143 1.398 . S
C143 C108 1.382 . S
C143 H120 0.951 . S
C143 C142 1.398 . S
O144 Zn145 1.953 1_565 S
O144 C160 1.225 . S
Zn145 O144 1.953 1_545 S
Zn145 O146 1.949 1_655 S
Zn145 O152 1.919 . S
Zn145 O157 1.924 . S
O146 Zn145 1.949 1_455 S
O146 Zn147 1.923 . S
O146 Zn148 1.950 1_445 S
O146 Zn149 1.945 . S
Zn147 O146 1.923 . S
Zn147 O150 1.933 . S
Zn147 O153 1.941 . S
Zn147 O154 1.965 1_545 S
Zn148 O146 1.950 1_665 S
Zn148 O155 1.938 1_655 S
Zn148 O156 1.906 1_655 S
Zn148 O166 1.953 . S
Zn149 O146 1.945 . S
Zn149 O151 1.932 . S
Zn149 O158 1.977 1_545 S
Zn149 O159 1.910 1_455 S
O150 Zn147 1.933 . S
O150 C161 1.226 . S
O151 Zn149 1.932 . S
O151 C161 1.307 . S
O152 Zn145 1.919 . S
O152 C163 1.253 . S
O153 Zn147 1.941 . S
O153 C163 1.283 1_455 S
O154 Zn147 1.965 1_565 S
O154 C162 1.303 . S
O155 Zn148 1.938 1_455 S
O155 C162 1.247 . S
O156 Zn148 1.906 1_455 S
O156 C164 1.304 . S
O157 Zn145 1.924 . S
O157 C165 1.311 . S
O158 Zn149 1.977 1_565 S
O158 C164 1.272 . S
O159 Zn149 1.910 1_655 S
O159 C165 1.231 . S
C160 O144 1.225 . S
C160 O166 1.298 . S
C161 O150 1.226 . S
C161 O151 1.307 . S
C162 O154 1.303 . S
C162 O155 1.247 . S
C163 O152 1.253 . S
C163 O153 1.283 1_655 S
C164 O156 1.304 . S
C164 O158 1.272 . S
C165 O157 1.311 . S
C165 O159 1.231 . S
O166 Zn148 1.953 . S
O166 C160 1.298 . S
O167 Zn168 1.953 1_556 S
O167 C183 1.225 1_556 S
Zn168 O167 1.953 1_554 S
Zn168 O169 1.950 . S
Zn168 O175 1.912 1_554 S
Zn168 O180 1.931 . S
O169 Zn168 1.950 . S
O169 Zn170 1.923 1_554 S
O169 Zn171 1.950 . S
O169 Zn172 1.945 . S
Zn170 O169 1.923 1_556 S
Zn170 O173 1.933 . S
Zn170 O176 1.941 . S
Zn170 O177 1.965 . S
Zn171 O169 1.950 . S
Zn171 O178 1.938 1_554 S
Zn171 O179 1.906 . S
Zn171 O189 1.953 . S
Zn172 O169 1.945 . S
Zn172 O174 1.932 . S
Zn172 O181 1.977 . S
Zn172 O182 1.910 . S
O173 Zn170 1.933 . S
O173 C184 1.226 1_556 S
O174 Zn172 1.932 . S
O174 C184 1.307 . S
O175 Zn168 1.912 1_556 S
O175 C186 1.253 . S
O176 Zn170 1.941 . S
O176 C186 1.283 . S
O177 Zn170 1.965 . S
O177 C185 1.303 . S
O178 Zn171 1.938 1_556 S
O178 C185 1.247 . S
O179 Zn171 1.906 . S
O179 C187 1.304 . S
O180 Zn168 1.931 . S
O180 C188 1.311 . S
O181 Zn172 1.977 . S
O181 C187 1.272 . S
O182 Zn172 1.910 . S
O182 C188 1.231 . S
C183 O167 1.225 1_554 S
C183 O189 1.298 . S
C184 O173 1.226 1_554 S
C184 O174 1.307 . S
C185 O177 1.303 . S
C185 O178 1.247 . S
C186 O175 1.253 . S
C186 O176 1.283 . S
C187 O179 1.304 . S
C187 O181 1.272 . S
C188 O180 1.311 . S
C188 O182 1.231 . S
O189 Zn171 1.953 . S
O189 C183 1.298 . S
C190 C191 1.386 . S
C190 C192 1.383 . S
C190 H206 0.951 . S
C191 C190 1.386 . S
C191 C195 1.383 . S
C192 C190 1.383 . S
C192 C193 1.402 . S
C192 H207 0.951 . S
C193 C192 1.402 . S
C193 C194 1.375 . S
C193 C196 1.481 . S
C194 C193 1.375 . S
C194 C195 1.367 . S
C194 H208 0.951 . S
C195 C191 1.383 . S
C195 C194 1.367 . S
C195 H209 0.950 . S
C196 C193 1.481 . S
C196 C197 1.297 . S
C196 H210 0.950 . S
C197 C196 1.297 . S
C197 C198 1.479 . S
C197 H211 0.950 . S
C198 C197 1.479 . S
C198 C199 1.375 . S
C198 C204 1.404 . S
C199 C198 1.375 . S
C199 C200 1.369 . S
C199 H212 0.950 . S
C200 C199 1.369 . S
C200 C201 1.392 . S
C200 H213 0.951 . S
C201 C200 1.392 . S
C201 C203 1.384 . S
H202 C204 0.949 . S
C203 C201 1.384 . S
C203 C204 1.385 . S
C203 H205 0.950 . S
C204 C198 1.404 . S
C204 H202 0.949 . S
C204 C203 1.385 . S
H205 C203 0.950 . S
H206 C190 0.951 . S
H207 C192 0.951 . S
H208 C194 0.951 . S
H209 C195 0.950 . S
H210 C196 0.950 . S
H211 C197 0.950 . S
H212 C199 0.950 . S
H213 C200 0.951 . S
C214 C215 1.386 1_556 S
C214 C216 1.383 . S
C214 H230 0.951 . S
C215 C214 1.386 1_554 S
C215 C219 1.383 . S
C216 C214 1.383 . S
C216 C217 1.402 1_556 S
C216 H231 0.951 . S
C217 C216 1.402 1_554 S
C217 C218 1.375 . S
C217 C220 1.481 . S
C218 C217 1.375 . S
C218 C219 1.367 . S
C218 H232 0.951 . S
C219 C215 1.383 . S
C219 C218 1.367 . S
C219 H233 0.950 . S
C220 C217 1.481 . S
C220 C221 1.297 . S
C220 H234 0.950 . S
C221 C220 1.297 . S
C221 C222 1.479 . S
C221 H235 0.950 1_554 S
C222 C221 1.479 . S
C222 C223 1.375 1_554 S
C222 C228 1.404 . S
C223 C222 1.375 1_556 S
C223 C224 1.369 . S
C223 H236 0.950 . S
C224 C223 1.369 . S
C224 C225 1.392 1_556 S
C224 H237 0.951 . S
C225 C224 1.392 1_554 S
C225 C227 1.384 . S
H226 C228 0.949 . S
C227 C225 1.384 . S
C227 C228 1.385 . S
C227 H229 0.950 . S
C228 C222 1.404 . S
C228 H226 0.949 . S
C228 C227 1.385 . S
H229 C227 0.950 . S
H230 C214 0.951 . S
H231 C216 0.951 . S
H232 C218 0.951 . S
H233 C219 0.950 . S
H234 C220 0.950 . S
H235 C221 0.950 1_556 S
H236 C223 0.950 . S
H237 C224 0.951 . S
C238 C239 1.386 . S
C238 C240 1.383 . S
C238 H254 0.951 . S
C239 C238 1.386 . S
C239 C243 1.383 . S
C240 C238 1.383 . S
C240 C241 1.402 . S
C240 H255 0.951 . S
C241 C240 1.402 . S
C241 C242 1.375 . S
C241 C244 1.481 . S
C242 C241 1.375 . S
C242 C243 1.367 . S
C242 H256 0.951 . S
C243 C239 1.383 . S
C243 C242 1.367 . S
C243 H257 0.950 . S
C244 C241 1.481 . S
C244 C245 1.297 . S
C244 H258 0.950 . S
C245 C244 1.297 . S
C245 C246 1.479 . S
C245 H259 0.950 . S
C246 C245 1.479 . S
C246 C247 1.375 . S
C246 C252 1.404 . S
C247 C246 1.375 . S
C247 C248 1.369 . S
C247 H260 0.950 . S
C248 C247 1.369 . S
C248 C249 1.392 . S
C248 H261 0.951 . S
C249 C248 1.392 . S
C249 C251 1.384 . S
H250 C252 0.949 . S
C251 C249 1.384 . S
C251 C252 1.385 . S
C251 H253 0.950 . S
C252 C246 1.404 . S
C252 H250 0.949 . S
C252 C251 1.385 . S
H253 C251 0.950 . S
H254 C238 0.951 . S
H255 C240 0.951 . S
H256 C242 0.951 . S
H257 C243 0.950 . S
H258 C244 0.950 . S
H259 C245 0.950 . S
H260 C247 0.950 . S
H261 C248 0.951 . S
C262 C263 1.386 1_556 S
C262 C264 1.383 . S
C262 H278 0.951 . S
C263 C262 1.386 1_554 S
C263 C267 1.383 . S
C264 C262 1.383 . S
C264 C265 1.402 1_556 S
C264 H279 0.951 . S
C265 C264 1.402 1_554 S
C265 C266 1.375 . S
C265 C268 1.481 . S
C266 C265 1.375 . S
C266 C267 1.367 . S
C266 H280 0.951 . S
C267 C263 1.383 . S
C267 C266 1.367 . S
C267 H281 0.950 . S
C268 C265 1.481 . S
C268 C269 1.297 . S
C268 H282 0.950 . S
C269 C268 1.297 . S
C269 C270 1.479 . S
C269 H283 0.950 1_554 S
C270 C269 1.479 . S
C270 C271 1.375 1_554 S
C270 C276 1.404 . S
C271 C270 1.375 1_556 S
C271 C272 1.369 . S
C271 H284 0.950 . S
C272 C271 1.369 . S
C272 C273 1.392 1_556 S
C272 H285 0.951 . S
C273 C272 1.392 1_554 S
C273 C275 1.384 . S
H274 C276 0.949 . S
C275 C273 1.384 . S
C275 C276 1.385 . S
C275 H277 0.950 . S
C276 C270 1.404 . S
C276 H274 0.949 . S
C276 C275 1.385 . S
H277 C275 0.950 . S
H278 C262 0.951 . S
H279 C264 0.951 . S
H280 C266 0.951 . S
H281 C267 0.950 . S
H282 C268 0.950 . S
H283 C269 0.950 1_556 S
H284 C271 0.950 . S
H285 C272 0.951 . S
C286 C287 1.386 . S
C286 C288 1.383 . S
C286 H302 0.951 . S
C287 C286 1.386 . S
C287 C291 1.383 . S
C288 C286 1.383 . S
C288 C289 1.402 . S
C288 H303 0.951 . S
C289 C288 1.402 . S
C289 C290 1.375 . S
C289 C292 1.481 . S
C290 C289 1.375 . S
C290 C291 1.367 . S
C290 H304 0.951 . S
C291 C287 1.383 . S
C291 C290 1.367 . S
C291 H305 0.950 . S
C292 C289 1.481 . S
C292 C293 1.297 . S
C292 H306 0.950 . S
C293 C292 1.297 . S
C293 C294 1.479 . S
C293 H307 0.950 . S
C294 C293 1.479 . S
C294 C295 1.375 . S
C294 C300 1.404 . S
C295 C294 1.375 . S
C295 C296 1.369 . S
C295 H308 0.950 . S
C296 C295 1.369 . S
C296 C297 1.392 . S
C296 H309 0.951 . S
C297 C296 1.392 . S
C297 C299 1.384 . S
H298 C300 0.949 . S
C299 C297 1.384 . S
C299 C300 1.385 . S
C299 H301 0.950 . S
C300 C294 1.404 . S
C300 H298 0.949 . S
C300 C299 1.385 . S
H301 C299 0.950 . S
H302 C286 0.951 . S
H303 C288 0.951 . S
H304 C290 0.951 . S
H305 C291 0.950 . S
H306 C292 0.950 . S
H307 C293 0.950 . S
H308 C295 0.950 . S
H309 C296 0.951 . S
C310 C311 1.386 . S
C310 C312 1.383 . S
C310 H326 0.951 . S
C311 C310 1.386 . S
C311 C315 1.383 . S
C312 C310 1.383 . S
C312 C313 1.402 . S
C312 H327 0.951 . S
C313 C312 1.402 . S
C313 C314 1.375 . S
C313 C316 1.481 . S
C314 C313 1.375 . S
C314 C315 1.367 . S
C314 H328 0.951 . S
C315 C311 1.383 . S
C315 C314 1.367 . S
C315 H329 0.950 . S
C316 C313 1.481 . S
C316 C317 1.297 . S
C316 H330 0.950 . S
C317 C316 1.297 . S
C317 C318 1.479 . S
C317 H331 0.950 . S
C318 C317 1.479 . S
C318 C319 1.375 . S
C318 C324 1.404 . S
C319 C318 1.375 . S
C319 C320 1.369 . S
C319 H332 0.950 . S
C320 C319 1.369 . S
C320 C321 1.392 . S
C320 H333 0.951 . S
C321 C320 1.392 . S
C321 C323 1.384 . S
H322 C324 0.949 . S
C323 C321 1.384 . S
C323 C324 1.385 . S
C323 H325 0.950 . S
C324 C318 1.404 . S
C324 H322 0.949 . S
C324 C323 1.385 . S
H325 C323 0.950 . S
H326 C310 0.951 . S
H327 C312 0.951 . S
H328 C314 0.951 . S
H329 C315 0.950 . S
H330 C316 0.950 . S
H331 C317 0.950 . S
H332 C319 0.950 . S
H333 C320 0.951 . S
C334 C335 1.386 . S
C334 C336 1.383 . S
C334 H350 0.951 . S
C335 C334 1.386 . S
C335 C339 1.383 . S
C336 C334 1.383 . S
C336 C337 1.402 . S
C336 H351 0.951 . S
C337 C336 1.402 . S
C337 C338 1.375 . S
C337 C340 1.481 . S
C338 C337 1.375 . S
C338 C339 1.367 . S
C338 H352 0.951 . S
C339 C335 1.383 . S
C339 C338 1.367 . S
C339 H353 0.950 . S
C340 C337 1.481 . S
C340 C341 1.297 . S
C340 H354 0.950 . S
C341 C340 1.297 . S
C341 C342 1.479 . S
C341 H355 0.950 . S
C342 C341 1.479 . S
C342 C343 1.375 . S
C342 C348 1.404 . S
C343 C342 1.375 . S
C343 C344 1.369 . S
C343 H356 0.950 . S
C344 C343 1.369 . S
C344 C345 1.392 . S
C344 H357 0.951 . S
C345 C344 1.392 . S
C345 C347 1.384 . S
H346 C348 0.949 . S
C347 C345 1.384 . S
C347 C348 1.385 . S
C347 H349 0.950 . S
C348 C342 1.404 . S
C348 H346 0.949 . S
C348 C347 1.385 . S
H349 C347 0.950 . S
H350 C334 0.951 . S
H351 C336 0.951 . S
H352 C338 0.951 . S
H353 C339 0.950 . S
H354 C340 0.950 . S
H355 C341 0.950 . S
H356 C343 0.950 . S
H357 C344 0.951 . S
C358 C359 1.386 . S
C358 C360 1.383 . S
C358 H374 0.951 . S
C359 C358 1.386 . S
C359 C363 1.383 . S
C360 C358 1.383 . S
C360 C361 1.402 . S
C360 H375 0.951 . S
C361 C360 1.402 . S
C361 C362 1.375 . S
C361 C364 1.481 . S
C362 C361 1.375 . S
C362 C363 1.367 . S
C362 H376 0.951 . S
C363 C359 1.383 . S
C363 C362 1.367 . S
C363 H377 0.950 . S
C364 C361 1.481 . S
C364 C365 1.297 . S
C364 H378 0.950 . S
C365 C364 1.297 . S
C365 C366 1.479 . S
C365 H379 0.950 . S
C366 C365 1.479 . S
C366 C367 1.375 . S
C366 C372 1.404 . S
C367 C366 1.375 . S
C367 C368 1.369 . S
C367 H380 0.950 . S
C368 C367 1.369 . S
C368 C369 1.392 . S
C368 H381 0.951 . S
C369 C368 1.392 . S
C369 C371 1.384 . S
H370 C372 0.949 . S
C371 C369 1.384 . S
C371 C372 1.385 . S
C371 H373 0.950 . S
C372 C366 1.404 . S
C372 H370 0.949 . S
C372 C371 1.385 . S
H373 C371 0.950 . S
H374 C358 0.951 . S
H375 C360 0.951 . S
H376 C362 0.951 . S
H377 C363 0.950 . S
H378 C364 0.950 . S
H379 C365 0.950 . S
H380 C367 0.950 . S
H381 C368 0.951 . S
C382 C383 1.386 . S
C382 C384 1.383 . S
C382 H398 0.951 . S
C383 C382 1.386 . S
C383 C387 1.383 . S
C384 C382 1.383 . S
C384 C385 1.402 . S
C384 H399 0.951 . S
C385 C384 1.402 . S
C385 C386 1.375 . S
C385 C388 1.481 . S
C386 C385 1.375 . S
C386 C387 1.367 . S
C386 H400 0.951 . S
C387 C383 1.383 . S
C387 C386 1.367 . S
C387 H401 0.950 . S
C388 C385 1.481 . S
C388 C389 1.297 . S
C388 H402 0.950 . S
C389 C388 1.297 . S
C389 C390 1.479 . S
C389 H403 0.950 . S
C390 C389 1.479 . S
C390 C391 1.375 . S
C390 C396 1.404 . S
C391 C390 1.375 . S
C391 C392 1.369 . S
C391 H404 0.950 . S
C392 C391 1.369 . S
C392 C393 1.392 . S
C392 H405 0.951 . S
C393 C392 1.392 . S
C393 C395 1.384 . S
H394 C396 0.949 . S
C395 C393 1.384 . S
C395 C396 1.385 . S
C395 H397 0.950 . S
C396 C390 1.404 . S
C396 H394 0.949 . S
C396 C395 1.385 . S
H397 C395 0.950 . S
H398 C382 0.951 . S
H399 C384 0.951 . S
H400 C386 0.951 . S
H401 C387 0.950 . S
H402 C388 0.950 . S
H403 C389 0.950 . S
H404 C391 0.950 . S
H405 C392 0.951 . S
C406 C407 1.386 . S
C406 C408 1.383 . S
C406 H422 0.951 . S
C407 C406 1.386 . S
C407 C411 1.383 . S
C408 C406 1.383 . S
C408 C409 1.402 . S
C408 H423 0.951 . S
C409 C408 1.402 . S
C409 C410 1.375 . S
C409 C412 1.481 . S
C410 C409 1.375 . S
C410 C411 1.367 . S
C410 H424 0.951 . S
C411 C407 1.383 . S
C411 C410 1.367 . S
C411 H425 0.950 . S
C412 C409 1.481 . S
C412 C413 1.297 . S
C412 H426 0.950 . S
C413 C412 1.297 . S
C413 C414 1.479 . S
C413 H427 0.950 . S
C414 C413 1.479 . S
C414 C415 1.375 . S
C414 C420 1.404 . S
C415 C414 1.375 . S
C415 C416 1.369 . S
C415 H428 0.950 . S
C416 C415 1.369 . S
C416 C417 1.392 . S
C416 H429 0.951 . S
C417 C416 1.392 . S
C417 C419 1.384 . S
H418 C420 0.949 . S
C419 C417 1.384 . S
C419 C420 1.385 . S
C419 H421 0.950 . S
C420 C414 1.404 . S
C420 H418 0.949 . S
C420 C419 1.385 . S
H421 C419 0.950 . S
H422 C406 0.951 . S
H423 C408 0.951 . S
H424 C410 0.951 . S
H425 C411 0.950 . S
H426 C412 0.950 . S
H427 C413 0.950 . S
H428 C415 0.950 . S
H429 C416 0.951 . S
C430 C431 1.386 . S
C430 C432 1.383 . S
C430 H446 0.951 . S
C431 C430 1.386 . S
C431 C435 1.383 . S
C432 C430 1.383 . S
C432 C433 1.402 . S
C432 H447 0.951 . S
C433 C432 1.402 . S
C433 C434 1.375 . S
C433 C436 1.481 . S
C434 C433 1.375 . S
C434 C435 1.367 . S
C434 H448 0.951 . S
C435 C431 1.383 . S
C435 C434 1.367 . S
C435 H449 0.950 . S
C436 C433 1.481 . S
C436 C437 1.297 . S
C436 H450 0.950 . S
C437 C436 1.297 . S
C437 C438 1.479 . S
C437 H451 0.950 . S
C438 C437 1.479 . S
C438 C439 1.375 . S
C438 C444 1.404 . S
C439 C438 1.375 . S
C439 C440 1.369 . S
C439 H452 0.950 . S
C440 C439 1.369 . S
C440 C441 1.392 . S
C440 H453 0.951 . S
C441 C440 1.392 . S
C441 C443 1.384 . S
H442 C444 0.949 . S
C443 C441 1.384 . S
C443 C444 1.385 . S
C443 H445 0.950 . S
C444 C438 1.404 . S
C444 H442 0.949 . S
C444 C443 1.385 . S
H445 C443 0.950 . S
H446 C430 0.951 . S
H447 C432 0.951 . S
H448 C434 0.951 . S
H449 C435 0.950 . S
H450 C436 0.950 . S
H451 C437 0.950 . S
H452 C439 0.950 . S
H453 C440 0.951 . S
C454 C455 1.386 . S
C454 C456 1.383 . S
C454 H470 0.951 . S
C455 C454 1.386 . S
C455 C459 1.383 . S
C456 C454 1.383 . S
C456 C457 1.402 . S
C456 H471 0.951 . S
C457 C456 1.402 . S
C457 C458 1.375 . S
C457 C460 1.481 . S
C458 C457 1.375 . S
C458 C459 1.367 . S
C458 H472 0.951 . S
C459 C455 1.383 . S
C459 C458 1.367 . S
C459 H473 0.950 . S
C460 C457 1.481 . S
C460 C461 1.297 . S
C460 H474 0.950 . S
C461 C460 1.297 . S
C461 C462 1.479 . S
C461 H475 0.950 . S
C462 C461 1.479 . S
C462 C463 1.375 . S
C462 C468 1.404 . S
C463 C462 1.375 . S
C463 C464 1.369 . S
C463 H476 0.952 . S
C464 C463 1.369 . S
C464 C465 1.392 . S
C464 H477 0.951 1_455 S
C465 C464 1.392 . S
C465 C467 1.384 . S
H466 C468 0.949 . S
C467 C465 1.384 . S
C467 C468 1.385 . S
C467 H469 0.950 . S
C468 C462 1.404 . S
C468 H466 0.949 . S
C468 C467 1.385 . S
H469 C467 0.950 . S
H470 C454 0.951 . S
H471 C456 0.951 . S
H472 C458 0.951 . S
H473 C459 0.950 . S
H474 C460 0.950 . S
H475 C461 0.950 . S
H476 C463 0.952 . S
H477 C464 0.951 1_655 S
C201 C161 1.612 . S
C191 C133 1.640 . S
C215 C25 1.571 . S
C225 C184 1.640 . S
C239 C61 1.603 . S
C249 C160 1.628 . S
C263 C97 1.638 . S
C273 C183 1.658 . S
C297 C164 1.635 . S
C287 C1 1.579 . S
C321 C186 1.600 . S
C311 C67 1.624 . S
C335 C103 1.667 . S
C345 C165 1.543 . S
C359 C109 1.607 . S
C369 C185 1.613 . S
C393 C188 1.636 . S
C383 C37 1.610 . S
C417 C163 1.584 . S
C407 C73 1.649 . S
C441 C187 1.574 . S
C431 C139 1.649 . S
C455 C31 1.564 . S
C465 C162 1.584 . S
