# Generated by pormake.
# Topology zzz, (3,6)-cn, num edge types: 1
# Building blocks:
#     Node 0, Type 0, BuildingBlock: QEWDON_clean_linker_0, # of connection points: 3
#     Node 1, Type 0, BuildingBlock: QEWDON_clean_linker_0, # of connection points: 3
#     Node 2, Type 0, BuildingBlock: QEWDON_clean_linker_0, # of connection points: 3
#     Node 3, Type 0, BuildingBlock: QEWDON_clean_linker_0, # of connection points: 3
#     Node 4, Type 0, BuildingBlock: QEWDON_clean_linker_0, # of connection points: 3
#     Node 5, Type 0, BuildingBlock: QEWDON_clean_linker_0, # of connection points: 3
#     Node 6, Type 0, BuildingBlock: QEWDON_clean_linker_0, # of connection points: 3
#     Node 7, Type 0, BuildingBlock: QEWDON_clean_linker_0, # of connection points: 3
#     Node 8, Type 1, BuildingBlock: JUFBIX_clean_sbu_0, # of connection points: 6
#     Node 9, Type 1, BuildingBlock: JUFBIX_clean_sbu_0, # of connection points: 6
#     Node 10, Type 1, BuildingBlock: JUFBIX_clean_sbu_0, # of connection points: 6
#     Node 11, Type 1, BuildingBlock: JUFBIX_clean_sbu_0, # of connection points: 6
#     Edge 12, Type (0, 1), None
#     Edge 13, Type (0, 1), None
#     Edge 14, Type (0, 1), None
#     Edge 15, Type (0, 1), None
#     Edge 16, Type (0, 1), None
#     Edge 17, Type (0, 1), None
#     Edge 18, Type (0, 1), None
#     Edge 19, Type (0, 1), None
#     Edge 20, Type (0, 1), None
#     Edge 21, Type (0, 1), None
#     Edge 22, Type (0, 1), None
#     Edge 23, Type (0, 1), None
#     Edge 24, Type (0, 1), None
#     Edge 25, Type (0, 1), None
#     Edge 26, Type (0, 1), None
#     Edge 27, Type (0, 1), None
#     Edge 28, Type (0, 1), None
#     Edge 29, Type (0, 1), None
#     Edge 30, Type (0, 1), None
#     Edge 31, Type (0, 1), None
#     Edge 32, Type (0, 1), None
#     Edge 33, Type (0, 1), None
#     Edge 34, Type (0, 1), None
#     Edge 35, Type (0, 1), None
# Relax obj value: 0.092
# Max RMSD: 0.166
# Mean RMSD: 0.079
data_MOF--net-zzz--node1-JUFBIX_clean_sbu_0--node2-QEWDON_clean_linker_0--edge1-none
_symmetry_space_group_name_H-M    P1
_symmetry_Int_Tables_number       1
_symmetry_cell_setting            triclinic
loop_
_symmetry_equiv_pos_as_xyz
'x, y, z'
_cell_length_a     26.118423
_cell_length_b     25.598334
_cell_length_c     8.819159
_cell_angle_alpha  71.330159
_cell_angle_beta   88.153747
_cell_angle_gamma 88.864943
loop_
_atom_site_label
_atom_site_type_symbol
_atom_site_fract_x
_atom_site_fract_y
_atom_site_fract_z
_atom_type_partial_charge
H0 H 0.8761 0.53315 0.1271 0.0
C1 C 0.89004 0.52508 0.24686 0.0
C2 C 0.93867 0.50093 0.27835 0.0
C3 C 0.86289 0.54585 0.35586 0.0
H4 H 0.99867 0.47933 0.4521 0.0
C5 C 0.95998 0.49528 0.42895 0.0
C6 C 0.93397 0.51687 0.54099 0.0
C7 C 0.88532 0.5411 0.5035 0.0
C8 C 0.81438 0.57816 0.30443 0.0
H9 H 0.86573 0.5572 0.5893 0.0
C10 C 0.78417 0.5689 0.18519 0.0
C11 C 0.74169 0.60251 0.12497 0.0
C12 C 0.79955 0.62112 0.365 0.0
H13 H 0.82191 0.63123 0.45259 0.0
C14 C 0.75609 0.65329 0.30918 0.0
H15 H 0.79263 0.53508 0.13956 0.0
C16 C 0.72731 0.64411 0.18991 0.0
H17 H 0.69409 0.66983 0.14659 0.0
H18 H 0.74513 0.68609 0.35686 0.0
H19 H 1.02248 0.87717 0.05411 0.0
C20 C 1.03035 0.87186 0.17815 0.0
C21 C 0.05996 0.91109 0.21617 0.0
C22 C 1.0072 0.82837 0.29942 0.0
H23 H 0.09493 0.93403 0.39663 0.0
C24 C 0.07073 0.90415 0.37046 0.0
C25 C 0.04497 0.8646 0.49339 0.0
C26 C 1.01257 0.8265 0.46006 0.0
C27 C 0.97523 0.78859 0.25287 0.0
H28 H 0.9918 0.7967 0.55599 0.0
C29 C 0.99203 0.76892 0.12702 0.0
C30 C 0.96094 0.73475 0.07123 0.0
C31 C 0.92687 0.77289 0.32508 0.0
H32 H 0.9125 0.78794 0.42013 0.0
C33 C 0.89569 0.73917 0.27086 0.0
H34 H 1.02994 0.77976 0.07485 0.0
C35 C 0.91236 0.72034 0.14498 0.0
H36 H 0.88702 0.69472 0.1052 0.0
H37 H 0.85811 0.72809 0.32565 0.0
H38 H 0.73817 1.00612 0.91178 0.0
C39 C 0.73546 1.0178 0.01965 0.0
C40 C 0.68702 1.0289 0.07746 0.0
C41 C 0.78031 1.01977 0.10389 0.0
H42 H 0.64584 0.05151 0.25756 0.0
C43 C 0.68324 1.04154 0.21632 0.0
C44 C 0.72634 0.04956 0.29345 0.0
C45 C 0.77576 1.0383 0.23948 0.0
C46 C 0.82802 0.99315 0.06242 0.0
H47 H 0.80931 1.04209 0.30401 0.0
C48 C 0.87478 1.02123 0.00342 0.0
C49 C 0.91549 0.99388 0.94618 0.0
C50 C 0.824 0.93762 0.07047 0.0
H51 H 0.78912 0.915 0.11615 0.0
C52 C 0.86393 0.91075 0.0172 0.0
H53 H 0.87875 0.0639 -0.00275 0.0
C54 C 0.90877 0.93862 0.95385 0.0
H55 H 0.93896 0.91599 0.91415 0.0
H56 H 0.85994 0.86803 0.02393 0.0
H57 H 0.53604 0.73964 0.9316 0.0
C58 C 0.5302 0.72226 0.06034 0.0
C59 C 0.51159 0.66845 0.12418 0.0
C60 C 0.54731 0.75154 0.15902 0.0
H61 H 0.49066 0.60446 0.34351 0.0
C62 C 0.50627 0.64528 0.29319 0.0
C63 C 0.52579 0.67206 0.39774 0.0
C64 C 0.54711 0.72522 0.32762 0.0
C65 C 0.57784 0.80217 0.07907 0.0
H66 H 0.56455 0.74553 0.40327 0.0
C67 C 0.5552 0.85454 0.00014 0.0
C68 C 0.58557 0.89841 0.89938 0.0
C69 C 0.63065 0.79489 0.05873 0.0
H70 H 0.64867 0.75531 0.11599 0.0
C71 C 0.66034 0.8374 0.95883 0.0
H72 H 0.51452 0.86091 0.01615 0.0
C73 C 0.63809 0.88831 0.87877 0.0
H74 H 0.66288 0.92073 0.80625 0.0
H75 H 0.70098 0.83086 0.94327 0.0
H76 H 0.184 0.5778 0.57844 0.0
C77 C 0.16756 0.56973 0.47693 0.0
C78 C 0.11472 0.56593 0.47454 0.0
C79 C 0.1991 0.56302 0.35242 0.0
H80 H 0.05113 0.5547 0.33813 0.0
C81 C 0.09232 0.55691 0.34135 0.0
C82 C 0.12292 0.54936 0.21408 0.0
C83 C 0.17655 0.55219 0.22138 0.0
C84 C 0.25517 0.57059 0.35947 0.0
H85 H 0.20043 0.54677 0.12468 0.0
C86 C 0.2799 0.55405 0.5084 0.0
C87 C 0.33066 0.56909 0.51919 0.0
C88 C 0.28297 0.60026 0.22062 0.0
H89 H 0.265 0.61448 0.10538 0.0
C90 C 0.33359 0.61475 0.2304 0.0
H91 H 0.25969 0.52997 0.61657 0.0
C92 C 0.35716 0.59974 0.37797 0.0
H93 H 0.39584 0.61343 0.38157 0.0
H94 H 0.35437 0.63886 0.12346 0.0
H95 H 0.08237 0.2041 0.62012 0.0
C96 C 0.07769 0.20692 0.49634 0.0
C97 C 0.06249 0.15978 0.46044 0.0
C98 C 0.08942 0.2565 0.37438 0.0
H99 H 0.04556 0.12541 0.2818 0.0
C100 C 0.05923 0.16155 0.30648 0.0
C101 C 0.07545 0.20749 0.1825 0.0
C102 C 0.08922 0.25608 0.2135 0.0
C103 C 0.10362 0.30622 0.41977 0.0
H104 H 0.09903 0.29232 0.11433 0.0
C105 C 0.08492 0.31325 0.56545 0.0
C106 C 0.10078 0.35744 0.61581 0.0
C107 C 0.13747 0.34582 0.32244 0.0
H108 H 0.15338 0.34211 0.21154 0.0
C109 C 0.15251 0.39034 0.36904 0.0
H110 H 0.0577 0.2844 0.6403 0.0
C111 C 0.13469 0.39611 0.51393 0.0
H112 H 0.14689 0.43173 0.54321 0.0
H113 H 0.17846 0.42059 0.29236 0.0
H114 H 0.39237 0.09104 0.75253 0.0
C115 C 0.39344 0.08652 0.63432 0.0
C116 C 0.44015 0.09456 0.54661 0.0
C117 C 0.35078 0.06398 0.58386 0.0
H118 H 0.47687 0.10235 0.3245 0.0
C119 C 0.44073 0.09429 0.3914 0.0
C120 C 0.40195 0.06739 0.34097 0.0
C121 C 0.35625 0.05215 0.43719 0.0
C122 C 0.30844 1.04148 0.70727 0.0
H123 H 0.32765 1.02786 0.40476 0.0
C124 C 0.2554 0.05456 0.68236 0.0
C125 C 0.21954 1.03967 0.81469 0.0
C126 C 0.32335 1.0101 0.86267 0.0
H127 H 0.363 0.99774 0.88636 0.0
C128 C 0.28834 0.99591 0.99109 0.0
H129 H 0.24249 0.07735 0.56372 0.0
C130 C 0.23714 1.0113 0.96801 0.0
H131 H 0.21063 0.99888 0.07006 0.0
H132 H 0.30107 0.97286 0.1097 0.0
H133 H 0.56636 0.39048 0.77738 0.0
C134 C 0.56009 0.40825 0.64987 0.0
C135 C 0.55181 0.46472 0.58726 0.0
C136 C 0.5644 0.37474 0.55096 0.0
H137 H 0.53799 0.53223 0.37307 0.0
C138 C 0.54317 0.48832 0.42197 0.0
C139 C 0.54278 0.45624 0.31761 0.0
C140 C 0.55516 0.39879 0.3835 0.0
C141 C 0.58847 0.31902 0.62852 0.0
H142 H 0.55978 0.3739 0.30511 0.0
C143 C 0.56228 0.26804 0.66473 0.0
C144 C 0.58294 0.21925 0.77641 0.0
C145 C 0.63628 0.31898 0.69839 0.0
H146 H 0.65747 0.35695 0.67336 0.0
C147 C 0.6558 0.2716 0.80928 0.0
H148 H 0.52637 0.26637 0.60843 0.0
C149 C 0.62908 0.22241 0.84974 0.0
H150 H 0.64628 0.18565 0.93151 0.0
H151 H 0.69205 0.273 0.86394 0.0
Co152 Co 0.06164 0.06106 0.91496 0.0
C153 C 0.9668 1.01863 0.88691 0.0
Co154 Co 0.06734 1.00892 0.76387 0.0
C155 C 0.09222 0.15495 0.00896 0.0
C156 C 1.0149 0.1585 0.93911 0.0
N157 N 0.0561 0.12436 0.97265 0.0
N158 N 0.07277 0.20239 0.02714 0.0
C159 C 1.02541 0.2063 0.96841 0.0
H160 H 0.12951 0.13822 0.05079 0.0
H161 H 0.97884 0.14948 0.89669 0.0
C162 C 0.16298 1.04652 0.79952 0.0
N163 N 0.07141 0.94704 0.70186 0.0
C164 C 0.03363 0.92092 0.65608 0.0
C165 C 0.10942 0.90905 0.74302 0.0
N166 N 0.04864 0.87109 0.64629 0.0
C167 C 0.09506 0.86233 0.71308 0.0
C168 C 0.05536 0.10723 0.58451 0.0
O169 O 0.13664 0.06799 0.88967 0.0
O170 O 0.13971 1.01847 0.72898 0.0
O171 O 0.05797 0.06055 0.56079 0.0
O172 O 0.055 0.10961 0.72291 0.0
O173 O 0.99456 0.99822 0.79865 0.0
H174 H 0.14533 0.91468 0.79324 0.0
H175 H 0.99852 0.94161 0.60584 0.0
O176 O 0.98766 0.05159 0.94624 0.0
O177 O 0.06827 1.00933 0.11902 0.0
O178 O 0.07658 0.95998 0.95727 0.0
C179 C 0.07311 0.96267 0.09571 0.0
H180 H 0.99632 0.23563 0.97976 0.0
H181 H 0.12066 0.82847 0.71339 0.0
Co182 Co 0.53974 0.05205 0.91594 0.0
C183 C 0.56689 0.95693 0.83582 0.0
Co184 Co 0.59028 0.06842 0.70128 0.0
C185 C 0.45021 0.0662 0.10129 0.0
C186 C 0.48286 0.98581 0.19615 0.0
N187 N 0.49081 1.03497 0.08316 0.0
N188 N 0.4191 1.0403 0.22864 0.0
C189 C 0.43903 0.98885 0.28381 0.0
H190 H 0.4468 0.10964 0.03409 0.0
H191 H 0.50822 0.95041 0.21749 0.0
C192 C 0.56735 0.16293 0.78577 0.0
N193 N 0.64112 0.08466 0.54 0.0
C194 C 0.68058 0.05073 0.53009 0.0
C195 C 0.65541 0.1342 0.4392 0.0
N196 N 0.71606 0.07488 0.41429 0.0
C197 C 0.70141 0.12851 0.36525 0.0
C198 C 0.489 0.0856 0.63109 0.0
O199 O 0.54393 0.12994 0.90773 0.0
O200 O 0.58993 0.1431 0.68763 0.0
O201 O 0.53273 0.08415 0.56155 0.0
O202 O 0.4859 0.07073 0.78154 0.0
O203 O 0.59105 0.99132 0.71938 0.0
H204 H 0.63345 0.17202 0.41736 0.0
H205 H 0.68003 1.00679 0.59168 0.0
O206 O 0.53764 0.97574 0.92408 0.0
O207 O 0.59599 1.03318 0.05308 0.0
O208 O 0.64484 0.05381 0.83614 0.0
C209 C 0.6404 1.03608 0.98587 0.0
H210 H 0.42728 0.95803 0.39506 0.0
H211 H 0.71787 0.15978 0.2622 0.0
Co212 Co 0.57338 0.57137 0.85086 0.0
C213 C 0.53648 0.48664 0.1398 0.0
Co214 Co 0.49016 0.55775 0.86678 0.0
C215 C 0.66044 0.59051 0.00515 0.0
C216 C 0.6847 0.57858 0.78446 0.0
N217 N 0.64246 0.58176 0.87353 0.0
N218 N 0.71167 0.59317 0.00256 0.0
C219 C 0.72761 0.58536 0.86448 0.0
H220 H 0.63653 0.59292 0.10532 0.0
H221 H 0.68443 0.57091 0.67077 0.0
C222 C 0.52928 0.64076 0.57564 0.0
N223 N 0.4209 0.54803 0.8369 0.0
C224 C 0.40615 0.5484 0.69104 0.0
C225 C 0.37669 0.55172 0.91621 0.0
N226 N 0.35543 0.55468 0.67165 0.0
C227 C 0.33615 0.55583 0.81445 0.0
C228 C 0.51382 0.63283 0.01787 0.0
O229 O 0.57243 0.63006 0.64336 0.0
O230 O 0.49001 0.61672 0.65542 0.0
O231 O 0.47474 0.6102 0.9832 0.0
O232 O 0.55748 0.62354 0.96323 0.0
O233 O 0.49221 0.49869 0.0777 0.0
H234 H 0.37434 0.55525 0.03498 0.0
H235 H 0.43278 0.54833 0.59463 0.0
O236 O 0.57496 0.51209 0.05865 0.0
O237 O 0.58792 0.51988 0.73444 0.0
O238 O 0.50531 0.50581 0.75549 0.0
C239 C 0.54871 0.49802 0.69795 0.0
H240 H 0.76718 0.58485 0.82434 0.0
H241 H 0.29636 0.56349 0.83956 0.0
Co242 Co 1.01759 0.57554 0.84477 0.0
C243 C 0.09754 0.54153 0.07286 0.0
Co244 Co 0.04012 0.48686 0.91494 0.0
C245 C 0.96651 0.66469 0.92705 0.0
C246 C 1.03257 0.69105 0.77448 0.0
N247 N 0.99952 0.64884 0.82721 0.0
N248 N 0.97948 0.71308 0.94598 0.0
C249 C 1.02071 0.72988 0.8479 0.0
H250 H 0.93729 0.63828 0.00038 0.0
H251 H 0.0673 0.69047 0.70498 0.0
C252 C 0.96082 0.52207 0.6835 0.0
N253 N 0.05865 0.41336 0.93069 0.0
C254 C 0.09543 0.40186 0.83316 0.0
C255 C 1.02175 0.37636 0.93844 0.0
N256 N 0.08022 0.36482 0.76343 0.0
C257 C 0.03418 0.34788 0.83335 0.0
C258 C 0.97115 0.50403 0.13311 0.0
O259 O 0.96388 0.56876 0.70641 0.0
O260 O 0.98719 0.48184 0.76966 0.0
O261 O 0.99452 0.46341 0.10638 0.0
O262 O 0.97459 0.55122 0.02871 0.0
O263 O 0.09344 0.49381 0.05692 0.0
H264 H 0.98377 0.37799 0.98947 0.0
H265 H 0.12979 0.426 0.79647 0.0
O266 O 0.07118 0.58137 0.98441 0.0
O267 O 0.0614 0.59876 0.65534 0.0
O268 O 0.0841 0.5118 0.72915 0.0
C269 C 0.08534 0.55928 0.6257 0.0
H270 H 0.04354 0.76529 0.83935 0.0
H271 H 1.00771 0.3232 0.79435 0.0
loop_
_geom_bond_atom_site_label_1
_geom_bond_atom_site_label_2
_geom_bond_distance
_geom_bond_site_symmetry_2
_ccdc_geom_bond_type
H0 C1 0.949 . S
C1 H0 0.949 . S
C1 C2 1.395 . S
C1 C3 1.391 . S
C2 C1 1.395 . S
C2 C5 1.390 . S
C3 C1 1.391 . S
C3 C7 1.387 . S
C3 C8 1.491 . S
H4 C5 0.955 . S
C5 C2 1.390 . S
C5 H4 0.955 . S
C5 C6 1.378 . S
C6 C5 1.378 . S
C6 C7 1.409 . S
C7 C3 1.387 . S
C7 C6 1.409 . S
C7 H9 0.951 . S
C8 C3 1.491 . S
C8 C10 1.382 . S
C8 C12 1.404 . S
H9 C7 0.951 . S
C10 C8 1.382 . S
C10 C11 1.390 . S
C10 H15 0.949 . S
C11 C10 1.390 . S
C11 C16 1.399 . S
C12 C8 1.404 . S
C12 H13 0.950 . S
C12 C14 1.375 . S
H13 C12 0.950 . S
C14 C12 1.375 . S
C14 C16 1.382 . S
C14 H18 0.950 . S
H15 C10 0.949 . S
C16 C11 1.399 . S
C16 C14 1.382 . S
C16 H17 0.952 . S
H17 C16 0.952 . S
H18 C14 0.950 . S
H19 C20 0.949 . S
C20 H19 0.949 . S
C20 C21 1.395 . S
C20 C22 1.391 1_556 S
C21 C20 1.395 . S
C21 C24 1.390 1_556 S
C22 C20 1.391 1_554 S
C22 C26 1.387 . S
C22 C27 1.491 . S
H23 C24 0.950 . S
C24 C21 1.390 1_554 S
C24 H23 0.950 . S
C24 C25 1.378 . S
C25 C24 1.378 . S
C25 C26 1.409 . S
C26 C22 1.387 . S
C26 C25 1.409 . S
C26 H28 0.951 . S
C27 C22 1.491 . S
C27 C29 1.382 1_554 S
C27 C31 1.404 . S
H28 C26 0.951 . S
C29 C27 1.382 1_556 S
C29 C30 1.390 . S
C29 H34 0.949 . S
C30 C29 1.390 . S
C30 C35 1.399 1_556 S
C31 C27 1.404 . S
C31 H32 0.950 . S
C31 C33 1.375 . S
H32 C31 0.950 . S
C33 C31 1.375 . S
C33 C35 1.382 . S
C33 H37 0.950 . S
H34 C29 0.949 . S
C35 C30 1.399 1_554 S
C35 C33 1.382 . S
C35 H36 0.952 . S
H36 C35 0.952 . S
H37 C33 0.950 . S
H38 C39 0.949 . S
C39 H38 0.949 . S
C39 C40 1.398 . S
C39 C41 1.391 1_556 S
C40 C39 1.398 . S
C40 C43 1.384 1_566 S
C41 C39 1.391 1_554 S
C41 C45 1.387 . S
C41 C46 1.491 . S
H42 C43 0.950 . S
C43 C40 1.384 1_544 S
C43 H42 0.950 . S
C43 C44 1.378 1_545 S
C44 C43 1.378 1_565 S
C44 C45 1.409 . S
C45 C41 1.387 . S
C45 C44 1.409 . S
C45 H47 0.951 . S
C46 C41 1.491 . S
C46 C48 1.382 1_554 S
C46 C50 1.404 . S
H47 C45 0.951 . S
C48 C46 1.382 1_556 S
C48 C49 1.390 . S
C48 H53 0.949 1_565 S
C49 C48 1.390 . S
C49 C54 1.399 1_556 S
C50 C46 1.404 . S
C50 H51 0.950 . S
C50 C52 1.375 . S
H51 C50 0.950 . S
C52 C50 1.375 . S
C52 C54 1.382 . S
C52 H56 0.950 . S
H53 C48 0.949 1_545 S
C54 C49 1.399 1_554 S
C54 C52 1.382 . S
C54 H55 0.952 . S
H55 C54 0.952 . S
H56 C52 0.950 . S
H57 C58 0.949 1_556 S
C58 H57 0.949 1_554 S
C58 C59 1.395 . S
C58 C60 1.391 . S
C59 C58 1.395 . S
C59 C62 1.390 . S
C60 C58 1.391 . S
C60 C64 1.387 . S
C60 C65 1.491 . S
H61 C62 0.950 . S
C62 C59 1.390 . S
C62 H61 0.950 . S
C62 C63 1.378 . S
C63 C62 1.378 . S
C63 C64 1.409 . S
C64 C60 1.387 . S
C64 C63 1.409 . S
C64 H66 0.951 . S
C65 C60 1.491 . S
C65 C67 1.382 . S
C65 C69 1.404 . S
H66 C64 0.951 . S
C67 C65 1.382 . S
C67 C68 1.390 . S
C67 H72 0.949 1_554 S
C68 C67 1.390 . S
C68 C73 1.399 . S
C69 C65 1.404 . S
C69 H70 0.950 . S
C69 C71 1.375 . S
H70 C69 0.950 . S
C71 C69 1.375 . S
C71 C73 1.382 . S
C71 H75 0.950 . S
H72 C67 0.949 1_556 S
C73 C68 1.399 . S
C73 C71 1.382 . S
C73 H74 0.952 . S
H74 C73 0.952 . S
H75 C71 0.950 . S
H76 C77 0.949 . S
C77 H76 0.949 . S
C77 C78 1.395 . S
C77 C79 1.391 . S
C78 C77 1.395 . S
C78 C81 1.390 . S
C79 C77 1.391 . S
C79 C83 1.387 . S
C79 C84 1.491 . S
H80 C81 0.950 . S
C81 C78 1.390 . S
C81 H80 0.950 . S
C81 C82 1.378 . S
C82 C81 1.378 . S
C82 C83 1.409 . S
C83 C79 1.387 . S
C83 C82 1.409 . S
C83 H85 0.951 . S
C84 C79 1.491 . S
C84 C86 1.382 . S
C84 C88 1.404 . S
H85 C83 0.951 . S
C86 C84 1.382 . S
C86 C87 1.390 . S
C86 H91 0.949 . S
C87 C86 1.390 . S
C87 C92 1.399 . S
C88 C84 1.404 . S
C88 H89 0.950 . S
C88 C90 1.375 . S
H89 C88 0.950 . S
C90 C88 1.375 . S
C90 C92 1.382 . S
C90 H94 0.950 . S
H91 C86 0.949 . S
C92 C87 1.399 . S
C92 C90 1.382 . S
C92 H93 0.952 . S
H93 C92 0.952 . S
H94 C90 0.950 . S
H95 C96 0.949 . S
C96 H95 0.949 . S
C96 C97 1.395 . S
C96 C98 1.391 . S
C97 C96 1.395 . S
C97 C100 1.390 . S
C98 C96 1.391 . S
C98 C102 1.387 . S
C98 C103 1.491 . S
H99 C100 0.950 . S
C100 C97 1.390 . S
C100 H99 0.950 . S
C100 C101 1.378 . S
C101 C100 1.378 . S
C101 C102 1.409 . S
C102 C98 1.387 . S
C102 C101 1.409 . S
C102 H104 0.951 . S
C103 C98 1.491 . S
C103 C105 1.382 . S
C103 C107 1.404 . S
H104 C102 0.951 . S
C105 C103 1.382 . S
C105 C106 1.390 . S
C105 H110 0.949 . S
C106 C105 1.390 . S
C106 C111 1.399 . S
C107 C103 1.404 . S
C107 H108 0.950 1_455 S
C107 C109 1.375 1_455 S
H108 C107 0.950 1_655 S
C109 C107 1.375 1_655 S
C109 C111 1.382 1_655 S
C109 H113 0.950 . S
H110 C105 0.949 . S
C111 C106 1.399 . S
C111 C109 1.382 1_455 S
C111 H112 0.952 . S
H112 C111 0.952 . S
H113 C109 0.950 . S
H114 C115 0.949 . S
C115 H114 0.949 . S
C115 C116 1.392 1_565 S
C115 C117 1.391 . S
C116 C115 1.392 1_545 S
C116 C119 1.387 . S
C117 C115 1.391 . S
C117 C121 1.387 . S
C117 C122 1.491 . S
H118 C119 0.950 . S
C119 C116 1.387 . S
C119 H118 0.950 . S
C119 C120 1.380 . S
C120 C119 1.380 . S
C120 C121 1.409 1_545 S
C121 C117 1.387 . S
C121 C120 1.409 1_565 S
C121 H123 0.951 . S
C122 C117 1.491 . S
C122 C124 1.382 . S
C122 C126 1.404 . S
H123 C121 0.951 . S
C124 C122 1.382 . S
C124 C125 1.390 . S
C124 H129 0.949 1_565 S
C125 C124 1.390 . S
C125 C130 1.399 . S
C126 C122 1.404 . S
C126 H127 0.950 . S
C126 C128 1.375 . S
H127 C126 0.950 . S
C128 C126 1.375 . S
C128 C130 1.382 . S
C128 H132 0.950 . S
H129 C124 0.949 1_545 S
C130 C125 1.399 . S
C130 C128 1.382 . S
C130 H131 0.952 . S
H131 C130 0.952 . S
H132 C128 0.950 . S
H133 C134 0.949 . S
C134 H133 0.949 . S
C134 C135 1.395 . S
C134 C136 1.391 . S
C135 C134 1.395 . S
C135 C138 1.390 . S
C136 C134 1.391 . S
C136 C140 1.387 . S
C136 C141 1.491 . S
H137 C138 0.950 . S
C138 C135 1.390 . S
C138 H137 0.950 . S
C138 C139 1.378 . S
C139 C138 1.378 . S
C139 C140 1.409 . S
C140 C136 1.387 . S
C140 C139 1.409 . S
C140 H142 0.951 . S
C141 C136 1.491 . S
C141 C143 1.382 . S
C141 C145 1.404 . S
H142 C140 0.951 . S
C143 C141 1.382 . S
C143 C144 1.390 . S
C143 H148 0.949 . S
C144 C143 1.390 . S
C144 C149 1.399 . S
C145 C141 1.404 . S
C145 H146 0.950 . S
C145 C147 1.375 . S
H146 C145 0.950 . S
C147 C145 1.375 . S
C147 C149 1.382 . S
C147 H151 0.950 . S
H148 C143 0.949 . S
C149 C144 1.399 . S
C149 C147 1.382 . S
C149 H150 0.952 . S
H150 C149 0.952 . S
H151 C147 0.950 . S
Co152 N157 2.057 . S
Co152 O169 2.021 1_544 S
Co152 O172 2.062 1_554 S
Co152 O176 2.117 1_454 S
Co152 O177 2.020 1_545 S
C153 O173 1.259 . S
C153 O176 1.258 . S
Co154 N163 2.057 . S
Co154 O170 2.117 . S
Co154 O171 2.020 1_565 S
Co154 O173 2.021 1_465 S
Co154 O178 2.062 1_455 S
C155 N157 1.316 . S
C155 N158 1.347 . S
C155 H160 0.931 . S
C156 N157 1.375 1_655 S
C156 C159 1.350 . S
C156 H161 0.930 . S
N157 Co152 2.057 . S
N157 C155 1.316 . S
N157 C156 1.375 1_455 S
N158 C155 1.347 . S
N158 C159 1.373 1_455 S
C159 C156 1.350 . S
C159 N158 1.373 1_655 S
C159 H180 0.931 . S
H160 C155 0.931 . S
H161 C156 0.930 . S
C162 O169 1.259 . S
C162 O170 1.258 . S
N163 Co154 2.057 . S
N163 C164 1.316 1_455 S
N163 C165 1.375 . S
C164 N163 1.316 1_655 S
C164 N166 1.347 . S
C164 H175 0.931 . S
C165 N163 1.375 . S
C165 C167 1.350 . S
C165 H174 0.930 . S
N166 C164 1.347 . S
N166 C167 1.373 1_655 S
C167 C165 1.350 . S
C167 N166 1.373 1_455 S
C167 H181 0.931 . S
C168 O171 1.256 . S
C168 O172 1.255 . S
O169 Co152 2.021 1_566 S
O169 C162 1.259 . S
O170 Co154 2.117 . S
O170 C162 1.258 . S
O171 Co154 2.020 1_545 S
O171 C168 1.256 . S
O172 Co152 2.062 1_556 S
O172 C168 1.255 . S
O173 C153 1.259 . S
O173 Co154 2.021 1_645 S
H174 C165 0.930 . S
H175 C164 0.931 . S
O176 Co152 2.117 1_656 S
O176 C153 1.258 . S
O177 Co152 2.020 1_565 S
O177 C179 1.256 1_554 S
O178 Co154 2.062 1_655 S
O178 C179 1.255 1_655 S
C179 O177 1.256 1_556 S
C179 O178 1.255 1_455 S
H180 C159 0.931 . S
H181 C167 0.931 . S
Co182 N187 2.057 1_545 S
Co182 O199 2.021 1_554 S
Co182 O202 2.062 1_554 S
Co182 O206 2.117 1_545 S
Co182 O207 2.020 . S
C183 O203 1.259 . S
C183 O206 1.258 1_556 S
Co184 N193 2.057 1_565 S
Co184 O200 2.117 1_565 S
Co184 O201 2.020 . S
Co184 O203 2.021 . S
Co184 O208 2.062 . S
C185 N187 1.316 1_545 S
C185 N188 1.347 1_545 S
C185 H190 0.931 . S
C186 N187 1.375 . S
C186 C189 1.350 . S
C186 H191 0.930 . S
N187 Co182 2.057 1_565 S
N187 C185 1.316 1_565 S
N187 C186 1.375 . S
N188 C185 1.347 1_565 S
N188 C189 1.373 . S
C189 C186 1.350 . S
C189 N188 1.373 . S
C189 H210 0.931 . S
H190 C185 0.931 . S
H191 C186 0.930 . S
C192 O199 1.259 . S
C192 O200 1.258 . S
N193 Co184 2.057 1_545 S
N193 C194 1.316 1_545 S
N193 C195 1.375 . S
C194 N193 1.316 1_565 S
C194 N196 1.347 1_565 S
C194 H205 0.931 . S
C195 N193 1.375 . S
C195 C197 1.350 . S
C195 H204 0.930 . S
N196 C194 1.347 1_545 S
N196 C197 1.373 . S
C197 C195 1.350 . S
C197 N196 1.373 . S
C197 H211 0.931 . S
C198 O201 1.256 1_545 S
C198 O202 1.255 . S
O199 Co182 2.021 1_556 S
O199 C192 1.259 . S
O200 Co184 2.117 1_545 S
O200 C192 1.258 . S
O201 Co184 2.020 . S
O201 C198 1.256 1_565 S
O202 Co182 2.062 1_556 S
O202 C198 1.255 . S
O203 C183 1.259 . S
O203 Co184 2.021 . S
H204 C195 0.930 . S
H205 C194 0.931 . S
O206 Co182 2.117 1_565 S
O206 C183 1.258 1_554 S
O207 Co182 2.020 . S
O207 C209 1.249 1_544 S
O208 Co184 2.062 . S
O208 C209 1.264 . S
C209 O207 1.249 1_566 S
C209 O208 1.264 . S
H210 C189 0.931 . S
H211 C197 0.931 . S
Co212 N217 2.057 . S
Co212 O229 2.021 . S
Co212 O232 2.062 . S
Co212 O236 2.117 1_556 S
Co212 O237 2.020 . S
C213 O233 1.259 . S
C213 O236 1.258 . S
Co214 N223 2.057 . S
Co214 O230 2.117 . S
Co214 O231 2.020 . S
Co214 O233 2.021 1_556 S
Co214 O238 2.062 . S
C215 N217 1.316 . S
C215 N218 1.347 . S
C215 H220 0.931 . S
C216 N217 1.375 1_554 S
C216 C219 1.350 . S
C216 H221 0.930 . S
N217 Co212 2.057 . S
N217 C215 1.316 . S
N217 C216 1.375 1_556 S
N218 C215 1.347 . S
N218 C219 1.373 1_556 S
C219 C216 1.350 . S
C219 N218 1.373 1_554 S
C219 H240 0.931 . S
H220 C215 0.931 . S
H221 C216 0.930 . S
C222 O229 1.259 . S
C222 O230 1.258 . S
N223 Co214 2.057 . S
N223 C224 1.316 . S
N223 C225 1.375 . S
C224 N223 1.316 . S
C224 N226 1.347 . S
C224 H235 0.931 . S
C225 N223 1.375 . S
C225 C227 1.350 . S
C225 H234 0.930 . S
N226 C224 1.347 . S
N226 C227 1.373 . S
C227 C225 1.350 . S
C227 N226 1.373 . S
C227 H241 0.931 . S
C228 O231 1.256 . S
C228 O232 1.255 . S
O229 Co212 2.021 . S
O229 C222 1.259 . S
O230 Co214 2.117 . S
O230 C222 1.258 . S
O231 Co214 2.020 . S
O231 C228 1.256 . S
O232 Co212 2.062 . S
O232 C228 1.255 . S
O233 C213 1.259 . S
O233 Co214 2.021 1_554 S
H234 C225 0.930 . S
H235 C224 0.931 . S
O236 Co212 2.117 1_554 S
O236 C213 1.258 . S
O237 Co212 2.020 . S
O237 C239 1.256 . S
O238 Co214 2.062 . S
O238 C239 1.255 . S
C239 O237 1.256 . S
C239 O238 1.255 . S
H240 C219 0.931 . S
H241 C227 0.931 . S
Co242 N247 2.057 . S
Co242 O259 2.021 1_455 S
Co242 O262 2.062 1_455 S
Co242 O266 2.117 1_556 S
Co242 O267 2.020 . S
C243 O263 1.259 . S
C243 O266 1.258 . S
Co244 N253 2.057 . S
Co244 O260 2.117 1_455 S
Co244 O261 2.020 1_456 S
Co244 O263 2.021 1_556 S
Co244 O268 2.062 . S
C245 N247 1.316 . S
C245 N248 1.347 . S
C245 H250 0.931 1_455 S
C246 N247 1.375 . S
C246 C249 1.350 . S
C246 H251 0.930 1_556 S
N247 Co242 2.057 . S
N247 C245 1.316 . S
N247 C246 1.375 . S
N248 C245 1.347 . S
N248 C249 1.373 . S
C249 C246 1.350 . S
C249 N248 1.373 . S
C249 H270 0.931 1_556 S
H250 C245 0.931 1_655 S
H251 C246 0.930 1_554 S
C252 O259 1.259 . S
C252 O260 1.258 . S
N253 Co244 2.057 . S
N253 C254 1.316 . S
N253 C255 1.375 1_455 S
C254 N253 1.316 . S
C254 N256 1.347 . S
C254 H265 0.931 1_556 S
C255 N253 1.375 1_655 S
C255 C257 1.350 . S
C255 H264 0.930 . S
N256 C254 1.347 . S
N256 C257 1.373 1_455 S
C257 C255 1.350 . S
C257 N256 1.373 1_655 S
C257 H271 0.931 . S
C258 O261 1.256 . S
C258 O262 1.255 1_554 S
O259 Co242 2.021 1_655 S
O259 C252 1.259 . S
O260 Co244 2.117 1_655 S
O260 C252 1.258 . S
O261 Co244 2.020 1_654 S
O261 C258 1.256 . S
O262 Co242 2.062 1_655 S
O262 C258 1.255 1_556 S
O263 C243 1.259 . S
O263 Co244 2.021 1_554 S
H264 C255 0.930 . S
H265 C254 0.931 1_554 S
O266 Co242 2.117 1_554 S
O266 C243 1.258 . S
O267 Co242 2.020 . S
O267 C269 1.256 . S
O268 Co244 2.062 . S
O268 C269 1.255 . S
C269 O267 1.256 . S
C269 O268 1.255 . S
H270 C249 0.931 1_554 S
H271 C257 0.931 . S
C125 C162 1.839 . S
C192 C144 1.870 . S
N226 C87 1.397 . S
N256 C106 1.681 . S
C153 C49 1.957 1_545 S
C68 C183 1.945 1_554 S
C11 N218 1.691 1_554 S
C30 N248 2.164 1_655 S
C168 C97 1.046 . S
C198 C116 1.480 . S
C239 C135 1.971 . S
C78 C269 1.341 . S
C21 C179 1.054 1_655 S
C209 C40 1.481 . S
C228 C59 1.974 1_556 S
C2 C258 1.348 . S
C101 N158 1.544 . S
C120 N188 1.464 1_545 S
C213 C139 1.846 . S
C243 C82 1.817 . S
C25 N166 1.558 . S
N196 C44 1.472 1_545 S
C222 C63 1.844 . S
C6 C252 1.820 . S
