# Generated by pormake.
# Topology cml, (3,6)-cn, num edge types: 1
# Building blocks:
#     Node 0, Type 0, BuildingBlock: PAMTOO_clean_linker_0, # of connection points: 3
#     Node 1, Type 0, BuildingBlock: PAMTOO_clean_linker_0, # of connection points: 3
#     Node 2, Type 0, BuildingBlock: PAMTOO_clean_linker_0, # of connection points: 3
#     Node 3, Type 0, BuildingBlock: PAMTOO_clean_linker_0, # of connection points: 3
#     Node 4, Type 0, BuildingBlock: PAMTOO_clean_linker_0, # of connection points: 3
#     Node 5, Type 0, BuildingBlock: PAMTOO_clean_linker_0, # of connection points: 3
#     Node 6, Type 0, BuildingBlock: PAMTOO_clean_linker_0, # of connection points: 3
#     Node 7, Type 0, BuildingBlock: PAMTOO_clean_linker_0, # of connection points: 3
#     Node 8, Type 1, BuildingBlock: IZENUY_clean_sbu_0, # of connection points: 6
#     Node 9, Type 1, BuildingBlock: IZENUY_clean_sbu_0, # of connection points: 6
#     Node 10, Type 1, BuildingBlock: IZENUY_clean_sbu_0, # of connection points: 6
#     Node 11, Type 1, BuildingBlock: IZENUY_clean_sbu_0, # of connection points: 6
#     Edge 12, Type (0, 1), BuildingBlock: XIVTED_clean_linker_0, # of connection points: 2
#     Edge 13, Type (0, 1), BuildingBlock: XIVTED_clean_linker_0, # of connection points: 2
#     Edge 14, Type (0, 1), BuildingBlock: XIVTED_clean_linker_0, # of connection points: 2
#     Edge 15, Type (0, 1), BuildingBlock: XIVTED_clean_linker_0, # of connection points: 2
#     Edge 16, Type (0, 1), BuildingBlock: XIVTED_clean_linker_0, # of connection points: 2
#     Edge 17, Type (0, 1), BuildingBlock: XIVTED_clean_linker_0, # of connection points: 2
#     Edge 18, Type (0, 1), BuildingBlock: XIVTED_clean_linker_0, # of connection points: 2
#     Edge 19, Type (0, 1), BuildingBlock: XIVTED_clean_linker_0, # of connection points: 2
#     Edge 20, Type (0, 1), BuildingBlock: XIVTED_clean_linker_0, # of connection points: 2
#     Edge 21, Type (0, 1), BuildingBlock: XIVTED_clean_linker_0, # of connection points: 2
#     Edge 22, Type (0, 1), BuildingBlock: XIVTED_clean_linker_0, # of connection points: 2
#     Edge 23, Type (0, 1), BuildingBlock: XIVTED_clean_linker_0, # of connection points: 2
#     Edge 24, Type (0, 1), BuildingBlock: XIVTED_clean_linker_0, # of connection points: 2
#     Edge 25, Type (0, 1), BuildingBlock: XIVTED_clean_linker_0, # of connection points: 2
#     Edge 26, Type (0, 1), BuildingBlock: XIVTED_clean_linker_0, # of connection points: 2
#     Edge 27, Type (0, 1), BuildingBlock: XIVTED_clean_linker_0, # of connection points: 2
#     Edge 28, Type (0, 1), BuildingBlock: XIVTED_clean_linker_0, # of connection points: 2
#     Edge 29, Type (0, 1), BuildingBlock: XIVTED_clean_linker_0, # of connection points: 2
#     Edge 30, Type (0, 1), BuildingBlock: XIVTED_clean_linker_0, # of connection points: 2
#     Edge 31, Type (0, 1), BuildingBlock: XIVTED_clean_linker_0, # of connection points: 2
#     Edge 32, Type (0, 1), BuildingBlock: XIVTED_clean_linker_0, # of connection points: 2
#     Edge 33, Type (0, 1), BuildingBlock: XIVTED_clean_linker_0, # of connection points: 2
#     Edge 34, Type (0, 1), BuildingBlock: XIVTED_clean_linker_0, # of connection points: 2
#     Edge 35, Type (0, 1), BuildingBlock: XIVTED_clean_linker_0, # of connection points: 2
# Relax obj value: 0.004
# Max RMSD: 0.069
# Mean RMSD: 0.053
data_MOF--net-cml--node1-IZENUY_clean_sbu_0--node2-PAMTOO_clean_linker_0--edge1-XIVTED_clean_linker_0
_symmetry_space_group_name_H-M    P1
_symmetry_Int_Tables_number       1
_symmetry_cell_setting            triclinic
loop_
_symmetry_equiv_pos_as_xyz
'x, y, z'
_cell_length_a     37.260912
_cell_length_b     41.807692
_cell_length_c     36.143385
_cell_angle_alpha  89.925532
_cell_angle_beta   88.598623
_cell_angle_gamma 89.756979
loop_
_atom_site_label
_atom_site_type_symbol
_atom_site_fract_x
_atom_site_fract_y
_atom_site_fract_z
_atom_type_partial_charge
H0 H 0.3435 0.43406 0.04027 0.0
H1 H 0.27782 0.4082 0.94866 0.0
H2 H 0.27817 0.34954 0.0463 0.0
H3 H 0.2791 0.31413 0.9772 0.0
C4 C 0.26247 0.33019 0.95992 0.0
O5 O 0.25166 0.35657 0.98028 0.0
H6 H 0.27927 0.33798 0.93569 0.0
C7 C 0.32378 0.4185 0.02814 0.0
C8 C 0.31196 0.39146 0.04794 0.0
C9 C 0.31182 0.42494 0.99231 0.0
C10 C 0.28758 0.40369 0.97618 0.0
C11 C 0.2755 0.37659 0.9957 0.0
C12 C 0.28772 0.37049 0.03145 0.0
H13 H 0.66922 0.57236 0.5397 0.0
H14 H 0.74284 0.65117 0.54479 0.0
H15 H 0.739 0.59424 0.44638 0.0
H16 H 0.81075 0.61233 0.46389 0.0
C17 C 0.80534 0.63463 0.47991 0.0
O18 O 0.76956 0.6427 0.47796 0.0
H19 H 0.8126 0.63011 0.50918 0.0
C20 C 0.69062 0.58647 0.52714 0.0
C21 C 0.70253 0.57973 0.49078 0.0
C22 C 0.70484 0.61218 0.54691 0.0
C23 C 0.7314 0.63129 0.52998 0.0
C24 C 0.74368 0.62455 0.49391 0.0
C25 C 0.72912 0.59909 0.47427 0.0
H26 H 0.67323 0.43859 0.04383 0.0
H27 H 0.73928 0.35386 0.04473 0.0
H28 H 0.73812 0.41326 0.948 0.0
H29 H 0.7375 0.34506 0.93155 0.0
C30 C 0.75136 0.33573 0.9563 0.0
O31 O 0.76377 0.3609 0.97694 0.0
H32 H 0.7316 0.32147 0.97295 0.0
C33 C 0.69313 0.42323 0.03048 0.0
C34 C 0.70455 0.42983 0.99393 0.0
C35 C 0.70541 0.39594 0.0492 0.0
C36 C 0.72954 0.3751 0.03092 0.0
C37 C 0.74112 0.38142 0.99452 0.0
C38 C 0.72887 0.40876 0.97618 0.0
H39 H 0.34939 0.58389 0.53496 0.0
H40 H 0.27397 0.60721 0.45073 0.0
H41 H 0.28961 0.67219 0.54086 0.0
H42 H 0.21455 0.66389 0.52076 0.0
C43 C 0.218 0.66035 0.49036 0.0
O44 O 0.25396 0.66191 0.48043 0.0
H45 H 0.20738 0.63624 0.48366 0.0
C46 C 0.32951 0.59999 0.5238 0.0
C47 C 0.32189 0.62903 0.54201 0.0
C48 C 0.31271 0.59179 0.49081 0.0
C49 C 0.28719 0.61294 0.47624 0.0
C50 C 0.27845 0.64161 0.49469 0.0
C51 C 0.29587 0.64963 0.52742 0.0
H52 H 0.84408 0.93131 0.04091 0.0
H53 H 0.77926 0.90836 0.94754 0.0
H54 H 0.77607 0.84848 0.0442 0.0
H55 H 0.77785 0.81426 0.97481 0.0
C56 C 0.7612 0.83038 0.95762 0.0
O57 O 0.75095 0.85701 0.97786 0.0
H58 H 0.77782 0.83789 0.93314 0.0
C59 C 0.82417 0.91644 0.02804 0.0
C60 C 0.8111 0.88947 0.04713 0.0
C61 C 0.81307 0.92367 0.99208 0.0
C62 C 0.78845 0.90324 0.97514 0.0
C63 C 0.77517 0.8762 0.99398 0.0
C64 C 0.78655 0.86935 0.02985 0.0
H65 H 0.16013 0.08206 0.53551 0.0
H66 H 0.23843 0.15712 0.53901 0.0
H67 H 0.22028 0.10839 0.43682 0.0
H68 H 0.29543 0.11973 0.44841 0.0
C69 C 0.29359 0.14103 0.46681 0.0
O70 O 0.25855 0.15159 0.46938 0.0
H71 H 0.30311 0.13383 0.4946 0.0
C72 C 0.18029 0.09663 0.52155 0.0
C73 C 0.18755 0.09232 0.48352 0.0
C74 C 0.19809 0.12011 0.54174 0.0
C75 C 0.22431 0.13892 0.52385 0.0
C76 C 0.2327 0.13403 0.48629 0.0
C77 C 0.21413 0.11112 0.4661 0.0
H78 H 0.16968 0.9415 0.03551 0.0
H79 H 0.22698 0.85196 0.03957 0.0
H80 H 0.24492 0.91613 0.94821 0.0
H81 H 0.23966 0.84957 0.92806 0.0
C82 C 0.2513 0.83796 0.9528 0.0
O83 O 0.26253 0.861 0.97715 0.0
H84 H 0.23 0.823 0.9662 0.0
C85 C 0.18947 0.92507 0.02383 0.0
C86 C 0.20661 0.93262 0.98997 0.0
C87 C 0.1961 0.89591 0.04185 0.0
C88 C 0.22169 0.87474 0.02643 0.0
C89 C 0.23926 0.88217 0.99276 0.0
C90 C 0.23169 0.91098 0.97457 0.0
H91 H 0.84256 0.08399 0.55185 0.0
H92 H 0.78688 0.10975 0.45284 0.0
H93 H 0.77809 0.16928 0.5493 0.0
H94 H 0.71032 0.1541 0.51422 0.0
C95 C 0.71912 0.15523 0.48458 0.0
O96 O 0.7557 0.16038 0.48194 0.0
H97 H 0.71274 0.1318 0.47178 0.0
C98 C 0.82527 0.1 0.5368 0.0
C99 C 0.8119 0.12747 0.5548 0.0
C100 C 0.81733 0.0933 0.49974 0.0
C101 C 0.79375 0.11408 0.48132 0.0
C102 C 0.77918 0.1411 0.49944 0.0
C103 C 0.78895 0.14811 0.53579 0.0
Fe104 Fe 1.00248 0.82917 0.31538 0.0
Fe105 Fe 0.99963 0.86451 0.39013 0.0
O106 O 0.99926 0.86529 0.34107 0.0
Fe107 Fe 0.99567 0.9023 0.31753 0.0
O108 O 0.9543 0.89018 0.29652 0.0
O109 O 0.9738 0.84313 0.27767 0.0
O110 O 0.96215 0.81354 0.33766 0.0
C111 C 0.95723 0.81077 0.37216 0.0
C112 C 0.04502 0.86742 0.27198 0.0
O113 O 0.97618 0.82621 0.39453 0.0
C114 C 0.04173 0.91893 0.37157 0.0
O115 O 0.03148 0.80855 0.3484 0.0
O116 O 0.04331 0.845 0.39008 0.0
O117 O 0.02238 0.88971 0.27697 0.0
O118 O 0.04322 0.8422 0.29108 0.0
C119 C 0.94868 0.91078 0.37965 0.0
O120 O 0.02301 0.90266 0.39435 0.0
O121 O 0.0369 0.91695 0.33721 0.0
C122 C 0.05075 0.81884 0.3742 0.0
O123 O 0.95602 0.88417 0.39426 0.0
O124 O 0.96797 0.92188 0.35344 0.0
C125 C 0.95112 0.86581 0.27637 0.0
Fe126 Fe 0.00807 0.14833 0.89082 0.0
Fe127 Fe 0.00836 0.11093 0.81782 0.0
O128 O 0.00804 0.14788 0.84172 0.0
Fe129 Fe 0.00795 0.18439 0.81655 0.0
O130 O 0.04981 0.1967 0.83658 0.0
O131 O 0.03455 0.1853 0.89419 0.0
O132 O 0.05029 0.12652 0.89187 0.0
C133 C 0.05603 0.09991 0.87636 0.0
C134 C 0.96014 0.1964 0.87712 0.0
O135 O 0.03523 0.08968 0.8519 0.0
C136 C 0.96071 0.14931 0.77657 0.0
O137 O 0.98163 0.11143 0.89654 0.0
O138 O 0.96659 0.09861 0.84008 0.0
O139 O 0.98102 0.20636 0.85146 0.0
O140 O 0.96591 0.17007 0.893 0.0
C141 C 0.05556 0.14503 0.77434 0.0
O142 O 0.98151 0.12544 0.77936 0.0
O143 O 0.96608 0.17462 0.79452 0.0
C144 C 0.96143 0.09669 0.87459 0.0
O145 O 0.0502 0.12051 0.79397 0.0
O146 O 0.03482 0.16904 0.77707 0.0
C147 C 0.05528 0.19893 0.87077 0.0
Fe148 Fe 0.50493 0.32968 0.31476 0.0
Fe149 Fe 0.50244 0.36472 0.38975 0.0
O150 O 0.50362 0.36579 0.34065 0.0
Fe151 Fe 0.50347 0.40309 0.31727 0.0
O152 O 0.46204 0.39351 0.29459 0.0
O153 O 0.47866 0.34548 0.27624 0.0
O154 O 0.46287 0.31631 0.33562 0.0
C155 C 0.45672 0.3137 0.36996 0.0
C156 C 0.5525 0.36608 0.27445 0.0
O157 O 0.47604 0.32793 0.39304 0.0
C158 C 0.54975 0.41583 0.37278 0.0
O159 O 0.53133 0.30727 0.3485 0.0
O160 O 0.54454 0.34261 0.39097 0.0
O161 O 0.53083 0.3893 0.27775 0.0
O162 O 0.54723 0.34039 0.29201 0.0
C163 C 0.45504 0.41385 0.37765 0.0
O164 O 0.52883 0.40122 0.3951 0.0
O165 O 0.54487 0.41515 0.3384 0.0
C166 C 0.55081 0.31641 0.3747 0.0
O167 O 0.46015 0.38687 0.39244 0.0
O168 O 0.47618 0.424 0.35244 0.0
C169 C 0.45762 0.36931 0.27441 0.0
Fe170 Fe 0.50584 0.64835 0.89058 0.0
Fe171 Fe 0.50884 0.60951 0.81872 0.0
O172 O 0.5074 0.64695 0.84151 0.0
Fe173 Fe 0.50781 0.68276 0.81509 0.0
O174 O 0.54849 0.69622 0.83644 0.0
O175 O 0.53253 0.68521 0.894 0.0
O176 O 0.54783 0.62628 0.89382 0.0
C177 C 0.55341 0.5991 0.87968 0.0
C178 C 0.4583 0.69622 0.87407 0.0
O179 O 0.53319 0.58862 0.85493 0.0
C180 C 0.46435 0.6467 0.77242 0.0
O181 O 0.47873 0.61177 0.89585 0.0
O182 O 0.4658 0.59804 0.83893 0.0
O183 O 0.47917 0.70538 0.84798 0.0
O184 O 0.46392 0.67036 0.89096 0.0
C185 C 0.55791 0.64259 0.77683 0.0
O186 O 0.48499 0.62316 0.77788 0.0
O187 O 0.46704 0.67187 0.79134 0.0
C188 C 0.45915 0.59693 0.87332 0.0
O189 O 0.55197 0.61864 0.7973 0.0
O190 O 0.53682 0.6665 0.77758 0.0
C191 C 0.55329 0.69893 0.87069 0.0
H192 H 0.21559 0.2941 0.00181 0.0
H193 H 0.10207 0.23542 0.82898 0.0
H194 H 0.23604 0.32529 0.88965 0.0
H195 H 0.0765 0.20902 0.94209 0.0
H196 H 0.15117 0.26838 0.85076 0.0
H197 H 0.16424 0.26297 0.98075 0.0
C198 C 0.20912 0.29438 0.97276 0.0
C199 C 0.23014 0.31197 0.94736 0.0
C200 C 0.13478 0.25545 0.87085 0.0
C201 C 0.17164 0.27654 0.92296 0.0
C202 C 0.10669 0.23657 0.85842 0.0
C203 C 0.08497 0.21937 0.88371 0.0
C204 C 0.14145 0.25716 0.90889 0.0
C205 C 0.09242 0.22186 0.92154 0.0
C206 C 0.17989 0.27665 0.96072 0.0
C207 C 0.22062 0.31181 0.91005 0.0
N208 N 0.12003 0.24031 0.93294 0.0
N209 N 0.19219 0.29425 0.89894 0.0
H210 H 0.83537 0.68463 0.51674 0.0
H211 H 0.91856 0.76663 0.33361 0.0
H212 H 0.82337 0.6461 0.40725 0.0
H213 H 0.93833 0.79946 0.44451 0.0
H214 H 0.88001 0.72458 0.35946 0.0
H215 H 0.87004 0.72908 0.49022 0.0
C216 C 0.84038 0.68551 0.4871 0.0
C217 C 0.82743 0.66146 0.46412 0.0
C218 C 0.89272 0.74107 0.37809 0.0
C219 C 0.8663 0.7123 0.43348 0.0
C220 C 0.91466 0.76514 0.36335 0.0
C221 C 0.93195 0.78648 0.38693 0.0
C222 C 0.88796 0.7384 0.41665 0.0
C223 C 0.9258 0.78343 0.42525 0.0
C224 C 0.85999 0.71087 0.47195 0.0
C225 C 0.83366 0.66396 0.42583 0.0
N226 N 0.90442 0.75978 0.43889 0.0
N227 N 0.85283 0.68889 0.41166 0.0
H228 H 0.79837 0.34513 0.89806 0.0
H229 H 0.91177 0.18521 0.9342 0.0
H230 H 0.77543 0.28018 0.98813 0.0
H231 H 0.93889 0.25411 0.84897 0.0
H232 H 0.86122 0.21908 0.95388 0.0
H233 H 0.84965 0.31155 0.87907 0.0
C234 C 0.80414 0.32363 0.91364 0.0
C235 C 0.78247 0.31497 0.9442 0.0
C236 C 0.8783 0.22681 0.93093 0.0
C237 C 0.84108 0.27667 0.92311 0.0
C238 C 0.90719 0.20748 0.91967 0.0
C239 C 0.92973 0.21683 0.88991 0.0
C240 C 0.87176 0.25567 0.91225 0.0
C241 C 0.92235 0.24593 0.8721 0.0
C242 C 0.83338 0.30453 0.90293 0.0
C243 C 0.79128 0.28731 0.96403 0.0
N244 N 0.89401 0.26425 0.88351 0.0
N245 N 0.81985 0.26903 0.95304 0.0
H246 H 0.18705 0.65611 0.42237 0.0
H247 H 0.09322 0.82911 0.43431 0.0
H248 H 0.20225 0.72197 0.51214 0.0
H249 H 0.07402 0.76068 0.34771 0.0
H250 H 0.13718 0.79232 0.46037 0.0
H251 H 0.14976 0.69617 0.39169 0.0
C252 C 0.18256 0.67911 0.43549 0.0
C253 C 0.19706 0.6856 0.4701 0.0
C254 C 0.12349 0.78544 0.43555 0.0
C255 C 0.15465 0.73165 0.43523 0.0
C256 C 0.09838 0.80648 0.42058 0.0
C257 C 0.07957 0.79797 0.38885 0.0
C258 C 0.12998 0.75561 0.41871 0.0
C259 C 0.0876 0.76828 0.37231 0.0
C260 C 0.16129 0.70197 0.41805 0.0
C261 C 0.19103 0.71592 0.48571 0.0
N262 N 0.11199 0.74818 0.38751 0.0
N263 N 0.17004 0.73774 0.46833 0.0
H264 H 0.71464 0.79456 0.00029 0.0
H265 H 0.59944 0.73582 0.82882 0.0
H266 H 0.73362 0.82569 0.88787 0.0
H267 H 0.57455 0.70939 0.94206 0.0
H268 H 0.64843 0.76896 0.85023 0.0
H269 H 0.66281 0.76359 0.98 0.0
C270 C 0.70773 0.79487 0.97135 0.0
C271 C 0.7285 0.81238 0.94563 0.0
C272 C 0.63221 0.75602 0.87045 0.0
C273 C 0.66947 0.77715 0.92214 0.0
C274 C 0.60417 0.73701 0.85823 0.0
C275 C 0.5827 0.71971 0.88365 0.0
C276 C 0.63913 0.75776 0.90843 0.0
C277 C 0.59029 0.7223 0.92143 0.0
C278 C 0.67824 0.77724 0.95976 0.0
C279 C 0.71843 0.81228 0.9085 0.0
N280 N 0.61791 0.74087 0.93264 0.0
N281 N 0.68977 0.79481 0.89784 0.0
H282 H 0.31007 0.15439 0.39413 0.0
H283 H 0.43468 0.30353 0.44163 0.0
H284 H 0.32755 0.18816 0.50479 0.0
H285 H 0.41679 0.27133 0.3301 0.0
H286 H 0.39325 0.26291 0.46482 0.0
H287 H 0.34716 0.19828 0.36962 0.0
C288 C 0.322 0.17102 0.41318 0.0
C289 C 0.31667 0.1674 0.45146 0.0
C290 C 0.39823 0.26477 0.43525 0.0
C291 C 0.3584 0.21775 0.42389 0.0
C292 C 0.42192 0.28801 0.42195 0.0
C293 C 0.4295 0.2907 0.38383 0.0
C294 C 0.38199 0.24393 0.41034 0.0
C295 C 0.41188 0.27005 0.35971 0.0
C296 C 0.34298 0.19608 0.39927 0.0
C297 C 0.33177 0.18988 0.47511 0.0
N298 N 0.38911 0.24738 0.37339 0.0
N299 N 0.35216 0.21402 0.46095 0.0
H300 H 0.30073 0.84871 0.89688 0.0
H301 H 0.40932 0.68575 0.93064 0.0
H302 H 0.27344 0.78122 0.98312 0.0
H303 H 0.4382 0.7543 0.84563 0.0
H304 H 0.35962 0.72044 0.95037 0.0
H305 H 0.35168 0.81468 0.87791 0.0
C306 C 0.30551 0.8266 0.91165 0.0
C307 C 0.28265 0.81732 0.94106 0.0
C308 C 0.37686 0.72793 0.92743 0.0
C309 C 0.34085 0.77848 0.91998 0.0
C310 C 0.40528 0.70811 0.91612 0.0
C311 C 0.42809 0.7171 0.88642 0.0
C312 C 0.37105 0.75698 0.90892 0.0
C313 C 0.42139 0.74636 0.86868 0.0
C314 C 0.33454 0.80722 0.90093 0.0
C315 C 0.29021 0.78885 0.9599 0.0
N316 N 0.3935 0.76522 0.88018 0.0
N317 N 0.31858 0.77033 0.94893 0.0
H318 H 0.70449 0.21579 0.5104 0.0
H319 H 0.57351 0.2594 0.34487 0.0
H320 H 0.68786 0.15487 0.41639 0.0
H321 H 0.59275 0.32322 0.436 0.0
H322 H 0.61771 0.22226 0.36924 0.0
H323 H 0.66661 0.25695 0.48216 0.0
C324 C 0.69304 0.21127 0.48365 0.0
C325 C 0.69882 0.18182 0.46589 0.0
C326 C 0.61243 0.24443 0.38388 0.0
C327 C 0.65547 0.22856 0.43343 0.0
C328 C 0.58708 0.2657 0.36998 0.0
C329 C 0.57907 0.29448 0.38851 0.0
C330 C 0.63 0.25176 0.41674 0.0
C331 C 0.59786 0.3013 0.42082 0.0
C332 C 0.6714 0.23467 0.46757 0.0
C333 C 0.68371 0.17714 0.43115 0.0
N334 N 0.62225 0.28003 0.434 0.0
N335 N 0.66251 0.20012 0.41623 0.0
H336 H 0.3219 0.48538 0.01901 0.0
H337 H 0.42417 0.54933 0.83627 0.0
H338 H 0.33429 0.4293 0.91933 0.0
H339 H 0.43109 0.59333 0.94384 0.0
H340 H 0.38263 0.50973 0.86278 0.0
H341 H 0.35287 0.52963 0.98812 0.0
C342 C 0.33098 0.48243 0.99051 0.0
C343 C 0.326 0.45335 0.97194 0.0
C344 C 0.39307 0.52821 0.88047 0.0
C345 C 0.36138 0.50416 0.93625 0.0
C346 C 0.4167 0.5509 0.86536 0.0
C347 C 0.43147 0.57455 0.88795 0.0
C348 C 0.38386 0.52934 0.91835 0.0
C349 C 0.42073 0.57537 0.92544 0.0
C350 C 0.34861 0.50775 0.97287 0.0
C351 C 0.33754 0.45124 0.93473 0.0
N352 N 0.39772 0.55305 0.93945 0.0
N353 N 0.35502 0.4762 0.91819 0.0
H354 H 0.68245 0.57874 0.41818 0.0
H355 H 0.57597 0.41517 0.44246 0.0
H356 H 0.68547 0.51996 0.51634 0.0
H357 H 0.58709 0.46409 0.33755 0.0
H358 H 0.61833 0.4524 0.46889 0.0
H359 H 0.65035 0.53611 0.38676 0.0
C360 C 0.67682 0.55671 0.43296 0.0
C361 C 0.68626 0.55306 0.4701 0.0
C362 C 0.61177 0.45491 0.44 0.0
C363 C 0.64915 0.50444 0.43453 0.0
C364 C 0.58746 0.4337 0.42491 0.0
C365 C 0.57765 0.43677 0.38786 0.0
C366 C 0.62617 0.47967 0.41804 0.0
C367 C 0.59377 0.46098 0.36631 0.0
C368 C 0.65836 0.53244 0.41506 0.0
C369 C 0.67801 0.52409 0.48797 0.0
N370 N 0.61697 0.48177 0.38185 0.0
N371 N 0.65966 0.50105 0.47013 0.0
H372 H 0.68169 0.43193 0.92249 0.0
H373 H 0.59269 0.60599 0.94285 0.0
H374 H 0.69127 0.49059 0.01991 0.0
H375 H 0.57739 0.54273 0.85027 0.0
H376 H 0.63487 0.56713 0.96852 0.0
H377 H 0.65008 0.47563 0.89235 0.0
C378 C 0.67767 0.45419 0.93736 0.0
C379 C 0.68894 0.45748 0.97391 0.0
C380 C 0.62241 0.56191 0.94247 0.0
C381 C 0.65207 0.50753 0.93976 0.0
C382 C 0.59838 0.58409 0.92779 0.0
C383 C 0.5811 0.57744 0.8946 0.0
C384 C 0.6293 0.53299 0.92371 0.0
C385 C 0.58966 0.54873 0.87619 0.0
C386 C 0.65933 0.47908 0.92023 0.0
C387 C 0.68251 0.48681 0.99192 0.0
N388 N 0.61295 0.52756 0.89107 0.0
N389 N 0.66428 0.51061 0.97478 0.0
H390 H 0.32852 0.58415 0.41681 0.0
H391 H 0.41592 0.4102 0.44342 0.0
H392 H 0.32382 0.53194 0.51981 0.0
H393 H 0.42976 0.46805 0.34514 0.0
H394 H 0.37414 0.45057 0.46881 0.0
H395 H 0.35684 0.53767 0.38692 0.0
C396 C 0.33278 0.56269 0.43297 0.0
C397 C 0.32416 0.5621 0.47097 0.0
C398 C 0.38611 0.45424 0.44155 0.0
C399 C 0.35718 0.50891 0.4371 0.0
C400 C 0.40989 0.43116 0.42701 0.0
C401 C 0.42679 0.43591 0.3923 0.0
C402 C 0.37903 0.48216 0.42113 0.0
C403 C 0.41783 0.46354 0.37225 0.0
C404 C 0.34926 0.53623 0.41598 0.0
C405 C 0.33063 0.53366 0.49059 0.0
N406 N 0.39482 0.48563 0.38702 0.0
N407 N 0.34704 0.50835 0.47355 0.0
H408 H 0.82567 0.98321 0.02046 0.0
H409 H 0.92465 0.05034 0.83742 0.0
H410 H 0.83553 0.92905 0.91912 0.0
H411 H 0.93673 0.09072 0.94627 0.0
H412 H 0.88372 0.01033 0.86403 0.0
H413 H 0.85774 0.02733 0.99054 0.0
C414 C 0.83448 0.9806 0.99184 0.0
C415 C 0.82837 0.95208 0.97249 0.0
C416 C 0.8952 0.02807 0.88201 0.0
C417 C 0.86491 1.00285 0.93788 0.0
C418 C 0.9185 0.051 0.86685 0.0
C419 C 0.93446 0.07382 0.8897 0.0
C420 C 0.88748 0.02812 0.92023 0.0
C421 C 0.92537 0.07346 0.92763 0.0
C422 C 0.85273 0.00588 0.97475 0.0
C423 C 0.83958 0.95054 0.93513 0.0
N424 N 0.90259 0.05095 0.94167 0.0
N425 N 0.85757 0.97546 0.91911 0.0
H426 H 0.21121 0.05179 0.42766 0.0
H427 H 0.03711 0.94582 0.43975 0.0
H428 H 0.11601 0.07897 0.49084 0.0
H429 H 0.09842 0.95008 0.33689 0.0
H430 H 0.07294 0.98915 0.4638 0.0
H431 H 0.17625 0.01011 0.39714 0.0
C432 C 0.18299 0.04926 0.4349 0.0
C433 C 0.16671 0.06856 0.46244 0.0
C434 C 0.07857 0.98064 0.43595 0.0
C435 C 0.12718 0.02076 0.4283 0.0
C436 C 0.05834 0.95571 0.42225 0.0
C437 C 0.0648 0.94433 0.38621 0.0
C438 C 0.10597 0.99407 0.41379 0.0
C439 C 0.09253 0.95831 0.36478 0.0
C440 C 0.1632 0.02545 0.41756 0.0
C441 C 0.13008 0.06406 0.47075 0.0
N442 N 0.1124 0.98245 0.37902 0.0
N443 N 0.11173 0.04041 0.45412 0.0
H444 H 0.1967 0.99345 0.01655 0.0
H445 H 0.08154 0.04525 0.84369 0.0
H446 H 0.18879 0.93713 0.91721 0.0
H447 H 0.0968 0.10605 0.93843 0.0
H448 H 0.12577 0.00796 0.86757 0.0
H449 H 0.16602 0.03757 0.98582 0.0
C450 C 0.18901 0.9906 0.98803 0.0
C451 C 0.19496 0.96149 0.9695 0.0
C452 C 0.11973 0.02957 0.88303 0.0
C453 C 0.15949 0.01171 0.93429 0.0
C454 C 0.09431 0.05086 0.86948 0.0
C455 C 0.08501 0.07863 0.88937 0.0
C456 C 0.13584 0.03585 0.91695 0.0
C457 C 0.1029 0.08482 0.92233 0.0
C458 C 0.17149 0.01578 0.97051 0.0
C459 C 0.18483 0.95918 0.93249 0.0
N460 N 0.12715 0.0634 0.93531 0.0
N461 N 0.16711 0.98377 0.91628 0.0
H462 H 0.88433 0.0673 0.5108 0.0
H463 H 0.90124 0.95029 0.34584 0.0
H464 H 0.79033 0.05444 0.44462 0.0
H465 H 0.93725 0.92169 0.45344 0.0
H466 H 0.86499 0.99305 0.37518 0.0
H467 H 0.91025 0.01912 0.48368 0.0
C468 C 0.86871 0.05429 0.49101 0.0
C469 C 0.83437 0.0649 0.48093 0.0
C470 C 0.8803 0.97698 0.39231 0.0
C471 C 0.8653 0.01014 0.44834 0.0
C472 C 0.90091 0.95267 0.3757 0.0
C473 C 0.922 0.9324 0.39737 0.0
C474 C 0.88195 0.98167 0.43062 0.0
C475 C 0.92101 0.93659 0.43585 0.0
C476 C 0.88383 0.0268 0.47537 0.0
C477 C 0.8168 0.0475 0.45338 0.0
N478 N 0.90193 0.96123 0.45121 0.0
N479 N 0.83259 0.0211 0.43781 0.0
H480 H 0.33842 0.33509 0.07546 0.0
H481 H 0.41112 0.41822 0.25852 0.0
H482 H 0.3186 0.43361 0.10504 0.0
H483 H 0.44217 0.3232 0.2232 0.0
H484 H 0.37019 0.42141 0.20696 0.0
H485 H 0.36915 0.32741 0.1341 0.0
C486 C 0.34001 0.35493 0.09458 0.0
C487 C 0.32628 0.38511 0.08524 0.0
C488 C 0.3858 0.39978 0.2106 0.0
C489 C 0.36162 0.37664 0.15207 0.0
C490 C 0.40921 0.39791 0.24009 0.0
C491 C 0.43052 0.37054 0.24503 0.0
C492 C 0.38356 0.37408 0.18574 0.0
C493 C 0.42655 0.34491 0.22033 0.0
C494 C 0.35777 0.35062 0.12789 0.0
C495 C 0.32931 0.41008 0.1109 0.0
N496 N 0.40375 0.3474 0.19163 0.0
N497 N 0.34683 0.40535 0.14297 0.0
H498 H 0.68383 0.67015 0.57548 0.0
H499 H 0.60386 0.59259 0.76224 0.0
H500 H 0.69353 0.57032 0.60398 0.0
H501 H 0.57709 0.68775 0.72494 0.0
H502 H 0.64601 0.58727 0.70992 0.0
H503 H 0.65399 0.68003 0.63561 0.0
C504 C 0.68018 0.65044 0.59466 0.0
C505 C 0.69077 0.61932 0.58468 0.0
C506 C 0.63111 0.60941 0.71333 0.0
C507 C 0.65657 0.63034 0.65317 0.0
C508 C 0.60704 0.6125 0.74326 0.0
C509 C 0.58643 0.64049 0.74771 0.0
C510 C 0.63471 0.63447 0.68763 0.0
C511 C 0.59206 0.66559 0.72237 0.0
C512 C 0.66298 0.65603 0.62883 0.0
C513 C 0.68523 0.59458 0.61041 0.0
N514 N 0.61545 0.66188 0.69323 0.0
N515 N 0.66832 0.60058 0.64337 0.0
H516 H 0.68261 0.33818 0.07731 0.0
H517 H 0.58521 0.42026 0.25052 0.0
H518 H 0.69553 0.43733 0.10701 0.0
H519 H 0.58685 0.31793 0.23524 0.0
H520 H 0.62926 0.42582 0.20019 0.0
H521 H 0.65176 0.32877 0.13696 0.0
C522 C 0.67954 0.35783 0.09664 0.0
C523 C 0.69119 0.38871 0.08698 0.0
C524 C 0.62036 0.40206 0.20794 0.0
C525 C 0.65555 0.37822 0.15489 0.0
C526 C 0.59507 0.3989 0.23663 0.0
C527 C 0.58204 0.36863 0.24669 0.0
C528 C 0.6324 0.3748 0.18862 0.0
C529 C 0.59613 0.34172 0.22817 0.0
C530 C 0.66179 0.35247 0.1306 0.0
C531 C 0.68628 0.41331 0.11298 0.0
N532 N 0.62022 0.34546 0.19955 0.0
N533 N 0.66852 0.40761 0.1455 0.0
H534 H 0.297 0.6568 0.6073 0.0
H535 H 0.47122 0.60691 0.71342 0.0
H536 H 0.39351 0.62102 0.55304 0.0
H537 H 0.40629 0.68526 0.75543 0.0
H538 H 0.43642 0.60656 0.6576 0.0
H539 H 0.33103 0.66437 0.66427 0.0
C540 C 0.32532 0.65089 0.60719 0.0
C541 C 0.34222 0.63754 0.57555 0.0
C542 C 0.42973 0.6239 0.67894 0.0
C543 C 0.38078 0.64562 0.64041 0.0
C544 C 0.44944 0.62399 0.71106 0.0
C545 C 0.44172 0.64619 0.73926 0.0
C546 C 0.40154 0.64582 0.67486 0.0
C547 C 0.41321 0.66782 0.73429 0.0
C548 C 0.34461 0.65514 0.63967 0.0
C549 C 0.379 0.63037 0.57701 0.0
N550 N 0.39387 0.66698 0.70269 0.0
N551 N 0.39683 0.63408 0.60894 0.0
H552 H 0.83687 0.83261 0.07394 0.0
H553 H 0.90095 0.91214 0.26258 0.0
H554 H 0.81576 0.93048 0.10543 0.0
H555 H 0.93929 0.82041 0.22308 0.0
H556 H 0.86098 0.91515 0.2103 0.0
H557 H 0.8657 0.82382 0.13351 0.0
C558 C 0.83777 0.85206 0.09367 0.0
C559 C 0.82426 0.88239 0.08469 0.0
C560 C 0.87794 0.89424 0.21318 0.0
C561 C 0.85725 0.87263 0.15254 0.0
C562 C 0.9008 0.89247 0.24311 0.0
C563 C 0.92397 0.86616 0.24703 0.0
C564 C 0.87811 0.86956 0.18687 0.0
C565 C 0.92218 0.84129 0.22101 0.0
C566 C 0.85441 0.84711 0.12751 0.0
C567 C 0.82631 0.90685 0.11109 0.0
N568 N 0.89989 0.84372 0.19186 0.0
N569 N 0.84268 0.90149 0.14368 0.0
H570 H 0.19141 0.076 0.59713 0.0
H571 H 0.07545 0.19292 0.72619 0.0
H572 H 0.17922 0.17672 0.57475 0.0
H573 H 0.09978 0.09498 0.75472 0.0
H574 H 0.11786 0.18907 0.67374 0.0
H575 H 0.16316 0.08395 0.65815 0.0
C576 C 0.18323 0.0999 0.6054 0.0
C577 C 0.18728 0.12571 0.58087 0.0
C578 C 0.11419 0.16853 0.6917 0.0
C579 C 0.15445 0.13498 0.65035 0.0
C580 C 0.08988 0.17067 0.72162 0.0
C581 C 0.08358 0.14407 0.7446 0.0
C582 C 0.13217 0.13951 0.68454 0.0
C583 C 0.10341 0.11601 0.73754 0.0
C584 C 0.1671 0.10445 0.6402 0.0
C585 C 0.17657 0.15623 0.59294 0.0
N586 N 0.12648 0.11437 0.70792 0.0
N587 N 0.16011 0.15996 0.62666 0.0
H588 H 0.12415 0.90411 0.0526 0.0
H589 H 0.1055 0.831 0.25533 0.0
H590 H 0.2177 0.86707 0.10662 0.0
H591 H 0.04027 0.90815 0.21382 0.0
H592 H 0.14371 0.83464 0.19871 0.0
H593 H 0.08873 0.89485 0.10888 0.0
C594 C 0.13733 0.89414 0.07641 0.0
C595 C 0.1742 0.8872 0.07521 0.0
C596 C 0.12103 0.85071 0.20234 0.0
C597 C 0.13341 0.87594 0.13975 0.0
C598 C 0.09926 0.84865 0.23446 0.0
C599 C 0.06966 0.86931 0.23934 0.0
C600 C 0.11248 0.87307 0.17485 0.0
C601 C 0.0628 0.89178 0.21148 0.0
C602 C 0.11702 0.88874 0.1085 0.0
C603 C 0.1894 0.87304 0.10651 0.0
N604 N 0.08383 0.89286 0.18046 0.0
N605 N 0.16894 0.86803 0.13777 0.0
H606 H 0.83687 0.18425 0.58229 0.0
H607 H 0.92764 0.0964 0.75063 0.0
H608 H 0.81467 0.08664 0.61374 0.0
H609 H 0.92842 0.19919 0.73991 0.0
H610 H 0.8841 0.09343 0.70162 0.0
H611 H 0.86719 0.19196 0.64117 0.0
C612 C 0.83766 0.16468 0.60193 0.0
C613 C 0.82377 0.1346 0.59287 0.0
C614 C 0.89344 0.11672 0.71012 0.0
C615 C 0.85887 0.14304 0.65976 0.0
C616 C 0.91847 0.1184 0.73803 0.0
C617 C 0.93195 0.14806 0.7491 0.0
C618 C 0.88212 0.14485 0.69252 0.0
C619 C 0.91876 0.17582 0.73211 0.0
C620 C 0.85515 0.16903 0.63541 0.0
C621 C 0.82571 0.11002 0.61925 0.0
N622 N 0.89493 0.17353 0.70423 0.0
N623 N 0.84338 0.11465 0.65117 0.0
loop_
_geom_bond_atom_site_label_1
_geom_bond_atom_site_label_2
_geom_bond_distance
_geom_bond_site_symmetry_2
_ccdc_geom_bond_type
H0 C7 0.929 . S
H1 C10 0.930 . S
H2 C12 0.929 . S
H3 C4 0.969 . S
C4 H3 0.969 . S
C4 O5 1.550 1_556 S
C4 H6 0.973 . S
O5 C4 1.550 1_554 S
O5 C11 1.412 . S
H6 C4 0.973 . S
C7 H0 0.929 . S
C7 C8 1.400 . S
C7 C9 1.364 1_554 S
C8 C7 1.400 . S
C8 C12 1.377 . S
C9 C7 1.364 1_556 S
C9 C10 1.374 . S
C10 H1 0.930 . S
C10 C9 1.374 . S
C10 C11 1.383 1_556 S
C11 O5 1.412 . S
C11 C10 1.383 1_554 S
C11 C12 1.394 . S
C12 H2 0.929 . S
C12 C8 1.377 . S
C12 C11 1.394 . S
H13 C20 0.929 . S
H14 C23 0.930 . S
H15 C25 0.929 . S
H16 C17 0.969 . S
C17 H16 0.969 . S
C17 O18 1.550 . S
C17 H19 0.973 . S
O18 C17 1.550 . S
O18 C24 1.412 . S
H19 C17 0.973 . S
C20 H13 0.929 . S
C20 C21 1.400 . S
C20 C22 1.364 . S
C21 C20 1.400 . S
C21 C25 1.377 . S
C22 C20 1.364 . S
C22 C23 1.374 . S
C23 H14 0.930 . S
C23 C22 1.374 . S
C23 C24 1.383 . S
C24 O18 1.412 . S
C24 C23 1.383 . S
C24 C25 1.394 . S
C25 H15 0.929 . S
C25 C21 1.377 . S
C25 C24 1.394 . S
H26 C33 0.929 . S
H27 C36 0.930 . S
H28 C38 0.929 . S
H29 C30 0.969 . S
C30 H29 0.969 . S
C30 O31 1.550 . S
C30 H32 0.973 1_556 S
O31 C30 1.550 . S
O31 C37 1.412 . S
H32 C30 0.973 1_554 S
C33 H26 0.929 . S
C33 C34 1.400 1_554 S
C33 C35 1.364 . S
C34 C33 1.400 1_556 S
C34 C38 1.377 . S
C35 C33 1.364 . S
C35 C36 1.374 . S
C36 H27 0.930 . S
C36 C35 1.374 . S
C36 C37 1.383 1_554 S
C37 O31 1.412 . S
C37 C36 1.383 1_556 S
C37 C38 1.394 . S
C38 H28 0.929 . S
C38 C34 1.377 . S
C38 C37 1.394 . S
H39 C46 0.929 . S
H40 C49 0.930 . S
H41 C51 0.929 . S
H42 C43 0.969 . S
C43 H42 0.969 . S
C43 O44 1.550 . S
C43 H45 0.973 . S
O44 C43 1.550 . S
O44 C50 1.412 . S
H45 C43 0.973 . S
C46 H39 0.929 . S
C46 C47 1.400 . S
C46 C48 1.364 . S
C47 C46 1.400 . S
C47 C51 1.377 . S
C48 C46 1.364 . S
C48 C49 1.374 . S
C49 H40 0.930 . S
C49 C48 1.374 . S
C49 C50 1.383 . S
C50 O44 1.412 . S
C50 C49 1.383 . S
C50 C51 1.394 . S
C51 H41 0.929 . S
C51 C47 1.377 . S
C51 C50 1.394 . S
H52 C59 0.929 . S
H53 C62 0.930 . S
H54 C64 0.929 . S
H55 C56 0.969 . S
C56 H55 0.969 . S
C56 O57 1.550 1_556 S
C56 H58 0.973 . S
O57 C56 1.550 1_554 S
O57 C63 1.412 . S
H58 C56 0.973 . S
C59 H52 0.929 . S
C59 C60 1.400 . S
C59 C61 1.364 1_554 S
C60 C59 1.400 . S
C60 C64 1.377 . S
C61 C59 1.364 1_556 S
C61 C62 1.374 . S
C62 H53 0.930 . S
C62 C61 1.374 . S
C62 C63 1.383 1_556 S
C63 O57 1.412 . S
C63 C62 1.383 1_554 S
C63 C64 1.394 . S
C64 H54 0.929 . S
C64 C60 1.377 . S
C64 C63 1.394 . S
H65 C72 0.929 . S
H66 C75 0.930 . S
H67 C77 0.929 . S
H68 C69 0.969 . S
C69 H68 0.969 . S
C69 O70 1.550 . S
C69 H71 0.973 . S
O70 C69 1.550 . S
O70 C76 1.412 . S
H71 C69 0.973 . S
C72 H65 0.929 . S
C72 C73 1.400 . S
C72 C74 1.364 . S
C73 C72 1.400 . S
C73 C77 1.377 . S
C74 C72 1.364 . S
C74 C75 1.374 . S
C75 H66 0.930 . S
C75 C74 1.374 . S
C75 C76 1.383 . S
C76 O70 1.412 . S
C76 C75 1.383 . S
C76 C77 1.394 . S
C77 H67 0.929 . S
C77 C73 1.377 . S
C77 C76 1.394 . S
H78 C85 0.929 . S
H79 C88 0.930 . S
H80 C90 0.929 . S
H81 C82 0.969 . S
C82 H81 0.969 . S
C82 O83 1.550 . S
C82 H84 0.973 1_556 S
O83 C82 1.550 . S
O83 C89 1.412 . S
H84 C82 0.973 1_554 S
C85 H78 0.929 . S
C85 C86 1.400 1_554 S
C85 C87 1.364 . S
C86 C85 1.400 1_556 S
C86 C90 1.377 . S
C87 C85 1.364 . S
C87 C88 1.374 . S
C88 H79 0.930 . S
C88 C87 1.374 . S
C88 C89 1.383 1_554 S
C89 O83 1.412 . S
C89 C88 1.383 1_556 S
C89 C90 1.394 . S
C90 H80 0.929 . S
C90 C86 1.377 . S
C90 C89 1.394 . S
H91 C98 0.929 . S
H92 C101 0.930 . S
H93 C103 0.929 . S
H94 C95 0.969 . S
C95 H94 0.969 . S
C95 O96 1.550 . S
C95 H97 0.973 . S
O96 C95 1.550 . S
O96 C102 1.412 . S
H97 C95 0.973 . S
C98 H91 0.929 . S
C98 C99 1.400 . S
C98 C100 1.364 . S
C99 C98 1.400 . S
C99 C103 1.377 . S
C100 C98 1.364 . S
C100 C101 1.374 . S
C101 H92 0.930 . S
C101 C100 1.374 . S
C101 C102 1.383 . S
C102 O96 1.412 . S
C102 C101 1.383 . S
C102 C103 1.394 . S
C103 H93 0.929 . S
C103 C99 1.377 . S
C103 C102 1.394 . S
Fe104 O106 1.918 . S
Fe104 O109 1.997 1_455 S
Fe104 O110 2.002 1_455 S
Fe104 O115 1.976 . S
Fe104 O118 1.996 . S
Fe105 O106 1.918 . S
Fe105 O113 1.997 1_455 S
Fe105 O116 1.996 . S
Fe105 O120 1.976 . S
Fe105 O123 2.002 1_455 S
O106 Fe104 1.918 . S
O106 Fe105 1.918 . S
O106 Fe107 1.918 . S
Fe107 O106 1.918 . S
Fe107 O108 2.002 1_455 S
Fe107 O117 1.976 . S
Fe107 O121 1.996 . S
Fe107 O124 1.997 1_455 S
O108 Fe107 2.002 1_655 S
O108 C125 1.295 . S
O109 Fe104 1.997 1_655 S
O109 C125 1.235 . S
O110 Fe104 2.002 1_655 S
O110 C111 1.295 . S
C111 O110 1.295 . S
C111 O113 1.235 . S
C112 O117 1.287 . S
C112 O118 1.255 . S
O113 Fe105 1.997 1_655 S
O113 C111 1.235 . S
C114 O120 1.287 . S
C114 O121 1.255 . S
O115 Fe104 1.976 . S
O115 C122 1.287 . S
O116 Fe105 1.996 . S
O116 C122 1.255 . S
O117 Fe107 1.976 . S
O117 C112 1.287 . S
O118 Fe104 1.996 . S
O118 C112 1.255 . S
C119 O123 1.295 . S
C119 O124 1.235 . S
O120 Fe105 1.976 . S
O120 C114 1.287 . S
O121 Fe107 1.996 . S
O121 C114 1.255 . S
C122 O115 1.287 . S
C122 O116 1.255 . S
O123 Fe105 2.002 1_655 S
O123 C119 1.295 . S
O124 Fe107 1.997 1_655 S
O124 C119 1.235 . S
C125 O108 1.295 . S
C125 O109 1.235 . S
Fe126 O128 1.918 . S
Fe126 O131 1.997 1_655 S
Fe126 O132 2.002 1_655 S
Fe126 O137 1.976 . S
Fe126 O140 1.996 . S
Fe127 O128 1.918 . S
Fe127 O135 1.983 1_655 S
Fe127 O138 2.009 . S
Fe127 O142 1.990 . S
Fe127 O145 1.989 1_655 S
O128 Fe126 1.918 . S
O128 Fe127 1.918 . S
O128 Fe129 1.918 . S
Fe129 O128 1.918 . S
Fe129 O130 1.992 1_655 S
Fe129 O139 1.986 . S
Fe129 O143 2.006 . S
Fe129 O146 1.986 1_655 S
O130 Fe129 1.992 1_455 S
O130 C147 1.295 . S
O131 Fe126 1.997 1_455 S
O131 C147 1.235 . S
O132 Fe126 2.002 1_455 S
O132 C133 1.295 . S
C133 O132 1.295 . S
C133 O135 1.235 . S
C134 O139 1.287 . S
C134 O140 1.255 . S
O135 Fe127 1.983 1_455 S
O135 C133 1.235 . S
C136 O142 1.287 . S
C136 O143 1.255 . S
O137 Fe126 1.976 . S
O137 C144 1.287 . S
O138 Fe127 2.009 . S
O138 C144 1.255 . S
O139 Fe129 1.986 . S
O139 C134 1.287 . S
O140 Fe126 1.996 . S
O140 C134 1.255 . S
C141 O145 1.295 . S
C141 O146 1.235 . S
O142 Fe127 1.990 . S
O142 C136 1.287 . S
O143 Fe129 2.006 . S
O143 C136 1.255 . S
C144 O137 1.287 . S
C144 O138 1.255 . S
O145 Fe127 1.989 1_455 S
O145 C141 1.295 . S
O146 Fe129 1.986 1_455 S
O146 C141 1.235 . S
C147 O130 1.295 . S
C147 O131 1.235 . S
Fe148 O150 1.918 . S
Fe148 O153 1.997 . S
Fe148 O154 2.002 . S
Fe148 O159 1.976 . S
Fe148 O162 1.996 . S
Fe149 O150 1.918 . S
Fe149 O157 1.997 . S
Fe149 O160 1.996 . S
Fe149 O164 1.976 . S
Fe149 O167 2.002 . S
O150 Fe148 1.918 . S
O150 Fe149 1.918 . S
O150 Fe151 1.918 . S
Fe151 O150 1.918 . S
Fe151 O152 2.002 . S
Fe151 O161 1.976 . S
Fe151 O165 1.996 . S
Fe151 O168 1.997 . S
O152 Fe151 2.002 . S
O152 C169 1.295 . S
O153 Fe148 1.997 . S
O153 C169 1.235 . S
O154 Fe148 2.002 . S
O154 C155 1.295 . S
C155 O154 1.295 . S
C155 O157 1.235 . S
C156 O161 1.287 . S
C156 O162 1.255 . S
O157 Fe149 1.997 . S
O157 C155 1.235 . S
C158 O164 1.287 . S
C158 O165 1.255 . S
O159 Fe148 1.976 . S
O159 C166 1.287 . S
O160 Fe149 1.996 . S
O160 C166 1.255 . S
O161 Fe151 1.976 . S
O161 C156 1.287 . S
O162 Fe148 1.996 . S
O162 C156 1.255 . S
C163 O167 1.295 . S
C163 O168 1.235 . S
O164 Fe149 1.976 . S
O164 C158 1.287 . S
O165 Fe151 1.996 . S
O165 C158 1.255 . S
C166 O159 1.287 . S
C166 O160 1.255 . S
O167 Fe149 2.002 . S
O167 C163 1.295 . S
O168 Fe151 1.997 . S
O168 C163 1.235 . S
C169 O152 1.295 . S
C169 O153 1.235 . S
Fe170 O172 1.918 . S
Fe170 O175 1.997 . S
Fe170 O176 2.002 . S
Fe170 O181 1.976 . S
Fe170 O184 1.996 . S
Fe171 O172 1.918 . S
Fe171 O179 1.997 . S
Fe171 O182 1.996 . S
Fe171 O186 1.976 . S
Fe171 O189 2.002 . S
O172 Fe170 1.918 . S
O172 Fe171 1.918 . S
O172 Fe173 1.918 . S
Fe173 O172 1.918 . S
Fe173 O174 2.002 . S
Fe173 O183 1.976 . S
Fe173 O187 1.996 . S
Fe173 O190 1.997 . S
O174 Fe173 2.002 . S
O174 C191 1.295 . S
O175 Fe170 1.997 . S
O175 C191 1.235 . S
O176 Fe170 2.002 . S
O176 C177 1.295 . S
C177 O176 1.295 . S
C177 O179 1.235 . S
C178 O183 1.287 . S
C178 O184 1.255 . S
O179 Fe171 1.997 . S
O179 C177 1.235 . S
C180 O186 1.287 . S
C180 O187 1.255 . S
O181 Fe170 1.976 . S
O181 C188 1.287 . S
O182 Fe171 1.996 . S
O182 C188 1.255 . S
O183 Fe173 1.976 . S
O183 C178 1.287 . S
O184 Fe170 1.996 . S
O184 C178 1.255 . S
C185 O189 1.295 . S
C185 O190 1.235 . S
O186 Fe171 1.976 . S
O186 C180 1.287 . S
O187 Fe173 1.996 . S
O187 C180 1.255 . S
C188 O181 1.287 . S
C188 O182 1.255 . S
O189 Fe171 2.002 . S
O189 C185 1.295 . S
O190 Fe173 1.997 . S
O190 C185 1.235 . S
C191 O174 1.295 . S
C191 O175 1.235 . S
H192 C198 0.930 . S
H193 C202 0.930 . S
H194 C207 0.929 . S
H195 C205 0.929 . S
H196 C200 0.929 . S
H197 C206 0.929 . S
C198 H192 0.930 . S
C198 C199 1.367 . S
C198 C206 1.378 . S
C199 C198 1.367 . S
C199 C207 1.433 . S
C200 H196 0.929 . S
C200 C202 1.378 . S
C200 C204 1.350 . S
C201 C204 1.463 . S
C201 C206 1.350 . S
C201 N209 1.427 . S
C202 H193 0.930 . S
C202 C200 1.378 . S
C202 C203 1.367 . S
C203 C202 1.367 . S
C203 C205 1.433 . S
C204 C200 1.350 . S
C204 C201 1.463 . S
C204 N208 1.427 . S
C205 H195 0.929 . S
C205 C203 1.433 . S
C205 N208 1.384 . S
C206 H197 0.929 . S
C206 C198 1.378 . S
C206 C201 1.350 . S
C207 H194 0.929 . S
C207 C199 1.433 . S
C207 N209 1.384 . S
N208 C204 1.427 . S
N208 C205 1.384 . S
N209 C201 1.427 . S
N209 C207 1.384 . S
H210 C216 0.930 . S
H211 C220 0.930 . S
H212 C225 0.929 . S
H213 C223 0.929 . S
H214 C218 0.929 . S
H215 C224 0.929 . S
C216 H210 0.930 . S
C216 C217 1.367 . S
C216 C224 1.378 . S
C217 C216 1.367 . S
C217 C225 1.433 . S
C218 H214 0.929 . S
C218 C220 1.378 . S
C218 C222 1.350 . S
C219 C222 1.463 . S
C219 C224 1.350 . S
C219 N227 1.427 . S
C220 H211 0.930 . S
C220 C218 1.378 . S
C220 C221 1.367 . S
C221 C220 1.367 . S
C221 C223 1.433 . S
C222 C218 1.350 . S
C222 C219 1.463 . S
C222 N226 1.427 . S
C223 H213 0.929 . S
C223 C221 1.433 . S
C223 N226 1.384 . S
C224 H215 0.929 . S
C224 C216 1.378 . S
C224 C219 1.350 . S
C225 H212 0.929 . S
C225 C217 1.433 . S
C225 N227 1.384 . S
N226 C222 1.427 . S
N226 C223 1.384 . S
N227 C219 1.427 . S
N227 C225 1.384 . S
H228 C234 0.930 . S
H229 C238 0.930 . S
H230 C243 0.929 . S
H231 C241 0.929 . S
H232 C236 0.929 . S
H233 C242 0.929 . S
C234 H228 0.930 . S
C234 C235 1.367 . S
C234 C242 1.378 . S
C235 C234 1.367 . S
C235 C243 1.433 . S
C236 H232 0.929 . S
C236 C238 1.378 . S
C236 C240 1.350 . S
C237 C240 1.463 . S
C237 C242 1.350 . S
C237 N245 1.427 . S
C238 H229 0.930 . S
C238 C236 1.378 . S
C238 C239 1.367 . S
C239 C238 1.367 . S
C239 C241 1.433 . S
C240 C236 1.350 . S
C240 C237 1.463 . S
C240 N244 1.427 . S
C241 H231 0.929 . S
C241 C239 1.433 . S
C241 N244 1.384 . S
C242 H233 0.929 . S
C242 C234 1.378 . S
C242 C237 1.350 . S
C243 H230 0.929 . S
C243 C235 1.433 . S
C243 N245 1.384 . S
N244 C240 1.427 . S
N244 C241 1.384 . S
N245 C237 1.427 . S
N245 C243 1.384 . S
H246 C252 0.930 . S
H247 C256 0.930 . S
H248 C261 0.929 . S
H249 C259 0.929 . S
H250 C254 0.929 . S
H251 C260 0.929 . S
C252 H246 0.930 . S
C252 C253 1.367 . S
C252 C260 1.378 . S
C253 C252 1.367 . S
C253 C261 1.433 . S
C254 H250 0.929 . S
C254 C256 1.378 . S
C254 C258 1.350 . S
C255 C258 1.463 . S
C255 C260 1.350 . S
C255 N263 1.427 . S
C256 H247 0.930 . S
C256 C254 1.378 . S
C256 C257 1.367 . S
C257 C256 1.367 . S
C257 C259 1.433 . S
C258 C254 1.350 . S
C258 C255 1.463 . S
C258 N262 1.427 . S
C259 H249 0.929 . S
C259 C257 1.433 . S
C259 N262 1.384 . S
C260 H251 0.929 . S
C260 C252 1.378 . S
C260 C255 1.350 . S
C261 H248 0.929 . S
C261 C253 1.433 . S
C261 N263 1.384 . S
N262 C258 1.427 . S
N262 C259 1.384 . S
N263 C255 1.427 . S
N263 C261 1.384 . S
H264 C270 0.930 1_554 S
H265 C274 0.930 . S
H266 C279 0.929 . S
H267 C277 0.929 . S
H268 C272 0.929 . S
H269 C278 0.929 . S
C270 H264 0.930 1_556 S
C270 C271 1.367 . S
C270 C278 1.378 . S
C271 C270 1.367 . S
C271 C279 1.433 . S
C272 H268 0.929 . S
C272 C274 1.378 . S
C272 C276 1.350 . S
C273 C276 1.463 . S
C273 C278 1.350 . S
C273 N281 1.427 . S
C274 H265 0.930 . S
C274 C272 1.378 . S
C274 C275 1.367 . S
C275 C274 1.367 . S
C275 C277 1.433 . S
C276 C272 1.350 . S
C276 C273 1.463 . S
C276 N280 1.427 . S
C277 H267 0.929 . S
C277 C275 1.433 . S
C277 N280 1.384 . S
C278 H269 0.929 . S
C278 C270 1.378 . S
C278 C273 1.350 . S
C279 H266 0.929 . S
C279 C271 1.433 . S
C279 N281 1.384 . S
N280 C276 1.427 . S
N280 C277 1.384 . S
N281 C273 1.427 . S
N281 C279 1.384 . S
H282 C288 0.930 . S
H283 C292 0.930 . S
H284 C297 0.929 . S
H285 C295 0.929 . S
H286 C290 0.929 . S
H287 C296 0.929 . S
C288 H282 0.930 . S
C288 C289 1.367 . S
C288 C296 1.378 . S
C289 C288 1.367 . S
C289 C297 1.433 . S
C290 H286 0.929 . S
C290 C292 1.378 . S
C290 C294 1.350 . S
C291 C294 1.463 . S
C291 C296 1.350 . S
C291 N299 1.427 . S
C292 H283 0.930 . S
C292 C290 1.378 . S
C292 C293 1.367 . S
C293 C292 1.367 . S
C293 C295 1.433 . S
C294 C290 1.350 . S
C294 C291 1.463 . S
C294 N298 1.427 . S
C295 H285 0.929 . S
C295 C293 1.433 . S
C295 N298 1.384 . S
C296 H287 0.929 . S
C296 C288 1.378 . S
C296 C291 1.350 . S
C297 H284 0.929 . S
C297 C289 1.433 . S
C297 N299 1.384 . S
N298 C294 1.427 . S
N298 C295 1.384 . S
N299 C291 1.427 . S
N299 C297 1.384 . S
H300 C306 0.930 . S
H301 C310 0.930 . S
H302 C315 0.929 1_554 S
H303 C313 0.929 . S
H304 C308 0.929 . S
H305 C314 0.929 . S
C306 H300 0.930 . S
C306 C307 1.367 . S
C306 C314 1.378 . S
C307 C306 1.367 . S
C307 C315 1.433 . S
C308 H304 0.929 . S
C308 C310 1.378 . S
C308 C312 1.350 . S
C309 C312 1.463 . S
C309 C314 1.350 . S
C309 N317 1.427 . S
C310 H301 0.930 . S
C310 C308 1.378 . S
C310 C311 1.367 . S
C311 C310 1.367 . S
C311 C313 1.433 . S
C312 C308 1.350 . S
C312 C309 1.463 . S
C312 N316 1.427 . S
C313 H303 0.929 . S
C313 C311 1.433 . S
C313 N316 1.384 . S
C314 H305 0.929 . S
C314 C306 1.378 . S
C314 C309 1.350 . S
C315 H302 0.929 1_556 S
C315 C307 1.433 . S
C315 N317 1.384 . S
N316 C312 1.427 . S
N316 C313 1.384 . S
N317 C309 1.427 . S
N317 C315 1.384 . S
H318 C324 0.930 . S
H319 C328 0.930 . S
H320 C333 0.929 . S
H321 C331 0.929 . S
H322 C326 0.929 . S
H323 C332 0.929 . S
C324 H318 0.930 . S
C324 C325 1.367 . S
C324 C332 1.378 . S
C325 C324 1.367 . S
C325 C333 1.433 . S
C326 H322 0.929 . S
C326 C328 1.378 . S
C326 C330 1.350 . S
C327 C330 1.463 . S
C327 C332 1.350 . S
C327 N335 1.427 . S
C328 H319 0.930 . S
C328 C326 1.378 . S
C328 C329 1.367 . S
C329 C328 1.367 . S
C329 C331 1.433 . S
C330 C326 1.350 . S
C330 C327 1.463 . S
C330 N334 1.427 . S
C331 H321 0.929 . S
C331 C329 1.433 . S
C331 N334 1.384 . S
C332 H323 0.929 . S
C332 C324 1.378 . S
C332 C327 1.350 . S
C333 H320 0.929 . S
C333 C325 1.433 . S
C333 N335 1.384 . S
N334 C330 1.427 . S
N334 C331 1.384 . S
N335 C327 1.427 . S
N335 C333 1.384 . S
H336 C342 0.930 1_554 S
H337 C346 0.930 . S
H338 C351 0.929 . S
H339 C349 0.929 . S
H340 C344 0.929 . S
H341 C350 0.929 . S
C342 H336 0.930 1_556 S
C342 C343 1.367 . S
C342 C350 1.378 . S
C343 C342 1.367 . S
C343 C351 1.433 . S
C344 H340 0.929 . S
C344 C346 1.378 . S
C344 C348 1.350 . S
C345 C348 1.463 . S
C345 C350 1.350 . S
C345 N353 1.427 . S
C346 H337 0.930 . S
C346 C344 1.378 . S
C346 C347 1.367 . S
C347 C346 1.367 . S
C347 C349 1.433 . S
C348 C344 1.350 . S
C348 C345 1.463 . S
C348 N352 1.427 . S
C349 H339 0.929 . S
C349 C347 1.433 . S
C349 N352 1.384 . S
C350 H341 0.929 . S
C350 C342 1.378 . S
C350 C345 1.350 . S
C351 H338 0.929 . S
C351 C343 1.433 . S
C351 N353 1.384 . S
N352 C348 1.427 . S
N352 C349 1.384 . S
N353 C345 1.427 . S
N353 C351 1.384 . S
H354 C360 0.930 . S
H355 C364 0.930 . S
H356 C369 0.929 . S
H357 C367 0.929 . S
H358 C362 0.929 . S
H359 C368 0.929 . S
C360 H354 0.930 . S
C360 C361 1.367 . S
C360 C368 1.378 . S
C361 C360 1.367 . S
C361 C369 1.433 . S
C362 H358 0.929 . S
C362 C364 1.378 . S
C362 C366 1.350 . S
C363 C366 1.463 . S
C363 C368 1.350 . S
C363 N371 1.427 . S
C364 H355 0.930 . S
C364 C362 1.378 . S
C364 C365 1.367 . S
C365 C364 1.367 . S
C365 C367 1.433 . S
C366 C362 1.350 . S
C366 C363 1.463 . S
C366 N370 1.427 . S
C367 H357 0.929 . S
C367 C365 1.433 . S
C367 N370 1.384 . S
C368 H359 0.929 . S
C368 C360 1.378 . S
C368 C363 1.350 . S
C369 H356 0.929 . S
C369 C361 1.433 . S
C369 N371 1.384 . S
N370 C366 1.427 . S
N370 C367 1.384 . S
N371 C363 1.427 . S
N371 C369 1.384 . S
H372 C378 0.930 . S
H373 C382 0.930 . S
H374 C387 0.929 . S
H375 C385 0.929 . S
H376 C380 0.929 . S
H377 C386 0.929 . S
C378 H372 0.930 . S
C378 C379 1.367 . S
C378 C386 1.378 . S
C379 C378 1.367 . S
C379 C387 1.433 . S
C380 H376 0.929 . S
C380 C382 1.378 . S
C380 C384 1.350 . S
C381 C384 1.463 . S
C381 C386 1.350 . S
C381 N389 1.427 . S
C382 H373 0.930 . S
C382 C380 1.378 . S
C382 C383 1.367 . S
C383 C382 1.367 . S
C383 C385 1.433 . S
C384 C380 1.350 . S
C384 C381 1.463 . S
C384 N388 1.427 . S
C385 H375 0.929 . S
C385 C383 1.433 . S
C385 N388 1.384 . S
C386 H377 0.929 . S
C386 C378 1.378 . S
C386 C381 1.350 . S
C387 H374 0.929 . S
C387 C379 1.433 . S
C387 N389 1.384 . S
N388 C384 1.427 . S
N388 C385 1.384 . S
N389 C381 1.427 . S
N389 C387 1.384 . S
H390 C396 0.930 . S
H391 C400 0.930 . S
H392 C405 0.929 . S
H393 C403 0.929 . S
H394 C398 0.929 . S
H395 C404 0.929 . S
C396 H390 0.930 . S
C396 C397 1.367 . S
C396 C404 1.378 . S
C397 C396 1.367 . S
C397 C405 1.433 . S
C398 H394 0.929 . S
C398 C400 1.378 . S
C398 C402 1.350 . S
C399 C402 1.463 . S
C399 C404 1.350 . S
C399 N407 1.427 . S
C400 H391 0.930 . S
C400 C398 1.378 . S
C400 C401 1.367 . S
C401 C400 1.367 . S
C401 C403 1.433 . S
C402 C398 1.350 . S
C402 C399 1.463 . S
C402 N406 1.427 . S
C403 H393 0.929 . S
C403 C401 1.433 . S
C403 N406 1.384 . S
C404 H395 0.929 . S
C404 C396 1.378 . S
C404 C399 1.350 . S
C405 H392 0.929 . S
C405 C397 1.433 . S
C405 N407 1.384 . S
N406 C402 1.427 . S
N406 C403 1.384 . S
N407 C399 1.427 . S
N407 C405 1.384 . S
H408 C414 0.930 1_554 S
H409 C418 0.930 . S
H410 C423 0.929 . S
H411 C421 0.929 . S
H412 C416 0.929 1_565 S
H413 C422 0.929 . S
C414 H408 0.930 1_556 S
C414 C415 1.367 . S
C414 C422 1.378 . S
C415 C414 1.367 . S
C415 C423 1.433 . S
C416 H412 0.929 1_545 S
C416 C418 1.378 . S
C416 C420 1.350 . S
C417 C420 1.463 1_565 S
C417 C422 1.350 . S
C417 N425 1.427 . S
C418 H409 0.930 . S
C418 C416 1.378 . S
C418 C419 1.367 . S
C419 C418 1.367 . S
C419 C421 1.433 . S
C420 C416 1.350 . S
C420 C417 1.463 1_545 S
C420 N424 1.427 . S
C421 H411 0.929 . S
C421 C419 1.433 . S
C421 N424 1.384 . S
C422 H413 0.929 . S
C422 C414 1.378 . S
C422 C417 1.350 . S
C423 H410 0.929 . S
C423 C415 1.433 . S
C423 N425 1.384 . S
N424 C420 1.427 . S
N424 C421 1.384 . S
N425 C417 1.427 . S
N425 C423 1.384 . S
H426 C432 0.930 . S
H427 C436 0.930 . S
H428 C441 0.929 . S
H429 C439 0.929 . S
H430 C434 0.927 . S
H431 C440 0.929 1_565 S
C432 H426 0.930 . S
C432 C433 1.367 . S
C432 C440 1.378 . S
C433 C432 1.367 . S
C433 C441 1.433 . S
C434 H430 0.927 . S
C434 C436 1.379 1_545 S
C434 C438 1.350 1_545 S
C435 C438 1.463 1_545 S
C435 C440 1.350 . S
C435 N443 1.427 . S
C436 H427 0.930 . S
C436 C434 1.379 1_565 S
C436 C437 1.367 . S
C437 C436 1.367 . S
C437 C439 1.433 . S
C438 C434 1.350 1_565 S
C438 C435 1.463 1_565 S
C438 N442 1.427 . S
C439 H429 0.929 . S
C439 C437 1.433 . S
C439 N442 1.384 . S
C440 H431 0.929 1_545 S
C440 C432 1.378 . S
C440 C435 1.350 . S
C441 H428 0.929 . S
C441 C433 1.433 . S
C441 N443 1.384 . S
N442 C438 1.427 . S
N442 C439 1.384 . S
N443 C435 1.427 . S
N443 C441 1.384 . S
H444 C450 0.930 . S
H445 C454 0.930 . S
H446 C459 0.929 . S
H447 C457 0.929 . S
H448 C452 0.929 . S
H449 C458 0.929 . S
C450 H444 0.930 . S
C450 C451 1.367 . S
C450 C458 1.378 1_565 S
C451 C450 1.367 . S
C451 C459 1.433 . S
C452 H448 0.929 . S
C452 C454 1.378 1_565 S
C452 C456 1.350 1_565 S
C453 C456 1.463 1_565 S
C453 C458 1.350 1_565 S
C453 N461 1.427 . S
C454 H445 0.930 . S
C454 C452 1.378 1_545 S
C454 C455 1.367 . S
C455 C454 1.367 . S
C455 C457 1.433 . S
C456 C452 1.350 1_545 S
C456 C453 1.463 1_545 S
C456 N460 1.427 . S
C457 H447 0.929 . S
C457 C455 1.433 . S
C457 N460 1.384 . S
C458 H449 0.929 . S
C458 C450 1.378 1_545 S
C458 C453 1.350 1_545 S
C459 H446 0.929 . S
C459 C451 1.433 . S
C459 N461 1.384 . S
N460 C456 1.427 . S
N460 C457 1.384 . S
N461 C453 1.427 . S
N461 C459 1.384 . S
H462 C468 0.930 . S
H463 C472 0.930 . S
H464 C477 0.929 . S
H465 C475 0.929 . S
H466 C470 0.929 . S
H467 C476 0.929 . S
C468 H462 0.930 . S
C468 C469 1.367 . S
C468 C476 1.378 . S
C469 C468 1.367 . S
C469 C477 1.433 . S
C470 H466 0.929 . S
C470 C472 1.378 . S
C470 C474 1.350 . S
C471 C474 1.463 1_545 S
C471 C476 1.350 . S
C471 N479 1.427 . S
C472 H463 0.930 . S
C472 C470 1.378 . S
C472 C473 1.367 . S
C473 C472 1.367 . S
C473 C475 1.433 . S
C474 C470 1.350 . S
C474 C471 1.463 1_565 S
C474 N478 1.427 . S
C475 H465 0.929 . S
C475 C473 1.433 . S
C475 N478 1.384 . S
C476 H467 0.929 . S
C476 C468 1.378 . S
C476 C471 1.350 . S
C477 H464 0.929 . S
C477 C469 1.433 . S
C477 N479 1.384 . S
N478 C474 1.427 . S
N478 C475 1.384 . S
N479 C471 1.427 . S
N479 C477 1.384 . S
H480 C486 0.930 . S
H481 C490 0.930 . S
H482 C495 0.929 . S
H483 C493 0.929 . S
H484 C488 0.929 . S
H485 C494 0.929 . S
C486 H480 0.930 . S
C486 C487 1.367 . S
C486 C494 1.378 . S
C487 C486 1.367 . S
C487 C495 1.433 . S
C488 H484 0.929 . S
C488 C490 1.378 . S
C488 C492 1.350 . S
C489 C492 1.463 . S
C489 C494 1.350 . S
C489 N497 1.427 . S
C490 H481 0.930 . S
C490 C488 1.378 . S
C490 C491 1.367 . S
C491 C490 1.367 . S
C491 C493 1.433 . S
C492 C488 1.350 . S
C492 C489 1.463 . S
C492 N496 1.427 . S
C493 H483 0.929 . S
C493 C491 1.433 . S
C493 N496 1.384 . S
C494 H485 0.929 . S
C494 C486 1.378 . S
C494 C489 1.350 . S
C495 H482 0.929 . S
C495 C487 1.433 . S
C495 N497 1.384 . S
N496 C492 1.427 . S
N496 C493 1.384 . S
N497 C489 1.427 . S
N497 C495 1.384 . S
H498 C504 0.930 . S
H499 C508 0.930 . S
H500 C513 0.929 . S
H501 C511 0.929 . S
H502 C506 0.929 . S
H503 C512 0.929 . S
C504 H498 0.930 . S
C504 C505 1.367 . S
C504 C512 1.378 . S
C505 C504 1.367 . S
C505 C513 1.433 . S
C506 H502 0.929 . S
C506 C508 1.378 . S
C506 C510 1.350 . S
C507 C510 1.463 . S
C507 C512 1.350 . S
C507 N515 1.427 . S
C508 H499 0.930 . S
C508 C506 1.378 . S
C508 C509 1.367 . S
C509 C508 1.367 . S
C509 C511 1.433 . S
C510 C506 1.350 . S
C510 C507 1.463 . S
C510 N514 1.427 . S
C511 H501 0.929 . S
C511 C509 1.433 . S
C511 N514 1.384 . S
C512 H503 0.929 . S
C512 C504 1.378 . S
C512 C507 1.350 . S
C513 H500 0.929 . S
C513 C505 1.433 . S
C513 N515 1.384 . S
N514 C510 1.427 . S
N514 C511 1.384 . S
N515 C507 1.427 . S
N515 C513 1.384 . S
H516 C522 0.930 . S
H517 C526 0.930 . S
H518 C531 0.929 . S
H519 C529 0.929 . S
H520 C524 0.929 . S
H521 C530 0.929 . S
C522 H516 0.930 . S
C522 C523 1.367 . S
C522 C530 1.378 . S
C523 C522 1.367 . S
C523 C531 1.433 . S
C524 H520 0.929 . S
C524 C526 1.378 . S
C524 C528 1.350 . S
C525 C528 1.463 . S
C525 C530 1.350 . S
C525 N533 1.427 . S
C526 H517 0.930 . S
C526 C524 1.378 . S
C526 C527 1.367 . S
C527 C526 1.367 . S
C527 C529 1.433 . S
C528 C524 1.350 . S
C528 C525 1.463 . S
C528 N532 1.427 . S
C529 H519 0.929 . S
C529 C527 1.433 . S
C529 N532 1.384 . S
C530 H521 0.929 . S
C530 C522 1.378 . S
C530 C525 1.350 . S
C531 H518 0.929 . S
C531 C523 1.433 . S
C531 N533 1.384 . S
N532 C528 1.427 . S
N532 C529 1.384 . S
N533 C525 1.427 . S
N533 C531 1.384 . S
H534 C540 0.930 . S
H535 C544 0.930 . S
H536 C549 0.929 . S
H537 C547 0.929 . S
H538 C542 0.929 . S
H539 C548 0.929 . S
C540 H534 0.930 . S
C540 C541 1.367 . S
C540 C548 1.378 . S
C541 C540 1.367 . S
C541 C549 1.433 . S
C542 H538 0.929 . S
C542 C544 1.378 . S
C542 C546 1.350 . S
C543 C546 1.463 . S
C543 C548 1.350 . S
C543 N551 1.427 . S
C544 H535 0.930 . S
C544 C542 1.378 . S
C544 C545 1.367 . S
C545 C544 1.367 . S
C545 C547 1.433 . S
C546 C542 1.350 . S
C546 C543 1.463 . S
C546 N550 1.427 . S
C547 H537 0.929 . S
C547 C545 1.433 . S
C547 N550 1.384 . S
C548 H539 0.929 . S
C548 C540 1.378 . S
C548 C543 1.350 . S
C549 H536 0.929 . S
C549 C541 1.433 . S
C549 N551 1.384 . S
N550 C546 1.427 . S
N550 C547 1.384 . S
N551 C543 1.427 . S
N551 C549 1.384 . S
H552 C558 0.930 . S
H553 C562 0.930 . S
H554 C567 0.929 . S
H555 C565 0.929 . S
H556 C560 0.929 . S
H557 C566 0.929 . S
C558 H552 0.930 . S
C558 C559 1.367 . S
C558 C566 1.378 . S
C559 C558 1.367 . S
C559 C567 1.433 . S
C560 H556 0.929 . S
C560 C562 1.378 . S
C560 C564 1.350 . S
C561 C564 1.463 . S
C561 C566 1.350 . S
C561 N569 1.427 . S
C562 H553 0.930 . S
C562 C560 1.378 . S
C562 C563 1.367 . S
C563 C562 1.367 . S
C563 C565 1.433 . S
C564 C560 1.350 . S
C564 C561 1.463 . S
C564 N568 1.427 . S
C565 H555 0.929 . S
C565 C563 1.433 . S
C565 N568 1.384 . S
C566 H557 0.929 . S
C566 C558 1.378 . S
C566 C561 1.350 . S
C567 H554 0.929 . S
C567 C559 1.433 . S
C567 N569 1.384 . S
N568 C564 1.427 . S
N568 C565 1.384 . S
N569 C561 1.427 . S
N569 C567 1.384 . S
H570 C576 0.930 . S
H571 C580 0.930 . S
H572 C585 0.929 . S
H573 C583 0.929 . S
H574 C578 0.929 . S
H575 C584 0.929 . S
C576 H570 0.930 . S
C576 C577 1.367 . S
C576 C584 1.378 . S
C577 C576 1.367 . S
C577 C585 1.433 . S
C578 H574 0.929 . S
C578 C580 1.378 . S
C578 C582 1.350 . S
C579 C582 1.463 . S
C579 C584 1.350 . S
C579 N587 1.427 . S
C580 H571 0.930 . S
C580 C578 1.378 . S
C580 C581 1.367 . S
C581 C580 1.367 . S
C581 C583 1.433 . S
C582 C578 1.350 . S
C582 C579 1.463 . S
C582 N586 1.427 . S
C583 H573 0.929 . S
C583 C581 1.433 . S
C583 N586 1.384 . S
C584 H575 0.929 . S
C584 C576 1.378 . S
C584 C579 1.350 . S
C585 H572 0.929 . S
C585 C577 1.433 . S
C585 N587 1.384 . S
N586 C582 1.427 . S
N586 C583 1.384 . S
N587 C579 1.427 . S
N587 C585 1.384 . S
H588 C594 0.930 . S
H589 C598 0.930 . S
H590 C603 0.929 . S
H591 C601 0.929 . S
H592 C596 0.929 . S
H593 C602 0.929 . S
C594 H588 0.930 . S
C594 C595 1.367 . S
C594 C602 1.378 . S
C595 C594 1.367 . S
C595 C603 1.433 . S
C596 H592 0.929 . S
C596 C598 1.378 . S
C596 C600 1.350 . S
C597 C600 1.463 . S
C597 C602 1.350 . S
C597 N605 1.427 . S
C598 H589 0.930 . S
C598 C596 1.378 . S
C598 C599 1.367 . S
C599 C598 1.367 . S
C599 C601 1.433 . S
C600 C596 1.350 . S
C600 C597 1.463 . S
C600 N604 1.427 . S
C601 H591 0.929 . S
C601 C599 1.433 . S
C601 N604 1.384 . S
C602 H593 0.929 . S
C602 C594 1.378 . S
C602 C597 1.350 . S
C603 H590 0.929 . S
C603 C595 1.433 . S
C603 N605 1.384 . S
N604 C600 1.427 . S
N604 C601 1.384 . S
N605 C597 1.427 . S
N605 C603 1.384 . S
H606 C612 0.930 . S
H607 C616 0.930 . S
H608 C621 0.929 . S
H609 C619 0.929 . S
H610 C614 0.929 . S
H611 C620 0.929 . S
C612 H606 0.930 . S
C612 C613 1.367 . S
C612 C620 1.378 . S
C613 C612 1.367 . S
C613 C621 1.433 . S
C614 H610 0.929 . S
C614 C616 1.378 . S
C614 C618 1.350 . S
C615 C618 1.463 . S
C615 C620 1.350 . S
C615 N623 1.427 . S
C616 H607 0.930 . S
C616 C614 1.378 . S
C616 C617 1.367 . S
C617 C616 1.367 . S
C617 C619 1.433 . S
C618 C614 1.350 . S
C618 C615 1.463 . S
C618 N622 1.427 . S
C619 H609 0.929 . S
C619 C617 1.433 . S
C619 N622 1.384 . S
C620 H611 0.929 . S
C620 C612 1.378 . S
C620 C615 1.350 . S
C621 H608 0.929 . S
C621 C613 1.433 . S
C621 N623 1.384 . S
N622 C618 1.427 . S
N622 C619 1.384 . S
N623 C615 1.427 . S
N623 C621 1.384 . S
C199 C4 1.544 . S
C203 C147 1.603 . S
C221 C111 1.478 . S
C217 C17 1.455 . S
C239 C134 1.477 . S
C235 C30 1.412 . S
C257 C122 1.607 . S
C253 C43 1.571 . S
C275 C191 1.607 . S
C271 C56 1.550 . S
C293 C155 1.479 . S
C289 C69 1.464 . S
C307 C82 1.401 . S
C311 C178 1.474 . S
C329 C166 1.605 . S
C325 C95 1.581 . S
C343 C9 1.540 . S
C347 C188 1.573 . S
C365 C158 1.449 . S
C361 C21 1.437 . S
C379 C34 1.457 . S
C383 C177 1.469 . S
C397 C48 1.569 . S
C401 C163 1.593 . S
C419 C144 1.574 . S
C415 C61 1.538 . S
C433 C73 1.443 . S
C437 C114 1.448 . S
C455 C133 1.464 . S
C451 C86 1.465 . S
C473 C119 1.594 . S
C469 C100 1.565 . S
C491 C169 1.528 . S
C487 C8 1.523 . S
C509 C185 1.532 . S
C505 C22 1.518 . S
C523 C35 1.482 . S
C527 C156 1.508 . S
C545 C180 1.502 . S
C541 C47 1.497 . S
C563 C125 1.528 . S
C559 C60 1.523 . S
C577 C74 1.519 . S
C581 C141 1.531 . S
C595 C87 1.475 . S
C599 C112 1.509 . S
C613 C99 1.491 . S
C617 C136 1.504 . S
