# Generated by pormake.
# Topology rtl, (3,6)-cn, num edge types: 1
# Building blocks:
#     Node 0, Type 0, BuildingBlock: MIDCAF_clean_linker_0, # of connection points: 3
#     Node 1, Type 0, BuildingBlock: MIDCAF_clean_linker_0, # of connection points: 3
#     Node 2, Type 0, BuildingBlock: MIDCAF_clean_linker_0, # of connection points: 3
#     Node 3, Type 0, BuildingBlock: MIDCAF_clean_linker_0, # of connection points: 3
#     Node 4, Type 1, BuildingBlock: KUMJIN_clean_sbu_1, # of connection points: 6
#     Node 5, Type 1, BuildingBlock: KUMJIN_clean_sbu_1, # of connection points: 6
#     Edge 6, Type (0, 1), BuildingBlock: XIVTED_clean_linker_0, # of connection points: 2
#     Edge 7, Type (0, 1), BuildingBlock: XIVTED_clean_linker_0, # of connection points: 2
#     Edge 8, Type (0, 1), BuildingBlock: XIVTED_clean_linker_0, # of connection points: 2
#     Edge 9, Type (0, 1), BuildingBlock: XIVTED_clean_linker_0, # of connection points: 2
#     Edge 10, Type (0, 1), BuildingBlock: XIVTED_clean_linker_0, # of connection points: 2
#     Edge 11, Type (0, 1), BuildingBlock: XIVTED_clean_linker_0, # of connection points: 2
#     Edge 12, Type (0, 1), BuildingBlock: XIVTED_clean_linker_0, # of connection points: 2
#     Edge 13, Type (0, 1), BuildingBlock: XIVTED_clean_linker_0, # of connection points: 2
#     Edge 14, Type (0, 1), BuildingBlock: XIVTED_clean_linker_0, # of connection points: 2
#     Edge 15, Type (0, 1), BuildingBlock: XIVTED_clean_linker_0, # of connection points: 2
#     Edge 16, Type (0, 1), BuildingBlock: XIVTED_clean_linker_0, # of connection points: 2
#     Edge 17, Type (0, 1), BuildingBlock: XIVTED_clean_linker_0, # of connection points: 2
# Relax obj value: 0.018
# Max RMSD: 0.096
# Mean RMSD: 0.058
data_MOF--net-rtl--node1-KUMJIN_clean_sbu_1--node2-MIDCAF_clean_linker_0--edge1-XIVTED_clean_linker_0
_symmetry_space_group_name_H-M    P1
_symmetry_Int_Tables_number       1
_symmetry_cell_setting            triclinic
loop_
_symmetry_equiv_pos_as_xyz
'x, y, z'
_cell_length_a     39.726412
_cell_length_b     40.330192
_cell_length_c     35.319344
_cell_angle_alpha  80.019631
_cell_angle_beta   99.871665
_cell_angle_gamma 90.249261
loop_
_atom_site_label
_atom_site_type_symbol
_atom_site_fract_x
_atom_site_fract_y
_atom_site_fract_z
_atom_type_partial_charge
C0 C 0.15113 0.89605 0.11867 0.0
C1 C 0.16506 0.87905 0.15625 0.0
C2 C 0.19453 0.85853 0.16105 0.0
C3 C 0.20906 0.85422 0.12877 0.0
H4 H 0.28602 0.80098 0.09562 0.0
H5 H 0.32969 0.75718 0.10094 0.0
H6 H 0.31316 0.76782 0.97519 0.0
H7 H 0.27077 0.81194 0.9698 0.0
H8 H 0.23085 0.87952 0.92012 0.0
H9 H 0.20149 0.90118 0.85403 0.0
H10 H 0.11124 0.923 0.8991 0.0
H11 H 0.14059 0.90144 0.9655 0.0
H12 H 0.15382 0.90499 0.05791 0.0
H13 H 0.12875 0.91246 0.11408 0.0
H14 H 0.20573 0.84488 0.18959 0.0
H15 H 0.23131 0.83764 0.13345 0.0
N16 N 0.23513 0.84219 0.06033 0.0
N17 N 0.23189 0.85129 0.99243 0.0
N18 N 0.19338 0.87947 0.01988 0.0
C19 C 0.24703 0.83559 0.02845 0.0
C20 C 0.20515 0.87324 0.98784 0.0
C21 C 0.20838 0.86426 0.05628 0.0
C22 C 0.27478 0.81007 0.03229 0.0
C23 C 0.29195 0.79415 0.06912 0.0
C24 C 0.31686 0.76888 0.07218 0.0
C25 C 0.32505 0.75893 0.03851 0.0
C26 C 0.30811 0.7752 0.00178 0.0
C27 C 0.28348 0.80047 0.9987 0.0
C28 C 0.18802 0.88863 0.9481 0.0
C29 C 0.20482 0.88912 0.91605 0.0
C30 C 0.1881 0.90169 0.87819 0.0
C31 C 0.15408 0.91364 0.87148 0.0
C32 C 0.13739 0.91366 0.90349 0.0
C33 C 0.15429 0.90152 0.94147 0.0
C34 C 0.19448 0.87044 0.09097 0.0
C35 C 0.16566 0.89183 0.08645 0.0
C36 C 0.59478 0.64252 0.49516 0.0
C37 C 0.60836 0.65155 0.46066 0.0
C38 C 0.63261 0.677 0.45893 0.0
C39 C 0.64391 0.69221 0.49129 0.0
H40 H 0.73048 0.73649 0.54041 0.0
H41 H 0.77597 0.77627 0.53413 0.0
H42 H 0.75363 0.81644 0.63323 0.0
H43 H 0.70893 0.77526 0.64056 0.0
H44 H 0.68724 0.67459 0.69918 0.0
H45 H 0.66735 0.64987 0.75895 0.0
H46 H 0.56279 0.67387 0.7013 0.0
H47 H 0.58313 0.69542 0.64087 0.0
H48 H 0.59558 0.64968 0.55396 0.0
H49 H 0.57574 0.6233 0.49729 0.0
H50 H 0.64396 0.6843 0.43305 0.0
H51 H 0.66326 0.7111 0.48903 0.0
N52 N 0.67243 0.71756 0.56072 0.0
N53 N 0.67545 0.7196 0.62717 0.0
N54 N 0.63392 0.68708 0.59568 0.0
C55 C 0.68725 0.72943 0.59313 0.0
C56 C 0.64871 0.69849 0.62848 0.0
C57 C 0.64578 0.69643 0.56163 0.0
C58 C 0.71594 0.75284 0.59085 0.0
C59 C 0.73532 0.75372 0.56098 0.0
C60 C 0.76131 0.77679 0.5572 0.0
C61 C 0.76829 0.80007 0.58277 0.0
C62 C 0.74928 0.79875 0.61319 0.0
C63 C 0.72353 0.77522 0.61734 0.0
C64 C 0.63666 0.68668 0.66558 0.0
C65 C 0.66003 0.67454 0.6996 0.0
C66 C 0.64847 0.66058 0.73401 0.0
C67 C 0.6132 0.65943 0.73554 0.0
C68 C 0.59002 0.67305 0.70148 0.0
C69 C 0.60161 0.68588 0.66677 0.0
C70 C 0.63129 0.68235 0.52631 0.0
C71 C 0.60607 0.65778 0.52761 0.0
C72 C 0.84447 0.09361 0.95029 0.0
C73 C 0.83061 0.1068 0.91128 0.0
C74 C 0.80144 0.12821 0.90347 0.0
C75 C 0.78664 0.13633 0.93407 0.0
H76 H 0.72735 0.21291 0.96604 0.0
H77 H 0.68914 0.2615 0.96117 0.0
H78 H 0.67058 0.22456 0.07787 0.0
H79 H 0.7089 0.17672 0.08308 0.0
H80 H 0.77315 0.14038 0.14259 0.0
H81 H 0.80362 0.12022 0.20843 0.0
H82 H 0.86995 0.05823 0.16308 0.0
H83 H 0.83929 0.07791 0.09721 0.0
H84 H 0.84147 0.09099 0.01031 0.0
H85 H 0.86733 0.07765 0.95752 0.0
H86 H 0.78992 0.13856 0.87372 0.0
H87 H 0.76427 0.15295 0.92711 0.0
N88 N 0.76047 0.15573 0.99998 0.0
N89 N 0.76181 0.14901 0.06761 0.0
N90 N 0.79933 0.11724 0.04314 0.0
C91 C 0.74809 0.16417 0.03079 0.0
C92 C 0.78741 0.12553 0.07407 0.0
C93 C 0.78603 0.13201 0.00605 0.0
C94 C 0.72165 0.19121 0.02519 0.0
C95 C 0.71474 0.21497 0.99043 0.0
C96 C 0.69281 0.24276 0.98759 0.0
C97 C 0.67735 0.24718 0.01941 0.0
C98 C 0.68279 0.22236 0.05321 0.0
C99 C 0.7047 0.19482 0.05611 0.0
C100 C 0.8039 0.11103 0.11444 0.0
C101 C 0.794 0.12221 0.14657 0.0
C102 C 0.81159 0.11081 0.18434 0.0
C103 C 0.83938 0.08789 0.19089 0.0
C104 C 0.84849 0.07573 0.159 0.0
C105 C 0.83098 0.08719 0.12119 0.0
C106 C 0.80069 0.12313 0.97309 0.0
C107 C 0.82968 0.10154 0.98071 0.0
C108 C 0.39669 0.37838 0.55388 0.0
C109 C 0.3861 0.36689 0.58978 0.0
C110 C 0.36547 0.33847 0.5932 0.0
C111 C 0.35522 0.32229 0.56135 0.0
H112 H 0.28021 0.26236 0.51895 0.0
H113 H 0.23723 0.21987 0.52412 0.0
H114 H 0.25329 0.19288 0.41525 0.0
H115 H 0.29594 0.23643 0.40937 0.0
H116 H 0.32962 0.30094 0.35195 0.0
H117 H 0.35134 0.32203 0.29173 0.0
H118 H 0.43336 0.37012 0.35722 0.0
H119 H 0.41205 0.3491 0.41711 0.0
H120 H 0.39493 0.37196 0.49477 0.0
H121 H 0.41219 0.40046 0.55 0.0
H122 H 0.35732 0.32858 0.62059 0.0
H123 H 0.33919 0.30058 0.56506 0.0
N124 N 0.32972 0.29355 0.4927 0.0
N125 N 0.33106 0.28832 0.42781 0.0
N126 N 0.36635 0.32671 0.45762 0.0
C127 C 0.31822 0.27879 0.46128 0.0
C128 C 0.35523 0.31229 0.42585 0.0
C129 C 0.35375 0.31751 0.49115 0.0
C130 C 0.29175 0.25281 0.46381 0.0
C131 C 0.27474 0.24742 0.49603 0.0
C132 C 0.25014 0.2228 0.49916 0.0
C133 C 0.24201 0.2026 0.47035 0.0
C134 C 0.25873 0.20814 0.43784 0.0
C135 C 0.2833 0.23303 0.43457 0.0
C136 C 0.369 0.3234 0.38939 0.0
C137 C 0.35244 0.31578 0.35353 0.0
C138 C 0.36474 0.328 0.31902 0.0
C139 C 0.39406 0.34769 0.31979 0.0
C140 C 0.41095 0.35468 0.35572 0.0
C141 C 0.39853 0.3428 0.39005 0.0
C142 C 0.36549 0.33402 0.52532 0.0
C143 C 0.38659 0.36211 0.52208 0.0
Eu144 Eu 0.02916 0.96374 0.51132 0.0
C145 C 0.96252 0.10943 0.48639 0.0
N146 N 0.98975 0.09525 0.51289 0.0
C147 C 0.02133 0.14559 0.50011 0.0
C148 C 0.96415 0.14202 0.46458 0.0
C149 C 0.01832 0.11339 0.52132 0.0
C150 C 0.99431 0.15981 0.47121 0.0
C151 C 0.90316 0.10635 0.45616 0.0
C152 C 0.93239 0.09189 0.4822 0.0
C153 C 0.90504 0.1383 0.43341 0.0
C154 C 0.93547 0.15608 0.43758 0.0
Eu155 Eu 0.98259 0.04005 0.54581 0.0
N156 N 0.93146 0.06086 0.50412 0.0
C157 C 0.8728 0.08845 0.45423 0.0
C158 C 0.9015 0.04411 0.50414 0.0
C159 C 0.87186 0.05738 0.4787 0.0
H160 H 0.03868 0.10333 0.54484 0.0
H161 H 0.84833 0.0437 0.47803 0.0
H162 H 0.99614 0.89659 0.55948 0.0
H163 H 0.16367 0.99803 0.51926 0.0
H164 H 0.90082 0.02015 0.5232 0.0
H165 H 0.8498 0.09869 0.43456 0.0
H166 H 0.10331 0.99757 0.4883 0.0
H167 H 0.0443 0.1596 0.50642 0.0
H168 H 0.88295 0.14972 0.41297 0.0
H169 H 0.93635 0.18096 0.42035 0.0
H170 H 0.01387 0.85165 0.61709 0.0
H171 H 0.99659 0.18488 0.45503 0.0
H172 H 0.18435 0.96076 0.58233 0.0
N173 N 0.04446 0.91965 0.56489 0.0
C174 C 0.07749 0.91793 0.58332 0.0
C175 C 0.03193 0.87027 0.60805 0.0
C176 C 0.08865 0.89309 0.6164 0.0
C177 C 0.02197 0.89557 0.57555 0.0
C178 C 0.06528 0.86931 0.62892 0.0
N179 N 0.08878 0.96334 0.53547 0.0
C180 C 0.11149 0.9824 0.51672 0.0
C181 C 0.13477 0.93939 0.5867 0.0
C182 C 0.10015 0.94087 0.56861 0.0
C183 C 0.15756 0.96108 0.56934 0.0
C184 C 0.14597 0.98221 0.53379 0.0
H185 H 0.07288 0.8498 0.6542 0.0
H186 H 0.13173 0.87392 0.66129 0.0
H187 H 0.17215 0.91444 0.63526 0.0
O188 O 0.0562 0.93754 0.47455 0.0
O189 O 0.02278 0.96345 0.57435 0.0
O190 O 0.03275 0.01779 0.5805 0.0
O191 O 0.00271 0.92742 0.47903 0.0
O192 O 0.04689 0.01687 0.49128 0.0
O193 O 0.03915 0.0436 0.54202 0.0
O194 O 0.95852 0.02785 0.59739 0.0
O195 O 0.96218 0.02616 0.4865 0.0
O196 O 0.00876 0.00769 0.46403 0.0
O197 O 0.9751 0.07843 0.58051 0.0
O198 O 0.96029 0.9881 0.55902 0.0
O199 O 0.97221 0.9597 0.51089 0.0
C200 C 0.03636 0.98569 0.59494 0.0
C201 C 0.02768 0.8948 0.43938 0.0
C202 C 0.04307 0.87392 0.38359 0.0
C203 C 0.0218 0.84637 0.39064 0.0
C204 C 0.00647 0.86718 0.44572 0.0
C205 C 0.00377 0.84301 0.42161 0.0
C206 C 0.04635 0.89789 0.40858 0.0
C207 C 0.05415 0.04088 0.51218 0.0
C208 C 0.02918 0.92062 0.46435 0.0
C209 C 0.12274 0.89254 0.63551 0.0
C210 C 0.14574 0.91567 0.62073 0.0
C211 C 0.97845 0.02244 0.45808 0.0
C212 C 0.97784 0.05807 0.64759 0.0
C213 C 0.97021 0.06304 0.71335 0.0
C214 C 0.00527 0.0557 0.72659 0.0
C215 C 0.01286 0.05135 0.66105 0.0
C216 C 0.95668 0.06413 0.67368 0.0
C217 C 0.02646 0.05005 0.70046 0.0
C218 C 0.95417 0.9643 0.53761 0.0
C219 C 0.96279 0.05757 0.6068 0.0
H220 H 0.01918 0.82732 0.37222 0.0
H221 H 0.99198 0.86426 0.46939 0.0
H222 H 0.98747 0.82172 0.42677 0.0
H223 H 0.06231 0.91947 0.40322 0.0
H224 H 0.01635 0.0548 0.757 0.0
H225 H 0.02958 0.04704 0.64115 0.0
H226 H 0.92956 0.06905 0.66321 0.0
H227 H 0.05347 0.04465 0.71078 0.0
Eu228 Eu 0.46416 0.49493 0.98987 0.0
C229 C 0.60222 0.56074 0.03072 0.0
N230 N 0.59468 0.52801 0.04219 0.0
C231 C 0.64634 0.50956 0.02491 0.0
C232 C 0.63201 0.56907 0.0148 0.0
C233 C 0.61637 0.50247 0.0402 0.0
C234 C 0.6541 0.54298 0.01193 0.0
C235 C 0.58736 0.62006 0.02333 0.0
C236 C 0.57984 0.5859 0.03459 0.0
C237 C 0.6165 0.62843 0.00643 0.0
C238 C 0.63876 0.60301 0.0022 0.0
Eu239 Eu 0.54374 0.51837 0.06765 0.0
N240 N 0.55175 0.57712 0.05107 0.0
C241 C 0.56604 0.64487 0.03065 0.0
C242 C 0.53321 0.60118 0.06196 0.0
C243 C 0.53929 0.63534 0.05083 0.0
H244 H 0.61034 0.47665 0.05024 0.0
H245 H 0.52384 0.65429 0.05863 0.0
H246 H 0.40348 0.55528 0.97799 0.0
H247 H 0.46147 0.35986 0.04656 0.0
H248 H 0.51431 0.59431 0.08024 0.0
H249 H 0.57096 0.67136 0.02248 0.0
H250 H 0.48669 0.41219 0.01855 0.0
H251 H 0.66337 0.48926 0.02304 0.0
H252 H 0.62245 0.65453 0.99731 0.0
H253 H 0.66136 0.60989 0.98957 0.0
H254 H 0.34428 0.56049 0.98955 0.0
H255 H 0.67724 0.54838 0.99988 0.0
H256 H 0.4022 0.36058 0.05926 0.0
N257 N 0.40763 0.5026 0.99921 0.0
C258 C 0.39176 0.47434 0.01335 0.0
C259 C 0.35739 0.53616 0.99652 0.0
C260 C 0.35788 0.47612 0.02007 0.0
C261 C 0.39102 0.53321 0.9904 0.0
C262 C 0.34076 0.50751 0.01147 0.0
N263 N 0.44304 0.44292 0.0172 0.0
C264 C 0.46123 0.41321 0.02477 0.0
C265 C 0.39426 0.41412 0.03802 0.0
C266 C 0.40983 0.44364 0.02234 0.0
C267 C 0.41325 0.38379 0.04714 0.0
C268 C 0.44679 0.38331 0.04023 0.0
H269 H 0.31472 0.5099 0.01625 0.0
H270 H 0.31632 0.4476 0.04089 0.0
H271 H 0.34811 0.39339 0.05654 0.0
O272 O 0.46656 0.46988 0.94023 0.0
O273 O 0.45858 0.48488 0.05394 0.0
O274 O 0.51333 0.47297 0.08709 0.0
O275 O 0.4266 0.50709 0.93632 0.0
O276 O 0.5145 0.46605 0.99488 0.0
O277 O 0.54361 0.4646 0.05791 0.0
O278 O 0.55039 0.53289 0.12603 0.0
O279 O 0.54869 0.52334 0.00345 0.0
O280 O 0.49492 0.54049 0.97159 0.0
O281 O 0.58716 0.49872 0.11217 0.0
O282 O 0.49102 0.5421 0.065 0.0
O283 O 0.46774 0.54878 0.99964 0.0
C284 C 0.48015 0.47116 0.08511 0.0
C285 C 0.44635 0.50198 0.87828 0.0
C286 C 0.44478 0.49602 0.81045 0.0
C287 C 0.45786 0.52852 0.80296 0.0
C288 C 0.45883 0.53452 0.87015 0.0
C289 C 0.46476 0.54763 0.83269 0.0
C290 C 0.43929 0.48286 0.84842 0.0
C291 C 0.53823 0.45325 0.02471 0.0
C292 C 0.44097 0.48745 0.91781 0.0
C293 C 0.34232 0.4467 0.03552 0.0
C294 C 0.36043 0.41582 0.04445 0.0
C295 C 0.52817 0.54048 0.97345 0.0
C296 C 0.59867 0.51105 0.17779 0.0
C297 C 0.60855 0.52438 0.24366 0.0
C298 C 0.63666 0.50159 0.25371 0.0
C299 C 0.62695 0.4885 0.18859 0.0
C300 C 0.58968 0.52917 0.20543 0.0
C301 C 0.64578 0.48388 0.22629 0.0
C302 C 0.47007 0.55771 0.03405 0.0
C303 C 0.57821 0.51437 0.13818 0.0
H304 H 0.46212 0.53942 0.77396 0.0
H305 H 0.46376 0.54969 0.89276 0.0
H306 H 0.47449 0.57276 0.82662 0.0
H307 H 0.42981 0.45762 0.85491 0.0
H308 H 0.65194 0.49778 0.2827 0.0
H309 H 0.63443 0.47416 0.168 0.0
H310 H 0.56778 0.54644 0.19749 0.0
H311 H 0.66751 0.46646 0.23432 0.0
H312 H 0.19296 0.18359 0.41338 0.0
H313 H 0.09819 0.0672 0.56627 0.0
H314 H 0.2321 0.16066 0.5371 0.0
H315 H 0.07627 0.06377 0.44314 0.0
H316 H 0.14542 0.1044 0.55525 0.0
H317 H 0.14863 0.14194 0.4225 0.0
C318 C 0.1925 0.16963 0.44237 0.0
C319 C 0.21614 0.176 0.47459 0.0
C320 C 0.13042 0.09546 0.53059 0.0
C321 C 0.16517 0.12878 0.48522 0.0
C322 C 0.10333 0.07439 0.53685 0.0
C323 C 0.08322 0.06267 0.50549 0.0
C324 C 0.1373 0.10524 0.4926 0.0
C325 C 0.09125 0.07235 0.46805 0.0
C326 C 0.16709 0.14597 0.44755 0.0
C327 C 0.21399 0.1573 0.51151 0.0
N328 N 0.11756 0.09337 0.46253 0.0
N329 N 0.18884 0.1348 0.51583 0.0
H330 H 0.37206 0.75405 0.99101 0.0
H331 H 0.44635 0.57178 0.09807 0.0
H332 H 0.33556 0.69995 0.0921 0.0
H333 H 0.4491 0.61176 0.9772 0.0
H334 H 0.41339 0.62215 0.10198 0.0
H335 H 0.40878 0.70563 0.99155 0.0
C336 C 0.37171 0.73202 0.01335 0.0
C337 C 0.35019 0.73099 0.0412 0.0
C338 C 0.42125 0.61981 0.07466 0.0
C339 C 0.39277 0.6756 0.04231 0.0
C340 C 0.44005 0.5912 0.07244 0.0
C341 C 0.45021 0.58763 0.03721 0.0
C342 C 0.41314 0.64514 0.04158 0.0
C343 C 0.44145 0.61341 0.00482 0.0
C344 C 0.3928 0.70443 0.01368 0.0
C345 C 0.35176 0.70203 0.07014 0.0
N346 N 0.42354 0.64113 0.00783 0.0
N347 N 0.37258 0.67541 0.06986 0.0
H348 H 0.81276 0.82619 0.63864 0.0
H349 H 0.92122 0.92511 0.48784 0.0
H350 H 0.78451 0.8332 0.51374 0.0
H351 H 0.92253 0.95111 0.60163 0.0
H352 H 0.87521 0.88627 0.49911 0.0
H353 H 0.85681 0.86771 0.62785 0.0
C354 C 0.81555 0.83652 0.60898 0.0
C355 C 0.79488 0.82581 0.57709 0.0
C356 C 0.88546 0.90059 0.52154 0.0
C357 C 0.8458 0.87281 0.56473 0.0
C358 C 0.91182 0.92267 0.51521 0.0
C359 C 0.9257 0.94143 0.54383 0.0
C360 C 0.87321 0.89675 0.557 0.0
C361 C 0.91241 0.93728 0.57869 0.0
C362 C 0.84083 0.86012 0.6029 0.0
C363 C 0.80024 0.83989 0.53935 0.0
N364 N 0.88705 0.91517 0.58445 0.0
N365 N 0.82527 0.86241 0.53427 0.0
H366 H 0.68001 0.28395 0.07763 0.0
H367 H 0.53694 0.4211 0.96167 0.0
H368 H 0.62966 0.28185 0.95968 0.0
H369 H 0.58623 0.41719 0.08136 0.0
H370 H 0.57116 0.37146 0.95873 0.0
H371 H 0.64648 0.33412 0.07783 0.0
C372 C 0.66165 0.29392 0.0518 0.0
C373 C 0.65732 0.27836 0.01877 0.0
C374 C 0.57444 0.38157 0.98556 0.0
C375 C 0.61894 0.33644 0.01857 0.0
C376 C 0.55492 0.40989 0.98729 0.0
C377 C 0.55866 0.42342 0.02183 0.0
C378 C 0.59785 0.36674 0.01857 0.0
C379 C 0.58238 0.4078 0.05407 0.0
C380 C 0.64261 0.32277 0.05184 0.0
C381 C 0.63382 0.29306 0.98576 0.0
N382 N 0.60099 0.38039 0.05161 0.0
N383 N 0.61536 0.32124 0.98654 0.0
H384 H 0.19413 0.88554 0.23111 0.0
H385 H 0.01632 0.86693 0.3091 0.0
H386 H 0.09661 0.87736 0.1581 0.0
H387 H 0.11001 0.88992 0.38031 0.0
H388 H 0.04601 0.87044 0.25366 0.0
H389 H 0.16464 0.88681 0.28645 0.0
C390 C 0.16654 0.88405 0.22671 0.0
C391 C 0.14781 0.88137 0.18989 0.0
C392 C 0.06015 0.87486 0.28132 0.0
C393 C 0.11396 0.88285 0.25295 0.0
C394 C 0.04322 0.87268 0.31304 0.0
C395 C 0.06081 0.87785 0.34943 0.0
C396 C 0.09509 0.88204 0.28592 0.0
C397 C 0.09551 0.88584 0.3527 0.0
C398 C 0.14973 0.88496 0.25823 0.0
C399 C 0.11209 0.87988 0.18577 0.0
N400 N 0.11162 0.88744 0.32139 0.0
N401 N 0.0964 0.88047 0.21691 0.0
H402 H 0.55189 0.62796 0.74231 0.0
H403 H 0.59157 0.53348 0.95439 0.0
H404 H 0.64558 0.65319 0.81278 0.0
H405 H 0.49737 0.59203 0.91776 0.0
H406 H 0.6137 0.56521 0.89837 0.0
H407 H 0.53195 0.60215 0.80176 0.0
C408 C 0.56828 0.6286 0.76996 0.0
C409 C 0.60062 0.64335 0.77191 0.0
C410 C 0.58823 0.57101 0.90288 0.0
C411 C 0.57816 0.61197 0.84003 0.0
C412 C 0.57567 0.55314 0.93486 0.0
C413 C 0.5425 0.55998 0.94068 0.0
C414 C 0.56699 0.59494 0.87594 0.0
C415 C 0.52274 0.5853 0.91389 0.0
C416 C 0.55684 0.61348 0.80387 0.0
C417 C 0.62084 0.64176 0.80918 0.0
N418 N 0.53504 0.60148 0.88224 0.0
N419 N 0.60945 0.626 0.84172 0.0
H420 H 0.8606 0.12829 0.24452 0.0
H421 H 0.9556 0.97994 0.40804 0.0
H422 H 0.8651 0.02512 0.22737 0.0
H423 H 0.96099 0.08498 0.41689 0.0
H424 H 0.92159 0.99525 0.34221 0.0
H425 H 0.89533 0.11217 0.30909 0.0
C426 C 0.86866 0.10215 0.25449 0.0
C427 C 0.85981 0.07798 0.23057 0.0
C428 C 0.93014 0.01496 0.3586 0.0
C429 C 0.9001 0.05939 0.30437 0.0
C430 C 0.94955 0.00623 0.39596 0.0
C431 C 0.96021 0.03133 0.41787 0.0
C432 C 0.92153 0.04902 0.34334 0.0
C433 C 0.95207 0.06497 0.4013 0.0
C434 C 0.88876 0.09301 0.29125 0.0
C435 C 0.87157 0.04461 0.24475 0.0
N436 N 0.93306 0.07288 0.36505 0.0
N437 N 0.89106 0.03626 0.28078 0.0
H438 H 0.44752 0.3954 0.61297 0.0
H439 H 0.38814 0.45859 0.79452 0.0
H440 H 0.34703 0.37969 0.64288 0.0
H441 H 0.48219 0.48803 0.754 0.0
H442 H 0.37448 0.42606 0.74188 0.0
H443 H 0.46228 0.42641 0.66689 0.0
C444 C 0.4285 0.39855 0.63074 0.0
C445 C 0.39592 0.38492 0.62322 0.0
C446 C 0.39812 0.43962 0.74447 0.0
C447 C 0.41286 0.42007 0.68538 0.0
C448 C 0.40603 0.45803 0.77467 0.0
C449 C 0.43637 0.47604 0.77867 0.0
C450 C 0.42077 0.43904 0.71811 0.0
C451 C 0.45836 0.47481 0.75175 0.0
C452 C 0.43702 0.41613 0.66165 0.0
C453 C 0.37259 0.3893 0.6478 0.0
N454 N 0.45015 0.45657 0.72265 0.0
N455 N 0.38151 0.40649 0.6777 0.0
H456 H 0.59971 0.58374 0.46405 0.0
H457 H 0.59289 0.5918 0.23497 0.0
H458 H 0.59718 0.67675 0.38187 0.0
H459 H 0.6043 0.49994 0.31979 0.0
H460 H 0.58523 0.62322 0.28654 0.0
H461 H 0.59193 0.55277 0.40985 0.0
C462 C 0.59692 0.59774 0.43457 0.0
C463 C 0.59942 0.63293 0.4276 0.0
C464 C 0.58907 0.59615 0.29378 0.0
C465 C 0.59116 0.59745 0.36526 0.0
C466 C 0.59325 0.5782 0.26432 0.0
C467 C 0.59969 0.54329 0.27325 0.0
C468 C 0.59124 0.579 0.33236 0.0
C469 C 0.60006 0.52693 0.3118 0.0
C470 C 0.59275 0.57998 0.40359 0.0
C471 C 0.59605 0.64959 0.38869 0.0
N472 N 0.59618 0.54494 0.33994 0.0
N473 N 0.59239 0.63169 0.35902 0.0
H474 H 0.85952 0.04656 0.90575 0.0
H475 H 0.9225 0.11386 0.70386 0.0
H476 H 0.84013 0.14864 0.84385 0.0
H477 H 0.96658 0.02624 0.78514 0.0
H478 H 0.88549 0.12367 0.7499 0.0
H479 H 0.89201 0.03533 0.85648 0.0
C480 C 0.86207 0.06666 0.88182 0.0
C481 C 0.84741 0.09878 0.87932 0.0
C482 C 0.90326 0.10231 0.7576 0.0
C483 C 0.88421 0.08582 0.82241 0.0
C484 C 0.92424 0.09662 0.73134 0.0
C485 C 0.94767 0.06926 0.74085 0.0
C486 C 0.90545 0.08023 0.79338 0.0
C487 C 0.94912 0.04783 0.77691 0.0
C488 C 0.88055 0.06016 0.85364 0.0
C489 C 0.8508 0.12348 0.84694 0.0
N490 N 0.92822 0.05371 0.80183 0.0
N491 N 0.86898 0.11652 0.81982 0.0
H492 H 0.46003 0.34999 0.30672 0.0
H493 H 0.41375 0.46771 0.09737 0.0
H494 H 0.35665 0.37832 0.24999 0.0
H495 H 0.51567 0.42924 0.1486 0.0
H496 H 0.39209 0.43435 0.15214 0.0
H497 H 0.4807 0.37804 0.24837 0.0
C498 C 0.44168 0.36204 0.28189 0.0
C499 C 0.40659 0.362 0.28329 0.0
C500 C 0.41916 0.43305 0.15129 0.0
C501 C 0.43005 0.39423 0.21634 0.0
C502 C 0.43156 0.45201 0.1199 0.0
C503 C 0.46658 0.4511 0.11813 0.0
C504 C 0.44199 0.41334 0.18148 0.0
C505 C 0.48849 0.43081 0.14869 0.0
C506 C 0.45347 0.37795 0.24852 0.0
C507 C 0.3839 0.37757 0.25006 0.0
N508 N 0.47585 0.41285 0.17914 0.0
N509 N 0.39604 0.3933 0.21805 0.0
H510 H 0.09038 0.89659 0.83872 0.0
H511 H 0.09023 0.01547 0.63302 0.0
H512 H 0.17652 0.9562 0.81232 0.0
H513 H 0.02289 0.93192 0.64824 0.0
H514 H 0.11896 0.99838 0.70077 0.0
H515 H 0.06158 0.91392 0.77102 0.0
C516 C 0.10308 0.91354 0.81871 0.0
C517 C 0.13584 0.92501 0.83105 0.0
C518 C 0.098 0.98369 0.68925 0.0
C519 C 0.10319 0.94479 0.75375 0.0
C520 C 0.08156 0.9935 0.65074 0.0
C521 C 0.05427 0.97499 0.63526 0.0
C522 C 0.0867 0.95547 0.71253 0.0
C523 C 0.04403 0.94666 0.65916 0.0
C524 C 0.08678 0.92319 0.78007 0.0
C525 C 0.15136 0.94661 0.80386 0.0
N526 N 0.06014 0.93784 0.69678 0.0
N527 N 0.13484 0.95593 0.7665 0.0
loop_
_geom_bond_atom_site_label_1
_geom_bond_atom_site_label_2
_geom_bond_distance
_geom_bond_site_symmetry_2
_ccdc_geom_bond_type
C0 C1 1.384 . S
C0 H13 0.947 . S
C0 C35 1.382 . S
C1 C0 1.384 . S
C1 C2 1.378 . S
C2 C1 1.378 . S
C2 C3 1.378 . S
C2 H14 0.952 . S
C3 C2 1.378 . S
C3 H15 0.950 . S
C3 C34 1.383 . S
H4 C23 0.947 . S
H5 C24 0.946 . S
H6 C26 0.953 . S
H7 C27 0.945 . S
H8 C29 0.952 . S
H9 C30 0.949 . S
H10 C32 0.950 . S
H11 C33 0.948 . S
H12 C35 0.951 . S
H13 C0 0.947 . S
H14 C2 0.952 . S
H15 C3 0.950 . S
N16 C19 1.382 . S
N16 C21 1.363 . S
N17 C19 1.371 1_556 S
N17 C20 1.372 . S
N18 C20 1.361 1_554 S
N18 C21 1.377 . S
C19 N16 1.382 . S
C19 N17 1.371 1_554 S
C19 C22 1.480 . S
C20 N17 1.372 . S
C20 N18 1.361 1_556 S
C20 C28 1.457 . S
C21 N16 1.363 . S
C21 N18 1.377 . S
C21 C34 1.479 . S
C22 C19 1.480 . S
C22 C23 1.383 . S
C22 C27 1.385 1_554 S
C23 H4 0.947 . S
C23 C22 1.383 . S
C23 C24 1.388 . S
C24 H5 0.946 . S
C24 C23 1.388 . S
C24 C25 1.384 . S
C25 C24 1.384 . S
C25 C26 1.377 1_554 S
C26 H6 0.953 . S
C26 C25 1.377 1_556 S
C26 C27 1.369 . S
C27 H7 0.945 . S
C27 C22 1.385 1_556 S
C27 C26 1.369 . S
C28 C20 1.457 . S
C28 C29 1.372 . S
C28 C33 1.364 . S
C29 H8 0.952 . S
C29 C28 1.372 . S
C29 C30 1.389 . S
C30 H9 0.949 . S
C30 C29 1.389 . S
C30 C31 1.387 . S
C31 C30 1.387 . S
C31 C32 1.372 . S
C32 H10 0.950 . S
C32 C31 1.372 . S
C32 C33 1.379 . S
C33 H11 0.948 . S
C33 C28 1.364 . S
C33 C32 1.379 . S
C34 C3 1.383 . S
C34 C21 1.479 . S
C34 C35 1.398 . S
C35 C0 1.382 . S
C35 H12 0.951 . S
C35 C34 1.398 . S
C36 C37 1.384 . S
C36 H49 0.947 . S
C36 C71 1.382 . S
C37 C36 1.384 . S
C37 C38 1.378 . S
C38 C37 1.378 . S
C38 C39 1.378 . S
C38 H50 0.952 . S
C39 C38 1.378 . S
C39 H51 0.950 . S
C39 C70 1.383 . S
H40 C59 0.947 . S
H41 C60 0.946 . S
H42 C62 0.953 . S
H43 C63 0.945 . S
H44 C65 0.952 . S
H45 C66 0.949 . S
H46 C68 0.950 . S
H47 C69 0.948 . S
H48 C71 0.951 . S
H49 C36 0.947 . S
H50 C38 0.952 . S
H51 C39 0.950 . S
N52 C55 1.382 . S
N52 C57 1.363 . S
N53 C55 1.371 . S
N53 C56 1.372 . S
N54 C56 1.361 . S
N54 C57 1.377 . S
C55 N52 1.382 . S
C55 N53 1.371 . S
C55 C58 1.480 . S
C56 N53 1.372 . S
C56 N54 1.361 . S
C56 C64 1.457 . S
C57 N52 1.363 . S
C57 N54 1.377 . S
C57 C70 1.479 . S
C58 C55 1.480 . S
C58 C59 1.383 . S
C58 C63 1.385 . S
C59 H40 0.947 . S
C59 C58 1.383 . S
C59 C60 1.388 . S
C60 H41 0.946 . S
C60 C59 1.388 . S
C60 C61 1.384 . S
C61 C60 1.384 . S
C61 C62 1.377 . S
C62 H42 0.953 . S
C62 C61 1.377 . S
C62 C63 1.369 . S
C63 H43 0.945 . S
C63 C58 1.385 . S
C63 C62 1.369 . S
C64 C56 1.457 . S
C64 C65 1.372 . S
C64 C69 1.364 . S
C65 H44 0.952 . S
C65 C64 1.372 . S
C65 C66 1.389 . S
C66 H45 0.949 . S
C66 C65 1.389 . S
C66 C67 1.387 . S
C67 C66 1.387 . S
C67 C68 1.372 . S
C68 H46 0.950 . S
C68 C67 1.372 . S
C68 C69 1.379 . S
C69 H47 0.948 . S
C69 C64 1.364 . S
C69 C68 1.379 . S
C70 C39 1.383 . S
C70 C57 1.479 . S
C70 C71 1.398 . S
C71 C36 1.382 . S
C71 H48 0.951 . S
C71 C70 1.398 . S
C72 C73 1.384 . S
C72 H85 0.947 . S
C72 C107 1.382 . S
C73 C72 1.384 . S
C73 C74 1.378 . S
C74 C73 1.378 . S
C74 C75 1.378 . S
C74 H86 0.952 . S
C75 C74 1.378 . S
C75 H87 0.950 . S
C75 C106 1.383 . S
H76 C95 0.947 . S
H77 C96 0.946 . S
H78 C98 0.953 . S
H79 C99 0.945 . S
H80 C101 0.952 . S
H81 C102 0.949 . S
H82 C104 0.950 . S
H83 C105 0.948 . S
H84 C107 0.951 1_554 S
H85 C72 0.947 . S
H86 C74 0.952 . S
H87 C75 0.950 . S
N88 C91 1.382 . S
N88 C93 1.363 . S
N89 C91 1.371 . S
N89 C92 1.372 . S
N90 C92 1.361 . S
N90 C93 1.377 . S
C91 N88 1.382 . S
C91 N89 1.371 . S
C91 C94 1.480 . S
C92 N89 1.372 . S
C92 N90 1.361 . S
C92 C100 1.457 . S
C93 N88 1.363 . S
C93 N90 1.377 . S
C93 C106 1.479 1_554 S
C94 C91 1.480 . S
C94 C95 1.383 1_554 S
C94 C99 1.385 . S
C95 H76 0.947 . S
C95 C94 1.383 1_556 S
C95 C96 1.388 . S
C96 H77 0.946 . S
C96 C95 1.388 . S
C96 C97 1.384 1_556 S
C97 C96 1.384 1_554 S
C97 C98 1.377 . S
C98 H78 0.953 . S
C98 C97 1.377 . S
C98 C99 1.369 . S
C99 H79 0.945 . S
C99 C94 1.385 . S
C99 C98 1.369 . S
C100 C92 1.457 . S
C100 C101 1.372 . S
C100 C105 1.364 . S
C101 H80 0.952 . S
C101 C100 1.372 . S
C101 C102 1.389 . S
C102 H81 0.949 . S
C102 C101 1.389 . S
C102 C103 1.387 . S
C103 C102 1.387 . S
C103 C104 1.372 . S
C104 H82 0.950 . S
C104 C103 1.372 . S
C104 C105 1.379 . S
C105 H83 0.948 . S
C105 C100 1.364 . S
C105 C104 1.379 . S
C106 C75 1.383 . S
C106 C93 1.479 1_556 S
C106 C107 1.398 . S
C107 C72 1.382 . S
C107 H84 0.951 1_556 S
C107 C106 1.398 . S
C108 C109 1.384 . S
C108 H121 0.947 . S
C108 C143 1.382 . S
C109 C108 1.384 . S
C109 C110 1.378 . S
C110 C109 1.378 . S
C110 C111 1.378 . S
C110 H122 0.952 . S
C111 C110 1.378 . S
C111 H123 0.950 . S
C111 C142 1.383 . S
H112 C131 0.947 . S
H113 C132 0.946 . S
H114 C134 0.953 . S
H115 C135 0.945 . S
H116 C137 0.952 . S
H117 C138 0.949 . S
H118 C140 0.950 . S
H119 C141 0.948 . S
H120 C143 0.951 . S
H121 C108 0.947 . S
H122 C110 0.952 . S
H123 C111 0.950 . S
N124 C127 1.382 . S
N124 C129 1.363 . S
N125 C127 1.371 . S
N125 C128 1.372 . S
N126 C128 1.361 . S
N126 C129 1.377 . S
C127 N124 1.382 . S
C127 N125 1.371 . S
C127 C130 1.480 . S
C128 N125 1.372 . S
C128 N126 1.361 . S
C128 C136 1.457 . S
C129 N124 1.363 . S
C129 N126 1.377 . S
C129 C142 1.479 . S
C130 C127 1.480 . S
C130 C131 1.383 . S
C130 C135 1.385 . S
C131 H112 0.947 . S
C131 C130 1.383 . S
C131 C132 1.388 . S
C132 H113 0.946 . S
C132 C131 1.388 . S
C132 C133 1.384 . S
C133 C132 1.384 . S
C133 C134 1.377 . S
C134 H114 0.953 . S
C134 C133 1.377 . S
C134 C135 1.369 . S
C135 H115 0.945 . S
C135 C130 1.385 . S
C135 C134 1.369 . S
C136 C128 1.457 . S
C136 C137 1.372 . S
C136 C141 1.364 . S
C137 H116 0.952 . S
C137 C136 1.372 . S
C137 C138 1.389 . S
C138 H117 0.949 . S
C138 C137 1.389 . S
C138 C139 1.387 . S
C139 C138 1.387 . S
C139 C140 1.372 . S
C140 H118 0.950 . S
C140 C139 1.372 . S
C140 C141 1.379 . S
C141 H119 0.948 . S
C141 C136 1.364 . S
C141 C140 1.379 . S
C142 C111 1.383 . S
C142 C129 1.479 . S
C142 C143 1.398 . S
C143 C108 1.382 . S
C143 H120 0.951 . S
C143 C142 1.398 . S
Eu144 N173 2.600 . S
Eu144 N179 2.562 . S
Eu144 O188 2.462 . S
Eu144 O189 2.373 . S
Eu144 O191 2.432 . S
Eu144 O192 2.291 1_565 S
Eu144 O196 2.335 1_455 S
Eu144 O199 2.372 1_455 S
Eu144 C208 2.787 . S
C145 N146 1.365 . S
C145 C148 1.405 . S
C145 C152 1.448 . S
N146 C145 1.365 . S
N146 C149 1.310 1_655 S
N146 Eu155 2.600 . S
C147 C149 1.398 1_655 S
C147 C150 1.367 . S
C147 H167 0.931 1_655 S
C148 C145 1.405 . S
C148 C150 1.403 . S
C148 C154 1.439 . S
C149 N146 1.310 1_455 S
C149 C147 1.398 1_455 S
C149 H160 0.939 . S
C150 C147 1.367 . S
C150 C148 1.403 . S
C150 H171 0.929 . S
C151 C152 1.430 . S
C151 C153 1.387 . S
C151 C157 1.404 . S
C152 C145 1.448 . S
C152 C151 1.430 . S
C152 N156 1.351 . S
C153 C151 1.387 . S
C153 C154 1.374 . S
C153 H168 0.931 . S
C154 C148 1.439 . S
C154 C153 1.374 . S
C154 H169 0.931 . S
Eu155 N146 2.600 . S
Eu155 N156 2.562 . S
Eu155 O190 2.335 1_655 S
Eu155 O193 2.372 1_655 S
Eu155 O194 2.462 . S
Eu155 O195 2.373 . S
Eu155 O197 2.432 . S
Eu155 O198 2.291 1_545 S
Eu155 C219 2.787 . S
N156 C152 1.351 . S
N156 Eu155 2.562 . S
N156 C158 1.325 . S
C157 C151 1.404 . S
C157 C159 1.366 . S
C157 H165 0.930 . S
C158 N156 1.325 . S
C158 C159 1.416 . S
C158 H164 0.929 . S
C159 C157 1.366 . S
C159 C158 1.416 . S
C159 H161 0.930 . S
H160 C149 0.939 . S
H161 C159 0.930 . S
H162 C177 0.930 1_655 S
H163 C184 0.930 . S
H164 C158 0.929 . S
H165 C157 0.930 . S
H166 C180 0.929 . S
H167 C147 0.931 1_455 S
H168 C153 0.931 . S
H169 C154 0.931 . S
H170 C175 0.931 1_655 S
H171 C150 0.929 . S
H172 C183 0.930 . S
N173 Eu144 2.600 . S
N173 C174 1.365 . S
N173 C177 1.319 . S
C174 N173 1.365 . S
C174 C176 1.405 . S
C174 C182 1.448 . S
C175 H170 0.931 1_455 S
C175 C177 1.397 . S
C175 C178 1.367 . S
C176 C174 1.405 . S
C176 C178 1.403 . S
C176 C209 1.439 . S
C177 H162 0.930 1_455 S
C177 N173 1.319 . S
C177 C175 1.397 . S
C178 C175 1.367 . S
C178 C176 1.403 . S
C178 H185 0.929 . S
N179 Eu144 2.562 . S
N179 C180 1.325 . S
N179 C182 1.351 . S
C180 H166 0.929 . S
C180 N179 1.325 . S
C180 C184 1.416 . S
C181 C182 1.430 . S
C181 C183 1.404 . S
C181 C210 1.387 . S
C182 C174 1.448 . S
C182 N179 1.351 . S
C182 C181 1.430 . S
C183 H172 0.930 . S
C183 C181 1.404 . S
C183 C184 1.366 . S
C184 H163 0.930 . S
C184 C180 1.416 . S
C184 C183 1.366 . S
H185 C178 0.929 . S
H186 C209 0.931 . S
H187 C210 0.931 . S
O188 Eu144 2.462 . S
O188 C208 1.252 . S
O189 Eu144 2.373 . S
O189 C200 1.249 . S
O190 Eu155 2.335 1_455 S
O190 C200 1.264 1_545 S
O191 Eu144 2.432 . S
O191 C208 1.268 . S
O192 Eu144 2.291 1_545 S
O192 C207 1.255 . S
O193 Eu155 2.372 1_455 S
O193 C207 1.257 . S
O194 Eu155 2.462 . S
O194 C219 1.252 . S
O195 Eu155 2.373 . S
O195 C211 1.249 . S
O196 Eu144 2.335 1_655 S
O196 C211 1.264 1_565 S
O197 Eu155 2.432 . S
O197 C219 1.268 . S
O198 Eu155 2.291 1_565 S
O198 C218 1.255 . S
O199 Eu144 2.372 1_655 S
O199 C218 1.257 . S
C200 O189 1.249 . S
C200 O190 1.264 1_565 S
C201 C204 1.382 . S
C201 C206 1.390 . S
C201 C208 1.506 . S
C202 C203 1.398 . S
C202 C206 1.392 . S
C203 C202 1.398 . S
C203 C205 1.372 . S
C203 H220 0.931 . S
C204 C201 1.382 . S
C204 C205 1.390 . S
C204 H221 0.931 . S
C205 C203 1.372 . S
C205 C204 1.390 . S
C205 H222 0.929 . S
C206 C201 1.390 . S
C206 C202 1.392 . S
C206 H223 0.930 . S
C207 O192 1.255 . S
C207 O193 1.257 . S
C208 Eu144 2.787 . S
C208 O188 1.252 . S
C208 O191 1.268 . S
C208 C201 1.506 . S
C209 C176 1.439 . S
C209 H186 0.931 . S
C209 C210 1.374 . S
C210 C181 1.387 . S
C210 H187 0.931 . S
C210 C209 1.374 . S
C211 O195 1.249 . S
C211 O196 1.264 1_545 S
C212 C215 1.382 . S
C212 C216 1.390 . S
C212 C219 1.506 . S
C213 C214 1.398 . S
C213 C216 1.392 . S
C214 C213 1.398 . S
C214 C217 1.372 . S
C214 H224 0.931 . S
C215 C212 1.382 . S
C215 C217 1.390 . S
C215 H225 0.931 . S
C216 C212 1.390 . S
C216 C213 1.392 . S
C216 H226 0.930 . S
C217 C214 1.372 . S
C217 C215 1.390 . S
C217 H227 0.929 . S
C218 O198 1.255 . S
C218 O199 1.257 . S
C219 Eu155 2.787 . S
C219 O194 1.252 . S
C219 O197 1.268 . S
C219 C212 1.506 . S
H220 C203 0.931 . S
H221 C204 0.931 . S
H222 C205 0.929 . S
H223 C206 0.930 . S
H224 C214 0.931 . S
H225 C215 0.931 . S
H226 C216 0.930 . S
H227 C217 0.929 . S
Eu228 N257 2.600 . S
Eu228 N263 2.562 1_556 S
Eu228 O272 2.462 . S
Eu228 O273 2.373 1_556 S
Eu228 O275 2.432 . S
Eu228 O276 2.291 1_556 S
Eu228 O280 2.335 . S
Eu228 O283 2.379 . S
Eu228 C292 2.787 . S
C229 N230 1.365 . S
C229 C232 1.405 . S
C229 C236 1.448 . S
N230 C229 1.365 . S
N230 C233 1.319 . S
N230 Eu239 2.600 . S
C231 C233 1.397 . S
C231 C234 1.367 . S
C231 H251 0.931 . S
C232 C229 1.405 . S
C232 C234 1.403 . S
C232 C238 1.439 . S
C233 N230 1.319 . S
C233 C231 1.397 . S
C233 H244 0.930 . S
C234 C231 1.367 . S
C234 C232 1.403 . S
C234 H255 0.929 . S
C235 C236 1.430 . S
C235 C237 1.387 . S
C235 C241 1.404 . S
C236 C229 1.448 . S
C236 C235 1.430 . S
C236 N240 1.351 . S
C237 C235 1.387 . S
C237 C238 1.374 . S
C237 H252 0.931 . S
C238 C232 1.439 . S
C238 C237 1.374 . S
C238 H253 0.931 . S
Eu239 N230 2.600 . S
Eu239 N240 2.562 . S
Eu239 O274 2.335 . S
Eu239 O277 2.372 . S
Eu239 O278 2.462 . S
Eu239 O279 2.373 1_554 S
Eu239 O281 2.432 . S
Eu239 O282 2.291 . S
Eu239 C303 2.787 . S
N240 C236 1.351 . S
N240 Eu239 2.562 . S
N240 C242 1.325 . S
C241 C235 1.404 . S
C241 C243 1.366 . S
C241 H249 0.930 . S
C242 N240 1.325 . S
C242 C243 1.416 . S
C242 H248 0.929 . S
C243 C241 1.366 . S
C243 C242 1.416 . S
C243 H245 0.930 . S
H244 C233 0.930 . S
H245 C243 0.930 . S
H246 C261 0.930 . S
H247 C268 0.930 . S
H248 C242 0.929 . S
H249 C241 0.930 . S
H250 C264 0.929 . S
H251 C231 0.931 . S
H252 C237 0.931 . S
H253 C238 0.931 . S
H254 C259 0.931 . S
H255 C234 0.929 . S
H256 C267 0.930 . S
N257 Eu228 2.600 . S
N257 C258 1.365 1_556 S
N257 C261 1.319 . S
C258 N257 1.365 1_554 S
C258 C260 1.405 . S
C258 C266 1.448 . S
C259 H254 0.931 . S
C259 C261 1.397 . S
C259 C262 1.367 1_556 S
C260 C258 1.405 . S
C260 C262 1.403 . S
C260 C293 1.439 . S
C261 H246 0.930 . S
C261 N257 1.319 . S
C261 C259 1.397 . S
C262 C259 1.367 1_554 S
C262 C260 1.403 . S
C262 H269 0.929 . S
N263 Eu228 2.562 1_554 S
N263 C264 1.325 . S
N263 C266 1.351 . S
C264 H250 0.929 . S
C264 N263 1.325 . S
C264 C268 1.416 . S
C265 C266 1.430 . S
C265 C267 1.404 . S
C265 C294 1.387 . S
C266 C258 1.448 . S
C266 N263 1.351 . S
C266 C265 1.430 . S
C267 H256 0.930 . S
C267 C265 1.404 . S
C267 C268 1.366 . S
C268 H247 0.930 . S
C268 C264 1.416 . S
C268 C267 1.366 . S
H269 C262 0.929 . S
H270 C293 0.931 . S
H271 C294 0.931 . S
O272 Eu228 2.462 . S
O272 C292 1.252 . S
O273 Eu228 2.373 1_554 S
O273 C284 1.249 . S
O274 Eu239 2.335 . S
O274 C284 1.264 . S
O275 Eu228 2.432 . S
O275 C292 1.268 . S
O276 Eu228 2.291 1_554 S
O276 C291 1.255 . S
O277 Eu239 2.372 . S
O277 C291 1.257 . S
O278 Eu239 2.462 . S
O278 C303 1.252 . S
O279 Eu239 2.373 1_556 S
O279 C295 1.249 . S
O280 Eu228 2.335 . S
O280 C295 1.264 . S
O281 Eu239 2.432 . S
O281 C303 1.268 . S
O282 Eu239 2.291 . S
O282 C302 1.255 . S
O283 Eu228 2.379 . S
O283 C302 1.242 1_556 S
C284 O273 1.249 . S
C284 O274 1.264 . S
C285 C288 1.382 . S
C285 C290 1.390 . S
C285 C292 1.506 . S
C286 C287 1.398 . S
C286 C290 1.392 . S
C287 C286 1.398 . S
C287 C289 1.372 . S
C287 H304 0.931 . S
C288 C285 1.382 . S
C288 C289 1.390 . S
C288 H305 0.931 . S
C289 C287 1.372 . S
C289 C288 1.390 . S
C289 H306 0.929 . S
C290 C285 1.390 . S
C290 C286 1.392 . S
C290 H307 0.930 . S
C291 O276 1.255 . S
C291 O277 1.257 . S
C292 Eu228 2.787 . S
C292 O272 1.252 . S
C292 O275 1.268 . S
C292 C285 1.506 . S
C293 C260 1.439 . S
C293 H270 0.931 . S
C293 C294 1.374 . S
C294 C265 1.387 . S
C294 H271 0.931 . S
C294 C293 1.374 . S
C295 O279 1.249 . S
C295 O280 1.264 . S
C296 C299 1.382 . S
C296 C300 1.390 . S
C296 C303 1.506 . S
C297 C298 1.398 . S
C297 C300 1.392 . S
C298 C297 1.398 . S
C298 C301 1.372 . S
C298 H308 0.931 . S
C299 C296 1.382 . S
C299 C301 1.390 . S
C299 H309 0.931 . S
C300 C296 1.390 . S
C300 C297 1.392 . S
C300 H310 0.930 . S
C301 C298 1.372 . S
C301 C299 1.390 . S
C301 H311 0.929 . S
C302 O282 1.255 . S
C302 O283 1.242 1_554 S
C303 Eu239 2.787 . S
C303 O278 1.252 . S
C303 O281 1.268 . S
C303 C296 1.506 . S
H304 C287 0.931 . S
H305 C288 0.931 . S
H306 C289 0.929 . S
H307 C290 0.930 . S
H308 C298 0.931 . S
H309 C299 0.931 . S
H310 C300 0.930 . S
H311 C301 0.929 . S
H312 C318 0.930 . S
H313 C322 0.930 . S
H314 C327 0.929 . S
H315 C325 0.929 . S
H316 C320 0.929 . S
H317 C326 0.929 . S
C318 H312 0.930 . S
C318 C319 1.367 . S
C318 C326 1.378 . S
C319 C318 1.367 . S
C319 C327 1.433 . S
C320 H316 0.929 . S
C320 C322 1.378 . S
C320 C324 1.350 . S
C321 C324 1.463 . S
C321 C326 1.350 . S
C321 N329 1.427 . S
C322 H313 0.930 . S
C322 C320 1.378 . S
C322 C323 1.367 . S
C323 C322 1.367 . S
C323 C325 1.433 . S
C324 C320 1.350 . S
C324 C321 1.463 . S
C324 N328 1.427 . S
C325 H315 0.929 . S
C325 C323 1.433 . S
C325 N328 1.384 . S
C326 H317 0.929 . S
C326 C318 1.378 . S
C326 C321 1.350 . S
C327 H314 0.929 . S
C327 C319 1.433 . S
C327 N329 1.384 . S
N328 C324 1.427 . S
N328 C325 1.384 . S
N329 C321 1.427 . S
N329 C327 1.384 . S
H330 C336 0.930 . S
H331 C340 0.930 . S
H332 C345 0.929 . S
H333 C343 0.929 . S
H334 C338 0.929 . S
H335 C344 0.929 . S
C336 H330 0.930 . S
C336 C337 1.367 . S
C336 C344 1.378 . S
C337 C336 1.367 . S
C337 C345 1.433 . S
C338 H334 0.929 . S
C338 C340 1.378 . S
C338 C342 1.350 . S
C339 C342 1.463 . S
C339 C344 1.350 . S
C339 N347 1.427 . S
C340 H331 0.930 . S
C340 C338 1.378 . S
C340 C341 1.367 . S
C341 C340 1.367 . S
C341 C343 1.433 . S
C342 C338 1.350 . S
C342 C339 1.463 . S
C342 N346 1.427 . S
C343 H333 0.929 . S
C343 C341 1.433 . S
C343 N346 1.384 . S
C344 H335 0.929 . S
C344 C336 1.378 . S
C344 C339 1.350 . S
C345 H332 0.929 . S
C345 C337 1.433 . S
C345 N347 1.384 . S
N346 C342 1.427 . S
N346 C343 1.384 . S
N347 C339 1.427 . S
N347 C345 1.384 . S
H348 C354 0.930 . S
H349 C358 0.930 . S
H350 C363 0.929 . S
H351 C361 0.929 . S
H352 C356 0.929 . S
H353 C362 0.929 . S
C354 H348 0.930 . S
C354 C355 1.367 . S
C354 C362 1.378 . S
C355 C354 1.367 . S
C355 C363 1.433 . S
C356 H352 0.929 . S
C356 C358 1.378 . S
C356 C360 1.350 . S
C357 C360 1.463 . S
C357 C362 1.350 . S
C357 N365 1.427 . S
C358 H349 0.930 . S
C358 C356 1.378 . S
C358 C359 1.367 . S
C359 C358 1.367 . S
C359 C361 1.433 . S
C360 C356 1.350 . S
C360 C357 1.463 . S
C360 N364 1.427 . S
C361 H351 0.929 . S
C361 C359 1.433 . S
C361 N364 1.384 . S
C362 H353 0.929 . S
C362 C354 1.378 . S
C362 C357 1.350 . S
C363 H350 0.929 . S
C363 C355 1.433 . S
C363 N365 1.384 . S
N364 C360 1.427 . S
N364 C361 1.384 . S
N365 C357 1.427 . S
N365 C363 1.384 . S
H366 C372 0.930 . S
H367 C376 0.930 . S
H368 C381 0.929 . S
H369 C379 0.929 . S
H370 C374 0.929 . S
H371 C380 0.929 . S
C372 H366 0.930 . S
C372 C373 1.367 . S
C372 C380 1.378 . S
C373 C372 1.367 . S
C373 C381 1.433 1_554 S
C374 H370 0.929 . S
C374 C376 1.378 . S
C374 C378 1.350 1_556 S
C375 C378 1.463 . S
C375 C380 1.350 . S
C375 N383 1.427 1_554 S
C376 H367 0.930 . S
C376 C374 1.378 . S
C376 C377 1.367 1_556 S
C377 C376 1.367 1_554 S
C377 C379 1.433 . S
C378 C374 1.350 1_554 S
C378 C375 1.463 . S
C378 N382 1.427 . S
C379 H369 0.929 . S
C379 C377 1.433 . S
C379 N382 1.384 . S
C380 H371 0.929 . S
C380 C372 1.378 . S
C380 C375 1.350 . S
C381 H368 0.929 . S
C381 C373 1.433 1_556 S
C381 N383 1.384 . S
N382 C378 1.427 . S
N382 C379 1.384 . S
N383 C375 1.427 1_556 S
N383 C381 1.384 . S
H384 C390 0.930 . S
H385 C394 0.930 . S
H386 C399 0.929 . S
H387 C397 0.929 . S
H388 C392 0.929 . S
H389 C398 0.929 . S
C390 H384 0.930 . S
C390 C391 1.367 . S
C390 C398 1.378 . S
C391 C390 1.367 . S
C391 C399 1.433 . S
C392 H388 0.929 . S
C392 C394 1.378 . S
C392 C396 1.350 . S
C393 C396 1.463 . S
C393 C398 1.350 . S
C393 N401 1.427 . S
C394 H385 0.930 . S
C394 C392 1.378 . S
C394 C395 1.367 . S
C395 C394 1.367 . S
C395 C397 1.433 . S
C396 C392 1.350 . S
C396 C393 1.463 . S
C396 N400 1.427 . S
C397 H387 0.929 . S
C397 C395 1.433 . S
C397 N400 1.384 . S
C398 H389 0.929 . S
C398 C390 1.378 . S
C398 C393 1.350 . S
C399 H386 0.929 . S
C399 C391 1.433 . S
C399 N401 1.384 . S
N400 C396 1.427 . S
N400 C397 1.384 . S
N401 C393 1.427 . S
N401 C399 1.384 . S
H402 C408 0.930 . S
H403 C412 0.930 . S
H404 C417 0.929 . S
H405 C415 0.929 . S
H406 C410 0.929 . S
H407 C416 0.929 . S
C408 H402 0.930 . S
C408 C409 1.367 . S
C408 C416 1.378 . S
C409 C408 1.367 . S
C409 C417 1.433 . S
C410 H406 0.929 . S
C410 C412 1.378 . S
C410 C414 1.350 . S
C411 C414 1.463 . S
C411 C416 1.350 . S
C411 N419 1.427 . S
C412 H403 0.930 . S
C412 C410 1.378 . S
C412 C413 1.367 . S
C413 C412 1.367 . S
C413 C415 1.433 . S
C414 C410 1.350 . S
C414 C411 1.463 . S
C414 N418 1.427 . S
C415 H405 0.929 . S
C415 C413 1.433 . S
C415 N418 1.384 . S
C416 H407 0.929 . S
C416 C408 1.378 . S
C416 C411 1.350 . S
C417 H404 0.929 . S
C417 C409 1.433 . S
C417 N419 1.384 . S
N418 C414 1.427 . S
N418 C415 1.384 . S
N419 C411 1.427 . S
N419 C417 1.384 . S
H420 C426 0.930 . S
H421 C430 0.930 1_565 S
H422 C435 0.929 . S
H423 C433 0.929 . S
H424 C428 0.929 1_565 S
H425 C434 0.929 . S
C426 H420 0.930 . S
C426 C427 1.367 . S
C426 C434 1.378 . S
C427 C426 1.367 . S
C427 C435 1.433 . S
C428 H424 0.929 1_545 S
C428 C430 1.378 . S
C428 C432 1.350 . S
C429 C432 1.463 . S
C429 C434 1.350 . S
C429 N437 1.427 . S
C430 H421 0.930 1_545 S
C430 C428 1.378 . S
C430 C431 1.367 . S
C431 C430 1.367 . S
C431 C433 1.433 . S
C432 C428 1.350 . S
C432 C429 1.463 . S
C432 N436 1.427 . S
C433 H423 0.929 . S
C433 C431 1.433 . S
C433 N436 1.384 . S
C434 H425 0.929 . S
C434 C426 1.378 . S
C434 C429 1.350 . S
C435 H422 0.929 . S
C435 C427 1.433 . S
C435 N437 1.384 . S
N436 C432 1.427 . S
N436 C433 1.384 . S
N437 C429 1.427 . S
N437 C435 1.384 . S
H438 C444 0.930 . S
H439 C448 0.930 . S
H440 C453 0.929 . S
H441 C451 0.929 . S
H442 C446 0.929 . S
H443 C452 0.929 . S
C444 H438 0.930 . S
C444 C445 1.367 . S
C444 C452 1.378 . S
C445 C444 1.367 . S
C445 C453 1.433 . S
C446 H442 0.929 . S
C446 C448 1.378 . S
C446 C450 1.350 . S
C447 C450 1.463 . S
C447 C452 1.350 . S
C447 N455 1.427 . S
C448 H439 0.930 . S
C448 C446 1.378 . S
C448 C449 1.367 . S
C449 C448 1.367 . S
C449 C451 1.433 . S
C450 C446 1.350 . S
C450 C447 1.463 . S
C450 N454 1.427 . S
C451 H441 0.929 . S
C451 C449 1.433 . S
C451 N454 1.384 . S
C452 H443 0.929 . S
C452 C444 1.378 . S
C452 C447 1.350 . S
C453 H440 0.929 . S
C453 C445 1.433 . S
C453 N455 1.384 . S
N454 C450 1.427 . S
N454 C451 1.384 . S
N455 C447 1.427 . S
N455 C453 1.384 . S
H456 C462 0.930 . S
H457 C466 0.930 . S
H458 C471 0.929 . S
H459 C469 0.929 . S
H460 C464 0.929 . S
H461 C470 0.929 . S
C462 H456 0.930 . S
C462 C463 1.367 . S
C462 C470 1.378 . S
C463 C462 1.367 . S
C463 C471 1.433 . S
C464 H460 0.929 . S
C464 C466 1.378 . S
C464 C468 1.350 . S
C465 C468 1.463 . S
C465 C470 1.350 . S
C465 N473 1.427 . S
C466 H457 0.930 . S
C466 C464 1.378 . S
C466 C467 1.367 . S
C467 C466 1.367 . S
C467 C469 1.433 . S
C468 C464 1.350 . S
C468 C465 1.463 . S
C468 N472 1.427 . S
C469 H459 0.929 . S
C469 C467 1.433 . S
C469 N472 1.384 . S
C470 H461 0.929 . S
C470 C462 1.378 . S
C470 C465 1.350 . S
C471 H458 0.929 . S
C471 C463 1.433 . S
C471 N473 1.384 . S
N472 C468 1.427 . S
N472 C469 1.384 . S
N473 C465 1.427 . S
N473 C471 1.384 . S
H474 C480 0.930 . S
H475 C484 0.930 . S
H476 C489 0.929 . S
H477 C487 0.929 . S
H478 C482 0.929 . S
H479 C488 0.929 . S
C480 H474 0.930 . S
C480 C481 1.367 . S
C480 C488 1.378 . S
C481 C480 1.367 . S
C481 C489 1.433 . S
C482 H478 0.929 . S
C482 C484 1.378 . S
C482 C486 1.350 . S
C483 C486 1.463 . S
C483 C488 1.350 . S
C483 N491 1.427 . S
C484 H475 0.930 . S
C484 C482 1.378 . S
C484 C485 1.367 . S
C485 C484 1.367 . S
C485 C487 1.433 . S
C486 C482 1.350 . S
C486 C483 1.463 . S
C486 N490 1.427 . S
C487 H477 0.929 . S
C487 C485 1.433 . S
C487 N490 1.384 . S
C488 H479 0.929 . S
C488 C480 1.378 . S
C488 C483 1.350 . S
C489 H476 0.929 . S
C489 C481 1.433 . S
C489 N491 1.384 . S
N490 C486 1.427 . S
N490 C487 1.384 . S
N491 C483 1.427 . S
N491 C489 1.384 . S
H492 C498 0.930 . S
H493 C502 0.930 . S
H494 C507 0.929 . S
H495 C505 0.929 . S
H496 C500 0.929 . S
H497 C506 0.929 . S
C498 H492 0.930 . S
C498 C499 1.367 . S
C498 C506 1.378 . S
C499 C498 1.367 . S
C499 C507 1.433 . S
C500 H496 0.929 . S
C500 C502 1.378 . S
C500 C504 1.350 . S
C501 C504 1.463 . S
C501 C506 1.350 . S
C501 N509 1.427 . S
C502 H493 0.930 . S
C502 C500 1.378 . S
C502 C503 1.367 . S
C503 C502 1.367 . S
C503 C505 1.433 . S
C504 C500 1.350 . S
C504 C501 1.463 . S
C504 N508 1.427 . S
C505 H495 0.929 . S
C505 C503 1.433 . S
C505 N508 1.384 . S
C506 H497 0.929 . S
C506 C498 1.378 . S
C506 C501 1.350 . S
C507 H494 0.929 . S
C507 C499 1.433 . S
C507 N509 1.384 . S
N508 C504 1.427 . S
N508 C505 1.384 . S
N509 C501 1.427 . S
N509 C507 1.384 . S
H510 C516 0.930 . S
H511 C520 0.930 . S
H512 C525 0.929 . S
H513 C523 0.929 . S
H514 C518 0.929 . S
H515 C524 0.929 . S
C516 H510 0.930 . S
C516 C517 1.367 . S
C516 C524 1.378 . S
C517 C516 1.367 . S
C517 C525 1.433 . S
C518 H514 0.929 . S
C518 C520 1.378 . S
C518 C522 1.350 . S
C519 C522 1.463 . S
C519 C524 1.350 . S
C519 N527 1.427 . S
C520 H511 0.930 . S
C520 C518 1.378 . S
C520 C521 1.367 . S
C521 C520 1.367 . S
C521 C523 1.433 . S
C522 C518 1.350 . S
C522 C519 1.463 . S
C522 N526 1.427 . S
C523 H513 0.929 . S
C523 C521 1.433 . S
C523 N526 1.384 . S
C524 H515 0.929 . S
C524 C516 1.378 . S
C524 C519 1.350 . S
C525 H512 0.929 . S
C525 C517 1.433 . S
C525 N527 1.384 . S
N526 C522 1.427 . S
N526 C523 1.384 . S
N527 C519 1.427 . S
N527 C525 1.384 . S
C323 C207 1.631 . S
C319 C133 1.648 . S
C337 C25 1.628 . S
C341 C302 1.623 . S
C355 C61 1.624 . S
C359 C218 1.630 . S
C373 C97 1.586 . S
C377 C291 1.625 . S
C395 C202 1.408 . S
C391 C1 1.561 . S
C413 C295 1.613 . S
C409 C67 1.578 . S
C427 C103 1.577 . S
C431 C211 1.620 . S
C445 C109 1.540 . S
C449 C286 1.399 . S
C467 C297 1.407 . S
C463 C37 1.529 . S
C485 C213 1.406 . S
C481 C73 1.548 . S
C503 C284 1.613 . S
C499 C139 1.604 . S
C517 C31 1.613 . S
C521 C200 1.621 . S
