# Generated by pormake.
# Topology anh, (6,3)-cn, num edge types: 1
# Building blocks:
#     Node 0, Type 0, BuildingBlock: CUWYAW_clean_sbu_0, # of connection points: 6
#     Node 1, Type 0, BuildingBlock: CUWYAW_clean_sbu_0, # of connection points: 6
#     Node 2, Type 0, BuildingBlock: CUWYAW_clean_sbu_0, # of connection points: 6
#     Node 3, Type 1, BuildingBlock: BELTOD_clean_linker_0, # of connection points: 3
#     Node 4, Type 1, BuildingBlock: BELTOD_clean_linker_0, # of connection points: 3
#     Node 5, Type 1, BuildingBlock: BELTOD_clean_linker_0, # of connection points: 3
#     Node 6, Type 1, BuildingBlock: BELTOD_clean_linker_0, # of connection points: 3
#     Node 7, Type 1, BuildingBlock: BELTOD_clean_linker_0, # of connection points: 3
#     Node 8, Type 1, BuildingBlock: BELTOD_clean_linker_0, # of connection points: 3
#     Edge 9, Type (0, 1), BuildingBlock: EZIPEK_clean_linker_0, # of connection points: 2
#     Edge 10, Type (0, 1), BuildingBlock: EZIPEK_clean_linker_0, # of connection points: 2
#     Edge 11, Type (0, 1), BuildingBlock: EZIPEK_clean_linker_0, # of connection points: 2
#     Edge 12, Type (0, 1), BuildingBlock: EZIPEK_clean_linker_0, # of connection points: 2
#     Edge 13, Type (0, 1), BuildingBlock: EZIPEK_clean_linker_0, # of connection points: 2
#     Edge 14, Type (0, 1), BuildingBlock: EZIPEK_clean_linker_0, # of connection points: 2
#     Edge 15, Type (0, 1), BuildingBlock: EZIPEK_clean_linker_0, # of connection points: 2
#     Edge 16, Type (0, 1), BuildingBlock: EZIPEK_clean_linker_0, # of connection points: 2
#     Edge 17, Type (0, 1), BuildingBlock: EZIPEK_clean_linker_0, # of connection points: 2
#     Edge 18, Type (0, 1), BuildingBlock: EZIPEK_clean_linker_0, # of connection points: 2
#     Edge 19, Type (0, 1), BuildingBlock: EZIPEK_clean_linker_0, # of connection points: 2
#     Edge 20, Type (0, 1), BuildingBlock: EZIPEK_clean_linker_0, # of connection points: 2
#     Edge 21, Type (0, 1), BuildingBlock: EZIPEK_clean_linker_0, # of connection points: 2
#     Edge 22, Type (0, 1), BuildingBlock: EZIPEK_clean_linker_0, # of connection points: 2
#     Edge 23, Type (0, 1), BuildingBlock: EZIPEK_clean_linker_0, # of connection points: 2
#     Edge 24, Type (0, 1), BuildingBlock: EZIPEK_clean_linker_0, # of connection points: 2
#     Edge 25, Type (0, 1), BuildingBlock: EZIPEK_clean_linker_0, # of connection points: 2
#     Edge 26, Type (0, 1), BuildingBlock: EZIPEK_clean_linker_0, # of connection points: 2
# Relax obj value: 0.333
# Max RMSD: 0.192
# Mean RMSD: 0.159
data_MOF--net-anh--node1-CUWYAW_clean_sbu_0--node2-BELTOD_clean_linker_0--edge1-EZIPEK_clean_linker_0
_symmetry_space_group_name_H-M    P1
_symmetry_Int_Tables_number       1
_symmetry_cell_setting            triclinic
loop_
_symmetry_equiv_pos_as_xyz
'x, y, z'
_cell_length_a     26.672692
_cell_length_b     26.813648
_cell_length_c     46.836955
_cell_angle_alpha  89.606229
_cell_angle_beta   90.026044
_cell_angle_gamma 119.75363
loop_
_atom_site_label
_atom_site_type_symbol
_atom_site_fract_x
_atom_site_fract_y
_atom_site_fract_z
_atom_type_partial_charge
C0 C 1.03595 0.44624 0.15672 0.0
Eu1 Eu 1.09332 0.55608 0.1658 0.0
C2 C 0.98012 0.40016 0.14724 0.0
C3 C 0.93193 0.40804 0.14535 0.0
C4 C 0.87631 0.36022 0.14581 0.0
C5 C 0.86946 0.30505 0.14884 0.0
C6 C 0.91766 0.29745 0.1468 0.0
C7 C 0.97287 0.34492 0.14601 0.0
C8 C 0.13056 0.59623 0.22015 0.0
C9 C 1.00728 0.6114 0.16286 0.0
C10 C 0.19591 0.78665 0.17981 0.0
Eu11 Eu 0.14811 0.67766 0.16936 0.0
C12 C 0.25329 0.83223 0.1701 0.0
C13 C 0.26492 0.84458 0.14071 0.0
C14 C 0.32133 0.86771 0.13035 0.0
C15 C 0.36585 0.87743 0.14929 0.0
C16 C 0.35563 0.87416 0.17882 0.0
C17 C 0.29967 0.85221 0.1892 0.0
C18 C 0.14357 0.64155 0.11482 0.0
C19 C 0.23227 0.62195 0.16031 0.0
O20 O 1.07024 0.48322 0.13764 0.0
O21 O 1.03541 0.46984 0.18095 0.0
O22 O 0.13878 0.5584 0.20731 0.0
O23 O 1.10424 0.61249 0.20347 0.0
O24 O 1.01114 0.56394 0.16121 0.0
O25 O 1.0547 0.66125 0.16756 0.0
O26 O 0.19669 0.74957 0.19796 0.0
O27 O 0.15722 0.76148 0.1599 0.0
O28 O 0.18809 0.68493 0.12599 0.0
O29 O 1.10343 0.61958 0.13293 0.0
O30 O 0.22855 0.66487 0.17242 0.0
O31 O 0.18407 0.57679 0.15161 0.0
H32 H 0.93713 0.45071 0.14618 0.0
H33 H 0.83928 0.3665 0.14721 0.0
H34 H 0.91287 0.255 0.14885 0.0
H35 H 1.00977 0.33837 0.14733 0.0
H36 H 0.23016 0.83088 0.1254 0.0
H37 H 0.32894 0.87141 0.10752 0.0
H38 H 0.38998 0.88279 0.19378 0.0
H39 H 0.29209 0.84437 0.21194 0.0
C40 C 0.54609 0.15884 0.48352 0.0
Eu41 Eu 0.58626 0.09091 0.49594 0.0
C42 C 0.56258 0.21161 0.49939 0.0
C43 C 0.5897 0.2179 0.52583 0.0
C44 C 0.61762 0.27085 0.53911 0.0
C45 C 0.61816 0.31857 0.52648 0.0
C46 C 0.58712 0.31162 0.50108 0.0
C47 C 0.56019 0.25833 0.48727 0.0
C48 C 0.59596 0.07879 0.55417 0.0
C49 C 0.72822 0.17467 0.49474 0.0
C50 C 0.69506 0.97958 0.52957 0.0
Eu51 Eu 0.65039 1.0389 0.50794 0.0
C52 C 0.72335 0.94826 0.51924 0.0
C53 C 0.74968 0.95964 0.49214 0.0
C54 C 0.78497 0.93668 0.48479 0.0
C55 C 0.79399 0.90242 0.50457 0.0
C56 C 0.76445 0.8881 0.53077 0.0
C57 C 0.72939 0.91094 0.53807 0.0
C58 C 0.64413 1.04709 0.45031 0.0
C59 C 0.50976 0.95456 0.49512 0.0
O60 O 0.58872 0.1595 0.46949 0.0
O61 O 0.51678 0.11149 0.49827 0.0
O62 O 0.54871 1.06671 0.54115 0.0
O63 O 0.63592 0.09598 0.53603 0.0
O64 O 0.67793 0.16725 0.4856 0.0
O65 O 0.72822 0.13097 0.50803 0.0
O66 O 0.64025 0.95764 0.52434 0.0
O67 O 0.72355 1.03488 0.52565 0.0
O68 O 0.68941 1.05538 0.46418 0.0
O69 O 0.60325 1.03444 0.46757 0.0
O70 O 0.55538 0.96045 0.50976 0.0
O71 O 0.51417 1.0015 0.48328 0.0
H72 H 0.59238 0.18251 0.53542 0.0
H73 H 0.64105 0.27513 0.55869 0.0
H74 H 0.58663 0.34804 0.49124 0.0
H75 H 0.53981 0.25427 0.46675 0.0
H76 H 0.74525 0.98839 0.47732 0.0
H77 H 0.80758 0.94807 0.46451 0.0
H78 H 0.77103 0.86163 0.54623 0.0
H79 H 0.70933 0.90175 0.55901 0.0
C80 C 0.79851 0.68224 0.81962 0.0
Eu81 Eu 0.69122 0.62503 0.83458 0.0
C82 C 0.82769 0.66127 0.80079 0.0
C83 C 0.88686 0.68222 0.8034 0.0
C84 C 0.91135 0.65171 0.79151 0.0
C85 C 0.87664 0.59907 0.77747 0.0
C86 C 0.81879 0.58222 0.77194 0.0
C87 C 0.79442 0.61301 0.78369 0.0
C88 C 0.64143 0.59375 0.88724 0.0
C89 C 0.62858 0.48639 0.82876 0.0
C90 C 0.45617 0.51308 0.8336 0.0
Eu91 Eu 0.56758 0.56762 0.83008 0.0
C92 C 0.41671 0.53335 0.82412 0.0
C93 C 0.41916 0.55306 0.79587 0.0
C94 C 0.39319 0.58566 0.78885 0.0
C95 C 0.36537 0.59951 0.81008 0.0
C96 C 0.35915 0.57636 0.83765 0.0
C97 C 0.38444 0.54326 0.8446 0.0
C98 C 0.62321 0.60069 0.77939 0.0
C99 C 0.63011 0.70751 0.82891 0.0
O100 O 0.75856 0.68964 0.80738 0.0
O101 O 0.78162 0.65475 0.84407 0.0
O102 O 0.68801 0.59343 0.87954 0.0
O103 O 0.62455 0.61397 0.86715 0.0
O104 O 0.67685 0.53529 0.82365 0.0
O105 O 0.58157 0.48883 0.83608 0.0
O106 O 0.48946 0.54147 0.85506 0.0
O107 O 0.48413 0.50331 0.8135 0.0
O108 O 0.57913 0.60666 0.78545 0.0
O109 O 0.63401 0.57683 0.79966 0.0
O110 O 0.58018 0.65888 0.82683 0.0
O111 O 0.67762 0.70428 0.8336 0.0
H112 H 0.91321 0.7195 0.81639 0.0
H113 H 0.95654 0.66677 0.79564 0.0
H114 H 0.79155 0.54368 0.76003 0.0
H115 H 0.74859 0.59657 0.78123 0.0
H116 H 0.44392 0.54631 0.77957 0.0
H117 H 0.39754 0.60271 0.76739 0.0
H118 H 0.33699 0.58624 0.85414 0.0
H119 H 0.38209 0.5287 0.86646 0.0
P120 P 0.6824 0.92444 0.24756 0.0
H121 H 0.67813 0.87491 0.19248 0.0
H122 H 0.61124 0.86092 0.15348 0.0
H123 H 0.48997 0.86108 0.21416 0.0
H124 H 0.55697 0.87768 0.25262 0.0
H125 H 0.78863 1.00755 0.2174 0.0
H126 H 0.81425 0.09774 0.19204 0.0
H127 H 0.646 0.07532 0.21091 0.0
H128 H 0.6216 0.98745 0.23762 0.0
H129 H 0.59486 0.85159 0.29117 0.0
H130 H 0.74282 1.02204 0.2847 0.0
O131 O 0.73467 0.90748 0.24641 0.0
H132 H 0.57359 0.8747 0.3389 0.0
H133 H 0.72304 1.04393 0.33244 0.0
C134 C 0.62264 0.87688 0.22568 0.0
C135 C 0.63568 0.86835 0.19767 0.0
C136 C 0.59804 0.86127 0.17531 0.0
C137 C 0.54651 0.86115 0.1811 0.0
C138 C 0.52991 0.86138 0.20944 0.0
C139 C 0.56787 0.86952 0.23163 0.0
C140 C 0.70342 0.9911 0.2294 0.0
C141 C 0.7575 1.02224 0.21626 0.0
C142 C 0.77182 0.07319 0.20166 0.0
C143 C 0.73183 0.09271 0.19978 0.0
C144 C 0.67718 1.06067 0.21223 0.0
C145 C 0.6635 1.01072 0.22742 0.0
C146 C 0.66885 0.93599 0.28388 0.0
C147 C 0.62238 0.89393 0.29982 0.0
C148 C 0.61041 0.90696 0.32702 0.0
C149 C 0.64628 0.96138 0.33886 0.0
C150 C 0.69441 1.0021 0.32345 0.0
C151 C 0.70567 0.98944 0.29625 0.0
P152 P 0.91612 0.69758 0.62153 0.0
H153 H 0.92661 0.60659 0.59216 0.0
H154 H 0.85336 0.51593 0.57071 0.0
H155 H 0.71869 0.5453 0.60291 0.0
H156 H 0.79076 0.6324 0.62609 0.0
H157 H 1.00153 0.76819 0.57725 0.0
H158 H 0.99475 0.82085 0.53532 0.0
H159 H 0.82041 0.77267 0.55965 0.0
H160 H 0.82555 0.7178 0.59949 0.0
H161 H 0.90578 0.64658 0.67761 0.0
H162 H 0.86815 0.7717 0.64012 0.0
O163 O 0.98139 0.7044 0.62554 0.0
H164 H 0.83752 0.6302 0.71623 0.0
H165 H 0.79413 0.74912 0.67613 0.0
C166 C 0.86421 0.62603 0.61087 0.0
C167 C 0.88129 0.59244 0.59538 0.0
C168 C 0.83963 0.54117 0.58297 0.0
C169 C 0.78068 0.5243 0.58507 0.0
C170 C 0.76385 0.55748 0.60107 0.0
C171 C 0.8052 0.60731 0.61427 0.0
C172 C 0.91507 0.74145 0.59248 0.0
C173 C 0.96217 0.76963 0.57367 0.0
C174 C 0.95827 0.79932 0.54972 0.0
C175 C 0.90752 0.80171 0.54483 0.0
C176 C 0.86027 0.77207 0.56323 0.0
C177 C 0.86363 0.7414 0.58638 0.0
C178 C 0.89018 0.70833 0.65517 0.0
C179 C 0.88406 0.67164 0.67801 0.0
C180 C 0.8445 0.66171 0.69988 0.0
C181 C 0.80903 0.6867 0.6985 0.0
C182 C 0.82003 0.72833 0.67738 0.0
C183 C 0.86183 0.7405 0.65644 0.0
P184 P 0.13847 0.72574 0.9004 0.0
H185 H 0.18774 0.78915 0.8478 0.0
H186 H 0.25168 0.779 0.81354 0.0
H187 H 0.29441 0.69016 0.87766 0.0
H188 H 0.23117 0.7002 0.9117 0.0
H189 H 1.02671 0.70254 0.87823 0.0
H190 H 0.96298 0.63491 0.84253 0.0
H191 H 1.06989 0.55616 0.83887 0.0
H192 H 0.13286 0.6227 0.87564 0.0
H193 H 0.21454 0.781 0.94838 0.0
H194 H 1.05956 0.62002 0.93197 0.0
O195 O 0.12705 0.78154 0.90044 0.0
H196 H 0.21103 0.75277 -0.00132 0.0
H197 H 1.05625 0.59207 0.98218 0.0
C198 C 0.20492 0.7456 0.8823 0.0
C199 C 0.21351 0.77051 0.85497 0.0
C200 C 0.24954 0.76442 0.83536 0.0
C201 C 0.27655 0.73294 0.8431 0.0
C202 C 0.27347 0.71435 0.87142 0.0
C203 C 0.23771 0.72056 0.89096 0.0
C204 C 1.08534 0.66876 0.8789 0.0
C205 C 1.0361 0.67031 0.87015 0.0
C206 C 1.00004 0.63197 0.84963 0.0
C207 C 1.01318 0.59216 0.83731 0.0
C208 C 1.05986 0.58742 0.84771 0.0
C209 C 1.09567 0.62547 0.8686 0.0
C210 C 0.13763 0.70252 0.9365 0.0
C211 C 0.18028 0.73943 0.95552 0.0
C212 C 0.17841 0.72334 0.98406 0.0
C213 C 0.13367 0.67025 0.99385 0.0
C214 C 1.09137 0.63291 0.97477 0.0
C215 C 1.0933 0.64901 0.9462 0.0
P216 P 0.13129 0.5532 0.44326 0.0
H217 H 0.22775 0.58657 0.48475 0.0
H218 H 0.31421 0.67774 0.49639 0.0
H219 H 0.2486 0.76936 0.44762 0.0
H220 H 0.16226 0.67782 0.43547 0.0
H221 H 1.08606 0.48423 0.49725 0.0
H222 H 0.99362 0.39845 0.51019 0.0
H223 H 0.91889 0.41463 0.4318 0.0
H224 H 1.01059 0.49926 0.41872 0.0
H225 H 0.18341 0.52877 0.39348 0.0
H226 H 1.07713 0.60604 0.40754 0.0
O227 O 0.16317 0.51326 0.44599 0.0
H228 H 0.18158 0.54383 0.34208 0.0
H229 H 1.07542 0.62106 0.35558 0.0
C230 C 0.1865 0.62341 0.45912 0.0
C231 C 0.23066 0.62596 0.47689 0.0
C232 C 0.28103 0.67875 0.48347 0.0
C233 C 0.2898 0.73199 0.47284 0.0
C234 C 0.24438 0.72984 0.45619 0.0
C235 C 0.19409 0.67683 0.44939 0.0
C236 C 1.05696 0.50121 0.45715 0.0
C237 C 1.04951 0.47097 0.48314 0.0
C238 C 0.99627 0.42095 0.49047 0.0
C239 C 0.94779 0.39867 0.47215 0.0
C240 C 0.9545 0.42995 0.44668 0.0
C241 C 1.00774 0.47961 0.43928 0.0
C242 C 0.12959 0.56537 0.40477 0.0
C243 C 0.15941 0.54883 0.38571 0.0
C244 C 0.15866 0.55761 0.35617 0.0
C245 C 0.12823 0.58337 0.34482 0.0
C246 C 1.09911 0.60095 0.36378 0.0
C247 C 1.10005 0.5923 0.39346 0.0
P248 P 0.65999 0.11159 0.77696 0.0
H249 H 0.73681 0.23722 0.78012 0.0
H250 H 0.72589 0.31919 0.79307 0.0
H251 H 0.54905 0.20475 0.81693 0.0
H252 H 0.55998 0.1212 0.80363 0.0
H253 H 0.70975 0.07446 0.82398 0.0
H254 H 0.7014 0.98167 0.83703 0.0
H255 H 0.55865 0.89569 0.77929 0.0
H256 H 0.56732 0.98881 0.76595 0.0
H257 H 0.60385 0.15745 0.73758 0.0
H258 H 0.67675 1.04576 0.73204 0.0
O259 O 0.73175 0.14126 0.77581 0.0
H260 H 0.58922 0.15106 0.68564 0.0
H261 H 0.66126 1.0389 0.68019 0.0
C262 C 0.64994 0.17121 0.79155 0.0
C263 C 0.69561 0.22861 0.7887 0.0
C264 C 0.68932 0.27639 0.79596 0.0
C265 C 0.63671 0.26973 0.80629 0.0
C266 C 0.59053 0.2123 0.80923 0.0
C267 C 0.59688 0.16402 0.80181 0.0
C268 C 0.6389 1.0403 0.79401 0.0
C269 C 0.67523 1.03581 0.81465 0.0
C270 C 0.67085 0.98223 0.82198 0.0
C271 C 0.62957 0.93032 0.80921 0.0
C272 C 0.59106 0.9342 0.78971 0.0
C273 C 0.59571 0.98799 0.78223 0.0
C274 C 0.6407 0.10134 0.73913 0.0
C275 C 0.61598 0.13087 0.72546 0.0
C276 C 0.60785 0.12751 0.69567 0.0
C277 C 0.62428 0.09462 0.67889 0.0
C278 C 0.64822 1.06453 0.69259 0.0
C279 C 0.65662 1.06814 0.72228 0.0
P280 P 0.5995 0.57451 0.11071 0.0
H281 H 0.6444 0.55023 0.16439 0.0
H282 H 0.73808 0.5591 0.17723 0.0
H283 H 0.8129 0.65542 0.09999 0.0
H284 H 0.71963 0.64684 0.08722 0.0
H285 H 0.48599 0.50501 0.14006 0.0
H286 H 0.4058 0.5205 0.15225 0.0
H287 H 0.50611 0.69682 0.12522 0.0
H288 H 0.58848 0.68249 0.11455 0.0
H289 H 0.62156 0.51184 0.06618 0.0
H290 H 0.58939 0.65431 0.06836 0.0
O291 O 0.56808 0.50355 0.11567 0.0
H292 H 0.62734 0.51847 0.01393 0.0
H293 H 0.59525 0.66074 0.01613 0.0
C294 C 0.67354 0.59861 0.12491 0.0
C295 C 0.68118 0.57508 0.15056 0.0
C296 C 0.73509 0.57956 0.1578 0.0
C297 C 0.78385 0.60764 0.13965 0.0
C298 C 0.77688 0.63331 0.11461 0.0
C299 C 0.72302 0.62882 0.10739 0.0
C300 C 0.54495 0.59223 0.12584 0.0
C301 C 0.49225 0.54779 0.13723 0.0
C302 C 0.44543 0.55649 0.14422 0.0
C303 C 0.44845 0.60995 0.1399 0.0
C304 C 0.50158 0.65508 0.12928 0.0
C305 C 0.54912 0.64665 0.12283 0.0
C306 C 0.60389 0.58179 0.07168 0.0
C307 C 0.61524 0.54431 0.05558 0.0
C308 C 0.61863 0.54805 0.02565 0.0
C309 C 0.61127 0.58977 0.01093 0.0
C310 C 0.60065 0.62786 0.02692 0.0
C311 C 0.59725 0.62408 0.05695 0.0
C312 C 0.3067 0.61632 0.12713 0.0
C313 C 0.29073 0.62418 0.15518 0.0
C314 C 0.38298 0.6316 0.17253 0.0
C315 C 0.39504 0.61693 0.1451 0.0
N316 N 0.36304 0.58872 0.09686 0.0
N317 N 0.31248 0.63267 0.20538 0.0
C318 C 0.35519 0.60735 0.12266 0.0
C319 C 0.32898 0.63055 0.17803 0.0
N320 N 0.27765 0.62123 0.10429 0.0
N321 N 0.42382 0.64767 0.19337 0.0
H322 H 0.27365 0.63118 0.21025 0.0
H323 H 0.3347 0.63102 0.22331 0.0
H324 H 0.46266 0.64786 0.1903 0.0
H325 H 0.42143 0.66524 0.21272 0.0
H326 H 0.29002 0.62176 0.08315 0.0
H327 H 0.24529 0.63186 0.10658 0.0
H328 H 0.33223 0.57411 0.08071 0.0
H329 H 0.39857 0.58368 0.09234 0.0
C330 C 0.83313 0.23407 0.47479 0.0
C331 C 0.7852 0.2324 0.48952 0.0
C332 C 0.84528 0.33968 0.49452 0.0
C333 C 0.8917 0.34124 0.47858 0.0
N334 N 0.92657 0.28965 0.45087 0.0
N335 N 0.74632 0.2857 0.51277 0.0
C336 C 0.88456 0.28818 0.46817 0.0
C337 C 0.79166 0.28604 0.49904 0.0
N338 N 0.82986 0.18353 0.467 0.0
N339 N 0.85313 0.38983 0.50599 0.0
H340 H 0.70921 0.24797 0.51866 0.0
H341 H 0.74421 0.32231 0.51776 0.0
H342 H 0.89054 0.4292 0.50255 0.0
H343 H 0.8246 0.39275 0.52006 0.0
H344 H 0.8651 0.1801 0.46012 0.0
H345 H 0.7923 0.14393 0.46874 0.0
H346 H 0.92205 0.25467 0.43931 0.0
H347 H 0.96517 0.32729 0.44642 0.0
C348 C 0.58842 0.77619 0.83781 0.0
C349 C 0.63244 0.7667 0.82556 0.0
C350 C 0.67209 0.86338 0.80185 0.0
C351 C 0.62966 0.87338 0.81481 0.0
N352 N 0.55229 0.84202 0.84868 0.0
N353 N 0.72541 0.81219 0.80112 0.0
C354 C 0.58903 0.83023 0.83363 0.0
C355 C 0.67695 0.81353 0.80928 0.0
N356 N 0.54635 0.73401 0.85434 0.0
N357 N 0.70686 0.9006 0.7811 0.0
H358 H 0.73113 0.77687 0.80322 0.0
H359 H 0.76246 0.84828 0.79355 0.0
H360 H 0.70543 0.93744 0.77516 0.0
H361 H 0.73318 0.89224 0.76788 0.0
H362 H 0.5081 0.73301 0.85991 0.0
H363 H 0.54923 0.69924 0.86241 0.0
H364 H 0.52562 0.81629 0.86514 0.0
H365 H 0.55104 0.88003 0.84592 0.0
C366 C 0.91643 0.58342 0.13226 0.0
C367 C 0.94925 0.60939 0.1574 0.0
C368 C 0.87633 0.63862 0.16976 0.0
C369 C 0.8409 0.60798 0.14607 0.0
N370 N 0.8236 0.54128 0.10808 0.0
N371 N 0.95319 0.65313 0.2027 0.0
C372 C 0.8601 0.57762 0.12832 0.0
C373 C 0.92712 0.63474 0.1768 0.0
N374 N 0.94023 0.56684 0.11111 0.0
N375 N 0.86269 0.67337 0.18514 0.0
H376 H 0.98906 0.64994 0.2089 0.0
H377 H 0.93607 0.66629 0.21906 0.0
H378 H 0.82659 0.67751 0.18072 0.0
H379 H 0.88974 0.70185 0.20054 0.0
H380 H 0.92154 0.5536 0.09106 0.0
H381 H 0.98154 0.57199 0.11239 0.0
H382 H 0.83201 0.51301 0.09667 0.0
H383 H 0.78232 0.53525 0.10465 0.0
C384 C 0.42097 0.85814 0.51229 0.0
C385 C 0.45543 0.89517 0.48952 0.0
C386 C 0.38469 0.82169 0.45569 0.0
C387 C 0.34675 0.78892 0.4785 0.0
N388 N 0.32635 0.78356 0.52882 0.0
N389 N 0.46712 0.91064 0.43854 0.0
C390 C 0.36454 0.80932 0.50685 0.0
C391 C 0.43594 0.8765 0.46098 0.0
N392 N 0.44236 0.86846 0.53936 0.0
N393 N 0.37374 0.79885 0.42889 0.0
H394 H 0.50786 0.94664 0.44082 0.0
H395 H 0.45165 0.90453 0.41771 0.0
H396 H 0.33828 0.75893 0.4242 0.0
H397 H 0.40242 0.81659 0.41184 0.0
H398 H 0.42251 0.84018 0.55638 0.0
H399 H 0.48318 0.90197 0.54417 0.0
H400 H 0.33363 0.79994 0.54944 0.0
H401 H 0.28479 0.7491 0.52584 0.0
C402 C 0.59003 0.38775 0.8038 0.0
C403 C 0.62721 0.42852 0.82445 0.0
C404 C 0.66444 0.36131 0.83571 0.0
C405 C 0.63105 0.32313 0.81339 0.0
N406 N 0.56879 0.30639 0.77312 0.0
N407 N 0.70443 0.45509 0.85822 0.0
C408 C 0.5953 0.33798 0.79683 0.0
C409 C 0.66585 0.41549 0.8397 0.0
N410 N 0.54958 0.39659 0.79038 0.0
N411 N 0.69311 0.34456 0.85415 0.0
H412 H 0.70363 0.49221 0.8639 0.0
H413 H 0.73921 0.45276 0.86683 0.0
H414 H 0.69229 0.30541 0.85239 0.0
H415 H 0.71323 0.36665 0.87268 0.0
H416 H 0.51636 0.36559 0.77807 0.0
H417 H 0.54664 0.43358 0.79296 0.0
H418 H 0.54801 0.3183 0.75799 0.0
H419 H 0.57183 0.27063 0.7671 0.0
C420 C 0.82295 0.8301 0.49182 0.0
C421 C 0.8393 0.8866 0.50043 0.0
C422 C 0.92377 0.89498 0.52502 0.0
C423 C 0.90123 0.83537 0.52127 0.0
N424 N 0.84402 0.75139 0.49335 0.0
N425 N 0.91408 0.97802 0.51837 0.0
C426 C 0.85622 0.80507 0.50142 0.0
C427 C 0.8932 0.92103 0.51387 0.0
N428 N 0.7735 0.79962 0.47645 0.0
N429 N 0.97215 0.92637 0.54095 0.0
H430 H 0.8939 1.0005 0.51086 0.0
H431 H 0.8939 1.0005 0.51086 0.0
H432 H 0.99636 0.90909 0.54951 0.0
H433 H 0.98861 0.97001 0.5449 0.0
H434 H 0.75554 0.7563 0.47158 0.0
H435 H 0.74994 0.81847 0.46879 0.0
H436 H 0.81316 0.72687 0.47821 0.0
H437 H 0.86855 0.73334 0.50071 0.0
C438 C 0.8794 0.51532 0.79648 0.0
C439 C 0.89864 0.55801 0.77492 0.0
C440 C 0.99798 0.58403 0.7848 0.0
C441 C 0.979 0.5593 0.81235 0.0
N442 N 0.90364 0.48834 0.84192 0.0
N443 N 0.97008 0.60871 0.73936 0.0
C444 C 0.92013 0.51883 0.81696 0.0
C445 C 0.95604 0.58191 0.76531 0.0
N446 N 0.82254 0.47444 0.79799 0.0
N447 N 1.05559 0.61362 0.77875 0.0
H448 H 0.93813 0.60841 0.72629 0.0
H449 H 1.01139 0.62875 0.73058 0.0
H450 H 1.08612 0.61484 0.79305 0.0
H451 H 1.07296 0.63528 0.75961 0.0
H452 H 0.80587 0.44095 0.81285 0.0
H453 H 0.79341 0.47122 0.78229 0.0
H454 H 0.86077 0.46242 0.84813 0.0
H455 H 0.93412 0.49049 0.85662 0.0
C456 C 0.4182 0.82614 0.13634 0.0
C457 C 0.4196 0.87942 0.13959 0.0
C458 C 0.52012 0.92528 0.15454 0.0
C459 C 0.51323 0.86971 0.15828 0.0
N460 N 0.46667 0.77079 0.14502 0.0
N461 N 0.47393 0.98172 0.14268 0.0
C462 C 0.46606 0.8213 0.14606 0.0
C463 C 0.47218 0.93011 0.14495 0.0
N464 N 0.36928 0.77964 0.12642 0.0
N465 N 0.57139 0.97231 0.16168 0.0
H466 H 0.43834 0.98439 0.13532 0.0
H467 H 0.50992 1.02124 0.14711 0.0
H468 H 0.60694 0.96875 0.16815 0.0
H469 H 0.57983 1.01449 0.16026 0.0
H470 H 0.36299 0.73828 0.12548 0.0
H471 H 0.33464 0.78275 0.11823 0.0
H472 H 0.4355 0.73412 0.13492 0.0
H473 H 0.50116 0.76699 0.15298 0.0
C474 C 0.70378 0.41901 0.5251 0.0
C475 C 0.65456 0.37558 0.53968 0.0
C476 C 0.69008 0.42778 0.58444 0.0
C477 C 0.7365 0.47348 0.56941 0.0
N478 N 0.77662 0.51942 0.52397 0.0
N479 N 0.59313 0.34689 0.58135 0.0
C480 C 0.73998 0.47132 0.53924 0.0
C481 C 0.64512 0.38288 0.56877 0.0
N482 N 0.71828 0.40952 0.49851 0.0
N483 N 0.69026 0.42549 0.61359 0.0
H484 H 0.55879 0.31431 0.57014 0.0
H485 H 0.58235 0.35334 0.60185 0.0
H486 H 0.72391 0.45605 0.62594 0.0
H487 H 0.66001 0.39013 0.62533 0.0
H488 H 0.75729 0.43784 0.48858 0.0
H489 H 0.69459 0.37114 0.48754 0.0
H490 H 0.77669 0.52096 0.50172 0.0
H491 H 0.80227 0.55933 0.5334 0.0
C492 C 0.28469 0.61892 0.80212 0.0
C493 C 0.34473 0.64061 0.80473 0.0
C494 C 0.35989 0.7348 0.81842 0.0
C495 C 0.29942 0.70967 0.82142 0.0
N496 N 0.20331 0.63428 0.81026 0.0
N497 N 0.44109 0.72158 0.80603 0.0
C498 C 0.26145 0.65408 0.81057 0.0
C499 C 0.38302 0.69986 0.80938 0.0
N500 N 0.25054 0.56401 0.79272 0.0
N501 N 0.39449 0.79076 0.82615 0.0
H502 H 0.45873 0.69627 0.79982 0.0
H503 H 0.47158 0.76493 0.80743 0.0
H504 H 0.37742 0.81687 0.83195 0.0
H505 H 0.43931 0.81146 0.82688 0.0
H506 H 0.20597 0.54392 0.79051 0.0
H507 H 0.26792 0.53872 0.78594 0.0
H508 H 0.17226 0.59347 0.80383 0.0
H509 H 0.1857 0.65986 0.816 0.0
C510 C 0.78343 0.20854 0.14294 0.0
C511 C 0.81584 0.25663 0.16054 0.0
C512 C 0.77107 0.19814 0.20321 0.0
C513 C 0.74925 0.1486 0.18596 0.0
N514 N 0.72698 0.10447 0.13968 0.0
N515 N 0.83978 0.29934 0.20744 0.0
C516 C 0.7521 0.15319 0.15577 0.0
C517 C 0.80792 0.25249 0.19065 0.0
N518 N 0.78438 0.21634 0.11406 0.0
N519 N 0.75797 0.19302 0.23169 0.0
H520 H 0.86605 0.34056 0.19933 0.0
H521 H 0.84259 0.2972 0.22953 0.0
H522 H 0.73338 0.15362 0.24199 0.0
H523 H 0.76725 0.22786 0.2447 0.0
H524 H 0.75947 0.18394 0.09972 0.0
H525 H 0.80731 0.2571 0.10469 0.0
H526 H 0.73202 0.10395 0.11768 0.0
H527 H 0.70175 1.0637 0.14869 0.0
C528 C 1.11369 0.67959 0.07319 0.0
C529 C 0.1319 0.64156 0.08401 0.0
C530 C 0.14656 0.61808 0.03547 0.0
C531 C 0.12869 0.65631 0.02468 0.0
N532 N 1.08147 0.71193 0.03228 0.0
N533 N 0.14909 0.56275 0.07607 0.0
C534 C 1.10789 0.68347 0.04328 0.0
C535 C 0.14309 0.60695 0.06531 0.0
N536 N 1.10343 0.71314 0.09143 0.0
N537 N 0.16888 0.59424 0.01737 0.0
H538 H 0.1458 0.55327 0.09784 0.0
H539 H 0.15207 0.53257 0.06339 0.0
H540 H 0.17119 0.60075 0.99531 0.0
H541 H 0.18868 0.57129 0.02434 0.0
H542 H 1.09779 0.74713 0.08473 0.0
H543 H 1.10332 0.70894 0.11354 0.0
H544 H 1.05989 0.72743 0.04471 0.0
H545 H 1.07654 0.71568 0.01041 0.0
C546 C 0.63666 0.96828 0.41958 0.0
C547 C 0.63331 1.01924 0.42214 0.0
C548 C 0.62035 1.02039 0.37051 0.0
C549 C 0.63509 0.97645 0.36767 0.0
N550 N 0.66374 0.91257 0.38957 0.0
N551 N 0.6213 0.09433 0.40063 0.0
C552 C 0.64432 0.95089 0.39222 0.0
C553 C 0.62424 1.04516 0.39778 0.0
N554 N 0.63156 0.93597 0.44326 0.0
N555 N 0.602 1.03771 0.34717 0.0
H556 H 0.62206 0.11215 0.42047 0.0
H557 H 0.62126 0.11904 0.3834 0.0
H558 H 0.59799 1.01969 0.32703 0.0
H559 H 0.58589 1.06594 0.34821 0.0
H560 H 0.62842 0.89571 0.44228 0.0
H561 H 0.62411 0.94645 0.46362 0.0
H562 H 0.67764 0.898 0.40687 0.0
H563 H 0.67083 0.89901 0.36994 0.0
C564 C 0.67022 0.58281 0.73756 0.0
C565 C 0.65946 0.62141 0.75336 0.0
C566 C 0.74598 0.70267 0.7333 0.0
C567 C 0.7565 0.66454 0.71685 0.0
N568 N 0.71608 0.57 0.69593 0.0
N569 N 0.67334 0.7171 0.75638 0.0
C570 C 0.71483 0.60493 0.71671 0.0
C571 C 0.69262 0.68105 0.74792 0.0
N572 N 0.63806 0.52507 0.74256 0.0
N573 N 0.7879 0.75868 0.73652 0.0
H574 H 0.63384 0.70264 0.76664 0.0
H575 H 0.69342 0.76004 0.7499 0.0
H576 H 0.82912 0.77555 0.72773 0.0
H577 H 0.78348 0.78647 0.75042 0.0
H578 H 0.64893 0.49558 0.73442 0.0
H579 H 0.60187 0.50714 0.75588 0.0
H580 H 0.68384 0.52733 0.6936 0.0
H581 H 0.74552 0.5852 0.67905 0.0
C582 C 0.56527 1.03715 0.60417 0.0
C583 C 0.60353 0.08375 0.58621 0.0
C584 C 0.65747 0.13641 0.62911 0.0
C585 C 0.61663 0.09155 0.64697 0.0
N586 N 0.52632 1.00326 0.65174 0.0
N587 N 0.679 0.18309 0.58266 0.0
C588 C 0.56897 1.04313 0.63452 0.0
C589 C 0.64792 0.13481 0.59897 0.0
N590 N 0.52684 0.9859 0.59225 0.0
N591 N 0.7063 0.18015 0.64089 0.0
H592 H 0.6726 0.18479 0.56086 0.0
H593 H 0.70716 0.22321 0.59118 0.0
H594 H 0.71422 0.1835 0.66281 0.0
H595 H 0.741 0.21049 0.62883 0.0
H596 H 0.5026 0.94821 0.60395 0.0
H597 H 0.52287 0.97985 0.57031 0.0
H598 H 0.48719 0.97051 0.64406 0.0
H599 H 0.52791 1.00565 0.67397 0.0
C600 C 0.67045 0.6425 0.93513 0.0
C601 C 0.62904 0.59665 0.91826 0.0
C602 C 0.57089 0.55215 0.96163 0.0
C603 C 0.616 0.59397 0.97883 0.0
N604 N 0.71195 0.67568 0.98205 0.0
N605 N 0.54138 0.50557 0.91541 0.0
C606 C 0.66651 0.63853 0.96557 0.0
C607 C 0.57938 0.55105 0.9315 0.0
N608 N 0.71297 0.69065 0.92198 0.0
N609 N 0.5194 0.51418 0.97409 0.0
H610 H 0.54555 0.50418 0.89332 0.0
H611 H 0.50793 0.46779 0.92404 0.0
H612 H 0.51183 0.51376 0.99597 0.0
H613 H 0.48273 0.48639 0.96259 0.0
H614 H 0.74098 0.72799 0.93285 0.0
H615 H 0.71667 0.69539 0.89982 0.0
H616 H 0.75242 0.70473 0.97376 0.0
H617 H 0.71082 0.67449 0.00432 0.0
C618 C 0.17601 0.6378 0.26799 0.0
C619 C 0.12738 0.59753 0.25213 0.0
C620 C 1.07816 0.54949 0.29707 0.0
C621 C 0.12627 0.59049 0.31298 0.0
N622 N 0.21672 0.67923 0.31421 0.0
N623 N 1.02797 0.52185 0.25161 0.0
C624 C 0.17395 0.63636 0.29856 0.0
C625 C 1.07713 0.55554 0.26673 0.0
N626 N 0.22475 0.6767 0.25375 0.0
N627 N 1.03438 0.50325 0.31086 0.0
H628 H 1.02572 0.52423 0.22946 0.0
H629 H 0.98807 0.49487 0.26104 0.0
H630 H 1.03288 0.49793 0.33298 0.0
H631 H 1.00153 0.46811 0.30038 0.0
H632 H 0.26418 0.70274 0.26362 0.0
H633 H 0.22657 0.68096 0.23157 0.0
H634 H 0.2499 0.7169 0.30535 0.0
H635 H 0.21667 0.67921 0.33649 0.0
loop_
_geom_bond_atom_site_label_1
_geom_bond_atom_site_label_2
_geom_bond_distance
_geom_bond_site_symmetry_2
_ccdc_geom_bond_type
C0 Eu1 2.835 . S
C0 C2 1.500 . S
C0 O20 1.257 . S
C0 O21 1.260 . S
Eu1 C0 2.835 . S
Eu1 O20 2.473 . S
Eu1 O21 2.480 . S
Eu1 O22 2.430 1_655 S
Eu1 O23 2.670 1_655 S
Eu1 O24 2.394 . S
Eu1 O29 2.355 1_655 S
Eu1 O31 2.374 1_655 S
C2 C0 1.500 . S
C2 C3 1.377 . S
C2 C7 1.377 . S
C3 C2 1.377 . S
C3 C4 1.395 . S
C3 H32 0.931 . S
C4 C3 1.395 . S
C4 C5 1.383 . S
C4 H33 0.931 . S
C5 C4 1.383 . S
C5 C6 1.394 . S
C6 C5 1.394 . S
C6 C7 1.378 . S
C6 H34 0.931 . S
C7 C2 1.377 . S
C7 C6 1.378 . S
C7 H35 0.931 . S
C8 O22 1.259 . S
C8 O23 1.270 . S
C9 O24 1.251 . S
C9 O25 1.251 . S
C10 Eu11 2.835 . S
C10 C12 1.500 . S
C10 O26 1.257 . S
C10 O27 1.260 . S
Eu11 C10 2.835 . S
Eu11 O23 2.355 . S
Eu11 O25 2.374 1_455 S
Eu11 O26 2.473 . S
Eu11 O27 2.480 . S
Eu11 O28 2.430 . S
Eu11 O29 2.670 . S
Eu11 O30 2.394 . S
C12 C10 1.500 . S
C12 C13 1.377 . S
C12 C17 1.377 . S
C13 C12 1.377 . S
C13 C14 1.395 . S
C13 H36 0.931 . S
C14 C13 1.395 . S
C14 C15 1.383 . S
C14 H37 0.931 . S
C15 C14 1.383 . S
C15 C16 1.394 . S
C16 C15 1.394 . S
C16 C17 1.378 . S
C16 H38 0.931 . S
C17 C12 1.377 . S
C17 C16 1.378 . S
C17 H39 0.931 . S
C18 O28 1.259 . S
C18 O29 1.270 . S
C19 O30 1.251 . S
C19 O31 1.251 . S
O20 C0 1.257 . S
O20 Eu1 2.473 . S
O21 C0 1.260 . S
O21 Eu1 2.480 . S
O22 Eu1 2.430 1_455 S
O22 C8 1.259 . S
O23 Eu1 2.670 1_455 S
O23 C8 1.270 . S
O23 Eu11 2.355 . S
O24 Eu1 2.394 . S
O24 C9 1.251 . S
O25 C9 1.251 . S
O25 Eu11 2.374 1_655 S
O26 C10 1.257 . S
O26 Eu11 2.473 . S
O27 C10 1.260 . S
O27 Eu11 2.480 . S
O28 Eu11 2.430 . S
O28 C18 1.259 . S
O29 Eu1 2.355 1_455 S
O29 Eu11 2.670 . S
O29 C18 1.270 . S
O30 Eu11 2.394 . S
O30 C19 1.251 . S
O31 Eu1 2.374 1_455 S
O31 C19 1.251 . S
H32 C3 0.931 . S
H33 C4 0.931 . S
H34 C6 0.931 . S
H35 C7 0.931 . S
H36 C13 0.931 . S
H37 C14 0.931 . S
H38 C16 0.931 . S
H39 C17 0.931 . S
C40 Eu41 2.835 . S
C40 C42 1.500 . S
C40 O60 1.257 . S
C40 O61 1.260 . S
Eu41 C40 2.835 . S
Eu41 O60 2.473 . S
Eu41 O61 2.480 . S
Eu41 O62 2.430 . S
Eu41 O63 2.670 . S
Eu41 O64 2.394 . S
Eu41 O69 2.355 . S
Eu41 O71 2.374 1_545 S
C42 C40 1.500 . S
C42 C43 1.377 . S
C42 C47 1.377 . S
C43 C42 1.377 . S
C43 C44 1.395 . S
C43 H72 0.931 . S
C44 C43 1.395 . S
C44 C45 1.383 . S
C44 H73 0.931 . S
C45 C44 1.383 . S
C45 C46 1.394 . S
C46 C45 1.394 . S
C46 C47 1.378 . S
C46 H74 0.931 . S
C47 C42 1.377 . S
C47 C46 1.378 . S
C47 H75 0.931 . S
C48 O62 1.259 . S
C48 O63 1.270 . S
C49 O64 1.251 . S
C49 O65 1.251 . S
C50 Eu51 2.835 . S
C50 C52 1.500 . S
C50 O66 1.257 . S
C50 O67 1.260 . S
Eu51 C50 2.835 . S
Eu51 O63 2.355 1_565 S
Eu51 O65 2.374 1_565 S
Eu51 O66 2.473 . S
Eu51 O67 2.480 . S
Eu51 O68 2.430 1_565 S
Eu51 O69 2.670 1_565 S
Eu51 O70 2.394 . S
C52 C50 1.500 . S
C52 C53 1.377 . S
C52 C57 1.377 . S
C53 C52 1.377 . S
C53 C54 1.395 . S
C53 H76 0.931 . S
C54 C53 1.395 . S
C54 C55 1.383 . S
C54 H77 0.931 . S
C55 C54 1.383 . S
C55 C56 1.394 . S
C56 C55 1.394 . S
C56 C57 1.378 . S
C56 H78 0.931 . S
C57 C52 1.377 . S
C57 C56 1.378 . S
C57 H79 0.931 . S
C58 O68 1.259 . S
C58 O69 1.270 . S
C59 O70 1.251 . S
C59 O71 1.251 . S
O60 C40 1.257 . S
O60 Eu41 2.473 . S
O61 C40 1.260 . S
O61 Eu41 2.480 . S
O62 Eu41 2.430 . S
O62 C48 1.259 . S
O63 Eu41 2.670 . S
O63 C48 1.270 . S
O63 Eu51 2.355 1_545 S
O64 Eu41 2.394 . S
O64 C49 1.251 . S
O65 C49 1.251 . S
O65 Eu51 2.374 1_545 S
O66 C50 1.257 . S
O66 Eu51 2.473 . S
O67 C50 1.260 . S
O67 Eu51 2.480 . S
O68 Eu51 2.430 1_545 S
O68 C58 1.259 . S
O69 Eu41 2.355 . S
O69 Eu51 2.670 1_545 S
O69 C58 1.270 . S
O70 Eu51 2.394 . S
O70 C59 1.251 . S
O71 Eu41 2.374 1_565 S
O71 C59 1.251 . S
H72 C43 0.931 . S
H73 C44 0.931 . S
H74 C46 0.931 . S
H75 C47 0.931 . S
H76 C53 0.931 . S
H77 C54 0.931 . S
H78 C56 0.931 . S
H79 C57 0.931 . S
C80 Eu81 2.835 . S
C80 C82 1.500 . S
C80 O100 1.257 . S
C80 O101 1.260 . S
Eu81 C80 2.835 . S
Eu81 O100 2.473 . S
Eu81 O101 2.480 . S
Eu81 O102 2.430 . S
Eu81 O103 2.670 . S
Eu81 O104 2.394 . S
Eu81 O109 2.355 . S
Eu81 O111 2.374 . S
C82 C80 1.500 . S
C82 C83 1.377 . S
C82 C87 1.377 . S
C83 C82 1.377 . S
C83 C84 1.395 . S
C83 H112 0.931 . S
C84 C83 1.395 . S
C84 C85 1.383 . S
C84 H113 0.931 . S
C85 C84 1.383 . S
C85 C86 1.394 . S
C86 C85 1.394 . S
C86 C87 1.378 . S
C86 H114 0.931 . S
C87 C82 1.377 . S
C87 C86 1.378 . S
C87 H115 0.931 . S
C88 O102 1.259 . S
C88 O103 1.270 . S
C89 O104 1.251 . S
C89 O105 1.251 . S
C90 Eu91 2.835 . S
C90 C92 1.500 . S
C90 O106 1.257 . S
C90 O107 1.260 . S
Eu91 C90 2.835 . S
Eu91 O103 2.355 . S
Eu91 O105 2.374 . S
Eu91 O106 2.473 . S
Eu91 O107 2.480 . S
Eu91 O108 2.430 . S
Eu91 O109 2.670 . S
Eu91 O110 2.394 . S
C92 C90 1.500 . S
C92 C93 1.377 . S
C92 C97 1.377 . S
C93 C92 1.377 . S
C93 C94 1.395 . S
C93 H116 0.931 . S
C94 C93 1.395 . S
C94 C95 1.383 . S
C94 H117 0.931 . S
C95 C94 1.383 . S
C95 C96 1.394 . S
C96 C95 1.394 . S
C96 C97 1.378 . S
C96 H118 0.931 . S
C97 C92 1.377 . S
C97 C96 1.378 . S
C97 H119 0.931 . S
C98 O108 1.259 . S
C98 O109 1.270 . S
C99 O110 1.251 . S
C99 O111 1.251 . S
O100 C80 1.257 . S
O100 Eu81 2.473 . S
O101 C80 1.260 . S
O101 Eu81 2.480 . S
O102 Eu81 2.430 . S
O102 C88 1.259 . S
O103 Eu81 2.670 . S
O103 C88 1.270 . S
O103 Eu91 2.355 . S
O104 Eu81 2.394 . S
O104 C89 1.251 . S
O105 C89 1.251 . S
O105 Eu91 2.374 . S
O106 C90 1.257 . S
O106 Eu91 2.473 . S
O107 C90 1.260 . S
O107 Eu91 2.480 . S
O108 Eu91 2.430 . S
O108 C98 1.259 . S
O109 Eu81 2.355 . S
O109 Eu91 2.670 . S
O109 C98 1.270 . S
O110 Eu91 2.394 . S
O110 C99 1.251 . S
O111 Eu81 2.374 . S
O111 C99 1.251 . S
H112 C83 0.931 . S
H113 C84 0.931 . S
H114 C86 0.931 . S
H115 C87 0.931 . S
H116 C93 0.931 . S
H117 C94 0.931 . S
H118 C96 0.931 . S
H119 C97 0.931 . S
P120 O131 1.490 1_545 S
P120 C134 1.812 1_545 S
P120 C140 1.803 . S
P120 C146 1.819 . S
H121 C135 0.941 . S
H122 C136 0.939 . S
H123 C138 0.940 . S
H124 C139 0.940 1_545 S
H125 C141 0.939 . S
H126 C142 0.942 . S
H127 C144 0.940 . S
H128 C145 0.939 . S
H129 C147 0.941 . S
H130 C151 0.939 . S
O131 P120 1.490 1_565 S
H132 C148 0.939 . S
H133 C150 0.940 . S
C134 P120 1.812 1_565 S
C134 C135 1.389 . S
C134 C139 1.391 . S
C135 H121 0.941 . S
C135 C134 1.389 . S
C135 C136 1.397 . S
C136 H122 0.939 . S
C136 C135 1.397 . S
C136 C137 1.378 . S
C137 C136 1.378 . S
C137 C138 1.378 . S
C138 H123 0.940 . S
C138 C137 1.378 . S
C138 C139 1.396 . S
C139 H124 0.940 1_565 S
C139 C134 1.391 . S
C139 C138 1.396 . S
C140 P120 1.803 . S
C140 C141 1.378 . S
C140 C145 1.400 . S
C141 H125 0.939 . S
C141 C140 1.378 . S
C141 C142 1.361 . S
C142 H126 0.942 . S
C142 C141 1.361 . S
C142 C143 1.369 . S
C143 C142 1.369 . S
C143 C144 1.404 . S
C144 H127 0.940 . S
C144 C143 1.404 . S
C144 C145 1.389 . S
C145 H128 0.939 . S
C145 C140 1.400 . S
C145 C144 1.389 . S
C146 P120 1.819 . S
C146 C147 1.391 1_545 S
C146 C151 1.391 . S
C147 H129 0.941 . S
C147 C146 1.391 1_565 S
C147 C148 1.396 . S
C148 H132 0.939 . S
C148 C147 1.396 . S
C148 C149 1.397 1_565 S
C149 C148 1.397 1_545 S
C149 C150 1.385 . S
C150 H133 0.940 . S
C150 C149 1.385 . S
C150 C151 1.388 . S
C151 H130 0.939 . S
C151 C146 1.391 . S
C151 C150 1.388 . S
P152 O163 1.490 . S
P152 C166 1.812 . S
P152 C172 1.803 . S
P152 C178 1.819 . S
H153 C167 0.941 . S
H154 C168 0.939 . S
H155 C170 0.940 . S
H156 C171 0.940 . S
H157 C173 0.939 . S
H158 C174 0.942 . S
H159 C176 0.940 . S
H160 C177 0.939 . S
H161 C179 0.941 . S
H162 C183 0.939 . S
O163 P152 1.490 . S
H164 C180 0.939 . S
H165 C182 0.940 . S
C166 P152 1.812 . S
C166 C167 1.389 . S
C166 C171 1.391 . S
C167 H153 0.941 . S
C167 C166 1.389 . S
C167 C168 1.397 . S
C168 H154 0.939 . S
C168 C167 1.397 . S
C168 C169 1.378 . S
C169 C168 1.378 . S
C169 C170 1.378 . S
C170 H155 0.940 . S
C170 C169 1.378 . S
C170 C171 1.396 . S
C171 H156 0.940 . S
C171 C166 1.391 . S
C171 C170 1.396 . S
C172 P152 1.803 . S
C172 C173 1.378 . S
C172 C177 1.400 . S
C173 H157 0.939 . S
C173 C172 1.378 . S
C173 C174 1.361 . S
C174 H158 0.942 . S
C174 C173 1.361 . S
C174 C175 1.369 . S
C175 C174 1.369 . S
C175 C176 1.404 . S
C176 H159 0.940 . S
C176 C175 1.404 . S
C176 C177 1.389 . S
C177 H160 0.939 . S
C177 C172 1.400 . S
C177 C176 1.389 . S
C178 P152 1.819 . S
C178 C179 1.391 . S
C178 C183 1.391 . S
C179 H161 0.941 . S
C179 C178 1.391 . S
C179 C180 1.396 . S
C180 H164 0.939 . S
C180 C179 1.396 . S
C180 C181 1.397 . S
C181 C180 1.397 . S
C181 C182 1.385 . S
C182 H165 0.940 . S
C182 C181 1.385 . S
C182 C183 1.388 . S
C183 H162 0.939 . S
C183 C178 1.391 . S
C183 C182 1.388 . S
P184 O195 1.490 . S
P184 C198 1.812 . S
P184 C204 1.803 1_455 S
P184 C210 1.819 . S
H185 C199 0.941 . S
H186 C200 0.939 . S
H187 C202 0.940 . S
H188 C203 0.940 . S
H189 C205 0.939 . S
H190 C206 0.942 . S
H191 C208 0.940 . S
H192 C209 0.939 . S
H193 C211 0.941 . S
H194 C215 0.939 . S
O195 P184 1.490 . S
H196 C212 0.939 1_554 S
H197 C214 0.940 . S
C198 P184 1.812 . S
C198 C199 1.389 . S
C198 C203 1.391 . S
C199 H185 0.941 . S
C199 C198 1.389 . S
C199 C200 1.397 . S
C200 H186 0.939 . S
C200 C199 1.397 . S
C200 C201 1.378 . S
C201 C200 1.378 . S
C201 C202 1.378 . S
C202 H187 0.940 . S
C202 C201 1.378 . S
C202 C203 1.396 . S
C203 H188 0.940 . S
C203 C198 1.391 . S
C203 C202 1.396 . S
C204 P184 1.803 1_655 S
C204 C205 1.378 . S
C204 C209 1.400 . S
C205 H189 0.939 . S
C205 C204 1.378 . S
C205 C206 1.361 . S
C206 H190 0.942 . S
C206 C205 1.361 . S
C206 C207 1.369 . S
C207 C206 1.369 . S
C207 C208 1.404 . S
C208 H191 0.940 . S
C208 C207 1.404 . S
C208 C209 1.389 . S
C209 H192 0.939 . S
C209 C204 1.400 . S
C209 C208 1.389 . S
C210 P184 1.819 . S
C210 C211 1.391 . S
C210 C215 1.391 1_455 S
C211 H193 0.941 . S
C211 C210 1.391 . S
C211 C212 1.396 . S
C212 H196 0.939 1_556 S
C212 C211 1.396 . S
C212 C213 1.397 1_556 S
C213 C212 1.397 1_554 S
C213 C214 1.385 1_454 S
C214 H197 0.940 . S
C214 C213 1.385 1_656 S
C214 C215 1.388 . S
C215 H194 0.939 . S
C215 C210 1.391 1_655 S
C215 C214 1.388 . S
P216 O227 1.490 . S
P216 C230 1.812 . S
P216 C236 1.803 . S
P216 C242 1.819 . S
H217 C231 0.941 . S
H218 C232 0.939 . S
H219 C234 0.940 . S
H220 C235 0.940 . S
H221 C237 0.939 1_455 S
H222 C238 0.942 . S
H223 C240 0.940 . S
H224 C241 0.939 1_455 S
H225 C243 0.941 . S
H226 C247 0.939 1_655 S
O227 P216 1.490 . S
H228 C244 0.939 . S
H229 C246 0.940 1_655 S
C230 P216 1.812 . S
C230 C231 1.389 . S
C230 C235 1.391 . S
C231 H217 0.941 . S
C231 C230 1.389 . S
C231 C232 1.397 . S
C232 H218 0.939 . S
C232 C231 1.397 . S
C232 C233 1.378 . S
C233 C232 1.378 . S
C233 C234 1.378 . S
C234 H219 0.940 . S
C234 C233 1.378 . S
C234 C235 1.396 . S
C235 H220 0.940 . S
C235 C230 1.391 . S
C235 C234 1.396 . S
C236 P216 1.803 . S
C236 C237 1.378 1_455 S
C236 C241 1.400 1_455 S
C237 H221 0.939 1_655 S
C237 C236 1.378 1_655 S
C237 C238 1.361 . S
C238 H222 0.942 . S
C238 C237 1.361 . S
C238 C239 1.369 . S
C239 C238 1.369 . S
C239 C240 1.404 . S
C240 H223 0.940 . S
C240 C239 1.404 . S
C240 C241 1.389 . S
C241 H224 0.939 1_655 S
C241 C236 1.400 1_655 S
C241 C240 1.389 . S
C242 P216 1.819 . S
C242 C243 1.391 . S
C242 C247 1.391 . S
C243 H225 0.941 . S
C243 C242 1.391 . S
C243 C244 1.396 . S
C244 H228 0.939 . S
C244 C243 1.396 . S
C244 C245 1.397 . S
C245 C244 1.397 . S
C245 C246 1.385 . S
C246 H229 0.940 1_455 S
C246 C245 1.385 . S
C246 C247 1.388 . S
C247 H226 0.939 1_455 S
C247 C242 1.391 . S
C247 C246 1.388 . S
P248 O259 1.490 . S
P248 C262 1.812 . S
P248 C268 1.803 1_545 S
P248 C274 1.819 . S
H249 C263 0.941 . S
H250 C264 0.939 . S
H251 C266 0.940 . S
H252 C267 0.940 . S
H253 C269 0.939 . S
H254 C270 0.942 . S
H255 C272 0.940 . S
H256 C273 0.939 . S
H257 C275 0.941 . S
H258 C279 0.939 . S
O259 P248 1.490 . S
H260 C276 0.939 . S
H261 C278 0.940 . S
C262 P248 1.812 . S
C262 C263 1.389 . S
C262 C267 1.391 . S
C263 H249 0.941 . S
C263 C262 1.389 . S
C263 C264 1.397 . S
C264 H250 0.939 . S
C264 C263 1.397 . S
C264 C265 1.378 . S
C265 C264 1.378 . S
C265 C266 1.378 . S
C266 H251 0.940 . S
C266 C265 1.378 . S
C266 C267 1.396 . S
C267 H252 0.940 . S
C267 C262 1.391 . S
C267 C266 1.396 . S
C268 P248 1.803 1_565 S
C268 C269 1.378 . S
C268 C273 1.400 . S
C269 H253 0.939 . S
C269 C268 1.378 . S
C269 C270 1.361 . S
C270 H254 0.942 . S
C270 C269 1.361 . S
C270 C271 1.369 . S
C271 C270 1.369 . S
C271 C272 1.404 . S
C272 H255 0.940 . S
C272 C271 1.404 . S
C272 C273 1.389 . S
C273 H256 0.939 . S
C273 C268 1.400 . S
C273 C272 1.389 . S
C274 P248 1.819 . S
C274 C275 1.391 . S
C274 C279 1.391 1_545 S
C275 H257 0.941 . S
C275 C274 1.391 . S
C275 C276 1.396 . S
C276 H260 0.939 . S
C276 C275 1.396 . S
C276 C277 1.397 . S
C277 C276 1.397 . S
C277 C278 1.385 1_545 S
C278 H261 0.940 . S
C278 C277 1.385 1_565 S
C278 C279 1.388 . S
C279 H258 0.939 . S
C279 C274 1.391 1_565 S
C279 C278 1.388 . S
P280 O291 1.490 . S
P280 C294 1.812 . S
P280 C300 1.803 . S
P280 C306 1.819 . S
H281 C295 0.941 . S
H282 C296 0.939 . S
H283 C298 0.940 . S
H284 C299 0.940 . S
H285 C301 0.939 . S
H286 C302 0.942 . S
H287 C304 0.940 . S
H288 C305 0.939 . S
H289 C307 0.941 . S
H290 C311 0.939 . S
O291 P280 1.490 . S
H292 C308 0.939 . S
H293 C310 0.940 . S
C294 P280 1.812 . S
C294 C295 1.389 . S
C294 C299 1.391 . S
C295 H281 0.941 . S
C295 C294 1.389 . S
C295 C296 1.397 . S
C296 H282 0.939 . S
C296 C295 1.397 . S
C296 C297 1.378 . S
C297 C296 1.378 . S
C297 C298 1.378 . S
C298 H283 0.940 . S
C298 C297 1.378 . S
C298 C299 1.396 . S
C299 H284 0.940 . S
C299 C294 1.391 . S
C299 C298 1.396 . S
C300 P280 1.803 . S
C300 C301 1.378 . S
C300 C305 1.400 . S
C301 H285 0.939 . S
C301 C300 1.378 . S
C301 C302 1.361 . S
C302 H286 0.942 . S
C302 C301 1.361 . S
C302 C303 1.369 . S
C303 C302 1.369 . S
C303 C304 1.404 . S
C304 H287 0.940 . S
C304 C303 1.404 . S
C304 C305 1.389 . S
C305 H288 0.939 . S
C305 C300 1.400 . S
C305 C304 1.389 . S
C306 P280 1.819 . S
C306 C307 1.391 . S
C306 C311 1.391 . S
C307 H289 0.941 . S
C307 C306 1.391 . S
C307 C308 1.396 . S
C308 H292 0.939 . S
C308 C307 1.396 . S
C308 C309 1.397 . S
C309 C308 1.397 . S
C309 C310 1.385 . S
C310 H293 0.940 . S
C310 C309 1.385 . S
C310 C311 1.388 . S
C311 H290 0.939 . S
C311 C306 1.391 . S
C311 C310 1.388 . S
C312 C313 1.363 . S
C312 C318 1.379 . S
C312 N320 1.356 . S
C313 C312 1.363 . S
C313 C319 1.363 . S
C314 C315 1.363 . S
C314 C319 1.379 . S
C314 N321 1.356 . S
C315 C314 1.363 . S
C315 C318 1.363 . S
N316 C318 1.356 . S
N316 H328 0.984 . S
N316 H329 0.985 . S
N317 C319 1.356 . S
N317 H322 0.984 . S
N317 H323 0.985 . S
C318 C312 1.379 . S
C318 C315 1.363 . S
C318 N316 1.356 . S
C319 C313 1.363 . S
C319 C314 1.379 . S
C319 N317 1.356 . S
N320 C312 1.356 . S
N320 H326 0.984 . S
N320 H327 0.984 . S
N321 C314 1.356 . S
N321 H324 0.984 . S
N321 H325 0.985 . S
H322 N317 0.984 . S
H323 N317 0.985 . S
H324 N321 0.984 . S
H325 N321 0.985 . S
H326 N320 0.984 . S
H327 N320 0.984 . S
H328 N316 0.984 . S
H329 N316 0.985 . S
C330 C331 1.363 . S
C330 C336 1.379 . S
C330 N338 1.356 . S
C331 C330 1.363 . S
C331 C337 1.363 . S
C332 C333 1.363 . S
C332 C337 1.379 . S
C332 N339 1.356 . S
C333 C332 1.363 . S
C333 C336 1.363 . S
N334 C336 1.356 . S
N334 H346 0.984 . S
N334 H347 0.985 . S
N335 C337 1.356 . S
N335 H340 0.984 . S
N335 H341 0.985 . S
C336 C330 1.379 . S
C336 C333 1.363 . S
C336 N334 1.356 . S
C337 C331 1.363 . S
C337 C332 1.379 . S
C337 N335 1.356 . S
N338 C330 1.356 . S
N338 H344 0.984 . S
N338 H345 0.984 . S
N339 C332 1.356 . S
N339 H342 0.984 . S
N339 H343 0.985 . S
H340 N335 0.984 . S
H341 N335 0.985 . S
H342 N339 0.984 . S
H343 N339 0.985 . S
H344 N338 0.984 . S
H345 N338 0.984 . S
H346 N334 0.984 . S
H347 N334 0.985 . S
C348 C349 1.363 . S
C348 C354 1.379 . S
C348 N356 1.356 . S
C349 C348 1.363 . S
C349 C355 1.363 . S
C350 C351 1.363 . S
C350 C355 1.379 . S
C350 N357 1.356 . S
C351 C350 1.363 . S
C351 C354 1.363 . S
N352 C354 1.356 . S
N352 H364 0.984 . S
N352 H365 0.985 . S
N353 C355 1.356 . S
N353 H358 0.984 . S
N353 H359 0.985 . S
C354 C348 1.379 . S
C354 C351 1.363 . S
C354 N352 1.356 . S
C355 C349 1.363 . S
C355 C350 1.379 . S
C355 N353 1.356 . S
N356 C348 1.356 . S
N356 H362 0.984 . S
N356 H363 0.984 . S
N357 C350 1.356 . S
N357 H360 0.984 . S
N357 H361 0.985 . S
H358 N353 0.984 . S
H359 N353 0.985 . S
H360 N357 0.984 . S
H361 N357 0.985 . S
H362 N356 0.984 . S
H363 N356 0.984 . S
H364 N352 0.984 . S
H365 N352 0.985 . S
C366 C367 1.363 . S
C366 C372 1.379 . S
C366 N374 1.356 . S
C367 C366 1.363 . S
C367 C373 1.363 . S
C368 C369 1.363 . S
C368 C373 1.379 . S
C368 N375 1.356 . S
C369 C368 1.363 . S
C369 C372 1.363 . S
N370 C372 1.356 . S
N370 H382 0.984 . S
N370 H383 0.985 . S
N371 C373 1.356 . S
N371 H376 0.984 . S
N371 H377 0.985 . S
C372 C366 1.379 . S
C372 C369 1.363 . S
C372 N370 1.356 . S
C373 C367 1.363 . S
C373 C368 1.379 . S
C373 N371 1.356 . S
N374 C366 1.356 . S
N374 H380 0.984 . S
N374 H381 0.984 . S
N375 C368 1.356 . S
N375 H378 0.984 . S
N375 H379 0.985 . S
H376 N371 0.984 . S
H377 N371 0.985 . S
H378 N375 0.984 . S
H379 N375 0.985 . S
H380 N374 0.984 . S
H381 N374 0.984 . S
H382 N370 0.984 . S
H383 N370 0.985 . S
C384 C385 1.363 . S
C384 C390 1.379 . S
C384 N392 1.356 . S
C385 C384 1.363 . S
C385 C391 1.363 . S
C386 C387 1.363 . S
C386 C391 1.379 . S
C386 N393 1.356 . S
C387 C386 1.363 . S
C387 C390 1.363 . S
N388 C390 1.356 . S
N388 H400 0.984 . S
N388 H401 0.985 . S
N389 C391 1.356 . S
N389 H394 0.984 . S
N389 H395 0.985 . S
C390 C384 1.379 . S
C390 C387 1.363 . S
C390 N388 1.356 . S
C391 C385 1.363 . S
C391 C386 1.379 . S
C391 N389 1.356 . S
N392 C384 1.356 . S
N392 H398 0.984 . S
N392 H399 0.984 . S
N393 C386 1.356 . S
N393 H396 0.984 . S
N393 H397 0.985 . S
H394 N389 0.984 . S
H395 N389 0.985 . S
H396 N393 0.984 . S
H397 N393 0.985 . S
H398 N392 0.984 . S
H399 N392 0.984 . S
H400 N388 0.984 . S
H401 N388 0.985 . S
C402 C403 1.363 . S
C402 C408 1.379 . S
C402 N410 1.356 . S
C403 C402 1.363 . S
C403 C409 1.363 . S
C404 C405 1.363 . S
C404 C409 1.379 . S
C404 N411 1.356 . S
C405 C404 1.363 . S
C405 C408 1.363 . S
N406 C408 1.356 . S
N406 H418 0.984 . S
N406 H419 0.985 . S
N407 C409 1.356 . S
N407 H412 0.984 . S
N407 H413 0.985 . S
C408 C402 1.379 . S
C408 C405 1.363 . S
C408 N406 1.356 . S
C409 C403 1.363 . S
C409 C404 1.379 . S
C409 N407 1.356 . S
N410 C402 1.356 . S
N410 H416 0.984 . S
N410 H417 0.984 . S
N411 C404 1.356 . S
N411 H414 0.984 . S
N411 H415 0.985 . S
H412 N407 0.984 . S
H413 N407 0.985 . S
H414 N411 0.984 . S
H415 N411 0.985 . S
H416 N410 0.984 . S
H417 N410 0.984 . S
H418 N406 0.984 . S
H419 N406 0.985 . S
C420 C421 1.363 . S
C420 C426 1.379 . S
C420 N428 1.356 . S
C421 C420 1.363 . S
C421 C427 1.363 . S
C422 C423 1.363 . S
C422 C427 1.379 . S
C422 N429 1.356 . S
C423 C422 1.363 . S
C423 C426 1.363 . S
N424 C426 1.356 . S
N424 H436 0.984 . S
N424 H437 0.985 . S
N425 C427 1.356 . S
N425 H430 0.984 . S
N425 H431 0.985 . S
C426 C420 1.379 . S
C426 C423 1.363 . S
C426 N424 1.356 . S
C427 C421 1.363 . S
C427 C422 1.379 . S
C427 N425 1.356 . S
N428 C420 1.356 . S
N428 H434 0.984 . S
N428 H435 0.984 . S
N429 C422 1.356 . S
N429 H432 0.984 . S
N429 H433 0.985 . S
H430 N425 0.984 . S
H431 N425 0.985 . S
H432 N429 0.984 . S
H433 N429 0.985 . S
H434 N428 0.984 . S
H435 N428 0.984 . S
H436 N424 0.984 . S
H437 N424 0.985 . S
C438 C439 1.363 . S
C438 C444 1.379 . S
C438 N446 1.356 . S
C439 C438 1.363 . S
C439 C445 1.363 . S
C440 C441 1.363 . S
C440 C445 1.379 . S
C440 N447 1.356 . S
C441 C440 1.363 . S
C441 C444 1.363 . S
N442 C444 1.356 . S
N442 H454 0.984 . S
N442 H455 0.985 . S
N443 C445 1.356 . S
N443 H448 0.984 . S
N443 H449 0.985 . S
C444 C438 1.379 . S
C444 C441 1.363 . S
C444 N442 1.356 . S
C445 C439 1.363 . S
C445 C440 1.379 . S
C445 N443 1.356 . S
N446 C438 1.356 . S
N446 H452 0.984 . S
N446 H453 0.984 . S
N447 C440 1.356 . S
N447 H450 0.984 . S
N447 H451 0.985 . S
H448 N443 0.984 . S
H449 N443 0.985 . S
H450 N447 0.984 . S
H451 N447 0.985 . S
H452 N446 0.984 . S
H453 N446 0.984 . S
H454 N442 0.984 . S
H455 N442 0.985 . S
C456 C457 1.363 . S
C456 C462 1.379 . S
C456 N464 1.356 . S
C457 C456 1.363 . S
C457 C463 1.363 . S
C458 C459 1.363 . S
C458 C463 1.379 . S
C458 N465 1.356 . S
C459 C458 1.363 . S
C459 C462 1.363 . S
N460 C462 1.356 . S
N460 H472 0.984 . S
N460 H473 0.985 . S
N461 C463 1.356 . S
N461 H466 0.984 . S
N461 H467 0.985 . S
C462 C456 1.379 . S
C462 C459 1.363 . S
C462 N460 1.356 . S
C463 C457 1.363 . S
C463 C458 1.379 . S
C463 N461 1.356 . S
N464 C456 1.356 . S
N464 H470 0.984 . S
N464 H471 0.984 . S
N465 C458 1.356 . S
N465 H468 0.984 . S
N465 H469 0.985 . S
H466 N461 0.984 . S
H467 N461 0.985 . S
H468 N465 0.984 . S
H469 N465 0.985 . S
H470 N464 0.984 . S
H471 N464 0.984 . S
H472 N460 0.984 . S
H473 N460 0.985 . S
C474 C475 1.363 . S
C474 C480 1.379 . S
C474 N482 1.356 . S
C475 C474 1.363 . S
C475 C481 1.363 . S
C476 C477 1.363 . S
C476 C481 1.379 . S
C476 N483 1.356 . S
C477 C476 1.363 . S
C477 C480 1.363 . S
N478 C480 1.356 . S
N478 H490 0.984 . S
N478 H491 0.985 . S
N479 C481 1.356 . S
N479 H484 0.984 . S
N479 H485 0.985 . S
C480 C474 1.379 . S
C480 C477 1.363 . S
C480 N478 1.356 . S
C481 C475 1.363 . S
C481 C476 1.379 . S
C481 N479 1.356 . S
N482 C474 1.356 . S
N482 H488 0.984 . S
N482 H489 0.984 . S
N483 C476 1.356 . S
N483 H486 0.984 . S
N483 H487 0.985 . S
H484 N479 0.984 . S
H485 N479 0.985 . S
H486 N483 0.984 . S
H487 N483 0.985 . S
H488 N482 0.984 . S
H489 N482 0.984 . S
H490 N478 0.984 . S
H491 N478 0.985 . S
C492 C493 1.363 . S
C492 C498 1.379 . S
C492 N500 1.356 . S
C493 C492 1.363 . S
C493 C499 1.363 . S
C494 C495 1.363 . S
C494 C499 1.379 . S
C494 N501 1.356 . S
C495 C494 1.363 . S
C495 C498 1.363 . S
N496 C498 1.356 . S
N496 H508 0.984 . S
N496 H509 0.985 . S
N497 C499 1.356 . S
N497 H502 0.984 . S
N497 H503 0.985 . S
C498 C492 1.379 . S
C498 C495 1.363 . S
C498 N496 1.356 . S
C499 C493 1.363 . S
C499 C494 1.379 . S
C499 N497 1.356 . S
N500 C492 1.356 . S
N500 H506 0.984 . S
N500 H507 0.984 . S
N501 C494 1.356 . S
N501 H504 0.984 . S
N501 H505 0.985 . S
H502 N497 0.984 . S
H503 N497 0.985 . S
H504 N501 0.984 . S
H505 N501 0.985 . S
H506 N500 0.984 . S
H507 N500 0.984 . S
H508 N496 0.984 . S
H509 N496 0.985 . S
C510 C511 1.363 . S
C510 C516 1.379 . S
C510 N518 1.356 . S
C511 C510 1.363 . S
C511 C517 1.363 . S
C512 C513 1.363 . S
C512 C517 1.379 . S
C512 N519 1.356 . S
C513 C512 1.363 . S
C513 C516 1.363 . S
N514 C516 1.356 . S
N514 H526 0.984 . S
N514 H527 0.985 . S
N515 C517 1.356 . S
N515 H520 0.984 . S
N515 H521 0.985 . S
C516 C510 1.379 . S
C516 C513 1.363 . S
C516 N514 1.356 . S
C517 C511 1.363 . S
C517 C512 1.379 . S
C517 N515 1.356 . S
N518 C510 1.356 . S
N518 H524 0.984 . S
N518 H525 0.984 . S
N519 C512 1.356 . S
N519 H522 0.984 . S
N519 H523 0.985 . S
H520 N515 0.984 . S
H521 N515 0.985 . S
H522 N519 0.984 . S
H523 N519 0.985 . S
H524 N518 0.984 . S
H525 N518 0.984 . S
H526 N514 0.984 . S
H527 N514 0.985 . S
C528 C529 1.363 . S
C528 C534 1.377 . S
C528 N536 1.356 1_455 S
C529 C528 1.363 . S
C529 C535 1.363 . S
C530 C531 1.363 . S
C530 C535 1.379 . S
C530 N537 1.356 . S
C531 C530 1.363 . S
C531 C534 1.376 . S
N532 C534 1.348 1_655 S
N532 H544 0.984 . S
N532 H545 0.985 1_554 S
N533 C535 1.356 . S
N533 H538 0.984 . S
N533 H539 0.985 . S
C534 C528 1.377 . S
C534 C531 1.376 . S
C534 N532 1.348 1_455 S
C535 C529 1.363 . S
C535 C530 1.379 . S
C535 N533 1.356 . S
N536 C528 1.356 1_655 S
N536 H542 0.984 . S
N536 H543 0.984 1_655 S
N537 C530 1.356 . S
N537 H540 0.984 . S
N537 H541 0.985 . S
H538 N533 0.984 . S
H539 N533 0.985 . S
H540 N537 0.984 . S
H541 N537 0.985 . S
H542 N536 0.984 . S
H543 N536 0.984 1_455 S
H544 N532 0.984 . S
H545 N532 0.985 1_556 S
C546 C547 1.363 . S
C546 C552 1.379 . S
C546 N554 1.356 1_545 S
C547 C546 1.363 . S
C547 C553 1.363 . S
C548 C549 1.363 . S
C548 C553 1.379 . S
C548 N555 1.356 . S
C549 C548 1.363 . S
C549 C552 1.363 . S
N550 C552 1.356 1_565 S
N550 H562 0.984 . S
N550 H563 0.985 1_565 S
N551 C553 1.356 . S
N551 H556 0.984 . S
N551 H557 0.985 . S
C552 C546 1.379 . S
C552 C549 1.363 . S
C552 N550 1.356 1_545 S
C553 C547 1.363 . S
C553 C548 1.379 . S
C553 N551 1.356 . S
N554 C546 1.356 1_565 S
N554 H560 0.984 . S
N554 H561 0.984 . S
N555 C548 1.356 . S
N555 H558 0.984 . S
N555 H559 0.985 . S
H556 N551 0.984 . S
H557 N551 0.985 . S
H558 N555 0.984 . S
H559 N555 0.985 . S
H560 N554 0.984 . S
H561 N554 0.984 . S
H562 N550 0.984 . S
H563 N550 0.985 1_545 S
C564 C565 1.363 . S
C564 C570 1.379 . S
C564 N572 1.356 . S
C565 C564 1.363 . S
C565 C571 1.363 . S
C566 C567 1.363 . S
C566 C571 1.379 . S
C566 N573 1.356 . S
C567 C566 1.363 . S
C567 C570 1.363 . S
N568 C570 1.356 . S
N568 H580 0.984 . S
N568 H581 0.985 . S
N569 C571 1.356 . S
N569 H574 0.984 . S
N569 H575 0.985 . S
C570 C564 1.379 . S
C570 C567 1.363 . S
C570 N568 1.356 . S
C571 C565 1.363 . S
C571 C566 1.379 . S
C571 N569 1.356 . S
N572 C564 1.356 . S
N572 H578 0.984 . S
N572 H579 0.984 . S
N573 C566 1.356 . S
N573 H576 0.984 . S
N573 H577 0.985 . S
H574 N569 0.984 . S
H575 N569 0.985 . S
H576 N573 0.984 . S
H577 N573 0.985 . S
H578 N572 0.984 . S
H579 N572 0.984 . S
H580 N568 0.984 . S
H581 N568 0.985 . S
C582 C583 1.363 1_565 S
C582 C588 1.379 . S
C582 N590 1.356 . S
C583 C582 1.363 1_545 S
C583 C589 1.363 . S
C584 C585 1.363 . S
C584 C589 1.379 . S
C584 N591 1.356 . S
C585 C584 1.363 . S
C585 C588 1.363 1_545 S
N586 C588 1.356 . S
N586 H598 0.984 . S
N586 H599 0.985 . S
N587 C589 1.356 . S
N587 H592 0.984 . S
N587 H593 0.985 . S
C588 C582 1.379 . S
C588 C585 1.363 1_565 S
C588 N586 1.356 . S
C589 C583 1.363 . S
C589 C584 1.379 . S
C589 N587 1.356 . S
N590 C582 1.356 . S
N590 H596 0.984 . S
N590 H597 0.984 . S
N591 C584 1.356 . S
N591 H594 0.984 . S
N591 H595 0.985 . S
H592 N587 0.984 . S
H593 N587 0.985 . S
H594 N591 0.984 . S
H595 N591 0.985 . S
H596 N590 0.984 . S
H597 N590 0.984 . S
H598 N586 0.984 . S
H599 N586 0.985 . S
C600 C601 1.363 . S
C600 C606 1.379 . S
C600 N608 1.356 . S
C601 C600 1.363 . S
C601 C607 1.363 . S
C602 C603 1.363 . S
C602 C607 1.379 . S
C602 N609 1.356 . S
C603 C602 1.363 . S
C603 C606 1.363 . S
N604 C606 1.356 . S
N604 H616 0.984 . S
N604 H617 1.011 . S
N605 C607 1.356 . S
N605 H610 0.984 . S
N605 H611 0.985 . S
C606 C600 1.379 . S
C606 C603 1.363 . S
C606 N604 1.356 . S
C607 C601 1.363 . S
C607 C602 1.379 . S
C607 N605 1.356 . S
N608 C600 1.356 . S
N608 H614 0.984 . S
N608 H615 0.984 . S
N609 C602 1.356 . S
N609 H612 0.984 1_556 S
N609 H613 0.985 . S
H610 N605 0.984 . S
H611 N605 0.985 . S
H612 N609 0.984 1_554 S
H613 N609 0.985 . S
H614 N608 0.984 . S
H615 N608 0.984 . S
H616 N604 0.984 . S
H617 N604 1.011 . S
C618 C619 1.363 . S
C618 C624 1.379 . S
C618 N626 1.356 . S
C619 C618 1.363 . S
C619 C625 1.363 1_455 S
C620 C621 1.363 . S
C620 C625 1.379 1_455 S
C620 N627 1.356 1_455 S
C621 C620 1.363 . S
C621 C624 1.363 . S
N622 C624 1.356 . S
N622 H634 0.984 . S
N622 H635 0.985 . S
N623 C625 1.356 . S
N623 H628 0.984 . S
N623 H629 0.985 . S
C624 C618 1.379 . S
C624 C621 1.363 . S
C624 N622 1.356 . S
C625 C619 1.363 1_655 S
C625 C620 1.379 1_655 S
C625 N623 1.356 . S
N626 C618 1.356 . S
N626 H632 0.984 . S
N626 H633 0.984 . S
N627 C620 1.356 1_655 S
N627 H630 0.984 . S
N627 H631 0.985 . S
H628 N623 0.984 . S
H629 N623 0.985 . S
H630 N627 0.984 . S
H631 N627 0.985 . S
H632 N626 0.984 . S
H633 N626 0.984 . S
H634 N622 0.984 . S
H635 N622 0.985 . S
C313 C19 3.030 . S
C315 C303 2.965 . S
C331 C49 3.121 . S
C333 C239 3.048 . S
C349 C99 3.048 . S
C351 C271 2.987 . S
C367 C9 3.126 . S
C369 C297 3.066 . S
C387 C233 2.974 . S
C385 C59 3.034 . S
C405 C265 3.044 . S
C403 C89 3.106 . S
C421 C55 0.703 . S
C423 C175 0.681 . S
C439 C85 0.722 . S
C441 C207 0.707 . S
C457 C15 0.668 . S
C459 C137 0.679 . S
C477 C169 0.717 . S
C475 C45 0.733 . S
C495 C201 0.699 . S
C493 C95 0.691 . S
C511 C5 0.728 . S
C513 C143 0.717 . S
C531 C213 0.982 . S
C529 C18 1.020 . S
C547 C58 1.003 . S
C549 C149 0.972 . S
C565 C98 1.023 . S
C567 C181 1.029 . S
C585 C277 1.775 . S
C583 C48 1.728 . S
C603 C309 1.779 1_556 S
C601 C88 1.725 . S
C619 C8 1.730 . S
C621 C245 1.797 . S
