# Generated by pormake.
# Topology tsx, (6,3)-cn, num edge types: 1
# Building blocks:
#     Node 0, Type 0, BuildingBlock: FUNLAD_clean_sbu_0, # of connection points: 6
#     Node 1, Type 0, BuildingBlock: FUNLAD_clean_sbu_0, # of connection points: 6
#     Node 2, Type 1, BuildingBlock: INOVEN_clean_linker_0, # of connection points: 3
#     Node 3, Type 1, BuildingBlock: INOVEN_clean_linker_0, # of connection points: 3
#     Node 4, Type 1, BuildingBlock: INOVEN_clean_linker_0, # of connection points: 3
#     Node 5, Type 1, BuildingBlock: INOVEN_clean_linker_0, # of connection points: 3
#     Edge 6, Type (0, 1), BuildingBlock: MIFKUJ_clean_linker_0, # of connection points: 2
#     Edge 7, Type (0, 1), BuildingBlock: MIFKUJ_clean_linker_0, # of connection points: 2
#     Edge 8, Type (0, 1), BuildingBlock: MIFKUJ_clean_linker_0, # of connection points: 2
#     Edge 9, Type (0, 1), BuildingBlock: MIFKUJ_clean_linker_0, # of connection points: 2
#     Edge 10, Type (0, 1), BuildingBlock: MIFKUJ_clean_linker_0, # of connection points: 2
#     Edge 11, Type (0, 1), BuildingBlock: MIFKUJ_clean_linker_0, # of connection points: 2
#     Edge 12, Type (0, 1), BuildingBlock: MIFKUJ_clean_linker_0, # of connection points: 2
#     Edge 13, Type (0, 1), BuildingBlock: MIFKUJ_clean_linker_0, # of connection points: 2
#     Edge 14, Type (0, 1), BuildingBlock: MIFKUJ_clean_linker_0, # of connection points: 2
#     Edge 15, Type (0, 1), BuildingBlock: MIFKUJ_clean_linker_0, # of connection points: 2
#     Edge 16, Type (0, 1), BuildingBlock: MIFKUJ_clean_linker_0, # of connection points: 2
#     Edge 17, Type (0, 1), BuildingBlock: MIFKUJ_clean_linker_0, # of connection points: 2
# Relax obj value: 0.101
# Max RMSD: 0.111
# Mean RMSD: 0.102
data_MOF--net-tsx--node1-FUNLAD_clean_sbu_0--node2-INOVEN_clean_linker_0--edge1-MIFKUJ_clean_linker_0
_symmetry_space_group_name_H-M    P1
_symmetry_Int_Tables_number       1
_symmetry_cell_setting            triclinic
loop_
_symmetry_equiv_pos_as_xyz
'x, y, z'
_cell_length_a     25.288016
_cell_length_b     27.832038
_cell_length_c     49.591165
_cell_angle_alpha  90.941474
_cell_angle_beta   101.21779
_cell_angle_gamma 90.058666
loop_
_atom_site_label
_atom_site_type_symbol
_atom_site_fract_x
_atom_site_fract_y
_atom_site_fract_z
_atom_type_partial_charge
C0 C 0.93465 0.94796 -0.00301 0.0
N1 N 0.0303 0.01642 0.0658 0.0
C2 C 0.98741 0.00704 0.07776 0.0
C3 C 0.99401 0.00513 0.10627 0.0
C4 C 0.04499 0.01386 0.1226 0.0
C5 C 0.08859 0.02365 0.10986 0.0
C6 C 0.0804 0.02432 0.08119 0.0
Zn7 Zn 0.01743 0.0204 0.02406 0.0
C8 C 0.08834 0.95627 -0.00045 0.0
N9 N 0.98708 0.02937 0.93696 0.0
C10 C 0.93627 0.02659 0.92163 0.0
C11 C 0.03065 0.03576 0.92504 0.0
C12 C 0.02402 0.04027 0.89667 0.0
C13 C 0.97218 0.03732 0.88039 0.0
C14 C 0.9279 0.03006 0.89305 0.0
Zn15 Zn -0.00017 0.0248 0.97862 0.0
O16 O 0.9621 0.96124 0.0202 0.0
C17 C 0.9285 0.08827 0.00338 0.0
O18 O 0.94137 0.96938 0.97549 0.0
H19 H 0.07074 0.03731 0.93755 0.0
H20 H 0.94781 0.00155 0.0652 0.0
H21 H 0.90223 0.02171 0.93157 0.0
O22 O 0.95425 0.06922 0.02509 0.0
O23 O 0.93982 0.0766 0.98028 0.0
H24 H 0.11394 0.03154 0.07124 0.0
O25 O 0.05816 0.08035 0.98199 0.0
O26 O 0.07239 0.07984 0.02699 0.0
O27 O 0.05994 0.97269 0.97768 0.0
O28 O 0.08037 0.97134 0.02275 0.0
C29 C 0.08213 0.09755 0.00498 0.0
H30 H 0.95938 0.99801 0.11549 0.0
H31 H 0.12852 0.03037 0.12193 0.0
H32 H 0.05914 0.04512 0.88748 0.0
H33 H 0.88734 0.02761 0.88101 0.0
C34 C 0.443 0.43975 0.50624 0.0
N35 N 0.53456 0.52055 0.57134 0.0
C36 C 0.49214 0.51148 0.58372 0.0
C37 C 0.49919 0.51172 0.61231 0.0
C38 C 0.55007 0.52238 0.62825 0.0
C39 C 0.59296 0.53252 0.61507 0.0
C40 C 0.58439 0.53091 0.58638 0.0
Zn41 Zn 0.52248 0.51776 0.52943 0.0
C42 C 0.59696 0.44937 0.50954 0.0
N43 N 0.49468 0.5098 0.44209 0.0
C44 C 0.44491 0.50494 0.42583 0.0
C45 C 0.53968 0.51392 0.43105 0.0
C46 C 0.53563 0.51463 0.40268 0.0
C47 C 0.4849 0.51018 0.38545 0.0
C48 C 0.43911 0.5046 0.39719 0.0
Zn49 Zn 0.50513 0.51262 0.48388 0.0
O50 O 0.46963 0.45792 0.52848 0.0
C51 C 0.43078 0.58102 0.50434 0.0
O52 O 0.44877 0.45685 0.48342 0.0
H53 H 0.57894 0.51708 0.44428 0.0
H54 H 0.45273 0.50388 0.57142 0.0
H55 H 0.40971 0.50175 0.43507 0.0
O56 O 0.45693 0.56598 0.52714 0.0
O57 O 0.44256 0.56492 0.48205 0.0
H58 H 0.61763 0.53771 0.57613 0.0
O59 O 0.56161 0.56874 0.48459 0.0
O60 O 0.57453 0.57748 0.52939 0.0
O61 O 0.56756 0.46024 0.48663 0.0
O62 O 0.58839 0.4696 0.53144 0.0
C63 C 0.58409 0.59071 0.50642 0.0
H64 H 0.46513 0.50416 0.6219 0.0
H65 H 0.6328 0.54068 0.62684 0.0
H66 H 0.57185 0.51834 0.39426 0.0
H67 H 0.39934 0.50111 0.38439 0.0
H68 H 0.04831 0.00968 0.4902 0.0
H69 H 0.11386 0.96059 0.42075 0.0
H70 H 0.99421 0.07146 0.41061 0.0
N71 N 0.98086 0.07614 0.46118 0.0
N72 N 0.98588 0.0901 0.48557 0.0
C73 C 0.05037 0.01196 0.46869 0.0
C74 C 0.08558 0.98162 0.45757 0.0
C75 C 0.01779 0.04495 0.45162 0.0
C76 C 0.02005 0.04665 0.42371 0.0
C77 C 0.05468 0.01652 0.41251 0.0
C78 C 0.0873 0.98422 0.42951 0.0
H79 H 0.97032 0.00444 0.51325 0.0
H80 H 0.89978 0.97332 0.5834 0.0
H81 H 0.04557 0.05584 0.59387 0.0
N82 N 0.05363 0.05418 0.54055 0.0
N83 N 0.09542 0.07055 0.55544 0.0
C84 C 0.97074 0.0073 0.53509 0.0
C85 C 0.9296 0.98573 0.54615 0.0
C86 C 0.01277 0.03237 0.55219 0.0
C87 C 0.01317 0.03657 0.58053 0.0
C88 C 0.97224 0.01564 0.59183 0.0
C89 C 0.93084 0.99025 0.57454 0.0
H90 H 0.55117 0.51009 0.99445 0.0
H91 H 0.6369 0.47201 0.93025 0.0
H92 H 0.50432 0.56996 0.91387 0.0
N93 N 0.48157 0.56859 0.96489 0.0
N94 N 0.4476 0.59212 0.94884 0.0
C95 C 0.55731 0.51368 0.97357 0.0
C96 C 0.59913 0.48856 0.96481 0.0
C97 C 0.52311 0.54321 0.9554 0.0
C98 C 0.53088 0.54758 0.92821 0.0
C99 C 0.57176 0.52182 0.9191 0.0
C100 C 0.60588 0.49261 0.93748 0.0
H101 H 0.46793 0.52485 0.01689 0.0
H102 H 0.41802 0.46957 0.08864 0.0
H103 H 0.55866 0.55925 0.09763 0.0
N104 N 0.55433 0.57515 0.04591 0.0
N105 N 0.54373 0.59515 0.02319 0.0
C106 C 0.47352 0.52206 0.03901 0.0
C107 C 0.43758 0.4941 0.05073 0.0
C108 C 0.51696 0.54604 0.0562 0.0
C109 C 0.52465 0.54124 0.08473 0.0
C110 C 0.48877 0.51425 0.09667 0.0
C111 C 0.44565 0.49078 0.0795 0.0
H112 H 0.11032 0.16539 0.04584 0.0
H113 H 0.16738 0.23666 0.04518 0.0
H114 H 0.19585 0.1935 0.96538 0.0
H115 H 0.13769 0.123 0.96549 0.0
H116 H 0.29256 0.22429 0.01085 0.0
H117 H 0.11734 0.27351 0.96036 0.0
H118 H 0.01887 0.283 0.95477 0.0
H119 H 0.04073 0.37144 0.02788 0.0
H120 H 0.13937 0.36188 0.03414 0.0
H121 H 0.43973 0.43614 0.00546 0.0
H122 H 0.37367 0.37351 0.98695 0.0
H123 H 0.27086 0.42274 0.04173 0.0
H124 H 0.33405 0.48728 0.05828 0.0
H125 H 0.20995 0.38631 0.00158 0.0
H126 H 0.37682 0.33188 0.05769 0.0
H127 H 0.47537 0.32082 0.06942 0.0
H128 H 0.47054 0.24014 0.99444 0.0
H129 H 0.3721 0.25163 0.98197 0.0
C130 C 0.12906 0.17093 0.02826 0.0
C131 C 0.11953 0.13869 0.00571 0.0
C132 C 0.16142 0.21166 0.02787 0.0
C133 C 0.18557 0.22027 0.00518 0.0
C134 C 0.17748 0.18742 0.98303 0.0
C135 C 0.1442 0.14729 0.98313 0.0
C136 C 0.2185 0.26411 0.00445 0.0
C137 C 0.27465 0.25975 0.00835 0.0
C138 C 0.19495 0.31021 0.00182 0.0
C139 C 0.13571 0.31667 -0.00218 0.0
C140 C 0.10114 0.2947 0.97536 0.0
C141 C 0.0453 0.30017 0.97204 0.0
C142 C 0.02356 0.32782 0.99095 0.0
C143 C 0.05764 0.35012 0.01321 0.0
C144 C 0.11351 0.34471 0.01664 0.0
C145 C 0.40198 0.43471 0.01266 0.0
C146 C 0.39276 0.46572 0.03391 0.0
C147 C 0.36456 0.39839 0.00242 0.0
C148 C 0.31823 0.39179 0.01383 0.0
C149 C 0.30649 0.42619 0.03281 0.0
C150 C 0.34299 0.46303 0.04246 0.0
C151 C 0.28483 0.34706 0.00861 0.0
C152 C 0.22829 0.35101 0.00364 0.0
C153 C 0.3082 0.30054 0.01113 0.0
C154 C 0.36726 0.29316 0.01874 0.0
C155 C 0.39686 0.31205 0.04363 0.0
C156 C 0.4527 0.30577 0.05038 0.0
C157 C 0.47927 0.28005 0.03259 0.0
C158 C 0.44999 0.26035 0.00808 0.0
C159 C 0.39418 0.26676 0.00116 0.0
H160 H 0.5225 0.27521 0.03783 0.0
H161 H 0.98032 0.33193 0.98838 0.0
H162 H 0.15103 0.9086 0.042 0.0
H163 H 0.21093 0.84065 0.03863 0.0
H164 H 0.17424 0.84902 0.95016 0.0
H165 H 0.1141 0.91644 0.95326 0.0
H166 H 0.16585 0.75763 0.96775 0.0
H167 H 0.29297 0.89043 0.98685 0.0
H168 H 0.33728 0.95942 0.01403 0.0
H169 H 0.38758 0.86834 0.08331 0.0
H170 H 0.34292 0.7989 0.05663 0.0
H171 H 0.37196 0.64067 0.91671 0.0
H172 H 0.3068 0.6959 0.93096 0.0
H173 H 0.36895 0.66273 0.01594 0.0
H174 H 0.43427 0.6077 0.00161 0.0
H175 H 0.36164 0.75891 0.00764 0.0
H176 H 0.24568 0.62386 0.98664 0.0
H177 H 0.2025 0.55439 0.95954 0.0
H178 H 0.13106 0.64803 0.89464 0.0
H179 H 0.17446 0.71804 0.92117 0.0
C180 C 0.15608 0.89621 0.02184 0.0
C181 C 0.12778 0.91783 -0.00212 0.0
C182 C 0.1903 0.85742 0.01997 0.0
C183 C 0.1969 0.8399 0.99415 0.0
C184 C 0.16938 0.86191 0.97027 0.0
C185 C 0.13524 0.90058 0.9721 0.0
C186 C 0.23175 0.79811 0.9917 0.0
C187 C 0.20873 0.75794 0.97632 0.0
C188 C 0.28719 0.79791 0.00386 0.0
C189 C 0.31404 0.83963 0.01986 0.0
C190 C 0.31306 0.88521 0.00796 0.0
C191 C 0.33833 0.92438 0.02326 0.0
C192 C 0.36507 0.91831 0.05041 0.0
C193 C 0.36674 0.87302 0.0623 0.0
C194 C 0.34149 0.83374 0.04709 0.0
C195 C 0.37089 0.64479 0.93835 0.0
C196 C 0.40763 0.62012 0.95796 0.0
C197 C 0.33377 0.67607 0.94649 0.0
C198 C 0.33277 0.68299 0.97449 0.0
C199 C 0.36901 0.65768 0.99423 0.0
C200 C 0.40613 0.62621 0.98603 0.0
C201 C 0.29605 0.71909 0.98288 0.0
C202 C 0.3186 0.75814 -0.00054 0.0
C203 C 0.24011 0.71821 0.9719 0.0
C204 C 0.21362 0.67622 0.95586 0.0
C205 C 0.22107 0.62963 0.96651 0.0
C206 C 0.1965 0.59015 0.95126 0.0
C207 C 0.16412 0.59679 0.92537 0.0
C208 C 0.15615 0.64295 0.9147 0.0
C209 C 0.18067 0.68256 0.92986 0.0
H210 H 0.14513 0.56617 0.91359 0.0
H211 H 0.38462 0.94866 0.06222 0.0
H212 H 0.84925 0.92866 0.95519 0.0
H213 H 0.78147 0.86484 0.95286 0.0
H214 H 0.86306 0.81332 0.0315 0.0
H215 H 0.93023 0.87774 0.03436 0.0
H216 H 0.82708 0.73937 0.98539 0.0
H217 H 0.76502 0.87525 0.03489 0.0
H218 H 0.7398 0.96024 0.03902 0.0
H219 H 0.61849 0.94537 0.9656 0.0
H220 H 0.64364 0.86041 0.96081 0.0
H221 H 0.65103 0.59989 0.04445 0.0
H222 H 0.71526 0.65647 0.03184 0.0
H223 H 0.58992 0.71448 0.96928 0.0
H224 H 0.52476 0.65835 0.98259 0.0
H225 H 0.644 0.78492 -0.00138 0.0
H226 H 0.69181 0.6487 0.95172 0.0
H227 H 0.71411 0.56397 0.94432 0.0
H228 H 0.85817 0.57809 0.00615 0.0
H229 H 0.83624 0.66274 0.01434 0.0
C230 C 0.85292 0.90358 0.97192 0.0
C231 C 0.89492 0.90832 -0.00497 0.0
C232 C 0.81424 0.86716 0.97052 0.0
C233 C 0.81747 0.83439 0.99196 0.0
C234 C 0.86014 0.83818 0.01469 0.0
C235 C 0.89821 0.87515 0.01637 0.0
C236 C 0.77476 0.79776 0.99151 0.0
C237 C 0.78711 0.74909 0.98844 0.0
C238 C 0.72205 0.81083 0.99426 0.0
C239 C 0.70666 0.86171 -0.0027 0.0
C240 C 0.73333 0.89024 0.01948 0.0
C241 C 0.71898 0.93837 0.02197 0.0
C242 C 0.67769 0.95824 0.00253 0.0
C243 C 0.65055 0.92996 0.98061 0.0
C244 C 0.66482 0.88182 0.978 0.0
C245 C 0.63715 0.62441 0.02787 0.0
C246 C 0.58275 0.62485 0.01443 0.0
C247 C 0.67407 0.65654 0.0205 0.0
C248 C 0.65765 0.6895 -0.0006 0.0
C249 C 0.60357 0.68928 0.98556 0.0
C250 C 0.5665 0.65705 0.99298 0.0
C251 C 0.69652 0.72597 0.99332 0.0
C252 C 0.68357 0.77482 -0.00488 0.0
C253 C 0.7483 0.71298 0.98878 0.0
C254 C 0.76218 0.66214 0.98377 0.0
C255 C 0.72808 0.63371 0.9639 0.0
C256 C 0.74067 0.58567 0.95954 0.0
C257 C 0.78753 0.56566 0.97477 0.0
C258 C 0.8219 0.59367 0.99436 0.0
C259 C 0.80943 0.64172 -0.00115 0.0
H260 H 0.79726 0.52847 0.97136 0.0
H261 H 0.66663 0.99551 0.00449 0.0
H262 H 0.87087 0.14009 0.96152 0.0
H263 H 0.80999 0.20674 0.96518 0.0
H264 H 0.83267 0.18717 0.05281 0.0
H265 H 0.89444 0.12077 0.04943 0.0
H266 H 0.71693 0.21621 0.98231 0.0
H267 H 0.83574 0.30208 0.08273 0.0
H268 H 0.92832 0.30341 0.11018 0.0
H269 H 0.99179 0.27381 0.03743 0.0
H270 H 0.8998 0.27364 0.00944 0.0
H271 H 0.56712 0.42009 -0.00288 0.0
H272 H 0.62084 0.35185 0.01731 0.0
H273 H 0.76135 0.41205 0.99289 0.0
H274 H 0.70817 0.48057 0.97326 0.0
H275 H 0.78977 0.35894 0.03889 0.0
H276 H 0.67695 0.34566 0.94836 0.0
H277 H 0.59058 0.34888 0.9153 0.0
H278 H 0.52623 0.23769 0.95872 0.0
H279 H 0.61179 0.23492 0.99261 0.0
C280 C 0.86257 0.14963 0.98155 0.0
C281 C 0.88784 0.12549 0.00521 0.0
C282 C 0.8276 0.18759 0.98359 0.0
C283 C 0.81729 0.2021 0.0093 0.0
C284 C 0.84067 0.17683 0.03284 0.0
C285 C 0.87584 0.1389 0.03083 0.0
C286 C 0.78434 0.24533 0.01134 0.0
C287 C 0.7325 0.24711 -0.00497 0.0
C288 C 0.80512 0.28588 0.02764 0.0
C289 C 0.86079 0.28713 0.0441 0.0
C290 C 0.86949 0.29611 0.07259 0.0
C291 C 0.92187 0.29676 0.08822 0.0
C292 C 0.96589 0.28863 0.07555 0.0
C293 C 0.95766 0.28014 0.0472 0.0
C294 C 0.90541 0.27976 0.03145 0.0
C295 C 0.60994 0.41966 -0.00292 0.0
C296 C 0.63345 0.45488 0.98313 0.0
C297 C 0.64052 0.38067 0.00857 0.0
C298 C 0.6947 0.37651 0.00603 0.0
C299 C 0.71955 0.41448 -0.00506 0.0
C300 C 0.68907 0.45337 0.98351 0.0
C301 C 0.72257 0.32977 0.00975 0.0
C302 C 0.77349 0.32737 0.02698 0.0
C303 C 0.70184 0.28911 0.99356 0.0
C304 C 0.65044 0.29056 0.97322 0.0
C305 C 0.64417 0.32227 0.95103 0.0
C306 C 0.59536 0.32406 0.93217 0.0
C307 C 0.55282 0.29371 0.93502 0.0
C308 C 0.55907 0.26145 0.95671 0.0
C309 C 0.60767 0.25982 0.97578 0.0
H310 H 0.51509 0.29502 0.92036 0.0
H311 H 0.00639 0.28898 0.0877 0.0
H312 H 0.63849 0.61031 0.46556 0.0
H313 H 0.6938 0.68135 0.46168 0.0
H314 H 0.66165 0.73713 0.53847 0.0
H315 H 0.60754 0.66558 0.54296 0.0
H316 H 0.64678 0.80293 0.48647 0.0
H317 H 0.77049 0.69547 0.54662 0.0
H318 H 0.81634 0.61766 0.5562 0.0
H319 H 0.88343 0.6298 0.48342 0.0
H320 H 0.83725 0.70744 0.47322 0.0
H321 H 0.82314 0.97968 0.54935 0.0
H322 H 0.76069 0.91637 0.5306 0.0
H323 H 0.87477 0.86126 0.48344 0.0
H324 H 0.9399 0.92252 0.50435 0.0
H325 H 0.84631 0.79255 0.50855 0.0
H326 H 0.74248 0.90806 0.45369 0.0
H327 H 0.69665 0.98506 0.44152 0.0
H328 H 0.59079 0.95871 0.49769 0.0
H329 H 0.63651 0.88195 0.5106 0.0
C330 C 0.64341 0.63766 0.48167 0.0
C331 C 0.61901 0.63246 0.50464 0.0
C332 C 0.67475 0.67815 0.47934 0.0
C333 C 0.6812 0.71434 0.49968 0.0
C334 C 0.65663 0.7095 0.52252 0.0
C335 C 0.62624 0.66854 0.52517 0.0
C336 C 0.71523 0.75666 0.49774 0.0
C337 C 0.69044 0.80112 0.49132 0.0
C338 C 0.7719 0.75327 0.50272 0.0
C339 C 0.79989 0.70686 0.50898 0.0
C340 C 0.79457 0.68129 0.53252 0.0
C341 C 0.8207 0.6373 0.5381 0.0
C342 C 0.85263 0.61872 0.52038 0.0
C343 C 0.85859 0.64418 0.49709 0.0
C344 C 0.83247 0.68818 0.49141 0.0
C345 C 0.83489 0.95451 0.53476 0.0
C346 C 0.88711 0.95552 0.52895 0.0
C347 C 0.79853 0.91858 0.52357 0.0
C348 C 0.81263 0.88382 0.5054 0.0
C349 C 0.86296 0.88746 0.49752 0.0
C350 C 0.90002 0.92287 0.50929 0.0
C351 C 0.77825 0.84033 0.49823 0.0
C352 C 0.80277 0.79509 0.5029 0.0
C353 C 0.72124 0.84307 0.49103 0.0
C354 C 0.69307 0.88911 0.48314 0.0
C355 C 0.7096 0.91874 0.46357 0.0
C356 C 0.68363 0.96238 0.45653 0.0
C357 C 0.64078 0.9767 0.46878 0.0
C358 C 0.6239 0.94749 0.48815 0.0
C359 C 0.64977 0.90384 0.4953 0.0
H360 H 0.62061 0.01041 0.46324 0.0
H361 H 0.8729 0.58471 0.52476 0.0
H362 H 0.68356 0.43377 0.55113 0.0
H363 H 0.75264 0.37132 0.55307 0.0
H364 H 0.67419 0.31783 0.4732 0.0
H365 H 0.60582 0.38065 0.4708 0.0
H366 H 0.70347 0.24513 0.51552 0.0
H367 H 0.77835 0.38046 0.47487 0.0
H368 H 0.80896 0.46441 0.47374 0.0
H369 H 0.92389 0.44425 0.54866 0.0
H370 H 0.89332 0.3603 0.55046 0.0
H371 H 0.88392 0.10567 0.4582 0.0
H372 H 0.82126 0.16534 0.46988 0.0
H373 H 0.93754 0.20769 0.5421 0.0
H374 H 0.00104 0.14736 0.53022 0.0
H375 H 0.8933 0.28563 0.51219 0.0
H376 H 0.82819 0.14898 0.55089 0.0
H377 H 0.8002 0.06462 0.55296 0.0
H378 H 0.66927 0.08608 0.48487 0.0
H379 H 0.69681 0.17062 0.48223 0.0
C380 C 0.68113 0.40877 0.53395 0.0
C381 C 0.63935 0.41227 0.51075 0.0
C382 C 0.72058 0.37314 0.53511 0.0
C383 C 0.71842 0.33994 0.5133 0.0
C384 C 0.67646 0.34303 0.49028 0.0
C385 C 0.63764 0.37913 0.48887 0.0
C386 C 0.76023 0.30231 0.51413 0.0
C387 C 0.74492 0.2539 0.51467 0.0
C388 C 0.8147 0.31389 0.51406 0.0
C389 C 0.83304 0.36432 0.513 0.0
C390 C 0.80972 0.39408 0.49127 0.0
C391 C 0.82715 0.44163 0.49047 0.0
C392 C 0.86821 0.4597 0.51116 0.0
C393 C 0.892 0.43023 0.53268 0.0
C394 C 0.87465 0.38267 0.5336 0.0
C395 C 0.89608 0.12739 0.47668 0.0
C396 C 0.94744 0.12207 0.49337 0.0
C397 C 0.8601 0.16136 0.48342 0.0
C398 C 0.87446 0.19078 0.50698 0.0
C399 C 0.92554 0.18524 0.52388 0.0
C400 C 0.96155 0.15071 0.51724 0.0
C401 C 0.8363 0.2283 0.51292 0.0
C402 C 0.85215 0.27673 0.5136 0.0
C403 C 0.78243 0.21674 0.51447 0.0
C404 C 0.76483 0.16613 0.51624 0.0
C405 C 0.7936 0.13566 0.53624 0.0
C406 C 0.77781 0.08775 0.53752 0.0
C407 C 0.73314 0.06981 0.51895 0.0
C408 C 0.70394 0.09993 0.4992 0.0
C409 C 0.71954 0.14793 0.49786 0.0
H410 H 0.72107 0.03264 0.51991 0.0
H411 H 0.88175 0.49647 0.51047 0.0
H412 H 0.43272 0.38694 0.55077 0.0
H413 H 0.37533 0.31672 0.55184 0.0
H414 H 0.31389 0.32832 0.46477 0.0
H415 H 0.37152 0.39879 0.46342 0.0
H416 H 0.2333 0.31225 0.49581 0.0
H417 H 0.39986 0.24405 0.48363 0.0
H418 H 0.4984 0.23293 0.49292 0.0
H419 H 0.49382 0.18655 0.57458 0.0
H420 H 0.39531 0.19815 0.56595 0.0
H421 H 0.09454 0.09342 0.50203 0.0
H422 H 0.15853 0.1471 0.48632 0.0
H423 H 0.24945 0.15958 0.56936 0.0
H424 H 0.18568 0.10514 0.58492 0.0
H425 H 0.31524 0.15818 0.53153 0.0
H426 H 0.15226 0.23927 0.54591 0.0
H427 H 0.05335 0.24813 0.53721 0.0
H428 H 0.05148 0.26951 0.45148 0.0
H429 H 0.15037 0.25993 0.45962 0.0
C430 C 0.40696 0.3747 0.53183 0.0
C431 C 0.40683 0.39828 0.50698 0.0
C432 C 0.37436 0.33446 0.53247 0.0
C433 C 0.34093 0.31712 0.50832 0.0
C434 C 0.33966 0.34114 0.48358 0.0
C435 C 0.37266 0.38125 0.48286 0.0
C436 C 0.30745 0.27382 0.50925 0.0
C437 C 0.25114 0.27823 0.50303 0.0
C438 C 0.33091 0.22968 0.51893 0.0
C439 C 0.39018 0.2223 0.52419 0.0
C440 C 0.4199 0.23183 0.50365 0.0
C441 C 0.47575 0.22539 0.50878 0.0
C442 C 0.50237 0.20912 0.53434 0.0
C443 C 0.47315 0.19917 0.55479 0.0
C444 C 0.41728 0.20562 0.54978 0.0
C445 C 0.12876 0.10675 0.51676 0.0
C446 C 0.1353 0.09567 0.54478 0.0
C447 C 0.16524 0.13747 0.50779 0.0
C448 C 0.20824 0.15781 0.52677 0.0
C449 C 0.21654 0.14425 0.55439 0.0
C450 C 0.1802 0.11344 0.56329 0.0
C451 C 0.24126 0.197 0.51877 0.0
C452 C 0.29745 0.19188 0.52373 0.0
C453 C 0.2177 0.24051 0.508 0.0
C454 C 0.15861 0.24845 0.50332 0.0
C455 C 0.13072 0.24575 0.52519 0.0
C456 C 0.07467 0.25083 0.52037 0.0
C457 C 0.04613 0.25925 0.4938 0.0
C458 C 0.07364 0.2629 0.47204 0.0
C459 C 0.12968 0.25767 0.47674 0.0
H460 H 0.00272 0.263 0.4901 0.0
H461 H 0.54562 0.20415 0.53827 0.0
H462 H 0.39771 0.62304 0.54845 0.0
H463 H 0.33309 0.68828 0.54831 0.0
H464 H 0.30581 0.69063 0.45974 0.0
H465 H 0.36994 0.6249 0.45967 0.0
H466 H 0.33629 0.77764 0.53171 0.0
H467 H 0.17813 0.72496 0.43401 0.0
H468 H 0.13863 0.65151 0.40962 0.0
H469 H 0.17579 0.5729 0.48468 0.0
H470 H 0.21481 0.646 0.5096 0.0
H471 H 0.19381 0.97184 0.46381 0.0
H472 H 0.24736 0.90197 0.481 0.0
H473 H 0.10801 0.83822 0.50475 0.0
H474 H 0.0539 0.90847 0.48712 0.0
H475 H 0.15269 0.77697 0.47384 0.0
H476 H 0.21722 0.87215 0.55346 0.0
H477 H 0.25356 0.94455 0.58001 0.0
H478 H 0.39774 0.93511 0.54665 0.0
H479 H 0.36193 0.8631 0.51953 0.0
C480 C 0.37761 0.63708 0.52889 0.0
C481 C 0.38904 0.61863 0.50404 0.0
C482 C 0.34077 0.67454 0.52887 0.0
C483 C 0.31423 0.69425 0.50404 0.0
C484 C 0.3251 0.67557 0.47917 0.0
C485 C 0.36196 0.63805 0.47915 0.0
C486 C 0.27688 0.73559 0.50413 0.0
C487 C 0.29603 0.77739 0.51918 0.0
C488 C 0.22377 0.73497 0.48839 0.0
C489 C 0.19979 0.69093 0.47362 0.0
C490 C 0.17764 0.69207 0.44534 0.0
C491 C 0.15538 0.65047 0.43141 0.0
C492 C 0.15484 0.60754 0.44557 0.0
C493 C 0.17641 0.60614 0.47371 0.0
C494 C 0.19866 0.64763 0.48774 0.0
C495 C 0.17504 0.94351 0.47343 0.0
C496 C 0.11984 0.94544 0.47418 0.0
C497 C 0.20566 0.90358 0.48329 0.0
C498 C 0.18182 0.86473 0.49422 0.0
C499 C 0.12727 0.86776 0.4964 0.0
C500 C 0.09654 0.90802 0.48661 0.0
C501 C 0.21283 0.81954 0.50064 0.0
C502 C 0.19262 0.77702 0.48672 0.0
C503 C 0.2646 0.81926 0.51779 0.0
C504 C 0.28672 0.86228 0.53434 0.0
C505 C 0.25655 0.88565 0.55165 0.0
C506 C 0.27707 0.92663 0.56682 0.0
C507 C 0.3279 0.94444 0.565 0.0
C508 C 0.35838 0.92125 0.54805 0.0
C509 C 0.33801 0.8803 0.5328 0.0
H510 H 0.3437 0.97619 0.57674 0.0
H511 H 0.13762 0.57538 0.43475 0.0
H512 H 0.08886 0.08426 0.15886 0.0
H513 H 0.09369 0.08655 0.20866 0.0
H514 H 0.02261 0.94473 0.20402 0.0
H515 H 0.01568 0.94344 0.15411 0.0
H516 H 0.97577 0.99823 0.23442 0.0
H517 H 0.16119 0.96896 0.23083 0.0
H518 H 0.24862 0.98356 0.21736 0.0
H519 H 0.25983 0.12199 0.25764 0.0
H520 H 0.17209 0.10847 0.27105 0.0
H521 H 0.04351 0.94129 0.37619 0.0
H522 H 0.04452 0.94351 0.3269 0.0
H523 H 0.07042 0.09683 0.33301 0.0
H524 H 0.06875 0.09488 0.38236 0.0
H525 H 0.14046 0.04106 0.30277 0.0
H526 H 0.95364 0.06645 0.30695 0.0
H527 H 0.86805 0.04753 0.32131 0.0
H528 H 0.86256 0.90994 0.28037 0.0
H529 H 0.94863 0.92776 0.26613 0.0
C530 C 0.07488 0.05346 0.16862 0.0
C531 C 0.05197 0.01366 0.15283 0.0
C532 C 0.07778 0.05468 0.19704 0.0
C533 C 0.05908 0.01556 0.21018 0.0
C534 C 0.03715 0.97539 0.19437 0.0
C535 C 0.03332 0.97458 0.16592 0.0
C536 C 0.06004 0.01718 0.2402 0.0
C537 C 0.01207 0.00696 0.24932 0.0
C538 C 0.107 0.02971 0.2597 0.0
C539 C 0.1598 0.03789 0.2517 0.0
C540 C 0.1821 0.00267 0.23663 0.0
C541 C 0.23175 0.01072 0.22904 0.0
C542 C 0.25969 0.05373 0.23657 0.0
C543 C 0.23811 0.08872 0.25178 0.0
C544 C 0.18844 0.08087 0.2594 0.0
C545 C 0.04963 0.97538 0.36699 0.0
C546 C 0.05598 0.01794 0.38291 0.0
C547 C 0.05006 0.97662 0.33893 0.0
C548 C 0.05743 0.02034 0.32647 0.0
C549 C 0.06472 0.06281 0.34238 0.0
C550 C 0.06344 0.0617 0.3704 0.0
C551 C 0.05659 0.02153 0.29667 0.0
C552 C 0.10439 0.03239 0.2877 0.0
C553 C 0.00977 0.00893 0.27729 0.0
C554 C 0.95786 0.99826 0.28571 0.0
C555 C 0.93445 0.03198 0.30123 0.0
C556 C 0.88579 0.02149 0.3093 0.0
C557 C 0.85995 0.97751 0.30182 0.0
C558 C 0.88266 0.94397 0.28619 0.0
C559 C 0.93135 0.95426 0.27809 0.0
H560 H 0.82228 0.96946 0.30809 0.0
H561 H 0.29813 0.0599 0.23067 0.0
H562 H 0.91988 0.97378 0.84211 0.0
H563 H 0.91694 0.97418 0.79236 0.0
H564 H 0.00561 0.10782 0.80125 0.0
H565 H 0.00946 0.10717 0.85109 0.0
H566 H 0.91199 0.09869 0.75384 0.0
H567 H 0.07674 0.02097 0.79777 0.0
H568 H 0.1291 0.96229 0.82877 0.0
H569 H 0.04083 0.84637 0.78231 0.0
H570 H 0.98727 0.90449 0.75129 0.0
H571 H 0.99605 0.09498 0.62541 0.0
H572 H 0.99474 0.10173 0.67451 0.0
H573 H 0.94585 0.9531 0.67448 0.0
H574 H 0.94982 0.94543 0.62585 0.0
H575 H 0.01949 0.97209 0.71805 0.0
H576 H 0.85538 0.04643 0.67372 0.0
H577 H 0.79946 0.10298 0.64271 0.0
H578 H 0.88057 0.22228 0.68918 0.0
H579 H 0.9376 0.1664 0.72024 0.0
C580 C 0.9379 0.00358 0.83333 0.0
C581 C 0.96508 0.04034 0.85025 0.0
C582 C 0.93632 0.00372 0.80504 0.0
C583 C 0.96124 0.04095 0.79335 0.0
C584 C 0.98612 0.07891 0.81002 0.0
C585 C 0.98852 0.07836 0.83837 0.0
C586 C 0.96477 0.03834 0.76405 0.0
C587 C 0.93591 0.07146 0.74595 0.0
C588 C 0.99516 0.0021 0.75393 0.0
C589 C 0.0276 0.96709 0.77241 0.0
C590 C 0.06813 0.98299 0.79433 0.0
C591 C 0.0981 0.94983 0.81187 0.0
C592 C 0.08819 0.90063 0.80756 0.0
C593 C 0.04839 0.8845 0.78565 0.0
C594 C 0.01824 0.91753 0.76808 0.0
C595 C 0.98571 0.06359 0.63597 0.0
C596 C 0.97269 0.01975 0.62172 0.0
C597 C 0.98436 0.06765 0.66393 0.0
C598 C 0.9693 0.02813 0.67802 0.0
C599 C 0.95727 0.98413 0.66396 0.0
C600 C 0.95905 0.97994 0.63611 0.0
C601 C 0.96632 0.03232 0.70749 0.0
C602 C 0.99545 0.99946 0.72576 0.0
C603 C 0.93564 0.06852 0.71765 0.0
C604 C 0.90114 0.10222 0.69913 0.0
C605 C 0.86158 0.08473 0.6772 0.0
C606 C 0.82964 0.11666 0.65963 0.0
C607 C 0.83656 0.16619 0.66393 0.0
C608 C 0.87532 0.1839 0.68585 0.0
C609 C 0.90744 0.15211 0.70346 0.0
H610 H 0.81179 0.19086 0.6503 0.0
H611 H 0.11145 0.87501 0.82116 0.0
H612 H 0.52833 0.44995 0.66043 0.0
H613 H 0.538 0.45082 0.71047 0.0
H614 H 0.5972 0.59686 0.71402 0.0
H615 H 0.59003 0.59499 0.66395 0.0
H616 H 0.65096 0.55169 0.75523 0.0
H617 H 0.4633 0.56784 0.71828 0.0
H618 H 0.37534 0.54757 0.68908 0.0
H619 H 0.37575 0.41127 0.72845 0.0
H620 H 0.46412 0.43044 0.75763 0.0
H621 H 0.58096 0.60043 0.88814 0.0
H622 H 0.58343 0.60158 0.83883 0.0
H623 H 0.57345 0.44683 0.83514 0.0
H624 H 0.57191 0.44545 0.88441 0.0
H625 H 0.49469 0.49997 0.79477 0.0
H626 H 0.68592 0.48891 0.83226 0.0
H627 H 0.77059 0.5158 0.86226 0.0
H628 H 0.75805 0.65218 0.8223 0.0
H629 H 0.67276 0.62635 0.79235 0.0
C630 C 0.54363 0.48208 0.672 0.0
C631 C 0.55807 0.52253 0.65852 0.0
C632 C 0.54889 0.4827 0.70053 0.0
C633 C 0.56708 0.52434 0.716 0.0
C634 C 0.58287 0.5644 0.70254 0.0
C635 C 0.5787 0.56339 0.67401 0.0
C636 C 0.56869 0.52619 0.74609 0.0
C637 C 0.61649 0.54097 0.7638 0.0
C638 C 0.52386 0.51201 0.75741 0.0
C639 C 0.47057 0.50041 0.73997 0.0
C640 C 0.44481 0.5334 0.72058 0.0
C641 C 0.39486 0.52213 0.70405 0.0
C642 C 0.37003 0.47812 0.70686 0.0
C643 C 0.39506 0.44533 0.72627 0.0
C644 C 0.44506 0.4564 0.74283 0.0
C645 C 0.57973 0.56676 0.87676 0.0
C646 C 0.57636 0.52286 0.8899 0.0
C647 C 0.58128 0.56744 0.84875 0.0
C648 C 0.57867 0.52427 0.83352 0.0
C649 C 0.57559 0.48043 0.84666 0.0
C650 C 0.57498 0.47969 0.87472 0.0
C651 C 0.57691 0.52478 0.80361 0.0
C652 C 0.52897 0.51067 0.78603 0.0
C653 C 0.6211 0.54055 0.79246 0.0
C654 C 0.67265 0.55588 0.81026 0.0
C655 C 0.70094 0.5248 0.83004 0.0
C656 C 0.7491 0.53981 0.847 0.0
C657 C 0.76961 0.58572 0.84425 0.0
C658 C 0.74207 0.61665 0.82445 0.0
C659 C 0.69385 0.60183 0.80746 0.0
H660 H 0.80689 0.59728 0.8574 0.0
H661 H 0.33135 0.46946 0.69404 0.0
H662 H 0.43703 0.44441 0.34699 0.0
H663 H 0.43721 0.44422 0.29741 0.0
H664 H 0.52299 0.57939 0.30703 0.0
H665 H 0.52366 0.57932 0.35652 0.0
H666 H 0.43252 0.57207 0.26062 0.0
H667 H 0.59395 0.48798 0.30362 0.0
H668 H 0.64345 0.4254 0.33282 0.0
H669 H 0.55393 0.31564 0.28141 0.0
H670 H 0.50327 0.37767 0.25214 0.0
H671 H 0.51774 0.58676 0.13473 0.0
H672 H 0.51909 0.58468 0.18401 0.0
H673 H 0.47083 0.43553 0.1764 0.0
H674 H 0.47296 0.43641 0.12744 0.0
H675 H 0.53958 0.44847 0.22204 0.0
H676 H 0.37881 0.52809 0.17861 0.0
H677 H 0.3247 0.58792 0.1492 0.0
H678 H 0.40515 0.70212 0.20058 0.0
H679 H 0.46031 0.64296 0.2301 0.0
C680 C 0.45531 0.47425 0.33836 0.0
C681 C 0.4805 0.51179 0.35539 0.0
C682 C 0.4556 0.47402 0.3102 0.0
C683 C 0.48039 0.51168 0.29876 0.0
C684 C 0.50373 0.55006 0.31558 0.0
C685 C 0.50425 0.5499 0.34374 0.0
C686 C 0.48382 0.5104 0.26938 0.0
C687 C 0.45629 0.5454 0.25215 0.0
C688 C 0.51373 0.47475 0.25841 0.0
C689 C 0.5444 0.43746 0.27588 0.0
C690 C 0.58446 0.45052 0.2987 0.0
C691 C 0.6128 0.41515 0.31523 0.0
C692 C 0.60173 0.36658 0.30902 0.0
C693 C 0.5624 0.35328 0.28622 0.0
C694 C 0.53388 0.38853 0.26964 0.0
C695 C 0.50863 0.55319 0.14361 0.0
C696 C 0.49456 0.51191 0.12703 0.0
C697 C 0.50868 0.55224 0.17175 0.0
C698 C 0.49362 0.51031 0.18376 0.0
C699 C 0.48201 0.46845 0.16753 0.0
C700 C 0.4827 0.46917 0.13947 0.0
C701 C 0.48842 0.51042 0.21304 0.0
C702 C 0.51559 0.47515 0.23034 0.0
C703 C 0.45741 0.54542 0.224 0.0
C704 C 0.42404 0.5811 0.20641 0.0
C705 C 0.38521 0.56598 0.18353 0.0
C706 C 0.35432 0.59976 0.16685 0.0
C707 C 0.36157 0.64879 0.17298 0.0
C708 C 0.39963 0.66413 0.19584 0.0
C709 C 0.43069 0.63048 0.21257 0.0
H710 H 0.33762 0.6749 0.16004 0.0
H711 H 0.62372 0.33924 0.32184 0.0
loop_
_geom_bond_atom_site_label_1
_geom_bond_atom_site_label_2
_geom_bond_distance
_geom_bond_site_symmetry_2
_ccdc_geom_bond_type
C0 O16 1.251 . S
C0 O18 1.254 1_554 S
N1 C2 1.333 1_455 S
N1 C6 1.307 . S
N1 Zn7 2.020 . S
C2 N1 1.333 1_655 S
C2 C3 1.379 . S
C2 H20 0.952 1_545 S
C3 C2 1.379 . S
C3 C4 1.390 1_655 S
C3 H30 0.949 1_545 S
C4 C3 1.390 1_455 S
C4 C5 1.357 . S
C5 C4 1.357 . S
C5 C6 1.370 . S
C5 H31 0.950 . S
C6 N1 1.307 . S
C6 C5 1.370 . S
C6 H24 0.948 . S
Zn7 N1 2.020 . S
Zn7 O16 2.039 1_445 S
Zn7 O22 2.034 1_455 S
Zn7 O26 2.025 . S
Zn7 O28 2.024 1_545 S
C8 O27 1.246 1_554 S
C8 O28 1.249 . S
N9 C10 1.293 1_455 S
N9 C11 1.349 . S
N9 Zn15 2.017 . S
C10 N9 1.293 1_655 S
C10 C14 1.370 . S
C10 H21 0.948 1_545 S
C11 N9 1.349 . S
C11 C12 1.379 . S
C11 H19 0.952 . S
C12 C11 1.379 . S
C12 C13 1.390 1_455 S
C12 H32 0.949 . S
C13 C12 1.390 1_655 S
C13 C14 1.357 . S
C14 C10 1.370 . S
C14 C13 1.357 . S
C14 H33 0.950 1_545 S
Zn15 N9 2.017 . S
Zn15 O18 2.025 1_445 S
Zn15 O23 2.024 1_455 S
Zn15 O25 2.039 . S
Zn15 O27 2.034 1_545 S
O16 C0 1.251 . S
O16 Zn7 2.039 1_665 S
C17 O22 1.246 . S
C17 O23 1.249 1_554 S
O18 C0 1.254 1_556 S
O18 Zn15 2.025 1_665 S
H19 C11 0.952 . S
H20 C2 0.952 1_565 S
H21 C10 0.948 1_565 S
O22 Zn7 2.034 1_655 S
O22 C17 1.246 . S
O23 Zn15 2.024 1_655 S
O23 C17 1.249 1_556 S
H24 C6 0.948 . S
O25 Zn15 2.039 . S
O25 C29 1.251 1_556 S
O26 Zn7 2.025 . S
O26 C29 1.254 . S
O27 C8 1.246 1_556 S
O27 Zn15 2.034 1_565 S
O28 Zn7 2.024 1_565 S
O28 C8 1.249 . S
C29 O25 1.251 1_554 S
C29 O26 1.254 . S
H30 C3 0.949 1_565 S
H31 C5 0.950 . S
H32 C12 0.949 . S
H33 C14 0.950 1_565 S
C34 O50 1.251 . S
C34 O52 1.254 . S
N35 C36 1.333 . S
N35 C40 1.307 . S
N35 Zn41 2.020 . S
C36 N35 1.333 . S
C36 C37 1.379 . S
C36 H54 0.952 . S
C37 C36 1.379 . S
C37 C38 1.390 . S
C37 H64 0.949 . S
C38 C37 1.390 . S
C38 C39 1.357 . S
C39 C38 1.357 . S
C39 C40 1.370 . S
C39 H65 0.950 . S
C40 N35 1.307 . S
C40 C39 1.370 . S
C40 H58 0.948 . S
Zn41 N35 2.020 . S
Zn41 O50 2.039 . S
Zn41 O56 2.034 . S
Zn41 O60 2.025 . S
Zn41 O62 2.024 . S
C42 O61 1.246 . S
C42 O62 1.249 . S
N43 C44 1.307 . S
N43 C45 1.333 . S
N43 Zn49 2.020 . S
C44 N43 1.307 . S
C44 C48 1.370 . S
C44 H55 0.948 . S
C45 N43 1.333 . S
C45 C46 1.379 . S
C45 H53 0.952 . S
C46 C45 1.379 . S
C46 C47 1.390 . S
C46 H66 0.949 . S
C47 C46 1.390 . S
C47 C48 1.357 . S
C48 C44 1.370 . S
C48 C47 1.357 . S
C48 H67 0.950 . S
Zn49 N43 2.020 . S
Zn49 O52 2.025 . S
Zn49 O57 2.024 . S
Zn49 O59 2.039 . S
Zn49 O61 2.034 . S
O50 C34 1.251 . S
O50 Zn41 2.039 . S
C51 O56 1.246 . S
C51 O57 1.249 . S
O52 C34 1.254 . S
O52 Zn49 2.025 . S
H53 C45 0.952 . S
H54 C36 0.952 . S
H55 C44 0.948 . S
O56 Zn41 2.034 . S
O56 C51 1.246 . S
O57 Zn49 2.024 . S
O57 C51 1.249 . S
H58 C40 0.948 . S
O59 Zn49 2.039 . S
O59 C63 1.251 . S
O60 Zn41 2.025 . S
O60 C63 1.254 . S
O61 C42 1.246 . S
O61 Zn49 2.034 . S
O62 Zn41 2.024 . S
O62 C42 1.249 . S
C63 O59 1.251 . S
C63 O60 1.254 . S
H64 C37 0.949 . S
H65 C39 0.950 . S
H66 C46 0.949 . S
H67 C48 0.950 . S
H68 C73 0.929 . S
H69 C78 0.931 . S
H70 C76 0.930 1_655 S
N71 N72 1.234 . S
N71 C75 1.453 1_655 S
N72 N71 1.234 . S
C73 H68 0.929 . S
C73 C74 1.373 . S
C73 C75 1.368 1_565 S
C74 C73 1.373 . S
C74 C78 1.397 . S
C75 N71 1.453 1_455 S
C75 C73 1.368 1_545 S
C75 C76 1.373 . S
C76 H70 0.930 1_455 S
C76 C75 1.373 . S
C76 C77 1.371 . S
C77 C76 1.371 . S
C77 C78 1.383 1_545 S
C78 H69 0.931 . S
C78 C74 1.397 . S
C78 C77 1.383 1_565 S
H79 C84 0.926 1_565 S
H80 C89 0.931 . S
H81 C87 0.930 . S
N82 N83 1.234 . S
N82 C86 1.453 . S
N83 N82 1.234 . S
C84 H79 0.926 1_545 S
C84 C85 1.365 1_545 S
C84 C86 1.379 1_655 S
C85 C84 1.365 1_565 S
C85 C89 1.397 . S
C86 N82 1.453 . S
C86 C84 1.379 1_455 S
C86 C87 1.373 . S
C87 H81 0.930 . S
C87 C86 1.373 . S
C87 C88 1.371 1_455 S
C88 C87 1.371 1_655 S
C88 C89 1.383 1_545 S
C89 H80 0.931 . S
C89 C85 1.397 . S
C89 C88 1.383 1_565 S
H90 C95 0.929 1_554 S
H91 C100 0.931 . S
H92 C98 0.930 . S
N93 N94 1.234 . S
N93 C97 1.453 . S
N94 N93 1.234 . S
C95 H90 0.929 1_556 S
C95 C96 1.373 . S
C95 C97 1.368 . S
C96 C95 1.373 . S
C96 C100 1.397 . S
C97 N93 1.453 . S
C97 C95 1.368 . S
C97 C98 1.373 . S
C98 H92 0.930 . S
C98 C97 1.373 . S
C98 C99 1.371 . S
C99 C98 1.371 . S
C99 C100 1.383 . S
C100 H91 0.931 . S
C100 C96 1.397 . S
C100 C99 1.383 . S
H101 C106 0.929 . S
H102 C111 0.931 . S
H103 C109 0.930 . S
N104 N105 1.234 . S
N104 C108 1.453 . S
N105 N104 1.234 . S
C106 H101 0.929 . S
C106 C107 1.373 . S
C106 C108 1.368 . S
C107 C106 1.373 . S
C107 C111 1.397 . S
C108 N104 1.453 . S
C108 C106 1.368 . S
C108 C109 1.373 . S
C109 H103 0.930 . S
C109 C108 1.373 . S
C109 C110 1.371 . S
C110 C109 1.371 . S
C110 C111 1.383 . S
C111 H102 0.931 . S
C111 C107 1.397 . S
C111 C110 1.383 . S
H112 C130 0.951 . S
H113 C132 0.951 . S
H114 C134 0.950 . S
H115 C135 0.950 . S
H116 C137 0.950 . S
H117 C140 0.950 . S
H118 C141 0.950 . S
H119 C143 0.950 . S
H120 C144 0.950 . S
H121 C145 0.951 . S
H122 C147 0.951 1_556 S
H123 C149 0.950 . S
H124 C150 0.950 . S
H125 C152 0.950 . S
H126 C155 0.950 . S
H127 C156 0.950 . S
H128 C158 0.950 1_556 S
H129 C159 0.950 1_556 S
C130 H112 0.951 . S
C130 C131 1.366 . S
C130 C132 1.388 . S
C131 C130 1.366 . S
C131 C135 1.385 1_554 S
C132 H113 0.951 . S
C132 C130 1.388 . S
C132 C133 1.366 . S
C133 C132 1.366 . S
C133 C134 1.414 1_554 S
C133 C136 1.499 . S
C134 H114 0.950 . S
C134 C133 1.414 1_556 S
C134 C135 1.374 . S
C135 H115 0.950 . S
C135 C131 1.385 1_556 S
C135 C134 1.374 . S
C136 C133 1.499 . S
C136 C137 1.373 . S
C136 C138 1.389 . S
C137 H116 0.950 . S
C137 C136 1.373 . S
C137 C153 1.377 . S
C138 C136 1.389 . S
C138 C139 1.524 . S
C138 C152 1.377 . S
C139 C138 1.524 . S
C139 C140 1.397 1_554 S
C139 C144 1.363 . S
C140 H117 0.950 . S
C140 C139 1.397 1_556 S
C140 C141 1.334 . S
C141 H118 0.950 . S
C141 C140 1.334 . S
C141 C142 1.287 1_556 S
C142 C141 1.287 1_554 S
C142 C143 1.524 . S
C142 H161 0.913 . S
C143 H119 0.950 . S
C143 C142 1.524 . S
C143 C144 1.415 . S
C144 H120 0.950 . S
C144 C139 1.363 . S
C144 C143 1.415 . S
C145 H121 0.951 . S
C145 C146 1.366 . S
C145 C147 1.388 . S
C146 C145 1.366 . S
C146 C150 1.385 . S
C147 H122 0.951 1_554 S
C147 C145 1.388 . S
C147 C148 1.366 . S
C148 C147 1.366 . S
C148 C149 1.414 . S
C148 C151 1.499 . S
C149 H123 0.950 . S
C149 C148 1.414 . S
C149 C150 1.374 . S
C150 H124 0.950 . S
C150 C146 1.385 . S
C150 C149 1.374 . S
C151 C148 1.499 . S
C151 C152 1.373 . S
C151 C153 1.389 . S
C152 H125 0.950 . S
C152 C138 1.377 . S
C152 C151 1.373 . S
C153 C137 1.377 . S
C153 C151 1.389 . S
C153 C154 1.524 . S
C154 C153 1.524 . S
C154 C155 1.397 . S
C154 C159 1.363 . S
C155 H126 0.950 . S
C155 C154 1.397 . S
C155 C156 1.334 . S
C156 H127 0.950 . S
C156 C155 1.334 . S
C156 C157 1.287 . S
C157 C156 1.287 . S
C157 C158 1.524 . S
C157 H160 0.999 . S
C158 H128 0.950 1_554 S
C158 C157 1.524 . S
C158 C159 1.415 . S
C159 H129 0.950 1_554 S
C159 C154 1.363 . S
C159 C158 1.415 . S
H160 C157 0.999 . S
H161 C142 0.913 . S
H162 C180 0.951 . S
H163 C182 0.951 . S
H164 C184 0.950 . S
H165 C185 0.950 . S
H166 C187 0.950 . S
H167 C190 0.950 . S
H168 C191 0.950 . S
H169 C193 0.950 . S
H170 C194 0.950 . S
H171 C195 0.951 . S
H172 C197 0.951 . S
H173 C199 0.950 . S
H174 C200 0.950 . S
H175 C202 0.950 . S
H176 C205 0.950 . S
H177 C206 0.950 . S
H178 C208 0.950 . S
H179 C209 0.950 . S
C180 H162 0.951 . S
C180 C181 1.366 . S
C180 C182 1.388 . S
C181 C180 1.366 . S
C181 C185 1.385 1_554 S
C182 H163 0.951 . S
C182 C180 1.388 . S
C182 C183 1.366 . S
C183 C182 1.366 . S
C183 C184 1.414 1_554 S
C183 C186 1.499 . S
C184 H164 0.950 . S
C184 C183 1.414 1_556 S
C184 C185 1.374 . S
C185 H165 0.950 . S
C185 C181 1.385 1_556 S
C185 C184 1.374 . S
C186 C183 1.499 . S
C186 C187 1.373 1_554 S
C186 C188 1.389 . S
C187 H166 0.950 . S
C187 C186 1.373 1_556 S
C187 C203 1.377 . S
C188 C186 1.389 . S
C188 C189 1.524 . S
C188 C202 1.377 . S
C189 C188 1.524 . S
C189 C190 1.397 . S
C189 C194 1.363 . S
C190 H167 0.950 . S
C190 C189 1.397 . S
C190 C191 1.334 . S
C191 H168 0.950 . S
C191 C190 1.334 . S
C191 C192 1.287 . S
C192 C191 1.287 . S
C192 C193 1.524 . S
C192 H211 0.913 . S
C193 H169 0.950 . S
C193 C192 1.524 . S
C193 C194 1.415 . S
C194 H170 0.950 . S
C194 C189 1.363 . S
C194 C193 1.415 . S
C195 H171 0.951 . S
C195 C196 1.366 . S
C195 C197 1.388 . S
C196 C195 1.366 . S
C196 C200 1.385 1_556 S
C197 H172 0.951 . S
C197 C195 1.388 . S
C197 C198 1.366 . S
C198 C197 1.366 . S
C198 C199 1.414 1_556 S
C198 C201 1.503 . S
C199 H173 0.950 . S
C199 C198 1.414 1_554 S
C199 C200 1.374 . S
C200 H174 0.950 . S
C200 C196 1.385 1_554 S
C200 C199 1.374 . S
C201 C198 1.503 . S
C201 C202 1.361 1_556 S
C201 C203 1.398 . S
C202 H175 0.950 . S
C202 C188 1.377 . S
C202 C201 1.361 1_554 S
C203 C187 1.377 . S
C203 C201 1.398 . S
C203 C204 1.524 . S
C204 C203 1.524 . S
C204 C205 1.397 . S
C204 C209 1.363 . S
C205 H176 0.950 . S
C205 C204 1.397 . S
C205 C206 1.334 . S
C206 H177 0.950 . S
C206 C205 1.334 . S
C206 C207 1.287 . S
C207 C206 1.287 . S
C207 C208 1.524 . S
C207 H210 0.999 . S
C208 H178 0.950 . S
C208 C207 1.524 . S
C208 C209 1.415 . S
C209 H179 0.950 . S
C209 C204 1.363 . S
C209 C208 1.415 . S
H210 C207 0.999 . S
H211 C192 0.913 . S
H212 C230 0.951 . S
H213 C232 0.951 . S
H214 C234 0.950 . S
H215 C235 0.950 . S
H216 C237 0.950 . S
H217 C240 0.950 . S
H218 C241 0.950 . S
H219 C243 0.950 1_556 S
H220 C244 0.950 1_556 S
H221 C245 0.951 . S
H222 C247 0.951 . S
H223 C249 0.950 1_556 S
H224 C250 0.950 1_556 S
H225 C252 0.950 . S
H226 C255 0.950 . S
H227 C256 0.950 . S
H228 C258 0.950 . S
H229 C259 0.950 . S
C230 H212 0.951 . S
C230 C231 1.366 1_556 S
C230 C232 1.388 . S
C231 C230 1.366 1_554 S
C231 C235 1.385 . S
C232 H213 0.951 . S
C232 C230 1.388 . S
C232 C233 1.366 1_556 S
C233 C232 1.366 1_554 S
C233 C234 1.414 . S
C233 C236 1.499 . S
C234 H214 0.950 . S
C234 C233 1.414 . S
C234 C235 1.374 . S
C235 H215 0.950 . S
C235 C231 1.385 . S
C235 C234 1.374 . S
C236 C233 1.499 . S
C236 C237 1.373 . S
C236 C238 1.389 . S
C237 H216 0.950 . S
C237 C236 1.373 . S
C237 C253 1.377 . S
C238 C236 1.389 . S
C238 C239 1.524 . S
C238 C252 1.377 . S
C239 C238 1.524 . S
C239 C240 1.397 . S
C239 C244 1.363 . S
C240 H217 0.950 . S
C240 C239 1.397 . S
C240 C241 1.334 . S
C241 H218 0.950 . S
C241 C240 1.334 . S
C241 C242 1.287 . S
C242 C241 1.287 . S
C242 C243 1.524 . S
C242 H261 0.913 . S
C243 H219 0.950 1_554 S
C243 C242 1.524 . S
C243 C244 1.415 . S
C244 H220 0.950 1_554 S
C244 C239 1.363 . S
C244 C243 1.415 . S
C245 H221 0.951 . S
C245 C246 1.366 . S
C245 C247 1.388 . S
C246 C245 1.366 . S
C246 C250 1.385 . S
C247 H222 0.951 . S
C247 C245 1.388 . S
C247 C248 1.366 . S
C248 C247 1.366 . S
C248 C249 1.414 . S
C248 C251 1.499 . S
C249 H223 0.950 1_554 S
C249 C248 1.414 . S
C249 C250 1.374 . S
C250 H224 0.950 1_554 S
C250 C246 1.385 . S
C250 C249 1.374 . S
C251 C248 1.499 . S
C251 C252 1.373 . S
C251 C253 1.389 . S
C252 H225 0.950 . S
C252 C238 1.377 . S
C252 C251 1.373 . S
C253 C237 1.377 . S
C253 C251 1.389 . S
C253 C254 1.524 . S
C254 C253 1.524 . S
C254 C255 1.397 1_554 S
C254 C259 1.363 . S
C255 H226 0.950 . S
C255 C254 1.397 1_556 S
C255 C256 1.334 . S
C256 H227 0.950 . S
C256 C255 1.334 . S
C256 C257 1.287 1_556 S
C257 C256 1.287 1_554 S
C257 C258 1.524 . S
C257 H260 0.999 . S
C258 H228 0.950 . S
C258 C257 1.524 . S
C258 C259 1.415 . S
C259 H229 0.950 . S
C259 C254 1.363 . S
C259 C258 1.415 . S
H260 C257 0.999 . S
H261 C242 0.913 . S
H262 C280 0.951 . S
H263 C282 0.952 . S
H264 C284 0.959 1_556 S
H265 C285 0.950 . S
H266 C287 0.950 . S
H267 C290 0.950 . S
H268 C291 0.950 . S
H269 C293 0.950 . S
H270 C294 0.950 . S
H271 C295 0.951 . S
H272 C297 0.951 . S
H273 C299 0.950 . S
H274 C300 0.950 . S
H275 C302 0.950 . S
H276 C305 0.950 . S
H277 C306 0.950 . S
H278 C308 0.950 . S
H279 C309 0.950 . S
C280 H262 0.951 . S
C280 C281 1.366 . S
C280 C282 1.388 . S
C281 C280 1.366 . S
C281 C285 1.385 . S
C282 H263 0.952 . S
C282 C280 1.388 . S
C282 C283 1.366 . S
C283 C282 1.366 . S
C283 C284 1.412 . S
C283 C286 1.499 1_554 S
C284 H264 0.959 1_554 S
C284 C283 1.412 . S
C284 C285 1.373 . S
C285 H265 0.950 . S
C285 C281 1.385 . S
C285 C284 1.373 . S
C286 C283 1.499 1_556 S
C286 C287 1.373 . S
C286 C288 1.389 1_556 S
C287 H266 0.950 . S
C287 C286 1.373 . S
C287 C303 1.377 . S
C288 C286 1.389 1_554 S
C288 C289 1.524 . S
C288 C302 1.377 . S
C289 C288 1.524 . S
C289 C290 1.397 . S
C289 C294 1.363 . S
C290 H267 0.950 . S
C290 C289 1.397 . S
C290 C291 1.334 . S
C291 H268 0.950 . S
C291 C290 1.334 . S
C291 C292 1.287 . S
C292 C291 1.287 . S
C292 C293 1.524 . S
C292 H311 0.913 . S
C293 H269 0.950 . S
C293 C292 1.524 . S
C293 C294 1.415 . S
C294 H270 0.950 . S
C294 C289 1.363 . S
C294 C293 1.415 . S
C295 H271 0.951 . S
C295 C296 1.366 . S
C295 C297 1.388 . S
C296 C295 1.366 . S
C296 C300 1.385 . S
C297 H272 0.951 . S
C297 C295 1.388 . S
C297 C298 1.366 . S
C298 C297 1.366 . S
C298 C299 1.414 . S
C298 C301 1.499 . S
C299 H273 0.950 . S
C299 C298 1.414 . S
C299 C300 1.374 . S
C300 H274 0.950 . S
C300 C296 1.385 . S
C300 C299 1.374 . S
C301 C298 1.499 . S
C301 C302 1.373 1_556 S
C301 C303 1.389 . S
C302 H275 0.950 . S
C302 C288 1.377 . S
C302 C301 1.373 1_554 S
C303 C287 1.377 . S
C303 C301 1.389 . S
C303 C304 1.524 . S
C304 C303 1.524 . S
C304 C305 1.397 . S
C304 C309 1.363 . S
C305 H276 0.950 . S
C305 C304 1.397 . S
C305 C306 1.334 . S
C306 H277 0.950 . S
C306 C305 1.334 . S
C306 C307 1.287 . S
C307 C306 1.287 . S
C307 C308 1.524 . S
C307 H310 0.999 . S
C308 H278 0.950 . S
C308 C307 1.524 . S
C308 C309 1.415 . S
C309 H279 0.950 . S
C309 C304 1.363 . S
C309 C308 1.415 . S
H310 C307 0.999 . S
H311 C292 0.913 . S
H312 C330 0.951 . S
H313 C332 0.951 . S
H314 C334 0.950 . S
H315 C335 0.950 . S
H316 C337 0.950 . S
H317 C340 0.950 . S
H318 C341 0.950 . S
H319 C343 0.950 . S
H320 C344 0.950 . S
H321 C345 0.951 . S
H322 C347 0.951 . S
H323 C349 0.950 . S
H324 C350 0.950 . S
H325 C352 0.950 . S
H326 C355 0.950 . S
H327 C356 0.950 . S
H328 C358 0.950 . S
H329 C359 0.950 . S
C330 H312 0.951 . S
C330 C331 1.366 . S
C330 C332 1.388 . S
C331 C330 1.366 . S
C331 C335 1.385 . S
C332 H313 0.951 . S
C332 C330 1.388 . S
C332 C333 1.366 . S
C333 C332 1.366 . S
C333 C334 1.414 . S
C333 C336 1.499 . S
C334 H314 0.950 . S
C334 C333 1.414 . S
C334 C335 1.374 . S
C335 H315 0.950 . S
C335 C331 1.385 . S
C335 C334 1.374 . S
C336 C333 1.499 . S
C336 C337 1.373 . S
C336 C338 1.389 . S
C337 H316 0.950 . S
C337 C336 1.373 . S
C337 C353 1.377 . S
C338 C336 1.389 . S
C338 C339 1.524 . S
C338 C352 1.377 . S
C339 C338 1.524 . S
C339 C340 1.397 . S
C339 C344 1.363 . S
C340 H317 0.950 . S
C340 C339 1.397 . S
C340 C341 1.334 . S
C341 H318 0.950 . S
C341 C340 1.334 . S
C341 C342 1.287 . S
C342 C341 1.287 . S
C342 C343 1.524 . S
C342 H361 0.913 . S
C343 H319 0.950 . S
C343 C342 1.524 . S
C343 C344 1.415 . S
C344 H320 0.950 . S
C344 C339 1.363 . S
C344 C343 1.415 . S
C345 H321 0.951 . S
C345 C346 1.366 . S
C345 C347 1.388 . S
C346 C345 1.366 . S
C346 C350 1.385 . S
C347 H322 0.951 . S
C347 C345 1.388 . S
C347 C348 1.366 . S
C348 C347 1.366 . S
C348 C349 1.414 . S
C348 C351 1.499 . S
C349 H323 0.950 . S
C349 C348 1.414 . S
C349 C350 1.374 . S
C350 H324 0.950 . S
C350 C346 1.385 . S
C350 C349 1.374 . S
C351 C348 1.499 . S
C351 C352 1.373 . S
C351 C353 1.389 . S
C352 H325 0.950 . S
C352 C338 1.377 . S
C352 C351 1.373 . S
C353 C337 1.377 . S
C353 C351 1.389 . S
C353 C354 1.524 . S
C354 C353 1.524 . S
C354 C355 1.397 . S
C354 C359 1.363 . S
C355 H326 0.950 . S
C355 C354 1.397 . S
C355 C356 1.334 . S
C356 H327 0.950 . S
C356 C355 1.334 . S
C356 C357 1.287 . S
C357 C356 1.287 . S
C357 C358 1.524 . S
C357 H360 0.999 . S
C358 H328 0.950 . S
C358 C357 1.524 . S
C358 C359 1.415 . S
C359 H329 0.950 . S
C359 C354 1.363 . S
C359 C358 1.415 . S
H360 C357 0.999 . S
H361 C342 0.913 . S
H362 C380 0.951 . S
H363 C382 0.951 . S
H364 C384 0.950 . S
H365 C385 0.950 . S
H366 C387 0.950 . S
H367 C390 0.950 . S
H368 C391 0.950 . S
H369 C393 0.950 . S
H370 C394 0.950 . S
H371 C395 0.951 . S
H372 C397 0.951 . S
H373 C399 0.950 . S
H374 C400 0.950 . S
H375 C402 0.950 . S
H376 C405 0.950 . S
H377 C406 0.950 . S
H378 C408 0.950 . S
H379 C409 0.950 . S
C380 H362 0.951 . S
C380 C381 1.366 . S
C380 C382 1.388 . S
C381 C380 1.366 . S
C381 C385 1.385 . S
C382 H363 0.951 . S
C382 C380 1.388 . S
C382 C383 1.366 . S
C383 C382 1.366 . S
C383 C384 1.414 . S
C383 C386 1.499 . S
C384 H364 0.950 . S
C384 C383 1.414 . S
C384 C385 1.374 . S
C385 H365 0.950 . S
C385 C381 1.385 . S
C385 C384 1.374 . S
C386 C383 1.499 . S
C386 C387 1.373 . S
C386 C388 1.389 . S
C387 H366 0.950 . S
C387 C386 1.373 . S
C387 C403 1.377 . S
C388 C386 1.389 . S
C388 C389 1.524 . S
C388 C402 1.377 . S
C389 C388 1.524 . S
C389 C390 1.397 . S
C389 C394 1.363 . S
C390 H367 0.950 . S
C390 C389 1.397 . S
C390 C391 1.334 . S
C391 H368 0.950 . S
C391 C390 1.334 . S
C391 C392 1.287 . S
C392 C391 1.287 . S
C392 C393 1.524 . S
C392 H411 0.913 . S
C393 H369 0.950 . S
C393 C392 1.524 . S
C393 C394 1.415 . S
C394 H370 0.950 . S
C394 C389 1.363 . S
C394 C393 1.415 . S
C395 H371 0.951 . S
C395 C396 1.366 . S
C395 C397 1.388 . S
C396 C395 1.366 . S
C396 C400 1.385 . S
C397 H372 0.951 . S
C397 C395 1.388 . S
C397 C398 1.366 . S
C398 C397 1.366 . S
C398 C399 1.414 . S
C398 C401 1.499 . S
C399 H373 0.950 . S
C399 C398 1.414 . S
C399 C400 1.374 . S
C400 H374 0.950 . S
C400 C396 1.385 . S
C400 C399 1.374 . S
C401 C398 1.499 . S
C401 C402 1.373 . S
C401 C403 1.389 . S
C402 H375 0.950 . S
C402 C388 1.377 . S
C402 C401 1.373 . S
C403 C387 1.377 . S
C403 C401 1.389 . S
C403 C404 1.524 . S
C404 C403 1.524 . S
C404 C405 1.397 . S
C404 C409 1.363 . S
C405 H376 0.950 . S
C405 C404 1.397 . S
C405 C406 1.334 . S
C406 H377 0.950 . S
C406 C405 1.334 . S
C406 C407 1.287 . S
C407 C406 1.287 . S
C407 C408 1.524 . S
C407 H410 0.999 . S
C408 H378 0.950 . S
C408 C407 1.524 . S
C408 C409 1.415 . S
C409 H379 0.950 . S
C409 C404 1.363 . S
C409 C408 1.415 . S
H410 C407 0.999 . S
H411 C392 0.913 . S
H412 C430 0.951 . S
H413 C432 0.951 . S
H414 C434 0.950 . S
H415 C435 0.950 . S
H416 C437 0.950 . S
H417 C440 0.950 . S
H418 C441 0.950 . S
H419 C443 0.950 . S
H420 C444 0.950 . S
H421 C445 0.951 . S
H422 C447 0.951 . S
H423 C449 0.950 . S
H424 C450 0.950 . S
H425 C452 0.950 . S
H426 C455 0.950 . S
H427 C456 0.950 . S
H428 C458 0.950 . S
H429 C459 0.950 . S
C430 H412 0.951 . S
C430 C431 1.366 . S
C430 C432 1.388 . S
C431 C430 1.366 . S
C431 C435 1.385 . S
C432 H413 0.951 . S
C432 C430 1.388 . S
C432 C433 1.366 . S
C433 C432 1.366 . S
C433 C434 1.414 . S
C433 C436 1.499 . S
C434 H414 0.950 . S
C434 C433 1.414 . S
C434 C435 1.374 . S
C435 H415 0.950 . S
C435 C431 1.385 . S
C435 C434 1.374 . S
C436 C433 1.499 . S
C436 C437 1.373 . S
C436 C438 1.389 . S
C437 H416 0.950 . S
C437 C436 1.373 . S
C437 C453 1.377 . S
C438 C436 1.389 . S
C438 C439 1.524 . S
C438 C452 1.377 . S
C439 C438 1.524 . S
C439 C440 1.397 . S
C439 C444 1.363 . S
C440 H417 0.950 . S
C440 C439 1.397 . S
C440 C441 1.334 . S
C441 H418 0.950 . S
C441 C440 1.334 . S
C441 C442 1.287 . S
C442 C441 1.287 . S
C442 C443 1.524 . S
C442 H461 0.913 . S
C443 H419 0.950 . S
C443 C442 1.524 . S
C443 C444 1.415 . S
C444 H420 0.950 . S
C444 C439 1.363 . S
C444 C443 1.415 . S
C445 H421 0.951 . S
C445 C446 1.366 . S
C445 C447 1.388 . S
C446 C445 1.366 . S
C446 C450 1.385 . S
C447 H422 0.951 . S
C447 C445 1.388 . S
C447 C448 1.366 . S
C448 C447 1.366 . S
C448 C449 1.414 . S
C448 C451 1.499 . S
C449 H423 0.950 . S
C449 C448 1.414 . S
C449 C450 1.374 . S
C450 H424 0.950 . S
C450 C446 1.385 . S
C450 C449 1.374 . S
C451 C448 1.499 . S
C451 C452 1.373 . S
C451 C453 1.389 . S
C452 H425 0.950 . S
C452 C438 1.377 . S
C452 C451 1.373 . S
C453 C437 1.377 . S
C453 C451 1.389 . S
C453 C454 1.524 . S
C454 C453 1.524 . S
C454 C455 1.397 . S
C454 C459 1.363 . S
C455 H426 0.950 . S
C455 C454 1.397 . S
C455 C456 1.334 . S
C456 H427 0.950 . S
C456 C455 1.334 . S
C456 C457 1.287 . S
C457 C456 1.287 . S
C457 C458 1.524 . S
C457 H460 0.999 . S
C458 H428 0.950 . S
C458 C457 1.524 . S
C458 C459 1.415 . S
C459 H429 0.950 . S
C459 C454 1.363 . S
C459 C458 1.415 . S
H460 C457 0.999 . S
H461 C442 0.913 . S
H462 C480 0.951 . S
H463 C482 0.951 . S
H464 C484 0.950 . S
H465 C485 0.950 . S
H466 C487 0.950 . S
H467 C490 0.950 . S
H468 C491 0.950 . S
H469 C493 0.950 . S
H470 C494 0.950 . S
H471 C495 0.951 . S
H472 C497 0.951 . S
H473 C499 0.950 . S
H474 C500 0.950 . S
H475 C502 0.950 . S
H476 C505 0.950 . S
H477 C506 0.950 . S
H478 C508 0.950 . S
H479 C509 0.950 . S
C480 H462 0.951 . S
C480 C481 1.366 . S
C480 C482 1.388 . S
C481 C480 1.366 . S
C481 C485 1.385 . S
C482 H463 0.951 . S
C482 C480 1.388 . S
C482 C483 1.366 . S
C483 C482 1.366 . S
C483 C484 1.414 . S
C483 C486 1.499 . S
C484 H464 0.950 . S
C484 C483 1.414 . S
C484 C485 1.374 . S
C485 H465 0.950 . S
C485 C481 1.385 . S
C485 C484 1.374 . S
C486 C483 1.499 . S
C486 C487 1.373 . S
C486 C488 1.389 . S
C487 H466 0.950 . S
C487 C486 1.373 . S
C487 C503 1.377 . S
C488 C486 1.389 . S
C488 C489 1.524 . S
C488 C502 1.377 . S
C489 C488 1.524 . S
C489 C490 1.397 . S
C489 C494 1.363 . S
C490 H467 0.950 . S
C490 C489 1.397 . S
C490 C491 1.334 . S
C491 H468 0.950 . S
C491 C490 1.334 . S
C491 C492 1.287 . S
C492 C491 1.287 . S
C492 C493 1.524 . S
C492 H511 0.913 . S
C493 H469 0.950 . S
C493 C492 1.524 . S
C493 C494 1.415 . S
C494 H470 0.950 . S
C494 C489 1.363 . S
C494 C493 1.415 . S
C495 H471 0.951 . S
C495 C496 1.366 . S
C495 C497 1.388 . S
C496 C495 1.366 . S
C496 C500 1.385 . S
C497 H472 0.951 . S
C497 C495 1.388 . S
C497 C498 1.366 . S
C498 C497 1.366 . S
C498 C499 1.414 . S
C498 C501 1.499 . S
C499 H473 0.950 . S
C499 C498 1.414 . S
C499 C500 1.374 . S
C500 H474 0.950 . S
C500 C496 1.385 . S
C500 C499 1.374 . S
C501 C498 1.499 . S
C501 C502 1.373 . S
C501 C503 1.389 . S
C502 H475 0.950 . S
C502 C488 1.377 . S
C502 C501 1.373 . S
C503 C487 1.377 . S
C503 C501 1.389 . S
C503 C504 1.524 . S
C504 C503 1.524 . S
C504 C505 1.397 . S
C504 C509 1.363 . S
C505 H476 0.950 . S
C505 C504 1.397 . S
C505 C506 1.334 . S
C506 H477 0.950 . S
C506 C505 1.334 . S
C506 C507 1.287 . S
C507 C506 1.287 . S
C507 C508 1.524 . S
C507 H510 0.999 . S
C508 H478 0.950 . S
C508 C507 1.524 . S
C508 C509 1.415 . S
C509 H479 0.950 . S
C509 C504 1.363 . S
C509 C508 1.415 . S
H510 C507 0.999 . S
H511 C492 0.913 . S
H512 C530 0.951 . S
H513 C532 0.951 . S
H514 C534 0.950 . S
H515 C535 0.950 . S
H516 C537 0.950 . S
H517 C540 0.950 1_565 S
H518 C541 0.950 . S
H519 C543 0.950 . S
H520 C544 0.950 . S
H521 C545 0.951 . S
H522 C547 0.951 . S
H523 C549 0.950 . S
H524 C550 0.950 . S
H525 C552 0.950 . S
H526 C555 0.950 . S
H527 C556 0.950 . S
H528 C558 0.950 . S
H529 C559 0.950 . S
C530 H512 0.951 . S
C530 C531 1.366 . S
C530 C532 1.388 . S
C531 C530 1.366 . S
C531 C535 1.385 1_545 S
C532 H513 0.951 . S
C532 C530 1.388 . S
C532 C533 1.366 . S
C533 C532 1.366 . S
C533 C534 1.414 1_545 S
C533 C536 1.499 . S
C534 H514 0.950 . S
C534 C533 1.414 1_565 S
C534 C535 1.374 . S
C535 H515 0.950 . S
C535 C531 1.385 1_565 S
C535 C534 1.374 . S
C536 C533 1.499 . S
C536 C537 1.373 1_445 S
C536 C538 1.389 . S
C537 H516 0.950 . S
C537 C536 1.373 1_665 S
C537 C553 1.376 1_565 S
C538 C536 1.389 . S
C538 C539 1.524 . S
C538 C552 1.377 . S
C539 C538 1.524 . S
C539 C540 1.397 . S
C539 C544 1.363 . S
C540 H517 0.950 1_545 S
C540 C539 1.397 . S
C540 C541 1.334 . S
C541 H518 0.950 . S
C541 C540 1.334 . S
C541 C542 1.287 . S
C542 C541 1.287 . S
C542 C543 1.524 . S
C542 H561 0.913 . S
C543 H519 0.950 . S
C543 C542 1.524 . S
C543 C544 1.415 . S
C544 H520 0.950 . S
C544 C539 1.363 . S
C544 C543 1.415 . S
C545 H521 0.951 . S
C545 C546 1.366 1_565 S
C545 C547 1.388 . S
C546 C545 1.366 1_545 S
C546 C550 1.385 . S
C547 H522 0.951 . S
C547 C545 1.388 . S
C547 C548 1.366 1_565 S
C548 C547 1.366 1_545 S
C548 C549 1.414 . S
C548 C551 1.499 . S
C549 H523 0.950 . S
C549 C548 1.414 . S
C549 C550 1.374 . S
C550 H524 0.950 . S
C550 C546 1.385 . S
C550 C549 1.374 . S
C551 C548 1.499 . S
C551 C552 1.373 . S
C551 C553 1.391 1_455 S
C552 H525 0.950 . S
C552 C538 1.377 . S
C552 C551 1.373 . S
C553 C537 1.376 1_545 S
C553 C551 1.391 1_655 S
C553 C554 1.523 1_545 S
C554 C553 1.523 1_565 S
C554 C555 1.397 1_565 S
C554 C559 1.363 . S
C555 H526 0.950 . S
C555 C554 1.397 1_545 S
C555 C556 1.334 . S
C556 H527 0.950 . S
C556 C555 1.334 . S
C556 C557 1.287 1_545 S
C557 C556 1.287 1_565 S
C557 C558 1.524 . S
C557 H560 0.999 . S
C558 H528 0.950 . S
C558 C557 1.524 . S
C558 C559 1.415 . S
C559 H529 0.950 . S
C559 C554 1.363 . S
C559 C558 1.415 . S
H560 C557 0.999 . S
H561 C542 0.913 . S
H562 C580 0.951 . S
H563 C582 0.951 . S
H564 C584 0.950 . S
H565 C585 0.949 . S
H566 C587 0.950 . S
H567 C590 0.950 1_545 S
H568 C591 0.950 . S
H569 C593 0.950 . S
H570 C594 0.950 . S
H571 C595 0.949 1_455 S
H572 C597 0.951 1_455 S
H573 C599 0.950 . S
H574 C600 0.950 . S
H575 C602 0.950 . S
H576 C605 0.950 . S
H577 C606 0.950 . S
H578 C608 0.950 . S
H579 C609 0.950 . S
C580 H562 0.951 . S
C580 C581 1.366 1_565 S
C580 C582 1.388 . S
C581 C580 1.366 1_545 S
C581 C585 1.382 1_655 S
C582 H563 0.951 . S
C582 C580 1.388 . S
C582 C583 1.366 1_565 S
C583 C582 1.366 1_545 S
C583 C584 1.414 1_655 S
C583 C586 1.498 1_655 S
C584 H564 0.950 . S
C584 C583 1.414 1_455 S
C584 C585 1.378 . S
C585 H565 0.949 . S
C585 C581 1.382 1_455 S
C585 C584 1.378 . S
C586 C583 1.498 1_455 S
C586 C587 1.373 1_455 S
C586 C588 1.389 1_545 S
C587 H566 0.950 . S
C587 C586 1.373 1_655 S
C587 C603 1.377 . S
C588 C586 1.389 1_565 S
C588 C589 1.524 . S
C588 C602 1.377 . S
C589 C588 1.524 . S
C589 C590 1.397 . S
C589 C594 1.363 . S
C590 H567 0.950 1_565 S
C590 C589 1.397 . S
C590 C591 1.334 . S
C591 H568 0.950 . S
C591 C590 1.334 . S
C591 C592 1.287 . S
C592 C591 1.287 . S
C592 C593 1.524 . S
C592 H611 0.913 . S
C593 H569 0.950 . S
C593 C592 1.524 . S
C593 C594 1.415 . S
C594 H570 0.950 . S
C594 C589 1.363 . S
C594 C593 1.415 . S
C595 H571 0.949 1_655 S
C595 C596 1.365 . S
C595 C597 1.391 . S
C596 C595 1.365 . S
C596 C600 1.385 1_545 S
C597 H572 0.951 1_655 S
C597 C595 1.391 . S
C597 C598 1.366 . S
C598 C597 1.366 . S
C598 C599 1.414 1_545 S
C598 C601 1.499 . S
C599 H573 0.950 . S
C599 C598 1.414 1_565 S
C599 C600 1.374 . S
C600 H574 0.950 . S
C600 C596 1.385 1_565 S
C600 C599 1.374 . S
C601 C598 1.499 . S
C601 C602 1.373 1_645 S
C601 C603 1.389 . S
C602 H575 0.950 . S
C602 C588 1.377 . S
C602 C601 1.373 1_465 S
C603 C587 1.377 . S
C603 C601 1.389 . S
C603 C604 1.524 . S
C604 C603 1.524 . S
C604 C605 1.397 . S
C604 C609 1.363 . S
C605 H576 0.950 . S
C605 C604 1.397 . S
C605 C606 1.334 . S
C606 H577 0.950 . S
C606 C605 1.334 . S
C606 C607 1.287 . S
C607 C606 1.287 . S
C607 C608 1.524 . S
C607 H610 0.999 . S
C608 H578 0.950 . S
C608 C607 1.524 . S
C608 C609 1.415 . S
C609 H579 0.950 . S
C609 C604 1.363 . S
C609 C608 1.415 . S
H610 C607 0.999 . S
H611 C592 0.913 . S
H612 C630 0.951 . S
H613 C632 0.951 . S
H614 C634 0.950 . S
H615 C635 0.950 . S
H616 C637 0.950 . S
H617 C640 0.950 . S
H618 C641 0.950 . S
H619 C643 0.950 . S
H620 C644 0.950 . S
H621 C645 0.951 . S
H622 C647 0.951 . S
H623 C649 0.950 . S
H624 C650 0.950 . S
H625 C652 0.950 . S
H626 C655 0.950 . S
H627 C656 0.950 . S
H628 C658 0.950 . S
H629 C659 0.950 . S
C630 H612 0.951 . S
C630 C631 1.366 . S
C630 C632 1.388 . S
C631 C630 1.366 . S
C631 C635 1.385 . S
C632 H613 0.951 . S
C632 C630 1.388 . S
C632 C633 1.366 . S
C633 C632 1.366 . S
C633 C634 1.414 . S
C633 C636 1.499 . S
C634 H614 0.950 . S
C634 C633 1.414 . S
C634 C635 1.374 . S
C635 H615 0.950 . S
C635 C631 1.385 . S
C635 C634 1.374 . S
C636 C633 1.499 . S
C636 C637 1.373 . S
C636 C638 1.389 . S
C637 H616 0.950 . S
C637 C636 1.373 . S
C637 C653 1.377 . S
C638 C636 1.389 . S
C638 C639 1.524 . S
C638 C652 1.377 . S
C639 C638 1.524 . S
C639 C640 1.397 . S
C639 C644 1.363 . S
C640 H617 0.950 . S
C640 C639 1.397 . S
C640 C641 1.334 . S
C641 H618 0.950 . S
C641 C640 1.334 . S
C641 C642 1.287 . S
C642 C641 1.287 . S
C642 C643 1.524 . S
C642 H661 0.913 . S
C643 H619 0.950 . S
C643 C642 1.524 . S
C643 C644 1.415 . S
C644 H620 0.950 . S
C644 C639 1.363 . S
C644 C643 1.415 . S
C645 H621 0.951 . S
C645 C646 1.366 . S
C645 C647 1.388 . S
C646 C645 1.366 . S
C646 C650 1.385 . S
C647 H622 0.951 . S
C647 C645 1.388 . S
C647 C648 1.366 . S
C648 C647 1.366 . S
C648 C649 1.414 . S
C648 C651 1.499 . S
C649 H623 0.950 . S
C649 C648 1.414 . S
C649 C650 1.374 . S
C650 H624 0.950 . S
C650 C646 1.385 . S
C650 C649 1.374 . S
C651 C648 1.499 . S
C651 C652 1.373 . S
C651 C653 1.389 . S
C652 H625 0.950 . S
C652 C638 1.377 . S
C652 C651 1.373 . S
C653 C637 1.377 . S
C653 C651 1.389 . S
C653 C654 1.524 . S
C654 C653 1.524 . S
C654 C655 1.397 . S
C654 C659 1.363 . S
C655 H626 0.950 . S
C655 C654 1.397 . S
C655 C656 1.334 . S
C656 H627 0.950 . S
C656 C655 1.334 . S
C656 C657 1.287 . S
C657 C656 1.287 . S
C657 C658 1.524 . S
C657 H660 0.999 . S
C658 H628 0.950 . S
C658 C657 1.524 . S
C658 C659 1.415 . S
C659 H629 0.950 . S
C659 C654 1.363 . S
C659 C658 1.415 . S
H660 C657 0.999 . S
H661 C642 0.913 . S
H662 C680 0.951 . S
H663 C682 0.951 . S
H664 C684 0.950 . S
H665 C685 0.950 . S
H666 C687 0.950 . S
H667 C690 0.950 . S
H668 C691 0.950 . S
H669 C693 0.950 . S
H670 C694 0.950 . S
H671 C695 0.951 . S
H672 C697 0.951 . S
H673 C699 0.950 . S
H674 C700 0.950 . S
H675 C702 0.950 . S
H676 C705 0.950 . S
H677 C706 0.950 . S
H678 C708 0.950 . S
H679 C709 0.950 . S
C680 H662 0.951 . S
C680 C681 1.366 . S
C680 C682 1.388 . S
C681 C680 1.366 . S
C681 C685 1.385 . S
C682 H663 0.951 . S
C682 C680 1.388 . S
C682 C683 1.366 . S
C683 C682 1.366 . S
C683 C684 1.414 . S
C683 C686 1.499 . S
C684 H664 0.950 . S
C684 C683 1.414 . S
C684 C685 1.374 . S
C685 H665 0.950 . S
C685 C681 1.385 . S
C685 C684 1.374 . S
C686 C683 1.499 . S
C686 C687 1.373 . S
C686 C688 1.389 . S
C687 H666 0.950 . S
C687 C686 1.373 . S
C687 C703 1.377 . S
C688 C686 1.389 . S
C688 C689 1.524 . S
C688 C702 1.377 . S
C689 C688 1.524 . S
C689 C690 1.397 . S
C689 C694 1.363 . S
C690 H667 0.950 . S
C690 C689 1.397 . S
C690 C691 1.334 . S
C691 H668 0.950 . S
C691 C690 1.334 . S
C691 C692 1.287 . S
C692 C691 1.287 . S
C692 C693 1.524 . S
C692 H711 0.913 . S
C693 H669 0.950 . S
C693 C692 1.524 . S
C693 C694 1.415 . S
C694 H670 0.950 . S
C694 C689 1.363 . S
C694 C693 1.415 . S
C695 H671 0.951 . S
C695 C696 1.366 . S
C695 C697 1.388 . S
C696 C695 1.366 . S
C696 C700 1.385 . S
C697 H672 0.951 . S
C697 C695 1.388 . S
C697 C698 1.366 . S
C698 C697 1.366 . S
C698 C699 1.414 . S
C698 C701 1.499 . S
C699 H673 0.950 . S
C699 C698 1.414 . S
C699 C700 1.374 . S
C700 H674 0.950 . S
C700 C696 1.385 . S
C700 C699 1.374 . S
C701 C698 1.499 . S
C701 C702 1.373 . S
C701 C703 1.389 . S
C702 H675 0.950 . S
C702 C688 1.377 . S
C702 C701 1.373 . S
C703 C687 1.377 . S
C703 C701 1.389 . S
C703 C704 1.524 . S
C704 C703 1.524 . S
C704 C705 1.397 . S
C704 C709 1.363 . S
C705 H676 0.950 . S
C705 C704 1.397 . S
C705 C706 1.334 . S
C706 H677 0.950 . S
C706 C705 1.334 . S
C706 C707 1.287 . S
C707 C706 1.287 . S
C707 C708 1.524 . S
C707 H710 0.999 . S
C708 H678 0.950 . S
C708 C707 1.524 . S
C708 C709 1.415 . S
C709 H679 0.950 . S
C709 C704 1.363 . S
C709 C708 1.415 . S
H710 C707 0.999 . S
H711 C692 0.913 . S
C146 C107 1.434 . S
C131 C29 1.460 . S
C181 C8 1.352 . S
C196 N94 1.308 . S
C231 C0 1.360 . S
C246 N105 1.316 . S
C281 C17 1.464 . S
C296 C96 1.441 . S
C331 C63 1.460 . S
C346 C85 1.433 . S
C381 C42 1.352 . S
C396 N72 1.307 . S
C446 N83 1.317 . S
C431 C34 1.359 . S
C496 C74 1.441 . S
C481 C51 1.464 . S
C531 C4 1.513 . S
C546 C77 1.508 . S
C581 C13 1.508 . S
C596 C88 1.500 . S
C646 C99 1.508 . S
C631 C38 1.514 . S
C681 C47 1.508 . S
C696 C110 1.500 . S
