# Generated by pormake.
# Topology rtl, (3,6)-cn, num edge types: 1
# Building blocks:
#     Node 0, Type 0, BuildingBlock: VETTIZ_charged_linker_0, # of connection points: 3
#     Node 1, Type 0, BuildingBlock: VETTIZ_charged_linker_0, # of connection points: 3
#     Node 2, Type 0, BuildingBlock: VETTIZ_charged_linker_0, # of connection points: 3
#     Node 3, Type 0, BuildingBlock: VETTIZ_charged_linker_0, # of connection points: 3
#     Node 4, Type 1, BuildingBlock: VOLQOD_clean_sbu_1, # of connection points: 6
#     Node 5, Type 1, BuildingBlock: VOLQOD_clean_sbu_1, # of connection points: 6
#     Edge 6, Type (0, 1), BuildingBlock: ZUJKAS_clean_linker_0, # of connection points: 2
#     Edge 7, Type (0, 1), BuildingBlock: ZUJKAS_clean_linker_0, # of connection points: 2
#     Edge 8, Type (0, 1), BuildingBlock: ZUJKAS_clean_linker_0, # of connection points: 2
#     Edge 9, Type (0, 1), BuildingBlock: ZUJKAS_clean_linker_0, # of connection points: 2
#     Edge 10, Type (0, 1), BuildingBlock: ZUJKAS_clean_linker_0, # of connection points: 2
#     Edge 11, Type (0, 1), BuildingBlock: ZUJKAS_clean_linker_0, # of connection points: 2
#     Edge 12, Type (0, 1), BuildingBlock: ZUJKAS_clean_linker_0, # of connection points: 2
#     Edge 13, Type (0, 1), BuildingBlock: ZUJKAS_clean_linker_0, # of connection points: 2
#     Edge 14, Type (0, 1), BuildingBlock: ZUJKAS_clean_linker_0, # of connection points: 2
#     Edge 15, Type (0, 1), BuildingBlock: ZUJKAS_clean_linker_0, # of connection points: 2
#     Edge 16, Type (0, 1), BuildingBlock: ZUJKAS_clean_linker_0, # of connection points: 2
#     Edge 17, Type (0, 1), BuildingBlock: ZUJKAS_clean_linker_0, # of connection points: 2
# Relax obj value: 0.081
# Max RMSD: 0.157
# Mean RMSD: 0.091
data_MOF--net-rtl--node1-VOLQOD_clean_sbu_1--node2-VETTIZ_charged_linker_0--edge1-ZUJKAS_clean_linker_0
_symmetry_space_group_name_H-M    P1
_symmetry_Int_Tables_number       1
_symmetry_cell_setting            triclinic
loop_
_symmetry_equiv_pos_as_xyz
'x, y, z'
_cell_length_a     54.960501
_cell_length_b     47.525092
_cell_length_c     35.943096
_cell_angle_alpha  90.009071
_cell_angle_beta   90.277673
_cell_angle_gamma 89.994383
loop_
_atom_site_label
_atom_site_type_symbol
_atom_site_fract_x
_atom_site_fract_y
_atom_site_fract_z
_atom_type_partial_charge
C0 C 0.09438 0.74947 0.88888 0.0
C1 C 0.07583 0.76987 0.88747 0.0
C2 C 0.06338 0.77687 0.92037 0.0
C3 C 0.08982 0.7462 0.95588 0.0
C4 C 0.10107 0.73794 0.92337 0.0
C5 C 0.12135 0.71728 0.93055 0.0
H6 H 0.19626 0.65321 0.05413 0.0
C7 C 0.10252 0.73259 0.98733 0.0
C8 C 0.12081 0.71527 0.97279 0.0
H9 H 0.19684 0.647 0.9341 0.0
H10 H 0.16059 0.6755 0.93043 0.0
H11 H 0.18387 0.71833 0.05745 0.0
H12 H 0.13716 0.6456 0.06319 0.0
H13 H 0.12678 0.67019 0.09605 0.0
H14 H 0.15693 0.65549 0.10088 0.0
H15 H 0.18369 0.69504 0.09678 0.0
H16 H 0.16268 0.72397 0.0931 0.0
C17 C 0.14535 0.73051 0.91635 0.0
C18 C 0.11453 0.68898 0.9118 0.0
C19 C 0.08352 0.7647 0.11824 0.0
C20 C 0.09385 0.75876 0.15313 0.0
C21 C 0.11154 0.7374 0.15602 0.0
C22 C 0.11971 0.7232 0.12413 0.0
C23 C 0.11008 0.73052 0.08906 0.0
C24 C 0.09186 0.75048 0.0868 0.0
C25 C 0.0837 0.75584 0.04755 0.0
C26 C 0.10034 0.73618 0.02634 0.0
C27 C 0.11591 0.72157 0.05066 0.0
C28 C 0.08882 0.78723 0.03858 0.0
C29 C 0.0566 0.74703 0.04396 0.0
C30 C 0.18835 0.65762 0.02709 0.0
C31 C 0.19954 0.64802 0.99434 0.0
C32 C 0.18879 0.65452 0.95969 0.0
C33 C 0.16771 0.67102 0.95762 0.0
C34 C 0.15733 0.68143 0.9905 0.0
C35 C 0.16737 0.67425 0.02453 0.0
C36 C 0.15396 0.68742 0.05652 0.0
C37 C 0.13425 0.70369 0.03605 0.0
C38 C 0.13649 0.70033 0.99735 0.0
C39 C 0.17186 0.70714 0.0774 0.0
C40 C 0.14321 0.66358 0.08076 0.0
H41 H 0.06034 0.77176 0.97855 0.0
H42 H 0.10422 0.7436 0.86402 0.0
H43 H 0.09447 0.68579 0.91141 0.0
H44 H 0.12178 0.67058 0.92707 0.0
H45 H 0.12093 0.68824 0.88255 0.0
H46 H 0.14616 0.75328 0.92347 0.0
H47 H 0.14677 0.7286 0.88563 0.0
H48 H 0.16176 0.72125 0.92911 0.0
H49 H 0.06954 0.78063 0.1153 0.0
H50 H 0.11968 0.73242 0.18272 0.0
H51 H 0.13362 0.7076 0.12786 0.0
H52 H 0.10641 0.79406 0.05113 0.0
H53 H 0.07431 0.80101 0.04992 0.0
H54 H 0.09073 0.79157 0.00863 0.0
H55 H 0.05193 0.73013 0.06414 0.0
H56 H 0.05225 0.73789 0.01639 0.0
H57 H 0.04427 0.76507 0.04936 0.0
H58 H 0.04864 0.792 0.91983 0.0
C59 C 0.07018 0.76505 0.95446 0.0
C60 C 0.59105 0.76084 0.63049 0.0
C61 C 0.57187 0.74124 0.63235 0.0
C62 C 0.56012 0.73301 0.59912 0.0
C63 C 0.58742 0.76213 0.56317 0.0
C64 C 0.59848 0.77097 0.59572 0.0
C65 C 0.61922 0.79091 0.58848 0.0
H66 H 0.69385 0.85396 0.46446 0.0
C67 C 0.60035 0.77514 0.53165 0.0
C68 C 0.61888 0.79227 0.54622 0.0
H69 H 0.69699 0.858 0.58462 0.0
H70 H 0.66019 0.83059 0.58859 0.0
H71 H 0.68095 0.78858 0.46037 0.0
H72 H 0.63574 0.86258 0.4568 0.0
H73 H 0.62356 0.83847 0.42468 0.0
H74 H 0.65395 0.85194 0.41795 0.0
H75 H 0.6806 0.81237 0.42157 0.0
H76 H 0.65923 0.7838 0.42493 0.0
C77 C 0.64287 0.77724 0.60365 0.0
C78 C 0.61293 0.81969 0.60623 0.0
C79 C 0.5788 0.74563 0.39996 0.0
C80 C 0.58844 0.75242 0.36492 0.0
C81 C 0.60672 0.7732 0.36274 0.0
C82 C 0.61579 0.78622 0.39498 0.0
C83 C 0.6066 0.77831 0.42989 0.0
C84 C 0.58804 0.7588 0.43182 0.0
C85 C 0.58037 0.75299 0.47114 0.0
C86 C 0.59768 0.7719 0.4926 0.0
C87 C 0.61316 0.78648 0.46838 0.0
C88 C 0.58504 0.72138 0.47929 0.0
C89 C 0.55351 0.7624 0.47547 0.0
C90 C 0.68667 0.84888 0.49165 0.0
C91 C 0.69851 0.85804 0.52425 0.0
C92 C 0.68819 0.85143 0.55904 0.0
C93 C 0.66691 0.83527 0.56131 0.0
C94 C 0.65585 0.82538 0.52849 0.0
C95 C 0.66553 0.83261 0.4944 0.0
C96 C 0.65149 0.82005 0.46245 0.0
C97 C 0.6319 0.80389 0.48299 0.0
C98 C 0.63463 0.80693 0.52169 0.0
C99 C 0.66884 0.80026 0.44085 0.0
C100 C 0.64068 0.84437 0.4389 0.0
H101 H 0.55824 0.7359 0.54049 0.0
H102 H 0.6003 0.76787 0.65549 0.0
H103 H 0.59306 0.82401 0.60422 0.0
H104 H 0.62165 0.83756 0.59187 0.0
H105 H 0.61805 0.82016 0.63616 0.0
H106 H 0.64284 0.75414 0.59852 0.0
H107 H 0.64471 0.78056 0.63412 0.0
H108 H 0.65945 0.78499 0.58987 0.0
H109 H 0.56496 0.72957 0.40286 0.0
H110 H 0.61419 0.77924 0.33608 0.0
H111 H 0.6299 0.80157 0.39152 0.0
H112 H 0.60207 0.71414 0.46568 0.0
H113 H 0.5699 0.70814 0.46857 0.0
H114 H 0.58778 0.71678 0.50909 0.0
H115 H 0.54917 0.78037 0.45674 0.0
H116 H 0.54945 0.77029 0.50371 0.0
H117 H 0.54077 0.74502 0.46849 0.0
H118 H 0.54555 0.71767 0.59951 0.0
C119 C 0.56769 0.74343 0.56468 0.0
C120 C 0.91147 0.25908 0.12987 0.0
C121 C 0.93027 0.23902 0.13203 0.0
C122 C 0.94203 0.23065 0.09904 0.0
C123 C 0.91535 0.26052 0.06264 0.0
C124 C 0.90434 0.2695 0.095 0.0
C125 C 0.88401 0.29 0.08747 0.0
H126 H 0.80937 0.35343 0.96306 0.0
C127 C 0.90266 0.27384 0.03093 0.0
C128 C 0.88439 0.29133 0.04522 0.0
H129 H 0.80903 0.36078 0.08305 0.0
H130 H 0.84476 0.33157 0.08707 0.0
H131 H 0.86803 0.36126 0.95487 0.0
H132 H 0.82192 0.28801 0.95957 0.0
H133 H 0.84329 0.28283 0.92399 0.0
H134 H 0.82208 0.31159 0.92054 0.0
H135 H 0.84907 0.35089 0.91645 0.0
H136 H 0.87932 0.33675 0.92267 0.0
C137 C 0.89085 0.31862 0.10537 0.0
C138 C 0.86011 0.27692 0.10225 0.0
C139 C 0.92466 0.24478 0.89964 0.0
C140 C 0.91514 0.25156 0.86439 0.0
C141 C 0.89639 0.27178 0.86187 0.0
C142 C 0.88698 0.28451 0.89398 0.0
C143 C 0.89628 0.27686 0.92906 0.0
C144 C 0.91506 0.25761 0.93133 0.0
C145 C 0.92261 0.25169 0.97076 0.0
C146 C 0.90522 0.2705 0.99192 0.0
C147 C 0.88972 0.28506 0.96745 0.0
C148 C 0.94943 0.26117 0.97573 0.0
C149 C 0.91799 0.22004 0.97862 0.0
C150 C 0.81716 0.34908 0.99019 0.0
C151 C 0.80611 0.35921 0.02281 0.0
C152 C 0.81683 0.35279 0.05753 0.0
C153 C 0.83766 0.3359 0.05982 0.0
C154 C 0.84795 0.32513 0.02708 0.0
C155 C 0.838 0.33222 0.99297 0.0
C156 C 0.85163 0.31914 0.96113 0.0
C157 C 0.87121 0.30282 0.98182 0.0
C158 C 0.86878 0.30618 0.02047 0.0
C159 C 0.86252 0.3431 0.93719 0.0
C160 C 0.83393 0.29945 0.93985 0.0
H161 H 0.94418 0.23372 0.04047 0.0
H162 H 0.90226 0.26624 0.15471 0.0
H163 H 0.85934 0.25403 0.09582 0.0
H164 H 0.84362 0.2859 0.08934 0.0
H165 H 0.85879 0.27933 0.13292 0.0
H166 H 0.91091 0.32179 0.10568 0.0
H167 H 0.88444 0.31987 0.13458 0.0
H168 H 0.88363 0.33677 0.08955 0.0
H169 H 0.93876 0.22902 0.90278 0.0
H170 H 0.88891 0.27766 0.83504 0.0
H171 H 0.87258 0.29951 0.89027 0.0
H172 H 0.95351 0.27979 0.95805 0.0
H173 H 0.96223 0.24415 0.96776 0.0
H174 H 0.95362 0.26814 0.0044 0.0
H175 H 0.90143 0.21253 0.96369 0.0
H176 H 0.91439 0.21548 0.00818 0.0
H177 H 0.93353 0.20694 0.96923 0.0
H178 H 0.95634 0.21499 0.09972 0.0
C179 C 0.93476 0.24136 0.06449 0.0
C180 C 0.41134 0.24874 0.38628 0.0
C181 C 0.4313 0.2672 0.3839 0.0
C182 C 0.44439 0.27391 0.41654 0.0
C183 C 0.41669 0.24584 0.45326 0.0
C184 C 0.40445 0.23825 0.42114 0.0
C185 C 0.38334 0.21895 0.42895 0.0
H186 H 0.30945 0.15736 0.55524 0.0
C187 C 0.40401 0.233 0.48513 0.0
C188 C 0.38461 0.21692 0.47113 0.0
H189 H 0.3049 0.1527 0.43525 0.0
H190 H 0.34194 0.17969 0.43002 0.0
H191 H 0.36777 0.14736 0.56087 0.0
H192 H 0.32313 0.22177 0.55901 0.0
H193 H 0.3461 0.22739 0.59223 0.0
H194 H 0.32484 0.19897 0.59873 0.0
H195 H 0.34957 0.15786 0.5998 0.0
H196 H 0.38011 0.17095 0.59354 0.0
C197 C 0.38839 0.19025 0.41006 0.0
C198 C 0.35976 0.2337 0.41548 0.0
C199 C 0.4286 0.26071 0.61637 0.0
C200 C 0.41876 0.25476 0.65153 0.0
C201 C 0.39943 0.23536 0.65415 0.0
C202 C 0.3896 0.22277 0.62216 0.0
C203 C 0.39901 0.22983 0.58707 0.0
C204 C 0.41846 0.24814 0.5847 0.0
C205 C 0.42583 0.25369 0.54516 0.0
C206 C 0.40742 0.23589 0.52412 0.0
C207 C 0.3917 0.2221 0.54877 0.0
C208 C 0.45217 0.24277 0.53985 0.0
C209 C 0.42243 0.28557 0.53745 0.0
C210 C 0.3164 0.1622 0.52783 0.0
C211 C 0.30412 0.15305 0.49563 0.0
C212 C 0.31408 0.15935 0.4605 0.0
C213 C 0.33549 0.17521 0.45751 0.0
C214 C 0.34709 0.185 0.48996 0.0
C215 C 0.33774 0.17802 0.52437 0.0
C216 C 0.35247 0.19013 0.55586 0.0
C217 C 0.37219 0.20559 0.5347 0.0
C218 C 0.36882 0.20276 0.4961 0.0
C219 C 0.36298 0.16545 0.57908 0.0
C220 C 0.33591 0.21052 0.57796 0.0
H221 H 0.44771 0.26964 0.47491 0.0
H222 H 0.40114 0.24285 0.36162 0.0
H223 H 0.36012 0.25645 0.42282 0.0
H224 H 0.34318 0.22534 0.42857 0.0
H225 H 0.35775 0.23207 0.38479 0.0
H226 H 0.40824 0.18567 0.40926 0.0
H227 H 0.38153 0.18999 0.38094 0.0
H228 H 0.38043 0.17236 0.42544 0.0
H229 H 0.44324 0.27578 0.61331 0.0
H230 H 0.39174 0.23016 0.68097 0.0
H231 H 0.37472 0.20847 0.62595 0.0
H232 H 0.45599 0.22445 0.55825 0.0
H233 H 0.46574 0.25935 0.54657 0.0
H234 H 0.45548 0.23484 0.51139 0.0
H235 H 0.4058 0.29364 0.55141 0.0
H236 H 0.41972 0.29054 0.50777 0.0
H237 H 0.43818 0.29787 0.5481 0.0
H238 H 0.45969 0.28825 0.41559 0.0
C239 C 0.43726 0.26328 0.45109 0.0
O240 O 0.94241 0.00368 0.5092 0.0
Zn241 Zn 0.97305 0.02702 0.50874 0.0
O242 O 0.00223 0.00335 0.50954 0.0
Zn243 Zn 0.02182 0.01178 0.55395 0.0
Zn244 Zn 0.99247 0.96381 0.51019 0.0
Zn245 Zn 0.02149 0.01061 0.46497 0.0
O246 O 0.05547 0.0251 0.54004 0.0
O247 O 0.05503 0.02423 0.47832 0.0
O248 O 0.97226 0.05245 0.55346 0.0
O249 O 0.00618 0.04242 0.58456 0.0
O250 O 0.02577 0.97728 0.5863 0.0
O251 O 0.00568 0.94415 0.55531 0.0
O252 O 0.00532 0.94299 0.46575 0.0
O253 O 0.97216 0.0518 0.46321 0.0
O254 O 0.02526 0.97557 0.43389 0.0
O255 O 0.00603 0.04058 0.43327 0.0
C256 C 0.93849 0.97728 0.51013 0.0
C257 C 0.06599 0.02899 0.50896 0.0
C258 C 0.01849 0.95193 0.58304 0.0
C259 C 0.98655 0.05646 0.58095 0.0
C260 C 0.01802 0.95029 0.43786 0.0
C261 C 0.98659 0.05501 0.43592 0.0
O262 O 0.95601 0.95973 0.51064 0.0
O263 O 0.56278 0.50589 0.00567 0.0
Zn264 Zn 0.53158 0.52822 0.00611 0.0
O265 O 0.50295 0.50375 0.00797 0.0
Zn266 Zn 0.48258 0.51014 0.9639 0.0
Zn267 Zn 0.51367 0.46454 0.00891 0.0
Zn268 Zn 0.48409 0.51198 0.05285 0.0
O269 O 0.44871 0.52195 0.97822 0.0
O270 O 0.44995 0.52421 0.03987 0.0
O271 O 0.53095 0.55268 0.9604 0.0
O272 O 0.49652 0.54091 0.9318 0.0
O273 O 0.47974 0.47495 0.93274 0.0
O274 O 0.50108 0.44332 0.96447 0.0
O275 O 0.50172 0.44472 0.05472 0.0
O276 O 0.53274 0.55392 0.05051 0.0
O277 O 0.4815 0.47762 0.08565 0.0
O278 O 0.49964 0.54321 0.08272 0.0
C279 C 0.56729 0.47962 0.00677 0.0
C280 C 0.43845 0.52692 0.00922 0.0
C281 C 0.48797 0.45005 0.93657 0.0
C282 C 0.51583 0.55568 0.93372 0.0
C283 C 0.48926 0.45245 0.08269 0.0
C284 C 0.51891 0.55772 0.07838 0.0
O285 O 0.55019 0.4616 0.00825 0.0
H286 H 0.26631 0.16562 0.54163 0.0
H287 H 0.22685 0.14211 0.54559 0.0
H288 H 0.24854 0.08402 0.45976 0.0
H289 H 0.28835 0.10711 0.45611 0.0
H290 H 0.19309 0.13614 0.48578 0.0
H291 H 0.22183 0.033 0.54428 0.0
H292 H 0.24079 0.06401 0.5466 0.0
H293 H 0.23824 0.04458 0.50392 0.0
C294 C 0.26286 0.14754 0.52402 0.0
C295 C 0.2805 0.13812 0.49867 0.0
C296 C 0.24026 0.13426 0.52617 0.0
C297 C 0.23492 0.11118 0.50326 0.0
C298 C 0.25247 0.10157 0.47805 0.0
H299 H 0.09273 0.04414 0.44815 0.0
H300 H 0.1339 0.0635 0.44715 0.0
C301 C 0.27509 0.11493 0.47576 0.0
C302 C 0.21051 0.09811 0.5046 0.0
H303 H 0.18056 0.0372 0.52546 0.0
C304 C 0.19032 0.11452 0.49448 0.0
C305 C 0.20702 0.07 0.5163 0.0
C306 C 0.22805 0.05184 0.52871 0.0
C307 C 0.16668 0.10344 0.49529 0.0
C308 C 0.16323 0.07516 0.50621 0.0
C309 C 0.18336 0.05883 0.51684 0.0
C310 C 0.13874 0.06231 0.50686 0.0
C311 C 0.14553 0.12214 0.48488 0.0
C312 C 0.12809 0.0547 0.54077 0.0
C313 C 0.10452 0.04366 0.54153 0.0
C314 C 0.09128 0.03982 0.50829 0.0
C315 C 0.10232 0.04689 0.47429 0.0
C316 C 0.12582 0.05804 0.47362 0.0
H317 H 0.1507 0.14475 0.48474 0.0
H318 H 0.13901 0.11648 0.45659 0.0
H319 H 0.13019 0.11915 0.50449 0.0
H320 H 0.13787 0.05778 0.5667 0.0
H321 H 0.09663 0.03832 0.56816 0.0
H322 H 0.21276 0.60562 0.04207 0.0
H323 H 0.25261 0.58259 0.04715 0.0
H324 H 0.27908 0.63273 0.95596 0.0
H325 H 0.23956 0.65609 0.95102 0.0
H326 H 0.28022 0.55254 0.98884 0.0
H327 H 0.32721 0.6471 0.04504 0.0
H328 H 0.29453 0.64309 0.0459 0.0
H329 H 0.30951 0.65279 0.00351 0.0
C330 C 0.2271 0.61173 0.02315 0.0
C331 C 0.22305 0.6327 0.99619 0.0
C332 C 0.24976 0.59849 0.02597 0.0
C333 C 0.26877 0.60622 0.00218 0.0
C334 C 0.26466 0.6267 0.97479 0.0
H335 H 0.40705 0.53125 0.95012 0.0
H336 H 0.36521 0.54863 0.95045 0.0
C337 C 0.24201 0.63983 0.97181 0.0
C338 C 0.29309 0.59327 0.0062 0.0
H339 H 0.35218 0.60863 0.02753 0.0
C340 C 0.29596 0.56469 0.99749 0.0
C341 C 0.31346 0.60918 0.01792 0.0
C342 C 0.31112 0.63969 0.02896 0.0
C343 C 0.31892 0.55177 -0.00083 0.0
C344 C 0.33944 0.56798 0.00958 0.0
C345 C 0.33642 0.59634 0.01933 0.0
C346 C 0.36434 0.55613 0.00979 0.0
C347 C 0.32108 0.52092 0.9899 0.0
C348 C 0.37779 0.55493 0.043 0.0
C349 C 0.40175 0.54505 0.04296 0.0
C350 C 0.41277 0.53647 0.00956 0.0
C351 C 0.39915 0.53764 0.97634 0.0
C352 C 0.37517 0.5474 0.97648 0.0
H353 H 0.30321 0.51005 0.99146 0.0
H354 H 0.32804 0.51864 0.96113 0.0
H355 H 0.33407 0.51029 0.00904 0.0
H356 H 0.36977 0.56177 0.06895 0.0
H357 H 0.41171 0.54451 0.06902 0.0
H358 H 0.73642 0.84723 0.47743 0.0
H359 H 0.77594 0.87064 0.47532 0.0
H360 H 0.75408 0.92589 0.56425 0.0
H361 H 0.71423 0.90284 0.56625 0.0
H362 H 0.78742 0.92871 0.46388 0.0
H363 H 0.81808 0.88901 0.60197 0.0
H364 H 0.79243 0.87414 0.57732 0.0
H365 H 0.78934 0.90708 0.6013 0.0
C366 C 0.73983 0.86464 0.49621 0.0
C367 C 0.72215 0.87314 0.52207 0.0
C368 C 0.76248 0.87788 0.49507 0.0
C369 C 0.76799 0.89974 0.5199 0.0
C370 C 0.75029 0.90872 0.54527 0.0
H371 H 0.89628 0.00801 0.50709 0.0
H372 H 0.85449 0.99038 0.50942 0.0
C373 C 0.72756 0.8955 0.5464 0.0
C374 C 0.79245 0.91273 0.51942 0.0
H375 H 0.84473 0.91958 0.57029 0.0
C376 C 0.79994 0.92687 0.48717 0.0
C377 C 0.80876 0.90996 0.54974 0.0
C378 C 0.80193 0.89405 0.58449 0.0
C379 C 0.82341 0.93832 0.48442 0.0
C380 C 0.83965 0.93574 0.51486 0.0
C381 C 0.83214 0.92165 0.54712 0.0
C382 C 0.86487 0.94656 0.51328 0.0
C383 C 0.83089 0.95242 0.44864 0.0
C384 C 0.88451 0.92778 0.51527 0.0
C385 C 0.90839 0.93773 0.51402 0.0
C386 C 0.91311 0.96675 0.51102 0.0
C387 C 0.89333 0.98554 0.50926 0.0
C388 C 0.86943 0.97552 0.51043 0.0
H389 H 0.81817 0.94751 0.42542 0.0
H390 H 0.83102 0.97557 0.45272 0.0
H391 H 0.84951 0.94585 0.44054 0.0
H392 H 0.88133 0.90535 0.5176 0.0
H393 H 0.92314 0.92266 0.51555 0.0
H394 H 0.79308 0.40005 0.97244 0.0
H395 H 0.75414 0.42497 0.96799 0.0
H396 H 0.72802 0.37986 0.06388 0.0
H397 H 0.76659 0.35459 0.06824 0.0
H398 H 0.70774 0.40063 0.95846 0.0
H399 H 0.71312 0.46259 0.08897 0.0
H400 H 0.73943 0.44635 0.06805 0.0
H401 H 0.71876 0.42569 0.0954 0.0
C402 C 0.77904 0.39543 0.99257 0.0
C403 C 0.78301 0.37542 0.02082 0.0
C404 C 0.75687 0.40978 0.99009 0.0
C405 C 0.73838 0.40456 0.01596 0.0
C406 C 0.74228 0.38468 0.04419 0.0
H407 H 0.58378 0.42532 0.00506 0.0
H408 H 0.62592 0.40908 0.00501 0.0
C409 C 0.76437 0.37029 0.04665 0.0
C410 C 0.7145 0.41872 0.01246 0.0
H411 H 0.67395 0.45936 0.06002 0.0
C412 C 0.70043 0.41373 0.98046 0.0
C413 C 0.70516 0.43605 0.04102 0.0
C414 C 0.71998 0.44326 0.07516 0.0
C415 C 0.67684 0.42472 0.97691 0.0
C416 C 0.66703 0.44081 0.00633 0.0
C417 C 0.68145 0.44676 0.03767 0.0
C418 C 0.64154 0.45087 0.00568 0.0
C419 C 0.66256 0.41892 0.94177 0.0
C420 C 0.63637 0.47975 0.00685 0.0
C421 C 0.61226 0.48916 0.007 0.0
C422 C 0.59289 0.46979 0.00633 0.0
C423 C 0.59821 0.44083 0.00545 0.0
C424 C 0.6223 0.43149 0.00519 0.0
H425 H 0.67468 0.41309 0.91835 0.0
H426 H 0.64994 0.4011 0.94671 0.0
H427 H 0.65158 0.43753 0.93348 0.0
H428 H 0.65101 0.49501 0.0075 0.0
H429 H 0.60884 0.51159 0.00781 0.0
H430 H 0.091 0.81567 0.15615 0.0
H431 H 0.0778 0.84489 0.20807 0.0
H432 H 0.0677 0.77063 0.27528 0.0
H433 H 0.08133 0.74113 0.2232 0.0
H434 H 0.03343 0.84377 0.24162 0.0
H435 H 0.10687 0.82142 0.34442 0.0
H436 H 0.1094 0.81213 0.29589 0.0
H437 H 0.09133 0.79097 0.32662 0.0
C438 C 0.08603 0.80555 0.18203 0.0
C439 C 0.08703 0.77614 0.18564 0.0
C440 C 0.07855 0.82227 0.21168 0.0
C441 C 0.07192 0.80997 0.2456 0.0
C442 C 0.07317 0.78059 0.24956 0.0
H443 H 0.01227 0.89316 0.44229 0.0
H444 H 0.02434 0.85777 0.39644 0.0
C445 C 0.08087 0.76377 0.21984 0.0
C446 C 0.06274 0.82816 0.27591 0.0
H447 H 0.07477 0.8509 0.36426 0.0
C448 C 0.04244 0.84526 0.26847 0.0
C449 C 0.07449 0.82999 0.31094 0.0
C450 C 0.09685 0.81285 0.32 0.0
C451 C 0.0338 0.86444 0.2949 0.0
C452 C 0.04583 0.86665 0.32955 0.0
C453 C 0.06567 0.84906 0.33753 0.0
C454 C 0.03859 0.88798 0.35725 0.0
C455 C 0.01194 0.88237 0.28557 0.0
C456 C 0.04281 0.91659 0.35031 0.0
C457 C 0.03607 0.93687 0.37644 0.0
C458 C 0.02489 0.92885 0.40992 0.0
C459 C 0.02071 0.90008 0.41671 0.0
C460 C 0.02765 0.87981 0.39066 0.0
H461 H 0.00184 0.8742 0.261 0.0
H462 H 0.99935 0.88347 0.3096 0.0
H463 H 0.01806 0.90409 0.27924 0.0
H464 H 0.05145 0.92321 0.32473 0.0
H465 H 0.03959 0.95881 0.37033 0.0
H466 H 0.52618 0.72808 0.65722 0.0
H467 H 0.51565 0.70005 0.71191 0.0
H468 H 0.59135 0.69609 0.74336 0.0
H469 H 0.60219 0.72343 0.68827 0.0
H470 H 0.53704 0.64378 0.7233 0.0
H471 H 0.5536 0.71716 0.84135 0.0
H472 H 0.54758 0.72931 0.79454 0.0
H473 H 0.57691 0.71528 0.80642 0.0
C474 C 0.5406 0.7214 0.67587 0.0
C475 C 0.56506 0.72783 0.66818 0.0
C476 C 0.53452 0.70556 0.7072 0.0
C477 C 0.55272 0.6962 0.73167 0.0
C478 C 0.57702 0.70352 0.72504 0.0
H479 H 0.55805 0.5848 0.92183 0.0
H480 H 0.56637 0.61902 0.87275 0.0
C481 C 0.58316 0.71923 0.69358 0.0
C482 C 0.54657 0.67654 0.76205 0.0
H483 H 0.54546 0.66959 0.85649 0.0
C484 C 0.5387 0.64942 0.75246 0.0
C485 C 0.54905 0.68399 0.7999 0.0
C486 C 0.55709 0.71307 0.81141 0.0
C487 C 0.53363 0.62925 0.77981 0.0
C488 C 0.53586 0.63672 0.8178 0.0
C489 C 0.54369 0.66394 0.82736 0.0
C490 C 0.53047 0.61644 0.84798 0.0
C491 C 0.5267 0.5999 0.76767 0.0
C492 C 0.50741 0.60394 0.85067 0.0
C493 C 0.50267 0.58413 0.87843 0.0
C494 C 0.5208 0.57679 0.90443 0.0
C495 C 0.5437 0.58991 0.90221 0.0
C496 C 0.54848 0.60952 0.87423 0.0
H497 H 0.53256 0.59553 0.73869 0.0
H498 H 0.53488 0.5838 0.7863 0.0
H499 H 0.50662 0.59766 0.76867 0.0
H500 H 0.49305 0.6095 0.83129 0.0
H501 H 0.48474 0.57472 0.87961 0.0
H502 H 0.97561 0.22533 0.15838 0.0
H503 H 0.98546 0.19704 0.21332 0.0
H504 H 0.90947 0.19359 0.24199 0.0
H505 H 0.8993 0.2213 0.18667 0.0
H506 H 0.94688 0.20452 0.30412 0.0
H507 H 0.96362 0.11076 0.2149 0.0
H508 H 0.97833 0.14303 0.20157 0.0
H509 H 0.94579 0.14045 0.19922 0.0
C510 C 0.96099 0.21865 0.17643 0.0
C511 C 0.93664 0.22531 0.16791 0.0
C512 C 0.96667 0.20263 0.20785 0.0
C513 C 0.94814 0.19308 0.23133 0.0
C514 C 0.92398 0.20084 0.22409 0.0
H515 H 0.9444 0.08503 0.42667 0.0
H516 H 0.93507 0.11947 0.37814 0.0
C517 C 0.91825 0.21679 0.19258 0.0
C518 C 0.95382 0.17344 0.26198 0.0
H519 H 0.9712 0.10577 0.27907 0.0
C520 C 0.95218 0.18291 0.29881 0.0
C521 C 0.9607 0.14535 0.2547 0.0
C522 C 0.9621 0.13407 0.21551 0.0
C523 C 0.95774 0.16501 0.32878 0.0
C524 C 0.96451 0.13679 0.32151 0.0
C525 C 0.96604 0.1274 0.28457 0.0
C526 C 0.97026 0.11655 0.35165 0.0
C527 C 0.95689 0.17667 0.3678 0.0
C528 C 0.9929 0.10291 0.35228 0.0
C529 C 0.99817 0.08292 0.3796 0.0
C530 C 0.98088 0.07616 0.40691 0.0
C531 C 0.95819 0.08987 0.40621 0.0
C532 C 0.95288 0.10974 0.37867 0.0
H533 H 0.95818 0.2 0.36796 0.0
H534 H 0.93934 0.17075 0.38077 0.0
H535 H 0.97187 0.16799 0.38518 0.0
H536 H 0.00653 0.10774 0.33155 0.0
H537 H 0.01584 0.07284 0.37933 0.0
H538 H 0.46584 0.26684 0.67107 0.0
H539 H 0.47983 0.29662 0.72251 0.0
H540 H 0.40559 0.30809 0.75777 0.0
H541 H 0.3915 0.2784 0.70656 0.0
H542 H 0.46802 0.35195 0.73255 0.0
H543 H 0.43986 0.2896 0.85524 0.0
H544 H 0.44138 0.27479 0.80904 0.0
H545 H 0.41548 0.29544 0.82274 0.0
C546 C 0.45254 0.2755 0.69002 0.0
C547 C 0.42757 0.27023 0.68482 0.0
C548 C 0.46055 0.29242 0.71942 0.0
C549 C 0.44377 0.30427 0.74421 0.0
C550 C 0.4189 0.2986 0.73953 0.0
H551 H 0.45868 0.45548 0.8751 0.0
H552 H 0.44909 0.41962 0.82856 0.0
C553 C 0.41087 0.28162 0.71022 0.0
C554 C 0.45206 0.32431 0.77318 0.0
H555 H 0.45002 0.33785 0.86637 0.0
C556 C 0.46429 0.34875 0.76186 0.0
C557 C 0.4474 0.31995 0.81141 0.0
C558 C 0.43553 0.29339 0.82543 0.0
C559 C 0.47139 0.36936 0.78764 0.0
C560 C 0.46568 0.36564 0.82564 0.0
C561 C 0.4541 0.34081 0.83713 0.0
C562 C 0.47145 0.38734 0.85389 0.0
C563 C 0.48509 0.39484 0.77397 0.0
C564 C 0.48671 0.38084 0.88407 0.0
C565 C 0.49209 0.40121 0.9109 0.0
C566 C 0.48222 0.42847 0.90812 0.0
C567 C 0.46674 0.4348 0.87797 0.0
C568 C 0.46133 0.41437 0.85122 0.0
H569 H 0.49387 0.39081 0.74671 0.0
H570 H 0.47217 0.41258 0.7703 0.0
H571 H 0.49929 0.40138 0.79427 0.0
H572 H 0.4946 0.36004 0.88672 0.0
H573 H 0.50404 0.39557 0.93376 0.0
H574 H 0.54236 0.73479 0.34662 0.0
H575 H 0.53048 0.70351 0.29568 0.0
H576 H 0.60426 0.70372 0.25541 0.0
H577 H 0.61658 0.73379 0.30724 0.0
H578 H 0.53264 0.7078 0.21959 0.0
H579 H 0.59126 0.62043 0.2697 0.0
H580 H 0.58515 0.65122 0.29746 0.0
H581 H 0.60758 0.65247 0.26121 0.0
C582 C 0.5561 0.72809 0.32702 0.0
C583 C 0.58051 0.73651 0.33136 0.0
C584 C 0.54924 0.71038 0.29778 0.0
C585 C 0.5666 0.70079 0.27229 0.0
C586 C 0.59069 0.71035 0.27531 0.0
H587 H 0.56129 0.58768 0.08347 0.0
H588 H 0.57218 0.62332 0.12968 0.0
C589 C 0.59762 0.72789 0.30469 0.0
C590 C 0.55964 0.68014 0.24324 0.0
H591 H 0.57201 0.61405 0.21112 0.0
C592 C 0.54119 0.68728 0.21777 0.0
C593 C 0.57072 0.65329 0.24114 0.0
C594 C 0.58961 0.64373 0.26904 0.0
C595 C 0.53382 0.66842 0.18984 0.0
C596 C 0.54511 0.64177 0.18756 0.0
C597 C 0.56352 0.63462 0.21295 0.0
C598 C 0.53803 0.62086 0.15908 0.0
C599 C 0.51426 0.67717 0.16262 0.0
C600 C 0.51528 0.60756 0.16065 0.0
C601 C 0.50903 0.58702 0.13446 0.0
C602 C 0.52542 0.5795 0.10619 0.0
C603 C 0.54819 0.593 0.10476 0.0
C604 C 0.55447 0.61337 0.13111 0.0
H605 H 0.51055 0.70013 0.16388 0.0
H606 H 0.51954 0.67153 0.13378 0.0
H607 H 0.49717 0.6658 0.16916 0.0
H608 H 0.50249 0.61285 0.1824 0.0
H609 H 0.49135 0.57706 0.13638 0.0
H610 H 0.96192 0.23643 0.84749 0.0
H611 H 0.97542 0.20614 0.79658 0.0
H612 H 0.90191 0.20186 0.7546 0.0
H613 H 0.88809 0.23157 0.80589 0.0
H614 H 0.95533 0.15001 0.78486 0.0
H615 H 0.94486 0.21964 0.66151 0.0
H616 H 0.94764 0.23317 0.70834 0.0
H617 H 0.91937 0.21831 0.69267 0.0
C618 C 0.94862 0.22917 0.82734 0.0
C619 C 0.92388 0.2363 0.83091 0.0
C620 C 0.9564 0.21201 0.79819 0.0
C621 C 0.93968 0.20196 0.7718 0.0
C622 C 0.91515 0.2098 0.77441 0.0
H623 H 0.94366 0.08515 0.5879 0.0
H624 H 0.9331 0.12039 0.63459 0.0
C625 C 0.9073 0.22686 0.80369 0.0
C626 C 0.94752 0.18142 0.74338 0.0
H627 H 0.95337 0.17155 0.64984 0.0
C628 C 0.95509 0.15472 0.75532 0.0
C629 C 0.94695 0.18768 0.70498 0.0
C630 C 0.93945 0.21631 0.69093 0.0
C631 C 0.96164 0.13377 0.72976 0.0
C632 C 0.9612 0.14001 0.69126 0.0
C633 C 0.95375 0.16684 0.67936 0.0
C634 C 0.96792 0.11881 0.66286 0.0
C635 C 0.9682 0.10492 0.74423 0.0
C636 C 0.99112 0.10645 0.66299 0.0
C637 C 0.99716 0.08607 0.63655 0.0
C638 C 0.98021 0.07798 0.60911 0.0
C639 C 0.95714 0.09083 0.60865 0.0
C640 C 0.95107 0.11103 0.63528 0.0
H641 H 0.96119 0.10144 0.77281 0.0
H642 H 0.96087 0.08816 0.72579 0.0
H643 H 0.9883 0.10282 0.74524 0.0
H644 H 0.00461 0.11263 0.68348 0.0
H645 H 0.01517 0.07684 0.63746 0.0
H646 H 0.40038 0.29043 0.33272 0.0
H647 H 0.41112 0.31819 0.27794 0.0
H648 H 0.48727 0.30355 0.30009 0.0
H649 H 0.47667 0.27574 0.35496 0.0
H650 H 0.47631 0.35945 0.2912 0.0
H651 H 0.43679 0.29701 0.17543 0.0
H652 H 0.41557 0.30439 0.21196 0.0
H653 H 0.44163 0.2826 0.22136 0.0
C654 C 0.41939 0.29252 0.32539 0.0
C655 C 0.43769 0.28094 0.34819 0.0
C656 C 0.4255 0.30839 0.29406 0.0
C657 C 0.44998 0.31272 0.28476 0.0
C658 C 0.46826 0.30043 0.30678 0.0
H659 H 0.50296 0.3971 0.08611 0.0
H660 H 0.49395 0.36305 0.13509 0.0
C661 C 0.46218 0.28463 0.33815 0.0
C662 C 0.45658 0.33203 0.25407 0.0
H663 H 0.44874 0.3441 0.16115 0.0
C664 C 0.47043 0.35599 0.2627 0.0
C665 C 0.44905 0.32735 0.2169 0.0
C666 C 0.43514 0.30131 0.2057 0.0
C667 C 0.47655 0.37572 0.23531 0.0
C668 C 0.46823 0.37161 0.19843 0.0
C669 C 0.45485 0.34733 0.18957 0.0
C670 C 0.47334 0.39226 0.16864 0.0
C671 C 0.49208 0.40066 0.24603 0.0
C672 C 0.46447 0.41988 0.17111 0.0
C673 C 0.46963 0.43946 0.14324 0.0
C674 C 0.48365 0.43171 0.11223 0.0
C675 C 0.4922 0.40385 0.10964 0.0
C676 C 0.48703 0.38432 0.13755 0.0
H677 H 0.50209 0.39693 0.2725 0.0
H678 H 0.50544 0.40561 0.2239 0.0
H679 H 0.48023 0.41933 0.24993 0.0
H680 H 0.45349 0.42628 0.19458 0.0
H681 H 0.46261 0.46065 0.14603 0.0
H682 H 0.06977 0.82628 0.87961 0.0
H683 H 0.06093 0.85256 0.82275 0.0
H684 H 0.06158 0.77548 0.75956 0.0
H685 H 0.07034 0.74875 0.81674 0.0
H686 H 0.09239 0.84533 0.7475 0.0
H687 H 0.99268 0.82351 0.74344 0.0
H688 H 0.00911 0.8243 0.78708 0.0
H689 H 0.01398 0.79594 0.75516 0.0
C690 C 0.06781 0.81483 0.85371 0.0
C691 C 0.0705 0.78542 0.85264 0.0
C692 C 0.06293 0.8299 0.82128 0.0
C693 C 0.06055 0.81587 0.78723 0.0
C694 C 0.06334 0.78656 0.78578 0.0
H695 H 0.01051 0.89512 0.58147 0.0
H696 H 0.02211 0.86036 0.62836 0.0
C697 C 0.06839 0.77139 0.81831 0.0
C698 C 0.05512 0.83231 0.75344 0.0
H699 H 0.0079 0.85625 0.70037 0.0
C700 C 0.07399 0.84752 0.73679 0.0
C701 C 0.03113 0.8349 0.73972 0.0
C702 C 0.01041 0.81888 0.7571 0.0
C703 C 0.06938 0.86586 0.707 0.0
C704 C 0.04516 0.86955 0.69436 0.0
C705 C 0.02642 0.85352 0.71027 0.0
C706 C 0.03871 0.89061 0.6656 0.0
C707 C 0.09049 0.88108 0.6894 0.0
C708 C 0.04392 0.91922 0.67123 0.0
C709 C 0.03743 0.93917 0.64442 0.0
C710 C 0.0253 0.93091 0.61166 0.0
C711 C 0.01983 0.90224 0.60636 0.0
C712 C 0.02646 0.88231 0.6331 0.0
H713 H 0.10788 0.86963 0.694 0.0
H714 H 0.08764 0.8838 0.65901 0.0
H715 H 0.09233 0.90221 0.70223 0.0
H716 H 0.05279 0.92618 0.69658 0.0
H717 H 0.04175 0.96107 0.64953 0.0
loop_
_geom_bond_atom_site_label_1
_geom_bond_atom_site_label_2
_geom_bond_distance
_geom_bond_site_symmetry_2
_ccdc_geom_bond_type
C0 C1 1.391 . S
C0 C4 1.391 . S
C0 H42 0.948 . S
C1 C0 1.391 . S
C1 C2 1.391 . S
C2 C1 1.391 . S
C2 H58 0.947 . S
C2 C59 1.392 . S
C3 C4 1.391 . S
C3 C7 1.397 . S
C3 C59 1.419 . S
C4 C0 1.391 . S
C4 C3 1.391 . S
C4 C5 1.399 . S
C5 C4 1.399 . S
C5 C8 1.396 . S
C5 C17 1.453 . S
C5 C18 1.684 . S
H6 C30 0.948 . S
C7 C3 1.397 . S
C7 C8 1.394 . S
C7 C26 1.723 1_556 S
C8 C5 1.396 . S
C8 C7 1.394 . S
C8 C38 1.723 1_556 S
H9 C32 0.947 . S
H10 C33 0.948 . S
H11 C39 0.982 . S
H12 C40 0.979 . S
H13 C40 0.980 . S
H14 C40 0.983 . S
H15 C39 0.979 . S
H16 C39 0.977 . S
C17 C5 1.453 . S
C17 H46 0.982 . S
C17 H47 0.979 . S
C17 H48 0.977 . S
C18 C5 1.684 . S
C18 H43 0.979 . S
C18 H44 0.980 . S
C18 H45 0.983 . S
C19 C20 1.391 . S
C19 C24 1.391 . S
C19 H49 0.948 . S
C20 C19 1.391 . S
C20 C21 1.391 . S
C21 C20 1.391 . S
C21 C22 1.392 . S
C21 H50 0.947 . S
C22 C21 1.392 . S
C22 C23 1.419 . S
C22 H51 0.948 . S
C23 C22 1.419 . S
C23 C24 1.391 . S
C23 C27 1.397 . S
C24 C19 1.391 . S
C24 C23 1.391 . S
C24 C25 1.399 . S
C25 C24 1.399 . S
C25 C26 1.396 . S
C25 C28 1.453 . S
C25 C29 1.684 . S
C26 C7 1.723 1_554 S
C26 C25 1.396 . S
C26 C27 1.394 . S
C27 C23 1.397 . S
C27 C26 1.394 . S
C27 C37 1.723 . S
C28 C25 1.453 . S
C28 H52 0.982 . S
C28 H53 0.979 . S
C28 H54 0.977 . S
C29 C25 1.684 . S
C29 H55 0.979 . S
C29 H56 0.980 . S
C29 H57 0.983 . S
C30 H6 0.948 . S
C30 C31 1.391 . S
C30 C35 1.391 . S
C31 C30 1.391 . S
C31 C32 1.391 1_554 S
C32 H9 0.947 . S
C32 C31 1.391 1_556 S
C32 C33 1.392 . S
C33 H10 0.948 . S
C33 C32 1.392 . S
C33 C34 1.444 . S
C34 C33 1.444 . S
C34 C35 1.364 1_556 S
C34 C38 1.393 1_556 S
C35 C30 1.391 . S
C35 C34 1.364 1_554 S
C35 C36 1.399 . S
C36 C35 1.399 . S
C36 C37 1.396 . S
C36 C39 1.453 . S
C36 C40 1.684 . S
C37 C27 1.723 . S
C37 C36 1.396 . S
C37 C38 1.394 . S
C38 C8 1.723 1_554 S
C38 C34 1.393 1_554 S
C38 C37 1.394 . S
C39 H11 0.982 . S
C39 H15 0.979 . S
C39 H16 0.977 . S
C39 C36 1.453 . S
C40 H12 0.979 . S
C40 H13 0.980 . S
C40 H14 0.983 . S
C40 C36 1.684 . S
H41 C59 0.948 . S
H42 C0 0.948 . S
H43 C18 0.979 . S
H44 C18 0.980 . S
H45 C18 0.983 . S
H46 C17 0.982 . S
H47 C17 0.979 . S
H48 C17 0.977 . S
H49 C19 0.948 . S
H50 C21 0.947 . S
H51 C22 0.948 . S
H52 C28 0.982 . S
H53 C28 0.979 . S
H54 C28 0.977 . S
H55 C29 0.979 . S
H56 C29 0.980 . S
H57 C29 0.983 . S
H58 C2 0.947 . S
C59 C2 1.392 . S
C59 C3 1.419 . S
C59 H41 0.948 . S
C60 C61 1.391 . S
C60 C64 1.391 . S
C60 H102 0.948 . S
C61 C60 1.391 . S
C61 C62 1.391 . S
C62 C61 1.391 . S
C62 H118 0.947 . S
C62 C119 1.392 . S
C63 C64 1.391 . S
C63 C67 1.397 . S
C63 C119 1.419 . S
C64 C60 1.391 . S
C64 C63 1.391 . S
C64 C65 1.399 . S
C65 C64 1.399 . S
C65 C68 1.396 . S
C65 C77 1.453 . S
C65 C78 1.684 . S
H66 C90 0.948 . S
C67 C63 1.397 . S
C67 C68 1.394 . S
C67 C86 1.723 . S
C68 C65 1.396 . S
C68 C67 1.394 . S
C68 C98 1.723 . S
H69 C92 0.947 . S
H70 C93 0.948 . S
H71 C99 0.982 . S
H72 C100 0.979 . S
H73 C100 0.980 . S
H74 C100 0.983 . S
H75 C99 0.979 . S
H76 C99 0.977 . S
C77 C65 1.453 . S
C77 H106 0.982 . S
C77 H107 0.979 . S
C77 H108 0.977 . S
C78 C65 1.684 . S
C78 H103 0.979 . S
C78 H104 0.980 . S
C78 H105 0.983 . S
C79 C80 1.391 . S
C79 C84 1.391 . S
C79 H109 0.948 . S
C80 C79 1.391 . S
C80 C81 1.391 . S
C81 C80 1.391 . S
C81 C82 1.392 . S
C81 H110 0.947 . S
C82 C81 1.392 . S
C82 C83 1.419 . S
C82 H111 0.948 . S
C83 C82 1.419 . S
C83 C84 1.391 . S
C83 C87 1.397 . S
C84 C79 1.391 . S
C84 C83 1.391 . S
C84 C85 1.399 . S
C85 C84 1.399 . S
C85 C86 1.396 . S
C85 C88 1.453 . S
C85 C89 1.684 . S
C86 C67 1.723 . S
C86 C85 1.396 . S
C86 C87 1.394 . S
C87 C83 1.397 . S
C87 C86 1.394 . S
C87 C97 1.723 . S
C88 C85 1.453 . S
C88 H112 0.982 . S
C88 H113 0.979 . S
C88 H114 0.977 . S
C89 C85 1.684 . S
C89 H115 0.979 . S
C89 H116 0.980 . S
C89 H117 0.983 . S
C90 H66 0.948 . S
C90 C91 1.391 . S
C90 C95 1.391 . S
C91 C90 1.391 . S
C91 C92 1.391 . S
C92 H69 0.947 . S
C92 C91 1.391 . S
C92 C93 1.392 . S
C93 H70 0.948 . S
C93 C92 1.392 . S
C93 C94 1.419 . S
C94 C93 1.419 . S
C94 C95 1.391 . S
C94 C98 1.397 . S
C95 C90 1.391 . S
C95 C94 1.391 . S
C95 C96 1.399 . S
C96 C95 1.399 . S
C96 C97 1.396 . S
C96 C99 1.453 . S
C96 C100 1.684 . S
C97 C87 1.723 . S
C97 C96 1.396 . S
C97 C98 1.394 . S
C98 C68 1.723 . S
C98 C94 1.397 . S
C98 C97 1.394 . S
C99 H71 0.982 . S
C99 H75 0.979 . S
C99 H76 0.977 . S
C99 C96 1.453 . S
C100 H72 0.979 . S
C100 H73 0.980 . S
C100 H74 0.983 . S
C100 C96 1.684 . S
H101 C119 0.948 . S
H102 C60 0.948 . S
H103 C78 0.979 . S
H104 C78 0.980 . S
H105 C78 0.983 . S
H106 C77 0.982 . S
H107 C77 0.979 . S
H108 C77 0.977 . S
H109 C79 0.948 . S
H110 C81 0.947 . S
H111 C82 0.948 . S
H112 C88 0.982 . S
H113 C88 0.979 . S
H114 C88 0.977 . S
H115 C89 0.979 . S
H116 C89 0.980 . S
H117 C89 0.983 . S
H118 C62 0.947 . S
C119 C62 1.392 . S
C119 C63 1.419 . S
C119 H101 0.948 . S
C120 C121 1.391 . S
C120 C124 1.391 . S
C120 H162 0.948 . S
C121 C120 1.391 . S
C121 C122 1.391 . S
C122 C121 1.391 . S
C122 H178 0.947 . S
C122 C179 1.392 . S
C123 C124 1.391 . S
C123 C127 1.397 . S
C123 C179 1.419 . S
C124 C120 1.391 . S
C124 C123 1.391 . S
C124 C125 1.399 . S
C125 C124 1.399 . S
C125 C128 1.396 . S
C125 C137 1.453 . S
C125 C138 1.684 . S
H126 C150 0.948 . S
C127 C123 1.397 . S
C127 C128 1.394 . S
C127 C146 1.723 1_554 S
C128 C125 1.396 . S
C128 C127 1.394 . S
C128 C158 1.723 . S
H129 C152 0.947 . S
H130 C153 0.948 . S
H131 C159 0.982 . S
H132 C160 0.979 . S
H133 C160 0.980 . S
H134 C160 0.983 . S
H135 C159 0.979 . S
H136 C159 0.977 . S
C137 C125 1.453 . S
C137 H166 0.982 . S
C137 H167 0.979 . S
C137 H168 0.977 . S
C138 C125 1.684 . S
C138 H163 0.979 . S
C138 H164 0.980 . S
C138 H165 0.983 . S
C139 C140 1.391 . S
C139 C144 1.391 . S
C139 H169 0.948 . S
C140 C139 1.391 . S
C140 C141 1.391 . S
C141 C140 1.391 . S
C141 C142 1.392 . S
C141 H170 0.947 . S
C142 C141 1.392 . S
C142 C143 1.419 . S
C142 H171 0.948 . S
C143 C142 1.419 . S
C143 C144 1.391 . S
C143 C147 1.397 . S
C144 C139 1.391 . S
C144 C143 1.391 . S
C144 C145 1.399 . S
C145 C144 1.399 . S
C145 C146 1.396 . S
C145 C148 1.453 . S
C145 C149 1.684 . S
C146 C127 1.723 1_556 S
C146 C145 1.396 . S
C146 C147 1.394 . S
C147 C143 1.397 . S
C147 C146 1.394 . S
C147 C157 1.723 . S
C148 C145 1.453 . S
C148 H172 0.982 . S
C148 H173 0.979 . S
C148 H174 0.977 1_556 S
C149 C145 1.684 . S
C149 H175 0.979 . S
C149 H176 0.980 1_556 S
C149 H177 0.983 . S
C150 H126 0.948 . S
C150 C151 1.391 1_556 S
C150 C155 1.391 . S
C151 C150 1.391 1_554 S
C151 C152 1.391 . S
C152 H129 0.947 . S
C152 C151 1.391 . S
C152 C153 1.392 . S
C153 H130 0.948 . S
C153 C152 1.392 . S
C153 C154 1.419 . S
C154 C153 1.419 . S
C154 C155 1.391 1_554 S
C154 C158 1.397 . S
C155 C150 1.391 . S
C155 C154 1.391 1_556 S
C155 C156 1.399 . S
C156 C155 1.399 . S
C156 C157 1.396 . S
C156 C159 1.453 . S
C156 C160 1.684 . S
C157 C147 1.723 . S
C157 C156 1.396 . S
C157 C158 1.394 1_556 S
C158 C128 1.723 . S
C158 C154 1.397 . S
C158 C157 1.394 1_554 S
C159 H131 0.982 . S
C159 H135 0.979 . S
C159 H136 0.977 . S
C159 C156 1.453 . S
C160 H132 0.979 . S
C160 H133 0.980 . S
C160 H134 0.983 . S
C160 C156 1.684 . S
H161 C179 0.948 . S
H162 C120 0.948 . S
H163 C138 0.979 . S
H164 C138 0.980 . S
H165 C138 0.983 . S
H166 C137 0.982 . S
H167 C137 0.979 . S
H168 C137 0.977 . S
H169 C139 0.948 . S
H170 C141 0.947 . S
H171 C142 0.948 . S
H172 C148 0.982 . S
H173 C148 0.979 . S
H174 C148 0.977 1_554 S
H175 C149 0.979 . S
H176 C149 0.980 1_554 S
H177 C149 0.983 . S
H178 C122 0.947 . S
C179 C122 1.392 . S
C179 C123 1.419 . S
C179 H161 0.948 . S
C180 C181 1.391 . S
C180 C184 1.391 . S
C180 H222 0.948 . S
C181 C180 1.391 . S
C181 C182 1.391 . S
C182 C181 1.391 . S
C182 H238 0.947 . S
C182 C239 1.392 . S
C183 C184 1.391 . S
C183 C187 1.397 . S
C183 C239 1.419 . S
C184 C180 1.391 . S
C184 C183 1.391 . S
C184 C185 1.399 . S
C185 C184 1.399 . S
C185 C188 1.396 . S
C185 C197 1.453 . S
C185 C198 1.684 . S
H186 C210 0.948 . S
C187 C183 1.397 . S
C187 C188 1.394 . S
C187 C206 1.723 . S
C188 C185 1.396 . S
C188 C187 1.394 . S
C188 C218 1.723 . S
H189 C212 0.947 . S
H190 C213 0.948 . S
H191 C219 0.982 . S
H192 C220 0.979 . S
H193 C220 0.980 . S
H194 C220 0.983 . S
H195 C219 0.979 . S
H196 C219 0.977 . S
C197 C185 1.453 . S
C197 H226 0.982 . S
C197 H227 0.979 . S
C197 H228 0.977 . S
C198 C185 1.684 . S
C198 H223 0.979 . S
C198 H224 0.980 . S
C198 H225 0.983 . S
C199 C200 1.391 . S
C199 C204 1.391 . S
C199 H229 0.948 . S
C200 C199 1.391 . S
C200 C201 1.391 . S
C201 C200 1.391 . S
C201 C202 1.392 . S
C201 H230 0.947 . S
C202 C201 1.392 . S
C202 C203 1.419 . S
C202 H231 0.948 . S
C203 C202 1.419 . S
C203 C204 1.391 . S
C203 C207 1.397 . S
C204 C199 1.391 . S
C204 C203 1.391 . S
C204 C205 1.399 . S
C205 C204 1.399 . S
C205 C206 1.396 . S
C205 C208 1.453 . S
C205 C209 1.684 . S
C206 C187 1.723 . S
C206 C205 1.396 . S
C206 C207 1.394 . S
C207 C203 1.397 . S
C207 C206 1.394 . S
C207 C217 1.723 . S
C208 C205 1.453 . S
C208 H232 0.982 . S
C208 H233 0.979 . S
C208 H234 0.977 . S
C209 C205 1.684 . S
C209 H235 0.979 . S
C209 H236 0.980 . S
C209 H237 0.983 . S
C210 H186 0.948 . S
C210 C211 1.391 . S
C210 C215 1.391 . S
C211 C210 1.391 . S
C211 C212 1.391 . S
C212 H189 0.947 . S
C212 C211 1.391 . S
C212 C213 1.392 . S
C213 H190 0.948 . S
C213 C212 1.392 . S
C213 C214 1.419 . S
C214 C213 1.419 . S
C214 C215 1.391 . S
C214 C218 1.397 . S
C215 C210 1.391 . S
C215 C214 1.391 . S
C215 C216 1.399 . S
C216 C215 1.399 . S
C216 C217 1.396 . S
C216 C219 1.453 . S
C216 C220 1.684 . S
C217 C207 1.723 . S
C217 C216 1.396 . S
C217 C218 1.394 . S
C218 C188 1.723 . S
C218 C214 1.397 . S
C218 C217 1.394 . S
C219 H191 0.982 . S
C219 H195 0.979 . S
C219 H196 0.977 . S
C219 C216 1.453 . S
C220 H192 0.979 . S
C220 H193 0.980 . S
C220 H194 0.983 . S
C220 C216 1.684 . S
H221 C239 0.948 . S
H222 C180 0.948 . S
H223 C198 0.979 . S
H224 C198 0.980 . S
H225 C198 0.983 . S
H226 C197 0.982 . S
H227 C197 0.979 . S
H228 C197 0.977 . S
H229 C199 0.948 . S
H230 C201 0.947 . S
H231 C202 0.948 . S
H232 C208 0.982 . S
H233 C208 0.979 . S
H234 C208 0.977 . S
H235 C209 0.979 . S
H236 C209 0.980 . S
H237 C209 0.983 . S
H238 C182 0.947 . S
C239 C182 1.392 . S
C239 C183 1.419 . S
C239 H221 0.948 . S
O240 Zn241 1.953 1_565 S
O240 C256 1.225 . S
Zn241 O240 1.953 1_545 S
Zn241 O242 1.949 1_655 S
Zn241 O248 1.919 . S
Zn241 O253 1.924 . S
O242 Zn241 1.949 1_455 S
O242 Zn243 1.923 . S
O242 Zn244 1.950 1_445 S
O242 Zn245 1.945 . S
Zn243 O242 1.923 . S
Zn243 O246 1.933 . S
Zn243 O249 1.941 . S
Zn243 O250 1.965 1_545 S
Zn244 O242 1.950 1_665 S
Zn244 O251 1.938 1_655 S
Zn244 O252 1.906 1_655 S
Zn244 O262 1.953 . S
Zn245 O242 1.945 . S
Zn245 O247 1.932 . S
Zn245 O254 1.977 1_545 S
Zn245 O255 1.910 1_455 S
O246 Zn243 1.933 . S
O246 C257 1.226 . S
O247 Zn245 1.932 . S
O247 C257 1.307 . S
O248 Zn241 1.919 . S
O248 C259 1.253 . S
O249 Zn243 1.941 . S
O249 C259 1.283 1_455 S
O250 Zn243 1.965 1_565 S
O250 C258 1.303 . S
O251 Zn244 1.938 1_455 S
O251 C258 1.247 . S
O252 Zn244 1.906 1_455 S
O252 C260 1.304 . S
O253 Zn241 1.924 . S
O253 C261 1.311 . S
O254 Zn245 1.977 1_565 S
O254 C260 1.272 . S
O255 Zn245 1.910 1_655 S
O255 C261 1.231 . S
C256 O240 1.225 . S
C256 O262 1.298 . S
C257 O246 1.226 . S
C257 O247 1.307 . S
C258 O250 1.303 . S
C258 O251 1.247 . S
C259 O248 1.253 . S
C259 O249 1.283 1_655 S
C260 O252 1.304 . S
C260 O254 1.272 . S
C261 O253 1.311 . S
C261 O255 1.231 . S
O262 Zn244 1.953 . S
O262 C256 1.298 . S
O263 Zn264 1.952 1_556 S
O263 C279 1.222 1_556 S
Zn264 O263 1.952 1_554 S
Zn264 O265 1.949 . S
Zn264 O271 1.919 1_554 S
Zn264 O276 1.924 . S
O265 Zn264 1.949 . S
O265 Zn266 1.923 1_554 S
O265 Zn267 1.950 . S
O265 Zn268 1.945 . S
Zn266 O265 1.923 1_556 S
Zn266 O269 1.933 . S
Zn266 O272 1.941 . S
Zn266 O273 1.965 . S
Zn267 O265 1.950 . S
Zn267 O274 1.938 1_554 S
Zn267 O275 1.906 . S
Zn267 O285 1.953 . S
Zn268 O265 1.945 . S
Zn268 O270 1.932 . S
Zn268 O277 1.977 . S
Zn268 O278 1.910 . S
O269 Zn266 1.933 . S
O269 C280 1.226 1_556 S
O270 Zn268 1.932 . S
O270 C280 1.307 . S
O271 Zn264 1.919 1_556 S
O271 C282 1.253 . S
O272 Zn266 1.941 . S
O272 C282 1.283 . S
O273 Zn266 1.965 . S
O273 C281 1.303 . S
O274 Zn267 1.938 1_556 S
O274 C281 1.247 . S
O275 Zn267 1.906 . S
O275 C283 1.304 . S
O276 Zn264 1.924 . S
O276 C284 1.311 . S
O277 Zn268 1.977 . S
O277 C283 1.272 . S
O278 Zn268 1.910 . S
O278 C284 1.231 . S
C279 O263 1.222 1_554 S
C279 O285 1.298 . S
C280 O269 1.226 1_554 S
C280 O270 1.307 . S
C281 O273 1.303 . S
C281 O274 1.247 . S
C282 O271 1.253 . S
C282 O272 1.283 . S
C283 O275 1.304 . S
C283 O277 1.272 . S
C284 O276 1.311 . S
C284 O278 1.231 . S
O285 Zn267 1.953 . S
O285 C279 1.298 . S
H286 C294 0.929 . S
H287 C296 0.930 . S
H288 C298 0.930 . S
H289 C301 0.929 . S
H290 C304 0.930 . S
H291 C306 0.960 . S
H292 C306 0.960 . S
H293 C306 0.960 . S
C294 H286 0.929 . S
C294 C295 1.377 . S
C294 C296 1.384 . S
C295 C294 1.377 . S
C295 C301 1.390 . S
C296 H287 0.930 . S
C296 C294 1.384 . S
C296 C297 1.372 . S
C297 C296 1.372 . S
C297 C298 1.400 . S
C297 C302 1.490 . S
C298 H288 0.930 . S
C298 C297 1.400 . S
C298 C301 1.386 . S
H299 C315 0.930 . S
H300 C316 0.931 . S
C301 H289 0.929 . S
C301 C295 1.390 . S
C301 C298 1.386 . S
C302 C297 1.490 . S
C302 C304 1.395 . S
C302 C305 1.403 . S
H303 C309 0.930 . S
C304 H290 0.930 . S
C304 C302 1.395 . S
C304 C307 1.403 . S
C305 C302 1.403 . S
C305 C306 1.524 . S
C305 C309 1.400 . S
C306 H291 0.960 . S
C306 H292 0.960 . S
C306 H293 0.960 . S
C306 C305 1.524 . S
C307 C304 1.403 . S
C307 C308 1.392 . S
C307 C311 1.495 . S
C308 C307 1.392 . S
C308 C309 1.385 . S
C308 C310 1.478 . S
C309 H303 0.930 . S
C309 C305 1.400 . S
C309 C308 1.385 . S
C310 C308 1.478 . S
C310 C312 1.381 . S
C310 C316 1.383 . S
C311 C307 1.495 . S
C311 H317 0.959 . S
C311 H318 0.961 . S
C311 H319 0.960 . S
C312 C310 1.381 . S
C312 C313 1.394 . S
C312 H320 0.930 . S
C313 C312 1.394 . S
C313 C314 1.383 . S
C313 H321 0.929 . S
C314 C313 1.383 . S
C314 C315 1.377 . S
C315 H299 0.930 . S
C315 C314 1.377 . S
C315 C316 1.379 . S
C316 H300 0.931 . S
C316 C310 1.383 . S
C316 C315 1.379 . S
H317 C311 0.959 . S
H318 C311 0.961 . S
H319 C311 0.960 . S
H320 C312 0.930 . S
H321 C313 0.929 . S
H322 C330 0.929 . S
H323 C332 0.930 . S
H324 C334 0.930 . S
H325 C337 0.929 . S
H326 C340 0.930 . S
H327 C342 0.960 . S
H328 C342 0.959 1_554 S
H329 C342 0.961 . S
C330 H322 0.929 . S
C330 C331 1.377 . S
C330 C332 1.384 . S
C331 C330 1.377 . S
C331 C337 1.390 1_554 S
C332 H323 0.930 . S
C332 C330 1.384 . S
C332 C333 1.372 . S
C333 C332 1.372 . S
C333 C334 1.400 1_554 S
C333 C338 1.490 . S
C334 H324 0.930 . S
C334 C333 1.400 1_556 S
C334 C337 1.386 . S
H335 C351 0.930 . S
H336 C352 0.931 . S
C337 H325 0.929 . S
C337 C331 1.390 1_556 S
C337 C334 1.386 . S
C338 C333 1.490 . S
C338 C340 1.395 . S
C338 C341 1.403 . S
H339 C345 0.930 . S
C340 H326 0.930 . S
C340 C338 1.395 . S
C340 C343 1.403 . S
C341 C338 1.403 . S
C341 C342 1.524 1_554 S
C341 C345 1.400 . S
C342 H327 0.960 . S
C342 H328 0.959 1_556 S
C342 H329 0.961 . S
C342 C341 1.524 1_556 S
C343 C340 1.403 . S
C343 C344 1.392 . S
C343 C347 1.495 . S
C344 C343 1.392 . S
C344 C345 1.385 . S
C344 C346 1.478 . S
C345 H339 0.930 . S
C345 C341 1.400 . S
C345 C344 1.385 . S
C346 C344 1.478 . S
C346 C348 1.381 . S
C346 C352 1.383 1_554 S
C347 C343 1.495 . S
C347 H353 0.959 . S
C347 H354 0.961 . S
C347 H355 0.960 . S
C348 C346 1.381 . S
C348 C349 1.394 . S
C348 H356 0.930 . S
C349 C348 1.394 . S
C349 C350 1.383 . S
C349 H357 0.929 . S
C350 C349 1.383 . S
C350 C351 1.377 1_554 S
C351 H335 0.930 . S
C351 C350 1.377 1_556 S
C351 C352 1.379 . S
C352 H336 0.931 . S
C352 C346 1.383 1_556 S
C352 C351 1.379 . S
H353 C347 0.959 . S
H354 C347 0.961 . S
H355 C347 0.960 . S
H356 C348 0.930 . S
H357 C349 0.929 . S
H358 C366 0.929 . S
H359 C368 0.930 . S
H360 C370 0.930 . S
H361 C373 0.929 . S
H362 C376 0.930 . S
H363 C378 0.960 . S
H364 C378 0.960 . S
H365 C378 0.960 . S
C366 H358 0.929 . S
C366 C367 1.377 . S
C366 C368 1.384 . S
C367 C366 1.377 . S
C367 C373 1.390 . S
C368 H359 0.930 . S
C368 C366 1.384 . S
C368 C369 1.372 . S
C369 C368 1.372 . S
C369 C370 1.400 . S
C369 C374 1.490 . S
C370 H360 0.930 . S
C370 C369 1.400 . S
C370 C373 1.386 . S
H371 C387 0.930 . S
H372 C388 0.931 . S
C373 H361 0.929 . S
C373 C367 1.390 . S
C373 C370 1.386 . S
C374 C369 1.490 . S
C374 C376 1.395 . S
C374 C377 1.403 . S
H375 C381 0.930 . S
C376 H362 0.930 . S
C376 C374 1.395 . S
C376 C379 1.403 . S
C377 C374 1.403 . S
C377 C378 1.524 . S
C377 C381 1.400 . S
C378 H363 0.960 . S
C378 H364 0.960 . S
C378 H365 0.960 . S
C378 C377 1.524 . S
C379 C376 1.403 . S
C379 C380 1.392 . S
C379 C383 1.495 . S
C380 C379 1.392 . S
C380 C381 1.385 . S
C380 C382 1.478 . S
C381 H375 0.930 . S
C381 C377 1.400 . S
C381 C380 1.385 . S
C382 C380 1.478 . S
C382 C384 1.381 . S
C382 C388 1.383 . S
C383 C379 1.495 . S
C383 H389 0.959 . S
C383 H390 0.961 . S
C383 H391 0.960 . S
C384 C382 1.381 . S
C384 C385 1.394 . S
C384 H392 0.930 . S
C385 C384 1.394 . S
C385 C386 1.383 . S
C385 H393 0.929 . S
C386 C385 1.383 . S
C386 C387 1.377 . S
C387 H371 0.930 . S
C387 C386 1.377 . S
C387 C388 1.379 . S
C388 H372 0.931 . S
C388 C382 1.383 . S
C388 C387 1.379 . S
H389 C383 0.959 . S
H390 C383 0.961 . S
H391 C383 0.960 . S
H392 C384 0.930 . S
H393 C385 0.929 . S
H394 C402 0.929 . S
H395 C404 0.930 . S
H396 C406 0.930 . S
H397 C409 0.929 . S
H398 C412 0.930 . S
H399 C414 0.960 . S
H400 C414 0.960 . S
H401 C414 0.960 . S
C402 H394 0.929 . S
C402 C403 1.377 1_556 S
C402 C404 1.384 . S
C403 C402 1.377 1_554 S
C403 C409 1.390 . S
C404 H395 0.930 . S
C404 C402 1.384 . S
C404 C405 1.372 1_556 S
C405 C404 1.372 1_554 S
C405 C406 1.400 . S
C405 C410 1.490 . S
C406 H396 0.930 . S
C406 C405 1.400 . S
C406 C409 1.386 . S
H407 C423 0.930 . S
H408 C424 0.931 . S
C409 H397 0.929 . S
C409 C403 1.390 . S
C409 C406 1.386 . S
C410 C405 1.490 . S
C410 C412 1.395 1_554 S
C410 C413 1.403 . S
H411 C417 0.930 . S
C412 H398 0.930 . S
C412 C410 1.395 1_556 S
C412 C415 1.403 . S
C413 C410 1.403 . S
C413 C414 1.524 . S
C413 C417 1.400 . S
C414 H399 0.960 . S
C414 H400 0.960 . S
C414 H401 0.960 . S
C414 C413 1.524 . S
C415 C412 1.403 . S
C415 C416 1.392 1_556 S
C415 C419 1.495 . S
C416 C415 1.392 1_554 S
C416 C417 1.385 . S
C416 C418 1.478 . S
C417 H411 0.930 . S
C417 C413 1.400 . S
C417 C416 1.385 . S
C418 C416 1.478 . S
C418 C420 1.381 1_554 S
C418 C424 1.383 . S
C419 C415 1.495 . S
C419 H425 0.959 . S
C419 H426 0.961 . S
C419 H427 0.960 . S
C420 C418 1.381 1_556 S
C420 C421 1.394 . S
C420 H428 0.930 . S
C421 C420 1.394 . S
C421 C422 1.383 1_556 S
C421 H429 0.929 . S
C422 C421 1.383 1_554 S
C422 C423 1.377 . S
C423 H407 0.930 . S
C423 C422 1.377 . S
C423 C424 1.379 . S
C424 H408 0.931 . S
C424 C418 1.383 . S
C424 C423 1.379 . S
H425 C419 0.959 . S
H426 C419 0.961 . S
H427 C419 0.960 . S
H428 C420 0.930 . S
H429 C421 0.929 . S
H430 C438 0.929 . S
H431 C440 0.930 . S
H432 C442 0.930 . S
H433 C445 0.929 . S
H434 C448 0.930 . S
H435 C450 0.960 . S
H436 C450 0.960 . S
H437 C450 0.960 . S
C438 H430 0.929 . S
C438 C439 1.377 . S
C438 C440 1.384 . S
C439 C438 1.377 . S
C439 C445 1.390 . S
C440 H431 0.930 . S
C440 C438 1.384 . S
C440 C441 1.372 . S
C441 C440 1.372 . S
C441 C442 1.400 . S
C441 C446 1.490 . S
C442 H432 0.930 . S
C442 C441 1.400 . S
C442 C445 1.386 . S
H443 C459 0.930 . S
H444 C460 0.931 . S
C445 H433 0.929 . S
C445 C439 1.390 . S
C445 C442 1.386 . S
C446 C441 1.490 . S
C446 C448 1.395 . S
C446 C449 1.403 . S
H447 C453 0.930 . S
C448 H434 0.930 . S
C448 C446 1.395 . S
C448 C451 1.403 . S
C449 C446 1.403 . S
C449 C450 1.524 . S
C449 C453 1.400 . S
C450 H435 0.960 . S
C450 H436 0.960 . S
C450 H437 0.960 . S
C450 C449 1.524 . S
C451 C448 1.403 . S
C451 C452 1.392 . S
C451 C455 1.495 . S
C452 C451 1.392 . S
C452 C453 1.385 . S
C452 C454 1.478 . S
C453 H447 0.930 . S
C453 C449 1.400 . S
C453 C452 1.385 . S
C454 C452 1.478 . S
C454 C456 1.381 . S
C454 C460 1.383 . S
C455 C451 1.495 . S
C455 H461 0.959 . S
C455 H462 0.961 . S
C455 H463 0.960 . S
C456 C454 1.381 . S
C456 C457 1.394 . S
C456 H464 0.930 . S
C457 C456 1.394 . S
C457 C458 1.383 . S
C457 H465 0.929 . S
C458 C457 1.383 . S
C458 C459 1.377 . S
C459 H443 0.930 . S
C459 C458 1.377 . S
C459 C460 1.379 . S
C460 H444 0.931 . S
C460 C454 1.383 . S
C460 C459 1.379 . S
H461 C455 0.959 . S
H462 C455 0.961 . S
H463 C455 0.960 . S
H464 C456 0.930 . S
H465 C457 0.929 . S
H466 C474 0.929 . S
H467 C476 0.930 . S
H468 C478 0.930 . S
H469 C481 0.929 . S
H470 C484 0.930 . S
H471 C486 0.960 . S
H472 C486 0.960 . S
H473 C486 0.960 . S
C474 H466 0.929 . S
C474 C475 1.377 . S
C474 C476 1.384 . S
C475 C474 1.377 . S
C475 C481 1.390 . S
C476 H467 0.930 . S
C476 C474 1.384 . S
C476 C477 1.372 . S
C477 C476 1.372 . S
C477 C478 1.400 . S
C477 C482 1.490 . S
C478 H468 0.930 . S
C478 C477 1.400 . S
C478 C481 1.386 . S
H479 C495 0.930 . S
H480 C496 0.931 . S
C481 H469 0.929 . S
C481 C475 1.390 . S
C481 C478 1.386 . S
C482 C477 1.490 . S
C482 C484 1.395 . S
C482 C485 1.403 . S
H483 C489 0.930 . S
C484 H470 0.930 . S
C484 C482 1.395 . S
C484 C487 1.403 . S
C485 C482 1.403 . S
C485 C486 1.524 . S
C485 C489 1.400 . S
C486 H471 0.960 . S
C486 H472 0.960 . S
C486 H473 0.960 . S
C486 C485 1.524 . S
C487 C484 1.403 . S
C487 C488 1.392 . S
C487 C491 1.495 . S
C488 C487 1.392 . S
C488 C489 1.385 . S
C488 C490 1.478 . S
C489 H483 0.930 . S
C489 C485 1.400 . S
C489 C488 1.385 . S
C490 C488 1.478 . S
C490 C492 1.381 . S
C490 C496 1.383 . S
C491 C487 1.495 . S
C491 H497 0.959 . S
C491 H498 0.961 . S
C491 H499 0.960 . S
C492 C490 1.381 . S
C492 C493 1.394 . S
C492 H500 0.930 . S
C493 C492 1.394 . S
C493 C494 1.383 . S
C493 H501 0.929 . S
C494 C493 1.383 . S
C494 C495 1.377 . S
C495 H479 0.930 . S
C495 C494 1.377 . S
C495 C496 1.379 . S
C496 H480 0.931 . S
C496 C490 1.383 . S
C496 C495 1.379 . S
H497 C491 0.959 . S
H498 C491 0.961 . S
H499 C491 0.960 . S
H500 C492 0.930 . S
H501 C493 0.929 . S
H502 C510 0.929 . S
H503 C512 0.930 . S
H504 C514 0.930 . S
H505 C517 0.929 . S
H506 C520 0.930 . S
H507 C522 0.960 . S
H508 C522 0.960 . S
H509 C522 0.960 . S
C510 H502 0.929 . S
C510 C511 1.377 . S
C510 C512 1.384 . S
C511 C510 1.377 . S
C511 C517 1.390 . S
C512 H503 0.930 . S
C512 C510 1.384 . S
C512 C513 1.372 . S
C513 C512 1.372 . S
C513 C514 1.400 . S
C513 C518 1.490 . S
C514 H504 0.930 . S
C514 C513 1.400 . S
C514 C517 1.386 . S
H515 C531 0.930 . S
H516 C532 0.931 . S
C517 H505 0.929 . S
C517 C511 1.390 . S
C517 C514 1.386 . S
C518 C513 1.490 . S
C518 C520 1.395 . S
C518 C521 1.403 . S
H519 C525 0.930 . S
C520 H506 0.930 . S
C520 C518 1.395 . S
C520 C523 1.403 . S
C521 C518 1.403 . S
C521 C522 1.524 . S
C521 C525 1.400 . S
C522 H507 0.960 . S
C522 H508 0.960 . S
C522 H509 0.960 . S
C522 C521 1.524 . S
C523 C520 1.403 . S
C523 C524 1.392 . S
C523 C527 1.495 . S
C524 C523 1.392 . S
C524 C525 1.385 . S
C524 C526 1.478 . S
C525 H519 0.930 . S
C525 C521 1.400 . S
C525 C524 1.385 . S
C526 C524 1.478 . S
C526 C528 1.381 . S
C526 C532 1.383 . S
C527 C523 1.495 . S
C527 H533 0.959 . S
C527 H534 0.961 . S
C527 H535 0.960 . S
C528 C526 1.381 . S
C528 C529 1.394 . S
C528 H536 0.930 . S
C529 C528 1.394 . S
C529 C530 1.383 . S
C529 H537 0.929 . S
C530 C529 1.383 . S
C530 C531 1.377 . S
C531 H515 0.930 . S
C531 C530 1.377 . S
C531 C532 1.379 . S
C532 H516 0.931 . S
C532 C526 1.383 . S
C532 C531 1.379 . S
H533 C527 0.959 . S
H534 C527 0.961 . S
H535 C527 0.960 . S
H536 C528 0.930 . S
H537 C529 0.929 . S
H538 C546 0.929 . S
H539 C548 0.930 . S
H540 C550 0.930 . S
H541 C553 0.929 . S
H542 C556 0.930 . S
H543 C558 0.960 . S
H544 C558 0.960 . S
H545 C558 0.960 . S
C546 H538 0.929 . S
C546 C547 1.377 . S
C546 C548 1.384 . S
C547 C546 1.377 . S
C547 C553 1.390 . S
C548 H539 0.930 . S
C548 C546 1.384 . S
C548 C549 1.372 . S
C549 C548 1.372 . S
C549 C550 1.400 . S
C549 C554 1.490 . S
C550 H540 0.930 . S
C550 C549 1.400 . S
C550 C553 1.386 . S
H551 C567 0.930 . S
H552 C568 0.931 . S
C553 H541 0.929 . S
C553 C547 1.390 . S
C553 C550 1.386 . S
C554 C549 1.490 . S
C554 C556 1.395 . S
C554 C557 1.403 . S
H555 C561 0.930 . S
C556 H542 0.930 . S
C556 C554 1.395 . S
C556 C559 1.403 . S
C557 C554 1.403 . S
C557 C558 1.524 . S
C557 C561 1.400 . S
C558 H543 0.960 . S
C558 H544 0.960 . S
C558 H545 0.960 . S
C558 C557 1.524 . S
C559 C556 1.403 . S
C559 C560 1.392 . S
C559 C563 1.495 . S
C560 C559 1.392 . S
C560 C561 1.385 . S
C560 C562 1.478 . S
C561 H555 0.930 . S
C561 C557 1.400 . S
C561 C560 1.385 . S
C562 C560 1.478 . S
C562 C564 1.381 . S
C562 C568 1.383 . S
C563 C559 1.495 . S
C563 H569 0.959 . S
C563 H570 0.961 . S
C563 H571 0.960 . S
C564 C562 1.381 . S
C564 C565 1.394 . S
C564 H572 0.930 . S
C565 C564 1.394 . S
C565 C566 1.383 . S
C565 H573 0.929 . S
C566 C565 1.383 . S
C566 C567 1.377 . S
C567 H551 0.930 . S
C567 C566 1.377 . S
C567 C568 1.379 . S
C568 H552 0.931 . S
C568 C562 1.383 . S
C568 C567 1.379 . S
H569 C563 0.959 . S
H570 C563 0.961 . S
H571 C563 0.960 . S
H572 C564 0.930 . S
H573 C565 0.929 . S
H574 C582 0.929 . S
H575 C584 0.930 . S
H576 C586 0.930 . S
H577 C589 0.929 . S
H578 C592 0.930 . S
H579 C594 0.960 . S
H580 C594 0.960 . S
H581 C594 0.960 . S
C582 H574 0.929 . S
C582 C583 1.377 . S
C582 C584 1.384 . S
C583 C582 1.377 . S
C583 C589 1.390 . S
C584 H575 0.930 . S
C584 C582 1.384 . S
C584 C585 1.372 . S
C585 C584 1.372 . S
C585 C586 1.400 . S
C585 C590 1.490 . S
C586 H576 0.930 . S
C586 C585 1.400 . S
C586 C589 1.386 . S
H587 C603 0.930 . S
H588 C604 0.931 . S
C589 H577 0.929 . S
C589 C583 1.390 . S
C589 C586 1.386 . S
C590 C585 1.490 . S
C590 C592 1.395 . S
C590 C593 1.403 . S
H591 C597 0.930 . S
C592 H578 0.930 . S
C592 C590 1.395 . S
C592 C595 1.403 . S
C593 C590 1.403 . S
C593 C594 1.524 . S
C593 C597 1.400 . S
C594 H579 0.960 . S
C594 H580 0.960 . S
C594 H581 0.960 . S
C594 C593 1.524 . S
C595 C592 1.403 . S
C595 C596 1.392 . S
C595 C599 1.495 . S
C596 C595 1.392 . S
C596 C597 1.385 . S
C596 C598 1.478 . S
C597 H591 0.930 . S
C597 C593 1.400 . S
C597 C596 1.385 . S
C598 C596 1.478 . S
C598 C600 1.381 . S
C598 C604 1.383 . S
C599 C595 1.495 . S
C599 H605 0.959 . S
C599 H606 0.961 . S
C599 H607 0.960 . S
C600 C598 1.381 . S
C600 C601 1.394 . S
C600 H608 0.930 . S
C601 C600 1.394 . S
C601 C602 1.383 . S
C601 H609 0.929 . S
C602 C601 1.383 . S
C602 C603 1.377 . S
C603 H587 0.930 . S
C603 C602 1.377 . S
C603 C604 1.379 . S
C604 H588 0.931 . S
C604 C598 1.383 . S
C604 C603 1.379 . S
H605 C599 0.959 . S
H606 C599 0.961 . S
H607 C599 0.960 . S
H608 C600 0.930 . S
H609 C601 0.929 . S
H610 C618 0.929 . S
H611 C620 0.930 . S
H612 C622 0.930 . S
H613 C625 0.929 . S
H614 C628 0.930 . S
H615 C630 0.960 . S
H616 C630 0.960 . S
H617 C630 0.960 . S
C618 H610 0.929 . S
C618 C619 1.377 . S
C618 C620 1.384 . S
C619 C618 1.377 . S
C619 C625 1.390 . S
C620 H611 0.930 . S
C620 C618 1.384 . S
C620 C621 1.372 . S
C621 C620 1.372 . S
C621 C622 1.400 . S
C621 C626 1.490 . S
C622 H612 0.930 . S
C622 C621 1.400 . S
C622 C625 1.386 . S
H623 C639 0.930 . S
H624 C640 0.931 . S
C625 H613 0.929 . S
C625 C619 1.390 . S
C625 C622 1.386 . S
C626 C621 1.490 . S
C626 C628 1.395 . S
C626 C629 1.403 . S
H627 C633 0.930 . S
C628 H614 0.930 . S
C628 C626 1.395 . S
C628 C631 1.403 . S
C629 C626 1.403 . S
C629 C630 1.524 . S
C629 C633 1.400 . S
C630 H615 0.960 . S
C630 H616 0.960 . S
C630 H617 0.960 . S
C630 C629 1.524 . S
C631 C628 1.403 . S
C631 C632 1.392 . S
C631 C635 1.495 . S
C632 C631 1.392 . S
C632 C633 1.385 . S
C632 C634 1.478 . S
C633 H627 0.930 . S
C633 C629 1.400 . S
C633 C632 1.385 . S
C634 C632 1.478 . S
C634 C636 1.381 . S
C634 C640 1.383 . S
C635 C631 1.495 . S
C635 H641 0.959 . S
C635 H642 0.961 . S
C635 H643 0.960 . S
C636 C634 1.381 . S
C636 C637 1.394 1_655 S
C636 H644 0.930 1_655 S
C637 C636 1.394 1_455 S
C637 C638 1.383 1_455 S
C637 H645 0.929 . S
C638 C637 1.383 1_655 S
C638 C639 1.377 . S
C639 H623 0.930 . S
C639 C638 1.377 . S
C639 C640 1.379 . S
C640 H624 0.931 . S
C640 C634 1.383 . S
C640 C639 1.379 . S
H641 C635 0.959 . S
H642 C635 0.961 . S
H643 C635 0.960 . S
H644 C636 0.930 1_455 S
H645 C637 0.929 . S
H646 C654 0.929 . S
H647 C656 0.930 . S
H648 C658 0.930 . S
H649 C661 0.929 . S
H650 C664 0.930 . S
H651 C666 0.960 . S
H652 C666 0.960 . S
H653 C666 0.960 . S
C654 H646 0.929 . S
C654 C655 1.377 . S
C654 C656 1.384 . S
C655 C654 1.377 . S
C655 C661 1.390 . S
C656 H647 0.930 . S
C656 C654 1.384 . S
C656 C657 1.372 . S
C657 C656 1.372 . S
C657 C658 1.400 . S
C657 C662 1.490 . S
C658 H648 0.930 . S
C658 C657 1.400 . S
C658 C661 1.386 . S
H659 C675 0.930 . S
H660 C676 0.931 . S
C661 H649 0.929 . S
C661 C655 1.390 . S
C661 C658 1.386 . S
C662 C657 1.490 . S
C662 C664 1.395 . S
C662 C665 1.403 . S
H663 C669 0.930 . S
C664 H650 0.930 . S
C664 C662 1.395 . S
C664 C667 1.403 . S
C665 C662 1.403 . S
C665 C666 1.524 . S
C665 C669 1.400 . S
C666 H651 0.960 . S
C666 H652 0.960 . S
C666 H653 0.960 . S
C666 C665 1.524 . S
C667 C664 1.403 . S
C667 C668 1.392 . S
C667 C671 1.495 . S
C668 C667 1.392 . S
C668 C669 1.385 . S
C668 C670 1.478 . S
C669 H663 0.930 . S
C669 C665 1.400 . S
C669 C668 1.385 . S
C670 C668 1.478 . S
C670 C672 1.381 . S
C670 C676 1.383 . S
C671 C667 1.495 . S
C671 H677 0.959 . S
C671 H678 0.961 . S
C671 H679 0.960 . S
C672 C670 1.381 . S
C672 C673 1.394 . S
C672 H680 0.930 . S
C673 C672 1.394 . S
C673 C674 1.383 . S
C673 H681 0.929 . S
C674 C673 1.383 . S
C674 C675 1.377 . S
C675 H659 0.930 . S
C675 C674 1.377 . S
C675 C676 1.379 . S
C676 H660 0.931 . S
C676 C670 1.383 . S
C676 C675 1.379 . S
H677 C671 0.959 . S
H678 C671 0.961 . S
H679 C671 0.960 . S
H680 C672 0.930 . S
H681 C673 0.929 . S
H682 C690 0.929 . S
H683 C692 0.930 . S
H684 C694 0.930 . S
H685 C697 0.929 . S
H686 C700 0.930 . S
H687 C702 0.960 1_655 S
H688 C702 0.960 . S
H689 C702 0.960 . S
C690 H682 0.929 . S
C690 C691 1.377 . S
C690 C692 1.384 . S
C691 C690 1.377 . S
C691 C697 1.390 . S
C692 H683 0.930 . S
C692 C690 1.384 . S
C692 C693 1.372 . S
C693 C692 1.372 . S
C693 C694 1.400 . S
C693 C698 1.490 . S
C694 H684 0.930 . S
C694 C693 1.400 . S
C694 C697 1.386 . S
H695 C711 0.930 . S
H696 C712 0.931 . S
C697 H685 0.929 . S
C697 C691 1.390 . S
C697 C694 1.386 . S
C698 C693 1.490 . S
C698 C700 1.395 . S
C698 C701 1.403 . S
H699 C705 0.930 . S
C700 H686 0.930 . S
C700 C698 1.395 . S
C700 C703 1.403 . S
C701 C698 1.403 . S
C701 C702 1.524 . S
C701 C705 1.400 . S
C702 H687 0.960 1_455 S
C702 H688 0.960 . S
C702 H689 0.960 . S
C702 C701 1.524 . S
C703 C700 1.403 . S
C703 C704 1.392 . S
C703 C707 1.495 . S
C704 C703 1.392 . S
C704 C705 1.385 . S
C704 C706 1.478 . S
C705 H699 0.930 . S
C705 C701 1.400 . S
C705 C704 1.385 . S
C706 C704 1.478 . S
C706 C708 1.381 . S
C706 C712 1.383 . S
C707 C703 1.495 . S
C707 H713 0.959 . S
C707 H714 0.961 . S
C707 H715 0.960 . S
C708 C706 1.381 . S
C708 C709 1.394 . S
C708 H716 0.930 . S
C709 C708 1.394 . S
C709 C710 1.383 . S
C709 H717 0.929 . S
C710 C709 1.383 . S
C710 C711 1.377 . S
C711 H695 0.930 . S
C711 C710 1.377 . S
C711 C712 1.379 . S
C712 H696 0.931 . S
C712 C706 1.383 . S
C712 C711 1.379 . S
H713 C707 0.959 . S
H714 C707 0.961 . S
H715 C707 0.960 . S
H716 C708 0.930 . S
H717 C709 0.929 . S
C314 C257 1.634 . S
C295 C211 1.559 . S
C331 C31 1.612 . S
C350 C280 1.617 . S
C367 C91 1.630 . S
C386 C256 1.649 . S
C403 C151 1.581 . S
C422 C279 1.651 . S
C458 C260 1.566 . S
C439 C20 1.631 . S
C494 C282 1.621 . S
C475 C61 1.608 . S
C511 C121 1.552 . S
C530 C261 1.587 . S
C547 C200 1.583 . S
C566 C281 1.590 . S
C602 C284 1.562 . S
C583 C80 1.647 . S
C638 C259 1.596 . S
C619 C140 1.606 . S
C674 C283 1.592 . S
C655 C181 1.542 . S
C691 C1 1.577 . S
C710 C258 1.567 . S
