# Generated by pormake.
# Topology pth, (4,4)-cn, num edge types: 1
# Building blocks:
#     Node 0, Type 0, BuildingBlock: KUFVIS_clean_sbu_0, # of connection points: 4
#     Node 1, Type 0, BuildingBlock: KUFVIS_clean_sbu_0, # of connection points: 4
#     Node 2, Type 0, BuildingBlock: KUFVIS_clean_sbu_0, # of connection points: 4
#     Node 3, Type 1, BuildingBlock: NAHDIM_clean_linker_0, # of connection points: 4
#     Node 4, Type 1, BuildingBlock: NAHDIM_clean_linker_0, # of connection points: 4
#     Node 5, Type 1, BuildingBlock: NAHDIM_clean_linker_0, # of connection points: 4
#     Edge 6, Type (0, 1), BuildingBlock: KIFKEQ_clean_linker_1, # of connection points: 2
#     Edge 7, Type (0, 1), BuildingBlock: KIFKEQ_clean_linker_1, # of connection points: 2
#     Edge 8, Type (0, 1), BuildingBlock: KIFKEQ_clean_linker_1, # of connection points: 2
#     Edge 9, Type (0, 1), BuildingBlock: KIFKEQ_clean_linker_1, # of connection points: 2
#     Edge 10, Type (0, 1), BuildingBlock: KIFKEQ_clean_linker_1, # of connection points: 2
#     Edge 11, Type (0, 1), BuildingBlock: KIFKEQ_clean_linker_1, # of connection points: 2
#     Edge 12, Type (0, 1), BuildingBlock: KIFKEQ_clean_linker_1, # of connection points: 2
#     Edge 13, Type (0, 1), BuildingBlock: KIFKEQ_clean_linker_1, # of connection points: 2
#     Edge 14, Type (0, 1), BuildingBlock: KIFKEQ_clean_linker_1, # of connection points: 2
#     Edge 15, Type (0, 1), BuildingBlock: KIFKEQ_clean_linker_1, # of connection points: 2
#     Edge 16, Type (0, 1), BuildingBlock: KIFKEQ_clean_linker_1, # of connection points: 2
#     Edge 17, Type (0, 1), BuildingBlock: KIFKEQ_clean_linker_1, # of connection points: 2
# Relax obj value: 0.013
# Max RMSD: 0.083
# Mean RMSD: 0.063
data_MOF--net-pth--node1-KUFVIS_clean_sbu_0--node2-NAHDIM_clean_linker_0--edge1-KIFKEQ_clean_linker_1
_symmetry_space_group_name_H-M    P1
_symmetry_Int_Tables_number       1
_symmetry_cell_setting            triclinic
loop_
_symmetry_equiv_pos_as_xyz
'x, y, z'
_cell_length_a     31.920582
_cell_length_b     31.983015
_cell_length_c     82.610022
_cell_angle_alpha  90.079644
_cell_angle_beta   92.516161
_cell_angle_gamma 120.29741
loop_
_atom_site_label
_atom_site_type_symbol
_atom_site_fract_x
_atom_site_fract_y
_atom_site_fract_z
_atom_type_partial_charge
Mn0 Mn 0.049 0.05765 0.05301 0.0
Mn1 Mn 0.97584 0.09481 0.03578 0.0
C2 C 0.99944 0.01573 0.03079 0.0
C3 C 0.06298 0.0143 0.07302 0.0
C4 C 0.08361 0.14301 0.03022 0.0
O5 O 0.05061 0.10466 0.06974 0.0
O6 O 0.99692 0.12307 0.05827 0.0
C7 C 0.89291 0.04255 0.05679 0.0
N8 N 0.91085 0.05167 0.04173 0.0
C9 C 0.83251 0.99482 0.02933 0.0
C10 C 0.81311 0.98507 0.04469 0.0
C11 C 0.84347 0.00899 0.05848 0.0
C12 C 0.88202 0.02868 0.0284 0.0
H13 H 0.91618 0.06065 0.06742 0.0
C14 C 0.02636 0.1263 0.06993 0.0
O15 O 0.09873 0.05043 0.06614 0.0
O16 O 0.01932 0.00379 0.06837 0.0
N17 N 0.95217 0.07063 0.0141 0.0
C18 C 0.97649 0.08432 0.00015 0.0
C19 C 0.95134 0.06364 0.98525 0.0
C20 C 0.90139 0.02958 0.98481 0.0
C21 C 0.87688 0.01704 0.99927 0.0
C22 C 0.90377 0.03916 0.01374 0.0
H23 H 0.01487 0.11049 0.0004 0.0
O24 O 0.0363 0.01086 0.03506 0.0
O25 O 0.99135 0.04359 0.04009 0.0
O26 O 0.09176 0.11425 0.03872 0.0
O27 O 0.042 0.13981 0.02869 0.0
C28 C 0.82692 0.98312 -0.0001 0.0
C29 C 0.80478 0.97193 0.01493 0.0
H30 H 0.77503 0.95912 0.04605 0.0
H31 H 0.82881 0.0015 0.07038 0.0
H32 H 0.97047 0.07374 0.97414 0.0
H33 H 0.88222 0.01333 0.97331 0.0
H34 H 0.80525 0.96521 0.98892 0.0
H35 H 0.76641 0.94554 0.01527 0.0
Mn36 Mn 0.03751 0.05297 0.38679 0.0
Mn37 Mn 0.11695 0.16405 0.40281 0.0
C38 C 0.08732 0.06014 0.40884 0.0
C39 C 0.01853 0.9924 0.36737 0.0
C40 C 0.00947 0.11029 0.40916 0.0
O41 O 0.03843 0.09817 0.36955 0.0
O42 O 0.09582 0.17035 0.38029 0.0
C43 C 0.19754 0.18789 0.38137 0.0
N44 N 0.18064 0.18178 0.39654 0.0
C45 C 0.25846 0.20093 0.40865 0.0
C46 C 0.2768 0.20777 0.39315 0.0
C47 C 0.24616 0.20113 0.37945 0.0
C48 C 0.20972 0.18782 0.4098 0.0
H49 H 0.17404 0.18257 0.37081 0.0
C50 C 0.06514 0.14398 0.36887 0.0
O51 O 0.98469 0.99612 0.37426 0.0
O52 O 0.06318 0.02404 0.37171 0.0
N53 N 0.14105 0.16438 0.42448 0.0
C54 C 0.11771 0.15626 0.43856 0.0
C55 C 0.14324 0.16122 0.4534 0.0
C56 C 0.19258 0.17501 0.45362 0.0
C57 C 0.21612 0.18429 0.43901 0.0
C58 C 0.18892 0.17919 0.4246 0.0
H59 H 0.07981 0.14573 0.43848 0.0
O60 O 0.04847 0.01898 0.40514 0.0
O61 O 0.09694 0.09563 0.39913 0.0
O62 O 0.99837 0.0718 0.401 0.0
O63 O 0.05233 0.14737 0.41024 0.0
C64 C 0.26537 0.19792 0.43815 0.0
C65 C 0.28649 0.20609 0.42298 0.0
H66 H 0.31425 0.21785 0.39162 0.0
H67 H 0.25999 0.20611 0.36745 0.0
H68 H 0.12486 0.15423 0.46463 0.0
H69 H 0.21203 0.17833 0.46507 0.0
H70 H 0.28723 0.20184 0.44908 0.0
H71 H 0.32428 0.21616 0.42246 0.0
Mn72 Mn 0.05677 0.06298 0.72516 0.0
Mn73 Mn 0.00832 0.11765 0.7461 0.0
C74 C 0.10032 0.11574 0.74676 0.0
C75 C 0.10244 0.06274 0.70392 0.0
C76 C 0.97839 0.01206 0.74976 0.0
O77 O 0.00136 0.05519 0.7097 0.0
O78 O 0.97412 0.09517 0.72453 0.0
C79 C 0.03884 0.20318 0.72563 0.0
N80 N 0.03859 0.18417 0.74039 0.0
C81 C 0.08559 0.26362 0.75292 0.0
C82 C 0.08614 0.28407 0.73787 0.0
C83 C 0.06279 0.2537 0.72416 0.0
C84 C 0.06127 0.21304 0.75363 0.0
H85 H 0.02095 0.17996 0.71506 0.0
C86 C 0.97279 0.07162 0.71178 0.0
O87 O 0.07187 0.02273 0.71065 0.0
O88 O 0.10515 0.10224 0.70922 0.0
N89 N 0.03863 0.14158 0.7672 0.0
C90 C 0.03662 0.11612 0.78064 0.0
C91 C 0.05894 0.14113 0.79536 0.0
C92 C 0.08267 0.19197 0.79614 0.0
C93 C 0.08398 0.21736 0.78217 0.0
C94 C 0.06097 0.19047 0.76786 0.0
H95 H 0.01814 0.07703 0.78012 0.0
O96 O 0.11103 0.08357 0.74219 0.0
O97 O 0.06431 0.1153 0.73873 0.0
O98 O 0.00783 0.01149 0.7399 0.0
O99 O 0.97571 0.04975 0.75291 0.0
C100 C 0.10759 0.2683 0.78184 0.0
C101 C 0.10873 0.29143 0.7672 0.0
H102 H 0.10462 0.32302 0.73668 0.0
H103 H 0.06324 0.26921 0.71248 0.0
H104 H 0.05781 0.12128 0.80609 0.0
H105 H 0.09996 0.21112 0.80751 0.0
H106 H 0.12545 0.29008 0.79273 0.0
H107 H 0.12772 0.33063 0.76704 0.0
C108 C 0.92333 0.7335 0.26914 0.0
C109 C 0.948 0.72795 0.28469 0.0
C110 C 0.99979 0.69693 0.27518 0.0
C111 C 0.0479 0.70867 0.27366 0.0
C112 C 0.0591 0.67528 0.26706 0.0
C113 C 0.02099 0.62916 0.26157 0.0
C114 C 0.97213 0.61669 0.26323 0.0
C115 C 0.96196 0.65057 0.27011 0.0
C116 C 0.11165 0.68948 0.26579 0.0
C117 C 0.93065 0.56774 0.25752 0.0
C118 C 0.01625 0.30172 0.3079 0.0
C119 C 0.00307 0.33074 0.29702 0.0
C120 C 0.0374 0.41349 0.28748 0.0
C121 C 0.99774 0.40346 0.27677 0.0
C122 C 0.99875 0.43954 0.26688 0.0
C123 C 0.04067 0.48625 0.2674 0.0
C124 C 0.08071 0.49641 0.2781 0.0
C125 C 0.07832 0.45991 0.28811 0.0
C126 C 0.955 0.42771 0.25583 0.0
C127 C 0.12611 0.54571 0.27888 0.0
C128 C 0.10866 0.42267 0.17145 0.0
C129 C 0.06198 0.41687 0.17065 0.0
C130 C 0.05442 0.45384 0.17629 0.0
C131 C 0.09443 0.49757 0.18267 0.0
C132 C 0.14186 0.50459 0.18256 0.0
C133 C 0.14836 0.46703 0.17683 0.0
C134 C 0.00354 0.44575 0.17583 0.0
C135 C 0.18536 0.55111 0.18903 0.0
C136 C 0.09846 0.82095 0.17279 0.0
C137 C 0.11362 0.81013 0.15665 0.0
C138 C 0.08706 0.7241 0.16048 0.0
C139 C 0.04697 0.67746 0.1581 0.0
C140 C 0.044 0.6382 0.16664 0.0
C141 C 0.08275 0.64579 0.17756 0.0
C142 C 0.12466 0.69239 0.17935 0.0
C143 C 0.12623 0.73117 0.17092 0.0
C144 C 0.99888 0.58896 0.16436 0.0
C145 C 0.16738 0.70152 0.19049 0.0
C146 C 0.03224 0.59436 0.25379 0.0
C147 C 0.03215 0.55817 0.26327 0.0
C148 C 0.04263 0.52438 0.2567 0.0
C149 C 0.05394 0.52679 0.24024 0.0
C150 C 0.06512 0.49368 0.23329 0.0
C151 C 0.07545 0.4959 0.21702 0.0
C152 C 0.07568 0.53176 0.20712 0.0
C153 C 0.0861 0.53429 0.19055 0.0
C154 C 0.08789 0.57151 0.1812 0.0
C155 C 0.07837 0.6059 0.18787 0.0
C156 C 0.06591 0.60275 0.20424 0.0
C157 C 0.05401 0.63543 0.21114 0.0
C158 C 0.04264 0.63258 0.22731 0.0
C159 C 0.04296 0.59708 0.23726 0.0
C160 C 0.05406 0.56328 0.23049 0.0
C161 C 0.06524 0.56594 0.21394 0.0
C162 C 0.11092 0.32089 0.18226 0.0
C163 C 0.08654 0.33751 0.16953 0.0
O164 O 0.99195 0.73166 0.28139 0.0
O165 O 0.08605 0.76104 0.15266 0.0
O166 O 0.11682 0.38656 0.16705 0.0
O167 O 0.03764 0.37968 0.29738 0.0
H168 H 0.92364 0.69209 0.28992 0.0
H169 H 0.91492 0.70406 0.2602 0.0
H170 H 0.94731 0.7687 0.26349 0.0
H171 H 0.88866 0.73158 0.27192 0.0
H172 H 0.07683 0.74439 0.27766 0.0
H173 H 0.92448 0.64062 0.27128 0.0
H174 H 0.11812 0.66121 0.2711 0.0
H175 H 0.13686 0.72478 0.27204 0.0
H176 H 0.1203 0.6922 0.25283 0.0
H177 H 0.89464 0.56445 0.25887 0.0
H178 H 0.93214 0.53898 0.26459 0.0
H179 H 0.93418 0.56118 0.24457 0.0
H180 H 0.96529 0.32356 0.29805 0.0
H181 H 0.98783 0.28733 0.31722 0.0
H182 H 0.04625 0.32817 0.31662 0.0
H183 H 0.02518 0.25633 0.29189 0.0
H184 H 0.96576 0.3677 0.27611 0.0
H185 H 0.10873 0.46733 0.29638 0.0
H186 H 0.96444 0.4287 0.24302 0.0
H187 H 0.94403 0.45526 0.25754 0.0
H188 H 0.9235 0.39133 0.25804 0.0
H189 H 0.15531 0.54682 0.28703 0.0
H190 H 0.11741 0.57308 0.28334 0.0
H191 H 0.13992 0.55617 0.26656 0.0
H192 H 0.0517 0.33008 0.17452 0.0
H193 H 0.03138 0.3836 0.16564 0.0
H194 H 0.18438 0.47151 0.17704 0.0
H195 H 0.99239 0.44536 0.1884 0.0
H196 H 0.97674 0.41108 0.16953 0.0
H197 H 0.00257 0.47601 0.16959 0.0
H198 H 0.22006 0.55177 0.18744 0.0
H199 H 0.18191 0.55575 0.20214 0.0
H200 H 0.18666 0.58241 0.18276 0.0
H201 H 0.15277 0.82135 0.15766 0.0
H202 H 0.11987 0.86036 0.17586 0.0
H203 H 0.10516 0.80156 0.18278 0.0
H204 H 0.05918 0.80926 0.17205 0.0
H205 H 0.01717 0.67222 0.1499 0.0
H206 H 0.15801 0.76678 0.17267 0.0
H207 H 0.98279 0.5756 0.17624 0.0
H208 H 0.00862 0.56282 0.15946 0.0
H209 H 0.97105 0.58952 0.15595 0.0
H210 H 0.19987 0.73753 0.18866 0.0
H211 H 0.17699 0.67307 0.18855 0.0
H212 H 0.15745 0.69996 0.20328 0.0
H213 H 0.02362 0.55617 0.27592 0.0
H214 H 0.06585 0.46551 0.24033 0.0
H215 H 0.08353 0.46925 0.21235 0.0
H216 H 0.09679 0.57372 0.16859 0.0
H217 H 0.05323 0.66359 0.20411 0.0
H218 H 0.03375 0.6587 0.23193 0.0
H219 H 0.08755 0.28149 0.18429 0.0
H220 H 0.11655 0.34079 0.19393 0.0
H221 H 0.14684 0.32811 0.1784 0.0
C222 C 0.42009 0.14036 0.65172 0.0
C223 C 0.3807 0.11666 0.63794 0.0
C224 C 0.41659 0.08295 0.62005 0.0
C225 C 0.45165 0.12763 0.61396 0.0
C226 C 0.48623 0.13033 0.60346 0.0
C227 C 0.48624 0.08766 0.599 0.0
C228 C 0.45092 0.04258 0.60494 0.0
C229 C 0.41633 0.04082 0.61531 0.0
C230 C 0.5233 0.17904 0.5973 0.0
C231 C 0.45018 0.99645 0.60049 0.0
C232 C 0.79417 0.20818 0.65203 0.0
C233 C 0.77375 0.15983 0.64272 0.0
C234 C 0.7401 0.1534 0.61562 0.0
C235 C 0.70414 0.10444 0.61409 0.0
C236 C 0.66188 0.08971 0.60423 0.0
C237 C 0.65535 0.12497 0.59601 0.0
C238 C 0.69238 0.17437 0.59721 0.0
C239 C 0.73486 0.18783 0.60682 0.0
C240 C 0.62367 0.03668 0.60296 0.0
C241 C 0.68635 0.2131 0.58886 0.0
C242 C 0.70408 0.10905 0.49152 0.0
C243 C 0.67187 0.06336 0.49756 0.0
C244 C 0.63155 0.05589 0.50599 0.0
C245 C 0.62328 0.09488 0.5084 0.0
C246 C 0.65435 0.14032 0.50167 0.0
C247 C 0.69419 0.14666 0.49315 0.0
C248 C 0.59825 0.00655 0.51259 0.0
C249 C 0.64621 0.18247 0.50387 0.0
C250 C 0.23531 0.96907 0.50713 0.0
C251 C 0.27734 0.01141 0.49895 0.0
C252 C 0.35571 0.01523 0.49907 0.0
C253 C 0.37334 0.98355 0.50134 0.0
C254 C 0.42064 0.00025 0.5078 0.0
C255 C 0.45128 0.05018 0.51165 0.0
C256 C 0.43467 0.08295 0.50831 0.0
C257 C 0.38683 0.06506 0.50211 0.0
C258 C 0.43738 0.96437 0.51096 0.0
C259 C 0.46705 0.13662 0.51168 0.0
C260 C 0.52453 0.0909 0.5886 0.0
C261 C 0.56958 0.10353 0.5961 0.0
C262 C 0.6085 0.11056 0.58706 0.0
C263 C 0.60257 0.10477 0.57 0.0
C264 C 0.64096 0.11158 0.56054 0.0
C265 C 0.63501 0.10676 0.54373 0.0
C266 C 0.59018 0.09417 0.53574 0.0
C267 C 0.58362 0.08867 0.51866 0.0
C268 C 0.53842 0.07548 0.51112 0.0
C269 C 0.4992 0.06733 0.52022 0.0
C270 C 0.50517 0.07313 0.53731 0.0
C271 C 0.46651 0.06547 0.54683 0.0
C272 C 0.47282 0.07158 0.56361 0.0
C273 C 0.51773 0.08463 0.57156 0.0
C274 C 0.55702 0.09189 0.56222 0.0
C275 C 0.55082 0.08652 0.54508 0.0
C276 C 0.80967 0.13503 0.50345 0.0
C277 C 0.77641 0.10241 0.48933 0.0
O278 O 0.38304 0.07891 0.63059 0.0
O279 O 0.30865 0.99651 0.49383 0.0
O280 O 0.7448 0.118 0.48407 0.0
O281 O 0.77868 0.16824 0.62628 0.0
H282 H 0.38673 0.14458 0.62889 0.0
H283 H 0.45683 0.15722 0.64687 0.0
H284 H 0.41692 0.11309 0.66065 0.0
H285 H 0.41684 0.16921 0.65804 0.0
H286 H 0.45287 0.16085 0.61736 0.0
H287 H 0.38928 0.00649 0.61999 0.0
H288 H 0.56004 0.18876 0.60231 0.0
H289 H 0.516 0.20825 0.60078 0.0
H290 H 0.5237 0.1773 0.58389 0.0
H291 H 0.42117 0.96443 0.60646 0.0
H292 H 0.48584 0.0 0.604 0.0
H293 H 0.44435 0.99008 0.58716 0.0
H294 H 0.73456 0.13824 0.64546 0.0
H295 H 0.79132 0.20222 0.66528 0.0
H296 H 0.77303 0.22584 0.64834 0.0
H297 H 0.83282 0.2331 0.64944 0.0
H298 H 0.70894 0.078 0.62084 0.0
H299 H 0.76308 0.22558 0.60816 0.0
H300 H 0.61185 0.02537 0.59007 0.0
H301 H 0.59136 0.0306 0.60942 0.0
H302 H 0.63695 0.01338 0.60832 0.0
H303 H 0.71686 0.25013 0.59207 0.0
H304 H 0.65183 0.21061 0.59218 0.0
H305 H 0.68433 0.20749 0.57553 0.0
H306 H 0.75598 0.06486 0.49375 0.0
H307 H 0.67774 0.03329 0.49563 0.0
H308 H 0.71879 0.18155 0.4882 0.0
H309 H 0.60061 0.00891 0.52604 0.0
H310 H 0.60756 0.9791 0.50868 0.0
H311 H 0.56003 0.99406 0.50854 0.0
H312 H 0.67337 0.21536 0.49775 0.0
H313 H 0.64816 0.19121 0.517 0.0
H314 H 0.60929 0.17246 0.49895 0.0
H315 H 0.29582 0.04149 0.50818 0.0
H316 H 0.20996 0.98008 0.51169 0.0
H317 H 0.24967 0.95742 0.51759 0.0
H318 H 0.21497 0.9378 0.49847 0.0
H319 H 0.34921 0.94529 0.4986 0.0
H320 H 0.3738 0.08993 0.49964 0.0
H321 H 0.44932 0.96668 0.52393 0.0
H322 H 0.46907 0.97342 0.50364 0.0
H323 H 0.40842 0.92651 0.50789 0.0
H324 H 0.45104 0.15781 0.50651 0.0
H325 H 0.5031 0.1496 0.5066 0.0
H326 H 0.47303 0.14375 0.52498 0.0
H327 H 0.57466 0.10874 0.60918 0.0
H328 H 0.67617 0.12101 0.56602 0.0
H329 H 0.66603 0.11292 0.53709 0.0
H330 H 0.53347 0.07064 0.49804 0.0
H331 H 0.43093 0.05493 0.54143 0.0
H332 H 0.44191 0.06563 0.57028 0.0
H333 H 0.83015 0.17346 0.49984 0.0
H334 H 0.83585 0.12346 0.50751 0.0
H335 H 0.78763 0.13239 0.51386 0.0
C336 C 0.69055 0.65172 0.7767 0.0
C337 C 0.70868 0.69399 0.78902 0.0
C338 C 0.68529 0.66162 0.81585 0.0
C339 C 0.65939 0.68399 0.82053 0.0
C340 C 0.62452 0.66345 0.83228 0.0
C341 C 0.61549 0.6197 0.83944 0.0
C342 C 0.64295 0.59813 0.83518 0.0
C343 C 0.67808 0.61987 0.82357 0.0
C344 C 0.59681 0.68805 0.83686 0.0
C345 C 0.63418 0.55137 0.84252 0.0
C346 C 0.26912 0.45572 0.79643 0.0
C347 C 0.30235 0.43697 0.80257 0.0
C348 C 0.34876 0.46183 0.82804 0.0
C349 C 0.38115 0.44464 0.82724 0.0
C350 C 0.42642 0.46865 0.83582 0.0
C351 C 0.43979 0.51149 0.84497 0.0
C352 C 0.40688 0.52887 0.84569 0.0
C353 C 0.36116 0.50298 0.83749 0.0
C354 C 0.46001 0.44845 0.83497 0.0
C355 C 0.42021 0.5753 0.85477 0.0
C356 C 0.40331 0.44045 0.94923 0.0
C357 C 0.4342 0.42777 0.94173 0.0
C358 C 0.47349 0.46189 0.93316 0.0
C359 C 0.48193 0.50961 0.93192 0.0
C360 C 0.45221 0.52311 0.94 0.0
C361 C 0.41352 0.48837 0.94872 0.0
C362 C 0.50546 0.44663 0.92512 0.0
C363 C 0.46045 0.57378 0.93898 0.0
C364 C 0.87277 0.77732 0.93379 0.0
C365 C 0.82732 0.77504 0.94006 0.0
C366 C 0.74914 0.69942 0.93959 0.0
C367 C 0.731 0.64966 0.93804 0.0
C368 C 0.68366 0.61837 0.93166 0.0
C369 C 0.65349 0.63745 0.92712 0.0
C370 C 0.67069 0.68746 0.92962 0.0
C371 C 0.71852 0.71804 0.93578 0.0
C372 C 0.66635 0.56517 0.92935 0.0
C373 C 0.63886 0.70867 0.92546 0.0
C374 C 0.57526 0.59479 0.85059 0.0
C375 C 0.52831 0.5662 0.84365 0.0
C376 C 0.48881 0.5392 0.85323 0.0
C377 C 0.49631 0.53995 0.87025 0.0
C378 C 0.45797 0.51103 0.88019 0.0
C379 C 0.46561 0.51251 0.89693 0.0
C380 C 0.51191 0.543 0.90439 0.0
C381 C 0.52017 0.5442 0.9214 0.0
C382 C 0.56626 0.57596 0.92848 0.0
C383 C 0.60506 0.60562 0.91894 0.0
C384 C 0.59797 0.60345 0.90186 0.0
C385 C 0.63669 0.63109 0.89185 0.0
C386 C 0.6294 0.62836 0.87506 0.0
C387 C 0.58308 0.5981 0.86763 0.0
C388 C 0.54346 0.57026 0.87748 0.0
C389 C 0.55107 0.57243 0.8946 0.0
C390 C 0.30339 0.35354 0.93701 0.0
C391 C 0.3341 0.35897 0.95251 0.0
O392 O 0.71747 0.67949 0.80397 0.0
O393 O 0.79619 0.72821 0.94486 0.0
O394 O 0.36338 0.40761 0.95691 0.0
O395 O 0.30585 0.43983 0.81935 0.0
H396 H 0.67894 0.70248 0.78943 0.0
H397 H 0.6552 0.62122 0.78032 0.0
H398 H 0.71663 0.63844 0.77629 0.0
H399 H 0.68489 0.66285 0.76444 0.0
H400 H 0.66641 0.71752 0.81507 0.0
H401 H 0.69887 0.60337 0.82003 0.0
H402 H 0.55817 0.6653 0.83255 0.0
H403 H 0.61166 0.7244 0.83153 0.0
H404 H 0.59775 0.69195 0.85026 0.0
H405 H 0.65732 0.53831 0.83744 0.0
H406 H 0.59545 0.5229 0.84036 0.0
H407 H 0.64181 0.55665 0.85583 0.0
H408 H 0.33873 0.46089 0.79762 0.0
H409 H 0.26643 0.45472 0.78296 0.0
H410 H 0.28421 0.49381 0.80073 0.0
H411 H 0.23213 0.43342 0.801 0.0
H412 H 0.37084 0.41241 0.81992 0.0
H413 H 0.33561 0.5158 0.83791 0.0
H414 H 0.47561 0.44831 0.84725 0.0
H415 H 0.49058 0.47183 0.82731 0.0
H416 H 0.44117 0.41102 0.82969 0.0
H417 H 0.39437 0.5881 0.85171 0.0
H418 H 0.45739 0.60432 0.85203 0.0
H419 H 0.41987 0.56932 0.868 0.0
H420 H 0.3567 0.3425 0.95018 0.0
H421 H 0.42829 0.3915 0.94254 0.0
H422 H 0.38995 0.49805 0.95471 0.0
H423 H 0.5 0.44656 0.91176 0.0
H424 H 0.49739 0.40989 0.92865 0.0
H425 H 0.54431 0.47287 0.92834 0.0
H426 H 0.43416 0.57861 0.94596 0.0
H427 H 0.45718 0.5822 0.92611 0.0
H428 H 0.49787 0.60026 0.9437 0.0
H429 H 0.81041 0.78495 0.92981 0.0
H430 H 0.89814 0.81414 0.92946 0.0
H431 H 0.86242 0.75104 0.92348 0.0
H432 H 0.89177 0.76812 0.9435 0.0
H433 H 0.75474 0.63564 0.94133 0.0
H434 H 0.73187 0.75635 0.93763 0.0
H435 H 0.65358 0.55357 0.91654 0.0
H436 H 0.63509 0.54372 0.93701 0.0
H437 H 0.69525 0.55657 0.93263 0.0
H438 H 0.65538 0.74677 0.92996 0.0
H439 H 0.60282 0.68668 0.9307 0.0
H440 H 0.63277 0.70774 0.9121 0.0
H441 H 0.52243 0.56484 0.83057 0.0
H442 H 0.42161 0.48676 0.87512 0.0
H443 H 0.43465 0.48954 0.90396 0.0
H444 H 0.57231 0.57673 0.94153 0.0
H445 H 0.6732 0.65496 0.89686 0.0
H446 H 0.6605 0.65039 0.86796 0.0
H447 H 0.28092 0.37059 0.93873 0.0
H448 H 0.27911 0.31462 0.93362 0.0
H449 H 0.32736 0.37133 0.92684 0.0
H450 H 0.09583 0.15466 0.0946 0.0
H451 H 0.97347 0.16895 0.07784 0.0
H452 H 0.10926 0.20717 0.11792 0.0
H453 H 0.9874 0.22202 0.10127 0.0
H454 H 0.99861 0.26678 0.15604 0.0
H455 H 0.98298 0.21673 0.13159 0.0
H456 H 0.13644 0.29388 0.12332 0.0
H457 H 0.15198 0.34373 0.14777 0.0
C458 C 0.07171 0.16893 0.09587 0.0
C459 C 0.03357 0.15757 0.08429 0.0
C460 C 0.07971 0.19937 0.10919 0.0
C461 C 0.04961 0.21898 0.11136 0.0
C462 C 0.01106 0.20725 0.09994 0.0
C463 C 0.00325 0.17703 0.08649 0.0
C464 C 0.02886 0.27331 0.14887 0.0
C465 C 0.07649 0.30917 0.15376 0.0
C466 C 0.01991 0.24481 0.13487 0.0
C467 C 0.05851 0.25127 0.12559 0.0
C468 C 0.10604 0.2877 0.13034 0.0
C469 C 0.11493 0.31639 0.14426 0.0
H470 H 0.91531 0.03738 0.412 0.0
H471 H 0.01758 0.1847 0.42813 0.0
H472 H 0.85562 0.03607 0.42968 0.0
H473 H 0.95798 0.18291 0.44594 0.0
H474 H 0.7961 0.03205 0.48014 0.0
H475 H 0.84899 0.03495 0.45924 0.0
H476 H 0.87843 0.1781 0.44675 0.0
H477 H 0.8256 0.17524 0.46787 0.0
C478 C 0.92501 0.06965 0.41918 0.0
C479 C 0.9715 0.11103 0.41869 0.0
C480 C 0.89082 0.06876 0.42939 0.0
C481 C 0.90221 0.10924 0.43929 0.0
C482 C 0.94794 0.15126 0.43835 0.0
C483 C 0.98222 0.15214 0.42819 0.0
C484 C 0.81335 0.06385 0.47278 0.0
C485 C 0.80637 0.10322 0.47551 0.0
C486 C 0.84349 0.06546 0.46076 0.0
C487 C 0.86772 0.10667 0.45129 0.0
C488 C 0.86045 0.14596 0.45392 0.0
C489 C 0.83006 0.14424 0.46591 0.0
H490 H 0.98208 0.92834 0.75232 0.0
H491 H 0.8954 0.99192 0.76428 0.0
H492 H 0.92184 0.8519 0.76355 0.0
H493 H 0.83454 0.91547 0.77477 0.0
H494 H 0.74522 0.78302 0.80287 0.0
H495 H 0.81456 0.85984 0.79559 0.0
H496 H 0.84296 0.78652 0.75734 0.0
H497 H 0.77587 0.70993 0.76513 0.0
C498 C 0.95021 0.92602 0.75734 0.0
C499 C 0.9436 0.96627 0.75737 0.0
C500 C 0.91549 0.8821 0.76369 0.0
C501 C 0.87307 0.87725 0.77005 0.0
C502 C 0.86704 0.91788 0.7703 0.0
C503 C 0.90195 0.96182 0.76416 0.0
C504 C 0.76657 0.78336 0.79298 0.0
C505 C 0.75386 0.74027 0.78442 0.0
C506 C 0.80616 0.82744 0.78873 0.0
C507 C 0.83405 0.8297 0.77568 0.0
C508 C 0.82262 0.78631 0.76751 0.0
C509 C 0.78338 0.74211 0.77191 0.0
H510 H 0.14746 0.01525 0.081 0.0
H511 H 0.99707 0.94828 0.09292 0.0
H512 H 0.15992 0.96513 0.10061 0.0
H513 H 0.00981 0.89971 0.113 0.0
H514 H 0.03317 0.78442 0.13592 0.0
H515 H 0.02224 0.83349 0.11557 0.0
H516 H 0.16597 0.95315 0.12865 0.0
H517 H 0.17763 0.9029 0.14844 0.0
C518 C 0.11721 0.99017 0.08794 0.0
C519 C 0.07128 0.98558 0.08539 0.0
C520 C 0.12436 0.96157 0.09925 0.0
C521 C 0.08585 0.92812 0.1084 0.0
C522 C 0.04009 0.92423 0.10597 0.0
C523 C 0.03284 0.9524 0.09453 0.0
C524 C 0.06276 0.82088 0.13423 0.0
C525 C 0.10684 0.8394 0.14347 0.0
C526 C 0.05628 0.84934 0.1227 0.0
C527 C 0.09325 0.89741 0.1204 0.0
C528 C 0.13709 0.91603 0.12981 0.0
C529 C 0.14377 0.88736 0.14119 0.0
H530 H 0.18085 0.08224 0.4067 0.0
H531 H 0.06683 0.03888 0.44011 0.0
H532 H 0.23354 0.07731 0.42829 0.0
H533 H 0.11942 0.03462 0.46175 0.0
H534 H 0.24303 0.07407 0.49965 0.0
H535 H 0.20178 0.09304 0.47764 0.0
H536 H 0.22489 0.00286 0.44459 0.0
H537 H 0.2651 0.98308 0.46654 0.0
C538 C 0.16764 0.07271 0.41877 0.0
C539 C 0.12066 0.06242 0.42202 0.0
C540 C 0.19747 0.06954 0.43103 0.0
C541 C 0.18061 0.05614 0.44668 0.0
C542 C 0.13354 0.04591 0.44986 0.0
C543 C 0.1035 0.0482 0.43754 0.0
C544 C 0.24004 0.05908 0.4876 0.0
C545 C 0.25792 0.02771 0.48478 0.0
C546 C 0.21636 0.06976 0.47507 0.0
C547 C 0.21043 0.04951 0.45947 0.0
C548 C 0.22966 0.01945 0.45648 0.0
C549 C 0.25266 0.00816 0.46905 0.0
H550 H 0.14295 0.20622 0.73605 0.0
H551 H 0.14083 0.12317 0.77741 0.0
H552 H 0.2002 0.28088 0.75073 0.0
H553 H 0.19883 0.19875 0.79241 0.0
H554 H 0.32491 0.40715 0.77508 0.0
H555 H 0.28423 0.32619 0.76249 0.0
H556 H 0.19326 0.27016 0.80331 0.0
H557 H 0.23372 0.35138 0.81584 0.0
C558 C 0.1552 0.20416 0.74832 0.0
C559 C 0.13683 0.15946 0.75583 0.0
C560 C 0.18841 0.24681 0.75666 0.0
C561 C 0.20414 0.24567 0.77271 0.0
C562 C 0.18712 0.2006 0.78006 0.0
C563 C 0.15414 0.15757 0.77155 0.0
C564 C 0.29699 0.3773 0.78152 0.0
C565 C 0.28266 0.3855 0.79645 0.0
C566 C 0.2736 0.33105 0.7743 0.0
C567 C 0.23523 0.292 0.78185 0.0
C568 C 0.22288 0.29951 0.79726 0.0
C569 C 0.24596 0.34599 0.80442 0.0
H570 H 0.88284 0.05687 0.71539 0.0
H571 H 0.98327 0.07567 0.67891 0.0
H572 H 0.83094 0.06606 0.69521 0.0
H573 H 0.93049 0.08445 0.65833 0.0
H574 H 0.86968 0.1859 0.64005 0.0
H575 H 0.91328 0.15046 0.65379 0.0
H576 H 0.77804 0.03651 0.67121 0.0
H577 H 0.73501 0.07315 0.65804 0.0
C578 C 0.89308 0.06168 0.7029 0.0
C579 C 0.9372 0.066 0.69872 0.0
C580 C 0.86312 0.0666 0.69126 0.0
C581 C 0.87664 0.07628 0.67513 0.0
C582 C 0.91932 0.07743 0.6707 0.0
C583 C 0.94927 0.07199 0.68241 0.0
C584 C 0.84932 0.15287 0.64662 0.0
C585 C 0.79924 0.133 0.64836 0.0
C586 C 0.87415 0.13222 0.65435 0.0
C587 C 0.84923 0.09107 0.66383 0.0
C588 C 0.79844 0.06881 0.66429 0.0
C589 C 0.77376 0.08971 0.65672 0.0
H590 H 0.02342 0.01498 0.0 0.0
H591 H 0.90403 0.94672 0.03157 0.0
H592 H 0.97303 0.95814 0.97798 0.0
H593 H 0.85346 0.88889 0.00957 0.0
H594 H 0.83122 0.76056 0.97305 0.0
H595 H 0.86512 0.82191 0.99491 0.0
H596 H 0.8929 0.93296 0.96036 0.0
H597 H 0.85797 0.87136 0.93843 0.0
C598 C 0.98598 0.9883 0.00205 0.0
C599 C 0.96686 0.98592 0.01719 0.0
C600 C 0.95718 0.95596 0.9895 0.0
C601 C 0.90929 0.91953 0.99207 0.0
C602 C 0.89019 0.91692 0.00729 0.0
C603 C 0.91883 0.95002 0.01978 0.0
C604 C 0.84317 0.79781 0.97016 0.0
C605 C 0.84136 0.81112 0.95402 0.0
C606 C 0.86251 0.83289 0.98268 0.0
C607 C 0.88146 0.88201 0.97928 0.0
C608 C 0.87843 0.89524 0.96326 0.0
C609 C 0.85839 0.86009 0.95077 0.0
H610 H 0.08246 0.97602 0.35173 0.0
H611 H 0.92889 0.92129 0.35553 0.0
H612 H 0.06435 0.91206 0.3319 0.0
H613 H 0.91071 0.85761 0.33536 0.0
H614 H 0.89911 0.72035 0.31216 0.0
H615 H 0.91517 0.784 0.33209 0.0
H616 H 0.03269 0.8883 0.30416 0.0
H617 H 0.01722 0.82448 0.28451 0.0
C618 C 0.04479 0.95046 0.34827 0.0
C619 C 0.00709 0.95374 0.35518 0.0
C620 C 0.03442 0.91394 0.33682 0.0
C621 C 0.98609 0.87983 0.332 0.0
C622 C 0.94832 0.88303 0.33894 0.0
C623 C 0.95872 0.91966 0.35042 0.0
C624 C 0.92846 0.75687 0.31036 0.0
C625 C 0.95744 0.76734 0.29695 0.0
C626 C 0.93743 0.79339 0.32168 0.0
C627 C 0.97541 0.84116 0.31976 0.0
C628 C 0.00375 0.85171 0.30616 0.0
C629 C 0.99481 0.81527 0.29488 0.0
H630 H 0.11133 0.98776 0.69165 0.0
H631 H 0.16923 0.14201 0.68862 0.0
H632 H 0.17181 0.99343 0.67314 0.0
H633 H 0.22986 0.14792 0.67069 0.0
H634 H 0.31713 0.14884 0.63105 0.0
H635 H 0.24306 0.12893 0.64432 0.0
H636 H 0.25892 0.02534 0.67357 0.0
H637 H 0.33216 0.04382 0.65964 0.0
C638 C 0.13661 0.02273 0.68692 0.0
C639 C 0.13552 0.06444 0.6916 0.0
C640 C 0.17144 0.02604 0.67641 0.0
C641 C 0.20571 0.07111 0.67037 0.0
C642 C 0.20356 0.11244 0.6748 0.0
C643 C 0.16889 0.10911 0.68522 0.0
C644 C 0.30428 0.12108 0.64008 0.0
C645 C 0.33089 0.09842 0.64447 0.0
C646 C 0.26199 0.10992 0.64779 0.0
C647 C 0.24554 0.07631 0.66028 0.0
C648 C 0.27043 0.05134 0.66399 0.0
C649 C 0.31257 0.06213 0.6561 0.0
H650 H 0.08097 0.20909 0.00971 0.0
H651 H 0.17731 0.16171 0.02958 0.0
H652 H 0.14445 0.26493 0.99252 0.0
H653 H 0.24094 0.21827 0.01257 0.0
H654 H 0.28189 0.38584 0.97145 0.0
H655 H 0.22467 0.33831 0.99198 0.0
H656 H 0.25324 0.22181 0.98359 0.0
H657 H 0.31067 0.26948 0.96339 0.0
C658 C 0.11584 0.21098 0.0106 0.0
C659 C 0.12375 0.18044 0.02095 0.0
C660 C 0.15236 0.24328 0.00079 0.0
C661 C 0.19763 0.2458 0.00109 0.0
C662 C 0.20618 0.21662 0.01187 0.0
C663 C 0.1697 0.18434 0.02169 0.0
C664 C 0.2764 0.35038 0.97424 0.0
C665 C 0.30137 0.33168 0.96605 0.0
C666 C 0.24344 0.32304 0.98587 0.0
C667 C 0.23465 0.2764 0.98949 0.0
C668 C 0.2599 0.25798 0.98135 0.0
C669 C 0.29269 0.2852 0.96974 0.0
H670 H 0.11908 0.23979 0.36111 0.0
H671 H 0.99799 0.10244 0.34347 0.0
H672 H 0.10606 0.27939 0.33781 0.0
H673 H 0.98581 0.14198 0.32016 0.0
H674 H 0.9218 0.23201 0.28595 0.0
H675 H 0.94398 0.18177 0.31073 0.0
H676 H 0.12231 0.30312 0.30969 0.0
H677 H 0.10441 0.35657 0.28477 0.0
C678 C 0.08993 0.21796 0.35224 0.0
C679 C 0.05936 0.16794 0.35428 0.0
C680 C 0.08273 0.24064 0.33881 0.0
C681 C 0.0447 0.21384 0.32723 0.0
C682 C 0.01481 0.16381 0.32905 0.0
C683 C 0.02211 0.14107 0.34239 0.0
C684 C 0.95908 0.24364 0.28969 0.0
C685 C 0.01005 0.30444 0.28486 0.0
C686 C 0.97321 0.21383 0.30565 0.0
C687 C 0.03516 0.23813 0.3136 0.0
C688 C 0.08553 0.29073 0.30513 0.0
C689 C 0.07509 0.32308 0.28911 0.0
loop_
_geom_bond_atom_site_label_1
_geom_bond_atom_site_label_2
_geom_bond_distance
_geom_bond_site_symmetry_2
_ccdc_geom_bond_type
Mn0 O5 2.095 . S
Mn0 O15 2.162 . S
Mn0 O16 2.297 1_545 S
Mn0 O24 2.385 1_545 S
Mn0 O25 2.209 . S
Mn0 O26 2.094 . S
Mn1 O6 2.121 . S
Mn1 N8 2.257 1_455 S
Mn1 N17 2.282 1_455 S
Mn1 O25 2.215 . S
Mn1 O27 2.117 . S
C2 O24 1.252 1_545 S
C2 O25 1.276 . S
C3 O15 1.281 1_565 S
C3 O16 1.236 . S
C4 O26 1.240 . S
C4 O27 1.264 . S
O5 Mn0 2.095 . S
O5 C14 1.250 . S
O6 Mn1 2.121 . S
O6 C14 1.258 . S
C7 N8 1.326 . S
C7 C11 1.460 . S
C7 H13 0.929 . S
N8 Mn1 2.257 1_655 S
N8 C7 1.326 . S
N8 C12 1.362 . S
C9 C10 1.258 . S
C9 C12 1.431 . S
C9 C29 1.449 1_554 S
C10 C9 1.258 . S
C10 C11 1.477 . S
C10 H30 0.931 . S
C11 C7 1.460 . S
C11 C10 1.477 . S
C11 H31 0.930 . S
C12 N8 1.362 . S
C12 C9 1.431 . S
C12 C22 1.476 . S
H13 C7 0.929 . S
C14 O5 1.250 . S
C14 O6 1.258 . S
O15 Mn0 2.162 . S
O15 C3 1.281 1_545 S
O16 Mn0 2.297 1_565 S
O16 C3 1.236 . S
N17 Mn1 2.282 1_655 S
N17 C18 1.328 1_654 S
N17 C22 1.318 . S
C18 N17 1.328 1_456 S
C18 C19 1.457 1_455 S
C18 H23 0.919 1_556 S
C19 C18 1.457 1_655 S
C19 C20 1.290 . S
C19 H32 0.932 1_655 S
C20 C19 1.290 . S
C20 C21 1.373 . S
C20 H33 0.929 . S
C21 C20 1.373 . S
C21 C22 1.396 1_556 S
C21 C28 1.403 . S
C22 C12 1.476 . S
C22 N17 1.318 . S
C22 C21 1.396 1_554 S
H23 C18 0.919 1_554 S
O24 Mn0 2.385 1_565 S
O24 C2 1.252 1_565 S
O25 Mn0 2.209 . S
O25 Mn1 2.215 . S
O25 C2 1.276 . S
O26 Mn0 2.094 . S
O26 C4 1.240 . S
O27 Mn1 2.117 . S
O27 C4 1.264 . S
C28 C21 1.403 . S
C28 C29 1.399 . S
C28 H34 0.929 . S
C29 C9 1.449 1_556 S
C29 C28 1.399 . S
C29 H35 0.930 . S
H30 C10 0.931 . S
H31 C11 0.930 . S
H32 C19 0.932 1_455 S
H33 C20 0.929 . S
H34 C28 0.929 . S
H35 C29 0.930 . S
Mn36 O41 2.095 . S
Mn36 O51 2.162 1_445 S
Mn36 O52 2.297 . S
Mn36 O60 2.385 . S
Mn36 O61 2.209 . S
Mn36 O62 2.094 1_455 S
Mn37 O42 2.121 . S
Mn37 N44 2.257 . S
Mn37 N53 2.282 . S
Mn37 O61 2.215 . S
Mn37 O63 2.117 . S
C38 O60 1.234 . S
C38 O61 1.283 . S
C39 O51 1.281 1_455 S
C39 O52 1.236 1_565 S
C40 O62 1.240 . S
C40 O63 1.264 1_655 S
O41 Mn36 2.095 . S
O41 C50 1.250 . S
O42 Mn37 2.121 . S
O42 C50 1.258 . S
C43 N44 1.326 . S
C43 C47 1.460 . S
C43 H49 0.929 . S
N44 Mn37 2.257 . S
N44 C43 1.326 . S
N44 C48 1.362 . S
C45 C46 1.258 . S
C45 C48 1.431 . S
C45 C65 1.449 . S
C46 C45 1.258 . S
C46 C47 1.477 . S
C46 H66 0.931 . S
C47 C43 1.460 . S
C47 C46 1.477 . S
C47 H67 0.930 . S
C48 N44 1.362 . S
C48 C45 1.431 . S
C48 C58 1.476 . S
H49 C43 0.929 . S
C50 O41 1.250 . S
C50 O42 1.258 . S
O51 Mn36 2.162 1_665 S
O51 C39 1.281 1_655 S
O52 Mn36 2.297 . S
O52 C39 1.236 1_545 S
N53 Mn37 2.282 . S
N53 C54 1.328 . S
N53 C58 1.318 . S
C54 N53 1.328 . S
C54 C55 1.457 . S
C54 H59 0.929 . S
C55 C54 1.457 . S
C55 C56 1.291 . S
C55 H68 0.931 . S
C56 C55 1.291 . S
C56 C57 1.373 . S
C56 H69 0.929 . S
C57 C56 1.373 . S
C57 C58 1.396 . S
C57 C64 1.403 . S
C58 C48 1.476 . S
C58 N53 1.318 . S
C58 C57 1.396 . S
H59 C54 0.929 . S
O60 Mn36 2.385 . S
O60 C38 1.234 . S
O61 Mn36 2.209 . S
O61 Mn37 2.215 . S
O61 C38 1.283 . S
O62 Mn36 2.094 1_655 S
O62 C40 1.240 . S
O63 Mn37 2.117 . S
O63 C40 1.264 1_455 S
C64 C57 1.403 . S
C64 C65 1.399 . S
C64 H70 0.929 . S
C65 C45 1.449 . S
C65 C64 1.399 . S
C65 H71 0.930 . S
H66 C46 0.931 . S
H67 C47 0.930 . S
H68 C55 0.931 . S
H69 C56 0.929 . S
H70 C64 0.929 . S
H71 C65 0.930 . S
Mn72 O77 2.095 1_455 S
Mn72 O87 2.162 . S
Mn72 O88 2.297 . S
Mn72 O96 2.385 . S
Mn72 O97 2.209 . S
Mn72 O98 2.094 1_545 S
Mn73 O78 2.121 . S
Mn73 N80 2.257 1_655 S
Mn73 N89 2.282 1_655 S
Mn73 O97 2.215 1_655 S
Mn73 O99 2.117 . S
C74 O96 1.234 . S
C74 O97 1.283 . S
C75 O87 1.281 . S
C75 O88 1.236 . S
C76 O98 1.240 1_655 S
C76 O99 1.264 1_565 S
O77 Mn72 2.095 1_655 S
O77 C86 1.250 . S
O78 Mn73 2.121 . S
O78 C86 1.258 . S
C79 N80 1.326 . S
C79 C83 1.460 . S
C79 H85 0.932 . S
N80 Mn73 2.257 1_455 S
N80 C79 1.326 . S
N80 C84 1.362 . S
C81 C82 1.258 . S
C81 C84 1.431 . S
C81 C101 1.449 . S
C82 C81 1.258 . S
C82 C83 1.477 . S
C82 H102 0.931 . S
C83 C79 1.460 . S
C83 C82 1.477 . S
C83 H103 0.930 . S
C84 N80 1.362 . S
C84 C81 1.431 . S
C84 C94 1.476 . S
H85 C79 0.932 . S
C86 O77 1.250 . S
C86 O78 1.258 . S
O87 Mn72 2.162 . S
O87 C75 1.281 . S
O88 Mn72 2.297 . S
O88 C75 1.236 . S
N89 Mn73 2.282 1_455 S
N89 C90 1.328 . S
N89 C94 1.318 . S
C90 N89 1.328 . S
C90 C91 1.457 . S
C90 H95 0.929 . S
C91 C90 1.457 . S
C91 C92 1.291 . S
C91 H104 0.931 . S
C92 C91 1.291 . S
C92 C93 1.373 . S
C92 H105 0.929 . S
C93 C92 1.373 . S
C93 C94 1.396 . S
C93 C100 1.403 . S
C94 C84 1.476 . S
C94 N89 1.318 . S
C94 C93 1.396 . S
H95 C90 0.929 . S
O96 Mn72 2.385 . S
O96 C74 1.234 . S
O97 Mn72 2.209 . S
O97 Mn73 2.215 1_455 S
O97 C74 1.283 . S
O98 Mn72 2.094 1_565 S
O98 C76 1.240 1_455 S
O99 Mn73 2.117 . S
O99 C76 1.264 1_545 S
C100 C93 1.403 . S
C100 C101 1.399 . S
C100 H106 0.929 . S
C101 C81 1.449 . S
C101 C100 1.399 . S
C101 H107 0.930 . S
H102 C82 0.931 . S
H103 C83 0.930 . S
H104 C91 0.931 . S
H105 C92 0.929 . S
H106 C100 0.929 . S
H107 C101 0.930 . S
C108 C109 1.560 1_655 S
C108 H169 0.959 . S
C108 H170 0.959 . S
C108 H171 0.960 . S
C109 C108 1.560 1_455 S
C109 O164 1.426 1_455 S
C109 H168 0.980 . S
C110 C111 1.407 . S
C110 C115 1.418 1_455 S
C110 O164 1.334 1_455 S
C111 C110 1.407 . S
C111 C112 1.360 . S
C111 H172 0.929 . S
C112 C111 1.360 . S
C112 C113 1.401 . S
C112 C116 1.527 . S
C113 C112 1.401 . S
C113 C114 1.405 1_455 S
C113 C146 1.587 . S
C114 C113 1.405 1_655 S
C114 C115 1.332 . S
C114 C117 1.496 . S
C115 C110 1.418 1_655 S
C115 C114 1.332 . S
C115 H173 0.929 . S
C116 C112 1.527 . S
C116 H174 0.959 . S
C116 H175 0.961 . S
C116 H176 0.961 . S
C117 C114 1.496 . S
C117 H177 0.960 . S
C117 H178 0.960 . S
C117 H179 0.961 . S
C118 C119 1.517 . S
C118 H181 0.961 . S
C118 H182 0.960 . S
C118 H183 0.959 . S
C119 C118 1.517 . S
C119 O167 1.468 . S
C119 H180 0.980 . S
C120 C121 1.349 . S
C120 C125 1.367 . S
C120 O167 1.408 . S
C121 C120 1.349 . S
C121 C122 1.407 . S
C121 H184 0.930 . S
C122 C121 1.407 . S
C122 C123 1.449 . S
C122 C126 1.535 1_455 S
C123 C122 1.449 . S
C123 C124 1.384 . S
C123 C148 1.553 . S
C124 C123 1.384 . S
C124 C125 1.364 . S
C124 C127 1.450 . S
C125 C120 1.367 . S
C125 C124 1.364 . S
C125 H185 0.931 . S
C126 C122 1.535 1_655 S
C126 H186 0.959 . S
C126 H187 0.961 . S
C126 H188 0.959 . S
C127 C124 1.450 . S
C127 H189 0.960 . S
C127 H190 0.960 . S
C127 H191 0.960 . S
C128 C129 1.309 . S
C128 C133 1.304 . S
C128 O166 1.435 . S
C129 C128 1.309 . S
C129 C130 1.476 . S
C129 H193 0.930 . S
C130 C129 1.476 . S
C130 C131 1.400 . S
C130 C134 1.567 1_455 S
C131 C130 1.400 . S
C131 C132 1.373 . S
C131 C153 1.432 . S
C132 C131 1.373 . S
C132 C133 1.339 . S
C132 C135 1.530 . S
C133 C128 1.304 . S
C133 C132 1.339 . S
C133 H194 0.930 . S
C134 C130 1.567 1_655 S
C134 H195 0.961 . S
C134 H196 0.960 . S
C134 H197 0.958 . S
C135 C132 1.530 . S
C135 H198 0.961 . S
C135 H199 0.960 . S
C135 H200 0.960 . S
C136 C137 1.530 . S
C136 H202 0.961 . S
C136 H203 0.961 1_455 S
C136 H204 0.959 1_455 S
C137 C136 1.530 . S
C137 O165 1.412 . S
C137 H201 0.980 . S
C138 C139 1.288 1_455 S
C138 C143 1.377 . S
C138 O165 1.393 . S
C139 C138 1.288 1_655 S
C139 C140 1.369 . S
C139 H205 0.932 . S
C140 C139 1.369 . S
C140 C141 1.398 1_655 S
C140 C144 1.527 . S
C141 C140 1.398 1_455 S
C141 C142 1.380 . S
C141 C155 1.497 . S
C142 C141 1.380 . S
C142 C143 1.383 . S
C142 C145 1.603 . S
C143 C138 1.377 . S
C143 C142 1.383 . S
C143 H206 0.929 . S
C144 C140 1.527 . S
C144 H207 0.961 . S
C144 H208 0.959 . S
C144 H209 0.959 . S
C145 C142 1.603 . S
C145 H210 0.960 . S
C145 H211 0.962 . S
C145 H212 0.961 . S
C146 C113 1.587 . S
C146 C147 1.360 . S
C146 C159 1.412 . S
C147 C146 1.360 . S
C147 C148 1.365 . S
C147 H213 0.929 . S
C148 C123 1.553 . S
C148 C147 1.365 . S
C148 C149 1.404 . S
C149 C148 1.404 . S
C149 C150 1.395 . S
C149 C160 1.451 . S
C150 C149 1.395 . S
C150 C151 1.322 . S
C150 H214 0.930 . S
C151 C150 1.322 . S
C151 C152 1.459 . S
C151 H215 0.929 . S
C152 C151 1.459 . S
C152 C153 1.445 . S
C152 C161 1.395 . S
C153 C131 1.432 . S
C153 C152 1.445 . S
C153 C154 1.370 . S
C154 C153 1.370 . S
C154 C155 1.438 . S
C154 H216 0.930 . S
C155 C141 1.497 . S
C155 C154 1.438 . S
C155 C156 1.360 . S
C156 C155 1.360 . S
C156 C157 1.401 . S
C156 C161 1.446 . S
C157 C156 1.401 . S
C157 C158 1.347 . S
C157 H217 0.929 . S
C158 C157 1.347 . S
C158 C159 1.455 . S
C158 H218 0.930 . S
C159 C146 1.412 . S
C159 C158 1.455 . S
C159 C160 1.331 . S
C160 C149 1.451 . S
C160 C159 1.331 . S
C160 C161 1.497 . S
C161 C152 1.395 . S
C161 C156 1.446 . S
C161 C160 1.497 . S
C162 C163 1.582 . S
C162 H219 0.962 . S
C162 H220 0.959 . S
C162 H221 0.958 . S
C163 C162 1.582 . S
C163 O166 1.458 . S
C163 H192 0.980 . S
O164 C109 1.426 1_655 S
O164 C110 1.334 1_655 S
O165 C137 1.412 . S
O165 C138 1.393 . S
O166 C128 1.435 . S
O166 C163 1.458 . S
O167 C119 1.468 . S
O167 C120 1.408 . S
H168 C109 0.980 . S
H169 C108 0.959 . S
H170 C108 0.959 . S
H171 C108 0.960 . S
H172 C111 0.929 . S
H173 C115 0.929 . S
H174 C116 0.959 . S
H175 C116 0.961 . S
H176 C116 0.961 . S
H177 C117 0.960 . S
H178 C117 0.960 . S
H179 C117 0.961 . S
H180 C119 0.980 . S
H181 C118 0.961 . S
H182 C118 0.960 . S
H183 C118 0.959 . S
H184 C121 0.930 . S
H185 C125 0.931 . S
H186 C126 0.959 . S
H187 C126 0.961 . S
H188 C126 0.959 . S
H189 C127 0.960 . S
H190 C127 0.960 . S
H191 C127 0.960 . S
H192 C163 0.980 . S
H193 C129 0.930 . S
H194 C133 0.930 . S
H195 C134 0.961 . S
H196 C134 0.960 . S
H197 C134 0.958 . S
H198 C135 0.961 . S
H199 C135 0.960 . S
H200 C135 0.960 . S
H201 C137 0.980 . S
H202 C136 0.961 . S
H203 C136 0.961 1_655 S
H204 C136 0.959 1_655 S
H205 C139 0.932 . S
H206 C143 0.929 . S
H207 C144 0.961 . S
H208 C144 0.959 . S
H209 C144 0.959 . S
H210 C145 0.960 . S
H211 C145 0.962 . S
H212 C145 0.961 . S
H213 C147 0.929 . S
H214 C150 0.930 . S
H215 C151 0.929 . S
H216 C154 0.930 . S
H217 C157 0.929 . S
H218 C158 0.930 . S
H219 C162 0.962 . S
H220 C162 0.959 . S
H221 C162 0.958 . S
C222 C223 1.560 . S
C222 H283 0.959 . S
C222 H284 0.959 . S
C222 H285 0.960 . S
C223 C222 1.560 . S
C223 O278 1.426 . S
C223 H282 0.980 . S
C224 C225 1.407 . S
C224 C229 1.418 . S
C224 O278 1.334 . S
C225 C224 1.407 . S
C225 C226 1.360 . S
C225 H286 0.929 . S
C226 C225 1.360 . S
C226 C227 1.401 . S
C226 C230 1.527 . S
C227 C226 1.401 . S
C227 C228 1.405 . S
C227 C260 1.587 . S
C228 C227 1.405 . S
C228 C229 1.332 . S
C228 C231 1.496 . S
C229 C224 1.418 . S
C229 C228 1.332 . S
C229 H287 0.929 1_545 S
C230 C226 1.527 . S
C230 H288 0.959 . S
C230 H289 0.961 . S
C230 H290 0.961 . S
C231 C228 1.496 . S
C231 H291 0.960 1_545 S
C231 H292 0.960 . S
C231 H293 0.961 . S
C232 C233 1.517 . S
C232 H295 0.961 . S
C232 H296 0.960 . S
C232 H297 0.959 . S
C233 C232 1.517 . S
C233 O281 1.468 . S
C233 H294 0.980 . S
C234 C235 1.349 . S
C234 C239 1.367 . S
C234 O281 1.408 . S
C235 C234 1.349 . S
C235 C236 1.407 . S
C235 H298 0.930 . S
C236 C235 1.407 . S
C236 C237 1.449 . S
C236 C240 1.535 . S
C237 C236 1.449 . S
C237 C238 1.384 . S
C237 C262 1.553 . S
C238 C237 1.384 . S
C238 C239 1.364 . S
C238 C241 1.450 . S
C239 C234 1.367 . S
C239 C238 1.364 . S
C239 H299 0.931 . S
C240 C236 1.535 . S
C240 H300 0.959 . S
C240 H301 0.961 . S
C240 H302 0.959 . S
C241 C238 1.450 . S
C241 H303 0.960 . S
C241 H304 0.960 . S
C241 H305 0.960 . S
C242 C243 1.309 . S
C242 C247 1.304 . S
C242 O280 1.435 . S
C243 C242 1.309 . S
C243 C244 1.476 . S
C243 H307 0.930 . S
C244 C243 1.476 . S
C244 C245 1.400 . S
C244 C248 1.567 . S
C245 C244 1.400 . S
C245 C246 1.373 . S
C245 C267 1.432 . S
C246 C245 1.373 . S
C246 C247 1.339 . S
C246 C249 1.530 . S
C247 C242 1.304 . S
C247 C246 1.339 . S
C247 H308 0.930 . S
C248 C244 1.567 . S
C248 H309 0.961 . S
C248 H310 0.960 . S
C248 H311 0.958 . S
C249 C246 1.530 . S
C249 H312 0.961 . S
C249 H313 0.960 . S
C249 H314 0.960 . S
C250 C251 1.530 . S
C250 H316 0.961 . S
C250 H317 0.961 . S
C250 H318 0.959 . S
C251 C250 1.530 . S
C251 O279 1.412 . S
C251 H315 0.980 . S
C252 C253 1.288 . S
C252 C257 1.377 . S
C252 O279 1.393 . S
C253 C252 1.288 . S
C253 C254 1.369 . S
C253 H319 0.932 1_545 S
C254 C253 1.369 . S
C254 C255 1.398 . S
C254 C258 1.522 1_545 S
C255 C254 1.398 . S
C255 C256 1.380 . S
C255 C269 1.497 . S
C256 C255 1.380 . S
C256 C257 1.383 . S
C256 C259 1.603 . S
C257 C252 1.377 . S
C257 C256 1.383 . S
C257 H320 0.929 . S
C258 C254 1.522 1_565 S
C258 H321 0.961 1_565 S
C258 H322 0.967 1_565 S
C258 H323 0.962 . S
C259 C256 1.603 . S
C259 H324 0.960 . S
C259 H325 0.962 . S
C259 H326 0.961 . S
C260 C227 1.587 . S
C260 C261 1.360 . S
C260 C273 1.412 . S
C261 C260 1.360 . S
C261 C262 1.365 . S
C261 H327 0.929 . S
C262 C237 1.553 . S
C262 C261 1.365 . S
C262 C263 1.404 . S
C263 C262 1.404 . S
C263 C264 1.395 . S
C263 C274 1.451 . S
C264 C263 1.395 . S
C264 C265 1.322 . S
C264 H328 0.930 . S
C265 C264 1.322 . S
C265 C266 1.459 . S
C265 H329 0.929 . S
C266 C265 1.459 . S
C266 C267 1.445 . S
C266 C275 1.395 . S
C267 C245 1.432 . S
C267 C266 1.445 . S
C267 C268 1.370 . S
C268 C267 1.370 . S
C268 C269 1.438 . S
C268 H330 0.930 . S
C269 C255 1.497 . S
C269 C268 1.438 . S
C269 C270 1.360 . S
C270 C269 1.360 . S
C270 C271 1.401 . S
C270 C275 1.446 . S
C271 C270 1.401 . S
C271 C272 1.347 . S
C271 H331 0.929 . S
C272 C271 1.347 . S
C272 C273 1.455 . S
C272 H332 0.930 . S
C273 C260 1.412 . S
C273 C272 1.455 . S
C273 C274 1.331 . S
C274 C263 1.451 . S
C274 C273 1.331 . S
C274 C275 1.497 . S
C275 C266 1.395 . S
C275 C270 1.446 . S
C275 C274 1.497 . S
C276 C277 1.582 . S
C276 H333 0.962 . S
C276 H334 0.959 . S
C276 H335 0.958 . S
C277 C276 1.582 . S
C277 O280 1.458 . S
C277 H306 0.980 . S
O278 C223 1.426 . S
O278 C224 1.334 . S
O279 C251 1.412 . S
O279 C252 1.393 . S
O280 C242 1.435 . S
O280 C277 1.458 . S
O281 C233 1.468 . S
O281 C234 1.408 . S
H282 C223 0.980 . S
H283 C222 0.959 . S
H284 C222 0.959 . S
H285 C222 0.960 . S
H286 C225 0.929 . S
H287 C229 0.929 1_565 S
H288 C230 0.959 . S
H289 C230 0.961 . S
H290 C230 0.961 . S
H291 C231 0.960 1_565 S
H292 C231 0.960 . S
H293 C231 0.961 . S
H294 C233 0.980 . S
H295 C232 0.961 . S
H296 C232 0.960 . S
H297 C232 0.959 . S
H298 C235 0.930 . S
H299 C239 0.931 . S
H300 C240 0.959 . S
H301 C240 0.961 . S
H302 C240 0.959 . S
H303 C241 0.960 . S
H304 C241 0.960 . S
H305 C241 0.960 . S
H306 C277 0.980 . S
H307 C243 0.930 . S
H308 C247 0.930 . S
H309 C248 0.961 . S
H310 C248 0.960 . S
H311 C248 0.958 . S
H312 C249 0.961 . S
H313 C249 0.960 . S
H314 C249 0.960 . S
H315 C251 0.980 . S
H316 C250 0.961 . S
H317 C250 0.961 . S
H318 C250 0.959 . S
H319 C253 0.932 1_565 S
H320 C257 0.929 . S
H321 C258 0.961 1_545 S
H322 C258 0.967 1_545 S
H323 C258 0.962 . S
H324 C259 0.960 . S
H325 C259 0.962 . S
H326 C259 0.961 . S
H327 C261 0.929 . S
H328 C264 0.930 . S
H329 C265 0.929 . S
H330 C268 0.930 . S
H331 C271 0.929 . S
H332 C272 0.930 . S
H333 C276 0.962 . S
H334 C276 0.959 . S
H335 C276 0.958 . S
C336 C337 1.560 . S
C336 H397 0.959 . S
C336 H398 0.959 . S
C336 H399 0.960 . S
C337 C336 1.560 . S
C337 O392 1.426 . S
C337 H396 0.980 . S
C338 C339 1.407 . S
C338 C343 1.418 . S
C338 O392 1.334 . S
C339 C338 1.407 . S
C339 C340 1.360 . S
C339 H400 0.929 . S
C340 C339 1.360 . S
C340 C341 1.401 . S
C340 C344 1.527 . S
C341 C340 1.401 . S
C341 C342 1.405 . S
C341 C374 1.587 . S
C342 C341 1.405 . S
C342 C343 1.332 . S
C342 C345 1.496 . S
C343 C338 1.418 . S
C343 C342 1.332 . S
C343 H401 0.929 . S
C344 C340 1.527 . S
C344 H402 0.959 . S
C344 H403 0.961 . S
C344 H404 0.961 . S
C345 C342 1.496 . S
C345 H405 0.960 . S
C345 H406 0.960 . S
C345 H407 0.961 . S
C346 C347 1.517 . S
C346 H409 0.961 . S
C346 H410 0.960 . S
C346 H411 0.959 . S
C347 C346 1.517 . S
C347 O395 1.468 . S
C347 H408 0.980 . S
C348 C349 1.349 . S
C348 C353 1.367 . S
C348 O395 1.408 . S
C349 C348 1.349 . S
C349 C350 1.407 . S
C349 H412 0.930 . S
C350 C349 1.407 . S
C350 C351 1.449 . S
C350 C354 1.535 . S
C351 C350 1.449 . S
C351 C352 1.384 . S
C351 C376 1.553 . S
C352 C351 1.384 . S
C352 C353 1.364 . S
C352 C355 1.450 . S
C353 C348 1.367 . S
C353 C352 1.364 . S
C353 H413 0.931 . S
C354 C350 1.535 . S
C354 H414 0.959 . S
C354 H415 0.961 . S
C354 H416 0.959 . S
C355 C352 1.450 . S
C355 H417 0.960 . S
C355 H418 0.960 . S
C355 H419 0.960 . S
C356 C357 1.309 . S
C356 C361 1.304 . S
C356 O394 1.435 . S
C357 C356 1.309 . S
C357 C358 1.476 . S
C357 H421 0.930 . S
C358 C357 1.476 . S
C358 C359 1.400 . S
C358 C362 1.567 . S
C359 C358 1.400 . S
C359 C360 1.373 . S
C359 C381 1.432 . S
C360 C359 1.373 . S
C360 C361 1.339 . S
C360 C363 1.530 . S
C361 C356 1.304 . S
C361 C360 1.339 . S
C361 H422 0.930 . S
C362 C358 1.567 . S
C362 H423 0.961 . S
C362 H424 0.960 . S
C362 H425 0.958 . S
C363 C360 1.530 . S
C363 H426 0.961 . S
C363 H427 0.960 . S
C363 H428 0.960 . S
C364 C365 1.530 . S
C364 H430 0.961 . S
C364 H431 0.961 . S
C364 H432 0.959 . S
C365 C364 1.530 . S
C365 O393 1.412 . S
C365 H429 0.980 . S
C366 C367 1.288 . S
C366 C371 1.377 . S
C366 O393 1.393 . S
C367 C366 1.288 . S
C367 C368 1.369 . S
C367 H433 0.932 . S
C368 C367 1.369 . S
C368 C369 1.398 . S
C368 C372 1.527 . S
C369 C368 1.398 . S
C369 C370 1.380 . S
C369 C383 1.497 . S
C370 C369 1.380 . S
C370 C371 1.383 . S
C370 C373 1.603 . S
C371 C366 1.377 . S
C371 C370 1.383 . S
C371 H434 0.929 . S
C372 C368 1.527 . S
C372 H435 0.961 . S
C372 H436 0.959 . S
C372 H437 0.959 . S
C373 C370 1.603 . S
C373 H438 0.960 . S
C373 H439 0.962 . S
C373 H440 0.961 . S
C374 C341 1.587 . S
C374 C375 1.360 . S
C374 C387 1.412 . S
C375 C374 1.360 . S
C375 C376 1.365 . S
C375 H441 0.929 . S
C376 C351 1.553 . S
C376 C375 1.365 . S
C376 C377 1.404 . S
C377 C376 1.404 . S
C377 C378 1.395 . S
C377 C388 1.451 . S
C378 C377 1.395 . S
C378 C379 1.322 . S
C378 H442 0.930 . S
C379 C378 1.322 . S
C379 C380 1.459 . S
C379 H443 0.929 . S
C380 C379 1.459 . S
C380 C381 1.445 . S
C380 C389 1.395 . S
C381 C359 1.432 . S
C381 C380 1.445 . S
C381 C382 1.370 . S
C382 C381 1.370 . S
C382 C383 1.438 . S
C382 H444 0.930 . S
C383 C369 1.497 . S
C383 C382 1.438 . S
C383 C384 1.360 . S
C384 C383 1.360 . S
C384 C385 1.401 . S
C384 C389 1.446 . S
C385 C384 1.401 . S
C385 C386 1.347 . S
C385 H445 0.929 . S
C386 C385 1.347 . S
C386 C387 1.455 . S
C386 H446 0.930 . S
C387 C374 1.412 . S
C387 C386 1.455 . S
C387 C388 1.331 . S
C388 C377 1.451 . S
C388 C387 1.331 . S
C388 C389 1.497 . S
C389 C380 1.395 . S
C389 C384 1.446 . S
C389 C388 1.497 . S
C390 C391 1.582 . S
C390 H447 0.962 . S
C390 H448 0.959 . S
C390 H449 0.958 . S
C391 C390 1.582 . S
C391 O394 1.458 . S
C391 H420 0.980 . S
O392 C337 1.426 . S
O392 C338 1.334 . S
O393 C365 1.412 . S
O393 C366 1.393 . S
O394 C356 1.435 . S
O394 C391 1.458 . S
O395 C347 1.468 . S
O395 C348 1.408 . S
H396 C337 0.980 . S
H397 C336 0.959 . S
H398 C336 0.959 . S
H399 C336 0.960 . S
H400 C339 0.929 . S
H401 C343 0.929 . S
H402 C344 0.959 . S
H403 C344 0.961 . S
H404 C344 0.961 . S
H405 C345 0.960 . S
H406 C345 0.960 . S
H407 C345 0.961 . S
H408 C347 0.980 . S
H409 C346 0.961 . S
H410 C346 0.960 . S
H411 C346 0.959 . S
H412 C349 0.930 . S
H413 C353 0.931 . S
H414 C354 0.959 . S
H415 C354 0.961 . S
H416 C354 0.959 . S
H417 C355 0.960 . S
H418 C355 0.960 . S
H419 C355 0.960 . S
H420 C391 0.980 . S
H421 C357 0.930 . S
H422 C361 0.930 . S
H423 C362 0.961 . S
H424 C362 0.960 . S
H425 C362 0.958 . S
H426 C363 0.961 . S
H427 C363 0.960 . S
H428 C363 0.960 . S
H429 C365 0.980 . S
H430 C364 0.961 . S
H431 C364 0.961 . S
H432 C364 0.959 . S
H433 C367 0.932 . S
H434 C371 0.929 . S
H435 C372 0.961 . S
H436 C372 0.959 . S
H437 C372 0.959 . S
H438 C373 0.960 . S
H439 C373 0.962 . S
H440 C373 0.961 . S
H441 C375 0.929 . S
H442 C378 0.930 . S
H443 C379 0.929 . S
H444 C382 0.930 . S
H445 C385 0.929 . S
H446 C386 0.930 . S
H447 C390 0.962 . S
H448 C390 0.959 . S
H449 C390 0.958 . S
H450 C458 0.950 . S
H451 C463 0.950 1_655 S
H452 C460 0.950 . S
H453 C462 0.950 1_655 S
H454 C464 0.950 1_655 S
H455 C466 0.950 1_655 S
H456 C468 0.950 . S
H457 C469 0.950 . S
C458 H450 0.950 . S
C458 C459 1.386 . S
C458 C460 1.391 . S
C459 C458 1.386 . S
C459 C463 1.393 . S
C460 H452 0.950 . S
C460 C458 1.391 . S
C460 C461 1.400 . S
C461 C460 1.400 . S
C461 C462 1.398 . S
C461 C467 1.491 . S
C462 H453 0.950 1_455 S
C462 C461 1.398 . S
C462 C463 1.391 . S
C463 H451 0.950 1_455 S
C463 C459 1.393 . S
C463 C462 1.391 . S
C464 H454 0.950 1_455 S
C464 C465 1.386 . S
C464 C466 1.391 . S
C465 C464 1.386 . S
C465 C469 1.393 . S
C466 H455 0.950 1_455 S
C466 C464 1.391 . S
C466 C467 1.400 . S
C467 C461 1.491 . S
C467 C466 1.400 . S
C467 C468 1.398 . S
C468 H456 0.950 . S
C468 C467 1.398 . S
C468 C469 1.391 . S
C469 H457 0.950 . S
C469 C465 1.393 . S
C469 C468 1.391 . S
H470 C478 0.950 . S
H471 C483 0.950 . S
H472 C480 0.950 . S
H473 C482 0.950 . S
H474 C484 0.950 . S
H475 C486 0.950 . S
H476 C488 0.950 . S
H477 C489 0.950 . S
C478 H470 0.950 . S
C478 C479 1.386 . S
C478 C480 1.391 . S
C479 C478 1.386 . S
C479 C483 1.393 . S
C480 H472 0.950 . S
C480 C478 1.391 . S
C480 C481 1.400 . S
C481 C480 1.400 . S
C481 C482 1.398 . S
C481 C487 1.491 . S
C482 H473 0.950 . S
C482 C481 1.398 . S
C482 C483 1.391 . S
C483 H471 0.950 . S
C483 C479 1.393 . S
C483 C482 1.391 . S
C484 H474 0.950 . S
C484 C485 1.386 . S
C484 C486 1.391 . S
C485 C484 1.386 . S
C485 C489 1.393 . S
C486 H475 0.950 . S
C486 C484 1.391 . S
C486 C487 1.400 . S
C487 C481 1.491 . S
C487 C486 1.400 . S
C487 C488 1.398 . S
C488 H476 0.950 . S
C488 C487 1.398 . S
C488 C489 1.391 . S
C489 H477 0.950 . S
C489 C485 1.393 . S
C489 C488 1.391 . S
H490 C498 0.950 . S
H491 C503 0.950 . S
H492 C500 0.950 . S
H493 C502 0.950 . S
H494 C504 0.950 . S
H495 C506 0.950 . S
H496 C508 0.950 . S
H497 C509 0.950 . S
C498 H490 0.950 . S
C498 C499 1.386 . S
C498 C500 1.391 . S
C499 C498 1.386 . S
C499 C503 1.393 . S
C500 H492 0.950 . S
C500 C498 1.391 . S
C500 C501 1.400 . S
C501 C500 1.400 . S
C501 C502 1.398 . S
C501 C507 1.491 . S
C502 H493 0.950 . S
C502 C501 1.398 . S
C502 C503 1.391 . S
C503 H491 0.950 . S
C503 C499 1.393 . S
C503 C502 1.391 . S
C504 H494 0.950 . S
C504 C505 1.386 . S
C504 C506 1.391 . S
C505 C504 1.386 . S
C505 C509 1.393 . S
C506 H495 0.950 . S
C506 C504 1.391 . S
C506 C507 1.400 . S
C507 C501 1.491 . S
C507 C506 1.400 . S
C507 C508 1.398 . S
C508 H496 0.950 . S
C508 C507 1.398 . S
C508 C509 1.391 . S
C509 H497 0.950 . S
C509 C505 1.393 . S
C509 C508 1.391 . S
H510 C518 0.950 1_545 S
H511 C523 0.950 . S
H512 C520 0.950 . S
H513 C522 0.950 . S
H514 C524 0.950 . S
H515 C526 0.950 . S
H516 C528 0.950 . S
H517 C529 0.950 . S
C518 H510 0.950 1_565 S
C518 C519 1.386 . S
C518 C520 1.391 . S
C519 C518 1.386 . S
C519 C523 1.393 . S
C520 H512 0.950 . S
C520 C518 1.391 . S
C520 C521 1.400 . S
C521 C520 1.400 . S
C521 C522 1.398 . S
C521 C527 1.491 . S
C522 H513 0.950 . S
C522 C521 1.398 . S
C522 C523 1.391 . S
C523 H511 0.950 . S
C523 C519 1.393 . S
C523 C522 1.391 . S
C524 H514 0.950 . S
C524 C525 1.386 . S
C524 C526 1.391 . S
C525 C524 1.386 . S
C525 C529 1.393 . S
C526 H515 0.950 . S
C526 C524 1.391 . S
C526 C527 1.400 . S
C527 C521 1.491 . S
C527 C526 1.400 . S
C527 C528 1.398 . S
C528 H516 0.950 . S
C528 C527 1.398 . S
C528 C529 1.391 . S
C529 H517 0.950 . S
C529 C525 1.393 . S
C529 C528 1.391 . S
H530 C538 0.950 . S
H531 C543 0.950 . S
H532 C540 0.950 . S
H533 C542 0.950 . S
H534 C544 0.950 . S
H535 C546 0.950 . S
H536 C548 0.950 . S
H537 C549 0.950 . S
C538 H530 0.950 . S
C538 C539 1.386 . S
C538 C540 1.391 . S
C539 C538 1.386 . S
C539 C543 1.393 . S
C540 H532 0.950 . S
C540 C538 1.391 . S
C540 C541 1.400 . S
C541 C540 1.400 . S
C541 C542 1.398 . S
C541 C547 1.491 . S
C542 H533 0.950 . S
C542 C541 1.398 . S
C542 C543 1.391 . S
C543 H531 0.950 . S
C543 C539 1.393 . S
C543 C542 1.391 . S
C544 H534 0.950 . S
C544 C545 1.386 . S
C544 C546 1.391 . S
C545 C544 1.386 . S
C545 C549 1.393 . S
C546 H535 0.950 . S
C546 C544 1.391 . S
C546 C547 1.400 . S
C547 C541 1.491 . S
C547 C546 1.400 . S
C547 C548 1.398 . S
C548 H536 0.950 . S
C548 C547 1.398 . S
C548 C549 1.391 . S
C549 H537 0.950 . S
C549 C545 1.393 . S
C549 C548 1.391 . S
H550 C558 0.950 . S
H551 C563 0.950 . S
H552 C560 0.950 . S
H553 C562 0.950 . S
H554 C564 0.950 . S
H555 C566 0.950 . S
H556 C568 0.950 . S
H557 C569 0.950 . S
C558 H550 0.950 . S
C558 C559 1.386 . S
C558 C560 1.391 . S
C559 C558 1.386 . S
C559 C563 1.393 . S
C560 H552 0.950 . S
C560 C558 1.391 . S
C560 C561 1.400 . S
C561 C560 1.400 . S
C561 C562 1.398 . S
C561 C567 1.491 . S
C562 H553 0.950 . S
C562 C561 1.398 . S
C562 C563 1.391 . S
C563 H551 0.950 . S
C563 C559 1.393 . S
C563 C562 1.391 . S
C564 H554 0.950 . S
C564 C565 1.386 . S
C564 C566 1.391 . S
C565 C564 1.386 . S
C565 C569 1.393 . S
C566 H555 0.950 . S
C566 C564 1.391 . S
C566 C567 1.400 . S
C567 C561 1.491 . S
C567 C566 1.400 . S
C567 C568 1.398 . S
C568 H556 0.950 . S
C568 C567 1.398 . S
C568 C569 1.391 . S
C569 H557 0.950 . S
C569 C565 1.393 . S
C569 C568 1.391 . S
H570 C578 0.950 . S
H571 C583 0.950 1_455 S
H572 C580 0.950 . S
H573 C582 0.950 . S
H574 C584 0.950 . S
H575 C586 0.950 . S
H576 C588 0.950 . S
H577 C589 0.950 . S
C578 H570 0.950 . S
C578 C579 1.386 . S
C578 C580 1.391 . S
C579 C578 1.386 . S
C579 C583 1.393 . S
C580 H572 0.950 . S
C580 C578 1.391 . S
C580 C581 1.400 . S
C581 C580 1.400 . S
C581 C582 1.398 . S
C581 C587 1.491 . S
C582 H573 0.950 . S
C582 C581 1.398 . S
C582 C583 1.391 . S
C583 H571 0.950 1_655 S
C583 C579 1.393 . S
C583 C582 1.391 . S
C584 H574 0.950 . S
C584 C585 1.386 . S
C584 C586 1.391 . S
C585 C584 1.386 . S
C585 C589 1.393 . S
C586 H575 0.950 . S
C586 C584 1.391 . S
C586 C587 1.400 . S
C587 C581 1.491 . S
C587 C586 1.400 . S
C587 C588 1.398 . S
C588 H576 0.950 . S
C588 C587 1.398 . S
C588 C589 1.391 . S
C589 H577 0.950 . S
C589 C585 1.393 . S
C589 C588 1.391 . S
H590 C598 0.950 1_545 S
H591 C603 0.950 . S
H592 C600 0.950 . S
H593 C602 0.950 . S
H594 C604 0.950 . S
H595 C606 0.950 1_554 S
H596 C608 0.950 . S
H597 C609 0.950 . S
C598 H590 0.950 1_565 S
C598 C599 1.386 . S
C598 C600 1.391 1_554 S
C599 C598 1.386 . S
C599 C603 1.393 . S
C600 H592 0.950 . S
C600 C598 1.391 1_556 S
C600 C601 1.400 1_556 S
C601 C600 1.400 1_554 S
C601 C602 1.398 . S
C601 C607 1.491 1_554 S
C602 H593 0.950 . S
C602 C601 1.398 . S
C602 C603 1.391 . S
C603 H591 0.950 . S
C603 C599 1.393 . S
C603 C602 1.391 . S
C604 H594 0.950 . S
C604 C605 1.386 . S
C604 C606 1.391 . S
C605 C604 1.386 . S
C605 C609 1.393 . S
C606 H595 0.950 1_556 S
C606 C604 1.391 . S
C606 C607 1.400 . S
C607 C601 1.491 1_556 S
C607 C606 1.400 . S
C607 C608 1.398 . S
C608 H596 0.950 . S
C608 C607 1.398 . S
C608 C609 1.391 . S
C609 H597 0.950 . S
C609 C605 1.393 . S
C609 C608 1.391 . S
H610 C618 0.950 . S
H611 C623 0.950 1_655 S
H612 C620 0.950 . S
H613 C622 0.950 1_655 S
H614 C624 0.950 1_655 S
H615 C626 0.950 1_655 S
H616 C628 0.950 . S
H617 C629 0.950 . S
C618 H610 0.950 . S
C618 C619 1.386 . S
C618 C620 1.391 . S
C619 C618 1.386 . S
C619 C623 1.393 . S
C620 H612 0.950 . S
C620 C618 1.391 . S
C620 C621 1.400 . S
C621 C620 1.400 . S
C621 C622 1.398 . S
C621 C627 1.491 . S
C622 H613 0.950 1_455 S
C622 C621 1.398 . S
C622 C623 1.391 . S
C623 H611 0.950 1_455 S
C623 C619 1.393 . S
C623 C622 1.391 . S
C624 H614 0.950 1_455 S
C624 C625 1.386 . S
C624 C626 1.391 . S
C625 C624 1.386 . S
C625 C629 1.393 . S
C626 H615 0.950 1_455 S
C626 C624 1.391 . S
C626 C627 1.400 . S
C627 C621 1.491 . S
C627 C626 1.400 . S
C627 C628 1.398 . S
C628 H616 0.950 . S
C628 C627 1.398 . S
C628 C629 1.391 . S
C629 H617 0.950 . S
C629 C625 1.393 . S
C629 C628 1.391 . S
H630 C638 0.950 . S
H631 C643 0.950 . S
H632 C640 0.950 . S
H633 C642 0.950 . S
H634 C644 0.950 . S
H635 C646 0.950 . S
H636 C648 0.950 . S
H637 C649 0.950 . S
C638 H630 0.950 . S
C638 C639 1.386 . S
C638 C640 1.391 . S
C639 C638 1.386 . S
C639 C643 1.393 . S
C640 H632 0.950 . S
C640 C638 1.391 . S
C640 C641 1.400 . S
C641 C640 1.400 . S
C641 C642 1.398 . S
C641 C647 1.491 . S
C642 H633 0.950 . S
C642 C641 1.398 . S
C642 C643 1.391 . S
C643 H631 0.950 . S
C643 C639 1.393 . S
C643 C642 1.391 . S
C644 H634 0.950 . S
C644 C645 1.386 . S
C644 C646 1.391 . S
C645 C644 1.386 . S
C645 C649 1.393 . S
C646 H635 0.950 . S
C646 C644 1.391 . S
C646 C647 1.400 . S
C647 C641 1.491 . S
C647 C646 1.400 . S
C647 C648 1.398 . S
C648 H636 0.950 . S
C648 C647 1.398 . S
C648 C649 1.391 . S
C649 H637 0.950 . S
C649 C645 1.393 . S
C649 C648 1.391 . S
H650 C658 0.950 . S
H651 C663 0.950 . S
H652 C660 0.950 . S
H653 C662 0.950 . S
H654 C664 0.950 . S
H655 C666 0.893 1_554 S
H656 C668 0.950 . S
H657 C669 0.950 . S
C658 H650 0.950 . S
C658 C659 1.386 . S
C658 C660 1.391 1_554 S
C659 C658 1.386 . S
C659 C663 1.393 . S
C660 H652 0.950 . S
C660 C658 1.391 1_556 S
C660 C661 1.400 . S
C661 C660 1.400 . S
C661 C662 1.398 1_556 S
C661 C667 1.491 . S
C662 H653 0.950 . S
C662 C661 1.398 1_554 S
C662 C663 1.391 . S
C663 H651 0.950 . S
C663 C659 1.393 . S
C663 C662 1.391 . S
C664 H654 0.950 . S
C664 C665 1.386 . S
C664 C666 1.391 . S
C665 C664 1.386 . S
C665 C669 1.393 . S
C666 H655 0.893 1_556 S
C666 C664 1.391 . S
C666 C667 1.400 . S
C667 C661 1.491 . S
C667 C666 1.400 . S
C667 C668 1.398 . S
C668 H656 0.950 . S
C668 C667 1.398 . S
C668 C669 1.391 . S
C669 H657 0.950 . S
C669 C665 1.393 . S
C669 C668 1.391 . S
H670 C678 0.950 . S
H671 C683 0.956 . S
H672 C680 0.950 . S
H673 C682 0.931 1_655 S
H674 C684 0.950 1_655 S
H675 C686 0.950 1_655 S
H676 C688 0.950 . S
H677 C689 0.950 . S
C678 H670 0.950 . S
C678 C679 1.386 . S
C678 C680 1.391 . S
C679 C678 1.386 . S
C679 C683 1.383 1_455 S
C680 H672 0.950 . S
C680 C678 1.391 . S
C680 C681 1.400 . S
C681 C680 1.400 . S
C681 C682 1.410 . S
C681 C687 1.491 . S
C682 H673 0.931 1_455 S
C682 C681 1.410 . S
C682 C683 1.402 1_455 S
C683 H671 0.956 . S
C683 C679 1.383 1_655 S
C683 C682 1.402 1_655 S
C684 H674 0.950 1_455 S
C684 C685 1.386 . S
C684 C686 1.391 . S
C685 C684 1.386 . S
C685 C689 1.393 . S
C686 H675 0.950 1_455 S
C686 C684 1.391 . S
C686 C687 1.400 . S
C687 C681 1.491 . S
C687 C686 1.400 . S
C687 C688 1.398 . S
C688 H676 0.950 . S
C688 C687 1.398 . S
C688 C689 1.391 . S
C689 H677 0.950 . S
C689 C685 1.393 . S
C689 C688 1.391 . S
C465 C163 1.131 . S
C459 C14 1.516 . S
C479 C40 1.561 . S
C485 C277 1.186 . S
C499 C76 1.302 . S
C505 C337 0.996 . S
C519 C3 1.380 . S
C525 C137 1.140 . S
C545 C251 1.101 . S
C539 C38 1.444 . S
C559 C74 1.464 . S
C565 C347 0.878 . S
C585 C233 0.953 . S
C579 C86 1.428 . S
C599 C2 1.390 1_665 S
C605 C365 1.142 . S
C625 C109 1.034 . S
C619 C39 1.295 . S
C645 C223 0.988 . S
C639 C75 1.308 . S
C665 C391 1.183 . S
C659 C4 1.531 . S
C679 C50 1.463 . S
C685 C119 0.858 . S
