# Generated by pormake.
# Topology zzz, (3,6)-cn, num edge types: 1
# Building blocks:
#     Node 0, Type 0, BuildingBlock: MIDCAF_clean_linker_0, # of connection points: 3
#     Node 1, Type 0, BuildingBlock: MIDCAF_clean_linker_0, # of connection points: 3
#     Node 2, Type 0, BuildingBlock: MIDCAF_clean_linker_0, # of connection points: 3
#     Node 3, Type 0, BuildingBlock: MIDCAF_clean_linker_0, # of connection points: 3
#     Node 4, Type 0, BuildingBlock: MIDCAF_clean_linker_0, # of connection points: 3
#     Node 5, Type 0, BuildingBlock: MIDCAF_clean_linker_0, # of connection points: 3
#     Node 6, Type 0, BuildingBlock: MIDCAF_clean_linker_0, # of connection points: 3
#     Node 7, Type 0, BuildingBlock: MIDCAF_clean_linker_0, # of connection points: 3
#     Node 8, Type 1, BuildingBlock: BETDEL_clean_sbu_0, # of connection points: 6
#     Node 9, Type 1, BuildingBlock: BETDEL_clean_sbu_0, # of connection points: 6
#     Node 10, Type 1, BuildingBlock: BETDEL_clean_sbu_0, # of connection points: 6
#     Node 11, Type 1, BuildingBlock: BETDEL_clean_sbu_0, # of connection points: 6
#     Edge 12, Type (0, 1), BuildingBlock: CIFDUS_clean_linker_0, # of connection points: 2
#     Edge 13, Type (0, 1), BuildingBlock: CIFDUS_clean_linker_0, # of connection points: 2
#     Edge 14, Type (0, 1), BuildingBlock: CIFDUS_clean_linker_0, # of connection points: 2
#     Edge 15, Type (0, 1), BuildingBlock: CIFDUS_clean_linker_0, # of connection points: 2
#     Edge 16, Type (0, 1), BuildingBlock: CIFDUS_clean_linker_0, # of connection points: 2
#     Edge 17, Type (0, 1), BuildingBlock: CIFDUS_clean_linker_0, # of connection points: 2
#     Edge 18, Type (0, 1), BuildingBlock: CIFDUS_clean_linker_0, # of connection points: 2
#     Edge 19, Type (0, 1), BuildingBlock: CIFDUS_clean_linker_0, # of connection points: 2
#     Edge 20, Type (0, 1), BuildingBlock: CIFDUS_clean_linker_0, # of connection points: 2
#     Edge 21, Type (0, 1), BuildingBlock: CIFDUS_clean_linker_0, # of connection points: 2
#     Edge 22, Type (0, 1), BuildingBlock: CIFDUS_clean_linker_0, # of connection points: 2
#     Edge 23, Type (0, 1), BuildingBlock: CIFDUS_clean_linker_0, # of connection points: 2
#     Edge 24, Type (0, 1), BuildingBlock: CIFDUS_clean_linker_0, # of connection points: 2
#     Edge 25, Type (0, 1), BuildingBlock: CIFDUS_clean_linker_0, # of connection points: 2
#     Edge 26, Type (0, 1), BuildingBlock: CIFDUS_clean_linker_0, # of connection points: 2
#     Edge 27, Type (0, 1), BuildingBlock: CIFDUS_clean_linker_0, # of connection points: 2
#     Edge 28, Type (0, 1), BuildingBlock: CIFDUS_clean_linker_0, # of connection points: 2
#     Edge 29, Type (0, 1), BuildingBlock: CIFDUS_clean_linker_0, # of connection points: 2
#     Edge 30, Type (0, 1), BuildingBlock: CIFDUS_clean_linker_0, # of connection points: 2
#     Edge 31, Type (0, 1), BuildingBlock: CIFDUS_clean_linker_0, # of connection points: 2
#     Edge 32, Type (0, 1), BuildingBlock: CIFDUS_clean_linker_0, # of connection points: 2
#     Edge 33, Type (0, 1), BuildingBlock: CIFDUS_clean_linker_0, # of connection points: 2
#     Edge 34, Type (0, 1), BuildingBlock: CIFDUS_clean_linker_0, # of connection points: 2
#     Edge 35, Type (0, 1), BuildingBlock: CIFDUS_clean_linker_0, # of connection points: 2
# Relax obj value: 0.343
# Max RMSD: 0.230
# Mean RMSD: 0.212
data_MOF--net-zzz--node1-BETDEL_clean_sbu_0--node2-MIDCAF_clean_linker_0--edge1-CIFDUS_clean_linker_0
_symmetry_space_group_name_H-M    P1
_symmetry_Int_Tables_number       1
_symmetry_cell_setting            triclinic
loop_
_symmetry_equiv_pos_as_xyz
'x, y, z'
_cell_length_a     50.307979
_cell_length_b     50.406607
_cell_length_c     17.847015
_cell_angle_alpha  91.087251
_cell_angle_beta   89.212841
_cell_angle_gamma 95.560716
loop_
_atom_site_label
_atom_site_type_symbol
_atom_site_fract_x
_atom_site_fract_y
_atom_site_fract_z
_atom_type_partial_charge
C0 C 0.83937 0.51531 0.18074 0.0
C1 C 0.83319 0.51404 0.25783 0.0
C2 C 0.80612 0.50827 0.27932 0.0
C3 C 0.78632 0.50165 0.22532 0.0
H4 H 0.72607 0.52508 0.9644 0.0
H5 H 0.68668 0.53289 0.89015 0.0
H6 H 0.65569 0.45076 0.91865 0.0
H7 H 0.6948 0.44305 0.99104 0.0
H8 H 0.77164 0.43538 0.86135 0.0
H9 H 0.80806 0.41796 0.79091 0.0
H10 H 0.84444 0.39825 0.99785 0.0
H11 H 0.80833 0.4164 0.0684 0.0
H12 H 0.8256 0.50793 0.06872 0.0
H13 H 0.8598 0.51923 0.16116 0.0
H14 H 0.80039 0.50756 0.33798 0.0
H15 H 0.76618 0.49508 0.24362 0.0
N16 N 0.75233 0.49205 0.06965 0.0
N17 N 0.74968 0.4551 0.98568 0.0
N18 N 0.78628 0.46311 0.06447 0.0
C19 C 0.73887 0.47674 0.01538 0.0
C20 C 0.77328 0.44809 0.01047 0.0
C21 C 0.77617 0.48487 0.09459 0.0
C22 C 0.7133 0.48353 0.9841 0.0
C23 C 0.71043 0.50899 0.95624 0.0
C24 C 0.6881 0.51334 0.91303 0.0
C25 C 0.66806 0.49243 0.89842 0.0
C26 C 0.67056 0.46736 0.92935 0.0
C27 C 0.69296 0.46294 0.97096 0.0
C28 C 0.78769 0.42799 0.97022 0.0
C29 C 0.7867 0.42615 0.89172 0.0
C30 C 0.80761 0.41608 0.85128 0.0
C31 C 0.82953 0.40757 0.8891 0.0
C32 C 0.82811 0.40534 0.96741 0.0
C33 C 0.80742 0.41567 0.00776 0.0
C34 C 0.79319 0.50091 0.14891 0.0
C35 C 0.81967 0.50885 0.12726 0.0
C36 C 0.94052 0.78757 0.30988 0.0
C37 C 0.96608 0.80099 0.31946 0.0
C38 C 0.9883 0.78919 0.29014 0.0
C39 C 0.98466 0.76644 0.2434 0.0
H40 H 0.99409 0.68035 0.08697 0.0
H41 H 1.00385 0.63893 0.02139 0.0
H42 H 0.9343 0.64264 0.88445 0.0
H43 H 0.92495 0.6839 0.94846 0.0
H44 H 0.96815 0.76379 0.88951 0.0
H45 H 0.97531 0.80671 0.82682 0.0
H46 H 0.92182 0.84027 0.986 0.0
H47 H 0.91457 0.79753 0.04785 0.0
H48 H 0.91677 0.75684 0.25016 0.0
H49 H 0.92307 0.79606 0.3325 0.0
H50 H 0.00824 0.79913 0.29656 0.0
H51 H 1.0018 0.75991 0.21337 0.0
N52 N 0.95872 0.7196 0.12549 0.0
N53 N 0.94824 0.73093 0.0021 0.0
N54 N 0.94677 0.76231 0.0993 0.0
C55 C 0.95503 0.7125 0.05155 0.0
C56 C 0.94401 0.75585 0.02606 0.0
C57 C 0.95406 0.74467 0.14919 0.0
C58 C 0.95885 0.68538 0.02251 0.0
C59 C 0.98063 0.67192 0.04401 0.0
C60 C 0.98626 0.64834 0.00627 0.0
C61 C 0.96982 0.63752 0.94776 0.0
C62 C 0.94718 0.65025 0.92969 0.0
C63 C 0.94193 0.67399 0.96608 0.0
C64 C 0.94101 0.77752 0.97377 0.0
C65 C 0.95706 0.78003 0.90891 0.0
C66 C 0.96145 0.80467 0.87382 0.0
C67 C 0.94959 0.82693 0.90271 0.0
C68 C 0.93127 0.82351 0.96254 0.0
C69 C 0.92709 0.79903 0.9979 0.0
C70 C 0.9588 0.75517 0.22581 0.0
C71 C 0.93695 0.76477 0.26387 0.0
C72 C 0.71558 0.01059 0.30402 0.0
C73 C 0.69761 0.98819 0.28648 0.0
C74 C 0.70299 0.97288 0.22195 0.0
C75 C 0.72427 0.98107 0.17332 0.0
H76 H 0.835 0.00659 0.06724 0.0
H77 H 0.87264 0.99795 0.98407 0.0
H78 H 0.82167 1.00148 0.79214 0.0
H79 H 0.78499 0.01132 0.87473 0.0
H80 H 0.76737 0.07972 0.90632 0.0
H81 H 0.73619 0.10117 0.83006 0.0
H82 H 0.67733 0.09259 0.00866 0.0
H83 H 0.70855 0.07203 0.08557 0.0
H84 H 0.74845 0.0376 0.26659 0.0
H85 H 0.71274 0.02251 0.35407 0.0
H86 H 0.68964 0.95565 0.20576 0.0
H87 H 0.72647 0.97017 0.12103 0.0
N88 N 0.77559 0.00823 0.08696 0.0
N89 N 0.77518 0.04235 0.99872 0.0
N90 N 0.74507 0.04067 0.0994 0.0
C91 C 0.78594 0.02054 0.02386 0.0
C92 C 0.75486 0.05268 0.03625 0.0
C93 C 0.75519 0.01867 0.12533 0.0
C94 C 0.80717 0.00974 0.97735 0.0
C95 C 0.83188 0.00496 0.00733 0.0
C96 C 0.85343 1.00007 0.95948 0.0
C97 C 0.85052 0.9996 0.88083 0.0
C98 C 0.82512 1.00258 0.85192 0.0
C99 C 0.8039 0.00789 0.89937 0.0
C100 C 0.74006 0.0731 1.00088 0.0
C101 C 0.74813 0.08325 0.93042 0.0
C102 C 0.73025 0.09558 0.88662 0.0
C103 C 0.70398 0.09774 0.91227 0.0
C104 C 0.69734 0.09112 0.9868 0.0
C105 C 0.71526 0.079 0.03082 0.0
C106 C 0.7405 0.00481 0.18776 0.0
C107 C 0.73647 0.01899 0.25473 0.0
C108 C 0.58983 0.67457 0.01343 0.0
C109 C 0.58105 0.67593 0.93937 0.0
C110 C 0.58304 0.70086 0.90451 0.0
C111 C 0.58964 0.72422 0.94625 0.0
H112 H 0.56688 0.79476 0.93934 0.0
H113 H 0.55758 0.8343 0.87451 0.0
H114 H 0.55439 0.87738 0.08529 0.0
H115 H 0.56412 0.83706 0.15189 0.0
H116 H 0.52168 0.74833 0.23181 0.0
H117 H 0.50623 0.70961 0.30658 0.0
H118 H 0.58686 0.70446 0.38067 0.0
H119 H 0.60204 0.74313 0.30634 0.0
H120 H 0.60108 0.69609 0.11372 0.0
H121 H 0.58888 0.65573 0.042 0.0
H122 H 0.57742 0.70246 0.84652 0.0
H123 H 0.58833 0.74318 0.91964 0.0
N124 N 0.58443 0.76931 0.04479 0.0
N125 N 0.56724 0.78261 0.16163 0.0
N126 N 0.58485 0.7413 0.14659 0.0
C127 C 0.57352 0.78804 0.08817 0.0
C128 C 0.57358 0.7592 0.19112 0.0
C129 C 0.59013 0.74589 0.07345 0.0
C130 C 0.56638 0.81261 0.05124 0.0
C131 C 0.56422 0.81252 0.97265 0.0
C132 C 0.55863 0.83525 0.93511 0.0
C133 C 0.55503 0.85899 0.97459 0.0
C134 C 0.55712 0.85935 0.05331 0.0
C135 C 0.56251 0.83626 0.09143 0.0
C136 C 0.56305 0.74884 0.26346 0.0
C137 C 0.53574 0.74004 0.26809 0.0
C138 C 0.52702 0.71742 0.30961 0.0
C139 C 0.54544 0.70341 0.34786 0.0
C140 C 0.57209 0.71463 0.35188 0.0
C141 C 0.58079 0.7371 0.30998 0.0
C142 C 0.59444 0.72292 0.02341 0.0
C143 C 0.59674 0.69786 0.05484 0.0
C144 C 0.22866 0.5203 0.80116 0.0
C145 C 0.20917 0.49893 0.81507 0.0
C146 C 0.21204 0.48336 0.87873 0.0
C147 C 0.23256 0.49036 0.93016 0.0
H148 H 0.33422 0.50319 0.04853 0.0
H149 H 0.37152 0.49331 0.12767 0.0
H150 H 0.33227 0.52581 0.32041 0.0
H151 H 0.29542 0.5355 0.24232 0.0
H152 H 0.2569 0.5789 0.22071 0.0
H153 H 0.2176 0.59593 0.27806 0.0
H154 H 0.18517 0.60603 0.05926 0.0
H155 H 0.22454 0.58952 1.00121 0.0
H156 H 0.26199 0.54547 0.84398 0.0
H157 H 0.22707 0.53296 0.75341 0.0
H158 H 0.19761 0.46658 0.89082 0.0
H159 H 0.2328 0.47948 0.98188 0.0
N160 N 0.28259 0.51717 0.026 0.0
N161 N 0.27908 0.55183 0.11522 0.0
N162 N 0.25232 0.54922 0.00931 0.0
C163 C 0.29091 0.52998 0.09124 0.0
C164 C 0.25992 0.56169 0.07428 0.0
C165 C 0.26327 0.52715 0.98467 0.0
C166 C 0.31193 0.52032 0.13886 0.0
C167 C 0.3334 0.50773 0.10802 0.0
C168 C 0.35483 0.50226 0.15329 0.0
C169 C 0.35496 0.50885 0.23049 0.0
C170 C 0.33281 0.52021 0.26155 0.0
C171 C 0.31171 0.52597 0.21642 0.0
C172 C 0.24326 0.58178 0.10653 0.0
C173 C 0.24213 0.58607 0.18454 0.0
C174 C 0.21967 0.596 0.21754 0.0
C175 C 0.19828 0.60169 0.1728 0.0
C176 C 0.20143 0.60157 0.09467 0.0
C177 C 0.2239 0.59186 0.06166 0.0
C178 C 0.25051 0.51312 0.91913 0.0
C179 C 0.24893 0.52738 0.85278 0.0
C180 C 0.0628 0.2122 0.77163 0.0
C181 C 0.03673 0.20033 0.78485 0.0
C182 C 0.02007 0.21332 0.83468 0.0
C183 C 0.03036 0.23548 0.87755 0.0
H184 H 0.03851 0.3178 0.03567 0.0
H185 H 0.03073 0.35457 0.12365 0.0
H186 H 0.10575 0.34546 0.22994 0.0
H187 H 0.11338 0.30908 0.14361 0.0
H188 H 0.09502 0.23811 0.20006 0.0
H189 H 0.08501 0.19708 0.26898 0.0
H190 H 0.09301 0.1511 0.06463 0.0
H191 H 0.10401 0.19189 0.99631 0.0
H192 H 0.09417 0.24075 0.81 0.0
H193 H 0.07628 0.20284 0.73394 0.0
H194 H 0.9997 0.20506 0.84508 0.0
H195 H 0.01803 0.24293 0.92198 0.0
N196 N 0.06814 0.2788 0.97399 0.0
N197 N 0.0911 0.2655 0.07922 0.0
N198 N 0.08365 0.23636 0.97744 0.0
C199 C 0.07912 0.2846 0.04292 0.0
C200 C 0.09336 0.24128 0.04689 0.0
C201 C 0.07123 0.25467 0.94046 0.0
C202 C 0.07634 0.31022 0.0835 0.0
C203 C 0.0536 0.32418 0.07661 0.0
C204 C 0.04915 0.3452 0.12694 0.0
C205 C 0.06741 0.35254 0.1846 0.0
C206 C 0.09106 0.33993 0.18717 0.0
C207 C 0.09542 0.31907 0.13752 0.0
C208 C 0.09917 0.21828 0.09212 0.0
C209 C 0.09592 0.21926 0.17038 0.0
C210 C 0.08989 0.19573 0.20981 0.0
C211 C 0.08704 0.17097 0.1715 0.0
C212 C 0.09465 0.16985 0.09566 0.0
C213 C 0.10086 0.19334 0.05636 0.0
C214 C 0.05747 0.2449 0.87161 0.0
C215 C 0.07304 0.23425 0.81465 0.0
C216 C 0.32525 0.99186 0.82902 0.0
C217 C 0.3379 0.01786 0.83763 0.0
C218 C 0.32532 0.03603 0.88415 0.0
C219 C 0.30249 0.02757 0.92702 0.0
H220 H 0.1998 0.00924 0.03419 0.0
H221 H 0.15992 0.01878 0.10738 0.0
H222 H 0.20126 0.00545 0.31183 0.0
H223 H 0.2406 0.99634 0.23942 0.0
H224 H 0.2804 0.95247 0.2355 0.0
H225 H 0.3173 0.93488 0.2966 0.0
H226 H 0.34223 0.90126 0.08523 0.0
H227 H 0.30581 0.92028 0.02328 0.0
H228 H 0.29479 0.9627 0.86822 0.0
H229 H 0.33413 0.97712 0.79445 0.0
H230 H 0.33401 0.05642 0.89095 0.0
H231 H 0.29489 0.04131 0.96755 0.0
N232 N 0.25587 1.00072 0.02353 0.0
N233 N 0.2558 0.96929 0.1198 0.0
N234 N 0.2856 0.96746 0.01926 0.0
C235 C 0.24529 0.99039 0.0892 0.0
C236 C 0.27574 0.95756 0.0848 0.0
C237 C 0.27613 0.98891 0.98816 0.0
C238 C 0.22326 1.00191 0.13099 0.0
C239 C 0.2005 0.00917 0.09481 0.0
C240 C 0.1776 0.01434 0.1368 0.0
C241 C 0.17723 0.01271 0.21572 0.0
C242 C 0.20074 0.00721 0.2515 0.0
C243 C 0.22333 1.0018 0.20979 0.0
C244 C 0.29078 0.93849 0.12428 0.0
C245 C 0.2931 0.94046 0.20247 0.0
C246 C 0.31437 0.93018 0.23768 0.0
C247 C 0.33341 0.91737 0.19539 0.0
C248 C 0.32852 0.91186 0.119 0.0
C249 C 0.30754 0.92259 0.08355 0.0
C250 C 0.29177 1.00081 0.924 0.0
C251 C 0.30251 0.98352 0.87145 0.0
C252 C 0.43806 0.32796 0.11642 0.0
C253 C 0.44848 0.32644 0.18868 0.0
C254 C 0.44833 0.30122 0.22144 0.0
C255 C 0.44191 0.27801 0.17873 0.0
H256 H 0.41847 0.18318 0.108 0.0
H257 H 0.42647 0.14377 0.17858 0.0
H258 H 0.50762 0.14898 0.09451 0.0
H259 H 0.49931 0.18836 0.02193 0.0
H260 H 0.42969 0.26235 0.81652 0.0
H261 H 0.44438 0.30093 0.74125 0.0
H262 H 0.52496 0.29786 0.81847 0.0
H263 H 0.50995 0.25924 0.89432 0.0
H264 H 0.42562 0.30684 0.01643 0.0
H265 H 0.43757 0.34692 0.08923 0.0
H266 H 0.45521 0.29936 0.27816 0.0
H267 H 0.44476 0.25897 0.20302 0.0
N268 N 0.44348 0.23306 0.0743 0.0
N269 N 0.46249 0.2221 0.95736 0.0
N270 N 0.44691 0.26403 0.97865 0.0
C271 C 0.4542 0.21497 0.02822 0.0
C272 C 0.45799 0.24666 0.93208 0.0
C273 C 0.43991 0.25774 0.04983 0.0
C274 C 0.45822 0.18866 0.05916 0.0
C275 C 0.43782 0.17551 0.10312 0.0
C276 C 0.4424 0.15296 0.1435 0.0
C277 C 0.46769 0.14336 0.14229 0.0
C278 C 0.48796 0.15603 0.09658 0.0
C279 C 0.48315 0.17834 0.05457 0.0
C280 C 0.46871 0.25766 0.86078 0.0
C281 C 0.45085 0.26885 0.8135 0.0
C282 C 0.45927 0.29124 0.77098 0.0
C283 C 0.48573 0.30297 0.77535 0.0
C284 C 0.50431 0.28962 0.81503 0.0
C285 C 0.49587 0.26709 0.85722 0.0
C286 C 0.43537 0.27976 0.10286 0.0
C287 C 0.43128 0.30483 0.07427 0.0
Dy288 Dy 0.02183 0.99201 0.62431 0.0
C289 C 0.01552 0.03634 0.33031 0.0
C290 C 0.01948 0.96302 0.75175 0.0
Dy291 Dy 1.00604 0.0107 0.46243 0.0
O292 O 0.03871 0.96367 0.70225 0.0
O293 O 1.00261 0.9797 0.73365 0.0
O294 O 0.06408 0.0101 0.60422 0.0
O295 O 0.04031 0.99532 0.51395 0.0
C296 C 0.06245 0.00767 0.53142 0.0
C297 C 0.96289 0.00533 0.55458 0.0
O298 O 0.99979 0.96688 0.43894 0.0
O299 O 0.00919 0.95372 0.56054 0.0
O300 O 0.99794 0.04186 0.3807 0.0
O301 O 0.02653 0.01531 0.34989 0.0
O302 O 0.96165 0.01202 0.48453 0.0
O303 O 0.98668 1.00123 0.56746 0.0
O304 O 0.01764 0.03495 0.65002 0.0
O305 O 0.0227 0.04776 0.52556 0.0
C306 C 1.00221 0.94828 0.48968 0.0
C307 C 0.02151 0.0536 0.59842 0.0
Dy308 Dy 0.50018 0.98289 0.50979 0.0
C309 C 0.58343 0.05094 0.65612 0.0
C310 C 0.45963 0.95229 0.44212 0.0
Dy311 Dy 0.53647 0.02568 0.60895 0.0
O312 O 0.4797 0.96495 0.40697 0.0
O313 O 0.46169 0.95654 0.51383 0.0
O314 O 0.53754 0.96372 0.47526 0.0
O315 O 0.53963 0.00426 0.50255 0.0
C316 C 0.55343 0.98539 0.48616 0.0
C317 C 0.48474 0.02263 0.65379 0.0
O318 O 0.52787 0.04992 0.50943 0.0
O319 O 0.49305 0.02174 0.4563 0.0
O320 O 0.56071 0.06136 0.65979 0.0
O321 O 0.58023 0.02686 0.62834 0.0
O322 O 0.50339 0.03854 0.68606 0.0
O323 O 0.49562 0.0099 0.60243 0.0
O324 O 0.50505 0.96009 0.61369 0.0
O325 O 0.53884 0.9876 0.67256 0.0
C326 C 0.50831 0.04489 0.46002 0.0
C327 C 0.52293 0.96497 0.66739 0.0
Dy328 Dy 0.50745 0.5124 0.63867 0.0
C329 C 0.51299 0.46562 0.34692 0.0
C330 C 0.51502 0.539 0.77208 0.0
Dy331 Dy 0.52044 0.4931 0.47912 0.0
O332 O 0.49597 0.54211 0.72552 0.0
O333 O 0.52875 0.52013 0.74745 0.0
O334 O 0.46354 0.50073 0.62104 0.0
O335 O 0.48849 0.51337 0.53043 0.0
C336 C 0.46526 0.50375 0.54859 0.0
C337 C 0.56234 0.50146 0.5707 0.0
O338 O 0.52451 0.53669 0.45606 0.0
O339 O 0.52718 0.5492 0.58198 0.0
O340 O 0.53222 0.46311 0.3934 0.0
O341 O 0.49916 0.48454 0.37063 0.0
O342 O 0.56449 0.50479 0.49841 0.0
O343 O 0.539 0.4919 0.58721 0.0
O344 O 0.50361 0.46887 0.66176 0.0
O345 O 0.50088 0.45623 0.536 0.0
C346 C 0.52894 0.5551 0.50969 0.0
C347 C 0.49924 0.45039 0.60835 0.0
Dy348 Dy 1.00146 0.48521 0.60062 0.0
C349 C 0.06773 0.54118 0.37441 0.0
C350 C 0.96548 0.46039 0.69749 0.0
Dy351 Dy 0.03633 0.5228 0.49053 0.0
O352 O 0.96787 0.45417 0.62702 0.0
O353 O 0.98273 0.48036 0.71532 0.0
O354 O 0.02121 0.45074 0.55245 0.0
O355 O 0.01503 0.48286 0.48355 0.0
C356 C 0.02525 0.46095 0.48646 0.0
C357 C 0.02462 0.54989 0.61699 0.0
O358 O 0.99581 0.52473 0.44141 0.0
O359 O 0.96989 0.50423 0.53749 0.0
O360 O 0.05275 0.55556 0.41479 0.0
O361 O 0.06548 0.51668 0.397 0.0
O362 O 0.03959 0.56028 0.56317 0.0
O363 O 0.01751 0.52608 0.59884 0.0
O364 O 0.04089 0.48918 0.65931 0.0
O365 O 0.06745 0.50511 0.55856 0.0
C366 C 0.97229 0.51728 0.47326 0.0
C367 C 0.06468 0.49541 0.62735 0.0
H368 H 0.1706 0.03665 0.35318 0.0
H369 H 0.127 0.99058 0.18053 0.0
H370 H 0.08731 0.98619 0.26123 0.0
H371 H 0.06646 0.99118 0.38576 0.0
H372 H 0.10966 0.03735 0.55845 0.0
H373 H 0.14827 0.04514 0.47394 0.0
C374 C 0.15237 0.02578 0.33294 0.0
C375 C 0.152 0.01381 0.26075 0.0
C376 C 0.12966 0.02291 0.38029 0.0
C377 C 0.12796 1.00023 0.23528 0.0
C378 C 0.10527 0.99744 0.28184 0.0
C379 C 0.08401 0.00359 0.40422 0.0
C380 C 0.08505 0.01389 0.47815 0.0
C381 C 0.10607 0.00814 0.35505 0.0
C382 C 0.10834 0.02917 0.50191 0.0
C383 C 0.13041 0.03367 0.45352 0.0
H384 H 0.5082 0.1425 0.24114 0.0
H385 H 0.43849 0.09521 0.15799 0.0
H386 H 0.44481 0.06053 0.24848 0.0
H387 H 0.46945 0.04421 0.35372 0.0
H388 H 0.53842 0.09245 0.4394 0.0
H389 H 0.53298 0.12607 0.34603 0.0
C390 C 0.49465 0.12441 0.24221 0.0
C391 C 0.47302 0.12133 0.19261 0.0
C392 C 0.49808 0.10481 0.2955 0.0
C393 C 0.45529 0.09802 0.19559 0.0
C394 C 0.45887 0.07823 0.24742 0.0
C395 C 0.48331 0.06207 0.35215 0.0
C396 C 0.50429 0.06566 0.40405 0.0
C397 C 0.48004 0.08152 0.29824 0.0
C398 C 0.52199 0.08904 0.40074 0.0
C399 C 0.51898 0.10833 0.34702 0.0
H400 H 0.35598 0.49022 0.37352 0.0
H401 H 0.40758 0.52166 0.19461 0.0
H402 H 0.44621 0.52229 0.27638 0.0
H403 H 0.4648 0.51741 0.40172 0.0
H404 H 0.41376 0.48458 0.57975 0.0
H405 H 0.37534 0.48182 0.49623 0.0
C406 C 0.3757 0.49709 0.3523 0.0
C407 C 0.37876 0.506 0.27791 0.0
C408 C 0.39788 0.49757 0.3999 0.0
C409 C 0.40458 0.51445 0.25118 0.0
C410 C 0.42668 0.51507 0.29821 0.0
C411 C 0.44542 0.50905 0.42178 0.0
C412 C 0.44224 0.501 0.49679 0.0
C413 C 0.42351 0.50712 0.37302 0.0
C414 C 0.41678 0.49093 0.52236 0.0
C415 C 0.3948 0.4893 0.47453 0.0
H416 H 0.04921 0.40236 0.17817 0.0
H417 H 0.07074 0.34342 0.33272 0.0
H418 H 0.06088 0.37218 0.43846 0.0
H419 H 0.04545 0.41345 0.48809 0.0
H420 H 0.02383 0.47331 0.33715 0.0
H421 H 0.03465 0.44513 0.22933 0.0
C422 C 0.05166 0.3959 0.23505 0.0
C423 C 0.06088 0.37081 0.2474 0.0
C424 C 0.04607 0.41275 0.29633 0.0
C425 C 0.06406 0.36274 0.3215 0.0
C426 C 0.05834 0.37914 0.38215 0.0
C427 C 0.04322 0.42043 0.43159 0.0
C428 C 0.03376 0.44536 0.42063 0.0
C429 C 0.04934 0.40413 0.37032 0.0
C430 C 0.03112 0.45417 0.34707 0.0
C431 C 0.03719 0.438 0.28543 0.0
H432 H 0.86062 0.02485 0.74805 0.0
H433 H 0.89352 0.96991 0.89557 0.0
H434 H 0.93135 0.96701 0.80956 0.0
H435 H 0.95497 0.97946 0.68936 0.0
H436 H 0.92002 0.0328 0.54171 0.0
H437 H 0.88289 0.03615 0.62928 0.0
C438 C 0.87577 0.01183 0.76123 0.0
C439 C 0.87387 0.99748 0.82852 0.0
C440 C 0.89725 0.00986 0.71086 0.0
C441 C 0.89436 0.98142 0.84484 0.0
C442 C 0.91604 0.9796 0.79522 0.0
C443 C 0.93941 0.99204 0.67709 0.0
C444 C 0.94051 0.00614 0.60948 0.0
C445 C 0.91775 0.99372 0.72787 0.0
C446 C 0.9197 0.02173 0.59322 0.0
C447 C 0.89845 0.02374 0.64343 0.0
H448 H 0.51992 0.86129 0.86183 0.0
H449 H 0.57806 0.91054 0.99068 0.0
H450 H 0.57295 0.94822 0.90865 0.0
H451 H 0.55389 0.96617 0.79435 0.0
H452 H 0.49619 0.91536 0.66672 0.0
H453 H 0.49954 0.87945 0.7534 0.0
C454 C 0.53145 0.8803 0.87217 0.0
C455 C 0.54954 0.88299 0.93187 0.0
C456 C 0.52872 0.90161 0.82427 0.0
C457 C 0.5639 0.90793 0.94535 0.0
C458 C 0.56114 0.92942 0.89799 0.0
C459 C 0.54201 0.94728 0.7856 0.0
C460 C 0.52496 0.94364 0.72326 0.0
C461 C 0.54395 0.92635 0.83626 0.0
C462 C 0.50959 0.91897 0.71357 0.0
C463 C 0.51143 0.89826 0.76333 0.0
H464 H 0.66881 0.51528 0.76009 0.0
H465 H 0.61553 0.47666 0.92482 0.0
H466 H 0.57826 0.47662 0.83866 0.0
H467 H 0.56142 0.48447 0.7138 0.0
H468 H 0.61376 0.52349 0.54793 0.0
H469 H 0.65086 0.52609 0.63651 0.0
C470 C 0.64894 0.50731 0.77749 0.0
C471 C 0.64503 0.49585 0.84881 0.0
C472 C 0.62753 0.50703 0.72701 0.0
C473 C 0.61917 0.48533 0.87012 0.0
C474 C 0.59784 0.48528 0.82082 0.0
C475 C 0.58079 0.49404 0.69741 0.0
C476 C 0.58475 0.50398 0.62453 0.0
C477 C 0.60188 0.49558 0.74869 0.0
C478 C 0.61019 0.51568 0.60368 0.0
C479 C 0.63138 0.51722 0.65442 0.0
H480 H 0.018 0.63225 0.88299 0.0
H481 H 0.93842 0.59272 0.90219 0.0
H482 H 0.94924 0.55952 0.80726 0.0
H483 H 0.98016 0.54462 0.70846 0.0
H484 H 0.05823 0.58725 0.68429 0.0
H485 H 0.04948 0.61586 0.79167 0.0
C486 C 1.00324 0.61599 0.86775 0.0
C487 C 0.9775 0.61493 0.89974 0.0
C488 C 0.00933 0.59755 0.81147 0.0
C489 C 0.95839 0.59401 0.87819 0.0
C490 C 0.96456 0.57506 0.82378 0.0
C491 C 0.99534 0.55984 0.72793 0.0
C492 C 0.01979 0.56388 0.68868 0.0
C493 C 0.98977 0.57702 0.78845 0.0
C494 C 0.03922 0.58388 0.71355 0.0
C495 C 0.03422 0.60029 0.77488 0.0
H496 H 0.09616 0.11815 0.16192 0.0
H497 H 0.04154 0.17165 0.254 0.0
H498 H 0.01264 0.13411 0.30088 0.0
H499 H 1.00318 0.08659 0.31893 0.0
H500 H 0.05821 0.03227 0.2352 0.0
H501 H 0.08596 0.06948 0.1785 0.0
C502 C 0.07796 0.12152 0.19243 0.0
C503 C 0.07133 0.14774 0.20557 0.0
C504 C 0.06116 0.0997 0.21899 0.0
C505 C 0.04762 0.15179 0.24501 0.0
C506 C 0.0308 0.1303 0.27085 0.0
C507 C 0.02094 0.08276 0.28688 0.0
C508 C 0.02856 0.05678 0.28066 0.0
C509 C 0.03736 0.10425 0.25818 0.0
C510 C 0.05179 0.05214 0.23981 0.0
C511 C 0.06783 0.07345 0.20838 0.0
H512 H 0.34618 0.90509 0.3386 0.0
H513 H 0.38169 0.92607 0.12327 0.0
H514 H 0.42517 0.93482 0.18029 0.0
H515 H 0.45151 0.9446 0.2936 0.0
H516 H 0.41552 0.92776 0.51033 0.0
H517 H 0.37394 0.90988 0.45088 0.0
C518 C 0.36347 0.91125 0.30396 0.0
C519 C 0.36035 0.9153 0.2269 0.0
C520 C 0.38835 0.91768 0.3377 0.0
C521 C 0.38323 0.92253 0.18261 0.0
C522 C 0.4082 0.92799 0.21537 0.0
C523 C 0.43469 0.93658 0.32762 0.0
C524 C 0.43631 0.93783 0.40597 0.0
C525 C 0.41072 0.92689 0.2932 0.0
C526 C 0.41455 0.92721 0.44971 0.0
C527 C 0.39079 0.91701 0.41579 0.0
H528 H 0.43654 0.37833 0.18534 0.0
H529 H 0.49458 0.3286 0.26839 0.0
H530 H 0.52145 0.36777 0.31585 0.0
H531 H 0.52836 0.41597 0.33576 0.0
H532 H 0.47079 0.46607 0.25341 0.0
H533 H 0.44476 0.427 0.19933 0.0
C534 C 0.45514 0.37602 0.21335 0.0
C535 C 0.46322 0.35038 0.22387 0.0
C536 C 0.47104 0.39875 0.2387 0.0
C537 C 0.4873 0.3479 0.26124 0.0
C538 C 0.50302 0.37036 0.28731 0.0
C539 C 0.5105 0.41841 0.30426 0.0
C540 C 0.50158 0.44379 0.29796 0.0
C541 C 0.49514 0.39585 0.27612 0.0
C542 C 0.47818 0.44668 0.25809 0.0
C543 C 0.46311 0.42434 0.22818 0.0
H544 H 0.16038 0.56295 0.14077 0.0
H545 H 0.17677 0.63288 0.28132 0.0
H546 H 0.1345 0.62198 0.34994 0.0
H547 H 0.09602 0.58937 0.37886 0.0
H548 H 0.0843 0.51622 0.24931 0.0
H549 H 0.12151 0.53155 0.16613 0.0
C550 C 0.15424 0.5762 0.18506 0.0
C551 C 0.17115 0.59891 0.20546 0.0
C552 C 0.13098 0.56896 0.22638 0.0
C553 C 0.16369 0.61552 0.26438 0.0
C554 C 0.13971 0.60917 0.30368 0.0
C555 C 0.10138 0.57714 0.33139 0.0
C556 C 0.08759 0.55185 0.31934 0.0
C557 C 0.12363 0.5855 0.28654 0.0
C558 C 0.0948 0.53576 0.25904 0.0
C559 C 0.11601 0.5445 0.21181 0.0
H560 H 1.00053 0.84802 0.87947 0.0
H561 H 0.91882 0.86708 0.87187 0.0
H562 H 0.93401 0.91279 0.83703 0.0
H563 H 0.97027 0.94617 0.80117 0.0
H564 H 0.05171 0.92654 0.80025 0.0
H565 H 0.037 0.8822 0.8481 0.0
C566 C 0.98604 0.8621 0.86924 0.0
C567 C 0.95858 0.85412 0.87708 0.0
C568 C 0.99492 0.88826 0.84921 0.0
C569 C 0.94005 0.87276 0.8658 0.0
C570 C 0.94873 0.89887 0.84619 0.0
C571 C 0.98483 0.93247 0.81353 0.0
C572 C 0.01199 0.93959 0.79803 0.0
C573 C 0.97608 0.90676 0.83738 0.0
C574 C 0.0307 0.92149 0.81262 0.0
C575 C 0.02226 0.89609 0.83899 0.0
H576 H 0.69885 0.07412 0.77603 0.0
H577 H 0.65955 0.12551 0.92862 0.0
H578 H 0.61871 0.11835 0.85477 0.0
H579 H 0.59239 0.09142 0.75887 0.0
H580 H 0.63209 0.03784 0.61397 0.0
H581 H 0.67476 0.05236 0.6718 0.0
C582 C 0.68176 0.08466 0.79181 0.0
C583 C 0.68224 0.10021 0.85809 0.0
C584 C 0.65823 0.07964 0.75096 0.0
C585 C 0.65961 0.11323 0.87818 0.0
C586 C 0.63623 0.10902 0.83619 0.0
C587 C 0.61054 0.08345 0.73915 0.0
C588 C 0.60921 0.06338 0.68323 0.0
C589 C 0.63496 0.09129 0.77443 0.0
C590 C 0.6327 0.05306 0.65782 0.0
C591 C 0.65708 0.06135 0.69077 0.0
H592 H 0.59117 0.62358 0.94499 0.0
H593 H 0.53595 0.67526 0.85658 0.0
H594 H 0.50853 0.63687 0.80647 0.0
H595 H 0.50068 0.58891 0.7845 0.0
H596 H 0.55594 0.53682 0.86931 0.0
H597 H 0.58203 0.57499 0.92801 0.0
C598 C 0.57309 0.62644 0.91505 0.0
C599 C 0.56595 0.65236 0.90371 0.0
C600 C 0.557 0.60417 0.88752 0.0
C601 C 0.54247 0.65565 0.86431 0.0
C602 C 0.52646 0.63367 0.83666 0.0
C603 C 0.51804 0.58583 0.81751 0.0
C604 C 0.52631 0.56018 0.82323 0.0
C605 C 0.53352 0.60788 0.84793 0.0
C606 C 0.54906 0.55645 0.86504 0.0
C607 C 0.56417 0.57828 0.89762 0.0
H608 H 0.8764 0.43152 0.93776 0.0
H609 H 0.84102 0.38606 0.75096 0.0
H610 H 0.88194 0.39636 0.67676 0.0
H611 H 0.92525 0.42308 0.66073 0.0
H612 H 0.95881 0.47062 0.84619 0.0
H613 H 0.92111 0.45434 0.92608 0.0
C614 C 0.8779 0.42304 0.88172 0.0
C615 C 0.85573 0.40794 0.84993 0.0
C616 C 0.90098 0.4298 0.83897 0.0
C617 C 0.85782 0.39774 0.77653 0.0
C618 C 0.88113 0.40375 0.73409 0.0
C619 C 0.92445 0.42953 0.71897 0.0
C620 C 0.94453 0.44818 0.74763 0.0
C621 C 0.90244 0.42055 0.76394 0.0
C622 C 0.94342 0.45641 0.823 0.0
C623 C 0.9219 0.44712 0.86857 0.0
H624 H 0.04649 0.1783 0.6465 0.0
H625 H 0.00998 0.1594 0.86161 0.0
H626 H 1.00201 0.11266 0.82361 0.0
H627 H 0.00744 0.0764 0.73171 0.0
H628 H 0.04388 0.09533 0.5165 0.0
H629 H 0.05016 0.14239 0.5526 0.0
C630 C 0.03665 0.164 0.68493 0.0
C631 C 0.02878 0.17258 0.75676 0.0
C632 C 0.03243 0.13691 0.66313 0.0
C633 C 0.01583 0.15365 0.80544 0.0
C634 C 0.01154 0.12675 0.78412 0.0
C635 C 0.01684 0.0908 0.69283 0.0
C636 C 0.02537 0.08218 0.62176 0.0
C637 C 0.02012 0.11804 0.71355 0.0
C638 C 0.03714 0.10127 0.57168 0.0
C639 C 0.04075 0.12828 0.59222 0.0
H640 H 0.35966 1.00107 0.70412 0.0
H641 H 0.3793 0.04915 0.90233 0.0
H642 H 0.42572 0.05567 0.86134 0.0
H643 H 0.46173 0.04525 0.77417 0.0
H644 H 0.44288 0.9963 0.57814 0.0
H645 H 0.39554 0.99194 0.61431 0.0
C646 C 0.37402 0.01299 0.73855 0.0
C647 C 0.36559 0.02455 0.80655 0.0
C648 C 0.40109 0.01609 0.71569 0.0
C649 C 0.38472 0.04034 0.84919 0.0
C650 C 0.41151 0.04383 0.82625 0.0
C651 C 0.44724 0.03367 0.73928 0.0
C652 C 0.4559 0.02063 0.67424 0.0
C653 C 0.42003 0.03143 0.76039 0.0
C654 C 0.43684 0.00593 0.62934 0.0
C655 C 0.40972 0.00365 0.64978 0.0
H656 H 0.47154 0.32591 0.64511 0.0
H657 H 0.5144 0.34335 0.8508 0.0
H658 H 0.52155 0.39029 0.81884 0.0
H659 H 0.51454 0.42693 0.73466 0.0
H660 H 0.47303 0.40975 0.5269 0.0
H661 H 0.46609 0.3625 0.55798 0.0
C662 C 0.48259 0.33997 0.68266 0.0
C663 C 0.49256 0.33092 0.75004 0.0
C664 C 0.48654 0.36715 0.66414 0.0
C665 C 0.50694 0.3495 0.79785 0.0
C666 C 0.51078 0.37649 0.78008 0.0
C667 C 0.50376 0.41288 0.69651 0.0
C668 C 0.49399 0.42195 0.62907 0.0
C669 C 0.50042 0.38562 0.71385 0.0
C670 C 0.48061 0.40336 0.57945 0.0
C671 C 0.4767 0.37629 0.59708 0.0
H672 H 0.15724 0.48739 0.86087 0.0
H673 H 0.20582 0.5023 0.66215 0.0
H674 H 0.16565 0.50186 0.58662 0.0
H675 H 0.11668 0.49971 0.57774 0.0
H676 H 0.06812 0.48429 0.77641 0.0
H677 H 0.10824 0.4821 0.85046 0.0
C678 C 0.15913 0.48996 0.80079 0.0
C679 C 0.1847 0.49499 0.7676 0.0
C680 C 0.13586 0.4898 0.7575 0.0
C681 C 0.18651 0.49872 0.68964 0.0
C682 C 0.1635 0.49844 0.64626 0.0
C683 C 0.11479 0.49573 0.63716 0.0
C684 C 0.08923 0.49235 0.6712 0.0
C685 C 0.13804 0.49448 0.67975 0.0
C686 C 0.08739 0.487 0.74833 0.0
C687 C 0.1104 0.48578 0.79095 0.0
H688 H 0.99907 0.82369 0.42894 0.0
H689 H 0.9399 0.84161 0.26993 0.0
H690 H 0.94607 0.88871 0.30643 0.0
H691 H 0.96892 0.92526 0.38209 0.0
H692 H 0.02602 0.90705 0.54692 0.0
H693 H 0.02011 0.85999 0.50989 0.0
C694 C 0.98744 0.83794 0.40284 0.0
C695 C 0.96895 0.82914 0.34722 0.0
C696 C 0.99082 0.86507 0.42488 0.0
C697 C 0.95399 0.84781 0.31374 0.0
C698 C 0.95763 0.87481 0.33418 0.0
C699 C 0.98007 0.91097 0.40972 0.0
C700 C 0.998 0.91972 0.46679 0.0
C701 C 0.9761 0.88373 0.3894 0.0
C702 C 0.01204 0.90088 0.50287 0.0
C703 C 0.00871 0.87391 0.48166 0.0
H704 H 0.66696 0.02413 0.35331 0.0
H705 H 0.67001 0.93947 0.31819 0.0
H706 H 0.62623 0.93095 0.37874 0.0
H707 H 0.58584 0.94777 0.43691 0.0
H708 H 0.58423 0.03245 0.47386 0.0
H709 H 0.62895 0.04051 0.41984 0.0
C710 C 0.65855 0.0037 0.36032 0.0
C711 C 0.67208 0.98253 0.33056 0.0
C712 C 0.63344 0.99889 0.39586 0.0
C713 C 0.6601 0.95629 0.33913 0.0
C714 C 0.63503 0.95136 0.37422 0.0
C715 C 0.59543 0.96794 0.43375 0.0
C716 C 0.58162 0.98946 0.45943 0.0
C717 C 0.6213 0.97253 0.40188 0.0
C718 C 0.59435 0.01548 0.45493 0.0
C719 C 0.61994 0.02015 0.42362 0.0
H720 H 0.5595 0.67935 0.47651 0.0
H721 H 0.51582 0.66392 0.27135 0.0
H722 H 0.50773 0.61686 0.30147 0.0
H723 H 0.51401 0.5795 0.38419 0.0
H724 H 0.55628 0.59484 0.5915 0.0
H725 H 0.56429 0.64214 0.56194 0.0
C726 C 0.54807 0.66571 0.43866 0.0
C727 C 0.53814 0.67537 0.372 0.0
C728 C 0.54354 0.63846 0.45617 0.0
C729 C 0.52327 0.65731 0.3238 0.0
C730 C 0.51888 0.63024 0.34052 0.0
C731 C 0.52518 0.59316 0.42255 0.0
C732 C 0.53482 0.58355 0.48948 0.0
C733 C 0.52914 0.62051 0.40611 0.0
C734 C 0.54875 0.60166 0.53937 0.0
C735 C 0.55329 0.62875 0.52261 0.0
H736 H 0.8814 0.54495 0.25439 0.0
H737 H 0.83541 0.48596 0.38788 0.0
H738 H 0.87337 0.48363 0.46985 0.0
H739 H 0.92107 0.49497 0.49711 0.0
H740 H 0.96789 0.55137 0.35764 0.0
H741 H 0.92847 0.55752 0.28424 0.0
C742 C 0.87956 0.53151 0.30126 0.0
C743 C 0.8553 0.51558 0.31399 0.0
C744 C 0.90189 0.52948 0.34693 0.0
C745 C 0.85345 0.49883 0.3766 0.0
C746 C 0.87537 0.49721 0.42329 0.0
C747 C 0.92263 0.50885 0.45122 0.0
C748 C 0.9476 0.52257 0.43297 0.0
C749 C 0.89989 0.51197 0.40805 0.0
C750 C 0.9491 0.54036 0.3729 0.0
C751 C 0.9265 0.54393 0.33078 0.0
loop_
_geom_bond_atom_site_label_1
_geom_bond_atom_site_label_2
_geom_bond_distance
_geom_bond_site_symmetry_2
_ccdc_geom_bond_type
C0 C1 1.384 . S
C0 H13 0.947 . S
C0 C35 1.382 . S
C1 C0 1.384 . S
C1 C2 1.378 . S
C2 C1 1.378 . S
C2 C3 1.378 . S
C2 H14 0.952 . S
C3 C2 1.378 . S
C3 H15 0.950 . S
C3 C34 1.383 . S
H4 C23 0.947 . S
H5 C24 0.946 . S
H6 C26 0.953 . S
H7 C27 0.945 . S
H8 C29 0.952 . S
H9 C30 0.949 . S
H10 C32 0.950 . S
H11 C33 0.948 . S
H12 C35 0.951 . S
H13 C0 0.947 . S
H14 C2 0.952 . S
H15 C3 0.950 . S
N16 C19 1.382 . S
N16 C21 1.363 . S
N17 C19 1.371 1_556 S
N17 C20 1.372 . S
N18 C20 1.361 1_554 S
N18 C21 1.377 . S
C19 N16 1.382 . S
C19 N17 1.371 1_554 S
C19 C22 1.480 1_554 S
C20 N17 1.372 . S
C20 N18 1.361 1_556 S
C20 C28 1.457 . S
C21 N16 1.363 . S
C21 N18 1.377 . S
C21 C34 1.479 . S
C22 C19 1.480 1_556 S
C22 C23 1.383 1_556 S
C22 C27 1.385 . S
C23 H4 0.947 . S
C23 C22 1.383 1_554 S
C23 C24 1.388 . S
C24 H5 0.946 . S
C24 C23 1.388 . S
C24 C25 1.384 1_554 S
C25 C24 1.384 1_556 S
C25 C26 1.377 . S
C26 H6 0.953 . S
C26 C25 1.377 . S
C26 C27 1.369 . S
C27 H7 0.945 . S
C27 C22 1.385 . S
C27 C26 1.369 . S
C28 C20 1.457 . S
C28 C29 1.372 . S
C28 C33 1.364 . S
C29 H8 0.952 . S
C29 C28 1.372 . S
C29 C30 1.389 . S
C30 H9 0.949 . S
C30 C29 1.389 . S
C30 C31 1.387 . S
C31 C30 1.387 . S
C31 C32 1.372 . S
C32 H10 0.950 . S
C32 C31 1.372 . S
C32 C33 1.379 . S
C33 H11 0.948 . S
C33 C28 1.364 . S
C33 C32 1.379 . S
C34 C3 1.383 . S
C34 C21 1.479 . S
C34 C35 1.398 . S
C35 C0 1.382 . S
C35 H12 0.951 . S
C35 C34 1.398 . S
C36 C37 1.384 . S
C36 H49 0.947 . S
C36 C71 1.382 . S
C37 C36 1.384 . S
C37 C38 1.378 . S
C38 C37 1.378 . S
C38 C39 1.378 . S
C38 H50 0.952 . S
C39 C38 1.378 . S
C39 H51 0.950 . S
C39 C70 1.383 . S
H40 C59 0.947 . S
H41 C60 0.946 . S
H42 C62 0.953 . S
H43 C63 0.945 . S
H44 C65 0.952 . S
H45 C66 0.949 . S
H46 C68 0.950 . S
H47 C69 0.948 . S
H48 C71 0.951 . S
H49 C36 0.947 . S
H50 C38 0.952 . S
H51 C39 0.950 . S
N52 C55 1.382 1_554 S
N52 C57 1.363 . S
N53 C55 1.371 . S
N53 C56 1.372 . S
N54 C56 1.361 1_554 S
N54 C57 1.377 . S
C55 N52 1.382 1_556 S
C55 N53 1.371 . S
C55 C58 1.480 . S
C56 N53 1.372 . S
C56 N54 1.361 1_556 S
C56 C64 1.457 . S
C57 N52 1.363 . S
C57 N54 1.377 . S
C57 C70 1.479 . S
C58 C55 1.480 . S
C58 C59 1.383 1_556 S
C58 C63 1.385 . S
C59 H40 0.947 . S
C59 C58 1.383 1_554 S
C59 C60 1.388 . S
C60 H41 0.946 . S
C60 C59 1.388 . S
C60 C61 1.384 1_554 S
C61 C60 1.384 1_556 S
C61 C62 1.377 . S
C62 H42 0.953 . S
C62 C61 1.377 . S
C62 C63 1.369 . S
C63 H43 0.945 . S
C63 C58 1.385 . S
C63 C62 1.369 . S
C64 C56 1.457 . S
C64 C65 1.372 . S
C64 C69 1.364 . S
C65 H44 0.952 . S
C65 C64 1.372 . S
C65 C66 1.389 . S
C66 H45 0.949 . S
C66 C65 1.389 . S
C66 C67 1.387 . S
C67 C66 1.387 . S
C67 C68 1.372 . S
C68 H46 0.950 . S
C68 C67 1.372 . S
C68 C69 1.379 . S
C69 H47 0.948 . S
C69 C64 1.364 . S
C69 C68 1.379 . S
C70 C39 1.383 . S
C70 C57 1.479 . S
C70 C71 1.398 . S
C71 C36 1.382 . S
C71 H48 0.951 . S
C71 C70 1.398 . S
C72 C73 1.384 1_565 S
C72 H85 0.947 . S
C72 C107 1.382 1_565 S
C73 C72 1.384 1_545 S
C73 C74 1.378 . S
C74 C73 1.378 . S
C74 C75 1.378 . S
C74 H86 0.952 . S
C75 C74 1.378 . S
C75 H87 0.950 . S
C75 C106 1.383 . S
H76 C95 0.947 . S
H77 C96 0.954 . S
H78 C98 0.953 . S
H79 C99 0.945 . S
H80 C101 0.947 1_565 S
H81 C102 0.957 . S
H82 C104 0.950 . S
H83 C105 0.948 . S
H84 C107 0.951 1_565 S
H85 C72 0.947 . S
H86 C74 0.952 . S
H87 C75 0.950 . S
N88 C91 1.382 . S
N88 C93 1.363 . S
N89 C91 1.371 1_556 S
N89 C92 1.372 . S
N90 C92 1.361 1_554 S
N90 C93 1.377 . S
C91 N88 1.382 . S
C91 N89 1.371 1_554 S
C91 C94 1.480 1_554 S
C92 N89 1.372 . S
C92 N90 1.361 1_556 S
C92 C100 1.457 . S
C93 N88 1.363 . S
C93 N90 1.377 . S
C93 C106 1.479 . S
C94 C91 1.480 1_556 S
C94 C95 1.383 1_556 S
C94 C99 1.385 . S
C95 H76 0.947 . S
C95 C94 1.383 1_554 S
C95 C96 1.383 1_545 S
C96 H77 0.954 . S
C96 C95 1.383 1_565 S
C96 C97 1.382 1_564 S
C97 C96 1.382 1_546 S
C97 C98 1.377 . S
C98 H78 0.953 . S
C98 C97 1.377 . S
C98 C99 1.369 . S
C99 H79 0.945 . S
C99 C94 1.385 . S
C99 C98 1.369 . S
C100 C92 1.457 . S
C100 C101 1.377 . S
C100 C105 1.364 . S
C101 H80 0.947 1_545 S
C101 C100 1.377 . S
C101 C102 1.392 1_545 S
C102 H81 0.957 . S
C102 C101 1.392 1_565 S
C102 C103 1.379 1_565 S
C103 C102 1.379 1_545 S
C103 C104 1.372 . S
C104 H82 0.950 . S
C104 C103 1.372 . S
C104 C105 1.379 . S
C105 H83 0.948 . S
C105 C100 1.364 . S
C105 C104 1.379 . S
C106 C75 1.383 . S
C106 C93 1.479 . S
C106 C107 1.398 . S
C107 C72 1.382 1_545 S
C107 H84 0.951 1_545 S
C107 C106 1.398 . S
C108 C109 1.384 . S
C108 H121 0.947 . S
C108 C143 1.382 . S
C109 C108 1.384 . S
C109 C110 1.378 . S
C110 C109 1.378 . S
C110 C111 1.378 . S
C110 H122 0.952 . S
C111 C110 1.378 . S
C111 H123 0.950 . S
C111 C142 1.383 . S
H112 C131 0.947 . S
H113 C132 0.946 . S
H114 C134 0.953 . S
H115 C135 0.945 . S
H116 C137 0.952 . S
H117 C138 0.949 . S
H118 C140 0.950 . S
H119 C141 0.948 . S
H120 C143 0.951 1_554 S
H121 C108 0.947 . S
H122 C110 0.952 . S
H123 C111 0.950 . S
N124 C127 1.382 1_556 S
N124 C129 1.363 1_556 S
N125 C127 1.371 . S
N125 C128 1.372 . S
N126 C128 1.361 . S
N126 C129 1.377 . S
C127 N124 1.382 1_554 S
C127 N125 1.371 . S
C127 C130 1.480 . S
C128 N125 1.372 . S
C128 N126 1.361 . S
C128 C136 1.457 . S
C129 N124 1.363 1_554 S
C129 N126 1.377 . S
C129 C142 1.479 1_554 S
C130 C127 1.480 . S
C130 C131 1.383 1_554 S
C130 C135 1.385 . S
C131 H112 0.947 . S
C131 C130 1.383 1_556 S
C131 C132 1.388 . S
C132 H113 0.946 . S
C132 C131 1.388 . S
C132 C133 1.387 . S
C133 C132 1.387 . S
C133 C134 1.372 1_556 S
C134 H114 0.953 . S
C134 C133 1.372 1_554 S
C134 C135 1.369 . S
C135 H115 0.945 . S
C135 C130 1.385 . S
C135 C134 1.369 . S
C136 C128 1.457 . S
C136 C137 1.372 . S
C136 C141 1.364 . S
C137 H116 0.952 . S
C137 C136 1.372 . S
C137 C138 1.389 . S
C138 H117 0.949 . S
C138 C137 1.389 . S
C138 C139 1.387 . S
C139 C138 1.387 . S
C139 C140 1.372 . S
C140 H118 0.950 . S
C140 C139 1.372 . S
C140 C141 1.379 . S
C141 H119 0.948 . S
C141 C136 1.364 . S
C141 C140 1.379 . S
C142 C111 1.383 . S
C142 C129 1.479 1_556 S
C142 C143 1.398 . S
C143 C108 1.382 . S
C143 H120 0.951 1_556 S
C143 C142 1.398 . S
C144 C145 1.384 . S
C144 H157 0.947 . S
C144 C179 1.382 . S
C145 C144 1.384 . S
C145 C146 1.378 . S
C146 C145 1.378 . S
C146 C147 1.378 . S
C146 H158 0.952 . S
C147 C146 1.378 . S
C147 H159 0.950 . S
C147 C178 1.383 . S
H148 C167 0.947 . S
H149 C168 0.946 . S
H150 C170 0.953 . S
H151 C171 0.945 . S
H152 C173 0.952 . S
H153 C174 0.949 . S
H154 C176 0.950 . S
H155 C177 0.948 . S
H156 C179 0.951 . S
H157 C144 0.947 . S
H158 C146 0.952 . S
H159 C147 0.950 . S
N160 C163 1.382 . S
N160 C165 1.363 . S
N161 C163 1.371 . S
N161 C164 1.372 . S
N162 C164 1.361 . S
N162 C165 1.377 . S
C163 N160 1.382 . S
C163 N161 1.371 . S
C163 C166 1.480 . S
C164 N161 1.372 . S
C164 N162 1.361 . S
C164 C172 1.457 . S
C165 N160 1.363 . S
C165 N162 1.377 . S
C165 C178 1.479 1_554 S
C166 C163 1.480 . S
C166 C167 1.383 . S
C166 C171 1.385 . S
C167 H148 0.947 . S
C167 C166 1.383 . S
C167 C168 1.388 . S
C168 H149 0.946 . S
C168 C167 1.388 . S
C168 C169 1.384 . S
C169 C168 1.384 . S
C169 C170 1.377 . S
C170 H150 0.953 . S
C170 C169 1.377 . S
C170 C171 1.369 . S
C171 H151 0.945 . S
C171 C166 1.385 . S
C171 C170 1.369 . S
C172 C164 1.457 . S
C172 C173 1.372 . S
C172 C177 1.364 . S
C173 H152 0.952 . S
C173 C172 1.372 . S
C173 C174 1.389 . S
C174 H153 0.949 . S
C174 C173 1.389 . S
C174 C175 1.387 . S
C175 C174 1.387 . S
C175 C176 1.372 . S
C176 H154 0.950 . S
C176 C175 1.372 . S
C176 C177 1.379 . S
C177 H155 0.948 . S
C177 C172 1.364 . S
C177 C176 1.379 . S
C178 C147 1.383 . S
C178 C165 1.479 1_556 S
C178 C179 1.398 . S
C179 C144 1.382 . S
C179 H156 0.951 . S
C179 C178 1.398 . S
C180 C181 1.384 . S
C180 H193 0.947 . S
C180 C215 1.382 . S
C181 C180 1.384 . S
C181 C182 1.378 . S
C182 C181 1.378 . S
C182 C183 1.378 . S
C182 H194 0.952 . S
C183 C182 1.378 . S
C183 H195 0.950 . S
C183 C214 1.383 . S
H184 C203 0.947 . S
H185 C204 0.946 . S
H186 C206 0.953 . S
H187 C207 0.945 . S
H188 C209 0.952 . S
H189 C210 0.949 . S
H190 C212 0.950 . S
H191 C213 0.948 . S
H192 C215 0.951 . S
H193 C180 0.947 . S
H194 C182 0.952 . S
H195 C183 0.950 . S
N196 C199 1.382 . S
N196 C201 1.363 . S
N197 C199 1.371 . S
N197 C200 1.372 . S
N198 C200 1.361 . S
N198 C201 1.377 . S
C199 N196 1.382 . S
C199 N197 1.371 . S
C199 C202 1.480 . S
C200 N197 1.372 . S
C200 N198 1.361 . S
C200 C208 1.457 . S
C201 N196 1.363 . S
C201 N198 1.377 . S
C201 C214 1.479 1_554 S
C202 C199 1.480 . S
C202 C203 1.383 . S
C202 C207 1.385 . S
C203 H184 0.947 . S
C203 C202 1.383 . S
C203 C204 1.388 . S
C204 H185 0.946 . S
C204 C203 1.388 . S
C204 C205 1.384 . S
C205 C204 1.384 . S
C205 C206 1.377 . S
C206 H186 0.953 . S
C206 C205 1.377 . S
C206 C207 1.369 . S
C207 H187 0.945 . S
C207 C202 1.385 . S
C207 C206 1.369 . S
C208 C200 1.457 . S
C208 C209 1.372 . S
C208 C213 1.364 . S
C209 H188 0.952 . S
C209 C208 1.372 . S
C209 C210 1.389 . S
C210 H189 0.949 . S
C210 C209 1.389 . S
C210 C211 1.387 . S
C211 C210 1.387 . S
C211 C212 1.372 . S
C212 H190 0.950 . S
C212 C211 1.372 . S
C212 C213 1.379 . S
C213 H191 0.948 . S
C213 C208 1.364 . S
C213 C212 1.379 . S
C214 C183 1.383 . S
C214 C201 1.479 1_556 S
C214 C215 1.398 . S
C215 C180 1.382 . S
C215 H192 0.951 . S
C215 C214 1.398 . S
C216 C217 1.385 1_565 S
C216 H229 0.946 . S
C216 C251 1.382 1_565 S
C217 C216 1.385 1_545 S
C217 C218 1.378 . S
C218 C217 1.378 . S
C218 C219 1.378 . S
C218 H230 0.952 . S
C219 C218 1.378 . S
C219 H231 0.950 . S
C219 C250 1.383 . S
H220 C239 0.949 . S
H221 C240 0.948 . S
H222 C242 0.953 . S
H223 C243 0.945 . S
H224 C245 0.951 1_565 S
H225 C246 0.954 . S
H226 C248 0.950 . S
H227 C249 0.948 . S
H228 C251 0.949 1_565 S
H229 C216 0.946 . S
H230 C218 0.952 . S
H231 C219 0.950 . S
N232 C235 1.382 . S
N232 C237 1.363 1_554 S
N233 C235 1.371 . S
N233 C236 1.372 . S
N234 C236 1.361 . S
N234 C237 1.377 1_554 S
C235 N232 1.382 . S
C235 N233 1.371 . S
C235 C238 1.480 . S
C236 N233 1.372 . S
C236 N234 1.361 . S
C236 C244 1.457 . S
C237 N232 1.363 1_556 S
C237 N234 1.377 1_556 S
C237 C250 1.479 . S
C238 C235 1.480 . S
C238 C239 1.383 . S
C238 C243 1.385 . S
C239 H220 0.949 . S
C239 C238 1.383 . S
C239 C240 1.388 1_545 S
C240 H221 0.948 . S
C240 C239 1.388 1_565 S
C240 C241 1.382 1_565 S
C241 C240 1.382 1_545 S
C241 C242 1.377 . S
C242 H222 0.953 . S
C242 C241 1.377 . S
C242 C243 1.369 . S
C243 H223 0.945 . S
C243 C238 1.385 . S
C243 C242 1.369 . S
C244 C236 1.457 . S
C244 C245 1.378 . S
C244 C249 1.364 . S
C245 H224 0.951 1_545 S
C245 C244 1.378 . S
C245 C246 1.381 1_545 S
C246 H225 0.954 . S
C246 C245 1.381 1_565 S
C246 C247 1.387 1_565 S
C247 C246 1.387 1_545 S
C247 C248 1.372 . S
C248 H226 0.950 . S
C248 C247 1.372 . S
C248 C249 1.379 . S
C249 H227 0.948 . S
C249 C244 1.364 . S
C249 C248 1.379 . S
C250 C219 1.383 . S
C250 C237 1.479 . S
C250 C251 1.400 . S
C251 C216 1.382 1_545 S
C251 H228 0.949 1_545 S
C251 C250 1.400 . S
C252 C253 1.384 . S
C252 H265 0.947 . S
C252 C287 1.382 . S
C253 C252 1.384 . S
C253 C254 1.378 . S
C254 C253 1.378 . S
C254 C255 1.378 . S
C254 H266 0.952 . S
C255 C254 1.378 . S
C255 H267 0.950 . S
C255 C286 1.383 . S
H256 C275 0.947 . S
H257 C276 0.946 . S
H258 C278 0.953 1_556 S
H259 C279 0.945 1_556 S
H260 C281 0.952 . S
H261 C282 0.949 . S
H262 C284 0.950 . S
H263 C285 0.948 . S
H264 C287 0.951 . S
H265 C252 0.947 . S
H266 C254 0.952 . S
H267 C255 0.950 . S
N268 C271 1.382 . S
N268 C273 1.363 . S
N269 C271 1.371 1_556 S
N269 C272 1.372 . S
N270 C272 1.361 1_554 S
N270 C273 1.377 . S
C271 N268 1.382 . S
C271 N269 1.371 1_554 S
C271 C274 1.480 . S
C272 N269 1.372 . S
C272 N270 1.361 1_556 S
C272 C280 1.457 . S
C273 N268 1.363 . S
C273 N270 1.377 . S
C273 C286 1.479 . S
C274 C271 1.480 . S
C274 C275 1.383 . S
C274 C279 1.385 . S
C275 H256 0.947 . S
C275 C274 1.383 . S
C275 C276 1.388 . S
C276 H257 0.946 . S
C276 C275 1.388 . S
C276 C277 1.384 . S
C277 C276 1.384 . S
C277 C278 1.377 . S
C278 H258 0.953 1_554 S
C278 C277 1.377 . S
C278 C279 1.369 . S
C279 H259 0.945 1_554 S
C279 C274 1.385 . S
C279 C278 1.369 . S
C280 C272 1.457 . S
C280 C281 1.372 . S
C280 C285 1.364 . S
C281 H260 0.952 . S
C281 C280 1.372 . S
C281 C282 1.389 . S
C282 H261 0.949 . S
C282 C281 1.389 . S
C282 C283 1.387 . S
C283 C282 1.387 . S
C283 C284 1.372 . S
C284 H262 0.950 . S
C284 C283 1.372 . S
C284 C285 1.379 . S
C285 H263 0.948 . S
C285 C280 1.364 . S
C285 C284 1.379 . S
C286 C255 1.383 . S
C286 C273 1.479 . S
C286 C287 1.398 . S
C287 C252 1.382 . S
C287 H264 0.951 . S
C287 C286 1.398 . S
Dy288 O292 2.398 . S
Dy288 O293 2.491 1_455 S
Dy288 O294 2.403 . S
Dy288 O295 2.664 1_565 S
Dy288 O299 2.326 . S
Dy288 O303 2.310 1_455 S
Dy288 O304 2.351 1_565 S
C289 O300 1.185 1_455 S
C289 O301 1.355 . S
C290 O292 1.185 . S
C290 O293 1.355 1_455 S
Dy291 O295 2.310 1_655 S
Dy291 O298 2.351 1_545 S
Dy291 O300 2.398 . S
Dy291 O301 2.491 1_655 S
Dy291 O302 2.403 . S
Dy291 O303 2.664 1_545 S
Dy291 O305 2.326 1_655 S
O292 Dy288 2.398 . S
O292 C290 1.185 . S
O293 Dy288 2.491 1_655 S
O293 C290 1.355 1_655 S
O294 Dy288 2.403 . S
O294 C296 1.254 . S
O295 Dy288 2.664 1_545 S
O295 Dy291 2.310 1_455 S
O295 C296 1.268 1_545 S
C296 O294 1.254 . S
C296 O295 1.268 1_565 S
C297 O302 1.254 . S
C297 O303 1.268 1_545 S
O298 Dy291 2.351 1_565 S
O298 C306 1.249 . S
O299 Dy288 2.326 . S
O299 C306 1.267 1_455 S
O300 C289 1.185 1_655 S
O300 Dy291 2.398 . S
O301 C289 1.355 . S
O301 Dy291 2.491 1_455 S
O302 Dy291 2.403 . S
O302 C297 1.254 . S
O303 Dy288 2.310 1_655 S
O303 Dy291 2.664 1_565 S
O303 C297 1.268 1_565 S
O304 Dy288 2.351 1_545 S
O304 C307 1.249 . S
O305 Dy291 2.326 1_455 S
O305 C307 1.267 . S
C306 O298 1.249 . S
C306 O299 1.267 1_655 S
C307 O304 1.249 . S
C307 O305 1.267 . S
Dy308 O312 2.398 . S
Dy308 O313 2.491 . S
Dy308 O314 2.403 . S
Dy308 O315 2.664 . S
Dy308 O319 2.326 1_565 S
Dy308 O323 2.310 1_565 S
Dy308 O324 2.351 . S
C309 O320 1.185 . S
C309 O321 1.355 . S
C310 O312 1.185 . S
C310 O313 1.355 . S
Dy311 O315 2.310 1_545 S
Dy311 O318 2.351 . S
Dy311 O320 2.398 . S
Dy311 O321 2.491 . S
Dy311 O322 2.403 . S
Dy311 O323 2.664 . S
Dy311 O325 2.326 1_545 S
O312 Dy308 2.398 . S
O312 C310 1.185 . S
O313 Dy308 2.491 . S
O313 C310 1.355 . S
O314 Dy308 2.403 . S
O314 C316 1.254 . S
O315 Dy308 2.664 . S
O315 Dy311 2.310 1_565 S
O315 C316 1.268 . S
C316 O314 1.254 . S
C316 O315 1.268 . S
C317 O322 1.254 . S
C317 O323 1.268 . S
O318 Dy311 2.351 . S
O318 C326 1.249 . S
O319 Dy308 2.326 1_545 S
O319 C326 1.267 . S
O320 C309 1.185 . S
O320 Dy311 2.398 . S
O321 C309 1.355 . S
O321 Dy311 2.491 . S
O322 Dy311 2.403 . S
O322 C317 1.254 . S
O323 Dy308 2.310 1_545 S
O323 Dy311 2.664 . S
O323 C317 1.268 . S
O324 Dy308 2.351 . S
O324 C327 1.249 . S
O325 Dy311 2.326 1_565 S
O325 C327 1.267 . S
C326 O318 1.249 . S
C326 O319 1.267 . S
C327 O324 1.249 . S
C327 O325 1.267 . S
Dy328 O332 2.398 . S
Dy328 O333 2.491 . S
Dy328 O334 2.403 . S
Dy328 O335 2.664 . S
Dy328 O339 2.326 . S
Dy328 O343 2.310 . S
Dy328 O344 2.351 . S
C329 O340 1.185 . S
C329 O341 1.355 . S
C330 O332 1.185 . S
C330 O333 1.355 . S
Dy331 O335 2.310 . S
Dy331 O338 2.351 . S
Dy331 O340 2.398 . S
Dy331 O341 2.491 . S
Dy331 O342 2.403 . S
Dy331 O343 2.664 . S
Dy331 O345 2.326 . S
O332 Dy328 2.398 . S
O332 C330 1.185 . S
O333 Dy328 2.491 . S
O333 C330 1.355 . S
O334 Dy328 2.403 . S
O334 C336 1.254 . S
O335 Dy328 2.664 . S
O335 Dy331 2.310 . S
O335 C336 1.268 . S
C336 O334 1.254 . S
C336 O335 1.268 . S
C337 O342 1.254 . S
C337 O343 1.268 . S
O338 Dy331 2.351 . S
O338 C346 1.249 . S
O339 Dy328 2.326 . S
O339 C346 1.267 . S
O340 C329 1.185 . S
O340 Dy331 2.398 . S
O341 C329 1.355 . S
O341 Dy331 2.491 . S
O342 Dy331 2.403 . S
O342 C337 1.254 . S
O343 Dy328 2.310 . S
O343 Dy331 2.664 . S
O343 C337 1.268 . S
O344 Dy328 2.351 . S
O344 C347 1.249 . S
O345 Dy331 2.326 . S
O345 C347 1.267 . S
C346 O338 1.249 . S
C346 O339 1.267 . S
C347 O344 1.249 . S
C347 O345 1.267 . S
Dy348 O352 2.398 . S
Dy348 O353 2.491 . S
Dy348 O354 2.403 1_655 S
Dy348 O355 2.664 1_655 S
Dy348 O359 2.326 . S
Dy348 O363 2.310 . S
Dy348 O364 2.351 1_655 S
C349 O360 1.185 . S
C349 O361 1.355 . S
C350 O352 1.185 . S
C350 O353 1.355 . S
Dy351 O355 2.310 . S
Dy351 O358 2.351 1_455 S
Dy351 O360 2.398 . S
Dy351 O361 2.491 . S
Dy351 O362 2.403 . S
Dy351 O363 2.664 1_455 S
Dy351 O365 2.326 . S
O352 Dy348 2.398 . S
O352 C350 1.185 . S
O353 Dy348 2.491 . S
O353 C350 1.355 . S
O354 Dy348 2.403 1_455 S
O354 C356 1.254 . S
O355 Dy348 2.664 1_455 S
O355 Dy351 2.310 . S
O355 C356 1.268 . S
C356 O354 1.254 . S
C356 O355 1.268 . S
C357 O362 1.254 1_655 S
C357 O363 1.268 . S
O358 Dy351 2.351 1_655 S
O358 C366 1.249 . S
O359 Dy348 2.326 . S
O359 C366 1.267 . S
O360 C349 1.185 . S
O360 Dy351 2.398 . S
O361 C349 1.355 . S
O361 Dy351 2.491 . S
O362 Dy351 2.403 . S
O362 C357 1.254 1_455 S
O363 Dy348 2.310 . S
O363 Dy351 2.664 1_655 S
O363 C357 1.268 . S
O364 Dy348 2.351 1_455 S
O364 C367 1.249 . S
O365 Dy351 2.326 . S
O365 C367 1.267 . S
C366 O358 1.249 . S
C366 O359 1.267 . S
C367 O364 1.249 . S
C367 O365 1.267 . S
H368 C374 0.930 . S
H369 C377 0.930 . S
H370 C378 0.930 . S
H371 C379 0.930 . S
H372 C382 0.930 . S
H373 C383 0.930 . S
C374 H368 0.930 . S
C374 C375 1.355 1_545 S
C374 C376 1.415 . S
C375 C374 1.355 1_565 S
C375 C377 1.419 . S
C376 C374 1.415 . S
C376 C381 1.425 1_545 S
C376 C383 1.409 . S
C377 H369 0.930 . S
C377 C375 1.419 . S
C377 C378 1.362 . S
C378 H370 0.930 . S
C378 C377 1.362 . S
C378 C381 1.409 . S
C379 H371 0.930 . S
C379 C380 1.382 . S
C379 C381 1.415 . S
C380 C379 1.382 . S
C380 C382 1.386 1_565 S
C381 C376 1.425 1_565 S
C381 C378 1.409 . S
C381 C379 1.415 . S
C382 H372 0.930 . S
C382 C380 1.386 1_545 S
C382 C383 1.362 . S
C383 H373 0.930 . S
C383 C376 1.409 . S
C383 C382 1.362 . S
H384 C390 0.930 . S
H385 C393 0.930 . S
H386 C394 0.930 . S
H387 C395 0.930 . S
H388 C398 0.930 . S
H389 C399 0.930 . S
C390 H384 0.930 . S
C390 C391 1.355 . S
C390 C392 1.415 . S
C391 C390 1.355 . S
C391 C393 1.419 . S
C392 C390 1.415 . S
C392 C397 1.425 . S
C392 C399 1.409 . S
C393 H385 0.930 . S
C393 C391 1.419 . S
C393 C394 1.362 . S
C394 H386 0.930 . S
C394 C393 1.362 . S
C394 C397 1.409 . S
C395 H387 0.930 . S
C395 C396 1.355 . S
C395 C397 1.415 . S
C396 C395 1.355 . S
C396 C398 1.419 . S
C397 C392 1.425 . S
C397 C394 1.409 . S
C397 C395 1.415 . S
C398 H388 0.930 . S
C398 C396 1.419 . S
C398 C399 1.362 . S
C399 H389 0.930 . S
C399 C392 1.409 . S
C399 C398 1.362 . S
H400 C406 0.930 . S
H401 C409 0.930 . S
H402 C410 0.930 . S
H403 C411 0.930 . S
H404 C414 0.930 . S
H405 C415 0.930 . S
C406 H400 0.930 . S
C406 C407 1.355 . S
C406 C408 1.415 . S
C407 C406 1.355 . S
C407 C409 1.419 . S
C408 C406 1.415 . S
C408 C413 1.425 . S
C408 C415 1.409 . S
C409 H401 0.930 . S
C409 C407 1.419 . S
C409 C410 1.362 . S
C410 H402 0.930 . S
C410 C409 1.362 . S
C410 C413 1.409 . S
C411 H403 0.930 . S
C411 C412 1.355 . S
C411 C413 1.415 . S
C412 C411 1.355 . S
C412 C414 1.419 . S
C413 C408 1.425 . S
C413 C410 1.409 . S
C413 C411 1.415 . S
C414 H404 0.930 . S
C414 C412 1.419 . S
C414 C415 1.362 . S
C415 H405 0.930 . S
C415 C408 1.409 . S
C415 C414 1.362 . S
H416 C422 0.930 . S
H417 C425 0.930 . S
H418 C426 0.930 . S
H419 C427 0.930 . S
H420 C430 0.930 . S
H421 C431 0.930 . S
C422 H416 0.930 . S
C422 C423 1.355 . S
C422 C424 1.415 . S
C423 C422 1.355 . S
C423 C425 1.419 . S
C424 C422 1.415 . S
C424 C429 1.425 . S
C424 C431 1.409 . S
C425 H417 0.930 . S
C425 C423 1.419 . S
C425 C426 1.362 . S
C426 H418 0.930 . S
C426 C425 1.362 . S
C426 C429 1.409 . S
C427 H419 0.930 . S
C427 C428 1.355 . S
C427 C429 1.415 . S
C428 C427 1.355 . S
C428 C430 1.419 . S
C429 C424 1.425 . S
C429 C426 1.409 . S
C429 C427 1.415 . S
C430 H420 0.930 . S
C430 C428 1.419 . S
C430 C431 1.362 . S
C431 H421 0.930 . S
C431 C424 1.409 . S
C431 C430 1.362 . S
H432 C438 0.930 . S
H433 C441 0.930 . S
H434 C442 0.930 . S
H435 C443 0.930 . S
H436 C446 0.930 . S
H437 C447 0.930 . S
C438 H432 0.930 . S
C438 C439 1.355 1_545 S
C438 C440 1.415 . S
C439 C438 1.355 1_565 S
C439 C441 1.419 . S
C440 C438 1.415 . S
C440 C445 1.425 1_545 S
C440 C447 1.409 . S
C441 H433 0.930 . S
C441 C439 1.419 . S
C441 C442 1.362 . S
C442 H434 0.930 . S
C442 C441 1.362 . S
C442 C445 1.409 . S
C443 H435 0.930 . S
C443 C444 1.355 1_565 S
C443 C445 1.415 . S
C444 C443 1.355 1_545 S
C444 C446 1.419 . S
C445 C440 1.425 1_565 S
C445 C442 1.409 . S
C445 C443 1.415 . S
C446 H436 0.930 . S
C446 C444 1.419 . S
C446 C447 1.362 . S
C447 H437 0.930 . S
C447 C440 1.409 . S
C447 C446 1.362 . S
H448 C454 0.930 . S
H449 C457 0.930 . S
H450 C458 0.930 . S
H451 C459 0.930 . S
H452 C462 0.930 . S
H453 C463 0.930 . S
C454 H448 0.930 . S
C454 C455 1.355 . S
C454 C456 1.415 . S
C455 C454 1.355 . S
C455 C457 1.419 . S
C456 C454 1.415 . S
C456 C461 1.425 . S
C456 C463 1.409 . S
C457 H449 0.930 . S
C457 C455 1.419 . S
C457 C458 1.362 . S
C458 H450 0.930 . S
C458 C457 1.362 . S
C458 C461 1.409 . S
C459 H451 0.930 . S
C459 C460 1.355 . S
C459 C461 1.415 . S
C460 C459 1.355 . S
C460 C462 1.419 . S
C461 C456 1.425 . S
C461 C458 1.409 . S
C461 C459 1.415 . S
C462 H452 0.930 . S
C462 C460 1.419 . S
C462 C463 1.362 . S
C463 H453 0.930 . S
C463 C456 1.409 . S
C463 C462 1.362 . S
H464 C470 0.930 . S
H465 C473 0.930 . S
H466 C474 0.930 . S
H467 C475 0.930 . S
H468 C478 0.930 . S
H469 C479 0.930 . S
C470 H464 0.930 . S
C470 C471 1.355 . S
C470 C472 1.415 . S
C471 C470 1.355 . S
C471 C473 1.419 . S
C472 C470 1.415 . S
C472 C477 1.425 . S
C472 C479 1.409 . S
C473 H465 0.930 . S
C473 C471 1.419 . S
C473 C474 1.362 . S
C474 H466 0.930 . S
C474 C473 1.362 . S
C474 C477 1.409 . S
C475 H467 0.930 . S
C475 C476 1.355 . S
C475 C477 1.415 . S
C476 C475 1.355 . S
C476 C478 1.419 . S
C477 C472 1.425 . S
C477 C474 1.409 . S
C477 C475 1.415 . S
C478 H468 0.930 . S
C478 C476 1.419 . S
C478 C479 1.362 . S
C479 H469 0.930 . S
C479 C472 1.409 . S
C479 C478 1.362 . S
H480 C486 0.930 . S
H481 C489 0.930 . S
H482 C490 0.930 . S
H483 C491 0.930 . S
H484 C494 0.930 . S
H485 C495 0.930 1_455 S
C486 H480 0.930 . S
C486 C487 1.355 . S
C486 C488 1.415 . S
C487 C486 1.355 . S
C487 C489 1.419 . S
C488 C486 1.415 . S
C488 C493 1.425 . S
C488 C495 1.409 . S
C489 H481 0.930 . S
C489 C487 1.419 . S
C489 C490 1.362 . S
C490 H482 0.930 . S
C490 C489 1.362 . S
C490 C493 1.409 . S
C491 H483 0.930 . S
C491 C492 1.355 . S
C491 C493 1.415 . S
C492 C491 1.355 . S
C492 C494 1.419 1_655 S
C493 C488 1.425 . S
C493 C490 1.409 . S
C493 C491 1.415 . S
C494 H484 0.930 . S
C494 C492 1.419 1_455 S
C494 C495 1.362 1_455 S
C495 H485 0.930 1_655 S
C495 C488 1.409 . S
C495 C494 1.362 1_655 S
H496 C502 0.930 . S
H497 C505 0.930 . S
H498 C506 0.930 . S
H499 C507 0.930 1_655 S
H500 C510 0.930 . S
H501 C511 0.930 . S
C502 H496 0.930 . S
C502 C503 1.355 . S
C502 C504 1.415 . S
C503 C502 1.355 . S
C503 C505 1.419 . S
C504 C502 1.415 . S
C504 C509 1.425 . S
C504 C511 1.409 . S
C505 H497 0.930 . S
C505 C503 1.419 . S
C505 C506 1.362 . S
C506 H498 0.930 . S
C506 C505 1.362 . S
C506 C509 1.409 . S
C507 H499 0.930 1_455 S
C507 C508 1.355 . S
C507 C509 1.415 . S
C508 C507 1.355 . S
C508 C510 1.419 . S
C509 C504 1.425 . S
C509 C506 1.409 . S
C509 C507 1.415 . S
C510 H500 0.930 . S
C510 C508 1.419 . S
C510 C511 1.362 . S
C511 H501 0.930 . S
C511 C504 1.409 . S
C511 C510 1.362 . S
H512 C518 0.930 . S
H513 C521 0.930 . S
H514 C522 0.930 . S
H515 C523 0.930 . S
H516 C526 0.930 . S
H517 C527 0.930 . S
C518 H512 0.930 . S
C518 C519 1.355 1_565 S
C518 C520 1.415 . S
C519 C518 1.355 1_545 S
C519 C521 1.419 . S
C520 C518 1.415 . S
C520 C525 1.425 1_565 S
C520 C527 1.409 . S
C521 H513 0.930 . S
C521 C519 1.419 . S
C521 C522 1.362 . S
C522 H514 0.930 . S
C522 C521 1.362 . S
C522 C525 1.409 . S
C523 H515 0.930 . S
C523 C524 1.355 1_545 S
C523 C525 1.415 . S
C524 C523 1.355 1_565 S
C524 C526 1.419 . S
C525 C520 1.425 1_545 S
C525 C522 1.409 . S
C525 C523 1.415 . S
C526 H516 0.930 . S
C526 C524 1.419 . S
C526 C527 1.362 . S
C527 H517 0.930 . S
C527 C520 1.409 . S
C527 C526 1.362 . S
H528 C534 0.930 . S
H529 C537 0.930 . S
H530 C538 0.930 . S
H531 C539 0.930 . S
H532 C542 0.930 . S
H533 C543 0.930 . S
C534 H528 0.930 . S
C534 C535 1.355 . S
C534 C536 1.415 . S
C535 C534 1.355 . S
C535 C537 1.419 . S
C536 C534 1.415 . S
C536 C541 1.425 . S
C536 C543 1.409 . S
C537 H529 0.930 . S
C537 C535 1.419 . S
C537 C538 1.362 . S
C538 H530 0.930 . S
C538 C537 1.362 . S
C538 C541 1.409 . S
C539 H531 0.930 . S
C539 C540 1.355 . S
C539 C541 1.415 . S
C540 C539 1.355 . S
C540 C542 1.419 . S
C541 C536 1.425 . S
C541 C538 1.409 . S
C541 C539 1.415 . S
C542 H532 0.930 . S
C542 C540 1.419 . S
C542 C543 1.362 . S
C543 H533 0.930 . S
C543 C536 1.409 . S
C543 C542 1.362 . S
H544 C550 0.930 . S
H545 C553 0.930 . S
H546 C554 0.930 . S
H547 C555 0.930 . S
H548 C558 0.930 . S
H549 C559 0.930 . S
C550 H544 0.930 . S
C550 C551 1.355 . S
C550 C552 1.415 . S
C551 C550 1.355 . S
C551 C553 1.419 . S
C552 C550 1.415 . S
C552 C557 1.425 . S
C552 C559 1.409 . S
C553 H545 0.930 . S
C553 C551 1.419 . S
C553 C554 1.362 . S
C554 H546 0.930 . S
C554 C553 1.362 . S
C554 C557 1.409 . S
C555 H547 0.930 . S
C555 C556 1.355 . S
C555 C557 1.415 . S
C556 C555 1.355 . S
C556 C558 1.419 . S
C557 C552 1.425 . S
C557 C554 1.409 . S
C557 C555 1.415 . S
C558 H548 0.930 . S
C558 C556 1.419 . S
C558 C559 1.362 . S
C559 H549 0.930 . S
C559 C552 1.409 . S
C559 C558 1.362 . S
H560 C566 0.930 . S
H561 C569 0.930 . S
H562 C570 0.930 . S
H563 C571 0.930 . S
H564 C574 0.930 1_455 S
H565 C575 0.930 . S
C566 H560 0.930 . S
C566 C567 1.355 . S
C566 C568 1.415 . S
C567 C566 1.355 . S
C567 C569 1.419 . S
C568 C566 1.415 . S
C568 C573 1.425 . S
C568 C575 1.409 . S
C569 H561 0.930 . S
C569 C567 1.419 . S
C569 C570 1.362 . S
C570 H562 0.930 . S
C570 C569 1.362 . S
C570 C573 1.409 . S
C571 H563 0.930 . S
C571 C572 1.355 . S
C571 C573 1.415 . S
C572 C571 1.355 . S
C572 C574 1.419 . S
C573 C568 1.425 . S
C573 C570 1.409 . S
C573 C571 1.415 . S
C574 H564 0.930 1_655 S
C574 C572 1.419 . S
C574 C575 1.362 . S
C575 H565 0.930 . S
C575 C568 1.409 . S
C575 C574 1.362 . S
H576 C582 0.930 . S
H577 C585 0.930 . S
H578 C586 0.930 . S
H579 C587 0.930 . S
H580 C590 0.930 . S
H581 C591 0.930 . S
C582 H576 0.930 . S
C582 C583 1.355 1_565 S
C582 C584 1.415 . S
C583 C582 1.355 1_545 S
C583 C585 1.419 . S
C584 C582 1.415 . S
C584 C589 1.425 1_565 S
C584 C591 1.409 . S
C585 H577 0.930 . S
C585 C583 1.419 . S
C585 C586 1.362 . S
C586 H578 0.930 . S
C586 C585 1.362 . S
C586 C589 1.409 . S
C587 H579 0.930 . S
C587 C588 1.355 . S
C587 C589 1.415 . S
C588 C587 1.355 . S
C588 C590 1.419 1_545 S
C589 C584 1.425 1_545 S
C589 C586 1.409 . S
C589 C587 1.415 . S
C590 H580 0.930 . S
C590 C588 1.419 1_565 S
C590 C591 1.362 . S
C591 H581 0.930 . S
C591 C584 1.409 . S
C591 C590 1.362 . S
H592 C598 0.930 . S
H593 C601 0.930 . S
H594 C602 0.930 . S
H595 C603 0.930 . S
H596 C606 0.930 . S
H597 C607 0.930 . S
C598 H592 0.930 . S
C598 C599 1.355 . S
C598 C600 1.415 . S
C599 C598 1.355 . S
C599 C601 1.419 . S
C600 C598 1.415 . S
C600 C605 1.425 . S
C600 C607 1.409 . S
C601 H593 0.930 . S
C601 C599 1.419 . S
C601 C602 1.362 . S
C602 H594 0.930 . S
C602 C601 1.362 . S
C602 C605 1.409 . S
C603 H595 0.930 . S
C603 C604 1.355 . S
C603 C605 1.415 . S
C604 C603 1.355 . S
C604 C606 1.419 . S
C605 C600 1.425 . S
C605 C602 1.409 . S
C605 C603 1.415 . S
C606 H596 0.930 . S
C606 C604 1.419 . S
C606 C607 1.362 . S
C607 H597 0.930 . S
C607 C600 1.409 . S
C607 C606 1.362 . S
H608 C614 0.930 . S
H609 C617 0.930 . S
H610 C618 0.930 . S
H611 C619 0.930 . S
H612 C622 0.930 . S
H613 C623 0.930 . S
C614 H608 0.930 . S
C614 C615 1.355 . S
C614 C616 1.415 . S
C615 C614 1.355 . S
C615 C617 1.419 . S
C616 C614 1.415 . S
C616 C621 1.425 . S
C616 C623 1.409 . S
C617 H609 0.930 . S
C617 C615 1.419 . S
C617 C618 1.362 . S
C618 H610 0.930 . S
C618 C617 1.362 . S
C618 C621 1.409 . S
C619 H611 0.930 . S
C619 C620 1.355 . S
C619 C621 1.415 . S
C620 C619 1.355 . S
C620 C622 1.419 . S
C621 C616 1.425 . S
C621 C618 1.409 . S
C621 C619 1.415 . S
C622 H612 0.930 . S
C622 C620 1.419 . S
C622 C623 1.362 . S
C623 H613 0.930 . S
C623 C616 1.409 . S
C623 C622 1.362 . S
H624 C630 0.930 . S
H625 C633 0.930 . S
H626 C634 0.930 . S
H627 C635 0.930 . S
H628 C638 0.930 . S
H629 C639 0.930 . S
C630 H624 0.930 . S
C630 C631 1.355 . S
C630 C632 1.415 . S
C631 C630 1.355 . S
C631 C633 1.419 . S
C632 C630 1.415 . S
C632 C637 1.425 . S
C632 C639 1.409 . S
C633 H625 0.930 . S
C633 C631 1.419 . S
C633 C634 1.362 . S
C634 H626 0.930 . S
C634 C633 1.362 . S
C634 C637 1.409 . S
C635 H627 0.930 . S
C635 C636 1.355 . S
C635 C637 1.415 . S
C636 C635 1.355 . S
C636 C638 1.419 . S
C637 C632 1.425 . S
C637 C634 1.409 . S
C637 C635 1.415 . S
C638 H628 0.930 . S
C638 C636 1.419 . S
C638 C639 1.362 . S
C639 H629 0.930 . S
C639 C632 1.409 . S
C639 C638 1.362 . S
H640 C646 0.930 . S
H641 C649 0.930 . S
H642 C650 0.930 . S
H643 C651 0.930 . S
H644 C654 0.930 . S
H645 C655 0.930 . S
C646 H640 0.930 . S
C646 C647 1.355 1_565 S
C646 C648 1.415 . S
C647 C646 1.355 1_545 S
C647 C649 1.419 . S
C648 C646 1.415 . S
C648 C653 1.425 1_565 S
C648 C655 1.409 . S
C649 H641 0.930 . S
C649 C647 1.419 . S
C649 C650 1.362 . S
C650 H642 0.930 . S
C650 C649 1.362 . S
C650 C653 1.409 . S
C651 H643 0.930 . S
C651 C652 1.355 . S
C651 C653 1.415 . S
C652 C651 1.355 . S
C652 C654 1.419 1_545 S
C653 C648 1.425 1_545 S
C653 C650 1.409 . S
C653 C651 1.415 . S
C654 H644 0.930 . S
C654 C652 1.419 1_565 S
C654 C655 1.362 . S
C655 H645 0.930 . S
C655 C648 1.409 . S
C655 C654 1.362 . S
H656 C662 0.930 . S
H657 C665 0.930 . S
H658 C666 0.930 . S
H659 C667 0.930 . S
H660 C670 0.930 . S
H661 C671 0.930 . S
C662 H656 0.930 . S
C662 C663 1.355 . S
C662 C664 1.415 . S
C663 C662 1.355 . S
C663 C665 1.419 . S
C664 C662 1.415 . S
C664 C669 1.425 . S
C664 C671 1.409 . S
C665 H657 0.930 . S
C665 C663 1.419 . S
C665 C666 1.362 . S
C666 H658 0.930 . S
C666 C665 1.362 . S
C666 C669 1.409 . S
C667 H659 0.930 . S
C667 C668 1.355 . S
C667 C669 1.415 . S
C668 C667 1.355 . S
C668 C670 1.419 . S
C669 C664 1.425 . S
C669 C666 1.409 . S
C669 C667 1.415 . S
C670 H660 0.930 . S
C670 C668 1.419 . S
C670 C671 1.362 . S
C671 H661 0.930 . S
C671 C664 1.409 . S
C671 C670 1.362 . S
H672 C678 0.930 . S
H673 C681 0.930 . S
H674 C682 0.930 . S
H675 C683 0.930 . S
H676 C686 0.930 . S
H677 C687 0.930 . S
C678 H672 0.930 . S
C678 C679 1.355 . S
C678 C680 1.415 . S
C679 C678 1.355 . S
C679 C681 1.419 . S
C680 C678 1.415 . S
C680 C685 1.425 . S
C680 C687 1.409 . S
C681 H673 0.930 . S
C681 C679 1.419 . S
C681 C682 1.362 . S
C682 H674 0.930 . S
C682 C681 1.362 . S
C682 C685 1.409 . S
C683 H675 0.930 . S
C683 C684 1.355 . S
C683 C685 1.415 . S
C684 C683 1.355 . S
C684 C686 1.419 . S
C685 C680 1.425 . S
C685 C682 1.409 . S
C685 C683 1.415 . S
C686 H676 0.930 . S
C686 C684 1.419 . S
C686 C687 1.362 . S
C687 H677 0.930 . S
C687 C680 1.409 . S
C687 C686 1.362 . S
H688 C694 0.930 . S
H689 C697 0.930 . S
H690 C698 0.930 . S
H691 C699 0.930 . S
H692 C702 0.930 . S
H693 C703 0.930 . S
C694 H688 0.930 . S
C694 C695 1.355 . S
C694 C696 1.415 . S
C695 C694 1.355 . S
C695 C697 1.419 . S
C696 C694 1.415 . S
C696 C701 1.425 . S
C696 C703 1.409 . S
C697 H689 0.930 . S
C697 C695 1.419 . S
C697 C698 1.362 . S
C698 H690 0.930 . S
C698 C697 1.362 . S
C698 C701 1.409 . S
C699 H691 0.930 . S
C699 C700 1.355 . S
C699 C701 1.415 . S
C700 C699 1.355 . S
C700 C702 1.419 . S
C701 C696 1.425 . S
C701 C698 1.409 . S
C701 C699 1.415 . S
C702 H692 0.930 . S
C702 C700 1.419 . S
C702 C703 1.362 . S
C703 H693 0.930 . S
C703 C696 1.409 . S
C703 C702 1.362 . S
H704 C710 0.930 . S
H705 C713 0.930 . S
H706 C714 0.930 . S
H707 C715 0.930 . S
H708 C718 0.930 . S
H709 C719 0.930 . S
C710 H704 0.930 . S
C710 C711 1.355 1_545 S
C710 C712 1.415 . S
C711 C710 1.355 1_565 S
C711 C713 1.419 . S
C712 C710 1.415 . S
C712 C717 1.425 1_545 S
C712 C719 1.409 . S
C713 H705 0.930 . S
C713 C711 1.419 . S
C713 C714 1.362 . S
C714 H706 0.930 . S
C714 C713 1.362 . S
C714 C717 1.409 . S
C715 H707 0.930 . S
C715 C716 1.355 . S
C715 C717 1.415 . S
C716 C715 1.355 . S
C716 C718 1.419 1_565 S
C717 C712 1.425 1_565 S
C717 C714 1.409 . S
C717 C715 1.415 . S
C718 H708 0.930 . S
C718 C716 1.419 1_545 S
C718 C719 1.362 . S
C719 H709 0.930 . S
C719 C712 1.409 . S
C719 C718 1.362 . S
H720 C726 0.930 . S
H721 C729 0.930 . S
H722 C730 0.930 . S
H723 C731 0.930 . S
H724 C734 0.930 . S
H725 C735 0.930 . S
C726 H720 0.930 . S
C726 C727 1.355 . S
C726 C728 1.415 . S
C727 C726 1.355 . S
C727 C729 1.419 . S
C728 C726 1.415 . S
C728 C733 1.425 . S
C728 C735 1.409 . S
C729 H721 0.930 . S
C729 C727 1.419 . S
C729 C730 1.362 . S
C730 H722 0.930 . S
C730 C729 1.362 . S
C730 C733 1.409 . S
C731 H723 0.930 . S
C731 C732 1.355 . S
C731 C733 1.415 . S
C732 C731 1.355 . S
C732 C734 1.419 . S
C733 C728 1.425 . S
C733 C730 1.409 . S
C733 C731 1.415 . S
C734 H724 0.930 . S
C734 C732 1.419 . S
C734 C735 1.362 . S
C735 H725 0.930 . S
C735 C728 1.409 . S
C735 C734 1.362 . S
H736 C742 0.930 . S
H737 C745 0.930 . S
H738 C746 0.930 . S
H739 C747 0.930 . S
H740 C750 0.930 . S
H741 C751 0.930 . S
C742 H736 0.930 . S
C742 C743 1.355 . S
C742 C744 1.415 . S
C743 C742 1.355 . S
C743 C745 1.419 . S
C744 C742 1.415 . S
C744 C749 1.425 . S
C744 C751 1.409 . S
C745 H737 0.930 . S
C745 C743 1.419 . S
C745 C746 1.362 . S
C746 H738 0.930 . S
C746 C745 1.362 . S
C746 C749 1.409 . S
C747 H739 0.930 . S
C747 C748 1.355 . S
C747 C749 1.415 . S
C748 C747 1.355 . S
C748 C750 1.419 . S
C749 C744 1.425 . S
C749 C746 1.409 . S
C749 C747 1.415 . S
C750 H740 0.930 . S
C750 C748 1.419 . S
C750 C751 1.362 . S
C751 H741 0.930 . S
C751 C744 1.409 . S
C751 C750 1.362 . S
C375 C241 1.748 1_565 S
C380 C296 1.881 . S
C396 C326 2.414 . S
C391 C277 2.275 . S
C412 C336 1.982 . S
C407 C169 1.822 . S
C428 C356 1.868 . S
C423 C205 1.673 . S
C444 C297 1.862 . S
C439 C97 1.754 1_565 S
C455 C133 2.378 . S
C460 C327 2.440 . S
C471 C25 1.879 . S
C476 C337 1.979 . S
C487 C61 1.678 . S
C492 C357 1.877 . S
C508 C289 0.923 . S
C503 C211 0.867 . S
C524 C310 0.447 . S
C519 C247 0.514 . S
C540 C329 1.181 . S
C535 C253 1.043 . S
C551 C175 0.736 . S
C556 C349 0.679 . S
C567 C67 0.831 . S
C572 C290 0.971 1_655 S
C588 C309 0.481 . S
C583 C103 0.500 . S
C604 C330 1.196 . S
C599 C109 1.188 . S
C615 C31 0.756 . S
C620 C350 0.657 . S
C631 C181 2.336 . S
C636 C307 2.550 . S
C647 C217 1.863 . S
C652 C317 2.153 . S
C668 C347 2.747 . S
C663 C283 2.348 . S
C684 C367 2.599 . S
C679 C145 2.361 . S
C695 C37 2.270 . S
C700 C306 2.535 . S
C716 C316 2.175 . S
C711 C73 1.938 1_565 S
C732 C346 2.741 . S
C727 C139 2.422 . S
C743 C1 2.437 . S
C748 C366 2.632 . S
