# Generated by pormake.
# Topology nom, (4,4)-cn, num edge types: 1
# Building blocks:
#     Node 0, Type 0, BuildingBlock: NAWXER_clean_linker_0, # of connection points: 4
#     Node 1, Type 0, BuildingBlock: NAWXER_clean_linker_0, # of connection points: 4
#     Node 2, Type 0, BuildingBlock: NAWXER_clean_linker_0, # of connection points: 4
#     Node 3, Type 0, BuildingBlock: NAWXER_clean_linker_0, # of connection points: 4
#     Node 4, Type 0, BuildingBlock: NAWXER_clean_linker_0, # of connection points: 4
#     Node 5, Type 0, BuildingBlock: NAWXER_clean_linker_0, # of connection points: 4
#     Node 6, Type 1, BuildingBlock: UXUYUI_clean_sbu_0, # of connection points: 4
#     Node 7, Type 1, BuildingBlock: UXUYUI_clean_sbu_0, # of connection points: 4
#     Node 8, Type 1, BuildingBlock: UXUYUI_clean_sbu_0, # of connection points: 4
#     Node 9, Type 1, BuildingBlock: UXUYUI_clean_sbu_0, # of connection points: 4
#     Node 10, Type 1, BuildingBlock: UXUYUI_clean_sbu_0, # of connection points: 4
#     Node 11, Type 1, BuildingBlock: UXUYUI_clean_sbu_0, # of connection points: 4
#     Edge 12, Type (0, 1), BuildingBlock: KIFKEQ_clean_linker_1, # of connection points: 2
#     Edge 13, Type (0, 1), BuildingBlock: KIFKEQ_clean_linker_1, # of connection points: 2
#     Edge 14, Type (0, 1), BuildingBlock: KIFKEQ_clean_linker_1, # of connection points: 2
#     Edge 15, Type (0, 1), BuildingBlock: KIFKEQ_clean_linker_1, # of connection points: 2
#     Edge 16, Type (0, 1), BuildingBlock: KIFKEQ_clean_linker_1, # of connection points: 2
#     Edge 17, Type (0, 1), BuildingBlock: KIFKEQ_clean_linker_1, # of connection points: 2
#     Edge 18, Type (0, 1), BuildingBlock: KIFKEQ_clean_linker_1, # of connection points: 2
#     Edge 19, Type (0, 1), BuildingBlock: KIFKEQ_clean_linker_1, # of connection points: 2
#     Edge 20, Type (0, 1), BuildingBlock: KIFKEQ_clean_linker_1, # of connection points: 2
#     Edge 21, Type (0, 1), BuildingBlock: KIFKEQ_clean_linker_1, # of connection points: 2
#     Edge 22, Type (0, 1), BuildingBlock: KIFKEQ_clean_linker_1, # of connection points: 2
#     Edge 23, Type (0, 1), BuildingBlock: KIFKEQ_clean_linker_1, # of connection points: 2
#     Edge 24, Type (0, 1), BuildingBlock: KIFKEQ_clean_linker_1, # of connection points: 2
#     Edge 25, Type (0, 1), BuildingBlock: KIFKEQ_clean_linker_1, # of connection points: 2
#     Edge 26, Type (0, 1), BuildingBlock: KIFKEQ_clean_linker_1, # of connection points: 2
#     Edge 27, Type (0, 1), BuildingBlock: KIFKEQ_clean_linker_1, # of connection points: 2
#     Edge 28, Type (0, 1), BuildingBlock: KIFKEQ_clean_linker_1, # of connection points: 2
#     Edge 29, Type (0, 1), BuildingBlock: KIFKEQ_clean_linker_1, # of connection points: 2
#     Edge 30, Type (0, 1), BuildingBlock: KIFKEQ_clean_linker_1, # of connection points: 2
#     Edge 31, Type (0, 1), BuildingBlock: KIFKEQ_clean_linker_1, # of connection points: 2
#     Edge 32, Type (0, 1), BuildingBlock: KIFKEQ_clean_linker_1, # of connection points: 2
#     Edge 33, Type (0, 1), BuildingBlock: KIFKEQ_clean_linker_1, # of connection points: 2
#     Edge 34, Type (0, 1), BuildingBlock: KIFKEQ_clean_linker_1, # of connection points: 2
#     Edge 35, Type (0, 1), BuildingBlock: KIFKEQ_clean_linker_1, # of connection points: 2
# Relax obj value: 0.041
# Max RMSD: 0.144
# Mean RMSD: 0.123
data_MOF--net-nom--node1-UXUYUI_clean_sbu_0--node2-NAWXER_clean_linker_0--edge1-KIFKEQ_clean_linker_1
_symmetry_space_group_name_H-M    P1
_symmetry_Int_Tables_number       1
_symmetry_cell_setting            triclinic
loop_
_symmetry_equiv_pos_as_xyz
'x, y, z'
_cell_length_a     63.008054
_cell_length_b     63.005269
_cell_length_c     69.975443
_cell_angle_alpha  89.981654
_cell_angle_beta   90.020711
_cell_angle_gamma 120.00763
loop_
_atom_site_label
_atom_site_type_symbol
_atom_site_fract_x
_atom_site_fract_y
_atom_site_fract_z
_atom_type_partial_charge
C0 C 0.93353 0.50315 0.33783 0.0
C1 C 0.92273 0.48462 0.35174 0.0
C2 C 0.95749 0.51152 0.33171 0.0
C3 C 0.9712 0.50149 0.33926 0.0
C4 C 0.93652 0.47458 0.35928 0.0
C5 C 0.9606 0.48309 0.3532 0.0
C6 C 0.99718 0.51172 0.33377 0.0
C7 C 0.95386 0.47339 0.28151 0.0
C8 C 0.9583 0.48819 0.26528 0.0
C9 C 0.96895 0.48254 0.29759 0.0
C10 C 0.98852 0.50685 0.29793 0.0
C11 C 0.97806 0.51238 0.26553 0.0
C12 C 0.99303 0.52159 0.28167 0.0
C13 C 0.00528 0.51654 0.31461 0.0
C14 C 0.11603 0.56805 0.32147 0.0
C15 C 0.12162 0.58751 0.30877 0.0
C16 C 0.09175 0.55189 0.32683 0.0
C17 C 0.07268 0.55521 0.31989 0.0
C18 C 0.10232 0.59017 0.30138 0.0
C19 C 0.07819 0.57423 0.30688 0.0
C20 C 0.04678 0.53888 0.32543 0.0
C21 C 0.08784 0.57185 0.3806 0.0
C22 C 0.08588 0.55408 0.39379 0.0
C23 C 0.07258 0.56502 0.36454 0.0
C24 C 0.05537 0.54025 0.36121 0.0
C25 C 0.06834 0.52936 0.39053 0.0
C26 C 0.05319 0.52256 0.37446 0.0
C27 C 0.03871 0.53253 0.34453 0.0
H28 H 0.92373 0.51175 0.33204 0.0
H29 H 0.96553 0.52634 0.32141 0.0
H30 H 0.92871 0.46014 0.36989 0.0
H31 H 0.97096 0.4753 0.35937 0.0
H32 H 0.93906 0.45454 0.28161 0.0
H33 H 0.96556 0.47041 0.30959 0.0
H34 H 0.98185 0.52427 0.25328 0.0
H35 H 0.00811 0.54032 0.28147 0.0
H36 H 0.13042 0.56546 0.32746 0.0
H37 H 0.08793 0.53689 0.3364 0.0
H38 H 0.1058 0.60449 0.29119 0.0
H39 H 0.06377 0.57695 0.30109 0.0
H40 H 0.10086 0.59108 0.38288 0.0
H41 H 0.0741 0.57909 0.35482 0.0
H42 H 0.06651 0.5152 0.40029 0.0
H43 H 0.03987 0.50337 0.37226 0.0
N44 N 0.01419 0.51938 0.34794 0.0
N45 N 0.02973 0.53036 0.31126 0.0
C46 C 0.451 0.93415 0.50416 0.0
C47 C 0.45873 0.92389 0.51849 0.0
C48 C 0.46626 0.9582 0.49807 0.0
C49 C 0.48974 0.97248 0.50598 0.0
C50 C 0.48217 0.93825 0.52654 0.0
C51 C 0.49748 0.96237 0.52039 0.0
C52 C 0.50523 0.99849 0.50037 0.0
C53 C 0.50075 0.95553 0.44803 0.0
C54 C 0.4892 0.95909 0.43214 0.0
C55 C 0.5068 0.97076 0.46402 0.0
C56 C 0.50115 0.98969 0.46458 0.0
C57 C 0.48383 0.97823 0.43265 0.0
C58 C 0.48985 0.99343 0.44866 0.0
C59 C 0.50821 0.0065 0.48119 0.0
C60 C 0.56739 0.11717 0.48702 0.0
C61 C 0.5529 0.12264 0.47493 0.0
C62 C 0.55938 0.09295 0.49254 0.0
C63 C 0.53659 0.07386 0.48627 0.0
C64 C 0.53044 0.10334 0.4683 0.0
C65 C 0.52242 0.07926 0.47388 0.0
C66 C 0.52728 0.04803 0.49185 0.0
C67 C 0.5366 0.08952 0.54693 0.0
C68 C 0.55273 0.08771 0.55987 0.0
C69 C 0.52784 0.07413 0.53096 0.0
C70 C 0.53535 0.05692 0.5275 0.0
C71 C 0.55988 0.07019 0.55647 0.0
C72 C 0.55118 0.05489 0.5405 0.0
C73 C 0.52601 0.0401 0.51094 0.0
H74 H 0.43285 0.92381 0.498 0.0
H75 H 0.45941 0.96583 0.48748 0.0
H76 H 0.48872 0.93083 0.53753 0.0
H77 H 0.51538 0.97315 0.52689 0.0
H78 H 0.50502 0.94088 0.44816 0.0
H79 H 0.51617 0.96789 0.47585 0.0
H80 H 0.47532 0.98174 0.42054 0.0
H81 H 0.48559 0.0081 0.44863 0.0
H82 H 0.58478 0.13161 0.4924 0.0
H83 H 0.57098 0.08918 0.50168 0.0
H84 H 0.51908 0.10678 0.45861 0.0
H85 H 0.50494 0.06481 0.46863 0.0
H86 H 0.53038 0.10251 0.54932 0.0
H87 H 0.51504 0.07554 0.52144 0.0
H88 H 0.57245 0.06847 0.56605 0.0
H89 H 0.55702 0.04157 0.53819 0.0
N90 N 0.51481 0.01561 0.51445 0.0
N91 N 0.51861 0.03091 0.47774 0.0
C92 C 0.56664 0.49794 0.61382 0.0
C93 C 0.55177 0.48733 0.59767 0.0
C94 C 0.55745 0.50378 0.62991 0.0
C95 C 0.53305 0.49875 0.63033 0.0
C96 C 0.52743 0.48246 0.59804 0.0
C97 C 0.5182 0.48817 0.61418 0.0
C98 C 0.52345 0.50605 0.64691 0.0
C99 C 0.53686 0.44803 0.67102 0.0
C100 C 0.55524 0.45589 0.68507 0.0
C101 C 0.52867 0.46362 0.66451 0.0
C102 C 0.53872 0.48748 0.67183 0.0
C103 C 0.56536 0.47987 0.69232 0.0
C104 C 0.55703 0.49544 0.68586 0.0
C105 C 0.52851 0.50319 0.6661 0.0
C106 C 0.47029 0.53628 0.71266 0.0
C107 C 0.48851 0.55227 0.72549 0.0
C108 C 0.4765 0.52715 0.69669 0.0
C109 C 0.50109 0.53419 0.69309 0.0
C110 C 0.51303 0.55895 0.72196 0.0
C111 C 0.51922 0.54991 0.70598 0.0
C112 C 0.50818 0.52449 0.67655 0.0
C113 C 0.47297 0.56631 0.65281 0.0
C114 C 0.45326 0.55225 0.64036 0.0
C115 C 0.48899 0.55807 0.65831 0.0
C116 C 0.48529 0.53538 0.65178 0.0
C117 C 0.45022 0.52997 0.63338 0.0
C118 C 0.46602 0.52166 0.63903 0.0
C119 C 0.50152 0.52573 0.65745 0.0
H120 H 0.5856 0.50234 0.61384 0.0
H121 H 0.56964 0.51278 0.64184 0.0
H122 H 0.51547 0.47413 0.58587 0.0
H123 H 0.49939 0.48429 0.61406 0.0
H124 H 0.52822 0.42954 0.66544 0.0
H125 H 0.51392 0.45673 0.65415 0.0
H126 H 0.57971 0.48662 0.70301 0.0
H127 H 0.56485 0.51369 0.69184 0.0
H128 H 0.45119 0.53046 0.71516 0.0
H129 H 0.46209 0.51446 0.68726 0.0
H130 H 0.52752 0.5714 0.73144 0.0
H131 H 0.53827 0.55539 0.70357 0.0
H132 H 0.47587 0.58354 0.65849 0.0
H133 H 0.50419 0.56941 0.66767 0.0
H134 H 0.4357 0.51895 0.62338 0.0
H135 H 0.463 0.50428 0.63354 0.0
N136 N 0.50971 0.51673 0.6434 0.0
N137 N 0.52121 0.51305 0.68012 0.0
C138 C 0.9326 0.45019 0.81973 0.0
C139 C 0.92215 0.45798 0.8056 0.0
C140 C 0.95629 0.46594 0.82637 0.0
C141 C 0.96999 0.48984 0.81908 0.0
C142 C 0.93578 0.48198 0.79842 0.0
C143 C 0.9596 0.49769 0.80498 0.0
C144 C 0.99582 0.50571 0.8249 0.0
C145 C 0.95173 0.49996 0.87693 0.0
C146 C 0.9563 0.48987 0.89326 0.0
C147 C 0.96686 0.50589 0.86088 0.0
C148 C 0.98659 0.50139 0.86067 0.0
C149 C 0.97614 0.48556 0.89311 0.0
C150 C 0.99113 0.49129 0.87699 0.0
C151 C 0.0036 0.50878 0.84414 0.0
C152 C 0.11446 0.56904 0.83834 0.0
C153 C 0.12005 0.55509 0.85096 0.0
C154 C 0.0902 0.56083 0.83286 0.0
C155 C 0.07115 0.53829 0.83958 0.0
C156 C 0.10076 0.53302 0.85819 0.0
C157 C 0.07665 0.52474 0.85255 0.0
C158 C 0.04531 0.52854 0.83378 0.0
C159 C 0.08751 0.53808 0.77903 0.0
C160 C 0.08578 0.55423 0.76605 0.0
C161 C 0.07189 0.52914 0.79486 0.0
C162 C 0.05448 0.53643 0.79813 0.0
C163 C 0.06797 0.56107 0.76922 0.0
C164 C 0.05243 0.55217 0.78504 0.0
C165 C 0.03753 0.52703 0.81461 0.0
H166 H 0.92247 0.43186 0.82561 0.0
H167 H 0.96412 0.4592 0.83688 0.0
H168 H 0.92826 0.48837 0.78739 0.0
H169 H 0.96998 0.51593 0.79896 0.0
H170 H 0.93686 0.5039 0.87676 0.0
H171 H 0.96342 0.51453 0.84882 0.0
H172 H 0.98 0.47763 0.90543 0.0
H173 H 0.00633 0.48783 0.8773 0.0
H174 H 0.12884 0.58612 0.83247 0.0
H175 H 0.08639 0.57206 0.82332 0.0
H176 H 0.10422 0.52212 0.86833 0.0
H177 H 0.06225 0.50748 0.8582 0.0
H178 H 0.10108 0.53252 0.77707 0.0
H179 H 0.0734 0.5165 0.8045 0.0
H180 H 0.0658 0.57307 0.75932 0.0
H181 H 0.03885 0.55771 0.78713 0.0
N182 N 0.01308 0.51547 0.81093 0.0
N183 N 0.02801 0.51962 0.84776 0.0
C184 C 0.50649 0.93314 0.98755 0.0
C185 C 0.48846 0.92251 0.97329 0.0
C186 C 0.51395 0.9567 0.99424 0.0
C187 C 0.50344 0.97009 0.98687 0.0
C188 C 0.47774 0.93579 0.96607 0.0
C189 C 0.48535 0.95949 0.97268 0.0
C190 C 0.51304 0.99588 0.99265 0.0
C191 C 0.47504 0.95142 0.04459 0.0
C192 C 0.48972 0.95604 0.06095 0.0
C193 C 0.48405 0.9667 0.0286 0.0
C194 C 0.50812 0.98669 0.02843 0.0
C195 C 0.51372 0.97623 0.06081 0.0
C196 C 0.52277 0.99138 0.04476 0.0
C197 C 0.51762 0.00371 0.01189 0.0
C198 C 0.56857 0.11465 0.00558 0.0
C199 C 0.58818 0.12023 0.01811 0.0
C200 C 0.5523 0.09035 1.00031 0.0
C201 C 0.55564 0.07126 0.00718 0.0
C202 C 0.59078 0.10091 0.02552 0.0
C203 C 0.57472 0.07676 0.02011 0.0
C204 C 0.53946 0.0454 0.00146 0.0
C205 C 0.57261 0.08721 0.9466 0.0
C206 C 0.55484 0.08557 0.93355 0.0
C207 C 0.56576 0.07169 0.9625 0.0
C208 C 0.541 0.05446 0.96578 0.0
C209 C 0.53011 0.06797 0.93674 0.0
C210 C 0.52331 0.05252 0.95263 0.0
C211 C 0.53331 0.03757 0.98229 0.0
H212 H 0.51496 0.92328 0.99346 0.0
H213 H 0.52841 0.96471 0.00481 0.0
H214 H 0.46398 0.92813 0.95493 0.0
H215 H 0.47727 0.96963 0.9666 0.0
H216 H 0.45654 0.93597 0.04411 0.0
H217 H 0.47199 0.96305 0.0165 0.0
H218 H 0.52541 0.98066 0.07325 0.0
H219 H 0.54128 0.00686 0.04513 0.0
H220 H 0.56601 0.12905 0.99959 0.0
H221 H 0.53725 0.08654 0.99079 0.0
H222 H 0.60521 0.10439 0.03561 0.0
H223 H 0.57747 0.06234 0.02586 0.0
H224 H 0.59179 0.10062 0.94463 0.0
H225 H 0.57982 0.07311 0.9722 0.0
H226 H 0.51602 0.06588 0.92679 0.0
H227 H 0.50414 0.03908 0.95472 0.0
N228 N 0.52052 0.0131 0.97865 0.0
N229 N 0.53109 0.02814 0.01547 0.0
C230 C 0.50436 0.59294 0.16961 0.0
C231 C 0.48614 0.58546 0.18375 0.0
C232 C 0.51236 0.57711 0.16331 0.0
C233 C 0.50223 0.55338 0.17091 0.0
C234 C 0.47599 0.56164 0.19133 0.0
C235 C 0.48411 0.54582 0.18507 0.0
C236 C 0.5121 0.53737 0.16528 0.0
C237 C 0.47367 0.54308 0.11334 0.0
C238 C 0.48831 0.55312 0.097 0.0
C239 C 0.48277 0.53691 0.12933 0.0
C240 C 0.50691 0.54115 0.12947 0.0
C241 C 0.51232 0.55703 0.09705 0.0
C242 C 0.5215 0.55109 0.11311 0.0
C243 C 0.51658 0.5339 0.14607 0.0
C244 C 0.56751 0.47401 0.15278 0.0
C245 C 0.58707 0.48787 0.14017 0.0
C246 C 0.55134 0.48217 0.158 0.0
C247 C 0.55474 0.50457 0.15101 0.0
C248 C 0.58973 0.50975 0.13263 0.0
C249 C 0.57377 0.51798 0.138 0.0
C250 C 0.53864 0.51436 0.15666 0.0
C251 C 0.57239 0.50634 0.21135 0.0
C252 C 0.55482 0.49058 0.22467 0.0
C253 C 0.56536 0.51485 0.19546 0.0
C254 C 0.54057 0.50741 0.19241 0.0
C255 C 0.53008 0.48358 0.22173 0.0
C256 C 0.52307 0.492 0.20581 0.0
C257 C 0.53266 0.51631 0.17582 0.0
H258 H 0.51301 0.61131 0.16378 0.0
H259 H 0.52696 0.58368 0.15285 0.0
H260 H 0.46178 0.5552 0.20211 0.0
H261 H 0.47626 0.52769 0.19128 0.0
H262 H 0.45495 0.53944 0.11358 0.0
H263 H 0.47073 0.52839 0.14141 0.0
H264 H 0.52408 0.56489 0.08471 0.0
H265 H 0.54008 0.55435 0.11276 0.0
H266 H 0.56491 0.45707 0.15886 0.0
H267 H 0.53633 0.47106 0.16759 0.0
H268 H 0.60413 0.52057 0.1225 0.0
H269 H 0.57655 0.53512 0.13216 0.0
H270 H 0.59164 0.51243 0.21339 0.0
H271 H 0.5793 0.52733 0.18562 0.0
H272 H 0.51607 0.47132 0.23162 0.0
H273 H 0.50388 0.48624 0.20384 0.0
N274 N 0.51979 0.52792 0.17937 0.0
N275 N 0.5301 0.52298 0.14258 0.0
Li276 Li 0.64081 0.41602 0.42829 0.0
Li277 Li 0.63322 0.37654 0.41507 0.0
Li278 Li 0.67058 0.41334 0.40853 0.0
Li279 Li 0.63404 0.40756 0.39405 0.0
C280 C 0.67976 0.4072 0.44372 0.0
N281 N 0.72433 0.42656 0.4623 0.0
C282 C 0.68945 0.39218 0.44839 0.0
C283 C 0.69268 0.43205 0.44858 0.0
C284 C 0.71203 0.40232 0.45776 0.0
C285 C 0.71519 0.44149 0.45796 0.0
C286 C 0.59195 0.37937 0.42803 0.0
C287 C 0.55009 0.36517 0.43725 0.0
N288 N 0.55442 0.35791 0.45441 0.0
C289 C 0.59601 0.3718 0.44577 0.0
C290 C 0.56885 0.37609 0.42373 0.0
C291 C 0.57679 0.36098 0.45891 0.0
C292 C 0.6227 0.44367 0.44651 0.0
N293 N 0.63391 0.43032 0.44955 0.0
C294 C 0.63103 0.43339 0.48337 0.0
C295 C 0.63823 0.42513 0.46751 0.0
C296 C 0.61902 0.44687 0.48073 0.0
C297 C 0.61503 0.45218 0.46199 0.0
H298 H 0.6192 0.44718 0.43205 0.0
H299 H 0.64657 0.4139 0.46953 0.0
C300 C 0.63693 0.33515 0.42132 0.0
N301 N 0.62005 0.34245 0.41979 0.0
C302 C 0.62974 0.311 0.42618 0.0
C303 C 0.58767 0.30198 0.42693 0.0
C304 C 0.5957 0.3263 0.42191 0.0
C305 C 0.60485 0.29419 0.42943 0.0
H306 H 0.65609 0.34825 0.41898 0.0
H307 H 0.58248 0.33226 0.41993 0.0
C308 C 0.67223 0.45556 0.39344 0.0
N309 N 0.6971 0.49114 0.36608 0.0
C310 C 0.6815 0.45013 0.37717 0.0
C311 C 0.6756 0.47907 0.39579 0.0
C312 C 0.69402 0.46837 0.3635 0.0
C313 C 0.68823 0.49681 0.3818 0.0
C314 C 0.63716 0.36956 0.37691 0.0
C315 C 0.64971 0.36305 0.36386 0.0
C316 C 0.61156 0.35767 0.37633 0.0
C317 C 0.63643 0.34474 0.3504 0.0
C318 C 0.59895 0.33946 0.36266 0.0
N319 N 0.61154 0.33343 0.35009 0.0
C320 C 0.71008 0.40718 0.39974 0.0
C321 C 0.72211 0.44864 0.40621 0.0
C322 C 0.73425 0.41357 0.39582 0.0
N323 N 0.70448 0.42467 0.40461 0.0
C324 C 0.74653 0.4559 0.40222 0.0
C325 C 0.75279 0.43825 0.3968 0.0
H326 H 0.69564 0.38825 0.39869 0.0
H327 H 0.71718 0.46214 0.41038 0.0
C328 C 0.60385 0.42132 0.37404 0.0
N329 N 0.62085 0.41426 0.37181 0.0
C330 C 0.59542 0.4285 0.35819 0.0
C331 C 0.62194 0.42069 0.33807 0.0
C332 C 0.62979 0.41362 0.35426 0.0
C333 C 0.60474 0.42855 0.33993 0.0
H334 H 0.5973 0.42195 0.3882 0.0
H335 H 0.64348 0.40817 0.35285 0.0
O336 O 0.65801 0.39784 0.43408 0.0
O337 O 0.61056 0.39048 0.41503 0.0
O338 O 0.65968 0.438 0.40699 0.0
O339 O 0.65008 0.38745 0.39014 0.0
H340 H 0.67969 0.37291 0.44483 0.0
H341 H 0.68557 0.444 0.44489 0.0
H342 H 0.71978 0.39093 0.46141 0.0
H343 H 0.72545 0.46071 0.4617 0.0
H344 H 0.53211 0.3625 0.43411 0.0
H345 H 0.61375 0.37416 0.44936 0.0
H346 H 0.56547 0.38196 0.41008 0.0
H347 H 0.57967 0.35502 0.47268 0.0
H348 H 0.63406 0.42851 0.49755 0.0
H349 H 0.60594 0.46262 0.45934 0.0
H350 H 0.64358 0.30576 0.42793 0.0
H351 H 0.56826 0.28943 0.42889 0.0
H352 H 0.67907 0.43205 0.37508 0.0
H353 H 0.66847 0.48352 0.40829 0.0
H354 H 0.70127 0.46442 0.35084 0.0
H355 H 0.69097 0.51509 0.38343 0.0
H356 H 0.66952 0.37208 0.36414 0.0
H357 H 0.60147 0.3624 0.38626 0.0
H358 H 0.64591 0.33953 0.34021 0.0
H359 H 0.57915 0.33012 0.36205 0.0
H360 H 0.73829 0.39944 0.39153 0.0
H361 H 0.76036 0.47509 0.40334 0.0
H362 H 0.58234 0.43468 0.3603 0.0
H363 H 0.6294 0.42015 0.32426 0.0
Li364 Li 0.24864 0.64063 0.59727 0.0
Li365 Li 0.27905 0.63299 0.58334 0.0
Li366 Li 0.27987 0.671 0.57681 0.0
Li367 Li 0.24818 0.6335 0.56317 0.0
C368 C 0.29089 0.67704 0.6151 0.0
N369 N 0.30395 0.71348 0.64211 0.0
C370 C 0.3107 0.68322 0.6273 0.0
C371 C 0.27772 0.68942 0.61663 0.0
C372 C 0.31701 0.70169 0.64087 0.0
C373 C 0.28461 0.70778 0.63037 0.0
C374 C 0.23652 0.5919 0.5973 0.0
C375 C 0.20919 0.55063 0.60806 0.0
N376 N 0.22299 0.55513 0.6241 0.0
C377 C 0.25044 0.59612 0.61389 0.0
C378 C 0.21572 0.56899 0.59434 0.0
C379 C 0.2433 0.5773 0.62727 0.0
C380 C 0.20453 0.62723 0.61707 0.0
N381 N 0.22852 0.63401 0.61937 0.0
C382 C 0.2228 0.62674 0.653 0.0
C383 C 0.23788 0.63413 0.63692 0.0
C384 C 0.19779 0.61905 0.65105 0.0
C385 C 0.18875 0.61973 0.63282 0.0
H386 H 0.19753 0.627 0.6029 0.0
H387 H 0.25693 0.63928 0.63839 0.0
C388 C 0.32387 0.63786 0.59211 0.0
N389 N 0.30053 0.62053 0.58771 0.0
C390 C 0.34115 0.63108 0.59686 0.0
C391 C 0.31014 0.58867 0.59213 0.0
C392 C 0.29349 0.59632 0.58726 0.0
C393 C 0.3343 0.60616 0.59727 0.0
H394 H 0.32895 0.657 0.59213 0.0
H395 H 0.27485 0.58291 0.58352 0.0
C396 C 0.23845 0.67177 0.56316 0.0
N397 N 0.22678 0.69655 0.53639 0.0
C398 C 0.25253 0.68094 0.54658 0.0
C399 C 0.21845 0.6752 0.56612 0.0
C400 C 0.24634 0.69341 0.53322 0.0
C401 C 0.21284 0.68778 0.55242 0.0
C402 C 0.28903 0.63703 0.54484 0.0
C403 C 0.30803 0.64981 0.53178 0.0
C404 C 0.27531 0.61144 0.544 0.0
C405 C 0.31299 0.63678 0.51806 0.0
C406 C 0.28085 0.59908 0.53007 0.0
N407 N 0.29941 0.61189 0.51749 0.0
C408 C 0.32494 0.70953 0.56658 0.0
C409 C 0.29673 0.72278 0.57414 0.0
C410 C 0.34284 0.73335 0.56183 0.0
N411 N 0.30237 0.70468 0.57232 0.0
C412 C 0.31411 0.74695 0.56947 0.0
C413 C 0.33744 0.75241 0.56298 0.0
H414 H 0.32893 0.69474 0.56549 0.0
H415 H 0.27865 0.71841 0.57885 0.0
C416 C 0.20366 0.6028 0.54386 0.0
N417 N 0.22757 0.62007 0.54129 0.0
C418 C 0.18772 0.59391 0.52823 0.0
C419 C 0.2214 0.62058 0.50762 0.0
C420 C 0.23664 0.62893 0.52361 0.0
C421 C 0.19651 0.60295 0.50979 0.0
H422 H 0.19691 0.59621 0.5581 0.0
H423 H 0.25562 0.64294 0.52193 0.0
O424 O 0.28467 0.65907 0.6017 0.0
O425 O 0.24288 0.61009 0.58407 0.0
O426 O 0.24395 0.65929 0.57644 0.0
O427 O 0.28409 0.64966 0.55834 0.0
H428 H 0.32109 0.67381 0.62628 0.0
H429 H 0.26232 0.68492 0.60734 0.0
H430 H 0.3323 0.70665 0.65041 0.0
H431 H 0.27458 0.7175 0.63171 0.0
H432 H 0.19312 0.5328 0.60596 0.0
H433 H 0.2666 0.61372 0.61644 0.0
H434 H 0.20472 0.56546 0.58158 0.0
H435 H 0.2539 0.58032 0.64017 0.0
H436 H 0.23061 0.62681 0.6668 0.0
H437 H 0.16955 0.61371 0.63064 0.0
H438 H 0.35966 0.64527 0.60024 0.0
H439 H 0.30392 0.56925 0.59237 0.0
H440 H 0.26809 0.67849 0.54403 0.0
H441 H 0.20735 0.66817 0.57888 0.0
H442 H 0.25707 0.70059 0.52033 0.0
H443 H 0.19739 0.69056 0.55452 0.0
H444 H 0.31881 0.66962 0.53224 0.0
H445 H 0.26051 0.60118 0.55392 0.0
H446 H 0.32763 0.64644 0.50785 0.0
H447 H 0.27037 0.57929 0.52925 0.0
H448 H 0.3607 0.73677 0.55728 0.0
H449 H 0.3091 0.76104 0.57044 0.0
H450 H 0.16873 0.58014 0.53055 0.0
H451 H 0.22891 0.6284 0.49377 0.0
Li452 Li 0.66841 0.27967 0.75003 0.0
Li453 Li 0.63127 0.24814 0.76431 0.0
Li454 Li 0.63718 0.24854 0.73003 0.0
Li455 Li 0.63025 0.27905 0.74463 0.0
C456 C 0.66918 0.23793 0.76307 0.0
N457 N 0.69439 0.22564 0.78897 0.0
C458 C 0.67905 0.25192 0.77961 0.0
C459 C 0.67212 0.2177 0.75971 0.0
C460 C 0.69173 0.24541 0.79252 0.0
C461 C 0.68494 0.21178 0.77297 0.0
C462 C 0.63594 0.28934 0.78305 0.0
C463 C 0.59879 0.28146 0.79904 0.0
N464 N 0.61222 0.30046 0.81112 0.0
C465 C 0.64937 0.3088 0.79559 0.0
C466 C 0.61044 0.27554 0.78476 0.0
C467 C 0.63704 0.31413 0.8097 0.0
C468 C 0.70766 0.32497 0.75881 0.0
N469 N 0.70228 0.302 0.75377 0.0
C470 C 0.74443 0.31317 0.75626 0.0
C471 C 0.72007 0.2959 0.75209 0.0
C472 C 0.75048 0.33695 0.76202 0.0
C473 C 0.73172 0.34282 0.76295 0.0
H474 H 0.69311 0.32931 0.75979 0.0
H475 H 0.7153 0.27753 0.74787 0.0
C476 C 0.6013 0.20371 0.78405 0.0
N477 N 0.61868 0.22765 0.78633 0.0
C478 C 0.59321 0.18787 0.79977 0.0
C479 C 0.62086 0.22172 0.81985 0.0
C480 C 0.62836 0.23686 0.8038 0.0
C481 C 0.60325 0.19679 0.81795 0.0
H482 H 0.59413 0.19683 0.76995 0.0
H483 H 0.64232 0.2559 0.80526 0.0
C484 C 0.67305 0.29058 0.71172 0.0
N485 N 0.70835 0.30319 0.68379 0.0
C486 C 0.67862 0.31011 0.69936 0.0
C487 C 0.68546 0.27748 0.70989 0.0
C488 C 0.69651 0.31619 0.68532 0.0
C489 C 0.70324 0.28414 0.69568 0.0
C490 C 0.58859 0.2368 0.73116 0.0
C491 C 0.59243 0.25093 0.71475 0.0
C492 C 0.56568 0.21609 0.73435 0.0
C493 C 0.57323 0.24408 0.70177 0.0
C494 C 0.54694 0.20985 0.72103 0.0
N495 N 0.55108 0.22385 0.70515 0.0
C496 C 0.62382 0.20465 0.70985 0.0
C497 C 0.62943 0.23789 0.69043 0.0
C498 C 0.61642 0.18906 0.69399 0.0
N499 N 0.62996 0.2285 0.70781 0.0
C500 C 0.62213 0.223 0.67424 0.0
C501 C 0.6152 0.19815 0.6759 0.0
H502 H 0.62415 0.19762 0.72389 0.0
H503 H 0.63413 0.25683 0.68915 0.0
C504 C 0.63474 0.32383 0.73615 0.0
N505 N 0.6177 0.30059 0.74108 0.0
C506 C 0.6277 0.3411 0.73208 0.0
C507 C 0.58566 0.31026 0.73855 0.0
C508 C 0.59356 0.29361 0.74269 0.0
C509 C 0.60284 0.33429 0.733 0.0
H510 H 0.6538 0.32881 0.73506 0.0
H511 H 0.58042 0.27506 0.74687 0.0
O512 O 0.65642 0.2437 0.75026 0.0
O513 O 0.64786 0.28408 0.76914 0.0
O514 O 0.65563 0.28458 0.72557 0.0
O515 O 0.60712 0.2429 0.74403 0.0
H516 H 0.67698 0.26765 0.78246 0.0
H517 H 0.66454 0.20667 0.74698 0.0
H518 H 0.69945 0.25606 0.80538 0.0
H519 H 0.68735 0.19616 0.77055 0.0
H520 H 0.57907 0.27093 0.80054 0.0
H521 H 0.66912 0.31966 0.79443 0.0
H522 H 0.5997 0.26041 0.77522 0.0
H523 H 0.64721 0.32913 0.81951 0.0
H524 H 0.75821 0.30774 0.75548 0.0
H525 H 0.73554 0.36102 0.76688 0.0
H526 H 0.57978 0.16873 0.79762 0.0
H527 H 0.62886 0.22946 0.83361 0.0
H528 H 0.66918 0.32044 0.70061 0.0
H529 H 0.68143 0.2623 0.71929 0.0
H530 H 0.70099 0.33125 0.67565 0.0
H531 H 0.71297 0.27415 0.6941 0.0
H532 H 0.61001 0.26703 0.71203 0.0
H533 H 0.56245 0.20494 0.74697 0.0
H534 H 0.57596 0.25484 0.68901 0.0
H535 H 0.52912 0.19385 0.72331 0.0
H536 H 0.611 0.16996 0.69596 0.0
H537 H 0.62178 0.23087 0.66056 0.0
H538 H 0.64149 0.35936 0.72768 0.0
H539 H 0.56635 0.3044 0.73961 0.0
Li540 Li 0.40475 0.63161 0.92795 0.0
Li541 Li 0.41233 0.66975 0.91441 0.0
Li542 Li 0.37462 0.63257 0.90716 0.0
Li543 Li 0.41264 0.63919 0.894 0.0
C544 C 0.36755 0.63643 0.94545 0.0
N545 N 0.33052 0.61186 0.97182 0.0
C546 C 0.36111 0.64952 0.95799 0.0
C547 C 0.35514 0.61082 0.94629 0.0
C548 C 0.34234 0.63677 0.97123 0.0
C549 C 0.33648 0.59875 0.95973 0.0
C550 C 0.45306 0.66876 0.929 0.0
C551 C 0.49429 0.68422 0.94052 0.0
N552 N 0.48856 0.69226 0.95669 0.0
C553 C 0.44757 0.67717 0.94573 0.0
C554 C 0.47658 0.67229 0.92636 0.0
C555 C 0.46577 0.68901 0.95955 0.0
C556 C 0.41953 0.60164 0.94679 0.0
N557 N 0.411 0.61737 0.94978 0.0
C558 C 0.41532 0.61542 0.98358 0.0
C559 C 0.40879 0.62434 0.96772 0.0
C560 C 0.42457 0.59946 0.98094 0.0
C561 C 0.42652 0.59245 0.96225 0.0
H562 H 0.42139 0.59667 0.93234 0.0
H563 H 0.40262 0.63738 0.96976 0.0
C564 C 0.40776 0.70989 0.92379 0.0
N565 N 0.42479 0.70364 0.91896 0.0
C566 C 0.41487 0.73416 0.92808 0.0
C567 C 0.45698 0.7452 0.92213 0.0
C568 C 0.44901 0.7207 0.91779 0.0
C569 C 0.43979 0.75213 0.92746 0.0
H570 H 0.38863 0.69589 0.92451 0.0
H571 H 0.46215 0.71527 0.91367 0.0
C572 C 0.37511 0.59087 0.89329 0.0
N573 N 0.35202 0.55456 0.86614 0.0
C574 C 0.36603 0.59556 0.87656 0.0
C575 C 0.37247 0.56773 0.89621 0.0
C576 C 0.35441 0.57696 0.86301 0.0
C577 C 0.36072 0.54961 0.88232 0.0
C578 C 0.4089 0.67668 0.87601 0.0
C579 C 0.39622 0.68369 0.8635 0.0
C580 C 0.43447 0.6883 0.87502 0.0
C581 C 0.40933 0.70222 0.85016 0.0
C582 C 0.44691 0.70675 0.86149 0.0
N583 N 0.4342 0.71327 0.84944 0.0
C584 C 0.33542 0.63854 0.89761 0.0
C585 C 0.32341 0.59687 0.90292 0.0
C586 C 0.31147 0.63218 0.89284 0.0
N587 N 0.34094 0.62095 0.90228 0.0
C588 C 0.29921 0.58963 0.89805 0.0
C589 C 0.29299 0.60739 0.89274 0.0
H590 H 0.34975 0.65758 0.89745 0.0
H591 H 0.32826 0.58324 0.90688 0.0
C592 C 0.44352 0.6255 0.87494 0.0
N593 N 0.42651 0.63245 0.87222 0.0
C594 C 0.45238 0.61831 0.85938 0.0
C595 C 0.42628 0.62593 0.83857 0.0
C596 C 0.41796 0.63296 0.85448 0.0
C597 C 0.44356 0.61823 0.8409 0.0
H598 H 0.44983 0.62509 0.88924 0.0
H599 H 0.40412 0.63814 0.85271 0.0
O600 O 0.38581 0.64877 0.93236 0.0
O601 O 0.43555 0.65687 0.91529 0.0
O602 O 0.38685 0.60882 0.90671 0.0
O603 O 0.39621 0.65864 0.88918 0.0
H604 H 0.37053 0.66935 0.95749 0.0
H605 H 0.35984 0.60034 0.93674 0.0
H606 H 0.33717 0.64668 0.98104 0.0
H607 H 0.32673 0.57895 0.96055 0.0
H608 H 0.51258 0.68707 0.93866 0.0
H609 H 0.42949 0.67464 0.94805 0.0
H610 H 0.48109 0.66583 0.9135 0.0
H611 H 0.46177 0.69561 0.97256 0.0
H612 H 0.41394 0.62162 0.99771 0.0
H613 H 0.43347 0.58009 0.95962 0.0
H614 H 0.40108 0.7387 0.9323 0.0
H615 H 0.47633 0.75858 0.92128 0.0
H616 H 0.36792 0.61336 0.87404 0.0
H617 H 0.37947 0.56386 0.90908 0.0
H618 H 0.34731 0.58034 0.84999 0.0
H619 H 0.35855 0.53161 0.88438 0.0
H620 H 0.37643 0.67488 0.8641 0.0
H621 H 0.44463 0.68315 0.88455 0.0
H622 H 0.39975 0.70782 0.84038 0.0
H623 H 0.46668 0.71589 0.86057 0.0
H624 H 0.30751 0.64658 0.8893 0.0
H625 H 0.28569 0.57029 0.89803 0.0
H626 H 0.46587 0.61275 0.86182 0.0
H627 H 0.41864 0.62576 0.82467 0.0
Li628 Li 0.765 0.41134 0.08422 0.0
Li629 Li 0.79625 0.40391 0.09648 0.0
Li630 Li 0.796 0.41332 0.06288 0.0
Li631 Li 0.76528 0.37447 0.0753 0.0
C632 C 0.80674 0.45194 0.09918 0.0
N633 N 0.819 0.48624 0.12789 0.0
C634 C 0.79311 0.44568 0.11609 0.0
C635 C 0.82661 0.47563 0.09688 0.0
C636 C 0.7996 0.46328 0.13043 0.0
C637 C 0.83251 0.49272 0.11156 0.0
C638 C 0.75474 0.36531 0.11351 0.0
C639 C 0.76231 0.33416 0.12633 0.0
N640 N 0.74307 0.32704 0.13848 0.0
C641 C 0.73504 0.35767 0.1261 0.0
C642 C 0.7685 0.35347 0.11359 0.0
C643 C 0.72944 0.3383 0.13863 0.0
C644 C 0.71992 0.40525 0.09441 0.0
N645 N 0.74311 0.42289 0.08997 0.0
C646 C 0.73293 0.45425 0.09497 0.0
C647 C 0.74984 0.44703 0.0899 0.0
C648 C 0.70884 0.43642 0.09994 0.0
C649 C 0.70239 0.4116 0.09939 0.0
H650 H 0.71508 0.38618 0.09411 0.0
H651 H 0.76836 0.46069 0.08611 0.0
C652 C 0.84142 0.41916 0.11482 0.0
N653 N 0.81706 0.40972 0.11802 0.0
C654 C 0.85776 0.42617 0.13018 0.0
C655 C 0.82353 0.41308 0.1518 0.0
C656 C 0.80792 0.40654 0.13606 0.0
C657 C 0.84885 0.42331 0.14897 0.0
H658 H 0.84821 0.4218 0.10031 0.0
H659 H 0.7886 0.39969 0.13827 0.0
C660 C 0.754 0.40958 0.04608 0.0
N661 N 0.74144 0.43557 0.0212 0.0
C662 C 0.73415 0.39719 0.03366 0.0
C663 C 0.76745 0.43519 0.04588 0.0
C664 C 0.7281 0.41066 0.02117 0.0
C665 C 0.76081 0.448 0.03319 0.0
C666 C 0.80727 0.37631 0.06012 0.0
C667 C 0.79352 0.36868 0.04327 0.0
C668 C 0.82743 0.37295 0.06233 0.0
C669 C 0.80018 0.35775 0.02891 0.0
C670 C 0.8335 0.36194 0.04763 0.0
N671 N 0.81987 0.35463 0.03136 0.0
C672 C 0.84086 0.44356 0.04425 0.0
C673 C 0.80718 0.42221 0.02323 0.0
C674 C 0.85702 0.45288 0.02879 0.0
N675 N 0.81649 0.4284 0.04121 0.0
C676 C 0.82262 0.43127 0.00739 0.0
C677 C 0.84794 0.44657 0.01006 0.0
H678 H 0.84778 0.44787 0.05872 0.0
H679 H 0.78788 0.40956 0.02114 0.0
C680 C 0.72038 0.33497 0.06534 0.0
N681 N 0.74374 0.3409 0.06961 0.0
C682 C 0.70313 0.311 0.06029 0.0
C683 C 0.73428 0.29963 0.06429 0.0
C684 C 0.75089 0.3238 0.06948 0.0
C685 C 0.71008 0.29305 0.05952 0.0
H686 H 0.71526 0.34899 0.06568 0.0
H687 H 0.76951 0.32895 0.07321 0.0
O688 O 0.80101 0.43501 0.08498 0.0
O689 O 0.76024 0.38416 0.1011 0.0
O690 O 0.75993 0.39653 0.05846 0.0
O691 O 0.80138 0.38736 0.07434 0.0
H692 H 0.77767 0.42745 0.11815 0.0
H693 H 0.83738 0.48072 0.08389 0.0
H694 H 0.78921 0.45867 0.14359 0.0
H695 H 0.84786 0.51112 0.10998 0.0
H696 H 0.7728 0.32484 0.12655 0.0
H697 H 0.7242 0.36664 0.12618 0.0
H698 H 0.78382 0.35909 0.10398 0.0
H699 H 0.71424 0.3322 0.14846 0.0
H700 H 0.73884 0.4736 0.09535 0.0
H701 H 0.68396 0.39718 0.10269 0.0
H702 H 0.87715 0.4339 0.1274 0.0
H703 H 0.81595 0.41099 0.16603 0.0
H704 H 0.72354 0.37736 0.03368 0.0
H705 H 0.78288 0.44513 0.05536 0.0
H706 H 0.71279 0.40131 0.01147 0.0
H707 H 0.77106 0.46781 0.03287 0.0
H708 H 0.77786 0.37113 0.04128 0.0
H709 H 0.8383 0.37885 0.07528 0.0
H710 H 0.7897 0.35176 0.0158 0.0
H711 H 0.84907 0.35923 0.04915 0.0
H712 H 0.87642 0.46471 0.03146 0.0
H713 H 0.81492 0.42559 0.99322 0.0
H714 H 0.6847 0.30669 0.05659 0.0
H715 H 0.74024 0.28622 0.06409 0.0
Li716 Li 0.41399 0.79506 0.26425 0.0
Li717 Li 0.3758 0.76381 0.25118 0.0
Li718 Li 0.41336 0.76415 0.24364 0.0
Li719 Li 0.40587 0.79488 0.23034 0.0
C720 C 0.41014 0.75352 0.28195 0.0
N721 N 0.43542 0.74171 0.30814 0.0
C722 C 0.39744 0.7337 0.29433 0.0
C723 C 0.43572 0.76734 0.28286 0.0
C724 C 0.41055 0.72803 0.30749 0.0
C725 C 0.44815 0.76107 0.2962 0.0
C726 C 0.37657 0.80596 0.26528 0.0
C727 C 0.36213 0.83269 0.2765 0.0
N728 N 0.35377 0.8191 0.29273 0.0
C729 C 0.36784 0.79226 0.28208 0.0
C730 C 0.37373 0.82635 0.26245 0.0
C731 C 0.35636 0.7992 0.29578 0.0
C732 C 0.44394 0.83984 0.28338 0.0
N733 N 0.42786 0.81559 0.28606 0.0
C734 C 0.42772 0.82153 0.31977 0.0
C735 C 0.41986 0.80623 0.30382 0.0
C736 C 0.44384 0.84679 0.31746 0.0
C737 C 0.45228 0.85586 0.29898 0.0
H738 H 0.4497 0.84682 0.26905 0.0
H739 H 0.40675 0.78698 0.3056 0.0
C740 C 0.33656 0.71875 0.26091 0.0
N741 N 0.34215 0.74189 0.25624 0.0
C742 C 0.31264 0.70128 0.26586 0.0
C743 C 0.30055 0.73173 0.26081 0.0
C744 C 0.32471 0.74857 0.25577 0.0
C745 C 0.29427 0.70774 0.26615 0.0
H746 H 0.35082 0.71395 0.26094 0.0
H747 H 0.32961 0.76706 0.25181 0.0
C748 C 0.45414 0.80588 0.22906 0.0
N749 N 0.48944 0.8179 0.20121 0.0
C750 C 0.44852 0.79201 0.2123 0.0
C751 C 0.47769 0.82586 0.23164 0.0
C752 C 0.46662 0.79838 0.1984 0.0
C753 C 0.49529 0.83164 0.2174 0.0
C754 C 0.36837 0.75297 0.2129 0.0
C755 C 0.36169 0.73341 0.20033 0.0
C756 C 0.35608 0.76629 0.2122 0.0
C757 C 0.34283 0.7275 0.18721 0.0
C758 C 0.33731 0.75981 0.19887 0.0
N759 N 0.33113 0.74071 0.18675 0.0
C760 C 0.40821 0.71927 0.2343 0.0
C761 C 0.4497 0.74947 0.23975 0.0
C762 C 0.41496 0.70189 0.22989 0.0
N763 N 0.42553 0.74254 0.23891 0.0
C764 C 0.45732 0.7327 0.23527 0.0
C765 C 0.43982 0.70859 0.23015 0.0
H766 H 0.38911 0.71433 0.23386 0.0
H767 H 0.46308 0.76803 0.24371 0.0
C768 C 0.42074 0.83968 0.21155 0.0
N769 N 0.41207 0.8154 0.20856 0.0
C770 C 0.42778 0.85586 0.19608 0.0
C771 C 0.41632 0.82162 0.17476 0.0
C772 C 0.40974 0.80618 0.19062 0.0
C773 C 0.42573 0.84686 0.17739 0.0
H774 H 0.42271 0.84654 0.22599 0.0
H775 H 0.40346 0.78694 0.18858 0.0
O776 O 0.39745 0.75911 0.26894 0.0
O777 O 0.38821 0.79982 0.25173 0.0
O778 O 0.43673 0.80025 0.24285 0.0
O779 O 0.38672 0.75878 0.22588 0.0
H780 H 0.37764 0.72282 0.29378 0.0
H781 H 0.4459 0.78275 0.27341 0.0
H782 H 0.40095 0.71274 0.31717 0.0
H783 H 0.46794 0.7716 0.29706 0.0
H784 H 0.3598 0.84843 0.2745 0.0
H785 H 0.3699 0.77644 0.28454 0.0
H786 H 0.38047 0.83718 0.24954 0.0
H787 H 0.34954 0.78876 0.30885 0.0
H788 H 0.42099 0.81367 0.33375 0.0
H789 H 0.46448 0.87524 0.2965 0.0
H790 H 0.30863 0.68291 0.26942 0.0
H791 H 0.28711 0.73765 0.26097 0.0
H792 H 0.43041 0.77647 0.21002 0.0
H793 H 0.4823 0.83681 0.24452 0.0
H794 H 0.46252 0.7878 0.18537 0.0
H795 H 0.5136 0.84707 0.21921 0.0
H796 H 0.37101 0.72291 0.20072 0.0
H797 H 0.36096 0.78151 0.22177 0.0
H798 H 0.33748 0.71241 0.17738 0.0
H799 H 0.32766 0.76996 0.19816 0.0
H800 H 0.40093 0.68357 0.22585 0.0
H801 H 0.47664 0.73848 0.23582 0.0
H802 H 0.43487 0.87519 0.1987 0.0
H803 H 0.41487 0.81401 0.16063 0.0
H804 H 0.15881 0.57783 0.30145 0.0
H805 H 0.14285 0.63704 0.30335 0.0
H806 H 0.20066 0.6067 0.29132 0.0
H807 H 0.18437 0.66557 0.2927 0.0
H808 H 0.25083 0.70136 0.25192 0.0
H809 H 0.20939 0.67231 0.26263 0.0
H810 H 0.23867 0.64373 0.30471 0.0
H811 H 0.28015 0.6732 0.29449 0.0
C812 C 0.16422 0.59698 0.29987 0.0
C813 C 0.14736 0.60505 0.30313 0.0
C814 C 0.18816 0.61347 0.29399 0.0
C815 C 0.19566 0.63831 0.29109 0.0
C816 C 0.17894 0.64644 0.29451 0.0
C817 C 0.15513 0.63005 0.30057 0.0
C818 C 0.24851 0.6891 0.2636 0.0
C819 C 0.26891 0.68969 0.27232 0.0
C820 C 0.22475 0.67241 0.26968 0.0
C821 C 0.22085 0.65578 0.28449 0.0
C822 C 0.24115 0.65614 0.2931 0.0
C823 C 0.26491 0.67299 0.28717 0.0
H824 H 0.52493 0.14445 0.47161 0.0
H825 H 0.59916 0.15886 0.46499 0.0
H826 H 0.53738 0.1855 0.46026 0.0
H827 H 0.61194 0.20051 0.45455 0.0
H828 H 0.61999 0.26306 0.41614 0.0
H829 H 0.60782 0.22194 0.42758 0.0
H830 H 0.56042 0.22755 0.46943 0.0
H831 H 0.5723 0.26843 0.45775 0.0
C832 C 0.54394 0.15641 0.46777 0.0
C833 C 0.561 0.14827 0.46908 0.0
C834 C 0.55116 0.18009 0.46148 0.0
C835 C 0.57567 0.19634 0.45646 0.0
C836 C 0.59284 0.18836 0.45806 0.0
C837 C 0.58559 0.16459 0.46429 0.0
C838 C 0.60701 0.25549 0.42781 0.0
C839 C 0.59702 0.26893 0.43599 0.0
C840 C 0.60011 0.23197 0.43443 0.0
C841 C 0.58316 0.22142 0.44946 0.0
C842 C 0.5732 0.23492 0.45763 0.0
C843 C 0.57999 0.25836 0.45093 0.0
H844 H 0.46345 0.59913 0.63231 0.0
H845 H 0.40362 0.52431 0.63525 0.0
H846 H 0.43487 0.61238 0.62201 0.0
H847 H 0.37536 0.53757 0.62441 0.0
H848 H 0.33976 0.56837 0.58338 0.0
H849 H 0.36849 0.55555 0.59414 0.0
H850 H 0.39832 0.61412 0.63559 0.0
H851 H 0.36919 0.62655 0.62535 0.0
C852 C 0.44423 0.58553 0.63092 0.0
C853 C 0.43591 0.56061 0.63454 0.0
C854 C 0.4279 0.59313 0.62494 0.0
C855 C 0.40295 0.57596 0.62228 0.0
C856 C 0.39457 0.55113 0.62602 0.0
C857 C 0.41082 0.54356 0.63219 0.0
C858 C 0.35223 0.57837 0.59493 0.0
C859 C 0.35211 0.59853 0.60346 0.0
C860 C 0.36874 0.57106 0.60104 0.0
C861 C 0.38564 0.58388 0.61567 0.0
C862 C 0.38571 0.60411 0.6241 0.0
C863 C 0.36905 0.61127 0.61816 0.0
H864 H 0.88456 0.46703 0.79935 0.0
H865 H 0.90375 0.41031 0.79494 0.0
H866 H 0.8433 0.43835 0.78774 0.0
H867 H 0.86246 0.38158 0.78362 0.0
H868 H 0.79356 0.34509 0.74565 0.0
H869 H 0.83532 0.37483 0.75536 0.0
H870 H 0.80691 0.40043 0.80041 0.0
H871 H 0.76527 0.37045 0.79109 0.0
C872 C 0.87998 0.44848 0.7958 0.0
C873 C 0.8973 0.44085 0.79814 0.0
C874 C 0.85635 0.43204 0.7893 0.0
C875 C 0.84967 0.40773 0.78482 0.0
C876 C 0.86714 0.40025 0.78682 0.0
C877 C 0.89068 0.41661 0.79348 0.0
C878 C 0.7962 0.35691 0.75772 0.0
C879 C 0.77599 0.35536 0.76755 0.0
C880 C 0.82012 0.37399 0.76323 0.0
C881 C 0.82435 0.39 0.77859 0.0
C882 C 0.80421 0.3886 0.78832 0.0
C883 C 0.78033 0.37143 0.78292 0.0
H884 H 0.44235 0.8842 0.96649 0.0
H885 H 0.51884 0.90545 0.9627 0.0
H886 H 0.43097 0.8434 0.9547 0.0
H887 H 0.50761 0.86495 0.95052 0.0
H888 H 0.47796 0.78223 0.95061 0.0
H889 H 0.48974 0.82355 0.9611 0.0
H890 H 0.43145 0.82136 0.92699 0.0
H891 H 0.41941 0.77979 0.91685 0.0
C892 C 0.45672 0.88019 0.96294 0.0
C893 C 0.48146 0.89792 0.96564 0.0
C894 C 0.45023 0.85686 0.95612 0.0
C895 C 0.46838 0.85082 0.9517 0.0
C896 C 0.49314 0.86877 0.95413 0.0
C897 C 0.4996 0.892 0.96107 0.0
C898 C 0.46786 0.79071 0.9452 0.0
C899 C 0.44776 0.77778 0.93293 0.0
C900 C 0.4746 0.81441 0.95119 0.0
C901 C 0.46152 0.82581 0.94492 0.0
C902 C 0.44165 0.81299 0.93238 0.0
C903 C 0.4348 0.78921 0.9265 0.0
H904 H 0.57777 0.44107 0.13307 0.0
H905 H 0.63665 0.51638 0.13533 0.0
H906 H 0.60702 0.4283 0.12356 0.0
H907 H 0.66558 0.50361 0.12534 0.0
H908 H 0.70271 0.47354 0.08556 0.0
H909 H 0.67325 0.48564 0.09569 0.0
H910 H 0.64376 0.42737 0.13742 0.0
H911 H 0.6736 0.4156 0.12775 0.0
C912 C 0.59692 0.45487 0.13169 0.0
C913 C 0.60479 0.47978 0.13486 0.0
C914 C 0.61364 0.44756 0.12618 0.0
C915 C 0.63852 0.465 0.12358 0.0
C916 C 0.64643 0.48982 0.12692 0.0
C917 C 0.62981 0.49711 0.13259 0.0
C918 C 0.69017 0.46346 0.09705 0.0
C919 C 0.69061 0.4436 0.10584 0.0
C920 C 0.67324 0.47036 0.1028 0.0
C921 C 0.65623 0.45744 0.11734 0.0
C922 C 0.65646 0.43746 0.12601 0.0
C923 C 0.67354 0.4307 0.1204 0.0
H924 H 0.429 0.88358 0.49697 0.0
H925 H 0.45055 0.90678 0.55532 0.0
H926 H 0.39988 0.84247 0.50807 0.0
H927 H 0.42207 0.8653 0.56639 0.0
H928 H 0.34827 0.79607 0.57977 0.0
H929 H 0.37803 0.83738 0.56915 0.0
H930 H 0.39863 0.80695 0.52217 0.0
H931 H 0.36825 0.76583 0.53226 0.0
C932 C 0.42758 0.87987 0.51217 0.0
C933 C 0.44204 0.89849 0.52526 0.0
C934 C 0.41106 0.85623 0.51853 0.0
C935 C 0.40864 0.85058 0.53813 0.0
C936 C 0.4233 0.86911 0.55122 0.0
C937 C 0.43984 0.8928 0.54485 0.0
C938 C 0.35902 0.79823 0.56709 0.0
C939 C 0.35587 0.77763 0.55688 0.0
C940 C 0.37628 0.82189 0.56114 0.0
C941 C 0.39072 0.82547 0.54481 0.0
C942 C 0.38763 0.80486 0.53468 0.0
C943 C 0.3704 0.78126 0.54061 0.0
H944 H 0.5663 0.45053 0.72206 0.0
H945 H 0.56191 0.42236 0.66498 0.0
H946 H 0.57756 0.42125 0.73436 0.0
H947 H 0.57259 0.39277 0.67741 0.0
H948 H 0.56465 0.32602 0.70981 0.0
H949 H 0.55325 0.35575 0.69873 0.0
H950 H 0.61221 0.41231 0.73191 0.0
H951 H 0.62343 0.38249 0.7432 0.0
C952 C 0.56798 0.43831 0.71209 0.0
C953 C 0.56312 0.43879 0.69252 0.0
C954 C 0.57433 0.42147 0.71917 0.0
C955 C 0.57575 0.40462 0.70687 0.0
C956 C 0.57119 0.40526 0.68729 0.0
C957 C 0.56505 0.42221 0.68018 0.0
C958 C 0.57495 0.34472 0.71494 0.0
C959 C 0.59493 0.35196 0.72736 0.0
C960 C 0.56859 0.36178 0.70844 0.0
C961 C 0.58195 0.38637 0.71436 0.0
C962 C 0.60153 0.39346 0.72717 0.0
C963 C 0.60804 0.37645 0.73353 0.0
H964 H 0.15722 0.60197 0.85841 0.0
H965 H 0.14132 0.52682 0.85628 0.0
H966 H 0.19913 0.61496 0.8684 0.0
H967 H 0.18288 0.53982 0.86683 0.0
H968 H 0.24966 0.57053 0.9073 0.0
H969 H 0.20812 0.5582 0.89689 0.0
H970 H 0.23703 0.61585 0.85465 0.0
H971 H 0.27861 0.62778 0.86455 0.0
C972 C 0.16265 0.58824 0.85992 0.0
C973 C 0.14579 0.56331 0.85663 0.0
C974 C 0.18662 0.59569 0.86572 0.0
C975 C 0.19415 0.57836 0.86852 0.0
C976 C 0.17743 0.55351 0.8651 0.0
C977 C 0.15359 0.54609 0.85911 0.0
C978 C 0.24724 0.58043 0.89565 0.0
C979 C 0.26757 0.60016 0.88678 0.0
C980 C 0.22343 0.57341 0.88975 0.0
C981 C 0.2194 0.58609 0.87498 0.0
C982 C 0.23962 0.60595 0.86623 0.0
C983 C 0.26344 0.61281 0.87198 0.0
H984 H 0.63774 0.14103 0.02287 0.0
H985 H 0.57921 0.1579 0.02536 0.0
H986 H 0.66676 0.18236 0.03322 0.0
H987 H 0.60862 0.19987 0.03453 0.0
H988 H 0.66269 0.26445 0.07127 0.0
H989 H 0.63322 0.22298 0.06089 0.0
H990 H 0.68768 0.22358 0.02296 0.0
H991 H 0.71725 0.26473 0.03382 0.0
C992 C 0.63103 0.15357 0.0256 0.0
C993 C 0.60604 0.146 0.02344 0.0
C994 C 0.64779 0.17745 0.03127 0.0
C995 C 0.6401 0.19454 0.03473 0.0
C996 C 0.61517 0.18712 0.03226 0.0
C997 C 0.59833 0.16312 0.02673 0.0
C998 C 0.66828 0.25567 0.06069 0.0
C999 C 0.69227 0.26775 0.0534 0.0
C1000 C 0.65138 0.23196 0.05466 0.0
C1001 C 0.65801 0.21988 0.04105 0.0
C1002 C 0.68203 0.2321 0.03371 0.0
C1003 C 0.69899 0.2557 0.0399 0.0
H1004 H 0.4757 0.59187 0.22063 0.0
H1005 H 0.47921 0.61843 0.16309 0.0
H1006 H 0.46465 0.62151 0.23244 0.0
H1007 H 0.4687 0.64835 0.17501 0.0
H1008 H 0.47718 0.71603 0.2063 0.0
H1009 H 0.48823 0.68594 0.19554 0.0
H1010 H 0.43011 0.63043 0.23002 0.0
H1011 H 0.41929 0.66063 0.24102 0.0
C1012 C 0.47386 0.60382 0.21047 0.0
C1013 C 0.47841 0.60279 0.1909 0.0
C1014 C 0.46764 0.62086 0.21726 0.0
C1015 C 0.466 0.63735 0.20466 0.0
C1016 C 0.47026 0.63615 0.1851 0.0
C1017 C 0.47629 0.61901 0.17828 0.0
C1018 C 0.46698 0.69748 0.21176 0.0
C1019 C 0.44737 0.69066 0.22448 0.0
C1020 C 0.47313 0.68021 0.20545 0.0
C1021 C 0.45993 0.65582 0.21185 0.0
C1022 C 0.44068 0.64912 0.22491 0.0
C1023 C 0.43438 0.66635 0.2311 0.0
H1024 H 0.88306 0.47782 0.33081 0.0
H1025 H 0.90518 0.47305 0.38841 0.0
H1026 H 0.84245 0.46705 0.34245 0.0
H1027 H 0.86427 0.46167 0.39991 0.0
H1028 H 0.77933 0.41663 0.4074 0.0
H1029 H 0.82044 0.42719 0.39674 0.0
H1030 H 0.82477 0.48686 0.36332 0.0
H1031 H 0.78361 0.47614 0.37377 0.0
C1032 C 0.87932 0.47455 0.34596 0.0
C1033 C 0.89749 0.47647 0.35868 0.0
C1034 C 0.85603 0.46835 0.35261 0.0
C1035 C 0.85028 0.4637 0.3721 0.0
C1036 C 0.86817 0.46499 0.38479 0.0
C1037 C 0.89156 0.47141 0.37816 0.0
C1038 C 0.78911 0.43201 0.3978 0.0
C1039 C 0.77828 0.44555 0.39139 0.0
C1040 C 0.81266 0.43814 0.39181 0.0
C1041 C 0.82572 0.45775 0.37913 0.0
C1042 C 0.81501 0.47148 0.37293 0.0
C1043 C 0.79158 0.46551 0.37907 0.0
H1044 H 0.07312 0.53705 0.43038 0.0
H1045 H 0.135 0.58725 0.396 0.0
H1046 H 0.09962 0.54795 0.45836 0.0
H1047 H 0.16137 0.59876 0.42414 0.0
H1048 H 0.20579 0.59298 0.47363 0.0
H1049 H 0.17905 0.58118 0.44575 0.0
H1050 H 0.12267 0.58249 0.47995 0.0
H1051 H 0.14943 0.5944 0.50783 0.0
C1052 C 0.09239 0.5504 0.42879 0.0
C1053 C 0.10196 0.56123 0.41094 0.0
C1054 C 0.10753 0.55683 0.44488 0.0
C1055 C 0.13262 0.57421 0.4435 0.0
C1056 C 0.14218 0.5851 0.42566 0.0
C1057 C 0.12701 0.57872 0.40957 0.0
C1058 C 0.18774 0.59088 0.47519 0.0
C1059 C 0.17979 0.59468 0.49298 0.0
C1060 C 0.17242 0.58414 0.4592 0.0
C1061 C 0.14876 0.58098 0.4606 0.0
C1062 C 0.14068 0.58447 0.47843 0.0
C1063 C 0.15601 0.59125 0.49443 0.0
H1064 H 0.56847 0.13677 0.56199 0.0
H1065 H 0.55787 0.07526 0.59637 0.0
H1066 H 0.58377 0.16334 0.58996 0.0
H1067 H 0.57311 0.10179 0.62435 0.0
H1068 H 0.62542 0.16223 0.66549 0.0
H1069 H 0.61054 0.13561 0.63748 0.0
H1070 H 0.5693 0.17028 0.62012 0.0
H1071 H 0.58419 0.19686 0.64803 0.0
C1072 C 0.56921 0.12888 0.57555 0.0
C1073 C 0.56195 0.1039 0.57694 0.0
C1074 C 0.57798 0.1441 0.59159 0.0
C1075 C 0.57967 0.1347 0.60941 0.0
C1076 C 0.57242 0.10972 0.61078 0.0
C1077 C 0.56366 0.0945 0.59475 0.0
C1078 C 0.61305 0.16404 0.65575 0.0
C1079 C 0.6061 0.18176 0.65895 0.0
C1080 C 0.6045 0.14878 0.6397 0.0
C1081 C 0.58878 0.15086 0.62651 0.0
C1082 C 0.58175 0.16849 0.62979 0.0
C1083 C 0.59029 0.18373 0.6458 0.0
H1084 H 0.50613 0.55695 0.7619 0.0
H1085 H 0.45628 0.56936 0.72768 0.0
H1086 H 0.49634 0.57369 0.78977 0.0
H1087 H 0.44591 0.58541 0.75571 0.0
H1088 H 0.45392 0.63717 0.80463 0.0
H1089 H 0.46487 0.62127 0.77687 0.0
H1090 H 0.46208 0.56321 0.81156 0.0
H1091 H 0.45098 0.57899 0.8393 0.0
C1092 C 0.4931 0.56329 0.76032 0.0
C1093 C 0.48203 0.56189 0.74256 0.0
C1094 C 0.48731 0.57265 0.77634 0.0
C1095 C 0.47037 0.58091 0.77496 0.0
C1096 C 0.45924 0.57945 0.7572 0.0
C1097 C 0.46497 0.57 0.74119 0.0
C1098 C 0.45553 0.62094 0.80632 0.0
C1099 C 0.45153 0.60934 0.8242 0.0
C1100 C 0.46178 0.61182 0.7904 0.0
C1101 C 0.46425 0.59092 0.79198 0.0
C1102 C 0.46062 0.57953 0.80991 0.0
C1103 C 0.45431 0.58862 0.82583 0.0
H1104 H 0.90632 0.46702 0.89504 0.0
H1105 H 0.9711 0.50022 0.93047 0.0
H1106 H 0.88069 0.4576 0.92342 0.0
H1107 H 0.94559 0.49129 0.95886 0.0
H1108 H 0.89126 0.44692 0.00641 0.0
H1109 H 0.91758 0.45788 0.97835 0.0
H1110 H 0.86897 0.476 0.94798 0.0
H1111 H 0.84243 0.46452 0.97598 0.0
C1112 C 0.91507 0.47251 0.9089 0.0
C1113 C 0.94071 0.48428 0.91054 0.0
C1114 C 0.90041 0.4672 0.92518 0.0
C1115 C 0.91104 0.4737 0.94348 0.0
C1116 C 0.93673 0.48564 0.94506 0.0
C1117 C 0.95137 0.49079 0.92879 0.0
C1118 C 0.88638 0.45354 0.99381 0.0
C1119 C 0.86477 0.45484 0.99339 0.0
C1120 C 0.90147 0.45984 0.97771 0.0
C1121 C 0.89539 0.46776 0.96083 0.0
C1122 C 0.87399 0.46953 0.96059 0.0
C1123 C 0.85882 0.46306 0.97665 0.0
H1124 H 0.44339 0.93522 0.07608 0.0
H1125 H 0.51392 0.94083 0.08496 0.0
H1126 H 0.42751 0.90925 0.10433 0.0
H1127 H 0.49811 0.91533 0.11343 0.0
H1128 H 0.46821 0.89076 0.1741 0.0
H1129 H 0.48334 0.91754 0.14616 0.0
H1130 H 0.41809 0.86747 0.11495 0.0
H1131 H 0.40279 0.84086 0.14299 0.0
C1132 C 0.45547 0.93079 0.08394 0.0
C1133 C 0.47996 0.94014 0.07818 0.0
C1134 C 0.44637 0.91597 0.10017 0.0
C1135 C 0.46158 0.91032 0.11112 0.0
C1136 C 0.48605 0.91968 0.10543 0.0
C1137 C 0.49511 0.93433 0.08912 0.0
C1138 C 0.45697 0.88564 0.16135 0.0
C1139 C 0.43431 0.86372 0.16074 0.0
C1140 C 0.46574 0.90083 0.1453 0.0
C1141 C 0.45194 0.89455 0.12834 0.0
C1142 C 0.42906 0.87287 0.12785 0.0
C1143 C 0.42039 0.85756 0.14385 0.0
H1144 H 0.58755 0.47407 0.22609 0.0
H1145 H 0.53874 0.48656 0.26153 0.0
H1146 H 0.59932 0.45881 0.25381 0.0
H1147 H 0.5506 0.47146 0.28927 0.0
H1148 H 0.55869 0.41937 0.33045 0.0
H1149 H 0.54655 0.43415 0.30261 0.0
H1150 H 0.62181 0.47295 0.28342 0.0
H1151 H 0.63386 0.45806 0.31114 0.0
C1152 C 0.57951 0.47377 0.23984 0.0
C1153 C 0.5622 0.48152 0.2416 0.0
C1154 C 0.58625 0.46502 0.25574 0.0
C1155 C 0.5759 0.46388 0.27379 0.0
C1156 C 0.55863 0.47169 0.27554 0.0
C1157 C 0.55185 0.48039 0.25964 0.0
C1158 C 0.57264 0.43116 0.32033 0.0
C1159 C 0.59722 0.43745 0.32298 0.0
C1160 C 0.5657 0.43967 0.30438 0.0
C1161 C 0.5832 0.45472 0.29074 0.0
C1162 C 0.60778 0.46104 0.29345 0.0
C1163 C 0.6147 0.4525 0.30935 0.0
H1164 H 0.44746 0.94007 0.4105 0.0
H1165 H 0.51664 0.94169 0.41509 0.0
H1166 H 0.43716 0.91391 0.38242 0.0
H1167 H 0.50586 0.91464 0.38746 0.0
H1168 H 0.48893 0.88634 0.32577 0.0
H1169 H 0.50007 0.91408 0.35305 0.0
H1170 H 0.426 0.87235 0.37445 0.0
H1171 H 0.41465 0.84535 0.34687 0.0
C1172 C 0.4605 0.93489 0.4055 0.0
C1173 C 0.48288 0.94298 0.41507 0.0
C1174 C 0.45447 0.91965 0.38952 0.0
C1175 C 0.47064 0.91209 0.38272 0.0
C1176 C 0.49309 0.92029 0.39221 0.0
C1177 C 0.49913 0.93555 0.4082 0.0
C1178 C 0.47499 0.88324 0.33622 0.0
C1179 C 0.45092 0.86357 0.33416 0.0
C1180 C 0.48144 0.89898 0.35196 0.0
C1181 C 0.46393 0.89544 0.36595 0.0
C1182 C 0.43987 0.87579 0.36385 0.0
C1183 C 0.43344 0.86009 0.34815 0.0
H1184 H 0.5804 0.46609 0.59586 0.0
H1185 H 0.54586 0.49627 0.56037 0.0
H1186 H 0.59695 0.45717 0.56745 0.0
H1187 H 0.56267 0.48769 0.53195 0.0
H1188 H 0.5745 0.44396 0.48482 0.0
H1189 H 0.55844 0.45407 0.51291 0.0
H1190 H 0.62673 0.47692 0.54253 0.0
H1191 H 0.64261 0.46646 0.51449 0.0
C1192 C 0.57653 0.47101 0.58199 0.0
C1193 C 0.56179 0.48183 0.58036 0.0
C1194 C 0.58607 0.46597 0.56569 0.0
C1195 C 0.58119 0.47175 0.54738 0.0
C1196 C 0.56648 0.48264 0.54579 0.0
C1197 C 0.55685 0.48757 0.56208 0.0
C1198 C 0.58618 0.45143 0.49726 0.0
C1199 C 0.60982 0.45439 0.49745 0.0
C1200 C 0.57698 0.45723 0.51337 0.0
C1201 C 0.59125 0.46624 0.53004 0.0
C1202 C 0.61506 0.4696 0.53008 0.0
C1203 C 0.62421 0.46368 0.514 0.0
H1204 H 0.10828 0.60073 0.75129 0.0
H1205 H 0.10062 0.52934 0.74254 0.0
H1206 H 0.13494 0.61626 0.7234 0.0
H1207 H 0.12739 0.54493 0.71471 0.0
H1208 H 0.19707 0.58855 0.67912 0.0
H1209 H 0.17029 0.57327 0.70691 0.0
H1210 H 0.13344 0.61197 0.68847 0.0
H1211 H 0.16082 0.62794 0.66092 0.0
C1212 C 0.11212 0.58829 0.74333 0.0
C1213 C 0.1023 0.56377 0.74917 0.0
C1214 C 0.1274 0.5972 0.72734 0.0
C1215 C 0.13328 0.58184 0.71682 0.0
C1216 C 0.1235 0.55734 0.72266 0.0
C1217 C 0.10818 0.54841 0.73864 0.0
C1218 C 0.18343 0.59402 0.68109 0.0
C1219 C 0.18118 0.60959 0.66786 0.0
C1220 C 0.16788 0.58501 0.6969 0.0
C1221 C 0.14971 0.59137 0.6999 0.0
C1222 C 0.14741 0.60692 0.68667 0.0
C1223 C 0.16293 0.61587 0.67079 0.0
H1224 H 0.59446 0.09965 0.91006 0.0
H1225 H 0.53139 0.10848 0.91853 0.0
H1226 H 0.60595 0.12616 0.88205 0.0
H1227 H 0.54284 0.13491 0.89048 0.0
H1228 H 0.55721 0.16033 0.82797 0.0
H1229 H 0.54551 0.13311 0.85564 0.0
H1230 H 0.62113 0.16899 0.87386 0.0
H1231 H 0.63291 0.19559 0.84593 0.0
C1232 C 0.58317 0.10742 0.90606 0.0
C1233 C 0.56201 0.10194 0.91656 0.0
C1234 C 0.58973 0.12259 0.88998 0.0
C1235 C 0.57529 0.13263 0.88401 0.0
C1236 C 0.55415 0.12716 0.89451 0.0
C1237 C 0.5476 0.11202 0.9106 0.0
C1238 C 0.57134 0.16224 0.8378 0.0
C1239 C 0.59597 0.18017 0.83477 0.0
C1240 C 0.56461 0.14682 0.85376 0.0
C1241 C 0.58238 0.14891 0.86698 0.0
C1242 C 0.60702 0.16674 0.86386 0.0
C1243 C 0.61373 0.18218 0.84797 0.0
H1244 H 0.46229 0.57713 0.09567 0.0
H1245 H 0.49207 0.54273 0.05968 0.0
H1246 H 0.44651 0.5875 0.06752 0.0
H1247 H 0.47582 0.55253 0.03151 0.0
H1248 H 0.46687 0.59775 0.98426 0.0
H1249 H 0.48194 0.58617 0.01217 0.0
H1250 H 0.41623 0.5703 0.0431 0.0
H1251 H 0.40151 0.58247 0.01527 0.0
C1252 C 0.46523 0.57157 0.08173 0.0
C1253 C 0.47847 0.55919 0.07987 0.0
C1254 C 0.45611 0.57743 0.06558 0.0
C1255 C 0.45984 0.57085 0.04718 0.0
C1256 C 0.47295 0.55827 0.04539 0.0
C1257 C 0.48224 0.55261 0.06153 0.0
C1258 C 0.45555 0.59153 0.99697 0.0
C1259 C 0.43302 0.59104 0.99758 0.0
C1260 C 0.46416 0.58485 0.01298 0.0
C1261 C 0.45035 0.57734 0.02996 0.0
C1262 C 0.42759 0.57644 0.03042 0.0
C1263 C 0.41908 0.58331 0.01445 0.0
H1264 H 0.90833 0.46092 0.26372 0.0
H1265 H 0.97278 0.49305 0.22795 0.0
H1266 H 0.88246 0.44485 0.23546 0.0
H1267 H 0.94701 0.47659 0.19965 0.0
H1268 H 0.89206 0.46646 0.15254 0.0
H1269 H 0.91866 0.48184 0.18046 0.0
H1270 H 0.87065 0.41487 0.21078 0.0
H1271 H 0.84383 0.39979 0.18294 0.0
C1272 C 0.91696 0.46433 0.24981 0.0
C1273 C 0.94258 0.47829 0.24805 0.0
C1274 C 0.90215 0.45505 0.23359 0.0
C1275 C 0.91261 0.45936 0.21523 0.0
C1276 C 0.93828 0.47323 0.21352 0.0
C1277 C 0.95307 0.48265 0.22973 0.0
C1278 C 0.88737 0.45492 0.1651 0.0
C1279 C 0.86584 0.43193 0.16555 0.0
C1280 C 0.90262 0.46372 0.18112 0.0
C1281 C 0.89679 0.44965 0.19795 0.0
C1282 C 0.87548 0.42642 0.19822 0.0
C1283 C 0.86015 0.41771 0.18225 0.0
loop_
_geom_bond_atom_site_label_1
_geom_bond_atom_site_label_2
_geom_bond_distance
_geom_bond_site_symmetry_2
_ccdc_geom_bond_type
C0 C1 1.384 . S
C0 C2 1.384 . S
C0 H28 0.931 . S
C1 C0 1.384 . S
C1 C4 1.382 . S
C2 C0 1.384 . S
C2 C3 1.381 . S
C2 H29 0.930 . S
C3 C2 1.381 . S
C3 C5 1.381 . S
C3 C6 1.487 . S
C4 C1 1.382 . S
C4 C5 1.387 . S
C4 H30 0.930 . S
C5 C3 1.381 . S
C5 C4 1.387 . S
C5 H31 0.931 . S
C6 C3 1.487 . S
C6 C13 1.399 1_655 S
C6 N44 1.343 1_655 S
C7 C8 1.384 . S
C7 C9 1.384 . S
C7 H32 0.931 . S
C8 C7 1.384 . S
C8 C11 1.382 . S
C9 C7 1.384 . S
C9 C10 1.381 . S
C9 H33 0.930 . S
C10 C9 1.381 . S
C10 C12 1.381 . S
C10 C13 1.487 1_655 S
C11 C8 1.382 . S
C11 C12 1.387 . S
C11 H34 0.930 . S
C12 C10 1.381 . S
C12 C11 1.387 . S
C12 H35 0.931 1_655 S
C13 C6 1.399 1_455 S
C13 C10 1.487 1_455 S
C13 N45 1.343 . S
C14 C15 1.384 . S
C14 C16 1.384 . S
C14 H36 0.931 . S
C15 C14 1.384 . S
C15 C18 1.382 . S
C16 C14 1.384 . S
C16 C17 1.381 . S
C16 H37 0.930 . S
C17 C16 1.381 . S
C17 C19 1.381 . S
C17 C20 1.487 . S
C18 C15 1.382 . S
C18 C19 1.387 . S
C18 H38 0.930 . S
C19 C17 1.381 . S
C19 C18 1.387 . S
C19 H39 0.931 . S
C20 C17 1.487 . S
C20 C27 1.399 . S
C20 N45 1.343 . S
C21 C22 1.384 . S
C21 C23 1.384 . S
C21 H40 0.931 . S
C22 C21 1.384 . S
C22 C25 1.382 . S
C23 C21 1.384 . S
C23 C24 1.381 . S
C23 H41 0.930 . S
C24 C23 1.381 . S
C24 C26 1.381 . S
C24 C27 1.487 . S
C25 C22 1.382 . S
C25 C26 1.387 . S
C25 H42 0.930 . S
C26 C24 1.381 . S
C26 C25 1.387 . S
C26 H43 0.931 . S
C27 C20 1.399 . S
C27 C24 1.487 . S
C27 N44 1.343 . S
H28 C0 0.931 . S
H29 C2 0.930 . S
H30 C4 0.930 . S
H31 C5 0.931 . S
H32 C7 0.931 . S
H33 C9 0.930 . S
H34 C11 0.930 . S
H35 C12 0.931 1_455 S
H36 C14 0.931 . S
H37 C16 0.930 . S
H38 C18 0.930 . S
H39 C19 0.931 . S
H40 C21 0.931 . S
H41 C23 0.930 . S
H42 C25 0.930 . S
H43 C26 0.931 . S
N44 C6 1.343 1_455 S
N44 C27 1.343 . S
N45 C13 1.343 . S
N45 C20 1.343 . S
C46 C47 1.384 . S
C46 C48 1.384 . S
C46 H74 0.931 . S
C47 C46 1.384 . S
C47 C50 1.382 . S
C48 C46 1.384 . S
C48 C49 1.381 . S
C48 H75 0.930 . S
C49 C48 1.381 . S
C49 C51 1.381 . S
C49 C52 1.487 . S
C50 C47 1.382 . S
C50 C51 1.387 . S
C50 H76 0.930 . S
C51 C49 1.381 . S
C51 C50 1.387 . S
C51 H77 0.931 . S
C52 C49 1.487 . S
C52 C59 1.399 1_565 S
C52 N90 1.343 1_565 S
C53 C54 1.384 . S
C53 C55 1.384 . S
C53 H78 0.931 . S
C54 C53 1.384 . S
C54 C57 1.382 . S
C55 C53 1.384 . S
C55 C56 1.381 . S
C55 H79 0.930 . S
C56 C55 1.381 . S
C56 C58 1.381 . S
C56 C59 1.487 1_565 S
C57 C54 1.382 . S
C57 C58 1.387 . S
C57 H80 0.930 . S
C58 C56 1.381 . S
C58 C57 1.387 . S
C58 H81 0.931 1_565 S
C59 C52 1.399 1_545 S
C59 C56 1.487 1_545 S
C59 N91 1.343 . S
C60 C61 1.384 . S
C60 C62 1.384 . S
C60 H82 0.931 . S
C61 C60 1.384 . S
C61 C64 1.382 . S
C62 C60 1.384 . S
C62 C63 1.381 . S
C62 H83 0.930 . S
C63 C62 1.381 . S
C63 C65 1.381 . S
C63 C66 1.487 . S
C64 C61 1.382 . S
C64 C65 1.387 . S
C64 H84 0.930 . S
C65 C63 1.381 . S
C65 C64 1.387 . S
C65 H85 0.931 . S
C66 C63 1.487 . S
C66 C73 1.399 . S
C66 N91 1.343 . S
C67 C68 1.384 . S
C67 C69 1.384 . S
C67 H86 0.931 . S
C68 C67 1.384 . S
C68 C71 1.382 . S
C69 C67 1.384 . S
C69 C70 1.381 . S
C69 H87 0.930 . S
C70 C69 1.381 . S
C70 C72 1.381 . S
C70 C73 1.487 . S
C71 C68 1.382 . S
C71 C72 1.387 . S
C71 H88 0.930 . S
C72 C70 1.381 . S
C72 C71 1.387 . S
C72 H89 0.931 . S
C73 C66 1.399 . S
C73 C70 1.487 . S
C73 N90 1.343 . S
H74 C46 0.931 . S
H75 C48 0.930 . S
H76 C50 0.930 . S
H77 C51 0.931 . S
H78 C53 0.931 . S
H79 C55 0.930 . S
H80 C57 0.930 . S
H81 C58 0.931 1_545 S
H82 C60 0.931 . S
H83 C62 0.930 . S
H84 C64 0.930 . S
H85 C65 0.931 . S
H86 C67 0.931 . S
H87 C69 0.930 . S
H88 C71 0.930 . S
H89 C72 0.931 . S
N90 C52 1.343 1_545 S
N90 C73 1.343 . S
N91 C59 1.343 . S
N91 C66 1.343 . S
C92 C93 1.384 . S
C92 C94 1.384 . S
C92 H120 0.931 . S
C93 C92 1.384 . S
C93 C96 1.382 . S
C94 C92 1.384 . S
C94 C95 1.381 . S
C94 H121 0.930 . S
C95 C94 1.381 . S
C95 C97 1.381 . S
C95 C98 1.487 . S
C96 C93 1.382 . S
C96 C97 1.387 . S
C96 H122 0.930 . S
C97 C95 1.381 . S
C97 C96 1.387 . S
C97 H123 0.931 . S
C98 C95 1.487 . S
C98 C105 1.399 . S
C98 N136 1.343 . S
C99 C100 1.384 . S
C99 C101 1.384 . S
C99 H124 0.931 . S
C100 C99 1.384 . S
C100 C103 1.382 . S
C101 C99 1.384 . S
C101 C102 1.381 . S
C101 H125 0.930 . S
C102 C101 1.381 . S
C102 C104 1.381 . S
C102 C105 1.487 . S
C103 C100 1.382 . S
C103 C104 1.387 . S
C103 H126 0.930 . S
C104 C102 1.381 . S
C104 C103 1.387 . S
C104 H127 0.931 . S
C105 C98 1.399 . S
C105 C102 1.487 . S
C105 N137 1.343 . S
C106 C107 1.384 . S
C106 C108 1.384 . S
C106 H128 0.931 . S
C107 C106 1.384 . S
C107 C110 1.382 . S
C108 C106 1.384 . S
C108 C109 1.381 . S
C108 H129 0.930 . S
C109 C108 1.381 . S
C109 C111 1.381 . S
C109 C112 1.487 . S
C110 C107 1.382 . S
C110 C111 1.387 . S
C110 H130 0.930 . S
C111 C109 1.381 . S
C111 C110 1.387 . S
C111 H131 0.931 . S
C112 C109 1.487 . S
C112 C119 1.399 . S
C112 N137 1.343 . S
C113 C114 1.384 . S
C113 C115 1.384 . S
C113 H132 0.931 . S
C114 C113 1.384 . S
C114 C117 1.382 . S
C115 C113 1.384 . S
C115 C116 1.381 . S
C115 H133 0.930 . S
C116 C115 1.381 . S
C116 C118 1.381 . S
C116 C119 1.487 . S
C117 C114 1.382 . S
C117 C118 1.387 . S
C117 H134 0.930 . S
C118 C116 1.381 . S
C118 C117 1.387 . S
C118 H135 0.931 . S
C119 C112 1.399 . S
C119 C116 1.487 . S
C119 N136 1.343 . S
H120 C92 0.931 . S
H121 C94 0.930 . S
H122 C96 0.930 . S
H123 C97 0.931 . S
H124 C99 0.931 . S
H125 C101 0.930 . S
H126 C103 0.930 . S
H127 C104 0.931 . S
H128 C106 0.931 . S
H129 C108 0.930 . S
H130 C110 0.930 . S
H131 C111 0.931 . S
H132 C113 0.931 . S
H133 C115 0.930 . S
H134 C117 0.930 . S
H135 C118 0.931 . S
N136 C98 1.343 . S
N136 C119 1.343 . S
N137 C105 1.343 . S
N137 C112 1.343 . S
C138 C139 1.384 . S
C138 C140 1.384 . S
C138 H166 0.931 . S
C139 C138 1.384 . S
C139 C142 1.382 . S
C140 C138 1.384 . S
C140 C141 1.381 . S
C140 H167 0.930 . S
C141 C140 1.381 . S
C141 C143 1.381 . S
C141 C144 1.487 . S
C142 C139 1.382 . S
C142 C143 1.387 . S
C142 H168 0.930 . S
C143 C141 1.381 . S
C143 C142 1.387 . S
C143 H169 0.931 . S
C144 C141 1.487 . S
C144 C151 1.399 1_655 S
C144 N182 1.343 1_655 S
C145 C146 1.384 . S
C145 C147 1.384 . S
C145 H170 0.931 . S
C146 C145 1.384 . S
C146 C149 1.382 . S
C147 C145 1.384 . S
C147 C148 1.381 . S
C147 H171 0.930 . S
C148 C147 1.381 . S
C148 C150 1.381 . S
C148 C151 1.487 1_655 S
C149 C146 1.382 . S
C149 C150 1.387 . S
C149 H172 0.930 . S
C150 C148 1.381 . S
C150 C149 1.387 . S
C150 H173 0.931 1_655 S
C151 C144 1.399 1_455 S
C151 C148 1.487 1_455 S
C151 N183 1.343 . S
C152 C153 1.384 . S
C152 C154 1.384 . S
C152 H174 0.931 . S
C153 C152 1.384 . S
C153 C156 1.382 . S
C154 C152 1.384 . S
C154 C155 1.381 . S
C154 H175 0.930 . S
C155 C154 1.381 . S
C155 C157 1.381 . S
C155 C158 1.487 . S
C156 C153 1.382 . S
C156 C157 1.387 . S
C156 H176 0.930 . S
C157 C155 1.381 . S
C157 C156 1.387 . S
C157 H177 0.931 . S
C158 C155 1.487 . S
C158 C165 1.399 . S
C158 N183 1.343 . S
C159 C160 1.384 . S
C159 C161 1.384 . S
C159 H178 0.931 . S
C160 C159 1.384 . S
C160 C163 1.382 . S
C161 C159 1.384 . S
C161 C162 1.381 . S
C161 H179 0.930 . S
C162 C161 1.381 . S
C162 C164 1.381 . S
C162 C165 1.487 . S
C163 C160 1.382 . S
C163 C164 1.387 . S
C163 H180 0.930 . S
C164 C162 1.381 . S
C164 C163 1.387 . S
C164 H181 0.931 . S
C165 C158 1.399 . S
C165 C162 1.487 . S
C165 N182 1.343 . S
H166 C138 0.931 . S
H167 C140 0.930 . S
H168 C142 0.930 . S
H169 C143 0.931 . S
H170 C145 0.931 . S
H171 C147 0.930 . S
H172 C149 0.930 . S
H173 C150 0.931 1_455 S
H174 C152 0.931 . S
H175 C154 0.930 . S
H176 C156 0.930 . S
H177 C157 0.931 . S
H178 C159 0.931 . S
H179 C161 0.930 . S
H180 C163 0.930 . S
H181 C164 0.931 . S
N182 C144 1.343 1_455 S
N182 C165 1.343 . S
N183 C151 1.343 . S
N183 C158 1.343 . S
C184 C185 1.384 . S
C184 C186 1.384 . S
C184 H212 0.931 . S
C185 C184 1.384 . S
C185 C188 1.382 . S
C186 C184 1.384 . S
C186 C187 1.381 . S
C186 H213 0.930 1_556 S
C187 C186 1.381 . S
C187 C189 1.381 . S
C187 C190 1.487 . S
C188 C185 1.382 . S
C188 C189 1.387 . S
C188 H214 0.930 . S
C189 C187 1.381 . S
C189 C188 1.387 . S
C189 H215 0.931 . S
C190 C187 1.487 . S
C190 C197 1.399 1_566 S
C190 N228 1.343 1_565 S
C191 C192 1.384 . S
C191 C193 1.384 . S
C191 H216 0.931 . S
C192 C191 1.384 . S
C192 C195 1.382 . S
C193 C191 1.384 . S
C193 C194 1.381 . S
C193 H217 0.930 . S
C194 C193 1.381 . S
C194 C196 1.381 . S
C194 C197 1.487 1_565 S
C195 C192 1.382 . S
C195 C196 1.387 . S
C195 H218 0.930 . S
C196 C194 1.381 . S
C196 C195 1.387 . S
C196 H219 0.931 1_565 S
C197 C190 1.399 1_544 S
C197 C194 1.487 1_545 S
C197 N229 1.343 . S
C198 C199 1.384 . S
C198 C200 1.384 1_554 S
C198 H220 0.936 . S
C199 C198 1.384 . S
C199 C202 1.382 . S
C200 C198 1.384 1_556 S
C200 C201 1.381 1_556 S
C200 H221 0.930 . S
C201 C200 1.381 1_554 S
C201 C203 1.381 . S
C201 C204 1.473 1_554 S
C202 C199 1.382 . S
C202 C203 1.387 . S
C202 H222 0.930 . S
C203 C201 1.381 . S
C203 C202 1.387 . S
C203 H223 0.931 . S
C204 C201 1.473 1_556 S
C204 C211 1.449 . S
C204 N229 1.304 1_556 S
C205 C206 1.384 . S
C205 C207 1.384 . S
C205 H224 0.931 . S
C206 C205 1.384 . S
C206 C209 1.382 . S
C207 C205 1.384 . S
C207 C208 1.381 . S
C207 H225 0.930 . S
C208 C207 1.381 . S
C208 C210 1.381 . S
C208 C211 1.487 . S
C209 C206 1.382 . S
C209 C210 1.387 . S
C209 H226 0.930 . S
C210 C208 1.381 . S
C210 C209 1.387 . S
C210 H227 0.931 . S
C211 C204 1.449 . S
C211 C208 1.487 . S
C211 N228 1.343 . S
H212 C184 0.931 . S
H213 C186 0.930 1_554 S
H214 C188 0.930 . S
H215 C189 0.931 . S
H216 C191 0.931 . S
H217 C193 0.930 . S
H218 C195 0.930 . S
H219 C196 0.931 1_545 S
H220 C198 0.936 . S
H221 C200 0.930 . S
H222 C202 0.930 . S
H223 C203 0.931 . S
H224 C205 0.931 . S
H225 C207 0.930 . S
H226 C209 0.930 . S
H227 C210 0.931 . S
N228 C190 1.343 1_545 S
N228 C211 1.343 . S
N229 C197 1.343 . S
N229 C204 1.304 1_554 S
C230 C231 1.384 . S
C230 C232 1.384 . S
C230 H258 0.931 . S
C231 C230 1.384 . S
C231 C234 1.382 . S
C232 C230 1.384 . S
C232 C233 1.381 . S
C232 H259 0.930 . S
C233 C232 1.381 . S
C233 C235 1.381 . S
C233 C236 1.487 . S
C234 C231 1.382 . S
C234 C235 1.387 . S
C234 H260 0.930 . S
C235 C233 1.381 . S
C235 C234 1.387 . S
C235 H261 0.931 . S
C236 C233 1.487 . S
C236 C243 1.399 . S
C236 N274 1.343 . S
C237 C238 1.384 . S
C237 C239 1.384 . S
C237 H262 0.931 . S
C238 C237 1.384 . S
C238 C241 1.382 . S
C239 C237 1.384 . S
C239 C240 1.381 . S
C239 H263 0.930 . S
C240 C239 1.381 . S
C240 C242 1.381 . S
C240 C243 1.487 . S
C241 C238 1.382 . S
C241 C242 1.387 . S
C241 H264 0.930 . S
C242 C240 1.381 . S
C242 C241 1.387 . S
C242 H265 0.931 . S
C243 C236 1.399 . S
C243 C240 1.487 . S
C243 N275 1.343 . S
C244 C245 1.384 . S
C244 C246 1.384 . S
C244 H266 0.931 . S
C245 C244 1.384 . S
C245 C248 1.382 . S
C246 C244 1.384 . S
C246 C247 1.381 . S
C246 H267 0.930 . S
C247 C246 1.381 . S
C247 C249 1.381 . S
C247 C250 1.487 . S
C248 C245 1.382 . S
C248 C249 1.387 . S
C248 H268 0.930 . S
C249 C247 1.381 . S
C249 C248 1.387 . S
C249 H269 0.931 . S
C250 C247 1.487 . S
C250 C257 1.399 . S
C250 N275 1.343 . S
C251 C252 1.384 . S
C251 C253 1.384 . S
C251 H270 0.931 . S
C252 C251 1.384 . S
C252 C255 1.382 . S
C253 C251 1.384 . S
C253 C254 1.381 . S
C253 H271 0.930 . S
C254 C253 1.381 . S
C254 C256 1.381 . S
C254 C257 1.487 . S
C255 C252 1.382 . S
C255 C256 1.387 . S
C255 H272 0.930 . S
C256 C254 1.381 . S
C256 C255 1.387 . S
C256 H273 0.931 . S
C257 C250 1.399 . S
C257 C254 1.487 . S
C257 N274 1.343 . S
H258 C230 0.931 . S
H259 C232 0.930 . S
H260 C234 0.930 . S
H261 C235 0.931 . S
H262 C237 0.931 . S
H263 C239 0.930 . S
H264 C241 0.930 . S
H265 C242 0.931 . S
H266 C244 0.931 . S
H267 C246 0.930 . S
H268 C248 0.930 . S
H269 C249 0.931 . S
H270 C251 0.931 . S
H271 C253 0.930 . S
H272 C255 0.930 . S
H273 C256 0.931 . S
N274 C236 1.343 . S
N274 C257 1.343 . S
N275 C243 1.343 . S
N275 C250 1.343 . S
Li276 N293 1.990 . S
Li276 O336 1.956 . S
Li276 O337 1.970 . S
Li276 O338 1.961 . S
Li277 N301 1.990 . S
Li277 O336 1.970 . S
Li277 O337 1.956 . S
Li277 O339 1.961 . S
Li278 N323 1.990 . S
Li278 O336 1.961 . S
Li278 O338 1.956 . S
Li278 O339 1.970 . S
Li279 N329 1.990 . S
Li279 O337 1.961 . S
Li279 O338 1.970 . S
Li279 O339 1.956 . S
C280 C282 1.348 . S
C280 C283 1.356 . S
C280 O336 1.325 . S
N281 C284 1.314 . S
N281 C285 1.279 . S
C282 C280 1.348 . S
C282 C284 1.353 . S
C282 H340 0.929 . S
C283 C280 1.356 . S
C283 C285 1.358 . S
C283 H341 0.930 . S
C284 N281 1.314 . S
C284 C282 1.353 . S
C284 H342 0.930 . S
C285 N281 1.279 . S
C285 C283 1.358 . S
C285 H343 0.930 . S
C286 C289 1.348 . S
C286 C290 1.356 . S
C286 O337 1.325 . S
C287 N288 1.279 . S
C287 C290 1.358 . S
C287 H344 0.930 . S
N288 C287 1.279 . S
N288 C291 1.314 . S
C289 C286 1.348 . S
C289 C291 1.353 . S
C289 H345 0.929 . S
C290 C286 1.356 . S
C290 C287 1.358 . S
C290 H346 0.930 . S
C291 N288 1.314 . S
C291 C289 1.353 . S
C291 H347 0.930 . S
C292 N293 1.314 . S
C292 C297 1.353 . S
C292 H298 0.930 . S
N293 Li276 1.990 . S
N293 C292 1.314 . S
N293 C295 1.279 . S
C294 C295 1.358 . S
C294 C296 1.356 . S
C294 H348 0.930 . S
C295 N293 1.279 . S
C295 C294 1.358 . S
C295 H299 0.930 . S
C296 C294 1.356 . S
C296 C297 1.348 . S
C297 C292 1.353 . S
C297 C296 1.348 . S
C297 H349 0.929 . S
H298 C292 0.930 . S
H299 C295 0.930 . S
C300 N301 1.314 . S
C300 C302 1.353 . S
C300 H306 0.930 . S
N301 Li277 1.990 . S
N301 C300 1.314 . S
N301 C304 1.279 . S
C302 C300 1.353 . S
C302 C305 1.348 . S
C302 H350 0.929 . S
C303 C304 1.358 . S
C303 C305 1.356 . S
C303 H351 0.930 . S
C304 N301 1.279 . S
C304 C303 1.358 . S
C304 H307 0.930 . S
C305 C302 1.348 . S
C305 C303 1.356 . S
H306 C300 0.930 . S
H307 C304 0.930 . S
C308 C310 1.348 . S
C308 C311 1.356 . S
C308 O338 1.325 . S
N309 C312 1.314 . S
N309 C313 1.279 . S
C310 C308 1.348 . S
C310 C312 1.353 . S
C310 H352 0.929 . S
C311 C308 1.356 . S
C311 C313 1.358 . S
C311 H353 0.930 . S
C312 N309 1.314 . S
C312 C310 1.353 . S
C312 H354 0.930 . S
C313 N309 1.279 . S
C313 C311 1.358 . S
C313 H355 0.930 . S
C314 C315 1.348 . S
C314 C316 1.356 . S
C314 O339 1.325 . S
C315 C314 1.348 . S
C315 C317 1.353 . S
C315 H356 0.929 . S
C316 C314 1.356 . S
C316 C318 1.358 . S
C316 H357 0.930 . S
C317 C315 1.353 . S
C317 N319 1.314 . S
C317 H358 0.930 . S
C318 C316 1.358 . S
C318 N319 1.279 . S
C318 H359 0.930 . S
N319 C317 1.314 . S
N319 C318 1.279 . S
C320 C322 1.353 . S
C320 N323 1.314 . S
C320 H326 0.930 . S
C321 N323 1.279 . S
C321 C324 1.358 . S
C321 H327 0.930 . S
C322 C320 1.353 . S
C322 C325 1.348 . S
C322 H360 0.929 . S
N323 Li278 1.990 . S
N323 C320 1.314 . S
N323 C321 1.279 . S
C324 C321 1.358 . S
C324 C325 1.356 . S
C324 H361 0.930 . S
C325 C322 1.348 . S
C325 C324 1.356 . S
H326 C320 0.930 . S
H327 C321 0.930 . S
C328 N329 1.314 . S
C328 C330 1.353 . S
C328 H334 0.930 . S
N329 Li279 1.990 . S
N329 C328 1.314 . S
N329 C332 1.279 . S
C330 C328 1.353 . S
C330 C333 1.348 . S
C330 H362 0.929 . S
C331 C332 1.358 . S
C331 C333 1.356 . S
C331 H363 0.930 . S
C332 N329 1.279 . S
C332 C331 1.358 . S
C332 H335 0.930 . S
C333 C330 1.348 . S
C333 C331 1.356 . S
H334 C328 0.930 . S
H335 C332 0.930 . S
O336 Li276 1.956 . S
O336 Li277 1.970 . S
O336 Li278 1.961 . S
O336 C280 1.325 . S
O337 Li276 1.970 . S
O337 Li277 1.956 . S
O337 Li279 1.961 . S
O337 C286 1.325 . S
O338 Li276 1.961 . S
O338 Li278 1.956 . S
O338 Li279 1.970 . S
O338 C308 1.325 . S
O339 Li277 1.961 . S
O339 Li278 1.970 . S
O339 Li279 1.956 . S
O339 C314 1.325 . S
H340 C282 0.929 . S
H341 C283 0.930 . S
H342 C284 0.930 . S
H343 C285 0.930 . S
H344 C287 0.930 . S
H345 C289 0.929 . S
H346 C290 0.930 . S
H347 C291 0.930 . S
H348 C294 0.930 . S
H349 C297 0.929 . S
H350 C302 0.929 . S
H351 C303 0.930 . S
H352 C310 0.929 . S
H353 C311 0.930 . S
H354 C312 0.930 . S
H355 C313 0.930 . S
H356 C315 0.929 . S
H357 C316 0.930 . S
H358 C317 0.930 . S
H359 C318 0.930 . S
H360 C322 0.929 . S
H361 C324 0.930 . S
H362 C330 0.929 . S
H363 C331 0.930 . S
Li364 N381 1.990 . S
Li364 O424 1.956 . S
Li364 O425 1.970 . S
Li364 O426 1.961 . S
Li365 N389 1.990 . S
Li365 O424 1.970 . S
Li365 O425 1.956 . S
Li365 O427 1.961 . S
Li366 N411 1.990 . S
Li366 O424 1.961 . S
Li366 O426 1.956 . S
Li366 O427 1.970 . S
Li367 N417 1.990 . S
Li367 O425 1.961 . S
Li367 O426 1.970 . S
Li367 O427 1.956 . S
C368 C370 1.348 . S
C368 C371 1.356 . S
C368 O424 1.325 . S
N369 C372 1.314 . S
N369 C373 1.279 . S
C370 C368 1.348 . S
C370 C372 1.353 . S
C370 H428 0.929 . S
C371 C368 1.356 . S
C371 C373 1.358 . S
C371 H429 0.930 . S
C372 N369 1.314 . S
C372 C370 1.353 . S
C372 H430 0.930 . S
C373 N369 1.279 . S
C373 C371 1.358 . S
C373 H431 0.930 . S
C374 C377 1.348 . S
C374 C378 1.356 . S
C374 O425 1.325 . S
C375 N376 1.279 . S
C375 C378 1.358 . S
C375 H432 0.930 . S
N376 C375 1.279 . S
N376 C379 1.314 . S
C377 C374 1.348 . S
C377 C379 1.353 . S
C377 H433 0.929 . S
C378 C374 1.356 . S
C378 C375 1.358 . S
C378 H434 0.930 . S
C379 N376 1.314 . S
C379 C377 1.353 . S
C379 H435 0.930 . S
C380 N381 1.314 . S
C380 C385 1.353 . S
C380 H386 0.930 . S
N381 Li364 1.990 . S
N381 C380 1.314 . S
N381 C383 1.279 . S
C382 C383 1.358 . S
C382 C384 1.356 . S
C382 H436 0.930 . S
C383 N381 1.279 . S
C383 C382 1.358 . S
C383 H387 0.930 . S
C384 C382 1.356 . S
C384 C385 1.348 . S
C385 C380 1.353 . S
C385 C384 1.348 . S
C385 H437 0.929 . S
H386 C380 0.930 . S
H387 C383 0.930 . S
C388 N389 1.314 . S
C388 C390 1.353 . S
C388 H394 0.930 . S
N389 Li365 1.990 . S
N389 C388 1.314 . S
N389 C392 1.279 . S
C390 C388 1.353 . S
C390 C393 1.348 . S
C390 H438 0.929 . S
C391 C392 1.358 . S
C391 C393 1.356 . S
C391 H439 0.930 . S
C392 N389 1.279 . S
C392 C391 1.358 . S
C392 H395 0.930 . S
C393 C390 1.348 . S
C393 C391 1.356 . S
H394 C388 0.930 . S
H395 C392 0.930 . S
C396 C398 1.348 . S
C396 C399 1.356 . S
C396 O426 1.325 . S
N397 C400 1.314 . S
N397 C401 1.279 . S
C398 C396 1.348 . S
C398 C400 1.353 . S
C398 H440 0.929 . S
C399 C396 1.356 . S
C399 C401 1.358 . S
C399 H441 0.930 . S
C400 N397 1.314 . S
C400 C398 1.353 . S
C400 H442 0.930 . S
C401 N397 1.279 . S
C401 C399 1.358 . S
C401 H443 0.930 . S
C402 C403 1.348 . S
C402 C404 1.356 . S
C402 O427 1.325 . S
C403 C402 1.348 . S
C403 C405 1.353 . S
C403 H444 0.929 . S
C404 C402 1.356 . S
C404 C406 1.358 . S
C404 H445 0.930 . S
C405 C403 1.353 . S
C405 N407 1.314 . S
C405 H446 0.930 . S
C406 C404 1.358 . S
C406 N407 1.279 . S
C406 H447 0.930 . S
N407 C405 1.314 . S
N407 C406 1.279 . S
C408 C410 1.353 . S
C408 N411 1.314 . S
C408 H414 0.930 . S
C409 N411 1.279 . S
C409 C412 1.358 . S
C409 H415 0.930 . S
C410 C408 1.353 . S
C410 C413 1.348 . S
C410 H448 0.929 . S
N411 Li366 1.990 . S
N411 C408 1.314 . S
N411 C409 1.279 . S
C412 C409 1.358 . S
C412 C413 1.356 . S
C412 H449 0.930 . S
C413 C410 1.348 . S
C413 C412 1.356 . S
H414 C408 0.930 . S
H415 C409 0.930 . S
C416 N417 1.314 . S
C416 C418 1.353 . S
C416 H422 0.930 . S
N417 Li367 1.990 . S
N417 C416 1.314 . S
N417 C420 1.279 . S
C418 C416 1.353 . S
C418 C421 1.348 . S
C418 H450 0.929 . S
C419 C420 1.358 . S
C419 C421 1.356 . S
C419 H451 0.930 . S
C420 N417 1.279 . S
C420 C419 1.358 . S
C420 H423 0.930 . S
C421 C418 1.348 . S
C421 C419 1.356 . S
H422 C416 0.930 . S
H423 C420 0.930 . S
O424 Li364 1.956 . S
O424 Li365 1.970 . S
O424 Li366 1.961 . S
O424 C368 1.325 . S
O425 Li364 1.970 . S
O425 Li365 1.956 . S
O425 Li367 1.961 . S
O425 C374 1.325 . S
O426 Li364 1.961 . S
O426 Li366 1.956 . S
O426 Li367 1.970 . S
O426 C396 1.325 . S
O427 Li365 1.961 . S
O427 Li366 1.970 . S
O427 Li367 1.956 . S
O427 C402 1.325 . S
H428 C370 0.929 . S
H429 C371 0.930 . S
H430 C372 0.930 . S
H431 C373 0.930 . S
H432 C375 0.930 . S
H433 C377 0.929 . S
H434 C378 0.930 . S
H435 C379 0.930 . S
H436 C382 0.930 . S
H437 C385 0.929 . S
H438 C390 0.929 . S
H439 C391 0.930 . S
H440 C398 0.929 . S
H441 C399 0.930 . S
H442 C400 0.930 . S
H443 C401 0.930 . S
H444 C403 0.929 . S
H445 C404 0.930 . S
H446 C405 0.930 . S
H447 C406 0.930 . S
H448 C410 0.929 . S
H449 C412 0.930 . S
H450 C418 0.929 . S
H451 C419 0.930 . S
Li452 N469 1.990 . S
Li452 O512 1.956 . S
Li452 O513 1.970 . S
Li452 O514 1.961 . S
Li453 N477 1.990 . S
Li453 O512 1.970 . S
Li453 O513 1.956 . S
Li453 O515 1.961 . S
Li454 N499 1.990 . S
Li454 O512 1.961 . S
Li454 O514 1.956 . S
Li454 O515 1.970 . S
Li455 N505 1.990 . S
Li455 O513 1.961 . S
Li455 O514 1.970 . S
Li455 O515 1.956 . S
C456 C458 1.348 . S
C456 C459 1.356 . S
C456 O512 1.325 . S
N457 C460 1.314 . S
N457 C461 1.279 . S
C458 C456 1.348 . S
C458 C460 1.353 . S
C458 H516 0.929 . S
C459 C456 1.356 . S
C459 C461 1.358 . S
C459 H517 0.930 . S
C460 N457 1.314 . S
C460 C458 1.353 . S
C460 H518 0.930 . S
C461 N457 1.279 . S
C461 C459 1.358 . S
C461 H519 0.930 . S
C462 C465 1.348 . S
C462 C466 1.356 . S
C462 O513 1.325 . S
C463 N464 1.279 . S
C463 C466 1.358 . S
C463 H520 0.930 . S
N464 C463 1.279 . S
N464 C467 1.314 . S
C465 C462 1.348 . S
C465 C467 1.353 . S
C465 H521 0.929 . S
C466 C462 1.356 . S
C466 C463 1.358 . S
C466 H522 0.930 . S
C467 N464 1.314 . S
C467 C465 1.353 . S
C467 H523 0.930 . S
C468 N469 1.314 . S
C468 C473 1.353 . S
C468 H474 0.930 . S
N469 Li452 1.990 . S
N469 C468 1.314 . S
N469 C471 1.279 . S
C470 C471 1.358 . S
C470 C472 1.356 . S
C470 H524 0.930 . S
C471 N469 1.279 . S
C471 C470 1.358 . S
C471 H475 0.930 . S
C472 C470 1.356 . S
C472 C473 1.348 . S
C473 C468 1.353 . S
C473 C472 1.348 . S
C473 H525 0.929 . S
H474 C468 0.930 . S
H475 C471 0.930 . S
C476 N477 1.314 . S
C476 C478 1.353 . S
C476 H482 0.930 . S
N477 Li453 1.990 . S
N477 C476 1.314 . S
N477 C480 1.279 . S
C478 C476 1.353 . S
C478 C481 1.348 . S
C478 H526 0.929 . S
C479 C480 1.358 . S
C479 C481 1.356 . S
C479 H527 0.930 . S
C480 N477 1.279 . S
C480 C479 1.358 . S
C480 H483 0.930 . S
C481 C478 1.348 . S
C481 C479 1.356 . S
H482 C476 0.930 . S
H483 C480 0.930 . S
C484 C486 1.348 . S
C484 C487 1.356 . S
C484 O514 1.325 . S
N485 C488 1.314 . S
N485 C489 1.279 . S
C486 C484 1.348 . S
C486 C488 1.353 . S
C486 H528 0.929 . S
C487 C484 1.356 . S
C487 C489 1.358 . S
C487 H529 0.930 . S
C488 N485 1.314 . S
C488 C486 1.353 . S
C488 H530 0.930 . S
C489 N485 1.279 . S
C489 C487 1.358 . S
C489 H531 0.930 . S
C490 C491 1.348 . S
C490 C492 1.356 . S
C490 O515 1.325 . S
C491 C490 1.348 . S
C491 C493 1.353 . S
C491 H532 0.929 . S
C492 C490 1.356 . S
C492 C494 1.358 . S
C492 H533 0.930 . S
C493 C491 1.353 . S
C493 N495 1.314 . S
C493 H534 0.930 . S
C494 C492 1.358 . S
C494 N495 1.279 . S
C494 H535 0.930 . S
N495 C493 1.314 . S
N495 C494 1.279 . S
C496 C498 1.353 . S
C496 N499 1.314 . S
C496 H502 0.930 . S
C497 N499 1.279 . S
C497 C500 1.358 . S
C497 H503 0.930 . S
C498 C496 1.353 . S
C498 C501 1.348 . S
C498 H536 0.929 . S
N499 Li454 1.990 . S
N499 C496 1.314 . S
N499 C497 1.279 . S
C500 C497 1.358 . S
C500 C501 1.356 . S
C500 H537 0.930 . S
C501 C498 1.348 . S
C501 C500 1.356 . S
H502 C496 0.930 . S
H503 C497 0.930 . S
C504 N505 1.314 . S
C504 C506 1.353 . S
C504 H510 0.930 . S
N505 Li455 1.990 . S
N505 C504 1.314 . S
N505 C508 1.279 . S
C506 C504 1.353 . S
C506 C509 1.348 . S
C506 H538 0.929 . S
C507 C508 1.358 . S
C507 C509 1.356 . S
C507 H539 0.930 . S
C508 N505 1.279 . S
C508 C507 1.358 . S
C508 H511 0.930 . S
C509 C506 1.348 . S
C509 C507 1.356 . S
H510 C504 0.930 . S
H511 C508 0.930 . S
O512 Li452 1.956 . S
O512 Li453 1.970 . S
O512 Li454 1.961 . S
O512 C456 1.325 . S
O513 Li452 1.970 . S
O513 Li453 1.956 . S
O513 Li455 1.961 . S
O513 C462 1.325 . S
O514 Li452 1.961 . S
O514 Li454 1.956 . S
O514 Li455 1.970 . S
O514 C484 1.325 . S
O515 Li453 1.961 . S
O515 Li454 1.970 . S
O515 Li455 1.956 . S
O515 C490 1.325 . S
H516 C458 0.929 . S
H517 C459 0.930 . S
H518 C460 0.930 . S
H519 C461 0.930 . S
H520 C463 0.930 . S
H521 C465 0.929 . S
H522 C466 0.930 . S
H523 C467 0.930 . S
H524 C470 0.930 . S
H525 C473 0.929 . S
H526 C478 0.929 . S
H527 C479 0.930 . S
H528 C486 0.929 . S
H529 C487 0.930 . S
H530 C488 0.930 . S
H531 C489 0.930 . S
H532 C491 0.929 . S
H533 C492 0.930 . S
H534 C493 0.930 . S
H535 C494 0.930 . S
H536 C498 0.929 . S
H537 C500 0.930 . S
H538 C506 0.929 . S
H539 C507 0.930 . S
Li540 N557 1.990 . S
Li540 O600 1.956 . S
Li540 O601 1.970 . S
Li540 O602 1.961 . S
Li541 N565 1.990 . S
Li541 O600 1.970 . S
Li541 O601 1.956 . S
Li541 O603 1.961 . S
Li542 N587 1.990 . S
Li542 O600 1.961 . S
Li542 O602 1.956 . S
Li542 O603 1.970 . S
Li543 N593 1.990 . S
Li543 O601 1.961 . S
Li543 O602 1.970 . S
Li543 O603 1.956 . S
C544 C546 1.348 . S
C544 C547 1.356 . S
C544 O600 1.325 . S
N545 C548 1.314 . S
N545 C549 1.279 . S
C546 C544 1.348 . S
C546 C548 1.353 . S
C546 H604 0.929 . S
C547 C544 1.356 . S
C547 C549 1.358 . S
C547 H605 0.930 . S
C548 N545 1.314 . S
C548 C546 1.353 . S
C548 H606 0.930 . S
C549 N545 1.279 . S
C549 C547 1.358 . S
C549 H607 0.930 . S
C550 C553 1.348 . S
C550 C554 1.356 . S
C550 O601 1.325 . S
C551 N552 1.279 . S
C551 C554 1.358 . S
C551 H608 0.930 . S
N552 C551 1.279 . S
N552 C555 1.314 . S
C553 C550 1.348 . S
C553 C555 1.353 . S
C553 H609 0.929 . S
C554 C550 1.356 . S
C554 C551 1.358 . S
C554 H610 0.930 . S
C555 N552 1.314 . S
C555 C553 1.353 . S
C555 H611 0.930 . S
C556 N557 1.314 . S
C556 C561 1.353 . S
C556 H562 0.930 . S
N557 Li540 1.990 . S
N557 C556 1.314 . S
N557 C559 1.279 . S
C558 C559 1.358 . S
C558 C560 1.356 . S
C558 H612 0.930 . S
C559 N557 1.279 . S
C559 C558 1.358 . S
C559 H563 0.930 . S
C560 C558 1.356 . S
C560 C561 1.348 . S
C561 C556 1.353 . S
C561 C560 1.348 . S
C561 H613 0.929 . S
H562 C556 0.930 . S
H563 C559 0.930 . S
C564 N565 1.314 . S
C564 C566 1.353 . S
C564 H570 0.930 . S
N565 Li541 1.990 . S
N565 C564 1.314 . S
N565 C568 1.279 . S
C566 C564 1.353 . S
C566 C569 1.348 . S
C566 H614 0.929 . S
C567 C568 1.358 . S
C567 C569 1.356 . S
C567 H615 0.930 . S
C568 N565 1.279 . S
C568 C567 1.358 . S
C568 H571 0.930 . S
C569 C566 1.348 . S
C569 C567 1.356 . S
H570 C564 0.930 . S
H571 C568 0.930 . S
C572 C574 1.348 . S
C572 C575 1.356 . S
C572 O602 1.325 . S
N573 C576 1.314 . S
N573 C577 1.279 . S
C574 C572 1.348 . S
C574 C576 1.353 . S
C574 H616 0.929 . S
C575 C572 1.356 . S
C575 C577 1.358 . S
C575 H617 0.930 . S
C576 N573 1.314 . S
C576 C574 1.353 . S
C576 H618 0.930 . S
C577 N573 1.279 . S
C577 C575 1.358 . S
C577 H619 0.930 . S
C578 C579 1.348 . S
C578 C580 1.356 . S
C578 O603 1.325 . S
C579 C578 1.348 . S
C579 C581 1.353 . S
C579 H620 0.929 . S
C580 C578 1.356 . S
C580 C582 1.358 . S
C580 H621 0.930 . S
C581 C579 1.353 . S
C581 N583 1.314 . S
C581 H622 0.930 . S
C582 C580 1.358 . S
C582 N583 1.279 . S
C582 H623 0.930 . S
N583 C581 1.314 . S
N583 C582 1.279 . S
C584 C586 1.353 . S
C584 N587 1.314 . S
C584 H590 0.930 . S
C585 N587 1.279 . S
C585 C588 1.358 . S
C585 H591 0.930 . S
C586 C584 1.353 . S
C586 C589 1.348 . S
C586 H624 0.929 . S
N587 Li542 1.990 . S
N587 C584 1.314 . S
N587 C585 1.279 . S
C588 C585 1.358 . S
C588 C589 1.356 . S
C588 H625 0.930 . S
C589 C586 1.348 . S
C589 C588 1.356 . S
H590 C584 0.930 . S
H591 C585 0.930 . S
C592 N593 1.314 . S
C592 C594 1.353 . S
C592 H598 0.930 . S
N593 Li543 1.990 . S
N593 C592 1.314 . S
N593 C596 1.279 . S
C594 C592 1.353 . S
C594 C597 1.348 . S
C594 H626 0.929 . S
C595 C596 1.358 . S
C595 C597 1.356 . S
C595 H627 0.930 . S
C596 N593 1.279 . S
C596 C595 1.358 . S
C596 H599 0.930 . S
C597 C594 1.348 . S
C597 C595 1.356 . S
H598 C592 0.930 . S
H599 C596 0.930 . S
O600 Li540 1.956 . S
O600 Li541 1.970 . S
O600 Li542 1.961 . S
O600 C544 1.325 . S
O601 Li540 1.970 . S
O601 Li541 1.956 . S
O601 Li543 1.961 . S
O601 C550 1.325 . S
O602 Li540 1.961 . S
O602 Li542 1.956 . S
O602 Li543 1.970 . S
O602 C572 1.325 . S
O603 Li541 1.961 . S
O603 Li542 1.970 . S
O603 Li543 1.956 . S
O603 C578 1.325 . S
H604 C546 0.929 . S
H605 C547 0.930 . S
H606 C548 0.930 . S
H607 C549 0.930 . S
H608 C551 0.930 . S
H609 C553 0.929 . S
H610 C554 0.930 . S
H611 C555 0.930 . S
H612 C558 0.930 . S
H613 C561 0.929 . S
H614 C566 0.929 . S
H615 C567 0.930 . S
H616 C574 0.929 . S
H617 C575 0.930 . S
H618 C576 0.930 . S
H619 C577 0.930 . S
H620 C579 0.929 . S
H621 C580 0.930 . S
H622 C581 0.930 . S
H623 C582 0.930 . S
H624 C586 0.929 . S
H625 C588 0.930 . S
H626 C594 0.929 . S
H627 C595 0.930 . S
Li628 N645 1.990 . S
Li628 O688 1.956 . S
Li628 O689 1.970 . S
Li628 O690 1.961 . S
Li629 N653 1.990 . S
Li629 O688 1.970 . S
Li629 O689 1.956 . S
Li629 O691 1.961 . S
Li630 N675 1.990 . S
Li630 O688 1.961 . S
Li630 O690 1.956 . S
Li630 O691 1.970 . S
Li631 N681 1.990 . S
Li631 O689 1.961 . S
Li631 O690 1.970 . S
Li631 O691 1.956 . S
C632 C634 1.348 . S
C632 C635 1.356 . S
C632 O688 1.325 . S
N633 C636 1.314 . S
N633 C637 1.279 . S
C634 C632 1.348 . S
C634 C636 1.353 . S
C634 H692 0.929 . S
C635 C632 1.356 . S
C635 C637 1.358 . S
C635 H693 0.930 . S
C636 N633 1.314 . S
C636 C634 1.353 . S
C636 H694 0.930 . S
C637 N633 1.279 . S
C637 C635 1.358 . S
C637 H695 0.930 . S
C638 C641 1.348 . S
C638 C642 1.356 . S
C638 O689 1.325 . S
C639 N640 1.279 . S
C639 C642 1.358 . S
C639 H696 0.930 . S
N640 C639 1.279 . S
N640 C643 1.314 . S
C641 C638 1.348 . S
C641 C643 1.353 . S
C641 H697 0.929 . S
C642 C638 1.356 . S
C642 C639 1.358 . S
C642 H698 0.930 . S
C643 N640 1.314 . S
C643 C641 1.353 . S
C643 H699 0.930 . S
C644 N645 1.314 . S
C644 C649 1.353 . S
C644 H650 0.930 . S
N645 Li628 1.990 . S
N645 C644 1.314 . S
N645 C647 1.279 . S
C646 C647 1.358 . S
C646 C648 1.356 . S
C646 H700 0.930 . S
C647 N645 1.279 . S
C647 C646 1.358 . S
C647 H651 0.930 . S
C648 C646 1.356 . S
C648 C649 1.348 . S
C649 C644 1.353 . S
C649 C648 1.348 . S
C649 H701 0.929 . S
H650 C644 0.930 . S
H651 C647 0.930 . S
C652 N653 1.314 . S
C652 C654 1.353 . S
C652 H658 0.930 . S
N653 Li629 1.990 . S
N653 C652 1.314 . S
N653 C656 1.279 . S
C654 C652 1.353 . S
C654 C657 1.348 . S
C654 H702 0.929 . S
C655 C656 1.358 . S
C655 C657 1.356 . S
C655 H703 0.930 . S
C656 N653 1.279 . S
C656 C655 1.358 . S
C656 H659 0.930 . S
C657 C654 1.348 . S
C657 C655 1.356 . S
H658 C652 0.930 . S
H659 C656 0.930 . S
C660 C662 1.348 . S
C660 C663 1.356 . S
C660 O690 1.325 . S
N661 C664 1.314 . S
N661 C665 1.279 . S
C662 C660 1.348 . S
C662 C664 1.353 . S
C662 H704 0.929 . S
C663 C660 1.356 . S
C663 C665 1.358 . S
C663 H705 0.930 . S
C664 N661 1.314 . S
C664 C662 1.353 . S
C664 H706 0.930 . S
C665 N661 1.279 . S
C665 C663 1.358 . S
C665 H707 0.930 . S
C666 C667 1.348 . S
C666 C668 1.356 . S
C666 O691 1.325 . S
C667 C666 1.348 . S
C667 C669 1.353 . S
C667 H708 0.929 . S
C668 C666 1.356 . S
C668 C670 1.358 . S
C668 H709 0.930 . S
C669 C667 1.353 . S
C669 N671 1.314 . S
C669 H710 0.930 . S
C670 C668 1.358 . S
C670 N671 1.279 . S
C670 H711 0.930 . S
N671 C669 1.314 . S
N671 C670 1.279 . S
C672 C674 1.353 . S
C672 N675 1.314 . S
C672 H678 0.930 . S
C673 N675 1.279 . S
C673 C676 1.358 . S
C673 H679 0.930 . S
C674 C672 1.353 . S
C674 C677 1.348 . S
C674 H712 0.929 . S
N675 Li630 1.990 . S
N675 C672 1.314 . S
N675 C673 1.279 . S
C676 C673 1.358 . S
C676 C677 1.356 . S
C676 H713 0.930 1_554 S
C677 C674 1.348 . S
C677 C676 1.356 . S
H678 C672 0.930 . S
H679 C673 0.930 . S
C680 N681 1.314 . S
C680 C682 1.353 . S
C680 H686 0.930 . S
N681 Li631 1.990 . S
N681 C680 1.314 . S
N681 C684 1.279 . S
C682 C680 1.353 . S
C682 C685 1.348 . S
C682 H714 0.929 . S
C683 C684 1.358 . S
C683 C685 1.356 . S
C683 H715 0.930 . S
C684 N681 1.279 . S
C684 C683 1.358 . S
C684 H687 0.930 . S
C685 C682 1.348 . S
C685 C683 1.356 . S
H686 C680 0.930 . S
H687 C684 0.930 . S
O688 Li628 1.956 . S
O688 Li629 1.970 . S
O688 Li630 1.961 . S
O688 C632 1.325 . S
O689 Li628 1.970 . S
O689 Li629 1.956 . S
O689 Li631 1.961 . S
O689 C638 1.325 . S
O690 Li628 1.961 . S
O690 Li630 1.956 . S
O690 Li631 1.970 . S
O690 C660 1.325 . S
O691 Li629 1.961 . S
O691 Li630 1.970 . S
O691 Li631 1.956 . S
O691 C666 1.325 . S
H692 C634 0.929 . S
H693 C635 0.930 . S
H694 C636 0.930 . S
H695 C637 0.930 . S
H696 C639 0.930 . S
H697 C641 0.929 . S
H698 C642 0.930 . S
H699 C643 0.930 . S
H700 C646 0.930 . S
H701 C649 0.929 . S
H702 C654 0.929 . S
H703 C655 0.930 . S
H704 C662 0.929 . S
H705 C663 0.930 . S
H706 C664 0.930 . S
H707 C665 0.930 . S
H708 C667 0.929 . S
H709 C668 0.930 . S
H710 C669 0.930 . S
H711 C670 0.930 . S
H712 C674 0.929 . S
H713 C676 0.930 1_556 S
H714 C682 0.929 . S
H715 C683 0.930 . S
Li716 N733 1.990 . S
Li716 O776 1.956 . S
Li716 O777 1.970 . S
Li716 O778 1.961 . S
Li717 N741 1.990 . S
Li717 O776 1.970 . S
Li717 O777 1.956 . S
Li717 O779 1.961 . S
Li718 N763 1.990 . S
Li718 O776 1.961 . S
Li718 O778 1.956 . S
Li718 O779 1.970 . S
Li719 N769 1.990 . S
Li719 O777 1.961 . S
Li719 O778 1.970 . S
Li719 O779 1.956 . S
C720 C722 1.348 . S
C720 C723 1.356 . S
C720 O776 1.325 . S
N721 C724 1.314 . S
N721 C725 1.279 . S
C722 C720 1.348 . S
C722 C724 1.353 . S
C722 H780 0.929 . S
C723 C720 1.356 . S
C723 C725 1.358 . S
C723 H781 0.930 . S
C724 N721 1.314 . S
C724 C722 1.353 . S
C724 H782 0.930 . S
C725 N721 1.279 . S
C725 C723 1.358 . S
C725 H783 0.930 . S
C726 C729 1.348 . S
C726 C730 1.356 . S
C726 O777 1.325 . S
C727 N728 1.279 . S
C727 C730 1.358 . S
C727 H784 0.930 . S
N728 C727 1.279 . S
N728 C731 1.314 . S
C729 C726 1.348 . S
C729 C731 1.353 . S
C729 H785 0.929 . S
C730 C726 1.356 . S
C730 C727 1.358 . S
C730 H786 0.930 . S
C731 N728 1.314 . S
C731 C729 1.353 . S
C731 H787 0.930 . S
C732 N733 1.314 . S
C732 C737 1.353 . S
C732 H738 0.930 . S
N733 Li716 1.990 . S
N733 C732 1.314 . S
N733 C735 1.279 . S
C734 C735 1.358 . S
C734 C736 1.356 . S
C734 H788 0.930 . S
C735 N733 1.279 . S
C735 C734 1.358 . S
C735 H739 0.930 . S
C736 C734 1.356 . S
C736 C737 1.348 . S
C737 C732 1.353 . S
C737 C736 1.348 . S
C737 H789 0.929 . S
H738 C732 0.930 . S
H739 C735 0.930 . S
C740 N741 1.314 . S
C740 C742 1.353 . S
C740 H746 0.930 . S
N741 Li717 1.990 . S
N741 C740 1.314 . S
N741 C744 1.279 . S
C742 C740 1.353 . S
C742 C745 1.348 . S
C742 H790 0.929 . S
C743 C744 1.358 . S
C743 C745 1.356 . S
C743 H791 0.930 . S
C744 N741 1.279 . S
C744 C743 1.358 . S
C744 H747 0.930 . S
C745 C742 1.348 . S
C745 C743 1.356 . S
H746 C740 0.930 . S
H747 C744 0.930 . S
C748 C750 1.348 . S
C748 C751 1.356 . S
C748 O778 1.325 . S
N749 C752 1.314 . S
N749 C753 1.279 . S
C750 C748 1.348 . S
C750 C752 1.353 . S
C750 H792 0.929 . S
C751 C748 1.356 . S
C751 C753 1.358 . S
C751 H793 0.930 . S
C752 N749 1.314 . S
C752 C750 1.353 . S
C752 H794 0.930 . S
C753 N749 1.279 . S
C753 C751 1.358 . S
C753 H795 0.930 . S
C754 C755 1.348 . S
C754 C756 1.356 . S
C754 O779 1.325 . S
C755 C754 1.348 . S
C755 C757 1.353 . S
C755 H796 0.929 . S
C756 C754 1.356 . S
C756 C758 1.358 . S
C756 H797 0.930 . S
C757 C755 1.353 . S
C757 N759 1.314 . S
C757 H798 0.930 . S
C758 C756 1.358 . S
C758 N759 1.279 . S
C758 H799 0.930 . S
N759 C757 1.314 . S
N759 C758 1.279 . S
C760 C762 1.353 . S
C760 N763 1.314 . S
C760 H766 0.930 . S
C761 N763 1.279 . S
C761 C764 1.358 . S
C761 H767 0.930 . S
C762 C760 1.353 . S
C762 C765 1.348 . S
C762 H800 0.929 . S
N763 Li718 1.990 . S
N763 C760 1.314 . S
N763 C761 1.279 . S
C764 C761 1.358 . S
C764 C765 1.356 . S
C764 H801 0.930 . S
C765 C762 1.348 . S
C765 C764 1.356 . S
H766 C760 0.930 . S
H767 C761 0.930 . S
C768 N769 1.314 . S
C768 C770 1.353 . S
C768 H774 0.930 . S
N769 Li719 1.990 . S
N769 C768 1.314 . S
N769 C772 1.279 . S
C770 C768 1.353 . S
C770 C773 1.348 . S
C770 H802 0.929 . S
C771 C772 1.358 . S
C771 C773 1.356 . S
C771 H803 0.930 . S
C772 N769 1.279 . S
C772 C771 1.358 . S
C772 H775 0.930 . S
C773 C770 1.348 . S
C773 C771 1.356 . S
H774 C768 0.930 . S
H775 C772 0.930 . S
O776 Li716 1.956 . S
O776 Li717 1.970 . S
O776 Li718 1.961 . S
O776 C720 1.325 . S
O777 Li716 1.970 . S
O777 Li717 1.956 . S
O777 Li719 1.961 . S
O777 C726 1.325 . S
O778 Li716 1.961 . S
O778 Li718 1.956 . S
O778 Li719 1.970 . S
O778 C748 1.325 . S
O779 Li717 1.961 . S
O779 Li718 1.970 . S
O779 Li719 1.956 . S
O779 C754 1.325 . S
H780 C722 0.929 . S
H781 C723 0.930 . S
H782 C724 0.930 . S
H783 C725 0.930 . S
H784 C727 0.930 . S
H785 C729 0.929 . S
H786 C730 0.930 . S
H787 C731 0.930 . S
H788 C734 0.930 . S
H789 C737 0.929 . S
H790 C742 0.929 . S
H791 C743 0.930 . S
H792 C750 0.929 . S
H793 C751 0.930 . S
H794 C752 0.930 . S
H795 C753 0.930 . S
H796 C755 0.929 . S
H797 C756 0.930 . S
H798 C757 0.930 . S
H799 C758 0.930 . S
H800 C762 0.929 . S
H801 C764 0.930 . S
H802 C770 0.929 . S
H803 C771 0.930 . S
H804 C812 0.950 . S
H805 C817 0.950 . S
H806 C814 0.950 . S
H807 C816 0.950 . S
H808 C818 0.950 . S
H809 C820 0.950 . S
H810 C822 0.950 . S
H811 C823 0.950 . S
C812 H804 0.950 . S
C812 C813 1.386 . S
C812 C814 1.391 . S
C813 C812 1.386 . S
C813 C817 1.393 . S
C814 H806 0.950 . S
C814 C812 1.391 . S
C814 C815 1.400 . S
C815 C814 1.400 . S
C815 C816 1.398 . S
C815 C821 1.491 . S
C816 H807 0.950 . S
C816 C815 1.398 . S
C816 C817 1.391 . S
C817 H805 0.950 . S
C817 C813 1.393 . S
C817 C816 1.391 . S
C818 H808 0.950 . S
C818 C819 1.386 . S
C818 C820 1.391 . S
C819 C818 1.386 . S
C819 C823 1.393 . S
C820 H809 0.950 . S
C820 C818 1.391 . S
C820 C821 1.400 . S
C821 C815 1.491 . S
C821 C820 1.400 . S
C821 C822 1.398 . S
C822 H810 0.950 . S
C822 C821 1.398 . S
C822 C823 1.391 . S
C823 H811 0.950 . S
C823 C819 1.393 . S
C823 C822 1.391 . S
H824 C832 0.950 . S
H825 C837 0.950 . S
H826 C834 0.950 . S
H827 C836 0.950 . S
H828 C838 0.950 . S
H829 C840 0.950 . S
H830 C842 0.950 . S
H831 C843 0.950 . S
C832 H824 0.950 . S
C832 C833 1.386 . S
C832 C834 1.391 . S
C833 C832 1.386 . S
C833 C837 1.393 . S
C834 H826 0.950 . S
C834 C832 1.391 . S
C834 C835 1.400 . S
C835 C834 1.400 . S
C835 C836 1.398 . S
C835 C841 1.491 . S
C836 H827 0.950 . S
C836 C835 1.398 . S
C836 C837 1.391 . S
C837 H825 0.950 . S
C837 C833 1.393 . S
C837 C836 1.391 . S
C838 H828 0.950 . S
C838 C839 1.386 . S
C838 C840 1.391 . S
C839 C838 1.386 . S
C839 C843 1.393 . S
C840 H829 0.950 . S
C840 C838 1.391 . S
C840 C841 1.400 . S
C841 C835 1.491 . S
C841 C840 1.400 . S
C841 C842 1.398 . S
C842 H830 0.950 . S
C842 C841 1.398 . S
C842 C843 1.391 . S
C843 H831 0.950 . S
C843 C839 1.393 . S
C843 C842 1.391 . S
H844 C852 0.950 . S
H845 C857 0.950 . S
H846 C854 0.950 . S
H847 C856 0.950 . S
H848 C858 0.950 . S
H849 C860 0.950 . S
H850 C862 0.950 . S
H851 C863 0.950 . S
C852 H844 0.950 . S
C852 C853 1.386 . S
C852 C854 1.391 . S
C853 C852 1.386 . S
C853 C857 1.393 . S
C854 H846 0.950 . S
C854 C852 1.391 . S
C854 C855 1.400 . S
C855 C854 1.400 . S
C855 C856 1.398 . S
C855 C861 1.491 . S
C856 H847 0.950 . S
C856 C855 1.398 . S
C856 C857 1.391 . S
C857 H845 0.950 . S
C857 C853 1.393 . S
C857 C856 1.391 . S
C858 H848 0.950 . S
C858 C859 1.386 . S
C858 C860 1.391 . S
C859 C858 1.386 . S
C859 C863 1.393 . S
C860 H849 0.950 . S
C860 C858 1.391 . S
C860 C861 1.400 . S
C861 C855 1.491 . S
C861 C860 1.400 . S
C861 C862 1.398 . S
C862 H850 0.950 . S
C862 C861 1.398 . S
C862 C863 1.391 . S
C863 H851 0.950 . S
C863 C859 1.393 . S
C863 C862 1.391 . S
H864 C872 0.950 . S
H865 C877 0.950 . S
H866 C874 0.950 . S
H867 C876 0.950 . S
H868 C878 0.950 . S
H869 C880 0.950 . S
H870 C882 0.950 . S
H871 C883 0.950 . S
C872 H864 0.950 . S
C872 C873 1.386 . S
C872 C874 1.391 . S
C873 C872 1.386 . S
C873 C877 1.393 . S
C874 H866 0.950 . S
C874 C872 1.391 . S
C874 C875 1.400 . S
C875 C874 1.400 . S
C875 C876 1.398 . S
C875 C881 1.491 . S
C876 H867 0.950 . S
C876 C875 1.398 . S
C876 C877 1.391 . S
C877 H865 0.950 . S
C877 C873 1.393 . S
C877 C876 1.391 . S
C878 H868 0.950 . S
C878 C879 1.386 . S
C878 C880 1.391 . S
C879 C878 1.386 . S
C879 C883 1.393 . S
C880 H869 0.950 . S
C880 C878 1.391 . S
C880 C881 1.400 . S
C881 C875 1.491 . S
C881 C880 1.400 . S
C881 C882 1.398 . S
C882 H870 0.950 . S
C882 C881 1.398 . S
C882 C883 1.391 . S
C883 H871 0.950 . S
C883 C879 1.393 . S
C883 C882 1.391 . S
H884 C892 0.950 . S
H885 C897 0.950 . S
H886 C894 0.950 . S
H887 C896 0.950 . S
H888 C898 0.950 . S
H889 C900 0.950 . S
H890 C902 0.950 . S
H891 C903 0.950 . S
C892 H884 0.950 . S
C892 C893 1.386 . S
C892 C894 1.391 . S
C893 C892 1.386 . S
C893 C897 1.393 . S
C894 H886 0.950 . S
C894 C892 1.391 . S
C894 C895 1.400 . S
C895 C894 1.400 . S
C895 C896 1.398 . S
C895 C901 1.491 . S
C896 H887 0.950 . S
C896 C895 1.398 . S
C896 C897 1.391 . S
C897 H885 0.950 . S
C897 C893 1.393 . S
C897 C896 1.391 . S
C898 H888 0.950 . S
C898 C899 1.386 . S
C898 C900 1.391 . S
C899 C898 1.386 . S
C899 C903 1.393 . S
C900 H889 0.950 . S
C900 C898 1.391 . S
C900 C901 1.400 . S
C901 C895 1.491 . S
C901 C900 1.400 . S
C901 C902 1.398 . S
C902 H890 0.950 . S
C902 C901 1.398 . S
C902 C903 1.391 . S
C903 H891 0.950 . S
C903 C899 1.393 . S
C903 C902 1.391 . S
H904 C912 0.950 . S
H905 C917 0.950 . S
H906 C914 0.950 . S
H907 C916 0.950 . S
H908 C918 0.950 . S
H909 C920 0.950 . S
H910 C922 0.950 . S
H911 C923 0.950 . S
C912 H904 0.950 . S
C912 C913 1.386 . S
C912 C914 1.391 . S
C913 C912 1.386 . S
C913 C917 1.393 . S
C914 H906 0.950 . S
C914 C912 1.391 . S
C914 C915 1.400 . S
C915 C914 1.400 . S
C915 C916 1.398 . S
C915 C921 1.491 . S
C916 H907 0.950 . S
C916 C915 1.398 . S
C916 C917 1.391 . S
C917 H905 0.950 . S
C917 C913 1.393 . S
C917 C916 1.391 . S
C918 H908 0.950 . S
C918 C919 1.386 . S
C918 C920 1.391 . S
C919 C918 1.386 . S
C919 C923 1.393 . S
C920 H909 0.950 . S
C920 C918 1.391 . S
C920 C921 1.400 . S
C921 C915 1.491 . S
C921 C920 1.400 . S
C921 C922 1.398 . S
C922 H910 0.950 . S
C922 C921 1.398 . S
C922 C923 1.391 . S
C923 H911 0.950 . S
C923 C919 1.393 . S
C923 C922 1.391 . S
H924 C932 0.950 . S
H925 C937 0.950 . S
H926 C934 0.950 . S
H927 C936 0.950 . S
H928 C938 0.950 . S
H929 C940 0.950 . S
H930 C942 0.950 . S
H931 C943 0.950 . S
C932 H924 0.950 . S
C932 C933 1.386 . S
C932 C934 1.391 . S
C933 C932 1.386 . S
C933 C937 1.393 . S
C934 H926 0.950 . S
C934 C932 1.391 . S
C934 C935 1.400 . S
C935 C934 1.400 . S
C935 C936 1.398 . S
C935 C941 1.491 . S
C936 H927 0.950 . S
C936 C935 1.398 . S
C936 C937 1.391 . S
C937 H925 0.950 . S
C937 C933 1.393 . S
C937 C936 1.391 . S
C938 H928 0.950 . S
C938 C939 1.386 . S
C938 C940 1.391 . S
C939 C938 1.386 . S
C939 C943 1.393 . S
C940 H929 0.950 . S
C940 C938 1.391 . S
C940 C941 1.400 . S
C941 C935 1.491 . S
C941 C940 1.400 . S
C941 C942 1.398 . S
C942 H930 0.950 . S
C942 C941 1.398 . S
C942 C943 1.391 . S
C943 H931 0.950 . S
C943 C939 1.393 . S
C943 C942 1.391 . S
H944 C952 0.950 . S
H945 C957 0.950 . S
H946 C954 0.950 . S
H947 C956 0.950 . S
H948 C958 0.950 . S
H949 C960 0.950 . S
H950 C962 0.950 . S
H951 C963 0.950 . S
C952 H944 0.950 . S
C952 C953 1.386 . S
C952 C954 1.391 . S
C953 C952 1.386 . S
C953 C957 1.393 . S
C954 H946 0.950 . S
C954 C952 1.391 . S
C954 C955 1.400 . S
C955 C954 1.400 . S
C955 C956 1.398 . S
C955 C961 1.491 . S
C956 H947 0.950 . S
C956 C955 1.398 . S
C956 C957 1.391 . S
C957 H945 0.950 . S
C957 C953 1.393 . S
C957 C956 1.391 . S
C958 H948 0.950 . S
C958 C959 1.386 . S
C958 C960 1.391 . S
C959 C958 1.386 . S
C959 C963 1.393 . S
C960 H949 0.950 . S
C960 C958 1.391 . S
C960 C961 1.400 . S
C961 C955 1.491 . S
C961 C960 1.400 . S
C961 C962 1.398 . S
C962 H950 0.950 . S
C962 C961 1.398 . S
C962 C963 1.391 . S
C963 H951 0.950 . S
C963 C959 1.393 . S
C963 C962 1.391 . S
H964 C972 0.950 . S
H965 C977 0.950 . S
H966 C974 0.950 . S
H967 C976 0.950 . S
H968 C978 0.950 . S
H969 C980 0.950 . S
H970 C982 0.950 . S
H971 C983 0.950 . S
C972 H964 0.950 . S
C972 C973 1.386 . S
C972 C974 1.391 . S
C973 C972 1.386 . S
C973 C977 1.393 . S
C974 H966 0.950 . S
C974 C972 1.391 . S
C974 C975 1.400 . S
C975 C974 1.400 . S
C975 C976 1.398 . S
C975 C981 1.491 . S
C976 H967 0.950 . S
C976 C975 1.398 . S
C976 C977 1.391 . S
C977 H965 0.950 . S
C977 C973 1.393 . S
C977 C976 1.391 . S
C978 H968 0.950 . S
C978 C979 1.386 . S
C978 C980 1.391 . S
C979 C978 1.386 . S
C979 C983 1.393 . S
C980 H969 0.950 . S
C980 C978 1.391 . S
C980 C981 1.400 . S
C981 C975 1.491 . S
C981 C980 1.400 . S
C981 C982 1.398 . S
C982 H970 0.950 . S
C982 C981 1.398 . S
C982 C983 1.391 . S
C983 H971 0.950 . S
C983 C979 1.393 . S
C983 C982 1.391 . S
H984 C992 0.950 . S
H985 C997 0.950 . S
H986 C994 0.950 . S
H987 C996 0.950 . S
H988 C998 0.950 . S
H989 C1000 0.950 . S
H990 C1002 0.950 . S
H991 C1003 0.950 . S
C992 H984 0.950 . S
C992 C993 1.386 . S
C992 C994 1.391 . S
C993 C992 1.386 . S
C993 C997 1.393 . S
C994 H986 0.950 . S
C994 C992 1.391 . S
C994 C995 1.400 . S
C995 C994 1.400 . S
C995 C996 1.398 . S
C995 C1001 1.491 . S
C996 H987 0.950 . S
C996 C995 1.398 . S
C996 C997 1.391 . S
C997 H985 0.950 . S
C997 C993 1.393 . S
C997 C996 1.391 . S
C998 H988 0.950 . S
C998 C999 1.386 . S
C998 C1000 1.391 . S
C999 C998 1.386 . S
C999 C1003 1.393 . S
C1000 H989 0.950 . S
C1000 C998 1.391 . S
C1000 C1001 1.400 . S
C1001 C995 1.491 . S
C1001 C1000 1.400 . S
C1001 C1002 1.398 . S
C1002 H990 0.950 . S
C1002 C1001 1.398 . S
C1002 C1003 1.391 . S
C1003 H991 0.950 . S
C1003 C999 1.393 . S
C1003 C1002 1.391 . S
H1004 C1012 0.950 . S
H1005 C1017 0.950 . S
H1006 C1014 0.950 . S
H1007 C1016 0.950 . S
H1008 C1018 0.950 . S
H1009 C1020 0.950 . S
H1010 C1022 0.950 . S
H1011 C1023 0.950 . S
C1012 H1004 0.950 . S
C1012 C1013 1.386 . S
C1012 C1014 1.391 . S
C1013 C1012 1.386 . S
C1013 C1017 1.393 . S
C1014 H1006 0.950 . S
C1014 C1012 1.391 . S
C1014 C1015 1.400 . S
C1015 C1014 1.400 . S
C1015 C1016 1.398 . S
C1015 C1021 1.491 . S
C1016 H1007 0.950 . S
C1016 C1015 1.398 . S
C1016 C1017 1.391 . S
C1017 H1005 0.950 . S
C1017 C1013 1.393 . S
C1017 C1016 1.391 . S
C1018 H1008 0.950 . S
C1018 C1019 1.386 . S
C1018 C1020 1.391 . S
C1019 C1018 1.386 . S
C1019 C1023 1.393 . S
C1020 H1009 0.950 . S
C1020 C1018 1.391 . S
C1020 C1021 1.400 . S
C1021 C1015 1.491 . S
C1021 C1020 1.400 . S
C1021 C1022 1.398 . S
C1022 H1010 0.950 . S
C1022 C1021 1.398 . S
C1022 C1023 1.391 . S
C1023 H1011 0.950 . S
C1023 C1019 1.393 . S
C1023 C1022 1.391 . S
H1024 C1032 0.950 . S
H1025 C1037 0.950 . S
H1026 C1034 0.950 . S
H1027 C1036 0.950 . S
H1028 C1038 0.950 . S
H1029 C1040 0.950 . S
H1030 C1042 0.950 . S
H1031 C1043 0.950 . S
C1032 H1024 0.950 . S
C1032 C1033 1.386 . S
C1032 C1034 1.391 . S
C1033 C1032 1.386 . S
C1033 C1037 1.393 . S
C1034 H1026 0.950 . S
C1034 C1032 1.391 . S
C1034 C1035 1.400 . S
C1035 C1034 1.400 . S
C1035 C1036 1.398 . S
C1035 C1041 1.491 . S
C1036 H1027 0.950 . S
C1036 C1035 1.398 . S
C1036 C1037 1.391 . S
C1037 H1025 0.950 . S
C1037 C1033 1.393 . S
C1037 C1036 1.391 . S
C1038 H1028 0.950 . S
C1038 C1039 1.386 . S
C1038 C1040 1.391 . S
C1039 C1038 1.386 . S
C1039 C1043 1.393 . S
C1040 H1029 0.950 . S
C1040 C1038 1.391 . S
C1040 C1041 1.400 . S
C1041 C1035 1.491 . S
C1041 C1040 1.400 . S
C1041 C1042 1.398 . S
C1042 H1030 0.950 . S
C1042 C1041 1.398 . S
C1042 C1043 1.391 . S
C1043 H1031 0.950 . S
C1043 C1039 1.393 . S
C1043 C1042 1.391 . S
H1044 C1052 0.950 . S
H1045 C1057 0.950 . S
H1046 C1054 0.950 . S
H1047 C1056 0.950 . S
H1048 C1058 0.950 . S
H1049 C1060 0.950 . S
H1050 C1062 0.950 . S
H1051 C1063 0.950 . S
C1052 H1044 0.950 . S
C1052 C1053 1.386 . S
C1052 C1054 1.391 . S
C1053 C1052 1.386 . S
C1053 C1057 1.393 . S
C1054 H1046 0.950 . S
C1054 C1052 1.391 . S
C1054 C1055 1.400 . S
C1055 C1054 1.400 . S
C1055 C1056 1.398 . S
C1055 C1061 1.491 . S
C1056 H1047 0.950 . S
C1056 C1055 1.398 . S
C1056 C1057 1.391 . S
C1057 H1045 0.950 . S
C1057 C1053 1.393 . S
C1057 C1056 1.391 . S
C1058 H1048 0.950 . S
C1058 C1059 1.386 . S
C1058 C1060 1.391 . S
C1059 C1058 1.386 . S
C1059 C1063 1.393 . S
C1060 H1049 0.950 . S
C1060 C1058 1.391 . S
C1060 C1061 1.400 . S
C1061 C1055 1.491 . S
C1061 C1060 1.400 . S
C1061 C1062 1.398 . S
C1062 H1050 0.950 . S
C1062 C1061 1.398 . S
C1062 C1063 1.391 . S
C1063 H1051 0.950 . S
C1063 C1059 1.393 . S
C1063 C1062 1.391 . S
H1064 C1072 0.950 . S
H1065 C1077 0.950 . S
H1066 C1074 0.950 . S
H1067 C1076 0.950 . S
H1068 C1078 0.950 . S
H1069 C1080 0.950 . S
H1070 C1082 0.950 . S
H1071 C1083 0.950 . S
C1072 H1064 0.950 . S
C1072 C1073 1.386 . S
C1072 C1074 1.391 . S
C1073 C1072 1.386 . S
C1073 C1077 1.393 . S
C1074 H1066 0.950 . S
C1074 C1072 1.391 . S
C1074 C1075 1.400 . S
C1075 C1074 1.400 . S
C1075 C1076 1.398 . S
C1075 C1081 1.491 . S
C1076 H1067 0.950 . S
C1076 C1075 1.398 . S
C1076 C1077 1.391 . S
C1077 H1065 0.950 . S
C1077 C1073 1.393 . S
C1077 C1076 1.391 . S
C1078 H1068 0.950 . S
C1078 C1079 1.386 . S
C1078 C1080 1.391 . S
C1079 C1078 1.386 . S
C1079 C1083 1.393 . S
C1080 H1069 0.950 . S
C1080 C1078 1.391 . S
C1080 C1081 1.400 . S
C1081 C1075 1.491 . S
C1081 C1080 1.400 . S
C1081 C1082 1.398 . S
C1082 H1070 0.950 . S
C1082 C1081 1.398 . S
C1082 C1083 1.391 . S
C1083 H1071 0.950 . S
C1083 C1079 1.393 . S
C1083 C1082 1.391 . S
H1084 C1092 0.950 . S
H1085 C1097 0.950 . S
H1086 C1094 0.950 . S
H1087 C1096 0.950 . S
H1088 C1098 0.950 . S
H1089 C1100 0.950 . S
H1090 C1102 0.950 . S
H1091 C1103 0.950 . S
C1092 H1084 0.950 . S
C1092 C1093 1.386 . S
C1092 C1094 1.391 . S
C1093 C1092 1.386 . S
C1093 C1097 1.393 . S
C1094 H1086 0.950 . S
C1094 C1092 1.391 . S
C1094 C1095 1.400 . S
C1095 C1094 1.400 . S
C1095 C1096 1.398 . S
C1095 C1101 1.491 . S
C1096 H1087 0.950 . S
C1096 C1095 1.398 . S
C1096 C1097 1.391 . S
C1097 H1085 0.950 . S
C1097 C1093 1.393 . S
C1097 C1096 1.391 . S
C1098 H1088 0.950 . S
C1098 C1099 1.386 . S
C1098 C1100 1.391 . S
C1099 C1098 1.386 . S
C1099 C1103 1.393 . S
C1100 H1089 0.950 . S
C1100 C1098 1.391 . S
C1100 C1101 1.400 . S
C1101 C1095 1.491 . S
C1101 C1100 1.400 . S
C1101 C1102 1.398 . S
C1102 H1090 0.950 . S
C1102 C1101 1.398 . S
C1102 C1103 1.391 . S
C1103 H1091 0.950 . S
C1103 C1099 1.393 . S
C1103 C1102 1.391 . S
H1104 C1112 0.950 . S
H1105 C1117 0.950 . S
H1106 C1114 0.950 . S
H1107 C1116 0.950 . S
H1108 C1118 0.950 1_554 S
H1109 C1120 0.950 . S
H1110 C1122 0.950 . S
H1111 C1123 0.950 . S
C1112 H1104 0.950 . S
C1112 C1113 1.386 . S
C1112 C1114 1.391 . S
C1113 C1112 1.386 . S
C1113 C1117 1.393 . S
C1114 H1106 0.950 . S
C1114 C1112 1.391 . S
C1114 C1115 1.400 . S
C1115 C1114 1.400 . S
C1115 C1116 1.398 . S
C1115 C1121 1.491 . S
C1116 H1107 0.950 . S
C1116 C1115 1.398 . S
C1116 C1117 1.391 . S
C1117 H1105 0.950 . S
C1117 C1113 1.393 . S
C1117 C1116 1.391 . S
C1118 H1108 0.950 1_556 S
C1118 C1119 1.386 . S
C1118 C1120 1.391 . S
C1119 C1118 1.386 . S
C1119 C1123 1.393 . S
C1120 H1109 0.950 . S
C1120 C1118 1.391 . S
C1120 C1121 1.400 . S
C1121 C1115 1.491 . S
C1121 C1120 1.400 . S
C1121 C1122 1.398 . S
C1122 H1110 0.950 . S
C1122 C1121 1.398 . S
C1122 C1123 1.391 . S
C1123 H1111 0.950 . S
C1123 C1119 1.393 . S
C1123 C1122 1.391 . S
H1124 C1132 0.950 . S
H1125 C1137 0.950 . S
H1126 C1134 0.950 . S
H1127 C1136 0.950 . S
H1128 C1138 0.950 . S
H1129 C1140 0.950 . S
H1130 C1142 0.950 . S
H1131 C1143 0.950 . S
C1132 H1124 0.950 . S
C1132 C1133 1.386 . S
C1132 C1134 1.391 . S
C1133 C1132 1.386 . S
C1133 C1137 1.393 . S
C1134 H1126 0.950 . S
C1134 C1132 1.391 . S
C1134 C1135 1.400 . S
C1135 C1134 1.400 . S
C1135 C1136 1.398 . S
C1135 C1141 1.491 . S
C1136 H1127 0.950 . S
C1136 C1135 1.398 . S
C1136 C1137 1.391 . S
C1137 H1125 0.950 . S
C1137 C1133 1.393 . S
C1137 C1136 1.391 . S
C1138 H1128 0.950 . S
C1138 C1139 1.386 . S
C1138 C1140 1.391 . S
C1139 C1138 1.386 . S
C1139 C1143 1.393 . S
C1140 H1129 0.950 . S
C1140 C1138 1.391 . S
C1140 C1141 1.400 . S
C1141 C1135 1.491 . S
C1141 C1140 1.400 . S
C1141 C1142 1.398 . S
C1142 H1130 0.950 . S
C1142 C1141 1.398 . S
C1142 C1143 1.391 . S
C1143 H1131 0.950 . S
C1143 C1139 1.393 . S
C1143 C1142 1.391 . S
H1144 C1152 0.950 . S
H1145 C1157 0.950 . S
H1146 C1154 0.950 . S
H1147 C1156 0.950 . S
H1148 C1158 0.950 . S
H1149 C1160 0.950 . S
H1150 C1162 0.950 . S
H1151 C1163 0.950 . S
C1152 H1144 0.950 . S
C1152 C1153 1.386 . S
C1152 C1154 1.391 . S
C1153 C1152 1.386 . S
C1153 C1157 1.393 . S
C1154 H1146 0.950 . S
C1154 C1152 1.391 . S
C1154 C1155 1.400 . S
C1155 C1154 1.400 . S
C1155 C1156 1.398 . S
C1155 C1161 1.491 . S
C1156 H1147 0.950 . S
C1156 C1155 1.398 . S
C1156 C1157 1.391 . S
C1157 H1145 0.950 . S
C1157 C1153 1.393 . S
C1157 C1156 1.391 . S
C1158 H1148 0.950 . S
C1158 C1159 1.386 . S
C1158 C1160 1.391 . S
C1159 C1158 1.386 . S
C1159 C1163 1.393 . S
C1160 H1149 0.950 . S
C1160 C1158 1.391 . S
C1160 C1161 1.400 . S
C1161 C1155 1.491 . S
C1161 C1160 1.400 . S
C1161 C1162 1.398 . S
C1162 H1150 0.950 . S
C1162 C1161 1.398 . S
C1162 C1163 1.391 . S
C1163 H1151 0.950 . S
C1163 C1159 1.393 . S
C1163 C1162 1.391 . S
H1164 C1172 0.950 . S
H1165 C1177 0.950 . S
H1166 C1174 0.950 . S
H1167 C1176 0.950 . S
H1168 C1178 0.950 . S
H1169 C1180 0.950 . S
H1170 C1182 0.950 . S
H1171 C1183 0.950 . S
C1172 H1164 0.950 . S
C1172 C1173 1.386 . S
C1172 C1174 1.391 . S
C1173 C1172 1.386 . S
C1173 C1177 1.393 . S
C1174 H1166 0.950 . S
C1174 C1172 1.391 . S
C1174 C1175 1.400 . S
C1175 C1174 1.400 . S
C1175 C1176 1.398 . S
C1175 C1181 1.491 . S
C1176 H1167 0.950 . S
C1176 C1175 1.398 . S
C1176 C1177 1.391 . S
C1177 H1165 0.950 . S
C1177 C1173 1.393 . S
C1177 C1176 1.391 . S
C1178 H1168 0.950 . S
C1178 C1179 1.386 . S
C1178 C1180 1.391 . S
C1179 C1178 1.386 . S
C1179 C1183 1.393 . S
C1180 H1169 0.950 . S
C1180 C1178 1.391 . S
C1180 C1181 1.400 . S
C1181 C1175 1.491 . S
C1181 C1180 1.400 . S
C1181 C1182 1.398 . S
C1182 H1170 0.950 . S
C1182 C1181 1.398 . S
C1182 C1183 1.391 . S
C1183 H1171 0.950 . S
C1183 C1179 1.393 . S
C1183 C1182 1.391 . S
H1184 C1192 0.950 . S
H1185 C1197 0.950 . S
H1186 C1194 0.950 . S
H1187 C1196 0.950 . S
H1188 C1198 0.950 . S
H1189 C1200 0.950 . S
H1190 C1202 0.950 . S
H1191 C1203 0.950 . S
C1192 H1184 0.950 . S
C1192 C1193 1.386 . S
C1192 C1194 1.391 . S
C1193 C1192 1.386 . S
C1193 C1197 1.393 . S
C1194 H1186 0.950 . S
C1194 C1192 1.391 . S
C1194 C1195 1.400 . S
C1195 C1194 1.400 . S
C1195 C1196 1.398 . S
C1195 C1201 1.491 . S
C1196 H1187 0.950 . S
C1196 C1195 1.398 . S
C1196 C1197 1.391 . S
C1197 H1185 0.950 . S
C1197 C1193 1.393 . S
C1197 C1196 1.391 . S
C1198 H1188 0.950 . S
C1198 C1199 1.386 . S
C1198 C1200 1.391 . S
C1199 C1198 1.386 . S
C1199 C1203 1.393 . S
C1200 H1189 0.950 . S
C1200 C1198 1.391 . S
C1200 C1201 1.400 . S
C1201 C1195 1.491 . S
C1201 C1200 1.400 . S
C1201 C1202 1.398 . S
C1202 H1190 0.950 . S
C1202 C1201 1.398 . S
C1202 C1203 1.391 . S
C1203 H1191 0.950 . S
C1203 C1199 1.393 . S
C1203 C1202 1.391 . S
H1204 C1212 0.950 . S
H1205 C1217 0.950 . S
H1206 C1214 0.950 . S
H1207 C1216 0.950 . S
H1208 C1218 0.950 . S
H1209 C1220 0.950 . S
H1210 C1222 0.950 . S
H1211 C1223 0.950 . S
C1212 H1204 0.950 . S
C1212 C1213 1.386 . S
C1212 C1214 1.391 . S
C1213 C1212 1.386 . S
C1213 C1217 1.393 . S
C1214 H1206 0.950 . S
C1214 C1212 1.391 . S
C1214 C1215 1.400 . S
C1215 C1214 1.400 . S
C1215 C1216 1.398 . S
C1215 C1221 1.491 . S
C1216 H1207 0.950 . S
C1216 C1215 1.398 . S
C1216 C1217 1.391 . S
C1217 H1205 0.950 . S
C1217 C1213 1.393 . S
C1217 C1216 1.391 . S
C1218 H1208 0.950 . S
C1218 C1219 1.386 . S
C1218 C1220 1.391 . S
C1219 C1218 1.386 . S
C1219 C1223 1.393 . S
C1220 H1209 0.950 . S
C1220 C1218 1.391 . S
C1220 C1221 1.400 . S
C1221 C1215 1.491 . S
C1221 C1220 1.400 . S
C1221 C1222 1.398 . S
C1222 H1210 0.950 . S
C1222 C1221 1.398 . S
C1222 C1223 1.391 . S
C1223 H1211 0.950 . S
C1223 C1219 1.393 . S
C1223 C1222 1.391 . S
H1224 C1232 0.950 . S
H1225 C1237 0.950 . S
H1226 C1234 0.950 . S
H1227 C1236 0.950 . S
H1228 C1238 0.950 . S
H1229 C1240 0.950 . S
H1230 C1242 0.950 . S
H1231 C1243 0.950 . S
C1232 H1224 0.950 . S
C1232 C1233 1.386 . S
C1232 C1234 1.391 . S
C1233 C1232 1.386 . S
C1233 C1237 1.393 . S
C1234 H1226 0.950 . S
C1234 C1232 1.391 . S
C1234 C1235 1.400 . S
C1235 C1234 1.400 . S
C1235 C1236 1.398 . S
C1235 C1241 1.491 . S
C1236 H1227 0.950 . S
C1236 C1235 1.398 . S
C1236 C1237 1.391 . S
C1237 H1225 0.950 . S
C1237 C1233 1.393 . S
C1237 C1236 1.391 . S
C1238 H1228 0.950 . S
C1238 C1239 1.386 . S
C1238 C1240 1.391 . S
C1239 C1238 1.386 . S
C1239 C1243 1.393 . S
C1240 H1229 0.950 . S
C1240 C1238 1.391 . S
C1240 C1241 1.400 . S
C1241 C1235 1.491 . S
C1241 C1240 1.400 . S
C1241 C1242 1.398 . S
C1242 H1230 0.950 . S
C1242 C1241 1.398 . S
C1242 C1243 1.391 . S
C1243 H1231 0.950 . S
C1243 C1239 1.393 . S
C1243 C1242 1.391 . S
H1244 C1252 0.950 . S
H1245 C1257 0.950 . S
H1246 C1254 0.950 . S
H1247 C1256 0.950 . S
H1248 C1258 0.950 . S
H1249 C1260 0.950 . S
H1250 C1262 0.950 . S
H1251 C1263 0.950 . S
C1252 H1244 0.950 . S
C1252 C1253 1.386 . S
C1252 C1254 1.391 . S
C1253 C1252 1.386 . S
C1253 C1257 1.393 . S
C1254 H1246 0.950 . S
C1254 C1252 1.391 . S
C1254 C1255 1.400 . S
C1255 C1254 1.400 . S
C1255 C1256 1.398 . S
C1255 C1261 1.491 . S
C1256 H1247 0.950 . S
C1256 C1255 1.398 . S
C1256 C1257 1.391 . S
C1257 H1245 0.950 . S
C1257 C1253 1.393 . S
C1257 C1256 1.391 . S
C1258 H1248 0.950 . S
C1258 C1259 1.386 1_556 S
C1258 C1260 1.391 1_556 S
C1259 C1258 1.386 1_554 S
C1259 C1263 1.393 . S
C1260 H1249 0.950 . S
C1260 C1258 1.391 1_554 S
C1260 C1261 1.400 . S
C1261 C1255 1.491 . S
C1261 C1260 1.400 . S
C1261 C1262 1.398 . S
C1262 H1250 0.950 . S
C1262 C1261 1.398 . S
C1262 C1263 1.391 . S
C1263 H1251 0.950 . S
C1263 C1259 1.393 . S
C1263 C1262 1.391 . S
H1264 C1272 0.950 . S
H1265 C1277 0.950 . S
H1266 C1274 0.950 . S
H1267 C1276 0.950 . S
H1268 C1278 0.950 . S
H1269 C1280 0.950 . S
H1270 C1282 0.950 . S
H1271 C1283 0.950 . S
C1272 H1264 0.950 . S
C1272 C1273 1.386 . S
C1272 C1274 1.391 . S
C1273 C1272 1.386 . S
C1273 C1277 1.393 . S
C1274 H1266 0.950 . S
C1274 C1272 1.391 . S
C1274 C1275 1.400 . S
C1275 C1274 1.400 . S
C1275 C1276 1.398 . S
C1275 C1281 1.491 . S
C1276 H1267 0.950 . S
C1276 C1275 1.398 . S
C1276 C1277 1.391 . S
C1277 H1265 0.950 . S
C1277 C1273 1.393 . S
C1277 C1276 1.391 . S
C1278 H1268 0.950 . S
C1278 C1279 1.386 . S
C1278 C1280 1.391 . S
C1279 C1278 1.386 . S
C1279 C1283 1.393 . S
C1280 H1269 0.950 . S
C1280 C1278 1.391 . S
C1280 C1281 1.400 . S
C1281 C1275 1.491 . S
C1281 C1280 1.400 . S
C1281 C1282 1.398 . S
C1282 H1270 0.950 . S
C1282 C1281 1.398 . S
C1282 C1283 1.391 . S
C1283 H1271 0.950 . S
C1283 C1279 1.393 . S
C1283 C1282 1.391 . S
C819 C745 1.644 . S
C813 C15 1.620 . S
C833 C61 1.631 . S
C839 C305 1.658 . S
C853 C114 1.623 . S
C859 C393 1.646 . S
C873 C139 1.644 . S
C879 C472 1.648 . S
C899 C569 1.642 . S
C893 C185 1.636 . S
C913 C245 1.626 . S
C919 C648 1.648 . S
C933 C47 1.648 . S
C939 C413 1.653 . S
C953 C100 1.632 . S
C959 C509 1.642 . S
C973 C153 1.626 . S
C979 C589 1.648 . S
C999 C685 1.657 . S
C993 C199 1.628 . S
C1019 C765 1.644 . S
C1013 C231 1.632 . S
C1039 C325 1.658 . S
C1033 C1 1.650 . S
C1053 C22 1.458 . S
C1059 C421 1.454 . S
C1073 C68 1.465 . S
C1079 C501 1.463 . S
C1099 C597 1.455 . S
C1093 C107 1.460 . S
C1113 C146 1.463 . S
C1119 C677 1.464 1_556 S
C1139 C773 1.462 . S
C1133 C192 1.460 . S
C1159 C333 1.464 . S
C1153 C252 1.464 . S
C1179 C736 1.462 . S
C1173 C54 1.466 . S
C1193 C93 1.462 . S
C1199 C296 1.463 . S
C1219 C384 1.456 . S
C1213 C160 1.456 . S
C1233 C206 1.464 . S
C1239 C481 1.460 . S
C1253 C238 1.462 . S
C1259 C560 1.464 1_554 S
C1273 C8 1.462 . S
C1279 C657 1.464 . S
