# Generated by pormake.
# Topology zzz, (3,6)-cn, num edge types: 1
# Building blocks:
#     Node 0, Type 0, BuildingBlock: PAMTOO_clean_linker_0, # of connection points: 3
#     Node 1, Type 0, BuildingBlock: PAMTOO_clean_linker_0, # of connection points: 3
#     Node 2, Type 0, BuildingBlock: PAMTOO_clean_linker_0, # of connection points: 3
#     Node 3, Type 0, BuildingBlock: PAMTOO_clean_linker_0, # of connection points: 3
#     Node 4, Type 0, BuildingBlock: PAMTOO_clean_linker_0, # of connection points: 3
#     Node 5, Type 0, BuildingBlock: PAMTOO_clean_linker_0, # of connection points: 3
#     Node 6, Type 0, BuildingBlock: PAMTOO_clean_linker_0, # of connection points: 3
#     Node 7, Type 0, BuildingBlock: PAMTOO_clean_linker_0, # of connection points: 3
#     Node 8, Type 1, BuildingBlock: JUFBIX_clean_sbu_0, # of connection points: 6
#     Node 9, Type 1, BuildingBlock: JUFBIX_clean_sbu_0, # of connection points: 6
#     Node 10, Type 1, BuildingBlock: JUFBIX_clean_sbu_0, # of connection points: 6
#     Node 11, Type 1, BuildingBlock: JUFBIX_clean_sbu_0, # of connection points: 6
#     Edge 12, Type (0, 1), BuildingBlock: CIFDUS_clean_linker_0, # of connection points: 2
#     Edge 13, Type (0, 1), BuildingBlock: CIFDUS_clean_linker_0, # of connection points: 2
#     Edge 14, Type (0, 1), BuildingBlock: CIFDUS_clean_linker_0, # of connection points: 2
#     Edge 15, Type (0, 1), BuildingBlock: CIFDUS_clean_linker_0, # of connection points: 2
#     Edge 16, Type (0, 1), BuildingBlock: CIFDUS_clean_linker_0, # of connection points: 2
#     Edge 17, Type (0, 1), BuildingBlock: CIFDUS_clean_linker_0, # of connection points: 2
#     Edge 18, Type (0, 1), BuildingBlock: CIFDUS_clean_linker_0, # of connection points: 2
#     Edge 19, Type (0, 1), BuildingBlock: CIFDUS_clean_linker_0, # of connection points: 2
#     Edge 20, Type (0, 1), BuildingBlock: CIFDUS_clean_linker_0, # of connection points: 2
#     Edge 21, Type (0, 1), BuildingBlock: CIFDUS_clean_linker_0, # of connection points: 2
#     Edge 22, Type (0, 1), BuildingBlock: CIFDUS_clean_linker_0, # of connection points: 2
#     Edge 23, Type (0, 1), BuildingBlock: CIFDUS_clean_linker_0, # of connection points: 2
#     Edge 24, Type (0, 1), BuildingBlock: CIFDUS_clean_linker_0, # of connection points: 2
#     Edge 25, Type (0, 1), BuildingBlock: CIFDUS_clean_linker_0, # of connection points: 2
#     Edge 26, Type (0, 1), BuildingBlock: CIFDUS_clean_linker_0, # of connection points: 2
#     Edge 27, Type (0, 1), BuildingBlock: CIFDUS_clean_linker_0, # of connection points: 2
#     Edge 28, Type (0, 1), BuildingBlock: CIFDUS_clean_linker_0, # of connection points: 2
#     Edge 29, Type (0, 1), BuildingBlock: CIFDUS_clean_linker_0, # of connection points: 2
#     Edge 30, Type (0, 1), BuildingBlock: CIFDUS_clean_linker_0, # of connection points: 2
#     Edge 31, Type (0, 1), BuildingBlock: CIFDUS_clean_linker_0, # of connection points: 2
#     Edge 32, Type (0, 1), BuildingBlock: CIFDUS_clean_linker_0, # of connection points: 2
#     Edge 33, Type (0, 1), BuildingBlock: CIFDUS_clean_linker_0, # of connection points: 2
#     Edge 34, Type (0, 1), BuildingBlock: CIFDUS_clean_linker_0, # of connection points: 2
#     Edge 35, Type (0, 1), BuildingBlock: CIFDUS_clean_linker_0, # of connection points: 2
# Relax obj value: 0.114
# Max RMSD: 0.175
# Mean RMSD: 0.082
data_MOF--net-zzz--node1-JUFBIX_clean_sbu_0--node2-PAMTOO_clean_linker_0--edge1-CIFDUS_clean_linker_0
_symmetry_space_group_name_H-M    P1
_symmetry_Int_Tables_number       1
_symmetry_cell_setting            triclinic
loop_
_symmetry_equiv_pos_as_xyz
'x, y, z'
_cell_length_a     45.056469
_cell_length_b     44.821853
_cell_length_c     15.688358
_cell_angle_alpha  80.308545
_cell_angle_beta   90.160735
_cell_angle_gamma 91.725769
loop_
_atom_site_label
_atom_site_type_symbol
_atom_site_fract_x
_atom_site_fract_y
_atom_site_fract_z
_atom_type_partial_charge
H0 H 0.89486 0.51551 0.2982 0.0
H1 H 0.8154 0.52746 0.14644 0.0
H2 H 0.8141 0.53876 0.41368 0.0
H3 H 0.74437 0.5212 0.33365 0.0
C4 C 0.75988 0.51679 0.28258 0.0
O5 O 0.78198 0.5392 0.27176 0.0
H6 H 0.76907 0.49405 0.30606 0.0
C7 C 0.87126 0.51972 0.29382 0.0
C8 C 0.85635 0.52662 0.36588 0.0
C9 C 0.85678 0.51968 0.21497 0.0
C10 C 0.82676 0.52687 0.20762 0.0
C11 C 0.8112 0.53314 0.27953 0.0
C12 C 0.82607 0.53345 0.35861 0.0
H13 H 0.03246 0.84571 0.28562 0.0
H14 H 0.03214 0.7728 0.13909 0.0
H15 H 1.0045 0.75621 0.40575 0.0
H16 H 0.03142 0.69639 0.34022 0.0
C17 C 0.03295 0.70964 0.27371 0.0
O18 O 1.01193 0.7318 0.2647 0.0
H19 H 0.05586 0.71983 0.26576 0.0
C20 C 0.02987 0.82179 0.28241 0.0
C21 C 0.01934 0.8022 0.35565 0.0
C22 C 0.03471 0.81173 0.2039 0.0
C23 C 0.02894 0.78109 0.19928 0.0
C24 C 0.01846 0.76096 0.27204 0.0
C25 C 1.01336 0.77156 0.35032 0.0
H26 H 0.69864 0.03761 0.24362 0.0
H27 H 0.75888 0.02201 0.04435 0.0
H28 H 0.78812 1.01292 0.30856 0.0
H29 H 0.8264 0.05453 0.16804 0.0
C30 C 0.82392 0.04033 0.11651 0.0
O31 O 0.80539 1.01556 0.1458 0.0
H32 H 0.81365 0.05455 0.05969 0.0
C33 C 0.72039 0.03184 0.22333 0.0
C34 C 0.74217 0.02465 0.28639 0.0
C35 C 0.7252 0.02922 0.13676 0.0
C36 C 0.75414 0.02352 0.11108 0.0
C37 C 0.77725 0.01921 0.17225 0.0
C38 C 0.77089 0.01839 0.26068 0.0
H39 H 0.5387 0.65595 0.2196 0.0
H40 H 0.54507 0.73545 0.02396 0.0
H41 H 0.53836 0.74415 0.29289 0.0
H42 H 0.50333 0.7904 0.16709 0.0
C43 C 0.5166 0.78958 0.10786 0.0
O44 O 0.54215 0.77399 0.13177 0.0
H45 H 0.50293 0.77755 0.06426 0.0
C46 C 0.53932 0.68044 0.20163 0.0
C47 C 0.53854 0.69829 0.26638 0.0
C48 C 0.54147 0.69348 0.11446 0.0
C49 C 0.54322 0.72508 0.09138 0.0
C50 C 0.54157 0.74347 0.15541 0.0
C51 C 0.53922 0.73003 0.24336 0.0
H52 H 0.16986 0.52887 0.28871 0.0
H53 H 0.24886 0.53328 0.43914 0.0
H54 H 0.25532 0.53369 0.1646 0.0
H55 H 0.3146 0.5071 0.26972 0.0
C56 C 0.30353 0.51121 0.32973 0.0
O57 O 0.28581 0.53609 0.30862 0.0
H58 H 0.29 0.49048 0.35578 0.0
C59 C 0.19392 0.53042 0.29236 0.0
C60 C 0.21079 0.53094 0.21758 0.0
C61 C 0.20745 0.53136 0.37194 0.0
C62 C 0.23843 0.53277 0.37727 0.0
C63 C 0.25584 0.53379 0.30266 0.0
C64 C 0.24198 0.53299 0.22225 0.0
H65 H 0.02206 0.18529 0.31235 0.0
H66 H 1.01595 0.25923 0.45385 0.0
H67 H 0.04489 0.27573 0.18812 0.0
H68 H 0.07083 0.32738 0.29292 0.0
C69 C 0.06001 0.31367 0.35073 0.0
O70 O 0.03389 0.30075 0.32548 0.0
H71 H 0.07597 0.29602 0.3779 0.0
C72 C 0.02335 0.20936 0.31456 0.0
C73 C 0.03304 0.22918 0.24083 0.0
C74 C 0.01695 0.21965 0.39176 0.0
C75 C 0.02059 0.25069 0.39479 0.0
C76 C 0.03061 0.2709 0.3215 0.0
C77 C 0.03701 0.26013 0.24441 0.0
H78 H 0.35389 0.99402 0.3611 0.0
H79 H 0.29098 1.00174 0.56187 0.0
H80 H 0.26251 1.00941 0.2972 0.0
H81 H 0.22711 0.04336 0.39539 0.0
C82 C 0.23026 0.03101 0.4623 0.0
O83 O 0.2446 1.00439 0.45939 0.0
H84 H 0.24419 0.04572 0.498 0.0
C85 C 0.33152 0.99736 0.38196 0.0
C86 C 0.30935 1.00245 0.31923 0.0
C87 C 0.32597 0.99885 0.46897 0.0
C88 C 0.2963 1.00124 0.4949 0.0
C89 C 0.27323 1.00381 0.43341 0.0
C90 C 0.27997 1.00557 0.34505 0.0
H91 H 0.5418 0.37338 0.31074 0.0
H92 H 0.55015 0.29558 0.51072 0.0
H93 H 0.53215 0.28421 0.2476 0.0
H94 H 0.50417 0.23562 0.37021 0.0
C95 C 0.51692 0.23816 0.42949 0.0
O96 O 0.54222 0.25584 0.40646 0.0
H97 H 0.5024 0.24949 0.47091 0.0
C98 C 0.5411 0.34903 0.33173 0.0
C99 C 0.53566 0.33045 0.27011 0.0
C100 C 0.54588 0.33705 0.41886 0.0
C101 C 0.54634 0.30541 0.44381 0.0
C102 C 0.54135 0.28629 0.38213 0.0
C103 C 0.53586 0.29888 0.29511 0.0
Co104 Co 0.03352 0.02938 0.84764 0.0
C105 C 0.97405 1.01179 0.87278 0.0
Co106 Co 0.01679 1.00228 0.75117 0.0
C107 C 0.0331 0.07988 0.93757 0.0
C108 C 0.0735 0.05599 0.96101 0.0
N109 N 0.04701 0.05519 0.92113 0.0
N110 N 0.04986 0.0963 0.98534 0.0
C111 C 0.07532 0.08125 0.00055 0.0
H112 H 1.01142 0.08623 0.91214 0.0
H113 H 0.09064 0.0397 0.95955 0.0
C114 C 0.07639 0.02049 0.72711 0.0
N115 N 1.00345 0.97626 0.67756 0.0
C116 C 0.01771 0.95186 0.66024 0.0
C117 C 0.97689 0.97505 0.63831 0.0
N118 N 1.00112 0.93524 0.61251 0.0
C119 C 0.97539 0.94987 0.5983 0.0
C120 C 1.00885 0.06229 0.69694 0.0
O121 O 0.07113 0.03278 0.79259 0.0
O122 O 0.05551 1.0056 0.69675 0.0
O123 O 1.00463 0.03676 0.67299 0.0
O124 O 0.02099 0.06342 0.76944 0.0
O125 O 0.97839 0.99952 0.8064 0.0
H126 H 0.95949 0.99103 0.6404 0.0
H127 H 0.03957 0.94584 0.68499 0.0
O128 O 0.99558 0.02583 0.90265 0.0
O129 O 0.04618 0.99491 0.92507 0.0
O130 O 0.02889 0.9683 0.82969 0.0
C131 C 0.04156 0.96939 0.90142 0.0
H132 H 0.09389 0.08791 0.03777 0.0
H133 H 0.95684 0.94298 0.56138 0.0
Co134 Co 0.5102 0.02564 0.8517 0.0
C135 C 0.52154 0.9644 0.8791 0.0
Co136 Co 0.5404 1.01342 0.75287 0.0
C137 C 0.45734 0.01898 0.95378 0.0
C138 C 0.48038 0.06065 0.96422 0.0
N139 N 0.48241 0.03537 0.92886 0.0
N140 N 0.4396 0.03298 0.00266 0.0
C141 C 0.45403 0.05925 0.00963 0.0
H142 H 0.45176 0.99749 0.93404 0.0
H143 H 0.49668 0.07914 0.95604 0.0
C144 C 0.52813 0.07497 0.72829 0.0
N145 N 0.56816 1.00336 0.6756 0.0
C146 C 0.59378 0.01876 0.6502 0.0
C147 C 0.56929 0.97772 0.64163 0.0
N148 N 0.61103 1.00364 0.60263 0.0
C149 C 0.5956 0.97781 0.59685 0.0
C150 C 0.48218 1.01001 0.70523 0.0
O151 O 0.51297 0.06653 0.79673 0.0
O152 O 0.54233 0.05528 0.69622 0.0
O153 O 0.50828 1.00605 0.67921 0.0
O154 O 0.47861 0.01847 0.77755 0.0
O155 O 0.53781 0.97131 0.81179 0.0
H156 H 0.55241 0.95978 0.65063 0.0
H157 H 0.60013 0.04022 0.66895 0.0
O158 O 0.50761 0.98516 0.90593 0.0
O159 O 0.54226 0.03239 0.92608 0.0
O160 O 0.57195 0.02108 0.82612 0.0
C161 C 0.56838 0.02885 0.89936 0.0
H162 H 0.44624 0.07609 0.04559 0.0
H163 H 0.60273 0.96031 0.56228 0.0
Co164 Co 0.56856 0.51623 0.7757 0.0
C165 C 0.54077 0.46929 0.89058 0.0
Co166 Co 0.5198 0.51374 0.76384 0.0
C167 C 0.61985 0.52183 0.87874 0.0
C168 C 0.63315 0.51721 0.75106 0.0
N169 N 0.60894 0.51861 0.80043 0.0
N170 N 0.64977 0.52274 0.88066 0.0
C171 C 0.65835 0.51961 0.80046 0.0
H172 H 0.60599 0.52293 0.9343 0.0
H173 H 0.63253 0.51461 0.68376 0.0
C174 C 0.54948 0.56051 0.64862 0.0
N175 N 0.47932 0.51167 0.74147 0.0
C176 C 0.46652 0.51213 0.66328 0.0
C177 C 0.45643 0.50959 0.79754 0.0
N178 N 0.43659 0.51039 0.66807 0.0
C179 C 0.43013 0.5089 0.75257 0.0
C180 C 0.53596 0.5522 0.87161 0.0
O181 O 0.57272 0.54805 0.68186 0.0
O182 O 0.52406 0.5494 0.675 0.0
O183 O 0.5133 0.53899 0.84542 0.0
O184 O 0.56164 0.54559 0.84869 0.0
O185 O 0.51657 0.4779 0.85311 0.0
H186 H 0.45873 0.50852 0.86664 0.0
H187 H 0.47899 0.51405 0.60363 0.0
O188 O 0.56448 0.48453 0.8687 0.0
O189 O 0.57456 0.48682 0.70109 0.0
O190 O 0.52629 0.48873 0.68256 0.0
C191 C 0.55103 0.47837 0.66544 0.0
H192 H 0.68113 0.51951 0.77878 0.0
H193 H 0.40802 0.50685 0.78014 0.0
Co194 Co 0.03018 0.53699 0.80632 0.0
C195 C 0.07458 0.50892 0.9164 0.0
Co196 Co 0.03469 0.48782 0.80803 0.0
C197 C 0.02798 0.58972 0.88855 0.0
C198 C 0.02372 0.60151 0.75121 0.0
N199 N 0.02682 0.57766 0.81512 0.0
N200 N 0.02594 0.62019 0.87323 0.0
C201 C 0.02326 0.62766 0.78663 0.0
H202 H 0.03109 0.57639 0.95199 0.0
H203 H 0.02223 0.60002 0.68321 0.0
C204 C 0.99059 0.51478 0.69709 0.0
N205 N 0.03822 0.44716 0.80017 0.0
C206 C 0.04107 0.43501 0.72748 0.0
C207 C 0.03852 0.42338 0.8653 0.0
N208 N 0.04324 0.40455 0.74443 0.0
C209 C 0.04161 0.39722 0.83138 0.0
C210 C 0.99308 0.49983 0.92275 0.0
O211 O 0.99794 0.53911 0.72479 0.0
O212 O 1.00485 0.49096 0.7232 0.0
O213 O 1.00479 0.47794 0.89458 0.0
O214 O 1.00233 0.52675 0.89567 0.0
O215 O 0.0645 0.48484 0.89289 0.0
H216 H 0.03663 0.42498 0.9331 0.0
H217 H 0.04202 0.44844 0.66337 0.0
O218 O 0.06265 0.53401 0.88738 0.0
O219 O 0.05783 0.54706 0.71569 0.0
O220 O 0.0645 0.49835 0.72195 0.0
C221 C 0.0713 0.52569 0.69019 0.0
H222 H 0.02108 0.65039 0.75122 0.0
H223 H 0.04229 0.37456 0.86818 0.0
H224 H 0.20979 0.04938 0.60841 0.0
H225 H 0.18311 0.99847 0.41003 0.0
H226 H 0.13325 0.99005 0.47399 0.0
H227 H 0.0968 0.99841 0.58521 0.0
H228 H 0.12443 0.05026 0.78163 0.0
H229 H 0.17405 0.05703 0.7197 0.0
C230 C 0.1931 0.03628 0.57955 0.0
C231 C 0.20012 0.02443 0.50488 0.0
C232 C 0.16451 0.03182 0.61618 0.0
C233 C 0.17821 1.00765 0.46787 0.0
C234 C 0.14971 1.00293 0.50428 0.0
C235 C 0.11369 1.01115 0.61448 0.0
C236 C 0.10665 0.02385 0.68801 0.0
C237 C 0.1425 1.0151 0.57824 0.0
C238 C 0.12897 0.04025 0.725 0.0
C239 C 0.1575 0.04416 0.68965 0.0
H240 H 0.50752 0.21401 0.59937 0.0
H241 H 0.54376 0.19281 0.36378 0.0
H242 H 0.55251 0.14081 0.43594 0.0
H243 H 0.54667 0.10041 0.56447 0.0
H244 H 0.5088 0.12241 0.79789 0.0
H245 H 0.504 0.17481 0.72854 0.0
C246 C 0.51757 0.19806 0.56411 0.0
C247 C 0.52483 0.2071 0.47631 0.0
C248 C 0.52208 0.16821 0.60564 0.0
C249 C 0.53794 0.18625 0.43143 0.0
C250 C 0.54285 0.15654 0.47262 0.0
C251 C 0.53767 0.11675 0.60033 0.0
C252 C 0.52795 0.10729 0.68623 0.0
C253 C 0.53455 0.14707 0.55948 0.0
C254 C 0.51627 0.12886 0.73158 0.0
C255 C 0.51349 0.15894 0.69199 0.0
H256 H 0.36078 0.49286 0.34181 0.0
H257 H 0.2972 0.53958 0.47172 0.0
H258 H 0.33253 0.54323 0.5875 0.0
H259 H 0.38142 0.53234 0.65393 0.0
H260 H 0.44544 0.48619 0.52375 0.0
H261 H 0.41041 0.48352 0.40587 0.0
C262 C 0.35485 0.50421 0.39493 0.0
C263 C 0.32642 0.51625 0.39724 0.0
C264 C 0.37543 0.50629 0.46151 0.0
C265 C 0.31887 0.53031 0.46752 0.0
C266 C 0.33913 0.53239 0.53405 0.0
C267 C 0.38763 0.52161 0.5999 0.0
C268 C 0.41599 0.50943 0.59786 0.0
C269 C 0.36739 0.52026 0.53211 0.0
C270 C 0.42388 0.496 0.52662 0.0
C271 C 0.40379 0.49434 0.45934 0.0
H272 H 0.07138 0.30351 0.52445 0.0
H273 H 0.03386 0.36864 0.32271 0.0
H274 H 0.02468 0.4025 0.42678 0.0
H275 H 0.02827 0.41382 0.57469 0.0
H276 H 0.06742 0.34903 0.77519 0.0
H277 H 0.07474 0.31478 0.67251 0.0
C278 C 0.0612 0.32514 0.5035 0.0
C279 C 0.05357 0.33381 0.41606 0.0
C280 C 0.05627 0.34452 0.56351 0.0
C281 C 0.04009 0.36169 0.3897 0.0
C282 C 0.03489 0.381 0.44912 0.0
C283 C 0.03864 0.39236 0.59597 0.0
C284 C 0.04726 0.38421 0.68307 0.0
C285 C 0.04313 0.37278 0.53611 0.0
C286 C 0.06017 0.35592 0.70923 0.0
C287 C 0.06456 0.3363 0.65027 0.0
H288 H 0.83819 1.01552 0.97425 0.0
H289 H 0.87732 0.04493 0.19813 0.0
H290 H 0.927 0.03736 0.14479 0.0
H291 H 0.95949 0.02633 0.02902 0.0
H292 H 0.92076 0.99627 0.80513 0.0
H293 H 0.87101 0.99997 0.86378 0.0
C294 C 0.85764 0.01974 0.01181 0.0
C295 C 0.85409 0.03097 0.08969 0.0
C296 C 0.88627 1.01554 0.98026 0.0
C297 C 0.87945 0.03637 0.13791 0.0
C298 C 0.90788 0.03218 0.10721 0.0
C299 C 0.94019 0.02034 0.99328 0.0
C300 C 0.94396 1.01129 0.91228 0.0
C301 C 0.9116 0.02244 0.02753 0.0
C302 C 0.91862 1.00334 0.86748 0.0
C303 C 0.89009 1.00553 0.90093 0.0
H304 H 0.49003 0.84147 0.12746 0.0
H305 H 0.55742 0.80804 0.97713 0.0
H306 H 0.56525 0.8589 0.89187 0.0
H307 H 0.5519 0.91323 0.85863 0.0
H308 H 0.48333 0.94474 0.01087 0.0
H309 H 0.47706 0.8946 0.09585 0.0
C310 C 0.50674 0.84542 0.07686 0.0
C311 C 0.52366 0.82124 0.06015 0.0
C312 C 0.51076 0.87448 0.02766 0.0
C313 C 0.54463 0.8265 0.99261 0.0
C314 C 0.54894 0.85553 0.9435 0.0
C315 C 0.5356 0.90906 0.9103 0.0
C316 C 0.51821 0.93297 0.92791 0.0
C317 C 0.53199 0.87977 0.96009 0.0
C318 C 0.49719 0.92703 -0.00453 0.0
C319 C 0.49351 0.89824 0.04455 0.0
H320 H 0.70924 0.54586 0.22735 0.0
H321 H 0.77418 0.48706 0.14997 0.0
H322 H 0.74694 0.48509 0.01541 0.0
H323 H 0.70303 0.49821 0.92298 0.0
H324 H 0.6375 0.5558 0.00405 0.0
H325 H 0.66626 0.55998 0.13374 0.0
C326 C 0.71737 0.53267 0.18081 0.0
C327 C 0.74346 0.51639 0.19864 0.0
C328 C 0.70133 0.53128 0.10446 0.0
C329 C 0.75403 0.49964 0.1376 0.0
C330 C 0.73843 0.49847 0.06086 0.0
C331 C 0.69529 0.51191 0.96863 0.0
C332 C 0.66805 0.52649 0.95408 0.0
C333 C 0.71185 0.51395 0.04393 0.0
C334 C 0.65814 0.54398 0.01431 0.0
C335 C 0.67464 0.54648 0.08838 0.0
H336 H 0.04606 0.72198 0.10149 0.0
H337 H 1.00855 0.65194 0.29659 0.0
H338 H 1.00267 0.61812 0.18984 0.0
H339 H 1.00932 0.60809 0.04139 0.0
H340 H 0.04675 0.67836 0.84621 0.0
H341 H 0.05121 0.71248 0.95181 0.0
C342 C 0.03648 0.69935 0.12023 0.0
C343 C 0.02804 0.68933 0.20682 0.0
C344 C 0.03316 0.68006 0.05843 0.0
C345 C 1.01544 0.66004 0.23045 0.0
C346 C 1.01211 0.64071 0.16944 0.0
C347 C 0.0186 0.6308 0.02205 0.0
C348 C 0.02777 0.64051 0.93575 0.0
C349 C 0.02115 0.65037 0.08337 0.0
C350 C 0.03924 0.67029 0.9117 0.0
C351 C 0.04195 0.68981 0.97229 0.0
H352 H 0.98043 0.16991 0.4002 0.0
H353 H 0.03715 0.21774 0.55749 0.0
H354 H 0.03579 0.1736 0.67255 0.0
H355 H 0.02599 0.11914 0.71658 0.0
H356 H 0.97508 0.06947 0.55011 0.0
H357 H 0.96738 0.11644 0.44911 0.0
C358 C 0.99229 0.17078 0.46006 0.0
C359 C 1.00944 0.19684 0.4694 0.0
C360 C 0.99313 0.14471 0.52311 0.0
C361 C 0.0238 0.19802 0.54841 0.0
C362 C 0.02341 0.1726 0.61372 0.0
C363 C 1.01287 0.11859 0.65874 0.0
C364 C 1.00146 0.0908 0.64012 0.0
C365 C 1.00936 0.14544 0.59986 0.0
C366 C 0.98442 0.09052 0.56521 0.0
C367 C 0.97994 0.11735 0.50768 0.0
H368 H 0.38122 0.02376 0.42918 0.0
H369 H 0.32948 0.97657 0.64484 0.0
H370 H 0.37333 0.97625 0.73766 0.0
H371 H 0.42702 0.98812 0.75548 0.0
H372 H 0.47895 0.02765 0.532 0.0
H373 H 0.4344 0.03033 0.44214 0.0
C374 C 0.37937 1.0123 0.49559 0.0
C375 C 0.35187 0.99948 0.52876 0.0
C376 C 0.40491 1.01036 0.54669 0.0
C377 C 0.35011 0.98669 0.61695 0.0
C378 C 0.37531 0.98618 0.66992 0.0
C379 C 0.42851 0.99691 0.68678 0.0
C380 C 0.45611 1.00763 0.64991 0.0
C381 C 0.4029 0.99766 0.63512 0.0
C382 C 0.45798 0.01896 0.5612 0.0
C383 C 0.43251 0.02076 0.51019 0.0
H384 H 0.51433 0.38659 0.42404 0.0
H385 H 0.58638 0.33617 0.55246 0.0
H386 H 0.59625 0.37658 0.63825 0.0
H387 H 0.58469 0.42765 0.67276 0.0
H388 H 0.51481 0.47784 0.53047 0.0
H389 H 0.50498 0.43685 0.45033 0.0
C390 C 0.53249 0.38447 0.47005 0.0
C391 C 0.54987 0.35862 0.48078 0.0
C392 C 0.53893 0.4082 0.51496 0.0
C393 C 0.57256 0.3558 0.54311 0.0
C394 C 0.57847 0.3791 0.59118 0.0
C395 C 0.5679 0.42976 0.62264 0.0
C396 C 0.55058 0.45578 0.60722 0.0
C397 C 0.56209 0.40574 0.5765 0.0
C398 C 0.52845 0.45808 0.54336 0.0
C399 C 0.52261 0.43455 0.49798 0.0
H400 H 0.16441 0.56948 0.39486 0.0
H401 H 0.20731 0.48885 0.51759 0.0
H402 H 0.16852 0.47999 0.62911 0.0
H403 H 0.12012 0.4929 0.68279 0.0
H404 H 0.07791 0.57433 0.56168 0.0
H405 H 0.11866 0.58517 0.45713 0.0
C406 C 0.16547 0.55035 0.44724 0.0
C407 C 0.18838 0.52975 0.44862 0.0
C408 C 0.143 0.54528 0.50979 0.0
C409 C 0.18987 0.50504 0.51626 0.0
C410 C 0.16757 0.49983 0.57913 0.0
C411 C 0.1199 0.51298 0.63331 0.0
C412 C 0.09594 0.53252 0.62833 0.0
C413 C 0.14361 0.51933 0.57493 0.0
C414 C 0.0961 0.55887 0.56578 0.0
C415 C 0.11936 0.5651 0.50636 0.0
H416 H 0.07214 0.86107 0.19352 0.0
H417 H 1.01321 0.81424 0.03919 0.0
H418 H 1.01419 0.85846 0.92501 0.0
H419 H 0.02399 0.91279 0.88176 0.0
H420 H 0.07657 0.96189 0.04596 0.0
H421 H 0.08502 0.91465 0.14518 0.0
C422 C 0.05963 0.86044 0.13463 0.0
C423 C 0.04199 0.8346 0.12611 0.0
C424 C 0.05844 0.88667 0.07226 0.0
C425 C 0.02694 0.83373 0.04792 0.0
C426 C 0.02711 0.85923 0.98304 0.0
C427 C 0.03761 0.91318 0.93873 0.0
C428 C 0.04927 0.94085 0.95735 0.0
C429 C 0.0415 0.88622 -0.00337 0.0
C430 C 0.067 0.94092 0.03102 0.0
C431 C 0.07191 0.91393 0.08748 0.0
H432 H 0.66832 1.00977 0.17747 0.0
H433 H 0.72285 0.05107 0.9606 0.0
H434 H 0.67889 0.05475 0.86759 0.0
H435 H 0.62459 0.04706 0.84965 0.0
H436 H 0.57055 1.01285 0.07349 0.0
H437 H 0.61487 1.00759 0.16414 0.0
C438 C 0.67084 0.02067 0.11069 0.0
C439 C 0.69911 0.0308 0.07716 0.0
C440 C 0.64542 0.02451 0.05935 0.0
C441 C 0.70159 0.04296 0.98868 0.0
C442 C 0.67637 0.04541 0.93561 0.0
C443 C 0.62259 0.03891 0.91859 0.0
C444 C 0.59444 0.03037 0.95526 0.0
C445 C 0.64814 0.03649 0.97057 0.0
C446 C 0.59195 0.01987 0.04433 0.0
C447 C 0.61729 1.01656 0.09583 0.0
H448 H 0.50105 0.64991 0.09494 0.0
H449 H 0.5842 0.69073 0.99339 0.0
H450 H 0.59025 0.64976 0.90949 0.0
H451 H 0.57339 0.6004 0.87437 0.0
H452 H 0.48969 0.5603 0.97526 0.0
H453 H 0.48252 0.60271 0.05198 0.0
C454 C 0.52022 0.65001 0.05314 0.0
C455 C 0.5422 0.67307 0.05001 0.0
C456 C 0.52373 0.62623 0.007 0.0
C457 C 0.56692 0.67327 -0.00421 0.0
C458 C 0.57053 0.64969 0.94892 0.0
C459 C 0.55371 0.6009 0.91373 0.0
C460 C 0.53233 0.57708 0.92068 0.0
C461 C 0.54943 0.62566 0.9559 0.0
C462 C 0.50656 0.57827 0.96988 0.0
C463 C 0.50239 0.60254 0.01328 0.0
H464 H 0.89366 0.47363 0.20699 0.0
H465 H 0.86025 0.55523 0.05679 0.0
H466 H 0.89893 0.55458 0.94824 0.0
H467 H 0.94606 0.53507 0.90815 0.0
H468 H 0.98037 0.45381 0.05738 0.0
H469 H 0.93748 0.45003 0.15555 0.0
C470 C 0.89455 0.49085 0.14938 0.0
C471 C 0.8745 0.51467 0.13998 0.0
C472 C 0.91729 0.49074 0.08876 0.0
C473 C 0.87542 0.53667 0.06497 0.0
C474 C 0.89773 0.5365 0.00363 0.0
C475 C 0.94403 0.51645 0.96206 0.0
C476 C 0.9665 0.49518 0.97761 0.0
C477 C 0.91943 0.5144 0.01694 0.0
C478 C 0.96338 0.4706 0.04548 0.0
C479 C 0.93894 0.46848 0.10123 0.0
H480 H 0.99498 0.19958 0.15062 0.0
H481 H 0.08719 0.22607 0.166 0.0
H482 H 0.10085 0.18776 0.07947 0.0
H483 H 0.08686 0.1414 0.02067 0.0
H484 H 0.99445 0.1134 0.01619 0.0
H485 H 0.98052 0.1575 0.07683 0.0
C486 C 0.01794 0.19769 0.13192 0.0
C487 C 0.04007 0.21558 0.16396 0.0
C488 C 0.02562 0.17471 0.08628 0.0
C489 C 0.06979 0.21281 0.14076 0.0
C490 C 0.0776 0.19053 0.09275 0.0
C491 C 0.06369 0.14503 0.0327 0.0
C492 C 0.04179 0.12379 0.01488 0.0
C493 C 0.0558 0.17038 0.06888 0.0
C494 C 1.01178 0.12928 0.02895 0.0
C495 C 1.00377 0.15451 0.06394 0.0
H496 H 0.33737 0.96507 0.22987 0.0
H497 H 0.30675 0.056 0.21009 0.0
H498 H 0.34422 0.07396 0.09927 0.0
H499 H 0.39227 0.06526 0.03297 0.0
H500 H 0.4243 0.97446 0.06092 0.0
H501 H 0.38005 0.95496 0.1435 0.0
C502 C 0.33799 0.98852 0.19789 0.0
C503 C 0.31952 1.00923 0.22821 0.0
C504 C 0.36073 0.99889 0.13827 0.0
C505 C 0.32057 0.03961 0.18718 0.0
C506 C 0.34249 0.04998 0.12528 0.0
C507 C 0.38934 0.0412 0.05648 0.0
C508 C 0.41182 0.02142 0.04233 0.0
C509 C 0.36384 0.03013 0.10461 0.0
C510 C 0.40742 0.99017 0.07119 0.0
C511 C 0.38211 0.979 0.11856 0.0
H512 H 0.57795 0.35756 0.16449 0.0
H513 H 0.48356 0.34081 0.18156 0.0
H514 H 0.47598 0.3823 0.06005 0.0
H515 H 0.49649 0.42815 0.96224 0.0
H516 H 0.59146 0.44563 0.96055 0.0
H517 H 0.59835 0.39979 0.06261 0.0
C518 C 0.55584 0.36224 0.13896 0.0
C519 C 0.53144 0.34588 0.18018 0.0
C520 C 0.55166 0.38716 0.07357 0.0
C521 C 0.50274 0.35265 0.14894 0.0
C522 C 0.49841 0.3768 0.08076 0.0
C523 C 0.51862 0.42183 0.98418 0.0
C524 C 0.54326 0.4408 0.95403 0.0
C525 C 0.52268 0.39509 0.04488 0.0
C526 C 0.57187 0.43197 0.98285 0.0
C527 C 0.57602 0.40548 0.04112 0.0
H528 H 0.17986 0.48276 0.18091 0.0
H529 H 0.20245 0.57601 0.08073 0.0
H530 H 0.16161 0.57765 0.97626 0.0
H531 H 0.11584 0.55396 0.92623 0.0
H532 H 0.09343 0.46061 0.02954 0.0
H533 H 0.13749 0.45764 0.12111 0.0
C534 C 0.17645 0.50305 0.13381 0.0
C535 C 0.19426 0.52909 0.13718 0.0
C536 C 0.15234 0.50406 0.07678 0.0
C537 C 0.18938 0.55554 0.07765 0.0
C538 C 0.16569 0.5566 0.01923 0.0
C539 C 0.12062 0.53303 0.96903 0.0
C540 C 0.1011 0.50771 0.97245 0.0
C541 C 0.14634 0.53132 0.02057 0.0
C542 C 0.10792 0.48051 0.02652 0.0
C543 C 0.13319 0.47873 0.07853 0.0
H544 H 0.05724 0.83305 0.44412 0.0
H545 H 0.96539 0.80468 0.43261 0.0
H546 H 0.95138 0.84288 0.51904 0.0
H547 H 0.96475 0.88953 0.57741 0.0
H548 H 0.05673 0.91924 0.57904 0.0
H549 H 0.0712 0.87554 0.51714 0.0
C550 C 0.03429 0.83453 0.46345 0.0
C551 C 1.01237 0.81608 0.4324 0.0
C552 C 0.02636 0.85745 0.50923 0.0
C553 C 0.98268 0.81833 0.45685 0.0
C554 C 0.97465 0.84057 0.50484 0.0
C555 C 0.98795 0.88637 0.56449 0.0
C556 C 1.00955 0.90798 0.58198 0.0
C557 C 0.99616 0.86119 0.52778 0.0
C558 C 0.03961 0.90308 0.56662 0.0
C559 C 0.04793 0.87807 0.5309 0.0
H560 H 0.71645 0.06434 0.37374 0.0
H561 H 0.7416 0.9714 0.39817 0.0
H562 H 0.70355 0.95639 0.50931 0.0
H563 H 0.65649 0.9684 0.57497 0.0
H564 H 0.62971 0.06116 0.54253 0.0
H565 H 0.6747 0.07757 0.45918 0.0
C566 C 0.71451 0.04105 0.40665 0.0
C567 C 0.73166 0.01898 0.37746 0.0
C568 C 0.6914 0.0324 0.46654 0.0
C569 C 0.72888 0.98884 0.41997 0.0
C570 C 0.70661 0.98016 0.48212 0.0
C571 C 0.66069 0.99222 0.55034 0.0
C572 C 0.63943 1.01345 0.56344 0.0
C573 C 0.68658 1.00148 0.50171 0.0
C574 C 0.64557 0.04434 0.53312 0.0
C575 C 0.67131 0.05374 0.48526 0.0
H576 H 0.58343 0.66916 0.35159 0.0
H577 H 0.49125 0.68853 0.3768 0.0
H578 H 0.48624 0.64732 0.50123 0.0
H579 H 0.50697 0.60167 0.59057 0.0
H580 H 0.59918 0.58211 0.55879 0.0
H581 H 0.60522 0.6271 0.4488 0.0
C582 C 0.56258 0.66504 0.38672 0.0
C583 C 0.53789 0.68207 0.35655 0.0
C584 C 0.55966 0.6406 0.45518 0.0
C585 C 0.51071 0.67614 0.40054 0.0
C586 C 0.50775 0.65222 0.4705 0.0
C587 C 0.52836 0.60731 0.55958 0.0
C588 C 0.55246 0.58821 0.58214 0.0
C589 C 0.53182 0.63353 0.49622 0.0
C590 C 0.58017 0.59617 0.54234 0.0
C591 C 0.58373 0.62202 0.47957 0.0
H592 H 0.88982 0.48219 0.44694 0.0
H593 H 0.86344 0.57282 0.46008 0.0
H594 H 0.9027 0.5775 0.56675 0.0
H595 H 0.94808 0.55712 0.64469 0.0
H596 H 0.97481 0.46715 0.61967 0.0
H597 H 0.93247 0.46128 0.52794 0.0
C598 C 0.89232 0.50277 0.47454 0.0
C599 C 0.87389 0.52712 0.44583 0.0
C600 C 0.91561 0.50571 0.53198 0.0
C601 C 0.8772 0.55364 0.48203 0.0
C602 C 0.89995 0.55645 0.54187 0.0
C603 C 0.94463 0.53632 0.61887 0.0
C604 C 0.96489 0.51277 0.63872 0.0
C605 C 0.91996 0.53296 0.56516 0.0
C606 C 0.95983 0.48579 0.60544 0.0
C607 C 0.93547 0.48226 0.5531 0.0
loop_
_geom_bond_atom_site_label_1
_geom_bond_atom_site_label_2
_geom_bond_distance
_geom_bond_site_symmetry_2
_ccdc_geom_bond_type
H0 C7 0.929 . S
H1 C10 0.930 . S
H2 C12 0.929 . S
H3 C4 0.969 . S
C4 H3 0.969 . S
C4 O5 1.550 . S
C4 H6 0.973 . S
O5 C4 1.550 . S
O5 C11 1.412 . S
H6 C4 0.973 . S
C7 H0 0.929 . S
C7 C8 1.400 . S
C7 C9 1.364 . S
C8 C7 1.400 . S
C8 C12 1.377 . S
C9 C7 1.364 . S
C9 C10 1.374 . S
C10 H1 0.930 . S
C10 C9 1.374 . S
C10 C11 1.383 . S
C11 O5 1.412 . S
C11 C10 1.383 . S
C11 C12 1.394 . S
C12 H2 0.929 . S
C12 C8 1.377 . S
C12 C11 1.394 . S
H13 C20 0.929 . S
H14 C23 0.930 1_556 S
H15 C25 0.929 . S
H16 C17 0.969 . S
C17 H16 0.969 . S
C17 O18 1.550 . S
C17 H19 0.973 1_554 S
O18 C17 1.550 . S
O18 C24 1.412 . S
H19 C17 0.973 1_556 S
C20 H13 0.929 . S
C20 C21 1.400 . S
C20 C22 1.364 . S
C21 C20 1.400 . S
C21 C25 1.377 . S
C22 C20 1.364 . S
C22 C23 1.374 . S
C23 H14 0.930 1_554 S
C23 C22 1.374 . S
C23 C24 1.383 . S
C24 O18 1.412 . S
C24 C23 1.383 . S
C24 C25 1.394 . S
C25 H15 0.929 . S
C25 C21 1.377 . S
C25 C24 1.394 . S
H26 C33 0.929 1_565 S
H27 C36 0.932 . S
H28 C38 0.931 1_565 S
H29 C30 0.969 . S
C30 H29 0.969 . S
C30 O31 1.550 1_546 S
C30 H32 0.973 1_545 S
O31 C30 1.550 1_564 S
O31 C37 1.403 1_565 S
H32 C30 0.973 1_565 S
C33 H26 0.929 1_545 S
C33 C34 1.398 . S
C33 C35 1.365 . S
C34 C33 1.398 . S
C34 C38 1.376 . S
C35 C33 1.365 . S
C35 C36 1.374 1_544 S
C36 H27 0.932 . S
C36 C35 1.374 1_566 S
C36 C37 1.378 1_566 S
C37 O31 1.403 1_545 S
C37 C36 1.378 1_544 S
C37 C38 1.399 . S
C38 H28 0.931 1_545 S
C38 C34 1.376 . S
C38 C37 1.399 . S
H39 C46 0.929 . S
H40 C49 0.930 . S
H41 C51 0.929 . S
H42 C43 0.969 . S
C43 H42 0.969 . S
C43 O44 1.550 . S
C43 H45 0.973 1_554 S
O44 C43 1.550 . S
O44 C50 1.412 . S
H45 C43 0.973 1_556 S
C46 H39 0.929 . S
C46 C47 1.400 . S
C46 C48 1.364 . S
C47 C46 1.400 . S
C47 C51 1.377 . S
C48 C46 1.364 . S
C48 C49 1.374 . S
C49 H40 0.930 . S
C49 C48 1.374 . S
C49 C50 1.383 . S
C50 O44 1.412 . S
C50 C49 1.383 . S
C50 C51 1.394 . S
C51 H41 0.929 . S
C51 C47 1.377 . S
C51 C50 1.394 . S
H52 C59 0.929 . S
H53 C62 0.930 . S
H54 C64 0.929 . S
H55 C56 0.969 . S
C56 H55 0.969 . S
C56 O57 1.550 . S
C56 H58 0.973 . S
O57 C56 1.550 . S
O57 C63 1.412 . S
H58 C56 0.973 . S
C59 H52 0.929 . S
C59 C60 1.400 . S
C59 C61 1.364 . S
C60 C59 1.400 . S
C60 C64 1.377 . S
C61 C59 1.364 . S
C61 C62 1.374 . S
C62 H53 0.930 . S
C62 C61 1.374 . S
C62 C63 1.383 . S
C63 O57 1.412 . S
C63 C62 1.383 . S
C63 C64 1.394 . S
C64 H54 0.929 . S
C64 C60 1.377 . S
C64 C63 1.394 . S
H65 C72 0.929 . S
H66 C75 0.930 . S
H67 C77 0.929 . S
H68 C69 0.969 . S
C69 H68 0.969 . S
C69 O70 1.550 . S
C69 H71 0.973 . S
O70 C69 1.550 . S
O70 C76 1.412 . S
H71 C69 0.973 . S
C72 H65 0.929 . S
C72 C73 1.400 . S
C72 C74 1.364 . S
C73 C72 1.400 . S
C73 C77 1.377 . S
C74 C72 1.364 . S
C74 C75 1.374 . S
C75 H66 0.930 . S
C75 C74 1.374 . S
C75 C76 1.383 . S
C76 O70 1.412 . S
C76 C75 1.383 . S
C76 C77 1.394 . S
C77 H67 0.929 . S
C77 C73 1.377 . S
C77 C76 1.394 . S
H78 C85 0.928 1_565 S
H79 C88 0.936 . S
H80 C90 0.926 1_565 S
H81 C82 0.969 . S
C82 H81 0.969 . S
C82 O83 1.550 1_545 S
C82 H84 0.973 1_545 S
O83 C82 1.550 1_565 S
O83 C89 1.403 1_565 S
H84 C82 0.973 1_565 S
C85 H78 0.928 1_545 S
C85 C86 1.401 . S
C85 C87 1.363 . S
C86 C85 1.401 . S
C86 C90 1.378 . S
C87 C85 1.363 . S
C87 C88 1.375 1_545 S
C88 H79 0.936 . S
C88 C87 1.375 1_565 S
C88 C89 1.387 1_565 S
C89 O83 1.403 1_545 S
C89 C88 1.387 1_545 S
C89 C90 1.389 . S
C90 H80 0.926 1_545 S
C90 C86 1.378 . S
C90 C89 1.389 . S
H91 C98 0.929 . S
H92 C101 0.930 . S
H93 C103 0.929 . S
H94 C95 0.969 . S
C95 H94 0.969 . S
C95 O96 1.550 . S
C95 H97 0.973 . S
O96 C95 1.550 . S
O96 C102 1.412 . S
H97 C95 0.973 . S
C98 H91 0.929 . S
C98 C99 1.400 . S
C98 C100 1.364 . S
C99 C98 1.400 . S
C99 C103 1.377 . S
C100 C98 1.364 . S
C100 C101 1.374 . S
C101 H92 0.930 . S
C101 C100 1.374 . S
C101 C102 1.383 . S
C102 O96 1.412 . S
C102 C101 1.383 . S
C102 C103 1.394 . S
C103 H93 0.929 . S
C103 C99 1.377 . S
C103 C102 1.394 . S
Co104 N109 2.057 . S
Co104 O121 2.021 . S
Co104 O124 2.062 . S
Co104 O128 2.117 1_455 S
Co104 O129 2.020 1_545 S
C105 O125 1.259 1_545 S
C105 O128 1.258 . S
Co106 N115 2.057 . S
Co106 O122 2.117 . S
Co106 O123 2.020 1_565 S
Co106 O125 2.021 1_455 S
Co106 O130 2.062 . S
C107 N109 1.316 1_554 S
C107 N110 1.347 . S
C107 H112 0.928 1_554 S
C108 N109 1.375 1_554 S
C108 C111 1.350 . S
C108 H113 0.930 1_455 S
N109 Co104 2.057 . S
N109 C107 1.316 1_556 S
N109 C108 1.375 1_556 S
N110 C107 1.347 . S
N110 C111 1.373 . S
C111 C108 1.350 . S
C111 N110 1.373 . S
C111 H132 0.931 1_455 S
H112 C107 0.928 1_556 S
H113 C108 0.930 1_655 S
C114 O121 1.259 1_565 S
C114 O122 1.258 . S
N115 Co106 2.057 . S
N115 C116 1.316 1_455 S
N115 C117 1.375 . S
C116 N115 1.316 1_655 S
C116 N118 1.347 . S
C116 H127 0.931 . S
C117 N115 1.375 . S
C117 C119 1.350 . S
C117 H126 0.930 . S
N118 C116 1.347 . S
N118 C119 1.373 1_655 S
C119 C117 1.350 . S
C119 N118 1.373 1_455 S
C119 H133 0.931 . S
C120 O123 1.256 . S
C120 O124 1.255 . S
O121 Co104 2.021 . S
O121 C114 1.259 1_545 S
O122 Co106 2.117 . S
O122 C114 1.258 . S
O123 Co106 2.020 1_545 S
O123 C120 1.256 . S
O124 Co104 2.062 . S
O124 C120 1.255 . S
O125 C105 1.259 1_565 S
O125 Co106 2.021 1_655 S
H126 C117 0.930 . S
H127 C116 0.931 . S
O128 Co104 2.117 1_655 S
O128 C105 1.258 . S
O129 Co104 2.020 1_565 S
O129 C131 1.256 . S
O130 Co106 2.062 . S
O130 C131 1.255 . S
C131 O129 1.256 . S
C131 O130 1.255 . S
H132 C111 0.931 1_655 S
H133 C119 0.931 . S
Co134 N139 2.057 1_545 S
Co134 O151 2.021 . S
Co134 O154 2.069 . S
Co134 O158 2.117 1_545 S
Co134 O159 2.020 . S
C135 O155 1.259 . S
C135 O158 1.258 . S
Co136 N145 2.057 1_565 S
Co136 O152 2.117 1_565 S
Co136 O153 2.020 . S
Co136 O155 2.021 . S
Co136 O160 2.067 . S
C137 N139 1.316 1_544 S
C137 N140 1.347 . S
C137 H142 0.930 1_554 S
C138 N139 1.375 1_554 S
C138 C141 1.350 . S
C138 H143 0.930 . S
N139 Co134 2.057 1_565 S
N139 C137 1.316 1_566 S
N139 C138 1.375 1_556 S
N140 C137 1.347 . S
N140 C141 1.373 1_545 S
C141 C138 1.350 . S
C141 N140 1.373 1_565 S
C141 H162 0.931 . S
H142 C137 0.930 1_556 S
H143 C138 0.930 . S
C144 O151 1.259 . S
C144 O152 1.258 . S
N145 Co136 2.057 1_545 S
N145 C146 1.316 1_545 S
N145 C147 1.375 . S
C146 N145 1.316 1_565 S
C146 N148 1.347 . S
C146 H157 0.931 . S
C147 N145 1.375 . S
C147 C149 1.350 . S
C147 H156 0.930 . S
N148 C146 1.347 . S
N148 C149 1.373 1_565 S
C149 C147 1.350 . S
C149 N148 1.373 1_545 S
C149 H163 0.931 . S
C150 O153 1.256 . S
C150 O154 1.242 1_565 S
O151 Co134 2.021 . S
O151 C144 1.259 . S
O152 Co136 2.117 1_545 S
O152 C144 1.258 . S
O153 Co136 2.020 . S
O153 C150 1.256 . S
O154 Co134 2.069 . S
O154 C150 1.242 1_545 S
O155 C135 1.259 . S
O155 Co136 2.021 . S
H156 C147 0.930 . S
H157 C146 0.931 . S
O158 Co134 2.117 1_565 S
O158 C135 1.258 . S
O159 Co134 2.020 . S
O159 C161 1.256 . S
O160 Co136 2.067 . S
O160 C161 1.245 1_565 S
C161 O159 1.256 . S
C161 O160 1.245 1_545 S
H162 C141 0.931 . S
H163 C149 0.931 . S
Co164 N169 2.057 . S
Co164 O181 2.021 . S
Co164 O184 2.062 . S
Co164 O188 2.117 . S
Co164 O189 2.020 . S
C165 O185 1.259 . S
C165 O188 1.258 . S
Co166 N175 2.057 . S
Co166 O182 2.117 . S
Co166 O183 2.020 . S
Co166 O185 2.021 . S
Co166 O190 2.062 . S
C167 N169 1.316 . S
C167 N170 1.347 . S
C167 H172 0.931 . S
C168 N169 1.375 . S
C168 C171 1.350 . S
C168 H173 0.930 . S
N169 Co164 2.057 . S
N169 C167 1.316 . S
N169 C168 1.375 . S
N170 C167 1.347 . S
N170 C171 1.373 . S
C171 C168 1.350 . S
C171 N170 1.373 . S
C171 H192 0.931 1_556 S
H172 C167 0.931 . S
H173 C168 0.930 . S
C174 O181 1.259 . S
C174 O182 1.258 . S
N175 Co166 2.057 . S
N175 C176 1.316 . S
N175 C177 1.375 . S
C176 N175 1.316 . S
C176 N178 1.347 . S
C176 H187 0.931 . S
C177 N175 1.375 . S
C177 C179 1.350 . S
C177 H186 0.930 . S
N178 C176 1.347 . S
N178 C179 1.373 . S
C179 C177 1.350 . S
C179 N178 1.373 . S
C179 H193 0.931 . S
C180 O183 1.256 . S
C180 O184 1.255 . S
O181 Co164 2.021 . S
O181 C174 1.259 . S
O182 Co166 2.117 . S
O182 C174 1.258 . S
O183 Co166 2.020 . S
O183 C180 1.256 . S
O184 Co164 2.062 . S
O184 C180 1.255 . S
O185 C165 1.259 . S
O185 Co166 2.021 . S
H186 C177 0.930 . S
H187 C176 0.931 . S
O188 Co164 2.117 . S
O188 C165 1.258 . S
O189 Co164 2.020 . S
O189 C191 1.256 . S
O190 Co166 2.062 . S
O190 C191 1.255 . S
C191 O189 1.256 . S
C191 O190 1.255 . S
H192 C171 0.931 1_554 S
H193 C179 0.931 . S
Co194 N199 2.057 . S
Co194 O211 2.021 1_455 S
Co194 O214 2.062 1_455 S
Co194 O218 2.117 . S
Co194 O219 2.020 . S
C195 O215 1.259 . S
C195 O218 1.258 . S
Co196 N205 2.057 . S
Co196 O212 2.117 1_455 S
Co196 O213 2.020 1_455 S
Co196 O215 2.021 . S
Co196 O220 2.062 . S
C197 N199 1.316 . S
C197 N200 1.347 . S
C197 H202 0.931 1_455 S
C198 N199 1.375 . S
C198 C201 1.350 . S
C198 H203 0.930 . S
N199 Co194 2.057 . S
N199 C197 1.316 . S
N199 C198 1.375 . S
N200 C197 1.347 . S
N200 C201 1.373 . S
C201 C198 1.350 . S
C201 N200 1.373 . S
C201 H222 0.931 . S
H202 C197 0.931 1_655 S
H203 C198 0.930 . S
C204 O211 1.259 . S
C204 O212 1.258 . S
N205 Co196 2.057 . S
N205 C206 1.316 . S
N205 C207 1.375 1_455 S
C206 N205 1.316 . S
C206 N208 1.347 . S
C206 H217 0.931 . S
C207 N205 1.375 1_655 S
C207 C209 1.350 . S
C207 H216 0.930 . S
N208 C206 1.347 . S
N208 C209 1.375 1_455 S
C209 C207 1.350 . S
C209 N208 1.375 1_655 S
C209 H223 0.930 . S
C210 O213 1.256 . S
C210 O214 1.255 . S
O211 Co194 2.021 1_655 S
O211 C204 1.259 . S
O212 Co196 2.117 1_655 S
O212 C204 1.258 . S
O213 Co196 2.020 1_655 S
O213 C210 1.256 . S
O214 Co194 2.062 1_655 S
O214 C210 1.255 . S
O215 C195 1.259 . S
O215 Co196 2.021 . S
H216 C207 0.930 . S
H217 C206 0.931 . S
O218 Co194 2.117 . S
O218 C195 1.258 . S
O219 Co194 2.020 . S
O219 C221 1.256 . S
O220 Co196 2.062 . S
O220 C221 1.255 . S
C221 O219 1.256 . S
C221 O220 1.255 . S
H222 C201 0.931 . S
H223 C209 0.930 . S
H224 C230 0.930 . S
H225 C233 0.930 . S
H226 C234 0.930 . S
H227 C235 0.928 1_545 S
H228 C238 0.930 . S
H229 C239 0.930 . S
C230 H224 0.930 . S
C230 C231 1.355 . S
C230 C232 1.415 . S
C231 C230 1.355 . S
C231 C233 1.419 1_565 S
C232 C230 1.415 . S
C232 C237 1.428 . S
C232 C239 1.409 . S
C233 H225 0.930 . S
C233 C231 1.419 1_545 S
C233 C234 1.362 . S
C234 H226 0.930 . S
C234 C233 1.362 . S
C234 C237 1.410 1_545 S
C235 H227 0.928 1_565 S
C235 C236 1.355 . S
C235 C237 1.413 . S
C236 C235 1.355 . S
C236 C238 1.419 . S
C237 C232 1.428 . S
C237 C234 1.410 1_565 S
C237 C235 1.413 . S
C238 H228 0.930 . S
C238 C236 1.419 . S
C238 C239 1.362 . S
C239 H229 0.930 . S
C239 C232 1.409 . S
C239 C238 1.362 . S
H240 C246 0.930 . S
H241 C249 0.930 . S
H242 C250 0.930 . S
H243 C251 0.930 . S
H244 C254 0.930 . S
H245 C255 0.930 . S
C246 H240 0.930 . S
C246 C247 1.355 . S
C246 C248 1.415 . S
C247 C246 1.355 . S
C247 C249 1.419 . S
C248 C246 1.415 . S
C248 C253 1.425 . S
C248 C255 1.409 . S
C249 H241 0.930 . S
C249 C247 1.419 . S
C249 C250 1.362 . S
C250 H242 0.930 . S
C250 C249 1.362 . S
C250 C253 1.409 . S
C251 H243 0.930 . S
C251 C252 1.355 . S
C251 C253 1.415 . S
C252 C251 1.355 . S
C252 C254 1.419 . S
C253 C248 1.425 . S
C253 C250 1.409 . S
C253 C251 1.415 . S
C254 H244 0.930 . S
C254 C252 1.419 . S
C254 C255 1.362 . S
C255 H245 0.930 . S
C255 C248 1.409 . S
C255 C254 1.362 . S
H256 C262 0.930 . S
H257 C265 0.930 . S
H258 C266 0.930 . S
H259 C267 0.930 . S
H260 C270 0.930 . S
H261 C271 0.930 . S
C262 H256 0.930 . S
C262 C263 1.355 . S
C262 C264 1.415 . S
C263 C262 1.355 . S
C263 C265 1.419 . S
C264 C262 1.415 . S
C264 C269 1.425 . S
C264 C271 1.409 . S
C265 H257 0.930 . S
C265 C263 1.419 . S
C265 C266 1.362 . S
C266 H258 0.930 . S
C266 C265 1.362 . S
C266 C269 1.409 . S
C267 H259 0.930 . S
C267 C268 1.355 . S
C267 C269 1.415 . S
C268 C267 1.355 . S
C268 C270 1.419 . S
C269 C264 1.425 . S
C269 C266 1.409 . S
C269 C267 1.415 . S
C270 H260 0.930 . S
C270 C268 1.419 . S
C270 C271 1.362 . S
C271 H261 0.930 . S
C271 C264 1.409 . S
C271 C270 1.362 . S
H272 C278 0.930 . S
H273 C281 0.930 . S
H274 C282 0.930 . S
H275 C283 0.930 . S
H276 C286 0.930 . S
H277 C287 0.930 . S
C278 H272 0.930 . S
C278 C279 1.355 . S
C278 C280 1.415 . S
C279 C278 1.355 . S
C279 C281 1.419 . S
C280 C278 1.415 . S
C280 C285 1.425 . S
C280 C287 1.409 . S
C281 H273 0.930 . S
C281 C279 1.419 . S
C281 C282 1.362 . S
C282 H274 0.930 . S
C282 C281 1.362 . S
C282 C285 1.409 . S
C283 H275 0.930 . S
C283 C284 1.355 . S
C283 C285 1.415 . S
C284 C283 1.355 . S
C284 C286 1.419 . S
C285 C280 1.425 . S
C285 C282 1.409 . S
C285 C283 1.415 . S
C286 H276 0.930 . S
C286 C284 1.419 . S
C286 C287 1.362 . S
C287 H277 0.930 . S
C287 C280 1.409 . S
C287 C286 1.362 . S
H288 C294 0.930 . S
H289 C297 0.930 . S
H290 C298 0.930 . S
H291 C299 0.930 . S
H292 C302 0.930 . S
H293 C303 0.930 . S
C294 H288 0.930 . S
C294 C295 1.355 1_545 S
C294 C296 1.415 . S
C295 C294 1.355 1_565 S
C295 C297 1.419 1_556 S
C296 C294 1.415 . S
C296 C301 1.425 1_545 S
C296 C303 1.409 . S
C297 H289 0.930 . S
C297 C295 1.419 1_554 S
C297 C298 1.362 . S
C298 H290 0.930 . S
C298 C297 1.362 . S
C298 C301 1.409 1_554 S
C299 H291 0.930 . S
C299 C300 1.355 1_565 S
C299 C301 1.415 . S
C300 C299 1.355 1_545 S
C300 C302 1.419 . S
C301 C296 1.425 1_565 S
C301 C298 1.409 1_556 S
C301 C299 1.415 . S
C302 H292 0.930 . S
C302 C300 1.419 . S
C302 C303 1.362 . S
C303 H293 0.930 . S
C303 C296 1.409 . S
C303 C302 1.362 . S
H304 C310 0.930 1_554 S
H305 C313 0.930 . S
H306 C314 0.930 . S
H307 C315 0.930 . S
H308 C318 0.930 . S
H309 C319 0.930 . S
C310 H304 0.930 1_556 S
C310 C311 1.355 1_556 S
C310 C312 1.415 . S
C311 C310 1.355 1_554 S
C311 C313 1.419 . S
C312 C310 1.415 . S
C312 C317 1.425 . S
C312 C319 1.409 . S
C313 H305 0.930 . S
C313 C311 1.419 . S
C313 C314 1.362 1_554 S
C314 H306 0.930 . S
C314 C313 1.362 1_556 S
C314 C317 1.409 . S
C315 H307 0.930 . S
C315 C316 1.355 . S
C315 C317 1.415 . S
C316 C315 1.355 . S
C316 C318 1.419 . S
C317 C312 1.425 . S
C317 C314 1.409 . S
C317 C315 1.415 . S
C318 H308 0.930 . S
C318 C316 1.419 . S
C318 C319 1.362 . S
C319 H309 0.930 . S
C319 C312 1.409 . S
C319 C318 1.362 . S
H320 C326 0.930 . S
H321 C329 0.930 1_556 S
H322 C330 0.930 . S
H323 C331 0.930 . S
H324 C334 0.930 . S
H325 C335 0.930 . S
C326 H320 0.930 . S
C326 C327 1.355 . S
C326 C328 1.415 . S
C327 C326 1.355 . S
C327 C329 1.419 . S
C328 C326 1.415 . S
C328 C333 1.425 1_554 S
C328 C335 1.409 . S
C329 H321 0.930 1_554 S
C329 C327 1.419 . S
C329 C330 1.362 1_554 S
C330 H322 0.930 . S
C330 C329 1.362 1_556 S
C330 C333 1.409 . S
C331 H323 0.930 . S
C331 C332 1.355 . S
C331 C333 1.415 . S
C332 C331 1.355 . S
C332 C334 1.419 1_556 S
C333 C328 1.425 1_556 S
C333 C330 1.409 . S
C333 C331 1.415 . S
C334 H324 0.930 . S
C334 C332 1.419 1_554 S
C334 C335 1.362 . S
C335 H325 0.930 . S
C335 C328 1.409 . S
C335 C334 1.362 . S
H336 C342 0.904 1_455 S
H337 C345 0.930 . S
H338 C346 0.930 . S
H339 C347 0.930 . S
H340 C350 0.930 . S
H341 C351 0.930 . S
C342 H336 0.904 1_655 S
C342 C343 1.355 . S
C342 C344 1.415 1_554 S
C343 C342 1.355 . S
C343 C345 1.419 . S
C344 C342 1.415 1_556 S
C344 C349 1.425 . S
C344 C351 1.409 1_655 S
C345 H337 0.930 . S
C345 C343 1.419 . S
C345 C346 1.362 1_554 S
C346 H338 0.930 . S
C346 C345 1.362 1_556 S
C346 C349 1.409 . S
C347 H339 0.930 . S
C347 C348 1.355 . S
C347 C349 1.415 . S
C348 C347 1.355 . S
C348 C350 1.419 1_655 S
C349 C344 1.425 . S
C349 C346 1.409 . S
C349 C347 1.415 . S
C350 H340 0.930 . S
C350 C348 1.419 1_455 S
C350 C351 1.362 . S
C351 H341 0.930 . S
C351 C344 1.409 1_455 S
C351 C350 1.362 . S
H352 C358 0.930 . S
H353 C361 0.930 . S
H354 C362 0.930 . S
H355 C363 0.930 . S
H356 C366 0.930 1_655 S
H357 C367 0.930 . S
C358 H352 0.930 . S
C358 C359 1.355 . S
C358 C360 1.415 . S
C359 C358 1.355 . S
C359 C361 1.419 . S
C360 C358 1.415 . S
C360 C365 1.425 . S
C360 C367 1.409 . S
C361 H353 0.930 . S
C361 C359 1.419 . S
C361 C362 1.362 . S
C362 H354 0.930 . S
C362 C361 1.362 . S
C362 C365 1.409 . S
C363 H355 0.930 . S
C363 C364 1.355 . S
C363 C365 1.415 . S
C364 C363 1.355 . S
C364 C366 1.419 . S
C365 C360 1.425 . S
C365 C362 1.409 . S
C365 C363 1.415 . S
C366 H356 0.930 1_455 S
C366 C364 1.419 . S
C366 C367 1.362 . S
C367 H357 0.930 . S
C367 C360 1.409 . S
C367 C366 1.362 . S
H368 C374 0.930 . S
H369 C377 0.930 . S
H370 C378 0.930 . S
H371 C379 0.930 . S
H372 C382 0.930 . S
H373 C383 0.930 . S
C374 H368 0.930 . S
C374 C375 1.355 1_545 S
C374 C376 1.415 . S
C375 C374 1.355 1_565 S
C375 C377 1.419 . S
C376 C374 1.415 . S
C376 C381 1.425 1_545 S
C376 C383 1.409 . S
C377 H369 0.930 . S
C377 C375 1.419 . S
C377 C378 1.362 . S
C378 H370 0.930 . S
C378 C377 1.362 . S
C378 C381 1.409 . S
C379 H371 0.930 . S
C379 C380 1.355 . S
C379 C381 1.415 . S
C380 C379 1.355 . S
C380 C382 1.419 1_565 S
C381 C376 1.425 1_565 S
C381 C378 1.409 . S
C381 C379 1.415 . S
C382 H372 0.930 . S
C382 C380 1.419 1_545 S
C382 C383 1.362 . S
C383 H373 0.930 . S
C383 C376 1.409 . S
C383 C382 1.362 . S
H384 C390 0.930 . S
H385 C393 0.930 . S
H386 C394 0.930 . S
H387 C395 0.930 . S
H388 C398 0.930 . S
H389 C399 0.930 . S
C390 H384 0.930 . S
C390 C391 1.355 . S
C390 C392 1.415 . S
C391 C390 1.355 . S
C391 C393 1.419 . S
C392 C390 1.415 . S
C392 C397 1.425 . S
C392 C399 1.409 . S
C393 H385 0.930 . S
C393 C391 1.419 . S
C393 C394 1.362 . S
C394 H386 0.930 . S
C394 C393 1.362 . S
C394 C397 1.409 . S
C395 H387 0.930 . S
C395 C396 1.355 . S
C395 C397 1.415 . S
C396 C395 1.355 . S
C396 C398 1.419 . S
C397 C392 1.425 . S
C397 C394 1.409 . S
C397 C395 1.415 . S
C398 H388 0.930 . S
C398 C396 1.419 . S
C398 C399 1.362 . S
C399 H389 0.930 . S
C399 C392 1.409 . S
C399 C398 1.362 . S
H400 C406 0.930 . S
H401 C409 0.930 . S
H402 C410 0.930 . S
H403 C411 0.930 . S
H404 C414 0.930 . S
H405 C415 0.930 . S
C406 H400 0.930 . S
C406 C407 1.355 . S
C406 C408 1.415 . S
C407 C406 1.355 . S
C407 C409 1.419 . S
C408 C406 1.415 . S
C408 C413 1.425 . S
C408 C415 1.409 . S
C409 H401 0.930 . S
C409 C407 1.419 . S
C409 C410 1.362 . S
C410 H402 0.930 . S
C410 C409 1.362 . S
C410 C413 1.409 . S
C411 H403 0.930 . S
C411 C412 1.355 . S
C411 C413 1.415 . S
C412 C411 1.355 . S
C412 C414 1.419 . S
C413 C408 1.425 . S
C413 C410 1.409 . S
C413 C411 1.415 . S
C414 H404 0.930 . S
C414 C412 1.419 . S
C414 C415 1.362 . S
C415 H405 0.930 . S
C415 C408 1.409 . S
C415 C414 1.362 . S
H416 C422 0.930 . S
H417 C425 0.930 . S
H418 C426 0.930 . S
H419 C427 0.930 . S
H420 C430 0.930 . S
H421 C431 0.930 . S
C422 H416 0.930 . S
C422 C423 1.355 1_556 S
C422 C424 1.415 . S
C423 C422 1.355 1_554 S
C423 C425 1.419 . S
C424 C422 1.415 . S
C424 C429 1.425 . S
C424 C431 1.409 1_655 S
C425 H417 0.930 . S
C425 C423 1.419 . S
C425 C426 1.362 . S
C426 H418 0.930 . S
C426 C425 1.362 . S
C426 C429 1.409 1_554 S
C427 H419 0.930 . S
C427 C428 1.355 1_655 S
C427 C429 1.415 . S
C428 C427 1.355 1_455 S
C428 C430 1.419 . S
C429 C424 1.425 . S
C429 C426 1.409 1_556 S
C429 C427 1.415 . S
C430 H420 0.930 . S
C430 C428 1.419 . S
C430 C431 1.362 . S
C431 H421 0.930 . S
C431 C424 1.409 1_455 S
C431 C430 1.362 . S
H432 C438 0.930 1_554 S
H433 C441 0.930 . S
H434 C442 0.930 . S
H435 C443 0.930 . S
H436 C446 0.930 . S
H437 C447 0.930 . S
C438 H432 0.930 1_556 S
C438 C439 1.355 1_565 S
C438 C440 1.415 . S
C439 C438 1.355 1_545 S
C439 C441 1.419 . S
C440 C438 1.415 . S
C440 C445 1.425 1_565 S
C440 C447 1.409 1_556 S
C441 H433 0.930 . S
C441 C439 1.419 . S
C441 C442 1.362 . S
C442 H434 0.930 . S
C442 C441 1.362 . S
C442 C445 1.409 . S
C443 H435 0.930 . S
C443 C444 1.355 . S
C443 C445 1.415 . S
C444 C443 1.355 . S
C444 C446 1.419 1_545 S
C445 C440 1.425 1_545 S
C445 C442 1.409 . S
C445 C443 1.415 . S
C446 H436 0.930 . S
C446 C444 1.419 1_565 S
C446 C447 1.362 1_556 S
C447 H437 0.930 . S
C447 C440 1.409 1_554 S
C447 C446 1.362 1_554 S
H448 C454 0.930 . S
H449 C457 0.930 . S
H450 C458 0.930 . S
H451 C459 0.930 . S
H452 C462 0.930 . S
H453 C463 0.930 . S
C454 H448 0.930 . S
C454 C455 1.355 1_556 S
C454 C456 1.415 . S
C455 C454 1.355 1_554 S
C455 C457 1.419 . S
C456 C454 1.415 . S
C456 C461 1.425 . S
C456 C463 1.409 . S
C457 H449 0.930 . S
C457 C455 1.419 . S
C457 C458 1.362 . S
C458 H450 0.930 . S
C458 C457 1.362 . S
C458 C461 1.409 1_554 S
C459 H451 0.930 . S
C459 C460 1.355 . S
C459 C461 1.415 . S
C460 C459 1.355 . S
C460 C462 1.419 . S
C461 C456 1.425 . S
C461 C458 1.409 1_556 S
C461 C459 1.415 . S
C462 H452 0.930 . S
C462 C460 1.419 . S
C462 C463 1.362 . S
C463 H453 0.930 . S
C463 C456 1.409 . S
C463 C462 1.362 . S
H464 C470 0.930 . S
H465 C473 0.930 1_556 S
H466 C474 0.930 . S
H467 C475 0.930 . S
H468 C478 0.930 . S
H469 C479 0.930 . S
C470 H464 0.930 . S
C470 C471 1.355 . S
C470 C472 1.415 . S
C471 C470 1.355 . S
C471 C473 1.419 . S
C472 C470 1.415 . S
C472 C477 1.425 1_554 S
C472 C479 1.409 . S
C473 H465 0.930 1_554 S
C473 C471 1.419 . S
C473 C474 1.362 1_554 S
C474 H466 0.930 . S
C474 C473 1.362 1_556 S
C474 C477 1.409 . S
C475 H467 0.930 . S
C475 C476 1.355 . S
C475 C477 1.415 . S
C476 C475 1.355 . S
C476 C478 1.419 1_556 S
C477 C472 1.425 1_556 S
C477 C474 1.409 . S
C477 C475 1.415 . S
C478 H468 0.930 . S
C478 C476 1.419 1_554 S
C478 C479 1.362 . S
C479 H469 0.930 . S
C479 C472 1.409 . S
C479 C478 1.362 . S
H480 C486 0.930 . S
H481 C489 0.930 . S
H482 C490 0.930 . S
H483 C491 0.930 . S
H484 C494 0.930 . S
H485 C495 0.930 . S
C486 H480 0.930 . S
C486 C487 1.355 . S
C486 C488 1.415 . S
C487 C486 1.355 . S
C487 C489 1.419 . S
C488 C486 1.415 . S
C488 C493 1.425 . S
C488 C495 1.409 . S
C489 H481 0.930 . S
C489 C487 1.419 . S
C489 C490 1.362 . S
C490 H482 0.930 . S
C490 C489 1.362 . S
C490 C493 1.409 . S
C491 H483 0.930 . S
C491 C492 1.355 . S
C491 C493 1.415 . S
C492 C491 1.355 . S
C492 C494 1.419 . S
C493 C488 1.425 . S
C493 C490 1.409 . S
C493 C491 1.415 . S
C494 H484 0.930 . S
C494 C492 1.419 . S
C494 C495 1.362 . S
C495 H485 0.930 . S
C495 C488 1.409 . S
C495 C494 1.362 . S
H496 C502 0.930 . S
H497 C505 0.930 . S
H498 C506 0.930 . S
H499 C507 0.930 . S
H500 C510 0.930 . S
H501 C511 0.930 . S
C502 H496 0.930 . S
C502 C503 1.351 1_565 S
C502 C504 1.415 1_565 S
C503 C502 1.351 1_545 S
C503 C505 1.423 . S
C504 C502 1.415 1_545 S
C504 C509 1.425 . S
C504 C511 1.409 . S
C505 H497 0.930 . S
C505 C503 1.423 . S
C505 C506 1.362 . S
C506 H498 0.930 . S
C506 C505 1.362 . S
C506 C509 1.409 . S
C507 H499 0.930 . S
C507 C508 1.355 . S
C507 C509 1.415 . S
C508 C507 1.355 . S
C508 C510 1.419 . S
C509 C504 1.425 . S
C509 C506 1.409 . S
C509 C507 1.415 . S
C510 H500 0.930 . S
C510 C508 1.419 . S
C510 C511 1.362 . S
C511 H501 0.930 . S
C511 C504 1.409 . S
C511 C510 1.362 . S
H512 C518 0.930 . S
H513 C521 0.930 . S
H514 C522 0.930 . S
H515 C523 0.930 . S
H516 C526 0.930 . S
H517 C527 0.930 . S
C518 H512 0.930 . S
C518 C519 1.355 . S
C518 C520 1.415 . S
C519 C518 1.355 . S
C519 C521 1.419 . S
C520 C518 1.415 . S
C520 C525 1.425 . S
C520 C527 1.409 . S
C521 H513 0.930 . S
C521 C519 1.419 . S
C521 C522 1.362 . S
C522 H514 0.930 . S
C522 C521 1.362 . S
C522 C525 1.409 . S
C523 H515 0.930 . S
C523 C524 1.355 . S
C523 C525 1.415 . S
C524 C523 1.355 . S
C524 C526 1.419 1_554 S
C525 C520 1.425 . S
C525 C522 1.409 . S
C525 C523 1.415 . S
C526 H516 0.930 . S
C526 C524 1.419 1_556 S
C526 C527 1.362 1_556 S
C527 H517 0.930 . S
C527 C520 1.409 . S
C527 C526 1.362 1_554 S
H528 C534 0.930 . S
H529 C537 0.930 . S
H530 C538 0.930 . S
H531 C539 0.930 1_556 S
H532 C542 0.930 . S
H533 C543 0.930 . S
C534 H528 0.930 . S
C534 C535 1.355 . S
C534 C536 1.415 . S
C535 C534 1.355 . S
C535 C537 1.419 . S
C536 C534 1.415 . S
C536 C541 1.425 . S
C536 C543 1.409 . S
C537 H529 0.930 . S
C537 C535 1.419 . S
C537 C538 1.362 . S
C538 H530 0.930 . S
C538 C537 1.362 . S
C538 C541 1.409 . S
C539 H531 0.930 1_554 S
C539 C540 1.355 . S
C539 C541 1.415 . S
C540 C539 1.355 . S
C540 C542 1.419 . S
C541 C536 1.425 . S
C541 C538 1.409 . S
C541 C539 1.415 . S
C542 H532 0.930 . S
C542 C540 1.419 . S
C542 C543 1.362 . S
C543 H533 0.930 . S
C543 C536 1.409 . S
C543 C542 1.362 . S
H544 C550 0.930 . S
H545 C553 0.930 . S
H546 C554 0.930 . S
H547 C555 0.930 . S
H548 C558 0.930 . S
H549 C559 0.930 . S
C550 H544 0.930 . S
C550 C551 1.355 . S
C550 C552 1.415 . S
C551 C550 1.355 . S
C551 C553 1.419 . S
C552 C550 1.415 . S
C552 C557 1.425 . S
C552 C559 1.409 1_655 S
C553 H545 0.930 . S
C553 C551 1.419 . S
C553 C554 1.362 . S
C554 H546 0.930 . S
C554 C553 1.362 . S
C554 C557 1.409 . S
C555 H547 0.930 . S
C555 C556 1.355 . S
C555 C557 1.415 . S
C556 C555 1.355 . S
C556 C558 1.419 1_655 S
C557 C552 1.425 . S
C557 C554 1.409 . S
C557 C555 1.415 . S
C558 H548 0.930 . S
C558 C556 1.419 1_455 S
C558 C559 1.362 . S
C559 H549 0.930 . S
C559 C552 1.409 1_455 S
C559 C558 1.362 . S
H560 C566 0.930 . S
H561 C569 0.930 . S
H562 C570 0.930 . S
H563 C571 0.930 . S
H564 C574 0.930 . S
H565 C575 0.930 . S
C566 H560 0.930 . S
C566 C567 1.355 1_545 S
C566 C568 1.415 . S
C567 C566 1.355 1_565 S
C567 C569 1.419 . S
C568 C566 1.415 . S
C568 C573 1.425 1_545 S
C568 C575 1.409 . S
C569 H561 0.930 . S
C569 C567 1.419 . S
C569 C570 1.362 . S
C570 H562 0.930 . S
C570 C569 1.362 . S
C570 C573 1.409 . S
C571 H563 0.930 . S
C571 C572 1.355 . S
C571 C573 1.415 . S
C572 C571 1.355 . S
C572 C574 1.419 1_565 S
C573 C568 1.425 1_565 S
C573 C570 1.409 . S
C573 C571 1.415 . S
C574 H564 0.930 . S
C574 C572 1.419 1_545 S
C574 C575 1.362 . S
C575 H565 0.930 . S
C575 C568 1.409 . S
C575 C574 1.362 . S
H576 C582 0.930 . S
H577 C585 0.930 . S
H578 C586 0.930 . S
H579 C587 0.930 . S
H580 C590 0.930 . S
H581 C591 0.930 . S
C582 H576 0.930 . S
C582 C583 1.355 . S
C582 C584 1.415 . S
C583 C582 1.355 . S
C583 C585 1.419 . S
C584 C582 1.415 . S
C584 C589 1.425 . S
C584 C591 1.409 . S
C585 H577 0.930 . S
C585 C583 1.419 . S
C585 C586 1.362 . S
C586 H578 0.930 . S
C586 C585 1.362 . S
C586 C589 1.409 . S
C587 H579 0.930 . S
C587 C588 1.355 . S
C587 C589 1.415 . S
C588 C587 1.355 . S
C588 C590 1.419 . S
C589 C584 1.425 . S
C589 C586 1.409 . S
C589 C587 1.415 . S
C590 H580 0.930 . S
C590 C588 1.419 . S
C590 C591 1.362 . S
C591 H581 0.930 . S
C591 C584 1.409 . S
C591 C590 1.362 . S
H592 C598 0.930 . S
H593 C601 0.930 . S
H594 C602 0.930 . S
H595 C603 0.930 . S
H596 C606 0.930 . S
H597 C607 0.930 . S
C598 H592 0.930 . S
C598 C599 1.355 . S
C598 C600 1.415 . S
C599 C598 1.355 . S
C599 C601 1.419 . S
C600 C598 1.415 . S
C600 C605 1.425 . S
C600 C607 1.409 . S
C601 H593 0.930 . S
C601 C599 1.419 . S
C601 C602 1.362 . S
C602 H594 0.930 . S
C602 C601 1.362 . S
C602 C605 1.409 . S
C603 H595 0.930 . S
C603 C604 1.355 . S
C603 C605 1.415 . S
C604 C603 1.355 . S
C604 C606 1.419 . S
C605 C600 1.425 . S
C605 C602 1.409 . S
C605 C603 1.415 . S
C606 H596 0.930 . S
C606 C604 1.419 . S
C606 C607 1.362 . S
C607 H597 0.930 . S
C607 C600 1.409 . S
C607 C606 1.362 . S
C231 C82 1.650 1_565 S
C236 C114 1.689 . S
C252 C144 1.791 . S
C247 C95 1.749 . S
C268 N178 1.337 . S
C263 C56 1.260 . S
C284 N208 1.455 . S
C279 C69 1.425 . S
C300 C105 1.697 . S
C295 C30 1.638 1_565 S
C311 C43 1.698 . S
C316 C135 1.805 . S
C327 C4 1.232 . S
C332 N170 1.340 . S
C343 C17 1.333 . S
C348 N200 1.402 1_655 S
C364 C120 0.614 . S
C359 C74 0.715 . S
C380 C150 0.923 . S
C375 C87 0.936 1_565 S
C396 C191 1.192 . S
C391 C100 1.186 . S
C407 C61 0.756 . S
C412 C221 0.755 . S
C423 C22 0.574 . S
C428 C131 0.577 . S
C444 C161 0.933 . S
C439 C35 0.950 1_556 S
C460 C180 1.196 . S
C455 C48 1.145 . S
C471 C9 0.763 . S
C476 C210 0.752 . S
C487 C73 1.427 . S
C492 N110 1.463 . S
C503 C86 1.394 . S
C508 N140 1.435 . S
C524 C165 1.648 1_554 S
C519 C99 1.602 . S
C540 C195 1.593 1_554 S
C535 C60 1.582 . S
C551 C21 1.470 . S
C556 N118 1.442 . S
C572 N148 1.394 . S
C567 C34 1.410 1_565 S
C588 C174 1.654 . S
C583 C47 1.621 . S
C599 C8 1.578 . S
C604 C204 1.592 . S
