# Generated by pormake.
# Topology pth, (4,4)-cn, num edge types: 1
# Building blocks:
#     Node 0, Type 0, BuildingBlock: AZAVOO_clean_sbu_0, # of connection points: 4
#     Node 1, Type 0, BuildingBlock: AZAVOO_clean_sbu_0, # of connection points: 4
#     Node 2, Type 0, BuildingBlock: AZAVOO_clean_sbu_0, # of connection points: 4
#     Node 3, Type 1, BuildingBlock: MUDLON_clean_linker_0, # of connection points: 4
#     Node 4, Type 1, BuildingBlock: MUDLON_clean_linker_0, # of connection points: 4
#     Node 5, Type 1, BuildingBlock: MUDLON_clean_linker_0, # of connection points: 4
#     Edge 6, Type (0, 1), BuildingBlock: XUDNAN_clean_linker_2, # of connection points: 2
#     Edge 7, Type (0, 1), BuildingBlock: XUDNAN_clean_linker_2, # of connection points: 2
#     Edge 8, Type (0, 1), BuildingBlock: XUDNAN_clean_linker_2, # of connection points: 2
#     Edge 9, Type (0, 1), BuildingBlock: XUDNAN_clean_linker_2, # of connection points: 2
#     Edge 10, Type (0, 1), BuildingBlock: XUDNAN_clean_linker_2, # of connection points: 2
#     Edge 11, Type (0, 1), BuildingBlock: XUDNAN_clean_linker_2, # of connection points: 2
#     Edge 12, Type (0, 1), BuildingBlock: XUDNAN_clean_linker_2, # of connection points: 2
#     Edge 13, Type (0, 1), BuildingBlock: XUDNAN_clean_linker_2, # of connection points: 2
#     Edge 14, Type (0, 1), BuildingBlock: XUDNAN_clean_linker_2, # of connection points: 2
#     Edge 15, Type (0, 1), BuildingBlock: XUDNAN_clean_linker_2, # of connection points: 2
#     Edge 16, Type (0, 1), BuildingBlock: XUDNAN_clean_linker_2, # of connection points: 2
#     Edge 17, Type (0, 1), BuildingBlock: XUDNAN_clean_linker_2, # of connection points: 2
# Relax obj value: 0.077
# Max RMSD: 0.215
# Mean RMSD: 0.136
data_MOF--net-pth--node1-AZAVOO_clean_sbu_0--node2-MUDLON_clean_linker_0--edge1-XUDNAN_clean_linker_2
_symmetry_space_group_name_H-M    P1
_symmetry_Int_Tables_number       1
_symmetry_cell_setting            triclinic
loop_
_symmetry_equiv_pos_as_xyz
'x, y, z'
_cell_length_a     33.363146
_cell_length_b     34.010731
_cell_length_c     66.739871
_cell_angle_alpha  90.799129
_cell_angle_beta   92.461371
_cell_angle_gamma 121.77956
loop_
_atom_site_label
_atom_site_type_symbol
_atom_site_fract_x
_atom_site_fract_y
_atom_site_fract_z
_atom_type_partial_charge
Mg0 Mg 0.09867 0.04106 0.02993 0.0
O1 O 0.03522 0.98414 0.01078 0.0
O2 O 0.01738 0.01817 0.98654 0.0
Mg3 Mg 0.07349 0.0957 0.9886 0.0
C4 C 0.00939 0.98223 0.99569 0.0
C5 C 0.07334 0.95052 0.05262 0.0
O6 O 0.0712 0.93422 0.03438 0.0
O7 O 0.0536 0.06588 0.04303 0.0
O8 O 0.04327 0.10293 0.01782 0.0
O9 O 0.14781 0.03389 0.01084 0.0
O10 O 0.12313 0.08196 0.00537 0.0
C11 C 0.03773 0.09008 0.03592 0.0
C12 C 0.14746 0.06477 -0.00019 0.0
O13 O 0.08311 0.99181 0.0552 0.0
Mg14 Mg 0.94979 0.98207 0.35421 0.0
O15 O 0.00936 0.99928 0.37761 0.0
O16 O 0.02375 0.06049 0.39658 0.0
Mg17 Mg 0.96937 0.07925 0.38664 0.0
C18 C 0.03281 0.02958 0.39178 0.0
C19 C 0.94037 0.89568 0.33195 0.0
O20 O 0.89669 0.87695 0.33724 0.0
O21 O 0.99978 0.04649 0.33729 0.0
O22 O 0.00364 0.10282 0.35662 0.0
O23 O 0.89473 0.93363 0.37476 0.0
O24 O 0.92226 0.00851 0.37377 0.0
C25 C 0.01333 0.08892 0.34072 0.0
C26 C 0.89558 0.96968 0.38189 0.0
O27 O 0.97002 0.93816 0.33648 0.0
Mg28 Mg 0.97926 0.96783 0.683 0.0
O29 O 0.0188 0.02664 0.70699 0.0
O30 O 0.96679 0.02708 0.72682 0.0
Mg31 Mg 0.89335 0.96947 0.71488 0.0
C32 C 0.00912 0.04354 0.72187 0.0
C33 C 0.08293 0.00079 0.67564 0.0
O34 O 0.07974 0.98763 0.69422 0.0
O35 O 0.9559 0.01066 0.66591 0.0
O36 O 0.90429 0.01051 0.68642 0.0
O37 O 0.98214 0.91898 0.70405 0.0
O38 O 0.92378 0.93196 0.70162 0.0
C39 C 0.92687 0.02262 0.67042 0.0
C40 C 0.94305 0.91215 0.71056 0.0
O41 O 0.04704 0.99763 0.66649 0.0
H42 H 0.90414 0.6222 0.20321 0.0
N43 N 0.97225 0.6096 0.19244 0.0
H44 H 0.90608 0.66761 0.23227 0.0
H45 H 0.0352 0.63775 0.22558 0.0
H46 H 0.03642 0.68139 0.25491 0.0
H47 H 0.05539 0.69402 0.19532 0.0
H48 H 0.07889 0.75705 0.17271 0.0
H49 H 0.93042 0.60612 0.15701 0.0
H50 H 0.95356 0.6699 0.13429 0.0
H51 H 0.91854 0.51798 0.19048 0.0
H52 H 0.06413 0.6304 0.19333 0.0
H53 H 0.94383 0.46231 0.18927 0.0
H54 H 0.08967 0.57551 0.19295 0.0
H55 H 0.00639 0.30965 0.20479 0.0
H56 H 0.01275 0.26699 0.23257 0.0
H57 H 0.16393 0.36058 0.23708 0.0
H58 H 0.15726 0.40516 0.20975 0.0
H59 H 0.13135 0.36602 0.16503 0.0
H60 H 0.10371 0.3084 0.13718 0.0
H61 H 0.96115 0.2761 0.14291 0.0
H62 H 0.98892 0.33339 0.17101 0.0
H63 H 0.0047 0.37575 0.20788 0.0
H64 H 0.98033 0.43129 0.2093 0.0
H65 H 0.09286 0.52095 0.1716 0.0
N66 N 0.07969 0.38438 0.18776 0.0
H67 H 0.11853 0.46561 0.171 0.0
C68 C 0.96937 0.62653 0.21198 0.0
C69 C 0.93241 0.63395 0.21474 0.0
C70 C 0.93359 0.6599 0.23141 0.0
C71 C 0.97182 0.67878 0.24581 0.0
C72 C 0.00699 0.66822 0.24387 0.0
C73 C 0.00601 0.64264 0.22709 0.0
C74 C 0.99087 0.64508 0.17785 0.0
C75 C 0.03341 0.68784 0.18183 0.0
C76 C 0.04665 0.72413 0.16897 0.0
C77 C 0.01774 0.71859 0.15189 0.0
C78 C 0.97665 0.6751 0.1473 0.0
C79 C 0.96336 0.63872 0.16023 0.0
C80 C 0.9891 0.57827 0.19199 0.0
C81 C 0.95593 0.5306 0.19098 0.0
C82 C 0.97052 0.49891 0.19043 0.0
C83 C 0.01887 0.51437 0.19106 0.0
C84 C 0.05215 0.5623 0.19212 0.0
C85 C 0.03749 0.59391 0.19247 0.0
C86 C 0.08138 0.36168 0.20558 0.0
C87 C 0.04074 0.32231 0.2122 0.0
C88 C 0.0444 0.2976 0.22792 0.0
C89 C 0.08877 0.31084 0.23687 0.0
C90 C 0.12937 0.35008 0.23039 0.0
C91 C 0.12556 0.37556 0.21496 0.0
C92 C 0.06249 0.35426 0.16999 0.0
C93 C 0.09428 0.34693 0.16009 0.0
C94 C 0.0784 0.31385 0.14436 0.0
C95 C 0.03027 0.28764 0.1381 0.0
C96 C 0.99843 0.296 0.14748 0.0
C97 C 0.01432 0.32879 0.16348 0.0
C98 C 0.06421 0.41667 0.18948 0.0
C99 C 0.02472 0.40735 0.20008 0.0
C100 C 0.01032 0.43917 0.20071 0.0
C101 C 0.03455 0.48071 0.19057 0.0
C102 C 0.07382 0.48976 0.1799 0.0
C103 C 0.08844 0.45811 0.17944 0.0
H104 H 0.79178 0.19085 0.53142 0.0
N105 N 0.70451 0.12554 0.51843 0.0
H106 H 0.83857 0.18837 0.56032 0.0
H107 H 0.67242 0.05948 0.54666 0.0
H108 H 0.71965 0.05586 0.57489 0.0
H109 H 0.66142 0.03105 0.51402 0.0
H110 H 0.68205 0.98955 0.49067 0.0
H111 H 0.75799 0.15978 0.48737 0.0
H112 H 0.77693 0.11829 0.46312 0.0
H113 H 0.68165 0.16498 0.54738 0.0
H114 H 0.62277 0.07594 0.49359 0.0
H115 H 0.60781 0.16192 0.55039 0.0
H116 H 0.54976 0.07398 0.4965 0.0
H117 H 0.37769 0.17605 0.54588 0.0
H118 H 0.33356 0.15839 0.57632 0.0
H119 H 0.339 0.03498 0.58214 0.0
H120 H 0.38243 0.05242 0.55169 0.0
H121 H 0.33294 0.03615 0.51834 0.0
H122 H 0.27244 0.01075 0.49098 0.0
H123 H 0.34091 0.15071 0.4709 0.0
H124 H 0.40163 0.17591 0.49841 0.0
H125 H 0.49374 0.19435 0.53457 0.0
H126 H 0.56564 0.19216 0.53293 0.0
H127 H 0.48094 0.04594 0.51665 0.0
N128 N 0.4052 0.12535 0.52753 0.0
H129 H 0.40955 0.04872 0.51794 0.0
C130 C 0.729 0.12524 0.53674 0.0
C131 C 0.77567 0.16175 0.54109 0.0
C132 C 0.80224 0.16025 0.55749 0.0
C133 C 0.78266 0.12168 0.56955 0.0
C134 C 0.73553 0.08565 0.56558 0.0
C135 C 0.70866 0.08763 0.54945 0.0
C136 C 0.70891 0.09883 0.50263 0.0
C137 C 0.68663 0.05033 0.50297 0.0
C138 C 0.69809 0.02653 0.48943 0.0
C139 C 0.7318 0.05067 0.47523 0.0
C140 C 0.75176 0.09874 0.47419 0.0
C141 C 0.74059 0.1225 0.48784 0.0
C142 C 0.65822 0.119 0.52084 0.0
C143 C 0.65275 0.1438 0.53647 0.0
C144 C 0.61058 0.14265 0.53804 0.0
C145 C 0.57277 0.11753 0.52374 0.0
C146 C 0.57785 0.09284 0.50803 0.0
C147 C 0.62008 0.09391 0.50645 0.0
C148 C 0.38376 0.116 0.54657 0.0
C149 C 0.36988 0.14557 0.55392 0.0
C150 C 0.34452 0.13531 0.57117 0.0
C151 C 0.33291 0.09533 0.58153 0.0
C152 C 0.34797 0.0663 0.57454 0.0
C153 C 0.37284 0.07629 0.55711 0.0
C154 C 0.37206 0.10808 0.51032 0.0
C155 C 0.33563 0.06122 0.50782 0.0
C156 C 0.30099 0.04671 0.49216 0.0
C157 C 0.30186 0.0788 0.47886 0.0
C158 C 0.3391 0.12532 0.48105 0.0
C159 C 0.37391 0.1397 0.49662 0.0
C160 C 0.44635 0.12202 0.52633 0.0
C161 C 0.49084 0.16191 0.53064 0.0
C162 C 0.53178 0.16045 0.52983 0.0
C163 C 0.52903 0.11878 0.52474 0.0
C164 C 0.48431 0.07867 0.52042 0.0
C165 C 0.44333 0.08021 0.52121 0.0
H166 H 0.66917 0.7475 0.88354 0.0
N167 N 0.64761 0.66918 0.86471 0.0
H168 H 0.72669 0.78776 0.91117 0.0
H169 H 0.68571 0.63072 0.88901 0.0
H170 H 0.73853 0.66766 0.91857 0.0
H171 H 0.71264 0.6487 0.85347 0.0
H172 H 0.77113 0.68758 0.82848 0.0
H173 H 0.65956 0.73805 0.8422 0.0
H174 H 0.71946 0.77898 0.81793 0.0
H175 H 0.59106 0.60943 0.89232 0.0
H176 H 0.62181 0.61521 0.82969 0.0
H177 H 0.53458 0.52649 0.88754 0.0
H178 H 0.56553 0.53327 0.82514 0.0
H179 H 0.33155 0.31075 0.8579 0.0
H180 H 0.29127 0.25931 0.8846 0.0
H181 H 0.40608 0.23564 0.89307 0.0
H182 H 0.44524 0.28578 0.86526 0.0
H183 H 0.38405 0.25424 0.81767 0.0
H184 H 0.31566 0.21895 0.79373 0.0
H185 H 0.30025 0.3362 0.8032 0.0
H186 H 0.36717 0.37019 0.82763 0.0
H187 H 0.40104 0.38917 0.86423 0.0
H188 H 0.45802 0.47172 0.87015 0.0
H189 H 0.55708 0.46018 0.83475 0.0
N190 N 0.41346 0.32783 0.842 0.0
H191 H 0.49942 0.37734 0.82868 0.0
C192 C 0.67267 0.68607 0.88418 0.0
C193 C 0.68373 0.72971 0.89139 0.0
C194 C 0.71676 0.75262 0.90748 0.0
C195 C 0.73858 0.73172 0.91743 0.0
C196 C 0.72441 0.68617 0.91109 0.0
C197 C 0.69302 0.66421 0.89434 0.0
C198 C 0.68137 0.69025 0.84944 0.0
C199 C 0.71376 0.67684 0.8456 0.0
C200 C 0.74745 0.69944 0.83143 0.0
C201 C 0.75014 0.73651 0.82112 0.0
C202 C 0.71788 0.74998 0.82521 0.0
C203 C 0.68375 0.72687 0.83913 0.0
C204 C 0.61468 0.61921 0.86193 0.0
C205 C 0.58704 0.59314 0.87771 0.0
C206 C 0.55402 0.54562 0.87491 0.0
C207 C 0.54657 0.52305 0.85608 0.0
C208 C 0.57182 0.54924 0.84003 0.0
C209 C 0.60464 0.59658 0.84278 0.0
C210 C 0.39144 0.3018 0.85939 0.0
C211 C 0.34833 0.29476 0.86548 0.0
C212 C 0.32539 0.26545 0.88097 0.0
C213 C 0.34526 0.24305 0.89102 0.0
C214 C 0.38928 0.25158 0.88542 0.0
C215 C 0.41199 0.28057 0.86971 0.0
C216 C 0.38086 0.31461 0.82463 0.0
C217 C 0.36668 0.27289 0.81413 0.0
C218 C 0.32757 0.25283 0.80041 0.0
C219 C 0.30193 0.27441 0.79675 0.0
C220 C 0.31856 0.31816 0.80601 0.0
C221 C 0.35741 0.33798 0.81989 0.0
C222 C 0.44608 0.37684 0.84598 0.0
C223 C 0.43501 0.40412 0.85781 0.0
C224 C 0.46777 0.45146 0.86127 0.0
C225 C 0.5121 0.47252 0.85295 0.0
C226 C 0.52303 0.44512 0.84119 0.0
C227 C 0.4903 0.39783 0.83776 0.0
H228 H 0.05046 0.10023 0.07671 0.0
H229 H 0.98181 0.12459 0.02597 0.0
H230 H 0.96058 0.16837 0.0484 0.0
H231 H 0.9708 0.09618 0.11629 0.0
H232 H 0.02025 0.12666 0.13439 0.0
H233 H 0.02016 0.08843 0.11537 0.0
H234 H 0.10043 0.15549 0.10418 0.0
H235 H 0.10057 0.19394 0.12293 0.0
H236 H 0.1056 0.2088 0.09695 0.0
H237 H 0.95767 0.2193 0.07523 0.0
H238 H 0.9758 0.27463 0.10381 0.0
H239 H 0.04904 0.21911 0.13636 0.0
C240 C 0.02932 0.11316 0.07044 0.0
C241 C 0.01737 0.10861 0.04964 0.0
C242 C 0.99108 0.12743 0.0419 0.0
C243 C 0.97868 0.15218 0.05454 0.0
C244 C 0.99279 0.15773 0.07488 0.0
C245 C 0.01733 0.13848 0.08279 0.0
C246 C 0.03419 0.15468 0.10443 0.0
C247 C 0.00988 0.11406 0.11845 0.0
C248 C 0.08839 0.17972 0.10727 0.0
C249 C 0.01739 0.18779 0.10716 0.0
C250 C 0.99248 0.18824 0.09017 0.0
C251 C 0.97638 0.21863 0.08875 0.0
C252 C 0.9868 0.24989 0.10499 0.0
C253 C 0.01381 0.25096 0.12215 0.0
C254 C 0.02829 0.21884 0.12336 0.0
H255 H 0.91837 0.03451 0.41176 0.0
H256 H 0.80608 0.89912 0.38861 0.0
H257 H 0.75188 0.90166 0.41218 0.0
H258 H 0.88353 0.02056 0.46452 0.0
H259 H 0.90041 0.08026 0.46721 0.0
H260 H 0.9311 0.06402 0.45067 0.0
H261 H 0.91245 0.10227 0.42138 0.0
H262 H 0.88111 0.11798 0.43769 0.0
H263 H 0.85191 0.08398 0.41484 0.0
H264 H 0.70765 0.92497 0.43489 0.0
H265 H 0.67907 0.9638 0.45649 0.0
H266 H 0.82209 0.08299 0.46485 0.0
C267 C 0.88261 0.00515 0.41181 0.0
C268 C 0.86614 0.96686 0.39829 0.0
C269 C 0.81934 0.92863 0.39903 0.0
C270 C 0.78835 0.92991 0.41228 0.0
C271 C 0.80521 0.96932 0.42484 0.0
C272 C 0.8516 0.00582 0.42495 0.0
C273 C 0.86066 0.04535 0.43893 0.0
C274 C 0.89601 0.05297 0.45637 0.0
C275 C 0.8775 0.09 0.42752 0.0
C276 C 0.81169 0.02628 0.44611 0.0
C277 C 0.78015 0.98228 0.43799 0.0
C278 C 0.73226 0.95905 0.44163 0.0
C279 C 0.71636 0.98137 0.45392 0.0
C280 C 0.74827 0.02654 0.46234 0.0
C281 C 0.79657 0.04877 0.45846 0.0
H282 H 0.85369 0.87675 0.72247 0.0
H283 H 0.98584 0.88606 0.73878 0.0
H284 H 0.95095 0.84155 0.76895 0.0
H285 H 0.82408 0.88869 0.77202 0.0
H286 H 0.76176 0.84764 0.76718 0.0
H287 H 0.79737 0.8802 0.74702 0.0
H288 H 0.76987 0.80382 0.72663 0.0
H289 H 0.7341 0.77103 0.74672 0.0
H290 H 0.77766 0.76008 0.73774 0.0
H291 H 0.90188 0.79832 0.79797 0.0
H292 H 0.84195 0.75711 0.82272 0.0
H293 H 0.74092 0.77245 0.7858 0.0
C294 C 0.87538 0.86956 0.73241 0.0
C295 C 0.92252 0.88503 0.7284 0.0
C296 C 0.94959 0.87445 0.74161 0.0
C297 C 0.93013 0.84931 0.75877 0.0
C298 C 0.88349 0.8347 0.76232 0.0
C299 C 0.8564 0.84416 0.74941 0.0
C300 C 0.80703 0.82404 0.75638 0.0
C301 C 0.797 0.86244 0.76092 0.0
C302 C 0.76999 0.78757 0.74095 0.0
C303 C 0.8106 0.80206 0.77535 0.0
C304 C 0.85497 0.80872 0.77859 0.0
C305 C 0.86684 0.79246 0.79546 0.0
C306 C 0.83238 0.76877 0.80937 0.0
C307 C 0.78645 0.7612 0.80624 0.0
C308 C 0.7757 0.77803 0.78888 0.0
H309 H 0.04625 0.85882 0.05276 0.0
H310 H 0.08399 0.97749 0.09222 0.0
H311 H 0.07392 0.93088 0.12164 0.0
H312 H 0.95661 0.77278 0.08318 0.0
H313 H 0.97122 0.72984 0.07781 0.0
H314 H 0.98116 0.77241 0.05969 0.0
H315 H 0.0691 0.79729 0.05938 0.0
H316 H 0.05946 0.75489 0.07753 0.0
H317 H 0.10473 0.81485 0.08266 0.0
H318 H 0.06157 0.8727 0.14671 0.0
H319 H 0.04477 0.80506 0.16613 0.0
H320 H 0.01428 0.72339 0.11071 0.0
C321 C 0.05231 0.87498 0.06758 0.0
C322 C 0.06602 0.92187 0.07017 0.0
C323 C 0.07346 0.94166 0.08983 0.0
C324 C 0.06789 0.9155 0.10666 0.0
C325 C 0.05464 0.86954 0.10359 0.0
C326 C 0.04667 0.84928 0.08458 0.0
C327 C 0.0325 0.79907 0.08555 0.0
C328 C 0.98239 0.76662 0.07599 0.0
C329 C 0.06861 0.79108 0.0757 0.0
C330 C 0.03404 0.79446 0.10807 0.0
C331 C 0.04703 0.83561 0.11816 0.0
C332 C 0.05141 0.84027 0.13901 0.0
C333 C 0.04213 0.80176 0.14989 0.0
C334 C 0.02857 0.7591 0.13992 0.0
C335 C 0.02437 0.75549 0.11872 0.0
H336 H 0.09753 0.09368 0.42007 0.0
H337 H 0.05711 0.96432 0.38844 0.0
H338 H 0.12254 0.96354 0.4067 0.0
H339 H 0.22323 0.14344 0.42018 0.0
H340 H 0.2347 0.17057 0.44489 0.0
H341 H 0.18468 0.16104 0.4293 0.0
H342 H 0.12889 0.11553 0.45739 0.0
H343 H 0.17874 0.12508 0.47309 0.0
H344 H 0.1295 0.06699 0.46753 0.0
H345 H 0.19151 0.97598 0.42903 0.0
H346 H 0.25945 0.00153 0.4535 0.0
H347 H 0.25492 0.12291 0.47 0.0
C348 C 0.10231 0.06511 0.41696 0.0
C349 C 0.07201 0.02903 0.40281 0.0
C350 C 0.07979 0.99243 0.39918 0.0
C351 C 0.11689 0.99164 0.40947 0.0
C352 C 0.14608 0.02779 0.42328 0.0
C353 C 0.13928 0.06389 0.427 0.0
C354 C 0.17557 0.09847 0.4426 0.0
C355 C 0.20637 0.1462 0.4337 0.0
C356 C 0.15174 0.10168 0.46126 0.0
C357 C 0.20368 0.07605 0.44715 0.0
C358 C 0.18613 0.03529 0.43589 0.0
C359 C 0.20569 0.00794 0.43788 0.0
C360 C 0.2441 0.02261 0.45183 0.0
C361 C 0.26259 0.06431 0.46352 0.0
C362 C 0.2421 0.09132 0.46101 0.0
H363 H 0.10452 0.08003 0.72007 0.0
H364 H 0.00218 0.09744 0.7507 0.0
H365 H 0.067 0.16311 0.77098 0.0
H366 H 0.18037 0.10182 0.76276 0.0
H367 H 0.23413 0.13235 0.74972 0.0
H368 H 0.18004 0.08917 0.7364 0.0
H369 H 0.18959 0.14931 0.71061 0.0
H370 H 0.24374 0.19282 0.72387 0.0
H371 H 0.19643 0.20308 0.71927 0.0
H372 H 0.14183 0.22346 0.78926 0.0
H373 H 0.22148 0.27232 0.80548 0.0
H374 H 0.276 0.21701 0.76276 0.0
C375 C 0.0957 0.09796 0.73087 0.0
C376 C 0.04818 0.08359 0.73373 0.0
C377 C 0.03824 0.10769 0.74823 0.0
C378 C 0.07484 0.14522 0.75976 0.0
C379 C 0.12118 0.15829 0.75663 0.0
C380 C 0.13177 0.13538 0.74259 0.0
C381 C 0.18442 0.15472 0.74302 0.0
C382 C 0.19536 0.11729 0.7483 0.0
C383 C 0.20473 0.17627 0.723 0.0
C384 C 0.20162 0.19146 0.7598 0.0
C385 C 0.1646 0.19326 0.76725 0.0
C386 C 0.17125 0.22288 0.78338 0.0
C387 C 0.21682 0.25084 0.79239 0.0
C388 C 0.25531 0.24899 0.78531 0.0
C389 C 0.24746 0.21932 0.76856 0.0
H390 H 0.89182 0.99844 0.63176 0.0
H391 H 0.93639 0.10565 0.67835 0.0
H392 H 0.91052 0.14702 0.65617 0.0
H393 H 0.91801 0.07144 0.58763 0.0
H394 H 0.86529 0.02782 0.57355 0.0
H395 H 0.89432 0.01099 0.59177 0.0
H396 H 0.81608 0.96395 0.60964 0.0
H397 H 0.78695 0.98095 0.59162 0.0
H398 H 0.7867 0.99248 0.61804 0.0
H399 H 0.87569 0.17408 0.62962 0.0
H400 H 0.82938 0.18202 0.60164 0.0
H401 H 0.80131 0.05335 0.57384 0.0
C402 C 0.89738 0.03137 0.63696 0.0
C403 C 0.91701 0.04976 0.65644 0.0
C404 C 0.92207 0.09176 0.66326 0.0
C405 C 0.90756 0.11537 0.65078 0.0
C406 C 0.88735 0.09593 0.63172 0.0
C407 C 0.88194 0.0547 0.62489 0.0
C408 C 0.85436 0.03849 0.60478 0.0
C409 C 0.88482 0.03713 0.58847 0.0
C410 C 0.8083 0.99118 0.60612 0.0
C411 C 0.84451 0.07663 0.60151 0.0
C412 C 0.86462 0.10993 0.61702 0.0
C413 C 0.85988 0.1483 0.61737 0.0
C414 C 0.83361 0.15255 0.6015 0.0
C415 C 0.81177 0.11812 0.58582 0.0
C416 C 0.81751 0.0799 0.5858 0.0
H417 H 0.92002 0.95864 0.98357 0.0
H418 H 0.01119 0.90388 0.98999 0.0
H419 H 0.94836 0.82969 0.97343 0.0
H420 H 0.809 0.84677 0.99305 0.0
H421 H 0.77426 0.8584 0.97551 0.0
H422 H 0.82516 0.9056 0.9892 0.0
H423 H 0.85965 0.94308 0.95566 0.0
H424 H 0.80915 0.89596 0.94188 0.0
H425 H 0.86774 0.91003 0.93667 0.0
H426 H 0.88127 0.76782 0.95116 0.0
H427 H 0.81226 0.7191 0.92839 0.0
H428 H 0.75834 0.80814 0.94163 0.0
C429 C 0.92628 0.93065 0.98176 0.0
C430 C 0.97026 0.9367 0.98787 0.0
C431 C 0.9775 0.89956 0.98542 0.0
C432 C 0.9421 0.85744 0.97604 0.0
C433 C 0.89928 0.85274 0.96983 0.0
C434 C 0.89079 0.8879 0.97305 0.0
C435 C 0.84202 0.87421 0.96469 0.0
C436 C 0.81076 0.87104 0.98163 0.0
C437 C 0.84485 0.90781 0.94878 0.0
C438 C 0.82538 0.82683 0.95536 0.0
C439 C 0.85893 0.81516 0.95843 0.0
C440 C 0.85392 0.77573 0.94923 0.0
C441 C 0.81389 0.74783 0.93635 0.0
C442 C 0.77846 0.75871 0.93299 0.0
C443 C 0.78423 0.79832 0.94329 0.0
H444 H 0.88424 0.80633 0.31658 0.0
H445 H 0.0297 0.92206 0.32212 0.0
H446 H 0.05422 0.87633 0.30306 0.0
H447 H 0.91002 0.7144 0.32052 0.0
H448 H 0.86349 0.67664 0.30218 0.0
H449 H 0.85763 0.7172 0.3175 0.0
H450 H 0.84369 0.75172 0.28549 0.0
H451 H 0.8494 0.71126 0.2701 0.0
H452 H 0.88661 0.77251 0.26661 0.0
H453 H 0.06241 0.82023 0.28185 0.0
H454 H 0.05348 0.75863 0.25883 0.0
H455 H 0.90289 0.67832 0.26747 0.0
C456 C 0.92133 0.82192 0.31397 0.0
C457 C 0.95507 0.86776 0.32089 0.0
C458 C 0.00319 0.88701 0.31698 0.0
C459 C 0.01752 0.86125 0.30623 0.0
C460 C 0.98335 0.81627 0.29955 0.0
C461 C 0.93625 0.79673 0.30323 0.0
C462 C 0.90635 0.74856 0.29347 0.0
C463 C 0.883 0.71204 0.30937 0.0
C464 C 0.86934 0.74589 0.278 0.0
C465 C 0.9439 0.74449 0.28339 0.0
C466 C 0.98811 0.78374 0.28728 0.0
C467 C 0.02808 0.78902 0.27892 0.0
C468 C 0.02265 0.75357 0.26597 0.0
C469 C 0.97753 0.71326 0.26144 0.0
C470 C 0.93785 0.7086 0.27058 0.0
H471 H 0.10427 0.03759 0.63846 0.0
H472 H 0.16091 -0.00021 0.68927 0.0
H473 H 0.23259 0.02245 0.67124 0.0
H474 H 0.14514 0.99636 0.60036 0.0
H475 H 0.15921 0.04301 0.58393 0.0
H476 H 0.11332 0.02575 0.60119 0.0
H477 H 0.15568 0.10981 0.61624 0.0
H478 H 0.2017 0.12736 0.59898 0.0
H479 H 0.21647 0.13793 0.6256 0.0
H480 H 0.29577 0.04434 0.64671 0.0
H481 H 0.34748 0.06782 0.61809 0.0
H482 H 0.25039 0.09325 0.58394 0.0
C483 C 0.13187 0.03439 0.64587 0.0
C484 C 0.12691 0.01678 0.66525 0.0
C485 C 0.16392 0.01321 0.67443 0.0
C486 C 0.20478 0.02598 0.66431 0.0
C487 C 0.20828 0.04267 0.64512 0.0
C488 C 0.17302 0.0473 0.63607 0.0
C489 C 0.18515 0.06554 0.61523 0.0
C490 C 0.14853 0.03057 0.59924 0.0
C491 C 0.19005 0.11298 0.61395 0.0
C492 C 0.23239 0.06975 0.61386 0.0
C493 C 0.24514 0.05634 0.63123 0.0
C494 C 0.28641 0.0554 0.63312 0.0
C495 C 0.3154 0.06855 0.6168 0.0
C496 C 0.30306 0.08272 0.59895 0.0
C497 C 0.26111 0.08344 0.59757 0.0
H498 H 0.17074 0.1428 0.97999 0.0
H499 H 0.18944 0.02582 0.97997 0.0
H500 H 0.2421 0.05828 0.95182 0.0
H501 H 0.17189 0.15713 0.9263 0.0
H502 H 0.20444 0.21942 0.92898 0.0
H503 H 0.16607 0.18514 0.94814 0.0
H504 H 0.23602 0.22718 0.97484 0.0
H505 H 0.27469 0.2613 0.95575 0.0
H506 H 0.28941 0.22735 0.97138 0.0
H507 H 0.29379 0.10481 0.92391 0.0
H508 H 0.33992 0.16106 0.89861 0.0
H509 H 0.2909 0.24959 0.9191 0.0
C510 C 0.18525 0.12355 0.97387 0.0
C511 C 0.17571 0.08158 0.982 0.0
C512 C 0.19616 0.05794 0.97386 0.0
C513 C 0.2261 0.07612 0.95791 0.0
C514 C 0.23541 0.11807 0.95047 0.0
C515 C 0.21558 0.14145 0.95822 0.0
C516 C 0.23264 0.1868 0.94822 0.0
C517 C 0.1913 0.18711 0.93726 0.0
C518 C 0.25981 0.22808 0.96346 0.0
C519 C 0.26518 0.18536 0.93358 0.0
C520 C 0.2662 0.14541 0.93499 0.0
C521 C 0.29343 0.13633 0.92275 0.0
C522 C 0.3199 0.16876 0.90854 0.0
C523 C 0.31924 0.20995 0.90681 0.0
C524 C 0.29178 0.21827 0.91974 0.0
H525 H 0.01232 0.1672 0.33488 0.0
H526 H 0.06613 0.08586 0.3108 0.0
H527 H 0.10041 0.1405 0.28337 0.0
H528 H 0.97406 0.18543 0.28887 0.0
H529 H 0.98787 0.243 0.29547 0.0
H530 H 0.97442 0.202 0.31469 0.0
H531 H 0.05431 0.25945 0.33395 0.0
H532 H 0.06802 0.30075 0.31475 0.0
H533 H 0.10845 0.28234 0.3213 0.0
H534 H 0.12435 0.20182 0.25743 0.0
H535 H 0.12903 0.25937 0.23366 0.0
H536 H 0.05419 0.29587 0.27393 0.0
C537 C 0.03237 0.16146 0.32416 0.0
C538 C 0.03728 0.12275 0.32512 0.0
C539 C 0.06235 0.11557 0.3104 0.0
C540 C 0.08209 0.14653 0.29485 0.0
C541 C 0.07597 0.18407 0.29421 0.0
C542 C 0.05135 0.19133 0.30843 0.0
C543 C 0.04492 0.23091 0.30329 0.0
C544 C 0.9922 0.21432 0.3004 0.0
C545 C 0.07046 0.27072 0.31928 0.0
C546 C 0.06889 0.24433 0.2837 0.0
C547 C 0.08759 0.21771 0.2789 0.0
C548 C 0.11018 0.22306 0.26113 0.0
C549 C 0.11282 0.25579 0.24778 0.0
C550 C 0.09221 0.28187 0.25219 0.0
C551 C 0.07056 0.27647 0.27043 0.0
loop_
_geom_bond_atom_site_label_1
_geom_bond_atom_site_label_2
_geom_bond_distance
_geom_bond_site_symmetry_2
_ccdc_geom_bond_type
Mg0 O1 2.028 1_545 S
Mg0 O7 1.986 . S
Mg0 O9 2.114 . S
Mg0 O10 2.251 . S
Mg0 O13 2.010 1_545 S
O1 Mg0 2.028 1_565 S
O1 C4 1.250 1_455 S
O2 Mg3 2.028 1_656 S
O2 C4 1.248 1_546 S
Mg3 O2 2.028 1_454 S
Mg3 O8 2.032 . S
Mg3 O10 2.079 . S
C4 O1 1.250 1_655 S
C4 O2 1.248 1_564 S
C5 O6 1.264 . S
C5 O13 1.249 . S
O6 C5 1.264 . S
O7 Mg0 1.986 . S
O7 C11 1.246 . S
O8 Mg3 2.032 . S
O8 C11 1.259 . S
O9 Mg0 2.114 . S
O9 C12 1.252 . S
O10 Mg0 2.251 . S
O10 Mg3 2.079 . S
O10 C12 1.273 . S
C11 O7 1.246 . S
C11 O8 1.259 . S
C12 O9 1.252 . S
C12 O10 1.273 . S
O13 Mg0 2.010 1_565 S
O13 C5 1.249 . S
Mg14 O15 2.028 1_665 S
Mg14 O21 1.986 1_665 S
Mg14 O23 2.114 . S
Mg14 O24 2.251 1_565 S
Mg14 O27 2.010 . S
O15 Mg14 2.028 1_445 S
O15 C18 1.250 . S
O16 Mg17 2.028 . S
O16 C18 1.248 . S
Mg17 O16 2.028 . S
Mg17 O22 2.032 . S
Mg17 O24 2.079 1_455 S
C18 O15 1.250 . S
C18 O16 1.248 . S
C19 O20 1.264 . S
C19 O27 1.249 . S
O20 C19 1.264 . S
O21 Mg14 1.986 1_445 S
O21 C25 1.246 . S
O22 Mg17 2.032 . S
O22 C25 1.259 . S
O23 Mg14 2.114 . S
O23 C26 1.252 . S
O24 Mg14 2.251 1_545 S
O24 Mg17 2.079 1_655 S
O24 C26 1.273 1_545 S
C25 O21 1.246 . S
C25 O22 1.259 . S
C26 O23 1.252 . S
C26 O24 1.273 1_565 S
O27 Mg14 2.010 . S
O27 C19 1.249 . S
Mg28 O29 2.028 1_565 S
Mg28 O35 1.986 1_465 S
Mg28 O37 2.114 . S
Mg28 O38 2.251 1_455 S
Mg28 O41 2.010 . S
O29 Mg28 2.028 1_545 S
O29 C32 1.250 . S
O30 Mg31 2.028 1_455 S
O30 C32 1.248 . S
Mg31 O30 2.028 1_655 S
Mg31 O36 2.032 . S
Mg31 O38 2.079 1_545 S
C32 O29 1.250 . S
C32 O30 1.248 . S
C33 O34 1.264 . S
C33 O41 1.249 . S
O34 C33 1.264 . S
O35 Mg28 1.986 1_645 S
O35 C39 1.246 . S
O36 Mg31 2.032 . S
O36 C39 1.259 . S
O37 Mg28 2.114 . S
O37 C40 1.252 1_455 S
O38 Mg28 2.251 1_655 S
O38 Mg31 2.079 1_565 S
O38 C40 1.273 . S
C39 O35 1.246 . S
C39 O36 1.259 . S
C40 O37 1.252 1_655 S
C40 O38 1.273 . S
O41 Mg28 2.010 . S
O41 C33 1.249 . S
H42 C69 0.929 . S
N43 C68 1.433 . S
N43 C74 1.435 . S
N43 C80 1.423 1_455 S
H44 C70 0.930 . S
H45 C73 0.931 . S
H46 C72 0.929 . S
H47 C75 0.930 . S
H48 C76 0.932 . S
H49 C79 0.929 . S
H50 C78 0.931 . S
H51 C81 0.929 . S
H52 C85 0.932 . S
H53 C82 0.931 . S
H54 C84 0.929 . S
H55 C87 0.929 . S
H56 C88 0.930 . S
H57 C90 0.929 . S
H58 C91 0.931 . S
H59 C93 0.930 . S
H60 C94 0.932 . S
H61 C96 0.931 . S
H62 C97 0.929 . S
H63 C99 0.929 . S
H64 C100 0.931 . S
H65 C102 0.929 . S
N66 C86 1.433 . S
N66 C92 1.435 . S
N66 C98 1.423 1_455 S
H67 C103 0.932 . S
C68 N43 1.433 . S
C68 C69 1.363 1_455 S
C68 C73 1.370 . S
C69 H42 0.929 . S
C69 C68 1.363 1_655 S
C69 C70 1.385 . S
C70 H44 0.930 . S
C70 C69 1.385 . S
C70 C71 1.357 1_655 S
C71 C70 1.357 1_455 S
C71 C72 1.406 . S
C72 H46 0.929 . S
C72 C71 1.406 . S
C72 C73 1.391 . S
C73 H45 0.931 . S
C73 C68 1.370 . S
C73 C72 1.391 . S
C74 N43 1.435 . S
C74 C75 1.358 . S
C74 C79 1.371 1_455 S
C75 H47 0.930 . S
C75 C74 1.358 . S
C75 C76 1.405 . S
C76 H48 0.932 . S
C76 C75 1.405 . S
C76 C77 1.383 . S
C77 C76 1.383 . S
C77 C78 1.393 1_455 S
C78 H50 0.931 . S
C78 C77 1.393 1_655 S
C78 C79 1.382 . S
C79 H49 0.929 . S
C79 C74 1.371 1_655 S
C79 C78 1.382 . S
C80 N43 1.423 1_655 S
C80 C81 1.362 . S
C80 C85 1.388 1_655 S
C81 H51 0.929 . S
C81 C80 1.362 . S
C81 C82 1.376 . S
C82 H53 0.931 . S
C82 C81 1.376 . S
C82 C83 1.396 . S
C83 C82 1.396 . S
C83 C84 1.348 1_655 S
C83 C101 1.472 . S
C84 H54 0.929 . S
C84 C83 1.348 1_455 S
C84 C85 1.443 . S
C85 H52 0.932 . S
C85 C80 1.388 1_455 S
C85 C84 1.443 . S
C86 N66 1.433 . S
C86 C87 1.363 1_455 S
C86 C91 1.370 . S
C87 H55 0.929 . S
C87 C86 1.363 1_655 S
C87 C88 1.385 . S
C88 H56 0.930 . S
C88 C87 1.385 . S
C88 C89 1.357 1_655 S
C89 C88 1.357 1_455 S
C89 C90 1.406 . S
C90 H57 0.929 . S
C90 C89 1.406 . S
C90 C91 1.391 . S
C91 H58 0.931 . S
C91 C86 1.370 . S
C91 C90 1.391 . S
C92 N66 1.435 . S
C92 C93 1.358 . S
C92 C97 1.371 1_455 S
C93 H59 0.930 . S
C93 C92 1.358 . S
C93 C94 1.405 . S
C94 H60 0.932 . S
C94 C93 1.405 . S
C94 C95 1.383 . S
C95 C94 1.383 . S
C95 C96 1.393 1_455 S
C96 H61 0.931 . S
C96 C95 1.393 1_655 S
C96 C97 1.382 . S
C97 H62 0.929 . S
C97 C92 1.371 1_655 S
C97 C96 1.382 . S
C98 N66 1.423 1_655 S
C98 C99 1.362 . S
C98 C103 1.388 1_655 S
C99 H63 0.929 . S
C99 C98 1.362 . S
C99 C100 1.376 . S
C100 H64 0.931 . S
C100 C99 1.376 . S
C100 C101 1.396 . S
C101 C83 1.472 . S
C101 C100 1.396 . S
C101 C102 1.348 1_655 S
C102 H65 0.929 . S
C102 C101 1.348 1_455 S
C102 C103 1.443 . S
C103 H67 0.932 . S
C103 C98 1.388 1_455 S
C103 C102 1.443 . S
H104 C131 0.929 . S
N105 C130 1.433 . S
N105 C136 1.435 . S
N105 C142 1.423 . S
H106 C132 0.930 . S
H107 C135 0.931 . S
H108 C134 0.929 . S
H109 C137 0.941 . S
H110 C138 0.932 1_565 S
H111 C141 0.929 . S
H112 C140 0.931 . S
H113 C143 0.929 . S
H114 C147 0.932 . S
H115 C144 0.931 . S
H116 C146 0.929 . S
H117 C149 0.929 . S
H118 C150 0.930 . S
H119 C152 0.929 . S
H120 C153 0.931 . S
H121 C155 0.941 . S
H122 C156 0.932 1_565 S
H123 C158 0.931 . S
H124 C159 0.929 . S
H125 C161 0.929 . S
H126 C162 0.931 . S
H127 C164 0.929 . S
N128 C148 1.433 . S
N128 C154 1.435 . S
N128 C160 1.423 . S
H129 C165 0.932 . S
C130 N105 1.433 . S
C130 C131 1.363 . S
C130 C135 1.370 . S
C131 H104 0.929 . S
C131 C130 1.363 . S
C131 C132 1.385 . S
C132 H106 0.930 . S
C132 C131 1.385 . S
C132 C133 1.357 . S
C133 C132 1.357 . S
C133 C134 1.406 . S
C134 H108 0.929 . S
C134 C133 1.406 . S
C134 C135 1.391 . S
C135 H107 0.931 . S
C135 C130 1.370 . S
C135 C134 1.391 . S
C136 N105 1.435 . S
C136 C137 1.358 . S
C136 C141 1.371 . S
C137 H109 0.941 . S
C137 C136 1.358 . S
C137 C138 1.405 . S
C138 H110 0.932 1_545 S
C138 C137 1.405 . S
C138 C139 1.383 . S
C139 C138 1.383 . S
C139 C140 1.393 . S
C140 H112 0.931 . S
C140 C139 1.393 . S
C140 C141 1.382 . S
C141 H111 0.929 . S
C141 C136 1.371 . S
C141 C140 1.382 . S
C142 N105 1.423 . S
C142 C143 1.362 . S
C142 C147 1.388 . S
C143 H113 0.929 . S
C143 C142 1.362 . S
C143 C144 1.376 . S
C144 H115 0.931 . S
C144 C143 1.376 . S
C144 C145 1.396 . S
C145 C144 1.396 . S
C145 C146 1.348 . S
C145 C163 1.472 . S
C146 H116 0.929 . S
C146 C145 1.348 . S
C146 C147 1.443 . S
C147 H114 0.932 . S
C147 C142 1.388 . S
C147 C146 1.443 . S
C148 N128 1.433 . S
C148 C149 1.363 . S
C148 C153 1.370 . S
C149 H117 0.929 . S
C149 C148 1.363 . S
C149 C150 1.385 . S
C150 H118 0.930 . S
C150 C149 1.385 . S
C150 C151 1.357 . S
C151 C150 1.357 . S
C151 C152 1.406 . S
C152 H119 0.929 . S
C152 C151 1.406 . S
C152 C153 1.391 . S
C153 H120 0.931 . S
C153 C148 1.370 . S
C153 C152 1.391 . S
C154 N128 1.435 . S
C154 C155 1.358 . S
C154 C159 1.371 . S
C155 H121 0.941 . S
C155 C154 1.358 . S
C155 C156 1.405 . S
C156 H122 0.932 1_545 S
C156 C155 1.405 . S
C156 C157 1.383 . S
C157 C156 1.383 . S
C157 C158 1.393 . S
C158 H123 0.931 . S
C158 C157 1.393 . S
C158 C159 1.382 . S
C159 H124 0.929 . S
C159 C154 1.371 . S
C159 C158 1.382 . S
C160 N128 1.423 . S
C160 C161 1.362 . S
C160 C165 1.388 . S
C161 H125 0.929 . S
C161 C160 1.362 . S
C161 C162 1.376 . S
C162 H126 0.931 . S
C162 C161 1.376 . S
C162 C163 1.396 . S
C163 C145 1.472 . S
C163 C162 1.396 . S
C163 C164 1.348 . S
C164 H127 0.929 . S
C164 C163 1.348 . S
C164 C165 1.443 . S
C165 H129 0.932 . S
C165 C160 1.388 . S
C165 C164 1.443 . S
H166 C193 0.929 . S
N167 C192 1.433 . S
N167 C198 1.435 . S
N167 C204 1.423 . S
H168 C194 0.930 . S
H169 C197 0.931 . S
H170 C196 0.929 . S
H171 C199 0.930 . S
H172 C200 0.932 . S
H173 C203 0.929 . S
H174 C202 0.931 . S
H175 C205 0.929 . S
H176 C209 0.932 . S
H177 C206 0.931 . S
H178 C208 0.929 . S
H179 C211 0.929 . S
H180 C212 0.930 . S
H181 C214 0.929 . S
H182 C215 0.931 . S
H183 C217 0.930 . S
H184 C218 0.932 . S
H185 C220 0.931 . S
H186 C221 0.929 . S
H187 C223 0.929 . S
H188 C224 0.931 . S
H189 C226 0.929 . S
N190 C210 1.433 . S
N190 C216 1.435 . S
N190 C222 1.423 . S
H191 C227 0.932 . S
C192 N167 1.433 . S
C192 C193 1.363 . S
C192 C197 1.370 . S
C193 H166 0.929 . S
C193 C192 1.363 . S
C193 C194 1.385 . S
C194 H168 0.930 . S
C194 C193 1.385 . S
C194 C195 1.357 . S
C195 C194 1.357 . S
C195 C196 1.406 . S
C196 H170 0.929 . S
C196 C195 1.406 . S
C196 C197 1.391 . S
C197 H169 0.931 . S
C197 C192 1.370 . S
C197 C196 1.391 . S
C198 N167 1.435 . S
C198 C199 1.358 . S
C198 C203 1.371 . S
C199 H171 0.930 . S
C199 C198 1.358 . S
C199 C200 1.405 . S
C200 H172 0.932 . S
C200 C199 1.405 . S
C200 C201 1.383 . S
C201 C200 1.383 . S
C201 C202 1.393 . S
C202 H174 0.931 . S
C202 C201 1.393 . S
C202 C203 1.382 . S
C203 H173 0.929 . S
C203 C198 1.371 . S
C203 C202 1.382 . S
C204 N167 1.423 . S
C204 C205 1.362 . S
C204 C209 1.388 . S
C205 H175 0.929 . S
C205 C204 1.362 . S
C205 C206 1.376 . S
C206 H177 0.931 . S
C206 C205 1.376 . S
C206 C207 1.396 . S
C207 C206 1.396 . S
C207 C208 1.348 . S
C207 C225 1.472 . S
C208 H178 0.929 . S
C208 C207 1.348 . S
C208 C209 1.443 . S
C209 H176 0.932 . S
C209 C204 1.388 . S
C209 C208 1.443 . S
C210 N190 1.433 . S
C210 C211 1.363 . S
C210 C215 1.370 . S
C211 H179 0.929 . S
C211 C210 1.363 . S
C211 C212 1.385 . S
C212 H180 0.930 . S
C212 C211 1.385 . S
C212 C213 1.357 . S
C213 C212 1.357 . S
C213 C214 1.406 . S
C214 H181 0.929 . S
C214 C213 1.406 . S
C214 C215 1.391 . S
C215 H182 0.931 . S
C215 C210 1.370 . S
C215 C214 1.391 . S
C216 N190 1.435 . S
C216 C217 1.358 . S
C216 C221 1.371 . S
C217 H183 0.930 . S
C217 C216 1.358 . S
C217 C218 1.405 . S
C218 H184 0.932 . S
C218 C217 1.405 . S
C218 C219 1.383 . S
C219 C218 1.383 . S
C219 C220 1.393 . S
C220 H185 0.931 . S
C220 C219 1.393 . S
C220 C221 1.382 . S
C221 H186 0.929 . S
C221 C216 1.371 . S
C221 C220 1.382 . S
C222 N190 1.423 . S
C222 C223 1.362 . S
C222 C227 1.388 . S
C223 H187 0.929 . S
C223 C222 1.362 . S
C223 C224 1.376 . S
C224 H188 0.931 . S
C224 C223 1.376 . S
C224 C225 1.396 . S
C225 C207 1.472 . S
C225 C224 1.396 . S
C225 C226 1.348 . S
C226 H189 0.929 . S
C226 C225 1.348 . S
C226 C227 1.443 . S
C227 H191 0.932 . S
C227 C222 1.388 . S
C227 C226 1.443 . S
H228 C240 0.930 . S
H229 C242 0.930 . S
H230 C243 0.930 . S
H231 C247 0.959 1_655 S
H232 C247 0.959 . S
H233 C247 0.961 . S
H234 C248 0.960 . S
H235 C248 0.961 . S
H236 C248 0.959 . S
H237 C251 0.929 . S
H238 C252 0.931 . S
H239 C254 0.930 . S
C240 H228 0.930 . S
C240 C241 1.399 . S
C240 C245 1.399 . S
C241 C240 1.399 . S
C241 C242 1.376 . S
C242 H229 0.930 . S
C242 C241 1.376 . S
C242 C243 1.388 . S
C243 H230 0.930 . S
C243 C242 1.388 . S
C243 C244 1.390 . S
C244 C243 1.390 . S
C244 C245 1.394 . S
C244 C250 1.465 . S
C245 C240 1.399 . S
C245 C244 1.394 . S
C245 C246 1.516 . S
C246 C245 1.516 . S
C246 C247 1.502 . S
C246 C248 1.561 . S
C246 C249 1.526 . S
C247 H231 0.959 1_455 S
C247 H232 0.959 . S
C247 H233 0.961 . S
C247 C246 1.502 . S
C248 H234 0.960 . S
C248 H235 0.961 . S
C248 H236 0.959 . S
C248 C246 1.561 . S
C249 C246 1.526 . S
C249 C250 1.396 . S
C249 C254 1.390 . S
C250 C244 1.465 . S
C250 C249 1.396 . S
C250 C251 1.399 . S
C251 H237 0.929 . S
C251 C250 1.399 . S
C251 C252 1.385 . S
C252 H238 0.931 . S
C252 C251 1.385 . S
C252 C253 1.389 . S
C253 C252 1.389 . S
C253 C254 1.387 . S
C254 H239 0.930 . S
C254 C249 1.390 . S
C254 C253 1.387 . S
H255 C267 0.930 . S
H256 C269 0.930 . S
H257 C270 0.930 . S
H258 C274 0.959 . S
H259 C274 0.959 . S
H260 C274 0.961 . S
H261 C275 0.960 . S
H262 C275 0.961 . S
H263 C275 0.959 . S
H264 C278 0.929 . S
H265 C279 0.931 . S
H266 C281 0.930 . S
C267 H255 0.930 . S
C267 C268 1.399 1_545 S
C267 C272 1.399 . S
C268 C267 1.399 1_565 S
C268 C269 1.376 . S
C269 H256 0.930 . S
C269 C268 1.376 . S
C269 C270 1.388 . S
C270 H257 0.930 . S
C270 C269 1.388 . S
C270 C271 1.390 . S
C271 C270 1.390 . S
C271 C272 1.394 1_565 S
C271 C277 1.465 . S
C272 C267 1.399 . S
C272 C271 1.394 1_545 S
C272 C273 1.516 . S
C273 C272 1.516 . S
C273 C274 1.502 . S
C273 C275 1.561 . S
C273 C276 1.526 . S
C274 H258 0.959 . S
C274 H259 0.959 . S
C274 H260 0.961 . S
C274 C273 1.502 . S
C275 H261 0.960 . S
C275 H262 0.961 . S
C275 H263 0.959 . S
C275 C273 1.561 . S
C276 C273 1.526 . S
C276 C277 1.396 1_545 S
C276 C281 1.390 . S
C277 C271 1.465 . S
C277 C276 1.396 1_565 S
C277 C278 1.399 . S
C278 H264 0.929 . S
C278 C277 1.399 . S
C278 C279 1.385 . S
C279 H265 0.931 . S
C279 C278 1.385 . S
C279 C280 1.389 1_565 S
C280 C279 1.389 1_545 S
C280 C281 1.387 . S
C281 H266 0.930 . S
C281 C276 1.390 . S
C281 C280 1.387 . S
H282 C294 0.930 . S
H283 C296 0.950 . S
H284 C297 0.930 . S
H285 C301 0.959 . S
H286 C301 0.959 . S
H287 C301 0.961 . S
H288 C302 0.960 . S
H289 C302 0.961 . S
H290 C302 0.959 . S
H291 C305 0.929 . S
H292 C306 0.931 . S
H293 C308 0.930 . S
C294 H282 0.930 . S
C294 C295 1.399 . S
C294 C299 1.399 . S
C295 C294 1.399 . S
C295 C296 1.376 . S
C296 H283 0.950 . S
C296 C295 1.376 . S
C296 C297 1.388 . S
C297 H284 0.930 . S
C297 C296 1.388 . S
C297 C298 1.390 . S
C298 C297 1.390 . S
C298 C299 1.394 . S
C298 C304 1.465 . S
C299 C294 1.399 . S
C299 C298 1.394 . S
C299 C300 1.516 . S
C300 C299 1.516 . S
C300 C301 1.502 . S
C300 C302 1.561 . S
C300 C303 1.526 . S
C301 H285 0.959 . S
C301 H286 0.959 . S
C301 H287 0.961 . S
C301 C300 1.502 . S
C302 H288 0.960 . S
C302 H289 0.961 . S
C302 H290 0.959 . S
C302 C300 1.561 . S
C303 C300 1.526 . S
C303 C304 1.396 . S
C303 C308 1.390 . S
C304 C298 1.465 . S
C304 C303 1.396 . S
C304 C305 1.399 . S
C305 H291 0.929 . S
C305 C304 1.399 . S
C305 C306 1.385 . S
C306 H292 0.931 . S
C306 C305 1.385 . S
C306 C307 1.389 . S
C307 C306 1.389 . S
C307 C308 1.387 . S
C308 H293 0.930 . S
C308 C303 1.390 . S
C308 C307 1.387 . S
H309 C321 0.930 . S
H310 C323 0.930 . S
H311 C324 0.930 . S
H312 C328 0.959 . S
H313 C328 0.959 . S
H314 C328 0.961 . S
H315 C329 0.960 . S
H316 C329 0.961 . S
H317 C329 0.959 . S
H318 C332 0.929 . S
H319 C333 0.931 . S
H320 C335 0.930 . S
C321 H309 0.930 . S
C321 C322 1.399 . S
C321 C326 1.399 . S
C322 C321 1.399 . S
C322 C323 1.376 . S
C323 H310 0.930 . S
C323 C322 1.376 . S
C323 C324 1.388 . S
C324 H311 0.930 . S
C324 C323 1.388 . S
C324 C325 1.390 . S
C325 C324 1.390 . S
C325 C326 1.394 . S
C325 C331 1.465 . S
C326 C321 1.399 . S
C326 C325 1.394 . S
C326 C327 1.516 . S
C327 C326 1.516 . S
C327 C328 1.502 1_455 S
C327 C329 1.561 . S
C327 C330 1.526 . S
C328 H312 0.959 . S
C328 H313 0.959 . S
C328 H314 0.961 . S
C328 C327 1.502 1_655 S
C329 H315 0.960 . S
C329 H316 0.961 . S
C329 H317 0.959 . S
C329 C327 1.561 . S
C330 C327 1.526 . S
C330 C331 1.396 . S
C330 C335 1.390 . S
C331 C325 1.465 . S
C331 C330 1.396 . S
C331 C332 1.399 . S
C332 H318 0.929 . S
C332 C331 1.399 . S
C332 C333 1.385 . S
C333 H319 0.931 . S
C333 C332 1.385 . S
C333 C334 1.389 . S
C334 C333 1.389 . S
C334 C335 1.387 . S
C335 H320 0.930 . S
C335 C330 1.390 . S
C335 C334 1.387 . S
H336 C348 0.930 . S
H337 C350 0.930 . S
H338 C351 0.930 . S
H339 C355 0.959 . S
H340 C355 0.959 . S
H341 C355 0.961 . S
H342 C356 0.960 . S
H343 C356 0.961 . S
H344 C356 0.959 . S
H345 C359 0.929 . S
H346 C360 0.931 . S
H347 C362 0.930 . S
C348 H336 0.930 . S
C348 C349 1.399 . S
C348 C353 1.399 . S
C349 C348 1.399 . S
C349 C350 1.376 1_545 S
C350 H337 0.930 . S
C350 C349 1.376 1_565 S
C350 C351 1.388 . S
C351 H338 0.930 . S
C351 C350 1.388 . S
C351 C352 1.390 1_565 S
C352 C351 1.390 1_545 S
C352 C353 1.394 . S
C352 C358 1.465 . S
C353 C348 1.399 . S
C353 C352 1.394 . S
C353 C354 1.516 . S
C354 C353 1.516 . S
C354 C355 1.502 . S
C354 C356 1.561 . S
C354 C357 1.526 . S
C355 H339 0.959 . S
C355 H340 0.959 . S
C355 H341 0.961 . S
C355 C354 1.502 . S
C356 H342 0.960 . S
C356 H343 0.961 . S
C356 H344 0.959 . S
C356 C354 1.561 . S
C357 C354 1.526 . S
C357 C358 1.396 . S
C357 C362 1.390 . S
C358 C352 1.465 . S
C358 C357 1.396 . S
C358 C359 1.399 1_545 S
C359 H345 0.929 . S
C359 C358 1.399 1_565 S
C359 C360 1.385 . S
C360 H346 0.931 . S
C360 C359 1.385 . S
C360 C361 1.389 1_565 S
C361 C360 1.389 1_545 S
C361 C362 1.387 . S
C362 H347 0.930 . S
C362 C357 1.390 . S
C362 C361 1.387 . S
H363 C375 0.930 . S
H364 C377 0.930 . S
H365 C378 0.930 . S
H366 C382 0.959 . S
H367 C382 0.959 . S
H368 C382 0.961 . S
H369 C383 0.960 . S
H370 C383 0.961 . S
H371 C383 0.959 . S
H372 C386 0.929 . S
H373 C387 0.931 . S
H374 C389 0.930 . S
C375 H363 0.930 . S
C375 C376 1.399 . S
C375 C380 1.399 . S
C376 C375 1.399 . S
C376 C377 1.376 . S
C377 H364 0.930 . S
C377 C376 1.376 . S
C377 C378 1.388 . S
C378 H365 0.930 . S
C378 C377 1.388 . S
C378 C379 1.390 . S
C379 C378 1.390 . S
C379 C380 1.394 . S
C379 C385 1.465 . S
C380 C375 1.399 . S
C380 C379 1.394 . S
C380 C381 1.516 . S
C381 C380 1.516 . S
C381 C382 1.502 . S
C381 C383 1.561 . S
C381 C384 1.526 . S
C382 H366 0.959 . S
C382 H367 0.959 . S
C382 H368 0.961 . S
C382 C381 1.502 . S
C383 H369 0.960 . S
C383 H370 0.961 . S
C383 H371 0.959 . S
C383 C381 1.561 . S
C384 C381 1.526 . S
C384 C385 1.396 . S
C384 C389 1.390 . S
C385 C379 1.465 . S
C385 C384 1.396 . S
C385 C386 1.399 . S
C386 H372 0.929 . S
C386 C385 1.399 . S
C386 C387 1.385 . S
C387 H373 0.931 . S
C387 C386 1.385 . S
C387 C388 1.389 . S
C388 C387 1.389 . S
C388 C389 1.387 . S
C389 H374 0.930 . S
C389 C384 1.390 . S
C389 C388 1.387 . S
H390 C402 0.930 1_565 S
H391 C404 0.930 . S
H392 C405 0.930 . S
H393 C409 0.959 1_545 S
H394 C409 0.959 . S
H395 C409 0.961 . S
H396 C410 0.960 . S
H397 C410 0.961 . S
H398 C410 0.959 . S
H399 C413 0.929 . S
H400 C414 0.931 . S
H401 C416 0.930 1_565 S
C402 H390 0.930 1_545 S
C402 C403 1.399 . S
C402 C407 1.399 . S
C403 C402 1.399 . S
C403 C404 1.376 . S
C404 H391 0.930 . S
C404 C403 1.376 . S
C404 C405 1.388 . S
C405 H392 0.930 . S
C405 C404 1.388 . S
C405 C406 1.390 . S
C406 C405 1.390 . S
C406 C407 1.394 . S
C406 C412 1.465 . S
C407 C402 1.399 . S
C407 C406 1.394 . S
C407 C408 1.516 1_545 S
C408 C407 1.516 1_565 S
C408 C409 1.502 . S
C408 C410 1.561 . S
C408 C411 1.526 1_565 S
C409 H393 0.959 1_565 S
C409 H394 0.959 . S
C409 H395 0.961 . S
C409 C408 1.502 . S
C410 H396 0.960 . S
C410 H397 0.961 . S
C410 H398 0.959 . S
C410 C408 1.561 . S
C411 C408 1.526 1_545 S
C411 C412 1.396 . S
C411 C416 1.390 . S
C412 C406 1.465 . S
C412 C411 1.396 . S
C412 C413 1.399 . S
C413 H399 0.929 . S
C413 C412 1.399 . S
C413 C414 1.385 . S
C414 H400 0.931 . S
C414 C413 1.385 . S
C414 C415 1.389 . S
C415 C414 1.389 . S
C415 C416 1.387 . S
C416 H401 0.930 1_545 S
C416 C411 1.390 . S
C416 C415 1.387 . S
H417 C429 0.930 1_554 S
H418 C431 0.930 . S
H419 C432 0.930 . S
H420 C436 0.959 . S
H421 C436 0.959 . S
H422 C436 0.961 1_554 S
H423 C437 0.958 1_554 S
H424 C437 0.960 1_554 S
H425 C437 0.960 . S
H426 C440 0.929 . S
H427 C441 0.931 . S
H428 C443 0.930 . S
C429 H417 0.930 1_556 S
C429 C430 1.399 . S
C429 C434 1.399 . S
C430 C429 1.399 . S
C430 C431 1.376 . S
C431 H418 0.930 . S
C431 C430 1.376 . S
C431 C432 1.388 . S
C432 H419 0.930 . S
C432 C431 1.388 . S
C432 C433 1.390 . S
C433 C432 1.390 . S
C433 C434 1.394 . S
C433 C439 1.465 . S
C434 C429 1.399 . S
C434 C433 1.394 . S
C434 C435 1.516 . S
C435 C434 1.516 . S
C435 C436 1.502 . S
C435 C437 1.563 . S
C435 C438 1.526 . S
C436 H420 0.959 . S
C436 H421 0.959 . S
C436 H422 0.961 1_556 S
C436 C435 1.502 . S
C437 H423 0.958 1_556 S
C437 H424 0.960 1_556 S
C437 H425 0.960 . S
C437 C435 1.563 . S
C438 C435 1.526 . S
C438 C439 1.396 . S
C438 C443 1.390 . S
C439 C433 1.465 . S
C439 C438 1.396 . S
C439 C440 1.399 . S
C440 H426 0.929 . S
C440 C439 1.399 . S
C440 C441 1.385 . S
C441 H427 0.931 . S
C441 C440 1.385 . S
C441 C442 1.389 . S
C442 C441 1.389 . S
C442 C443 1.387 . S
C443 H428 0.930 . S
C443 C438 1.390 . S
C443 C442 1.387 . S
H444 C456 0.930 . S
H445 C458 0.930 . S
H446 C459 0.930 . S
H447 C463 0.959 . S
H448 C463 0.959 . S
H449 C463 0.961 . S
H450 C464 0.960 . S
H451 C464 0.961 . S
H452 C464 0.959 . S
H453 C467 0.929 . S
H454 C468 0.931 . S
H455 C470 0.930 1_655 S
C456 H444 0.930 . S
C456 C457 1.399 . S
C456 C461 1.399 . S
C457 C456 1.399 . S
C457 C458 1.376 . S
C458 H445 0.930 . S
C458 C457 1.376 . S
C458 C459 1.388 1_655 S
C459 H446 0.930 . S
C459 C458 1.388 1_455 S
C459 C460 1.390 1_455 S
C460 C459 1.390 1_655 S
C460 C461 1.394 . S
C460 C466 1.465 1_655 S
C461 C456 1.399 . S
C461 C460 1.394 . S
C461 C462 1.516 . S
C462 C461 1.516 . S
C462 C463 1.502 1_655 S
C462 C464 1.561 . S
C462 C465 1.526 . S
C463 H447 0.959 . S
C463 H448 0.959 . S
C463 H449 0.961 . S
C463 C462 1.502 1_455 S
C464 H450 0.960 . S
C464 H451 0.961 . S
C464 H452 0.959 . S
C464 C462 1.561 . S
C465 C462 1.526 . S
C465 C466 1.396 1_655 S
C465 C470 1.390 1_655 S
C466 C460 1.465 1_455 S
C466 C465 1.396 1_455 S
C466 C467 1.399 . S
C467 H453 0.929 . S
C467 C466 1.399 . S
C467 C468 1.385 . S
C468 H454 0.931 . S
C468 C467 1.385 . S
C468 C469 1.389 . S
C469 C468 1.389 . S
C469 C470 1.387 . S
C470 H455 0.930 1_455 S
C470 C465 1.390 1_455 S
C470 C469 1.387 . S
H471 C483 0.930 . S
H472 C485 0.930 . S
H473 C486 0.930 . S
H474 C490 0.959 . S
H475 C490 0.959 . S
H476 C490 0.961 . S
H477 C491 0.960 . S
H478 C491 0.961 . S
H479 C491 0.959 . S
H480 C494 0.929 . S
H481 C495 0.931 . S
H482 C497 0.930 . S
C483 H471 0.930 . S
C483 C484 1.399 . S
C483 C488 1.399 1_565 S
C484 C483 1.399 . S
C484 C485 1.376 1_565 S
C485 H472 0.930 . S
C485 C484 1.376 1_545 S
C485 C486 1.388 . S
C486 H473 0.930 . S
C486 C485 1.388 . S
C486 C487 1.390 . S
C487 C486 1.390 . S
C487 C488 1.394 . S
C487 C493 1.465 . S
C488 C483 1.399 1_545 S
C488 C487 1.394 . S
C488 C489 1.516 . S
C489 C488 1.516 . S
C489 C490 1.502 1_545 S
C489 C491 1.561 . S
C489 C492 1.526 . S
C490 H474 0.959 . S
C490 H475 0.959 . S
C490 H476 0.961 . S
C490 C489 1.502 1_565 S
C491 H477 0.960 . S
C491 H478 0.961 . S
C491 H479 0.959 . S
C491 C489 1.561 . S
C492 C489 1.526 . S
C492 C493 1.396 . S
C492 C497 1.390 . S
C493 C487 1.465 . S
C493 C492 1.396 . S
C493 C494 1.399 . S
C494 H480 0.929 . S
C494 C493 1.399 . S
C494 C495 1.385 . S
C495 H481 0.931 . S
C495 C494 1.385 . S
C495 C496 1.389 . S
C496 C495 1.389 . S
C496 C497 1.387 . S
C497 H482 0.930 . S
C497 C492 1.390 . S
C497 C496 1.387 . S
H498 C510 0.930 1_554 S
H499 C512 0.930 . S
H500 C513 0.930 . S
H501 C517 0.959 . S
H502 C517 0.959 . S
H503 C517 0.961 . S
H504 C518 0.960 1_554 S
H505 C518 0.961 . S
H506 C518 0.959 . S
H507 C521 0.929 . S
H508 C522 0.931 . S
H509 C524 0.930 . S
C510 H498 0.930 1_556 S
C510 C511 1.399 . S
C510 C515 1.399 . S
C511 C510 1.399 . S
C511 C512 1.376 . S
C512 H499 0.930 . S
C512 C511 1.376 . S
C512 C513 1.388 . S
C513 H500 0.930 . S
C513 C512 1.388 . S
C513 C514 1.390 . S
C514 C513 1.390 . S
C514 C515 1.394 . S
C514 C520 1.465 . S
C515 C510 1.399 . S
C515 C514 1.394 . S
C515 C516 1.516 . S
C516 C515 1.516 . S
C516 C517 1.502 . S
C516 C518 1.561 . S
C516 C519 1.526 . S
C517 H501 0.959 . S
C517 H502 0.959 . S
C517 H503 0.961 . S
C517 C516 1.502 . S
C518 H504 0.960 1_556 S
C518 H505 0.961 . S
C518 H506 0.959 . S
C518 C516 1.561 . S
C519 C516 1.526 . S
C519 C520 1.396 . S
C519 C524 1.390 . S
C520 C514 1.465 . S
C520 C519 1.396 . S
C520 C521 1.399 . S
C521 H507 0.929 . S
C521 C520 1.399 . S
C521 C522 1.385 . S
C522 H508 0.931 . S
C522 C521 1.385 . S
C522 C523 1.389 . S
C523 C522 1.389 . S
C523 C524 1.387 . S
C524 H509 0.930 . S
C524 C519 1.390 . S
C524 C523 1.387 . S
H525 C537 0.930 . S
H526 C539 0.930 . S
H527 C540 0.930 . S
H528 C544 0.959 1_655 S
H529 C544 0.959 . S
H530 C544 0.961 . S
H531 C545 0.960 . S
H532 C545 0.961 . S
H533 C545 0.959 . S
H534 C548 0.929 . S
H535 C549 0.931 . S
H536 C551 0.930 . S
C537 H525 0.930 . S
C537 C538 1.399 . S
C537 C542 1.399 . S
C538 C537 1.399 . S
C538 C539 1.376 . S
C539 H526 0.930 . S
C539 C538 1.376 . S
C539 C540 1.388 . S
C540 H527 0.930 . S
C540 C539 1.388 . S
C540 C541 1.390 . S
C541 C540 1.390 . S
C541 C542 1.394 . S
C541 C547 1.465 . S
C542 C537 1.399 . S
C542 C541 1.394 . S
C542 C543 1.516 . S
C543 C542 1.516 . S
C543 C544 1.502 . S
C543 C545 1.561 . S
C543 C546 1.526 . S
C544 H528 0.959 1_455 S
C544 H529 0.959 . S
C544 H530 0.961 . S
C544 C543 1.502 . S
C545 H531 0.960 . S
C545 H532 0.961 . S
C545 H533 0.959 . S
C545 C543 1.561 . S
C546 C543 1.526 . S
C546 C547 1.396 . S
C546 C551 1.390 . S
C547 C541 1.465 . S
C547 C546 1.396 . S
C547 C548 1.399 . S
C548 H534 0.929 . S
C548 C547 1.399 . S
C548 C549 1.385 . S
C549 H535 0.931 . S
C549 C548 1.385 . S
C549 C550 1.389 . S
C550 C549 1.389 . S
C550 C551 1.387 . S
C551 H536 0.930 . S
C551 C546 1.390 . S
C551 C550 1.387 . S
C253 C95 1.253 . S
C241 C11 1.204 . S
C268 C26 1.443 . S
C280 C139 1.429 . S
C295 C40 1.334 . S
C307 C201 1.307 . S
C322 C5 1.022 . S
C334 C77 1.227 . S
C361 C157 1.409 . S
C349 C18 1.395 . S
C376 C32 1.283 . S
C388 C219 1.284 . S
C415 C133 1.386 . S
C403 C39 1.408 . S
C430 C4 1.588 1_556 S
C442 C195 1.461 . S
C469 C71 1.439 . S
C457 C19 1.402 . S
C496 C151 1.453 . S
C484 C33 1.414 . S
C523 C213 1.514 . S
C511 C12 1.640 1_556 S
C538 C25 1.581 . S
C550 C89 1.440 . S
