# Generated by pormake.
# Topology ctn, (3,4)-cn, num edge types: 1
# Building blocks:
#     Node 0, Type 0, BuildingBlock: BETDAH_clean_linker_0, # of connection points: 3
#     Node 1, Type 0, BuildingBlock: BETDAH_clean_linker_0, # of connection points: 3
#     Node 2, Type 0, BuildingBlock: BETDAH_clean_linker_0, # of connection points: 3
#     Node 3, Type 0, BuildingBlock: BETDAH_clean_linker_0, # of connection points: 3
#     Node 4, Type 0, BuildingBlock: BETDAH_clean_linker_0, # of connection points: 3
#     Node 5, Type 0, BuildingBlock: BETDAH_clean_linker_0, # of connection points: 3
#     Node 6, Type 0, BuildingBlock: BETDAH_clean_linker_0, # of connection points: 3
#     Node 7, Type 0, BuildingBlock: BETDAH_clean_linker_0, # of connection points: 3
#     Node 8, Type 0, BuildingBlock: BETDAH_clean_linker_0, # of connection points: 3
#     Node 9, Type 0, BuildingBlock: BETDAH_clean_linker_0, # of connection points: 3
#     Node 10, Type 0, BuildingBlock: BETDAH_clean_linker_0, # of connection points: 3
#     Node 11, Type 0, BuildingBlock: BETDAH_clean_linker_0, # of connection points: 3
#     Node 12, Type 0, BuildingBlock: BETDAH_clean_linker_0, # of connection points: 3
#     Node 13, Type 0, BuildingBlock: BETDAH_clean_linker_0, # of connection points: 3
#     Node 14, Type 0, BuildingBlock: BETDAH_clean_linker_0, # of connection points: 3
#     Node 15, Type 0, BuildingBlock: BETDAH_clean_linker_0, # of connection points: 3
#     Node 16, Type 1, BuildingBlock: NAHDIM_clean_sbu_0, # of connection points: 4
#     Node 17, Type 1, BuildingBlock: NAHDIM_clean_sbu_0, # of connection points: 4
#     Node 18, Type 1, BuildingBlock: NAHDIM_clean_sbu_0, # of connection points: 4
#     Node 19, Type 1, BuildingBlock: NAHDIM_clean_sbu_0, # of connection points: 4
#     Node 20, Type 1, BuildingBlock: NAHDIM_clean_sbu_0, # of connection points: 4
#     Node 21, Type 1, BuildingBlock: NAHDIM_clean_sbu_0, # of connection points: 4
#     Node 22, Type 1, BuildingBlock: NAHDIM_clean_sbu_0, # of connection points: 4
#     Node 23, Type 1, BuildingBlock: NAHDIM_clean_sbu_0, # of connection points: 4
#     Node 24, Type 1, BuildingBlock: NAHDIM_clean_sbu_0, # of connection points: 4
#     Node 25, Type 1, BuildingBlock: NAHDIM_clean_sbu_0, # of connection points: 4
#     Node 26, Type 1, BuildingBlock: NAHDIM_clean_sbu_0, # of connection points: 4
#     Node 27, Type 1, BuildingBlock: NAHDIM_clean_sbu_0, # of connection points: 4
#     Edge 28, Type (0, 1), BuildingBlock: AJUNOK_clean_linker_0, # of connection points: 2
#     Edge 29, Type (0, 1), BuildingBlock: AJUNOK_clean_linker_0, # of connection points: 2
#     Edge 30, Type (0, 1), BuildingBlock: AJUNOK_clean_linker_0, # of connection points: 2
#     Edge 31, Type (0, 1), BuildingBlock: AJUNOK_clean_linker_0, # of connection points: 2
#     Edge 32, Type (0, 1), BuildingBlock: AJUNOK_clean_linker_0, # of connection points: 2
#     Edge 33, Type (0, 1), BuildingBlock: AJUNOK_clean_linker_0, # of connection points: 2
#     Edge 34, Type (0, 1), BuildingBlock: AJUNOK_clean_linker_0, # of connection points: 2
#     Edge 35, Type (0, 1), BuildingBlock: AJUNOK_clean_linker_0, # of connection points: 2
#     Edge 36, Type (0, 1), BuildingBlock: AJUNOK_clean_linker_0, # of connection points: 2
#     Edge 37, Type (0, 1), BuildingBlock: AJUNOK_clean_linker_0, # of connection points: 2
#     Edge 38, Type (0, 1), BuildingBlock: AJUNOK_clean_linker_0, # of connection points: 2
#     Edge 39, Type (0, 1), BuildingBlock: AJUNOK_clean_linker_0, # of connection points: 2
#     Edge 40, Type (0, 1), BuildingBlock: AJUNOK_clean_linker_0, # of connection points: 2
#     Edge 41, Type (0, 1), BuildingBlock: AJUNOK_clean_linker_0, # of connection points: 2
#     Edge 42, Type (0, 1), BuildingBlock: AJUNOK_clean_linker_0, # of connection points: 2
#     Edge 43, Type (0, 1), BuildingBlock: AJUNOK_clean_linker_0, # of connection points: 2
#     Edge 44, Type (0, 1), BuildingBlock: AJUNOK_clean_linker_0, # of connection points: 2
#     Edge 45, Type (0, 1), BuildingBlock: AJUNOK_clean_linker_0, # of connection points: 2
#     Edge 46, Type (0, 1), BuildingBlock: AJUNOK_clean_linker_0, # of connection points: 2
#     Edge 47, Type (0, 1), BuildingBlock: AJUNOK_clean_linker_0, # of connection points: 2
#     Edge 48, Type (0, 1), BuildingBlock: AJUNOK_clean_linker_0, # of connection points: 2
#     Edge 49, Type (0, 1), BuildingBlock: AJUNOK_clean_linker_0, # of connection points: 2
#     Edge 50, Type (0, 1), BuildingBlock: AJUNOK_clean_linker_0, # of connection points: 2
#     Edge 51, Type (0, 1), BuildingBlock: AJUNOK_clean_linker_0, # of connection points: 2
#     Edge 52, Type (0, 1), BuildingBlock: AJUNOK_clean_linker_0, # of connection points: 2
#     Edge 53, Type (0, 1), BuildingBlock: AJUNOK_clean_linker_0, # of connection points: 2
#     Edge 54, Type (0, 1), BuildingBlock: AJUNOK_clean_linker_0, # of connection points: 2
#     Edge 55, Type (0, 1), BuildingBlock: AJUNOK_clean_linker_0, # of connection points: 2
#     Edge 56, Type (0, 1), BuildingBlock: AJUNOK_clean_linker_0, # of connection points: 2
#     Edge 57, Type (0, 1), BuildingBlock: AJUNOK_clean_linker_0, # of connection points: 2
#     Edge 58, Type (0, 1), BuildingBlock: AJUNOK_clean_linker_0, # of connection points: 2
#     Edge 59, Type (0, 1), BuildingBlock: AJUNOK_clean_linker_0, # of connection points: 2
#     Edge 60, Type (0, 1), BuildingBlock: AJUNOK_clean_linker_0, # of connection points: 2
#     Edge 61, Type (0, 1), BuildingBlock: AJUNOK_clean_linker_0, # of connection points: 2
#     Edge 62, Type (0, 1), BuildingBlock: AJUNOK_clean_linker_0, # of connection points: 2
#     Edge 63, Type (0, 1), BuildingBlock: AJUNOK_clean_linker_0, # of connection points: 2
#     Edge 64, Type (0, 1), BuildingBlock: AJUNOK_clean_linker_0, # of connection points: 2
#     Edge 65, Type (0, 1), BuildingBlock: AJUNOK_clean_linker_0, # of connection points: 2
#     Edge 66, Type (0, 1), BuildingBlock: AJUNOK_clean_linker_0, # of connection points: 2
#     Edge 67, Type (0, 1), BuildingBlock: AJUNOK_clean_linker_0, # of connection points: 2
#     Edge 68, Type (0, 1), BuildingBlock: AJUNOK_clean_linker_0, # of connection points: 2
#     Edge 69, Type (0, 1), BuildingBlock: AJUNOK_clean_linker_0, # of connection points: 2
#     Edge 70, Type (0, 1), BuildingBlock: AJUNOK_clean_linker_0, # of connection points: 2
#     Edge 71, Type (0, 1), BuildingBlock: AJUNOK_clean_linker_0, # of connection points: 2
#     Edge 72, Type (0, 1), BuildingBlock: AJUNOK_clean_linker_0, # of connection points: 2
#     Edge 73, Type (0, 1), BuildingBlock: AJUNOK_clean_linker_0, # of connection points: 2
#     Edge 74, Type (0, 1), BuildingBlock: AJUNOK_clean_linker_0, # of connection points: 2
#     Edge 75, Type (0, 1), BuildingBlock: AJUNOK_clean_linker_0, # of connection points: 2
# Relax obj value: 0.050
# Max RMSD: 0.157
# Mean RMSD: 0.098
data_MOF--net-ctn--node1-NAHDIM_clean_sbu_0--node2-BETDAH_clean_linker_0--edge1-AJUNOK_clean_linker_0
_symmetry_space_group_name_H-M    P1
_symmetry_Int_Tables_number       1
_symmetry_cell_setting            triclinic
loop_
_symmetry_equiv_pos_as_xyz
'x, y, z'
_cell_length_a     39.227322
_cell_length_b     39.420993
_cell_length_c     39.503994
_cell_angle_alpha  101.07926
_cell_angle_beta   90.437298
_cell_angle_gamma 97.442147
loop_
_atom_site_label
_atom_site_type_symbol
_atom_site_fract_x
_atom_site_fract_y
_atom_site_fract_z
_atom_type_partial_charge
H0 H 0.07959 1.00216 0.11556 0.0
H1 H 0.09598 0.06176 0.03471 0.0
H2 H 0.02079 0.0858 0.11081 0.0
C3 C 0.07354 0.02294 0.10306 0.0
C4 C 0.04786 0.04288 0.11645 0.0
C5 C 0.09108 0.02927 0.07341 0.0
C6 C 0.08227 0.05598 0.05704 0.0
C7 C 0.0565 0.07604 0.07049 0.0
C8 C 0.03993 0.06956 0.10018 0.0
N9 N 0.04672 0.10365 0.05587 0.0
C10 C 0.05598 0.11141 0.02408 0.0
H11 H 0.32706 0.67877 0.26685 0.0
H12 H 0.36763 0.75653 0.20907 0.0
H13 H 0.28452 0.67778 0.16604 0.0
C14 C 0.32649 0.69026 0.24405 0.0
C15 C 0.30276 0.67495 0.21698 0.0
C16 C 0.35046 0.71935 0.2413 0.0
C17 C 0.34899 0.7345 0.21185 0.0
C18 C 0.32508 0.71934 0.18474 0.0
C19 C 0.30249 0.68953 0.18733 0.0
N20 N 0.32598 0.73068 0.15283 0.0
C21 C 0.3238 0.7647 0.14926 0.0
H22 H 0.06104 0.43986 0.04778 0.0
H23 H 0.01309 0.534 0.06774 0.0
H24 H 1.00436 0.4691 0.96685 0.0
C25 C 0.04496 0.45727 0.03941 0.0
C26 C 0.03277 0.45036 1.00493 0.0
C27 C 0.03815 0.48744 0.06247 0.0
C28 C 0.01825 0.51039 0.05061 0.0
C29 C 0.00616 0.50365 0.01612 0.0
C30 C 0.01367 0.47392 0.99347 0.0
N31 N 0.98955 0.5283 1.00282 0.0
C32 C 0.95732 0.53648 0.01297 0.0
H33 H 0.79056 0.82296 0.18963 0.0
H34 H 0.72188 0.75297 0.23738 0.0
H35 H 0.77854 0.84454 0.29948 0.0
C36 C 0.77826 0.81635 0.21242 0.0
C37 C 0.78642 0.83822 0.24467 0.0
C38 C 0.75512 0.78547 0.20951 0.0
C39 C 0.73944 0.77691 0.23924 0.0
C40 C 0.74766 0.79861 0.27163 0.0
C41 C 0.77151 0.82867 0.27421 0.0
N42 N 0.73432 0.78961 0.30239 0.0
C43 C 0.69957 0.77982 0.30668 0.0
H44 H 0.08804 0.03052 0.44815 0.0
H45 H 0.09087 0.99419 0.5445 0.0
H46 H 0.99925 0.9701 0.47975 0.0
C47 C 0.07589 0.01613 0.46661 0.0
C48 C 0.04215 0.99922 0.45969 0.0
C49 C 0.09379 0.01489 0.49734 0.0
C50 C 0.07747 0.99581 0.52091 0.0
C51 C 0.0432 0.97992 0.51455 0.0
C52 C 0.0258 0.98205 0.48423 0.0
N53 N 0.02445 0.96375 0.53902 0.0
C54 C 0.03773 0.94342 0.55961 0.0
H55 H 0.3083 0.73114 0.87151 0.0
H56 H 0.22508 0.76883 0.82429 0.0
H57 H 0.26949 0.6809 0.76977 0.0
C58 C 0.29029 0.72913 0.85004 0.0
C59 C 0.29179 0.70316 0.82051 0.0
C60 C 0.26614 0.75289 0.8518 0.0
C61 C 0.24311 0.75016 0.82357 0.0
C62 C 0.24429 0.72399 0.79402 0.0
C63 C 0.26871 0.70093 0.79268 0.0
N64 N 0.22188 0.72012 0.76476 0.0
C65 C 0.19461 0.73888 0.76237 0.0
H66 H 0.94025 0.58051 0.55471 0.0
H67 H 0.02963 0.58564 0.49179 0.0
H68 H 0.95885 0.49124 0.47947 0.0
C69 C 0.95575 0.56857 0.53434 0.0
C70 C 0.94512 0.5342 0.51715 0.0
C71 C 0.98647 0.58737 0.5258 0.0
C72 C 0.00622 0.57142 0.49904 0.0
C73 C 0.99607 0.53661 0.48242 0.0
C74 C 0.96598 0.51828 0.49194 0.0
N75 N 0.01596 0.51824 0.45713 0.0
C76 C 0.03984 0.53303 0.43659 0.0
H77 H 0.86817 0.73324 0.84338 0.0
H78 H 0.82981 0.81579 0.80293 0.0
H79 H 0.77335 0.76912 0.87867 0.0
C80 C 0.84881 0.75034 0.84246 0.0
C81 C 0.82057 0.74852 0.86403 0.0
C82 C 0.85229 0.77421 0.81985 0.0
C83 C 0.82711 0.79671 0.81945 0.0
C84 C 0.79856 0.79464 0.84068 0.0
C85 C 0.79557 0.77059 0.86258 0.0
N86 N 0.77194 0.81587 0.84094 0.0
C87 C 0.77156 0.84349 0.82384 0.0
H88 H 0.36912 0.25717 0.32192 0.0
H89 H 0.31406 0.32592 0.27621 0.0
H90 H 0.27053 0.28066 0.35932 0.0
C91 C 0.34721 0.27122 0.32124 0.0
C92 C 0.32046 0.26689 0.34416 0.0
C93 C 0.3452 0.2925 0.29657 0.0
C94 C 0.31594 0.30962 0.29514 0.0
C95 C 0.28896 0.30514 0.3178 0.0
C96 C 0.29138 0.2837 0.34184 0.0
N97 N 0.25849 0.32089 0.31695 0.0
C98 C 0.25456 0.34902 0.30148 0.0
H99 H 0.5387 0.92837 0.58002 0.0
H100 H 0.51368 0.02942 0.62667 0.0
H101 H 0.47491 0.98184 0.52422 0.0
C102 C 0.52551 0.95064 0.57873 0.0
C103 C 0.50658 0.95166 0.54857 0.0
C104 C 0.52772 0.97837 0.60716 0.0
C105 C 0.51142 0.0075 0.6051 0.0
C106 C 0.49236 0.00898 0.57552 0.0
C107 C 0.48967 0.98088 0.54722 0.0
N108 N 0.47733 0.03977 0.57522 0.0
C109 C 0.45154 0.04345 0.55242 0.0
H110 H 0.31026 0.34551 0.65529 0.0
H111 H 0.24628 0.27533 0.70712 0.0
H112 H 0.29814 0.37162 0.76499 0.0
C113 C 0.29875 0.33939 0.67862 0.0
C114 C 0.30552 0.3633 0.71001 0.0
C115 C 0.27795 0.30721 0.67738 0.0
C116 C 0.26272 0.29976 0.70778 0.0
C117 C 0.26999 0.32325 0.7393 0.0
C118 C 0.29182 0.35434 0.74028 0.0
N119 N 0.25743 0.31574 0.77093 0.0
C120 C 0.22554 0.29714 0.77442 0.0
H121 H 0.84129 0.18224 0.78134 0.0
H122 H 0.89246 0.23948 0.7094 0.0
H123 H 0.79411 0.17866 0.68175 0.0
C124 C 0.84172 0.19028 0.75659 0.0
C125 C 0.81375 0.17842 0.73301 0.0
C126 C 0.87041 0.21211 0.7483 0.0
C127 C 0.87027 0.22325 0.71653 0.0
C128 C 0.84245 0.21158 0.69286 0.0
C129 C 0.8146 0.18892 0.70097 0.0
N130 N 0.84448 0.21832 0.65901 0.0
C131 C 0.83828 0.24981 0.65101 0.0
H132 H 0.59489 0.50807 0.60362 0.0
H133 H 0.60421 0.52508 0.49976 0.0
H134 H 0.52734 0.57022 0.56383 0.0
C135 C 0.58684 0.52009 0.58297 0.0
C136 C 0.55894 0.53948 0.58765 0.0
C137 C 0.60337 0.51463 0.55143 0.0
C138 C 0.59212 0.52947 0.52452 0.0
C139 C 0.56552 0.55023 0.52906 0.0
C140 C 0.549 0.55554 0.56081 0.0
N141 N 0.55405 0.5623 0.49994 0.0
C142 C 0.54279 0.59443 0.50069 0.0
H143 H 0.57983 0.53952 0.94098 0.0
H144 H 0.57297 0.4829 0.02439 0.0
H145 H 0.49046 0.46602 0.94849 0.0
C146 C 0.5658 0.52076 0.95429 0.0
C147 C 0.53349 0.50358 0.94093 0.0
C148 C 0.58016 0.51381 0.98464 0.0
C149 C 0.56186 0.48898 1.00146 0.0
C150 C 0.52938 0.47183 0.9884 0.0
C151 C 0.51557 0.47926 0.95831 0.0
N152 N 0.50954 0.44703 1.00457 0.0
C153 C 0.51941 0.43558 0.0339 0.0
H154 H 0.80197 0.21308 0.36885 0.0
H155 H 0.71408 0.24931 0.32829 0.0
H156 H 0.74559 0.15151 0.2795 0.0
C157 C 0.78136 0.20974 0.34956 0.0
C158 C 0.77677 0.17959 0.32373 0.0
C159 C 0.7589 0.23504 0.35138 0.0
C160 C 0.73145 0.22988 0.32696 0.0
C161 C 0.7268 0.19969 0.30081 0.0
C162 C 0.74932 0.17473 0.29963 0.0
N163 N 0.69992 0.19314 0.27518 0.0
C164 C 0.67663 0.21582 0.27087 0.0
H165 H 0.43653 0.08943 0.05479 0.0
H166 H 0.52598 0.09238 0.99194 0.0
H167 H 0.45121 1.00054 0.97733 0.0
C168 C 0.45142 0.07727 0.03399 0.0
C169 C 0.43954 0.04342 0.01631 0.0
C170 C 0.48241 0.09538 0.02528 0.0
C171 C 0.50195 0.07883 0.99869 0.0
C172 C 0.49041 0.04451 0.9813 0.0
C173 C 0.45954 0.02715 0.99045 0.0
N174 N 0.50916 0.02576 0.95513 0.0
C175 C 0.5363 0.0395 0.93731 0.0
C176 C 0.19992 0.94444 0.02767 0.0
O177 O 0.20922 0.93834 0.99542 0.0
O178 O 0.24686 0.87113 0.99211 0.0
Zn179 Zn 0.25671 0.9065 0.03687 0.0
O180 O 0.29684 0.94112 0.02891 0.0
C181 C 0.29942 0.87553 0.08027 0.0
O182 O 0.32437 0.88968 0.06342 0.0
O183 O 0.21613 0.93272 0.05001 0.0
C184 C 0.3139 0.964 0.05202 0.0
O185 O 0.30544 0.96626 0.08441 0.0
C186 C 0.27296 0.86165 0.97579 0.0
O187 O 0.30373 0.87548 0.98862 0.0
O188 O 0.26863 0.88011 0.07395 0.0
C189 C 0.20603 0.47207 0.27052 0.0
O190 O 0.22399 0.50311 0.27943 0.0
O191 O 0.12133 0.52248 0.2953 0.0
Zn192 Zn 0.15142 0.51142 0.25443 0.0
O193 O 0.18649 0.55307 0.2522 0.0
C194 C 0.1123 0.52274 0.19584 0.0
O195 O 0.12281 0.55562 0.2093 0.0
O196 O 0.17514 0.46968 0.25927 0.0
C197 C 0.20593 0.5521 0.22653 0.0
O198 O 0.20264 0.52374 0.20242 0.0
C199 C 0.13349 0.53589 0.32556 0.0
O200 O 0.16697 0.5436 0.33046 0.0
O201 O 0.12137 0.49923 0.21066 0.0
C202 C 0.82312 0.58183 0.01872 0.0
O203 O 0.79741 0.56224 1.00003 0.0
O204 O 0.78699 0.66666 0.99163 0.0
Zn205 Zn 0.77745 0.63643 0.02749 0.0
O206 O 0.73438 0.6019 0.01286 0.0
C207 C 0.7531 0.69286 0.07573 0.0
O208 O 0.73917 0.69907 0.04759 0.0
O209 O 0.81961 0.61299 0.03263 0.0
C210 C 0.71276 0.59389 0.03484 0.0
O211 O 0.71962 0.6069 0.06771 0.0
C212 C 0.79787 0.6548 0.962 0.0
O213 O 0.80265 0.62186 0.95438 0.0
O214 O 0.77037 0.66737 0.07334 0.0
C215 C 0.86535 0.0707 0.31395 0.0
O216 O 0.85286 0.04069 0.32171 0.0
O217 O 0.95256 0.03155 0.33198 0.0
Zn218 Zn 0.92119 0.03208 0.29117 0.0
O219 O 0.88637 0.98855 0.28257 0.0
C220 C 0.97936 0.02973 0.24445 0.0
O221 O 0.99707 0.02447 0.27088 0.0
O222 O 0.89501 0.07377 0.30117 0.0
C223 C 0.88859 0.9618 0.25934 0.0
O224 O 0.91548 0.96133 0.23971 0.0
C225 C 0.96165 1.0028 0.33626 0.0
O226 O 0.951 0.9744 0.31348 0.0
O227 O 0.94793 0.03406 0.24793 0.0
C228 C 0.33378 0.08978 0.49564 0.0
O229 O 0.3096 0.06851 0.47627 0.0
O230 O 0.29179 0.1678 0.45904 0.0
Zn231 Zn 0.28676 0.14382 0.50019 0.0
O232 O 0.24368 0.10827 0.49416 0.0
C233 C 0.27078 0.20791 0.54644 0.0
O234 O 0.25855 0.21611 0.51846 0.0
O235 O 0.32902 0.12121 0.50696 0.0
C236 C 0.22751 0.10144 0.52039 0.0
O237 O 0.23989 0.11679 0.55131 0.0
C238 C 0.31919 0.18746 0.45478 0.0
O239 O 0.34481 0.19176 0.47747 0.0
O240 O 0.2835 0.1795 0.54398 0.0
C241 C 0.38878 0.60133 0.80364 0.0
O242 O 0.38751 0.57726 0.82261 0.0
O243 O 0.46389 0.55446 0.80859 0.0
Zn244 Zn 0.43562 0.55866 0.76633 0.0
O245 O 0.40055 0.51522 0.75287 0.0
C246 C 0.48936 0.54573 0.71809 0.0
O247 O 0.49531 0.52404 0.73817 0.0
O248 O 0.40858 0.59938 0.77817 0.0
C249 C 0.40145 0.49135 0.72626 0.0
O250 O 0.42666 0.49393 0.70488 0.0
C251 C 0.46721 0.52457 0.81497 0.0
O252 O 0.45299 0.49667 0.7933 0.0
O253 O 0.46569 0.5648 0.72566 0.0
C254 C 0.70917 0.42251 0.52562 0.0
O255 O 0.7146 0.40895 0.49337 0.0
O256 O 0.75721 0.35445 0.49168 0.0
Zn257 Zn 0.76798 0.38931 0.53661 0.0
O258 O 0.80822 0.42392 0.52905 0.0
C259 C 0.81013 0.35743 0.57874 0.0
O260 O 0.83465 0.37106 0.56104 0.0
O261 O 0.72819 0.41652 0.54943 0.0
C262 C 0.82351 0.44823 0.55207 0.0
O263 O 0.81361 0.45139 0.5841 0.0
C264 C 0.78175 0.34737 0.47179 0.0
O265 O 0.81299 0.36274 0.48133 0.0
O266 O 0.77932 0.36255 0.57342 0.0
C267 C 0.72656 0.96643 0.79021 0.0
O268 O 0.7426 0.9973 0.80446 0.0
O269 O 0.64787 0.01766 0.81814 0.0
Zn270 Zn 0.67422 0.00726 0.77411 0.0
O271 O 0.71028 0.04785 0.77075 0.0
C272 C 0.61017 0.98769 0.73246 0.0
O273 O 0.5967 0.98283 0.76177 0.0
O274 O 0.69725 0.96446 0.77543 0.0
C275 C 0.70311 0.07284 0.75704 0.0
O276 O 0.67153 0.07218 0.74541 0.0
C277 C 0.62942 0.04216 0.82576 0.0
O278 O 0.62664 0.06302 0.80395 0.0
O279 O 0.6423 0.9975 0.73177 0.0
C280 C 0.04937 0.18204 0.91048 0.0
O281 O 0.03611 0.1661 0.88005 0.0
O282 O 0.00646 0.23154 0.85365 0.0
Zn283 Zn 0.04881 0.24819 0.88526 0.0
O284 O 0.04345 0.29455 0.91587 0.0
C285 C 0.09337 0.25642 0.82674 0.0
O286 O 0.06485 0.25738 0.80952 0.0
O287 O 0.05542 0.21514 0.91724 0.0
C288 C 0.05718 0.3238 0.91001 0.0
O289 O 0.0757 0.32446 0.88253 0.0
C290 C 0.99098 0.25342 0.84174 0.0
O291 O 1.00297 0.28671 0.85027 0.0
O292 O 0.0919 0.25289 0.85803 0.0
C293 C 0.52282 0.7217 0.45607 0.0
O294 O 0.53766 0.75245 0.47208 0.0
O295 O 0.46992 0.74795 0.36522 0.0
Zn296 Zn 0.5071 0.76052 0.4032 0.0
O297 O 0.499 0.8031 0.43861 0.0
C298 C 0.56123 0.75201 0.35343 0.0
O299 O 0.5384 0.72692 0.33678 0.0
O300 O 0.50794 0.71915 0.42676 0.0
C301 C 0.51048 0.83376 0.43471 0.0
O302 O 0.52705 0.83765 0.40665 0.0
C303 C 0.45599 0.76924 0.35091 0.0
O304 O 0.46496 0.8029 0.36167 0.0
O305 O 0.55336 0.76975 0.38204 0.0
C306 C 0.04527 0.83118 0.63257 0.0
O307 O 0.06898 0.81025 0.62745 0.0
O308 O 0.97248 0.78239 0.70342 0.0
Zn309 Zn 0.01274 0.77997 0.67101 0.0
O310 O 1.00138 0.73769 0.63225 0.0
C311 C 0.07227 0.79057 0.72232 0.0
O312 O 0.05948 0.81734 0.74032 0.0
O313 O 0.01968 0.82367 0.65065 0.0
C314 C 0.02528 0.72172 0.61781 0.0
O315 O 0.05735 0.73387 0.62743 0.0
C316 C 0.97197 0.77278 0.73241 0.0
O317 O 0.99904 0.76078 0.74299 0.0
O318 O 0.05666 0.77351 0.69472 0.0
C319 C 0.51854 0.35738 0.14322 0.0
O320 O 0.49923 0.36544 0.16983 0.0
O321 O 0.48361 0.30018 0.20201 0.0
Zn322 Zn 0.521 0.2909 0.1672 0.0
O323 O 0.50586 0.24587 0.13331 0.0
C324 C 0.56237 0.27095 0.21879 0.0
O325 O 0.53178 0.26208 0.23023 0.0
O326 O 0.53052 0.32842 0.13851 0.0
C327 C 0.52769 0.22815 0.11715 0.0
O328 O 0.56065 0.23877 0.12358 0.0
C329 C 0.45168 0.29292 0.1939 0.0
O330 O 0.44234 0.28084 0.16135 0.0
O331 O 0.56444 0.28497 0.19231 0.0
C332 C 0.29783 0.80076 0.89599 0.0
C333 C 0.26637 0.78138 0.88262 0.0
C334 C 0.29939 0.82684 0.92569 0.0
C335 C 0.26954 0.83482 0.94342 0.0
H336 H 0.32159 0.79574 0.88335 0.0
H337 H 0.32442 0.84069 0.93486 0.0
S338 S 0.18047 0.792 0.91871 0.0
N339 N 0.20448 0.77202 0.88915 0.0
N340 N 0.20726 0.82149 0.94486 0.0
C341 C 0.23772 0.81609 0.92999 0.0
C342 C 0.23616 0.78934 0.89963 0.0
C343 C 0.05129 0.53346 0.37582 0.0
C344 C 0.06345 0.54012 0.41022 0.0
C345 C 0.07415 0.53352 0.34872 0.0
C346 C 0.11005 0.5401 0.35509 0.0
H347 H 0.02398 0.52671 0.36968 0.0
H348 H 0.06352 0.52724 0.32254 0.0
S349 S 0.15422 0.56125 0.44163 0.0
N350 N 0.1129 0.55508 0.44987 0.0
N351 N 0.15626 0.55557 0.39919 0.0
C352 C 0.12232 0.54838 0.38978 0.0
C353 C 0.09889 0.54821 0.41731 0.0
C354 C 0.80887 0.7365 0.92312 0.0
C355 C 0.81685 0.72413 0.88865 0.0
C356 C 0.80308 0.71397 0.94654 0.0
C357 C 0.80504 0.67802 0.93655 0.0
H358 H 0.80696 0.76392 0.93209 0.0
H359 H 0.79687 0.72493 0.9727 0.0
S360 S 0.82482 0.63242 0.84894 0.0
N361 N 0.82615 0.67364 0.84548 0.0
N362 N 0.81574 0.63117 0.88947 0.0
C363 C 0.81344 0.66534 0.90218 0.0
C364 C 0.81928 0.6884 0.87828 0.0
C365 C 0.0189 0.03148 0.4177 0.0
C366 C 0.02343 0.99969 0.42708 0.0
C367 C 0.9991 0.03226 0.38817 0.0
C368 C 0.98343 1.00125 0.36674 0.0
H369 H 0.03002 0.05592 0.43378 0.0
H370 H 0.99589 0.05741 0.38227 0.0
S371 S 0.98959 0.91115 0.37929 0.0
N372 N 0.01217 0.93653 0.41215 0.0
N373 N 0.97514 0.93772 0.35665 0.0
C374 C 0.98864 0.96925 0.3755 0.0
C375 C 0.00856 0.96855 0.40566 0.0
C376 C 0.26501 0.29028 0.61353 0.0
C377 C 0.27395 0.28082 0.64468 0.0
C378 C 0.26333 0.26635 0.58206 0.0
C379 C 0.27092 0.23211 0.5804 0.0
H380 H 0.25944 0.31647 0.61347 0.0
H381 H 0.25667 0.27507 0.55878 0.0
S382 S 0.29552 0.19436 0.6549 0.0
N383 N 0.29036 0.2349 0.67204 0.0
N384 N 0.28702 0.18987 0.61317 0.0
C385 C 0.27943 0.22221 0.61153 0.0
C386 C 0.28096 0.24654 0.64356 0.0
C387 C 0.53094 0.57258 0.63872 0.0
C388 C 0.53932 0.54078 0.61993 0.0
C389 C 0.51446 0.57413 0.67041 0.0
C390 C 0.50629 0.54402 0.68455 0.0
H391 H 0.53782 0.5965 0.62925 0.0
H392 H 0.50875 0.59914 0.68428 0.0
S393 S 0.51807 0.45371 0.64322 0.0
N394 N 0.53429 0.47793 0.61597 0.0
N395 N 0.50485 0.48115 0.67588 0.0
C396 C 0.51351 0.51199 0.66549 0.0
C397 C 0.52959 0.51029 0.63309 0.0
C398 C 0.79762 0.28395 0.62925 0.0
C399 C 0.8315 0.27997 0.63761 0.0
C400 C 0.7908 0.31018 0.6116 0.0
C401 C 0.81772 0.33305 0.60139 0.0
H402 H 0.77632 0.26594 0.63532 0.0
H403 H 0.76431 0.31156 0.60469 0.0
S404 S 0.91095 0.33465 0.62029 0.0
N405 N 0.89205 0.30184 0.63676 0.0
N406 N 0.87964 0.35122 0.60362 0.0
C407 C 0.85171 0.33005 0.61111 0.0
C408 C 0.85851 0.30343 0.62919 0.0
C409 C 0.58311 0.97545 0.63771 0.0
C410 C 0.54769 0.97775 0.63899 0.0
C411 C 0.60306 0.97833 0.66804 0.0
C412 C 0.58817 0.98305 0.70071 0.0
H413 H 0.59567 0.97249 0.61317 0.0
H414 H 0.63039 0.97708 0.66586 0.0
S415 S 0.49586 0.98887 0.71744 0.0
N416 N 0.49822 0.98384 0.67509 0.0
N417 N 0.53538 0.98875 0.73209 0.0
C418 C 0.55249 0.98431 0.70211 0.0
C419 C 0.53235 0.98183 0.67126 0.0
C420 C 0.91579 0.25698 0.78161 0.0
C421 C 0.9011 0.22193 0.77216 0.0
C422 C 0.94467 0.26679 0.8042 0.0
C423 C 0.96022 0.24192 0.81806 0.0
H424 H 0.90465 0.27705 0.77175 0.0
H425 H 0.95486 0.2942 0.81075 0.0
S426 S 0.93238 0.14628 0.79983 0.0
N427 N 0.9048 0.16203 0.77724 0.0
N428 N 0.95889 0.18034 0.81981 0.0
C429 C 0.94588 0.20665 0.80849 0.0
C430 C 0.9164 0.19671 0.78555 0.0
C431 C 0.49655 0.88773 0.52305 0.0
C432 C 0.50526 0.92228 0.51848 0.0
C433 C 0.49736 0.85939 0.49561 0.0
C434 C 0.50732 0.86442 0.46255 0.0
H435 H 0.48929 0.88256 0.54816 0.0
H436 H 0.4909 0.83331 0.50067 0.0
S437 S 0.5319 0.95001 0.43702 0.0
N438 N 0.52357 0.9601 0.47837 0.0
N439 N 0.5251 0.90701 0.42673 0.0
C440 C 0.51547 0.89896 0.45751 0.0
C441 C 0.5144 0.92781 0.48546 0.0
C442 C 0.16226 0.28775 0.76848 0.0
C443 C 0.19258 0.28199 0.78421 0.0
C444 C 0.13003 0.27801 0.78152 0.0
C445 C 0.12725 0.26265 0.81099 0.0
H446 H 0.16351 0.30097 0.74678 0.0
H447 H 0.1073 0.28389 0.76926 0.0
S448 S 0.19975 0.23984 0.85947 0.0
N449 N 0.21834 0.25835 0.82899 0.0
N450 N 0.15802 0.23997 0.85377 0.0
C451 C 0.15763 0.25554 0.82594 0.0
C452 C 0.19028 0.26529 0.81247 0.0
C453 C 0.51352 0.62627 0.46412 0.0
C454 C 0.53403 0.6269 0.49351 0.0
C455 C 0.50914 0.65716 0.45292 0.0
C456 C 0.5253 0.68987 0.47065 0.0
H457 H 0.50174 0.6016 0.44892 0.0
H458 H 0.49372 0.65518 0.42959 0.0
S459 S 0.58038 0.70496 0.5506 0.0
N460 N 0.56957 0.66222 0.54108 0.0
N461 N 0.56143 0.72059 0.52053 0.0
C462 C 0.54493 0.69072 0.50101 0.0
C463 C 0.54933 0.65913 0.51229 0.0
C464 C 0.91561 0.77435 0.81049 0.0
C465 C 0.88249 0.7755 0.7971 0.0
C466 C 0.94426 0.77377 0.78945 0.0
C467 C 0.94116 0.77464 0.75411 0.0
H468 H 0.9195 0.77388 0.83757 0.0
H469 H 0.96909 0.77269 0.80109 0.0
S470 S 0.86008 0.77683 0.70591 0.0
N471 N 0.84818 0.77658 0.74587 0.0
N472 N 0.90212 0.77646 0.70654 0.0
C473 C 0.90828 0.77625 0.74039 0.0
C474 C 0.87899 0.77648 0.7618 0.0
C475 C 0.02239 0.91422 0.6079 0.0
C476 C 0.04395 0.91837 0.58044 0.0
C477 C 0.02382 0.88658 0.62529 0.0
C478 C 0.04687 0.86204 0.61577 0.0
H479 H 1.00342 0.93176 0.61523 0.0
H480 H 0.00608 0.88402 0.64581 0.0
S481 S 0.10979 0.86293 0.54593 0.0
N482 N 0.08962 0.89701 0.54489 0.0
N483 N 0.09285 0.84501 0.57754 0.0
C484 C 0.06949 0.86686 0.58896 0.0
C485 C 0.06784 0.89503 0.57123 0.0
C486 C 0.15117 0.7439 0.71967 0.0
C487 C 0.16493 0.75387 0.75346 0.0
C488 C 0.1215 0.75635 0.70994 0.0
C489 C 0.10451 0.77938 0.73367 0.0
H490 H 0.16321 0.726 0.70062 0.0
H491 H 0.1118 0.74765 0.68353 0.0
S492 S 0.13103 0.81323 0.82574 0.0
N493 N 0.16014 0.78784 0.81089 0.0
N494 N 0.10424 0.81173 0.79281 0.0
C495 C 0.11849 0.78991 0.76764 0.0
C496 C 0.14875 0.77696 0.77752 0.0
C497 C 0.97445 0.64704 0.55448 0.0
C498 C 0.99813 0.62295 0.54625 0.0
C499 C 0.98363 0.67915 0.577 0.0
C500 C 0.01697 0.68866 0.59208 0.0
H501 H 0.94834 0.64076 0.54386 0.0
H502 H 0.96426 0.69646 0.58294 0.0
S503 S 0.08877 0.63504 0.57872 0.0
N504 N 0.05642 0.61089 0.55495 0.0
N505 N 0.07403 0.67146 0.59652 0.0
C506 C 0.04124 0.66525 0.58325 0.0
C507 C 0.03176 0.6324 0.56051 0.0
C508 C 0.8435 0.86902 0.23199 0.0
C509 C 0.81154 0.87035 0.24776 0.0
C510 C 0.86808 0.89878 0.23559 0.0
C511 C 0.86169 0.931 0.25517 0.0
H512 H 0.84984 0.84463 0.21729 0.0
H513 H 0.89248 0.89628 0.22335 0.0
S514 S 0.78066 0.94886 0.29913 0.0
N515 N 0.77386 0.9069 0.28176 0.0
N516 N 0.82006 0.96274 0.28894 0.0
C517 C 0.82948 0.93281 0.27048 0.0
C518 C 0.80444 0.90252 0.26669 0.0
C519 C 0.78652 0.11792 0.32207 0.0
C520 C 0.80016 0.1527 0.3222 0.0
C521 C 0.80794 0.09184 0.32011 0.0
C522 C 0.84382 0.09942 0.31765 0.0
H523 H 0.75903 0.11084 0.32363 0.0
H524 H 0.7961 0.06539 0.31988 0.0
S525 S 0.89223 0.18674 0.31715 0.0
N526 N 0.85162 0.19364 0.32006 0.0
N527 N 0.89203 0.14459 0.31594 0.0
C528 C 0.85781 0.13422 0.31789 0.0
C529 C 0.83596 0.16086 0.32034 0.0
C530 C 0.39956 0.0228 0.05963 0.0
C531 C 0.40648 0.02471 0.02511 0.0
C532 C 0.3692 1.00378 0.06822 0.0
C533 C 0.34465 0.98592 0.04259 0.0
H534 H 0.41814 0.03538 0.08008 0.0
H535 H 0.36538 1.00242 0.09508 0.0
S536 S 0.34908 0.98592 0.94866 0.0
N537 N 0.38522 0.00956 0.96548 0.0
N538 N 0.3284 0.9735 0.98137 0.0
C539 C 0.35085 0.98858 0.00805 0.0
C540 C 0.38168 0.00801 0.99938 0.0
C541 C 0.21186 0.37753 0.27549 0.0
C542 C 0.24501 0.37905 0.28965 0.0
C543 C 0.1999 0.40755 0.26842 0.0
C544 C 0.22066 0.44026 0.27549 0.0
H545 H 0.1946 0.35319 0.27086 0.0
H546 H 0.17381 0.40517 0.25822 0.0
S547 S 0.31067 0.45686 0.31097 0.0
N548 N 0.29911 0.41474 0.30924 0.0
N549 N 0.27711 0.47143 0.29596 0.0
C550 C 0.2545 0.44163 0.28863 0.0
C551 C 0.26656 0.41093 0.29576 0.0
C552 C 0.15325 0.034 0.47893 0.0
C553 C 0.12884 0.0349 0.50495 0.0
C554 C 0.18523 0.05512 0.48431 0.0
C555 C 0.19429 0.07787 0.51605 0.0
H556 H 0.14743 0.01707 0.45397 0.0
H557 H 0.20289 0.05375 0.46329 0.0
S558 S 0.13946 0.09051 0.59255 0.0
N559 N 0.11583 0.06091 0.56354 0.0
N560 N 0.17613 0.09989 0.57402 0.0
C561 C 0.17043 0.0785 0.54258 0.0
C562 C 0.13772 0.05719 0.53697 0.0
C563 C 0.79187 0.12336 0.7531 0.0
C564 C 0.7849 0.15303 0.74081 0.0
C565 C 0.76525 0.09797 0.75885 0.0
C566 C 0.73055 0.10117 0.75247 0.0
H567 H 0.81819 0.11925 0.75752 0.0
H568 H 0.77208 0.07531 0.76773 0.0
S569 S 0.69856 0.17571 0.72301 0.0
N570 N 0.74083 0.18546 0.72463 0.0
N571 N 0.6907 0.13767 0.73504 0.0
C572 C 0.7232 0.13125 0.74101 0.0
C573 C 0.75037 0.15714 0.73524 0.0
C574 C 0.41814 0.0892 0.54315 0.0
C575 C 0.42378 0.05426 0.53469 0.0
C576 C 0.38955 0.10047 0.5295 0.0
C577 C 0.36536 0.07714 0.50691 0.0
H578 H 0.43552 0.10787 0.56118 0.0
H579 H 0.38607 0.12763 0.53748 0.0
S580 S 0.37042 0.98286 0.47523 0.0
N581 N 0.40452 0.99649 0.50145 0.0
N582 N 0.3505 0.01735 0.47537 0.0
C583 C 0.37154 0.04212 0.49738 0.0
C584 C 0.40083 0.03073 0.51143 0.0
C585 C 0.62969 0.4657 0.51557 0.0
C586 C 0.63079 0.49152 0.54576 0.0
C587 C 0.65495 0.44337 0.50953 0.0
C588 C 0.68217 0.44565 0.5336 0.0
H589 H 0.60892 0.46248 0.49651 0.0
H590 H 0.65296 0.424 0.48584 0.0
S591 S 0.69791 0.50986 0.61599 0.0
N592 N 0.66227 0.51903 0.59935 0.0
N593 N 0.70928 0.47645 0.58845 0.0
C594 C 0.6836 0.47127 0.56397 0.0
C595 C 0.65805 0.49431 0.56994 0.0
C596 C 0.7373 0.27422 0.40205 0.0
C597 C 0.76402 0.26622 0.37963 0.0
C598 C 0.74299 0.30105 0.43135 0.0
C599 C 0.77561 0.32092 0.43924 0.0
H600 H 0.71216 0.25879 0.39763 0.0
H601 H 0.72185 0.3056 0.44838 0.0
S602 S 0.85296 0.31265 0.38599 0.0
N603 N 0.8233 0.28195 0.36537 0.0
N604 N 0.83423 0.3323 0.42019 0.0
C605 C 0.8021 0.31408 0.41599 0.0
C606 C 0.79625 0.28676 0.38628 0.0
C607 C 0.55861 0.06498 0.88817 0.0
C608 C 0.56314 0.04519 0.9134 0.0
C609 C 0.58113 0.0651 0.86068 0.0
C610 C 0.60861 0.04497 0.85728 0.0
H611 H 0.53675 0.0793 0.88887 0.0
H612 H 0.57601 0.07988 0.8412 0.0
S613 S 0.63232 0.9907 0.91873 0.0
N614 N 0.59771 0.0067 0.93486 0.0
N615 N 0.64011 0.00663 0.88341 0.0
C616 C 0.61405 0.02625 0.88343 0.0
C617 C 0.59124 0.0264 0.91143 0.0
C618 C 0.29382 0.22054 0.37497 0.0
C619 C 0.32224 0.24489 0.3707 0.0
C620 C 0.29343 0.20167 0.40169 0.0
C621 C 0.32142 0.20638 0.42544 0.0
H622 H 0.27144 0.21628 0.35768 0.0
H623 H 0.27067 0.18362 0.40399 0.0
S624 S 0.4025 0.26674 0.42508 0.0
N625 N 0.37932 0.27245 0.39208 0.0
N626 N 0.37894 0.23688 0.44214 0.0
C627 C 0.35042 0.23013 0.42094 0.0
C628 C 0.35076 0.24933 0.39362 0.0
C629 C 0.50538 0.48189 0.88232 0.0
C630 C 0.51835 0.51021 0.90851 0.0
C631 C 0.48953 0.48698 0.85212 0.0
C632 C 0.48579 0.52066 0.84676 0.0
H633 H 0.50745 0.45544 0.88521 0.0
H634 H 0.47985 0.46413 0.83297 0.0
S635 S 0.5153 0.60372 0.90773 0.0
N636 N 0.52641 0.57319 0.92735 0.0
N637 N 0.49679 0.58296 0.8705 0.0
C638 C 0.49906 0.54933 0.87263 0.0
C639 C 0.51531 0.54407 0.90346 0.0
C640 C 0.75815 0.72691 0.17271 0.0
C641 C 0.75002 0.76103 0.17575 0.0
C642 C 0.75838 0.70485 0.14032 0.0
C643 C 0.7501 0.71592 0.10977 0.0
H644 H 0.76578 0.7177 0.1954 0.0
H645 H 0.76567 0.67909 0.13924 0.0
S646 S 0.72428 0.8022 0.10441 0.0
N647 N 0.73164 0.80433 0.14602 0.0
N648 N 0.73164 0.76292 0.08512 0.0
C649 C 0.74048 0.74956 0.1127 0.0
C650 C 0.74061 0.77211 0.14568 0.0
C651 C 0.0486 0.03568 0.17812 0.0
C652 C 0.02974 0.03676 0.14803 0.0
C653 C 0.03206 0.03291 0.20904 0.0
C654 C 0.99604 0.03114 0.21102 0.0
H655 H 0.07642 0.038 0.17804 0.0
H656 H 0.04777 0.03288 0.23169 0.0
S657 S 0.9348 0.02919 0.13821 0.0
N658 N 0.97309 0.03305 0.12125 0.0
N659 N 0.94192 0.02816 0.17922 0.0
C660 C 0.97684 0.03103 0.1807 0.0
C661 C 0.9937 0.03377 0.14927 0.0
C662 C 0.28504 0.80289 0.13165 0.0
C663 C 0.3186 0.79651 0.13809 0.0
C664 C 0.27908 0.82974 0.11451 0.0
C665 C 0.30655 0.85091 0.1029 0.0
H666 H 0.26319 0.78604 0.13852 0.0
H667 H 0.25269 0.83282 0.10898 0.0
S668 S 0.39954 0.84613 0.11678 0.0
N669 N 0.37963 0.81437 0.13408 0.0
N670 N 0.3689 0.86505 0.10202 0.0
C671 C 0.34037 0.84572 0.11097 0.0
C672 C 0.34629 0.81838 0.12849 0.0
C673 C 0.07191 0.53002 0.11015 0.0
C674 C 0.0544 0.49635 0.09783 0.0
C675 C 0.08997 0.53838 0.14207 0.0
C676 C 0.09149 0.51337 0.16295 0.0
H677 H 0.07255 0.54986 0.09453 0.0
H678 H 0.10356 0.5645 0.14998 0.0
S679 S 0.04712 0.42235 0.1441 0.0
N680 N 0.03743 0.4386 0.11026 0.0
N681 N 0.0719 0.45404 0.16993 0.0
C682 C 0.07328 0.47984 0.1514 0.0
C683 C 0.05466 0.47142 0.11896 0.0
C684 C 0.38466 0.76745 0.28412 0.0
C685 C 0.37832 0.73203 0.26822 0.0
C686 C 0.40992 0.77929 0.31069 0.0
C687 C 0.42985 0.75618 0.32228 0.0
H688 H 0.36953 0.78599 0.27645 0.0
H689 H 0.41351 0.80673 0.32249 0.0
S690 S 0.42554 0.66137 0.28622 0.0
N691 N 0.39569 0.67444 0.26398 0.0
N692 N 0.4428 0.6964 0.31385 0.0
C693 C 0.42431 0.72082 0.3058 0.0
C694 C 0.39868 0.70885 0.2788 0.0
C695 C 0.03176 0.38566 0.9892 0.0
C696 C 0.04028 0.41867 0.98074 0.0
C697 C 0.03731 0.35521 0.96617 0.0
C698 C 0.05198 0.35662 0.93392 0.0
H699 H 0.02014 0.38331 0.01359 0.0
H700 H 0.03002 0.33038 0.97381 0.0
S701 S 0.08035 0.43721 0.9004 0.0
N702 N 0.06511 0.45133 0.93863 0.0
N703 N 0.07569 0.39428 0.89527 0.0
C704 C 0.06116 0.38966 0.92546 0.0
C705 C 0.05525 0.42062 0.94885 0.0
C706 C 0.65413 0.79183 0.34778 0.0
C707 C 0.66444 0.77289 0.31668 0.0
C708 C 0.62063 0.78512 0.35915 0.0
C709 C 0.59619 0.75909 0.33982 0.0
H710 H 0.6722 0.81184 0.36363 0.0
H711 H 0.61405 0.80031 0.3835 0.0
S712 S 0.61108 0.70289 0.25566 0.0
N713 N 0.6483 0.72775 0.26622 0.0
N714 N 0.5851 0.71475 0.28722 0.0
C715 C 0.60636 0.74023 0.30825 0.0
C716 C 0.64058 0.74722 0.29676 0.0
C717 C 0.0391 0.11079 0.96373 0.0
C718 C 0.05984 0.12589 0.99324 0.0
C719 C 0.03706 0.12842 0.93621 0.0
C720 C 0.05525 0.16196 0.93769 0.0
H721 H 0.0232 0.08594 0.96255 0.0
H722 H 0.01984 0.11638 0.91443 0.0
S723 S 0.11559 0.21093 0.00858 0.0
N724 N 0.10068 0.17466 0.02169 0.0
N725 N 0.097 0.20806 0.97029 0.0
C726 C 0.07737 0.17644 0.96659 0.0
C727 C 0.07959 0.15832 0.99434 0.0
C728 C 0.36438 0.28902 0.23569 0.0
C729 C 0.37285 0.29533 0.27121 0.0
C730 C 0.39 0.28902 0.21106 0.0
C731 C 0.42523 0.29557 0.22089 0.0
H732 H 0.3377 0.28303 0.22676 0.0
H733 H 0.38201 0.28329 0.18404 0.0
S734 S 0.46087 0.31626 0.31106 0.0
N735 N 0.41879 0.31025 0.3152 0.0
N736 N 0.46701 0.31026 0.26914 0.0
C737 C 0.434 0.303 0.25649 0.0
C738 C 0.40785 0.30281 0.28154 0.0
C739 C 0.50548 0.4283 0.093 0.0
C740 C 0.52409 0.41936 0.06317 0.0
C741 C 0.50508 0.40904 0.11947 0.0
C742 C 0.52306 0.37992 0.11686 0.0
H743 H 0.49009 0.44952 0.09536 0.0
H744 H 0.48949 0.41631 0.14152 0.0
S745 S 0.5778 0.3479 0.04426 0.0
N746 N 0.56238 0.38126 0.03287 0.0
N747 N 0.56199 0.34488 0.08236 0.0
C748 C 0.54302 0.37182 0.08752 0.0
C749 C 0.54339 0.39156 0.06069 0.0
C750 C 0.61776 0.23105 0.27591 0.0
C751 C 0.6501 0.23468 0.26124 0.0
C752 C 0.58991 0.24424 0.26291 0.0
C753 C 0.59341 0.26129 0.23456 0.0
H754 H 0.6136 0.2168 0.29674 0.0
H755 H 0.56519 0.23992 0.27449 0.0
S756 S 0.67423 0.27905 0.18875 0.0
N757 N 0.68509 0.2577 0.21843 0.0
N758 N 0.63301 0.28269 0.19375 0.0
C759 C 0.62631 0.26628 0.22071 0.0
C760 C 0.6546 0.25284 0.23408 0.0
C761 C 0.52823 0.13875 0.05999 0.0
C762 C 0.49463 0.13088 0.04545 0.0
C763 C 0.53889 0.17053 0.08263 0.0
C764 C 0.51626 0.19555 0.09178 0.0
H765 H 0.54606 0.1197 0.05485 0.0
H766 H 0.56476 0.17504 0.09381 0.0
S767 S 0.42696 0.18942 0.05717 0.0
N768 N 0.43993 0.15217 0.03899 0.0
N769 N 0.45961 0.21144 0.08205 0.0
C770 C 0.48302 0.18855 0.07632 0.0
C771 C 0.47232 0.15638 0.05303 0.0
C772 C 0.36026 0.39759 0.69605 0.0
C773 C 0.32827 0.3969 0.71192 0.0
C774 C 0.38341 0.42847 0.70017 0.0
C775 C 0.37556 0.45975 0.72053 0.0
H776 H 0.36797 0.37387 0.68125 0.0
H777 H 0.40807 0.4275 0.68812 0.0
S778 S 0.29346 0.47274 0.76411 0.0
N779 N 0.28857 0.43095 0.74599 0.0
N780 N 0.33239 0.48871 0.75446 0.0
C781 C 0.34318 0.45968 0.73555 0.0
C782 C 0.31947 0.42835 0.73106 0.0
C783 C 0.33856 0.67389 0.78918 0.0
C784 C 0.31775 0.67856 0.8181 0.0
C785 C 0.36206 0.64959 0.78526 0.0
C786 C 0.36548 0.62867 0.80995 0.0
H787 H 0.33653 0.68907 0.76929 0.0
H788 H 0.37711 0.64674 0.76226 0.0
S789 S 0.31717 0.63141 0.89079 0.0
N790 N 0.30229 0.66082 0.87212 0.0
N791 N 0.34641 0.61511 0.86497 0.0
C792 C 0.34517 0.63356 0.83936 0.0
C793 C 0.32137 0.65852 0.84339 0.0
C794 C 0.90574 0.51241 0.56038 0.0
C795 C 0.9127 0.5143 0.52587 0.0
C796 C 0.87645 0.49155 0.56875 0.0
C797 C 0.85314 0.47176 0.54289 0.0
H798 H 0.92356 0.52635 0.581 0.0
H799 H 0.87257 0.49029 0.59562 0.0
S800 S 0.8578 0.47098 0.44884 0.0
N801 N 0.89246 0.49713 0.46597 0.0
N802 N 0.83778 0.45761 0.48146 0.0
C803 C 0.85926 0.47443 0.50835 0.0
C804 C 0.88893 0.49577 0.49991 0.0
C805 C 0.78046 0.90678 0.82563 0.0
C806 C 0.7644 0.87344 0.81035 0.0
C807 C 0.76905 0.93674 0.8177 0.0
C808 C 0.74088 0.93431 0.79453 0.0
H809 H 0.80098 0.90978 0.84493 0.0
H810 H 0.78151 0.96196 0.83101 0.0
S811 S 0.69228 0.85206 0.74564 0.0
N812 N 0.72081 0.83908 0.76959 0.0
N813 N 0.69911 0.89513 0.75443 0.0
C814 C 0.72578 0.90077 0.77788 0.0
C815 C 0.73759 0.87037 0.78591 0.0
C816 C 0.64187 0.53606 0.97637 0.0
C817 C 0.61426 0.53274 0.99857 0.0
C818 C 0.67372 0.55528 0.98844 0.0
C819 C 0.67935 0.57197 0.02327 0.0
H820 H 0.63882 0.52377 0.94933 0.0
H821 H 0.69399 0.55725 0.97018 0.0
S822 S 0.61506 0.57172 0.09191 0.0
N823 N 0.59441 0.54813 0.05693 0.0
N824 N 0.65426 0.58372 0.07987 0.0
C825 C 0.65203 0.56842 0.04588 0.0
C826 C 0.61955 0.54895 0.0335 0.0
C827 C 0.25801 0.64236 0.24787 0.0
C828 C 0.27892 0.64307 0.21923 0.0
C829 C 0.23464 0.61282 0.25004 0.0
C830 C 0.23144 0.58272 0.22376 0.0
H831 H 0.25932 0.66505 0.2685 0.0
H832 H 0.21884 0.61375 0.27249 0.0
S833 S 0.28242 0.57074 0.14442 0.0
N834 N 0.29641 0.61077 0.16489 0.0
N835 N 0.25252 0.55527 0.16871 0.0
C836 C 0.25281 0.58294 0.19526 0.0
C837 C 0.2765 0.6131 0.19305 0.0
C838 C 0.89535 0.52612 0.99818 0.0
C839 C 0.92318 0.54604 0.0183 0.0
C840 C 0.86275 0.53727 0.99946 0.0
C841 C 0.85696 0.56892 0.02073 0.0
H842 H 0.89903 0.50228 0.98053 0.0
H843 H 0.84227 0.52145 0.98276 0.0
S844 S 0.92183 0.62913 0.08022 0.0
N845 N 0.94316 0.59759 0.06127 0.0
N846 N 0.88205 0.61888 0.06405 0.0
C847 C 0.88464 0.58839 0.04196 0.0
C848 C 0.91776 0.57687 0.04061 0.0
C849 C 0.14327 1.00171 0.08417 0.0
C850 C 0.11904 0.0083 0.06057 0.0
C851 C 0.16906 0.98093 0.07331 0.0
C852 C 0.17198 0.96604 0.03828 0.0
H853 H 0.14242 0.01285 0.11141 0.0
H854 H 0.18704 0.97681 0.09259 0.0
S855 S 0.11434 0.97426 0.96606 0.0
N856 N 0.09901 0.99732 1.00059 0.0
N857 N 0.14796 0.95896 0.97996 0.0
C858 C 0.14806 0.97255 0.01429 0.0
C859 C 0.12155 0.99353 0.02545 0.0
loop_
_geom_bond_atom_site_label_1
_geom_bond_atom_site_label_2
_geom_bond_distance
_geom_bond_site_symmetry_2
_ccdc_geom_bond_type
H0 C3 0.929 . S
H1 C6 0.929 . S
H2 C8 0.930 . S
C3 H0 0.929 . S
C3 C4 1.398 . S
C3 C5 1.396 . S
C4 C3 1.398 . S
C4 C8 1.407 . S
C5 C3 1.396 . S
C5 C6 1.394 . S
C6 H1 0.929 . S
C6 C5 1.394 . S
C6 C7 1.382 . S
C7 C6 1.382 . S
C7 C8 1.392 . S
C7 N9 1.420 . S
C8 H2 0.930 . S
C8 C4 1.407 . S
C8 C7 1.392 . S
N9 C7 1.420 . S
N9 C10 1.244 . S
C10 N9 1.244 . S
H11 C14 0.929 . S
H12 C17 0.929 . S
H13 C19 0.930 . S
C14 H11 0.929 . S
C14 C15 1.398 . S
C14 C16 1.396 . S
C15 C14 1.398 . S
C15 C19 1.407 . S
C16 C14 1.396 . S
C16 C17 1.394 . S
C17 H12 0.929 . S
C17 C16 1.394 . S
C17 C18 1.382 . S
C18 C17 1.382 . S
C18 C19 1.392 . S
C18 N20 1.420 . S
C19 H13 0.930 . S
C19 C15 1.407 . S
C19 C18 1.392 . S
N20 C18 1.420 . S
N20 C21 1.244 . S
C21 N20 1.244 . S
H22 C25 0.929 . S
H23 C28 0.929 . S
H24 C30 0.930 1_556 S
C25 H22 0.929 . S
C25 C26 1.398 . S
C25 C27 1.396 . S
C26 C25 1.398 . S
C26 C30 1.407 1_455 S
C27 C25 1.396 . S
C27 C28 1.394 . S
C28 H23 0.929 . S
C28 C27 1.394 . S
C28 C29 1.382 1_455 S
C29 C28 1.382 1_655 S
C29 C30 1.392 . S
C29 N31 1.420 . S
C30 H24 0.930 1_554 S
C30 C26 1.407 1_655 S
C30 C29 1.392 . S
N31 C29 1.420 . S
N31 C32 1.244 . S
C32 N31 1.244 . S
H33 C36 0.929 . S
H34 C39 0.929 . S
H35 C41 0.930 . S
C36 H33 0.929 . S
C36 C37 1.398 . S
C36 C38 1.396 . S
C37 C36 1.398 . S
C37 C41 1.407 . S
C38 C36 1.396 . S
C38 C39 1.394 . S
C39 H34 0.929 . S
C39 C38 1.394 . S
C39 C40 1.382 . S
C40 C39 1.382 . S
C40 C41 1.392 . S
C40 N42 1.420 . S
C41 H35 0.930 . S
C41 C37 1.407 . S
C41 C40 1.392 . S
N42 C40 1.420 . S
N42 C43 1.244 . S
C43 N42 1.244 . S
H44 C47 0.929 . S
H45 C50 0.929 . S
H46 C52 0.930 . S
C47 H44 0.929 . S
C47 C48 1.398 1_545 S
C47 C49 1.396 . S
C48 C47 1.398 1_565 S
C48 C52 1.407 . S
C49 C47 1.396 . S
C49 C50 1.394 1_545 S
C50 H45 0.929 . S
C50 C49 1.394 1_565 S
C50 C51 1.382 . S
C51 C50 1.382 . S
C51 C52 1.392 . S
C51 N53 1.420 . S
C52 H46 0.930 . S
C52 C48 1.407 . S
C52 C51 1.392 . S
N53 C51 1.420 . S
N53 C54 1.244 . S
C54 N53 1.244 . S
H55 C58 0.929 . S
H56 C61 0.929 . S
H57 C63 0.930 . S
C58 H55 0.929 . S
C58 C59 1.398 . S
C58 C60 1.396 . S
C59 C58 1.398 . S
C59 C63 1.407 . S
C60 C58 1.396 . S
C60 C61 1.394 . S
C61 H56 0.929 . S
C61 C60 1.394 . S
C61 C62 1.382 . S
C62 C61 1.382 . S
C62 C63 1.392 . S
C62 N64 1.420 . S
C63 H57 0.930 . S
C63 C59 1.407 . S
C63 C62 1.392 . S
N64 C62 1.420 . S
N64 C65 1.244 . S
C65 N64 1.244 . S
H66 C69 0.929 . S
H67 C72 0.929 . S
H68 C74 0.930 . S
C69 H66 0.929 . S
C69 C70 1.398 . S
C69 C71 1.396 . S
C70 C69 1.398 . S
C70 C74 1.407 . S
C71 C69 1.396 . S
C71 C72 1.394 1_655 S
C72 H67 0.929 . S
C72 C71 1.394 1_455 S
C72 C73 1.382 1_455 S
C73 C72 1.382 1_655 S
C73 C74 1.392 . S
C73 N75 1.420 1_655 S
C74 H68 0.930 . S
C74 C70 1.407 . S
C74 C73 1.392 . S
N75 C73 1.420 1_455 S
N75 C76 1.244 . S
C76 N75 1.244 . S
H77 C80 0.929 . S
H78 C83 0.929 . S
H79 C85 0.930 . S
C80 H77 0.929 . S
C80 C81 1.398 . S
C80 C82 1.396 . S
C81 C80 1.398 . S
C81 C85 1.407 . S
C82 C80 1.396 . S
C82 C83 1.394 . S
C83 H78 0.929 . S
C83 C82 1.394 . S
C83 C84 1.382 . S
C84 C83 1.382 . S
C84 C85 1.392 . S
C84 N86 1.420 . S
C85 H79 0.930 . S
C85 C81 1.407 . S
C85 C84 1.392 . S
N86 C84 1.420 . S
N86 C87 1.244 . S
C87 N86 1.244 . S
H88 C91 0.929 . S
H89 C94 0.929 . S
H90 C96 0.930 . S
C91 H88 0.929 . S
C91 C92 1.398 . S
C91 C93 1.396 . S
C92 C91 1.398 . S
C92 C96 1.407 . S
C93 C91 1.396 . S
C93 C94 1.394 . S
C94 H89 0.929 . S
C94 C93 1.394 . S
C94 C95 1.382 . S
C95 C94 1.382 . S
C95 C96 1.392 . S
C95 N97 1.420 . S
C96 H90 0.930 . S
C96 C92 1.407 . S
C96 C95 1.392 . S
N97 C95 1.420 . S
N97 C98 1.244 . S
C98 N97 1.244 . S
H99 C102 0.929 . S
H100 C105 0.950 . S
H101 C107 0.930 . S
C102 H99 0.929 . S
C102 C103 1.398 . S
C102 C104 1.396 . S
C103 C102 1.398 . S
C103 C107 1.407 . S
C104 C102 1.396 . S
C104 C105 1.374 1_565 S
C105 H100 0.950 . S
C105 C104 1.374 1_545 S
C105 C106 1.381 1_545 S
C106 C105 1.381 1_565 S
C106 C107 1.392 . S
C106 N108 1.420 1_565 S
C107 H101 0.930 . S
C107 C103 1.407 . S
C107 C106 1.392 . S
N108 C106 1.420 1_545 S
N108 C109 1.244 . S
C109 N108 1.244 . S
H110 C113 0.929 . S
H111 C116 0.929 . S
H112 C118 0.930 . S
C113 H110 0.929 . S
C113 C114 1.398 . S
C113 C115 1.396 . S
C114 C113 1.398 . S
C114 C118 1.407 . S
C115 C113 1.396 . S
C115 C116 1.394 . S
C116 H111 0.929 . S
C116 C115 1.394 . S
C116 C117 1.382 . S
C117 C116 1.382 . S
C117 C118 1.392 . S
C117 N119 1.420 . S
C118 H112 0.930 . S
C118 C114 1.407 . S
C118 C117 1.392 . S
N119 C117 1.420 . S
N119 C120 1.244 . S
C120 N119 1.244 . S
H121 C124 0.929 . S
H122 C127 0.929 . S
H123 C129 0.930 . S
C124 H121 0.929 . S
C124 C125 1.398 . S
C124 C126 1.396 . S
C125 C124 1.398 . S
C125 C129 1.407 . S
C126 C124 1.396 . S
C126 C127 1.394 . S
C127 H122 0.929 . S
C127 C126 1.394 . S
C127 C128 1.382 . S
C128 C127 1.382 . S
C128 C129 1.392 . S
C128 N130 1.420 . S
C129 H123 0.930 . S
C129 C125 1.407 . S
C129 C128 1.392 . S
N130 C128 1.420 . S
N130 C131 1.244 . S
C131 N130 1.244 . S
H132 C135 0.929 . S
H133 C138 0.929 . S
H134 C140 0.930 . S
C135 H132 0.929 . S
C135 C136 1.398 . S
C135 C137 1.396 . S
C136 C135 1.398 . S
C136 C140 1.407 . S
C137 C135 1.396 . S
C137 C138 1.394 . S
C138 H133 0.929 . S
C138 C137 1.394 . S
C138 C139 1.382 . S
C139 C138 1.382 . S
C139 C140 1.392 . S
C139 N141 1.420 . S
C140 H134 0.930 . S
C140 C136 1.407 . S
C140 C139 1.392 . S
N141 C139 1.420 . S
N141 C142 1.244 . S
C142 N141 1.244 . S
H143 C146 0.929 . S
H144 C149 0.929 . S
H145 C151 0.930 . S
C146 H143 0.929 . S
C146 C147 1.398 . S
C146 C148 1.396 . S
C147 C146 1.398 . S
C147 C151 1.407 . S
C148 C146 1.396 . S
C148 C149 1.394 1_556 S
C149 H144 0.929 . S
C149 C148 1.394 1_554 S
C149 C150 1.382 . S
C150 C149 1.382 . S
C150 C151 1.388 1_554 S
C150 N152 1.424 . S
C151 H145 0.930 . S
C151 C147 1.407 . S
C151 C150 1.388 1_556 S
N152 C150 1.424 . S
N152 C153 1.244 . S
C153 N152 1.244 . S
H154 C157 0.929 . S
H155 C160 0.929 . S
H156 C162 0.930 . S
C157 H154 0.929 . S
C157 C158 1.398 . S
C157 C159 1.396 . S
C158 C157 1.398 . S
C158 C162 1.407 . S
C159 C157 1.396 . S
C159 C160 1.394 . S
C160 H155 0.929 . S
C160 C159 1.394 . S
C160 C161 1.382 . S
C161 C160 1.382 . S
C161 C162 1.392 . S
C161 N163 1.420 . S
C162 H156 0.930 . S
C162 C158 1.407 . S
C162 C161 1.392 . S
N163 C161 1.420 . S
N163 C164 1.244 . S
C164 N163 1.244 . S
H165 C168 0.929 . S
H166 C171 0.929 . S
H167 C173 0.930 1_565 S
C168 H165 0.929 . S
C168 C169 1.398 1_554 S
C168 C170 1.396 . S
C169 C168 1.398 1_556 S
C169 C173 1.407 . S
C170 C168 1.396 . S
C170 C171 1.394 1_554 S
C171 H166 0.929 . S
C171 C170 1.394 1_556 S
C171 C172 1.382 . S
C172 C171 1.382 . S
C172 C173 1.392 . S
C172 N174 1.420 . S
C173 H167 0.930 1_545 S
C173 C169 1.407 . S
C173 C172 1.392 . S
N174 C172 1.420 . S
N174 C175 1.244 . S
C175 N174 1.244 . S
C176 O177 1.160 . S
C176 O183 1.185 . S
O177 C176 1.160 . S
O178 Zn179 1.899 . S
O178 C186 1.284 1_554 S
Zn179 O178 1.899 . S
Zn179 O180 2.032 . S
Zn179 O183 2.086 . S
Zn179 O188 1.977 . S
O180 Zn179 2.032 . S
O180 C184 1.278 . S
C181 O182 1.203 . S
C181 O188 1.267 . S
O182 C181 1.203 . S
O183 C176 1.185 . S
O183 Zn179 2.086 . S
C184 O180 1.278 . S
C184 O185 1.211 . S
O185 C184 1.211 . S
C186 O178 1.284 1_556 S
C186 O187 1.273 . S
O187 C186 1.273 . S
O188 Zn179 1.977 . S
O188 C181 1.267 . S
C189 O190 1.160 . S
C189 O196 1.185 . S
O190 C189 1.160 . S
O191 Zn192 1.899 . S
O191 C199 1.284 . S
Zn192 O191 1.899 . S
Zn192 O193 2.032 . S
Zn192 O196 2.086 . S
Zn192 O201 1.977 . S
O193 Zn192 2.032 . S
O193 C197 1.278 . S
C194 O195 1.203 . S
C194 O201 1.267 . S
O195 C194 1.203 . S
O196 C189 1.185 . S
O196 Zn192 2.086 . S
C197 O193 1.278 . S
C197 O198 1.211 . S
O198 C197 1.211 . S
C199 O191 1.284 . S
C199 O200 1.273 . S
O200 C199 1.273 . S
O201 Zn192 1.977 . S
O201 C194 1.267 . S
C202 O203 1.184 . S
C202 O209 1.170 1_556 S
O203 C202 1.184 . S
O204 Zn205 1.899 1_556 S
O204 C212 1.284 . S
Zn205 O204 1.899 1_554 S
Zn205 O206 2.032 1_554 S
Zn205 O209 2.086 . S
Zn205 O214 1.977 . S
O206 Zn205 2.032 1_556 S
O206 C210 1.278 . S
C207 O208 1.203 . S
C207 O214 1.267 . S
O208 C207 1.203 . S
O209 C202 1.170 1_554 S
O209 Zn205 2.086 . S
C210 O206 1.278 . S
C210 O211 1.211 1_556 S
O211 C210 1.211 1_554 S
C212 O204 1.284 . S
C212 O213 1.273 . S
O213 C212 1.273 . S
O214 Zn205 1.977 . S
O214 C207 1.267 . S
C215 O216 1.160 . S
C215 O222 1.185 . S
O216 C215 1.160 . S
O217 Zn218 1.899 . S
O217 C225 1.284 . S
Zn218 O217 1.899 . S
Zn218 O219 2.032 . S
Zn218 O222 2.086 . S
Zn218 O227 1.977 . S
O219 Zn218 2.032 . S
O219 C223 1.278 1_545 S
C220 O221 1.203 . S
C220 O227 1.267 . S
O221 C220 1.203 . S
O222 C215 1.185 . S
O222 Zn218 2.086 . S
C223 O219 1.278 1_565 S
C223 O224 1.211 . S
O224 C223 1.211 . S
C225 O217 1.284 . S
C225 O226 1.273 1_545 S
O226 C225 1.273 1_565 S
O227 Zn218 1.977 . S
O227 C220 1.267 . S
C228 O229 1.160 . S
C228 O235 1.185 . S
O229 C228 1.160 . S
O230 Zn231 1.899 . S
O230 C238 1.284 . S
Zn231 O230 1.899 . S
Zn231 O232 2.032 . S
Zn231 O235 2.086 . S
Zn231 O240 1.977 . S
O232 Zn231 2.032 . S
O232 C236 1.278 . S
C233 O234 1.203 . S
C233 O240 1.267 . S
O234 C233 1.203 . S
O235 C228 1.185 . S
O235 Zn231 2.086 . S
C236 O232 1.278 . S
C236 O237 1.211 . S
O237 C236 1.211 . S
C238 O230 1.284 . S
C238 O239 1.273 . S
O239 C238 1.273 . S
O240 Zn231 1.977 . S
O240 C233 1.267 . S
C241 O242 1.160 . S
C241 O248 1.185 . S
O242 C241 1.160 . S
O243 Zn244 1.899 . S
O243 C251 1.284 . S
Zn244 O243 1.899 . S
Zn244 O245 2.032 . S
Zn244 O248 2.086 . S
Zn244 O253 1.977 . S
O245 Zn244 2.032 . S
O245 C249 1.278 . S
C246 O247 1.203 . S
C246 O253 1.267 . S
O247 C246 1.203 . S
O248 C241 1.185 . S
O248 Zn244 2.086 . S
C249 O245 1.278 . S
C249 O250 1.211 . S
O250 C249 1.211 . S
C251 O243 1.284 . S
C251 O252 1.273 . S
O252 C251 1.273 . S
O253 Zn244 1.977 . S
O253 C246 1.267 . S
C254 O255 1.160 . S
C254 O261 1.185 . S
O255 C254 1.160 . S
O256 Zn257 1.899 . S
O256 C264 1.284 . S
Zn257 O256 1.899 . S
Zn257 O258 2.032 . S
Zn257 O261 2.086 . S
Zn257 O266 1.977 . S
O258 Zn257 2.032 . S
O258 C262 1.278 . S
C259 O260 1.203 . S
C259 O266 1.267 . S
O260 C259 1.203 . S
O261 C254 1.185 . S
O261 Zn257 2.086 . S
C262 O258 1.278 . S
C262 O263 1.211 . S
O263 C262 1.211 . S
C264 O256 1.284 . S
C264 O265 1.273 . S
O265 C264 1.273 . S
O266 Zn257 1.977 . S
O266 C259 1.267 . S
C267 O268 1.160 . S
C267 O274 1.185 . S
O268 C267 1.160 . S
O269 Zn270 1.899 . S
O269 C277 1.284 1_565 S
Zn270 O269 1.899 . S
Zn270 O271 2.032 1_565 S
Zn270 O274 2.086 . S
Zn270 O279 1.977 . S
O271 Zn270 2.032 1_545 S
O271 C275 1.278 . S
C272 O273 1.203 1_565 S
C272 O279 1.267 . S
O273 C272 1.203 1_545 S
O274 C267 1.185 . S
O274 Zn270 2.086 . S
C275 O271 1.278 . S
C275 O276 1.211 . S
O276 C275 1.211 . S
C277 O269 1.284 1_545 S
C277 O278 1.273 . S
O278 C277 1.273 . S
O279 Zn270 1.977 . S
O279 C272 1.267 . S
C280 O281 1.160 1_455 S
C280 O287 1.185 . S
O281 C280 1.160 1_655 S
O282 Zn283 1.899 1_655 S
O282 C290 1.284 . S
Zn283 O282 1.899 1_455 S
Zn283 O284 2.032 . S
Zn283 O287 2.086 . S
Zn283 O292 1.977 . S
O284 Zn283 2.032 . S
O284 C288 1.278 . S
C285 O286 1.203 . S
C285 O292 1.267 . S
O286 C285 1.203 . S
O287 C280 1.185 . S
O287 Zn283 2.086 . S
C288 O284 1.278 . S
C288 O289 1.211 . S
O289 C288 1.211 . S
C290 O282 1.284 . S
C290 O291 1.273 . S
O291 C290 1.273 . S
O292 Zn283 1.977 . S
O292 C285 1.267 . S
C293 O294 1.160 . S
C293 O300 1.185 . S
O294 C293 1.160 . S
O295 Zn296 1.899 . S
O295 C303 1.284 . S
Zn296 O295 1.899 . S
Zn296 O297 2.032 . S
Zn296 O300 2.086 . S
Zn296 O305 1.977 . S
O297 Zn296 2.032 . S
O297 C301 1.278 . S
C298 O299 1.203 . S
C298 O305 1.267 . S
O299 C298 1.203 . S
O300 C293 1.185 . S
O300 Zn296 2.086 . S
C301 O297 1.278 . S
C301 O302 1.211 . S
O302 C301 1.211 . S
C303 O295 1.284 . S
C303 O304 1.273 . S
O304 C303 1.273 . S
O305 Zn296 1.977 . S
O305 C298 1.267 . S
C306 O307 1.160 1_455 S
C306 O313 1.185 . S
O307 C306 1.160 1_655 S
O308 Zn309 1.899 1_655 S
O308 C316 1.284 . S
Zn309 O308 1.899 1_455 S
Zn309 O310 2.032 . S
Zn309 O313 2.086 . S
Zn309 O318 1.977 . S
O310 Zn309 2.032 . S
O310 C314 1.278 . S
C311 O312 1.203 . S
C311 O318 1.267 . S
O312 C311 1.203 . S
O313 C306 1.185 . S
O313 Zn309 2.086 . S
C314 O310 1.278 . S
C314 O315 1.211 . S
O315 C314 1.211 . S
C316 O308 1.284 . S
C316 O317 1.273 . S
O317 C316 1.273 . S
O318 Zn309 1.977 . S
O318 C311 1.267 . S
C319 O320 1.160 . S
C319 O326 1.185 . S
O320 C319 1.160 . S
O321 Zn322 1.899 . S
O321 C329 1.284 . S
Zn322 O321 1.899 . S
Zn322 O323 2.032 . S
Zn322 O326 2.086 . S
Zn322 O331 1.977 . S
O323 Zn322 2.032 . S
O323 C327 1.278 . S
C324 O325 1.203 . S
C324 O331 1.267 . S
O325 C324 1.203 . S
O326 C319 1.185 . S
O326 Zn322 2.086 . S
C327 O323 1.278 . S
C327 O328 1.211 . S
O328 C327 1.211 . S
C329 O321 1.284 . S
C329 O330 1.273 . S
O330 C329 1.273 . S
O331 Zn322 1.977 . S
O331 C324 1.267 . S
C332 C333 1.369 . S
C332 C334 1.419 . S
C332 H336 0.930 . S
C333 C332 1.369 . S
C333 C342 1.429 . S
C334 C332 1.419 . S
C334 C335 1.363 . S
C334 H337 0.929 . S
C335 C334 1.363 . S
C335 C341 1.428 . S
H336 C332 0.930 . S
H337 C334 0.929 . S
S338 N339 1.613 . S
S338 N340 1.610 . S
N339 S338 1.613 . S
N339 C342 1.350 . S
N340 S338 1.610 . S
N340 C341 1.351 . S
C341 C335 1.428 . S
C341 N340 1.351 . S
C341 C342 1.434 . S
C342 C333 1.429 . S
C342 N339 1.350 . S
C342 C341 1.434 . S
C343 C344 1.369 . S
C343 C345 1.419 . S
C343 H347 0.930 . S
C344 C343 1.369 . S
C344 C353 1.429 . S
C345 C343 1.419 . S
C345 C346 1.363 . S
C345 H348 0.929 . S
C346 C345 1.363 . S
C346 C352 1.428 . S
H347 C343 0.930 . S
H348 C345 0.929 . S
S349 N350 1.613 . S
S349 N351 1.610 . S
N350 S349 1.613 . S
N350 C353 1.350 . S
N351 S349 1.610 . S
N351 C352 1.351 . S
C352 C346 1.428 . S
C352 N351 1.351 . S
C352 C353 1.434 . S
C353 C344 1.429 . S
C353 N350 1.350 . S
C353 C352 1.434 . S
C354 C355 1.369 . S
C354 C356 1.419 . S
C354 H358 0.930 . S
C355 C354 1.369 . S
C355 C364 1.429 . S
C356 C354 1.419 . S
C356 C357 1.363 . S
C356 H359 0.929 . S
C357 C356 1.363 . S
C357 C363 1.428 . S
H358 C354 0.930 . S
H359 C356 0.929 . S
S360 N361 1.613 . S
S360 N362 1.610 . S
N361 S360 1.613 . S
N361 C364 1.350 . S
N362 S360 1.610 . S
N362 C363 1.351 . S
C363 C357 1.428 . S
C363 N362 1.351 . S
C363 C364 1.434 . S
C364 C355 1.429 . S
C364 N361 1.350 . S
C364 C363 1.434 . S
C365 C366 1.369 . S
C365 C367 1.419 . S
C365 H369 0.930 . S
C366 C365 1.369 . S
C366 C375 1.429 1_545 S
C367 C365 1.419 . S
C367 C368 1.363 1_455 S
C367 H370 0.930 . S
C368 C367 1.363 1_655 S
C368 C374 1.428 1_545 S
H369 C365 0.930 . S
H370 C367 0.930 . S
S371 N372 1.613 . S
S371 N373 1.610 1_455 S
N372 S371 1.613 . S
N372 C375 1.350 . S
N373 S371 1.610 1_655 S
N373 C374 1.351 . S
C374 C368 1.428 1_565 S
C374 N373 1.351 . S
C374 C375 1.434 1_655 S
C375 C366 1.429 1_565 S
C375 N372 1.350 . S
C375 C374 1.434 1_455 S
C376 C377 1.369 . S
C376 C378 1.419 . S
C376 H380 0.930 . S
C377 C376 1.369 . S
C377 C386 1.429 . S
C378 C376 1.419 . S
C378 C379 1.363 . S
C378 H381 0.929 . S
C379 C378 1.363 . S
C379 C385 1.428 . S
H380 C376 0.930 . S
H381 C378 0.929 . S
S382 N383 1.613 . S
S382 N384 1.610 . S
N383 S382 1.613 . S
N383 C386 1.350 . S
N384 S382 1.610 . S
N384 C385 1.351 . S
C385 C379 1.428 . S
C385 N384 1.351 . S
C385 C386 1.434 . S
C386 C377 1.429 . S
C386 N383 1.350 . S
C386 C385 1.434 . S
C387 C388 1.369 . S
C387 C389 1.419 . S
C387 H391 0.930 . S
C388 C387 1.369 . S
C388 C397 1.429 . S
C389 C387 1.419 . S
C389 C390 1.363 . S
C389 H392 0.929 . S
C390 C389 1.363 . S
C390 C396 1.428 . S
H391 C387 0.930 . S
H392 C389 0.929 . S
S393 N394 1.613 . S
S393 N395 1.610 . S
N394 S393 1.613 . S
N394 C397 1.350 . S
N395 S393 1.610 . S
N395 C396 1.351 . S
C396 C390 1.428 . S
C396 N395 1.351 . S
C396 C397 1.434 . S
C397 C388 1.429 . S
C397 N394 1.350 . S
C397 C396 1.434 . S
C398 C399 1.369 . S
C398 C400 1.419 . S
C398 H402 0.930 . S
C399 C398 1.369 . S
C399 C408 1.429 . S
C400 C398 1.419 . S
C400 C401 1.363 . S
C400 H403 0.929 . S
C401 C400 1.363 . S
C401 C407 1.428 . S
H402 C398 0.930 . S
H403 C400 0.929 . S
S404 N405 1.613 . S
S404 N406 1.610 . S
N405 S404 1.613 . S
N405 C408 1.350 . S
N406 S404 1.610 . S
N406 C407 1.351 . S
C407 C401 1.428 . S
C407 N406 1.351 . S
C407 C408 1.434 . S
C408 C399 1.429 . S
C408 N405 1.350 . S
C408 C407 1.434 . S
C409 C410 1.369 . S
C409 C411 1.419 . S
C409 H413 0.930 . S
C410 C409 1.369 . S
C410 C419 1.429 1_565 S
C411 C409 1.419 . S
C411 C412 1.363 . S
C411 H414 0.929 . S
C412 C411 1.363 . S
C412 C418 1.428 1_565 S
H413 C409 0.930 . S
H414 C411 0.929 . S
S415 N416 1.613 . S
S415 N417 1.610 . S
N416 S415 1.613 . S
N416 C419 1.350 . S
N417 S415 1.610 . S
N417 C418 1.351 . S
C418 C412 1.428 1_545 S
C418 N417 1.351 . S
C418 C419 1.434 . S
C419 C410 1.429 1_545 S
C419 N416 1.350 . S
C419 C418 1.434 . S
C420 C421 1.369 . S
C420 C422 1.419 . S
C420 H424 0.930 . S
C421 C420 1.369 . S
C421 C430 1.429 . S
C422 C420 1.419 . S
C422 C423 1.363 . S
C422 H425 0.929 . S
C423 C422 1.363 . S
C423 C429 1.428 . S
H424 C420 0.930 . S
H425 C422 0.929 . S
S426 N427 1.613 . S
S426 N428 1.610 . S
N427 S426 1.613 . S
N427 C430 1.350 . S
N428 S426 1.610 . S
N428 C429 1.351 . S
C429 C423 1.428 . S
C429 N428 1.351 . S
C429 C430 1.434 . S
C430 C421 1.429 . S
C430 N427 1.350 . S
C430 C429 1.434 . S
C431 C432 1.369 . S
C431 C433 1.419 . S
C431 H435 0.930 . S
C432 C431 1.369 . S
C432 C441 1.429 . S
C433 C431 1.419 . S
C433 C434 1.363 . S
C433 H436 0.929 . S
C434 C433 1.363 . S
C434 C440 1.428 . S
H435 C431 0.930 . S
H436 C433 0.929 . S
S437 N438 1.613 . S
S437 N439 1.610 . S
N438 S437 1.613 . S
N438 C441 1.350 . S
N439 S437 1.610 . S
N439 C440 1.351 . S
C440 C434 1.428 . S
C440 N439 1.351 . S
C440 C441 1.434 . S
C441 C432 1.429 . S
C441 N438 1.350 . S
C441 C440 1.434 . S
C442 C443 1.369 . S
C442 C444 1.419 . S
C442 H446 0.930 . S
C443 C442 1.369 . S
C443 C452 1.429 . S
C444 C442 1.419 . S
C444 C445 1.363 . S
C444 H447 0.929 . S
C445 C444 1.363 . S
C445 C451 1.428 . S
H446 C442 0.930 . S
H447 C444 0.929 . S
S448 N449 1.613 . S
S448 N450 1.610 . S
N449 S448 1.613 . S
N449 C452 1.350 . S
N450 S448 1.610 . S
N450 C451 1.351 . S
C451 C445 1.428 . S
C451 N450 1.351 . S
C451 C452 1.434 . S
C452 C443 1.429 . S
C452 N449 1.350 . S
C452 C451 1.434 . S
C453 C454 1.369 . S
C453 C455 1.419 . S
C453 H457 0.930 . S
C454 C453 1.369 . S
C454 C463 1.429 . S
C455 C453 1.419 . S
C455 C456 1.363 . S
C455 H458 0.929 . S
C456 C455 1.363 . S
C456 C462 1.428 . S
H457 C453 0.930 . S
H458 C455 0.929 . S
S459 N460 1.613 . S
S459 N461 1.610 . S
N460 S459 1.613 . S
N460 C463 1.350 . S
N461 S459 1.610 . S
N461 C462 1.351 . S
C462 C456 1.428 . S
C462 N461 1.351 . S
C462 C463 1.434 . S
C463 C454 1.429 . S
C463 N460 1.350 . S
C463 C462 1.434 . S
C464 C465 1.369 . S
C464 C466 1.419 . S
C464 H468 0.930 . S
C465 C464 1.369 . S
C465 C474 1.429 . S
C466 C464 1.419 . S
C466 C467 1.363 . S
C466 H469 0.929 . S
C467 C466 1.363 . S
C467 C473 1.428 . S
H468 C464 0.930 . S
H469 C466 0.929 . S
S470 N471 1.613 . S
S470 N472 1.610 . S
N471 S470 1.613 . S
N471 C474 1.350 . S
N472 S470 1.610 . S
N472 C473 1.351 . S
C473 C467 1.428 . S
C473 N472 1.351 . S
C473 C474 1.434 . S
C474 C465 1.429 . S
C474 N471 1.350 . S
C474 C473 1.434 . S
C475 C476 1.369 . S
C475 C477 1.419 . S
C475 H479 0.930 . S
C476 C475 1.369 . S
C476 C485 1.429 . S
C477 C475 1.419 . S
C477 C478 1.363 . S
C477 H480 0.929 . S
C478 C477 1.363 . S
C478 C484 1.428 . S
H479 C475 0.930 . S
H480 C477 0.929 . S
S481 N482 1.613 . S
S481 N483 1.610 . S
N482 S481 1.613 . S
N482 C485 1.350 . S
N483 S481 1.610 . S
N483 C484 1.351 . S
C484 C478 1.428 . S
C484 N483 1.351 . S
C484 C485 1.434 . S
C485 C476 1.429 . S
C485 N482 1.350 . S
C485 C484 1.434 . S
C486 C487 1.369 . S
C486 C488 1.419 . S
C486 H490 0.930 . S
C487 C486 1.369 . S
C487 C496 1.429 . S
C488 C486 1.419 . S
C488 C489 1.363 . S
C488 H491 0.929 . S
C489 C488 1.363 . S
C489 C495 1.428 . S
H490 C486 0.930 . S
H491 C488 0.929 . S
S492 N493 1.613 . S
S492 N494 1.610 . S
N493 S492 1.613 . S
N493 C496 1.350 . S
N494 S492 1.610 . S
N494 C495 1.351 . S
C495 C489 1.428 . S
C495 N494 1.351 . S
C495 C496 1.434 . S
C496 C487 1.429 . S
C496 N493 1.350 . S
C496 C495 1.434 . S
C497 C498 1.369 . S
C497 C499 1.419 . S
C497 H501 0.930 . S
C498 C497 1.369 . S
C498 C507 1.429 1_655 S
C499 C497 1.419 . S
C499 C500 1.365 . S
C499 H502 0.929 . S
C500 C499 1.365 . S
C500 C506 1.426 1_655 S
H501 C497 0.930 . S
H502 C499 0.929 . S
S503 N504 1.613 . S
S503 N505 1.610 . S
N504 S503 1.613 . S
N504 C507 1.350 . S
N505 S503 1.610 . S
N505 C506 1.351 . S
C506 C500 1.426 1_455 S
C506 N505 1.351 . S
C506 C507 1.434 . S
C507 C498 1.429 1_455 S
C507 N504 1.350 . S
C507 C506 1.434 . S
C508 C509 1.369 . S
C508 C510 1.419 . S
C508 H512 0.930 . S
C509 C508 1.369 . S
C509 C518 1.429 . S
C510 C508 1.419 . S
C510 C511 1.363 . S
C510 H513 0.929 . S
C511 C510 1.363 . S
C511 C517 1.428 . S
H512 C508 0.930 . S
H513 C510 0.929 . S
S514 N515 1.613 . S
S514 N516 1.610 . S
N515 S514 1.613 . S
N515 C518 1.350 . S
N516 S514 1.610 . S
N516 C517 1.351 . S
C517 C511 1.428 . S
C517 N516 1.351 . S
C517 C518 1.434 . S
C518 C509 1.429 . S
C518 N515 1.350 . S
C518 C517 1.434 . S
C519 C520 1.369 . S
C519 C521 1.419 . S
C519 H523 0.930 . S
C520 C519 1.369 . S
C520 C529 1.429 . S
C521 C519 1.419 . S
C521 C522 1.363 . S
C521 H524 0.929 . S
C522 C521 1.363 . S
C522 C528 1.428 . S
H523 C519 0.930 . S
H524 C521 0.929 . S
S525 N526 1.613 . S
S525 N527 1.610 . S
N526 S525 1.613 . S
N526 C529 1.350 . S
N527 S525 1.610 . S
N527 C528 1.351 . S
C528 C522 1.428 . S
C528 N527 1.351 . S
C528 C529 1.434 . S
C529 C520 1.429 . S
C529 N526 1.350 . S
C529 C528 1.434 . S
C530 C531 1.372 . S
C530 C532 1.419 . S
C530 H534 0.930 1_565 S
C531 C530 1.372 . S
C531 C540 1.432 1_554 S
C532 C530 1.419 . S
C532 C533 1.363 . S
C532 H535 0.929 . S
C533 C532 1.363 . S
C533 C539 1.428 1_554 S
H534 C530 0.930 1_545 S
H535 C532 0.929 . S
S536 N537 1.613 . S
S536 N538 1.610 . S
N537 S536 1.613 . S
N537 C540 1.350 . S
N538 S536 1.610 . S
N538 C539 1.351 . S
C539 C533 1.428 1_556 S
C539 N538 1.351 . S
C539 C540 1.434 . S
C540 C531 1.432 1_556 S
C540 N537 1.350 . S
C540 C539 1.434 . S
C541 C542 1.369 . S
C541 C543 1.419 . S
C541 H545 0.930 . S
C542 C541 1.369 . S
C542 C551 1.429 . S
C543 C541 1.419 . S
C543 C544 1.363 . S
C543 H546 0.929 . S
C544 C543 1.363 . S
C544 C550 1.428 . S
H545 C541 0.930 . S
H546 C543 0.929 . S
S547 N548 1.613 . S
S547 N549 1.610 . S
N548 S547 1.613 . S
N548 C551 1.350 . S
N549 S547 1.610 . S
N549 C550 1.351 . S
C550 C544 1.428 . S
C550 N549 1.351 . S
C550 C551 1.434 . S
C551 C542 1.429 . S
C551 N548 1.350 . S
C551 C550 1.434 . S
C552 C553 1.369 . S
C552 C554 1.419 . S
C552 H556 0.930 . S
C553 C552 1.369 . S
C553 C562 1.429 . S
C554 C552 1.419 . S
C554 C555 1.363 . S
C554 H557 0.929 . S
C555 C554 1.363 . S
C555 C561 1.428 . S
H556 C552 0.930 . S
H557 C554 0.929 . S
S558 N559 1.613 . S
S558 N560 1.610 . S
N559 S558 1.613 . S
N559 C562 1.350 . S
N560 S558 1.610 . S
N560 C561 1.351 . S
C561 C555 1.428 . S
C561 N560 1.351 . S
C561 C562 1.434 . S
C562 C553 1.429 . S
C562 N559 1.350 . S
C562 C561 1.434 . S
C563 C564 1.369 . S
C563 C565 1.419 . S
C563 H567 0.930 . S
C564 C563 1.369 . S
C564 C573 1.429 . S
C565 C563 1.419 . S
C565 C566 1.363 . S
C565 H568 0.929 . S
C566 C565 1.363 . S
C566 C572 1.428 . S
H567 C563 0.930 . S
H568 C565 0.929 . S
S569 N570 1.613 . S
S569 N571 1.610 . S
N570 S569 1.613 . S
N570 C573 1.350 . S
N571 S569 1.610 . S
N571 C572 1.351 . S
C572 C566 1.428 . S
C572 N571 1.351 . S
C572 C573 1.434 . S
C573 C564 1.429 . S
C573 N570 1.350 . S
C573 C572 1.434 . S
C574 C575 1.369 . S
C574 C576 1.419 . S
C574 H578 0.930 . S
C575 C574 1.369 . S
C575 C584 1.429 . S
C576 C574 1.419 . S
C576 C577 1.363 . S
C576 H579 0.929 . S
C577 C576 1.363 . S
C577 C583 1.428 . S
H578 C574 0.930 . S
H579 C576 0.929 . S
S580 N581 1.613 . S
S580 N582 1.610 . S
N581 S580 1.613 . S
N581 C584 1.350 . S
N582 S580 1.610 . S
N582 C583 1.351 . S
C583 C577 1.428 . S
C583 N582 1.351 . S
C583 C584 1.434 . S
C584 C575 1.429 . S
C584 N581 1.350 . S
C584 C583 1.434 . S
C585 C586 1.369 . S
C585 C587 1.419 . S
C585 H589 0.930 . S
C586 C585 1.369 . S
C586 C595 1.429 . S
C587 C585 1.419 . S
C587 C588 1.363 . S
C587 H590 0.929 . S
C588 C587 1.363 . S
C588 C594 1.428 . S
H589 C585 0.930 . S
H590 C587 0.929 . S
S591 N592 1.613 . S
S591 N593 1.610 . S
N592 S591 1.613 . S
N592 C595 1.350 . S
N593 S591 1.610 . S
N593 C594 1.351 . S
C594 C588 1.428 . S
C594 N593 1.351 . S
C594 C595 1.434 . S
C595 C586 1.429 . S
C595 N592 1.350 . S
C595 C594 1.434 . S
C596 C597 1.369 . S
C596 C598 1.419 . S
C596 H600 0.930 . S
C597 C596 1.369 . S
C597 C606 1.429 . S
C598 C596 1.419 . S
C598 C599 1.363 . S
C598 H601 0.929 . S
C599 C598 1.363 . S
C599 C605 1.428 . S
H600 C596 0.930 . S
H601 C598 0.929 . S
S602 N603 1.613 . S
S602 N604 1.610 . S
N603 S602 1.613 . S
N603 C606 1.350 . S
N604 S602 1.610 . S
N604 C605 1.351 . S
C605 C599 1.428 . S
C605 N604 1.351 . S
C605 C606 1.434 . S
C606 C597 1.429 . S
C606 N603 1.350 . S
C606 C605 1.434 . S
C607 C608 1.369 . S
C607 C609 1.419 . S
C607 H611 0.930 . S
C608 C607 1.369 . S
C608 C617 1.429 . S
C609 C607 1.419 . S
C609 C610 1.363 . S
C609 H612 0.929 . S
C610 C609 1.363 . S
C610 C616 1.428 . S
H611 C607 0.930 . S
H612 C609 0.929 . S
S613 N614 1.613 . S
S613 N615 1.610 . S
N614 S613 1.613 . S
N614 C617 1.350 . S
N615 S613 1.610 . S
N615 C616 1.351 . S
C616 C610 1.428 . S
C616 N615 1.351 . S
C616 C617 1.434 . S
C617 C608 1.429 . S
C617 N614 1.350 . S
C617 C616 1.434 . S
C618 C619 1.369 . S
C618 C620 1.419 . S
C618 H622 0.930 . S
C619 C618 1.369 . S
C619 C628 1.429 . S
C620 C618 1.419 . S
C620 C621 1.363 . S
C620 H623 0.929 . S
C621 C620 1.363 . S
C621 C627 1.428 . S
H622 C618 0.930 . S
H623 C620 0.929 . S
S624 N625 1.613 . S
S624 N626 1.610 . S
N625 S624 1.613 . S
N625 C628 1.350 . S
N626 S624 1.610 . S
N626 C627 1.351 . S
C627 C621 1.428 . S
C627 N626 1.351 . S
C627 C628 1.434 . S
C628 C619 1.429 . S
C628 N625 1.350 . S
C628 C627 1.434 . S
C629 C630 1.369 . S
C629 C631 1.419 . S
C629 H633 0.930 . S
C630 C629 1.369 . S
C630 C639 1.429 . S
C631 C629 1.419 . S
C631 C632 1.363 . S
C631 H634 0.929 . S
C632 C631 1.363 . S
C632 C638 1.428 . S
H633 C629 0.930 . S
H634 C631 0.929 . S
S635 N636 1.613 . S
S635 N637 1.610 . S
N636 S635 1.613 . S
N636 C639 1.350 . S
N637 S635 1.610 . S
N637 C638 1.351 . S
C638 C632 1.428 . S
C638 N637 1.351 . S
C638 C639 1.434 . S
C639 C630 1.429 . S
C639 N636 1.350 . S
C639 C638 1.434 . S
C640 C641 1.369 . S
C640 C642 1.419 . S
C640 H644 0.930 . S
C641 C640 1.369 . S
C641 C650 1.429 . S
C642 C640 1.419 . S
C642 C643 1.363 . S
C642 H645 0.929 . S
C643 C642 1.363 . S
C643 C649 1.428 . S
H644 C640 0.930 . S
H645 C642 0.929 . S
S646 N647 1.613 . S
S646 N648 1.610 . S
N647 S646 1.613 . S
N647 C650 1.350 . S
N648 S646 1.610 . S
N648 C649 1.351 . S
C649 C643 1.428 . S
C649 N648 1.351 . S
C649 C650 1.434 . S
C650 C641 1.429 . S
C650 N647 1.350 . S
C650 C649 1.434 . S
C651 C652 1.369 . S
C651 C653 1.419 . S
C651 H655 0.930 . S
C652 C651 1.369 . S
C652 C661 1.429 1_455 S
C653 C651 1.419 . S
C653 C654 1.363 1_455 S
C653 H656 0.929 . S
C654 C653 1.363 1_655 S
C654 C660 1.428 . S
H655 C651 0.930 . S
H656 C653 0.929 . S
S657 N658 1.613 . S
S657 N659 1.610 . S
N658 S657 1.613 . S
N658 C661 1.350 . S
N659 S657 1.610 . S
N659 C660 1.351 . S
C660 C654 1.428 . S
C660 N659 1.351 . S
C660 C661 1.434 . S
C661 C652 1.429 1_655 S
C661 N658 1.350 . S
C661 C660 1.434 . S
C662 C663 1.369 . S
C662 C664 1.419 . S
C662 H666 0.930 . S
C663 C662 1.369 . S
C663 C672 1.429 . S
C664 C662 1.419 . S
C664 C665 1.363 . S
C664 H667 0.929 . S
C665 C664 1.363 . S
C665 C671 1.428 . S
H666 C662 0.930 . S
H667 C664 0.929 . S
S668 N669 1.613 . S
S668 N670 1.610 . S
N669 S668 1.613 . S
N669 C672 1.350 . S
N670 S668 1.610 . S
N670 C671 1.351 . S
C671 C665 1.428 . S
C671 N670 1.351 . S
C671 C672 1.434 . S
C672 C663 1.429 . S
C672 N669 1.350 . S
C672 C671 1.434 . S
C673 C674 1.369 . S
C673 C675 1.419 . S
C673 H677 0.930 . S
C674 C673 1.369 . S
C674 C683 1.429 . S
C675 C673 1.419 . S
C675 C676 1.363 . S
C675 H678 0.929 . S
C676 C675 1.363 . S
C676 C682 1.428 . S
H677 C673 0.930 . S
H678 C675 0.929 . S
S679 N680 1.613 . S
S679 N681 1.610 . S
N680 S679 1.613 . S
N680 C683 1.350 . S
N681 S679 1.610 . S
N681 C682 1.351 . S
C682 C676 1.428 . S
C682 N681 1.351 . S
C682 C683 1.434 . S
C683 C674 1.429 . S
C683 N680 1.350 . S
C683 C682 1.434 . S
C684 C685 1.369 . S
C684 C686 1.419 . S
C684 H688 0.930 . S
C685 C684 1.369 . S
C685 C694 1.429 . S
C686 C684 1.419 . S
C686 C687 1.363 . S
C686 H689 0.929 . S
C687 C686 1.363 . S
C687 C693 1.428 . S
H688 C684 0.930 . S
H689 C686 0.929 . S
S690 N691 1.613 . S
S690 N692 1.610 . S
N691 S690 1.613 . S
N691 C694 1.350 . S
N692 S690 1.610 . S
N692 C693 1.351 . S
C693 C687 1.428 . S
C693 N692 1.351 . S
C693 C694 1.434 . S
C694 C685 1.429 . S
C694 N691 1.350 . S
C694 C693 1.434 . S
C695 C696 1.369 1_554 S
C695 C697 1.419 1_554 S
C695 H699 0.930 . S
C696 C695 1.369 1_556 S
C696 C705 1.429 . S
C697 C695 1.419 1_556 S
C697 C698 1.363 . S
C697 H700 0.929 . S
C698 C697 1.363 . S
C698 C704 1.428 . S
H699 C695 0.930 . S
H700 C697 0.929 . S
S701 N702 1.613 . S
S701 N703 1.610 . S
N702 S701 1.613 . S
N702 C705 1.350 . S
N703 S701 1.610 . S
N703 C704 1.351 . S
C704 C698 1.428 . S
C704 N703 1.351 . S
C704 C705 1.434 . S
C705 C696 1.429 . S
C705 N702 1.350 . S
C705 C704 1.434 . S
C706 C707 1.369 . S
C706 C708 1.419 . S
C706 H710 0.930 . S
C707 C706 1.369 . S
C707 C716 1.429 . S
C708 C706 1.419 . S
C708 C709 1.363 . S
C708 H711 0.929 . S
C709 C708 1.363 . S
C709 C715 1.428 . S
H710 C706 0.930 . S
H711 C708 0.929 . S
S712 N713 1.613 . S
S712 N714 1.610 . S
N713 S712 1.613 . S
N713 C716 1.350 . S
N714 S712 1.610 . S
N714 C715 1.351 . S
C715 C709 1.428 . S
C715 N714 1.351 . S
C715 C716 1.434 . S
C716 C707 1.429 . S
C716 N713 1.350 . S
C716 C715 1.434 . S
C717 C718 1.369 . S
C717 C719 1.419 . S
C717 H721 0.930 . S
C718 C717 1.369 . S
C718 C727 1.429 . S
C719 C717 1.419 . S
C719 C720 1.363 . S
C719 H722 0.929 . S
C720 C719 1.363 . S
C720 C726 1.428 . S
H721 C717 0.930 . S
H722 C719 0.929 . S
S723 N724 1.613 . S
S723 N725 1.610 1_554 S
N724 S723 1.613 . S
N724 C727 1.350 1_554 S
N725 S723 1.610 1_556 S
N725 C726 1.351 . S
C726 C720 1.428 . S
C726 N725 1.351 . S
C726 C727 1.434 . S
C727 C718 1.429 . S
C727 N724 1.350 1_556 S
C727 C726 1.434 . S
C728 C729 1.369 . S
C728 C730 1.419 . S
C728 H732 0.930 . S
C729 C728 1.369 . S
C729 C738 1.429 . S
C730 C728 1.419 . S
C730 C731 1.363 . S
C730 H733 0.929 . S
C731 C730 1.363 . S
C731 C737 1.428 . S
H732 C728 0.930 . S
H733 C730 0.929 . S
S734 N735 1.613 . S
S734 N736 1.610 . S
N735 S734 1.613 . S
N735 C738 1.350 . S
N736 S734 1.610 . S
N736 C737 1.351 . S
C737 C731 1.428 . S
C737 N736 1.351 . S
C737 C738 1.434 . S
C738 C729 1.429 . S
C738 N735 1.350 . S
C738 C737 1.434 . S
C739 C740 1.369 . S
C739 C741 1.419 . S
C739 H743 0.930 . S
C740 C739 1.369 . S
C740 C749 1.429 . S
C741 C739 1.419 . S
C741 C742 1.363 . S
C741 H744 0.929 . S
C742 C741 1.363 . S
C742 C748 1.428 . S
H743 C739 0.930 . S
H744 C741 0.929 . S
S745 N746 1.613 . S
S745 N747 1.610 . S
N746 S745 1.613 . S
N746 C749 1.350 . S
N747 S745 1.610 . S
N747 C748 1.351 . S
C748 C742 1.428 . S
C748 N747 1.351 . S
C748 C749 1.434 . S
C749 C740 1.429 . S
C749 N746 1.350 . S
C749 C748 1.434 . S
C750 C751 1.369 . S
C750 C752 1.419 . S
C750 H754 0.930 . S
C751 C750 1.369 . S
C751 C760 1.429 . S
C752 C750 1.419 . S
C752 C753 1.363 . S
C752 H755 0.929 . S
C753 C752 1.363 . S
C753 C759 1.428 . S
H754 C750 0.930 . S
H755 C752 0.929 . S
S756 N757 1.613 . S
S756 N758 1.610 . S
N757 S756 1.613 . S
N757 C760 1.350 . S
N758 S756 1.610 . S
N758 C759 1.351 . S
C759 C753 1.428 . S
C759 N758 1.351 . S
C759 C760 1.434 . S
C760 C751 1.429 . S
C760 N757 1.350 . S
C760 C759 1.434 . S
C761 C762 1.369 . S
C761 C763 1.419 . S
C761 H765 0.930 . S
C762 C761 1.369 . S
C762 C771 1.429 . S
C763 C761 1.419 . S
C763 C764 1.363 . S
C763 H766 0.929 . S
C764 C763 1.363 . S
C764 C770 1.428 . S
H765 C761 0.930 . S
H766 C763 0.929 . S
S767 N768 1.613 . S
S767 N769 1.610 . S
N768 S767 1.613 . S
N768 C771 1.350 . S
N769 S767 1.610 . S
N769 C770 1.351 . S
C770 C764 1.428 . S
C770 N769 1.351 . S
C770 C771 1.434 . S
C771 C762 1.429 . S
C771 N768 1.350 . S
C771 C770 1.434 . S
C772 C773 1.369 . S
C772 C774 1.419 . S
C772 H776 0.930 . S
C773 C772 1.369 . S
C773 C782 1.429 . S
C774 C772 1.419 . S
C774 C775 1.363 . S
C774 H777 0.929 . S
C775 C774 1.363 . S
C775 C781 1.428 . S
H776 C772 0.930 . S
H777 C774 0.929 . S
S778 N779 1.613 . S
S778 N780 1.610 . S
N779 S778 1.613 . S
N779 C782 1.350 . S
N780 S778 1.610 . S
N780 C781 1.351 . S
C781 C775 1.428 . S
C781 N780 1.351 . S
C781 C782 1.434 . S
C782 C773 1.429 . S
C782 N779 1.350 . S
C782 C781 1.434 . S
C783 C784 1.369 . S
C783 C785 1.419 . S
C783 H787 0.930 . S
C784 C783 1.369 . S
C784 C793 1.429 . S
C785 C783 1.419 . S
C785 C786 1.363 . S
C785 H788 0.929 . S
C786 C785 1.363 . S
C786 C792 1.428 . S
H787 C783 0.930 . S
H788 C785 0.929 . S
S789 N790 1.613 . S
S789 N791 1.610 . S
N790 S789 1.613 . S
N790 C793 1.350 . S
N791 S789 1.610 . S
N791 C792 1.351 . S
C792 C786 1.428 . S
C792 N791 1.351 . S
C792 C793 1.434 . S
C793 C784 1.429 . S
C793 N790 1.350 . S
C793 C792 1.434 . S
C794 C795 1.369 . S
C794 C796 1.419 . S
C794 H798 0.930 . S
C795 C794 1.369 . S
C795 C804 1.429 . S
C796 C794 1.419 . S
C796 C797 1.363 . S
C796 H799 0.929 . S
C797 C796 1.363 . S
C797 C803 1.428 . S
H798 C794 0.930 . S
H799 C796 0.929 . S
S800 N801 1.613 . S
S800 N802 1.610 . S
N801 S800 1.613 . S
N801 C804 1.350 . S
N802 S800 1.610 . S
N802 C803 1.351 . S
C803 C797 1.428 . S
C803 N802 1.351 . S
C803 C804 1.434 . S
C804 C795 1.429 . S
C804 N801 1.350 . S
C804 C803 1.434 . S
C805 C806 1.369 . S
C805 C807 1.419 . S
C805 H809 0.930 . S
C806 C805 1.369 . S
C806 C815 1.429 . S
C807 C805 1.419 . S
C807 C808 1.363 . S
C807 H810 0.929 . S
C808 C807 1.363 . S
C808 C814 1.428 . S
H809 C805 0.930 . S
H810 C807 0.929 . S
S811 N812 1.613 . S
S811 N813 1.610 . S
N812 S811 1.613 . S
N812 C815 1.350 . S
N813 S811 1.610 . S
N813 C814 1.351 . S
C814 C808 1.428 . S
C814 N813 1.351 . S
C814 C815 1.434 . S
C815 C806 1.429 . S
C815 N812 1.350 . S
C815 C814 1.434 . S
C816 C817 1.369 . S
C816 C818 1.419 . S
C816 H820 0.930 . S
C817 C816 1.369 . S
C817 C826 1.429 1_556 S
C818 C816 1.419 . S
C818 C819 1.363 . S
C818 H821 0.929 . S
C819 C818 1.363 . S
C819 C825 1.428 1_556 S
H820 C816 0.930 . S
H821 C818 0.929 . S
S822 N823 1.613 . S
S822 N824 1.610 . S
N823 S822 1.613 . S
N823 C826 1.350 . S
N824 S822 1.610 . S
N824 C825 1.351 . S
C825 C819 1.428 1_554 S
C825 N824 1.351 . S
C825 C826 1.434 . S
C826 C817 1.429 1_554 S
C826 N823 1.350 . S
C826 C825 1.434 . S
C827 C828 1.369 . S
C827 C829 1.419 . S
C827 H831 0.930 . S
C828 C827 1.369 . S
C828 C837 1.429 . S
C829 C827 1.419 . S
C829 C830 1.363 . S
C829 H832 0.929 . S
C830 C829 1.363 . S
C830 C836 1.428 . S
H831 C827 0.930 . S
H832 C829 0.929 . S
S833 N834 1.613 . S
S833 N835 1.610 . S
N834 S833 1.613 . S
N834 C837 1.350 . S
N835 S833 1.610 . S
N835 C836 1.351 . S
C836 C830 1.428 . S
C836 N835 1.351 . S
C836 C837 1.434 . S
C837 C828 1.429 . S
C837 N834 1.350 . S
C837 C836 1.434 . S
C838 C839 1.369 1_556 S
C838 C840 1.419 . S
C838 H842 0.930 . S
C839 C838 1.369 1_554 S
C839 C848 1.429 . S
C840 C838 1.419 . S
C840 C841 1.363 1_556 S
C840 H843 0.929 . S
C841 C840 1.363 1_554 S
C841 C847 1.428 . S
H842 C838 0.930 . S
H843 C840 0.929 . S
S844 N845 1.613 . S
S844 N846 1.610 . S
N845 S844 1.613 . S
N845 C848 1.350 . S
N846 S844 1.610 . S
N846 C847 1.351 . S
C847 C841 1.428 . S
C847 N846 1.351 . S
C847 C848 1.434 . S
C848 C839 1.429 . S
C848 N845 1.350 . S
C848 C847 1.434 . S
C849 C850 1.369 1_565 S
C849 C851 1.419 . S
C849 H853 0.930 . S
C850 C849 1.369 1_545 S
C850 C859 1.429 . S
C851 C849 1.419 . S
C851 C852 1.363 . S
C851 H854 0.929 . S
C852 C851 1.363 . S
C852 C858 1.428 . S
H853 C849 0.930 . S
H854 C851 0.929 . S
S855 N856 1.613 1_566 S
S855 N857 1.610 1_556 S
N856 S855 1.613 1_544 S
N856 C859 1.350 . S
N857 S855 1.610 1_554 S
N857 C858 1.351 . S
C858 C852 1.428 . S
C858 N857 1.351 . S
C858 C859 1.434 1_565 S
C859 C850 1.429 . S
C859 N856 1.350 . S
C859 C858 1.434 1_545 S
C335 C186 1.520 . S
C333 C60 1.540 . S
C346 C199 1.432 . S
C344 C76 1.435 . S
C355 C81 1.621 . S
C357 C212 1.596 . S
C368 C225 1.551 . S
C366 C48 1.588 1_545 S
C379 C233 1.485 . S
C377 C115 1.493 . S
C390 C246 1.527 . S
C388 C136 1.550 . S
C399 C131 1.432 . S
C401 C259 1.385 . S
C412 C272 1.490 . S
C410 C104 1.513 . S
C421 C126 1.474 . S
C423 C290 1.446 . S
C434 C301 1.422 . S
C432 C103 1.471 . S
C443 C120 1.403 . S
C445 C285 1.376 . S
C456 C293 1.452 . S
C454 C142 1.460 . S
C465 C82 1.509 . S
C467 C316 1.495 . S
C476 C54 1.700 . S
C478 C306 1.674 . S
C487 C65 1.455 . S
C489 C311 1.440 . S
C498 C71 1.371 . S
C500 C314 1.354 1_655 S
C509 C37 1.534 . S
C511 C223 1.511 . S
C520 C158 1.799 . S
C522 C215 1.796 . S
C533 C184 1.468 . S
C531 C169 1.471 1_564 S
C544 C189 1.309 . S
C542 C98 1.336 . S
C553 C49 1.696 . S
C555 C236 1.656 . S
C566 C275 1.472 . S
C564 C125 1.500 . S
C577 C228 1.428 . S
C575 C109 1.435 . S
C588 C254 1.646 . S
C586 C137 1.696 . S
C599 C264 1.516 . S
C597 C159 1.538 . S
C608 C175 1.435 . S
C610 C277 1.432 . S
C619 C92 1.620 . S
C621 C238 1.599 . S
C632 C251 1.555 . S
C630 C147 1.586 . S
C641 C38 1.494 . S
C643 C207 1.481 . S
C654 C220 1.530 . S
C652 C4 1.549 . S
C665 C181 1.385 . S
C663 C21 1.432 . S
C676 C194 1.495 . S
C674 C27 1.509 . S
C685 C16 1.474 . S
C687 C303 1.445 . S
C696 C26 1.470 1_556 S
C698 C288 1.423 . S
C707 C43 1.403 . S
C709 C298 1.372 . S
C718 C10 1.460 1_556 S
C720 C280 1.453 . S
C731 C329 1.496 . S
C729 C93 1.508 . S
C742 C319 1.676 . S
C740 C153 1.699 . S
C753 C324 1.444 . S
C751 C164 1.457 . S
C762 C170 1.372 . S
C764 C327 1.360 . S
C773 C114 1.534 . S
C775 C249 1.513 . S
C786 C241 1.794 . S
C784 C59 1.801 . S
C797 C262 1.467 . S
C795 C70 1.477 . S
C808 C267 1.307 . S
C806 C87 1.339 . S
C817 C148 1.697 . S
C819 C210 1.657 . S
C830 C197 1.470 . S
C828 C15 1.499 . S
C839 C32 1.434 . S
C841 C202 1.420 1_554 S
C852 C176 1.641 . S
C850 C5 1.697 . S
