# Generated by pormake.
# Topology nom, (4,4)-cn, num edge types: 1
# Building blocks:
#     Node 0, Type 0, BuildingBlock: MUDLON_clean_linker_0, # of connection points: 4
#     Node 1, Type 0, BuildingBlock: MUDLON_clean_linker_0, # of connection points: 4
#     Node 2, Type 0, BuildingBlock: MUDLON_clean_linker_0, # of connection points: 4
#     Node 3, Type 0, BuildingBlock: MUDLON_clean_linker_0, # of connection points: 4
#     Node 4, Type 0, BuildingBlock: MUDLON_clean_linker_0, # of connection points: 4
#     Node 5, Type 0, BuildingBlock: MUDLON_clean_linker_0, # of connection points: 4
#     Node 6, Type 1, BuildingBlock: KUFVIS_clean_sbu_0, # of connection points: 4
#     Node 7, Type 1, BuildingBlock: KUFVIS_clean_sbu_0, # of connection points: 4
#     Node 8, Type 1, BuildingBlock: KUFVIS_clean_sbu_0, # of connection points: 4
#     Node 9, Type 1, BuildingBlock: KUFVIS_clean_sbu_0, # of connection points: 4
#     Node 10, Type 1, BuildingBlock: KUFVIS_clean_sbu_0, # of connection points: 4
#     Node 11, Type 1, BuildingBlock: KUFVIS_clean_sbu_0, # of connection points: 4
#     Edge 12, Type (0, 1), BuildingBlock: AJUNOK_clean_linker_0, # of connection points: 2
#     Edge 13, Type (0, 1), BuildingBlock: AJUNOK_clean_linker_0, # of connection points: 2
#     Edge 14, Type (0, 1), BuildingBlock: AJUNOK_clean_linker_0, # of connection points: 2
#     Edge 15, Type (0, 1), BuildingBlock: AJUNOK_clean_linker_0, # of connection points: 2
#     Edge 16, Type (0, 1), BuildingBlock: AJUNOK_clean_linker_0, # of connection points: 2
#     Edge 17, Type (0, 1), BuildingBlock: AJUNOK_clean_linker_0, # of connection points: 2
#     Edge 18, Type (0, 1), BuildingBlock: AJUNOK_clean_linker_0, # of connection points: 2
#     Edge 19, Type (0, 1), BuildingBlock: AJUNOK_clean_linker_0, # of connection points: 2
#     Edge 20, Type (0, 1), BuildingBlock: AJUNOK_clean_linker_0, # of connection points: 2
#     Edge 21, Type (0, 1), BuildingBlock: AJUNOK_clean_linker_0, # of connection points: 2
#     Edge 22, Type (0, 1), BuildingBlock: AJUNOK_clean_linker_0, # of connection points: 2
#     Edge 23, Type (0, 1), BuildingBlock: AJUNOK_clean_linker_0, # of connection points: 2
#     Edge 24, Type (0, 1), BuildingBlock: AJUNOK_clean_linker_0, # of connection points: 2
#     Edge 25, Type (0, 1), BuildingBlock: AJUNOK_clean_linker_0, # of connection points: 2
#     Edge 26, Type (0, 1), BuildingBlock: AJUNOK_clean_linker_0, # of connection points: 2
#     Edge 27, Type (0, 1), BuildingBlock: AJUNOK_clean_linker_0, # of connection points: 2
#     Edge 28, Type (0, 1), BuildingBlock: AJUNOK_clean_linker_0, # of connection points: 2
#     Edge 29, Type (0, 1), BuildingBlock: AJUNOK_clean_linker_0, # of connection points: 2
#     Edge 30, Type (0, 1), BuildingBlock: AJUNOK_clean_linker_0, # of connection points: 2
#     Edge 31, Type (0, 1), BuildingBlock: AJUNOK_clean_linker_0, # of connection points: 2
#     Edge 32, Type (0, 1), BuildingBlock: AJUNOK_clean_linker_0, # of connection points: 2
#     Edge 33, Type (0, 1), BuildingBlock: AJUNOK_clean_linker_0, # of connection points: 2
#     Edge 34, Type (0, 1), BuildingBlock: AJUNOK_clean_linker_0, # of connection points: 2
#     Edge 35, Type (0, 1), BuildingBlock: AJUNOK_clean_linker_0, # of connection points: 2
# Relax obj value: 0.009
# Max RMSD: 0.108
# Mean RMSD: 0.063
data_MOF--net-nom--node1-KUFVIS_clean_sbu_0--node2-MUDLON_clean_linker_0--edge1-AJUNOK_clean_linker_0
_symmetry_space_group_name_H-M    P1
_symmetry_Int_Tables_number       1
_symmetry_cell_setting            triclinic
loop_
_symmetry_equiv_pos_as_xyz
'x, y, z'
_cell_length_a     47.907366
_cell_length_b     49.252699
_cell_length_c     48.740503
_cell_angle_alpha  90.923672
_cell_angle_beta   90.557736
_cell_angle_gamma 120.55518
loop_
_atom_site_label
_atom_site_type_symbol
_atom_site_fract_x
_atom_site_fract_y
_atom_site_fract_z
_atom_type_partial_charge
H0 H 0.15601 0.57822 0.32147 0.0
N1 N 0.12392 0.60736 0.34066 0.0
H2 H 0.20468 0.60235 0.29374 0.0
H3 H 0.14983 0.66225 0.31588 0.0
H4 H 0.19882 0.68671 0.28823 0.0
H5 H 0.13755 0.65027 0.38005 0.0
H6 H 0.15981 0.65252 0.42615 0.0
H7 H 0.13123 0.56102 0.36382 0.0
H8 H 0.1542 0.5635 0.40963 0.0
H9 H 0.09938 0.54685 0.32095 0.0
H10 H 0.07476 0.61749 0.34112 0.0
H11 H 0.04316 0.51011 0.30677 0.0
H12 H 0.01822 0.58069 0.32781 0.0
H13 H 0.88179 0.49445 0.25068 0.0
H14 H 0.86322 0.48439 0.20301 0.0
H15 H 0.86578 0.3981 0.20244 0.0
H16 H 0.88567 0.40885 0.25031 0.0
H17 H 0.87962 0.50161 0.29838 0.0
H18 H 0.83141 0.49314 0.32216 0.0
H19 H 0.80159 0.39506 0.33167 0.0
H20 H 0.84932 0.40347 0.30653 0.0
H21 H 0.93297 0.44262 0.31044 0.0
H22 H 0.98942 0.47883 0.32485 0.0
H23 H 0.9848 0.55572 0.288 0.0
N24 N 0.89345 0.45588 0.28304 0.0
H25 H 0.92869 0.5199 0.27459 0.0
C26 C 0.14931 0.61858 0.32085 0.0
C27 C 0.16469 0.60161 0.3139 0.0
C28 C 0.19268 0.61551 0.29817 0.0
C29 C 0.20576 0.64655 0.28918 0.0
C30 C 0.18923 0.66271 0.29481 0.0
C31 C 0.16132 0.64884 0.31058 0.0
C32 C 0.13316 0.6058 0.36847 0.0
C33 C 0.14057 0.631 0.38662 0.0
C34 C 0.15317 0.6322 0.41285 0.0
C35 C 0.15889 0.60829 0.42122 0.0
C36 C 0.15023 0.58233 0.40346 0.0
C37 C 0.13721 0.58096 0.3773 0.0
C38 C 0.09124 0.58506 0.33185 0.0
C39 C 0.0819 0.55447 0.32234 0.0
C40 C 0.04961 0.53337 0.31445 0.0
C41 C 0.0261 0.54244 0.31605 0.0
C42 C 0.03569 0.57305 0.3258 0.0
C43 C 0.06791 0.59407 0.33356 0.0
C44 C 0.88581 0.45261 0.25407 0.0
C45 C 0.87966 0.47398 0.24024 0.0
C46 C 0.86891 0.46819 0.21289 0.0
C47 C 0.86353 0.44072 0.19902 0.0
C48 C 0.87015 0.41964 0.21264 0.0
C49 C 0.88146 0.42573 0.23987 0.0
C50 C 0.86796 0.453 0.30044 0.0
C51 C 0.86288 0.47831 0.30558 0.0
C52 C 0.83527 0.47345 0.31932 0.0
C53 C 0.81229 0.44327 0.32832 0.0
C54 C 0.81828 0.41837 0.32428 0.0
C55 C 0.84572 0.4232 0.3103 0.0
C56 C 0.92642 0.47828 0.29143 0.0
C57 C 0.94422 0.46735 0.30562 0.0
C58 C 0.97652 0.48803 0.31362 0.0
C59 C 0.99174 0.52023 0.30754 0.0
C60 C 0.97377 0.53117 0.29337 0.0
C61 C 0.94148 0.5105 0.28548 0.0
H62 H 0.49059 0.88003 0.48514 0.0
N63 N 0.47054 0.90999 0.45298 0.0
H64 H 0.45664 0.83241 0.51138 0.0
H65 H 0.40586 0.88442 0.46237 0.0
H66 H 0.37202 0.83732 0.4889 0.0
H67 H 0.42542 0.91145 0.41944 0.0
H68 H 0.41132 0.89016 0.37216 0.0
H69 H 0.50041 0.88781 0.42273 0.0
H70 H 0.48729 0.86743 0.37549 0.0
H71 H 0.53056 0.95603 0.44521 0.0
H72 H 0.43859 0.93806 0.47536 0.0
H73 H 0.55399 0.01218 0.45505 0.0
H74 H 0.46226 0.99393 0.48711 0.0
H75 H 0.52471 0.13843 0.53435 0.0
H76 H 0.53365 0.1599 0.58171 0.0
H77 H 0.63296 0.18148 0.57914 0.0
H78 H 0.62388 0.16053 0.53199 0.0
H79 H 0.52741 0.15686 0.4854 0.0
H80 H 0.53954 0.20321 0.45861 0.0
H81 H 0.63765 0.22331 0.44862 0.0
H82 H 0.62512 0.17664 0.47526 0.0
H83 H 0.59771 0.1044 0.5022 0.0
H84 H 0.57228 0.04822 0.49128 0.0
H85 H 0.48257 0.04518 0.47091 0.0
N86 N 0.57044 0.13964 0.50131 0.0
H87 H 0.50805 0.1012 0.48376 0.0
C88 C 0.45091 0.88596 0.47208 0.0
C89 C 0.46484 0.87125 0.4865 0.0
C90 C 0.44548 0.84406 0.50127 0.0
C91 C 0.41179 0.83126 0.50199 0.0
C92 C 0.398 0.84693 0.48879 0.0
C93 C 0.41735 0.87392 0.47372 0.0
C94 C 0.46381 0.90087 0.42446 0.0
C95 C 0.43912 0.9021 0.40977 0.0
C96 C 0.43138 0.89028 0.38269 0.0
C97 C 0.44841 0.87734 0.36996 0.0
C98 C 0.47376 0.87723 0.38463 0.0
C99 C 0.48132 0.88886 0.41157 0.0
C100 C 0.48311 0.94275 0.45993 0.0
C101 C 0.51558 0.96425 0.45435 0.0
C102 C 0.52895 0.99634 0.46022 0.0
C103 C 0.51025 0.00778 0.47235 0.0
C104 C 0.47741 0.98615 0.4776 0.0
C105 C 0.46386 0.95397 0.47119 0.0
C106 C 0.57381 0.14827 0.52987 0.0
C107 C 0.5482 0.14746 0.54427 0.0
C108 C 0.55332 0.15956 0.57124 0.0
C109 C 0.58413 0.17271 0.58393 0.0
C110 C 0.60913 0.17192 0.56977 0.0
C111 C 0.604 0.15989 0.54295 0.0
C112 C 0.57532 0.1632 0.4819 0.0
C113 C 0.55115 0.17063 0.47664 0.0
C114 C 0.55814 0.19711 0.46139 0.0
C115 C 0.5895 0.2167 0.45146 0.0
C116 C 0.61329 0.20854 0.45599 0.0
C117 C 0.60616 0.18191 0.471 0.0
C118 C 0.55492 0.1069 0.49341 0.0
C119 C 0.57259 0.0915 0.4953 0.0
C120 C 0.55798 0.0594 0.48883 0.0
C121 C 0.52534 0.04198 0.4798 0.0
C122 C 0.50761 0.05762 0.47799 0.0
C123 C 0.52222 0.08977 0.48499 0.0
H124 H 0.46927 0.64817 0.66603 0.0
N125 N 0.47113 0.59636 0.67588 0.0
H126 H 0.42765 0.65249 0.64038 0.0
H127 H 0.42149 0.54904 0.64476 0.0
H128 H 0.38091 0.55352 0.61772 0.0
H129 H 0.4137 0.55408 0.699 0.0
H130 H 0.39768 0.55618 0.74599 0.0
H131 H 0.5084 0.63465 0.71661 0.0
H132 H 0.49271 0.63649 0.76413 0.0
H133 H 0.52415 0.61613 0.64674 0.0
H134 H 0.44805 0.53337 0.68457 0.0
H135 H 0.54977 0.58634 0.6323 0.0
H136 H 0.47412 0.50373 0.67131 0.0
H137 H 0.53447 0.43212 0.58718 0.0
H138 H 0.54171 0.41873 0.54012 0.0
H139 H 0.64067 0.49615 0.54305 0.0
H140 H 0.63312 0.50961 0.58991 0.0
H141 H 0.5367 0.41819 0.63515 0.0
H142 H 0.54801 0.38215 0.66075 0.0
H143 H 0.64733 0.45688 0.67342 0.0
H144 H 0.63589 0.49259 0.64756 0.0
H145 H 0.60754 0.53699 0.63863 0.0
H146 H 0.57959 0.56491 0.65203 0.0
H147 H 0.48739 0.48057 0.63376 0.0
N148 N 0.58145 0.47789 0.62064 0.0
H149 H 0.51579 0.45263 0.62151 0.0
C150 C 0.44872 0.59847 0.65728 0.0
C151 C 0.45021 0.62753 0.65525 0.0
C152 C 0.42642 0.62992 0.64057 0.0
C153 C 0.40062 0.60324 0.62735 0.0
C154 C 0.39992 0.57434 0.62833 0.0
C155 C 0.42348 0.57185 0.64344 0.0
C156 C 0.46238 0.59428 0.70433 0.0
C157 C 0.43132 0.57177 0.71317 0.0
C158 C 0.42223 0.5729 0.74011 0.0
C159 C 0.44404 0.59638 0.75879 0.0
C160 C 0.47541 0.6182 0.75015 0.0
C161 C 0.48446 0.61708 0.72316 0.0
C162 C 0.48452 0.5773 0.667 0.0
C163 C 0.51307 0.59155 0.652 0.0
C164 C 0.52778 0.5745 0.64398 0.0
C165 C 0.51431 0.54267 0.65096 0.0
C166 C 0.48512 0.52811 0.66543 0.0
C167 C 0.47029 0.54519 0.67328 0.0
C168 C 0.58333 0.47203 0.59193 0.0
C169 C 0.55743 0.44669 0.57746 0.0
C170 C 0.56159 0.43903 0.55059 0.0
C171 C 0.59181 0.45631 0.53804 0.0
C172 C 0.61719 0.48236 0.55225 0.0
C173 C 0.61292 0.49015 0.57891 0.0
C174 C 0.5856 0.458 0.63945 0.0
C175 C 0.56067 0.42694 0.64394 0.0
C176 C 0.56716 0.40643 0.65857 0.0
C177 C 0.59866 0.41667 0.66868 0.0
C178 C 0.62298 0.44829 0.66549 0.0
C179 C 0.61646 0.46871 0.65096 0.0
C180 C 0.56382 0.49296 0.62893 0.0
C181 C 0.58129 0.5246 0.63767 0.0
C182 C 0.56523 0.54053 0.64506 0.0
C183 C 0.53116 0.52515 0.64367 0.0
C184 C 0.51361 0.49313 0.63525 0.0
C185 C 0.52981 0.47713 0.62802 0.0
H186 H 0.18274 0.64731 0.79095 0.0
N187 N 0.12652 0.59521 0.77977 0.0
H188 H 0.22973 0.65204 0.81573 0.0
H189 H 0.12803 0.54821 0.80843 0.0
H190 H 0.174 0.55314 0.83459 0.0
H191 H 0.13769 0.55241 0.75315 0.0
H192 H 0.1578 0.55687 0.7065 0.0
H193 H 0.12969 0.6348 0.74187 0.0
H194 H 0.1491 0.639 0.69486 0.0
H195 H 0.09382 0.61743 0.80591 0.0
H196 H 0.08457 0.53138 0.77331 0.0
H197 H 0.03779 0.58834 0.82102 0.0
H198 H 0.02893 0.5017 0.78935 0.0
H199 H 0.85513 0.49334 0.86761 0.0
H200 H 0.83346 0.47433 0.91305 0.0
H201 H 0.89509 0.43425 0.92048 0.0
H202 H 0.91531 0.45192 0.87442 0.0
H203 H 0.8803 0.41985 0.83442 0.0
H204 H 0.83313 0.3765 0.8107 0.0
H205 H 0.80637 0.44227 0.78032 0.0
H206 H 0.8529 0.48537 0.80539 0.0
H207 H 0.94669 0.52705 0.86622 0.0
H208 H 1.00321 0.55261 0.85336 0.0
H209 H 0.97595 0.49254 0.78067 0.0
N210 N 0.8945 0.48103 0.83898 0.0
H211 H 0.91992 0.46606 0.794 0.0
C212 C 0.15177 0.59759 0.79786 0.0
C213 C 0.18064 0.62676 0.8007 0.0
C214 C 0.20743 0.6294 0.81487 0.0
C215 C 0.20585 0.60285 0.82675 0.0
C216 C 0.17639 0.57386 0.82497 0.0
C217 C 0.14977 0.57112 0.81034 0.0
C218 C 0.13236 0.59348 0.75101 0.0
C219 C 0.13942 0.57095 0.74039 0.0
C220 C 0.15098 0.57356 0.71373 0.0
C221 C 0.15567 0.59869 0.69727 0.0
C222 C 0.14649 0.61987 0.70733 0.0
C223 C 0.13506 0.61731 0.73399 0.0
C224 C 0.09344 0.57673 0.78857 0.0
C225 C 0.07969 0.59216 0.80226 0.0
C226 C 0.04771 0.57536 0.8111 0.0
C227 C 0.02869 0.54249 0.80666 0.0
C228 C 0.04262 0.52699 0.79291 0.0
C229 C 0.0746 0.54394 0.78384 0.0
C230 C 0.8868 0.47416 0.8676 0.0
C231 C 0.86427 0.48086 0.87926 0.0
C232 C 0.85194 0.46996 0.90521 0.0
C233 C 0.86207 0.45223 0.92019 0.0
C234 C 0.88604 0.44701 0.90914 0.0
C235 C 0.898 0.45751 0.88296 0.0
C236 C 0.87003 0.45589 0.82168 0.0
C237 C 0.86447 0.42497 0.82246 0.0
C238 C 0.83762 0.40025 0.80867 0.0
C239 C 0.81608 0.40597 0.79348 0.0
C240 C 0.82238 0.43708 0.792 0.0
C241 C 0.84907 0.46174 0.80602 0.0
C242 C 0.92836 0.49355 0.83196 0.0
C243 C 0.95282 0.51865 0.84789 0.0
C244 C 0.98527 0.53369 0.84023 0.0
C245 C 0.99435 0.52477 0.81588 0.0
C246 C 0.97009 0.4997 0.79985 0.0
C247 C 0.93761 0.4844 0.80764 0.0
H248 H 0.5445 0.18428 0.95874 0.0
N249 N 0.5445 0.13151 0.94682 0.0
H250 H 0.5869 0.2314 0.98306 0.0
H251 H 0.5966 0.13598 0.97489 0.0
H252 H 0.63826 0.18238 1.00048 0.0
H253 H 0.60056 0.14458 0.9214 0.0
H254 H 0.61614 0.16492 0.87523 0.0
H255 H 0.50631 0.13367 0.90798 0.0
H256 H 0.52149 0.15334 0.86132 0.0
H257 H 0.49748 0.10196 0.98238 0.0
H258 H 0.56382 0.08914 0.93242 0.0
H259 H 0.47392 0.0481 0.99828 0.0
H260 H 0.53922 0.03472 0.94683 0.0
H261 H 0.38832 0.86976 0.0348 0.0
H262 H 0.38714 0.84951 0.08048 0.0
H263 H 0.49162 0.9067 0.08638 0.0
H264 H 0.49259 0.92516 0.04002 0.0
H265 H 0.484 0.88816 0.99595 0.0
H266 H 0.4734 0.84061 0.96995 0.0
H267 H 0.37851 0.82337 0.94665 0.0
H268 H 0.3893 0.87094 0.97266 0.0
H269 H 0.41335 0.94159 0.99769 0.0
H270 H 0.43968 0.99626 0.98339 0.0
H271 H 0.53173 0.99975 0.98209 0.0
N272 N 0.43992 0.90651 0.00556 0.0
H273 H 0.50454 0.94438 0.99484 0.0
C274 C 0.56726 0.15663 0.96505 0.0
C275 C 0.56472 0.18364 0.96817 0.0
C276 C 0.58895 0.2105 0.98206 0.0
C277 C 0.61628 0.21088 0.99328 0.0
C278 C 0.61799 0.18319 0.99139 0.0
C279 C 0.59392 0.15643 0.97713 0.0
C280 C 0.55218 0.13768 0.91818 0.0
C281 C 0.58291 0.1458 0.90828 0.0
C282 C 0.59181 0.15746 0.88187 0.0
C283 C 0.57025 0.16131 0.86487 0.0
C284 C 0.53888 0.15134 0.8742 0.0
C285 C 0.53002 0.13975 0.90066 0.0
C286 C 0.532 0.09962 0.95589 0.0
C287 C 0.50677 0.08739 0.97467 0.0
C288 C 0.49315 0.05643 0.98354 0.0
C289 C 0.50418 0.03659 0.97355 0.0
C290 C 0.53012 0.04917 0.95517 0.0
C291 C 0.54407 0.0804 0.94661 0.0
C292 C 0.44038 0.89911 0.034 0.0
C293 C 0.41091 0.87816 0.04614 0.0
C294 C 0.41032 0.86665 0.07226 0.0
C295 C 0.43932 0.87607 0.08703 0.0
C296 C 0.46887 0.89819 0.0753 0.0
C297 C 0.46945 0.90926 0.04888 0.0
C298 C 0.43735 0.88302 0.98612 0.0
C299 C 0.46138 0.87473 0.98451 0.0
C300 C 0.45526 0.84753 0.96975 0.0
C301 C 0.42498 0.82819 0.95665 0.0
C302 C 0.40189 0.83771 0.95684 0.0
C303 C 0.40808 0.86491 0.97146 0.0
C304 C 0.45691 0.93903 0.99766 0.0
C305 C 0.43921 0.95426 0.99432 0.0
C306 C 0.45446 0.98566 0.98636 0.0
C307 C 0.48808 1.00286 0.98184 0.0
C308 C 0.50582 0.98737 0.98512 0.0
C309 C 0.49035 0.9557 0.99276 0.0
H310 H 0.53754 0.40849 0.12895 0.0
N311 N 0.55078 0.45014 0.16964 0.0
H312 H 0.5765 0.39935 0.10403 0.0
H313 H 0.61646 0.48958 0.1704 0.0
H314 H 0.65544 0.48009 0.14606 0.0
H315 H 0.58098 0.49879 0.20783 0.0
H316 H 0.59436 0.49456 0.25535 0.0
H317 H 0.5354 0.39803 0.19639 0.0
H318 H 0.55036 0.39376 0.24352 0.0
H319 H 0.48863 0.42727 0.15803 0.0
H320 H 0.58071 0.51389 0.16194 0.0
H321 H 0.4618 0.45609 0.14503 0.0
H322 H 0.55392 0.5436 0.15096 0.0
H323 H 0.43306 0.61871 0.10554 0.0
H324 H 0.42816 0.63194 0.05952 0.0
H325 H 0.42973 0.55041 0.0284 0.0
H326 H 0.43523 0.53643 0.07542 0.0
H327 H 0.48868 0.6224 0.13886 0.0
H328 H 0.48749 0.66446 0.16505 0.0
H329 H 0.38622 0.60125 0.1817 0.0
H330 H 0.38737 0.55988 0.15405 0.0
H331 H 0.41552 0.51509 0.15197 0.0
H332 H 0.4449 0.48837 0.16361 0.0
H333 H 0.52717 0.5573 0.11836 0.0
N334 N 0.43555 0.56645 0.12295 0.0
H335 H 0.49797 0.58502 0.10844 0.0
C336 C 0.57406 0.44943 0.15163 0.0
C337 C 0.56327 0.42475 0.13211 0.0
C338 C 0.58545 0.41954 0.11798 0.0
C339 C 0.61882 0.43881 0.12345 0.0
C340 C 0.62976 0.4648 0.1417 0.0
C341 C 0.60755 0.47027 0.15553 0.0
C342 C 0.5565 0.44852 0.19855 0.0
C343 C 0.57333 0.47566 0.21556 0.0
C344 C 0.58131 0.47325 0.24276 0.0
C345 C 0.5731 0.44378 0.25345 0.0
C346 C 0.55615 0.41672 0.23637 0.0
C347 C 0.54776 0.4191 0.20935 0.0
C348 C 0.5364 0.46839 0.16145 0.0
C349 C 0.50296 0.45266 0.15636 0.0
C350 C 0.48767 0.46933 0.14921 0.0
C351 C 0.50544 0.50245 0.14747 0.0
C352 C 0.53931 0.51818 0.15197 0.0
C353 C 0.5547 0.50127 0.15861 0.0
C354 C 0.43634 0.57695 0.09491 0.0
C355 C 0.43369 0.60374 0.08943 0.0
C356 C 0.43041 0.6114 0.06275 0.0
C357 C 0.42895 0.59243 0.04052 0.0
C358 C 0.43152 0.56578 0.04533 0.0
C359 C 0.43478 0.55791 0.07226 0.0
C360 C 0.43798 0.58809 0.14445 0.0
C361 C 0.46661 0.6173 0.14903 0.0
C362 C 0.46581 0.64135 0.16402 0.0
C363 C 0.43665 0.6363 0.17536 0.0
C364 C 0.4089 0.60607 0.17284 0.0
C365 C 0.40958 0.58227 0.15742 0.0
C366 C 0.45422 0.55161 0.12901 0.0
C367 C 0.43993 0.52439 0.14464 0.0
C368 C 0.45676 0.509 0.15101 0.0
C369 C 0.48836 0.52015 0.1415 0.0
C370 C 0.50301 0.54798 0.12621 0.0
C371 C 0.48625 0.56378 0.12028 0.0
Mn372 Mn 0.6275 0.38824 0.40004 0.0
Mn373 Mn 0.6702 0.46746 0.40691 0.0
C374 C 0.61367 0.41327 0.43321 0.0
C375 C 0.62002 0.33893 0.41066 0.0
C376 C 0.62207 0.43228 0.36005 0.0
O377 O 0.66921 0.40078 0.37955 0.0
O378 O 0.69807 0.45292 0.38992 0.0
C379 C 0.72052 0.47616 0.44764 0.0
N380 N 0.69536 0.48016 0.44029 0.0
C381 C 0.70074 0.50867 0.48245 0.0
C382 C 0.7269 0.50512 0.49037 0.0
C383 C 0.73675 0.48869 0.47292 0.0
C384 C 0.6856 0.4958 0.45697 0.0
H385 H 0.72812 0.4635 0.43433 0.0
C386 C 0.69535 0.42768 0.37924 0.0
O387 O 0.60789 0.34312 0.3883 0.0
O388 O 0.63721 0.3636 0.42642 0.0
N389 N 0.64578 0.48407 0.42355 0.0
C390 C 0.61955 0.48464 0.41323 0.0
C391 C 0.60605 0.49938 0.42856 0.0
C392 C 0.61978 0.51354 0.45423 0.0
C393 C 0.64692 0.51286 0.46432 0.0
C394 C 0.65934 0.49788 0.44811 0.0
H395 H 0.60892 0.47384 0.3935 0.0
O396 O 0.59261 0.38491 0.42462 0.0
O397 O 0.64197 0.42585 0.42211 0.0
O398 O 0.61156 0.40463 0.36894 0.0
O399 O 0.64481 0.45712 0.37201 0.0
C400 C 0.66195 0.52622 0.48993 0.0
C401 C 0.68884 0.52413 0.49899 0.0
H402 H 0.73937 0.5146 0.50991 0.0
H403 H 0.75676 0.48564 0.47897 0.0
H404 H 0.58509 0.49978 0.42064 0.0
H405 H 0.60921 0.52474 0.46606 0.0
H406 H 0.65285 0.53792 0.50293 0.0
H407 H 0.70001 0.53424 0.51884 0.0
Mn408 Mn 0.27542 0.65915 0.55422 0.0
Mn409 Mn 0.23113 0.5799 0.54642 0.0
C410 C 0.23312 0.63629 0.52261 0.0
C411 C 0.31971 0.70788 0.54306 0.0
C412 C 0.22296 0.61542 0.59403 0.0
O413 O 0.30418 0.64503 0.57225 0.0
O414 O 0.27318 0.59234 0.56542 0.0
C415 C 0.27305 0.57115 0.50738 0.0
N416 N 0.24375 0.56769 0.51353 0.0
C417 C 0.22099 0.54221 0.46976 0.0
C418 C 0.25085 0.54529 0.46305 0.0
C419 C 0.27701 0.5599 0.48192 0.0
C420 C 0.21844 0.55372 0.4955 0.0
H421 H 0.29326 0.58245 0.52179 0.0
C422 C 0.29898 0.61705 0.57448 0.0
O423 O 0.30506 0.70396 0.5662 0.0
O424 O 0.30912 0.68333 0.52683 0.0
N425 N 0.19017 0.56481 0.52805 0.0
C426 C 0.16318 0.5642 0.53748 0.0
C427 C 0.13506 0.55105 0.52077 0.0
C428 C 0.13493 0.53853 0.49463 0.0
C429 C 0.16285 0.539 0.48555 0.0
C430 C 0.19007 0.55218 0.50319 0.0
H431 H 0.16319 0.57391 0.55749 0.0
O432 O 0.24342 0.66462 0.53221 0.0
O433 O 0.24793 0.62219 0.53182 0.0
O434 O 0.24451 0.64287 0.58659 0.0
O435 O 0.21594 0.59027 0.58042 0.0
C436 C 0.16483 0.52718 0.45958 0.0
C437 C 0.19387 0.52877 0.45169 0.0
H438 H 0.25407 0.53684 0.44336 0.0
H439 H 0.30019 0.56255 0.47683 0.0
H440 H 0.11359 0.55073 0.52794 0.0
H441 H 0.11329 0.52867 0.4817 0.0
H442 H 0.14421 0.51698 0.44544 0.0
H443 H 0.19518 0.51984 0.43159 0.0
Mn444 Mn 0.6292 0.27803 0.72233 0.0
Mn445 Mn 0.66676 0.23613 0.71629 0.0
C446 C 0.61129 0.23759 0.68979 0.0
C447 C 0.62499 0.32152 0.71013 0.0
C448 C 0.62132 0.22785 0.76272 0.0
O449 O 0.67245 0.30576 0.74244 0.0
O450 O 0.69705 0.27786 0.73408 0.0
C451 C 0.71688 0.27541 0.67643 0.0
N452 N 0.69116 0.24708 0.68337 0.0
C453 C 0.69369 0.22286 0.64092 0.0
C454 C 0.72055 0.25164 0.63353 0.0
C455 C 0.73209 0.27807 0.65132 0.0
C456 C 0.67964 0.2216 0.66628 0.0
H457 H 0.72562 0.29587 0.68987 0.0
C458 C 0.69715 0.3023 0.74371 0.0
O459 O 0.61299 0.30695 0.73283 0.0
O460 O 0.63991 0.3112 0.69504 0.0
N461 N 0.64012 0.19559 0.69892 0.0
C462 C 0.61333 0.16986 0.70867 0.0
C463 C 0.59813 0.1417 0.6929 0.0
C464 C 0.61072 0.14024 0.66737 0.0
C465 C 0.63846 0.16696 0.65787 0.0
C466 C 0.65264 0.19432 0.67453 0.0
H467 H 0.60353 0.17083 0.72827 0.0
O468 O 0.592 0.24713 0.69817 0.0
O469 O 0.64016 0.25195 0.70086 0.0
O470 O 0.61331 0.24734 0.75412 0.0
O471 O 0.64163 0.22258 0.75044 0.0
C472 C 0.65243 0.16758 0.63242 0.0
C473 C 0.68002 0.19551 0.62395 0.0
H474 H 0.73222 0.25383 0.61411 0.0
H475 H 0.75258 0.30046 0.64562 0.0
H476 H 0.57671 0.12119 0.70037 0.0
H477 H 0.59882 0.11854 0.65519 0.0
H478 H 0.64195 0.14679 0.61906 0.0
H479 H 0.69034 0.19579 0.60421 0.0
Mn480 Mn 0.38824 0.65491 0.90416 0.0
Mn481 Mn 0.34636 0.57556 0.90864 0.0
C482 C 0.4036 0.63045 0.93597 0.0
C483 C 0.39566 0.7042 0.91673 0.0
C484 C 0.39402 0.60986 0.86354 0.0
O485 O 0.34585 0.64231 0.88393 0.0
O486 O 0.31913 0.58962 0.88947 0.0
C487 C 0.29587 0.56967 0.94665 0.0
N488 N 0.32035 0.56428 0.94062 0.0
C489 C 0.31446 0.53846 0.98348 0.0
C490 C 0.28901 0.54353 0.99005 0.0
C491 C 0.27971 0.55924 0.97157 0.0
C492 C 0.3295 0.54918 0.95826 0.0
H493 H 0.2888 0.58194 0.93259 0.0
C494 C 0.32089 0.61483 0.88065 0.0
O495 O 0.40728 0.70006 0.8941 0.0
O496 O 0.37952 0.67968 0.93173 0.0
N497 N 0.36972 0.55885 0.92696 0.0
C498 C 0.3958 0.55728 0.91817 0.0
C499 C 0.40859 0.54286 0.93458 0.0
C500 C 0.39448 0.53021 0.95983 0.0
C501 C 0.3675 0.53187 0.96834 0.0
C502 C 0.35552 0.54613 0.95094 0.0
H503 H 0.407 0.5673 0.89895 0.0
O504 O 0.42425 0.65868 0.92814 0.0
O505 O 0.37469 0.61758 0.92501 0.0
O506 O 0.40256 0.63774 0.87204 0.0
O507 O 0.37301 0.58508 0.87558 0.0
C508 C 0.35242 0.52047 0.99364 0.0
C509 C 0.32594 0.52379 1.00122 0.0
H510 H 0.27664 0.53572 0.00934 0.0
H511 H 0.26023 0.56342 0.97658 0.0
H512 H 0.4295 0.54178 0.92791 0.0
H513 H 0.40473 0.51953 0.97263 0.0
H514 H 0.36128 0.5095 0.00759 0.0
H515 H 0.31483 0.51532 0.02088 0.0
Mn516 Mn 0.74895 0.39314 0.0655 0.0
Mn517 Mn 0.78987 0.35405 0.06856 0.0
C518 C 0.7924 0.40989 0.09569 0.0
C519 C 0.7076 0.40147 0.0803 0.0
C520 C 0.79759 0.39796 0.0227 0.0
O521 O 0.71754 0.35073 0.04689 0.0
O522 O 0.74631 0.32617 0.05141 0.0
C523 C 0.74929 0.30588 0.10864 0.0
N524 N 0.77873 0.33002 0.10119 0.0
C525 C 0.80402 0.32635 0.14275 0.0
C526 C 0.774 0.3013 0.1508 0.0
C527 C 0.74651 0.29107 0.13368 0.0
C528 C 0.80534 0.34005 0.1175 0.0
H529 H 0.72807 0.29805 0.09559 0.0
C530 C 0.72104 0.32682 0.04355 0.0
O531 O 0.72056 0.41076 0.05647 0.0
O532 O 0.71753 0.38603 0.09476 0.0
N533 N 0.83227 0.37843 0.08493 0.0
C534 C 0.85889 0.40421 0.07502 0.0
C535 C 0.88819 0.41813 0.0902 0.0
C536 C 0.88985 0.40532 0.11528 0.0
C537 C 0.86221 0.37862 0.12493 0.0
C538 C 0.83373 0.36564 0.10884 0.0
H539 H 0.8577 0.41422 0.05583 0.0
O540 O 0.78341 0.42937 0.08778 0.0
O541 O 0.77586 0.38137 0.08548 0.0
O542 O 0.77824 0.40635 0.03199 0.0
O543 O 0.80346 0.37844 0.03461 0.0
C544 C 0.86162 0.36474 0.15012 0.0
C545 C 0.83253 0.33867 0.15907 0.0
H546 H 0.77171 0.28996 0.17017 0.0
H547 H 0.72323 0.27188 0.13982 0.0
H548 H 0.90939 0.4388 0.08266 0.0
H549 H 0.91241 0.41632 0.12706 0.0
H550 H 0.88329 0.37423 0.16297 0.0
H551 H 0.83226 0.32856 0.1787 0.0
Mn552 Mn 0.38399 0.76914 0.23315 0.0
Mn553 Mn 0.46523 0.81035 0.24101 0.0
C554 C 0.4083 0.81094 0.2645 0.0
C555 C 0.33365 0.72673 0.24504 0.0
C556 C 0.42934 0.81603 0.19171 0.0
O557 O 0.39834 0.74029 0.21567 0.0
O558 O 0.45168 0.76718 0.22689 0.0
C559 C 0.47278 0.7748 0.28606 0.0
N560 N 0.47784 0.80254 0.27597 0.0
C561 C 0.50609 0.83075 0.31742 0.0
C562 C 0.50183 0.80261 0.328 0.0
C563 C 0.48491 0.77448 0.31232 0.0
C564 C 0.49357 0.82964 0.29108 0.0
H565 H 0.4593 0.75305 0.27427 0.0
C566 C 0.42625 0.74274 0.21698 0.0
O567 O 0.33778 0.74037 0.22162 0.0
O568 O 0.359 0.73713 0.26103 0.0
N569 N 0.48105 0.85231 0.25505 0.0
C570 C 0.48079 0.87685 0.24277 0.0
C571 C 0.49504 0.90633 0.25648 0.0
C572 C 0.50949 0.91031 0.28257 0.0
C573 C 0.50966 0.88478 0.29471 0.0
C574 C 0.49523 0.856 0.28002 0.0
H575 H 0.46969 0.87394 0.22275 0.0
O576 O 0.37919 0.80127 0.25517 0.0
O577 O 0.42198 0.79588 0.25505 0.0
O578 O 0.40079 0.79853 0.20057 0.0
O579 O 0.45487 0.82074 0.20455 0.0
C580 C 0.5232 0.88664 0.32095 0.0
C581 C 0.52154 0.85968 0.33224 0.0
H582 H 0.51097 0.80223 0.34832 0.0
H583 H 0.48109 0.75257 0.3205 0.0
H584 H 0.49474 0.9259 0.24699 0.0
H585 H 0.52022 0.93302 0.29317 0.0
H586 H 0.53455 0.9086 0.33279 0.0
H587 H 0.53165 0.86129 0.35258 0.0
C588 C 0.24215 0.68013 0.25192 0.0
C589 C 0.23793 0.6633 0.27607 0.0
C590 C 0.27308 0.69927 0.24114 0.0
C591 C 0.301 0.70266 0.25434 0.0
H592 H 0.22145 0.67908 0.24166 0.0
H593 H 0.27518 0.71254 0.22299 0.0
S594 S 0.30279 0.66223 0.31743 0.0
N595 N 0.26406 0.65018 0.31223 0.0
N596 N 0.32208 0.68602 0.29205 0.0
C597 C 0.29693 0.68496 0.27792 0.0
C598 C 0.26544 0.66532 0.28876 0.0
C599 C 0.62418 0.27534 0.45027 0.0
C600 C 0.59827 0.24723 0.43894 0.0
C601 C 0.63144 0.30479 0.44052 0.0
C602 C 0.61332 0.3073 0.41883 0.0
H603 H 0.63833 0.27461 0.46742 0.0
H604 H 0.65115 0.32577 0.45039 0.0
S605 S 0.54431 0.24045 0.38095 0.0
N606 N 0.55535 0.22347 0.40417 0.0
N607 N 0.5691 0.2788 0.38551 0.0
C608 C 0.588 0.27926 0.40669 0.0
C609 C 0.5804 0.24925 0.41687 0.0
C610 C 0.38172 0.63175 0.59699 0.0
C611 C 0.37419 0.60566 0.61337 0.0
C612 C 0.35727 0.63537 0.58465 0.0
C613 C 0.32433 0.61284 0.5879 0.0
H614 H 0.40675 0.64952 0.59359 0.0
H615 H 0.36426 0.65579 0.57219 0.0
S616 S 0.2914 0.54135 0.63006 0.0
N617 N 0.33113 0.55786 0.63338 0.0
N618 N 0.28531 0.56412 0.60935 0.0
C619 C 0.31638 0.58664 0.60414 0.0
C620 C 0.34125 0.58317 0.61705 0.0
C621 C 0.75619 0.37759 0.78354 0.0
C622 C 0.78628 0.37946 0.78029 0.0
C623 C 0.72761 0.35259 0.77179 0.0
C624 C 0.72783 0.32825 0.75639 0.0
H625 H 0.75461 0.39542 0.79559 0.0
H626 H 0.70513 0.35231 0.77502 0.0
S627 S 0.80088 0.32309 0.74065 0.0
N628 N 0.81493 0.3557 0.75954 0.0
N629 N 0.76135 0.30827 0.73806 0.0
C630 C 0.75792 0.32994 0.75293 0.0
C631 C 0.78704 0.35559 0.76472 0.0
C632 C 0.43548 0.7933 0.9255 0.0
C633 C 0.41626 0.79662 0.94536 0.0
C634 C 0.42806 0.76332 0.91562 0.0
C635 C 0.40157 0.73565 0.92572 0.0
H636 H 0.45642 0.814 0.91762 0.0
H637 H 0.44371 0.76183 0.90053 0.0
S638 S 0.34381 0.73182 0.97791 0.0
N639 N 0.36958 0.76988 0.97464 0.0
N640 N 0.3558 0.71372 0.95641 0.0
C641 C 0.38208 0.73878 0.94544 0.0
C642 C 0.38938 0.76921 0.95518 0.0
C643 C 0.64534 0.42768 0.0841 0.0
C644 C 0.64175 0.42972 0.11253 0.0
C645 C 0.66664 0.41845 0.07373 0.0
C646 C 0.6844 0.41016 0.09145 0.0
H647 H 0.63183 0.43356 0.06985 0.0
H648 H 0.66904 0.41759 0.05171 0.0
S649 S 0.68258 0.41082 0.16763 0.0
N650 N 0.65715 0.4224 0.15817 0.0
N651 N 0.69662 0.40452 0.13891 0.0
C652 C 0.68054 0.41172 0.11993 0.0
C653 C 0.65937 0.42164 0.13041 0.0
C654 C 0.36886 0.79663 0.53485 0.0
C655 C 0.39064 0.8001 0.51419 0.0
C656 C 0.34697 0.76679 0.54505 0.0
C657 C 0.34563 0.73936 0.53447 0.0
H658 H 0.36849 0.81707 0.5429 0.0
H659 H 0.33016 0.76511 0.56057 0.0
S660 S 0.39817 0.73609 0.48064 0.0
N661 N 0.41023 0.77392 0.48406 0.0
N662 N 0.36883 0.71786 0.5028 0.0
C663 C 0.36775 0.74268 0.51417 0.0
C664 C 0.39032 0.77306 0.50414 0.0
C665 C 0.58911 0.37448 0.70199 0.0
C666 C 0.60685 0.39384 0.68028 0.0
C667 C 0.5959 0.35189 0.71226 0.0
C668 C 0.62028 0.3475 0.70084 0.0
H669 H 0.56979 0.37674 0.711 0.0
H670 H 0.58132 0.33719 0.72875 0.0
S671 S 0.67355 0.39238 0.64355 0.0
N672 N 0.64983 0.40731 0.64775 0.0
N673 N 0.66255 0.36499 0.66684 0.0
C674 C 0.63838 0.36703 0.6793 0.0
C675 C 0.63167 0.39014 0.66907 0.0
C676 C 0.25513 0.63144 0.85778 0.0
C677 C 0.23515 0.60541 0.84031 0.0
C678 C 0.28315 0.63464 0.87039 0.0
C679 C 0.29201 0.61172 0.86631 0.0
H680 H 0.24891 0.64936 0.862 0.0
H681 H 0.29761 0.65489 0.88389 0.0
S682 S 0.24992 0.54065 0.82067 0.0
N683 N 0.22787 0.55758 0.818 0.0
N684 N 0.27975 0.56304 0.84254 0.0
C685 C 0.27255 0.58578 0.84871 0.0
C686 C 0.24432 0.58275 0.83553 0.0
C687 C 0.63685 0.25929 0.02382 0.0
C688 C 0.64336 0.2405 0.00591 0.0
C689 C 0.66201 0.2876 0.0355 0.0
C690 C 0.69461 0.29795 0.02994 0.0
H691 H 0.61211 0.25189 0.0291 0.0
H692 H 0.65593 0.30108 0.04945 0.0
S693 S 0.72468 0.25946 0.98231 0.0
N694 N 0.68492 0.23596 0.98145 0.0
N695 N 0.73207 0.28847 0.00411 0.0
C696 C 0.70147 0.27975 0.01176 0.0
C697 C 0.67591 0.25121 0.9996 0.0
C698 C 0.40771 0.66658 0.17986 0.0
C699 C 0.43417 0.66304 0.18727 0.0
C700 C 0.40529 0.69223 0.18962 0.0
C701 C 0.42945 0.71572 0.20697 0.0
H702 H 0.3889 0.64969 0.16592 0.0
H703 H 0.38451 0.69385 0.18312 0.0
S704 S 0.50293 0.71658 0.23372 0.0
N705 N 0.48414 0.68428 0.21422 0.0
N706 N 0.48046 0.73311 0.23178 0.0
C707 C 0.45603 0.71237 0.21467 0.0
C708 C 0.45819 0.68595 0.20502 0.0
C709 C 0.78363 0.45943 0.3617 0.0
C710 C 0.78207 0.43794 0.34155 0.0
C711 C 0.75552 0.45574 0.37376 0.0
C712 C 0.72458 0.43025 0.36634 0.0
H713 H 0.80682 0.47932 0.36829 0.0
H714 H 0.7582 0.47307 0.38914 0.0
S715 S 0.70706 0.36801 0.31366 0.0
N716 N 0.74691 0.3908 0.31391 0.0
N717 N 0.6941 0.38343 0.33705 0.0
C718 C 0.72264 0.40842 0.3463 0.0
C719 C 0.75133 0.41235 0.33382 0.0
C720 C 0.16499 0.61798 0.47211 0.0
C721 C 0.1763 0.612 0.44753 0.0
C722 C 0.18308 0.62493 0.49669 0.0
C723 C 0.21274 0.62562 0.4975 0.0
H724 H 0.14231 0.61784 0.4722 0.0
H725 H 0.17397 0.63002 0.51514 0.0
S726 S 0.25495 0.61595 0.43816 0.0
N727 N 0.22015 0.60969 0.42514 0.0
N728 N 0.2542 0.62302 0.47131 0.0
C729 C 0.22456 0.62024 0.47303 0.0
C730 C 0.2062 0.61315 0.44806 0.0
C731 C 0.57068 0.17483 0.63342 0.0
C732 C 0.59101 0.18923 0.61103 0.0
C733 C 0.57722 0.19047 0.65912 0.0
C734 C 0.60459 0.22064 0.66324 0.0
H735 H 0.54982 0.15126 0.6311 0.0
H736 H 0.56115 0.17877 0.67594 0.0
S737 S 0.66196 0.27057 0.61033 0.0
N738 N 0.63725 0.23689 0.59405 0.0
N739 N 0.64967 0.26586 0.64233 0.0
C740 C 0.62426 0.23572 0.64084 0.0
C741 C 0.61753 0.22004 0.61476 0.0
C742 C 0.43853 0.62891 0.79594 0.0
C743 C 0.43327 0.59949 0.78654 0.0
C744 C 0.42639 0.63212 0.82107 0.0
C745 C 0.40839 0.60601 0.83785 0.0
H746 H 0.45132 0.6495 0.78339 0.0
H747 H 0.43054 0.65519 0.82698 0.0
S748 S 0.39074 0.52427 0.82357 0.0
N749 N 0.41112 0.54425 0.79671 0.0
N750 N 0.38782 0.54991 0.84376 0.0
C751 C 0.40385 0.57656 0.82899 0.0
C752 C 0.41636 0.5734 0.80341 0.0
C753 C 0.84056 0.45608 0.96605 0.0
C754 C 0.84651 0.43818 0.94665 0.0
C755 C 0.82453 0.44289 0.99053 0.0
C756 C 0.8142 0.41141 0.99669 0.0
H757 H 0.84843 0.48055 0.96234 0.0
H758 H 0.82056 0.45757 0.00487 0.0
S759 S 0.82149 0.35368 0.9521 0.0
N760 N 0.83879 0.38659 0.9347 0.0
N761 N 0.80974 0.36224 0.98105 0.0
C762 C 0.81989 0.39321 0.97754 0.0
C763 C 0.83579 0.40648 0.95246 0.0
C764 C 0.41447 0.85746 0.13319 0.0
C765 C 0.43838 0.86201 0.11418 0.0
C766 C 0.41172 0.84257 0.15814 0.0
C767 C 0.43307 0.83203 0.16534 0.0
H768 H 0.39764 0.86545 0.12875 0.0
H769 H 0.39286 0.83954 0.17202 0.0
S770 S 0.49894 0.83671 0.12261 0.0
N771 N 0.48292 0.85329 0.104 0.0
N772 N 0.47849 0.8265 0.15136 0.0
C773 C 0.45729 0.83666 0.14677 0.0
C774 C 0.45979 0.85136 0.12113 0.0
C775 C 0.61604 0.46314 0.29065 0.0
C776 C 0.5841 0.44152 0.28162 0.0
C777 C 0.62779 0.46044 0.31631 0.0
C778 C 0.60822 0.43577 0.33389 0.0
H779 H 0.63249 0.48184 0.27746 0.0
H780 H 0.65276 0.47726 0.32203 0.0
S781 S 0.52175 0.37505 0.32148 0.0
N782 N 0.53219 0.39632 0.29355 0.0
N783 N 0.55461 0.39066 0.34138 0.0
C784 C 0.57598 0.41449 0.32551 0.0
C785 C 0.56386 0.41749 0.29951 0.0
C786 C 0.43502 0.83161 0.33859 0.0
C787 C 0.43837 0.86152 0.34245 0.0
C788 C 0.42561 0.81578 0.31313 0.0
C789 C 0.41941 0.82927 0.29047 0.0
H790 H 0.43932 0.8201 0.35548 0.0
H791 H 0.42293 0.79261 0.31122 0.0
S792 S 0.42401 0.90654 0.2894 0.0
N793 N 0.43462 0.90398 0.32119 0.0
N794 N 0.41595 0.87344 0.27335 0.0
C795 C 0.42185 0.8587 0.29398 0.0
C796 C 0.43173 0.87509 0.31994 0.0
C797 C 0.57698 0.4402 0.48834 0.0
C798 C 0.59768 0.44578 0.51113 0.0
C799 C 0.58227 0.42982 0.46292 0.0
C800 C 0.60868 0.42524 0.45947 0.0
H801 H 0.55673 0.44405 0.49016 0.0
H802 H 0.56588 0.42572 0.4458 0.0
S803 S 0.66635 0.4312 0.51374 0.0
N804 N 0.64324 0.44241 0.52924 0.0
N805 N 0.65313 0.42311 0.48155 0.0
C806 C 0.62869 0.42953 0.4823 0.0
C807 C 0.62331 0.43992 0.50808 0.0
C808 C 0.16205 0.57884 0.65135 0.0
C809 C 0.17208 0.60389 0.67049 0.0
C810 C 0.17829 0.58294 0.62659 0.0
C811 C 0.20539 0.61227 0.61997 0.0
H812 H 0.14147 0.55583 0.65556 0.0
H813 H 0.16955 0.56281 0.61262 0.0
S814 S 0.24209 0.68511 0.66396 0.0
N815 N 0.21126 0.65878 0.68169 0.0
N816 N 0.24168 0.66674 0.63521 0.0
C817 C 0.21555 0.63758 0.63901 0.0
C818 C 0.19896 0.63334 0.66421 0.0
C819 C 0.59786 0.16856 0.81983 0.0
C820 C 0.58131 0.17741 0.83824 0.0
C821 C 0.61023 0.1847 0.79539 0.0
C822 C 0.60668 0.21047 0.78832 0.0
H823 H 0.60137 0.14904 0.82441 0.0
H824 H 0.62284 0.1769 0.78201 0.0
S825 S 0.56619 0.24369 0.83027 0.0
N826 N 0.56267 0.21403 0.84823 0.0
N827 N 0.58554 0.2442 0.80228 0.0
C828 C 0.58992 0.21939 0.80656 0.0
C829 C 0.57735 0.20293 0.83147 0.0
C830 C 0.39492 0.60297 0.00867 0.0
C831 C 0.42216 0.59973 0.0128 0.0
C832 C 0.389 0.61246 0.98349 0.0
C833 C 0.40993 0.6188 0.96147 0.0
H834 H 0.37818 0.59839 0.02516 0.0
H835 H 0.36802 0.61519 0.98132 0.0
S836 S 0.48526 0.61519 0.96196 0.0
N837 N 0.47066 0.60426 0.993 0.0
N838 N 0.4596 0.6226 0.9455 0.0
C839 C 0.4375 0.61616 0.96533 0.0
C840 C 0.44341 0.60615 0.99097 0.0
C841 C 0.81781 0.40416 0.16784 0.0
C842 C 0.84757 0.43244 0.17157 0.0
C843 C 0.80042 0.39693 0.14296 0.0
C844 C 0.81259 0.4173 0.12073 0.0
H845 H 0.80738 0.38797 0.18457 0.0
H846 H 0.77699 0.37545 0.14125 0.0
S847 S 0.88949 0.49397 0.11981 0.0
N848 N 0.88858 0.48088 0.15099 0.0
N849 N 0.85581 0.46696 0.10395 0.0
C850 C 0.84225 0.44562 0.12412 0.0
C851 C 0.8599 0.45315 0.14956 0.0
loop_
_geom_bond_atom_site_label_1
_geom_bond_atom_site_label_2
_geom_bond_distance
_geom_bond_site_symmetry_2
_ccdc_geom_bond_type
H0 C27 0.929 . S
N1 C26 1.433 . S
N1 C32 1.435 . S
N1 C38 1.423 . S
H2 C28 0.930 . S
H3 C31 0.931 . S
H4 C30 0.929 . S
H5 C33 0.930 . S
H6 C34 0.932 . S
H7 C37 0.929 . S
H8 C36 0.931 . S
H9 C39 0.929 . S
H10 C43 0.932 . S
H11 C40 0.931 . S
H12 C42 0.929 . S
H13 C45 0.929 . S
H14 C46 0.930 . S
H15 C48 0.929 . S
H16 C49 0.931 . S
H17 C51 0.930 . S
H18 C52 0.932 . S
H19 C54 0.931 . S
H20 C55 0.929 . S
H21 C57 0.929 . S
H22 C58 0.931 . S
H23 C60 0.929 . S
N24 C44 1.433 . S
N24 C50 1.435 . S
N24 C56 1.423 . S
H25 C61 0.932 . S
C26 N1 1.433 . S
C26 C27 1.363 . S
C26 C31 1.370 . S
C27 H0 0.929 . S
C27 C26 1.363 . S
C27 C28 1.385 . S
C28 H2 0.930 . S
C28 C27 1.385 . S
C28 C29 1.357 . S
C29 C28 1.357 . S
C29 C30 1.406 . S
C30 H4 0.929 . S
C30 C29 1.406 . S
C30 C31 1.391 . S
C31 H3 0.931 . S
C31 C26 1.370 . S
C31 C30 1.391 . S
C32 N1 1.435 . S
C32 C33 1.358 . S
C32 C37 1.371 . S
C33 H5 0.930 . S
C33 C32 1.358 . S
C33 C34 1.405 . S
C34 H6 0.932 . S
C34 C33 1.405 . S
C34 C35 1.383 . S
C35 C34 1.383 . S
C35 C36 1.393 . S
C36 H8 0.931 . S
C36 C35 1.393 . S
C36 C37 1.382 . S
C37 H7 0.929 . S
C37 C32 1.371 . S
C37 C36 1.382 . S
C38 N1 1.423 . S
C38 C39 1.362 . S
C38 C43 1.388 . S
C39 H9 0.929 . S
C39 C38 1.362 . S
C39 C40 1.376 . S
C40 H11 0.931 . S
C40 C39 1.376 . S
C40 C41 1.396 . S
C41 C40 1.396 . S
C41 C42 1.348 . S
C41 C59 1.472 1_455 S
C42 H12 0.929 . S
C42 C41 1.348 . S
C42 C43 1.443 . S
C43 H10 0.932 . S
C43 C38 1.388 . S
C43 C42 1.443 . S
C44 N24 1.433 . S
C44 C45 1.363 . S
C44 C49 1.370 . S
C45 H13 0.929 . S
C45 C44 1.363 . S
C45 C46 1.385 . S
C46 H14 0.930 . S
C46 C45 1.385 . S
C46 C47 1.357 . S
C47 C46 1.357 . S
C47 C48 1.406 . S
C48 H15 0.929 . S
C48 C47 1.406 . S
C48 C49 1.391 . S
C49 H16 0.931 . S
C49 C44 1.370 . S
C49 C48 1.391 . S
C50 N24 1.435 . S
C50 C51 1.358 . S
C50 C55 1.371 . S
C51 H17 0.930 . S
C51 C50 1.358 . S
C51 C52 1.405 . S
C52 H18 0.932 . S
C52 C51 1.405 . S
C52 C53 1.383 . S
C53 C52 1.383 . S
C53 C54 1.393 . S
C54 H19 0.931 . S
C54 C53 1.393 . S
C54 C55 1.382 . S
C55 H20 0.929 . S
C55 C50 1.371 . S
C55 C54 1.382 . S
C56 N24 1.423 . S
C56 C57 1.362 . S
C56 C61 1.388 . S
C57 H21 0.929 . S
C57 C56 1.362 . S
C57 C58 1.376 . S
C58 H22 0.931 . S
C58 C57 1.376 . S
C58 C59 1.396 . S
C59 C41 1.472 1_655 S
C59 C58 1.396 . S
C59 C60 1.348 . S
C60 H23 0.929 . S
C60 C59 1.348 . S
C60 C61 1.443 . S
C61 H25 0.932 . S
C61 C56 1.388 . S
C61 C60 1.443 . S
H62 C89 0.929 . S
N63 C88 1.433 . S
N63 C94 1.435 . S
N63 C100 1.423 . S
H64 C90 0.930 . S
H65 C93 0.931 . S
H66 C92 0.929 . S
H67 C95 0.930 . S
H68 C96 0.932 . S
H69 C99 0.929 . S
H70 C98 0.931 . S
H71 C101 0.929 . S
H72 C105 0.932 . S
H73 C102 0.931 . S
H74 C104 0.929 1_545 S
H75 C107 0.929 . S
H76 C108 0.930 . S
H77 C110 0.929 . S
H78 C111 0.931 . S
H79 C113 0.930 . S
H80 C114 0.932 . S
H81 C116 0.931 . S
H82 C117 0.929 . S
H83 C119 0.929 . S
H84 C120 0.931 . S
H85 C122 0.929 . S
N86 C106 1.433 . S
N86 C112 1.435 . S
N86 C118 1.423 . S
H87 C123 0.932 . S
C88 N63 1.433 . S
C88 C89 1.363 . S
C88 C93 1.370 . S
C89 H62 0.929 . S
C89 C88 1.363 . S
C89 C90 1.385 . S
C90 H64 0.930 . S
C90 C89 1.385 . S
C90 C91 1.357 . S
C91 C90 1.357 . S
C91 C92 1.406 . S
C92 H66 0.929 . S
C92 C91 1.406 . S
C92 C93 1.391 . S
C93 H65 0.931 . S
C93 C88 1.370 . S
C93 C92 1.391 . S
C94 N63 1.435 . S
C94 C95 1.358 . S
C94 C99 1.371 . S
C95 H67 0.930 . S
C95 C94 1.358 . S
C95 C96 1.405 . S
C96 H68 0.932 . S
C96 C95 1.405 . S
C96 C97 1.383 . S
C97 C96 1.383 . S
C97 C98 1.393 . S
C98 H70 0.931 . S
C98 C97 1.393 . S
C98 C99 1.382 . S
C99 H69 0.929 . S
C99 C94 1.371 . S
C99 C98 1.382 . S
C100 N63 1.423 . S
C100 C101 1.362 . S
C100 C105 1.388 . S
C101 H71 0.929 . S
C101 C100 1.362 . S
C101 C102 1.376 . S
C102 H73 0.931 . S
C102 C101 1.376 . S
C102 C103 1.396 1_565 S
C103 C102 1.396 1_545 S
C103 C104 1.348 1_545 S
C103 C121 1.472 . S
C104 H74 0.929 1_565 S
C104 C103 1.348 1_565 S
C104 C105 1.443 . S
C105 H72 0.932 . S
C105 C100 1.388 . S
C105 C104 1.443 . S
C106 N86 1.433 . S
C106 C107 1.363 . S
C106 C111 1.370 . S
C107 H75 0.929 . S
C107 C106 1.363 . S
C107 C108 1.385 . S
C108 H76 0.930 . S
C108 C107 1.385 . S
C108 C109 1.357 . S
C109 C108 1.357 . S
C109 C110 1.406 . S
C110 H77 0.929 . S
C110 C109 1.406 . S
C110 C111 1.391 . S
C111 H78 0.931 . S
C111 C106 1.370 . S
C111 C110 1.391 . S
C112 N86 1.435 . S
C112 C113 1.358 . S
C112 C117 1.371 . S
C113 H79 0.930 . S
C113 C112 1.358 . S
C113 C114 1.405 . S
C114 H80 0.932 . S
C114 C113 1.405 . S
C114 C115 1.383 . S
C115 C114 1.383 . S
C115 C116 1.393 . S
C116 H81 0.931 . S
C116 C115 1.393 . S
C116 C117 1.382 . S
C117 H82 0.929 . S
C117 C112 1.371 . S
C117 C116 1.382 . S
C118 N86 1.423 . S
C118 C119 1.362 . S
C118 C123 1.388 . S
C119 H83 0.929 . S
C119 C118 1.362 . S
C119 C120 1.376 . S
C120 H84 0.931 . S
C120 C119 1.376 . S
C120 C121 1.396 . S
C121 C103 1.472 . S
C121 C120 1.396 . S
C121 C122 1.348 . S
C122 H85 0.929 . S
C122 C121 1.348 . S
C122 C123 1.443 . S
C123 H87 0.932 . S
C123 C118 1.388 . S
C123 C122 1.443 . S
H124 C151 0.929 . S
N125 C150 1.433 . S
N125 C156 1.435 . S
N125 C162 1.423 . S
H126 C152 0.930 . S
H127 C155 0.931 . S
H128 C154 0.929 . S
H129 C157 0.930 . S
H130 C158 0.932 . S
H131 C161 0.929 . S
H132 C160 0.931 . S
H133 C163 0.929 . S
H134 C167 0.932 . S
H135 C164 0.931 . S
H136 C166 0.929 . S
H137 C169 0.929 . S
H138 C170 0.930 . S
H139 C172 0.929 . S
H140 C173 0.931 . S
H141 C175 0.930 . S
H142 C176 0.932 . S
H143 C178 0.931 . S
H144 C179 0.929 . S
H145 C181 0.929 . S
H146 C182 0.931 . S
H147 C184 0.929 . S
N148 C168 1.433 . S
N148 C174 1.435 . S
N148 C180 1.423 . S
H149 C185 0.932 . S
C150 N125 1.433 . S
C150 C151 1.363 . S
C150 C155 1.370 . S
C151 H124 0.929 . S
C151 C150 1.363 . S
C151 C152 1.385 . S
C152 H126 0.930 . S
C152 C151 1.385 . S
C152 C153 1.357 . S
C153 C152 1.357 . S
C153 C154 1.406 . S
C154 H128 0.929 . S
C154 C153 1.406 . S
C154 C155 1.391 . S
C155 H127 0.931 . S
C155 C150 1.370 . S
C155 C154 1.391 . S
C156 N125 1.435 . S
C156 C157 1.358 . S
C156 C161 1.371 . S
C157 H129 0.930 . S
C157 C156 1.358 . S
C157 C158 1.405 . S
C158 H130 0.932 . S
C158 C157 1.405 . S
C158 C159 1.383 . S
C159 C158 1.383 . S
C159 C160 1.393 . S
C160 H132 0.931 . S
C160 C159 1.393 . S
C160 C161 1.382 . S
C161 H131 0.929 . S
C161 C156 1.371 . S
C161 C160 1.382 . S
C162 N125 1.423 . S
C162 C163 1.362 . S
C162 C167 1.388 . S
C163 H133 0.929 . S
C163 C162 1.362 . S
C163 C164 1.376 . S
C164 H135 0.931 . S
C164 C163 1.376 . S
C164 C165 1.396 . S
C165 C164 1.396 . S
C165 C166 1.348 . S
C165 C183 1.472 . S
C166 H136 0.929 . S
C166 C165 1.348 . S
C166 C167 1.443 . S
C167 H134 0.932 . S
C167 C162 1.388 . S
C167 C166 1.443 . S
C168 N148 1.433 . S
C168 C169 1.363 . S
C168 C173 1.370 . S
C169 H137 0.929 . S
C169 C168 1.363 . S
C169 C170 1.385 . S
C170 H138 0.930 . S
C170 C169 1.385 . S
C170 C171 1.357 . S
C171 C170 1.357 . S
C171 C172 1.406 . S
C172 H139 0.929 . S
C172 C171 1.406 . S
C172 C173 1.391 . S
C173 H140 0.931 . S
C173 C168 1.370 . S
C173 C172 1.391 . S
C174 N148 1.435 . S
C174 C175 1.358 . S
C174 C179 1.371 . S
C175 H141 0.930 . S
C175 C174 1.358 . S
C175 C176 1.405 . S
C176 H142 0.932 . S
C176 C175 1.405 . S
C176 C177 1.383 . S
C177 C176 1.383 . S
C177 C178 1.393 . S
C178 H143 0.931 . S
C178 C177 1.393 . S
C178 C179 1.382 . S
C179 H144 0.929 . S
C179 C174 1.371 . S
C179 C178 1.382 . S
C180 N148 1.423 . S
C180 C181 1.362 . S
C180 C185 1.388 . S
C181 H145 0.929 . S
C181 C180 1.362 . S
C181 C182 1.376 . S
C182 H146 0.931 . S
C182 C181 1.376 . S
C182 C183 1.396 . S
C183 C165 1.472 . S
C183 C182 1.396 . S
C183 C184 1.348 . S
C184 H147 0.929 . S
C184 C183 1.348 . S
C184 C185 1.443 . S
C185 H149 0.932 . S
C185 C180 1.388 . S
C185 C184 1.443 . S
H186 C213 0.929 . S
N187 C212 1.433 . S
N187 C218 1.435 . S
N187 C224 1.423 . S
H188 C214 0.930 . S
H189 C217 0.931 . S
H190 C216 0.929 . S
H191 C219 0.930 . S
H192 C220 0.932 . S
H193 C223 0.929 . S
H194 C222 0.931 . S
H195 C225 0.929 . S
H196 C229 0.932 . S
H197 C226 0.931 . S
H198 C228 0.929 . S
H199 C231 0.929 . S
H200 C232 0.930 . S
H201 C234 0.929 . S
H202 C235 0.931 . S
H203 C237 0.930 . S
H204 C238 0.932 . S
H205 C240 0.931 . S
H206 C241 0.929 . S
H207 C243 0.929 . S
H208 C244 0.931 . S
H209 C246 0.929 . S
N210 C230 1.433 . S
N210 C236 1.435 . S
N210 C242 1.423 . S
H211 C247 0.932 . S
C212 N187 1.433 . S
C212 C213 1.363 . S
C212 C217 1.370 . S
C213 H186 0.929 . S
C213 C212 1.363 . S
C213 C214 1.385 . S
C214 H188 0.930 . S
C214 C213 1.385 . S
C214 C215 1.357 . S
C215 C214 1.357 . S
C215 C216 1.406 . S
C216 H190 0.929 . S
C216 C215 1.406 . S
C216 C217 1.391 . S
C217 H189 0.931 . S
C217 C212 1.370 . S
C217 C216 1.391 . S
C218 N187 1.435 . S
C218 C219 1.358 . S
C218 C223 1.371 . S
C219 H191 0.930 . S
C219 C218 1.358 . S
C219 C220 1.405 . S
C220 H192 0.932 . S
C220 C219 1.405 . S
C220 C221 1.383 . S
C221 C220 1.383 . S
C221 C222 1.393 . S
C222 H194 0.931 . S
C222 C221 1.393 . S
C222 C223 1.382 . S
C223 H193 0.929 . S
C223 C218 1.371 . S
C223 C222 1.382 . S
C224 N187 1.423 . S
C224 C225 1.362 . S
C224 C229 1.388 . S
C225 H195 0.929 . S
C225 C224 1.362 . S
C225 C226 1.376 . S
C226 H197 0.931 . S
C226 C225 1.376 . S
C226 C227 1.396 . S
C227 C226 1.396 . S
C227 C228 1.348 . S
C227 C245 1.472 1_455 S
C228 H198 0.929 . S
C228 C227 1.348 . S
C228 C229 1.443 . S
C229 H196 0.932 . S
C229 C224 1.388 . S
C229 C228 1.443 . S
C230 N210 1.433 . S
C230 C231 1.363 . S
C230 C235 1.370 . S
C231 H199 0.929 . S
C231 C230 1.363 . S
C231 C232 1.385 . S
C232 H200 0.930 . S
C232 C231 1.385 . S
C232 C233 1.357 . S
C233 C232 1.357 . S
C233 C234 1.406 . S
C234 H201 0.929 . S
C234 C233 1.406 . S
C234 C235 1.391 . S
C235 H202 0.931 . S
C235 C230 1.370 . S
C235 C234 1.391 . S
C236 N210 1.435 . S
C236 C237 1.358 . S
C236 C241 1.371 . S
C237 H203 0.930 . S
C237 C236 1.358 . S
C237 C238 1.405 . S
C238 H204 0.932 . S
C238 C237 1.405 . S
C238 C239 1.383 . S
C239 C238 1.383 . S
C239 C240 1.393 . S
C240 H205 0.931 . S
C240 C239 1.393 . S
C240 C241 1.382 . S
C241 H206 0.929 . S
C241 C236 1.371 . S
C241 C240 1.382 . S
C242 N210 1.423 . S
C242 C243 1.362 . S
C242 C247 1.388 . S
C243 H207 0.929 . S
C243 C242 1.362 . S
C243 C244 1.376 . S
C244 H208 0.931 . S
C244 C243 1.376 . S
C244 C245 1.396 . S
C245 C227 1.472 1_655 S
C245 C244 1.396 . S
C245 C246 1.348 . S
C246 H209 0.929 . S
C246 C245 1.348 . S
C246 C247 1.443 . S
C247 H211 0.932 . S
C247 C242 1.388 . S
C247 C246 1.443 . S
H248 C275 0.929 . S
N249 C274 1.433 . S
N249 C280 1.435 . S
N249 C286 1.423 . S
H250 C276 0.930 . S
H251 C279 0.931 . S
H252 C278 0.929 . S
H253 C281 0.930 . S
H254 C282 0.932 . S
H255 C285 0.929 . S
H256 C284 0.931 . S
H257 C287 0.929 . S
H258 C291 0.932 . S
H259 C288 0.931 . S
H260 C290 0.929 . S
H261 C293 0.929 . S
H262 C294 0.930 . S
H263 C296 0.929 . S
H264 C297 0.931 . S
H265 C299 0.922 1_554 S
H266 C300 0.932 . S
H267 C302 0.931 . S
H268 C303 0.929 . S
H269 C305 0.929 . S
H270 C306 0.931 1_544 S
H271 C308 0.929 . S
N272 C292 1.433 . S
N272 C298 1.435 1_554 S
N272 C304 1.423 1_554 S
H273 C309 0.932 . S
C274 N249 1.433 . S
C274 C275 1.363 . S
C274 C279 1.370 . S
C275 H248 0.929 . S
C275 C274 1.363 . S
C275 C276 1.385 . S
C276 H250 0.930 . S
C276 C275 1.385 . S
C276 C277 1.357 1_556 S
C277 C276 1.357 1_554 S
C277 C278 1.406 . S
C278 H252 0.929 . S
C278 C277 1.406 . S
C278 C279 1.391 1_554 S
C279 H251 0.931 . S
C279 C274 1.370 . S
C279 C278 1.391 1_556 S
C280 N249 1.435 . S
C280 C281 1.358 . S
C280 C285 1.371 . S
C281 H253 0.930 . S
C281 C280 1.358 . S
C281 C282 1.405 . S
C282 H254 0.932 . S
C282 C281 1.405 . S
C282 C283 1.383 . S
C283 C282 1.383 . S
C283 C284 1.393 . S
C284 H256 0.931 . S
C284 C283 1.393 . S
C284 C285 1.382 . S
C285 H255 0.929 . S
C285 C280 1.371 . S
C285 C284 1.382 . S
C286 N249 1.423 . S
C286 C287 1.362 . S
C286 C291 1.388 . S
C287 H257 0.929 . S
C287 C286 1.362 . S
C287 C288 1.376 . S
C288 H259 0.931 . S
C288 C287 1.376 . S
C288 C289 1.396 . S
C289 C288 1.396 . S
C289 C290 1.348 . S
C289 C307 1.472 1_545 S
C290 H260 0.929 . S
C290 C289 1.348 . S
C290 C291 1.443 . S
C291 H258 0.932 . S
C291 C286 1.388 . S
C291 C290 1.443 . S
C292 N272 1.433 . S
C292 C293 1.363 . S
C292 C297 1.370 . S
C293 H261 0.929 . S
C293 C292 1.363 . S
C293 C294 1.385 . S
C294 H262 0.930 . S
C294 C293 1.385 . S
C294 C295 1.357 . S
C295 C294 1.357 . S
C295 C296 1.406 . S
C296 H263 0.929 . S
C296 C295 1.406 . S
C296 C297 1.391 . S
C297 H264 0.931 . S
C297 C292 1.370 . S
C297 C296 1.391 . S
C298 N272 1.435 1_556 S
C298 C299 1.361 . S
C298 C303 1.371 . S
C299 H265 0.922 1_556 S
C299 C298 1.361 . S
C299 C300 1.410 . S
C300 H266 0.932 . S
C300 C299 1.410 . S
C300 C301 1.383 . S
C301 C300 1.383 . S
C301 C302 1.393 . S
C302 H267 0.931 . S
C302 C301 1.393 . S
C302 C303 1.382 . S
C303 H268 0.929 . S
C303 C298 1.371 . S
C303 C302 1.382 . S
C304 N272 1.423 1_556 S
C304 C305 1.362 1_556 S
C304 C309 1.388 . S
C305 H269 0.929 . S
C305 C304 1.362 1_554 S
C305 C306 1.376 1_554 S
C306 H270 0.931 1_566 S
C306 C305 1.376 1_556 S
C306 C307 1.396 . S
C307 C289 1.472 1_565 S
C307 C306 1.396 . S
C307 C308 1.348 . S
C308 H271 0.929 . S
C308 C307 1.348 . S
C308 C309 1.443 . S
C309 H273 0.932 . S
C309 C304 1.388 . S
C309 C308 1.443 . S
H310 C337 0.929 . S
N311 C336 1.433 . S
N311 C342 1.435 . S
N311 C348 1.423 . S
H312 C338 0.930 . S
H313 C341 0.931 . S
H314 C340 0.929 . S
H315 C343 0.930 . S
H316 C344 0.932 . S
H317 C347 0.929 . S
H318 C346 0.931 . S
H319 C349 0.929 . S
H320 C353 0.932 . S
H321 C350 0.931 . S
H322 C352 0.929 . S
H323 C355 0.929 . S
H324 C356 0.930 . S
H325 C358 0.929 . S
H326 C359 0.931 . S
H327 C361 0.930 . S
H328 C362 0.932 . S
H329 C364 0.931 . S
H330 C365 0.929 . S
H331 C367 0.929 . S
H332 C368 0.931 . S
H333 C370 0.929 . S
N334 C354 1.433 . S
N334 C360 1.435 . S
N334 C366 1.423 . S
H335 C371 0.932 . S
C336 N311 1.433 . S
C336 C337 1.363 . S
C336 C341 1.370 . S
C337 H310 0.929 . S
C337 C336 1.363 . S
C337 C338 1.385 . S
C338 H312 0.930 . S
C338 C337 1.385 . S
C338 C339 1.357 . S
C339 C338 1.357 . S
C339 C340 1.406 . S
C340 H314 0.929 . S
C340 C339 1.406 . S
C340 C341 1.391 . S
C341 H313 0.931 . S
C341 C336 1.370 . S
C341 C340 1.391 . S
C342 N311 1.435 . S
C342 C343 1.358 . S
C342 C347 1.371 . S
C343 H315 0.930 . S
C343 C342 1.358 . S
C343 C344 1.405 . S
C344 H316 0.932 . S
C344 C343 1.405 . S
C344 C345 1.383 . S
C345 C344 1.383 . S
C345 C346 1.393 . S
C346 H318 0.931 . S
C346 C345 1.393 . S
C346 C347 1.382 . S
C347 H317 0.929 . S
C347 C342 1.371 . S
C347 C346 1.382 . S
C348 N311 1.423 . S
C348 C349 1.362 . S
C348 C353 1.388 . S
C349 H319 0.929 . S
C349 C348 1.362 . S
C349 C350 1.376 . S
C350 H321 0.931 . S
C350 C349 1.376 . S
C350 C351 1.396 . S
C351 C350 1.396 . S
C351 C352 1.348 . S
C351 C369 1.472 . S
C352 H322 0.929 . S
C352 C351 1.348 . S
C352 C353 1.443 . S
C353 H320 0.932 . S
C353 C348 1.388 . S
C353 C352 1.443 . S
C354 N334 1.433 . S
C354 C355 1.363 . S
C354 C359 1.370 . S
C355 H323 0.929 . S
C355 C354 1.363 . S
C355 C356 1.385 . S
C356 H324 0.930 . S
C356 C355 1.385 . S
C356 C357 1.357 . S
C357 C356 1.357 . S
C357 C358 1.406 . S
C358 H325 0.929 . S
C358 C357 1.406 . S
C358 C359 1.391 . S
C359 H326 0.931 . S
C359 C354 1.370 . S
C359 C358 1.391 . S
C360 N334 1.435 . S
C360 C361 1.358 . S
C360 C365 1.371 . S
C361 H327 0.930 . S
C361 C360 1.358 . S
C361 C362 1.405 . S
C362 H328 0.932 . S
C362 C361 1.405 . S
C362 C363 1.383 . S
C363 C362 1.383 . S
C363 C364 1.393 . S
C364 H329 0.931 . S
C364 C363 1.393 . S
C364 C365 1.382 . S
C365 H330 0.929 . S
C365 C360 1.371 . S
C365 C364 1.382 . S
C366 N334 1.423 . S
C366 C367 1.362 . S
C366 C371 1.388 . S
C367 H331 0.929 . S
C367 C366 1.362 . S
C367 C368 1.376 . S
C368 H332 0.931 . S
C368 C367 1.376 . S
C368 C369 1.396 . S
C369 C351 1.472 . S
C369 C368 1.396 . S
C369 C370 1.348 . S
C370 H333 0.929 . S
C370 C369 1.348 . S
C370 C371 1.443 . S
C371 H335 0.932 . S
C371 C366 1.388 . S
C371 C370 1.443 . S
Mn372 O377 2.095 . S
Mn372 O387 2.162 . S
Mn372 O388 2.297 . S
Mn372 O396 2.385 . S
Mn372 O397 2.209 . S
Mn372 O398 2.094 . S
Mn373 O378 2.121 . S
Mn373 N380 2.257 . S
Mn373 N389 2.282 . S
Mn373 O397 2.215 . S
Mn373 O399 2.117 . S
C374 O396 1.234 . S
C374 O397 1.283 . S
C375 O387 1.281 . S
C375 O388 1.236 . S
C376 O398 1.240 . S
C376 O399 1.264 . S
O377 Mn372 2.095 . S
O377 C386 1.250 . S
O378 Mn373 2.121 . S
O378 C386 1.258 . S
C379 N380 1.326 . S
C379 C383 1.460 . S
C379 H385 0.929 . S
N380 Mn373 2.257 . S
N380 C379 1.326 . S
N380 C384 1.362 . S
C381 C382 1.258 . S
C381 C384 1.431 . S
C381 C401 1.449 . S
C382 C381 1.258 . S
C382 C383 1.477 . S
C382 H402 0.931 . S
C383 C379 1.460 . S
C383 C382 1.477 . S
C383 H403 0.930 . S
C384 N380 1.362 . S
C384 C381 1.431 . S
C384 C394 1.476 . S
H385 C379 0.929 . S
C386 O377 1.250 . S
C386 O378 1.258 . S
O387 Mn372 2.162 . S
O387 C375 1.281 . S
O388 Mn372 2.297 . S
O388 C375 1.236 . S
N389 Mn373 2.282 . S
N389 C390 1.328 . S
N389 C394 1.318 . S
C390 N389 1.328 . S
C390 C391 1.457 . S
C390 H395 0.929 . S
C391 C390 1.457 . S
C391 C392 1.291 . S
C391 H404 0.931 . S
C392 C391 1.291 . S
C392 C393 1.373 . S
C392 H405 0.929 . S
C393 C392 1.373 . S
C393 C394 1.396 . S
C393 C400 1.403 . S
C394 C384 1.476 . S
C394 N389 1.318 . S
C394 C393 1.396 . S
H395 C390 0.929 . S
O396 Mn372 2.385 . S
O396 C374 1.234 . S
O397 Mn372 2.209 . S
O397 Mn373 2.215 . S
O397 C374 1.283 . S
O398 Mn372 2.094 . S
O398 C376 1.240 . S
O399 Mn373 2.117 . S
O399 C376 1.264 . S
C400 C393 1.403 . S
C400 C401 1.399 . S
C400 H406 0.929 . S
C401 C381 1.449 . S
C401 C400 1.399 . S
C401 H407 0.930 . S
H402 C382 0.931 . S
H403 C383 0.930 . S
H404 C391 0.931 . S
H405 C392 0.929 . S
H406 C400 0.929 . S
H407 C401 0.930 . S
Mn408 O413 2.095 . S
Mn408 O423 2.162 . S
Mn408 O424 2.297 . S
Mn408 O432 2.385 . S
Mn408 O433 2.209 . S
Mn408 O434 2.094 . S
Mn409 O414 2.121 . S
Mn409 N416 2.257 . S
Mn409 N425 2.282 . S
Mn409 O433 2.215 . S
Mn409 O435 2.117 . S
C410 O432 1.234 . S
C410 O433 1.283 . S
C411 O423 1.281 . S
C411 O424 1.236 . S
C412 O434 1.240 . S
C412 O435 1.264 . S
O413 Mn408 2.095 . S
O413 C422 1.250 . S
O414 Mn409 2.121 . S
O414 C422 1.258 . S
C415 N416 1.326 . S
C415 C419 1.460 . S
C415 H421 0.929 . S
N416 Mn409 2.257 . S
N416 C415 1.326 . S
N416 C420 1.362 . S
C417 C418 1.258 . S
C417 C420 1.431 . S
C417 C437 1.449 . S
C418 C417 1.258 . S
C418 C419 1.477 . S
C418 H438 0.931 . S
C419 C415 1.460 . S
C419 C418 1.477 . S
C419 H439 0.930 . S
C420 N416 1.362 . S
C420 C417 1.431 . S
C420 C430 1.476 . S
H421 C415 0.929 . S
C422 O413 1.250 . S
C422 O414 1.258 . S
O423 Mn408 2.162 . S
O423 C411 1.281 . S
O424 Mn408 2.297 . S
O424 C411 1.236 . S
N425 Mn409 2.282 . S
N425 C426 1.328 . S
N425 C430 1.318 . S
C426 N425 1.328 . S
C426 C427 1.457 . S
C426 H431 0.929 . S
C427 C426 1.457 . S
C427 C428 1.291 . S
C427 H440 0.931 . S
C428 C427 1.291 . S
C428 C429 1.373 . S
C428 H441 0.929 . S
C429 C428 1.373 . S
C429 C430 1.396 . S
C429 C436 1.403 . S
C430 C420 1.476 . S
C430 N425 1.318 . S
C430 C429 1.396 . S
H431 C426 0.929 . S
O432 Mn408 2.385 . S
O432 C410 1.234 . S
O433 Mn408 2.209 . S
O433 Mn409 2.215 . S
O433 C410 1.283 . S
O434 Mn408 2.094 . S
O434 C412 1.240 . S
O435 Mn409 2.117 . S
O435 C412 1.264 . S
C436 C429 1.403 . S
C436 C437 1.399 . S
C436 H442 0.929 . S
C437 C417 1.449 . S
C437 C436 1.399 . S
C437 H443 0.930 . S
H438 C418 0.931 . S
H439 C419 0.930 . S
H440 C427 0.931 . S
H441 C428 0.929 . S
H442 C436 0.929 . S
H443 C437 0.930 . S
Mn444 O449 2.095 . S
Mn444 O459 2.162 . S
Mn444 O460 2.297 . S
Mn444 O468 2.385 . S
Mn444 O469 2.209 . S
Mn444 O470 2.094 . S
Mn445 O450 2.121 . S
Mn445 N452 2.257 . S
Mn445 N461 2.282 . S
Mn445 O469 2.215 . S
Mn445 O471 2.117 . S
C446 O468 1.234 . S
C446 O469 1.283 . S
C447 O459 1.281 . S
C447 O460 1.236 . S
C448 O470 1.240 . S
C448 O471 1.264 . S
O449 Mn444 2.095 . S
O449 C458 1.250 . S
O450 Mn445 2.121 . S
O450 C458 1.258 . S
C451 N452 1.326 . S
C451 C455 1.460 . S
C451 H457 0.929 . S
N452 Mn445 2.257 . S
N452 C451 1.326 . S
N452 C456 1.362 . S
C453 C454 1.258 . S
C453 C456 1.431 . S
C453 C473 1.449 . S
C454 C453 1.258 . S
C454 C455 1.477 . S
C454 H474 0.931 . S
C455 C451 1.460 . S
C455 C454 1.477 . S
C455 H475 0.930 . S
C456 N452 1.362 . S
C456 C453 1.431 . S
C456 C466 1.476 . S
H457 C451 0.929 . S
C458 O449 1.250 . S
C458 O450 1.258 . S
O459 Mn444 2.162 . S
O459 C447 1.281 . S
O460 Mn444 2.297 . S
O460 C447 1.236 . S
N461 Mn445 2.282 . S
N461 C462 1.328 . S
N461 C466 1.318 . S
C462 N461 1.328 . S
C462 C463 1.457 . S
C462 H467 0.929 . S
C463 C462 1.457 . S
C463 C464 1.291 . S
C463 H476 0.931 . S
C464 C463 1.291 . S
C464 C465 1.373 . S
C464 H477 0.929 . S
C465 C464 1.373 . S
C465 C466 1.396 . S
C465 C472 1.403 . S
C466 C456 1.476 . S
C466 N461 1.318 . S
C466 C465 1.396 . S
H467 C462 0.929 . S
O468 Mn444 2.385 . S
O468 C446 1.234 . S
O469 Mn444 2.209 . S
O469 Mn445 2.215 . S
O469 C446 1.283 . S
O470 Mn444 2.094 . S
O470 C448 1.240 . S
O471 Mn445 2.117 . S
O471 C448 1.264 . S
C472 C465 1.403 . S
C472 C473 1.399 . S
C472 H478 0.929 . S
C473 C453 1.449 . S
C473 C472 1.399 . S
C473 H479 0.930 . S
H474 C454 0.931 . S
H475 C455 0.930 . S
H476 C463 0.931 . S
H477 C464 0.929 . S
H478 C472 0.929 . S
H479 C473 0.930 . S
Mn480 O485 2.095 . S
Mn480 O495 2.162 . S
Mn480 O496 2.297 . S
Mn480 O504 2.385 . S
Mn480 O505 2.209 . S
Mn480 O506 2.094 . S
Mn481 O486 2.121 . S
Mn481 N488 2.257 . S
Mn481 N497 2.282 . S
Mn481 O505 2.215 . S
Mn481 O507 2.117 . S
C482 O504 1.234 . S
C482 O505 1.283 . S
C483 O495 1.281 . S
C483 O496 1.236 . S
C484 O506 1.240 . S
C484 O507 1.264 . S
O485 Mn480 2.095 . S
O485 C494 1.250 . S
O486 Mn481 2.121 . S
O486 C494 1.258 . S
C487 N488 1.326 . S
C487 C491 1.460 . S
C487 H493 0.929 . S
N488 Mn481 2.257 . S
N488 C487 1.326 . S
N488 C492 1.362 . S
C489 C490 1.258 . S
C489 C492 1.431 . S
C489 C509 1.449 . S
C490 C489 1.258 . S
C490 C491 1.477 . S
C490 H510 0.931 . S
C491 C487 1.460 . S
C491 C490 1.477 . S
C491 H511 0.930 . S
C492 N488 1.362 . S
C492 C489 1.431 . S
C492 C502 1.476 . S
H493 C487 0.929 . S
C494 O485 1.250 . S
C494 O486 1.258 . S
O495 Mn480 2.162 . S
O495 C483 1.281 . S
O496 Mn480 2.297 . S
O496 C483 1.236 . S
N497 Mn481 2.282 . S
N497 C498 1.328 . S
N497 C502 1.318 . S
C498 N497 1.328 . S
C498 C499 1.457 . S
C498 H503 0.929 . S
C499 C498 1.457 . S
C499 C500 1.291 . S
C499 H512 0.931 . S
C500 C499 1.291 . S
C500 C501 1.373 . S
C500 H513 0.929 . S
C501 C500 1.373 . S
C501 C502 1.396 . S
C501 C508 1.403 . S
C502 C492 1.476 . S
C502 N497 1.318 . S
C502 C501 1.396 . S
H503 C498 0.929 . S
O504 Mn480 2.385 . S
O504 C482 1.234 . S
O505 Mn480 2.209 . S
O505 Mn481 2.215 . S
O505 C482 1.283 . S
O506 Mn480 2.094 . S
O506 C484 1.240 . S
O507 Mn481 2.117 . S
O507 C484 1.264 . S
C508 C501 1.403 . S
C508 C509 1.399 . S
C508 H514 0.929 . S
C509 C489 1.449 . S
C509 C508 1.399 . S
C509 H515 0.930 . S
H510 C490 0.931 . S
H511 C491 0.930 . S
H512 C499 0.931 . S
H513 C500 0.929 . S
H514 C508 0.929 . S
H515 C509 0.930 . S
Mn516 O521 2.095 . S
Mn516 O531 2.162 . S
Mn516 O532 2.297 . S
Mn516 O540 2.385 . S
Mn516 O541 2.209 . S
Mn516 O542 2.094 . S
Mn517 O522 2.121 . S
Mn517 N524 2.257 . S
Mn517 N533 2.282 . S
Mn517 O541 2.215 . S
Mn517 O543 2.117 . S
C518 O540 1.234 . S
C518 O541 1.283 . S
C519 O531 1.281 . S
C519 O532 1.236 . S
C520 O542 1.240 . S
C520 O543 1.264 . S
O521 Mn516 2.095 . S
O521 C530 1.250 . S
O522 Mn517 2.121 . S
O522 C530 1.258 . S
C523 N524 1.326 . S
C523 C527 1.460 . S
C523 H529 0.929 . S
N524 Mn517 2.257 . S
N524 C523 1.326 . S
N524 C528 1.362 . S
C525 C526 1.258 . S
C525 C528 1.431 . S
C525 C545 1.449 . S
C526 C525 1.258 . S
C526 C527 1.477 . S
C526 H546 0.931 . S
C527 C523 1.460 . S
C527 C526 1.477 . S
C527 H547 0.930 . S
C528 N524 1.362 . S
C528 C525 1.431 . S
C528 C538 1.476 . S
H529 C523 0.929 . S
C530 O521 1.250 . S
C530 O522 1.258 . S
O531 Mn516 2.162 . S
O531 C519 1.281 . S
O532 Mn516 2.297 . S
O532 C519 1.236 . S
N533 Mn517 2.282 . S
N533 C534 1.328 . S
N533 C538 1.318 . S
C534 N533 1.328 . S
C534 C535 1.457 . S
C534 H539 0.929 . S
C535 C534 1.457 . S
C535 C536 1.291 . S
C535 H548 0.931 . S
C536 C535 1.291 . S
C536 C537 1.373 . S
C536 H549 0.929 . S
C537 C536 1.373 . S
C537 C538 1.396 . S
C537 C544 1.403 . S
C538 C528 1.476 . S
C538 N533 1.318 . S
C538 C537 1.396 . S
H539 C534 0.929 . S
O540 Mn516 2.385 . S
O540 C518 1.234 . S
O541 Mn516 2.209 . S
O541 Mn517 2.215 . S
O541 C518 1.283 . S
O542 Mn516 2.094 . S
O542 C520 1.240 . S
O543 Mn517 2.117 . S
O543 C520 1.264 . S
C544 C537 1.403 . S
C544 C545 1.399 . S
C544 H550 0.929 . S
C545 C525 1.449 . S
C545 C544 1.399 . S
C545 H551 0.930 . S
H546 C526 0.931 . S
H547 C527 0.930 . S
H548 C535 0.931 . S
H549 C536 0.929 . S
H550 C544 0.929 . S
H551 C545 0.930 . S
Mn552 O557 2.095 . S
Mn552 O567 2.162 . S
Mn552 O568 2.297 . S
Mn552 O576 2.385 . S
Mn552 O577 2.209 . S
Mn552 O578 2.094 . S
Mn553 O558 2.121 . S
Mn553 N560 2.257 . S
Mn553 N569 2.282 . S
Mn553 O577 2.215 . S
Mn553 O579 2.117 . S
C554 O576 1.234 . S
C554 O577 1.283 . S
C555 O567 1.281 . S
C555 O568 1.236 . S
C556 O578 1.240 . S
C556 O579 1.264 . S
O557 Mn552 2.095 . S
O557 C566 1.250 . S
O558 Mn553 2.121 . S
O558 C566 1.258 . S
C559 N560 1.326 . S
C559 C563 1.460 . S
C559 H565 0.929 . S
N560 Mn553 2.257 . S
N560 C559 1.326 . S
N560 C564 1.362 . S
C561 C562 1.258 . S
C561 C564 1.431 . S
C561 C581 1.449 . S
C562 C561 1.258 . S
C562 C563 1.477 . S
C562 H582 0.931 . S
C563 C559 1.460 . S
C563 C562 1.477 . S
C563 H583 0.930 . S
C564 N560 1.362 . S
C564 C561 1.431 . S
C564 C574 1.476 . S
H565 C559 0.929 . S
C566 O557 1.250 . S
C566 O558 1.258 . S
O567 Mn552 2.162 . S
O567 C555 1.281 . S
O568 Mn552 2.297 . S
O568 C555 1.236 . S
N569 Mn553 2.282 . S
N569 C570 1.328 . S
N569 C574 1.318 . S
C570 N569 1.328 . S
C570 C571 1.457 . S
C570 H575 0.929 . S
C571 C570 1.457 . S
C571 C572 1.291 . S
C571 H584 0.931 . S
C572 C571 1.291 . S
C572 C573 1.373 . S
C572 H585 0.929 . S
C573 C572 1.373 . S
C573 C574 1.396 . S
C573 C580 1.403 . S
C574 C564 1.476 . S
C574 N569 1.318 . S
C574 C573 1.396 . S
H575 C570 0.929 . S
O576 Mn552 2.385 . S
O576 C554 1.234 . S
O577 Mn552 2.209 . S
O577 Mn553 2.215 . S
O577 C554 1.283 . S
O578 Mn552 2.094 . S
O578 C556 1.240 . S
O579 Mn553 2.117 . S
O579 C556 1.264 . S
C580 C573 1.403 . S
C580 C581 1.399 . S
C580 H586 0.929 . S
C581 C561 1.449 . S
C581 C580 1.399 . S
C581 H587 0.930 . S
H582 C562 0.931 . S
H583 C563 0.930 . S
H584 C571 0.931 . S
H585 C572 0.929 . S
H586 C580 0.929 . S
H587 C581 0.930 . S
C588 C589 1.369 . S
C588 C590 1.419 . S
C588 H592 0.930 . S
C589 C588 1.369 . S
C589 C598 1.429 . S
C590 C588 1.419 . S
C590 C591 1.363 . S
C590 H593 0.929 . S
C591 C590 1.363 . S
C591 C597 1.428 . S
H592 C588 0.930 . S
H593 C590 0.929 . S
S594 N595 1.613 . S
S594 N596 1.610 . S
N595 S594 1.613 . S
N595 C598 1.350 . S
N596 S594 1.610 . S
N596 C597 1.351 . S
C597 C591 1.428 . S
C597 N596 1.351 . S
C597 C598 1.434 . S
C598 C589 1.429 . S
C598 N595 1.350 . S
C598 C597 1.434 . S
C599 C600 1.369 . S
C599 C601 1.419 . S
C599 H603 0.930 . S
C600 C599 1.369 . S
C600 C609 1.429 . S
C601 C599 1.419 . S
C601 C602 1.363 . S
C601 H604 0.929 . S
C602 C601 1.363 . S
C602 C608 1.428 . S
H603 C599 0.930 . S
H604 C601 0.929 . S
S605 N606 1.613 . S
S605 N607 1.610 . S
N606 S605 1.613 . S
N606 C609 1.350 . S
N607 S605 1.610 . S
N607 C608 1.351 . S
C608 C602 1.428 . S
C608 N607 1.351 . S
C608 C609 1.434 . S
C609 C600 1.429 . S
C609 N606 1.350 . S
C609 C608 1.434 . S
C610 C611 1.369 . S
C610 C612 1.419 . S
C610 H614 0.930 . S
C611 C610 1.369 . S
C611 C620 1.429 . S
C612 C610 1.419 . S
C612 C613 1.363 . S
C612 H615 0.929 . S
C613 C612 1.363 . S
C613 C619 1.428 . S
H614 C610 0.930 . S
H615 C612 0.929 . S
S616 N617 1.613 . S
S616 N618 1.610 . S
N617 S616 1.613 . S
N617 C620 1.350 . S
N618 S616 1.610 . S
N618 C619 1.351 . S
C619 C613 1.428 . S
C619 N618 1.351 . S
C619 C620 1.434 . S
C620 C611 1.429 . S
C620 N617 1.350 . S
C620 C619 1.434 . S
C621 C622 1.369 . S
C621 C623 1.419 . S
C621 H625 0.930 . S
C622 C621 1.369 . S
C622 C631 1.429 . S
C623 C621 1.419 . S
C623 C624 1.363 . S
C623 H626 0.929 . S
C624 C623 1.363 . S
C624 C630 1.428 . S
H625 C621 0.930 . S
H626 C623 0.929 . S
S627 N628 1.613 . S
S627 N629 1.610 . S
N628 S627 1.613 . S
N628 C631 1.350 . S
N629 S627 1.610 . S
N629 C630 1.351 . S
C630 C624 1.428 . S
C630 N629 1.351 . S
C630 C631 1.434 . S
C631 C622 1.429 . S
C631 N628 1.350 . S
C631 C630 1.434 . S
C632 C633 1.369 . S
C632 C634 1.419 . S
C632 H636 0.930 . S
C633 C632 1.369 . S
C633 C642 1.429 . S
C634 C632 1.419 . S
C634 C635 1.363 . S
C634 H637 0.929 . S
C635 C634 1.363 . S
C635 C641 1.428 . S
H636 C632 0.930 . S
H637 C634 0.929 . S
S638 N639 1.613 . S
S638 N640 1.610 . S
N639 S638 1.613 . S
N639 C642 1.350 . S
N640 S638 1.610 . S
N640 C641 1.351 . S
C641 C635 1.428 . S
C641 N640 1.351 . S
C641 C642 1.434 . S
C642 C633 1.429 . S
C642 N639 1.350 . S
C642 C641 1.434 . S
C643 C644 1.369 . S
C643 C645 1.419 . S
C643 H647 0.930 . S
C644 C643 1.369 . S
C644 C653 1.429 . S
C645 C643 1.419 . S
C645 C646 1.363 . S
C645 H648 0.929 . S
C646 C645 1.363 . S
C646 C652 1.428 . S
H647 C643 0.930 . S
H648 C645 0.929 . S
S649 N650 1.613 . S
S649 N651 1.610 . S
N650 S649 1.613 . S
N650 C653 1.350 . S
N651 S649 1.610 . S
N651 C652 1.351 . S
C652 C646 1.428 . S
C652 N651 1.351 . S
C652 C653 1.434 . S
C653 C644 1.429 . S
C653 N650 1.350 . S
C653 C652 1.434 . S
C654 C655 1.369 . S
C654 C656 1.419 . S
C654 H658 0.930 . S
C655 C654 1.369 . S
C655 C664 1.429 . S
C656 C654 1.419 . S
C656 C657 1.363 . S
C656 H659 0.929 . S
C657 C656 1.363 . S
C657 C663 1.428 . S
H658 C654 0.930 . S
H659 C656 0.929 . S
S660 N661 1.613 . S
S660 N662 1.610 . S
N661 S660 1.613 . S
N661 C664 1.350 . S
N662 S660 1.610 . S
N662 C663 1.351 . S
C663 C657 1.428 . S
C663 N662 1.351 . S
C663 C664 1.434 . S
C664 C655 1.429 . S
C664 N661 1.350 . S
C664 C663 1.434 . S
C665 C666 1.369 . S
C665 C667 1.419 . S
C665 H669 0.930 . S
C666 C665 1.369 . S
C666 C675 1.429 . S
C667 C665 1.419 . S
C667 C668 1.363 . S
C667 H670 0.929 . S
C668 C667 1.363 . S
C668 C674 1.428 . S
H669 C665 0.930 . S
H670 C667 0.929 . S
S671 N672 1.613 . S
S671 N673 1.610 . S
N672 S671 1.613 . S
N672 C675 1.350 . S
N673 S671 1.610 . S
N673 C674 1.351 . S
C674 C668 1.428 . S
C674 N673 1.351 . S
C674 C675 1.434 . S
C675 C666 1.429 . S
C675 N672 1.350 . S
C675 C674 1.434 . S
C676 C677 1.369 . S
C676 C678 1.419 . S
C676 H680 0.930 . S
C677 C676 1.369 . S
C677 C686 1.429 . S
C678 C676 1.419 . S
C678 C679 1.363 . S
C678 H681 0.929 . S
C679 C678 1.363 . S
C679 C685 1.428 . S
H680 C676 0.930 . S
H681 C678 0.929 . S
S682 N683 1.613 . S
S682 N684 1.610 . S
N683 S682 1.613 . S
N683 C686 1.350 . S
N684 S682 1.610 . S
N684 C685 1.351 . S
C685 C679 1.428 . S
C685 N684 1.351 . S
C685 C686 1.434 . S
C686 C677 1.429 . S
C686 N683 1.350 . S
C686 C685 1.434 . S
C687 C688 1.369 . S
C687 C689 1.419 . S
C687 H691 0.930 . S
C688 C687 1.369 . S
C688 C697 1.429 . S
C689 C687 1.419 . S
C689 C690 1.363 . S
C689 H692 0.929 . S
C690 C689 1.363 . S
C690 C696 1.428 . S
H691 C687 0.930 . S
H692 C689 0.929 . S
S693 N694 1.613 . S
S693 N695 1.610 . S
N694 S693 1.613 . S
N694 C697 1.350 . S
N695 S693 1.610 . S
N695 C696 1.351 . S
C696 C690 1.428 . S
C696 N695 1.351 . S
C696 C697 1.434 . S
C697 C688 1.429 . S
C697 N694 1.350 . S
C697 C696 1.434 . S
C698 C699 1.369 . S
C698 C700 1.419 . S
C698 H702 0.930 . S
C699 C698 1.369 . S
C699 C708 1.429 . S
C700 C698 1.419 . S
C700 C701 1.363 . S
C700 H703 0.929 . S
C701 C700 1.363 . S
C701 C707 1.428 . S
H702 C698 0.930 . S
H703 C700 0.929 . S
S704 N705 1.613 . S
S704 N706 1.610 . S
N705 S704 1.613 . S
N705 C708 1.350 . S
N706 S704 1.610 . S
N706 C707 1.351 . S
C707 C701 1.428 . S
C707 N706 1.351 . S
C707 C708 1.434 . S
C708 C699 1.429 . S
C708 N705 1.350 . S
C708 C707 1.434 . S
C709 C710 1.369 . S
C709 C711 1.419 . S
C709 H713 0.930 . S
C710 C709 1.369 . S
C710 C719 1.429 . S
C711 C709 1.419 . S
C711 C712 1.363 . S
C711 H714 0.929 . S
C712 C711 1.363 . S
C712 C718 1.428 . S
H713 C709 0.930 . S
H714 C711 0.929 . S
S715 N716 1.613 . S
S715 N717 1.610 . S
N716 S715 1.613 . S
N716 C719 1.350 . S
N717 S715 1.610 . S
N717 C718 1.351 . S
C718 C712 1.428 . S
C718 N717 1.351 . S
C718 C719 1.434 . S
C719 C710 1.429 . S
C719 N716 1.350 . S
C719 C718 1.434 . S
C720 C721 1.369 . S
C720 C722 1.419 . S
C720 H724 0.930 . S
C721 C720 1.369 . S
C721 C730 1.429 . S
C722 C720 1.419 . S
C722 C723 1.363 . S
C722 H725 0.929 . S
C723 C722 1.363 . S
C723 C729 1.428 . S
H724 C720 0.930 . S
H725 C722 0.929 . S
S726 N727 1.613 . S
S726 N728 1.610 . S
N727 S726 1.613 . S
N727 C730 1.350 . S
N728 S726 1.610 . S
N728 C729 1.351 . S
C729 C723 1.428 . S
C729 N728 1.351 . S
C729 C730 1.434 . S
C730 C721 1.429 . S
C730 N727 1.350 . S
C730 C729 1.434 . S
C731 C732 1.369 . S
C731 C733 1.419 . S
C731 H735 0.930 . S
C732 C731 1.369 . S
C732 C741 1.429 . S
C733 C731 1.419 . S
C733 C734 1.363 . S
C733 H736 0.929 . S
C734 C733 1.363 . S
C734 C740 1.428 . S
H735 C731 0.930 . S
H736 C733 0.929 . S
S737 N738 1.613 . S
S737 N739 1.610 . S
N738 S737 1.613 . S
N738 C741 1.350 . S
N739 S737 1.610 . S
N739 C740 1.351 . S
C740 C734 1.428 . S
C740 N739 1.351 . S
C740 C741 1.434 . S
C741 C732 1.429 . S
C741 N738 1.350 . S
C741 C740 1.434 . S
C742 C743 1.369 . S
C742 C744 1.419 . S
C742 H746 0.930 . S
C743 C742 1.369 . S
C743 C752 1.429 . S
C744 C742 1.419 . S
C744 C745 1.363 . S
C744 H747 0.929 . S
C745 C744 1.363 . S
C745 C751 1.428 . S
H746 C742 0.930 . S
H747 C744 0.929 . S
S748 N749 1.613 . S
S748 N750 1.610 . S
N749 S748 1.613 . S
N749 C752 1.350 . S
N750 S748 1.610 . S
N750 C751 1.351 . S
C751 C745 1.428 . S
C751 N750 1.351 . S
C751 C752 1.434 . S
C752 C743 1.429 . S
C752 N749 1.350 . S
C752 C751 1.434 . S
C753 C754 1.369 . S
C753 C755 1.419 . S
C753 H757 0.930 . S
C754 C753 1.369 . S
C754 C763 1.429 . S
C755 C753 1.419 . S
C755 C756 1.363 . S
C755 H758 0.929 . S
C756 C755 1.363 . S
C756 C762 1.428 . S
H757 C753 0.930 . S
H758 C755 0.929 . S
S759 N760 1.613 1_554 S
S759 N761 1.610 . S
N760 S759 1.613 1_556 S
N760 C763 1.350 . S
N761 S759 1.610 . S
N761 C762 1.351 1_554 S
C762 C756 1.428 . S
C762 N761 1.351 1_556 S
C762 C763 1.434 . S
C763 C754 1.429 . S
C763 N760 1.350 . S
C763 C762 1.434 . S
C764 C765 1.369 . S
C764 C766 1.419 . S
C764 H768 0.930 . S
C765 C764 1.369 . S
C765 C774 1.429 . S
C766 C764 1.419 . S
C766 C767 1.363 . S
C766 H769 0.929 . S
C767 C766 1.363 . S
C767 C773 1.428 . S
H768 C764 0.930 . S
H769 C766 0.929 . S
S770 N771 1.613 . S
S770 N772 1.610 . S
N771 S770 1.613 . S
N771 C774 1.350 . S
N772 S770 1.610 . S
N772 C773 1.351 . S
C773 C767 1.428 . S
C773 N772 1.351 . S
C773 C774 1.434 . S
C774 C765 1.429 . S
C774 N771 1.350 . S
C774 C773 1.434 . S
C775 C776 1.369 . S
C775 C777 1.419 . S
C775 H779 0.930 . S
C776 C775 1.369 . S
C776 C785 1.429 . S
C777 C775 1.419 . S
C777 C778 1.363 . S
C777 H780 0.929 . S
C778 C777 1.363 . S
C778 C784 1.428 . S
H779 C775 0.930 . S
H780 C777 0.929 . S
S781 N782 1.613 . S
S781 N783 1.610 . S
N782 S781 1.613 . S
N782 C785 1.350 . S
N783 S781 1.610 . S
N783 C784 1.351 . S
C784 C778 1.428 . S
C784 N783 1.351 . S
C784 C785 1.434 . S
C785 C776 1.429 . S
C785 N782 1.350 . S
C785 C784 1.434 . S
C786 C787 1.369 . S
C786 C788 1.419 . S
C786 H790 0.930 . S
C787 C786 1.369 . S
C787 C796 1.429 . S
C788 C786 1.419 . S
C788 C789 1.363 . S
C788 H791 0.929 . S
C789 C788 1.363 . S
C789 C795 1.428 . S
H790 C786 0.930 . S
H791 C788 0.929 . S
S792 N793 1.613 . S
S792 N794 1.610 . S
N793 S792 1.613 . S
N793 C796 1.350 . S
N794 S792 1.610 . S
N794 C795 1.351 . S
C795 C789 1.428 . S
C795 N794 1.351 . S
C795 C796 1.434 . S
C796 C787 1.429 . S
C796 N793 1.350 . S
C796 C795 1.434 . S
C797 C798 1.369 . S
C797 C799 1.419 . S
C797 H801 0.930 . S
C798 C797 1.369 . S
C798 C807 1.429 . S
C799 C797 1.419 . S
C799 C800 1.363 . S
C799 H802 0.929 . S
C800 C799 1.363 . S
C800 C806 1.428 . S
H801 C797 0.930 . S
H802 C799 0.929 . S
S803 N804 1.613 . S
S803 N805 1.610 . S
N804 S803 1.613 . S
N804 C807 1.350 . S
N805 S803 1.610 . S
N805 C806 1.351 . S
C806 C800 1.428 . S
C806 N805 1.351 . S
C806 C807 1.434 . S
C807 C798 1.429 . S
C807 N804 1.350 . S
C807 C806 1.434 . S
C808 C809 1.369 . S
C808 C810 1.419 . S
C808 H812 0.930 . S
C809 C808 1.369 . S
C809 C818 1.429 . S
C810 C808 1.419 . S
C810 C811 1.363 . S
C810 H813 0.929 . S
C811 C810 1.363 . S
C811 C817 1.428 . S
H812 C808 0.930 . S
H813 C810 0.929 . S
S814 N815 1.613 . S
S814 N816 1.610 . S
N815 S814 1.613 . S
N815 C818 1.350 . S
N816 S814 1.610 . S
N816 C817 1.351 . S
C817 C811 1.428 . S
C817 N816 1.351 . S
C817 C818 1.434 . S
C818 C809 1.429 . S
C818 N815 1.350 . S
C818 C817 1.434 . S
C819 C820 1.369 . S
C819 C821 1.419 . S
C819 H823 0.930 . S
C820 C819 1.369 . S
C820 C829 1.429 . S
C821 C819 1.419 . S
C821 C822 1.363 . S
C821 H824 0.929 . S
C822 C821 1.363 . S
C822 C828 1.428 . S
H823 C819 0.930 . S
H824 C821 0.929 . S
S825 N826 1.613 . S
S825 N827 1.610 . S
N826 S825 1.613 . S
N826 C829 1.350 . S
N827 S825 1.610 . S
N827 C828 1.351 . S
C828 C822 1.428 . S
C828 N827 1.351 . S
C828 C829 1.434 . S
C829 C820 1.429 . S
C829 N826 1.350 . S
C829 C828 1.434 . S
C830 C831 1.352 1_556 S
C830 C832 1.419 . S
C830 H834 0.930 . S
C831 C830 1.352 1_554 S
C831 C840 1.426 1_554 S
C832 C830 1.419 . S
C832 C833 1.363 . S
C832 H835 0.929 . S
C833 C832 1.363 . S
C833 C839 1.428 . S
H834 C830 0.930 . S
H835 C832 0.929 . S
S836 N837 1.613 . S
S836 N838 1.610 1_554 S
N837 S836 1.613 . S
N837 C840 1.350 1_554 S
N838 S836 1.610 1_556 S
N838 C839 1.351 . S
C839 C833 1.428 . S
C839 N838 1.351 . S
C839 C840 1.434 . S
C840 C831 1.426 1_556 S
C840 N837 1.350 1_556 S
C840 C839 1.434 . S
C841 C842 1.369 . S
C841 C843 1.419 . S
C841 H845 0.930 . S
C842 C841 1.369 . S
C842 C851 1.429 . S
C843 C841 1.419 . S
C843 C844 1.363 . S
C843 H846 0.929 . S
C844 C843 1.363 . S
C844 C850 1.428 . S
H845 C841 0.930 . S
H846 C843 0.929 . S
S847 N848 1.613 . S
S847 N849 1.610 . S
N848 S847 1.613 . S
N848 C851 1.350 . S
N849 S847 1.610 . S
N849 C850 1.351 . S
C850 C844 1.428 . S
C850 N849 1.351 . S
C850 C851 1.434 . S
C851 C842 1.429 . S
C851 N848 1.350 . S
C851 C850 1.434 . S
C591 C555 1.692 . S
C589 C29 1.605 . S
C600 C115 1.648 . S
C602 C375 1.655 . S
C611 C153 1.582 . S
C613 C422 1.674 . S
C622 C239 1.551 . S
C624 C458 1.555 . S
C635 C483 1.619 . S
C633 C301 1.600 . S
C644 C339 1.782 . S
C646 C519 1.913 . S
C655 C91 1.610 . S
C657 C411 1.720 . S
C666 C177 1.587 . S
C668 C447 1.592 . S
C677 C215 1.535 . S
C679 C494 1.628 . S
C690 C530 1.917 . S
C688 C277 1.791 . S
C701 C566 1.635 . S
C699 C363 1.617 . S
C712 C386 1.613 . S
C710 C53 1.600 . S
C721 C35 1.538 . S
C723 C410 1.553 . S
C732 C109 1.410 . S
C734 C446 1.511 . S
C745 C484 1.492 . S
C743 C159 1.487 . S
C754 C233 1.584 . S
C756 C520 1.704 1_556 S
C767 C556 1.529 . S
C765 C295 1.367 . S
C778 C376 1.378 . S
C776 C345 1.374 . S
C789 C554 1.472 . S
C787 C97 1.468 . S
C798 C171 1.373 . S
C800 C374 1.492 . S
C811 C412 1.554 . S
C809 C221 1.531 . S
C820 C283 1.434 . S
C822 C448 1.438 . S
C831 C357 1.450 . S
C833 C482 1.554 . S
C842 C47 1.607 . S
C844 C518 1.708 . S
