# Generated by pormake.
# Topology zzz, (3,6)-cn, num edge types: 1
# Building blocks:
#     Node 0, Type 0, BuildingBlock: QEWDON_clean_linker_0, # of connection points: 3
#     Node 1, Type 0, BuildingBlock: QEWDON_clean_linker_0, # of connection points: 3
#     Node 2, Type 0, BuildingBlock: QEWDON_clean_linker_0, # of connection points: 3
#     Node 3, Type 0, BuildingBlock: QEWDON_clean_linker_0, # of connection points: 3
#     Node 4, Type 0, BuildingBlock: QEWDON_clean_linker_0, # of connection points: 3
#     Node 5, Type 0, BuildingBlock: QEWDON_clean_linker_0, # of connection points: 3
#     Node 6, Type 0, BuildingBlock: QEWDON_clean_linker_0, # of connection points: 3
#     Node 7, Type 0, BuildingBlock: QEWDON_clean_linker_0, # of connection points: 3
#     Node 8, Type 1, BuildingBlock: LEVNOQ01_clean_sbu_1, # of connection points: 6
#     Node 9, Type 1, BuildingBlock: LEVNOQ01_clean_sbu_1, # of connection points: 6
#     Node 10, Type 1, BuildingBlock: LEVNOQ01_clean_sbu_1, # of connection points: 6
#     Node 11, Type 1, BuildingBlock: LEVNOQ01_clean_sbu_1, # of connection points: 6
#     Edge 12, Type (0, 1), BuildingBlock: OJICUG_clean_linker_0, # of connection points: 2
#     Edge 13, Type (0, 1), BuildingBlock: OJICUG_clean_linker_0, # of connection points: 2
#     Edge 14, Type (0, 1), BuildingBlock: OJICUG_clean_linker_0, # of connection points: 2
#     Edge 15, Type (0, 1), BuildingBlock: OJICUG_clean_linker_0, # of connection points: 2
#     Edge 16, Type (0, 1), BuildingBlock: OJICUG_clean_linker_0, # of connection points: 2
#     Edge 17, Type (0, 1), BuildingBlock: OJICUG_clean_linker_0, # of connection points: 2
#     Edge 18, Type (0, 1), BuildingBlock: OJICUG_clean_linker_0, # of connection points: 2
#     Edge 19, Type (0, 1), BuildingBlock: OJICUG_clean_linker_0, # of connection points: 2
#     Edge 20, Type (0, 1), BuildingBlock: OJICUG_clean_linker_0, # of connection points: 2
#     Edge 21, Type (0, 1), BuildingBlock: OJICUG_clean_linker_0, # of connection points: 2
#     Edge 22, Type (0, 1), BuildingBlock: OJICUG_clean_linker_0, # of connection points: 2
#     Edge 23, Type (0, 1), BuildingBlock: OJICUG_clean_linker_0, # of connection points: 2
#     Edge 24, Type (0, 1), BuildingBlock: OJICUG_clean_linker_0, # of connection points: 2
#     Edge 25, Type (0, 1), BuildingBlock: OJICUG_clean_linker_0, # of connection points: 2
#     Edge 26, Type (0, 1), BuildingBlock: OJICUG_clean_linker_0, # of connection points: 2
#     Edge 27, Type (0, 1), BuildingBlock: OJICUG_clean_linker_0, # of connection points: 2
#     Edge 28, Type (0, 1), BuildingBlock: OJICUG_clean_linker_0, # of connection points: 2
#     Edge 29, Type (0, 1), BuildingBlock: OJICUG_clean_linker_0, # of connection points: 2
#     Edge 30, Type (0, 1), BuildingBlock: OJICUG_clean_linker_0, # of connection points: 2
#     Edge 31, Type (0, 1), BuildingBlock: OJICUG_clean_linker_0, # of connection points: 2
#     Edge 32, Type (0, 1), BuildingBlock: OJICUG_clean_linker_0, # of connection points: 2
#     Edge 33, Type (0, 1), BuildingBlock: OJICUG_clean_linker_0, # of connection points: 2
#     Edge 34, Type (0, 1), BuildingBlock: OJICUG_clean_linker_0, # of connection points: 2
#     Edge 35, Type (0, 1), BuildingBlock: OJICUG_clean_linker_0, # of connection points: 2
# Relax obj value: 0.078
# Max RMSD: 0.170
# Mean RMSD: 0.063
data_MOF--net-zzz--node1-LEVNOQ01_clean_sbu_1--node2-QEWDON_clean_linker_0--edge1-OJICUG_clean_linker_0
_symmetry_space_group_name_H-M    P1
_symmetry_Int_Tables_number       1
_symmetry_cell_setting            triclinic
loop_
_symmetry_equiv_pos_as_xyz
'x, y, z'
_cell_length_a     38.726192
_cell_length_b     38.746747
_cell_length_c     12.126521
_cell_angle_alpha  90.05144
_cell_angle_beta   89.919344
_cell_angle_gamma 90.125239
loop_
_atom_site_label
_atom_site_type_symbol
_atom_site_fract_x
_atom_site_fract_y
_atom_site_fract_z
_atom_type_partial_charge
H0 H 0.80747 0.57575 -0.0227 0.0
C1 C 0.8194 0.58132 0.05605 0.0
C2 C 0.85446 0.57388 0.07032 0.0
C3 C 0.80017 0.59602 0.14359 0.0
H4 H 0.89795 0.57556 0.17751 0.0
C5 C 0.87085 0.58221 0.16822 0.0
C6 C 0.85264 0.59538 0.25758 0.0
C7 C 0.81702 0.60195 0.24616 0.0
C8 C 0.76289 0.60514 0.12758 0.0
H9 H 0.80255 0.61091 0.31707 0.0
C10 C 0.74102 0.58519 0.05892 0.0
C11 C 0.70634 0.59493 0.03989 0.0
C12 C 0.74918 0.63482 0.17808 0.0
H13 H 0.76513 0.65117 0.22963 0.0
C14 C 0.71488 0.64438 0.16055 0.0
H15 H 0.75094 0.56213 0.01978 0.0
C16 C 0.69362 0.62474 0.09191 0.0
H17 H 0.66703 0.63265 0.08094 0.0
H18 H 0.70472 0.66728 0.20008 0.0
H19 H 0.98192 0.80271 -0.00674 0.0
C20 C 0.977 0.81419 0.07318 0.0
C21 C 0.9863 0.84871 0.09074 0.0
C22 C 0.96084 0.79504 0.15844 0.0
H23 H 0.98644 0.89134 0.2019 0.0
C24 C 0.97862 0.86463 0.18997 0.0
C25 C 0.96282 0.8468 0.27567 0.0
C26 C 0.95453 0.81164 0.26132 0.0
C27 C 0.94989 0.75836 0.13855 0.0
H28 H 0.94363 0.79741 0.32992 0.0
C29 C 0.96902 0.73628 0.06834 0.0
C30 C 0.95733 0.70252 0.04296 0.0
C31 C 0.91926 0.74559 0.18601 0.0
H32 H 0.90347 0.76172 0.23863 0.0
C33 C 0.90792 0.71209 0.16343 0.0
H34 H 0.99328 0.74527 0.03445 0.0
C35 C 0.92653 0.69081 0.09208 0.0
H36 H 0.91629 0.66542 0.07383 0.0
H37 H 0.88414 0.70276 0.19991 0.0
H38 H 0.74448 0.98234 -0.01339 0.0
C39 C 0.73255 0.97678 0.06544 0.0
C40 C 0.6987 0.98798 0.08468 0.0
C41 C 0.75058 0.95832 0.14801 0.0
H42 H 0.65574 0.98813 0.19498 0.0
C43 C 0.68207 0.97932 0.18202 0.0
C44 C 0.69869 0.96087 0.2645 0.0
C45 C 0.73337 0.95104 0.24918 0.0
C46 C 0.78697 0.94659 0.12806 0.0
H47 H 0.74677 0.93826 0.31591 0.0
C48 C 0.81025 0.96639 0.06373 0.0
C49 C 0.84429 0.95486 0.04261 0.0
C50 C 0.79851 0.91499 0.17134 0.0
H51 H 0.7814 0.89866 0.21907 0.0
C52 C 0.83214 0.90358 0.15171 0.0
H53 H 0.80189 0.99079 0.02976 0.0
C54 C 0.85486 0.92324 0.08803 0.0
H55 H 0.8809 0.91384 0.07572 0.0
H56 H 0.84063 0.87924 0.18591 0.0
H57 H 0.57566 0.7461 -0.00942 0.0
C58 C 0.58109 0.73448 0.06982 0.0
C59 C 0.57505 0.69905 0.08384 0.0
C60 C 0.59471 0.75435 0.1579 0.0
H61 H 0.57701 0.65604 0.19304 0.0
C62 C 0.58306 0.68327 0.18305 0.0
C63 C 0.59508 0.70206 0.27271 0.0
C64 C 0.6005 0.73783 0.26101 0.0
C65 C 0.603 0.79195 0.14268 0.0
H66 H 0.60845 0.75265 0.33238 0.0
C67 C 0.5834 0.8133 0.07166 0.0
C68 C 0.59188 0.84859 0.05655 0.0
C69 C 0.63138 0.80664 0.19802 0.0
H70 H 0.64763 0.79117 0.25101 0.0
C71 C 0.63971 0.84143 0.18435 0.0
H72 H 0.56153 0.80251 0.02812 0.0
C73 C 0.62019 0.86227 0.11463 0.0
H74 H 0.62708 0.88928 0.10764 0.0
H75 H 0.66151 0.85233 0.22811 0.0
H76 H 0.25035 0.50337 0.30438 0.0
C77 C 0.23743 0.48981 0.23816 0.0
C78 C 0.20127 0.48732 0.24108 0.0
C79 C 0.25623 0.47633 0.14739 0.0
H80 H 0.15557 0.47291 0.15528 0.0
C81 C 0.1836 0.47218 0.15394 0.0
C82 C 0.20072 0.46249 0.05793 0.0
C83 C 0.23709 0.46278 0.05697 0.0
C84 C 0.29513 0.47932 0.14246 0.0
H85 H 0.24984 0.45383 -0.01696 0.0
C86 C 0.31545 0.48225 0.23942 0.0
C87 C 0.35169 0.48708 0.2338 0.0
C88 C 0.3124 0.4805 0.03988 0.0
H89 H 0.29856 0.48 0.96267 0.0
C90 C 0.34822 0.48357 0.03413 0.0
H91 H 0.30331 0.48098 0.31967 0.0
C92 C 0.36772 0.48698 0.12979 0.0
H93 H 0.39526 0.49114 0.12155 0.0
H94 H 0.36088 0.48444 0.95451 0.0
H95 H 0.04811 0.24635 0.31683 0.0
C96 C 0.06238 0.23295 0.25312 0.0
C97 C 0.06471 0.19681 0.25827 0.0
C98 C 0.07704 0.25114 0.16303 0.0
H99 H 0.08004 0.15065 0.17681 0.0
C100 C 0.08089 0.17865 0.17401 0.0
C101 C 0.09247 0.19524 0.07911 0.0
C102 C 0.09224 0.23158 0.07637 0.0
C103 C 0.07358 0.28982 0.15389 0.0
H104 H 0.1025 0.24407 0.00367 0.0
C105 C 0.07039 0.31126 0.24836 0.0
C106 C 0.06551 0.34737 0.23818 0.0
C107 C 0.07216 0.30567 0.04926 0.0
H108 H 0.07276 0.29075 -0.02603 0.0
C109 C 0.06873 0.34131 0.03899 0.0
H110 H 0.07159 0.30005 0.32994 0.0
C111 C 0.06534 0.36199 0.13218 0.0
H112 H 0.06103 0.38935 0.12053 0.0
H113 H 0.06764 0.35289 0.95785 0.0
H114 H 0.30201 0.04862 0.31073 0.0
C115 C 0.31548 0.06284 0.24706 0.0
C116 C 0.35165 0.06439 0.25134 0.0
C117 C 0.29736 0.0783 0.15839 0.0
H118 H 0.39803 0.07903 0.16953 0.0
C119 C 0.37004 0.08043 0.16735 0.0
C120 C 0.35351 0.09285 0.07366 0.0
C121 C 0.31713 0.09333 0.07169 0.0
C122 C 0.25846 0.07611 0.15161 0.0
H123 H 0.3048 0.10419 -0.00016 0.0
C124 C 0.2377 0.07169 0.24716 0.0
C125 C 0.20146 0.06728 0.23952 0.0
C126 C 0.24162 0.07705 0.04846 0.0
H127 H 0.25581 0.07884 -0.02803 0.0
C128 C 0.20578 0.07446 0.04104 0.0
H129 H 0.2495 0.07143 0.3279 0.0
C130 C 0.18585 0.06945 0.13527 0.0
H131 H 0.1583 0.06573 0.12546 0.0
H132 H 0.19344 0.07521 0.96101 0.0
H133 H 0.50196 0.30422 0.31099 0.0
C134 C 0.48782 0.31757 0.24713 0.0
C135 C 0.48575 0.35374 0.25204 0.0
C136 C 0.473 0.29931 0.1573 0.0
H137 H 0.47092 0.3999 0.1701 0.0
C138 C 0.46983 0.37191 0.1676 0.0
C139 C 0.45834 0.35528 0.07273 0.0
C140 C 0.45815 0.31895 0.07038 0.0
C141 C 0.47574 0.26047 0.14907 0.0
H142 H 0.44775 0.30658 -0.00226 0.0
C143 C 0.4798 0.23934 0.24379 0.0
C144 C 0.48391 0.20311 0.23438 0.0
C145 C 0.47544 0.24406 0.04501 0.0
H146 H 0.47418 0.25854 -0.03091 0.0
C147 C 0.47792 0.2083 0.03582 0.0
H148 H 0.47992 0.25081 0.32513 0.0
C149 C 0.48218 0.18797 0.12925 0.0
H150 H 0.48572 0.16046 0.11828 0.0
H151 H 0.4776 0.19632 0.95512 0.0
O152 O 0.07993 0.96358 0.85089 0.0
Mg153 Mg 0.07791 0.96999 0.67892 0.0
O154 O 0.02784 0.98018 0.80871 0.0
Mg155 Mg 0.02588 0.02178 0.67261 0.0
O156 O 0.08288 0.01651 0.59971 0.0
O157 O 0.12409 0.97577 0.60392 0.0
O158 O 0.02342 0.06429 0.53708 0.0
O159 O 0.04948 0.06473 0.78604 0.0
Mg160 Mg 0.97442 0.07526 0.6769 0.0
O161 O 0.96905 0.02729 0.74653 0.0
O162 O 0.97119 0.08311 0.50598 0.0
O163 O 1.01239 0.10668 0.75128 0.0
O164 O 0.92927 0.06936 0.75848 0.0
C165 C 1.01272 0.94584 0.56093 0.0
C166 C 0.04782 0.96219 0.86857 0.0
C167 C 0.11375 1.00584 0.57231 0.0
C168 C 1.00297 0.08354 0.48262 0.0
C169 C 0.0409 0.09656 0.79087 0.0
C170 C 0.93874 0.03811 0.77943 0.0
O171 O 0.0412 0.93705 0.6041 0.0
O172 O 1.0032 0.97755 0.56093 0.0
O173 O 0.44124 1.01265 0.74761 0.0
Mg174 Mg 0.47191 0.97397 0.67397 0.0
O175 O 0.48368 0.04961 0.78057 0.0
Mg176 Mg 0.52583 0.02511 0.66618 0.0
O177 O 0.51989 0.96884 0.74374 0.0
O178 O 0.47773 0.92909 0.75675 0.0
O179 O 0.56871 1.00112 0.55273 0.0
O180 O 0.56841 0.02723 0.79994 0.0
Mg181 Mg 0.57748 0.07563 0.66782 0.0
O182 O 0.5311 0.08186 0.58895 0.0
O183 O 0.6102 0.03814 0.59557 0.0
O184 O 0.5839 0.07997 0.83933 0.0
O185 O 0.57378 0.12135 0.59022 0.0
C186 C 0.46335 1.00181 0.47924 0.0
C187 C 0.45173 0.04126 0.78604 0.0
C188 C 0.50898 0.93871 0.77806 0.0
C189 C 0.60066 1.00983 0.55258 0.0
C190 C 0.5862 0.04803 0.85796 0.0
C191 C 0.54311 0.11218 0.56043 0.0
O192 O 0.46345 0.97011 0.50326 0.0
O193 O 0.48287 0.02226 0.53299 0.0
O194 O 0.54025 0.44299 0.74519 0.0
Mg195 Mg 0.57834 0.47397 0.66906 0.0
O196 O 0.50331 0.48513 0.78065 0.0
Mg197 Mg 0.52674 0.52833 0.66823 0.0
O198 O 0.58384 0.52193 0.73853 0.0
O199 O 0.624 0.48021 0.74754 0.0
O200 O 0.54935 0.5728 0.55759 0.0
O201 O 0.52551 0.56938 0.80604 0.0
Mg202 Mg 0.47467 0.58159 0.67722 0.0
O203 O 0.46955 0.53475 0.59947 0.0
O204 O 0.51136 0.61364 0.59883 0.0
O205 O 0.47441 0.58888 0.84894 0.0
O206 O 0.42805 0.57515 0.60563 0.0
C207 C 0.54845 0.46679 0.47538 0.0
C208 C 0.5118 0.45327 0.78529 0.0
C209 C 0.61441 0.51138 0.76944 0.0
C210 C 0.53987 0.60452 0.55622 0.0
C211 C 0.50653 0.58829 0.86664 0.0
C212 C 0.43851 0.54516 0.57334 0.0
O213 O 0.58029 0.46682 0.49766 0.0
O214 O 0.52835 0.48617 0.53102 0.0
O215 O 0.96805 0.47721 0.84062 0.0
Mg216 Mg 0.97397 0.47698 0.66845 0.0
O217 O 0.98522 0.52857 0.79185 0.0
Mg218 Mg 0.02638 0.52855 0.65455 0.0
O219 O 0.02045 0.47054 0.58941 0.0
O220 O 0.97915 0.42977 0.60063 0.0
O221 O 0.06844 0.53 0.51837 0.0
O222 O 0.07053 0.5076 0.76716 0.0
Mg223 Mg 0.08157 0.58445 0.65316 0.0
O224 O 0.03291 0.5855 0.71861 0.0
O225 O 0.08756 0.58191 0.48123 0.0
O226 O 0.11151 0.54669 0.73567 0.0
O227 O 0.06918 0.63053 0.72505 0.0
C228 C 0.9501 0.54053 0.54284 0.0
C229 C 0.967 0.50949 0.85417 0.0
C230 C 1.0093 0.4394 0.5668 0.0
C231 C 0.08769 0.54989 0.46143 0.0
C232 C 0.10197 0.51772 0.77446 0.0
C233 C 0.03962 0.61707 0.74949 0.0
O234 O 0.94095 0.51259 0.58904 0.0
O235 O 0.9819 0.54984 0.5422 0.0
C236 C 0.1934 0.03234 0.41202 0.0
C237 C 0.18026 0.05661 0.33708 0.0
H238 H 0.18292 0.99785 0.54514 0.0
C239 C 0.14556 0.06715 0.34913 0.0
H240 H 0.21973 0.02321 0.40515 0.0
C241 C 0.12411 0.0521 0.42936 0.0
C242 C 0.13691 0.0263 0.49942 0.0
H243 H 0.1346 0.08617 0.294 0.0
H244 H 0.09715 0.05932 0.43254 0.0
C245 C 0.17207 0.01745 0.49192 0.0
C246 C 0.51864 0.19338 0.40608 0.0
C247 C 0.49383 0.18129 0.33096 0.0
H248 H 0.5532 0.1812 0.53735 0.0
C249 C 0.48221 0.14685 0.34112 0.0
H250 H 0.52851 0.2195 0.40054 0.0
C251 C 0.49674 0.12457 0.41965 0.0
C252 C 0.52319 0.13625 0.48951 0.0
H253 H 0.46277 0.13673 0.2856 0.0
H254 H 0.4886 0.09783 0.42155 0.0
C255 C 0.53311 0.17119 0.48402 0.0
C256 C 0.359 0.51911 0.41248 0.0
C257 C 0.3725 0.49617 0.33372 0.0
H258 H 0.36909 0.55197 0.55024 0.0
C259 C 0.40729 0.48582 0.34428 0.0
H260 H 0.33257 0.52801 0.40703 0.0
C261 C 0.42856 0.50006 0.42637 0.0
C262 C 0.41546 0.5248 0.49992 0.0
H263 H 0.41851 0.46776 0.28627 0.0
H264 H 0.45564 0.49325 0.42801 0.0
C265 C 0.38016 0.53318 0.49429 0.0
C266 C 0.06767 0.40439 0.34088 0.0
C267 C 0.05687 0.36957 0.33544 0.0
H268 H 0.06099 0.45394 0.41774 0.0
C269 C 0.03395 0.35741 0.4165 0.0
H270 H 0.08574 0.41461 0.2809 0.0
C271 C 0.02029 0.37986 0.49555 0.0
C272 C 0.02913 0.41513 0.49603 0.0
H273 H 0.02475 0.331 0.41494 0.0
H274 H 1.00148 0.36979 0.55345 0.0
C275 C 0.05387 0.42693 0.42016 0.0
C276 C 0.86911 1.01206 -0.01689 0.0
C277 C 0.86889 0.97588 -0.02523 0.0
H278 H 0.89129 0.05968 0.92899 0.0
C279 C 0.89252 0.9601 0.90171 0.0
H280 H 0.85194 0.02521 0.03972 0.0
C281 C 0.91554 0.98006 0.83859 0.0
C282 C 0.91546 0.01617 0.84711 0.0
H283 H 0.89284 0.93234 0.8916 0.0
H284 H 0.93271 0.96734 0.78103 0.0
C285 C 0.89191 0.03187 0.9199 0.0
C286 C 0.535 0.86733 -0.02462 0.0
C287 C 0.57099 0.87143 -0.01742 0.0
H288 H 0.48759 0.8851 0.90625 0.0
C289 C 0.58662 0.89809 0.92051 0.0
H290 H 0.52179 0.84775 0.02321 0.0
C291 C 0.56673 0.92008 0.85412 0.0
C292 C 0.5308 0.91583 0.84746 0.0
H293 H 0.61433 0.90185 0.9222 0.0
H294 H 0.57947 0.94005 0.80686 0.0
C295 C 0.51528 0.88906 0.90854 0.0
C296 C 0.68395 0.5376 -0.02697 0.0
C297 C 0.68316 0.5738 -0.03215 0.0
H298 H 0.66281 0.48986 0.91564 0.0
C299 C 0.65955 0.58953 0.89504 0.0
H300 H 0.70135 0.52455 0.02893 0.0
C301 C 0.63717 0.5695 0.82996 0.0
C302 C 0.63776 0.53336 0.83678 0.0
H303 H 0.65865 0.61735 0.88734 0.0
H304 H 0.61977 0.58224 0.77332 0.0
C305 C 0.66166 0.5177 0.90827 0.0
C306 C 0.99453 0.69435 0.87375 0.0
C307 C 0.97675 0.67987 0.96391 0.0
H308 H 0.02788 0.68577 0.73542 0.0
C309 C 0.97777 0.64365 -0.02273 0.0
H310 H 0.99374 0.72184 0.85821 0.0
C311 C 0.99674 0.62281 0.90433 0.0
C312 C 1.01527 0.63768 0.81694 0.0
H313 H 0.96485 0.63137 0.0461 0.0
H314 H 0.99823 0.59531 0.91941 0.0
C315 C 1.01376 0.67359 0.80213 0.0
C316 C 0.0657 0.15489 0.41026 0.0
C317 C 0.04612 0.1755 0.33925 0.0
H318 H 0.06775 0.1095 0.50868 0.0
C319 C 1.01159 0.16648 0.31795 0.0
H320 H 0.09267 0.16078 0.42509 0.0
C321 C 0.9974 0.13631 0.36295 0.0
C322 C 0.01774 0.1145 0.42865 0.0
H323 H 0.99643 0.18141 0.26012 0.0
H324 H 0.97091 0.12956 0.3439 0.0
C325 C 0.0517 0.12479 0.4545 0.0
C326 C 0.38094 1.01099 0.31244 0.0
C327 C 0.3726 0.04572 0.3326 0.0
H328 H 0.41694 0.96982 0.34073 0.0
C329 C 0.39341 0.06521 0.40355 0.0
H330 H 0.36583 0.99589 0.25469 0.0
C331 C 0.42311 0.05092 0.44882 0.0
C332 C 0.43272 0.0167 0.4244 0.0
H333 H 0.38802 0.0923 0.41751 0.0
H334 H 0.43866 0.06696 0.50259 0.0
C335 C 0.41068 0.99646 0.35878 0.0
C336 C 0.53905 0.3837 0.31149 0.0
C337 C 0.50442 0.37506 0.33283 0.0
H338 H 0.58007 0.42025 0.33694 0.0
C339 C 0.48496 0.39607 0.40333 0.0
H340 H 0.55414 0.36849 0.25401 0.0
C341 C 0.4992 0.42614 0.44712 0.0
C342 C 0.53331 0.43601 0.42132 0.0
H343 H 0.45791 0.39048 0.41814 0.0
H344 H 0.48325 0.44171 0.50101 0.0
C345 C 0.55348 0.41384 0.35598 0.0
C346 C 0.17164 0.54039 0.30237 0.0
C347 C 0.17952 0.50554 0.3216 0.0
H348 H 0.13561 0.58164 0.32812 0.0
C349 C 0.15767 0.48585 0.38887 0.0
H350 H 0.18754 0.55568 0.24728 0.0
C351 C 0.12755 0.50019 0.43178 0.0
C352 C 0.11846 0.53458 0.40799 0.0
H353 H 0.1627 0.45865 0.40188 0.0
H354 H 0.11136 0.48411 0.48341 0.0
C355 C 0.14141 0.55487 0.3456 0.0
C356 C 0.98314 0.89381 0.9502 0.0
C357 C 1.00359 0.87052 0.00891 0.0
H358 H 0.98079 0.94164 0.86512 0.0
C359 C 0.03907 0.87716 0.02105 0.0
H360 H 0.95548 0.88989 0.9439 0.0
C361 C 0.05367 0.90736 -0.02208 0.0
C362 C 0.0328 0.93158 0.92356 0.0
H363 H 0.05497 0.86013 0.07025 0.0
H364 H 0.08103 0.91203 -0.01101 0.0
C365 C 0.99752 0.92403 0.90854 0.0
C366 C 0.66085 0.98898 0.92263 0.0
C367 C 0.67811 1.00744 0.00483 0.0
H368 H 0.61799 0.98725 0.81325 0.0
C369 C 0.6664 0.04057 0.03426 0.0
H370 H 0.66895 0.9631 0.90078 0.0
C371 C 0.63643 0.05408 -0.01296 0.0
C372 C 0.61762 0.03441 0.9108 0.0
H373 H 0.67897 0.05478 0.09997 0.0
H374 H 0.62732 0.07922 0.01303 0.0
C375 C 0.63092 1.00235 0.87597 0.0
C376 C 0.52188 0.67598 -0.00213 0.0
C377 C 0.55812 0.67676 0.00218 0.0
H378 H 0.4767 0.64678 0.95479 0.0
C379 C 0.57684 0.64839 0.96296 0.0
H380 H 0.50694 0.69704 0.03207 0.0
C381 C 0.55973 0.61907 0.92553 0.0
C382 C 0.52348 0.61765 0.92292 0.0
H383 H 0.60473 0.64787 -0.03004 0.0
H384 H 0.57499 0.59724 0.89944 0.0
C385 C 0.50465 0.64672 0.9577 0.0
C386 C 0.88304 0.52042 0.01063 0.0
C387 C 0.87558 0.55529 -0.01023 0.0
H388 H 0.91868 0.47872 -0.01218 0.0
C389 C 0.89759 0.57453 0.92209 0.0
H390 H 0.86692 0.50555 0.06625 0.0
C391 C 0.92752 0.55963 0.88002 0.0
C392 C 0.93628 0.52525 0.90587 0.0
H393 H 0.89291 0.60175 0.90829 0.0
H394 H 0.9439 0.57531 0.82778 0.0
C395 C 0.91315 0.50546 -0.03117 0.0
C396 C 0.07144 0.18338 0.89069 0.0
C397 C 0.09355 0.17396 -0.02302 0.0
H398 H 0.03721 0.166 0.76498 0.0
C399 C 0.1054 0.13952 -0.01851 0.0
H400 H 0.06204 0.20959 0.88334 0.0
C401 C 0.09004 0.11398 0.91572 0.0
C402 C 0.06345 0.12288 0.84269 0.0
H403 H 0.12316 0.13161 0.04563 0.0
H404 H 0.09691 0.08721 0.92874 0.0
C405 C 0.05645 0.15807 0.82453 0.0
C406 C 0.40934 0.10598 -0.02322 0.0
C407 C 0.37473 0.09441 -0.02853 0.0
H408 H 0.46166 0.09704 0.92492 0.0
C409 C 0.36514 0.07269 0.88417 0.0
H410 H 0.41738 0.12343 0.0418 0.0
C411 C 0.39039 0.05761 0.81802 0.0
C412 C 0.42566 0.06417 0.83721 0.0
H413 H 0.3388 0.06356 0.87619 0.0
H414 H 0.38231 0.03858 0.75775 0.0
C415 C 0.4348 0.09052 0.91105 0.0
C416 C 0.4805 0.36672 0.88536 0.0
C417 C 0.4579 0.37638 -0.02964 0.0
H418 H 0.51556 0.38372 0.76123 0.0
C419 C 0.44625 0.4109 -0.02597 0.0
H420 H 0.48979 0.34044 0.87877 0.0
C421 C 0.46212 0.43624 0.90878 0.0
C422 C 0.48906 0.4271 0.8371 0.0
H423 H 0.42819 0.419 0.03728 0.0
H424 H 0.45528 0.46306 0.92111 0.0
C425 C 0.49603 0.39185 0.81976 0.0
C426 C 0.18919 0.4887 0.87647 0.0
C427 C 0.17998 0.46378 0.95501 0.0
H428 H 0.17158 0.52564 0.75958 0.0
C429 C 0.14583 0.45091 0.95454 0.0
H430 H 0.21517 0.4991 0.87366 0.0
C431 C 0.12026 0.4671 0.89143 0.0
C432 C 0.12876 0.49578 0.82612 0.0
H433 H 0.13807 0.43127 0.01319 0.0
H434 H 0.09366 0.45884 0.90021 0.0
C435 C 0.16383 0.50464 0.81314 0.0
C436 C 0.9864 0.85726 0.46032 0.0
C437 C 0.96134 0.86554 0.38183 0.0
H438 H 0.02266 0.87641 0.57744 0.0
C439 C 0.9472 0.89911 0.38242 0.0
H440 H 0.99779 0.83174 0.46171 0.0
C441 C 0.96244 0.92536 0.44551 0.0
C442 C 0.99135 0.91807 0.51091 0.0
H443 H 0.92779 0.90612 0.32222 0.0
H444 H 0.95338 0.95162 0.43611 0.0
C445 C 1.00135 0.8833 0.52412 0.0
C446 C 0.68853 0.98132 0.45317 0.0
C447 C 0.67952 0.95809 0.36961 0.0
H448 H 0.67033 0.01625 0.57598 0.0
C449 C 0.64538 0.94527 0.36629 0.0
H450 H 0.71452 0.99164 0.45768 0.0
C451 C 0.61951 0.96039 0.4311 0.0
C452 C 0.62773 0.98785 0.50184 0.0
H453 H 0.63782 0.92727 0.30219 0.0
H454 H 0.5929 0.95266 0.41869 0.0
C455 C 0.66284 0.99616 0.51857 0.0
C456 C 0.60827 0.6503 0.38582 0.0
C457 C 0.59394 0.68373 0.37964 0.0
H458 H 0.6014 0.59822 0.4425 0.0
C459 C 0.56715 0.69241 0.45193 0.0
H460 H 0.62908 0.64301 0.33072 0.0
C461 C 0.55106 0.66677 0.51444 0.0
C462 C 0.56161 0.63201 0.5063 0.0
H463 H 0.55559 0.71784 0.44914 0.0
H464 H 0.52864 0.67393 0.56274 0.0
C465 C 0.59188 0.62444 0.44752 0.0
C466 C 0.86234 0.56753 0.43665 0.0
C467 C 0.87118 0.5942 0.36411 0.0
H468 H 0.88055 0.52919 0.54812 0.0
C469 C 0.90481 0.60824 0.36941 0.0
H470 H 0.83678 0.5561 0.43415 0.0
C471 C 0.93053 0.59192 0.43146 0.0
C472 C 0.92272 0.5619 0.49127 0.0
H473 H 0.91229 0.62884 0.31379 0.0
H474 H 0.95683 0.60134 0.42623 0.0
C475 C 0.88787 0.55146 0.49939 0.0
loop_
_geom_bond_atom_site_label_1
_geom_bond_atom_site_label_2
_geom_bond_distance
_geom_bond_site_symmetry_2
_ccdc_geom_bond_type
H0 C1 0.949 . S
C1 H0 0.949 . S
C1 C2 1.395 . S
C1 C3 1.391 1_556 S
C2 C1 1.395 . S
C2 C5 1.390 1_556 S
C3 C1 1.391 1_554 S
C3 C7 1.387 . S
C3 C8 1.491 . S
H4 C5 0.950 . S
C5 C2 1.390 1_554 S
C5 H4 0.950 . S
C5 C6 1.378 . S
C6 C5 1.378 . S
C6 C7 1.409 . S
C7 C3 1.387 . S
C7 C6 1.409 . S
C7 H9 0.951 . S
C8 C3 1.491 . S
C8 C10 1.382 1_554 S
C8 C12 1.404 . S
H9 C7 0.951 . S
C10 C8 1.382 1_556 S
C10 C11 1.390 . S
C10 H15 0.949 . S
C11 C10 1.390 . S
C11 C16 1.399 1_556 S
C12 C8 1.404 . S
C12 H13 0.950 . S
C12 C14 1.375 . S
H13 C12 0.950 . S
C14 C12 1.375 . S
C14 C16 1.382 . S
C14 H18 0.950 . S
H15 C10 0.949 . S
C16 C11 1.399 1_554 S
C16 C14 1.382 . S
C16 H17 0.952 . S
H17 C16 0.952 . S
H18 C14 0.950 . S
H19 C20 0.949 . S
C20 H19 0.949 . S
C20 C21 1.395 . S
C20 C22 1.391 1_556 S
C21 C20 1.395 . S
C21 C24 1.390 1_556 S
C22 C20 1.391 1_554 S
C22 C26 1.387 . S
C22 C27 1.491 . S
H23 C24 0.950 . S
C24 C21 1.390 1_554 S
C24 H23 0.950 . S
C24 C25 1.378 . S
C25 C24 1.378 . S
C25 C26 1.409 . S
C26 C22 1.387 . S
C26 C25 1.409 . S
C26 H28 0.951 . S
C27 C22 1.491 . S
C27 C29 1.382 1_554 S
C27 C31 1.404 . S
H28 C26 0.951 . S
C29 C27 1.382 1_556 S
C29 C30 1.390 . S
C29 H34 0.949 . S
C30 C29 1.390 . S
C30 C35 1.399 1_556 S
C31 C27 1.404 . S
C31 H32 0.950 . S
C31 C33 1.375 . S
H32 C31 0.950 . S
C33 C31 1.375 . S
C33 C35 1.382 . S
C33 H37 0.950 . S
H34 C29 0.949 . S
C35 C30 1.399 1_554 S
C35 C33 1.382 . S
C35 H36 0.952 . S
H36 C35 0.952 . S
H37 C33 0.950 . S
H38 C39 0.949 . S
C39 H38 0.949 . S
C39 C40 1.395 . S
C39 C41 1.391 1_556 S
C40 C39 1.395 . S
C40 C43 1.390 1_556 S
C41 C39 1.391 1_554 S
C41 C45 1.387 . S
C41 C46 1.491 . S
H42 C43 0.950 . S
C43 C40 1.390 1_554 S
C43 H42 0.950 . S
C43 C44 1.378 . S
C44 C43 1.378 . S
C44 C45 1.409 . S
C45 C41 1.387 . S
C45 C44 1.409 . S
C45 H47 0.951 . S
C46 C41 1.491 . S
C46 C48 1.382 1_554 S
C46 C50 1.404 . S
H47 C45 0.951 . S
C48 C46 1.382 1_556 S
C48 C49 1.390 . S
C48 H53 0.949 . S
C49 C48 1.390 . S
C49 C54 1.399 1_556 S
C50 C46 1.404 . S
C50 H51 0.950 . S
C50 C52 1.375 . S
H51 C50 0.950 . S
C52 C50 1.375 . S
C52 C54 1.382 . S
C52 H56 0.950 . S
H53 C48 0.949 . S
C54 C49 1.399 1_554 S
C54 C52 1.382 . S
C54 H55 0.952 . S
H55 C54 0.952 . S
H56 C52 0.950 . S
H57 C58 0.949 . S
C58 H57 0.949 . S
C58 C59 1.395 . S
C58 C60 1.391 1_556 S
C59 C58 1.395 . S
C59 C62 1.390 1_556 S
C60 C58 1.391 1_554 S
C60 C64 1.387 . S
C60 C65 1.491 . S
H61 C62 0.950 . S
C62 C59 1.390 1_554 S
C62 H61 0.950 . S
C62 C63 1.378 . S
C63 C62 1.378 . S
C63 C64 1.409 . S
C64 C60 1.387 . S
C64 C63 1.409 . S
C64 H66 0.951 . S
C65 C60 1.491 . S
C65 C67 1.382 1_554 S
C65 C69 1.404 . S
H66 C64 0.951 . S
C67 C65 1.382 1_556 S
C67 C68 1.390 . S
C67 H72 0.949 . S
C68 C67 1.390 . S
C68 C73 1.399 1_556 S
C69 C65 1.404 . S
C69 H70 0.950 . S
C69 C71 1.375 . S
H70 C69 0.950 . S
C71 C69 1.375 . S
C71 C73 1.382 . S
C71 H75 0.950 . S
H72 C67 0.949 . S
C73 C68 1.399 1_554 S
C73 C71 1.382 . S
C73 H74 0.952 . S
H74 C73 0.952 . S
H75 C71 0.950 . S
H76 C77 0.949 . S
C77 H76 0.949 . S
C77 C78 1.395 . S
C77 C79 1.391 . S
C78 C77 1.395 . S
C78 C81 1.390 . S
C79 C77 1.391 . S
C79 C83 1.387 . S
C79 C84 1.491 . S
H80 C81 0.950 . S
C81 C78 1.390 . S
C81 H80 0.950 . S
C81 C82 1.378 . S
C82 C81 1.378 . S
C82 C83 1.409 . S
C83 C79 1.387 . S
C83 C82 1.409 . S
C83 H85 0.951 . S
C84 C79 1.491 . S
C84 C86 1.382 . S
C84 C88 1.404 . S
H85 C83 0.951 . S
C86 C84 1.382 . S
C86 C87 1.390 . S
C86 H91 0.949 . S
C87 C86 1.390 . S
C87 C92 1.399 . S
C88 C84 1.404 . S
C88 H89 0.950 . S
C88 C90 1.375 . S
H89 C88 0.950 . S
C90 C88 1.375 . S
C90 C92 1.382 . S
C90 H94 0.950 . S
H91 C86 0.949 . S
C92 C87 1.399 . S
C92 C90 1.382 . S
C92 H93 0.952 . S
H93 C92 0.952 . S
H94 C90 0.950 . S
H95 C96 0.949 . S
C96 H95 0.949 . S
C96 C97 1.395 . S
C96 C98 1.391 . S
C97 C96 1.395 . S
C97 C100 1.390 . S
C98 C96 1.391 . S
C98 C102 1.387 . S
C98 C103 1.491 . S
H99 C100 0.950 . S
C100 C97 1.390 . S
C100 H99 0.950 . S
C100 C101 1.378 . S
C101 C100 1.378 . S
C101 C102 1.409 . S
C102 C98 1.387 . S
C102 C101 1.409 . S
C102 H104 0.951 . S
C103 C98 1.491 . S
C103 C105 1.382 . S
C103 C107 1.404 . S
H104 C102 0.951 . S
C105 C103 1.382 . S
C105 C106 1.390 . S
C105 H110 0.949 . S
C106 C105 1.390 . S
C106 C111 1.399 . S
C107 C103 1.404 . S
C107 H108 0.950 1_455 S
C107 C109 1.369 1_455 S
H108 C107 0.950 1_655 S
C109 C107 1.369 1_655 S
C109 C111 1.370 1_655 S
C109 H113 0.969 . S
H110 C105 0.949 . S
C111 C106 1.399 . S
C111 C109 1.370 1_455 S
C111 H112 0.952 . S
H112 C111 0.952 . S
H113 C109 0.969 . S
H114 C115 0.949 . S
C115 H114 0.949 . S
C115 C116 1.395 . S
C115 C117 1.391 . S
C116 C115 1.395 . S
C116 C119 1.390 . S
C117 C115 1.391 . S
C117 C121 1.387 . S
C117 C122 1.491 . S
H118 C119 0.950 . S
C119 C116 1.390 . S
C119 H118 0.950 . S
C119 C120 1.378 . S
C120 C119 1.378 . S
C120 C121 1.409 . S
C121 C117 1.387 . S
C121 C120 1.409 . S
C121 H123 0.951 . S
C122 C117 1.491 . S
C122 C124 1.382 . S
C122 C126 1.404 . S
H123 C121 0.951 . S
C124 C122 1.382 . S
C124 C125 1.390 . S
C124 H129 0.949 . S
C125 C124 1.390 . S
C125 C130 1.399 . S
C126 C122 1.404 . S
C126 H127 0.950 1_545 S
C126 C128 1.372 1_545 S
H127 C126 0.950 1_565 S
C128 C126 1.372 1_565 S
C128 C130 1.377 1_565 S
C128 H132 0.959 . S
H129 C124 0.949 . S
C130 C125 1.399 . S
C130 C128 1.377 1_545 S
C130 H131 0.952 . S
H131 C130 0.952 . S
H132 C128 0.959 . S
H133 C134 0.949 . S
C134 H133 0.949 . S
C134 C135 1.395 . S
C134 C136 1.391 . S
C135 C134 1.395 . S
C135 C138 1.390 . S
C136 C134 1.391 . S
C136 C140 1.387 . S
C136 C141 1.491 . S
H137 C138 0.950 . S
C138 C135 1.390 . S
C138 H137 0.950 . S
C138 C139 1.378 . S
C139 C138 1.378 . S
C139 C140 1.409 . S
C140 C136 1.387 . S
C140 C139 1.409 . S
C140 H142 0.951 . S
C141 C136 1.491 . S
C141 C143 1.382 . S
C141 C145 1.404 . S
H142 C140 0.951 . S
C143 C141 1.382 . S
C143 C144 1.390 . S
C143 H148 0.949 . S
C144 C143 1.390 . S
C144 C149 1.399 . S
C145 C141 1.404 . S
C145 H146 0.950 . S
C145 C147 1.375 . S
H146 C145 0.950 . S
C147 C145 1.375 . S
C147 C149 1.382 . S
C147 H151 0.950 . S
H148 C143 0.949 . S
C149 C144 1.399 . S
C149 C147 1.382 . S
C149 H150 0.952 . S
H150 C149 0.952 . S
H151 C147 0.950 . S
O152 Mg153 1.990 . S
O152 C166 1.253 . S
Mg153 O152 1.990 . S
Mg153 O156 2.180 . S
Mg153 O157 2.117 . S
Mg153 O171 2.030 . S
O154 Mg155 2.072 1_565 S
O154 C166 1.260 . S
Mg155 O154 2.072 1_545 S
Mg155 O156 2.099 1_545 S
Mg155 O158 2.079 . S
Mg155 O159 2.072 . S
Mg155 O161 2.099 1_455 S
Mg155 O172 2.079 1_445 S
O156 Mg153 2.180 . S
O156 Mg155 2.099 1_565 S
O156 C167 1.279 1_565 S
O157 Mg153 2.117 . S
O157 C167 1.245 1_565 S
O158 Mg155 2.079 . S
O158 C168 1.264 . S
O159 Mg155 2.072 . S
O159 C169 1.260 . S
Mg160 O161 2.180 . S
Mg160 O162 2.030 . S
Mg160 O163 1.990 . S
Mg160 O164 2.117 . S
O161 Mg155 2.099 1_655 S
O161 Mg160 2.180 . S
O161 C170 1.279 . S
O162 Mg160 2.030 . S
O162 C168 1.248 1_655 S
O163 Mg160 1.990 . S
O163 C169 1.253 1_655 S
O164 Mg160 2.117 . S
O164 C170 1.250 . S
C165 O171 1.252 . S
C165 O172 1.263 1_455 S
C166 O152 1.253 . S
C166 O154 1.260 . S
C167 O156 1.279 1_545 S
C167 O157 1.245 1_545 S
C168 O158 1.264 . S
C168 O162 1.248 1_455 S
C169 O159 1.260 . S
C169 O163 1.253 1_455 S
C170 O161 1.279 . S
C170 O164 1.250 . S
O171 Mg153 2.030 . S
O171 C165 1.252 . S
O172 Mg155 2.079 1_665 S
O172 C165 1.263 1_655 S
O173 Mg174 1.990 . S
O173 C187 1.253 1_565 S
Mg174 O173 1.990 . S
Mg174 O177 2.180 . S
Mg174 O178 2.117 . S
Mg174 O192 2.030 . S
O175 Mg176 2.072 . S
O175 C187 1.260 . S
Mg176 O175 2.072 . S
Mg176 O177 2.099 1_545 S
Mg176 O179 2.079 1_545 S
Mg176 O180 2.072 . S
Mg176 O182 2.099 . S
Mg176 O193 2.079 . S
O177 Mg174 2.180 . S
O177 Mg176 2.099 1_565 S
O177 C188 1.279 . S
O178 Mg174 2.117 . S
O178 C188 1.250 . S
O179 Mg176 2.079 1_565 S
O179 C189 1.259 1_565 S
O180 Mg176 2.072 . S
O180 C190 1.260 . S
Mg181 O182 2.180 . S
Mg181 O183 2.030 . S
Mg181 O184 1.990 . S
Mg181 O185 2.117 . S
O182 Mg176 2.099 . S
O182 Mg181 2.180 . S
O182 C191 1.279 . S
O183 Mg181 2.030 . S
O183 C189 1.268 . S
O184 Mg181 1.990 . S
O184 C190 1.253 . S
O185 Mg181 2.117 . S
O185 C191 1.250 . S
C186 O192 1.248 1_545 S
C186 O193 1.264 . S
C187 O173 1.253 1_545 S
C187 O175 1.260 . S
C188 O177 1.279 . S
C188 O178 1.250 . S
C189 O179 1.259 1_545 S
C189 O183 1.268 . S
C190 O180 1.260 . S
C190 O184 1.253 . S
C191 O182 1.279 . S
C191 O185 1.250 . S
O192 Mg174 2.030 . S
O192 C186 1.248 1_565 S
O193 Mg176 2.079 . S
O193 C186 1.264 . S
O194 Mg195 1.990 . S
O194 C208 1.253 . S
Mg195 O194 1.990 . S
Mg195 O198 2.180 . S
Mg195 O199 2.117 . S
Mg195 O213 2.030 . S
O196 Mg197 2.072 . S
O196 C208 1.260 . S
Mg197 O196 2.072 . S
Mg197 O198 2.099 . S
Mg197 O200 2.079 . S
Mg197 O201 2.072 . S
Mg197 O203 2.099 . S
Mg197 O214 2.079 . S
O198 Mg195 2.180 . S
O198 Mg197 2.099 . S
O198 C209 1.279 . S
O199 Mg195 2.117 . S
O199 C209 1.250 . S
O200 Mg197 2.079 . S
O200 C210 1.264 . S
O201 Mg197 2.072 . S
O201 C211 1.260 . S
Mg202 O203 2.180 . S
Mg202 O204 2.030 . S
Mg202 O205 1.990 . S
Mg202 O206 2.117 . S
O203 Mg197 2.099 . S
O203 Mg202 2.180 . S
O203 C212 1.279 . S
O204 Mg202 2.030 . S
O204 C210 1.248 . S
O205 Mg202 1.990 . S
O205 C211 1.253 . S
O206 Mg202 2.117 . S
O206 C212 1.250 . S
C207 O213 1.248 . S
C207 O214 1.264 . S
C208 O194 1.253 . S
C208 O196 1.260 . S
C209 O198 1.279 . S
C209 O199 1.250 . S
C210 O200 1.264 . S
C210 O204 1.248 . S
C211 O201 1.260 . S
C211 O205 1.253 . S
C212 O203 1.279 . S
C212 O206 1.250 . S
O213 Mg195 2.030 . S
O213 C207 1.248 . S
O214 Mg197 2.079 . S
O214 C207 1.264 . S
O215 Mg216 1.990 . S
O215 C229 1.253 . S
Mg216 O215 1.990 . S
Mg216 O219 2.180 . S
Mg216 O220 2.117 . S
Mg216 O234 2.030 . S
O217 Mg218 2.072 1_655 S
O217 C229 1.260 . S
Mg218 O217 2.072 1_455 S
Mg218 O219 2.099 1_455 S
Mg218 O221 2.079 . S
Mg218 O222 2.072 . S
Mg218 O224 2.099 . S
Mg218 O235 2.079 1_455 S
O219 Mg216 2.180 . S
O219 Mg218 2.099 1_655 S
O219 C230 1.279 . S
O220 Mg216 2.117 . S
O220 C230 1.255 . S
O221 Mg218 2.079 . S
O221 C231 1.264 . S
O222 Mg218 2.072 . S
O222 C232 1.260 . S
Mg223 O224 2.180 . S
Mg223 O225 2.030 . S
Mg223 O226 1.990 . S
Mg223 O227 2.117 . S
O224 Mg218 2.099 . S
O224 Mg223 2.180 . S
O224 C233 1.279 . S
O225 Mg223 2.030 . S
O225 C231 1.248 . S
O226 Mg223 1.990 . S
O226 C232 1.253 . S
O227 Mg223 2.117 . S
O227 C233 1.250 . S
C228 O234 1.248 . S
C228 O235 1.264 . S
C229 O215 1.253 . S
C229 O217 1.260 . S
C230 O219 1.279 . S
C230 O220 1.255 . S
C231 O221 1.264 . S
C231 O225 1.248 . S
C232 O222 1.260 . S
C232 O226 1.253 . S
C233 O224 1.279 . S
C233 O227 1.250 . S
O234 Mg216 2.030 . S
O234 C228 1.248 . S
O235 Mg218 2.079 1_655 S
O235 C228 1.264 . S
C236 C237 1.387 . S
C236 H240 0.950 1_545 S
C236 C245 1.398 . S
C237 C236 1.387 . S
C237 C239 1.387 . S
H238 C245 0.924 1_565 S
C239 C237 1.387 . S
C239 C241 1.390 . S
C239 H243 0.950 . S
H240 C236 0.950 1_565 S
C241 C239 1.390 . S
C241 C242 1.387 . S
C241 H244 0.950 . S
C242 C241 1.387 . S
C242 C245 1.406 . S
H243 C239 0.950 . S
H244 C241 0.950 . S
C245 C236 1.398 . S
C245 H238 0.924 1_545 S
C245 C242 1.406 . S
C246 C247 1.387 . S
C246 H250 0.950 . S
C246 C255 1.390 . S
C247 C246 1.387 . S
C247 C249 1.387 . S
H248 C255 0.950 . S
C249 C247 1.387 . S
C249 C251 1.390 . S
C249 H253 0.950 . S
H250 C246 0.950 . S
C251 C249 1.390 . S
C251 C252 1.387 . S
C251 H254 0.950 . S
C252 C251 1.387 . S
C252 C255 1.387 . S
H253 C249 0.950 . S
H254 C251 0.950 . S
C255 C246 1.390 . S
C255 H248 0.950 . S
C255 C252 1.387 . S
C256 C257 1.387 . S
C256 H260 0.950 . S
C256 C265 1.390 . S
C257 C256 1.387 . S
C257 C259 1.387 . S
H258 C265 0.950 . S
C259 C257 1.387 . S
C259 C261 1.390 . S
C259 H263 0.950 . S
H260 C256 0.950 . S
C261 C259 1.390 . S
C261 C262 1.387 . S
C261 H264 0.950 . S
C262 C261 1.387 . S
C262 C265 1.387 . S
H263 C259 0.950 . S
H264 C261 0.950 . S
C265 C256 1.390 . S
C265 H258 0.950 . S
C265 C262 1.387 . S
C266 C267 1.387 . S
C266 H270 0.950 . S
C266 C275 1.390 . S
C267 C266 1.387 . S
C267 C269 1.387 . S
H268 C275 0.950 . S
C269 C267 1.387 . S
C269 C271 1.390 . S
C269 H273 0.950 . S
H270 C266 0.950 . S
C271 C269 1.390 . S
C271 C272 1.387 . S
C271 H274 0.950 . S
C272 C271 1.387 . S
C272 C275 1.387 . S
H273 C269 0.950 . S
H274 C271 0.950 . S
C275 C266 1.390 . S
C275 H268 0.950 . S
C275 C272 1.387 . S
C276 C277 1.387 1_545 S
C276 H280 0.950 . S
C276 C285 1.390 . S
C277 C276 1.387 1_565 S
C277 C279 1.387 . S
H278 C285 0.950 . S
C279 C277 1.387 . S
C279 C281 1.390 . S
C279 H283 0.950 . S
H280 C276 0.950 . S
C281 C279 1.390 . S
C281 C282 1.387 . S
C281 H284 0.950 . S
C282 C281 1.387 . S
C282 C285 1.387 1_565 S
H283 C279 0.950 . S
H284 C281 0.950 . S
C285 C276 1.390 . S
C285 H278 0.950 . S
C285 C282 1.387 1_545 S
C286 C287 1.387 . S
C286 H290 0.950 . S
C286 C295 1.390 . S
C287 C286 1.387 . S
C287 C289 1.387 . S
H288 C295 0.950 . S
C289 C287 1.387 . S
C289 C291 1.390 . S
C289 H293 0.950 . S
H290 C286 0.950 . S
C291 C289 1.390 . S
C291 C292 1.387 . S
C291 H294 0.950 . S
C292 C291 1.387 . S
C292 C295 1.387 . S
H293 C289 0.950 . S
H294 C291 0.950 . S
C295 C286 1.390 . S
C295 H288 0.950 . S
C295 C292 1.387 . S
C296 C297 1.387 . S
C296 H300 0.950 . S
C296 C305 1.390 . S
C297 C296 1.387 . S
C297 C299 1.387 . S
H298 C305 0.950 . S
C299 C297 1.387 . S
C299 C301 1.390 . S
C299 H303 0.950 . S
H300 C296 0.950 . S
C301 C299 1.390 . S
C301 C302 1.387 . S
C301 H304 0.950 . S
C302 C301 1.387 . S
C302 C305 1.387 . S
H303 C299 0.950 . S
H304 C301 0.950 . S
C305 C296 1.390 . S
C305 H298 0.950 . S
C305 C302 1.387 . S
C306 C307 1.387 1_455 S
C306 H310 0.950 . S
C306 C315 1.390 . S
C307 C306 1.387 1_655 S
C307 C309 1.387 . S
H308 C315 0.950 . S
C309 C307 1.387 . S
C309 C311 1.390 . S
C309 H313 0.950 1_556 S
H310 C306 0.950 . S
C311 C309 1.390 . S
C311 C312 1.387 . S
C311 H314 0.950 . S
C312 C311 1.387 . S
C312 C315 1.387 1_655 S
H313 C309 0.950 1_554 S
H314 C311 0.950 . S
C315 C306 1.390 . S
C315 H308 0.950 . S
C315 C312 1.387 1_455 S
C316 C317 1.387 . S
C316 H320 0.950 . S
C316 C325 1.390 . S
C317 C316 1.387 . S
C317 C319 1.387 . S
H318 C325 0.950 . S
C319 C317 1.387 . S
C319 C321 1.390 . S
C319 H323 0.950 . S
H320 C316 0.950 . S
C321 C319 1.390 . S
C321 C322 1.387 . S
C321 H324 0.950 1_455 S
C322 C321 1.387 . S
C322 C325 1.387 . S
H323 C319 0.950 . S
H324 C321 0.950 1_655 S
C325 C316 1.390 . S
C325 H318 0.950 . S
C325 C322 1.387 . S
C326 C327 1.387 . S
C326 H330 0.941 1_545 S
C326 C335 1.390 1_545 S
C327 C326 1.387 . S
C327 C329 1.387 . S
H328 C335 0.950 . S
C329 C327 1.387 . S
C329 C331 1.390 . S
C329 H333 0.950 . S
H330 C326 0.941 1_565 S
C331 C329 1.390 . S
C331 C332 1.387 . S
C331 H334 0.950 . S
C332 C331 1.387 . S
C332 C335 1.387 1_545 S
H333 C329 0.950 . S
H334 C331 0.950 . S
C335 C326 1.390 1_565 S
C335 H328 0.950 . S
C335 C332 1.387 1_565 S
C336 C337 1.387 . S
C336 H340 0.950 . S
C336 C345 1.390 . S
C337 C336 1.387 . S
C337 C339 1.387 . S
H338 C345 0.950 . S
C339 C337 1.387 . S
C339 C341 1.390 . S
C339 H343 0.950 . S
H340 C336 0.950 . S
C341 C339 1.390 . S
C341 C342 1.387 . S
C341 H344 0.950 . S
C342 C341 1.387 . S
C342 C345 1.387 . S
H343 C339 0.950 . S
H344 C341 0.950 . S
C345 C336 1.390 . S
C345 H338 0.950 . S
C345 C342 1.387 . S
C346 C347 1.387 . S
C346 H350 0.950 . S
C346 C355 1.390 . S
C347 C346 1.387 . S
C347 C349 1.387 . S
H348 C355 0.950 . S
C349 C347 1.387 . S
C349 C351 1.390 . S
C349 H353 0.950 . S
H350 C346 0.950 . S
C351 C349 1.390 . S
C351 C352 1.387 . S
C351 H354 0.950 . S
C352 C351 1.387 . S
C352 C355 1.387 . S
H353 C349 0.950 . S
H354 C351 0.950 . S
C355 C346 1.390 . S
C355 H348 0.950 . S
C355 C352 1.387 . S
C356 C357 1.387 . S
C356 H360 0.950 . S
C356 C365 1.390 . S
C357 C356 1.387 . S
C357 C359 1.387 1_655 S
H358 C365 0.950 . S
C359 C357 1.387 1_455 S
C359 C361 1.390 . S
C359 H363 0.950 . S
H360 C356 0.950 . S
C361 C359 1.390 . S
C361 C362 1.387 . S
C361 H364 0.950 . S
C362 C361 1.387 . S
C362 C365 1.387 1_455 S
H363 C359 0.950 . S
H364 C361 0.950 . S
C365 C356 1.390 . S
C365 H358 0.950 . S
C365 C362 1.387 1_655 S
C366 C367 1.387 . S
C366 H370 0.950 . S
C366 C375 1.390 . S
C367 C366 1.387 . S
C367 C369 1.387 1_566 S
H368 C375 0.950 . S
C369 C367 1.387 1_544 S
C369 C371 1.390 1_554 S
C369 H373 0.950 . S
H370 C366 0.950 . S
C371 C369 1.390 1_556 S
C371 C372 1.387 . S
C371 H374 0.950 1_556 S
C372 C371 1.387 . S
C372 C375 1.387 1_545 S
H373 C369 0.950 . S
H374 C371 0.950 1_554 S
C375 C366 1.390 . S
C375 H368 0.950 . S
C375 C372 1.387 1_565 S
C376 C377 1.387 1_554 S
C376 H380 0.950 . S
C376 C385 1.390 1_554 S
C377 C376 1.387 1_556 S
C377 C379 1.387 . S
H378 C385 0.950 1_554 S
C379 C377 1.387 . S
C379 C381 1.390 . S
C379 H383 0.950 . S
H380 C376 0.950 . S
C381 C379 1.390 . S
C381 C382 1.387 . S
C381 H384 0.950 . S
C382 C381 1.387 . S
C382 C385 1.387 . S
H383 C379 0.950 . S
H384 C381 0.950 . S
C385 C376 1.390 1_556 S
C385 H378 0.950 1_556 S
C385 C382 1.387 . S
C386 C387 1.387 1_554 S
C386 H390 0.950 . S
C386 C395 1.390 1_554 S
C387 C386 1.387 1_556 S
C387 C389 1.387 . S
H388 C395 0.950 1_554 S
C389 C387 1.387 . S
C389 C391 1.390 . S
C389 H393 0.950 . S
H390 C386 0.950 . S
C391 C389 1.390 . S
C391 C392 1.387 . S
C391 H394 0.950 . S
C392 C391 1.387 . S
C392 C395 1.387 . S
H393 C389 0.950 . S
H394 C391 0.950 . S
C395 C386 1.390 1_556 S
C395 H388 0.950 1_556 S
C395 C392 1.387 . S
C396 C397 1.387 . S
C396 H400 0.950 . S
C396 C405 1.390 . S
C397 C396 1.387 . S
C397 C399 1.387 1_554 S
H398 C405 0.950 1_655 S
C399 C397 1.387 1_556 S
C399 C401 1.390 . S
C399 H403 0.950 . S
H400 C396 0.950 . S
C401 C399 1.390 . S
C401 C402 1.387 . S
C401 H404 0.950 . S
C402 C401 1.387 . S
C402 C405 1.387 1_556 S
H403 C399 0.950 . S
H404 C401 0.950 . S
C405 C396 1.390 . S
C405 H398 0.950 1_455 S
C405 C402 1.387 1_554 S
C406 C407 1.387 . S
C406 H410 0.950 . S
C406 C415 1.390 1_554 S
C407 C406 1.387 . S
C407 C409 1.387 . S
H408 C415 0.950 . S
C409 C407 1.387 . S
C409 C411 1.390 1_554 S
C409 H413 0.950 1_545 S
H410 C406 0.950 . S
C411 C409 1.390 1_556 S
C411 C412 1.387 . S
C411 H414 0.950 1_545 S
C412 C411 1.387 . S
C412 C415 1.387 . S
H413 C409 0.950 1_565 S
H414 C411 0.950 1_565 S
C415 C406 1.390 1_556 S
C415 H408 0.950 . S
C415 C412 1.387 . S
C416 C417 1.387 . S
C416 H420 0.950 . S
C416 C425 1.390 . S
C417 C416 1.387 . S
C417 C419 1.387 . S
H418 C425 0.950 . S
C419 C417 1.387 . S
C419 C421 1.390 1_554 S
C419 H423 0.950 . S
H420 C416 0.950 . S
C421 C419 1.390 1_556 S
C421 C422 1.387 . S
C421 H424 0.950 . S
C422 C421 1.387 . S
C422 C425 1.387 1_556 S
H423 C419 0.950 . S
H424 C421 0.950 . S
C425 C416 1.390 . S
C425 H418 0.950 . S
C425 C422 1.387 1_554 S
C426 C427 1.387 . S
C426 H430 0.950 . S
C426 C435 1.390 1_554 S
C427 C426 1.387 . S
C427 C429 1.387 . S
H428 C435 0.950 . S
C429 C427 1.387 . S
C429 C431 1.390 1_554 S
C429 H433 0.950 . S
H430 C426 0.950 . S
C431 C429 1.390 1_556 S
C431 C432 1.387 . S
C431 H434 0.950 . S
C432 C431 1.387 . S
C432 C435 1.387 . S
H433 C429 0.950 . S
H434 C431 0.950 . S
C435 C426 1.390 1_556 S
C435 H428 0.950 . S
C435 C432 1.387 . S
C436 C437 1.387 1_455 S
C436 H440 0.950 . S
C436 C445 1.390 . S
C437 C436 1.387 1_655 S
C437 C439 1.387 . S
H438 C445 0.950 . S
C439 C437 1.387 . S
C439 C441 1.390 . S
C439 H443 0.950 . S
H440 C436 0.950 . S
C441 C439 1.390 . S
C441 C442 1.387 . S
C441 H444 0.950 . S
C442 C441 1.387 . S
C442 C445 1.387 1_655 S
H443 C439 0.950 . S
H444 C441 0.950 . S
C445 C436 1.390 . S
C445 H438 0.950 . S
C445 C442 1.387 1_455 S
C446 C447 1.387 1_545 S
C446 H450 0.950 . S
C446 C455 1.390 . S
C447 C446 1.387 1_565 S
C447 C449 1.387 . S
H448 C455 0.950 . S
C449 C447 1.387 . S
C449 C451 1.390 . S
C449 H453 0.950 . S
H450 C446 0.950 . S
C451 C449 1.390 . S
C451 C452 1.387 . S
C451 H454 0.950 . S
C452 C451 1.387 . S
C452 C455 1.387 1_565 S
H453 C449 0.950 . S
H454 C451 0.950 . S
C455 C446 1.390 . S
C455 H448 0.950 . S
C455 C452 1.387 1_545 S
C456 C457 1.387 . S
C456 H460 0.950 . S
C456 C465 1.390 . S
C457 C456 1.387 . S
C457 C459 1.387 . S
H458 C465 0.950 . S
C459 C457 1.387 . S
C459 C461 1.390 . S
C459 H463 0.950 . S
H460 C456 0.950 . S
C461 C459 1.390 . S
C461 C462 1.387 . S
C461 H464 0.950 . S
C462 C461 1.387 . S
C462 C465 1.387 . S
H463 C459 0.950 . S
H464 C461 0.950 . S
C465 C456 1.390 . S
C465 H458 0.950 . S
C465 C462 1.387 . S
C466 C467 1.387 . S
C466 H470 0.950 . S
C466 C475 1.390 . S
C467 C466 1.387 . S
C467 C469 1.387 . S
H468 C475 0.950 . S
C469 C467 1.387 . S
C469 C471 1.390 . S
C469 H473 0.950 . S
H470 C466 0.950 . S
C471 C469 1.390 . S
C471 C472 1.387 . S
C471 H474 0.950 . S
C472 C471 1.387 . S
C472 C475 1.387 . S
H473 C469 0.950 . S
H474 C471 0.950 . S
C475 C466 1.390 . S
C475 H468 0.950 . S
C475 C472 1.387 . S
C237 C125 1.536 . S
C242 C167 1.482 . S
C252 C191 1.478 . S
C247 C144 1.536 . S
C262 C212 1.478 . S
C257 C87 1.536 . S
C272 C230 1.471 1_455 S
C267 C106 1.539 . S
C282 C170 1.391 1_565 S
C277 C49 1.520 . S
C287 C68 1.519 . S
C292 C188 1.391 . S
C297 C11 1.520 . S
C302 C209 1.393 . S
C307 C30 1.519 . S
C312 C233 1.390 1_655 S
C322 C168 0.980 . S
C317 C97 0.949 . S
C332 C186 0.983 . S
C327 C116 0.951 . S
C342 C207 0.980 . S
C337 C135 0.947 . S
C347 C78 0.949 . S
C352 C231 0.981 . S
C357 C21 1.032 . S
C362 C166 1.080 . S
C372 C190 1.080 . S
C367 C40 1.029 . S
C382 C211 1.078 . S
C377 C59 1.030 . S
C387 C2 1.029 . S
C392 C229 1.077 . S
C397 C101 1.589 . S
C402 C169 1.543 . S
C407 C120 1.592 . S
C412 C187 1.545 . S
C422 C208 1.544 . S
C417 C139 1.589 . S
C432 C232 1.544 . S
C427 C82 1.589 . S
C437 C25 1.471 . S
C442 C165 1.419 1_655 S
C452 C189 1.410 1_565 S
C447 C44 1.471 . S
C462 C210 1.418 . S
C457 C63 1.468 . S
C467 C6 1.471 . S
C472 C228 1.421 . S
