# Generated by pormake.
# Topology rtl, (3,6)-cn, num edge types: 1
# Building blocks:
#     Node 0, Type 0, BuildingBlock: INOVEN_clean_linker_0, # of connection points: 3
#     Node 1, Type 0, BuildingBlock: INOVEN_clean_linker_0, # of connection points: 3
#     Node 2, Type 0, BuildingBlock: INOVEN_clean_linker_0, # of connection points: 3
#     Node 3, Type 0, BuildingBlock: INOVEN_clean_linker_0, # of connection points: 3
#     Node 4, Type 1, BuildingBlock: LEVNOQ01_clean_sbu_1, # of connection points: 6
#     Node 5, Type 1, BuildingBlock: LEVNOQ01_clean_sbu_1, # of connection points: 6
#     Edge 6, Type (0, 1), BuildingBlock: FUNLAD_clean_linker_1, # of connection points: 2
#     Edge 7, Type (0, 1), BuildingBlock: FUNLAD_clean_linker_1, # of connection points: 2
#     Edge 8, Type (0, 1), BuildingBlock: FUNLAD_clean_linker_1, # of connection points: 2
#     Edge 9, Type (0, 1), BuildingBlock: FUNLAD_clean_linker_1, # of connection points: 2
#     Edge 10, Type (0, 1), BuildingBlock: FUNLAD_clean_linker_1, # of connection points: 2
#     Edge 11, Type (0, 1), BuildingBlock: FUNLAD_clean_linker_1, # of connection points: 2
#     Edge 12, Type (0, 1), BuildingBlock: FUNLAD_clean_linker_1, # of connection points: 2
#     Edge 13, Type (0, 1), BuildingBlock: FUNLAD_clean_linker_1, # of connection points: 2
#     Edge 14, Type (0, 1), BuildingBlock: FUNLAD_clean_linker_1, # of connection points: 2
#     Edge 15, Type (0, 1), BuildingBlock: FUNLAD_clean_linker_1, # of connection points: 2
#     Edge 16, Type (0, 1), BuildingBlock: FUNLAD_clean_linker_1, # of connection points: 2
#     Edge 17, Type (0, 1), BuildingBlock: FUNLAD_clean_linker_1, # of connection points: 2
# Relax obj value: 0.015
# Max RMSD: 0.115
# Mean RMSD: 0.084
data_MOF--net-rtl--node1-LEVNOQ01_clean_sbu_1--node2-INOVEN_clean_linker_0--edge1-FUNLAD_clean_linker_1
_symmetry_space_group_name_H-M    P1
_symmetry_Int_Tables_number       1
_symmetry_cell_setting            triclinic
loop_
_symmetry_equiv_pos_as_xyz
'x, y, z'
_cell_length_a     37.317986
_cell_length_b     36.816537
_cell_length_c     23.433094
_cell_angle_alpha  90.75752
_cell_angle_beta   98.292819
_cell_angle_gamma 89.742837
loop_
_atom_site_label
_atom_site_type_symbol
_atom_site_fract_x
_atom_site_fract_y
_atom_site_fract_z
_atom_type_partial_charge
H0 H 0.21353 0.8209 0.98308 0.0
H1 H 0.13506 0.88873 0.05161 0.0
H2 H 0.21541 0.8315 0.16609 0.0
N3 N 0.2465 0.79804 0.08211 0.0
N4 N 0.26833 0.79533 0.1275 0.0
C5 C 0.20239 0.83281 0.01931 0.0
C6 C 0.17311 0.85705 0.00954 0.0
C7 C 0.21793 0.82385 0.07534 0.0
C8 C 0.20401 0.83926 0.12284 0.0
C9 C 0.17397 0.86282 0.11395 0.0
C10 C 0.15858 0.87122 0.05741 0.0
H11 H 0.68448 0.73457 0.68522 0.0
H12 H 0.62552 0.65874 0.56669 0.0
H13 H 0.69814 0.73515 0.50605 0.0
N14 N 0.71647 0.76903 0.60681 0.0
N15 N 0.74816 0.76826 0.59601 0.0
C16 C 0.67808 0.72338 0.64195 0.0
C17 C 0.65359 0.69448 0.63082 0.0
C18 C 0.69415 0.73799 0.5969 0.0
C19 C 0.68577 0.72359 0.54078 0.0
C20 C 0.6601 0.6958 0.52887 0.0
C21 C 0.64427 0.68126 0.57441 0.0
H22 H 0.78539 0.2059 0.88973 0.0
H23 H 0.87581 0.15393 0.99204 0.0
H24 H 0.80762 0.22786 0.07159 0.0
N25 N 0.76283 0.24284 0.9726 0.0
N26 N 0.7593 0.26908 0.00537 0.0
C27 C 0.80217 0.20154 0.93088 0.0
C28 C 0.83229 0.17854 0.93409 0.0
C29 C 0.79364 0.21987 0.97962 0.0
C30 C 0.81467 0.2141 0.0336 0.0
C31 C 0.84426 0.18985 0.03819 0.0
C32 C 0.85333 0.17283 0.98808 0.0
H33 H 0.28449 0.331 0.3936 0.0
H34 H 0.35221 0.39994 0.5146 0.0
H35 H 0.27729 0.32682 0.57472 0.0
N36 N 0.25372 0.29617 0.47184 0.0
N37 N 0.25415 0.27192 0.50857 0.0
C38 C 0.29283 0.34136 0.43686 0.0
C39 C 0.31976 0.36837 0.44803 0.0
C40 C 0.27813 0.3257 0.48254 0.0
C41 C 0.28901 0.3383 0.53928 0.0
C42 C 0.31572 0.36485 0.5507 0.0
C43 C 0.33126 0.3795 0.50526 0.0
O44 O 0.00184 0.06687 0.66364 0.0
Mg45 Mg 0.04724 0.05263 0.62609 0.0
O46 O 0.9615 0.046 0.59196 0.0
Mg47 Mg -0.0023 0.01953 0.52645 0.0
O48 O 0.04301 0.0632 0.54133 0.0
O49 O 0.08137 0.09181 0.60986 0.0
O50 O 0.03555 0.9923 0.46444 0.0
O51 O 0.97075 0.06018 0.45575 0.0
Mg52 Mg 0.95599 0.97746 0.41905 0.0
O53 O 0.95197 0.97789 0.5056 0.0
O54 O 0.00483 0.95506 0.40057 0.0
O55 O 0.94261 0.02793 0.382 0.0
O56 O 0.91612 0.94468 0.44084 0.0
C57 C 0.05204 0.9757 0.63496 0.0
C58 C 0.96938 0.06138 0.64153 0.0
C59 C 0.06859 0.0868 0.5561 0.0
C60 C 0.03457 0.96892 0.42333 0.0
C61 C 0.95222 0.05821 0.40547 0.0
C62 C 0.92615 0.95437 0.4939 0.0
O63 O 0.0713 0.00347 0.64784 0.0
O64 O 0.02329 0.97751 0.59803 0.0
O65 O 0.56618 0.52024 0.17876 0.0
Mg66 Mg 0.54383 0.47196 0.14057 0.0
O67 O 0.52817 0.55365 0.1196 0.0
Mg68 Mg 0.49976 0.51772 0.04298 0.0
O69 O 0.54374 0.4726 0.05331 0.0
O70 O 0.57779 0.43461 0.11229 0.0
O71 O 0.47077 0.48049 0.96659 0.0
O72 O 0.53818 0.54497 0.98426 0.0
Mg73 Mg 0.45737 0.55895 0.95002 0.0
O74 O 0.45682 0.56511 0.03669 0.0
O75 O 0.43018 0.51367 0.91257 0.0
O76 O 0.50352 0.57577 0.91743 0.0
O77 O 0.4253 0.59985 0.96862 0.0
C78 C 0.46438 0.46724 0.14269 0.0
C79 C 0.55265 0.55081 0.16336 0.0
C80 C 0.56821 0.44725 0.06125 0.0
C81 C 0.44453 0.48317 0.92527 0.0
C82 C 0.53455 0.5653 0.94008 0.0
C83 C 0.43376 0.59124 0.0221 0.0
O84 O 0.49475 0.45441 0.16457 0.0
O85 O 0.46196 0.4898 0.10135 0.0
H86 H 0.23478 0.22107 0.5349 0.0
C87 C 0.22926 0.2427 0.50369 0.0
H88 H 0.19063 0.26438 0.43738 0.0
H89 H 0.11836 0.10468 0.4147 0.0
H90 H 0.13558 0.11131 0.31915 0.0
H91 H 0.16825 0.16583 0.29478 0.0
H92 H 0.1841 0.21407 0.36599 0.0
C93 C 0.19734 0.24306 0.46874 0.0
C94 C 0.1697 0.21534 0.47694 0.0
C95 C 0.15982 0.1881 0.43439 0.0
C96 C 0.14071 0.15681 0.44824 0.0
C97 C 0.1325 0.12914 0.40602 0.0
C98 C 0.14228 0.1326 0.35116 0.0
C99 C 0.16072 0.16331 0.33746 0.0
C100 C 0.16968 0.19074 0.37858 0.0
H101 H 0.06504 0.12104 0.47849 0.0
C102 C 0.08336 0.10878 0.51323 0.0
H103 H 0.13582 0.10575 0.55949 0.0
H104 H 0.17528 0.26759 0.5621 0.0
H105 H 0.15623 0.26215 0.65644 0.0
H106 H 0.12538 0.20684 0.68217 0.0
H107 H 0.11295 0.15715 0.61361 0.0
C108 C 0.1183 0.11852 0.52416 0.0
C109 C 0.13144 0.15332 0.50434 0.0
C110 C 0.13822 0.18222 0.545 0.0
C111 C 0.15674 0.21359 0.53083 0.0
C112 C 0.16248 0.2425 0.57162 0.0
C113 C 0.1514 0.23988 0.62569 0.0
C114 C 0.134 0.2088 0.64013 0.0
C115 C 0.1272 0.18034 0.60036 0.0
H116 H 0.32317 0.77607 0.15147 0.0
C117 C 0.29605 0.76851 0.13177 0.0
H118 H 0.26208 0.72796 0.09036 0.0
H119 H 0.37434 0.64994 0.9577 0.0
H120 H 0.3291 0.67077 0.8809 0.0
H121 H 0.27924 0.71071 0.90161 0.0
H122 H 0.27424 0.72959 -0.0008 0.0
C123 C 0.28959 0.73511 0.10875 0.0
C124 C 0.31943 0.71012 0.09768 0.0
C125 C 0.32225 0.69991 0.03987 0.0
C126 C 0.35157 0.67782 0.02772 0.0
C127 C 0.35322 0.66738 0.96962 0.0
C128 C 0.32728 0.67904 0.9249 0.0
C129 C 0.2992 0.70143 0.93658 0.0
C130 C 0.29661 0.71192 0.99314 0.0
H131 H 0.40222 0.59678 0.09473 0.0
C132 C 0.41631 0.61167 0.06503 0.0
H133 H 0.4256 0.66135 0.02715 0.0
H134 H 0.31844 0.71874 0.21372 0.0
H135 H 0.36435 0.69817 0.29071 0.0
H136 H 0.41781 0.6639 0.26886 0.0
H137 H 0.42531 0.64932 0.16984 0.0
C138 C 0.41113 0.64756 0.05771 0.0
C139 C 0.37861 0.66666 0.07311 0.0
C140 C 0.37525 0.67579 0.13098 0.0
C141 C 0.34518 0.69694 0.14341 0.0
C142 C 0.34151 0.70416 0.20174 0.0
C143 C 0.36751 0.69225 0.24634 0.0
C144 C 0.39757 0.67285 0.23404 0.0
C145 C 0.40153 0.66461 0.17708 0.0
H146 H 0.75521 0.82645 0.59174 0.0
C147 C 0.76896 0.80044 0.59883 0.0
H148 H 0.81791 0.77198 0.61134 0.0
H149 H 0.90468 0.87481 0.4704 0.0
H150 H 0.91023 0.81619 0.42495 0.0
H151 H 0.87747 0.76304 0.45387 0.0
H152 H 0.83949 0.76818 0.52867 0.0
C153 C 0.80513 0.79843 0.60438 0.0
C154 C 0.82754 0.82994 0.59143 0.0
C155 C 0.84971 0.82618 0.54722 0.0
C156 C 0.86785 0.85693 0.52939 0.0
C157 C 0.8898 0.85254 0.48512 0.0
C158 C 0.89332 0.81895 0.45863 0.0
C159 C 0.87496 0.78905 0.47501 0.0
C160 C 0.85329 0.79245 0.51848 0.0
H161 H 0.92536 0.93079 0.58012 0.0
C162 C 0.9089 0.93731 0.53943 0.0
H163 H 0.85938 0.93072 0.48492 0.0
H164 H 0.79466 0.84511 0.6865 0.0
H165 H 0.78922 0.90438 0.73125 0.0
H166 H 0.81742 0.95843 0.69533 0.0
H167 H 0.85172 0.95333 0.61473 0.0
C168 C 0.87527 0.92395 0.52605 0.0
C169 C 0.86315 0.8915 0.55461 0.0
C170 C 0.84292 0.895 0.60091 0.0
C171 C 0.82565 0.86402 0.62026 0.0
C172 C 0.80687 0.86801 0.66831 0.0
C173 C 0.80388 0.90182 0.69476 0.0
C174 C 0.81981 0.93225 0.67459 0.0
C175 C 0.83927 0.92902 0.62829 0.0
H176 H 0.70462 0.28092 0.96473 0.0
C177 C 0.72741 0.29038 0.99559 0.0
H178 H 0.74729 0.33135 0.0552 0.0
H179 H 0.6139 0.42432 0.91155 0.0
H180 H 0.6591 0.43793 0.85004 0.0
H181 H 0.71895 0.40797 0.8649 0.0
H182 H 0.73385 0.36389 0.94106 0.0
C183 C 0.7248 0.32168 0.02415 0.0
C184 C 0.68993 0.34186 0.01757 0.0
C185 C 0.68187 0.36793 0.97362 0.0
C186 C 0.6477 0.38594 0.96608 0.0
C187 C 0.63987 0.41081 0.9204 0.0
C188 C 0.66547 0.41865 0.88453 0.0
C189 C 0.69914 0.40171 0.89281 0.0
C190 C 0.70734 0.37649 0.93661 0.0
H191 H 0.61355 0.45028 0.01405 0.0
C192 C 0.58882 0.43513 0.01581 0.0
H193 H 0.56302 0.38494 0.00418 0.0
H194 H 0.69724 0.29313 0.10558 0.0
H195 H 0.65327 0.2805 0.16921 0.0
H196 H 0.5949 0.31309 0.15923 0.0
H197 H 0.58 0.358 0.08574 0.0
C198 C 0.58771 0.39981 0.00091 0.0
C199 C 0.62211 0.37858 0.00374 0.0
C200 C 0.63038 0.35236 0.0479 0.0
C201 C 0.66425 0.33393 0.05449 0.0
C202 C 0.67189 0.30793 0.0987 0.0
C203 C 0.64695 0.30044 0.13569 0.0
C204 C 0.6141 0.31876 0.13001 0.0
C205 C 0.60583 0.3445 0.08706 0.0
H206 H 0.1276 0.88473 0.15218 0.0
C207 C 0.1561 0.87742 0.16205 0.0
H208 H 0.20162 0.87815 0.22797 0.0
H209 H 0.09729 0.99996 0.32853 0.0
H210 H 0.13553 0.04037 0.28325 0.0
H211 H 0.18205 0.01601 0.22815 0.0
H212 H 0.19035 0.95083 0.21765 0.0
C213 C 0.17288 0.88329 0.21603 0.0
C214 C 0.15152 0.89767 0.26033 0.0
C215 C 0.14813 0.93563 0.26851 0.0
C216 C 0.12178 0.94961 0.30144 0.0
C217 C 0.11742 0.98773 0.30548 0.0
C218 C 0.13912 0.01129 0.2794 0.0
C219 C 0.16528 0.99758 0.24829 0.0
C220 C 0.16975 0.96019 0.24254 0.0
H221 H 0.09427 0.96673 0.42412 0.0
C222 C 0.06831 0.95818 0.40085 0.0
H223 H 0.04097 0.92975 0.32883 0.0
H224 H 0.15476 0.82359 0.25878 0.0
H225 H 0.1178 0.78254 0.30581 0.0
H226 H 0.07271 0.80638 0.36416 0.0
H227 H 0.06428 0.87134 0.37585 0.0
C228 C 0.06699 0.93866 0.35149 0.0
C229 C 0.09952 0.92534 0.32723 0.0
C230 C 0.10486 0.88729 0.3222 0.0
C231 C 0.13089 0.87348 0.28876 0.0
C232 C 0.13513 0.83541 0.28343 0.0
C233 C 0.11421 0.81158 0.31034 0.0
C234 C 0.08883 0.82501 0.34317 0.0
C235 C 0.08414 0.86236 0.3493 0.0
H236 H 0.6072 0.67578 0.67058 0.0
C237 C 0.63658 0.67786 0.67695 0.0
H238 H 0.68547 0.66117 0.72661 0.0
H239 H 0.60439 0.63566 0.94486 0.0
H240 H 0.64932 0.68064 0.9816 0.0
H241 H 0.68972 0.7068 0.91843 0.0
H242 H 0.6852 0.68823 0.81791 0.0
C243 C 0.65606 0.66027 0.72084 0.0
C244 C 0.63757 0.63893 0.76161 0.0
C245 C 0.6415 0.64911 0.8207 0.0
C246 C 0.61848 0.63367 0.85732 0.0
C247 C 0.62156 0.64588 0.91535 0.0
C248 C 0.64719 0.67183 0.93699 0.0
C249 C 0.66992 0.68658 0.90141 0.0
C250 C 0.66706 0.67565 0.8438 0.0
H251 H 0.59302 0.56577 0.93067 0.0
C252 C 0.56639 0.57609 0.9134 0.0
H253 H 0.53543 0.60722 0.84889 0.0
H254 H 0.6305 0.60586 0.65502 0.0
H255 H 0.58717 0.55906 0.6189 0.0
H256 H 0.54575 0.53378 0.68129 0.0
H257 H 0.54781 0.55487 0.78035 0.0
C258 C 0.56226 0.59788 0.86718 0.0
C259 C 0.59207 0.6077 0.83469 0.0
C260 C 0.59058 0.59504 0.77702 0.0
C261 C 0.61377 0.61022 0.74069 0.0
C262 C 0.61242 0.59632 0.68373 0.0
C263 C 0.58795 0.56919 0.66266 0.0
C264 C 0.56467 0.55493 0.69779 0.0
C265 C 0.56599 0.56743 0.75444 0.0
H266 H 0.89292 0.16994 0.09415 0.0
C267 C 0.86552 0.1801 0.09446 0.0
H268 H 0.82259 0.1841 0.14421 0.0
H269 H 0.8911 0.04369 0.27654 0.0
H270 H 0.84236 0.0163 0.21106 0.0
H271 H 0.80555 0.0528 0.13672 0.0
H272 H 0.8173 0.11704 0.12769 0.0
C273 C 0.85086 0.17732 0.14336 0.0
C274 C 0.87052 0.15684 0.19265 0.0
C275 C 0.86292 0.11948 0.19795 0.0
C276 C 0.88448 0.09839 0.24023 0.0
C277 C 0.87622 0.06101 0.24445 0.0
C278 C 0.84811 0.0449 0.2073 0.0
C279 C 0.82737 0.06545 0.16551 0.0
C280 C 0.83447 0.10231 0.16078 0.0
H281 H 0.92923 0.1138 0.39549 0.0
C282 C 0.94028 0.09124 0.37324 0.0
H283 H 0.94994 0.06767 0.2948 0.0
H284 H 0.88913 0.22846 0.19796 0.0
H285 H 0.93869 0.25615 0.26256 0.0
H286 H 0.97799 0.21913 0.3332 0.0
H287 H 0.96778 0.1544 0.34036 0.0
C288 C 0.93843 0.09072 0.31548 0.0
C289 C 0.91378 0.11465 0.27702 0.0
C290 C 0.92057 0.15233 0.27311 0.0
C291 C 0.89856 0.17352 0.23123 0.0
C292 C 0.9055 0.21113 0.22839 0.0
C293 C 0.93376 0.22731 0.26523 0.0
C294 C 0.95584 0.20647 0.30511 0.0
C295 C 0.94957 0.16936 0.30901 0.0
H296 H 0.30835 0.39194 0.63281 0.0
C297 C 0.32758 0.37729 0.61034 0.0
H298 H 0.38032 0.35656 0.6129 0.0
H299 H 0.45454 0.47467 0.78696 0.0
H300 H 0.48379 0.48362 0.70249 0.0
H301 H 0.46394 0.44953 0.61225 0.0
H302 H 0.4149 0.4063 0.60603 0.0
C303 C 0.36157 0.37138 0.63612 0.0
C304 C 0.3757 0.38876 0.69257 0.0
C305 C 0.40498 0.41352 0.69557 0.0
C306 C 0.41625 0.4334 0.74741 0.0
C307 C 0.44489 0.45872 0.74881 0.0
C308 C 0.46193 0.46419 0.70055 0.0
C309 C 0.45078 0.44498 0.64979 0.0
C310 C 0.4226 0.42006 0.64696 0.0
H311 H 0.45001 0.42742 0.89019 0.0
C312 C 0.43318 0.45167 0.88735 0.0
H313 H 0.38783 0.47879 0.84218 0.0
H314 H 0.32377 0.33816 0.70532 0.0
H315 H 0.29396 0.3301 0.78973 0.0
H316 H 0.31136 0.36719 0.87777 0.0
H317 H 0.35923 0.41217 0.88219 0.0
C318 C 0.40485 0.45466 0.84505 0.0
C319 C 0.3981 0.42864 0.79593 0.0
C320 C 0.37 0.4028 0.79383 0.0
C321 C 0.35921 0.38227 0.74244 0.0
C322 C 0.33198 0.35559 0.74235 0.0
C323 C 0.31489 0.35045 0.79072 0.0
C324 C 0.32474 0.37129 0.84033 0.0
C325 C 0.3521 0.39708 0.84223 0.0
H326 H 0.67206 0.68162 0.4413 0.0
C327 C 0.65115 0.68131 0.46918 0.0
H328 H 0.59682 0.66735 0.47524 0.0
H329 H 0.58768 0.65014 0.19414 0.0
H330 H 0.58049 0.71566 0.19501 0.0
H331 H 0.58749 0.75027 0.28682 0.0
H332 H 0.6023 0.71953 0.37839 0.0
C333 C 0.61855 0.6672 0.44904 0.0
C334 C 0.61251 0.64663 0.39373 0.0
C335 C 0.60328 0.66487 0.34081 0.0
C336 C 0.598 0.64473 0.28801 0.0
C337 C 0.59049 0.66385 0.23561 0.0
C338 C 0.58661 0.70152 0.23549 0.0
C339 C 0.59064 0.72103 0.28717 0.0
C340 C 0.59913 0.70308 0.33937 0.0
H341 H 0.54129 0.60216 0.20694 0.0
C342 C 0.56233 0.58249 0.2013 0.0
H343 H 0.61539 0.56421 0.22793 0.0
H344 H 0.62931 0.6036 0.48836 0.0
H345 H 0.63302 0.53789 0.4887 0.0
H346 H 0.62114 0.50248 0.39791 0.0
H347 H 0.60579 0.53243 0.30651 0.0
C348 C 0.59476 0.58415 0.23461 0.0
C349 C 0.60075 0.60626 0.28873 0.0
C350 C 0.60924 0.58802 0.3421 0.0
C351 C 0.61537 0.60829 0.39454 0.0
C352 C 0.62414 0.5895 0.44719 0.0
C353 C 0.62635 0.55176 0.44808 0.0
C354 C 0.61972 0.53185 0.39699 0.0
C355 C 0.61114 0.54954 0.3446 0.0
H356 H 0.81823 0.16041 0.84336 0.0
C357 C 0.83975 0.16038 0.88004 0.0
H358 H 0.89451 0.14524 0.90691 0.0
H359 H 0.88489 0.02349 0.70911 0.0
H360 H 0.87759 0.98546 0.79097 0.0
H361 H 0.87046 0.01305 0.88531 0.0
H362 H 0.86957 0.07862 0.89807 0.0
C363 C 0.87174 0.14569 0.87249 0.0
C364 C 0.87672 0.1292 0.81595 0.0
C365 C 0.87722 0.09094 0.80944 0.0
C366 C 0.88246 0.07503 0.75568 0.0
C367 C 0.88205 0.03674 0.74975 0.0
C368 C 0.87768 0.01473 0.79618 0.0
C369 C 0.87356 0.03026 0.84924 0.0
C370 C 0.87311 0.06791 0.85599 0.0
H371 H 0.95274 0.07033 0.72528 0.0
C372 C 0.94229 0.06992 0.67939 0.0
H373 H 0.89765 0.08462 0.61778 0.0
H374 H 0.87741 0.2036 0.8141 0.0
H375 H 0.88533 0.24115 0.73265 0.0
H376 H 0.89411 0.21339 0.63924 0.0
H377 H 0.89521 0.14777 0.6269 0.0
C378 C 0.90837 0.08163 0.66309 0.0
C379 C 0.88908 0.09734 0.7094 0.0
C380 C 0.88647 0.13561 0.71494 0.0
C381 C 0.88075 0.15161 0.76852 0.0
C382 C 0.88071 0.18998 0.77401 0.0
C383 C 0.88545 0.21187 0.72767 0.0
C384 C 0.89048 0.19624 0.67512 0.0
C385 C 0.89116 0.15857 0.66865 0.0
H386 H 0.36405 0.39796 0.4163 0.0
C387 C 0.33846 0.38417 0.40239 0.0
H388 H 0.30084 0.36965 0.32877 0.0
H389 H 0.40824 0.49822 0.24709 0.0
H390 H 0.37181 0.53944 0.29631 0.0
H391 H 0.32378 0.51624 0.34816 0.0
H392 H 0.31222 0.45145 0.35153 0.0
C393 C 0.32615 0.38284 0.34563 0.0
C394 C 0.34909 0.39724 0.30427 0.0
C395 C 0.35432 0.43519 0.30024 0.0
C396 C 0.38127 0.44858 0.26883 0.0
C397 C 0.38745 0.48651 0.26872 0.0
C398 C 0.36682 0.51052 0.29709 0.0
C399 C 0.33983 0.49746 0.3264 0.0
C400 C 0.33356 0.46025 0.32818 0.0
H401 H 0.40517 0.46498 0.14519 0.0
C402 C 0.43155 0.45632 0.16656 0.0
H403 H 0.46047 0.42741 0.23583 0.0
H404 H 0.34368 0.32316 0.29987 0.0
H405 H 0.37942 0.28163 0.24959 0.0
H406 H 0.42537 0.30472 0.19344 0.0
H407 H 0.43591 0.36945 0.18728 0.0
C408 C 0.43414 0.43659 0.21494 0.0
C409 C 0.40221 0.42388 0.24026 0.0
C410 C 0.39557 0.38603 0.24187 0.0
C411 C 0.36892 0.37271 0.27381 0.0
C412 C 0.36356 0.33472 0.27606 0.0
C413 C 0.38385 0.31059 0.24736 0.0
C414 C 0.40973 0.32358 0.21578 0.0
C415 C 0.41559 0.36081 0.21279 0.0
H416 H 0.16987 0.8523 0.9145 0.0
C417 C 0.15869 0.86662 0.94885 0.0
H418 H 0.12344 0.90956 0.96607 0.0
H419 H 0.12383 0.9967 0.74065 0.0
H420 H 0.15768 0.03644 0.81124 0.0
H421 H 0.17764 0.01586 0.91048 0.0
H422 H 0.16306 0.95551 0.93978 0.0
C423 C 0.13404 0.89292 0.93391 0.0
C424 C 0.12385 0.90378 0.87277 0.0
C425 C 0.13358 0.93874 0.85578 0.0
C426 C 0.12326 0.95002 0.79795 0.0
C427 C 0.13192 0.98589 0.78319 0.0
C428 C 0.15124 0.00925 0.82351 0.0
C429 C 0.16238 0.99771 0.87939 0.0
C430 C 0.15371 0.96297 0.89562 0.0
H431 H 0.03789 0.93171 0.69017 0.0
C432 C 0.06016 0.94397 0.67221 0.0
H433 H 0.11619 0.95069 0.67648 0.0
H434 H 0.09682 0.83681 0.89276 0.0
H435 H 0.06466 0.79585 0.82142 0.0
H436 H 0.05205 0.81299 0.71903 0.0
H437 H 0.07078 0.87156 0.68766 0.0
C438 C 0.0947 0.93802 0.69594 0.0
C439 C 0.10427 0.92573 0.75654 0.0
C440 C 0.09489 0.89063 0.77347 0.0
C441 C 0.10383 0.88001 0.83202 0.0
C442 C 0.09204 0.84572 0.84852 0.0
C443 C 0.07338 0.82201 0.80804 0.0
C444 C 0.06616 0.83172 0.75044 0.0
C445 C 0.07684 0.86553 0.73306 0.0
loop_
_geom_bond_atom_site_label_1
_geom_bond_atom_site_label_2
_geom_bond_distance
_geom_bond_site_symmetry_2
_ccdc_geom_bond_type
H0 C5 0.929 1_556 S
H1 C10 0.931 . S
H2 C8 0.930 . S
N3 N4 1.234 . S
N3 C7 1.453 . S
N4 N3 1.234 . S
C5 H0 0.929 1_554 S
C5 C6 1.373 . S
C5 C7 1.368 . S
C6 C5 1.373 . S
C6 C10 1.397 . S
C7 N3 1.453 . S
C7 C5 1.368 . S
C7 C8 1.373 . S
C8 H2 0.930 . S
C8 C7 1.373 . S
C8 C9 1.371 . S
C9 C8 1.371 . S
C9 C10 1.383 . S
C10 H1 0.931 . S
C10 C6 1.397 . S
C10 C9 1.383 . S
H11 C16 0.929 . S
H12 C21 0.931 . S
H13 C19 0.930 . S
N14 N15 1.234 . S
N14 C18 1.453 . S
N15 N14 1.234 . S
C16 H11 0.929 . S
C16 C17 1.373 . S
C16 C18 1.368 . S
C17 C16 1.373 . S
C17 C21 1.397 . S
C18 N14 1.453 . S
C18 C16 1.368 . S
C18 C19 1.373 . S
C19 H13 0.930 . S
C19 C18 1.373 . S
C19 C20 1.371 . S
C20 C19 1.371 . S
C20 C21 1.383 . S
C21 H12 0.931 . S
C21 C17 1.397 . S
C21 C20 1.383 . S
H22 C27 0.929 . S
H23 C32 0.931 . S
H24 C30 0.930 . S
N25 N26 1.234 1_556 S
N25 C29 1.453 . S
N26 N25 1.234 1_554 S
C27 H22 0.929 . S
C27 C28 1.373 . S
C27 C29 1.368 . S
C28 C27 1.373 . S
C28 C32 1.397 1_556 S
C29 N25 1.453 . S
C29 C27 1.368 . S
C29 C30 1.373 1_556 S
C30 H24 0.930 . S
C30 C29 1.373 1_554 S
C30 C31 1.371 . S
C31 C30 1.371 . S
C31 C32 1.383 . S
C32 H23 0.931 . S
C32 C28 1.397 1_554 S
C32 C31 1.383 . S
H33 C38 0.929 . S
H34 C43 0.931 . S
H35 C41 0.930 . S
N36 N37 1.234 . S
N36 C40 1.453 . S
N37 N36 1.234 . S
C38 H33 0.929 . S
C38 C39 1.373 . S
C38 C40 1.368 . S
C39 C38 1.373 . S
C39 C43 1.397 . S
C40 N36 1.453 . S
C40 C38 1.368 . S
C40 C41 1.373 . S
C41 H35 0.930 . S
C41 C40 1.373 . S
C41 C42 1.371 . S
C42 C41 1.371 . S
C42 C43 1.383 . S
C43 H34 0.931 . S
C43 C39 1.397 . S
C43 C42 1.383 . S
O44 Mg45 1.990 . S
O44 C58 1.253 1_455 S
Mg45 O44 1.990 . S
Mg45 O48 2.180 . S
Mg45 O49 2.117 . S
Mg45 O63 2.030 . S
O46 Mg47 2.072 1_655 S
O46 C58 1.260 . S
Mg47 O46 2.072 1_455 S
Mg47 O48 2.099 . S
Mg47 O50 2.079 1_545 S
Mg47 O51 2.072 1_455 S
Mg47 O53 2.099 1_445 S
Mg47 O64 2.079 1_545 S
O48 Mg45 2.180 . S
O48 Mg47 2.099 . S
O48 C59 1.279 . S
O49 Mg45 2.117 . S
O49 C59 1.250 . S
O50 Mg47 2.079 1_565 S
O50 C60 1.264 . S
O51 Mg47 2.072 1_655 S
O51 C61 1.260 . S
Mg52 O53 2.180 . S
Mg52 O54 2.030 1_655 S
Mg52 O55 1.990 1_565 S
Mg52 O56 2.117 . S
O53 Mg47 2.099 1_665 S
O53 Mg52 2.180 . S
O53 C62 1.279 . S
O54 Mg52 2.030 1_455 S
O54 C60 1.248 . S
O55 Mg52 1.990 1_545 S
O55 C61 1.253 . S
O56 Mg52 2.117 . S
O56 C62 1.250 . S
C57 O63 1.248 1_565 S
C57 O64 1.264 . S
C58 O44 1.253 1_655 S
C58 O46 1.260 . S
C59 O48 1.279 . S
C59 O49 1.250 . S
C60 O50 1.264 . S
C60 O54 1.248 . S
C61 O51 1.260 . S
C61 O55 1.253 . S
C62 O53 1.279 . S
C62 O56 1.250 . S
O63 Mg45 2.030 . S
O63 C57 1.248 1_545 S
O64 Mg47 2.079 1_565 S
O64 C57 1.264 . S
O65 Mg66 1.990 . S
O65 C79 1.253 . S
Mg66 O65 1.990 . S
Mg66 O69 2.180 . S
Mg66 O70 2.117 . S
Mg66 O84 2.030 . S
O67 Mg68 2.072 . S
O67 C79 1.260 . S
Mg68 O67 2.072 . S
Mg68 O69 2.099 . S
Mg68 O71 2.079 1_554 S
Mg68 O72 2.072 1_554 S
Mg68 O74 2.099 . S
Mg68 O85 2.079 . S
O69 Mg66 2.180 . S
O69 Mg68 2.099 . S
O69 C80 1.279 . S
O70 Mg66 2.117 . S
O70 C80 1.250 . S
O71 Mg68 2.079 1_556 S
O71 C81 1.264 . S
O72 Mg68 2.072 1_556 S
O72 C82 1.260 . S
Mg73 O74 2.180 1_556 S
Mg73 O75 2.030 . S
Mg73 O76 1.990 . S
Mg73 O77 2.117 . S
O74 Mg68 2.099 . S
O74 Mg73 2.180 1_554 S
O74 C83 1.279 . S
O75 Mg73 2.030 . S
O75 C81 1.248 . S
O76 Mg73 1.990 . S
O76 C82 1.253 . S
O77 Mg73 2.117 . S
O77 C83 1.250 1_556 S
C78 O84 1.248 . S
C78 O85 1.264 . S
C79 O65 1.253 . S
C79 O67 1.260 . S
C80 O69 1.279 . S
C80 O70 1.250 . S
C81 O71 1.264 . S
C81 O75 1.248 . S
C82 O72 1.260 . S
C82 O76 1.253 . S
C83 O74 1.279 . S
C83 O77 1.250 1_554 S
O84 Mg66 2.030 . S
O84 C78 1.248 . S
O85 Mg68 2.079 . S
O85 C78 1.264 . S
H86 C87 0.951 . S
C87 H86 0.951 . S
C87 C93 1.265 . S
H88 C93 0.950 . S
H89 C97 0.949 . S
H90 C98 0.950 . S
H91 C99 0.951 . S
H92 C100 0.951 . S
C93 C87 1.265 . S
C93 H88 0.950 . S
C93 C94 1.478 . S
C94 C93 1.478 . S
C94 C95 1.397 . S
C94 C111 1.394 . S
C95 C94 1.397 . S
C95 C96 1.438 . S
C95 C100 1.429 . S
C96 C95 1.438 . S
C96 C97 1.428 . S
C96 C109 1.394 . S
C97 H89 0.949 . S
C97 C96 1.428 . S
C97 C98 1.345 . S
C98 H90 0.950 . S
C98 C97 1.345 . S
C98 C99 1.424 . S
C99 H91 0.951 . S
C99 C98 1.424 . S
C99 C100 1.347 . S
C100 H92 0.951 . S
C100 C95 1.429 . S
C100 C99 1.347 . S
H101 C102 0.951 . S
C102 H101 0.951 . S
C102 C108 1.265 . S
H103 C108 0.950 . S
H104 C112 0.949 . S
H105 C113 0.950 . S
H106 C114 0.951 . S
H107 C115 0.951 . S
C108 C102 1.265 . S
C108 H103 0.950 . S
C108 C109 1.478 . S
C109 C96 1.394 . S
C109 C108 1.478 . S
C109 C110 1.397 . S
C110 C109 1.397 . S
C110 C111 1.438 . S
C110 C115 1.429 . S
C111 C94 1.394 . S
C111 C110 1.438 . S
C111 C112 1.428 . S
C112 H104 0.949 . S
C112 C111 1.428 . S
C112 C113 1.345 . S
C113 H105 0.950 . S
C113 C112 1.345 . S
C113 C114 1.424 . S
C114 H106 0.951 . S
C114 C113 1.424 . S
C114 C115 1.347 . S
C115 H107 0.951 . S
C115 C110 1.429 . S
C115 C114 1.347 . S
H116 C117 0.951 . S
C117 H116 0.951 . S
C117 C123 1.265 . S
H118 C123 0.950 . S
H119 C127 0.949 . S
H120 C128 0.950 . S
H121 C129 0.951 . S
H122 C130 0.951 . S
C123 C117 1.265 . S
C123 H118 0.950 . S
C123 C124 1.478 . S
C124 C123 1.478 . S
C124 C125 1.397 . S
C124 C141 1.394 . S
C125 C124 1.397 . S
C125 C126 1.438 . S
C125 C130 1.429 1_554 S
C126 C125 1.438 . S
C126 C127 1.428 1_554 S
C126 C139 1.394 . S
C127 H119 0.949 . S
C127 C126 1.428 1_556 S
C127 C128 1.345 . S
C128 H120 0.950 . S
C128 C127 1.345 . S
C128 C129 1.424 . S
C129 H121 0.951 . S
C129 C128 1.424 . S
C129 C130 1.347 . S
C130 H122 0.951 . S
C130 C125 1.429 1_556 S
C130 C129 1.347 . S
H131 C132 0.951 . S
C132 H131 0.951 . S
C132 C138 1.265 . S
H133 C138 0.950 . S
H134 C142 0.949 . S
H135 C143 0.950 . S
H136 C144 0.951 . S
H137 C145 0.951 . S
C138 C132 1.265 . S
C138 H133 0.950 . S
C138 C139 1.478 . S
C139 C126 1.394 . S
C139 C138 1.478 . S
C139 C140 1.397 . S
C140 C139 1.397 . S
C140 C141 1.438 . S
C140 C145 1.429 . S
C141 C124 1.394 . S
C141 C140 1.438 . S
C141 C142 1.428 . S
C142 H134 0.949 . S
C142 C141 1.428 . S
C142 C143 1.345 . S
C143 H135 0.950 . S
C143 C142 1.345 . S
C143 C144 1.424 . S
C144 H136 0.951 . S
C144 C143 1.424 . S
C144 C145 1.347 . S
C145 H137 0.951 . S
C145 C140 1.429 . S
C145 C144 1.347 . S
H146 C147 0.951 . S
C147 H146 0.951 . S
C147 C153 1.265 . S
H148 C153 0.950 . S
H149 C157 0.949 . S
H150 C158 0.950 . S
H151 C159 0.951 . S
H152 C160 0.951 . S
C153 C147 1.265 . S
C153 H148 0.950 . S
C153 C154 1.478 . S
C154 C153 1.478 . S
C154 C155 1.397 . S
C154 C171 1.394 . S
C155 C154 1.397 . S
C155 C156 1.438 . S
C155 C160 1.429 . S
C156 C155 1.438 . S
C156 C157 1.428 . S
C156 C169 1.394 . S
C157 H149 0.949 . S
C157 C156 1.428 . S
C157 C158 1.345 . S
C158 H150 0.950 . S
C158 C157 1.345 . S
C158 C159 1.424 . S
C159 H151 0.951 . S
C159 C158 1.424 . S
C159 C160 1.347 . S
C160 H152 0.951 . S
C160 C155 1.429 . S
C160 C159 1.347 . S
H161 C162 0.951 . S
C162 H161 0.951 . S
C162 C168 1.265 . S
H163 C168 0.950 . S
H164 C172 0.949 . S
H165 C173 0.950 . S
H166 C174 0.951 . S
H167 C175 0.951 . S
C168 C162 1.265 . S
C168 H163 0.950 . S
C168 C169 1.478 . S
C169 C156 1.394 . S
C169 C168 1.478 . S
C169 C170 1.397 . S
C170 C169 1.397 . S
C170 C171 1.438 . S
C170 C175 1.429 . S
C171 C154 1.394 . S
C171 C170 1.438 . S
C171 C172 1.428 . S
C172 H164 0.949 . S
C172 C171 1.428 . S
C172 C173 1.345 . S
C173 H165 0.950 . S
C173 C172 1.345 . S
C173 C174 1.424 . S
C174 H166 0.951 . S
C174 C173 1.424 . S
C174 C175 1.347 . S
C175 H167 0.951 . S
C175 C170 1.429 . S
C175 C174 1.347 . S
H176 C177 0.951 1_556 S
C177 H176 0.951 1_554 S
C177 C183 1.265 . S
H178 C183 0.950 . S
H179 C187 0.949 . S
H180 C188 0.950 . S
H181 C189 0.951 . S
H182 C190 0.951 . S
C183 C177 1.265 . S
C183 H178 0.950 . S
C183 C184 1.478 . S
C184 C183 1.478 . S
C184 C185 1.397 1_554 S
C184 C201 1.394 . S
C185 C184 1.397 1_556 S
C185 C186 1.438 . S
C185 C190 1.429 . S
C186 C185 1.438 . S
C186 C187 1.428 . S
C186 C199 1.394 1_556 S
C187 H179 0.949 . S
C187 C186 1.428 . S
C187 C188 1.345 . S
C188 H180 0.950 . S
C188 C187 1.345 . S
C188 C189 1.424 . S
C189 H181 0.951 . S
C189 C188 1.424 . S
C189 C190 1.347 . S
C190 H182 0.951 . S
C190 C185 1.429 . S
C190 C189 1.347 . S
H191 C192 0.951 . S
C192 H191 0.951 . S
C192 C198 1.265 . S
H193 C198 0.950 . S
H194 C202 0.949 . S
H195 C203 0.950 . S
H196 C204 0.951 . S
H197 C205 0.951 . S
C198 C192 1.265 . S
C198 H193 0.950 . S
C198 C199 1.478 . S
C199 C186 1.394 1_554 S
C199 C198 1.478 . S
C199 C200 1.397 . S
C200 C199 1.397 . S
C200 C201 1.438 . S
C200 C205 1.429 . S
C201 C184 1.394 . S
C201 C200 1.438 . S
C201 C202 1.428 . S
C202 H194 0.949 . S
C202 C201 1.428 . S
C202 C203 1.345 . S
C203 H195 0.950 . S
C203 C202 1.345 . S
C203 C204 1.424 . S
C204 H196 0.951 . S
C204 C203 1.424 . S
C204 C205 1.347 . S
C205 H197 0.951 . S
C205 C200 1.429 . S
C205 C204 1.347 . S
H206 C207 0.951 . S
C207 H206 0.951 . S
C207 C213 1.265 . S
H208 C213 0.950 . S
H209 C217 0.949 1_545 S
H210 C218 0.950 . S
H211 C219 0.951 . S
H212 C220 0.951 . S
C213 C207 1.265 . S
C213 H208 0.950 . S
C213 C214 1.478 . S
C214 C213 1.478 . S
C214 C215 1.397 . S
C214 C231 1.394 . S
C215 C214 1.397 . S
C215 C216 1.438 . S
C215 C220 1.429 . S
C216 C215 1.438 . S
C216 C217 1.428 . S
C216 C229 1.394 . S
C217 H209 0.949 1_565 S
C217 C216 1.428 . S
C217 C218 1.345 1_565 S
C218 H210 0.950 . S
C218 C217 1.345 1_545 S
C218 C219 1.424 . S
C219 H211 0.951 . S
C219 C218 1.424 . S
C219 C220 1.347 1_545 S
C220 H212 0.951 . S
C220 C215 1.429 . S
C220 C219 1.347 1_565 S
H221 C222 0.951 . S
C222 H221 0.951 . S
C222 C228 1.265 . S
H223 C228 0.950 . S
H224 C232 0.949 . S
H225 C233 0.950 . S
H226 C234 0.951 . S
H227 C235 0.951 . S
C228 C222 1.265 . S
C228 H223 0.950 . S
C228 C229 1.478 . S
C229 C216 1.394 . S
C229 C228 1.478 . S
C229 C230 1.397 . S
C230 C229 1.397 . S
C230 C231 1.438 . S
C230 C235 1.429 . S
C231 C214 1.394 . S
C231 C230 1.438 . S
C231 C232 1.428 . S
C232 H224 0.949 . S
C232 C231 1.428 . S
C232 C233 1.345 . S
C233 H225 0.950 . S
C233 C232 1.345 . S
C233 C234 1.424 . S
C234 H226 0.951 . S
C234 C233 1.424 . S
C234 C235 1.347 . S
C235 H227 0.951 . S
C235 C230 1.429 . S
C235 C234 1.347 . S
H236 C237 0.951 . S
C237 H236 0.951 . S
C237 C243 1.265 . S
H238 C243 0.950 . S
H239 C247 0.949 . S
H240 C248 0.950 . S
H241 C249 0.951 . S
H242 C250 0.951 . S
C243 C237 1.265 . S
C243 H238 0.950 . S
C243 C244 1.478 . S
C244 C243 1.478 . S
C244 C245 1.397 . S
C244 C261 1.394 . S
C245 C244 1.397 . S
C245 C246 1.438 . S
C245 C250 1.429 . S
C246 C245 1.438 . S
C246 C247 1.428 . S
C246 C259 1.394 . S
C247 H239 0.949 . S
C247 C246 1.428 . S
C247 C248 1.345 . S
C248 H240 0.950 . S
C248 C247 1.345 . S
C248 C249 1.424 . S
C249 H241 0.951 . S
C249 C248 1.424 . S
C249 C250 1.347 . S
C250 H242 0.951 . S
C250 C245 1.429 . S
C250 C249 1.347 . S
H251 C252 0.951 . S
C252 H251 0.951 . S
C252 C258 1.265 . S
H253 C258 0.950 . S
H254 C262 0.949 . S
H255 C263 0.950 . S
H256 C264 0.951 . S
H257 C265 0.951 . S
C258 C252 1.265 . S
C258 H253 0.950 . S
C258 C259 1.478 . S
C259 C246 1.394 . S
C259 C258 1.478 . S
C259 C260 1.397 . S
C260 C259 1.397 . S
C260 C261 1.438 . S
C260 C265 1.429 . S
C261 C244 1.394 . S
C261 C260 1.438 . S
C261 C262 1.428 . S
C262 H254 0.949 . S
C262 C261 1.428 . S
C262 C263 1.345 . S
C263 H255 0.950 . S
C263 C262 1.345 . S
C263 C264 1.424 . S
C264 H256 0.951 . S
C264 C263 1.424 . S
C264 C265 1.347 . S
C265 H257 0.951 . S
C265 C260 1.429 . S
C265 C264 1.347 . S
H266 C267 0.951 . S
C267 H266 0.951 . S
C267 C273 1.265 . S
H268 C273 0.950 . S
H269 C277 0.949 . S
H270 C278 0.932 1_565 S
H271 C279 0.951 . S
H272 C280 0.951 . S
C273 C267 1.265 . S
C273 H268 0.950 . S
C273 C274 1.478 . S
C274 C273 1.478 . S
C274 C275 1.397 . S
C274 C291 1.394 . S
C275 C274 1.397 . S
C275 C276 1.438 . S
C275 C280 1.429 . S
C276 C275 1.438 . S
C276 C277 1.428 . S
C276 C289 1.394 . S
C277 H269 0.949 . S
C277 C276 1.428 . S
C277 C278 1.345 . S
C278 H270 0.932 1_545 S
C278 C277 1.345 . S
C278 C279 1.424 . S
C279 H271 0.951 . S
C279 C278 1.424 . S
C279 C280 1.347 . S
C280 H272 0.951 . S
C280 C275 1.429 . S
C280 C279 1.347 . S
H281 C282 0.951 . S
C282 H281 0.951 . S
C282 C288 1.265 . S
H283 C288 0.950 . S
H284 C292 0.949 . S
H285 C293 0.950 . S
H286 C294 0.951 . S
H287 C295 0.951 . S
C288 C282 1.265 . S
C288 H283 0.950 . S
C288 C289 1.478 . S
C289 C276 1.394 . S
C289 C288 1.478 . S
C289 C290 1.397 . S
C290 C289 1.397 . S
C290 C291 1.438 . S
C290 C295 1.429 . S
C291 C274 1.394 . S
C291 C290 1.438 . S
C291 C292 1.428 . S
C292 H284 0.949 . S
C292 C291 1.428 . S
C292 C293 1.345 . S
C293 H285 0.950 . S
C293 C292 1.345 . S
C293 C294 1.424 . S
C294 H286 0.951 . S
C294 C293 1.424 . S
C294 C295 1.347 . S
C295 H287 0.951 . S
C295 C290 1.429 . S
C295 C294 1.347 . S
H296 C297 0.951 . S
C297 H296 0.951 . S
C297 C303 1.265 . S
H298 C303 0.950 . S
H299 C307 0.949 . S
H300 C308 0.950 . S
H301 C309 0.951 . S
H302 C310 0.951 . S
C303 C297 1.265 . S
C303 H298 0.950 . S
C303 C304 1.478 . S
C304 C303 1.478 . S
C304 C305 1.397 . S
C304 C321 1.394 . S
C305 C304 1.397 . S
C305 C306 1.438 . S
C305 C310 1.429 . S
C306 C305 1.438 . S
C306 C307 1.428 . S
C306 C319 1.394 . S
C307 H299 0.949 . S
C307 C306 1.428 . S
C307 C308 1.345 . S
C308 H300 0.950 . S
C308 C307 1.345 . S
C308 C309 1.424 . S
C309 H301 0.951 . S
C309 C308 1.424 . S
C309 C310 1.347 . S
C310 H302 0.951 . S
C310 C305 1.429 . S
C310 C309 1.347 . S
H311 C312 0.951 . S
C312 H311 0.951 . S
C312 C318 1.265 . S
H313 C318 0.950 . S
H314 C322 0.949 . S
H315 C323 0.950 . S
H316 C324 0.951 . S
H317 C325 0.951 . S
C318 C312 1.265 . S
C318 H313 0.950 . S
C318 C319 1.478 . S
C319 C306 1.394 . S
C319 C318 1.478 . S
C319 C320 1.397 . S
C320 C319 1.397 . S
C320 C321 1.438 . S
C320 C325 1.429 . S
C321 C304 1.394 . S
C321 C320 1.438 . S
C321 C322 1.428 . S
C322 H314 0.949 . S
C322 C321 1.428 . S
C322 C323 1.345 . S
C323 H315 0.950 . S
C323 C322 1.345 . S
C323 C324 1.424 . S
C324 H316 0.951 . S
C324 C323 1.424 . S
C324 C325 1.347 . S
C325 H317 0.951 . S
C325 C320 1.429 . S
C325 C324 1.347 . S
H326 C327 0.951 . S
C327 H326 0.951 . S
C327 C333 1.265 . S
H328 C333 0.950 . S
H329 C337 0.949 . S
H330 C338 0.950 . S
H331 C339 0.951 . S
H332 C340 0.951 . S
C333 C327 1.265 . S
C333 H328 0.950 . S
C333 C334 1.478 . S
C334 C333 1.478 . S
C334 C335 1.397 . S
C334 C351 1.394 . S
C335 C334 1.397 . S
C335 C336 1.438 . S
C335 C340 1.429 . S
C336 C335 1.438 . S
C336 C337 1.428 . S
C336 C349 1.394 . S
C337 H329 0.949 . S
C337 C336 1.428 . S
C337 C338 1.345 . S
C338 H330 0.950 . S
C338 C337 1.345 . S
C338 C339 1.424 . S
C339 H331 0.951 . S
C339 C338 1.424 . S
C339 C340 1.347 . S
C340 H332 0.951 . S
C340 C335 1.429 . S
C340 C339 1.347 . S
H341 C342 0.951 . S
C342 H341 0.951 . S
C342 C348 1.265 . S
H343 C348 0.950 . S
H344 C352 0.949 . S
H345 C353 0.950 . S
H346 C354 0.951 . S
H347 C355 0.951 . S
C348 C342 1.265 . S
C348 H343 0.950 . S
C348 C349 1.478 . S
C349 C336 1.394 . S
C349 C348 1.478 . S
C349 C350 1.397 . S
C350 C349 1.397 . S
C350 C351 1.438 . S
C350 C355 1.429 . S
C351 C334 1.394 . S
C351 C350 1.438 . S
C351 C352 1.428 . S
C352 H344 0.949 . S
C352 C351 1.428 . S
C352 C353 1.345 . S
C353 H345 0.950 . S
C353 C352 1.345 . S
C353 C354 1.424 . S
C354 H346 0.951 . S
C354 C353 1.424 . S
C354 C355 1.347 . S
C355 H347 0.951 . S
C355 C350 1.429 . S
C355 C354 1.347 . S
H356 C357 0.951 . S
C357 H356 0.951 . S
C357 C363 1.265 . S
H358 C363 0.950 . S
H359 C367 0.949 . S
H360 C368 0.950 1_565 S
H361 C369 0.951 . S
H362 C370 0.951 . S
C363 C357 1.265 . S
C363 H358 0.950 . S
C363 C364 1.478 . S
C364 C363 1.478 . S
C364 C365 1.397 . S
C364 C381 1.394 . S
C365 C364 1.397 . S
C365 C366 1.438 . S
C365 C370 1.429 . S
C366 C365 1.438 . S
C366 C367 1.428 . S
C366 C379 1.394 . S
C367 H359 0.949 . S
C367 C366 1.428 . S
C367 C368 1.345 . S
C368 H360 0.950 1_545 S
C368 C367 1.345 . S
C368 C369 1.424 . S
C369 H361 0.951 . S
C369 C368 1.424 . S
C369 C370 1.347 . S
C370 H362 0.951 . S
C370 C365 1.429 . S
C370 C369 1.347 . S
H371 C372 0.951 . S
C372 H371 0.951 . S
C372 C378 1.265 . S
H373 C378 0.950 . S
H374 C382 0.949 . S
H375 C383 0.950 . S
H376 C384 0.951 . S
H377 C385 0.951 . S
C378 C372 1.265 . S
C378 H373 0.950 . S
C378 C379 1.478 . S
C379 C366 1.394 . S
C379 C378 1.478 . S
C379 C380 1.397 . S
C380 C379 1.397 . S
C380 C381 1.438 . S
C380 C385 1.429 . S
C381 C364 1.394 . S
C381 C380 1.438 . S
C381 C382 1.428 . S
C382 H374 0.949 . S
C382 C381 1.428 . S
C382 C383 1.345 . S
C383 H375 0.950 . S
C383 C382 1.345 . S
C383 C384 1.424 . S
C384 H376 0.951 . S
C384 C383 1.424 . S
C384 C385 1.347 . S
C385 H377 0.951 . S
C385 C380 1.429 . S
C385 C384 1.347 . S
H386 C387 0.951 . S
C387 H386 0.951 . S
C387 C393 1.265 . S
H388 C393 0.950 . S
H389 C397 0.949 . S
H390 C398 0.950 . S
H391 C399 0.951 . S
H392 C400 0.951 . S
C393 C387 1.265 . S
C393 H388 0.950 . S
C393 C394 1.478 . S
C394 C393 1.478 . S
C394 C395 1.397 . S
C394 C411 1.394 . S
C395 C394 1.397 . S
C395 C396 1.438 . S
C395 C400 1.429 . S
C396 C395 1.438 . S
C396 C397 1.428 . S
C396 C409 1.394 . S
C397 H389 0.949 . S
C397 C396 1.428 . S
C397 C398 1.345 . S
C398 H390 0.950 . S
C398 C397 1.345 . S
C398 C399 1.424 . S
C399 H391 0.951 . S
C399 C398 1.424 . S
C399 C400 1.347 . S
C400 H392 0.951 . S
C400 C395 1.429 . S
C400 C399 1.347 . S
H401 C402 0.951 . S
C402 H401 0.951 . S
C402 C408 1.265 . S
H403 C408 0.950 . S
H404 C412 0.949 . S
H405 C413 0.950 . S
H406 C414 0.951 . S
H407 C415 0.951 . S
C408 C402 1.265 . S
C408 H403 0.950 . S
C408 C409 1.478 . S
C409 C396 1.394 . S
C409 C408 1.478 . S
C409 C410 1.397 . S
C410 C409 1.397 . S
C410 C411 1.438 . S
C410 C415 1.429 . S
C411 C394 1.394 . S
C411 C410 1.438 . S
C411 C412 1.428 . S
C412 H404 0.949 . S
C412 C411 1.428 . S
C412 C413 1.345 . S
C413 H405 0.950 . S
C413 C412 1.345 . S
C413 C414 1.424 . S
C414 H406 0.951 . S
C414 C413 1.424 . S
C414 C415 1.347 . S
C415 H407 0.951 . S
C415 C410 1.429 . S
C415 C414 1.347 . S
H416 C417 0.951 . S
C417 H416 0.951 . S
C417 C423 1.265 . S
H418 C423 0.950 . S
H419 C427 0.949 1_545 S
H420 C428 0.950 . S
H421 C429 0.951 . S
H422 C430 0.951 . S
C423 C417 1.265 . S
C423 H418 0.950 . S
C423 C424 1.478 . S
C424 C423 1.478 . S
C424 C425 1.397 . S
C424 C441 1.394 . S
C425 C424 1.397 . S
C425 C426 1.438 . S
C425 C430 1.429 . S
C426 C425 1.438 . S
C426 C427 1.428 . S
C426 C439 1.394 . S
C427 H419 0.949 1_565 S
C427 C426 1.428 . S
C427 C428 1.345 1_565 S
C428 H420 0.950 . S
C428 C427 1.345 1_545 S
C428 C429 1.424 . S
C429 H421 0.951 . S
C429 C428 1.424 . S
C429 C430 1.347 1_545 S
C430 H422 0.951 . S
C430 C425 1.429 . S
C430 C429 1.347 1_565 S
H431 C432 0.951 . S
C432 H431 0.951 . S
C432 C438 1.265 . S
H433 C438 0.950 . S
H434 C442 0.949 . S
H435 C443 0.950 . S
H436 C444 0.951 . S
H437 C445 0.951 . S
C438 C432 1.265 . S
C438 H433 0.950 . S
C438 C439 1.478 . S
C439 C426 1.394 . S
C439 C438 1.478 . S
C439 C440 1.397 . S
C440 C439 1.397 . S
C440 C441 1.438 . S
C440 C445 1.429 . S
C441 C424 1.394 . S
C441 C440 1.438 . S
C441 C442 1.428 . S
C442 H434 0.949 . S
C442 C441 1.428 . S
C442 C443 1.345 . S
C443 H435 0.950 . S
C443 C442 1.345 . S
C443 C444 1.424 . S
C444 H436 0.951 . S
C444 C443 1.424 . S
C444 C445 1.347 . S
C445 H437 0.951 . S
C445 C440 1.429 . S
C445 C444 1.347 . S
C102 C59 1.302 . S
C87 N37 1.411 . S
C117 N4 1.465 . S
C132 C83 1.260 . S
C147 N15 1.573 . S
C162 C62 1.424 . S
C177 N26 1.580 . S
C192 C80 1.360 . S
C222 C60 1.527 . S
C207 C9 1.472 . S
C252 C82 1.581 . S
C237 C17 1.594 . S
C267 C31 1.567 . S
C282 C61 1.521 . S
C297 C42 1.508 . S
C312 C81 1.489 . S
C342 C79 1.498 . S
C327 C20 1.516 . S
C372 C58 1.424 . S
C357 C28 1.529 . S
C402 C78 1.443 . S
C387 C39 1.431 . S
C417 C6 1.434 1_556 S
C432 C57 1.352 . S
