# Generated by pormake.
# Topology pyr, (3,6)-cn, num edge types: 1
# Building blocks:
#     Node 0, Type 0, BuildingBlock: QEWDON_clean_linker_0, # of connection points: 3
#     Node 1, Type 0, BuildingBlock: QEWDON_clean_linker_0, # of connection points: 3
#     Node 2, Type 0, BuildingBlock: QEWDON_clean_linker_0, # of connection points: 3
#     Node 3, Type 0, BuildingBlock: QEWDON_clean_linker_0, # of connection points: 3
#     Node 4, Type 0, BuildingBlock: QEWDON_clean_linker_0, # of connection points: 3
#     Node 5, Type 0, BuildingBlock: QEWDON_clean_linker_0, # of connection points: 3
#     Node 6, Type 0, BuildingBlock: QEWDON_clean_linker_0, # of connection points: 3
#     Node 7, Type 0, BuildingBlock: QEWDON_clean_linker_0, # of connection points: 3
#     Node 8, Type 1, BuildingBlock: MIFKUJ_clean_sbu_0, # of connection points: 6
#     Node 9, Type 1, BuildingBlock: MIFKUJ_clean_sbu_0, # of connection points: 6
#     Node 10, Type 1, BuildingBlock: MIFKUJ_clean_sbu_0, # of connection points: 6
#     Node 11, Type 1, BuildingBlock: MIFKUJ_clean_sbu_0, # of connection points: 6
#     Edge 12, Type (0, 1), BuildingBlock: OJICUG_clean_linker_0, # of connection points: 2
#     Edge 13, Type (0, 1), BuildingBlock: OJICUG_clean_linker_0, # of connection points: 2
#     Edge 14, Type (0, 1), BuildingBlock: OJICUG_clean_linker_0, # of connection points: 2
#     Edge 15, Type (0, 1), BuildingBlock: OJICUG_clean_linker_0, # of connection points: 2
#     Edge 16, Type (0, 1), BuildingBlock: OJICUG_clean_linker_0, # of connection points: 2
#     Edge 17, Type (0, 1), BuildingBlock: OJICUG_clean_linker_0, # of connection points: 2
#     Edge 18, Type (0, 1), BuildingBlock: OJICUG_clean_linker_0, # of connection points: 2
#     Edge 19, Type (0, 1), BuildingBlock: OJICUG_clean_linker_0, # of connection points: 2
#     Edge 20, Type (0, 1), BuildingBlock: OJICUG_clean_linker_0, # of connection points: 2
#     Edge 21, Type (0, 1), BuildingBlock: OJICUG_clean_linker_0, # of connection points: 2
#     Edge 22, Type (0, 1), BuildingBlock: OJICUG_clean_linker_0, # of connection points: 2
#     Edge 23, Type (0, 1), BuildingBlock: OJICUG_clean_linker_0, # of connection points: 2
#     Edge 24, Type (0, 1), BuildingBlock: OJICUG_clean_linker_0, # of connection points: 2
#     Edge 25, Type (0, 1), BuildingBlock: OJICUG_clean_linker_0, # of connection points: 2
#     Edge 26, Type (0, 1), BuildingBlock: OJICUG_clean_linker_0, # of connection points: 2
#     Edge 27, Type (0, 1), BuildingBlock: OJICUG_clean_linker_0, # of connection points: 2
#     Edge 28, Type (0, 1), BuildingBlock: OJICUG_clean_linker_0, # of connection points: 2
#     Edge 29, Type (0, 1), BuildingBlock: OJICUG_clean_linker_0, # of connection points: 2
#     Edge 30, Type (0, 1), BuildingBlock: OJICUG_clean_linker_0, # of connection points: 2
#     Edge 31, Type (0, 1), BuildingBlock: OJICUG_clean_linker_0, # of connection points: 2
#     Edge 32, Type (0, 1), BuildingBlock: OJICUG_clean_linker_0, # of connection points: 2
#     Edge 33, Type (0, 1), BuildingBlock: OJICUG_clean_linker_0, # of connection points: 2
#     Edge 34, Type (0, 1), BuildingBlock: OJICUG_clean_linker_0, # of connection points: 2
#     Edge 35, Type (0, 1), BuildingBlock: OJICUG_clean_linker_0, # of connection points: 2
# Relax obj value: 0.099
# Max RMSD: 0.267
# Mean RMSD: 0.177
data_MOF--net-pyr--node1-MIFKUJ_clean_sbu_0--node2-QEWDON_clean_linker_0--edge1-OJICUG_clean_linker_0
_symmetry_space_group_name_H-M    P1
_symmetry_Int_Tables_number       1
_symmetry_cell_setting            triclinic
loop_
_symmetry_equiv_pos_as_xyz
'x, y, z'
_cell_length_a     28.875432
_cell_length_b     26.826025
_cell_length_c     29.80105
_cell_angle_alpha  84.817257
_cell_angle_beta   87.234971
_cell_angle_gamma 108.02769
loop_
_atom_site_label
_atom_site_type_symbol
_atom_site_fract_x
_atom_site_fract_y
_atom_site_fract_z
_atom_type_partial_charge
H0 H 0.29444 0.24427 0.20096 0.0
C1 C 0.26545 0.22049 0.22567 0.0
C2 C 0.2639 0.16886 0.24168 0.0
C3 C 0.23203 0.24336 0.24381 0.0
H4 H 0.22664 0.10136 0.29039 0.0
C5 C 0.22795 0.14056 0.2765 0.0
C6 C 0.19456 0.16337 0.2949 0.0
C7 C 0.19637 0.21441 0.27796 0.0
C8 C 0.24074 0.30057 0.23415 0.0
H9 H 0.17244 0.23313 0.29376 0.0
C10 C 0.21273 0.32106 0.20465 0.0
C11 C 0.22261 0.37608 0.19619 0.0
C12 C 0.27743 0.33504 0.25595 0.0
H13 H 0.29888 0.31977 0.27911 0.0
C14 C 0.28648 0.38932 0.24841 0.0
H15 H 0.18446 0.29455 0.18764 0.0
C16 C 0.25948 0.40981 0.21863 0.0
H17 H 0.26737 0.4522 0.21312 0.0
H18 H 0.31469 0.41561 0.26555 0.0
H19 H 0.30907 0.86021 0.81828 0.0
C20 C 0.33357 0.84982 0.79485 0.0
C21 C 0.38042 0.85102 0.80687 0.0
C22 C 0.31704 0.83136 0.75403 0.0
H23 H 0.44708 0.83589 0.78607 0.0
C24 C 0.41097 0.83497 0.77692 0.0
C25 C 0.39505 0.81732 0.73556 0.0
C26 C 0.3479 0.81572 0.72462 0.0
C27 C 0.26547 0.82056 0.74424 0.0
H28 H 0.33395 0.79964 0.69406 0.0
C29 C 0.24834 0.86064 0.72488 0.0
C30 C 0.20085 0.84786 0.71003 0.0
C31 C 0.23461 0.7681 0.74972 0.0
H32 H 0.24752 0.73672 0.76404 0.0
C33 C 0.18736 0.75553 0.7358 0.0
H34 H 0.27242 0.90104 0.71972 0.0
C35 C 0.17063 0.79503 0.71576 0.0
H36 H 0.13388 0.78436 0.70491 0.0
H37 H 0.16386 0.71494 0.73996 0.0
H38 H 0.71161 0.43885 0.86311 0.0
C39 C 0.69957 0.39827 0.87845 0.0
C40 C 0.73122 0.37957 0.90465 0.0
C41 C 0.65133 0.36648 0.87522 0.0
H42 H 0.73764 0.31422 0.94933 0.0
C43 C 0.7142 0.32843 0.92772 0.0
C44 C 0.66667 0.29569 0.92314 0.0
C45 C 0.63593 0.31448 0.89621 0.0
C46 C 0.61527 0.38948 0.85543 0.0
H47 H 0.59877 0.28941 0.89394 0.0
C48 C 0.62747 0.42479 0.81552 0.0
C49 C 0.59386 0.44909 0.7994 0.0
C50 C 0.56877 0.37824 0.87835 0.0
H51 H 0.55855 0.35211 0.90959 0.0
C52 C 0.53529 0.40178 0.86201 0.0
H53 H 0.66293 0.43357 0.79723 0.0
C54 C 0.54774 0.43719 0.82293 0.0
H55 H 0.52095 0.45467 0.81059 0.0
H56 H 0.49964 0.3928 0.87989 0.0
H57 H 0.8894 0.77723 0.25646 0.0
C58 C 0.85801 0.75428 0.27908 0.0
C59 C 0.85627 0.76256 0.3249 0.0
C60 C 0.81827 0.71782 0.2622 0.0
H61 H 0.81464 0.74004 0.38921 0.0
C62 C 0.81522 0.73359 0.35383 0.0
C63 C 0.77442 0.69855 0.3373 0.0
C64 C 0.77643 0.69088 0.29123 0.0
C65 C 0.81849 0.71023 0.21362 0.0
H66 H 0.74513 0.66472 0.27744 0.0
C67 C 0.85348 0.69109 0.19294 0.0
C68 C 0.85221 0.68246 0.14696 0.0
C69 C 0.78227 0.72061 0.18805 0.0
H70 H 0.75485 0.73508 0.2034 0.0
C71 C 0.78128 0.71272 0.14243 0.0
H72 H 0.88124 0.68251 0.21264 0.0
C73 C 0.81603 0.69388 0.12191 0.0
H74 H 0.81408 0.68727 0.08663 0.0
H75 H 0.75326 0.72091 0.12296 0.0
H76 H 0.80834 0.79585 0.85444 0.0
C77 C 0.82782 0.81822 0.82338 0.0
C78 C 0.87612 0.81962 0.81145 0.0
C79 C 0.80289 0.84288 0.79433 0.0
H80 H 0.93621 0.84842 0.75945 0.0
C81 C 0.89922 0.84697 0.76939 0.0
C82 C 0.87419 0.87145 0.73953 0.0
C83 C 0.82607 0.86923 0.75269 0.0
C84 C 0.75116 0.83777 0.80599 0.0
H85 H 0.80632 0.88817 0.7305 0.0
C86 C 0.73758 0.86061 0.8431 0.0
C87 C 0.68813 0.85568 0.85365 0.0
C88 C 0.71509 0.80976 0.77961 0.0
H89 H 0.72492 0.79195 0.75092 0.0
C90 C 0.66604 0.80404 0.79034 0.0
H91 H 0.76545 0.8825 0.86335 0.0
C92 C 0.65255 0.82678 0.82705 0.0
H93 H 0.61433 0.82286 0.83392 0.0
H94 H 0.63839 0.78229 0.76989 0.0
H95 H 0.73796 0.189 0.43765 0.0
C96 C 0.72411 0.18292 0.40477 0.0
C97 C 0.74753 0.16122 0.37263 0.0
C98 C 0.68175 0.19569 0.39523 0.0
H99 H 0.74288 0.13338 0.3062 0.0
C100 C 0.72708 0.15215 0.33076 0.0
C101 C 0.68516 0.16586 0.3209 0.0
C102 C 0.66326 0.18825 0.35304 0.0
C103 C 0.65121 0.2072 0.4314 0.0
H104 H 0.62967 0.19668 0.34632 0.0
C105 C 0.65011 0.25876 0.43513 0.0
C106 C 0.61563 0.26722 0.46611 0.0
C107 C 0.61839 0.16464 0.45912 0.0
H108 H 0.61828 0.12465 0.45607 0.0
C109 C 0.58434 0.17307 0.4898 0.0
H110 H 0.67495 0.29173 0.4134 0.0
C111 C 0.5827 0.224 0.49313 0.0
H112 H 0.55597 0.22978 0.51718 0.0
H113 H 0.55879 0.13998 0.51073 0.0
H114 H 0.40403 0.74198 0.27526 0.0
C115 C 0.36826 0.73299 0.26231 0.0
C116 C 0.35659 0.77184 0.23426 0.0
C117 C 0.33501 0.68153 0.27084 0.0
H118 H 0.30336 0.78769 0.19143 0.0
C119 C 0.3113 0.75908 0.21541 0.0
C120 C 0.27882 0.70784 0.22251 0.0
C121 C 0.29014 0.66969 0.2511 0.0
C122 C 0.34877 0.63812 0.29535 0.0
H123 H 0.26472 0.62991 0.25623 0.0
C124 C 0.37065 0.64392 0.3367 0.0
C125 C 0.38114 0.60104 0.36006 0.0
C126 C 0.33904 0.58962 0.27712 0.0
H127 H 0.32328 0.58427 0.24495 0.0
C128 C 0.34987 0.54752 0.29985 0.0
H129 H 0.37807 0.68094 0.35122 0.0
C130 C 0.37063 0.55301 0.341 0.0
H131 H 0.37916 0.5197 0.35765 0.0
H132 H 0.34226 0.51048 0.28543 0.0
H133 H 0.2481 0.41951 0.78504 0.0
C134 C 0.23365 0.3891 0.76322 0.0
C135 C 0.26004 0.3891 0.72223 0.0
C136 C 0.18903 0.34938 0.77656 0.0
H137 H 0.26112 0.34842 0.66319 0.0
C138 C 0.24087 0.34903 0.69457 0.0
C139 C 0.19624 0.30923 0.70722 0.0
C140 C 0.1705 0.30995 0.74816 0.0
C141 C 0.16255 0.34708 0.82106 0.0
H142 H 0.13632 0.27905 0.75848 0.0
C143 C 0.15516 0.3925 0.83636 0.0
C144 C 0.12901 0.38924 0.87829 0.0
C145 C 0.14397 0.29859 0.84839 0.0
H146 H 0.14973 0.26322 0.83785 0.0
C147 C 0.11799 0.29516 0.88974 0.0
H148 H 0.16945 0.43007 0.8156 0.0
C149 C 0.11032 0.33995 0.90456 0.0
H150 H 0.08907 0.33575 0.93643 0.0
H151 H 0.10353 0.25754 0.91033 0.0
Zn152 Zn 0.06874 0.0488 0.56263 0.0
Zn153 Zn 0.95582 0.01993 0.46819 0.0
C154 C 0.12573 0.13802 0.59722 0.0
O155 O 0.15755 0.12318 0.57324 0.0
C156 C 0.95803 0.92891 0.42405 0.0
O157 O 0.98501 0.92225 0.45693 0.0
O158 O 0.10079 -0.00266 0.59072 0.0
O159 O 0.99902 0.01243 0.55431 0.0
O160 O 0.92766 0.97942 0.53023 0.0
C161 C 0.11438 -0.00091 0.63074 0.0
O162 O 0.10605 0.03405 0.65539 0.0
O163 O 0.08069 0.11137 0.59841 0.0
C164 C 0.91121 0.08604 0.41316 0.0
O165 O 0.93615 0.07497 0.37956 0.0
O166 O 0.91674 0.07006 0.4535 0.0
O167 O 0.03062 0.0544 0.46501 0.0
O168 O 0.09913 0.07658 0.49935 0.0
O169 O 0.94188 0.96798 0.42214 0.0
C170 C 0.95508 0.98337 0.56268 0.0
C171 C 0.07695 0.0757 0.46326 0.0
Zn172 Zn 0.52466 0.97883 0.02782 0.0
Zn173 Zn 0.48974 0.06493 0.11982 0.0
C174 C 0.45826 0.90897 0.97708 0.0
O175 O 0.47622 0.87637 1.00054 0.0
C176 C 0.56261 0.1177 0.17355 0.0
O177 O 0.55673 0.15663 0.14681 0.0
O178 O 0.57303 0.94535 0.00288 0.0
O179 O 0.55486 0.05805 0.01753 0.0
O180 O 0.53238 0.10751 0.06526 0.0
C181 C 0.61251 0.96909 0.97861 0.0
O182 O 0.62745 0.02086 0.97194 0.0
O183 O 0.4698 0.95662 0.98602 0.0
C184 C 0.41722 0.08622 0.17869 0.0
O185 O 0.43155 0.05434 0.20678 0.0
O186 O 0.43734 0.09786 0.13845 0.0
O187 O 0.45505 -0.01063 0.11134 0.0
O188 O 0.50447 0.94565 0.09236 0.0
O189 O 0.53605 0.0708 0.16968 0.0
C190 C 0.5568 0.10274 0.03006 0.0
C191 C 0.47409 0.9534 0.12101 0.0
Zn192 Zn 0.55207 0.53767 0.53933 0.0
Zn193 Zn 0.52035 0.61977 0.60178 0.0
C194 C 0.60343 0.59005 0.45894 0.0
O195 O 0.56733 0.55276 0.44516 0.0
C196 C 0.44869 0.54411 0.66603 0.0
O197 O 0.4767 0.56867 0.6959 0.0
O198 O 0.55474 0.47084 0.5145 0.0
O199 O 0.56918 0.52838 0.60261 0.0
O200 O 0.57949 0.60599 0.62709 0.0
C201 C 0.59637 0.4637 0.51301 0.0
O202 O 0.63332 0.4988 0.52807 0.0
O203 O 0.60448 0.59521 0.50093 0.0
C204 C 0.48679 0.70946 0.61795 0.0
O205 O 0.47338 0.70619 0.57653 0.0
O206 O 0.50912 0.67872 0.6341 0.0
O207 O 0.51542 0.63352 0.53399 0.0
O208 O 0.48721 0.54794 0.52985 0.0
O209 O 0.46135 0.55781 0.62415 0.0
C210 C 0.58519 0.56072 0.63102 0.0
C211 C 0.48706 0.59444 0.51722 0.0
Zn212 Zn 0.99425 0.60519 0.95993 0.0
Zn213 Zn 0.06814 0.55431 0.06012 0.0
C214 C 0.91769 0.53285 0.92478 0.0
O215 O 0.94646 0.55706 0.88861 0.0
C216 C 0.1197 0.64003 0.10997 0.0
O217 O 0.07599 0.63666 0.12721 0.0
O218 O 0.98578 0.66863 0.92194 0.0
O219 O 0.01497 0.62025 0.02358 0.0
O220 O 1.006 0.56454 0.08432 0.0
C221 C 0.94695 0.68055 0.92964 0.0
O222 O 0.91503 0.65317 0.96274 0.0
O223 O 0.93005 0.54701 0.96321 0.0
C224 C 0.12727 0.49275 0.08199 0.0
O225 O 0.15566 0.5328 0.05452 0.0
O226 O 0.08238 0.4892 0.08905 0.0
O227 O 0.06533 0.5554 0.99271 0.0
O228 O 0.04211 0.576 0.92693 0.0
O229 O 0.12396 0.61372 0.07748 0.0
C230 C 0.99034 0.59686 0.06045 0.0
C231 C 0.06638 0.55255 0.9504 0.0
C232 C 0.11398 0.11082 0.33688 0.0
C233 C 0.16396 0.13841 0.3371 0.0
H234 H 0.04685 0.06886 0.37679 0.0
C235 C 0.18479 0.14554 0.37846 0.0
H236 H 0.09722 0.10537 0.30518 0.0
C237 C 0.15631 0.12539 0.41912 0.0
C238 C 0.10618 0.09749 0.41943 0.0
H239 H 0.22314 0.16747 0.37929 0.0
H240 H 0.1737 0.13207 0.45041 0.0
C241 C 0.08526 0.09031 0.37778 0.0
C242 C 0.41388 0.83041 0.8795 0.0
C243 C 0.3964 0.86486 0.85206 0.0
H244 H 0.44575 0.81665 0.94065 0.0
C245 C 0.39554 0.9125 0.86771 0.0
H246 H 0.41429 0.79308 0.86858 0.0
C247 C 0.41409 0.92646 0.90913 0.0
C248 C 0.43301 0.89255 0.93596 0.0
H249 H 0.38211 0.93968 0.8472 0.0
H250 H 0.41466 0.96425 0.91961 0.0
C251 C 0.4316 0.84386 0.92101 0.0
C252 C 0.61698 0.467 0.71643 0.0
C253 C 0.60484 0.48478 0.75682 0.0
H254 H 0.62085 0.47803 0.64417 0.0
C255 C 0.59587 0.53346 0.75528 0.0
H256 H 0.62408 0.4296 0.71682 0.0
C257 C 0.5945 0.56152 0.71382 0.0
C258 C 0.60128 0.54077 0.67332 0.0
H259 H 0.58691 0.54812 0.78616 0.0
H260 H 0.58404 0.59698 0.71368 0.0
C261 C 0.61497 0.49466 0.67494 0.0
C262 C 0.89557 0.61471 0.14489 0.0
C263 C 0.88769 0.66056 0.12496 0.0
H264 H 0.93298 0.55768 0.13949 0.0
C265 C 0.91279 0.68453 0.08311 0.0
H266 H 0.87637 0.5952 0.17696 0.0
C267 C 0.94558 0.66346 0.06185 0.0
C268 C 0.95312 0.6172 0.08139 0.0
H269 H 0.90771 0.7202 0.0672 0.0
H270 H 0.96584 0.68417 0.03061 0.0
C271 C 0.92768 0.59305 0.1232 0.0
C272 C 0.32101 0.15688 0.17919 0.0
C273 C 0.30238 0.14669 0.22488 0.0
H274 H 0.37167 0.14613 0.1287 0.0
C275 C 0.32214 0.11654 0.25484 0.0
H276 H 0.30653 0.17953 0.15496 0.0
C277 C 0.35916 0.0971 0.23968 0.0
C278 C 0.37788 0.10742 0.19414 0.0
H279 H 0.30978 0.10875 0.29041 0.0
H280 H 0.3734 0.07426 0.26397 0.0
C281 C 0.35832 0.13758 0.16404 0.0
C282 C 0.16086 0.88169 0.64678 0.0
C283 C 0.18239 0.8889 0.688 0.0
H284 H 0.12291 0.91108 0.59608 0.0
C285 C 0.18338 0.93375 0.70925 0.0
H286 H 0.16002 0.84757 0.62956 0.0
C287 C 0.16157 0.96977 0.69044 0.0
C288 C 0.13902 0.96199 0.64967 0.0
H289 H 0.19957 0.94002 0.74115 0.0
H290 H 0.16203 0.00348 0.70807 0.0
C291 C 0.13969 0.91805 0.62763 0.0
C292 C 0.7972 0.42332 0.95326 0.0
C293 C 0.78071 0.41535 0.91006 0.0
H294 H 0.85342 0.4673 0.99197 0.0
C295 C 0.81046 0.44449 0.87196 0.0
H296 H 0.77472 0.4016 0.9832 0.0
C297 C 0.85534 0.4818 0.87689 0.0
C298 C 0.87124 0.4912 0.92009 0.0
H299 H 0.79868 0.43879 0.83829 0.0
H300 H 0.87707 0.50403 0.84676 0.0
C301 C 0.84201 0.46115 0.95826 0.0
C302 C 0.71553 0.69656 0.40342 0.0
C303 C 0.7295 0.67145 0.3679 0.0
H304 H 0.66495 0.69022 0.46051 0.0
C305 C 0.70033 0.62007 0.36214 0.0
H306 H 0.73611 0.73662 0.40834 0.0
C307 C 0.65859 0.59452 0.39105 0.0
C308 C 0.64565 0.61916 0.42706 0.0
H309 H 0.71017 0.59894 0.3359 0.0
H310 H 0.63728 0.55467 0.38605 0.0
C311 C 0.67445 0.67033 0.43311 0.0
C312 C 0.14518 0.38659 0.167 0.0
C313 C 0.19639 0.39966 0.16312 0.0
H314 H 0.0826 0.40605 0.14437 0.0
C315 C 0.22352 0.43949 0.12961 0.0
H316 H 0.12349 0.35601 0.19268 0.0
C317 C 0.20043 0.46758 0.10202 0.0
C318 C 0.14952 0.45702 0.10745 0.0
H319 H 0.26299 0.44998 0.12561 0.0
H320 H 0.22301 0.49908 0.07753 0.0
C321 C 0.12188 0.4153 0.1395 0.0
C322 C 0.6278 0.19802 0.93061 0.0
C323 C 0.64578 0.24462 0.95103 0.0
H324 H 0.58591 0.11598 0.93996 0.0
C325 C 0.63688 0.24369 0.99779 0.0
H326 H 0.63389 0.19827 0.89442 0.0
C327 C 0.60837 0.19732 0.02357 0.0
C328 C 0.58904 0.1509 0.00308 0.0
H329 H 0.6499 0.2795 0.01398 0.0
H330 H 0.6009 0.19803 0.05942 0.0
C331 C 0.60019 0.15125 0.95658 0.0
C332 C 0.89609 0.85826 0.32843 0.0
C333 C 0.89332 0.80605 0.34259 0.0
H334 H 0.91869 0.93841 0.34349 0.0
C335 C 0.91772 0.79562 0.38017 0.0
H336 H 0.87684 0.867 0.29995 0.0
C337 C 0.94196 0.83641 0.40496 0.0
C338 C 0.94113 0.88802 0.39311 0.0
H339 H 0.91549 0.75545 0.3919 0.0
H340 H 0.9584 0.82682 0.4351 0.0
C341 C 0.91954 0.89891 0.35366 0.0
C342 C 0.4505 0.76266 0.7232 0.0
C343 C 0.42521 0.79607 0.70527 0.0
H344 H 0.4901 0.70935 0.70972 0.0
C345 C 0.42515 0.80503 0.65801 0.0
H346 H 0.45098 0.75447 0.7594 0.0
C347 C 0.44706 0.77867 0.62953 0.0
C348 C 0.46994 0.74302 0.64758 0.0
H349 H 0.40684 0.83132 0.64302 0.0
H350 H 0.44473 0.78505 0.59341 0.0
C351 C 0.47273 0.73653 0.69466 0.0
C352 C 0.86867 0.89144 0.65637 0.0
C353 C 0.89684 0.89804 0.69392 0.0
H354 H 0.8647 0.91291 0.58623 0.0
C355 C 0.94553 0.9316 0.68755 0.0
H356 H 0.8314 0.8651 0.65968 0.0
C357 C 0.96492 0.95907 0.64492 0.0
C358 C 0.93606 0.95338 0.60778 0.0
H359 H 0.96819 0.93778 0.71574 0.0
H360 H 1.00218 0.98536 0.64123 0.0
C361 C 0.8879 0.91877 0.61405 0.0
C362 C 0.63836 0.10065 0.27131 0.0
C363 C 0.66078 0.15332 0.27894 0.0
H364 H 0.58903 0.04775 0.23218 0.0
C365 C 0.65343 0.19386 0.24996 0.0
H366 H 0.64302 0.06875 0.29374 0.0
C367 C 0.62286 0.18206 0.21486 0.0
C368 C 0.59827 0.12935 0.20843 0.0
H369 H 0.6701 0.23474 0.25547 0.0
H370 H 0.61725 0.2144 0.19375 0.0
C371 C 0.60715 0.08871 0.23642 0.0
C372 C 0.44473 0.64789 0.4102 0.0
C373 C 0.4035 0.60516 0.40399 0.0
H374 H 0.50389 0.67826 0.45159 0.0
C375 C 0.38666 0.56294 0.43844 0.0
H376 H 0.45851 0.68096 0.38421 0.0
C377 C 0.41277 0.56109 0.47629 0.0
C378 C 0.45594 0.6018 0.481 0.0
H379 H 0.35429 0.53008 0.4352 0.0
H380 H 0.4 0.52681 0.50124 0.0
C381 C 0.47072 0.64631 0.44862 0.0
C382 C 0.10526 0.47218 0.86596 0.0
C383 C 0.11981 0.43628 0.89487 0.0
H384 H 0.07728 0.53772 0.86072 0.0
C385 C 0.12165 0.44303 0.94101 0.0
H386 H 0.1032 0.46793 0.83026 0.0
C387 C 0.10629 0.48231 0.95836 0.0
C388 C 0.08946 0.51663 0.93014 0.0
H389 H 0.13344 0.41672 0.96416 0.0
H390 H 0.10526 0.48389 0.99436 0.0
C391 C 0.0902 0.51201 0.88346 0.0
C392 C 0.6982 0.93605 0.89424 0.0
C393 C 0.67327 0.88271 0.89055 0.0
H394 H 0.69866 0.00531 0.92511 0.0
C395 C 0.63132 0.85674 0.91974 0.0
H396 H 0.73049 0.95718 0.87207 0.0
C397 C 0.61319 0.88416 0.95021 0.0
C398 C 0.63635 0.93837 0.95193 0.0
H399 H 0.61168 0.81547 0.91809 0.0
H400 H 0.57973 0.86329 0.97094 0.0
C401 C 0.67981 0.96367 0.92449 0.0
C402 C 0.82889 0.14966 0.35008 0.0
C403 C 0.79141 0.1453 0.38369 0.0
H404 H 0.89609 0.13491 0.33299 0.0
C405 C 0.79568 0.1243 0.42782 0.0
H406 H 0.82757 0.16653 0.31595 0.0
C407 C 0.83559 0.10723 0.43778 0.0
C408 C 0.87208 0.10997 0.40381 0.0
H409 H 0.76739 0.11931 0.45458 0.0
H410 H 0.83685 0.09009 0.47185 0.0
C411 C 0.86853 0.13197 0.35995 0.0
C412 C 0.20128 0.7161 0.19298 0.0
C413 C 0.23797 0.69191 0.19353 0.0
H414 H 0.13429 0.71829 0.16578 0.0
C415 C 0.23733 0.65367 0.16425 0.0
H416 H 0.2016 0.74619 0.21499 0.0
C417 C 0.20019 0.63909 0.13531 0.0
C418 C 0.16235 0.66173 0.13572 0.0
H419 H 0.26581 0.63518 0.16363 0.0
H420 H 0.20024 0.60859 0.11386 0.0
C421 C 0.16321 0.7005 0.1647 0.0
C422 C 0.3425 0.44724 0.74012 0.0
C423 C 0.30816 0.42984 0.70837 0.0
H424 H 0.41401 0.49669 0.75167 0.0
C425 C 0.32075 0.45033 0.66272 0.0
H426 H 0.33435 0.43173 0.77544 0.0
C427 C 0.36661 0.48664 0.64902 0.0
C428 C 0.40092 0.50399 0.68069 0.0
H429 H 0.29498 0.43861 0.63743 0.0
H430 H 0.37488 0.50163 0.61358 0.0
C431 C 0.38835 0.48409 0.72644 0.0
C432 C 0.93122 0.763 0.82458 0.0
C433 C 0.90039 0.78961 0.84207 0.0
H434 H 0.97086 0.70822 0.83869 0.0
C435 C 0.8897 0.7838 0.88928 0.0
H436 H 0.94 0.76578 0.78854 0.0
C437 C 0.90619 0.74961 0.91767 0.0
C438 C 0.93517 0.72152 0.89994 0.0
H439 H 0.86748 0.80473 0.90445 0.0
H440 H 0.89558 0.74452 0.9536 0.0
C441 C 0.94881 0.72972 0.8533 0.0
C442 C 0.43723 0.82188 0.1935 0.0
C443 C 0.39389 0.82238 0.21663 0.0
H444 H 0.49683 0.86313 0.14492 0.0
C445 C 0.38167 0.86927 0.21374 0.0
H446 H 0.44721 0.78606 0.19481 0.0
C447 C 0.40975 0.91332 0.18486 0.0
C448 C 0.45039 0.9111 0.1581 0.0
H449 H 0.34843 0.87057 0.23137 0.0
H450 H 0.39775 0.94783 0.18145 0.0
C451 C 0.46526 0.86587 0.16446 0.0
C452 C 0.21014 0.24381 0.65744 0.0
C453 C 0.17764 0.26579 0.67851 0.0
H454 H 0.21929 0.18679 0.61528 0.0
C455 C 0.12749 0.24543 0.67238 0.0
H456 H 0.24881 0.25759 0.66218 0.0
C457 C 0.11033 0.20395 0.64591 0.0
C458 C 0.14306 0.18236 0.62476 0.0
H459 H 0.10151 0.26183 0.68772 0.0
H460 H 0.07156 0.18903 0.64183 0.0
C461 C 0.19311 0.20288 0.63071 0.0
C462 C 0.57002 0.33252 0.46515 0.0
C463 C 0.61351 0.32069 0.47146 0.0
H464 H 0.53062 0.38741 0.47278 0.0
C465 C 0.6526 0.35777 0.48829 0.0
H466 H 0.53947 0.3044 0.45206 0.0
C467 C 0.64743 0.40494 0.50069 0.0
C468 C 0.6031 0.41588 0.49629 0.0
H469 H 0.68625 0.34911 0.49388 0.0
H470 H 0.67764 0.43198 0.51513 0.0
C471 C 0.56492 0.37981 0.47724 0.0
loop_
_geom_bond_atom_site_label_1
_geom_bond_atom_site_label_2
_geom_bond_distance
_geom_bond_site_symmetry_2
_ccdc_geom_bond_type
H0 C1 0.949 . S
C1 H0 0.949 . S
C1 C2 1.395 . S
C1 C3 1.391 . S
C2 C1 1.395 . S
C2 C5 1.390 . S
C3 C1 1.391 . S
C3 C7 1.387 . S
C3 C8 1.491 . S
H4 C5 0.950 . S
C5 C2 1.390 . S
C5 H4 0.950 . S
C5 C6 1.378 . S
C6 C5 1.378 . S
C6 C7 1.409 . S
C7 C3 1.387 . S
C7 C6 1.409 . S
C7 H9 0.951 . S
C8 C3 1.491 . S
C8 C10 1.382 . S
C8 C12 1.404 . S
H9 C7 0.951 . S
C10 C8 1.382 . S
C10 C11 1.390 . S
C10 H15 0.949 . S
C11 C10 1.390 . S
C11 C16 1.399 . S
C12 C8 1.404 . S
C12 H13 0.950 . S
C12 C14 1.375 . S
H13 C12 0.950 . S
C14 C12 1.375 . S
C14 C16 1.382 . S
C14 H18 0.950 . S
H15 C10 0.949 . S
C16 C11 1.399 . S
C16 C14 1.382 . S
C16 H17 0.952 . S
H17 C16 0.952 . S
H18 C14 0.950 . S
H19 C20 0.949 . S
C20 H19 0.949 . S
C20 C21 1.395 . S
C20 C22 1.391 . S
C21 C20 1.395 . S
C21 C24 1.390 . S
C22 C20 1.391 . S
C22 C26 1.387 . S
C22 C27 1.491 . S
H23 C24 0.950 . S
C24 C21 1.390 . S
C24 H23 0.950 . S
C24 C25 1.378 . S
C25 C24 1.378 . S
C25 C26 1.409 . S
C26 C22 1.387 . S
C26 C25 1.409 . S
C26 H28 0.951 . S
C27 C22 1.491 . S
C27 C29 1.382 . S
C27 C31 1.404 . S
H28 C26 0.951 . S
C29 C27 1.382 . S
C29 C30 1.390 . S
C29 H34 0.949 . S
C30 C29 1.390 . S
C30 C35 1.399 . S
C31 C27 1.404 . S
C31 H32 0.950 . S
C31 C33 1.375 . S
H32 C31 0.950 . S
C33 C31 1.375 . S
C33 C35 1.382 . S
C33 H37 0.950 . S
H34 C29 0.949 . S
C35 C30 1.399 . S
C35 C33 1.382 . S
C35 H36 0.952 . S
H36 C35 0.952 . S
H37 C33 0.950 . S
H38 C39 0.949 . S
C39 H38 0.949 . S
C39 C40 1.395 . S
C39 C41 1.391 . S
C40 C39 1.395 . S
C40 C43 1.390 . S
C41 C39 1.391 . S
C41 C45 1.387 . S
C41 C46 1.491 . S
H42 C43 0.950 . S
C43 C40 1.390 . S
C43 H42 0.950 . S
C43 C44 1.378 . S
C44 C43 1.378 . S
C44 C45 1.409 . S
C45 C41 1.387 . S
C45 C44 1.409 . S
C45 H47 0.951 . S
C46 C41 1.491 . S
C46 C48 1.382 . S
C46 C50 1.404 . S
H47 C45 0.951 . S
C48 C46 1.382 . S
C48 C49 1.390 . S
C48 H53 0.949 . S
C49 C48 1.390 . S
C49 C54 1.399 . S
C50 C46 1.404 . S
C50 H51 0.950 . S
C50 C52 1.375 . S
H51 C50 0.950 . S
C52 C50 1.375 . S
C52 C54 1.382 . S
C52 H56 0.950 . S
H53 C48 0.949 . S
C54 C49 1.399 . S
C54 C52 1.382 . S
C54 H55 0.952 . S
H55 C54 0.952 . S
H56 C52 0.950 . S
H57 C58 0.949 . S
C58 H57 0.949 . S
C58 C59 1.395 . S
C58 C60 1.391 . S
C59 C58 1.395 . S
C59 C62 1.390 . S
C60 C58 1.391 . S
C60 C64 1.387 . S
C60 C65 1.491 . S
H61 C62 0.950 . S
C62 C59 1.390 . S
C62 H61 0.950 . S
C62 C63 1.378 . S
C63 C62 1.378 . S
C63 C64 1.409 . S
C64 C60 1.387 . S
C64 C63 1.409 . S
C64 H66 0.951 . S
C65 C60 1.491 . S
C65 C67 1.382 . S
C65 C69 1.404 . S
H66 C64 0.951 . S
C67 C65 1.382 . S
C67 C68 1.390 . S
C67 H72 0.949 . S
C68 C67 1.390 . S
C68 C73 1.399 . S
C69 C65 1.404 . S
C69 H70 0.950 . S
C69 C71 1.375 . S
H70 C69 0.950 . S
C71 C69 1.375 . S
C71 C73 1.382 . S
C71 H75 0.950 . S
H72 C67 0.949 . S
C73 C68 1.399 . S
C73 C71 1.382 . S
C73 H74 0.952 . S
H74 C73 0.952 . S
H75 C71 0.950 . S
H76 C77 0.949 . S
C77 H76 0.949 . S
C77 C78 1.395 . S
C77 C79 1.391 . S
C78 C77 1.395 . S
C78 C81 1.390 . S
C79 C77 1.391 . S
C79 C83 1.387 . S
C79 C84 1.491 . S
H80 C81 0.950 . S
C81 C78 1.390 . S
C81 H80 0.950 . S
C81 C82 1.378 . S
C82 C81 1.378 . S
C82 C83 1.409 . S
C83 C79 1.387 . S
C83 C82 1.409 . S
C83 H85 0.951 . S
C84 C79 1.491 . S
C84 C86 1.382 . S
C84 C88 1.404 . S
H85 C83 0.951 . S
C86 C84 1.382 . S
C86 C87 1.390 . S
C86 H91 0.949 . S
C87 C86 1.390 . S
C87 C92 1.399 . S
C88 C84 1.404 . S
C88 H89 0.950 . S
C88 C90 1.375 . S
H89 C88 0.950 . S
C90 C88 1.375 . S
C90 C92 1.382 . S
C90 H94 0.950 . S
H91 C86 0.949 . S
C92 C87 1.399 . S
C92 C90 1.382 . S
C92 H93 0.952 . S
H93 C92 0.952 . S
H94 C90 0.950 . S
H95 C96 0.949 . S
C96 H95 0.949 . S
C96 C97 1.395 . S
C96 C98 1.391 . S
C97 C96 1.395 . S
C97 C100 1.390 . S
C98 C96 1.391 . S
C98 C102 1.387 . S
C98 C103 1.491 . S
H99 C100 0.950 . S
C100 C97 1.390 . S
C100 H99 0.950 . S
C100 C101 1.378 . S
C101 C100 1.378 . S
C101 C102 1.409 . S
C102 C98 1.387 . S
C102 C101 1.409 . S
C102 H104 0.951 . S
C103 C98 1.491 . S
C103 C105 1.382 . S
C103 C107 1.404 . S
H104 C102 0.951 . S
C105 C103 1.382 . S
C105 C106 1.390 . S
C105 H110 0.949 . S
C106 C105 1.390 . S
C106 C111 1.399 . S
C107 C103 1.404 . S
C107 H108 0.950 . S
C107 C109 1.375 . S
H108 C107 0.950 . S
C109 C107 1.375 . S
C109 C111 1.382 . S
C109 H113 0.950 . S
H110 C105 0.949 . S
C111 C106 1.399 . S
C111 C109 1.382 . S
C111 H112 0.952 . S
H112 C111 0.952 . S
H113 C109 0.950 . S
H114 C115 0.949 . S
C115 H114 0.949 . S
C115 C116 1.395 . S
C115 C117 1.391 . S
C116 C115 1.395 . S
C116 C119 1.390 . S
C117 C115 1.391 . S
C117 C121 1.387 . S
C117 C122 1.491 . S
H118 C119 0.950 . S
C119 C116 1.390 . S
C119 H118 0.950 . S
C119 C120 1.378 . S
C120 C119 1.378 . S
C120 C121 1.409 . S
C121 C117 1.387 . S
C121 C120 1.409 . S
C121 H123 0.951 . S
C122 C117 1.491 . S
C122 C124 1.382 . S
C122 C126 1.404 . S
H123 C121 0.951 . S
C124 C122 1.382 . S
C124 C125 1.390 . S
C124 H129 0.949 . S
C125 C124 1.390 . S
C125 C130 1.399 . S
C126 C122 1.404 . S
C126 H127 0.950 . S
C126 C128 1.375 . S
H127 C126 0.950 . S
C128 C126 1.375 . S
C128 C130 1.382 . S
C128 H132 0.950 . S
H129 C124 0.949 . S
C130 C125 1.399 . S
C130 C128 1.382 . S
C130 H131 0.952 . S
H131 C130 0.952 . S
H132 C128 0.950 . S
H133 C134 0.949 . S
C134 H133 0.949 . S
C134 C135 1.395 . S
C134 C136 1.391 . S
C135 C134 1.395 . S
C135 C138 1.390 . S
C136 C134 1.391 . S
C136 C140 1.387 . S
C136 C141 1.491 . S
H137 C138 0.950 . S
C138 C135 1.390 . S
C138 H137 0.950 . S
C138 C139 1.378 . S
C139 C138 1.378 . S
C139 C140 1.409 . S
C140 C136 1.387 . S
C140 C139 1.409 . S
C140 H142 0.951 . S
C141 C136 1.491 . S
C141 C143 1.382 . S
C141 C145 1.404 . S
H142 C140 0.951 . S
C143 C141 1.382 . S
C143 C144 1.390 . S
C143 H148 0.949 . S
C144 C143 1.390 . S
C144 C149 1.399 . S
C145 C141 1.404 . S
C145 H146 0.950 . S
C145 C147 1.375 . S
H146 C145 0.950 . S
C147 C145 1.375 . S
C147 C149 1.382 . S
C147 H151 0.950 . S
H148 C143 0.949 . S
C149 C144 1.399 . S
C149 C147 1.382 . S
C149 H150 0.952 . S
H150 C149 0.952 . S
H151 C147 0.950 . S
Zn152 O158 1.969 . S
Zn152 O159 1.965 1_545 S
Zn152 O163 2.024 . S
Zn152 O168 1.969 . S
Zn153 O160 1.969 1_545 S
Zn153 O166 1.969 . S
Zn153 O167 1.965 1_655 S
Zn153 O169 2.024 1_545 S
C154 O155 1.229 . S
C154 O163 1.058 . S
O155 C154 1.229 . S
C156 O157 1.229 . S
C156 O169 1.058 . S
O157 C156 1.229 . S
O158 Zn152 1.969 . S
O158 C161 1.267 1_545 S
O159 Zn152 1.965 1_565 S
O159 C170 1.260 1_455 S
O160 Zn153 1.969 1_565 S
O160 C170 1.258 . S
C161 O158 1.267 1_565 S
C161 O162 1.233 . S
O162 C161 1.233 . S
O163 Zn152 2.024 . S
O163 C154 1.058 . S
C164 O165 1.228 . S
C164 O166 1.267 . S
O165 C164 1.228 . S
O166 Zn153 1.969 . S
O166 C164 1.267 . S
O167 Zn153 1.965 1_455 S
O167 C171 1.260 . S
O168 Zn152 1.969 . S
O168 C171 1.258 . S
O169 Zn153 2.024 1_565 S
O169 C156 1.058 . S
C170 O159 1.260 1_655 S
C170 O160 1.258 . S
C171 O167 1.260 . S
C171 O168 1.258 . S
Zn172 O178 1.969 . S
Zn172 O179 1.965 1_565 S
Zn172 O183 2.024 1_554 S
Zn172 O188 1.969 . S
Zn173 O180 1.969 . S
Zn173 O186 1.969 . S
Zn173 O187 1.965 1_545 S
Zn173 O189 2.024 . S
C174 O175 1.229 . S
C174 O183 1.058 . S
O175 C174 1.229 . S
C176 O177 1.229 . S
C176 O189 1.058 . S
O177 C176 1.229 . S
O178 Zn172 1.969 . S
O178 C181 1.267 1_554 S
O179 Zn172 1.965 1_545 S
O179 C190 1.260 . S
O180 Zn173 1.969 . S
O180 C190 1.258 . S
C181 O178 1.267 1_556 S
C181 O182 1.228 . S
O182 C181 1.228 . S
O183 Zn172 2.024 1_556 S
O183 C174 1.058 . S
C184 O185 1.228 . S
C184 O186 1.267 . S
O185 C184 1.228 . S
O186 Zn173 1.969 . S
O186 C184 1.267 . S
O187 Zn173 1.965 1_565 S
O187 C191 1.260 . S
O188 Zn172 1.969 . S
O188 C191 1.258 . S
O189 Zn173 2.024 . S
O189 C176 1.058 . S
C190 O179 1.260 . S
C190 O180 1.258 . S
C191 O187 1.260 . S
C191 O188 1.258 . S
Zn192 O198 1.969 . S
Zn192 O199 1.965 . S
Zn192 O203 2.024 . S
Zn192 O208 1.969 . S
Zn193 O200 1.969 . S
Zn193 O206 1.969 . S
Zn193 O207 1.965 . S
Zn193 O209 2.024 . S
C194 O195 1.229 . S
C194 O203 1.058 . S
O195 C194 1.229 . S
C196 O197 1.229 . S
C196 O209 1.058 . S
O197 C196 1.229 . S
O198 Zn192 1.969 . S
O198 C201 1.267 . S
O199 Zn192 1.965 . S
O199 C210 1.260 . S
O200 Zn193 1.969 . S
O200 C210 1.258 . S
C201 O198 1.267 . S
C201 O202 1.228 . S
O202 C201 1.228 . S
O203 Zn192 2.024 . S
O203 C194 1.058 . S
C204 O205 1.228 . S
C204 O206 1.267 . S
O205 C204 1.228 . S
O206 Zn193 1.969 . S
O206 C204 1.267 . S
O207 Zn193 1.965 . S
O207 C211 1.260 . S
O208 Zn192 1.969 . S
O208 C211 1.258 . S
O209 Zn193 2.024 . S
O209 C196 1.058 . S
C210 O199 1.260 . S
C210 O200 1.258 . S
C211 O207 1.260 . S
C211 O208 1.258 . S
Zn212 O218 1.971 1_655 S
Zn212 O219 1.965 1_656 S
Zn212 O223 2.024 . S
Zn212 O228 1.969 1_655 S
Zn213 O220 1.969 . S
Zn213 O226 1.969 . S
Zn213 O227 1.965 1_554 S
Zn213 O229 2.024 . S
C214 O215 1.229 . S
C214 O223 1.058 . S
O215 C214 1.229 . S
C216 O217 1.229 . S
C216 O229 1.058 . S
O217 C216 1.229 . S
O218 Zn212 1.971 1_455 S
O218 C221 1.246 1_455 S
O219 Zn212 1.965 1_454 S
O219 C230 1.260 . S
O220 Zn213 1.969 . S
O220 C230 1.279 . S
C221 O218 1.246 1_655 S
C221 O222 1.228 . S
O222 C221 1.228 . S
O223 Zn212 2.024 . S
O223 C214 1.058 . S
C224 O225 1.228 . S
C224 O226 1.267 . S
O225 C224 1.228 . S
O226 Zn213 1.969 . S
O226 C224 1.267 . S
O227 Zn213 1.965 1_556 S
O227 C231 1.260 . S
O228 Zn212 1.969 1_455 S
O228 C231 1.258 . S
O229 Zn213 2.024 . S
O229 C216 1.058 . S
C230 O219 1.260 . S
C230 O220 1.279 . S
C231 O227 1.260 . S
C231 O228 1.258 . S
C232 C233 1.387 . S
C232 H236 0.950 . S
C232 C241 1.390 . S
C233 C232 1.387 . S
C233 C235 1.387 . S
H234 C241 0.950 . S
C235 C233 1.387 . S
C235 C237 1.390 . S
C235 H239 0.950 . S
H236 C232 0.950 . S
C237 C235 1.390 . S
C237 C238 1.387 . S
C237 H240 0.950 . S
C238 C237 1.387 . S
C238 C241 1.387 . S
H239 C235 0.950 . S
H240 C237 0.950 . S
C241 C232 1.390 . S
C241 H234 0.950 . S
C241 C238 1.387 . S
C242 C243 1.387 . S
C242 H246 0.950 . S
C242 C251 1.390 . S
C243 C242 1.387 . S
C243 C245 1.387 . S
H244 C251 0.950 . S
C245 C243 1.387 . S
C245 C247 1.390 . S
C245 H249 0.950 . S
H246 C242 0.950 . S
C247 C245 1.390 . S
C247 C248 1.387 . S
C247 H250 0.950 . S
C248 C247 1.387 . S
C248 C251 1.387 . S
H249 C245 0.950 . S
H250 C247 0.950 . S
C251 C242 1.390 . S
C251 H244 0.950 . S
C251 C248 1.387 . S
C252 C253 1.387 . S
C252 H256 0.950 . S
C252 C261 1.390 . S
C253 C252 1.387 . S
C253 C255 1.387 . S
H254 C261 0.950 . S
C255 C253 1.387 . S
C255 C257 1.390 . S
C255 H259 0.950 . S
H256 C252 0.950 . S
C257 C255 1.390 . S
C257 C258 1.387 . S
C257 H260 0.950 . S
C258 C257 1.387 . S
C258 C261 1.387 . S
H259 C255 0.950 . S
H260 C257 0.950 . S
C261 C252 1.390 . S
C261 H254 0.950 . S
C261 C258 1.387 . S
C262 C263 1.387 . S
C262 H266 0.950 . S
C262 C271 1.390 . S
C263 C262 1.387 . S
C263 C265 1.387 . S
H264 C271 0.950 . S
C265 C263 1.387 . S
C265 C267 1.390 . S
C265 H269 0.950 . S
H266 C262 0.950 . S
C267 C265 1.390 . S
C267 C268 1.387 . S
C267 H270 0.950 . S
C268 C267 1.387 . S
C268 C271 1.387 . S
H269 C265 0.950 . S
H270 C267 0.950 . S
C271 C262 1.390 . S
C271 H264 0.950 . S
C271 C268 1.387 . S
C272 C273 1.387 . S
C272 H276 0.950 . S
C272 C281 1.390 . S
C273 C272 1.387 . S
C273 C275 1.387 . S
H274 C281 0.950 . S
C275 C273 1.387 . S
C275 C277 1.390 . S
C275 H279 0.950 . S
H276 C272 0.950 . S
C277 C275 1.390 . S
C277 C278 1.387 . S
C277 H280 0.950 . S
C278 C277 1.387 . S
C278 C281 1.387 . S
H279 C275 0.950 . S
H280 C277 0.950 . S
C281 C272 1.390 . S
C281 H274 0.950 . S
C281 C278 1.387 . S
C282 C283 1.387 . S
C282 H286 0.950 . S
C282 C291 1.390 . S
C283 C282 1.387 . S
C283 C285 1.387 . S
H284 C291 0.950 . S
C285 C283 1.387 . S
C285 C287 1.390 1_565 S
C285 H289 0.950 1_565 S
H286 C282 0.950 . S
C287 C285 1.390 1_545 S
C287 C288 1.387 1_545 S
C287 H290 0.950 . S
C288 C287 1.387 1_565 S
C288 C291 1.387 . S
H289 C285 0.950 1_545 S
H290 C287 0.950 . S
C291 C282 1.390 . S
C291 H284 0.950 . S
C291 C288 1.387 . S
C292 C293 1.387 . S
C292 H296 0.950 . S
C292 C301 1.390 . S
C293 C292 1.387 . S
C293 C295 1.387 . S
H294 C301 0.950 . S
C295 C293 1.387 . S
C295 C297 1.390 . S
C295 H299 0.950 . S
H296 C292 0.950 . S
C297 C295 1.390 . S
C297 C298 1.387 . S
C297 H300 0.950 . S
C298 C297 1.387 . S
C298 C301 1.387 . S
H299 C295 0.950 . S
H300 C297 0.950 . S
C301 C292 1.390 . S
C301 H294 0.950 . S
C301 C298 1.387 . S
C302 C303 1.387 . S
C302 H306 0.950 . S
C302 C311 1.390 . S
C303 C302 1.387 . S
C303 C305 1.387 . S
H304 C311 0.950 . S
C305 C303 1.387 . S
C305 C307 1.390 . S
C305 H309 0.950 . S
H306 C302 0.950 . S
C307 C305 1.390 . S
C307 C308 1.387 . S
C307 H310 0.950 . S
C308 C307 1.387 . S
C308 C311 1.387 . S
H309 C305 0.950 . S
H310 C307 0.950 . S
C311 C302 1.390 . S
C311 H304 0.950 . S
C311 C308 1.387 . S
C312 C313 1.387 . S
C312 H316 0.950 . S
C312 C321 1.390 . S
C313 C312 1.387 . S
C313 C315 1.387 . S
H314 C321 0.950 . S
C315 C313 1.387 . S
C315 C317 1.390 . S
C315 H319 0.950 . S
H316 C312 0.950 . S
C317 C315 1.390 . S
C317 C318 1.387 . S
C317 H320 0.950 . S
C318 C317 1.387 . S
C318 C321 1.387 . S
H319 C315 0.950 . S
H320 C317 0.950 . S
C321 C312 1.390 . S
C321 H314 0.950 . S
C321 C318 1.387 . S
C322 C323 1.387 . S
C322 H326 0.950 . S
C322 C331 1.390 . S
C323 C322 1.387 . S
C323 C325 1.387 . S
H324 C331 0.950 . S
C325 C323 1.387 . S
C325 C327 1.390 1_556 S
C325 H329 0.950 . S
H326 C322 0.950 . S
C327 C325 1.390 1_554 S
C327 C328 1.387 1_554 S
C327 H330 0.950 . S
C328 C327 1.387 1_556 S
C328 C331 1.387 . S
H329 C325 0.950 . S
H330 C327 0.950 . S
C331 C322 1.390 . S
C331 H324 0.950 . S
C331 C328 1.387 . S
C332 C333 1.387 . S
C332 H336 0.950 . S
C332 C341 1.390 . S
C333 C332 1.387 . S
C333 C335 1.387 . S
H334 C341 0.950 . S
C335 C333 1.387 . S
C335 C337 1.390 . S
C335 H339 0.950 . S
H336 C332 0.950 . S
C337 C335 1.390 . S
C337 C338 1.387 . S
C337 H340 0.950 . S
C338 C337 1.387 . S
C338 C341 1.387 . S
H339 C335 0.950 . S
H340 C337 0.950 . S
C341 C332 1.390 . S
C341 H334 0.950 . S
C341 C338 1.387 . S
C342 C343 1.387 . S
C342 H346 0.950 . S
C342 C351 1.390 . S
C343 C342 1.387 . S
C343 C345 1.387 . S
H344 C351 0.950 . S
C345 C343 1.387 . S
C345 C347 1.390 . S
C345 H349 0.950 . S
H346 C342 0.950 . S
C347 C345 1.390 . S
C347 C348 1.387 . S
C347 H350 0.950 . S
C348 C347 1.387 . S
C348 C351 1.387 . S
H349 C345 0.950 . S
H350 C347 0.950 . S
C351 C342 1.390 . S
C351 H344 0.950 . S
C351 C348 1.387 . S
C352 C353 1.387 . S
C352 H356 0.950 . S
C352 C361 1.390 . S
C353 C352 1.387 . S
C353 C355 1.387 . S
H354 C361 0.950 . S
C355 C353 1.387 . S
C355 C357 1.390 . S
C355 H359 0.950 . S
H356 C352 0.950 . S
C357 C355 1.390 . S
C357 C358 1.387 . S
C357 H360 0.950 . S
C358 C357 1.387 . S
C358 C361 1.387 . S
H359 C355 0.950 . S
H360 C357 0.950 . S
C361 C352 1.390 . S
C361 H354 0.950 . S
C361 C358 1.387 . S
C362 C363 1.387 . S
C362 H366 0.950 . S
C362 C371 1.390 . S
C363 C362 1.387 . S
C363 C365 1.387 . S
H364 C371 0.950 . S
C365 C363 1.387 . S
C365 C367 1.390 . S
C365 H369 0.950 . S
H366 C362 0.950 . S
C367 C365 1.390 . S
C367 C368 1.387 . S
C367 H370 0.950 . S
C368 C367 1.387 . S
C368 C371 1.387 . S
H369 C365 0.950 . S
H370 C367 0.950 . S
C371 C362 1.390 . S
C371 H364 0.950 . S
C371 C368 1.387 . S
C372 C373 1.387 . S
C372 H376 0.950 . S
C372 C381 1.390 . S
C373 C372 1.387 . S
C373 C375 1.387 . S
H374 C381 0.950 . S
C375 C373 1.387 . S
C375 C377 1.390 . S
C375 H379 0.950 . S
H376 C372 0.950 . S
C377 C375 1.390 . S
C377 C378 1.387 . S
C377 H380 0.950 . S
C378 C377 1.387 . S
C378 C381 1.387 . S
H379 C375 0.950 . S
H380 C377 0.950 . S
C381 C372 1.390 . S
C381 H374 0.950 . S
C381 C378 1.387 . S
C382 C383 1.387 . S
C382 H386 0.950 . S
C382 C391 1.390 . S
C383 C382 1.387 . S
C383 C385 1.387 . S
H384 C391 0.950 . S
C385 C383 1.387 . S
C385 C387 1.390 . S
C385 H389 0.950 . S
H386 C382 0.950 . S
C387 C385 1.390 . S
C387 C388 1.387 . S
C387 H390 0.950 . S
C388 C387 1.387 . S
C388 C391 1.387 . S
H389 C385 0.950 . S
H390 C387 0.950 . S
C391 C382 1.390 . S
C391 H384 0.950 . S
C391 C388 1.387 . S
C392 C393 1.387 . S
C392 H396 0.950 . S
C392 C401 1.390 . S
C393 C392 1.387 . S
C393 C395 1.387 . S
H394 C401 0.950 . S
C395 C393 1.387 . S
C395 C397 1.390 . S
C395 H399 0.950 . S
H396 C392 0.950 . S
C397 C395 1.390 . S
C397 C398 1.387 . S
C397 H400 0.950 . S
C398 C397 1.387 . S
C398 C401 1.387 . S
H399 C395 0.950 . S
H400 C397 0.950 . S
C401 C392 1.390 . S
C401 H394 0.950 . S
C401 C398 1.387 . S
C402 C403 1.387 . S
C402 H406 0.950 . S
C402 C411 1.390 . S
C403 C402 1.387 . S
C403 C405 1.387 . S
H404 C411 0.950 . S
C405 C403 1.387 . S
C405 C407 1.390 . S
C405 H409 0.950 . S
H406 C402 0.950 . S
C407 C405 1.390 . S
C407 C408 1.387 . S
C407 H410 0.950 . S
C408 C407 1.387 . S
C408 C411 1.387 . S
H409 C405 0.950 . S
H410 C407 0.950 . S
C411 C402 1.390 . S
C411 H404 0.950 . S
C411 C408 1.387 . S
C412 C413 1.387 . S
C412 H416 0.950 . S
C412 C421 1.390 . S
C413 C412 1.387 . S
C413 C415 1.387 . S
H414 C421 0.950 . S
C415 C413 1.387 . S
C415 C417 1.390 . S
C415 H419 0.950 . S
H416 C412 0.950 . S
C417 C415 1.390 . S
C417 C418 1.387 . S
C417 H420 0.950 . S
C418 C417 1.387 . S
C418 C421 1.387 . S
H419 C415 0.950 . S
H420 C417 0.950 . S
C421 C412 1.390 . S
C421 H414 0.950 . S
C421 C418 1.387 . S
C422 C423 1.387 . S
C422 H426 0.950 . S
C422 C431 1.390 . S
C423 C422 1.387 . S
C423 C425 1.387 . S
H424 C431 0.950 . S
C425 C423 1.387 . S
C425 C427 1.390 . S
C425 H429 0.950 . S
H426 C422 0.950 . S
C427 C425 1.390 . S
C427 C428 1.387 . S
C427 H430 0.950 . S
C428 C427 1.387 . S
C428 C431 1.387 . S
H429 C425 0.950 . S
H430 C427 0.950 . S
C431 C422 1.390 . S
C431 H424 0.950 . S
C431 C428 1.387 . S
C432 C433 1.387 . S
C432 H436 0.950 . S
C432 C441 1.390 . S
C433 C432 1.387 . S
C433 C435 1.387 . S
H434 C441 0.950 . S
C435 C433 1.387 . S
C435 C437 1.390 . S
C435 H439 0.950 . S
H436 C432 0.950 . S
C437 C435 1.390 . S
C437 C438 1.387 . S
C437 H440 0.950 . S
C438 C437 1.387 . S
C438 C441 1.387 . S
H439 C435 0.950 . S
H440 C437 0.950 . S
C441 C432 1.390 . S
C441 H434 0.950 . S
C441 C438 1.387 . S
C442 C443 1.387 . S
C442 H446 0.950 . S
C442 C451 1.390 . S
C443 C442 1.387 . S
C443 C445 1.387 . S
H444 C451 0.950 . S
C445 C443 1.387 . S
C445 C447 1.390 . S
C445 H449 0.950 . S
H446 C442 0.950 . S
C447 C445 1.390 . S
C447 C448 1.387 . S
C447 H450 0.950 . S
C448 C447 1.387 . S
C448 C451 1.387 . S
H449 C445 0.950 . S
H450 C447 0.950 . S
C451 C442 1.390 . S
C451 H444 0.950 . S
C451 C448 1.387 . S
C452 C453 1.387 . S
C452 H456 0.950 . S
C452 C461 1.390 . S
C453 C452 1.387 . S
C453 C455 1.387 . S
H454 C461 0.950 . S
C455 C453 1.387 . S
C455 C457 1.390 . S
C455 H459 0.950 . S
H456 C452 0.950 . S
C457 C455 1.390 . S
C457 C458 1.387 . S
C457 H460 0.950 . S
C458 C457 1.387 . S
C458 C461 1.387 . S
H459 C455 0.950 . S
H460 C457 0.950 . S
C461 C452 1.390 . S
C461 H454 0.950 . S
C461 C458 1.387 . S
C462 C463 1.387 . S
C462 H466 0.950 . S
C462 C471 1.390 . S
C463 C462 1.387 . S
C463 C465 1.387 . S
H464 C471 0.950 . S
C465 C463 1.387 . S
C465 C467 1.390 . S
C465 H469 0.950 . S
H466 C462 0.950 . S
C467 C465 1.390 . S
C467 C468 1.387 . S
C467 H470 0.950 . S
C468 C467 1.387 . S
C468 C471 1.387 . S
H469 C465 0.950 . S
H470 C467 0.950 . S
C471 C462 1.390 . S
C471 H464 0.950 . S
C471 C468 1.387 . S
C233 C6 1.729 . S
C238 C171 1.733 . S
C243 C21 1.655 . S
C248 C174 1.590 . S
C258 C210 1.308 . S
C253 C49 1.224 . S
C263 C68 1.529 . S
C268 C230 1.541 1_655 S
C278 C184 2.191 . S
C273 C2 2.195 . S
C288 C161 1.235 . S
C283 C30 1.178 . S
C298 C214 1.469 . S
C293 C40 1.509 . S
C308 C194 1.277 . S
C303 C63 1.441 . S
C313 C11 1.337 . S
C318 C224 1.363 . S
C328 C190 1.828 1_556 S
C323 C44 1.849 . S
C333 C59 1.396 . S
C338 C156 1.375 . S
C343 C25 1.595 . S
C348 C204 1.508 . S
C358 C170 1.796 . S
C353 C82 1.799 . S
C363 C101 1.477 . S
C368 C176 1.468 . S
C373 C125 1.572 . S
C378 C211 1.675 . S
C383 C144 1.411 . S
C388 C231 1.356 . S
C393 C87 1.434 . S
C398 C181 1.431 . S
C408 C164 2.068 . S
C403 C97 2.040 . S
C418 C216 1.383 . S
C413 C120 1.614 . S
C428 C196 1.351 . S
C423 C135 1.367 . S
C433 C78 1.744 . S
C438 C221 1.608 . S
C448 C191 1.426 . S
C443 C116 1.420 . S
C458 C154 1.740 . S
C453 C139 1.801 . S
C463 C106 1.181 . S
C468 C201 1.281 . S
