# Generated by pormake.
# Topology pyr, (3,6)-cn, num edge types: 1
# Building blocks:
#     Node 0, Type 0, BuildingBlock: CUQRIR_clean_linker_1, # of connection points: 3
#     Node 1, Type 0, BuildingBlock: CUQRIR_clean_linker_1, # of connection points: 3
#     Node 2, Type 0, BuildingBlock: CUQRIR_clean_linker_1, # of connection points: 3
#     Node 3, Type 0, BuildingBlock: CUQRIR_clean_linker_1, # of connection points: 3
#     Node 4, Type 0, BuildingBlock: CUQRIR_clean_linker_1, # of connection points: 3
#     Node 5, Type 0, BuildingBlock: CUQRIR_clean_linker_1, # of connection points: 3
#     Node 6, Type 0, BuildingBlock: CUQRIR_clean_linker_1, # of connection points: 3
#     Node 7, Type 0, BuildingBlock: CUQRIR_clean_linker_1, # of connection points: 3
#     Node 8, Type 1, BuildingBlock: BETDIP_clean_sbu_0, # of connection points: 6
#     Node 9, Type 1, BuildingBlock: BETDIP_clean_sbu_0, # of connection points: 6
#     Node 10, Type 1, BuildingBlock: BETDIP_clean_sbu_0, # of connection points: 6
#     Node 11, Type 1, BuildingBlock: BETDIP_clean_sbu_0, # of connection points: 6
#     Edge 12, Type (0, 1), BuildingBlock: OJICUG_clean_linker_0, # of connection points: 2
#     Edge 13, Type (0, 1), BuildingBlock: OJICUG_clean_linker_0, # of connection points: 2
#     Edge 14, Type (0, 1), BuildingBlock: OJICUG_clean_linker_0, # of connection points: 2
#     Edge 15, Type (0, 1), BuildingBlock: OJICUG_clean_linker_0, # of connection points: 2
#     Edge 16, Type (0, 1), BuildingBlock: OJICUG_clean_linker_0, # of connection points: 2
#     Edge 17, Type (0, 1), BuildingBlock: OJICUG_clean_linker_0, # of connection points: 2
#     Edge 18, Type (0, 1), BuildingBlock: OJICUG_clean_linker_0, # of connection points: 2
#     Edge 19, Type (0, 1), BuildingBlock: OJICUG_clean_linker_0, # of connection points: 2
#     Edge 20, Type (0, 1), BuildingBlock: OJICUG_clean_linker_0, # of connection points: 2
#     Edge 21, Type (0, 1), BuildingBlock: OJICUG_clean_linker_0, # of connection points: 2
#     Edge 22, Type (0, 1), BuildingBlock: OJICUG_clean_linker_0, # of connection points: 2
#     Edge 23, Type (0, 1), BuildingBlock: OJICUG_clean_linker_0, # of connection points: 2
#     Edge 24, Type (0, 1), BuildingBlock: OJICUG_clean_linker_0, # of connection points: 2
#     Edge 25, Type (0, 1), BuildingBlock: OJICUG_clean_linker_0, # of connection points: 2
#     Edge 26, Type (0, 1), BuildingBlock: OJICUG_clean_linker_0, # of connection points: 2
#     Edge 27, Type (0, 1), BuildingBlock: OJICUG_clean_linker_0, # of connection points: 2
#     Edge 28, Type (0, 1), BuildingBlock: OJICUG_clean_linker_0, # of connection points: 2
#     Edge 29, Type (0, 1), BuildingBlock: OJICUG_clean_linker_0, # of connection points: 2
#     Edge 30, Type (0, 1), BuildingBlock: OJICUG_clean_linker_0, # of connection points: 2
#     Edge 31, Type (0, 1), BuildingBlock: OJICUG_clean_linker_0, # of connection points: 2
#     Edge 32, Type (0, 1), BuildingBlock: OJICUG_clean_linker_0, # of connection points: 2
#     Edge 33, Type (0, 1), BuildingBlock: OJICUG_clean_linker_0, # of connection points: 2
#     Edge 34, Type (0, 1), BuildingBlock: OJICUG_clean_linker_0, # of connection points: 2
#     Edge 35, Type (0, 1), BuildingBlock: OJICUG_clean_linker_0, # of connection points: 2
# Relax obj value: 0.300
# Max RMSD: 0.308
# Mean RMSD: 0.179
data_MOF--net-pyr--node1-BETDIP_clean_sbu_0--node2-CUQRIR_clean_linker_1--edge1-OJICUG_clean_linker_0
_symmetry_space_group_name_H-M    P1
_symmetry_Int_Tables_number       1
_symmetry_cell_setting            triclinic
loop_
_symmetry_equiv_pos_as_xyz
'x, y, z'
_cell_length_a     24.181825
_cell_length_b     25.236679
_cell_length_c     24.096509
_cell_angle_alpha  88.123076
_cell_angle_beta   93.525542
_cell_angle_gamma 109.99656
loop_
_atom_site_label
_atom_site_type_symbol
_atom_site_fract_x
_atom_site_fract_y
_atom_site_fract_z
_atom_type_partial_charge
C0 C 0.43538 0.44838 0.31736 0.0
N1 N 0.4635 0.41026 0.32458 0.0
N2 N 0.42599 0.45888 0.26275 0.0
C3 C 0.40408 0.46447 0.3628 0.0
C4 C 0.45413 0.42918 0.23707 0.0
N5 N 0.47769 0.40037 0.27441 0.0
C6 C 0.45102 0.42215 0.17516 0.0
H7 H 0.36081 0.43082 0.36789 0.0
H8 H 0.39644 0.50464 0.35239 0.0
H9 H 0.43037 0.4693 0.40286 0.0
H10 H 0.44951 0.46124 0.15365 0.0
H11 H 0.41008 0.38725 0.16264 0.0
H12 H 0.48939 0.41185 0.16216 0.0
C13 C 0.09439 0.81243 0.78811 0.0
N14 N 0.07866 0.85297 0.81138 0.0
N15 N 0.11758 0.78482 0.82684 0.0
C16 C 0.09492 0.80447 0.72654 0.0
C17 C 0.11009 0.80686 0.8752 0.0
N18 N 0.08937 0.85021 0.86604 0.0
C19 C 0.13525 0.79366 0.93066 0.0
H20 H 0.06297 0.8207 0.70309 0.0
H21 H 0.08392 0.75905 0.7176 0.0
H22 H 0.13981 0.82703 0.71226 0.0
H23 H 0.1748 0.82978 0.94388 0.0
H24 H 0.14762 0.7553 0.92846 0.0
H25 H 0.10221 0.7866 0.96256 0.0
C26 C 0.59768 0.42699 0.92251 0.0
N27 N 0.63129 0.4212 0.9688 0.0
N28 N 0.61901 0.47964 0.89867 0.0
C29 C 0.54459 0.38031 0.89981 0.0
C30 C 0.66685 0.50574 0.93333 0.0
N31 N 0.67519 0.47074 0.97514 0.0
C32 C 0.70192 0.56786 0.9303 0.0
H33 H 0.54753 0.3384 0.9113 0.0
H34 H 0.53991 0.38378 0.85387 0.0
H35 H 0.50465 0.38345 0.91769 0.0
H36 H 0.71932 0.58451 0.97226 0.0
H37 H 0.67441 0.59201 0.91205 0.0
H38 H 0.73985 0.57472 0.90396 0.0
C39 C 0.84011 0.75027 0.42011 0.0
N40 N 0.89306 0.78806 0.40505 0.0
N41 N 0.81923 0.76818 0.46428 0.0
C42 C 0.80795 0.69553 0.39093 0.0
C43 C 0.86128 0.81828 0.47655 0.0
N44 N 0.90626 0.8315 0.4412 0.0
C45 C 0.85919 0.85435 0.52484 0.0
H46 H 0.81407 0.69998 0.34557 0.0
H47 H 0.76011 0.68087 0.39789 0.0
H48 H 0.82608 0.66294 0.40752 0.0
H49 H 0.82392 0.8323 0.55315 0.0
H50 H 0.8524 0.89347 0.50869 0.0
H51 H 0.90121 0.86661 0.55028 0.0
C52 C 0.55465 0.83861 0.97687 0.0
N53 N 0.58896 0.82062 0.94527 0.0
N54 N 0.52839 0.87042 0.94656 0.0
C55 C 0.55284 0.83191 1.0391 0.0
C56 C 0.54572 0.86845 0.89448 0.0
N57 N 0.5832 0.83909 0.89365 0.0
C58 C 0.53512 0.90455 0.84684 0.0
H59 H 0.5077 0.82542 1.05201 0.0
H60 H 0.58297 0.87108 1.05891 0.0
H61 H 0.56623 0.79576 1.05393 0.0
H62 H 0.57667 0.93963 0.83909 0.0
H63 H 0.50044 0.92219 0.8558 0.0
H64 H 0.52133 0.87915 0.80851 0.0
C65 C 0.92238 0.41185 0.53475 0.0
N66 N 0.94777 0.39036 0.49679 0.0
N67 N 0.89617 0.44695 0.51034 0.0
C68 C 0.91676 0.3935 0.59472 0.0
C69 C 0.9085 0.44734 0.4562 0.0
N70 N 0.93788 0.41149 0.44738 0.0
C71 C 0.87923 0.47193 0.41011 0.0
H72 H 0.8758 0.35671 0.59889 0.0
H73 H 0.91381 0.42802 0.62045 0.0
H74 H 0.95485 0.38107 0.61016 0.0
H75 H 0.86952 0.50889 0.42463 0.0
H76 H 0.83721 0.4394 0.39568 0.0
H77 H 0.90787 0.48533 0.37439 0.0
C78 C 0.32911 0.76566 0.3383 0.0
N79 N 0.38739 0.79145 0.3538 0.0
N80 N 0.3179 0.76915 0.28259 0.0
C81 C 0.28327 0.73606 0.37888 0.0
C82 C 0.37168 0.79939 0.26461 0.0
N83 N 0.41306 0.8171 0.30727 0.0
C84 C 0.38509 0.81251 0.20436 0.0
H85 H 0.27737 0.69047 0.38037 0.0
H86 H 0.24039 0.74093 0.36606 0.0
H87 H 0.29755 0.75321 0.42125 0.0
H88 H 0.38136 0.85415 0.19287 0.0
H89 H 0.35444 0.77984 0.17672 0.0
H90 H 0.4308 0.81477 0.19759 0.0
C91 C 0.09686 0.42137 0.83919 0.0
N92 N 0.12836 0.41598 0.79535 0.0
N93 N 0.11937 0.47377 0.86257 0.0
C94 C 0.04291 0.37575 0.85837 0.0
C95 C 0.1662 0.49993 0.83101 0.0
N96 N 0.17151 0.46594 0.78979 0.0
C97 C 0.21028 0.55737 0.84431 0.0
H98 H 0.01846 0.34871 0.82329 0.0
H99 H 1.01334 0.39401 0.87808 0.0
H100 H 0.05672 0.34882 0.88961 0.0
H101 H 0.21217 0.56611 0.88934 0.0
H102 H 0.19673 0.58999 0.82108 0.0
H103 H 0.25502 0.5608 0.83254 0.0
Tb104 Tb 0.9737 0.10363 0.62523 0.0
Tb105 Tb 0.09255 0.13529 0.59774 0.0
C106 C 0.86572 1.05729 0.64065 0.0
C107 C 0.82542 1.00421 0.66278 0.0
C108 C 0.76459 0.99197 0.6537 0.0
C109 C 0.72521 0.94915 0.68437 0.0
C110 C 0.74641 0.91848 0.72488 0.0
C111 C 0.80712 0.92733 0.73001 0.0
C112 C 0.84639 0.96985 0.699 0.0
C113 C 0.03832 0.20609 0.6664 0.0
C114 C 0.05006 1.04368 0.69279 0.0
C115 C 0.20366 0.17015 0.59777 0.0
C116 C 0.24863 0.20316 0.56072 0.0
C117 C 0.30815 0.2103 0.57331 0.0
C118 C 0.35113 0.24131 0.53726 0.0
C119 C 0.33455 0.26496 0.48831 0.0
C120 C 0.27489 0.25887 0.47698 0.0
C121 C 0.23225 0.22799 0.51275 0.0
C122 C 0.02076 1.053 0.53025 0.0
C123 C 1.01427 0.19376 0.53405 0.0
O124 O 0.88903 1.0551 0.59355 0.0
O125 O 0.90388 0.08936 0.67703 0.0
O126 O 0.05383 0.16253 0.66544 0.0
O127 O 0.98506 0.19149 0.64508 0.0
O128 O 0.99719 1.04719 0.68473 0.0
O129 O 0.09449 1.07618 0.66484 0.0
O130 O 0.17331 0.19764 0.61908 0.0
O131 O 0.16998 0.12091 0.57955 0.0
O132 O 0.01905 1.05748 0.58256 0.0
O133 O 0.06356 0.09724 0.51445 0.0
O134 O 0.06843 0.20218 0.55416 0.0
O135 O 0.97244 0.146 0.54553 0.0
H136 H 0.74769 1.01804 0.62575 0.0
H137 H 0.6787 0.94356 0.67991 0.0
H138 H 0.82448 0.90401 0.76078 0.0
H139 H 0.89316 0.97827 0.70613 0.0
H140 H 0.32121 0.19149 0.61064 0.0
H141 H 0.39682 0.24563 0.54683 0.0
H142 H 0.2611 0.27782 0.4401 0.0
H143 H 0.18647 0.22324 0.50289 0.0
Tb144 Tb 0.59283 0.13681 0.16376 0.0
Tb145 Tb 0.47053 0.11764 0.15323 0.0
C146 C 0.70387 0.16981 0.17084 0.0
C147 C 0.75517 0.21833 0.18736 0.0
C148 C 0.74913 0.26961 0.20073 0.0
C149 C 0.79531 0.31013 0.22966 0.0
C150 C 0.84726 0.29919 0.24574 0.0
C151 C 0.85535 0.25054 0.227 0.0
C152 C 0.8094 0.21026 0.19773 0.0
C153 C 0.52987 1.03939 0.21383 0.0
C154 C 0.5368 0.20273 0.23758 0.0
C155 C 0.35914 1.08024 0.1493 0.0
C156 C 0.31267 1.05559 0.10635 0.0
C157 C 0.25356 1.04661 0.11617 0.0
C158 C 0.2091 1.02167 1.07546 0.0
C159 C 0.22347 1.0055 1.0245 0.0
C160 C 0.28308 1.01496 1.01522 0.0
C161 C 0.32716 1.04017 1.05548 0.0
C162 C 0.53366 0.21351 0.10015 0.0
C163 C 0.52297 1.05574 1.07047 0.0
O164 O 0.67309 0.17555 0.12609 0.0
O165 O 0.67052 0.14418 0.21107 0.0
O166 O 0.52078 0.08634 0.21522 0.0
O167 O 0.57495 1.0475 0.1845 0.0
O168 O 0.58305 0.20779 0.20876 0.0
O169 O 0.49208 0.15544 0.23388 0.0
O170 O 0.39207 1.05008 0.16423 0.0
O171 O 0.39056 0.13305 0.1416 0.0
O172 O 0.54286 0.16669 0.10129 0.0
O173 O 0.48615 0.20541 0.12581 0.0
O174 O 0.47524 1.05693 0.09295 0.0
O175 O 0.57549 0.08972 1.08743 0.0
H176 H 0.70738 0.27629 0.19296 0.0
H177 H 0.78794 0.34694 0.24497 0.0
H178 H 0.89456 0.24091 0.24018 0.0
H179 H 0.8145 0.17073 0.18753 0.0
H180 H 0.24181 1.05851 0.15539 0.0
H181 H 0.16371 1.01498 1.08386 0.0
H182 H 0.2959 1.00158 0.97728 0.0
H183 H 0.3725 1.04685 1.0471 0.0
Tb184 Tb 0.4987 0.66377 0.65046 0.0
Tb185 Tb 0.48246 0.56952 0.58612 0.0
C186 C 0.48462 0.74571 0.69695 0.0
C187 C 0.43557 0.75045 0.72701 0.0
C188 C 0.42409 0.80115 0.72387 0.0
C189 C 0.37281 0.80425 0.74485 0.0
C190 C 0.33191 0.75653 0.76924 0.0
C191 C 0.34428 0.70603 0.77359 0.0
C192 C 0.39592 0.7031 0.75287 0.0
C193 C 0.54379 0.59199 0.70449 0.0
C194 C 0.37553 0.55932 0.65504 0.0
C195 C 0.5017 0.48894 0.54178 0.0
C196 C 0.55807 0.47943 0.53491 0.0
C197 C 0.56934 0.43448 0.56343 0.0
C198 C 0.62502 0.42905 0.56358 0.0
C199 C 0.67073 0.46829 0.53485 0.0
C200 C 0.65872 0.51219 0.50472 0.0
C201 C 0.60312 0.51778 0.50482 0.0
C202 C 0.44436 0.64711 0.52997 0.0
C203 C 0.6045 0.66906 0.58256 0.0
O204 O 0.47215 0.73461 0.64426 0.0
O205 O 0.51381 0.71526 0.72048 0.0
O206 O 0.49493 0.5794 0.67586 0.0
O207 O 0.56876 0.6463 0.702 0.0
O208 O 0.40431 0.61386 0.66266 0.0
O209 O 0.39961 0.52974 0.62692 0.0
O210 O 0.48694 0.48788 0.59304 0.0
O211 O 0.49266 0.53045 0.51344 0.0
O212 O 0.4903 0.6558 0.56178 0.0
O213 O 0.41865 0.59263 0.52875 0.0
O214 O 0.57855 0.61381 0.58372 0.0
O215 O 0.57691 0.70094 0.60202 0.0
H216 H 0.45383 0.83787 0.70351 0.0
H217 H 0.36425 0.84362 0.7402 0.0
H218 H 0.31398 0.66881 0.79269 0.0
H219 H 0.40406 0.66349 0.75586 0.0
H220 H 0.5355 0.40445 0.58709 0.0
H221 H 0.63262 0.39485 0.58745 0.0
H222 H 0.69235 0.54246 0.48108 0.0
H223 H 0.59607 0.55303 0.48241 0.0
Tb224 Tb 0.99432 0.66924 0.09526 0.0
Tb225 Tb 0.99444 0.5759 0.17144 0.0
C226 C 0.95814 0.73356 1.03259 0.0
C227 C 0.9022 0.74463 1.02543 0.0
C228 C 0.848 0.70086 1.03122 0.0
C229 C 0.79501 0.71103 1.02099 0.0
C230 C 0.79535 0.76526 1.00568 0.0
C231 C 0.84962 0.80923 1.00112 0.0
C232 C 0.90264 0.7989 1.01068 0.0
C233 C 0.09983 0.68389 0.14565 0.0
C234 C 0.95987 0.67522 0.2227 0.0
C235 C 0.03213 0.50738 0.22677 0.0
C236 C 0.0887 0.49725 0.22455 0.0
C237 C 0.13257 0.53113 0.19034 0.0
C238 C 0.1878 0.52472 0.19087 0.0
C239 C 0.20013 0.48349 0.22492 0.0
C240 C 0.15555 0.44843 0.25804 0.0
C241 C 0.10044 0.45547 0.25804 0.0
C242 C 0.88856 0.56017 0.11983 0.0
C243 C 0.04096 0.57937 1.04566 0.0
O244 O 0.95544 0.68308 1.01897 0.0
O245 O 0.98947 0.75021 1.07897 0.0
O246 O 0.04994 0.66136 0.16519 0.0
O247 O 0.09141 0.70495 0.09725 0.0
O248 O 0.95408 0.69027 0.16956 0.0
O249 O 0.97779 0.63134 0.23418 0.0
O250 O 0.03629 0.55692 0.24451 0.0
O251 O 0.99626 0.49334 0.18276 0.0
O252 O 0.93903 0.58233 0.1006 0.0
O253 O 0.89685 0.54327 0.17031 0.0
O254 O 0.03911 0.55943 0.09773 0.0
O255 O 0.02315 0.62275 1.03385 0.0
H256 H 0.84656 0.65863 1.04302 0.0
H257 H 0.75377 0.67668 1.02542 0.0
H258 H 0.851 0.85137 0.98899 0.0
H259 H 0.94396 0.8331 1.00591 0.0
H260 H 0.1248 0.56367 0.16408 0.0
H261 H 0.22088 0.55205 0.16458 0.0
H262 H 0.16384 0.41655 0.28512 0.0
H263 H 0.0674 0.42886 0.28478 0.0
C264 C 0.46284 0.37472 0.42163 0.0
C265 C 0.44358 0.36602 0.36545 0.0
H266 H 0.44239 0.34893 0.5061 0.0
C267 C 0.39416 0.3191 0.35073 0.0
H268 H 0.50016 0.41146 0.43367 0.0
C269 C 0.36259 0.28306 0.391 0.0
C270 C 0.37786 0.29468 0.44736 0.0
H271 H 0.37624 0.31345 0.30832 0.0
H272 H 0.32314 0.24869 0.37806 0.0
C273 C 0.42985 0.33917 0.4627 0.0
C274 C 0.09124 0.89415 0.95651 0.0
C275 C 0.10869 0.89873 0.90154 0.0
H276 H 0.11507 0.92401 1.03985 0.0
C277 C 0.15658 0.94565 0.88611 0.0
H278 H 0.05458 0.8581 0.96932 0.0
C279 C 0.18942 0.98451 0.92541 0.0
C280 C 0.17737 0.97559 0.98183 0.0
H281 H 0.17291 0.94933 0.84497 0.0
H282 H 0.22772 1.01865 0.91223 0.0
C283 C 0.12584 0.93198 0.99672 0.0
C284 C 0.63878 0.53741 0.81006 0.0
C285 C 0.5983 0.50315 0.84754 0.0
H286 H 0.65385 0.59187 0.73762 0.0
C287 C 0.53797 0.49488 0.8344 0.0
H288 H 0.68526 0.54402 0.81689 0.0
C289 C 0.51948 0.52076 0.78669 0.0
C290 C 0.56067 0.557 0.75097 0.0
H291 H 0.50495 0.46978 0.8619 0.0
H292 H 0.47303 0.51435 0.77921 0.0
C293 C 0.62056 0.56448 0.7637 0.0
C294 C 0.95115 0.73143 0.37086 0.0
C295 C 0.92652 0.77472 0.36111 0.0
H296 H 0.97977 0.66696 0.3379 0.0
C297 C 0.91493 0.78579 0.30428 0.0
H298 H 0.95808 0.71877 0.41334 0.0
C299 C 0.92643 0.75491 0.26015 0.0
C300 C 0.94895 0.71012 0.27026 0.0
H301 H 0.89313 0.81609 0.29397 0.0
H302 H 0.91548 0.76499 0.21781 0.0
C303 C 0.96218 0.70024 0.32697 0.0
C304 C 0.45452 0.30536 0.23698 0.0
C305 C 0.49536 0.3529 0.26246 0.0
H306 H 0.43383 0.21998 0.21412 0.0
C307 C 0.55094 0.35107 0.28134 0.0
H308 H 0.41136 0.30553 0.22235 0.0
C309 C 0.56558 0.30244 0.27368 0.0
C310 C 0.52336 0.25404 0.25019 0.0
H311 H 0.58286 0.38734 0.30161 0.0
H312 H 0.60917 0.30229 0.28682 0.0
C313 C 0.46751 0.25614 0.23273 0.0
C314 C 0.02267 0.91791 0.79189 0.0
C315 C 0.07076 0.90099 0.78228 0.0
H316 H 0.97792 0.9768 0.77095 0.0
C317 C 0.11333 0.93327 0.74623 0.0
H318 H 0.98998 0.89401 0.82035 0.0
C319 C 0.1075 0.98082 0.71929 0.0
C320 C 0.05846 0.99702 0.7271 0.0
H321 H 0.15199 0.92232 0.73987 0.0
H322 H 0.14098 1.00407 0.69123 0.0
C323 C 1.0161 0.96527 0.76395 0.0
C324 C 0.78415 0.50741 0.99135 0.0
C325 C 0.72784 0.48457 1.01313 0.0
H326 H 0.87711 0.54995 1.00653 0.0
C327 C 0.72497 0.48491 1.07141 0.0
H328 H 0.78833 0.50797 0.94685 0.0
C329 C 0.77675 0.50872 0.10627 0.0
C330 C 0.8327 0.53376 1.08382 0.0
H331 H 0.6826 0.46879 0.08983 0.0
H332 H 0.77278 0.50878 0.15078 0.0
C333 C 0.83527 0.532 1.02574 0.0
C334 C 0.74969 0.68721 0.51519 0.0
C335 C 0.76418 0.74177 0.49174 0.0
H336 H 0.68873 0.62182 0.56285 0.0
C337 C 0.72568 0.77191 0.49863 0.0
H338 H 0.77855 0.66306 0.51103 0.0
C339 C 0.67521 0.74906 0.52948 0.0
C340 C 0.66073 0.69466 0.55327 0.0
H341 H 0.73531 0.81378 0.48067 0.0
H342 H 0.64686 0.77374 0.53377 0.0
C343 C 0.69844 0.66383 0.54524 0.0
C344 C 0.36677 0.52019 0.24007 0.0
C345 C 0.37205 0.46654 0.24174 0.0
H346 H 0.30803 0.56774 0.23345 0.0
C347 C 0.32108 0.41891 0.2336 0.0
H348 H 0.40538 0.55724 0.24762 0.0
C349 C 0.26552 0.42452 0.22651 0.0
C350 C 0.25968 0.478 0.22709 0.0
H351 H 0.32417 0.37707 0.23606 0.0
H352 H 0.22695 0.38686 0.22198 0.0
C353 C 0.31109 0.52596 0.23239 0.0
C354 C 0.57463 0.36741 1.04763 0.0
C355 C 0.61591 0.37255 1.00732 0.0
H356 H 0.51766 0.31494 0.1077 0.0
C357 C 0.63248 0.32485 0.99909 0.0
H358 H 0.55965 0.40242 1.05429 0.0
C359 C 0.60794 0.27367 1.02981 0.0
C360 C 0.56516 0.26824 1.06909 0.0
H361 H 0.66291 0.32654 0.96742 0.0
H362 H 0.62101 0.23787 1.02146 0.0
C363 C 0.55 0.31661 1.07789 0.0
C364 C 0.94101 0.93499 0.42343 0.0
C365 C 0.95335 0.88703 0.44502 0.0
H366 H 0.95123 1.02304 0.43231 0.0
C367 C 0.99486 0.8974 0.49115 0.0
H368 H 0.90792 0.92948 0.38968 0.0
C369 C 0.01699 0.9506 0.51808 0.0
C370 C 1.00071 0.997 0.49887 0.0
H371 H 1.00433 0.8621 0.51097 0.0
H372 H 0.04528 0.95472 0.55549 0.0
C373 C 0.96458 0.98874 0.44928 0.0
C374 C 0.16901 0.72389 0.79159 0.0
C375 C 0.17062 0.77335 0.81751 0.0
H376 H 0.21944 0.67954 0.75567 0.0
C377 C 0.22532 0.81517 0.83023 0.0
H378 H 0.12718 0.69153 0.78101 0.0
C379 C 0.27747 0.80835 0.81668 0.0
C380 C 0.27633 0.75995 0.789 0.0
H381 H 0.22745 0.85412 0.84935 0.0
H382 H 0.31875 0.8417 0.82686 0.0
C383 C 0.22165 0.71712 0.77749 0.0
C384 C 0.68474 0.88391 0.86577 0.0
C385 C 0.62673 0.84883 0.85281 0.0
H386 H 0.76844 0.93177 0.83544 0.0
C387 C 0.60995 0.83106 0.7979 0.0
H388 H 0.69791 0.90035 0.90721 0.0
C389 C 0.64992 0.85055 0.75591 0.0
C390 C 0.70747 0.88736 0.76881 0.0
H391 H 0.56503 0.80486 0.78735 0.0
H392 H 0.63522 0.83894 0.71323 0.0
C393 C 0.72497 0.90222 0.82444 0.0
C394 C 0.87919 0.32757 0.39657 0.0
C395 C 0.92589 0.37907 0.39742 0.0
H396 H 0.81932 0.26177 0.34733 0.0
C397 C 0.95121 0.40265 0.34739 0.0
H398 H 0.85674 0.31042 0.43397 0.0
C399 C 0.92779 0.37585 0.29681 0.0
C400 C 0.87979 0.32519 0.29672 0.0
H401 H 0.98628 0.44318 0.34734 0.0
H402 H 0.94528 0.39549 0.25805 0.0
C403 C 0.85702 0.30045 0.34692 0.0
C404 C 0.43483 0.78106 0.44871 0.0
C405 C 0.41387 0.76058 0.39467 0.0
H406 H 0.46226 0.76312 0.53256 0.0
C407 C 0.40642 0.70321 0.38582 0.0
H408 H 0.43976 0.82409 0.45831 0.0
C409 C 0.41648 0.66748 0.42905 0.0
C410 C 0.43635 0.68739 0.48333 0.0
H411 H 0.38924 0.68491 0.34562 0.0
H412 H 0.40795 0.62357 0.41988 0.0
C413 C 0.44696 0.74551 0.49178 0.0
C414 C 0.08863 0.55077 0.90114 0.0
C415 C 0.09802 0.49855 0.90825 0.0
H416 H 0.06401 0.61629 0.93671 0.0
C417 C 0.08882 0.47331 0.96179 0.0
H418 H 0.09492 0.57192 0.86101 0.0
C419 C 0.07152 0.49942 1.00614 0.0
C420 C 0.06194 0.5517 0.9989 0.0
H421 H 0.096 0.43364 0.96971 0.0
H422 H 0.06527 0.47823 1.04626 0.0
C423 C 0.07076 0.57646 0.9451 0.0
C424 C 0.5681 0.9708 0.96834 0.0
C425 C 0.521 0.91943 0.96905 0.0
H426 H 0.60523 1.05462 0.99923 0.0
C427 C 0.47119 0.91515 0.99807 0.0
H428 H 0.60726 0.97443 0.94677 0.0
C429 C 0.46977 0.9612 1.02818 0.0
C430 C 0.51867 1.01157 1.03019 0.0
H431 H 0.43486 0.87556 0.99941 0.0
H432 H 0.43203 0.95617 1.05248 0.0
C433 C 0.56701 1.01642 0.99859 0.0
C434 C 0.924 0.28982 0.52173 0.0
C435 C 0.96497 0.341 0.50451 0.0
H436 H 0.90639 0.20293 0.54143 0.0
C437 C 0.02148 0.34263 0.49194 0.0
H438 H 0.8798 0.28729 0.53053 0.0
C439 C 0.03757 0.2942 0.49914 0.0
C440 C 0.99647 0.24293 0.51688 0.0
H441 H 0.05341 0.38168 0.47788 0.0
H442 H 0.08224 0.29704 0.49174 0.0
C443 C 0.93915 0.24127 0.52693 0.0
C444 C 0.22144 0.69359 0.25842 0.0
C445 C 0.26214 0.74805 0.2496 0.0
H446 H 0.13746 0.63238 0.23512 0.0
C447 C 0.24779 0.78138 0.20674 0.0
H448 H 0.23075 0.66606 0.29012 0.0
C449 C 0.19631 0.76003 0.17213 0.0
C450 C 0.15576 0.70571 0.18115 0.0
H451 H 0.27645 0.82426 0.1998 0.0
H452 H 0.18752 0.78674 0.13915 0.0
C453 C 0.1683 0.67353 0.22579 0.0
C454 C 0.2285 0.53679 0.721 0.0
C455 C 0.21576 0.48344 0.74749 0.0
H456 H 0.28856 0.60288 0.67332 0.0
C457 C 0.25315 0.45271 0.73794 0.0
H458 H 0.20045 0.56152 0.72629 0.0
C459 C 0.303 0.47586 0.70537 0.0
C460 C 0.31789 0.53101 0.68251 0.0
H461 H 0.24581 0.41212 0.75805 0.0
H462 H 0.33182 0.45173 0.70075 0.0
C463 C 0.27917 0.56062 0.6903 0.0
C464 C 0.68004 0.8354 1.00374 0.0
C465 C 0.63677 0.80219 0.96562 0.0
H466 H 0.76417 0.84968 1.04615 0.0
C467 C 0.64455 0.75509 0.94259 0.0
H468 H 0.67591 0.87304 1.02052 0.0
C469 C 0.69524 0.74173 0.95706 0.0
C470 C 0.73936 0.77612 0.99389 0.0
H471 H 0.61207 0.72968 0.91242 0.0
H472 H 0.70102 0.70589 0.93786 0.0
C473 C 0.7309 0.82261 1.0176 0.0
C474 C 0.50446 0.89003 0.27544 0.0
C475 C 0.45144 0.87649 0.30278 0.0
H476 H 0.56923 0.94978 0.22646 0.0
C477 C 0.42734 0.92037 0.30557 0.0
H478 H 0.52351 0.85754 0.27025 0.0
C479 C 0.45313 0.9739 0.27922 0.0
C480 C 0.50406 0.98569 0.24871 0.0
H481 H 0.3854 0.91145 0.32414 0.0
H482 H 0.43137 1.00486 0.28031 0.0
C483 C 0.53 0.94311 0.24905 0.0
C484 C 0.07014 0.35902 0.71462 0.0
C485 C 0.11308 0.36666 0.75871 0.0
H486 H 1.01407 0.30411 0.65194 0.0
C487 C 0.13383 0.32119 0.77083 0.0
H488 H 0.05202 0.39212 0.7046 0.0
C489 C 0.1123 0.27009 0.74003 0.0
C490 C 0.06796 0.26196 0.69685 0.0
H491 H 0.16579 0.32466 0.80522 0.0
H492 H 0.12878 0.23617 0.75152 0.0
C493 C 0.04804 0.30795 0.68458 0.0
C494 C 0.79125 0.40432 0.52802 0.0
C495 C 0.84223 0.45237 0.52716 0.0
H496 H 0.69742 0.37156 0.53001 0.0
C497 C 0.83732 0.50567 0.53269 0.0
H498 H 0.79404 0.36295 0.52221 0.0
C499 C 0.78186 0.51093 0.53691 0.0
C500 C 0.7303 0.46287 0.53537 0.0
H501 H 0.87611 0.5432 0.53118 0.0
H502 H 0.77928 0.5527 0.54024 0.0
C503 C 0.73595 0.40943 0.53213 0.0
loop_
_geom_bond_atom_site_label_1
_geom_bond_atom_site_label_2
_geom_bond_distance
_geom_bond_site_symmetry_2
_ccdc_geom_bond_type
C0 N1 1.317 . S
C0 N2 1.348 . S
C0 C3 1.485 . S
N1 C0 1.317 . S
N1 N5 1.370 . S
N2 C0 1.348 . S
N2 C4 1.346 . S
C3 C0 1.485 . S
C3 H7 0.960 . S
C3 H8 0.961 . S
C3 H9 0.960 . S
C4 N2 1.346 . S
C4 N5 1.307 . S
C4 C6 1.486 . S
N5 N1 1.370 . S
N5 C4 1.307 . S
C6 C4 1.486 . S
C6 H10 0.960 . S
C6 H11 0.960 . S
C6 H12 0.959 . S
H7 C3 0.960 . S
H8 C3 0.961 . S
H9 C3 0.960 . S
H10 C6 0.960 . S
H11 C6 0.960 . S
H12 C6 0.959 . S
C13 N14 1.317 . S
C13 N15 1.348 . S
C13 C16 1.485 . S
N14 C13 1.317 . S
N14 N18 1.370 . S
N15 C13 1.348 . S
N15 C17 1.346 . S
C16 C13 1.485 . S
C16 H20 0.960 1_455 S
C16 H21 0.961 . S
C16 H22 0.960 . S
C17 N15 1.346 . S
C17 N18 1.307 . S
C17 C19 1.486 . S
N18 N14 1.370 . S
N18 C17 1.307 . S
C19 C17 1.486 . S
C19 H23 0.960 . S
C19 H24 0.960 . S
C19 H25 0.959 . S
H20 C16 0.960 1_655 S
H21 C16 0.961 . S
H22 C16 0.960 . S
H23 C19 0.960 . S
H24 C19 0.960 . S
H25 C19 0.959 . S
C26 N27 1.317 . S
C26 N28 1.348 . S
C26 C29 1.485 . S
N27 C26 1.317 . S
N27 N31 1.370 . S
N28 C26 1.348 . S
N28 C30 1.346 . S
C29 C26 1.485 . S
C29 H33 0.960 . S
C29 H34 0.961 . S
C29 H35 0.960 . S
C30 N28 1.346 . S
C30 N31 1.307 . S
C30 C32 1.486 . S
N31 N27 1.370 . S
N31 C30 1.307 . S
C32 C30 1.486 . S
C32 H36 0.960 . S
C32 H37 0.960 . S
C32 H38 0.959 . S
H33 C29 0.960 . S
H34 C29 0.961 . S
H35 C29 0.960 . S
H36 C32 0.960 . S
H37 C32 0.960 . S
H38 C32 0.959 . S
C39 N40 1.317 . S
C39 N41 1.348 . S
C39 C42 1.485 . S
N40 C39 1.317 . S
N40 N44 1.370 . S
N41 C39 1.348 . S
N41 C43 1.346 . S
C42 C39 1.485 . S
C42 H46 0.960 . S
C42 H47 0.961 . S
C42 H48 0.960 . S
C43 N41 1.346 . S
C43 N44 1.307 . S
C43 C45 1.486 . S
N44 N40 1.370 . S
N44 C43 1.307 . S
C45 C43 1.486 . S
C45 H49 0.960 . S
C45 H50 0.960 . S
C45 H51 0.959 . S
H46 C42 0.960 . S
H47 C42 0.961 . S
H48 C42 0.960 . S
H49 C45 0.960 . S
H50 C45 0.960 . S
H51 C45 0.959 . S
C52 N53 1.317 . S
C52 N54 1.348 . S
C52 C55 1.485 . S
N53 C52 1.317 . S
N53 N57 1.370 . S
N54 C52 1.348 . S
N54 C56 1.346 . S
C55 C52 1.485 . S
C55 H59 0.960 . S
C55 H60 0.961 . S
C55 H61 0.960 . S
C56 N54 1.346 . S
C56 N57 1.307 . S
C56 C58 1.486 . S
N57 N53 1.370 . S
N57 C56 1.307 . S
C58 C56 1.486 . S
C58 H62 0.960 . S
C58 H63 0.960 . S
C58 H64 0.959 . S
H59 C55 0.960 . S
H60 C55 0.961 . S
H61 C55 0.960 . S
H62 C58 0.960 . S
H63 C58 0.960 . S
H64 C58 0.959 . S
C65 N66 1.317 . S
C65 N67 1.348 . S
C65 C68 1.485 . S
N66 C65 1.317 . S
N66 N70 1.370 . S
N67 C65 1.348 . S
N67 C69 1.346 . S
C68 C65 1.485 . S
C68 H72 0.960 . S
C68 H73 0.961 1_655 S
C68 H74 0.960 1_655 S
C69 N67 1.346 . S
C69 N70 1.307 . S
C69 C71 1.486 . S
N70 N66 1.370 . S
N70 C69 1.307 . S
C71 C69 1.486 . S
C71 H75 0.960 . S
C71 H76 0.960 . S
C71 H77 0.959 . S
H72 C68 0.960 . S
H73 C68 0.961 1_455 S
H74 C68 0.960 1_455 S
H75 C71 0.960 . S
H76 C71 0.960 . S
H77 C71 0.959 . S
C78 N79 1.317 . S
C78 N80 1.348 . S
C78 C81 1.485 . S
N79 C78 1.317 . S
N79 N83 1.370 . S
N80 C78 1.348 . S
N80 C82 1.346 . S
C81 C78 1.485 . S
C81 H85 0.960 . S
C81 H86 0.961 . S
C81 H87 0.960 . S
C82 N80 1.346 . S
C82 N83 1.307 . S
C82 C84 1.486 . S
N83 N79 1.370 . S
N83 C82 1.307 . S
C84 C82 1.486 . S
C84 H88 0.960 . S
C84 H89 0.960 . S
C84 H90 0.959 . S
H85 C81 0.960 . S
H86 C81 0.961 . S
H87 C81 0.960 . S
H88 C84 0.960 . S
H89 C84 0.960 . S
H90 C84 0.959 . S
C91 N92 1.317 . S
C91 N93 1.348 . S
C91 C94 1.485 . S
N92 C91 1.317 . S
N92 N96 1.370 . S
N93 C91 1.348 . S
N93 C95 1.346 . S
C94 C91 1.485 . S
C94 H98 0.960 . S
C94 H99 0.961 . S
C94 H100 0.960 . S
C95 N93 1.346 . S
C95 N96 1.307 . S
C95 C97 1.486 . S
N96 N92 1.370 . S
N96 C95 1.307 . S
C97 C95 1.486 . S
C97 H101 0.960 . S
C97 H102 0.960 . S
C97 H103 0.959 . S
H98 C94 0.960 . S
H99 C94 0.961 . S
H100 C94 0.960 . S
H101 C97 0.960 . S
H102 C97 0.960 . S
H103 C97 0.959 . S
Tb104 C106 2.809 1_545 S
Tb104 O124 2.484 1_545 S
Tb104 O125 2.440 1_545 S
Tb104 O126 2.658 1_655 S
Tb104 O127 2.409 1_655 S
Tb104 O128 2.378 1_645 S
Tb104 O132 2.325 1_545 S
Tb104 O135 2.341 . S
Tb105 C115 2.809 . S
Tb105 O126 2.325 . S
Tb105 O129 2.341 1_545 S
Tb105 O130 2.484 . S
Tb105 O131 2.440 . S
Tb105 O132 2.658 1_445 S
Tb105 O133 2.409 1_545 S
Tb105 O134 2.378 . S
C106 Tb104 2.809 1_565 S
C106 C107 1.514 . S
C106 O124 1.248 . S
C106 O125 1.266 . S
C107 C106 1.514 . S
C107 C108 1.359 . S
C107 C112 1.348 . S
C108 C107 1.359 . S
C108 C109 1.380 . S
C108 H136 0.929 . S
C109 C108 1.380 . S
C109 C110 1.347 . S
C109 H137 0.931 . S
C110 C109 1.347 . S
C110 C111 1.369 . S
C111 C110 1.369 . S
C111 C112 1.408 . S
C111 H138 0.930 . S
C112 C107 1.348 . S
C112 C111 1.408 . S
C112 H139 0.930 . S
C113 O126 1.281 . S
C113 O127 1.254 . S
C114 O128 1.236 . S
C114 O129 1.266 . S
C115 Tb105 2.809 . S
C115 C116 1.514 . S
C115 O130 1.248 . S
C115 O131 1.266 . S
C116 C115 1.514 . S
C116 C117 1.359 . S
C116 C121 1.348 . S
C117 C116 1.359 . S
C117 C118 1.380 . S
C117 H140 0.929 . S
C118 C117 1.380 . S
C118 C119 1.347 . S
C118 H141 0.931 . S
C119 C118 1.347 . S
C119 C120 1.369 . S
C120 C119 1.369 . S
C120 C121 1.408 . S
C120 H142 0.930 . S
C121 C116 1.348 . S
C121 C120 1.408 . S
C121 H143 0.930 . S
C122 O132 1.281 . S
C122 O133 1.254 1_655 S
C123 O134 1.236 . S
C123 O135 1.266 1_455 S
O124 Tb104 2.484 1_565 S
O124 C106 1.248 . S
O125 Tb104 2.440 1_565 S
O125 C106 1.266 . S
O126 Tb104 2.658 1_455 S
O126 Tb105 2.325 . S
O126 C113 1.281 . S
O127 Tb104 2.409 1_455 S
O127 C113 1.254 . S
O128 Tb104 2.378 1_465 S
O128 C114 1.236 . S
O129 Tb105 2.341 1_565 S
O129 C114 1.266 . S
O130 Tb105 2.484 . S
O130 C115 1.248 . S
O131 Tb105 2.440 . S
O131 C115 1.266 . S
O132 Tb104 2.325 1_565 S
O132 Tb105 2.658 1_665 S
O132 C122 1.281 . S
O133 Tb105 2.409 1_565 S
O133 C122 1.254 1_455 S
O134 Tb105 2.378 . S
O134 C123 1.236 . S
O135 Tb104 2.341 . S
O135 C123 1.266 1_655 S
H136 C108 0.929 . S
H137 C109 0.931 . S
H138 C111 0.930 . S
H139 C112 0.930 . S
H140 C117 0.929 . S
H141 C118 0.931 . S
H142 C120 0.930 . S
H143 C121 0.930 . S
Tb144 C146 2.809 . S
Tb144 O164 2.484 . S
Tb144 O165 2.440 . S
Tb144 O166 2.658 1_545 S
Tb144 O167 2.409 1_545 S
Tb144 O168 2.378 . S
Tb144 O172 2.325 . S
Tb144 O175 2.341 1_545 S
Tb145 C155 2.809 1_544 S
Tb145 O166 2.325 1_545 S
Tb145 O169 2.341 . S
Tb145 O170 2.484 1_545 S
Tb145 O171 2.440 1_554 S
Tb145 O172 2.658 . S
Tb145 O173 2.409 1_554 S
Tb145 O174 2.378 1_544 S
C146 Tb144 2.809 . S
C146 C147 1.514 . S
C146 O164 1.248 . S
C146 O165 1.266 . S
C147 C146 1.514 . S
C147 C148 1.359 . S
C147 C152 1.348 . S
C148 C147 1.359 . S
C148 C149 1.380 . S
C148 H176 0.929 . S
C149 C148 1.380 . S
C149 C150 1.347 . S
C149 H177 0.931 . S
C150 C149 1.347 . S
C150 C151 1.369 . S
C151 C150 1.369 . S
C151 C152 1.408 . S
C151 H178 0.930 . S
C152 C147 1.348 . S
C152 C151 1.408 . S
C152 H179 0.930 . S
C153 O166 1.281 . S
C153 O167 1.254 . S
C154 O168 1.236 . S
C154 O169 1.266 . S
C155 Tb145 2.809 1_566 S
C155 C156 1.514 . S
C155 O170 1.248 1_556 S
C155 O171 1.266 1_565 S
C156 C155 1.514 . S
C156 C157 1.359 . S
C156 C161 1.348 . S
C157 C156 1.359 . S
C157 C158 1.380 . S
C157 H180 0.929 . S
C158 C157 1.380 . S
C158 C159 1.347 . S
C158 H181 0.931 . S
C159 C158 1.347 . S
C159 C160 1.369 . S
C160 C159 1.369 . S
C160 C161 1.408 . S
C160 H182 0.930 . S
C161 C156 1.348 . S
C161 C160 1.408 . S
C161 H183 0.930 . S
C162 O172 1.281 . S
C162 O173 1.254 1_554 S
C163 O174 1.236 1_554 S
C163 O175 1.266 . S
O164 Tb144 2.484 . S
O164 C146 1.248 . S
O165 Tb144 2.440 . S
O165 C146 1.266 . S
O166 Tb144 2.658 1_565 S
O166 Tb145 2.325 1_565 S
O166 C153 1.281 . S
O167 Tb144 2.409 1_565 S
O167 C153 1.254 . S
O168 Tb144 2.378 . S
O168 C154 1.236 . S
O169 Tb145 2.341 . S
O169 C154 1.266 . S
O170 Tb145 2.484 1_565 S
O170 C155 1.248 1_554 S
O171 Tb145 2.440 1_556 S
O171 C155 1.266 1_545 S
O172 Tb144 2.325 . S
O172 Tb145 2.658 . S
O172 C162 1.281 . S
O173 Tb145 2.409 1_556 S
O173 C162 1.254 1_556 S
O174 Tb145 2.378 1_566 S
O174 C163 1.236 1_556 S
O175 Tb144 2.341 1_565 S
O175 C163 1.266 . S
H176 C148 0.929 . S
H177 C149 0.931 . S
H178 C151 0.930 . S
H179 C152 0.930 . S
H180 C157 0.929 . S
H181 C158 0.931 . S
H182 C160 0.930 . S
H183 C161 0.930 . S
Tb184 C186 2.809 . S
Tb184 O204 2.484 . S
Tb184 O205 2.440 . S
Tb184 O206 2.658 . S
Tb184 O207 2.409 . S
Tb184 O208 2.378 . S
Tb184 O212 2.325 . S
Tb184 O215 2.341 . S
Tb185 C195 2.809 . S
Tb185 O206 2.325 . S
Tb185 O209 2.341 . S
Tb185 O210 2.484 . S
Tb185 O211 2.440 . S
Tb185 O212 2.658 . S
Tb185 O213 2.409 . S
Tb185 O214 2.378 . S
C186 Tb184 2.809 . S
C186 C187 1.514 . S
C186 O204 1.248 . S
C186 O205 1.266 . S
C187 C186 1.514 . S
C187 C188 1.359 . S
C187 C192 1.348 . S
C188 C187 1.359 . S
C188 C189 1.380 . S
C188 H216 0.929 . S
C189 C188 1.380 . S
C189 C190 1.347 . S
C189 H217 0.931 . S
C190 C189 1.347 . S
C190 C191 1.369 . S
C191 C190 1.369 . S
C191 C192 1.408 . S
C191 H218 0.930 . S
C192 C187 1.348 . S
C192 C191 1.408 . S
C192 H219 0.930 . S
C193 O206 1.281 . S
C193 O207 1.254 . S
C194 O208 1.236 . S
C194 O209 1.266 . S
C195 Tb185 2.809 . S
C195 C196 1.514 . S
C195 O210 1.248 . S
C195 O211 1.266 . S
C196 C195 1.514 . S
C196 C197 1.359 . S
C196 C201 1.348 . S
C197 C196 1.359 . S
C197 C198 1.380 . S
C197 H220 0.929 . S
C198 C197 1.380 . S
C198 C199 1.347 . S
C198 H221 0.931 . S
C199 C198 1.347 . S
C199 C200 1.369 . S
C200 C199 1.369 . S
C200 C201 1.408 . S
C200 H222 0.930 . S
C201 C196 1.348 . S
C201 C200 1.408 . S
C201 H223 0.930 . S
C202 O212 1.281 . S
C202 O213 1.254 . S
C203 O214 1.236 . S
C203 O215 1.266 . S
O204 Tb184 2.484 . S
O204 C186 1.248 . S
O205 Tb184 2.440 . S
O205 C186 1.266 . S
O206 Tb184 2.658 . S
O206 Tb185 2.325 . S
O206 C193 1.281 . S
O207 Tb184 2.409 . S
O207 C193 1.254 . S
O208 Tb184 2.378 . S
O208 C194 1.236 . S
O209 Tb185 2.341 . S
O209 C194 1.266 . S
O210 Tb185 2.484 . S
O210 C195 1.248 . S
O211 Tb185 2.440 . S
O211 C195 1.266 . S
O212 Tb184 2.325 . S
O212 Tb185 2.658 . S
O212 C202 1.281 . S
O213 Tb185 2.409 . S
O213 C202 1.254 . S
O214 Tb185 2.378 . S
O214 C203 1.236 . S
O215 Tb184 2.341 . S
O215 C203 1.266 . S
H216 C188 0.929 . S
H217 C189 0.931 . S
H218 C191 0.930 . S
H219 C192 0.930 . S
H220 C197 0.929 . S
H221 C198 0.931 . S
H222 C200 0.930 . S
H223 C201 0.930 . S
Tb224 C226 2.809 . S
Tb224 O244 2.484 . S
Tb224 O245 2.440 . S
Tb224 O246 2.658 1_656 S
Tb224 O247 2.409 1_656 S
Tb224 O248 2.378 1_556 S
Tb224 O252 2.325 . S
Tb224 O255 2.341 1_655 S
Tb225 C235 2.809 . S
Tb225 O246 2.325 . S
Tb225 O249 2.341 1_455 S
Tb225 O250 2.484 . S
Tb225 O251 2.440 . S
Tb225 O252 2.658 1_454 S
Tb225 O253 2.409 1_455 S
Tb225 O254 2.378 1_554 S
C226 Tb224 2.809 . S
C226 C227 1.514 . S
C226 O244 1.248 . S
C226 O245 1.266 . S
C227 C226 1.514 . S
C227 C228 1.359 . S
C227 C232 1.348 . S
C228 C227 1.359 . S
C228 C229 1.380 . S
C228 H256 0.929 . S
C229 C228 1.380 . S
C229 C230 1.347 . S
C229 H257 0.931 . S
C230 C229 1.347 . S
C230 C231 1.369 . S
C231 C230 1.369 . S
C231 C232 1.408 . S
C231 H258 0.930 . S
C232 C227 1.348 . S
C232 C231 1.408 . S
C232 H259 0.930 . S
C233 O246 1.281 . S
C233 O247 1.254 . S
C234 O248 1.236 . S
C234 O249 1.266 . S
C235 Tb225 2.809 . S
C235 C236 1.514 . S
C235 O250 1.248 . S
C235 O251 1.266 . S
C236 C235 1.514 . S
C236 C237 1.359 . S
C236 C241 1.348 . S
C237 C236 1.359 . S
C237 C238 1.380 . S
C237 H260 0.929 . S
C238 C237 1.380 . S
C238 C239 1.347 . S
C238 H261 0.931 . S
C239 C238 1.347 . S
C239 C240 1.369 . S
C240 C239 1.369 . S
C240 C241 1.408 . S
C240 H262 0.930 . S
C241 C236 1.348 . S
C241 C240 1.408 . S
C241 H263 0.930 . S
C242 O252 1.281 . S
C242 O253 1.254 1_556 S
C243 O254 1.236 . S
C243 O255 1.266 . S
O244 Tb224 2.484 . S
O244 C226 1.248 . S
O245 Tb224 2.440 . S
O245 C226 1.266 . S
O246 Tb224 2.658 1_454 S
O246 Tb225 2.325 . S
O246 C233 1.281 . S
O247 Tb224 2.409 1_454 S
O247 C233 1.254 . S
O248 Tb224 2.378 1_554 S
O248 C234 1.236 . S
O249 Tb225 2.341 1_655 S
O249 C234 1.266 . S
O250 Tb225 2.484 . S
O250 C235 1.248 . S
O251 Tb225 2.440 . S
O251 C235 1.266 . S
O252 Tb224 2.325 . S
O252 Tb225 2.658 1_656 S
O252 C242 1.281 . S
O253 Tb225 2.409 1_655 S
O253 C242 1.254 1_554 S
O254 Tb225 2.378 1_556 S
O254 C243 1.236 . S
O255 Tb224 2.341 1_455 S
O255 C243 1.266 . S
H256 C228 0.929 . S
H257 C229 0.931 . S
H258 C231 0.930 . S
H259 C232 0.930 . S
H260 C237 0.929 . S
H261 C238 0.931 . S
H262 C240 0.930 . S
H263 C241 0.930 . S
C264 C265 1.387 . S
C264 H268 0.950 . S
C264 C273 1.390 . S
C265 C264 1.387 . S
C265 C267 1.387 . S
H266 C273 0.950 . S
C267 C265 1.387 . S
C267 C269 1.390 . S
C267 H271 0.950 . S
H268 C264 0.950 . S
C269 C267 1.390 . S
C269 C270 1.387 . S
C269 H272 0.950 . S
C270 C269 1.387 . S
C270 C273 1.387 . S
H271 C267 0.950 . S
H272 C269 0.950 . S
C273 C264 1.390 . S
C273 H266 0.950 . S
C273 C270 1.387 . S
C274 C275 1.387 . S
C274 H278 0.950 . S
C274 C283 1.390 . S
C275 C274 1.387 . S
C275 C277 1.387 . S
H276 C283 0.950 . S
C277 C275 1.387 . S
C277 C279 1.390 . S
C277 H281 0.950 . S
H278 C274 0.950 . S
C279 C277 1.390 . S
C279 C280 1.387 . S
C279 H282 0.950 . S
C280 C279 1.387 . S
C280 C283 1.387 . S
H281 C277 0.950 . S
H282 C279 0.950 . S
C283 C274 1.390 . S
C283 H276 0.950 . S
C283 C280 1.387 . S
C284 C285 1.387 . S
C284 H288 0.950 . S
C284 C293 1.390 . S
C285 C284 1.387 . S
C285 C287 1.387 . S
H286 C293 0.950 . S
C287 C285 1.387 . S
C287 C289 1.390 . S
C287 H291 0.950 . S
H288 C284 0.950 . S
C289 C287 1.390 . S
C289 C290 1.387 . S
C289 H292 0.950 . S
C290 C289 1.387 . S
C290 C293 1.387 . S
H291 C287 0.950 . S
H292 C289 0.950 . S
C293 C284 1.390 . S
C293 H286 0.950 . S
C293 C290 1.387 . S
C294 C295 1.387 . S
C294 H298 0.950 . S
C294 C303 1.390 . S
C295 C294 1.387 . S
C295 C297 1.387 . S
H296 C303 0.950 . S
C297 C295 1.387 . S
C297 C299 1.390 . S
C297 H301 0.950 . S
H298 C294 0.950 . S
C299 C297 1.390 . S
C299 C300 1.387 . S
C299 H302 0.950 . S
C300 C299 1.387 . S
C300 C303 1.387 . S
H301 C297 0.950 . S
H302 C299 0.950 . S
C303 C294 1.390 . S
C303 H296 0.950 . S
C303 C300 1.387 . S
C304 C305 1.387 . S
C304 H308 0.950 . S
C304 C313 1.390 . S
C305 C304 1.387 . S
C305 C307 1.387 . S
H306 C313 0.950 . S
C307 C305 1.387 . S
C307 C309 1.390 . S
C307 H311 0.950 . S
H308 C304 0.950 . S
C309 C307 1.390 . S
C309 C310 1.387 . S
C309 H312 0.950 . S
C310 C309 1.387 . S
C310 C313 1.387 . S
H311 C307 0.950 . S
H312 C309 0.950 . S
C313 C304 1.390 . S
C313 H306 0.950 . S
C313 C310 1.387 . S
C314 C315 1.387 1_655 S
C314 H318 0.950 . S
C314 C323 1.389 . S
C315 C314 1.387 1_455 S
C315 C317 1.387 . S
H316 C323 0.958 . S
C317 C315 1.387 . S
C317 C319 1.390 . S
C317 H321 0.950 . S
H318 C314 0.950 . S
C319 C317 1.390 . S
C319 C320 1.387 . S
C319 H322 0.950 . S
C320 C319 1.387 . S
C320 C323 1.380 1_455 S
H321 C317 0.950 . S
H322 C319 0.950 . S
C323 C314 1.389 . S
C323 H316 0.958 . S
C323 C320 1.380 1_655 S
C324 C325 1.387 . S
C324 H328 0.950 . S
C324 C333 1.390 . S
C325 C324 1.387 . S
C325 C327 1.387 . S
H326 C333 0.950 . S
C327 C325 1.387 . S
C327 C329 1.390 . S
C327 H331 0.950 . S
H328 C324 0.950 . S
C329 C327 1.390 . S
C329 C330 1.387 . S
C329 H332 0.950 1_556 S
C330 C329 1.387 . S
C330 C333 1.387 . S
H331 C327 0.950 . S
H332 C329 0.950 1_554 S
C333 C324 1.390 . S
C333 H326 0.950 . S
C333 C330 1.387 . S
C334 C335 1.387 . S
C334 H338 0.950 . S
C334 C343 1.390 . S
C335 C334 1.387 . S
C335 C337 1.387 . S
H336 C343 0.950 . S
C337 C335 1.387 . S
C337 C339 1.390 . S
C337 H341 0.950 . S
H338 C334 0.950 . S
C339 C337 1.390 . S
C339 C340 1.387 . S
C339 H342 0.950 . S
C340 C339 1.387 . S
C340 C343 1.387 . S
H341 C337 0.950 . S
H342 C339 0.950 . S
C343 C334 1.390 . S
C343 H336 0.950 . S
C343 C340 1.387 . S
C344 C345 1.387 . S
C344 H348 0.950 . S
C344 C353 1.390 . S
C345 C344 1.387 . S
C345 C347 1.387 . S
H346 C353 0.950 . S
C347 C345 1.387 . S
C347 C349 1.390 . S
C347 H351 0.950 . S
H348 C344 0.950 . S
C349 C347 1.390 . S
C349 C350 1.387 . S
C349 H352 0.950 . S
C350 C349 1.387 . S
C350 C353 1.387 . S
H351 C347 0.950 . S
H352 C349 0.950 . S
C353 C344 1.390 . S
C353 H346 0.950 . S
C353 C350 1.387 . S
C354 C355 1.387 . S
C354 H358 0.950 . S
C354 C363 1.390 . S
C355 C354 1.387 . S
C355 C357 1.387 . S
H356 C363 0.950 . S
C357 C355 1.387 . S
C357 C359 1.390 . S
C357 H361 0.950 . S
H358 C354 0.950 . S
C359 C357 1.390 . S
C359 C360 1.387 . S
C359 H362 0.950 . S
C360 C359 1.387 . S
C360 C363 1.387 . S
H361 C357 0.950 . S
H362 C359 0.950 . S
C363 C354 1.390 . S
C363 H356 0.950 . S
C363 C360 1.387 . S
C364 C365 1.387 . S
C364 H368 0.950 . S
C364 C373 1.390 . S
C365 C364 1.387 . S
C365 C367 1.387 . S
H366 C373 0.950 . S
C367 C365 1.387 . S
C367 C369 1.390 . S
C367 H371 0.950 . S
H368 C364 0.950 . S
C369 C367 1.390 . S
C369 C370 1.387 . S
C369 H372 0.950 . S
C370 C369 1.387 . S
C370 C373 1.387 . S
H371 C367 0.950 . S
H372 C369 0.950 . S
C373 C364 1.390 . S
C373 H366 0.950 . S
C373 C370 1.387 . S
C374 C375 1.387 . S
C374 H378 0.950 . S
C374 C383 1.390 . S
C375 C374 1.387 . S
C375 C377 1.387 . S
H376 C383 0.950 . S
C377 C375 1.387 . S
C377 C379 1.390 . S
C377 H381 0.950 . S
H378 C374 0.950 . S
C379 C377 1.390 . S
C379 C380 1.387 . S
C379 H382 0.950 . S
C380 C379 1.387 . S
C380 C383 1.387 . S
H381 C377 0.950 . S
H382 C379 0.950 . S
C383 C374 1.390 . S
C383 H376 0.950 . S
C383 C380 1.387 . S
C384 C385 1.387 . S
C384 H388 0.950 . S
C384 C393 1.390 . S
C385 C384 1.387 . S
C385 C387 1.387 . S
H386 C393 0.950 . S
C387 C385 1.387 . S
C387 C389 1.390 . S
C387 H391 0.950 . S
H388 C384 0.950 . S
C389 C387 1.390 . S
C389 C390 1.387 . S
C389 H392 0.950 . S
C390 C389 1.387 . S
C390 C393 1.387 . S
H391 C387 0.950 . S
H392 C389 0.950 . S
C393 C384 1.390 . S
C393 H386 0.950 . S
C393 C390 1.387 . S
C394 C395 1.387 . S
C394 H398 0.950 . S
C394 C403 1.390 . S
C395 C394 1.387 . S
C395 C397 1.387 . S
H396 C403 0.950 . S
C397 C395 1.387 . S
C397 C399 1.390 . S
C397 H401 0.950 . S
H398 C394 0.950 . S
C399 C397 1.390 . S
C399 C400 1.387 . S
C399 H402 0.950 . S
C400 C399 1.387 . S
C400 C403 1.387 . S
H401 C397 0.950 . S
H402 C399 0.950 . S
C403 C394 1.390 . S
C403 H396 0.950 . S
C403 C400 1.387 . S
C404 C405 1.387 . S
C404 H408 0.950 . S
C404 C413 1.390 . S
C405 C404 1.387 . S
C405 C407 1.387 . S
H406 C413 0.950 . S
C407 C405 1.387 . S
C407 C409 1.390 . S
C407 H411 0.950 . S
H408 C404 0.950 . S
C409 C407 1.390 . S
C409 C410 1.387 . S
C409 H412 0.950 . S
C410 C409 1.387 . S
C410 C413 1.387 . S
H411 C407 0.950 . S
H412 C409 0.950 . S
C413 C404 1.390 . S
C413 H406 0.950 . S
C413 C410 1.387 . S
C414 C415 1.387 . S
C414 H418 0.950 . S
C414 C423 1.390 . S
C415 C414 1.387 . S
C415 C417 1.387 . S
H416 C423 0.950 . S
C417 C415 1.387 . S
C417 C419 1.390 . S
C417 H421 0.950 . S
H418 C414 0.950 . S
C419 C417 1.390 . S
C419 C420 1.387 . S
C419 H422 0.950 . S
C420 C419 1.387 . S
C420 C423 1.387 . S
H421 C417 0.950 . S
H422 C419 0.950 . S
C423 C414 1.390 . S
C423 H416 0.950 . S
C423 C420 1.387 . S
C424 C425 1.387 . S
C424 H428 0.950 . S
C424 C433 1.390 . S
C425 C424 1.387 . S
C425 C427 1.387 . S
H426 C433 0.950 . S
C427 C425 1.387 . S
C427 C429 1.390 . S
C427 H431 0.950 . S
H428 C424 0.950 . S
C429 C427 1.390 . S
C429 C430 1.387 . S
C429 H432 0.950 . S
C430 C429 1.387 . S
C430 C433 1.387 . S
H431 C427 0.950 . S
H432 C429 0.950 . S
C433 C424 1.390 . S
C433 H426 0.950 . S
C433 C430 1.387 . S
C434 C435 1.387 . S
C434 H438 0.950 . S
C434 C443 1.390 . S
C435 C434 1.387 . S
C435 C437 1.387 1_655 S
H436 C443 0.950 . S
C437 C435 1.387 1_455 S
C437 C439 1.390 . S
C437 H441 0.950 . S
H438 C434 0.950 . S
C439 C437 1.390 . S
C439 C440 1.387 . S
C439 H442 0.950 . S
C440 C439 1.387 . S
C440 C443 1.387 1_455 S
H441 C437 0.950 . S
H442 C439 0.950 . S
C443 C434 1.390 . S
C443 H436 0.950 . S
C443 C440 1.387 1_655 S
C444 C445 1.387 . S
C444 H448 0.950 . S
C444 C453 1.390 . S
C445 C444 1.387 . S
C445 C447 1.387 . S
H446 C453 0.950 . S
C447 C445 1.387 . S
C447 C449 1.390 . S
C447 H451 0.950 . S
H448 C444 0.950 . S
C449 C447 1.390 . S
C449 C450 1.387 . S
C449 H452 0.950 . S
C450 C449 1.387 . S
C450 C453 1.387 . S
H451 C447 0.950 . S
H452 C449 0.950 . S
C453 C444 1.390 . S
C453 H446 0.950 . S
C453 C450 1.387 . S
C454 C455 1.387 . S
C454 H458 0.950 . S
C454 C463 1.390 . S
C455 C454 1.387 . S
C455 C457 1.387 . S
H456 C463 0.950 . S
C457 C455 1.387 . S
C457 C459 1.390 . S
C457 H461 0.950 . S
H458 C454 0.950 . S
C459 C457 1.390 . S
C459 C460 1.387 . S
C459 H462 0.950 . S
C460 C459 1.387 . S
C460 C463 1.387 . S
H461 C457 0.950 . S
H462 C459 0.950 . S
C463 C454 1.390 . S
C463 H456 0.950 . S
C463 C460 1.387 . S
C464 C465 1.387 . S
C464 H468 0.950 . S
C464 C473 1.390 . S
C465 C464 1.387 . S
C465 C467 1.387 . S
H466 C473 0.950 . S
C467 C465 1.387 . S
C467 C469 1.390 . S
C467 H471 0.950 . S
H468 C464 0.950 . S
C469 C467 1.390 . S
C469 C470 1.387 . S
C469 H472 0.950 . S
C470 C469 1.387 . S
C470 C473 1.387 . S
H471 C467 0.950 . S
H472 C469 0.950 . S
C473 C464 1.390 . S
C473 H466 0.950 . S
C473 C470 1.387 . S
C474 C475 1.387 . S
C474 H478 0.950 . S
C474 C483 1.390 . S
C475 C474 1.387 . S
C475 C477 1.387 . S
H476 C483 0.950 . S
C477 C475 1.387 . S
C477 C479 1.390 . S
C477 H481 0.950 . S
H478 C474 0.950 . S
C479 C477 1.390 . S
C479 C480 1.387 . S
C479 H482 0.950 . S
C480 C479 1.387 . S
C480 C483 1.387 . S
H481 C477 0.950 . S
H482 C479 0.950 . S
C483 C474 1.390 . S
C483 H476 0.950 . S
C483 C480 1.387 . S
C484 C485 1.387 . S
C484 H488 0.950 . S
C484 C493 1.390 . S
C485 C484 1.387 . S
C485 C487 1.387 . S
H486 C493 0.950 . S
C487 C485 1.387 . S
C487 C489 1.390 . S
C487 H491 0.950 . S
H488 C484 0.950 . S
C489 C487 1.390 . S
C489 C490 1.387 . S
C489 H492 0.950 . S
C490 C489 1.387 . S
C490 C493 1.387 . S
H491 C487 0.950 . S
H492 C489 0.950 . S
C493 C484 1.390 . S
C493 H486 0.950 . S
C493 C490 1.387 . S
C494 C495 1.387 . S
C494 H498 0.950 . S
C494 C503 1.390 . S
C495 C494 1.387 . S
C495 C497 1.387 . S
H496 C503 0.950 . S
C497 C495 1.387 . S
C497 C499 1.390 . S
C497 H501 0.950 . S
H498 C494 0.950 . S
C499 C497 1.390 . S
C499 C500 1.387 . S
C499 H502 0.950 . S
C500 C499 1.387 . S
C500 C503 1.387 . S
H501 C497 0.950 . S
H502 C499 0.950 . S
C503 C494 1.390 . S
C503 H496 0.950 . S
C503 C500 1.387 . S
C265 N1 1.086 . S
C270 C119 1.132 . S
C275 N18 1.010 . S
C280 C159 1.066 . S
C290 C193 2.067 . S
C285 N28 2.083 . S
C295 N40 2.829 . S
C300 C234 2.822 . S
C310 C154 1.638 . S
C305 N5 1.591 . S
C320 C114 1.741 . S
C315 N14 1.572 . S
C330 C242 1.790 . S
C325 N31 1.804 . S
C340 C203 1.668 . S
C335 N41 1.722 . S
C345 N2 1.326 . S
C350 C239 1.352 . S
C360 C162 2.273 1_556 S
C355 N27 2.333 . S
C365 N44 2.504 . S
C370 C122 2.531 . S
C375 N15 1.246 . S
C380 C190 1.305 . S
C390 C110 1.589 . S
C385 N57 1.670 . S
C395 N70 0.939 . S
C400 C150 1.023 . S
C405 N79 2.280 . S
C410 C202 2.388 . S
C415 N93 2.620 . S
C420 C243 2.527 . S
C425 N54 1.347 . S
C430 C163 1.458 1_556 S
C440 C123 2.220 . S
C435 N66 2.174 . S
C450 C233 1.503 . S
C445 N80 1.484 . S
C460 C194 1.802 . S
C455 N96 1.898 . S
C465 N53 1.467 . S
C470 C230 1.531 . S
C480 C153 1.880 . S
C475 N83 1.858 . S
C490 C113 2.475 . S
C485 N92 2.659 . S
C495 N67 1.585 . S
C500 C199 1.642 . S
