# Generated by pormake.
# Topology nom, (4,4)-cn, num edge types: 1
# Building blocks:
#     Node 0, Type 0, BuildingBlock: AZAVOO_clean_linker_0, # of connection points: 4
#     Node 1, Type 0, BuildingBlock: AZAVOO_clean_linker_0, # of connection points: 4
#     Node 2, Type 0, BuildingBlock: AZAVOO_clean_linker_0, # of connection points: 4
#     Node 3, Type 0, BuildingBlock: AZAVOO_clean_linker_0, # of connection points: 4
#     Node 4, Type 0, BuildingBlock: AZAVOO_clean_linker_0, # of connection points: 4
#     Node 5, Type 0, BuildingBlock: AZAVOO_clean_linker_0, # of connection points: 4
#     Node 6, Type 1, BuildingBlock: AZAVOO_clean_sbu_0, # of connection points: 4
#     Node 7, Type 1, BuildingBlock: AZAVOO_clean_sbu_0, # of connection points: 4
#     Node 8, Type 1, BuildingBlock: AZAVOO_clean_sbu_0, # of connection points: 4
#     Node 9, Type 1, BuildingBlock: AZAVOO_clean_sbu_0, # of connection points: 4
#     Node 10, Type 1, BuildingBlock: AZAVOO_clean_sbu_0, # of connection points: 4
#     Node 11, Type 1, BuildingBlock: AZAVOO_clean_sbu_0, # of connection points: 4
#     Edge 12, Type (0, 1), BuildingBlock: ZUJKAS_clean_linker_0, # of connection points: 2
#     Edge 13, Type (0, 1), BuildingBlock: ZUJKAS_clean_linker_0, # of connection points: 2
#     Edge 14, Type (0, 1), BuildingBlock: ZUJKAS_clean_linker_0, # of connection points: 2
#     Edge 15, Type (0, 1), BuildingBlock: ZUJKAS_clean_linker_0, # of connection points: 2
#     Edge 16, Type (0, 1), BuildingBlock: ZUJKAS_clean_linker_0, # of connection points: 2
#     Edge 17, Type (0, 1), BuildingBlock: ZUJKAS_clean_linker_0, # of connection points: 2
#     Edge 18, Type (0, 1), BuildingBlock: ZUJKAS_clean_linker_0, # of connection points: 2
#     Edge 19, Type (0, 1), BuildingBlock: ZUJKAS_clean_linker_0, # of connection points: 2
#     Edge 20, Type (0, 1), BuildingBlock: ZUJKAS_clean_linker_0, # of connection points: 2
#     Edge 21, Type (0, 1), BuildingBlock: ZUJKAS_clean_linker_0, # of connection points: 2
#     Edge 22, Type (0, 1), BuildingBlock: ZUJKAS_clean_linker_0, # of connection points: 2
#     Edge 23, Type (0, 1), BuildingBlock: ZUJKAS_clean_linker_0, # of connection points: 2
#     Edge 24, Type (0, 1), BuildingBlock: ZUJKAS_clean_linker_0, # of connection points: 2
#     Edge 25, Type (0, 1), BuildingBlock: ZUJKAS_clean_linker_0, # of connection points: 2
#     Edge 26, Type (0, 1), BuildingBlock: ZUJKAS_clean_linker_0, # of connection points: 2
#     Edge 27, Type (0, 1), BuildingBlock: ZUJKAS_clean_linker_0, # of connection points: 2
#     Edge 28, Type (0, 1), BuildingBlock: ZUJKAS_clean_linker_0, # of connection points: 2
#     Edge 29, Type (0, 1), BuildingBlock: ZUJKAS_clean_linker_0, # of connection points: 2
#     Edge 30, Type (0, 1), BuildingBlock: ZUJKAS_clean_linker_0, # of connection points: 2
#     Edge 31, Type (0, 1), BuildingBlock: ZUJKAS_clean_linker_0, # of connection points: 2
#     Edge 32, Type (0, 1), BuildingBlock: ZUJKAS_clean_linker_0, # of connection points: 2
#     Edge 33, Type (0, 1), BuildingBlock: ZUJKAS_clean_linker_0, # of connection points: 2
#     Edge 34, Type (0, 1), BuildingBlock: ZUJKAS_clean_linker_0, # of connection points: 2
#     Edge 35, Type (0, 1), BuildingBlock: ZUJKAS_clean_linker_0, # of connection points: 2
# Relax obj value: 0.183
# Max RMSD: 0.229
# Mean RMSD: 0.192
data_MOF--net-nom--node1-AZAVOO_clean_sbu_0--node2-AZAVOO_clean_linker_0--edge1-ZUJKAS_clean_linker_0
_symmetry_space_group_name_H-M    P1
_symmetry_Int_Tables_number       1
_symmetry_cell_setting            triclinic
loop_
_symmetry_equiv_pos_as_xyz
'x, y, z'
_cell_length_a     59.605947
_cell_length_b     61.76192
_cell_length_c     73.141108
_cell_angle_alpha  90.759116
_cell_angle_beta   90.626659
_cell_angle_gamma 120.95494
loop_
_atom_site_label
_atom_site_type_symbol
_atom_site_fract_x
_atom_site_fract_y
_atom_site_fract_z
_atom_type_partial_charge
H0 H 0.06987 0.45209 0.20513 0.0
H1 H 0.18452 0.60449 0.38653 0.0
H2 H 0.00637 0.43421 0.29349 0.0
H3 H 0.97544 0.41206 0.26811 0.0
H4 H 0.9617 0.47408 0.26389 0.0
H5 H 0.99233 0.49583 0.28954 0.0
H6 H 0.06858 0.46355 0.28458 0.0
H7 H 0.0724 0.45449 0.25245 0.0
H8 H 0.04192 0.50161 0.23595 0.0
H9 H 0.03856 0.51078 0.26811 0.0
H10 H 0.11453 0.50163 0.31548 0.0
H11 H 0.15931 0.52911 0.30479 0.0
H12 H 0.13341 0.57206 0.27434 0.0
H13 H 0.08912 0.54497 0.28527 0.0
H14 H 0.08817 0.49302 0.35429 0.0
H15 H 0.12432 0.51745 0.37612 0.0
H16 H 0.13947 0.58646 0.35077 0.0
H17 H 0.1029 0.5618 0.32925 0.0
H18 H 0.03001 0.46654 0.36184 0.0
H19 H 0.04084 0.47589 0.39447 0.0
H20 H 0.06613 0.55415 0.38556 0.0
H21 H 0.05477 0.54449 0.35306 0.0
H22 H 0.97931 0.44108 0.33112 0.0
H23 H 0.93593 0.43198 0.34082 0.0
H24 H 0.96358 0.51182 0.34112 0.0
H25 H 0.0065 0.52066 0.33136 0.0
O26 O 0.06846 0.45613 0.21773 0.0
O27 O 0.05257 0.48044 0.20998 0.0
O28 O 0.16127 0.55836 0.39074 0.0
O29 O 0.17045 0.59436 0.37785 0.0
C30 C 0.0247 0.48222 0.30545 0.0
C31 C 0.05 0.49235 0.29817 0.0
C32 C 0.07237 0.50728 0.30937 0.0
C33 C 0.0695 0.51084 0.32809 0.0
C34 C 0.04423 0.5011 0.3353 0.0
C35 C 0.02184 0.48752 0.32385 0.0
C36 C 0.00155 0.46659 0.29334 0.0
C37 C 0.99603 0.44262 0.28744 0.0
C38 C 0.97863 0.43016 0.27279 0.0
C39 C 0.96644 0.44149 0.26376 0.0
C40 C 0.97062 0.46474 0.27059 0.0
C41 C 0.98805 0.47719 0.28528 0.0
C42 C 0.0531 0.48764 0.27865 0.0
C43 C 0.06287 0.47198 0.27399 0.0
C44 C 0.06496 0.4668 0.25563 0.0
C45 C 0.05735 0.47723 0.24163 0.0
C46 C 0.04786 0.49318 0.24639 0.0
C47 C 0.04586 0.4984 0.26474 0.0
C48 C 0.09862 0.52134 0.30114 0.0
C49 C 0.11855 0.51678 0.30631 0.0
C50 C 0.14403 0.53247 0.30024 0.0
C51 C 0.1498 0.55268 0.28872 0.0
C52 C 0.12949 0.55642 0.28297 0.0
C53 C 0.10418 0.54097 0.2892 0.0
C54 C 0.09295 0.52565 0.34021 0.0
C55 C 0.09942 0.51341 0.35342 0.0
C56 C 0.12006 0.5274 0.36588 0.0
C57 C 0.13475 0.55393 0.36522 0.0
C58 C 0.12854 0.56608 0.35167 0.0
C59 C 0.10777 0.55205 0.3393 0.0
C60 C 0.04182 0.50488 0.3551 0.0
C61 C 0.03675 0.48544 0.3671 0.0
C62 C 0.0433 0.4909 0.38567 0.0
C63 C 0.05489 0.51587 0.39248 0.0
C64 C 0.05721 0.53474 0.38075 0.0
C65 C 0.05065 0.52925 0.36218 0.0
C66 C 0.99596 0.48151 0.33055 0.0
C67 C 0.97593 0.45653 0.33339 0.0
C68 C 0.9513 0.45141 0.33899 0.0
C69 C 0.94639 0.47121 0.34161 0.0
C70 C 0.9667 0.49618 0.33898 0.0
C71 C 0.99124 0.50127 0.33354 0.0
C72 C 0.05929 0.47144 0.22215 0.0
C73 C 0.15628 0.56891 0.37871 0.0
H74 H 0.52752 0.0761 0.37294 0.0
H75 H 0.48166 0.15939 0.55869 0.0
H76 H 0.50558 0.01187 0.46384 0.0
H77 H 0.50566 0.98231 0.4414 0.0
H78 H 0.42171 0.94648 0.4347 0.0
H79 H 0.42185 0.97589 0.45771 0.0
H80 H 0.5222 0.06784 0.45255 0.0
H81 H 0.53232 0.07569 0.42011 0.0
H82 H 0.44974 0.03095 0.40632 0.0
H83 H 0.4399 0.0235 0.43883 0.0
H84 H 0.52662 0.10194 0.48481 0.0
H85 H 0.54197 0.14472 0.47428 0.0
H86 H 0.46689 0.11828 0.44768 0.0
H87 H 0.45157 0.07565 0.45863 0.0
H88 H 0.51369 0.07886 0.5235 0.0
H89 H 0.52229 0.11253 0.54555 0.0
H90 H 0.45549 0.11427 0.52377 0.0
H91 H 0.44686 0.08027 0.502 0.0
H92 H 0.49348 0.02064 0.52712 0.0
H93 H 0.49882 0.02668 0.56025 0.0
H94 H 0.43469 0.04042 0.56149 0.0
H95 H 0.4296 0.03445 0.5282 0.0
H96 H 0.47694 0.97866 0.4964 0.0
H97 H 0.45317 0.93519 0.50739 0.0
H98 H 0.38514 0.94149 0.51613 0.0
H99 H 0.40891 0.98467 0.50512 0.0
O100 O 0.52308 0.07283 0.38569 0.0
O101 O 0.48041 0.04957 0.37933 0.0
O102 O 0.51266 0.1442 0.56096 0.0
O103 O 0.47881 0.14619 0.55003 0.0
C104 C 0.46473 0.0158 0.47452 0.0
C105 C 0.47427 0.04028 0.4677 0.0
C106 C 0.47835 0.06017 0.47964 0.0
C107 C 0.47371 0.05579 0.49847 0.0
C108 C 0.46366 0.03118 0.50523 0.0
C109 C 0.45838 0.011 0.49315 0.0
C110 C 0.46374 0.996 0.46231 0.0
C111 C 0.48718 0.99739 0.4577 0.0
C112 C 0.48719 0.98062 0.44478 0.0
C113 C 0.46373 0.96224 0.43607 0.0
C114 C 0.44007 0.9603 0.44125 0.0
C115 C 0.44009 0.97708 0.45431 0.0
C116 C 0.48033 0.04515 0.44801 0.0
C117 C 0.50634 0.05987 0.44249 0.0
C118 C 0.51205 0.06426 0.42396 0.0
C119 C 0.49184 0.05394 0.41061 0.0
C120 C 0.46578 0.03917 0.41623 0.0
C121 C 0.46009 0.03485 0.43478 0.0
C122 C 0.48799 0.08579 0.47251 0.0
C123 C 0.51355 0.10544 0.47669 0.0
C124 C 0.52229 0.12979 0.47059 0.0
C125 C 0.50561 0.13488 0.46018 0.0
C126 C 0.48007 0.11502 0.45587 0.0
C127 C 0.47136 0.09066 0.46196 0.0
C128 C 0.47961 0.07709 0.51122 0.0
C129 C 0.50095 0.08655 0.52353 0.0
C130 C 0.50582 0.10579 0.53609 0.0
C131 C 0.48953 0.11606 0.53645 0.0
C132 C 0.46838 0.10676 0.52388 0.0
C133 C 0.46346 0.08742 0.51139 0.0
C134 C 0.46137 0.02741 0.52527 0.0
C135 C 0.47993 0.02398 0.53462 0.0
C136 C 0.48297 0.02749 0.55358 0.0
C137 C 0.46746 0.03446 0.56345 0.0
C138 C 0.44723 0.03551 0.5542 0.0
C139 C 0.44414 0.0319 0.53524 0.0
C140 C 0.4446 0.98477 0.49988 0.0
C141 C 0.45686 0.97055 0.50058 0.0
C142 C 0.44327 0.94576 0.50684 0.0
C143 C 0.41731 0.93496 0.51268 0.0
C144 C 0.40522 0.94938 0.51199 0.0
C145 C 0.41872 0.974 0.50564 0.0
C146 C 0.49798 0.05859 0.39093 0.0
C147 C 0.49446 0.13632 0.5499 0.0
H148 H 0.60173 0.55103 0.75304 0.0
H149 H 0.57676 0.42874 0.56368 0.0
H150 H 0.58709 0.59455 0.66163 0.0
H151 H 0.58179 0.61697 0.68743 0.0
H152 H 0.4982 0.56496 0.68479 0.0
H153 H 0.50378 0.54245 0.65901 0.0
H154 H 0.6053 0.55505 0.67319 0.0
H155 H 0.61177 0.55673 0.70641 0.0
H156 H 0.52794 0.51738 0.71311 0.0
H157 H 0.52177 0.5155 0.67988 0.0
H158 H 0.6109 0.52044 0.64228 0.0
H159 H 0.61923 0.48822 0.65428 0.0
H160 H 0.53948 0.44573 0.67267 0.0
H161 H 0.53149 0.47794 0.66078 0.0
H162 H 0.60618 0.53861 0.60306 0.0
H163 H 0.61729 0.51473 0.58185 0.0
H164 H 0.54611 0.44603 0.59564 0.0
H165 H 0.53506 0.47025 0.61659 0.0
H166 H 0.58719 0.57527 0.59628 0.0
H167 H 0.5966 0.57397 0.56392 0.0
H168 H 0.52844 0.49916 0.5582 0.0
H169 H 0.51927 0.50043 0.59069 0.0
H170 H 0.55759 0.59854 0.62465 0.0
H171 H 0.52789 0.61307 0.61492 0.0
H172 H 0.46714 0.53572 0.60355 0.0
H173 H 0.49657 0.52145 0.61339 0.0
O174 O 0.59873 0.54988 0.73995 0.0
O175 O 0.5555 0.52978 0.74264 0.0
O176 O 0.60894 0.47457 0.56512 0.0
O177 O 0.57292 0.43861 0.57206 0.0
C178 C 0.55009 0.55015 0.64635 0.0
C179 C 0.55934 0.5352 0.65404 0.0
C180 C 0.56469 0.51991 0.64261 0.0
C181 C 0.56257 0.52093 0.62348 0.0
C182 C 0.55289 0.53555 0.61586 0.0
C183 C 0.54541 0.54917 0.62733 0.0
C184 C 0.54582 0.5669 0.65856 0.0
C185 C 0.56757 0.58854 0.66626 0.0
C186 C 0.5645 0.6013 0.68097 0.0
C187 C 0.53962 0.59251 0.68823 0.0
C188 C 0.51764 0.57192 0.67958 0.0
C189 C 0.52072 0.55921 0.66479 0.0
C190 C 0.56309 0.53532 0.67417 0.0
C191 C 0.58838 0.54668 0.68187 0.0
C192 C 0.59201 0.54767 0.70084 0.0
C193 C 0.57038 0.53728 0.71242 0.0
C194 C 0.54503 0.52563 0.70459 0.0
C195 C 0.54144 0.52458 0.68563 0.0
C196 C 0.57062 0.5015 0.65072 0.0
C197 C 0.59535 0.50422 0.64901 0.0
C198 C 0.60001 0.48578 0.65578 0.0
C199 C 0.58003 0.46447 0.66446 0.0
C200 C 0.55541 0.46211 0.66634 0.0
C201 C 0.55077 0.48044 0.65952 0.0
C202 C 0.56983 0.50614 0.61132 0.0
C203 C 0.59305 0.5184 0.60148 0.0
C204 C 0.59933 0.50471 0.58939 0.0
C205 C 0.58256 0.47845 0.58703 0.0
C206 C 0.55945 0.46621 0.59712 0.0
C207 C 0.55312 0.47996 0.60914 0.0
C208 C 0.55267 0.53789 0.59578 0.0
C209 C 0.57363 0.55907 0.58786 0.0
C210 C 0.5791 0.55823 0.56946 0.0
C211 C 0.56337 0.53636 0.55876 0.0
C212 C 0.54072 0.51626 0.56621 0.0
C213 C 0.53544 0.51698 0.5847 0.0
C214 C 0.52919 0.55894 0.61976 0.0
C215 C 0.53795 0.58483 0.61987 0.0
C216 C 0.52104 0.59307 0.61426 0.0
C217 C 0.49514 0.57547 0.60866 0.0
C218 C 0.48685 0.54967 0.60804 0.0
C219 C 0.5037 0.54152 0.61351 0.0
C220 C 0.5743 0.53869 0.73258 0.0
C221 C 0.58903 0.46386 0.57407 0.0
H222 H 0.03105 0.47593 0.95702 0.0
H223 H 0.17251 0.49509 0.77974 0.0
H224 H 0.99137 0.48542 0.85924 0.0
H225 H 0.95995 0.4784 0.8829 0.0
H226 H 0.92822 0.39792 0.87776 0.0
H227 H 0.96023 0.40531 0.85416 0.0
H228 H 0.0445 0.49739 0.87893 0.0
H229 H 0.04296 0.49609 0.91236 0.0
H230 H 0.00217 0.4145 0.90927 0.0
H231 H 0.00413 0.41613 0.87586 0.0
H232 H 0.09056 0.51042 0.85514 0.0
H233 H 0.13048 0.51816 0.87113 0.0
H234 H 0.09784 0.43769 0.87516 0.0
H235 H 0.05793 0.43015 0.85918 0.0
H236 H 0.07844 0.51317 0.811 0.0
H237 H 0.11937 0.52882 0.7946 0.0
H238 H 0.11633 0.4584 0.80415 0.0
H239 H 0.07525 0.44289 0.8203 0.0
H240 H 0.01981 0.4949 0.79788 0.0
H241 H 0.03005 0.50659 0.76596 0.0
H242 H 0.04434 0.44524 0.75778 0.0
H243 H 0.03485 0.43429 0.78993 0.0
H244 H 0.96205 0.46149 0.82221 0.0
H245 H 0.91938 0.43515 0.80672 0.0
H246 H 0.94365 0.38354 0.78854 0.0
H247 H 0.98526 0.40898 0.80478 0.0
O248 O 0.03166 0.47603 0.94381 0.0
O249 O 0.01054 0.43412 0.94146 0.0
O250 O 0.15695 0.52519 0.78153 0.0
O251 O 0.1564 0.48941 0.78619 0.0
C252 C 0.00154 0.45117 0.84474 0.0
C253 C 0.02466 0.45773 0.85477 0.0
C254 C 0.04801 0.46498 0.84555 0.0
C255 C 0.04882 0.46734 0.82639 0.0
C256 C 0.02561 0.46032 0.8163 0.0
C257 C 0.00164 0.45093 0.82542 0.0
C258 C 0.97799 0.44587 0.85497 0.0
C259 C 0.97701 0.46622 0.86277 0.0
C260 C 0.95903 0.46215 0.87632 0.0
C261 C 0.94173 0.43761 0.88237 0.0
C262 C 0.94154 0.41708 0.87357 0.0
C263 C 0.95955 0.42119 0.85994 0.0
C264 C 0.02436 0.45686 0.87504 0.0
C265 C 0.03538 0.47929 0.88553 0.0
C266 C 0.0344 0.47847 0.9046 0.0
C267 C 0.02237 0.45518 0.91349 0.0
C268 C 0.01154 0.43274 0.90287 0.0
C269 C 0.0126 0.43361 0.88381 0.0
C270 C 0.07156 0.46977 0.856 0.0
C271 C 0.092 0.49453 0.85965 0.0
C272 C 0.11462 0.49887 0.86887 0.0
C273 C 0.11714 0.47849 0.87441 0.0
C274 C 0.09639 0.4537 0.87097 0.0
C275 C 0.07367 0.44938 0.86191 0.0
C276 C 0.07397 0.47695 0.81686 0.0
C277 C 0.08668 0.50118 0.80953 0.0
C278 C 0.11004 0.51006 0.80018 0.0
C279 C 0.12113 0.49485 0.79807 0.0
C280 C 0.10835 0.4706 0.80554 0.0
C281 C 0.08494 0.46172 0.81483 0.0
C282 C 0.02681 0.46391 0.79623 0.0
C283 C 0.0246 0.48367 0.78906 0.0
C284 C 0.0304 0.49027 0.77078 0.0
C285 C 0.03835 0.47706 0.7593 0.0
C286 C 0.03884 0.45617 0.76631 0.0
C287 C 0.03321 0.44972 0.78462 0.0
C288 C 0.97669 0.43704 0.81477 0.0
C289 C 0.95807 0.44448 0.81488 0.0
C290 C 0.93384 0.42956 0.80587 0.0
C291 C 0.92802 0.40709 0.79656 0.0
C292 C 0.94725 0.40042 0.79588 0.0
C293 C 0.97118 0.4151 0.805 0.0
C294 C 0.02112 0.45437 0.93374 0.0
C295 C 0.1459 0.50415 0.7881 0.0
H296 H 0.37114 0.95797 0.8799 0.0
H297 H 0.39782 0.83415 0.04977 0.0
H298 H 0.42161 0.01974 0.9669 0.0
H299 H 0.43755 0.04934 0.9417 0.0
H300 H 0.51343 0.05667 0.94738 0.0
H301 H 0.49706 0.02642 0.97211 0.0
H302 H 0.3818 0.95767 0.9595 0.0
H303 H 0.36956 0.95487 0.92712 0.0
H304 H 0.44993 0.98295 0.91256 0.0
H305 H 0.46179 0.9852 0.94492 0.0
H306 H 0.37293 0.9093 0.9889 0.0
H307 H 0.3587 0.86648 0.97719 0.0
H308 H 0.42986 0.89644 0.94667 0.0
H309 H 0.44456 0.93846 0.9591 0.0
H310 H 0.39028 0.93529 0.02934 0.0
H311 H 0.37552 0.89731 0.04735 0.0
H312 H 0.43032 0.88283 0.01954 0.0
H313 H 0.44513 0.92102 0.00183 0.0
H314 H 0.42674 0.99409 0.04022 0.0
H315 H 0.4351 0.99241 0.07292 0.0
H316 H 0.48643 0.96457 0.05958 0.0
H317 H 0.47719 0.96549 0.02709 0.0
H318 H 0.454 0.04367 0.00791 0.0
H319 H 0.48962 0.0833 0.02188 0.0
H320 H 0.53729 0.04957 0.02682 0.0
H321 H 0.50247 0.01077 0.01218 0.0
O322 O 0.37635 0.95903 0.8926 0.0
O323 O 0.41802 0.97385 0.88588 0.0
O324 O 0.37577 0.85778 0.057 0.0
O325 O 0.40336 0.84931 0.04291 0.0
C326 C 0.44669 0.99812 0.98271 0.0
C327 C 0.43006 0.9741 0.97432 0.0
C328 C 0.42136 0.95196 0.98447 0.0
C329 C 0.42754 0.95388 0.00336 0.0
C330 C 0.44374 0.97785 0.01176 0.0
C331 C 0.45428 -0.0001 0.00129 0.0
C332 C 0.45814 0.02086 0.97125 0.0
C333 C 0.44189 0.02835 0.96305 0.0
C334 C 0.45104 0.04526 0.94866 0.0
C335 C 0.47661 0.05498 0.94237 0.0
C336 C 0.49348 0.0491 0.95172 0.0
C337 C 0.48429 0.03212 0.96602 0.0
C338 C 0.42272 0.97194 0.95458 0.0
C339 C 0.3967 0.96313 0.94929 0.0
C340 C 0.38979 0.9616 0.93079 0.0
C341 C 0.40879 0.96882 0.91725 0.0
C342 C 0.43482 0.97736 0.92263 0.0
C343 C 0.44168 0.97877 0.94111 0.0
C344 C 0.40976 0.92706 0.9748 0.0
C345 C 0.38516 0.90662 0.97941 0.0
C346 C 0.37707 0.88227 0.97274 0.0
C347 C 0.39314 0.87832 0.96095 0.0
C348 C 0.41691 0.89907 0.95547 0.0
C349 C 0.42527 0.92312 0.9625 0.0
C350 C 0.41859 0.93076 0.0142 0.0
C351 C 0.39906 0.92388 0.02719 0.0
C352 C 0.39067 0.90219 0.03743 0.0
C353 C 0.4017 0.88699 0.03484 0.0
C354 C 0.42138 0.89406 0.02185 0.0
C355 C 0.42983 0.91582 0.01168 0.0
C356 C 0.45108 0.97957 0.03139 0.0
C357 C 0.43998 0.9879 0.04444 0.0
C358 C 0.44494 0.98709 0.06307 0.0
C359 C 0.4612 0.97808 0.06885 0.0
C360 C 0.47338 0.97109 0.0556 0.0
C361 C 0.46822 0.97168 0.03705 0.0
C362 C 0.47549 0.0242 0.00934 0.0
C363 C 0.47219 0.04495 0.01194 0.0
C364 C 0.49242 0.06743 0.01992 0.0
C365 C 0.51588 0.06916 0.02565 0.0
C366 C 0.51916 0.04847 0.02283 0.0
C367 C 0.49929 0.02634 0.01453 0.0
C368 C 0.40144 0.96741 0.89763 0.0
C369 C 0.39276 0.86385 0.04562 0.0
H370 H 0.60455 0.56511 0.00554 0.0
H371 H 0.67849 0.50436 0.19086 0.0
H372 H 0.55335 0.57501 0.10453 0.0
H373 H 0.53725 0.59265 0.0818 0.0
H374 H 0.6142 0.65965 0.07986 0.0
H375 H 0.6301 0.64178 0.10286 0.0
H376 H 0.58057 0.54687 0.08316 0.0
H377 H 0.58382 0.54774 0.04979 0.0
H378 H 0.65694 0.61915 0.05437 0.0
H379 H 0.65344 0.61793 0.08773 0.0
H380 H 0.59857 0.51766 0.11049 0.0
H381 H 0.61741 0.49514 0.0955 0.0
H382 H 0.6909 0.56562 0.09087 0.0
H383 H 0.67156 0.58797 0.10546 0.0
H384 H 0.58597 0.5209 0.15326 0.0
H385 H 0.59815 0.49558 0.17168 0.0
H386 H 0.67993 0.55088 0.16417 0.0
H387 H 0.66745 0.57615 0.14596 0.0
H388 H 0.55998 0.55157 0.16215 0.0
H389 H 0.5514 0.54475 0.19488 0.0
H390 H 0.63428 0.59199 0.20681 0.0
H391 H 0.64255 0.59909 0.17408 0.0
H392 H 0.54932 0.58118 0.13973 0.0
H393 H 0.53398 0.60575 0.1563 0.0
H394 H 0.61421 0.6633 0.16905 0.0
H395 H 0.6292 0.63837 0.15274 0.0
O396 O 0.6037 0.5651 0.01875 0.0
O397 O 0.64111 0.60186 0.02183 0.0
O398 O 0.63082 0.48615 0.1871 0.0
O399 O 0.67313 0.51397 0.18362 0.0
C400 C 0.60306 0.59438 0.11655 0.0
C401 C 0.61441 0.58185 0.10792 0.0
C402 C 0.62235 0.56783 0.11835 0.0
C403 C 0.61835 0.56583 0.13739 0.0
C404 C 0.60698 0.57842 0.14599 0.0
C405 C 0.59981 0.59307 0.13561 0.0
C406 C 0.5928 0.60718 0.10529 0.0
C407 C 0.5665 0.59381 0.09959 0.0
C408 C 0.55736 0.60396 0.08666 0.0
C409 C 0.5745 0.62754 0.07907 0.0
C410 C 0.60062 0.64141 0.08545 0.0
C411 C 0.60969 0.63131 0.09857 0.0
C412 C 0.61675 0.58235 0.08776 0.0
C413 C 0.59728 0.56263 0.07689 0.0
C414 C 0.59919 0.5632 0.05786 0.0
C415 C 0.62063 0.58354 0.04941 0.0
C416 C 0.64016 0.60323 0.06043 0.0
C417 C 0.63823 0.6026 0.07946 0.0
C418 C 0.63379 0.55435 0.10913 0.0
C419 C 0.61871 0.52817 0.10617 0.0
C420 C 0.62954 0.51538 0.09765 0.0
C421 C 0.65572 0.52857 0.09203 0.0
C422 C 0.67061 0.55494 0.09478 0.0
C423 C 0.6597 0.56771 0.10324 0.0
C424 C 0.62583 0.55034 0.14832 0.0
C425 C 0.60649 0.52752 0.15566 0.0
C426 C 0.61351 0.51309 0.16614 0.0
C427 C 0.64004 0.52122 0.16941 0.0
C428 C 0.65934 0.54407 0.16193 0.0
C429 C 0.65228 0.55851 0.15149 0.0
C430 C 0.60187 0.57573 0.16583 0.0
C431 C 0.57619 0.56075 0.17189 0.0
C432 C 0.57135 0.55683 0.19054 0.0
C433 C 0.59215 0.56786 0.20339 0.0
C434 C 0.6178 0.58356 0.19725 0.0
C435 C 0.62262 0.58744 0.1786 0.0
C436 C 0.59034 0.60818 0.14494 0.0
C437 C 0.5635 0.59919 0.14601 0.0
C438 C 0.55482 0.61324 0.15547 0.0
C439 C 0.57288 0.63647 0.16403 0.0
C440 C 0.59978 0.64533 0.16286 0.0
C441 C 0.60841 0.63127 0.15342 0.0
C442 C 0.62253 0.58414 0.02919 0.0
C443 C 0.6476 0.50599 0.18057 0.0
Mg444 Mg 0.64082 0.42879 0.36637 0.0
O445 O 0.64255 0.45235 0.39151 0.0
O446 O 0.66665 0.49303 0.38402 0.0
Mg447 Mg 0.68155 0.49553 0.35508 0.0
C448 C 0.6526 0.47585 0.3953 0.0
C449 C 0.60341 0.38372 0.39142 0.0
O450 O 0.58962 0.3948 0.3907 0.0
O451 O 0.6824 0.43811 0.37199 0.0
O452 O 0.70629 0.47837 0.36386 0.0
O453 O 0.6056 0.42901 0.35599 0.0
O454 O 0.64647 0.45818 0.34994 0.0
C455 C 0.70449 0.45811 0.36965 0.0
C456 C 0.6219 0.45058 0.34902 0.0
O457 O 0.62505 0.39344 0.38322 0.0
Mg458 Mg 0.24161 0.62938 0.59265 0.0
O459 O 0.21661 0.60802 0.5672 0.0
O460 O 0.19892 0.56675 0.57177 0.0
Mg461 Mg 0.21273 0.56174 0.59988 0.0
C462 C 0.2021 0.585 0.56192 0.0
C463 C 0.26317 0.68584 0.58439 0.0
O464 O 0.25299 0.68419 0.60052 0.0
O465 O 0.27357 0.62154 0.58443 0.0
O466 O 0.25546 0.58057 0.59045 0.0
O467 O 0.20639 0.62659 0.60571 0.0
O468 O 0.21843 0.59847 0.60881 0.0
C469 C 0.2748 0.60153 0.58526 0.0
C470 C 0.20175 0.60526 0.61215 0.0
O471 O 0.26123 0.66617 0.57706 0.0
Mg472 Mg 0.60608 0.22154 0.75482 0.0
O473 O 0.59104 0.19033 0.73272 0.0
O474 O 0.59991 0.16124 0.74217 0.0
Mg475 Mg 0.61972 0.17349 0.7705 0.0
C476 C 0.59042 0.16951 0.73031 0.0
C477 C 0.59118 0.25897 0.74153 0.0
O478 O 0.58193 0.25386 0.75815 0.0
O479 O 0.64811 0.23645 0.74686 0.0
O480 O 0.65621 0.20792 0.75867 0.0
O481 O 0.56782 0.20121 0.76881 0.0
O482 O 0.60117 0.19607 0.77484 0.0
C483 C 0.66374 0.22866 0.75047 0.0
C484 C 0.57739 0.18985 0.77793 0.0
O485 O 0.60251 0.24787 0.73524 0.0
Mg486 Mg 0.42926 0.63921 0.87756 0.0
O487 O 0.45358 0.63762 0.90125 0.0
O488 O 0.45786 0.60413 0.89636 0.0
Mg489 Mg 0.43752 0.58534 0.86902 0.0
C490 C 0.46202 0.62324 0.90607 0.0
C491 C 0.43588 0.68265 0.90509 0.0
O492 O 0.45904 0.68581 0.90862 0.0
O493 O 0.39367 0.60585 0.88915 0.0
O494 O 0.3972 0.57249 0.88175 0.0
O495 O 0.46497 0.66346 0.86165 0.0
O496 O 0.44264 0.6217 0.86044 0.0
C497 C 0.38472 0.58214 0.88886 0.0
C498 C 0.46247 0.64262 0.85528 0.0
O499 O 0.42068 0.66583 0.89348 0.0
Mg500 Mg 0.77259 0.35786 0.07301 0.0
O501 O 0.80486 0.36221 0.09198 0.0
O502 O 0.82796 0.34697 0.07956 0.0
Mg503 Mg 0.81063 0.33449 0.05025 0.0
C504 C 0.82313 0.35733 0.09293 0.0
C505 C 0.74826 0.37784 0.10508 0.0
O506 O 0.73917 0.3747 0.12174 0.0
O507 O 0.7496 0.31549 0.07674 0.0
O508 O 0.77151 0.30174 0.06048 0.0
O509 O 0.79951 0.39606 0.06106 0.0
O510 O 0.7948 0.36026 0.05051 0.0
C511 C 0.75193 0.29759 0.07005 0.0
C512 C 0.80634 0.38442 0.04959 0.0
O513 O 0.7539 0.36205 0.09875 0.0
Mg514 Mg 0.44628 0.81365 0.23458 0.0
O515 O 0.45994 0.83066 0.26327 0.0
O516 O 0.50089 0.86326 0.26171 0.0
Mg517 Mg 0.5133 0.86658 0.23182 0.0
C518 C 0.48049 0.84895 0.27082 0.0
C519 C 0.38896 0.77265 0.24089 0.0
O520 O 0.38623 0.78713 0.22917 0.0
O521 O 0.47095 0.79559 0.23575 0.0
O522 O 0.51155 0.82825 0.23243 0.0
O523 O 0.43224 0.84016 0.22971 0.0
O524 O 0.47184 0.84815 0.22294 0.0
C525 C 0.49544 0.80458 0.2341 0.0
C526 C 0.4553 0.85567 0.22359 0.0
O527 O 0.4118 0.77873 0.24634 0.0
H528 H 0.19292 0.57492 0.31133 0.0
H529 H 0.23661 0.61009 0.30428 0.0
H530 H 0.2117 0.60807 0.2484 0.0
H531 H 0.16809 0.57266 0.25525 0.0
H532 H 0.26469 0.61593 0.25404 0.0
H533 H 0.24474 0.68084 0.29478 0.0
H534 H 0.24001 0.6531 0.30603 0.0
H535 H 0.21906 0.64987 0.28708 0.0
C536 C 0.19696 0.58155 0.29743 0.0
C537 C 0.1771 0.57119 0.28384 0.0
C538 C 0.22182 0.60174 0.29348 0.0
C539 C 0.22715 0.61178 0.27591 0.0
C540 C 0.20784 0.60057 0.26206 0.0
H541 H 0.33754 0.7564 0.23397 0.0
H542 H 0.2993 0.71679 0.24321 0.0
C543 C 0.18297 0.58047 0.26601 0.0
C544 C 0.25211 0.63513 0.2722 0.0
H545 H 0.28568 0.69874 0.28075 0.0
C546 C 0.26947 0.63403 0.25997 0.0
C547 C 0.25795 0.65867 0.27983 0.0
C548 C 0.23945 0.66091 0.29257 0.0
C549 C 0.29262 0.65601 0.25511 0.0
C550 C 0.29843 0.67952 0.26275 0.0
C551 C 0.28114 0.68059 0.27505 0.0
C552 C 0.32173 0.70344 0.25744 0.0
C553 C 0.31034 0.65411 0.24144 0.0
C554 C 0.34691 0.70908 0.26263 0.0
C555 C 0.36882 0.73176 0.25747 0.0
C556 C 0.36584 0.74909 0.24698 0.0
C557 C 0.34051 0.74343 0.24199 0.0
C558 C 0.31865 0.72084 0.24726 0.0
H559 H 0.301 0.63516 0.23465 0.0
H560 H 0.31596 0.66859 0.2308 0.0
H561 H 0.32853 0.65773 0.24855 0.0
H562 H 0.34959 0.69596 0.2707 0.0
H563 H 0.38808 0.73558 0.26154 0.0
H564 H 0.55297 0.16824 0.44575 0.0
H565 H 0.56823 0.21115 0.43561 0.0
H566 H 0.4942 0.20286 0.44977 0.0
H567 H 0.47898 0.16012 0.46037 0.0
H568 H 0.54472 0.2252 0.40793 0.0
H569 H 0.54877 0.27019 0.47525 0.0
H570 H 0.54724 0.24028 0.4732 0.0
H571 H 0.5183 0.24187 0.46946 0.0
C572 C 0.54005 0.17566 0.44692 0.0
C573 C 0.51481 0.16084 0.45392 0.0
C574 C 0.54875 0.20011 0.44104 0.0
C575 C 0.53246 0.21024 0.44217 0.0
C576 C 0.50721 0.1955 0.44907 0.0
H577 H 0.55607 0.35532 0.40783 0.0
H578 H 0.53803 0.31315 0.42054 0.0
C579 C 0.49846 0.17101 0.45492 0.0
C580 C 0.54168 0.23594 0.4355 0.0
H581 H 0.55755 0.29535 0.44913 0.0
C582 C 0.54755 0.24055 0.41693 0.0
C583 C 0.54514 0.25582 0.44728 0.0
C584 C 0.53975 0.25197 0.46744 0.0
C585 C 0.55684 0.26459 0.40979 0.0
C586 C 0.56083 0.28461 0.42162 0.0
C587 C 0.55452 0.27993 0.44014 0.0
C588 C 0.57223 0.31067 0.41502 0.0
C589 C 0.56209 0.2683 0.38959 0.0
C590 C 0.59766 0.32343 0.40822 0.0
C591 C 0.60799 0.34742 0.40095 0.0
C592 C 0.59311 0.35918 0.40045 0.0
C593 C 0.56798 0.34673 0.40794 0.0
C594 C 0.55764 0.32267 0.4152 0.0
H595 H 0.55167 0.2501 0.38175 0.0
H596 H 0.55604 0.2812 0.384 0.0
H597 H 0.58337 0.27685 0.38741 0.0
H598 H 0.60941 0.31466 0.40831 0.0
H599 H 0.6275 0.35655 0.39547 0.0
H600 H 0.44562 0.55512 0.62099 0.0
H601 H 0.41323 0.56659 0.61297 0.0
H602 H 0.46908 0.62548 0.57864 0.0
H603 H 0.50184 0.61399 0.58662 0.0
H604 H 0.42144 0.61999 0.61651 0.0
H605 H 0.39844 0.57568 0.54664 0.0
H606 H 0.41185 0.56531 0.5644 0.0
H607 H 0.43209 0.59535 0.5542 0.0
C608 C 0.45102 0.57047 0.61168 0.0
C609 C 0.47618 0.58352 0.60429 0.0
C610 C 0.43255 0.57707 0.6072 0.0
C611 C 0.43876 0.59672 0.59513 0.0
C612 C 0.46395 0.61015 0.58791 0.0
H613 H 0.32314 0.64401 0.58099 0.0
H614 H 0.36549 0.64649 0.58056 0.0
C615 C 0.48262 0.60367 0.59253 0.0
C616 C 0.41842 0.60266 0.59019 0.0
H617 H 0.37122 0.58985 0.55782 0.0
C618 C 0.41076 0.61393 0.60354 0.0
C619 C 0.40449 0.59445 0.57333 0.0
C620 C 0.41193 0.58194 0.55873 0.0
C621 C 0.38884 0.61636 0.60074 0.0
C622 C 0.37432 0.60737 0.5841 0.0
C623 C 0.38254 0.59688 0.57049 0.0
C624 C 0.34898 0.6061 0.58157 0.0
C625 C 0.38047 0.62723 0.61598 0.0
C626 C 0.32571 0.58254 0.58152 0.0
C627 C 0.30152 0.58102 0.58178 0.0
C628 C 0.30012 0.60308 0.58201 0.0
C629 C 0.32347 0.62664 0.5809 0.0
C630 C 0.34771 0.62813 0.58072 0.0
H631 H 0.39174 0.63008 0.62889 0.0
H632 H 0.38353 0.64577 0.61187 0.0
H633 H 0.35932 0.6146 0.61866 0.0
H634 H 0.3263 0.56531 0.58212 0.0
H635 H 0.28397 0.56255 0.58248 0.0
H636 H 0.89613 0.41902 0.77714 0.0
H637 H 0.85172 0.38969 0.76507 0.0
H638 H 0.85633 0.32682 0.78532 0.0
H639 H 0.89994 0.35573 0.79792 0.0
H640 H 0.83242 0.3464 0.73984 0.0
H641 H 0.79066 0.32015 0.80904 0.0
H642 H 0.82225 0.34777 0.8051 0.0
H643 H 0.81871 0.31706 0.80581 0.0
C644 C 0.88758 0.39895 0.77909 0.0
C645 C 0.90157 0.38972 0.78851 0.0
C646 C 0.86236 0.38225 0.77205 0.0
C647 C 0.85076 0.35617 0.77447 0.0
C648 C 0.86489 0.34692 0.78348 0.0
H649 H 0.70347 0.21984 0.75766 0.0
H650 H 0.75007 0.25128 0.76001 0.0
C651 C 0.88993 0.3635 0.79052 0.0
C652 C 0.82351 0.3384 0.76829 0.0
H653 H 0.76398 0.29408 0.7842 0.0
C654 C 0.81733 0.33508 0.74949 0.0
C655 C 0.80393 0.32381 0.78097 0.0
C656 C 0.80909 0.32749 0.80137 0.0
C657 C 0.79215 0.31679 0.74302 0.0
C658 C 0.77289 0.3017 0.75572 0.0
C659 C 0.77897 0.30548 0.7745 0.0
C660 C 0.746 0.28197 0.75015 0.0
C661 C 0.78643 0.31321 0.72272 0.0
C662 C 0.72847 0.28867 0.74316 0.0
C663 C 0.70172 0.27074 0.74183 0.0
C664 C 0.69211 0.24587 0.74763 0.0
C665 C 0.7101 0.23883 0.75322 0.0
C666 C 0.73678 0.25676 0.75456 0.0
H667 H 0.80456 0.32318 0.71466 0.0
H668 H 0.7758 0.29281 0.71886 0.0
H669 H 0.77367 0.32074 0.719 0.0
H670 H 0.7352 0.30811 0.7399 0.0
H671 H 0.68847 0.27682 0.73739 0.0
H672 H 0.38234 0.8401 0.98398 0.0
H673 H 0.38428 0.80222 0.97673 0.0
H674 H 0.39363 0.82135 0.9197 0.0
H675 H 0.39215 0.85942 0.92694 0.0
H676 H 0.3586 0.75955 0.9522 0.0
H677 H 0.46239 0.82522 0.93511 0.0
H678 H 0.44281 0.83556 0.94663 0.0
H679 H 0.43978 0.83035 0.92224 0.0
C680 C 0.38392 0.83572 0.96983 0.0
C681 C 0.3873 0.85266 0.95601 0.0
C682 C 0.38517 0.81419 0.96573 0.0
C683 C 0.38971 0.8094 0.94776 0.0
C684 C 0.39064 0.82507 0.93371 0.0
H685 H 0.39224 0.68482 0.89729 0.0
H686 H 0.38023 0.71399 0.9101 0.0
C687 C 0.38965 0.84667 0.93782 0.0
C688 C 0.39626 0.78974 0.94395 0.0
H689 H 0.44503 0.78189 0.92763 0.0
C690 C 0.37751 0.76436 0.94692 0.0
C691 C 0.42123 0.79621 0.93757 0.0
C692 C 0.44283 0.82332 0.93537 0.0
C693 C 0.38276 0.7451 0.94293 0.0
C694 C 0.4072 0.7515 0.93549 0.0
C695 C 0.42623 0.77698 0.9332 0.0
C696 C 0.41321 0.73221 0.9291 0.0
C697 C 0.36216 0.71816 0.94682 0.0
C698 C 0.43604 0.73303 0.93529 0.0
C699 C 0.44325 0.71663 0.92774 0.0
C700 C 0.42774 0.69914 0.91386 0.0
C701 C 0.40459 0.698 0.90801 0.0
C702 C 0.39752 0.71451 0.91545 0.0
H703 H 0.34897 0.71725 0.95779 0.0
H704 H 0.34999 0.70924 0.93428 0.0
H705 H 0.37112 0.707 0.95096 0.0
H706 H 0.44853 0.7467 0.94573 0.0
H707 H 0.46114 0.71791 0.93259 0.0
H708 H 0.69029 0.54233 0.06375 0.0
H709 H 0.71223 0.52036 0.05267 0.0
H710 H 0.67062 0.46191 0.09182 0.0
H711 H 0.64909 0.4837 0.10307 0.0
H712 H 0.74469 0.51008 0.07247 0.0
H713 H 0.66147 0.42068 0.04575 0.0
H714 H 0.65936 0.44858 0.04943 0.0
H715 H 0.65395 0.42753 0.06796 0.0
C716 C 0.68573 0.5247 0.0699 0.0
C717 C 0.6678 0.51469 0.08424 0.0
C718 C 0.69812 0.51211 0.06346 0.0
C719 C 0.69258 0.4892 0.07111 0.0
C720 C 0.67454 0.47912 0.08527 0.0
H721 H 0.75819 0.42291 0.11829 0.0
H722 H 0.75217 0.45384 0.10244 0.0
C723 C 0.66225 0.49166 0.09173 0.0
C724 C 0.70734 0.4768 0.06596 0.0
H725 H 0.6973 0.41765 0.06022 0.0
C726 C 0.7345 0.49002 0.06917 0.0
C727 C 0.69434 0.45087 0.061 0.0
C728 C 0.6657 0.43621 0.05562 0.0
C729 C 0.74827 0.47722 0.06999 0.0
C730 C 0.73435 0.4506 0.06794 0.0
C731 C 0.70798 0.438 0.0622 0.0
C732 C 0.74448 0.43522 0.07584 0.0
C733 C 0.77723 0.49212 0.0743 0.0
C734 C 0.7426 0.41449 0.06617 0.0
C735 C 0.746 0.39655 0.07535 0.0
C736 C 0.75081 0.39897 0.09434 0.0
C737 C 0.75441 0.42056 0.10366 0.0
C738 C 0.75129 0.43847 0.09452 0.0
H739 H 0.78654 0.51073 0.06759 0.0
H740 H 0.78039 0.4958 0.08927 0.0
H741 H 0.78704 0.48185 0.06979 0.0
H742 H 0.73705 0.41145 0.05179 0.0
H743 H 0.74294 0.37994 0.0679 0.0
H744 H 0.38619 0.91787 0.54251 0.0
H745 H 0.3604 0.87447 0.55295 0.0
H746 H 0.38921 0.84931 0.50863 0.0
H747 H 0.41517 0.89281 0.49811 0.0
H748 H 0.32111 0.833 0.53371 0.0
H749 H 0.40213 0.81747 0.55306 0.0
H750 H 0.40736 0.84849 0.54904 0.0
H751 H 0.40308 0.82781 0.53009 0.0
C752 C 0.38705 0.9031 0.53498 0.0
C753 C 0.4027 0.90875 0.51947 0.0
C754 C 0.37237 0.87833 0.54099 0.0
C755 C 0.37308 0.8587 0.53168 0.0
C756 C 0.38878 0.86425 0.51624 0.0
H757 H 0.29036 0.69676 0.55252 0.0
H758 H 0.31609 0.73809 0.53845 0.0
C759 C 0.40359 0.88909 0.51024 0.0
C760 C 0.3566 0.83238 0.53786 0.0
H761 H 0.35907 0.78239 0.55486 0.0
C762 C 0.3294 0.82192 0.53833 0.0
C763 C 0.36747 0.81793 0.54377 0.0
C764 C 0.39662 0.8285 0.54414 0.0
C765 C 0.31277 0.79744 0.54464 0.0
C766 C 0.32367 0.78319 0.55088 0.0
C767 C 0.3508 0.7934 0.55006 0.0
C768 C 0.30736 0.75805 0.55901 0.0
C769 C 0.28364 0.78697 0.54449 0.0
C770 C 0.29406 0.75565 0.57526 0.0
C771 C 0.2794 0.73212 0.58334 0.0
C772 C 0.27783 0.71054 0.57535 0.0
C773 C 0.29108 0.71299 0.559 0.0
C774 C 0.30583 0.73658 0.55095 0.0
H775 H 0.27797 0.79725 0.53493 0.0
H776 H 0.2727 0.7666 0.54053 0.0
H777 H 0.27763 0.78898 0.55841 0.0
H778 H 0.29537 0.77207 0.58187 0.0
H779 H 0.26953 0.73094 0.59597 0.0
H780 H 0.56402 0.43939 0.69658 0.0
H781 H 0.56783 0.40375 0.70645 0.0
H782 H 0.60952 0.40819 0.65749 0.0
H783 H 0.60549 0.44374 0.64734 0.0
H784 H 0.54796 0.35703 0.68534 0.0
H785 H 0.65512 0.40563 0.70032 0.0
H786 H 0.63783 0.42252 0.69919 0.0
H787 H 0.64494 0.41136 0.67857 0.0
C788 C 0.57403 0.43282 0.68791 0.0
C789 C 0.58436 0.44431 0.67114 0.0
C790 C 0.57628 0.41254 0.6936 0.0
C791 C 0.58905 0.40348 0.68273 0.0
C792 C 0.5999 0.41518 0.66617 0.0
H793 H 0.61306 0.27819 0.70842 0.0
H794 H 0.61199 0.3119 0.6918 0.0
C795 C 0.59764 0.4355 0.66043 0.0
C796 C 0.58976 0.381 0.68847 0.0
H797 H 0.63033 0.36182 0.70507 0.0
C798 C 0.56598 0.35801 0.68954 0.0
C799 C 0.61334 0.38236 0.69373 0.0
C800 C 0.63932 0.40677 0.69304 0.0
C801 C 0.56505 0.33638 0.69617 0.0
C802 C 0.58848 0.33799 0.70219 0.0
C803 C 0.61241 0.36072 0.70046 0.0
C804 C 0.58828 0.31689 0.71165 0.0
C805 C 0.53897 0.31205 0.6968 0.0
C806 C 0.57543 0.30871 0.72831 0.0
C807 C 0.57602 0.28958 0.73781 0.0
C808 C 0.5896 0.27832 0.73087 0.0
C809 C 0.60234 0.28642 0.71408 0.0
C810 C 0.6018 0.30568 0.7046 0.0
H811 H 0.52464 0.3119 0.68687 0.0
H812 H 0.54105 0.29549 0.69382 0.0
H813 H 0.53089 0.31 0.71069 0.0
H814 H 0.56531 0.31747 0.73415 0.0
H815 H 0.56608 0.28386 0.75072 0.0
H816 H 0.14577 0.51167 0.90216 0.0
H817 H 0.19014 0.52401 0.91243 0.0
H818 H 0.18929 0.46889 0.87515 0.0
H819 H 0.14483 0.45622 0.86503 0.0
H820 H 0.21633 0.47454 0.90936 0.0
H821 H 0.24759 0.56571 0.87558 0.0
H822 H 0.22379 0.55761 0.89306 0.0
H823 H 0.21516 0.53851 0.87248 0.0
C824 C 0.15494 0.50194 0.89639 0.0
C825 C 0.14209 0.48325 0.88265 0.0
C826 C 0.18018 0.50893 0.90229 0.0
C827 C 0.19305 0.49762 0.8943 0.0
C828 C 0.17963 0.47781 0.88147 0.0
H829 H 0.34995 0.533 0.87873 0.0
H830 H 0.30293 0.5096 0.88432 0.0
C831 C 0.15428 0.47062 0.87569 0.0
C832 C 0.2214 0.50851 0.89755 0.0
H833 H 0.28034 0.56131 0.88984 0.0
C834 C 0.23041 0.49357 0.90526 0.0
C835 C 0.23962 0.53323 0.89196 0.0
C836 C 0.23117 0.54967 0.88266 0.0
C837 C 0.25733 0.50288 0.90761 0.0
C838 C 0.27546 0.52757 0.90192 0.0
C839 C 0.26636 0.54249 0.89441 0.0
C840 C 0.30408 0.53823 0.90239 0.0
C841 C 0.26614 0.48634 0.91616 0.0
C842 C 0.32038 0.56176 0.91105 0.0
C843 C 0.34709 0.57531 0.90763 0.0
C844 C 0.35799 0.56552 0.89552 0.0
C845 C 0.34208 0.54099 0.88814 0.0
C846 C 0.31522 0.52751 0.89142 0.0
H847 H 0.25048 0.47132 0.92443 0.0
H848 H 0.27112 0.47704 0.90517 0.0
H849 H 0.28383 0.49765 0.925 0.0
H850 H 0.31214 0.57035 0.91954 0.0
H851 H 0.35894 0.59405 0.9137 0.0
H852 H 0.54045 0.11633 0.01169 0.0
H853 H 0.58002 0.15386 0.02392 0.0
H854 H 0.57883 0.11221 0.0712 0.0
H855 H 0.53998 0.07439 0.05855 0.0
H856 H 0.59214 0.18236 0.05382 0.0
H857 H 0.65085 0.13595 0.05351 0.0
H858 H 0.61859 0.1214 0.04319 0.0
H859 H 0.62257 0.12042 0.06755 0.0
C860 C 0.54856 0.11536 0.02477 0.0
C861 C 0.53746 0.09257 0.03415 0.0
C862 C 0.57115 0.13673 0.03174 0.0
C863 C 0.58279 0.13567 0.04826 0.0
C864 C 0.57073 0.11325 0.05815 0.0
H865 H 0.7115 0.27906 0.09407 0.0
H866 H 0.67059 0.23819 0.09194 0.0
C867 C 0.54844 0.09177 0.05102 0.0
C868 C 0.60788 0.15788 0.05479 0.0
H869 H 0.6714 0.17741 0.06597 0.0
C870 C 0.60946 0.18128 0.05654 0.0
C871 C 0.63055 0.15647 0.05813 0.0
C872 C 0.6307 0.13228 0.05533 0.0
C873 C 0.63317 0.20342 0.06114 0.0
C874 C 0.65574 0.20195 0.06478 0.0
C875 C 0.65402 0.17845 0.06341 0.0
C876 C 0.68183 0.22487 0.06823 0.0
C877 C 0.63398 0.22827 0.06112 0.0
C878 C 0.70246 0.23013 0.05653 0.0
C879 C 0.72608 0.25314 0.05802 0.0
C880 C 0.72941 0.27146 0.07113 0.0
C881 C 0.70939 0.26546 0.08367 0.0
C882 C 0.68591 0.24222 0.08235 0.0
H883 H 0.61693 0.22676 0.05359 0.0
H884 H 0.63351 0.23422 0.07542 0.0
H885 H 0.65214 0.24323 0.0548 0.0
H886 H 0.69987 0.21695 0.04562 0.0
H887 H 0.74109 0.25712 0.04816 0.0
H888 H 0.59165 0.66267 0.19656 0.0
H889 H 0.57878 0.69015 0.21155 0.0
H890 H 0.52048 0.6717 0.16913 0.0
H891 H 0.53387 0.64493 0.15368 0.0
H892 H 0.55201 0.7227 0.17566 0.0
H893 H 0.51376 0.67268 0.24079 0.0
H894 H 0.5462 0.67969 0.23565 0.0
H895 H 0.51911 0.65806 0.2211 0.0
C896 C 0.57609 0.66447 0.19041 0.0
C897 C 0.56384 0.65168 0.17388 0.0
C898 C 0.56853 0.67992 0.19913 0.0
C899 C 0.54845 0.6827 0.19157 0.0
C900 C 0.5359 0.66966 0.17525 0.0
H901 H 0.46655 0.7529 0.23382 0.0
H902 H 0.48108 0.72382 0.22523 0.0
C903 C 0.54347 0.65425 0.1665 0.0
C904 C 0.54169 0.70051 0.19995 0.0
H905 H 0.51883 0.71335 0.23873 0.0
C906 C 0.54475 0.72066 0.18944 0.0
C907 C 0.53206 0.69766 0.21789 0.0
C908 C 0.52733 0.67574 0.22949 0.0
C909 C 0.53844 0.73809 0.19637 0.0
C910 C 0.52936 0.7356 0.21446 0.0
C911 C 0.52617 0.71539 0.22497 0.0
C912 C 0.5216 0.75302 0.22218 0.0
C913 C 0.54087 0.75861 0.18407 0.0
C914 C 0.53981 0.77898 0.22404 0.0
C915 C 0.53157 0.79574 0.22886 0.0
C916 C 0.50498 0.78677 0.23201 0.0
C917 C 0.48714 0.76053 0.23136 0.0
C918 C 0.4954 0.74383 0.22648 0.0
H919 H 0.54225 0.75437 0.16945 0.0
H920 H 0.52389 0.76123 0.18555 0.0
H921 H 0.55888 0.77669 0.18793 0.0
H922 H 0.56024 0.78636 0.22114 0.0
H923 H 0.5459 0.81578 0.22941 0.0
H924 H 0.91917 0.49089 0.32626 0.0
H925 H 0.87661 0.48409 0.33508 0.0
H926 H 0.87132 0.43306 0.37677 0.0
H927 H 0.91422 0.43991 0.36807 0.0
H928 H 0.82665 0.43374 0.33717 0.0
H929 H 0.86089 0.49008 0.40241 0.0
H930 H 0.88305 0.49481 0.38416 0.0
H931 H 0.87034 0.46716 0.39777 0.0
C932 C 0.90901 0.4783 0.33736 0.0
C933 C 0.92007 0.46606 0.34658 0.0
C934 C 0.88469 0.47435 0.34231 0.0
C935 C 0.87104 0.45828 0.35665 0.0
C936 C 0.88175 0.4457 0.36576 0.0
H937 H 0.70883 0.41687 0.37665 0.0
H938 H 0.74864 0.41463 0.37618 0.0
C939 C 0.90609 0.44949 0.3607 0.0
C940 C 0.84558 0.4549 0.36188 0.0
H941 H 0.81706 0.47414 0.39326 0.0
C942 C 0.82434 0.44218 0.34956 0.0
C943 C 0.8429 0.46621 0.37798 0.0
C944 C 0.86545 0.48047 0.39139 0.0
C945 C 0.80058 0.44102 0.35269 0.0
C946 C 0.79803 0.45276 0.36861 0.0
C947 C 0.81909 0.46499 0.38116 0.0
C948 C 0.77446 0.45445 0.37149 0.0
C949 C 0.77876 0.42825 0.33854 0.0
C950 C 0.77603 0.47776 0.36971 0.0
C951 C 0.75338 0.47915 0.36995 0.0
C952 C 0.72873 0.45722 0.37205 0.0
C953 C 0.72745 0.43411 0.3749 0.0
C954 C 0.75015 0.43275 0.37459 0.0
H955 H 0.78527 0.42343 0.32574 0.0
H956 H 0.76256 0.41053 0.34414 0.0
H957 H 0.77088 0.44058 0.33513 0.0
H958 H 0.79468 0.49473 0.36735 0.0
H959 H 0.75515 0.49729 0.36786 0.0
H960 H 0.05405 0.54806 0.41842 0.0
H961 H 0.07909 0.56226 0.44745 0.0
H962 H 0.1101 0.51391 0.43678 0.0
H963 H 0.08568 0.50005 0.40776 0.0
H964 H 0.07863 0.53299 0.47806 0.0
H965 H 0.17564 0.58502 0.44556 0.0
H966 H 0.14541 0.57544 0.43324 0.0
H967 H 0.15535 0.55295 0.43744 0.0
C968 C 0.06613 0.54041 0.42233 0.0
C969 C 0.06775 0.52282 0.41087 0.0
C970 C 0.08037 0.5485 0.43889 0.0
C971 C 0.09669 0.53937 0.44409 0.0
C972 C 0.09787 0.52141 0.43288 0.0
H973 H 0.16661 0.53848 0.54723 0.0
H974 H 0.14107 0.52896 0.51882 0.0
C975 C 0.08361 0.51326 0.41643 0.0
C976 C 0.11263 0.54855 0.46121 0.0
H977 H 0.17565 0.57814 0.47758 0.0
C978 C 0.09984 0.54304 0.47798 0.0
C979 C 0.1403 0.56196 0.46103 0.0
C980 C 0.15505 0.56944 0.44336 0.0
C981 C 0.11401 0.54978 0.49463 0.0
C982 C 0.14164 0.56209 0.49445 0.0
C983 C 0.15446 0.56844 0.47767 0.0
C984 C 0.15753 0.56802 0.51152 0.0
C985 C 0.09931 0.54367 0.5123 0.0
C986 C 0.17584 0.59314 0.51657 0.0
C987 C 0.1906 0.5987 0.53281 0.0
C988 C 0.18748 0.57919 0.54422 0.0
C989 C 0.16951 0.554 0.53885 0.0
C990 C 0.15472 0.5485 0.52266 0.0
H991 H 0.07929 0.54038 0.51021 0.0
H992 H 0.09745 0.52621 0.51788 0.0
H993 H 0.10993 0.55915 0.52263 0.0
H994 H 0.17843 0.60847 0.50806 0.0
H995 H 0.20429 0.6183 0.53647 0.0
H996 H 0.48237 0.0147 0.59121 0.0
H997 H 0.50023 0.03398 0.62144 0.0
H998 H 0.48778 0.09511 0.60895 0.0
H999 H 0.47022 0.07621 0.57881 0.0
H1000 H 0.54447 0.08183 0.62696 0.0
H1001 H 0.45867 0.0762 0.66038 0.0
H1002 H 0.45563 0.05726 0.64042 0.0
H1003 H 0.46453 0.08967 0.63809 0.0
C1004 C 0.4831 0.03206 0.59503 0.0
C1005 C 0.47469 0.04381 0.58267 0.0
C1006 C 0.49325 0.04301 0.61229 0.0
C1007 C 0.495 0.06579 0.61751 0.0
C1008 C 0.48599 0.0772 0.60538 0.0
H1009 H 0.56762 0.18042 0.702 0.0
H1010 H 0.54483 0.15415 0.67499 0.0
C1011 C 0.47588 0.06631 0.58816 0.0
C1012 C 0.50833 0.07888 0.6349 0.0
H1013 H 0.50058 0.1048 0.67406 0.0
C1014 C 0.53482 0.08658 0.63739 0.0
C1015 C 0.49569 0.08513 0.64841 0.0
C1016 C 0.46699 0.07644 0.64681 0.0
C1017 C 0.54928 0.10118 0.65275 0.0
C1018 C 0.53676 0.10787 0.66607 0.0
C1019 C 0.51014 0.09973 0.66376 0.0
C1020 C 0.55108 0.12381 0.68232 0.0
C1021 C 0.57804 0.11009 0.65425 0.0
C1022 C 0.56209 0.11539 0.69541 0.0
C1023 C 0.57522 0.13039 0.71086 0.0
C1024 C 0.57744 0.15403 0.71357 0.0
C1025 C 0.56636 0.16237 0.70037 0.0
C1026 C 0.55326 0.14736 0.68494 0.0
H1027 H 0.58591 0.10834 0.64097 0.0
H1028 H 0.58952 0.13009 0.6591 0.0
H1029 H 0.58097 0.09842 0.6643 0.0
H1030 H 0.56023 0.09708 0.6938 0.0
H1031 H 0.58335 0.12328 0.72077 0.0
H1032 H 0.5627 0.64221 0.69924 0.0
H1033 H 0.56063 0.65863 0.72957 0.0
H1034 H 0.50917 0.58254 0.74734 0.0
H1035 H 0.51148 0.56606 0.71736 0.0
H1036 H 0.51505 0.6506 0.7477 0.0
H1037 H 0.56721 0.61357 0.78737 0.0
H1038 H 0.56936 0.61664 0.76282 0.0
H1039 H 0.54166 0.58992 0.77281 0.0
C1040 C 0.551 0.62905 0.70966 0.0
C1041 C 0.5371 0.60288 0.70593 0.0
C1042 C 0.54988 0.63842 0.72693 0.0
C1043 C 0.53519 0.62174 0.74074 0.0
C1044 C 0.52105 0.59568 0.73695 0.0
H1045 H 0.46045 0.60193 0.83859 0.0
H1046 H 0.485 0.60202 0.81219 0.0
C1047 C 0.52204 0.58632 0.71973 0.0
C1048 C 0.53329 0.63126 0.75893 0.0
H1049 H 0.53886 0.62322 0.80445 0.0
C1050 C 0.52081 0.64522 0.76016 0.0
C1051 C 0.54102 0.62428 0.77507 0.0
C1052 C 0.55581 0.61049 0.77449 0.0
C1053 C 0.51386 0.65058 0.77715 0.0
C1054 C 0.52005 0.6421 0.79326 0.0
C1055 C 0.53411 0.62963 0.79207 0.0
C1056 C 0.50877 0.64273 0.81101 0.0
C1057 C 0.49831 0.66363 0.77762 0.0
C1058 C 0.51479 0.66563 0.81954 0.0
C1059 C 0.50069 0.66565 0.83469 0.0
C1060 C 0.48047 0.64276 0.84152 0.0
C1061 C 0.47582 0.61988 0.83368 0.0
C1062 C 0.48986 0.61989 0.81857 0.0
H1063 H 0.49188 0.6656 0.76374 0.0
H1064 H 0.48073 0.65303 0.78614 0.0
H1065 H 0.51055 0.68281 0.78383 0.0
H1066 H 0.52965 0.68344 0.81406 0.0
H1067 H 0.50485 0.68358 0.84053 0.0
H1068 H 0.93421 0.40646 0.91075 0.0
H1069 H 0.91235 0.40327 0.93949 0.0
H1070 H 0.8939 0.45852 0.9212 0.0
H1071 H 0.91498 0.46119 0.89207 0.0
H1072 H 0.92636 0.44276 0.96479 0.0
H1073 H 0.82364 0.40205 0.93974 0.0
H1074 H 0.84844 0.40175 0.92599 0.0
H1075 H 0.84767 0.43029 0.92878 0.0
C1076 C 0.92489 0.41744 0.9126 0.0
C1077 C 0.92614 0.43391 0.89902 0.0
C1078 C 0.91267 0.41581 0.92914 0.0
C1079 C 0.90135 0.43053 0.93245 0.0
C1080 C 0.90217 0.44672 0.91884 0.0
H1081 H 0.81475 0.4258 0.03076 0.0
H1082 H 0.84078 0.44246 0.00304 0.0
C1083 C 0.91439 0.44835 0.90226 0.0
C1084 C 0.88966 0.4295 0.95046 0.0
H1085 H 0.83179 0.41138 0.9713 0.0
C1086 C 0.90572 0.43606 0.96621 0.0
C1087 C 0.86279 0.42104 0.95226 0.0
C1088 C 0.84451 0.41318 0.93584 0.0
C1089 C 0.89548 0.43371 0.98375 0.0
C1090 C 0.86843 0.42426 0.98558 0.0
C1091 C 0.85257 0.41873 0.96983 0.0
C1092 C 0.85564 0.41704 0.00357 0.0
C1093 C 0.91364 0.44101 0.00018 0.0
C1094 C 0.85576 0.3976 0.01316 0.0
C1095 C 0.84091 0.38807 0.02881 0.0
C1096 C 0.82563 0.39776 0.03522 0.0
C1097 C 0.82655 0.41814 0.02619 0.0
C1098 C 0.84125 0.42755 0.01033 0.0
H1099 H 0.93415 0.45499 0.99664 0.0
H1100 H 0.90754 0.44904 0.0114 0.0
H1101 H 0.9132 0.42395 0.00529 0.0
H1102 H 0.86642 0.38898 0.00808 0.0
H1103 H 0.84088 0.37261 0.03558 0.0
H1104 H 0.46639 0.00824 0.09868 0.0
H1105 H 0.46712 0.99866 0.13114 0.0
H1106 H 0.46235 0.9288 0.1156 0.0
H1107 H 0.46069 0.93763 0.0835 0.0
H1108 H 0.42388 0.92546 0.14115 0.0
H1109 H 0.52671 0.99658 0.16183 0.0
H1110 H 0.50721 0.00641 0.14949 0.0
H1111 H 0.51746 0.98715 0.13816 0.0
C1112 C 0.46556 0.99088 0.10223 0.0
C1113 C 0.46364 0.97376 0.0885 0.0
C1114 C 0.46621 0.98558 0.12074 0.0
C1115 C 0.46498 0.96313 0.12568 0.0
C1116 C 0.46347 0.9463 0.11201 0.0
H1117 H 0.49491 0.88476 0.20074 0.0
H1118 H 0.49776 0.91769 0.18122 0.0
C1119 C 0.46275 0.9515 0.09365 0.0
C1120 C 0.46365 0.95583 0.14496 0.0
H1121 H 0.50234 0.96377 0.18218 0.0
C1122 C 0.44077 0.93411 0.15039 0.0
C1123 C 0.48579 0.96732 0.15681 0.0
C1124 C 0.5108 0.99065 0.1514 0.0
C1125 C 0.44006 0.92219 0.1667 0.0
C1126 C 0.46272 0.93285 0.1782 0.0
C1127 C 0.48499 0.95574 0.1734 0.0
C1128 C 0.46498 0.91819 0.19324 0.0
C1129 C 0.41579 0.89713 0.17055 0.0
C1130 C 0.44668 0.90866 0.20728 0.0
C1131 C 0.44458 0.8893 0.21819 0.0
C1132 C 0.46128 0.87979 0.21553 0.0
C1133 C 0.48161 0.89154 0.203 0.0
C1134 C 0.48333 0.91047 0.19186 0.0
H1135 H 0.40197 0.8896 0.15862 0.0
H1136 H 0.421 0.88287 0.17426 0.0
H1137 H 0.40537 0.8995 0.18216 0.0
H1138 H 0.43285 0.91491 0.20895 0.0
H1139 H 0.42901 0.88087 0.22799 0.0
H1140 H 0.61326 0.59905 0.23362 0.0
H1141 H 0.61231 0.58607 0.26529 0.0
H1142 H 0.56044 0.5083 0.24865 0.0
H1143 H 0.56122 0.52103 0.21714 0.0
H1144 H 0.55111 0.52161 0.285 0.0
H1145 H 0.65512 0.55114 0.27256 0.0
H1146 H 0.64638 0.5748 0.27014 0.0
H1147 H 0.6332 0.54842 0.25431 0.0
C1148 C 0.60126 0.57925 0.23682 0.0
C1149 C 0.58764 0.56101 0.22289 0.0
C1150 C 0.60063 0.5719 0.25489 0.0
C1151 C 0.58661 0.54622 0.25918 0.0
C1152 C 0.57131 0.52822 0.24559 0.0
H1153 H 0.57829 0.43495 0.32786 0.0
H1154 H 0.56731 0.46153 0.30992 0.0
C1155 C 0.5718 0.53554 0.22758 0.0
C1156 C 0.59108 0.53749 0.2768 0.0
H1157 H 0.63638 0.52889 0.29892 0.0
C1158 C 0.56986 0.52356 0.2883 0.0
C1159 C 0.61557 0.54009 0.28101 0.0
C1160 C 0.63889 0.55426 0.26886 0.0
C1161 C 0.5723 0.51139 0.30363 0.0
C1162 C 0.5964 0.5128 0.3072 0.0
C1163 C 0.61791 0.52786 0.29622 0.0
C1164 C 0.59946 0.49693 0.32084 0.0
C1165 C 0.54898 0.4969 0.31565 0.0
C1166 C 0.62102 0.50789 0.33304 0.0
C1167 C 0.6277 0.49272 0.34284 0.0
C1168 C 0.61278 0.46635 0.34075 0.0
C1169 C 0.59008 0.45528 0.32965 0.0
C1170 C 0.58365 0.47047 0.31956 0.0
H1171 H 0.53637 0.50529 0.31556 0.0
H1172 H 0.537 0.4772 0.31029 0.0
H1173 H 0.55504 0.49646 0.32998 0.0
H1174 H 0.63346 0.52823 0.33428 0.0
H1175 H 0.64485 0.5017 0.35173 0.0
H1176 H 0.49928 0.97669 0.40887 0.0
H1177 H 0.50035 0.95088 0.38376 0.0
H1178 H 0.43046 0.88602 0.40342 0.0
H1179 H 0.42944 0.91169 0.42895 0.0
H1180 H 0.50136 0.90404 0.38556 0.0
H1181 H 0.41374 0.89369 0.34896 0.0
H1182 H 0.43138 0.91775 0.36643 0.0
H1183 H 0.41041 0.88549 0.3727 0.0
C1184 C 0.48432 0.95685 0.40807 0.0
C1185 C 0.46432 0.94622 0.42098 0.0
C1186 C 0.48492 0.94217 0.39365 0.0
C1187 C 0.46544 0.91663 0.39173 0.0
C1188 C 0.44552 0.9058 0.40461 0.0
H1189 H 0.44161 0.82184 0.29511 0.0
H1190 H 0.43796 0.83455 0.32618 0.0
C1191 C 0.44493 0.92049 0.41912 0.0
C1192 C 0.46595 0.90177 0.3759 0.0
H1193 H 0.43609 0.87632 0.33463 0.0
C1194 C 0.48696 0.8977 0.37448 0.0
C1195 C 0.44705 0.89348 0.36157 0.0
C1196 C 0.4244 0.89787 0.36231 0.0
C1197 C 0.4899 0.88599 0.35888 0.0
C1198 C 0.47164 0.87871 0.34418 0.0
C1199 C 0.45008 0.88193 0.34592 0.0
C1200 C 0.47541 0.86946 0.32635 0.0
C1201 C 0.51258 0.88165 0.35825 0.0
C1202 C 0.49785 0.88472 0.31621 0.0
C1203 C 0.50008 0.87749 0.29846 0.0
C1204 C 0.47973 0.85498 0.29041 0.0
C1205 C 0.45764 0.83933 0.30084 0.0
C1206 C 0.45549 0.84655 0.31862 0.0
H1207 H 0.51915 0.88025 0.37223 0.0
H1208 H 0.50739 0.86418 0.35033 0.0
H1209 H 0.52931 0.89788 0.3516 0.0
H1210 H 0.51319 0.90277 0.32172 0.0
H1211 H 0.51729 0.89007 0.29082 0.0
H1212 H 0.60964 0.53982 0.5528 0.0
H1213 H 0.62485 0.53089 0.52445 0.0
H1214 H 0.55383 0.51584 0.49662 0.0
H1215 H 0.538 0.52369 0.52542 0.0
H1216 H 0.56467 0.48111 0.48788 0.0
H1217 H 0.6553 0.57373 0.48109 0.0
H1218 H 0.65493 0.56027 0.50271 0.0
H1219 H 0.63072 0.56861 0.49746 0.0
C1220 C 0.5975 0.53503 0.54053 0.0
C1221 C 0.57291 0.53288 0.5411 0.0
C1222 C 0.60624 0.53003 0.52433 0.0
C1223 C 0.59083 0.52338 0.50826 0.0
C1224 C 0.56617 0.5212 0.50882 0.0
H1225 H 0.65336 0.51955 0.40254 0.0
H1226 H 0.6376 0.53052 0.42964 0.0
C1227 C 0.55717 0.52574 0.52517 0.0
C1228 C 0.59999 0.51746 0.4912 0.0
H1229 H 0.65262 0.5394 0.46345 0.0
C1230 C 0.58379 0.49398 0.4824 0.0
C1231 C 0.62477 0.53438 0.48389 0.0
C1232 C 0.64227 0.56075 0.49168 0.0
C1233 C 0.5919 0.48672 0.46674 0.0
C1234 C 0.61735 0.503 0.46012 0.0
C1235 C 0.6333 0.5267 0.4687 0.0
C1236 C 0.62752 0.49629 0.44394 0.0
C1237 C 0.57283 0.46194 0.45727 0.0
C1238 C 0.62769 0.47363 0.44308 0.0
C1239 C 0.63629 0.46707 0.4274 0.0
C1240 C 0.64558 0.48343 0.41254 0.0
C1241 C 0.64648 0.5066 0.41379 0.0
C1242 C 0.6374 0.51288 0.42928 0.0
H1243 H 0.55226 0.45591 0.46045 0.0
H1244 H 0.57501 0.46317 0.4422 0.0
H1245 H 0.57651 0.44707 0.46212 0.0
H1246 H 0.62101 0.46091 0.45446 0.0
H1247 H 0.63557 0.44918 0.42688 0.0
H1248 H 0.08003 0.47884 0.74253 0.0
H1249 H 0.09903 0.49769 0.71338 0.0
H1250 H 0.03962 0.5168 0.70511 0.0
H1251 H 0.01976 0.49716 0.73411 0.0
H1252 H 0.0718 0.48805 0.67512 0.0
H1253 H 0.11547 0.58509 0.70556 0.0
H1254 H 0.10624 0.55806 0.71964 0.0
H1255 H 0.08146 0.5623 0.70921 0.0
C1256 C 0.07048 0.48639 0.73435 0.0
C1257 C 0.0483 0.48643 0.74072 0.0
C1258 C 0.08151 0.49732 0.71773 0.0
C1259 C 0.07078 0.50871 0.70721 0.0
C1260 C 0.04823 0.50819 0.71315 0.0
H1261 H 0.16097 0.61237 0.61977 0.0
H1262 H 0.12444 0.58751 0.64018 0.0
C1263 C 0.03703 0.49709 0.72976 0.0
C1264 C 0.08437 0.52239 0.69063 0.0
H1265 H 0.12826 0.58145 0.67606 0.0
C1266 C 0.08385 0.50849 0.67516 0.0
C1267 C 0.09983 0.54903 0.69073 0.0
C1268 C 0.10101 0.56467 0.70714 0.0
C1269 C 0.09918 0.52057 0.65994 0.0
C1270 C 0.116 0.54715 0.66051 0.0
C1271 C 0.11544 0.56109 0.67564 0.0
C1272 C 0.13624 0.56061 0.64656 0.0
C1273 C 0.0974 0.50468 0.64353 0.0
C1274 C 0.15498 0.55378 0.64336 0.0
C1275 C 0.17571 0.56783 0.63171 0.0
C1276 C 0.17839 0.58926 0.62315 0.0
C1277 C 0.15941 0.59592 0.62612 0.0
C1278 C 0.13853 0.58174 0.63777 0.0
H1279 H 0.07778 0.48725 0.64232 0.0
H1280 H 0.10131 0.5153 0.63067 0.0
H1281 H 0.11205 0.49881 0.64513 0.0
H1282 H 0.15414 0.53807 0.6504 0.0
H1283 H 0.19014 0.56235 0.62994 0.0
H1284 H 0.46806 0.09223 0.93063 0.0
H1285 H 0.47962 0.11316 0.90102 0.0
H1286 H 0.51499 0.06998 0.88552 0.0
H1287 H 0.50293 0.04857 0.91469 0.0
H1288 H 0.52956 0.14204 0.88634 0.0
H1289 H 0.46593 0.0584 0.84198 0.0
H1290 H 0.4616 0.05887 0.86636 0.0
H1291 H 0.48636 0.05345 0.85748 0.0
C1292 C 0.47818 0.08714 0.92085 0.0
C1293 C 0.48472 0.06887 0.92502 0.0
C1294 C 0.48477 0.0991 0.90399 0.0
C1295 C 0.49771 0.09274 0.89099 0.0
C1296 C 0.50453 0.07476 0.89522 0.0
H1297 H 0.59389 0.16605 0.80077 0.0
H1298 H 0.57143 0.14117 0.82739 0.0
C1299 C 0.498 0.06286 0.91202 0.0
C1300 C 0.5052 0.1056 0.87328 0.0
H1301 H 0.5002 0.09459 0.82708 0.0
C1302 C 0.52285 0.13174 0.87338 0.0
C1303 C 0.49626 0.09209 0.8564 0.0
C1304 C 0.47629 0.06418 0.85549 0.0
C1305 C 0.53273 0.14456 0.85704 0.0
C1306 C 0.52477 0.13084 0.84027 0.0
C1307 C 0.50634 0.10491 0.84005 0.0
C1308 C 0.53662 0.14316 0.82299 0.0
C1309 C 0.55214 0.1726 0.85772 0.0
C1310 C 0.52403 0.15181 0.81153 0.0
C1311 C 0.5368 0.16606 0.79627 0.0
C1312 C 0.56231 0.17177 0.79231 0.0
C1313 C 0.57426 0.16196 0.8034 0.0
C1314 C 0.56151 0.14779 0.81863 0.0
H1315 H 0.55391 0.18101 0.87158 0.0
H1316 H 0.57167 0.17616 0.85378 0.0
H1317 H 0.54627 0.18232 0.84778 0.0
H1318 H 0.50477 0.14833 0.81477 0.0
H1319 H 0.52709 0.17336 0.78798 0.0
H1320 H 0.52874 0.6273 0.07457 0.0
H1321 H 0.51087 0.633 0.04592 0.0
H1322 H 0.58216 0.65132 0.01869 0.0
H1323 H 0.60016 0.64576 0.04722 0.0
H1324 H 0.55965 0.68007 0.00705 0.0
H1325 H 0.48835 0.5766 0.00663 0.0
H1326 H 0.4878 0.59369 0.02652 0.0
H1327 H 0.51625 0.59163 0.02212 0.0
C1328 C 0.54075 0.633 0.06254 0.0
C1329 C 0.56572 0.63587 0.06305 0.0
C1330 C 0.53054 0.63622 0.04622 0.0
C1331 C 0.54505 0.64209 0.03017 0.0
C1332 C 0.57068 0.64675 0.03095 0.0
H1333 H 0.48846 0.60117 0.91923 0.0
H1334 H 0.50979 0.608 0.9492 0.0
C1335 C 0.58096 0.64366 0.04728 0.0
C1336 C 0.53272 0.64082 0.01224 0.0
H1337 H 0.48535 0.59942 0.98218 0.0
C1338 C 0.54331 0.66251 0.0016 0.0
C1339 C 0.51173 0.61772 0.00512 0.0
C1340 C 0.50045 0.5935 0.01558 0.0
C1341 C 0.53339 0.66172 0.98394 0.0
C1342 C 0.51218 0.63868 0.97694 0.0
C1343 C 0.50156 0.61706 0.98764 0.0
C1344 C 0.50096 0.63622 0.95836 0.0
C1345 C 0.54614 0.6853 0.97275 0.0
C1346 C 0.48901 0.64989 0.95358 0.0
C1347 C 0.47686 0.64611 0.93642 0.0
C1348 C 0.47624 0.62838 0.92381 0.0
C1349 C 0.48852 0.61492 0.92861 0.0
C1350 C 0.50074 0.61881 0.94572 0.0
H1351 H 0.56591 0.69944 0.97824 0.0
H1352 H 0.5479 0.6808 0.95828 0.0
H1353 H 0.53388 0.69404 0.97302 0.0
H1354 H 0.48846 0.663 0.96328 0.0
H1355 H 0.46738 0.65661 0.93326 0.0
H1356 H 0.92068 0.43821 0.25245 0.0
H1357 H 0.89767 0.4221 0.22293 0.0
H1358 H 0.95509 0.40356 0.20632 0.0
H1359 H 0.97839 0.41991 0.23558 0.0
H1360 H 0.91992 0.44027 0.18798 0.0
H1361 H 0.88442 0.33806 0.19476 0.0
H1362 H 0.89494 0.35962 0.21422 0.0
H1363 H 0.9187 0.35932 0.19952 0.0
C1364 C 0.92835 0.43062 0.24254 0.0
C1365 C 0.95126 0.43017 0.24645 0.0
C1366 C 0.91515 0.42135 0.22572 0.0
C1367 C 0.9245 0.41133 0.21256 0.0
C1368 C 0.94722 0.41068 0.21644 0.0
H1369 H 0.86634 0.35347 0.10082 0.0
H1370 H 0.89278 0.36678 0.12928 0.0
C1371 C 0.96046 0.41998 0.23322 0.0
C1372 C 0.91126 0.40286 0.1944 0.0
H1373 H 0.87714 0.35107 0.16615 0.0
C1374 C 0.91056 0.42077 0.1832 0.0
C1375 C 0.89939 0.37747 0.18812 0.0
C1376 C 0.89915 0.3574 0.19979 0.0
C1377 C 0.89811 0.41396 0.16594 0.0
C1378 C 0.88558 0.38845 0.15986 0.0
C1379 C 0.8868 0.37061 0.17085 0.0
C1380 C 0.86953 0.37974 0.14276 0.0
C1381 C 0.89855 0.43418 0.15432 0.0
C1382 C 0.84747 0.38211 0.14112 0.0
C1383 C 0.83245 0.37462 0.12501 0.0
C1384 C 0.839 0.36435 0.11014 0.0
C1385 C 0.8608 0.36138 0.11196 0.0
C1386 C 0.87591 0.36896 0.12819 0.0
H1387 H 0.91503 0.45326 0.15835 0.0
H1388 H 0.9002 0.43069 0.1396 0.0
H1389 H 0.88006 0.43413 0.15613 0.0
H1390 H 0.84187 0.38986 0.15234 0.0
H1391 H 0.81569 0.377 0.12425 0.0
loop_
_geom_bond_atom_site_label_1
_geom_bond_atom_site_label_2
_geom_bond_distance
_geom_bond_site_symmetry_2
_ccdc_geom_bond_type
H0 O26 0.856 . S
H1 O29 0.854 . S
H2 C37 0.930 1_455 S
H3 C38 0.930 . S
H4 C40 0.930 . S
H5 C41 0.930 . S
H6 C43 0.931 . S
H7 C44 0.930 . S
H8 C46 0.930 . S
H9 C47 0.929 . S
H10 C49 0.930 . S
H11 C50 0.931 . S
H12 C52 0.930 . S
H13 C53 0.929 . S
H14 C55 0.931 . S
H15 C56 0.930 . S
H16 C58 0.930 . S
H17 C59 0.932 . S
H18 C61 0.930 . S
H19 C62 0.929 . S
H20 C64 0.931 . S
H21 C65 0.930 . S
H22 C67 0.929 . S
H23 C68 0.931 . S
H24 C70 0.930 . S
H25 C71 0.926 1_455 S
O26 H0 0.856 . S
O26 C72 1.300 . S
O27 C72 1.209 . S
O28 C73 1.199 . S
O29 H1 0.854 . S
O29 C73 1.297 . S
C30 C31 1.404 . S
C30 C35 1.397 . S
C30 C36 1.492 . S
C31 C30 1.404 . S
C31 C32 1.396 . S
C31 C42 1.492 . S
C32 C31 1.396 . S
C32 C33 1.397 . S
C32 C48 1.509 . S
C33 C32 1.397 . S
C33 C34 1.412 . S
C33 C54 1.485 . S
C34 C33 1.412 . S
C34 C35 1.388 . S
C34 C60 1.490 . S
C35 C30 1.397 . S
C35 C34 1.388 . S
C35 C66 1.519 1_455 S
C36 C30 1.492 . S
C36 C37 1.363 1_455 S
C36 C41 1.390 1_455 S
C37 H2 0.930 1_655 S
C37 C36 1.363 1_655 S
C37 C38 1.372 . S
C38 H3 0.930 . S
C38 C37 1.372 . S
C38 C39 1.383 . S
C39 C38 1.383 . S
C39 C40 1.395 . S
C40 H4 0.930 . S
C40 C39 1.395 . S
C40 C41 1.362 . S
C41 H5 0.930 . S
C41 C36 1.390 1_655 S
C41 C40 1.362 . S
C42 C31 1.492 . S
C42 C43 1.377 . S
C42 C47 1.397 . S
C43 H6 0.931 . S
C43 C42 1.377 . S
C43 C44 1.376 . S
C44 H7 0.930 . S
C44 C43 1.376 . S
C44 C45 1.376 . S
C45 C44 1.376 . S
C45 C46 1.378 . S
C45 C72 1.486 . S
C46 H8 0.930 . S
C46 C45 1.378 . S
C46 C47 1.376 . S
C47 H9 0.929 . S
C47 C42 1.397 . S
C47 C46 1.376 . S
C48 C32 1.509 . S
C48 C49 1.391 . S
C48 C53 1.386 . S
C49 H10 0.930 . S
C49 C48 1.391 . S
C49 C50 1.375 . S
C50 H11 0.931 . S
C50 C49 1.375 . S
C50 C51 1.375 . S
C51 C50 1.375 . S
C51 C52 1.361 . S
C52 H12 0.930 . S
C52 C51 1.361 . S
C52 C53 1.399 . S
C53 H13 0.929 . S
C53 C48 1.386 . S
C53 C52 1.399 . S
C54 C33 1.485 . S
C54 C55 1.394 . S
C54 C59 1.360 . S
C55 H14 0.931 . S
C55 C54 1.394 . S
C55 C56 1.372 . S
C56 H15 0.930 . S
C56 C55 1.372 . S
C56 C57 1.397 . S
C57 C56 1.397 . S
C57 C58 1.390 . S
C57 C73 1.476 . S
C58 H16 0.930 . S
C58 C57 1.390 . S
C58 C59 1.366 . S
C59 H17 0.932 . S
C59 C54 1.360 . S
C59 C58 1.366 . S
C60 C34 1.490 . S
C60 C61 1.380 . S
C60 C65 1.386 . S
C61 H18 0.930 . S
C61 C60 1.380 . S
C61 C62 1.381 . S
C62 H19 0.929 . S
C62 C61 1.381 . S
C62 C63 1.371 . S
C63 C62 1.371 . S
C63 C64 1.380 . S
C64 H20 0.931 . S
C64 C63 1.380 . S
C64 C65 1.387 . S
C65 H21 0.930 . S
C65 C60 1.386 . S
C65 C64 1.387 . S
C66 C35 1.519 1_655 S
C66 C67 1.377 . S
C66 C71 1.361 . S
C67 H22 0.929 . S
C67 C66 1.377 . S
C67 C68 1.386 . S
C68 H23 0.931 . S
C68 C67 1.386 . S
C68 C69 1.363 . S
C69 C68 1.363 . S
C69 C70 1.385 . S
C70 H24 0.930 . S
C70 C69 1.385 . S
C70 C71 1.396 . S
C71 H25 0.926 1_655 S
C71 C66 1.361 . S
C71 C70 1.396 . S
C72 O26 1.300 . S
C72 O27 1.209 . S
C72 C45 1.486 . S
C73 O28 1.199 . S
C73 O29 1.297 . S
C73 C57 1.476 . S
H74 O100 0.856 . S
H75 O103 0.854 . S
H76 C111 0.930 . S
H77 C112 0.930 . S
H78 C114 0.930 . S
H79 C115 0.930 . S
H80 C117 0.931 . S
H81 C118 0.930 . S
H82 C120 0.930 . S
H83 C121 0.929 . S
H84 C123 0.930 . S
H85 C124 0.931 . S
H86 C126 0.930 . S
H87 C127 0.929 . S
H88 C129 0.931 . S
H89 C130 0.930 . S
H90 C132 0.930 . S
H91 C133 0.932 . S
H92 C135 0.930 . S
H93 C136 0.929 . S
H94 C138 0.931 . S
H95 C139 0.930 . S
H96 C141 0.929 . S
H97 C142 0.931 . S
H98 C144 0.930 . S
H99 C145 0.929 1_545 S
O100 H74 0.856 . S
O100 C146 1.300 . S
O101 C146 1.209 . S
O102 C147 1.199 . S
O103 H75 0.854 . S
O103 C147 1.297 . S
C104 C105 1.404 . S
C104 C109 1.397 . S
C104 C110 1.492 . S
C105 C104 1.404 . S
C105 C106 1.396 . S
C105 C116 1.492 . S
C106 C105 1.396 . S
C106 C107 1.397 . S
C106 C122 1.509 . S
C107 C106 1.397 . S
C107 C108 1.412 . S
C107 C128 1.485 . S
C108 C107 1.412 . S
C108 C109 1.388 . S
C108 C134 1.490 . S
C109 C104 1.397 . S
C109 C108 1.388 . S
C109 C140 1.519 . S
C110 C104 1.492 . S
C110 C111 1.363 . S
C110 C115 1.390 1_545 S
C111 H76 0.930 . S
C111 C110 1.363 . S
C111 C112 1.372 1_545 S
C112 H77 0.930 . S
C112 C111 1.372 1_565 S
C112 C113 1.383 . S
C113 C112 1.383 . S
C113 C114 1.395 . S
C114 H78 0.930 . S
C114 C113 1.395 . S
C114 C115 1.362 . S
C115 H79 0.930 . S
C115 C110 1.390 1_565 S
C115 C114 1.362 . S
C116 C105 1.492 . S
C116 C117 1.377 . S
C116 C121 1.397 . S
C117 H80 0.931 . S
C117 C116 1.377 . S
C117 C118 1.376 . S
C118 H81 0.930 . S
C118 C117 1.376 . S
C118 C119 1.376 . S
C119 C118 1.376 . S
C119 C120 1.378 . S
C119 C146 1.486 . S
C120 H82 0.930 . S
C120 C119 1.378 . S
C120 C121 1.376 . S
C121 H83 0.929 . S
C121 C116 1.397 . S
C121 C120 1.376 . S
C122 C106 1.509 . S
C122 C123 1.391 . S
C122 C127 1.386 . S
C123 H84 0.930 . S
C123 C122 1.391 . S
C123 C124 1.375 . S
C124 H85 0.931 . S
C124 C123 1.375 . S
C124 C125 1.375 . S
C125 C124 1.375 . S
C125 C126 1.361 . S
C126 H86 0.930 . S
C126 C125 1.361 . S
C126 C127 1.399 . S
C127 H87 0.929 . S
C127 C122 1.386 . S
C127 C126 1.399 . S
C128 C107 1.485 . S
C128 C129 1.394 . S
C128 C133 1.360 . S
C129 H88 0.931 . S
C129 C128 1.394 . S
C129 C130 1.372 . S
C130 H89 0.930 . S
C130 C129 1.372 . S
C130 C131 1.397 . S
C131 C130 1.397 . S
C131 C132 1.390 . S
C131 C147 1.476 . S
C132 H90 0.930 . S
C132 C131 1.390 . S
C132 C133 1.366 . S
C133 H91 0.932 . S
C133 C128 1.360 . S
C133 C132 1.366 . S
C134 C108 1.490 . S
C134 C135 1.380 . S
C134 C139 1.386 . S
C135 H92 0.930 . S
C135 C134 1.380 . S
C135 C136 1.381 . S
C136 H93 0.929 . S
C136 C135 1.381 . S
C136 C137 1.371 . S
C137 C136 1.371 . S
C137 C138 1.380 . S
C138 H94 0.931 . S
C138 C137 1.380 . S
C138 C139 1.387 . S
C139 H95 0.930 . S
C139 C134 1.386 . S
C139 C138 1.387 . S
C140 C109 1.519 . S
C140 C141 1.377 1_545 S
C140 C145 1.361 1_545 S
C141 H96 0.929 . S
C141 C140 1.377 1_565 S
C141 C142 1.386 . S
C142 H97 0.931 . S
C142 C141 1.386 . S
C142 C143 1.363 . S
C143 C142 1.363 . S
C143 C144 1.385 . S
C144 H98 0.930 . S
C144 C143 1.385 . S
C144 C145 1.396 . S
C145 H99 0.929 1_565 S
C145 C140 1.361 1_565 S
C145 C144 1.396 . S
C146 O100 1.300 . S
C146 O101 1.209 . S
C146 C119 1.486 . S
C147 O102 1.199 . S
C147 O103 1.297 . S
C147 C131 1.476 . S
H148 O174 0.856 . S
H149 O177 0.854 . S
H150 C185 0.930 . S
H151 C186 0.930 . S
H152 C188 0.930 . S
H153 C189 0.930 . S
H154 C191 0.931 . S
H155 C192 0.930 . S
H156 C194 0.930 . S
H157 C195 0.929 . S
H158 C197 0.930 . S
H159 C198 0.931 . S
H160 C200 0.930 . S
H161 C201 0.929 . S
H162 C203 0.931 . S
H163 C204 0.930 . S
H164 C206 0.930 . S
H165 C207 0.932 . S
H166 C209 0.930 . S
H167 C210 0.929 . S
H168 C212 0.931 . S
H169 C213 0.930 . S
H170 C215 0.929 . S
H171 C216 0.931 . S
H172 C218 0.930 . S
H173 C219 0.929 . S
O174 H148 0.856 . S
O174 C220 1.300 . S
O175 C220 1.209 . S
O176 C221 1.199 . S
O177 H149 0.854 . S
O177 C221 1.297 . S
C178 C179 1.404 . S
C178 C183 1.397 . S
C178 C184 1.492 . S
C179 C178 1.404 . S
C179 C180 1.396 . S
C179 C190 1.492 . S
C180 C179 1.396 . S
C180 C181 1.397 . S
C180 C196 1.509 . S
C181 C180 1.397 . S
C181 C182 1.412 . S
C181 C202 1.485 . S
C182 C181 1.412 . S
C182 C183 1.388 . S
C182 C208 1.490 . S
C183 C178 1.397 . S
C183 C182 1.388 . S
C183 C214 1.519 . S
C184 C178 1.492 . S
C184 C185 1.363 . S
C184 C189 1.390 . S
C185 H150 0.930 . S
C185 C184 1.363 . S
C185 C186 1.372 . S
C186 H151 0.930 . S
C186 C185 1.372 . S
C186 C187 1.383 . S
C187 C186 1.383 . S
C187 C188 1.395 . S
C188 H152 0.930 . S
C188 C187 1.395 . S
C188 C189 1.362 . S
C189 H153 0.930 . S
C189 C184 1.390 . S
C189 C188 1.362 . S
C190 C179 1.492 . S
C190 C191 1.377 . S
C190 C195 1.397 . S
C191 H154 0.931 . S
C191 C190 1.377 . S
C191 C192 1.376 . S
C192 H155 0.930 . S
C192 C191 1.376 . S
C192 C193 1.376 . S
C193 C192 1.376 . S
C193 C194 1.378 . S
C193 C220 1.486 . S
C194 H156 0.930 . S
C194 C193 1.378 . S
C194 C195 1.376 . S
C195 H157 0.929 . S
C195 C190 1.397 . S
C195 C194 1.376 . S
C196 C180 1.509 . S
C196 C197 1.391 . S
C196 C201 1.386 . S
C197 H158 0.930 . S
C197 C196 1.391 . S
C197 C198 1.375 . S
C198 H159 0.931 . S
C198 C197 1.375 . S
C198 C199 1.375 . S
C199 C198 1.375 . S
C199 C200 1.361 . S
C200 H160 0.930 . S
C200 C199 1.361 . S
C200 C201 1.399 . S
C201 H161 0.929 . S
C201 C196 1.386 . S
C201 C200 1.399 . S
C202 C181 1.485 . S
C202 C203 1.394 . S
C202 C207 1.360 . S
C203 H162 0.931 . S
C203 C202 1.394 . S
C203 C204 1.372 . S
C204 H163 0.930 . S
C204 C203 1.372 . S
C204 C205 1.397 . S
C205 C204 1.397 . S
C205 C206 1.390 . S
C205 C221 1.476 . S
C206 H164 0.930 . S
C206 C205 1.390 . S
C206 C207 1.366 . S
C207 H165 0.932 . S
C207 C202 1.360 . S
C207 C206 1.366 . S
C208 C182 1.490 . S
C208 C209 1.380 . S
C208 C213 1.386 . S
C209 H166 0.930 . S
C209 C208 1.380 . S
C209 C210 1.381 . S
C210 H167 0.929 . S
C210 C209 1.381 . S
C210 C211 1.371 . S
C211 C210 1.371 . S
C211 C212 1.380 . S
C212 H168 0.931 . S
C212 C211 1.380 . S
C212 C213 1.387 . S
C213 H169 0.930 . S
C213 C208 1.386 . S
C213 C212 1.387 . S
C214 C183 1.519 . S
C214 C215 1.377 . S
C214 C219 1.361 . S
C215 H170 0.929 . S
C215 C214 1.377 . S
C215 C216 1.386 . S
C216 H171 0.931 . S
C216 C215 1.386 . S
C216 C217 1.363 . S
C217 C216 1.363 . S
C217 C218 1.385 . S
C218 H172 0.930 . S
C218 C217 1.385 . S
C218 C219 1.396 . S
C219 H173 0.929 . S
C219 C214 1.361 . S
C219 C218 1.396 . S
C220 O174 1.300 . S
C220 O175 1.209 . S
C220 C193 1.486 . S
C221 O176 1.199 . S
C221 O177 1.297 . S
C221 C205 1.476 . S
H222 O248 0.856 . S
H223 O251 0.854 . S
H224 C259 0.930 1_455 S
H225 C260 0.930 . S
H226 C262 0.930 . S
H227 C263 0.930 . S
H228 C265 0.931 . S
H229 C266 0.930 . S
H230 C268 0.930 . S
H231 C269 0.929 . S
H232 C271 0.930 . S
H233 C272 0.931 . S
H234 C274 0.930 . S
H235 C275 0.929 . S
H236 C277 0.931 . S
H237 C278 0.930 . S
H238 C280 0.930 . S
H239 C281 0.932 . S
H240 C283 0.930 . S
H241 C284 0.929 . S
H242 C286 0.931 . S
H243 C287 0.930 . S
H244 C289 0.929 . S
H245 C290 0.931 . S
H246 C292 0.930 . S
H247 C293 0.929 . S
O248 H222 0.856 . S
O248 C294 1.300 . S
O249 C294 1.209 . S
O250 C295 1.199 . S
O251 H223 0.854 . S
O251 C295 1.297 . S
C252 C253 1.404 . S
C252 C257 1.397 . S
C252 C258 1.492 . S
C253 C252 1.404 . S
C253 C254 1.396 . S
C253 C264 1.492 . S
C254 C253 1.396 . S
C254 C255 1.397 . S
C254 C270 1.509 . S
C255 C254 1.397 . S
C255 C256 1.412 . S
C255 C276 1.485 . S
C256 C255 1.412 . S
C256 C257 1.388 . S
C256 C282 1.490 . S
C257 C252 1.397 . S
C257 C256 1.388 . S
C257 C288 1.519 1_455 S
C258 C252 1.492 . S
C258 C259 1.363 1_455 S
C258 C263 1.390 1_455 S
C259 H224 0.930 1_655 S
C259 C258 1.363 1_655 S
C259 C260 1.372 . S
C260 H225 0.930 . S
C260 C259 1.372 . S
C260 C261 1.383 . S
C261 C260 1.383 . S
C261 C262 1.395 . S
C262 H226 0.930 . S
C262 C261 1.395 . S
C262 C263 1.362 . S
C263 H227 0.930 . S
C263 C258 1.390 1_655 S
C263 C262 1.362 . S
C264 C253 1.492 . S
C264 C265 1.377 . S
C264 C269 1.397 . S
C265 H228 0.931 . S
C265 C264 1.377 . S
C265 C266 1.376 . S
C266 H229 0.930 . S
C266 C265 1.376 . S
C266 C267 1.376 . S
C267 C266 1.376 . S
C267 C268 1.378 . S
C267 C294 1.486 . S
C268 H230 0.930 . S
C268 C267 1.378 . S
C268 C269 1.376 . S
C269 H231 0.929 . S
C269 C264 1.397 . S
C269 C268 1.376 . S
C270 C254 1.509 . S
C270 C271 1.391 . S
C270 C275 1.386 . S
C271 H232 0.930 . S
C271 C270 1.391 . S
C271 C272 1.375 . S
C272 H233 0.931 . S
C272 C271 1.375 . S
C272 C273 1.375 . S
C273 C272 1.375 . S
C273 C274 1.361 . S
C274 H234 0.930 . S
C274 C273 1.361 . S
C274 C275 1.399 . S
C275 H235 0.929 . S
C275 C270 1.386 . S
C275 C274 1.399 . S
C276 C255 1.485 . S
C276 C277 1.394 . S
C276 C281 1.360 . S
C277 H236 0.931 . S
C277 C276 1.394 . S
C277 C278 1.372 . S
C278 H237 0.930 . S
C278 C277 1.372 . S
C278 C279 1.397 . S
C279 C278 1.397 . S
C279 C280 1.390 . S
C279 C295 1.476 . S
C280 H238 0.930 . S
C280 C279 1.390 . S
C280 C281 1.366 . S
C281 H239 0.932 . S
C281 C276 1.360 . S
C281 C280 1.366 . S
C282 C256 1.490 . S
C282 C283 1.380 . S
C282 C287 1.386 . S
C283 H240 0.930 . S
C283 C282 1.380 . S
C283 C284 1.381 . S
C284 H241 0.929 . S
C284 C283 1.381 . S
C284 C285 1.371 . S
C285 C284 1.371 . S
C285 C286 1.380 . S
C286 H242 0.931 . S
C286 C285 1.380 . S
C286 C287 1.387 . S
C287 H243 0.930 . S
C287 C282 1.386 . S
C287 C286 1.387 . S
C288 C257 1.519 1_655 S
C288 C289 1.377 . S
C288 C293 1.361 . S
C289 H244 0.929 . S
C289 C288 1.377 . S
C289 C290 1.386 . S
C290 H245 0.931 . S
C290 C289 1.386 . S
C290 C291 1.363 . S
C291 C290 1.363 . S
C291 C292 1.385 . S
C292 H246 0.930 . S
C292 C291 1.385 . S
C292 C293 1.396 . S
C293 H247 0.929 . S
C293 C288 1.361 . S
C293 C292 1.396 . S
C294 O248 1.300 . S
C294 O249 1.209 . S
C294 C267 1.486 . S
C295 O250 1.199 . S
C295 O251 1.297 . S
C295 C279 1.476 . S
H296 O322 0.856 . S
H297 O325 0.854 . S
H298 C333 0.930 . S
H299 C334 0.930 . S
H300 C336 0.930 . S
H301 C337 0.930 . S
H302 C339 0.931 . S
H303 C340 0.930 . S
H304 C342 0.930 . S
H305 C343 0.929 . S
H306 C345 0.930 . S
H307 C346 0.931 . S
H308 C348 0.930 . S
H309 C349 0.929 . S
H310 C351 0.931 . S
H311 C352 0.930 . S
H312 C354 0.930 . S
H313 C355 0.932 . S
H314 C357 0.930 . S
H315 C358 0.929 . S
H316 C360 0.931 . S
H317 C361 0.930 . S
H318 C363 0.929 . S
H319 C364 0.931 . S
H320 C366 0.930 . S
H321 C367 0.929 . S
O322 H296 0.856 . S
O322 C368 1.300 . S
O323 C368 1.209 . S
O324 C369 1.199 . S
O325 H297 0.854 . S
O325 C369 1.297 . S
C326 C327 1.404 . S
C326 C331 1.397 . S
C326 C332 1.492 1_565 S
C327 C326 1.404 . S
C327 C328 1.396 . S
C327 C338 1.492 . S
C328 C327 1.396 . S
C328 C329 1.397 . S
C328 C344 1.509 . S
C329 C328 1.397 . S
C329 C330 1.412 1_556 S
C329 C350 1.485 1_556 S
C330 C329 1.412 1_554 S
C330 C331 1.388 1_554 S
C330 C356 1.490 . S
C331 C326 1.397 . S
C331 C330 1.388 1_556 S
C331 C362 1.544 1_565 S
C332 C326 1.492 1_545 S
C332 C333 1.363 . S
C332 C337 1.390 . S
C333 H298 0.930 . S
C333 C332 1.363 . S
C333 C334 1.372 . S
C334 H299 0.930 . S
C334 C333 1.372 . S
C334 C335 1.383 . S
C335 C334 1.383 . S
C335 C336 1.395 . S
C336 H300 0.930 . S
C336 C335 1.395 . S
C336 C337 1.362 . S
C337 H301 0.930 . S
C337 C332 1.390 . S
C337 C336 1.362 . S
C338 C327 1.492 . S
C338 C339 1.377 . S
C338 C343 1.397 . S
C339 H302 0.931 . S
C339 C338 1.377 . S
C339 C340 1.376 . S
C340 H303 0.930 . S
C340 C339 1.376 . S
C340 C341 1.376 . S
C341 C340 1.376 . S
C341 C342 1.378 . S
C341 C368 1.486 . S
C342 H304 0.930 . S
C342 C341 1.378 . S
C342 C343 1.376 . S
C343 H305 0.929 . S
C343 C338 1.397 . S
C343 C342 1.376 . S
C344 C328 1.509 . S
C344 C345 1.391 . S
C344 C349 1.386 . S
C345 H306 0.930 . S
C345 C344 1.391 . S
C345 C346 1.375 . S
C346 H307 0.931 . S
C346 C345 1.375 . S
C346 C347 1.375 . S
C347 C346 1.375 . S
C347 C348 1.361 . S
C348 H308 0.930 . S
C348 C347 1.361 . S
C348 C349 1.399 . S
C349 H309 0.929 . S
C349 C344 1.386 . S
C349 C348 1.399 . S
C350 C329 1.485 1_554 S
C350 C351 1.394 . S
C350 C355 1.360 . S
C351 H310 0.931 . S
C351 C350 1.394 . S
C351 C352 1.372 . S
C352 H311 0.930 . S
C352 C351 1.372 . S
C352 C353 1.397 . S
C353 C352 1.397 . S
C353 C354 1.390 . S
C353 C369 1.476 . S
C354 H312 0.930 . S
C354 C353 1.390 . S
C354 C355 1.366 . S
C355 H313 0.932 . S
C355 C350 1.360 . S
C355 C354 1.366 . S
C356 C330 1.490 . S
C356 C357 1.380 . S
C356 C361 1.386 . S
C357 H314 0.930 . S
C357 C356 1.380 . S
C357 C358 1.381 . S
C358 H315 0.929 . S
C358 C357 1.381 . S
C358 C359 1.371 . S
C359 C358 1.371 . S
C359 C360 1.380 . S
C360 H316 0.931 . S
C360 C359 1.380 . S
C360 C361 1.387 . S
C361 H317 0.930 . S
C361 C356 1.386 . S
C361 C360 1.387 . S
C362 C331 1.544 1_545 S
C362 C363 1.382 . S
C362 C367 1.334 1_556 S
C363 H318 0.929 . S
C363 C362 1.382 . S
C363 C364 1.386 1_556 S
C364 H319 0.931 . S
C364 C363 1.386 1_554 S
C364 C365 1.363 . S
C365 C364 1.363 . S
C365 C366 1.385 . S
C366 H320 0.930 . S
C366 C365 1.385 . S
C366 C367 1.396 . S
C367 H321 0.929 . S
C367 C362 1.334 1_554 S
C367 C366 1.396 . S
C368 O322 1.300 . S
C368 O323 1.209 . S
C368 C341 1.486 . S
C369 O324 1.199 . S
C369 O325 1.297 . S
C369 C353 1.476 . S
H370 O396 0.856 . S
H371 O399 0.854 . S
H372 C407 0.930 . S
H373 C408 0.930 . S
H374 C410 0.930 . S
H375 C411 0.930 . S
H376 C413 0.931 . S
H377 C414 0.930 . S
H378 C416 0.930 . S
H379 C417 0.929 . S
H380 C419 0.930 . S
H381 C420 0.931 . S
H382 C422 0.930 . S
H383 C423 0.929 . S
H384 C425 0.931 . S
H385 C426 0.930 . S
H386 C428 0.930 . S
H387 C429 0.932 . S
H388 C431 0.930 . S
H389 C432 0.929 . S
H390 C434 0.931 . S
H391 C435 0.930 . S
H392 C437 0.929 . S
H393 C438 0.931 . S
H394 C440 0.930 . S
H395 C441 0.929 . S
O396 H370 0.856 . S
O396 C442 1.300 . S
O397 C442 1.209 . S
O398 C443 1.199 . S
O399 H371 0.854 . S
O399 C443 1.297 . S
C400 C401 1.404 . S
C400 C405 1.397 . S
C400 C406 1.492 . S
C401 C400 1.404 . S
C401 C402 1.396 . S
C401 C412 1.492 . S
C402 C401 1.396 . S
C402 C403 1.397 . S
C402 C418 1.509 . S
C403 C402 1.397 . S
C403 C404 1.412 . S
C403 C424 1.485 . S
C404 C403 1.412 . S
C404 C405 1.388 . S
C404 C430 1.490 . S
C405 C400 1.397 . S
C405 C404 1.388 . S
C405 C436 1.519 . S
C406 C400 1.492 . S
C406 C407 1.363 . S
C406 C411 1.390 . S
C407 H372 0.930 . S
C407 C406 1.363 . S
C407 C408 1.372 . S
C408 H373 0.930 . S
C408 C407 1.372 . S
C408 C409 1.383 . S
C409 C408 1.383 . S
C409 C410 1.395 . S
C410 H374 0.930 . S
C410 C409 1.395 . S
C410 C411 1.362 . S
C411 H375 0.930 . S
C411 C406 1.390 . S
C411 C410 1.362 . S
C412 C401 1.492 . S
C412 C413 1.377 . S
C412 C417 1.397 . S
C413 H376 0.931 . S
C413 C412 1.377 . S
C413 C414 1.376 . S
C414 H377 0.930 . S
C414 C413 1.376 . S
C414 C415 1.376 . S
C415 C414 1.376 . S
C415 C416 1.378 . S
C415 C442 1.486 . S
C416 H378 0.930 . S
C416 C415 1.378 . S
C416 C417 1.376 . S
C417 H379 0.929 . S
C417 C412 1.397 . S
C417 C416 1.376 . S
C418 C402 1.509 . S
C418 C419 1.391 . S
C418 C423 1.386 . S
C419 H380 0.930 . S
C419 C418 1.391 . S
C419 C420 1.375 . S
C420 H381 0.931 . S
C420 C419 1.375 . S
C420 C421 1.375 . S
C421 C420 1.375 . S
C421 C422 1.361 . S
C422 H382 0.930 . S
C422 C421 1.361 . S
C422 C423 1.399 . S
C423 H383 0.929 . S
C423 C418 1.386 . S
C423 C422 1.399 . S
C424 C403 1.485 . S
C424 C425 1.394 . S
C424 C429 1.360 . S
C425 H384 0.931 . S
C425 C424 1.394 . S
C425 C426 1.372 . S
C426 H385 0.930 . S
C426 C425 1.372 . S
C426 C427 1.397 . S
C427 C426 1.397 . S
C427 C428 1.390 . S
C427 C443 1.476 . S
C428 H386 0.930 . S
C428 C427 1.390 . S
C428 C429 1.366 . S
C429 H387 0.932 . S
C429 C424 1.360 . S
C429 C428 1.366 . S
C430 C404 1.490 . S
C430 C431 1.380 . S
C430 C435 1.386 . S
C431 H388 0.930 . S
C431 C430 1.380 . S
C431 C432 1.381 . S
C432 H389 0.929 . S
C432 C431 1.381 . S
C432 C433 1.371 . S
C433 C432 1.371 . S
C433 C434 1.380 . S
C434 H390 0.931 . S
C434 C433 1.380 . S
C434 C435 1.387 . S
C435 H391 0.930 . S
C435 C430 1.386 . S
C435 C434 1.387 . S
C436 C405 1.519 . S
C436 C437 1.377 . S
C436 C441 1.361 . S
C437 H392 0.929 . S
C437 C436 1.377 . S
C437 C438 1.386 . S
C438 H393 0.931 . S
C438 C437 1.386 . S
C438 C439 1.363 . S
C439 C438 1.363 . S
C439 C440 1.385 . S
C440 H394 0.930 . S
C440 C439 1.385 . S
C440 C441 1.396 . S
C441 H395 0.929 . S
C441 C436 1.361 . S
C441 C440 1.396 . S
C442 O396 1.300 . S
C442 O397 1.209 . S
C442 C415 1.486 . S
C443 O398 1.199 . S
C443 O399 1.297 . S
C443 C427 1.476 . S
Mg444 O445 2.028 . S
Mg444 O451 1.986 . S
Mg444 O453 2.114 . S
Mg444 O454 2.251 . S
Mg444 O457 2.010 . S
O445 Mg444 2.028 . S
O445 C448 1.250 . S
O446 Mg447 2.028 . S
O446 C448 1.248 . S
Mg447 O446 2.028 . S
Mg447 O452 2.032 . S
Mg447 O454 2.079 . S
C448 O445 1.250 . S
C448 O446 1.248 . S
C449 O450 1.264 . S
C449 O457 1.249 . S
O450 C449 1.264 . S
O451 Mg444 1.986 . S
O451 C455 1.246 . S
O452 Mg447 2.032 . S
O452 C455 1.259 . S
O453 Mg444 2.114 . S
O453 C456 1.252 . S
O454 Mg444 2.251 . S
O454 Mg447 2.079 . S
O454 C456 1.273 . S
C455 O451 1.246 . S
C455 O452 1.259 . S
C456 O453 1.252 . S
C456 O454 1.273 . S
O457 Mg444 2.010 . S
O457 C449 1.249 . S
Mg458 O459 2.028 . S
Mg458 O465 1.986 . S
Mg458 O467 2.114 . S
Mg458 O468 2.251 . S
Mg458 O471 2.010 . S
O459 Mg458 2.028 . S
O459 C462 1.250 . S
O460 Mg461 2.028 . S
O460 C462 1.248 . S
Mg461 O460 2.028 . S
Mg461 O466 2.032 . S
Mg461 O468 2.079 . S
C462 O459 1.250 . S
C462 O460 1.248 . S
C463 O464 1.264 . S
C463 O471 1.249 . S
O464 C463 1.264 . S
O465 Mg458 1.986 . S
O465 C469 1.246 . S
O466 Mg461 2.032 . S
O466 C469 1.259 . S
O467 Mg458 2.114 . S
O467 C470 1.252 . S
O468 Mg458 2.251 . S
O468 Mg461 2.079 . S
O468 C470 1.273 . S
C469 O465 1.246 . S
C469 O466 1.259 . S
C470 O467 1.252 . S
C470 O468 1.273 . S
O471 Mg458 2.010 . S
O471 C463 1.249 . S
Mg472 O473 2.028 . S
Mg472 O479 1.986 . S
Mg472 O481 2.114 . S
Mg472 O482 2.251 . S
Mg472 O485 2.010 . S
O473 Mg472 2.028 . S
O473 C476 1.250 . S
O474 Mg475 2.028 . S
O474 C476 1.248 . S
Mg475 O474 2.028 . S
Mg475 O480 2.032 . S
Mg475 O482 2.079 . S
C476 O473 1.250 . S
C476 O474 1.248 . S
C477 O478 1.264 . S
C477 O485 1.249 . S
O478 C477 1.264 . S
O479 Mg472 1.986 . S
O479 C483 1.246 . S
O480 Mg475 2.032 . S
O480 C483 1.259 . S
O481 Mg472 2.114 . S
O481 C484 1.252 . S
O482 Mg472 2.251 . S
O482 Mg475 2.079 . S
O482 C484 1.273 . S
C483 O479 1.246 . S
C483 O480 1.259 . S
C484 O481 1.252 . S
C484 O482 1.273 . S
O485 Mg472 2.010 . S
O485 C477 1.249 . S
Mg486 O487 2.028 . S
Mg486 O493 1.986 . S
Mg486 O495 2.114 . S
Mg486 O496 2.251 . S
Mg486 O499 2.010 . S
O487 Mg486 2.028 . S
O487 C490 1.250 . S
O488 Mg489 2.028 . S
O488 C490 1.248 . S
Mg489 O488 2.028 . S
Mg489 O494 2.032 . S
Mg489 O496 2.079 . S
C490 O487 1.250 . S
C490 O488 1.248 . S
C491 O492 1.264 . S
C491 O499 1.249 . S
O492 C491 1.264 . S
O493 Mg486 1.986 . S
O493 C497 1.246 . S
O494 Mg489 2.032 . S
O494 C497 1.259 . S
O495 Mg486 2.114 . S
O495 C498 1.252 . S
O496 Mg486 2.251 . S
O496 Mg489 2.079 . S
O496 C498 1.273 . S
C497 O493 1.246 . S
C497 O494 1.259 . S
C498 O495 1.252 . S
C498 O496 1.273 . S
O499 Mg486 2.010 . S
O499 C491 1.249 . S
Mg500 O501 2.028 . S
Mg500 O507 1.986 . S
Mg500 O509 2.114 . S
Mg500 O510 2.251 . S
Mg500 O513 2.010 . S
O501 Mg500 2.028 . S
O501 C504 1.250 . S
O502 Mg503 2.028 . S
O502 C504 1.248 . S
Mg503 O502 2.028 . S
Mg503 O508 2.032 . S
Mg503 O510 2.079 . S
C504 O501 1.250 . S
C504 O502 1.248 . S
C505 O506 1.264 . S
C505 O513 1.249 . S
O506 C505 1.264 . S
O507 Mg500 1.986 . S
O507 C511 1.246 . S
O508 Mg503 2.032 . S
O508 C511 1.259 . S
O509 Mg500 2.114 . S
O509 C512 1.252 . S
O510 Mg500 2.251 . S
O510 Mg503 2.079 . S
O510 C512 1.273 . S
C511 O507 1.246 . S
C511 O508 1.259 . S
C512 O509 1.252 . S
C512 O510 1.273 . S
O513 Mg500 2.010 . S
O513 C505 1.249 . S
Mg514 O515 2.028 . S
Mg514 O521 1.986 . S
Mg514 O523 2.114 . S
Mg514 O524 2.251 . S
Mg514 O527 2.010 . S
O515 Mg514 2.028 . S
O515 C518 1.250 . S
O516 Mg517 2.028 . S
O516 C518 1.248 . S
Mg517 O516 2.028 . S
Mg517 O522 2.032 . S
Mg517 O524 2.079 . S
C518 O515 1.250 . S
C518 O516 1.248 . S
C519 O520 1.264 . S
C519 O527 1.249 . S
O520 C519 1.264 . S
O521 Mg514 1.986 . S
O521 C525 1.246 . S
O522 Mg517 2.032 . S
O522 C525 1.259 . S
O523 Mg514 2.114 . S
O523 C526 1.252 . S
O524 Mg514 2.251 . S
O524 Mg517 2.079 . S
O524 C526 1.273 . S
C525 O521 1.246 . S
C525 O522 1.259 . S
C526 O523 1.252 . S
C526 O524 1.273 . S
O527 Mg514 2.010 . S
O527 C519 1.249 . S
H528 C536 0.929 . S
H529 C538 0.930 . S
H530 C540 0.930 . S
H531 C543 0.929 . S
H532 C546 0.930 . S
H533 C548 0.960 . S
H534 C548 0.960 . S
H535 C548 0.960 . S
C536 H528 0.929 . S
C536 C537 1.377 . S
C536 C538 1.384 . S
C537 C536 1.377 . S
C537 C543 1.390 . S
C538 H529 0.930 . S
C538 C536 1.384 . S
C538 C539 1.372 . S
C539 C538 1.372 . S
C539 C540 1.400 . S
C539 C544 1.490 . S
C540 H530 0.930 . S
C540 C539 1.400 . S
C540 C543 1.386 . S
H541 C557 0.930 . S
H542 C558 0.931 . S
C543 H531 0.929 . S
C543 C537 1.390 . S
C543 C540 1.386 . S
C544 C539 1.490 . S
C544 C546 1.395 . S
C544 C547 1.403 . S
H545 C551 0.930 . S
C546 H532 0.930 . S
C546 C544 1.395 . S
C546 C549 1.403 . S
C547 C544 1.403 . S
C547 C548 1.524 . S
C547 C551 1.400 . S
C548 H533 0.960 . S
C548 H534 0.960 . S
C548 H535 0.960 . S
C548 C547 1.524 . S
C549 C546 1.403 . S
C549 C550 1.392 . S
C549 C553 1.495 . S
C550 C549 1.392 . S
C550 C551 1.385 . S
C550 C552 1.478 . S
C551 H545 0.930 . S
C551 C547 1.400 . S
C551 C550 1.385 . S
C552 C550 1.478 . S
C552 C554 1.381 . S
C552 C558 1.383 . S
C553 C549 1.495 . S
C553 H559 0.959 . S
C553 H560 0.961 . S
C553 H561 0.960 . S
C554 C552 1.381 . S
C554 C555 1.394 . S
C554 H562 0.930 . S
C555 C554 1.394 . S
C555 C556 1.383 . S
C555 H563 0.929 . S
C556 C555 1.383 . S
C556 C557 1.377 . S
C557 H541 0.930 . S
C557 C556 1.377 . S
C557 C558 1.379 . S
C558 H542 0.931 . S
C558 C552 1.383 . S
C558 C557 1.379 . S
H559 C553 0.959 . S
H560 C553 0.961 . S
H561 C553 0.960 . S
H562 C554 0.930 . S
H563 C555 0.929 . S
H564 C572 0.929 . S
H565 C574 0.930 . S
H566 C576 0.930 . S
H567 C579 0.929 . S
H568 C582 0.930 . S
H569 C584 0.960 . S
H570 C584 0.960 . S
H571 C584 0.960 . S
C572 H564 0.929 . S
C572 C573 1.377 . S
C572 C574 1.384 . S
C573 C572 1.377 . S
C573 C579 1.390 . S
C574 H565 0.930 . S
C574 C572 1.384 . S
C574 C575 1.372 . S
C575 C574 1.372 . S
C575 C576 1.400 . S
C575 C580 1.490 . S
C576 H566 0.930 . S
C576 C575 1.400 . S
C576 C579 1.386 . S
H577 C593 0.930 . S
H578 C594 0.931 . S
C579 H567 0.929 . S
C579 C573 1.390 . S
C579 C576 1.386 . S
C580 C575 1.490 . S
C580 C582 1.395 . S
C580 C583 1.403 . S
H581 C587 0.930 . S
C582 H568 0.930 . S
C582 C580 1.395 . S
C582 C585 1.403 . S
C583 C580 1.403 . S
C583 C584 1.524 . S
C583 C587 1.400 . S
C584 H569 0.960 . S
C584 H570 0.960 . S
C584 H571 0.960 . S
C584 C583 1.524 . S
C585 C582 1.403 . S
C585 C586 1.392 . S
C585 C589 1.495 . S
C586 C585 1.392 . S
C586 C587 1.385 . S
C586 C588 1.478 . S
C587 H581 0.930 . S
C587 C583 1.400 . S
C587 C586 1.385 . S
C588 C586 1.478 . S
C588 C590 1.381 . S
C588 C594 1.383 . S
C589 C585 1.495 . S
C589 H595 0.959 . S
C589 H596 0.961 . S
C589 H597 0.960 . S
C590 C588 1.381 . S
C590 C591 1.394 . S
C590 H598 0.930 . S
C591 C590 1.394 . S
C591 C592 1.383 . S
C591 H599 0.929 . S
C592 C591 1.383 . S
C592 C593 1.377 . S
C593 H577 0.930 . S
C593 C592 1.377 . S
C593 C594 1.379 . S
C594 H578 0.931 . S
C594 C588 1.383 . S
C594 C593 1.379 . S
H595 C589 0.959 . S
H596 C589 0.961 . S
H597 C589 0.960 . S
H598 C590 0.930 . S
H599 C591 0.929 . S
H600 C608 0.929 . S
H601 C610 0.930 . S
H602 C612 0.930 . S
H603 C615 0.929 . S
H604 C618 0.930 . S
H605 C620 0.960 . S
H606 C620 0.960 . S
H607 C620 0.960 . S
C608 H600 0.929 . S
C608 C609 1.377 . S
C608 C610 1.384 . S
C609 C608 1.377 . S
C609 C615 1.390 . S
C610 H601 0.930 . S
C610 C608 1.384 . S
C610 C611 1.372 . S
C611 C610 1.372 . S
C611 C612 1.400 . S
C611 C616 1.490 . S
C612 H602 0.930 . S
C612 C611 1.400 . S
C612 C615 1.386 . S
H613 C629 0.930 . S
H614 C630 0.931 . S
C615 H603 0.929 . S
C615 C609 1.390 . S
C615 C612 1.386 . S
C616 C611 1.490 . S
C616 C618 1.395 . S
C616 C619 1.403 . S
H617 C623 0.930 . S
C618 H604 0.930 . S
C618 C616 1.395 . S
C618 C621 1.403 . S
C619 C616 1.403 . S
C619 C620 1.524 . S
C619 C623 1.400 . S
C620 H605 0.960 . S
C620 H606 0.960 . S
C620 H607 0.960 . S
C620 C619 1.524 . S
C621 C618 1.403 . S
C621 C622 1.392 . S
C621 C625 1.495 . S
C622 C621 1.392 . S
C622 C623 1.385 . S
C622 C624 1.478 . S
C623 H617 0.930 . S
C623 C619 1.400 . S
C623 C622 1.385 . S
C624 C622 1.478 . S
C624 C626 1.381 . S
C624 C630 1.383 . S
C625 C621 1.495 . S
C625 H631 0.959 . S
C625 H632 0.961 . S
C625 H633 0.960 . S
C626 C624 1.381 . S
C626 C627 1.394 . S
C626 H634 0.930 . S
C627 C626 1.394 . S
C627 C628 1.383 . S
C627 H635 0.929 . S
C628 C627 1.383 . S
C628 C629 1.377 . S
C629 H613 0.930 . S
C629 C628 1.377 . S
C629 C630 1.379 . S
C630 H614 0.931 . S
C630 C624 1.383 . S
C630 C629 1.379 . S
H631 C625 0.959 . S
H632 C625 0.961 . S
H633 C625 0.960 . S
H634 C626 0.930 . S
H635 C627 0.929 . S
H636 C644 0.929 . S
H637 C646 0.930 . S
H638 C648 0.930 . S
H639 C651 0.929 . S
H640 C654 0.930 . S
H641 C656 0.960 . S
H642 C656 0.960 . S
H643 C656 0.960 . S
C644 H636 0.929 . S
C644 C645 1.377 . S
C644 C646 1.384 . S
C645 C644 1.377 . S
C645 C651 1.390 . S
C646 H637 0.930 . S
C646 C644 1.384 . S
C646 C647 1.372 . S
C647 C646 1.372 . S
C647 C648 1.400 . S
C647 C652 1.490 . S
C648 H638 0.930 . S
C648 C647 1.400 . S
C648 C651 1.386 . S
H649 C665 0.930 . S
H650 C666 0.931 . S
C651 H639 0.929 . S
C651 C645 1.390 . S
C651 C648 1.386 . S
C652 C647 1.490 . S
C652 C654 1.395 . S
C652 C655 1.403 . S
H653 C659 0.930 . S
C654 H640 0.930 . S
C654 C652 1.395 . S
C654 C657 1.403 . S
C655 C652 1.403 . S
C655 C656 1.524 . S
C655 C659 1.400 . S
C656 H641 0.960 . S
C656 H642 0.960 . S
C656 H643 0.960 . S
C656 C655 1.524 . S
C657 C654 1.403 . S
C657 C658 1.392 . S
C657 C661 1.495 . S
C658 C657 1.392 . S
C658 C659 1.385 . S
C658 C660 1.478 . S
C659 H653 0.930 . S
C659 C655 1.400 . S
C659 C658 1.385 . S
C660 C658 1.478 . S
C660 C662 1.381 . S
C660 C666 1.383 . S
C661 C657 1.495 . S
C661 H667 0.959 . S
C661 H668 0.961 . S
C661 H669 0.960 . S
C662 C660 1.381 . S
C662 C663 1.394 . S
C662 H670 0.930 . S
C663 C662 1.394 . S
C663 C664 1.383 . S
C663 H671 0.929 . S
C664 C663 1.383 . S
C664 C665 1.377 . S
C665 H649 0.930 . S
C665 C664 1.377 . S
C665 C666 1.379 . S
C666 H650 0.931 . S
C666 C660 1.383 . S
C666 C665 1.379 . S
H667 C661 0.959 . S
H668 C661 0.961 . S
H669 C661 0.960 . S
H670 C662 0.930 . S
H671 C663 0.929 . S
H672 C680 0.929 . S
H673 C682 0.930 . S
H674 C684 0.930 . S
H675 C687 0.929 . S
H676 C690 0.930 . S
H677 C692 0.960 . S
H678 C692 0.960 . S
H679 C692 0.960 . S
C680 H672 0.929 . S
C680 C681 1.377 . S
C680 C682 1.384 . S
C681 C680 1.377 . S
C681 C687 1.390 . S
C682 H673 0.930 . S
C682 C680 1.384 . S
C682 C683 1.372 . S
C683 C682 1.372 . S
C683 C684 1.400 . S
C683 C688 1.490 . S
C684 H674 0.930 . S
C684 C683 1.400 . S
C684 C687 1.386 . S
H685 C701 0.930 . S
H686 C702 0.931 . S
C687 H675 0.929 . S
C687 C681 1.390 . S
C687 C684 1.386 . S
C688 C683 1.490 . S
C688 C690 1.395 . S
C688 C691 1.403 . S
H689 C695 0.930 . S
C690 H676 0.930 . S
C690 C688 1.395 . S
C690 C693 1.403 . S
C691 C688 1.403 . S
C691 C692 1.524 . S
C691 C695 1.400 . S
C692 H677 0.960 . S
C692 H678 0.960 . S
C692 H679 0.960 . S
C692 C691 1.524 . S
C693 C690 1.403 . S
C693 C694 1.392 . S
C693 C697 1.495 . S
C694 C693 1.392 . S
C694 C695 1.385 . S
C694 C696 1.478 . S
C695 H689 0.930 . S
C695 C691 1.400 . S
C695 C694 1.385 . S
C696 C694 1.478 . S
C696 C698 1.381 . S
C696 C702 1.383 . S
C697 C693 1.495 . S
C697 H703 0.959 . S
C697 H704 0.961 . S
C697 H705 0.960 . S
C698 C696 1.381 . S
C698 C699 1.394 . S
C698 H706 0.930 . S
C699 C698 1.394 . S
C699 C700 1.383 . S
C699 H707 0.929 . S
C700 C699 1.383 . S
C700 C701 1.377 . S
C701 H685 0.930 . S
C701 C700 1.377 . S
C701 C702 1.379 . S
C702 H686 0.931 . S
C702 C696 1.383 . S
C702 C701 1.379 . S
H703 C697 0.959 . S
H704 C697 0.961 . S
H705 C697 0.960 . S
H706 C698 0.930 . S
H707 C699 0.929 . S
H708 C716 0.929 . S
H709 C718 0.930 . S
H710 C720 0.930 . S
H711 C723 0.929 . S
H712 C726 0.930 . S
H713 C728 0.960 . S
H714 C728 0.960 . S
H715 C728 0.960 . S
C716 H708 0.929 . S
C716 C717 1.377 . S
C716 C718 1.384 . S
C717 C716 1.377 . S
C717 C723 1.390 . S
C718 H709 0.930 . S
C718 C716 1.384 . S
C718 C719 1.372 . S
C719 C718 1.372 . S
C719 C720 1.400 . S
C719 C724 1.490 . S
C720 H710 0.930 . S
C720 C719 1.400 . S
C720 C723 1.386 . S
H721 C737 0.930 . S
H722 C738 0.931 . S
C723 H711 0.929 . S
C723 C717 1.390 . S
C723 C720 1.386 . S
C724 C719 1.490 . S
C724 C726 1.395 . S
C724 C727 1.403 . S
H725 C731 0.930 . S
C726 H712 0.930 . S
C726 C724 1.395 . S
C726 C729 1.403 . S
C727 C724 1.403 . S
C727 C728 1.524 . S
C727 C731 1.400 . S
C728 H713 0.960 . S
C728 H714 0.960 . S
C728 H715 0.960 . S
C728 C727 1.524 . S
C729 C726 1.403 . S
C729 C730 1.392 . S
C729 C733 1.495 . S
C730 C729 1.392 . S
C730 C731 1.385 . S
C730 C732 1.478 . S
C731 H725 0.930 . S
C731 C727 1.400 . S
C731 C730 1.385 . S
C732 C730 1.478 . S
C732 C734 1.381 . S
C732 C738 1.383 . S
C733 C729 1.495 . S
C733 H739 0.959 . S
C733 H740 0.961 . S
C733 H741 0.960 . S
C734 C732 1.381 . S
C734 C735 1.394 . S
C734 H742 0.930 . S
C735 C734 1.394 . S
C735 C736 1.383 . S
C735 H743 0.929 . S
C736 C735 1.383 . S
C736 C737 1.377 . S
C737 H721 0.930 . S
C737 C736 1.377 . S
C737 C738 1.379 . S
C738 H722 0.931 . S
C738 C732 1.383 . S
C738 C737 1.379 . S
H739 C733 0.959 . S
H740 C733 0.961 . S
H741 C733 0.960 . S
H742 C734 0.930 . S
H743 C735 0.929 . S
H744 C752 0.929 . S
H745 C754 0.930 . S
H746 C756 0.930 . S
H747 C759 0.929 . S
H748 C762 0.930 . S
H749 C764 0.960 . S
H750 C764 0.960 . S
H751 C764 0.960 . S
C752 H744 0.929 . S
C752 C753 1.377 . S
C752 C754 1.384 . S
C753 C752 1.377 . S
C753 C759 1.390 . S
C754 H745 0.930 . S
C754 C752 1.384 . S
C754 C755 1.372 . S
C755 C754 1.372 . S
C755 C756 1.400 . S
C755 C760 1.490 . S
C756 H746 0.930 . S
C756 C755 1.400 . S
C756 C759 1.386 . S
H757 C773 0.930 . S
H758 C774 0.931 . S
C759 H747 0.929 . S
C759 C753 1.390 . S
C759 C756 1.386 . S
C760 C755 1.490 . S
C760 C762 1.395 . S
C760 C763 1.403 . S
H761 C767 0.930 . S
C762 H748 0.930 . S
C762 C760 1.395 . S
C762 C765 1.403 . S
C763 C760 1.403 . S
C763 C764 1.524 . S
C763 C767 1.400 . S
C764 H749 0.960 . S
C764 H750 0.960 . S
C764 H751 0.960 . S
C764 C763 1.524 . S
C765 C762 1.403 . S
C765 C766 1.392 . S
C765 C769 1.495 . S
C766 C765 1.392 . S
C766 C767 1.385 . S
C766 C768 1.478 . S
C767 H761 0.930 . S
C767 C763 1.400 . S
C767 C766 1.385 . S
C768 C766 1.478 . S
C768 C770 1.381 . S
C768 C774 1.383 . S
C769 C765 1.495 . S
C769 H775 0.959 . S
C769 H776 0.961 . S
C769 H777 0.960 . S
C770 C768 1.381 . S
C770 C771 1.394 . S
C770 H778 0.930 . S
C771 C770 1.394 . S
C771 C772 1.383 . S
C771 H779 0.929 . S
C772 C771 1.383 . S
C772 C773 1.377 . S
C773 H757 0.930 . S
C773 C772 1.377 . S
C773 C774 1.379 . S
C774 H758 0.931 . S
C774 C768 1.383 . S
C774 C773 1.379 . S
H775 C769 0.959 . S
H776 C769 0.961 . S
H777 C769 0.960 . S
H778 C770 0.930 . S
H779 C771 0.929 . S
H780 C788 0.929 . S
H781 C790 0.930 . S
H782 C792 0.930 . S
H783 C795 0.929 . S
H784 C798 0.930 . S
H785 C800 0.960 . S
H786 C800 0.960 . S
H787 C800 0.960 . S
C788 H780 0.929 . S
C788 C789 1.377 . S
C788 C790 1.384 . S
C789 C788 1.377 . S
C789 C795 1.390 . S
C790 H781 0.930 . S
C790 C788 1.384 . S
C790 C791 1.372 . S
C791 C790 1.372 . S
C791 C792 1.400 . S
C791 C796 1.490 . S
C792 H782 0.930 . S
C792 C791 1.400 . S
C792 C795 1.386 . S
H793 C809 0.930 . S
H794 C810 0.931 . S
C795 H783 0.929 . S
C795 C789 1.390 . S
C795 C792 1.386 . S
C796 C791 1.490 . S
C796 C798 1.395 . S
C796 C799 1.403 . S
H797 C803 0.930 . S
C798 H784 0.930 . S
C798 C796 1.395 . S
C798 C801 1.403 . S
C799 C796 1.403 . S
C799 C800 1.524 . S
C799 C803 1.400 . S
C800 H785 0.960 . S
C800 H786 0.960 . S
C800 H787 0.960 . S
C800 C799 1.524 . S
C801 C798 1.403 . S
C801 C802 1.392 . S
C801 C805 1.495 . S
C802 C801 1.392 . S
C802 C803 1.385 . S
C802 C804 1.478 . S
C803 H797 0.930 . S
C803 C799 1.400 . S
C803 C802 1.385 . S
C804 C802 1.478 . S
C804 C806 1.381 . S
C804 C810 1.383 . S
C805 C801 1.495 . S
C805 H811 0.959 . S
C805 H812 0.961 . S
C805 H813 0.960 . S
C806 C804 1.381 . S
C806 C807 1.394 . S
C806 H814 0.930 . S
C807 C806 1.394 . S
C807 C808 1.383 . S
C807 H815 0.929 . S
C808 C807 1.383 . S
C808 C809 1.377 . S
C809 H793 0.930 . S
C809 C808 1.377 . S
C809 C810 1.379 . S
C810 H794 0.931 . S
C810 C804 1.383 . S
C810 C809 1.379 . S
H811 C805 0.959 . S
H812 C805 0.961 . S
H813 C805 0.960 . S
H814 C806 0.930 . S
H815 C807 0.929 . S
H816 C824 0.929 . S
H817 C826 0.930 . S
H818 C828 0.930 . S
H819 C831 0.929 . S
H820 C834 0.930 . S
H821 C836 0.960 . S
H822 C836 0.960 . S
H823 C836 0.960 . S
C824 H816 0.929 . S
C824 C825 1.377 . S
C824 C826 1.384 . S
C825 C824 1.377 . S
C825 C831 1.390 . S
C826 H817 0.930 . S
C826 C824 1.384 . S
C826 C827 1.372 . S
C827 C826 1.372 . S
C827 C828 1.400 . S
C827 C832 1.490 . S
C828 H818 0.930 . S
C828 C827 1.400 . S
C828 C831 1.386 . S
H829 C845 0.930 . S
H830 C846 0.931 . S
C831 H819 0.929 . S
C831 C825 1.390 . S
C831 C828 1.386 . S
C832 C827 1.490 . S
C832 C834 1.395 . S
C832 C835 1.403 . S
H833 C839 0.930 . S
C834 H820 0.930 . S
C834 C832 1.395 . S
C834 C837 1.403 . S
C835 C832 1.403 . S
C835 C836 1.524 . S
C835 C839 1.400 . S
C836 H821 0.960 . S
C836 H822 0.960 . S
C836 H823 0.960 . S
C836 C835 1.524 . S
C837 C834 1.403 . S
C837 C838 1.392 . S
C837 C841 1.495 . S
C838 C837 1.392 . S
C838 C839 1.385 . S
C838 C840 1.478 . S
C839 H833 0.930 . S
C839 C835 1.400 . S
C839 C838 1.385 . S
C840 C838 1.478 . S
C840 C842 1.381 . S
C840 C846 1.383 . S
C841 C837 1.495 . S
C841 H847 0.959 . S
C841 H848 0.961 . S
C841 H849 0.960 . S
C842 C840 1.381 . S
C842 C843 1.394 . S
C842 H850 0.930 . S
C843 C842 1.394 . S
C843 C844 1.383 . S
C843 H851 0.929 . S
C844 C843 1.383 . S
C844 C845 1.377 . S
C845 H829 0.930 . S
C845 C844 1.377 . S
C845 C846 1.379 . S
C846 H830 0.931 . S
C846 C840 1.383 . S
C846 C845 1.379 . S
H847 C841 0.959 . S
H848 C841 0.961 . S
H849 C841 0.960 . S
H850 C842 0.930 . S
H851 C843 0.929 . S
H852 C860 0.929 1_556 S
H853 C862 0.930 . S
H854 C864 0.930 . S
H855 C867 0.929 . S
H856 C870 0.930 . S
H857 C872 0.960 . S
H858 C872 0.960 . S
H859 C872 0.960 . S
C860 H852 0.929 1_554 S
C860 C861 1.377 . S
C860 C862 1.384 . S
C861 C860 1.377 . S
C861 C867 1.390 . S
C862 H853 0.930 . S
C862 C860 1.384 . S
C862 C863 1.372 . S
C863 C862 1.372 . S
C863 C864 1.400 . S
C863 C868 1.490 . S
C864 H854 0.930 . S
C864 C863 1.400 . S
C864 C867 1.386 . S
H865 C881 0.930 . S
H866 C882 0.931 . S
C867 H855 0.929 . S
C867 C861 1.390 . S
C867 C864 1.386 . S
C868 C863 1.490 . S
C868 C870 1.395 . S
C868 C871 1.403 . S
H869 C875 0.930 . S
C870 H856 0.930 . S
C870 C868 1.395 . S
C870 C873 1.403 . S
C871 C868 1.403 . S
C871 C872 1.524 . S
C871 C875 1.400 . S
C872 H857 0.960 . S
C872 H858 0.960 . S
C872 H859 0.960 . S
C872 C871 1.524 . S
C873 C870 1.403 . S
C873 C874 1.392 . S
C873 C877 1.495 . S
C874 C873 1.392 . S
C874 C875 1.385 . S
C874 C876 1.478 . S
C875 H869 0.930 . S
C875 C871 1.400 . S
C875 C874 1.385 . S
C876 C874 1.478 . S
C876 C878 1.381 . S
C876 C882 1.383 . S
C877 C873 1.495 . S
C877 H883 0.959 . S
C877 H884 0.961 . S
C877 H885 0.960 . S
C878 C876 1.381 . S
C878 C879 1.394 . S
C878 H886 0.930 . S
C879 C878 1.394 . S
C879 C880 1.383 . S
C879 H887 0.929 . S
C880 C879 1.383 . S
C880 C881 1.377 . S
C881 H865 0.930 . S
C881 C880 1.377 . S
C881 C882 1.379 . S
C882 H866 0.931 . S
C882 C876 1.383 . S
C882 C881 1.379 . S
H883 C877 0.959 . S
H884 C877 0.961 . S
H885 C877 0.960 . S
H886 C878 0.930 . S
H887 C879 0.929 . S
H888 C896 0.929 . S
H889 C898 0.930 . S
H890 C900 0.930 . S
H891 C903 0.929 . S
H892 C906 0.930 . S
H893 C908 0.960 . S
H894 C908 0.960 . S
H895 C908 0.960 . S
C896 H888 0.929 . S
C896 C897 1.377 . S
C896 C898 1.384 . S
C897 C896 1.377 . S
C897 C903 1.390 . S
C898 H889 0.930 . S
C898 C896 1.384 . S
C898 C899 1.372 . S
C899 C898 1.372 . S
C899 C900 1.400 . S
C899 C904 1.490 . S
C900 H890 0.930 . S
C900 C899 1.400 . S
C900 C903 1.386 . S
H901 C917 0.930 . S
H902 C918 0.931 . S
C903 H891 0.929 . S
C903 C897 1.390 . S
C903 C900 1.386 . S
C904 C899 1.490 . S
C904 C906 1.395 . S
C904 C907 1.403 . S
H905 C911 0.930 . S
C906 H892 0.930 . S
C906 C904 1.395 . S
C906 C909 1.403 . S
C907 C904 1.403 . S
C907 C908 1.524 . S
C907 C911 1.400 . S
C908 H893 0.960 . S
C908 H894 0.960 . S
C908 H895 0.960 . S
C908 C907 1.524 . S
C909 C906 1.403 . S
C909 C910 1.392 . S
C909 C913 1.495 . S
C910 C909 1.392 . S
C910 C911 1.385 . S
C910 C912 1.478 . S
C911 H905 0.930 . S
C911 C907 1.400 . S
C911 C910 1.385 . S
C912 C910 1.478 . S
C912 C914 1.381 . S
C912 C918 1.383 . S
C913 C909 1.495 . S
C913 H919 0.959 . S
C913 H920 0.961 . S
C913 H921 0.960 . S
C914 C912 1.381 . S
C914 C915 1.394 . S
C914 H922 0.930 . S
C915 C914 1.394 . S
C915 C916 1.383 . S
C915 H923 0.929 . S
C916 C915 1.383 . S
C916 C917 1.377 . S
C917 H901 0.930 . S
C917 C916 1.377 . S
C917 C918 1.379 . S
C918 H902 0.931 . S
C918 C912 1.383 . S
C918 C917 1.379 . S
H919 C913 0.959 . S
H920 C913 0.961 . S
H921 C913 0.960 . S
H922 C914 0.930 . S
H923 C915 0.929 . S
H924 C932 0.929 . S
H925 C934 0.930 . S
H926 C936 0.930 . S
H927 C939 0.929 . S
H928 C942 0.930 . S
H929 C944 0.960 . S
H930 C944 0.960 . S
H931 C944 0.960 . S
C932 H924 0.929 . S
C932 C933 1.377 . S
C932 C934 1.384 . S
C933 C932 1.377 . S
C933 C939 1.390 . S
C934 H925 0.930 . S
C934 C932 1.384 . S
C934 C935 1.372 . S
C935 C934 1.372 . S
C935 C936 1.400 . S
C935 C940 1.490 . S
C936 H926 0.930 . S
C936 C935 1.400 . S
C936 C939 1.386 . S
H937 C953 0.930 . S
H938 C954 0.931 . S
C939 H927 0.929 . S
C939 C933 1.390 . S
C939 C936 1.386 . S
C940 C935 1.490 . S
C940 C942 1.395 . S
C940 C943 1.403 . S
H941 C947 0.930 . S
C942 H928 0.930 . S
C942 C940 1.395 . S
C942 C945 1.403 . S
C943 C940 1.403 . S
C943 C944 1.524 . S
C943 C947 1.400 . S
C944 H929 0.960 . S
C944 H930 0.960 . S
C944 H931 0.960 . S
C944 C943 1.524 . S
C945 C942 1.403 . S
C945 C946 1.392 . S
C945 C949 1.495 . S
C946 C945 1.392 . S
C946 C947 1.385 . S
C946 C948 1.478 . S
C947 H941 0.930 . S
C947 C943 1.400 . S
C947 C946 1.385 . S
C948 C946 1.478 . S
C948 C950 1.381 . S
C948 C954 1.383 . S
C949 C945 1.495 . S
C949 H955 0.959 . S
C949 H956 0.961 . S
C949 H957 0.960 . S
C950 C948 1.381 . S
C950 C951 1.394 . S
C950 H958 0.930 . S
C951 C950 1.394 . S
C951 C952 1.383 . S
C951 H959 0.929 . S
C952 C951 1.383 . S
C952 C953 1.377 . S
C953 H937 0.930 . S
C953 C952 1.377 . S
C953 C954 1.379 . S
C954 H938 0.931 . S
C954 C948 1.383 . S
C954 C953 1.379 . S
H955 C949 0.959 . S
H956 C949 0.961 . S
H957 C949 0.960 . S
H958 C950 0.930 . S
H959 C951 0.929 . S
H960 C968 0.929 . S
H961 C970 0.930 . S
H962 C972 0.930 . S
H963 C975 0.929 . S
H964 C978 0.930 . S
H965 C980 0.960 . S
H966 C980 0.960 . S
H967 C980 0.960 . S
C968 H960 0.929 . S
C968 C969 1.377 . S
C968 C970 1.384 . S
C969 C968 1.377 . S
C969 C975 1.390 . S
C970 H961 0.930 . S
C970 C968 1.384 . S
C970 C971 1.372 . S
C971 C970 1.372 . S
C971 C972 1.400 . S
C971 C976 1.490 . S
C972 H962 0.930 . S
C972 C971 1.400 . S
C972 C975 1.386 . S
H973 C989 0.930 . S
H974 C990 0.931 . S
C975 H963 0.929 . S
C975 C969 1.390 . S
C975 C972 1.386 . S
C976 C971 1.490 . S
C976 C978 1.395 . S
C976 C979 1.403 . S
H977 C983 0.930 . S
C978 H964 0.930 . S
C978 C976 1.395 . S
C978 C981 1.403 . S
C979 C976 1.403 . S
C979 C980 1.524 . S
C979 C983 1.400 . S
C980 H965 0.960 . S
C980 H966 0.960 . S
C980 H967 0.960 . S
C980 C979 1.524 . S
C981 C978 1.403 . S
C981 C982 1.392 . S
C981 C985 1.495 . S
C982 C981 1.392 . S
C982 C983 1.385 . S
C982 C984 1.478 . S
C983 H977 0.930 . S
C983 C979 1.400 . S
C983 C982 1.385 . S
C984 C982 1.478 . S
C984 C986 1.381 . S
C984 C990 1.383 . S
C985 C981 1.495 . S
C985 H991 0.959 . S
C985 H992 0.961 . S
C985 H993 0.960 . S
C986 C984 1.381 . S
C986 C987 1.394 . S
C986 H994 0.930 . S
C987 C986 1.394 . S
C987 C988 1.383 . S
C987 H995 0.929 . S
C988 C987 1.383 . S
C988 C989 1.377 . S
C989 H973 0.930 . S
C989 C988 1.377 . S
C989 C990 1.379 . S
C990 H974 0.931 . S
C990 C984 1.383 . S
C990 C989 1.379 . S
H991 C985 0.959 . S
H992 C985 0.961 . S
H993 C985 0.960 . S
H994 C986 0.930 . S
H995 C987 0.929 . S
H996 C1004 0.929 . S
H997 C1006 0.930 . S
H998 C1008 0.930 . S
H999 C1011 0.929 . S
H1000 C1014 0.930 . S
H1001 C1016 0.960 . S
H1002 C1016 0.960 . S
H1003 C1016 0.960 . S
C1004 H996 0.929 . S
C1004 C1005 1.377 . S
C1004 C1006 1.384 . S
C1005 C1004 1.377 . S
C1005 C1011 1.390 . S
C1006 H997 0.930 . S
C1006 C1004 1.384 . S
C1006 C1007 1.372 . S
C1007 C1006 1.372 . S
C1007 C1008 1.400 . S
C1007 C1012 1.490 . S
C1008 H998 0.930 . S
C1008 C1007 1.400 . S
C1008 C1011 1.386 . S
H1009 C1025 0.930 . S
H1010 C1026 0.931 . S
C1011 H999 0.929 . S
C1011 C1005 1.390 . S
C1011 C1008 1.386 . S
C1012 C1007 1.490 . S
C1012 C1014 1.395 . S
C1012 C1015 1.403 . S
H1013 C1019 0.930 . S
C1014 H1000 0.930 . S
C1014 C1012 1.395 . S
C1014 C1017 1.403 . S
C1015 C1012 1.403 . S
C1015 C1016 1.524 . S
C1015 C1019 1.400 . S
C1016 H1001 0.960 . S
C1016 H1002 0.960 . S
C1016 H1003 0.960 . S
C1016 C1015 1.524 . S
C1017 C1014 1.403 . S
C1017 C1018 1.392 . S
C1017 C1021 1.495 . S
C1018 C1017 1.392 . S
C1018 C1019 1.385 . S
C1018 C1020 1.478 . S
C1019 H1013 0.930 . S
C1019 C1015 1.400 . S
C1019 C1018 1.385 . S
C1020 C1018 1.478 . S
C1020 C1022 1.381 . S
C1020 C1026 1.383 . S
C1021 C1017 1.495 . S
C1021 H1027 0.959 . S
C1021 H1028 0.961 . S
C1021 H1029 0.960 . S
C1022 C1020 1.381 . S
C1022 C1023 1.394 . S
C1022 H1030 0.930 . S
C1023 C1022 1.394 . S
C1023 C1024 1.383 . S
C1023 H1031 0.929 . S
C1024 C1023 1.383 . S
C1024 C1025 1.377 . S
C1025 H1009 0.930 . S
C1025 C1024 1.377 . S
C1025 C1026 1.379 . S
C1026 H1010 0.931 . S
C1026 C1020 1.383 . S
C1026 C1025 1.379 . S
H1027 C1021 0.959 . S
H1028 C1021 0.961 . S
H1029 C1021 0.960 . S
H1030 C1022 0.930 . S
H1031 C1023 0.929 . S
H1032 C1040 0.929 . S
H1033 C1042 0.930 . S
H1034 C1044 0.930 . S
H1035 C1047 0.929 . S
H1036 C1050 0.930 . S
H1037 C1052 0.960 . S
H1038 C1052 0.960 . S
H1039 C1052 0.960 . S
C1040 H1032 0.929 . S
C1040 C1041 1.377 . S
C1040 C1042 1.384 . S
C1041 C1040 1.377 . S
C1041 C1047 1.390 . S
C1042 H1033 0.930 . S
C1042 C1040 1.384 . S
C1042 C1043 1.372 . S
C1043 C1042 1.372 . S
C1043 C1044 1.400 . S
C1043 C1048 1.490 . S
C1044 H1034 0.930 . S
C1044 C1043 1.400 . S
C1044 C1047 1.386 . S
H1045 C1061 0.930 . S
H1046 C1062 0.931 . S
C1047 H1035 0.929 . S
C1047 C1041 1.390 . S
C1047 C1044 1.386 . S
C1048 C1043 1.490 . S
C1048 C1050 1.395 . S
C1048 C1051 1.403 . S
H1049 C1055 0.930 . S
C1050 H1036 0.930 . S
C1050 C1048 1.395 . S
C1050 C1053 1.403 . S
C1051 C1048 1.403 . S
C1051 C1052 1.524 . S
C1051 C1055 1.400 . S
C1052 H1037 0.960 . S
C1052 H1038 0.960 . S
C1052 H1039 0.960 . S
C1052 C1051 1.524 . S
C1053 C1050 1.403 . S
C1053 C1054 1.392 . S
C1053 C1057 1.495 . S
C1054 C1053 1.392 . S
C1054 C1055 1.385 . S
C1054 C1056 1.478 . S
C1055 H1049 0.930 . S
C1055 C1051 1.400 . S
C1055 C1054 1.385 . S
C1056 C1054 1.478 . S
C1056 C1058 1.381 . S
C1056 C1062 1.383 . S
C1057 C1053 1.495 . S
C1057 H1063 0.959 . S
C1057 H1064 0.961 . S
C1057 H1065 0.960 . S
C1058 C1056 1.381 . S
C1058 C1059 1.394 . S
C1058 H1066 0.930 . S
C1059 C1058 1.394 . S
C1059 C1060 1.383 . S
C1059 H1067 0.929 . S
C1060 C1059 1.383 . S
C1060 C1061 1.377 . S
C1061 H1045 0.930 . S
C1061 C1060 1.377 . S
C1061 C1062 1.379 . S
C1062 H1046 0.931 . S
C1062 C1056 1.383 . S
C1062 C1061 1.379 . S
H1063 C1057 0.959 . S
H1064 C1057 0.961 . S
H1065 C1057 0.960 . S
H1066 C1058 0.930 . S
H1067 C1059 0.929 . S
H1068 C1076 0.929 . S
H1069 C1078 0.930 . S
H1070 C1080 0.930 . S
H1071 C1083 0.929 . S
H1072 C1086 0.930 . S
H1073 C1088 0.960 . S
H1074 C1088 0.960 . S
H1075 C1088 0.960 . S
C1076 H1068 0.929 . S
C1076 C1077 1.377 . S
C1076 C1078 1.384 . S
C1077 C1076 1.377 . S
C1077 C1083 1.390 . S
C1078 H1069 0.930 . S
C1078 C1076 1.384 . S
C1078 C1079 1.372 . S
C1079 C1078 1.372 . S
C1079 C1080 1.400 . S
C1079 C1084 1.490 . S
C1080 H1070 0.930 . S
C1080 C1079 1.400 . S
C1080 C1083 1.386 . S
H1081 C1097 0.930 . S
H1082 C1098 0.967 . S
C1083 H1071 0.929 . S
C1083 C1077 1.390 . S
C1083 C1080 1.386 . S
C1084 C1079 1.490 . S
C1084 C1086 1.395 . S
C1084 C1087 1.403 . S
H1085 C1091 0.930 . S
C1086 H1072 0.930 . S
C1086 C1084 1.395 . S
C1086 C1089 1.403 . S
C1087 C1084 1.403 . S
C1087 C1088 1.524 . S
C1087 C1091 1.400 . S
C1088 H1073 0.960 . S
C1088 H1074 0.960 . S
C1088 H1075 0.960 . S
C1088 C1087 1.524 . S
C1089 C1086 1.403 . S
C1089 C1090 1.392 . S
C1089 C1093 1.495 . S
C1090 C1089 1.392 . S
C1090 C1091 1.385 . S
C1090 C1092 1.478 . S
C1091 H1085 0.930 . S
C1091 C1087 1.400 . S
C1091 C1090 1.385 . S
C1092 C1090 1.478 . S
C1092 C1094 1.381 1_556 S
C1092 C1098 1.401 . S
C1093 C1089 1.495 . S
C1093 H1099 0.959 . S
C1093 H1100 0.983 . S
C1093 H1101 0.960 . S
C1094 C1092 1.381 1_554 S
C1094 C1095 1.394 . S
C1094 H1102 0.947 . S
C1095 C1094 1.394 . S
C1095 C1096 1.383 . S
C1095 H1103 0.929 . S
C1096 C1095 1.383 . S
C1096 C1097 1.377 . S
C1097 H1081 0.930 . S
C1097 C1096 1.377 . S
C1097 C1098 1.328 1_554 S
C1098 H1082 0.967 . S
C1098 C1092 1.401 . S
C1098 C1097 1.328 1_556 S
H1099 C1093 0.959 . S
H1100 C1093 0.983 . S
H1101 C1093 0.960 . S
H1102 C1094 0.947 . S
H1103 C1095 0.929 . S
H1104 C1112 0.898 1_545 S
H1105 C1114 0.930 . S
H1106 C1116 0.930 . S
H1107 C1119 0.929 . S
H1108 C1122 0.930 . S
H1109 C1124 0.960 . S
H1110 C1124 0.960 . S
H1111 C1124 0.960 . S
C1112 H1104 0.898 1_565 S
C1112 C1113 1.377 . S
C1112 C1114 1.384 . S
C1113 C1112 1.377 . S
C1113 C1119 1.390 . S
C1114 H1105 0.930 . S
C1114 C1112 1.384 . S
C1114 C1115 1.372 . S
C1115 C1114 1.372 . S
C1115 C1116 1.400 . S
C1115 C1120 1.490 . S
C1116 H1106 0.930 . S
C1116 C1115 1.400 . S
C1116 C1119 1.386 . S
H1117 C1133 0.930 . S
H1118 C1134 0.931 . S
C1119 H1107 0.929 . S
C1119 C1113 1.390 . S
C1119 C1116 1.386 . S
C1120 C1115 1.490 . S
C1120 C1122 1.395 . S
C1120 C1123 1.403 . S
H1121 C1127 0.930 . S
C1122 H1108 0.930 . S
C1122 C1120 1.395 . S
C1122 C1125 1.403 . S
C1123 C1120 1.403 . S
C1123 C1124 1.524 . S
C1123 C1127 1.400 . S
C1124 H1109 0.960 . S
C1124 H1110 0.960 . S
C1124 H1111 0.960 . S
C1124 C1123 1.524 . S
C1125 C1122 1.403 . S
C1125 C1126 1.392 . S
C1125 C1129 1.495 . S
C1126 C1125 1.392 . S
C1126 C1127 1.385 . S
C1126 C1128 1.478 . S
C1127 H1121 0.930 . S
C1127 C1123 1.400 . S
C1127 C1126 1.385 . S
C1128 C1126 1.478 . S
C1128 C1130 1.381 . S
C1128 C1134 1.383 . S
C1129 C1125 1.495 . S
C1129 H1135 0.959 . S
C1129 H1136 0.961 . S
C1129 H1137 0.960 . S
C1130 C1128 1.381 . S
C1130 C1131 1.394 . S
C1130 H1138 0.930 . S
C1131 C1130 1.394 . S
C1131 C1132 1.383 . S
C1131 H1139 0.929 . S
C1132 C1131 1.383 . S
C1132 C1133 1.377 . S
C1133 H1117 0.930 . S
C1133 C1132 1.377 . S
C1133 C1134 1.379 . S
C1134 H1118 0.931 . S
C1134 C1128 1.383 . S
C1134 C1133 1.379 . S
H1135 C1129 0.959 . S
H1136 C1129 0.961 . S
H1137 C1129 0.960 . S
H1138 C1130 0.930 . S
H1139 C1131 0.929 . S
H1140 C1148 0.929 . S
H1141 C1150 0.930 . S
H1142 C1152 0.930 . S
H1143 C1155 0.929 . S
H1144 C1158 0.930 . S
H1145 C1160 0.960 . S
H1146 C1160 0.960 . S
H1147 C1160 0.960 . S
C1148 H1140 0.929 . S
C1148 C1149 1.377 . S
C1148 C1150 1.384 . S
C1149 C1148 1.377 . S
C1149 C1155 1.390 . S
C1150 H1141 0.930 . S
C1150 C1148 1.384 . S
C1150 C1151 1.372 . S
C1151 C1150 1.372 . S
C1151 C1152 1.400 . S
C1151 C1156 1.490 . S
C1152 H1142 0.930 . S
C1152 C1151 1.400 . S
C1152 C1155 1.386 . S
H1153 C1169 0.930 . S
H1154 C1170 0.931 . S
C1155 H1143 0.929 . S
C1155 C1149 1.390 . S
C1155 C1152 1.386 . S
C1156 C1151 1.490 . S
C1156 C1158 1.395 . S
C1156 C1159 1.403 . S
H1157 C1163 0.930 . S
C1158 H1144 0.930 . S
C1158 C1156 1.395 . S
C1158 C1161 1.403 . S
C1159 C1156 1.403 . S
C1159 C1160 1.524 . S
C1159 C1163 1.400 . S
C1160 H1145 0.960 . S
C1160 H1146 0.960 . S
C1160 H1147 0.960 . S
C1160 C1159 1.524 . S
C1161 C1158 1.403 . S
C1161 C1162 1.392 . S
C1161 C1165 1.495 . S
C1162 C1161 1.392 . S
C1162 C1163 1.385 . S
C1162 C1164 1.478 . S
C1163 H1157 0.930 . S
C1163 C1159 1.400 . S
C1163 C1162 1.385 . S
C1164 C1162 1.478 . S
C1164 C1166 1.381 . S
C1164 C1170 1.383 . S
C1165 C1161 1.495 . S
C1165 H1171 0.959 . S
C1165 H1172 0.961 . S
C1165 H1173 0.960 . S
C1166 C1164 1.381 . S
C1166 C1167 1.394 . S
C1166 H1174 0.930 . S
C1167 C1166 1.394 . S
C1167 C1168 1.383 . S
C1167 H1175 0.929 . S
C1168 C1167 1.383 . S
C1168 C1169 1.377 . S
C1169 H1153 0.930 . S
C1169 C1168 1.377 . S
C1169 C1170 1.379 . S
C1170 H1154 0.931 . S
C1170 C1164 1.383 . S
C1170 C1169 1.379 . S
H1171 C1165 0.959 . S
H1172 C1165 0.961 . S
H1173 C1165 0.960 . S
H1174 C1166 0.930 . S
H1175 C1167 0.929 . S
H1176 C1184 0.929 . S
H1177 C1186 0.930 . S
H1178 C1188 0.930 . S
H1179 C1191 0.929 . S
H1180 C1194 0.930 . S
H1181 C1196 0.960 . S
H1182 C1196 0.960 . S
H1183 C1196 0.960 . S
C1184 H1176 0.929 . S
C1184 C1185 1.377 . S
C1184 C1186 1.384 . S
C1185 C1184 1.377 . S
C1185 C1191 1.390 . S
C1186 H1177 0.930 . S
C1186 C1184 1.384 . S
C1186 C1187 1.372 . S
C1187 C1186 1.372 . S
C1187 C1188 1.400 . S
C1187 C1192 1.490 . S
C1188 H1178 0.930 . S
C1188 C1187 1.400 . S
C1188 C1191 1.386 . S
H1189 C1205 0.930 . S
H1190 C1206 0.931 . S
C1191 H1179 0.929 . S
C1191 C1185 1.390 . S
C1191 C1188 1.386 . S
C1192 C1187 1.490 . S
C1192 C1194 1.395 . S
C1192 C1195 1.403 . S
H1193 C1199 0.930 . S
C1194 H1180 0.930 . S
C1194 C1192 1.395 . S
C1194 C1197 1.403 . S
C1195 C1192 1.403 . S
C1195 C1196 1.524 . S
C1195 C1199 1.400 . S
C1196 H1181 0.960 . S
C1196 H1182 0.960 . S
C1196 H1183 0.960 . S
C1196 C1195 1.524 . S
C1197 C1194 1.403 . S
C1197 C1198 1.392 . S
C1197 C1201 1.495 . S
C1198 C1197 1.392 . S
C1198 C1199 1.385 . S
C1198 C1200 1.478 . S
C1199 H1193 0.930 . S
C1199 C1195 1.400 . S
C1199 C1198 1.385 . S
C1200 C1198 1.478 . S
C1200 C1202 1.381 . S
C1200 C1206 1.383 . S
C1201 C1197 1.495 . S
C1201 H1207 0.959 . S
C1201 H1208 0.961 . S
C1201 H1209 0.960 . S
C1202 C1200 1.381 . S
C1202 C1203 1.394 . S
C1202 H1210 0.930 . S
C1203 C1202 1.394 . S
C1203 C1204 1.383 . S
C1203 H1211 0.929 . S
C1204 C1203 1.383 . S
C1204 C1205 1.377 . S
C1205 H1189 0.930 . S
C1205 C1204 1.377 . S
C1205 C1206 1.379 . S
C1206 H1190 0.931 . S
C1206 C1200 1.383 . S
C1206 C1205 1.379 . S
H1207 C1201 0.959 . S
H1208 C1201 0.961 . S
H1209 C1201 0.960 . S
H1210 C1202 0.930 . S
H1211 C1203 0.929 . S
H1212 C1220 0.929 . S
H1213 C1222 0.930 . S
H1214 C1224 0.930 . S
H1215 C1227 0.929 . S
H1216 C1230 0.930 . S
H1217 C1232 0.960 . S
H1218 C1232 0.960 . S
H1219 C1232 0.960 . S
C1220 H1212 0.929 . S
C1220 C1221 1.377 . S
C1220 C1222 1.384 . S
C1221 C1220 1.377 . S
C1221 C1227 1.390 . S
C1222 H1213 0.930 . S
C1222 C1220 1.384 . S
C1222 C1223 1.372 . S
C1223 C1222 1.372 . S
C1223 C1224 1.400 . S
C1223 C1228 1.490 . S
C1224 H1214 0.930 . S
C1224 C1223 1.400 . S
C1224 C1227 1.386 . S
H1225 C1241 0.930 . S
H1226 C1242 0.931 . S
C1227 H1215 0.929 . S
C1227 C1221 1.390 . S
C1227 C1224 1.386 . S
C1228 C1223 1.490 . S
C1228 C1230 1.395 . S
C1228 C1231 1.403 . S
H1229 C1235 0.930 . S
C1230 H1216 0.930 . S
C1230 C1228 1.395 . S
C1230 C1233 1.403 . S
C1231 C1228 1.403 . S
C1231 C1232 1.524 . S
C1231 C1235 1.400 . S
C1232 H1217 0.960 . S
C1232 H1218 0.960 . S
C1232 H1219 0.960 . S
C1232 C1231 1.524 . S
C1233 C1230 1.403 . S
C1233 C1234 1.392 . S
C1233 C1237 1.495 . S
C1234 C1233 1.392 . S
C1234 C1235 1.385 . S
C1234 C1236 1.478 . S
C1235 H1229 0.930 . S
C1235 C1231 1.400 . S
C1235 C1234 1.385 . S
C1236 C1234 1.478 . S
C1236 C1238 1.381 . S
C1236 C1242 1.383 . S
C1237 C1233 1.495 . S
C1237 H1243 0.959 . S
C1237 H1244 0.961 . S
C1237 H1245 0.960 . S
C1238 C1236 1.381 . S
C1238 C1239 1.394 . S
C1238 H1246 0.930 . S
C1239 C1238 1.394 . S
C1239 C1240 1.383 . S
C1239 H1247 0.929 . S
C1240 C1239 1.383 . S
C1240 C1241 1.377 . S
C1241 H1225 0.930 . S
C1241 C1240 1.377 . S
C1241 C1242 1.379 . S
C1242 H1226 0.931 . S
C1242 C1236 1.383 . S
C1242 C1241 1.379 . S
H1243 C1237 0.959 . S
H1244 C1237 0.961 . S
H1245 C1237 0.960 . S
H1246 C1238 0.930 . S
H1247 C1239 0.929 . S
H1248 C1256 0.929 . S
H1249 C1258 0.930 . S
H1250 C1260 0.930 . S
H1251 C1263 0.929 . S
H1252 C1266 0.930 . S
H1253 C1268 0.960 . S
H1254 C1268 0.960 . S
H1255 C1268 0.960 . S
C1256 H1248 0.929 . S
C1256 C1257 1.377 . S
C1256 C1258 1.384 . S
C1257 C1256 1.377 . S
C1257 C1263 1.390 . S
C1258 H1249 0.930 . S
C1258 C1256 1.384 . S
C1258 C1259 1.372 . S
C1259 C1258 1.372 . S
C1259 C1260 1.400 . S
C1259 C1264 1.490 . S
C1260 H1250 0.930 . S
C1260 C1259 1.400 . S
C1260 C1263 1.386 . S
H1261 C1277 0.930 . S
H1262 C1278 0.931 . S
C1263 H1251 0.929 . S
C1263 C1257 1.390 . S
C1263 C1260 1.386 . S
C1264 C1259 1.490 . S
C1264 C1266 1.395 . S
C1264 C1267 1.403 . S
H1265 C1271 0.930 . S
C1266 H1252 0.930 . S
C1266 C1264 1.395 . S
C1266 C1269 1.403 . S
C1267 C1264 1.403 . S
C1267 C1268 1.524 . S
C1267 C1271 1.400 . S
C1268 H1253 0.960 . S
C1268 H1254 0.960 . S
C1268 H1255 0.960 . S
C1268 C1267 1.524 . S
C1269 C1266 1.403 . S
C1269 C1270 1.392 . S
C1269 C1273 1.495 . S
C1270 C1269 1.392 . S
C1270 C1271 1.385 . S
C1270 C1272 1.478 . S
C1271 H1265 0.930 . S
C1271 C1267 1.400 . S
C1271 C1270 1.385 . S
C1272 C1270 1.478 . S
C1272 C1274 1.381 . S
C1272 C1278 1.383 . S
C1273 C1269 1.495 . S
C1273 H1279 0.959 . S
C1273 H1280 0.961 . S
C1273 H1281 0.960 . S
C1274 C1272 1.381 . S
C1274 C1275 1.394 . S
C1274 H1282 0.930 . S
C1275 C1274 1.394 . S
C1275 C1276 1.383 . S
C1275 H1283 0.929 . S
C1276 C1275 1.383 . S
C1276 C1277 1.377 . S
C1277 H1261 0.930 . S
C1277 C1276 1.377 . S
C1277 C1278 1.379 . S
C1278 H1262 0.931 . S
C1278 C1272 1.383 . S
C1278 C1277 1.379 . S
H1279 C1273 0.959 . S
H1280 C1273 0.961 . S
H1281 C1273 0.960 . S
H1282 C1274 0.930 . S
H1283 C1275 0.929 . S
H1284 C1292 0.929 . S
H1285 C1294 0.930 . S
H1286 C1296 0.930 . S
H1287 C1299 0.929 . S
H1288 C1302 0.930 . S
H1289 C1304 0.960 . S
H1290 C1304 0.960 . S
H1291 C1304 0.960 . S
C1292 H1284 0.929 . S
C1292 C1293 1.377 . S
C1292 C1294 1.384 . S
C1293 C1292 1.377 . S
C1293 C1299 1.390 . S
C1294 H1285 0.930 . S
C1294 C1292 1.384 . S
C1294 C1295 1.372 . S
C1295 C1294 1.372 . S
C1295 C1296 1.400 . S
C1295 C1300 1.490 . S
C1296 H1286 0.930 . S
C1296 C1295 1.400 . S
C1296 C1299 1.386 . S
H1297 C1313 0.930 . S
H1298 C1314 0.931 . S
C1299 H1287 0.929 . S
C1299 C1293 1.390 . S
C1299 C1296 1.386 . S
C1300 C1295 1.490 . S
C1300 C1302 1.395 . S
C1300 C1303 1.403 . S
H1301 C1307 0.930 . S
C1302 H1288 0.930 . S
C1302 C1300 1.395 . S
C1302 C1305 1.403 . S
C1303 C1300 1.403 . S
C1303 C1304 1.524 . S
C1303 C1307 1.400 . S
C1304 H1289 0.960 . S
C1304 H1290 0.960 . S
C1304 H1291 0.960 . S
C1304 C1303 1.524 . S
C1305 C1302 1.403 . S
C1305 C1306 1.392 . S
C1305 C1309 1.495 . S
C1306 C1305 1.392 . S
C1306 C1307 1.385 . S
C1306 C1308 1.478 . S
C1307 H1301 0.930 . S
C1307 C1303 1.400 . S
C1307 C1306 1.385 . S
C1308 C1306 1.478 . S
C1308 C1310 1.381 . S
C1308 C1314 1.383 . S
C1309 C1305 1.495 . S
C1309 H1315 0.959 . S
C1309 H1316 0.961 . S
C1309 H1317 0.960 . S
C1310 C1308 1.381 . S
C1310 C1311 1.394 . S
C1310 H1318 0.930 . S
C1311 C1310 1.394 . S
C1311 C1312 1.383 . S
C1311 H1319 0.929 . S
C1312 C1311 1.383 . S
C1312 C1313 1.377 . S
C1313 H1297 0.930 . S
C1313 C1312 1.377 . S
C1313 C1314 1.379 . S
C1314 H1298 0.931 . S
C1314 C1308 1.383 . S
C1314 C1313 1.379 . S
H1315 C1309 0.959 . S
H1316 C1309 0.961 . S
H1317 C1309 0.960 . S
H1318 C1310 0.930 . S
H1319 C1311 0.929 . S
H1320 C1328 0.929 . S
H1321 C1330 0.930 . S
H1322 C1332 0.930 . S
H1323 C1335 0.929 . S
H1324 C1338 0.930 . S
H1325 C1340 0.960 . S
H1326 C1340 0.960 . S
H1327 C1340 0.960 . S
C1328 H1320 0.929 . S
C1328 C1329 1.377 . S
C1328 C1330 1.384 . S
C1329 C1328 1.377 . S
C1329 C1335 1.390 . S
C1330 H1321 0.930 . S
C1330 C1328 1.384 . S
C1330 C1331 1.372 . S
C1331 C1330 1.372 . S
C1331 C1332 1.400 . S
C1331 C1336 1.490 . S
C1332 H1322 0.930 . S
C1332 C1331 1.400 . S
C1332 C1335 1.386 . S
H1333 C1349 0.930 . S
H1334 C1350 0.931 . S
C1335 H1323 0.929 . S
C1335 C1329 1.390 . S
C1335 C1332 1.386 . S
C1336 C1331 1.490 . S
C1336 C1338 1.395 . S
C1336 C1339 1.403 . S
H1337 C1343 0.930 . S
C1338 H1324 0.930 . S
C1338 C1336 1.395 . S
C1338 C1341 1.403 . S
C1339 C1336 1.403 . S
C1339 C1340 1.524 . S
C1339 C1343 1.400 1_554 S
C1340 H1325 0.960 . S
C1340 H1326 0.960 . S
C1340 H1327 0.960 . S
C1340 C1339 1.524 . S
C1341 C1338 1.403 . S
C1341 C1342 1.392 1_554 S
C1341 C1345 1.495 . S
C1342 C1341 1.392 1_556 S
C1342 C1343 1.385 . S
C1342 C1344 1.478 . S
C1343 H1337 0.930 . S
C1343 C1339 1.400 1_556 S
C1343 C1342 1.385 . S
C1344 C1342 1.478 . S
C1344 C1346 1.381 . S
C1344 C1350 1.383 . S
C1345 C1341 1.495 . S
C1345 H1351 0.959 . S
C1345 H1352 0.961 1_554 S
C1345 H1353 0.960 . S
C1346 C1344 1.381 . S
C1346 C1347 1.394 . S
C1346 H1354 0.930 . S
C1347 C1346 1.394 . S
C1347 C1348 1.383 . S
C1347 H1355 0.929 . S
C1348 C1347 1.383 . S
C1348 C1349 1.377 . S
C1349 H1333 0.930 . S
C1349 C1348 1.377 . S
C1349 C1350 1.379 . S
C1350 H1334 0.931 . S
C1350 C1344 1.383 . S
C1350 C1349 1.379 . S
H1351 C1345 0.959 . S
H1352 C1345 0.961 1_556 S
H1353 C1345 0.960 . S
H1354 C1346 0.930 . S
H1355 C1347 0.929 . S
H1356 C1364 0.929 . S
H1357 C1366 0.930 . S
H1358 C1368 0.930 . S
H1359 C1371 0.929 . S
H1360 C1374 0.930 . S
H1361 C1376 0.960 . S
H1362 C1376 0.960 . S
H1363 C1376 0.960 . S
C1364 H1356 0.929 . S
C1364 C1365 1.377 . S
C1364 C1366 1.384 . S
C1365 C1364 1.377 . S
C1365 C1371 1.390 . S
C1366 H1357 0.930 . S
C1366 C1364 1.384 . S
C1366 C1367 1.372 . S
C1367 C1366 1.372 . S
C1367 C1368 1.400 . S
C1367 C1372 1.490 . S
C1368 H1358 0.930 . S
C1368 C1367 1.400 . S
C1368 C1371 1.386 . S
H1369 C1385 0.930 . S
H1370 C1386 0.931 . S
C1371 H1359 0.929 . S
C1371 C1365 1.390 . S
C1371 C1368 1.386 . S
C1372 C1367 1.490 . S
C1372 C1374 1.395 . S
C1372 C1375 1.403 . S
H1373 C1379 0.930 . S
C1374 H1360 0.930 . S
C1374 C1372 1.395 . S
C1374 C1377 1.403 . S
C1375 C1372 1.403 . S
C1375 C1376 1.524 . S
C1375 C1379 1.400 . S
C1376 H1361 0.960 . S
C1376 H1362 0.960 . S
C1376 H1363 0.960 . S
C1376 C1375 1.524 . S
C1377 C1374 1.403 . S
C1377 C1378 1.392 . S
C1377 C1381 1.495 . S
C1378 C1377 1.392 . S
C1378 C1379 1.385 . S
C1378 C1380 1.478 . S
C1379 H1373 0.930 . S
C1379 C1375 1.400 . S
C1379 C1378 1.385 . S
C1380 C1378 1.478 . S
C1380 C1382 1.381 . S
C1380 C1386 1.383 . S
C1381 C1377 1.495 . S
C1381 H1387 0.959 . S
C1381 H1388 0.961 . S
C1381 H1389 0.960 . S
C1382 C1380 1.381 . S
C1382 C1383 1.394 . S
C1382 H1390 0.930 . S
C1383 C1382 1.394 . S
C1383 C1384 1.383 . S
C1383 H1391 0.929 . S
C1384 C1383 1.383 . S
C1384 C1385 1.377 . S
C1385 H1369 0.930 . S
C1385 C1384 1.377 . S
C1385 C1386 1.379 . S
C1386 H1370 0.931 . S
C1386 C1380 1.383 . S
C1386 C1385 1.379 . S
H1387 C1381 0.959 . S
H1388 C1381 0.961 . S
H1389 C1381 0.960 . S
H1390 C1382 0.930 . S
H1391 C1383 0.929 . S
C556 C519 0.941 . S
C537 C51 1.228 . S
C573 C125 1.359 . S
C592 C449 1.057 . S
C609 C217 2.677 . S
C628 C469 2.698 . S
C645 C291 1.334 . S
C664 C483 1.339 . S
C700 C491 0.758 . S
C681 C347 0.686 . S
C717 C421 0.635 . S
C736 C505 0.760 . S
C753 C143 2.325 . S
C772 C463 2.009 . S
C789 C199 1.446 . S
C808 C477 1.265 . S
C825 C273 0.196 . S
C844 C497 0.164 . S
C880 C511 1.589 . S
C861 C365 1.565 . S
C916 C525 1.693 . S
C897 C439 1.717 . S
C952 C455 2.510 . S
C933 C69 2.475 . S
C969 C63 1.277 . S
C988 C462 1.341 . S
C1005 C137 1.465 . S
C1024 C476 1.524 . S
C1060 C498 1.184 . S
C1041 C187 1.167 . S
C1077 C261 1.386 . S
C1096 C512 1.408 . S
C1132 C526 1.350 . S
C1113 C359 1.263 . S
C1168 C456 0.917 . S
C1149 C433 0.882 . S
C1204 C518 1.556 . S
C1185 C113 1.519 . S
C1221 C211 1.172 . S
C1240 C448 1.246 . S
C1276 C470 1.468 . S
C1257 C285 1.405 . S
C1293 C335 1.234 . S
C1312 C484 1.261 . S
C1329 C409 1.226 . S
C1348 C490 1.262 . S
C1365 C39 1.620 . S
C1384 C504 1.651 . S
