# Generated by pormake.
# Topology zzz, (3,6)-cn, num edge types: 1
# Building blocks:
#     Node 0, Type 0, BuildingBlock: BETDAH_clean_linker_0, # of connection points: 3
#     Node 1, Type 0, BuildingBlock: BETDAH_clean_linker_0, # of connection points: 3
#     Node 2, Type 0, BuildingBlock: BETDAH_clean_linker_0, # of connection points: 3
#     Node 3, Type 0, BuildingBlock: BETDAH_clean_linker_0, # of connection points: 3
#     Node 4, Type 0, BuildingBlock: BETDAH_clean_linker_0, # of connection points: 3
#     Node 5, Type 0, BuildingBlock: BETDAH_clean_linker_0, # of connection points: 3
#     Node 6, Type 0, BuildingBlock: BETDAH_clean_linker_0, # of connection points: 3
#     Node 7, Type 0, BuildingBlock: BETDAH_clean_linker_0, # of connection points: 3
#     Node 8, Type 1, BuildingBlock: PAMTOO_clean_sbu_0, # of connection points: 6
#     Node 9, Type 1, BuildingBlock: PAMTOO_clean_sbu_0, # of connection points: 6
#     Node 10, Type 1, BuildingBlock: PAMTOO_clean_sbu_0, # of connection points: 6
#     Node 11, Type 1, BuildingBlock: PAMTOO_clean_sbu_0, # of connection points: 6
#     Edge 12, Type (0, 1), BuildingBlock: UVAHIK_clean_linker_0, # of connection points: 2
#     Edge 13, Type (0, 1), BuildingBlock: UVAHIK_clean_linker_0, # of connection points: 2
#     Edge 14, Type (0, 1), BuildingBlock: UVAHIK_clean_linker_0, # of connection points: 2
#     Edge 15, Type (0, 1), BuildingBlock: UVAHIK_clean_linker_0, # of connection points: 2
#     Edge 16, Type (0, 1), BuildingBlock: UVAHIK_clean_linker_0, # of connection points: 2
#     Edge 17, Type (0, 1), BuildingBlock: UVAHIK_clean_linker_0, # of connection points: 2
#     Edge 18, Type (0, 1), BuildingBlock: UVAHIK_clean_linker_0, # of connection points: 2
#     Edge 19, Type (0, 1), BuildingBlock: UVAHIK_clean_linker_0, # of connection points: 2
#     Edge 20, Type (0, 1), BuildingBlock: UVAHIK_clean_linker_0, # of connection points: 2
#     Edge 21, Type (0, 1), BuildingBlock: UVAHIK_clean_linker_0, # of connection points: 2
#     Edge 22, Type (0, 1), BuildingBlock: UVAHIK_clean_linker_0, # of connection points: 2
#     Edge 23, Type (0, 1), BuildingBlock: UVAHIK_clean_linker_0, # of connection points: 2
#     Edge 24, Type (0, 1), BuildingBlock: UVAHIK_clean_linker_0, # of connection points: 2
#     Edge 25, Type (0, 1), BuildingBlock: UVAHIK_clean_linker_0, # of connection points: 2
#     Edge 26, Type (0, 1), BuildingBlock: UVAHIK_clean_linker_0, # of connection points: 2
#     Edge 27, Type (0, 1), BuildingBlock: UVAHIK_clean_linker_0, # of connection points: 2
#     Edge 28, Type (0, 1), BuildingBlock: UVAHIK_clean_linker_0, # of connection points: 2
#     Edge 29, Type (0, 1), BuildingBlock: UVAHIK_clean_linker_0, # of connection points: 2
#     Edge 30, Type (0, 1), BuildingBlock: UVAHIK_clean_linker_0, # of connection points: 2
#     Edge 31, Type (0, 1), BuildingBlock: UVAHIK_clean_linker_0, # of connection points: 2
#     Edge 32, Type (0, 1), BuildingBlock: UVAHIK_clean_linker_0, # of connection points: 2
#     Edge 33, Type (0, 1), BuildingBlock: UVAHIK_clean_linker_0, # of connection points: 2
#     Edge 34, Type (0, 1), BuildingBlock: UVAHIK_clean_linker_0, # of connection points: 2
#     Edge 35, Type (0, 1), BuildingBlock: UVAHIK_clean_linker_0, # of connection points: 2
# Relax obj value: 0.188
# Max RMSD: 0.230
# Mean RMSD: 0.120
data_MOF--net-zzz--node1-PAMTOO_clean_sbu_0--node2-BETDAH_clean_linker_0--edge1-UVAHIK_clean_linker_0
_symmetry_space_group_name_H-M    P1
_symmetry_Int_Tables_number       1
_symmetry_cell_setting            triclinic
loop_
_symmetry_equiv_pos_as_xyz
'x, y, z'
_cell_length_a     72.554716
_cell_length_b     64.112937
_cell_length_c     20.223324
_cell_angle_alpha  91.146177
_cell_angle_beta   81.879256
_cell_angle_gamma 86.334146
loop_
_atom_site_label
_atom_site_type_symbol
_atom_site_fract_x
_atom_site_fract_y
_atom_site_fract_z
_atom_type_partial_charge
H0 H 0.81367 0.53149 0.43052 0.0
H1 H 0.75947 0.52004 0.38207 0.0
H2 H 0.77369 0.50492 0.57656 0.0
C3 C 0.79961 0.52684 0.44577 0.0
C4 C 0.7951 0.51883 0.50947 0.0
C5 C 0.78693 0.52699 0.39945 0.0
C6 C 0.76912 0.51998 0.41835 0.0
C7 C 0.76406 0.51226 0.48261 0.0
C8 C 0.77726 0.51145 0.52776 0.0
N9 N 0.74611 0.50461 0.50182 0.0
C10 C 0.73259 0.50392 0.45915 0.0
H11 H 0.99346 0.77916 0.35625 0.0
H12 H 0.99679 0.71501 0.28863 0.0
H13 H 0.99058 0.7306 0.49982 0.0
C14 C 0.99306 0.76268 0.36728 0.0
C15 C 0.99157 0.75667 0.43376 0.0
C16 C 0.99507 0.74774 0.31487 0.0
C17 C 0.99517 0.72646 0.32947 0.0
C18 C 0.99321 0.72013 0.39642 0.0
C19 C 0.99169 0.73535 0.44836 0.0
N20 N 0.99288 0.69866 0.41268 0.0
C21 C 0.99346 0.68265 0.36474 0.0
H22 H 0.72289 0.00312 0.22763 0.0
H23 H 0.78175 0.00348 0.16288 0.0
H24 H 0.76128 0.98599 0.36401 0.0
C25 C 0.7371 1.00072 0.23848 0.0
C26 C 0.74022 0.99394 0.30147 0.0
C27 C 0.75197 0.00433 0.18895 0.0
C28 C 0.77036 0.00091 0.20192 0.0
C29 C 0.77385 0.99438 0.26549 0.0
C30 C 0.75867 0.99113 0.31526 0.0
N31 N 0.79233 0.99081 0.28081 0.0
C32 C 0.80847 0.99272 0.23551 0.0
H33 H 0.54582 0.68464 0.14795 0.0
H34 H 0.53334 0.7479 0.09483 0.0
H35 H 0.55514 0.73531 0.27897 0.0
C36 C 0.54592 0.70129 0.15865 0.0
C37 C 0.55159 0.7082 0.21818 0.0
C38 C 0.5392 0.71548 0.11462 0.0
C39 C 0.53869 0.73701 0.12891 0.0
C40 C 0.54482 0.74426 0.18794 0.0
C41 C 0.55085 0.72975 0.23289 0.0
N42 N 0.5448 0.7659 0.20438 0.0
C43 C 0.54235 0.78181 0.16004 0.0
H44 H 0.20272 0.49358 0.11853 0.0
H45 H 0.2597 0.48711 0.15239 0.0
H46 H 0.24619 0.47978 0.95249 0.0
C47 C 0.21736 0.49046 0.09897 0.0
C48 C 0.22267 0.48677 0.03004 0.0
C49 C 0.23064 0.49065 0.143 0.0
C50 C 0.24956 0.48692 0.11795 0.0
C51 C 0.25533 0.48283 0.04924 0.0
C52 C 0.24178 0.48262 0.00553 0.0
N53 N 0.27461 0.47927 0.02317 0.0
C54 C 0.28888 0.48042 0.06253 0.0
H55 H 0.02927 0.22422 0.08388 0.0
H56 H 0.03185 0.28721 0.15532 0.0
H57 H 0.05522 0.26899 0.95245 0.0
C58 C 0.03321 0.24008 0.07501 0.0
C59 C 0.0427 0.24478 0.01262 0.0
C60 C 0.02903 0.25536 0.12629 0.0
C61 C 0.03484 0.27559 0.11514 0.0
C62 C 0.04423 0.28071 0.05217 0.0
C63 C 0.04793 0.26523 0.00081 0.0
N64 N 0.05021 0.30114 0.03933 0.0
C65 C 0.04848 0.3171 0.08801 0.0
H66 H 0.31582 0.00118 0.25235 0.0
H67 H 0.2573 0.99539 0.31084 0.0
H68 H 0.2781 0.01048 0.10783 0.0
C69 C 0.30176 0.0021 0.23958 0.0
C70 C 0.2989 0.0066 0.17414 0.0
C71 C 0.2869 0.99805 0.28863 0.0
C72 C 0.26872 0.99856 0.27258 0.0
C73 C 0.26543 0.00328 0.20724 0.0
C74 C 0.28062 0.00694 0.15809 0.0
N75 N 0.24712 0.00455 0.18936 0.0
C76 C 0.23078 0.00405 0.2347 0.0
H77 H 0.49762 0.3258 0.29222 0.0
H78 H 0.50142 0.26344 0.36475 0.0
H79 H 0.47668 0.2757 0.18633 0.0
C80 C 0.49461 0.3095 0.28812 0.0
C81 C 0.48624 0.30255 0.23418 0.0
C82 C 0.50023 0.29545 0.33468 0.0
C83 C 0.49695 0.27422 0.32868 0.0
C84 C 0.4881 0.26709 0.2755 0.0
C85 C 0.48307 0.28128 0.22807 0.0
N86 N 0.48431 0.2458 0.26728 0.0
C87 C 0.48759 0.2303 0.31209 0.0
Dy88 Dy 1.00739 0.0099 0.66756 0.0
Dy89 Dy 0.02906 0.99209 0.78791 0.0
C90 C 0.05129 0.00131 0.64562 0.0
O91 O 0.01218 0.97546 0.64535 0.0
O92 O 0.01475 0.96518 0.75183 0.0
O93 O 1.00547 0.01494 0.56333 0.0
O94 O 0.98325 0.02714 0.63997 0.0
O95 O 1.00013 0.00345 0.83409 0.0
O96 O 0.9856 0.99762 0.74329 0.0
O97 O 0.03602 0.02549 0.7823 0.0
O98 O 0.01092 0.03741 0.73304 0.0
O99 O 0.03016 0.98659 0.89251 0.0
O100 O 0.05318 0.97541 0.81816 0.0
C101 C 0.01225 0.96085 0.69012 0.0
O102 O 0.0376 0.01482 0.63652 0.0
O103 O 0.04893 0.98756 0.69272 0.0
C104 C 0.9923 0.04901 0.55251 0.0
C105 C 0.99415 0.09126 0.51866 0.0
C106 C 1.00917 0.08056 0.54309 0.0
C107 C 1.00821 0.05966 0.56019 0.0
C108 C 0.97729 0.05956 0.52789 0.0
C109 C 0.9782 0.08058 0.51109 0.0
C110 C 0.99065 0.0278 0.57753 0.0
C111 C 0.9849 1.00038 0.80804 0.0
C112 C 0.02514 0.04091 0.7644 0.0
C113 C 0.04376 0.95271 0.90298 0.0
C114 C 0.04241 0.90993 0.9308 0.0
C115 C 0.02706 0.92104 0.90977 0.0
C116 C 0.02774 0.9422 0.89594 0.0
C117 C 0.05903 0.94184 0.92494 0.0
C118 C 0.05834 0.9206 0.93908 0.0
C119 C 0.04523 0.97415 0.87962 0.0
H120 H 0.02152 0.08848 0.55033 0.0
H121 H 0.01976 0.05194 0.5808 0.0
H122 H 0.96478 0.05166 0.52281 0.0
H123 H 0.96648 0.08845 0.49193 0.0
H124 H 0.01446 0.91339 0.90408 0.0
H125 H 0.01584 0.95025 0.87843 0.0
H126 H 0.07162 0.94964 0.92956 0.0
H127 H 0.07042 0.91241 0.95491 0.0
Dy128 Dy 0.51028 0.99075 0.65587 0.0
Dy129 Dy 0.52478 0.01545 0.78012 0.0
C130 C 0.51146 0.04005 0.66148 0.0
O131 O 0.54148 0.98541 0.63538 0.0
O132 O 0.54827 0.0139 0.69549 0.0
O133 O 0.49748 0.99267 0.56608 0.0
O134 O 0.50573 0.96241 0.60225 0.0
O135 O 0.53376 0.98156 0.78374 0.0
O136 O 0.50914 0.96911 0.74117 0.0
O137 O 0.49512 0.01016 0.81984 0.0
O138 O 0.48414 0.00307 0.72081 0.0
O139 O 0.53178 0.01595 0.88059 0.0
O140 O 0.53656 0.04256 0.81782 0.0
C141 C 0.55342 0.99862 0.65123 0.0
O142 O 0.51666 0.02308 0.62447 0.0
O143 O 0.50917 0.03927 0.72681 0.0
C144 C 0.47703 0.96633 0.55868 0.0
C145 C 0.43861 0.96208 0.56011 0.0
C146 C 0.44944 0.96952 0.50346 0.0
C147 C 0.46851 0.97152 0.50264 0.0
C148 C 0.46635 0.95813 0.61452 0.0
C149 C 0.44728 0.95583 0.61493 0.0
C150 C 0.49608 0.97254 0.56184 0.0
C151 C 0.52261 0.96657 0.77768 0.0
C152 C 0.4813 0.00736 0.78551 0.0
C153 C 0.55994 0.03197 0.8805 0.0
C154 C 0.59834 0.03005 0.89141 0.0
C155 C 0.59181 0.0195 0.83857 0.0
C156 C 0.57283 0.02024 0.8338 0.0
C157 C 0.56621 0.04262 0.9332 0.0
C158 C 0.58527 0.04157 0.93893 0.0
C159 C 0.54016 0.0333 0.87182 0.0
H160 H 0.443 0.97437 0.46056 0.0
H161 H 0.47644 0.97809 0.45945 0.0
H162 H 0.47253 0.95437 0.65892 0.0
H163 H 0.43914 0.95022 0.6593 0.0
H164 H 0.60135 0.01079 0.80029 0.0
H165 H 0.56819 0.01173 0.79318 0.0
H166 H 0.55642 0.0517 0.96984 0.0
H167 H 0.5897 0.04957 0.98101 0.0
Dy168 Dy 0.54329 0.50239 0.74999 0.0
Dy169 Dy 0.50463 0.50083 0.67278 0.0
C170 C 0.50995 0.47274 0.79952 0.0
O171 O 0.55114 0.48182 0.65845 0.0
O172 O 0.52188 0.471 0.65038 0.0
O173 O 0.56782 0.48741 0.78336 0.0
O174 O 0.5612 0.52059 0.80221 0.0
O175 O 0.52469 0.51857 0.60513 0.0
O176 O 0.54622 0.52697 0.67357 0.0
O177 O 0.50429 0.53201 0.72347 0.0
O178 O 0.51935 0.5211 0.80984 0.0
O179 O 0.49352 0.49331 0.58271 0.0
O180 O 0.47454 0.50569 0.67109 0.0
C181 C 0.54011 0.46848 0.63723 0.0
O182 O 0.52784 0.47585 0.79328 0.0
O183 O 0.49806 0.48361 0.76794 0.0
C184 C 0.58043 0.50325 0.87465 0.0
C185 C 0.60152 0.50161 0.983 0.0
C186 C 0.59727 0.48313 0.95119 0.0
C187 C 0.58692 0.48394 0.89763 0.0
C188 C 0.58412 0.52167 0.90789 0.0
C189 C 0.59445 0.52087 0.96144 0.0
C190 C 0.57247 0.50452 0.8108 0.0
C191 C 0.53855 0.52941 0.61891 0.0
C192 C 0.50906 0.53526 0.78285 0.0
C193 C 0.46069 0.49757 0.56939 0.0
C194 C 0.43104 0.49456 0.4924 0.0
C195 C 0.44967 0.4895 0.46388 0.0
C196 C 0.46425 0.49097 0.50181 0.0
C197 C 0.44212 0.50276 0.59812 0.0
C198 C 0.42747 0.50129 0.56005 0.0
C199 C 0.4764 0.49896 0.60882 0.0
H200 H 0.60223 0.468 0.96694 0.0
H201 H 0.58455 0.46942 0.87284 0.0
H202 H 0.57967 0.53683 0.89075 0.0
H203 H 0.5976 0.53545 0.98394 0.0
H204 H 0.45306 0.48464 0.41176 0.0
H205 H 0.47839 0.48696 0.47788 0.0
H206 H 0.43891 0.50788 0.65007 0.0
H207 H 0.41331 0.50513 0.58395 0.0
Dy208 Dy 0.01996 0.51815 0.67737 0.0
Dy209 Dy 1.00802 0.48131 0.77993 0.0
C210 C 0.02381 0.47049 0.62639 0.0
O211 O 0.99173 0.51005 0.65611 0.0
O212 O 0.98191 0.49967 0.7617 0.0
O213 O 0.03058 0.52934 0.57989 0.0
O214 O 0.02316 0.55109 0.66375 0.0
O215 O 0.01123 0.50931 0.84329 0.0
O216 O 1.00417 0.53397 0.76981 0.0
O217 O 0.03923 0.47747 0.76437 0.0
O218 O 0.04421 0.51111 0.73276 0.0
O219 O 1.00676 0.46674 0.87596 0.0
O220 O 0.99211 0.45421 0.79976 0.0
C221 C 0.97819 0.50562 0.70297 0.0
O222 O 0.0315 0.48849 0.6223 0.0
O223 O 0.01194 0.46612 0.6785 0.0
C224 C 0.05125 0.5554 0.59271 0.0
C225 C 0.08979 0.5613 0.57111 0.0
C226 C 0.07976 0.5592 0.51678 0.0
C227 C 0.06066 0.55632 0.52756 0.0
C228 C 0.06099 0.55871 0.64705 0.0
C229 C 0.08003 0.56175 0.63631 0.0
C230 C 0.03225 0.54806 0.60371 0.0
C231 C 1.00606 0.52859 0.83079 0.0
C232 C 0.05023 0.493 0.75409 0.0
C233 C 0.97533 0.45993 0.90534 0.0
C234 C 0.93805 0.47049 0.95938 0.0
C235 C 0.95026 0.48619 0.94225 0.0
C236 C 0.96873 0.48097 0.91576 0.0
C237 C 0.96335 0.44411 0.92439 0.0
C238 C 0.94478 0.44939 0.95217 0.0
C239 C 0.99335 0.4553 0.86333 0.0
H240 H 0.08685 0.55846 0.46586 0.0
H241 H 0.05347 0.55363 0.48502 0.0
H242 H 0.05414 0.55797 0.69805 0.0
H243 H 0.08726 0.56361 0.67919 0.0
H244 H 0.94544 0.50256 0.94848 0.0
H245 H 0.97763 0.49346 0.90053 0.0
H246 H 0.96813 0.42781 0.91543 0.0
H247 H 0.93553 0.43707 0.96556 0.0
C248 C 0.21027 0.98969 0.32886 0.0
C249 C 0.21311 0.0042 0.27814 0.0
C250 C 0.1929 0.98956 0.36932 0.0
C251 C 0.14286 0.00696 0.37322 0.0
H252 H 0.13982 0.99704 0.56275 0.0
C253 C 0.07283 0.01637 0.55263 0.0
C254 C 0.06973 0.00162 0.6029 0.0
C255 C 0.09032 0.01679 0.51323 0.0
C256 C 0.14039 0.9996 0.50976 0.0
H257 H 0.20047 0.03004 0.22964 0.0
H258 H 0.1702 0.03008 0.30051 0.0
H259 H 0.17029 0.99758 0.49441 0.0
H260 H 0.08271 0.97568 0.65072 0.0
H261 H 0.11303 0.97629 0.58176 0.0
H262 H 0.11298 0.00897 0.38852 0.0
C263 C 0.18115 0.01857 0.30886 0.0
C264 C 0.15791 0.99991 0.4705 0.0
C265 C 0.1985 0.01868 0.26855 0.0
C266 C 0.08456 0.9873 0.61261 0.0
C267 C 0.10203 0.98774 0.57329 0.0
C268 C 0.12536 0.00666 0.41246 0.0
C269 C 0.17805 0.00394 0.35962 0.0
C270 C 0.15939 0.0036 0.40166 0.0
C271 C 0.10518 0.00251 0.5231 0.0
C272 C 0.12387 0.00296 0.48129 0.0
H273 H 0.2214 0.97834 0.33681 0.0
H274 H 0.191 0.97793 0.40733 0.0
H275 H 0.14342 0.0095 0.32021 0.0
H276 H 0.06178 0.0277 0.54386 0.0
H277 H 0.09227 0.02856 0.47565 0.0
C278 C 0.47494 0.20232 0.3826 0.0
C279 C 0.49027 0.21309 0.35528 0.0
C280 C 0.47755 0.18464 0.42049 0.0
C281 C 0.51332 0.14321 0.44523 0.0
H282 H 0.47808 0.13125 0.60028 0.0
C283 C 0.51175 0.06149 0.55906 0.0
C284 C 0.50895 0.06038 0.62908 0.0
C285 C 0.50975 0.08068 0.52832 0.0
C286 C 0.48814 0.13443 0.55744 0.0
H287 H 0.5202 0.21454 0.34618 0.0
H288 H 0.52488 0.18368 0.41317 0.0
H289 H 0.47441 0.16432 0.54437 0.0
H290 H 0.50174 0.07863 0.72171 0.0
H291 H 0.49837 0.11213 0.66798 0.0
H292 H 0.52715 0.11342 0.45856 0.0
C293 C 0.51086 0.18864 0.40494 0.0
C294 C 0.48593 0.1533 0.52498 0.0
C295 C 0.50821 0.20634 0.36707 0.0
C296 C 0.50397 0.07891 0.66764 0.0
C297 C 0.50195 0.09811 0.63685 0.0
C298 C 0.51551 0.12434 0.4776 0.0
C299 C 0.49557 0.17743 0.43149 0.0
C300 C 0.49841 0.15785 0.46818 0.0
C301 C 0.50489 0.09923 0.5668 0.0
C302 C 0.50287 0.11963 0.53378 0.0
H303 H 0.46098 0.2073 0.3735 0.0
H304 H 0.4655 0.17626 0.43938 0.0
H305 H 0.52308 0.14609 0.40123 0.0
H306 H 0.51552 0.04754 0.52777 0.0
H307 H 0.51183 0.08092 0.47425 0.0
C308 C 0.30155 0.49834 0.15383 0.0
C309 C 0.30303 0.48198 0.10596 0.0
C310 C 0.31502 0.49974 0.19676 0.0
C311 C 0.35213 0.46804 0.26601 0.0
H312 H 0.3692 0.52206 0.30927 0.0
C313 C 0.41605 0.47619 0.40438 0.0
C314 C 0.41556 0.4928 0.45132 0.0
C315 C 0.40195 0.47483 0.36413 0.0
C316 C 0.36443 0.50686 0.29852 0.0
H317 H 0.3195 0.45425 0.06471 0.0
H318 H 0.34323 0.45669 0.13912 0.0
H319 H 0.34559 0.51985 0.23521 0.0
H320 H 0.39959 0.52098 0.49258 0.0
H321 H 0.3748 0.51838 0.42339 0.0
H322 H 0.37095 0.45504 0.32924 0.0
C323 C 0.33161 0.46836 0.14436 0.0
C324 C 0.35087 0.50559 0.25587 0.0
C325 C 0.31813 0.46701 0.10141 0.0
C326 C 0.40039 0.50787 0.45745 0.0
C327 C 0.38627 0.50652 0.41709 0.0
C328 C 0.36566 0.46931 0.3087 0.0
C329 C 0.33024 0.48474 0.19274 0.0
C330 C 0.34457 0.48615 0.23879 0.0
C331 C 0.38689 0.49002 0.36961 0.0
C332 C 0.37207 0.48874 0.32539 0.0
H333 H 0.2899 0.50998 0.15834 0.0
H334 H 0.31333 0.51239 0.23383 0.0
H335 H 0.3474 0.45283 0.25503 0.0
H336 H 0.42734 0.46411 0.39875 0.0
H337 H 0.40306 0.46201 0.3278 0.0
C338 C 0.03251 0.33316 0.19419 0.0
C339 C 0.04681 0.3332 0.13987 0.0
C340 C 0.03129 0.34819 0.24591 0.0
C341 C 0.04459 0.40068 0.28718 0.0
H342 H 0.03561 0.38224 0.46964 0.0
C343 C 0.04187 0.45777 0.51573 0.0
C344 C 0.02813 0.4548 0.57049 0.0
C345 C 0.0455 0.44297 0.46275 0.0
C346 C 0.03791 0.38773 0.41904 0.0
H347 H 0.07081 0.34892 0.0953 0.0
H348 H 0.06857 0.37555 0.18567 0.0
H349 H 0.03896 0.35664 0.37748 0.0
H350 H 1.00735 0.43393 0.61205 0.0
H351 H 0.01335 0.40858 0.5198 0.0
H352 H 0.04308 0.43185 0.32866 0.0
C353 C 0.05835 0.36389 0.18848 0.0
C354 C 0.03987 0.37302 0.36622 0.0
C355 C 0.05967 0.34868 0.137 0.0
C356 C 0.01814 0.43671 0.57104 0.0
C357 C 0.02168 0.42203 0.51813 0.0
C358 C 0.04246 0.41547 0.34011 0.0
C359 C 0.04425 0.36366 0.24384 0.0
C360 C 0.04303 0.37934 0.2997 0.0
C361 C 0.03542 0.42491 0.46327 0.0
C362 C 0.03887 0.40919 0.40676 0.0
H363 H 0.0223 0.32149 0.19696 0.0
H364 H 0.0201 0.34781 0.28736 0.0
H365 H 0.04689 0.40603 0.23638 0.0
H366 H 0.04986 0.47151 0.51376 0.0
H367 H 0.05632 0.4456 0.4217 0.0
C368 C 0.82691 0.99133 0.12249 0.0
C369 C 0.82592 0.99426 0.19179 0.0
C370 C 0.84398 0.99231 0.08072 0.0
C371 C 0.89518 0.98795 0.08338 0.0
H372 H 0.89735 0.0149 0.91283 0.0
C373 C 0.96544 0.00283 0.92177 0.0
C374 C 0.96668 0.9999 0.85212 0.0
C375 C 0.94826 0.00231 0.96308 0.0
C376 C 0.89699 0.00709 0.95995 0.0
H377 H 0.8416 1.00059 0.27239 0.0
H378 H 0.8714 0.00251 0.19979 0.0
H379 H 0.86746 0.0137 0.9845 0.0
H380 H 0.95068 0.99406 0.77154 0.0
H381 H 0.92087 0.99293 0.84342 0.0
H382 H 0.92469 0.98129 0.05883 0.0
C383 C 0.85917 0.99921 0.17732 0.0
C384 C 0.87982 0.00641 0.00112 0.0
C385 C 0.84211 0.99826 0.21892 0.0
C386 C 0.95028 0.99645 0.8249 0.0
C387 C 0.93312 0.99593 0.86618 0.0
C388 C 0.91235 0.98862 0.04221 0.0
C389 C 0.86037 0.99617 0.10762 0.0
C390 C 0.87867 0.99685 0.06346 0.0
C391 C 0.93185 0.99885 0.93587 0.0
C392 C 0.91352 0.99821 0.9799 0.0
H393 H 0.81454 0.98812 0.10067 0.0
H394 H 0.84438 0.98965 0.02747 0.0
H395 H 0.89483 0.98014 0.13048 0.0
H396 H 0.97774 0.00557 0.94455 0.0
H397 H 0.94781 0.00489 0.01637 0.0
C398 C 0.5265 0.80117 0.07727 0.0
C399 C 0.5407 0.79941 0.11751 0.0
C400 C 0.52465 0.81877 0.03816 0.0
C401 C 0.53707 0.87379 0.0269 0.0
H402 H 0.52532 0.86904 0.84628 0.0
C403 C 0.53945 0.94394 0.8528 0.0
C404 C 0.52507 0.94681 0.81333 0.0
C405 C 0.54144 0.9256 0.88812 0.0
C406 C 0.52841 0.87066 0.8969 0.0
H407 H 0.56423 0.81402 0.14862 0.0
H408 H 0.56121 0.84468 0.07998 0.0
H409 H 0.52856 0.83761 0.9111 0.0
H410 H 0.50161 0.93249 0.77954 0.0
H411 H 0.505 0.90059 0.84168 0.0
H412 H 0.53689 0.90678 0.01301 0.0
C413 C 0.55132 0.83277 0.07894 0.0
C414 C 0.53027 0.85264 0.93405 0.0
C415 C 0.55315 0.81519 0.11786 0.0
C416 C 0.51287 0.93079 0.80938 0.0
C417 C 0.51487 0.91243 0.84474 0.0
C418 C 0.53522 0.89177 0.98984 0.0
C419 C 0.53695 0.83488 0.03899 0.0
C420 C 0.5347 0.85398 0.99943 0.0
C421 C 0.52911 0.90967 0.88493 0.0
C422 C 0.53094 0.89044 0.92428 0.0
H423 H 0.51674 0.78909 0.07666 0.0
H424 H 0.51334 0.81998 0.00846 0.0
H425 H 0.54014 0.87546 0.07755 0.0
H426 H 0.54915 0.9559 0.85678 0.0
H427 H 0.55275 0.92387 0.91772 0.0
C428 C 0.70294 0.51704 0.42257 0.0
C429 C 0.71896 0.5033 0.41327 0.0
C430 C 0.68989 0.51662 0.37767 0.0
C431 C 0.67407 0.48293 0.24744 0.0
H432 H 0.65116 0.53503 0.19401 0.0
C433 C 0.62987 0.48668 0.02974 0.0
C434 C 0.61408 0.50091 0.03578 0.0
C435 C 0.6422 0.48667 0.07722 0.0
C436 C 0.65721 0.52029 0.209 0.0
H437 H 0.73419 0.47848 0.35028 0.0
H438 H 0.71151 0.47771 0.27138 0.0
H439 H 0.6735 0.53566 0.27329 0.0
H440 H 0.59873 0.52595 0.09818 0.0
H441 H 0.62015 0.52588 0.18098 0.0
H442 H 0.65781 0.46756 0.18306 0.0
C443 C 0.70877 0.48865 0.31366 0.0
C444 C 0.67007 0.52066 0.25457 0.0
C445 C 0.72182 0.48913 0.35855 0.0
C446 C 0.61086 0.51496 0.09124 0.0
C447 C 0.62319 0.51494 0.13877 0.0
C448 C 0.66119 0.48256 0.20193 0.0
C449 C 0.69261 0.5024 0.32251 0.0
C450 C 0.67873 0.50199 0.27435 0.0
C451 C 0.63911 0.50088 0.13225 0.0
C452 C 0.6526 0.50124 0.18187 0.0
H453 H 0.7005 0.52812 0.46456 0.0
H454 H 0.67754 0.52727 0.38666 0.0
H455 H 0.68019 0.46821 0.26224 0.0
H456 H 0.63305 0.47588 0.98719 0.0
H457 H 0.65443 0.47583 0.06977 0.0
C458 C 0.0101 0.66343 0.26515 0.0
C459 C 0.99408 0.66689 0.31243 0.0
C460 C 0.01058 0.64861 0.21311 0.0
C461 C 0.9875 0.60207 0.16294 0.0
H462 H 0.01185 0.61413 0.98591 0.0
C463 C 1.00465 0.5388 0.95182 0.0
C464 C 1.00282 0.54451 0.88616 0.0
C465 C 1.00253 0.55389 0.00369 0.0
C466 C 1.00482 0.61058 0.03484 0.0
H467 H 0.96597 0.65808 0.34336 0.0
H468 H 0.96662 0.6322 0.25207 0.0
H469 H 0.01012 0.64022 0.0762 0.0
H470 H 0.99691 0.57059 0.82395 0.0
H471 H 0.99298 0.59687 0.91467 0.0
H472 H 0.98195 0.57255 0.12131 0.0
C473 C 0.97895 0.64061 0.25537 0.0
C474 C 1.00405 0.62545 0.08689 0.0
C475 C 0.97852 0.65544 0.30741 0.0
C476 C 0.99847 0.56564 0.87387 0.0
C477 C 0.99635 0.58074 0.92583 0.0
C478 C 0.98827 0.5872 0.11088 0.0
C479 C 0.99499 0.63704 0.20742 0.0
C480 C 0.99547 0.62135 0.15171 0.0
C481 C 0.9985 0.57508 0.99131 0.0
C482 C 0.99704 0.59121 0.04623 0.0
H483 H 0.02223 0.67222 0.26831 0.0
H484 H 0.02324 0.64608 0.17771 0.0
H485 H 0.98092 0.5983 0.2123 0.0
H486 H 1.008 0.52268 0.96319 0.0
H487 H 1.00451 0.54897 0.05328 0.0
C488 C 0.02666 0.25337 0.25094 0.0
C489 C 0.01927 0.24939 0.19179 0.0
C490 C 0.0201 0.24328 0.30956 0.0
C491 C 0.98506 0.20565 0.37965 0.0
H492 H 0.02786 0.17966 0.44851 0.0
C493 C 0.98036 0.12826 0.52067 0.0
C494 C 0.99533 0.11345 0.50052 0.0
C495 C 0.98158 0.14914 0.50266 0.0
C496 C 0.01573 0.18676 0.42989 0.0
H497 H 0.99781 0.23394 0.14917 0.0
H498 H 0.9868 0.21594 0.24961 0.0
H499 H 0.03151 0.21054 0.38214 0.0
H500 H 0.02323 0.10878 0.44568 0.0
H501 H 0.02522 0.14483 0.41266 0.0
H502 H 0.96974 0.18061 0.42208 0.0
C503 C 0.99751 0.22682 0.25204 0.0
C504 C 0.01773 0.20478 0.39271 0.0
C505 C 1.00398 0.23696 0.19391 0.0
C506 C 0.01157 0.11991 0.46263 0.0
C507 C 0.01274 0.14067 0.44419 0.0
C508 C 0.98313 0.18741 0.41599 0.0
C509 C 1.0061 0.22901 0.30973 0.0
C510 C 1.00264 0.21385 0.36421 0.0
C511 C 0.99775 0.15556 0.46371 0.0
C512 C 0.99868 0.17718 0.43864 0.0
H513 H 0.0384 0.26301 0.25072 0.0
H514 H 0.02674 0.24572 0.35353 0.0
H515 H 0.97301 0.21255 0.36006 0.0
H516 H 0.96776 0.12372 0.55069 0.0
H517 H 0.96985 0.16022 0.51906 0.0
C518 C 0.29985 0.0074 0.39132 0.0
C519 C 0.29118 0.99283 0.35572 0.0
C520 C 0.30948 0.001 0.44316 0.0
C521 C 0.33721 0.95452 0.47817 0.0
H522 H 0.35068 0.99187 0.61398 0.0
C523 C 0.40841 0.94448 0.57483 0.0
C524 C 0.41812 0.96263 0.56362 0.0
C525 C 0.38915 0.94509 0.57283 0.0
C526 C 0.34692 0.9811 0.57692 0.0
H527 H 0.28418 0.96063 0.34954 0.0
H528 H 0.30089 0.94931 0.44127 0.0
H529 H 0.32096 0.9984 0.57193 0.0
H530 H 0.41541 0.99577 0.54553 0.0
H531 H 0.38189 0.99696 0.5428 0.0
H532 H 0.36361 0.93787 0.48079 0.0
C533 C 0.30041 0.96566 0.42878 0.0
C534 C 0.32994 0.98485 0.55273 0.0
C535 C 0.29069 0.97214 0.37684 0.0
C536 C 0.40821 0.98155 0.5537 0.0
C537 C 0.38901 0.98225 0.55293 0.0
C538 C 0.35411 0.95067 0.50283 0.0
C539 C 0.31073 0.97982 0.46012 0.0
C540 C 0.32539 0.97231 0.50028 0.0
C541 C 0.37932 0.96398 0.56118 0.0
C542 C 0.35956 0.96459 0.54974 0.0
H543 H 0.3005 0.0234 0.37532 0.0
H544 H 0.31736 0.01235 0.46543 0.0
H545 H 0.33429 0.94458 0.43751 0.0
H546 H 0.41583 0.92974 0.58273 0.0
H547 H 0.382 0.93079 0.57915 0.0
C548 C 0.53017 0.30267 0.37385 0.0
C549 C 0.51062 0.30344 0.3862 0.0
C550 C 0.54001 0.31551 0.41107 0.0
C551 C 0.53561 0.35268 0.55704 0.0
H552 H 0.56425 0.38789 0.43309 0.0
C553 C 0.55591 0.43314 0.64096 0.0
C554 C 0.54788 0.44869 0.60409 0.0
C555 C 0.55815 0.41237 0.61682 0.0
C556 C 0.55661 0.37799 0.46852 0.0
H557 H 0.486 0.31698 0.44883 0.0
H558 H 0.5031 0.33917 0.5149 0.0
H559 H 0.55459 0.3547 0.39326 0.0
H560 H 0.53681 0.45535 0.51245 0.0
H561 H 0.54135 0.41933 0.46888 0.0
H562 H 0.53663 0.37669 0.63132 0.0
C563 C 0.51093 0.3286 0.47714 0.0
C564 C 0.55117 0.35892 0.4459 0.0
C565 C 0.50111 0.31592 0.43948 0.0
C566 C 0.54339 0.4436 0.5409 0.0
C567 C 0.54598 0.423 0.51616 0.0
C568 C 0.54122 0.37167 0.57983 0.0
C569 C 0.5304 0.32924 0.46129 0.0
C570 C 0.53992 0.3465 0.48926 0.0
C571 C 0.55265 0.40704 0.55505 0.0
C572 C 0.55107 0.38492 0.53508 0.0
H573 H 0.5377 0.29336 0.33214 0.0
H574 H 0.555 0.31563 0.39799 0.0
H575 H 0.52704 0.34336 0.59161 0.0
H576 H 0.55905 0.43673 0.69059 0.0
H577 H 0.56327 0.40034 0.6478 0.0
C578 C 0.20899 0.48675 0.24869 0.0
C579 C 0.22453 0.49585 0.2147 0.0
C580 C 0.20108 0.49417 0.31222 0.0
C581 C 0.1947 0.54366 0.40526 0.0
H582 H 0.16307 0.51054 0.5262 0.0
C583 C 0.12088 0.54811 0.60001 0.0
C584 C 0.11051 0.56041 0.55956 0.0
C585 C 0.14002 0.54362 0.58133 0.0
C586 C 0.17209 0.52021 0.49455 0.0
H587 H 0.24498 0.51867 0.2224 0.0
H588 H 0.23119 0.53163 0.33425 0.0
H589 H 0.18892 0.4934 0.45167 0.0
H590 H 0.11249 0.57955 0.47203 0.0
H591 H 0.14551 0.57098 0.43766 0.0
H592 H 0.17757 0.57042 0.44695 0.0
C593 C 0.22499 0.51891 0.31133 0.0
C594 C 0.18682 0.51028 0.45109 0.0
C595 C 0.23294 0.51141 0.24755 0.0
C596 C 0.12 0.56962 0.50341 0.0
C597 C 0.13907 0.56495 0.48434 0.0
C598 C 0.1801 0.55364 0.44936 0.0
C599 C 0.20856 0.51088 0.34329 0.0
C600 C 0.19746 0.52172 0.4029 0.0
C601 C 0.14915 0.55111 0.5214 0.0
C602 C 0.16786 0.54186 0.4913 0.0
H603 H 0.20241 0.47451 0.22481 0.0
H604 H 0.18832 0.48774 0.33477 0.0
H605 H 0.20269 0.55302 0.36912 0.0
H606 H 0.11406 0.54071 0.64364 0.0
H607 H 0.14741 0.53326 0.6118 0.0
C608 C 0.01458 0.74736 0.20254 0.0
C609 C 0.99846 0.75481 0.24536 0.0
C610 C 0.02029 0.75774 0.14371 0.0
C611 C 1.00649 0.80114 0.03604 0.0
H612 H 0.0571 0.81663 0.04061 0.0
C613 C 0.03335 0.87397 0.90344 0.0
C614 C 0.0415 0.8874 0.94516 0.0
C615 C 0.03073 0.85327 0.9207 0.0
C616 C 0.043 0.81236 0.03824 0.0
H617 H 0.97463 0.77734 0.25746 0.0
H618 H 0.98452 0.79553 0.15562 0.0
H619 H 0.0458 0.78694 0.10348 0.0
H620 H 0.05394 0.88943 0.03619 0.0
H621 H 0.04925 0.85346 0.06667 0.0
H622 H 1.00323 0.82762 0.9752 0.0
C623 C 0.99283 0.78173 0.16667 0.0
C624 C 0.03658 0.79514 0.07354 0.0
C625 C 0.9872 0.77144 0.22539 0.0
C626 C 0.04778 0.87943 0.00274 0.0
C627 C 0.04515 0.85876 0.02003 0.0
C628 C 0.0129 0.81841 0.00091 0.0
C629 C 0.00988 0.77563 0.1268 0.0
C630 C 0.01797 0.78995 0.07537 0.0
C631 C 0.03622 0.84557 0.98 0.0
C632 C 0.03095 0.82477 0.00421 0.0
H633 H 0.0235 0.73455 0.21698 0.0
H634 H 0.03337 0.75251 0.11352 0.0
H635 H 0.99217 0.79733 0.03568 0.0
H636 H 0.0287 0.87958 0.85798 0.0
H637 H 0.02404 0.84343 0.88839 0.0
C638 C 0.74868 0.99602 0.07102 0.0
C639 C 0.7475 0.0109 0.12344 0.0
C640 C 0.73822 0.99944 0.01877 0.0
C641 C 0.70506 0.03734 0.95002 0.0
H642 H 0.67403 0.99017 0.95847 0.0
C643 C 0.62709 0.04565 0.92241 0.0
C644 C 0.61863 0.02863 0.8973 0.0
C645 C 0.64594 0.04389 0.93057 0.0
C646 C 0.6827 0.00335 0.95367 0.0
H647 H 0.73629 0.04172 0.15974 0.0
H648 H 0.71817 0.04787 0.06855 0.0
H649 H 0.70364 0.98693 0.00028 0.0
H650 H 0.62371 0.99649 0.85957 0.0
H651 H 0.65657 0.99384 0.87055 0.0
H652 H 0.68367 0.05397 0.90532 0.0
C653 C 0.72714 0.03365 0.06695 0.0
C654 C 0.69979 0.00145 0.97766 0.0
C655 C 0.7375 0.03016 0.11925 0.0
C656 C 0.62969 0.01006 0.87839 0.0
C657 C 0.64857 0.00842 0.88555 0.0
C658 C 0.68797 0.03919 0.92532 0.0
C659 C 0.72646 0.01778 0.01855 0.0
C660 C 0.71087 0.01862 0.97827 0.0
C661 C 0.65687 0.02514 0.9131 0.0
C662 C 0.67628 0.02242 0.92903 0.0
H663 H 0.75619 0.98098 0.07384 0.0
H664 H 0.73812 0.98705 0.98164 0.0
H665 H 0.71338 0.05079 0.94949 0.0
H666 H 0.61915 0.06034 0.93629 0.0
H667 H 0.65174 0.05704 0.95271 0.0
C668 C 0.54336 0.69573 0.00634 0.0
C669 C 0.5314 0.70687 0.05735 0.0
C670 C 0.5363 0.68147 0.96495 0.0
C671 C 0.50029 0.64509 0.98413 0.0
H672 H 0.51913 0.62955 0.79956 0.0
C673 C 0.49898 0.5732 0.77833 0.0
C674 C 0.50517 0.55634 0.81492 0.0
C675 C 0.49796 0.59366 0.80436 0.0
C676 C 0.5135 0.63383 0.85087 0.0
H677 H 0.50272 0.71307 0.10286 0.0
H678 H 0.49026 0.68806 0.03031 0.0
H679 H 0.525 0.66384 0.84433 0.0
H680 H 0.51415 0.54767 0.90905 0.0
H681 H 0.51211 0.5834 0.95484 0.0
H682 H 0.48958 0.61471 0.99161 0.0
C683 C 0.50505 0.69041 0.02205 0.0
C684 C 0.51693 0.6534 0.87648 0.0
C685 C 0.51211 0.70487 0.06296 0.0
C686 C 0.50934 0.56029 0.87958 0.0
C687 C 0.5081 0.58074 0.90591 0.0
C688 C 0.49705 0.62545 0.95874 0.0
C689 C 0.5172 0.67789 0.97477 0.0
C690 C 0.51073 0.65903 0.9438 0.0
C691 C 0.50286 0.59767 0.86785 0.0
C692 C 0.50401 0.61943 0.89233 0.0
H693 H 0.55833 0.69679 0.00218 0.0
H694 H 0.54603 0.67193 0.9294 0.0
H695 H 0.49554 0.64887 0.03646 0.0
H696 H 0.49567 0.57075 0.7283 0.0
H697 H 0.49373 0.6064 0.77422 0.0
C698 C 0.80527 0.54746 0.3125 0.0
C699 C 0.79374 0.531 0.32874 0.0
C700 C 0.81704 0.54696 0.25157 0.0
C701 C 0.83342 0.51527 0.09489 0.0
H702 H 0.88113 0.51608 0.16041 0.0
C703 C 0.90811 0.49083 0.95015 0.0
C704 C 0.9184 0.4766 0.98516 0.0
C705 C 0.89064 0.49945 0.97945 0.0
C706 C 0.86791 0.51593 0.1413 0.0
H707 H 0.78339 0.50283 0.2907 0.0
H708 H 0.80404 0.50179 0.18502 0.0
H709 H 0.85331 0.53193 0.22818 0.0
H710 H 0.91832 0.45934 0.07605 0.0
H711 H 0.8878 0.47471 0.128 0.0
H712 H 0.84838 0.49841 0.00869 0.0
C713 C 0.80403 0.51513 0.21873 0.0
C714 C 0.852 0.5253 0.17951 0.0
C715 C 0.79219 0.5157 0.27952 0.0
C716 C 0.91058 0.47021 0.0482 0.0
C717 C 0.89325 0.47907 0.07787 0.0
C718 C 0.8495 0.50609 0.05602 0.0
C719 C 0.81753 0.52987 0.20652 0.0
C720 C 0.83448 0.5245 0.15783 0.0
C721 C 0.88343 0.49416 0.04443 0.0
C722 C 0.8667 0.50574 0.08034 0.0
H723 H 0.80644 0.55965 0.34928 0.0
H724 H 0.82705 0.55879 0.24264 0.0
H725 H 0.82008 0.51443 0.07709 0.0
H726 H 0.91393 0.49586 0.9012 0.0
H727 H 0.88327 0.51107 0.95297 0.0
C728 C 0.05855 0.21027 0.97485 0.0
C729 C 0.04699 0.22765 0.96177 0.0
C730 C 0.05884 0.19155 0.93813 0.0
C731 C 0.02703 0.16275 0.85186 0.0
H732 H 0.06947 0.12231 0.81337 0.0
C733 C 0.01923 0.07942 0.75069 0.0
C734 C 0.02898 0.0629 0.77852 0.0
C735 C 0.02282 0.10018 0.76318 0.0
C736 C 0.05746 0.13338 0.82424 0.0
H737 H 0.02743 0.23961 0.89818 0.0
H738 H 0.02806 0.20685 0.83282 0.0
H739 H 0.07425 0.1581 0.84746 0.0
H740 H 0.05035 0.05532 0.84074 0.0
H741 H 0.05635 0.09159 0.86371 0.0
H742 H 0.01015 0.138 0.83073 0.0
C743 C 0.03684 0.20765 0.87176 0.0
C744 C 0.06021 0.15392 0.84346 0.0
C745 C 0.03664 0.22647 0.90843 0.0
C746 C 0.04256 0.06765 0.8186 0.0
C747 C 0.04611 0.08846 0.83131 0.0
C748 C 0.02427 0.14224 0.83275 0.0
C749 C 0.04742 0.18975 0.88791 0.0
C750 C 0.04498 0.16877 0.85861 0.0
C751 C 0.03622 0.105 0.80399 0.0
C752 C 0.03941 0.12719 0.81977 0.0
H753 H 0.06644 0.21079 0.01648 0.0
H754 H 0.067 0.17809 0.95246 0.0
H755 H 0.01493 0.17364 0.86433 0.0
H756 H 1.00884 0.07637 0.71879 0.0
H757 H 0.01515 0.11247 0.74041 0.0
C758 C 0.31844 1.00025 0.06085 0.0
C759 C 0.31538 0.0105 0.124 0.0
C760 C 0.33553 0.0013 0.01897 0.0
C761 C 0.38468 0.00834 0.03257 0.0
H762 H 0.39107 0.01634 0.8415 0.0
C763 C 0.4576 0.01762 0.88579 0.0
C764 C 0.46182 0.0088 0.82084 0.0
C765 C 0.43933 0.01855 0.91959 0.0
C766 C 0.38957 0.0138 0.89469 0.0
H767 H 0.32723 0.0313 0.19006 0.0
H768 H 0.35686 0.03302 0.11762 0.0
H769 H 0.35962 0.01686 0.90427 0.0
H770 H 0.45001 0.99399 0.7405 0.0
H771 H 0.41832 0.99507 0.80003 0.0
H772 H 0.41439 0.00473 0.02363 0.0
C773 C 0.34629 0.02381 0.10093 0.0
C774 C 0.37151 0.01418 0.93063 0.0
C775 C 0.32928 0.02286 0.14236 0.0
C776 C 0.44726 0.00103 0.79036 0.0
C777 C 0.42901 0.00175 0.82447 0.0
C778 C 0.40266 0.00775 0.99675 0.0
C779 C 0.34986 0.01256 0.03965 0.0
C780 C 0.36888 0.01168 0.00014 0.0
C781 C 0.42478 0.01043 0.88979 0.0
C782 C 0.40543 0.01068 0.92736 0.0
H783 H 0.30804 0.99054 0.04538 0.0
H784 H 0.33787 0.99247 0.97198 0.0
H785 H 0.38314 0.00592 0.08588 0.0
H786 H 0.4684 0.02393 0.91059 0.0
H787 H 0.43663 0.02579 0.96915 0.0
C788 C 0.47308 0.33704 0.19948 0.0
C789 C 0.48251 0.31744 0.18185 0.0
C790 C 0.47258 0.35259 0.15211 0.0
C791 C 0.50265 0.37058 0.01262 0.0
H792 H 0.46055 0.40639 0.97452 0.0
C793 C 0.51444 0.4354 0.82511 0.0
C794 C 0.50377 0.45444 0.83722 0.0
C795 C 0.50967 0.41795 0.862 0.0
C796 C 0.47249 0.39672 0.98523 0.0
H797 H 0.49802 0.29836 0.10053 0.0
H798 H 0.49745 0.32571 0.01788 0.0
H799 H 0.4553 0.37683 0.04826 0.0
H800 H 0.47947 0.47025 0.89581 0.0
H801 H 0.47158 0.43996 0.96385 0.0
H802 H 0.52005 0.39076 0.95392 0.0
C803 C 0.49031 0.32892 0.06816 0.0
C804 C 0.46943 0.37971 0.02698 0.0
C805 C 0.49054 0.31327 0.11522 0.0
C806 C 0.4879 0.45567 0.88586 0.0
C807 C 0.48336 0.43825 0.92438 0.0
C808 C 0.50575 0.38773 0.97226 0.0
C809 C 0.48178 0.34889 0.08668 0.0
C810 C 0.48451 0.36642 0.04055 0.0
C811 C 0.49441 0.41923 0.91364 0.0
C812 C 0.49074 0.401 0.95736 0.0
H813 H 0.46678 0.3406 0.25061 0.0
H814 H 0.46602 0.36789 0.16767 0.0
H815 H 0.51455 0.36086 0.02362 0.0
H816 H 0.52654 0.434 0.78674 0.0
H817 H 0.51813 0.40348 0.85018 0.0
C818 C 0.20687 0.47235 0.93651 0.0
C819 C 0.20793 0.48799 0.98532 0.0
C820 C 0.1915 0.47247 0.9011 0.0
C821 C 0.15055 0.50672 0.86336 0.0
H822 H 0.12889 0.45416 0.83508 0.0
C823 C 0.08287 0.50471 0.74431 0.0
C824 C 0.06971 0.49062 0.76956 0.0
C825 C 0.10091 0.5034 0.76167 0.0
C826 C 0.13464 0.46902 0.84299 0.0
H827 H 0.19419 0.51666 0.03221 0.0
H828 H 0.16752 0.51667 0.97242 0.0
H829 H 0.15818 0.45429 0.88104 0.0
H830 H 0.06542 0.46383 0.83215 0.0
H831 H 0.09663 0.46193 0.86434 0.0
H832 H 0.12666 0.52161 0.82895 0.0
C833 C 0.17846 0.50433 0.96056 0.0
C834 C 0.15167 0.46906 0.86846 0.0
C835 C 0.19373 0.50421 0.9956 0.0
C836 C 0.07521 0.47489 0.81155 0.0
C837 C 0.09322 0.47374 0.8297 0.0
C838 C 0.1335 0.5067 0.8385 0.0
C839 C 0.17691 0.48832 0.91345 0.0
C840 C 0.15974 0.48796 0.88005 0.0
C841 C 0.1063 0.48814 0.80568 0.0
C842 C 0.12512 0.48788 0.82861 0.0
H843 H 0.21754 0.45961 0.92749 0.0
H844 H 0.19096 0.46003 0.86458 0.0
H845 H 0.15641 0.52159 0.87032 0.0
H846 H 0.07922 0.51688 0.71113 0.0
H847 H 0.11061 0.51446 0.74063 0.0
C848 C 0.97494 0.78693 0.50053 0.0
C849 C 0.99092 0.77323 0.48591 0.0
C850 C 0.97571 0.80591 0.53494 0.0
C851 C 0.98531 0.85058 0.55149 0.0
H852 H 0.0178 0.86067 0.6836 0.0
C853 C 1.00756 0.93323 0.60522 0.0
C854 C 1.00907 0.93898 0.67154 0.0
C855 C 1.00462 0.91258 0.58804 0.0
C856 C 1.0085 0.85815 0.64721 0.0
H857 H 0.02001 0.76806 0.4973 0.0
H858 H 0.02156 0.80132 0.55678 0.0
H859 H 0.01291 0.82484 0.65091 0.0
H860 H 1.00862 0.92739 0.77191 0.0
H861 H 1.00319 0.89159 0.74217 0.0
H862 H 0.98066 0.88378 0.54836 0.0
C863 C 1.00827 0.79733 0.5433 0.0
C864 C 1.00584 0.83757 0.62797 0.0
C865 C 1.00742 0.77823 0.50942 0.0
C866 C 1.00758 0.92356 0.72024 0.0
C867 C 1.00457 0.90293 0.70312 0.0
C868 C 0.98791 0.8711 0.57089 0.0
C869 C 0.9926 0.81177 0.55426 0.0
C870 C 0.99434 0.83351 0.57935 0.0
C871 C 1.00301 0.89716 0.63679 0.0
C872 C 0.99971 0.8752 0.61837 0.0
H873 H 0.96214 0.78346 0.48199 0.0
H874 H 0.96325 0.8164 0.54379 0.0
H875 H 0.9766 0.84817 0.51311 0.0
H876 H 1.00876 0.94464 0.56634 0.0
H877 H 1.00384 0.90866 0.53623 0.0
C878 C 0.71063 0.97642 0.33335 0.0
C879 C 0.72379 0.9899 0.35104 0.0
C880 C 0.69335 0.97541 0.37327 0.0
C881 C 0.65998 0.00842 0.48949 0.0
H882 H 0.634 0.95764 0.51808 0.0
C883 C 0.58619 0.00985 0.64031 0.0
C884 C 0.57329 0.99655 0.61938 0.0
C885 C 0.60495 0.00798 0.61199 0.0
C886 C 0.64095 0.97201 0.50989 0.0
H887 H 0.72951 0.01229 0.42564 0.0
H888 H 0.69918 0.01057 0.49605 0.0
H889 H 0.66645 0.9556 0.46455 0.0
H890 H 0.5702 0.97084 0.55148 0.0
H891 H 0.60291 0.96796 0.50037 0.0
H892 H 0.63448 0.02495 0.53273 0.0
C893 C 0.70225 0.0008 0.45102 0.0
C894 C 0.65961 0.97082 0.47952 0.0
C895 C 0.71968 0.00164 0.41126 0.0
C896 C 0.57972 0.98133 0.56895 0.0
C897 C 0.59854 0.97958 0.54002 0.0
C898 C 0.64131 0.00964 0.51936 0.0
C899 C 0.68871 0.98804 0.4316 0.0
C900 C 0.66934 0.98902 0.46864 0.0
C901 C 0.61143 0.99293 0.5611 0.0
C902 C 0.63147 0.99147 0.52981 0.0
H903 H 0.71344 0.96728 0.28694 0.0
H904 H 0.68326 0.96555 0.35644 0.0
H905 H 0.6669 0.02279 0.4807 0.0
H906 H 0.58186 0.02178 0.67902 0.0
H907 H 0.61442 0.0183 0.63063 0.0
C908 C 0.54755 0.69275 0.33166 0.0
C909 C 0.55689 0.69244 0.26591 0.0
C910 C 0.54954 0.67549 0.37201 0.0
C911 C 0.56014 0.61866 0.35203 0.0
H912 H 0.55685 0.62105 0.54501 0.0
C913 C 0.55803 0.55983 0.59039 0.0
C914 C 0.5447 0.54636 0.57375 0.0
C915 C 0.56232 0.57723 0.55197 0.0
C916 C 0.55802 0.62007 0.49104 0.0
H917 H 0.57683 0.67477 0.19264 0.0
H918 H 0.58071 0.6449 0.26343 0.0
H919 H 0.56042 0.65309 0.48255 0.0
H920 H 0.52591 0.54034 0.5021 0.0
H921 H 0.53333 0.57065 0.43546 0.0
H922 H 0.5577 0.58571 0.36035 0.0
C923 C 0.57142 0.65813 0.28335 0.0
C924 C 0.55987 0.63848 0.45533 0.0
C925 C 0.56933 0.67529 0.243 0.0
C926 C 0.53627 0.55031 0.51641 0.0
C927 C 0.54059 0.56768 0.47795 0.0
C928 C 0.55828 0.60031 0.38766 0.0
C929 C 0.561 0.65767 0.34737 0.0
C930 C 0.56072 0.63803 0.38543 0.0
C931 C 0.55344 0.58154 0.49587 0.0
C932 C 0.55692 0.60082 0.45766 0.0
H933 H 0.53775 0.70571 0.35026 0.0
H934 H 0.54122 0.67563 0.4209 0.0
H935 H 0.56048 0.61773 0.29834 0.0
H936 H 0.56485 0.55729 0.63413 0.0
H937 H 0.57248 0.58743 0.56656 0.0
C938 C 0.81835 0.49681 0.56299 0.0
C939 C 0.81012 0.51666 0.55233 0.0
C940 C 0.83542 0.49481 0.58824 0.0
C941 C 0.86858 0.52296 0.67538 0.0
H942 H 0.9066 0.48637 0.56889 0.0
C943 C 0.94362 0.50633 0.7428 0.0
C944 C 0.95843 0.50722 0.68997 0.0
C945 C 0.92504 0.50718 0.73045 0.0
C946 C 0.89615 0.49666 0.59913 0.0
H947 H 0.81287 0.54994 0.56206 0.0
H948 H 0.84228 0.54653 0.60837 0.0
H949 H 0.87454 0.4879 0.544 0.0
H950 H 0.96517 0.50962 0.5826 0.0
H951 H 0.9328 0.51081 0.56108 0.0
H952 H 0.89027 0.53179 0.7303 0.0
C953 C 0.83563 0.53248 0.59719 0.0
C954 C 0.87773 0.49738 0.58533 0.0
C955 C 0.81875 0.53446 0.57093 0.0
C956 C 0.95415 0.50898 0.62452 0.0
C957 C 0.93559 0.50951 0.6121 0.0
C958 C 0.88697 0.522 0.6899 0.0
C959 C 0.84449 0.51264 0.60416 0.0
C960 C 0.86373 0.51071 0.62277 0.0
C961 C 0.92079 0.5086 0.66488 0.0
C962 C 0.90104 0.50904 0.65137 0.0
H963 H 0.81218 0.48285 0.54785 0.0
H964 H 0.84181 0.47931 0.59345 0.0
H965 H 0.85814 0.53336 0.70526 0.0
H966 H 0.94636 0.50494 0.79388 0.0
H967 H 0.91401 0.50631 0.77218 0.0
loop_
_geom_bond_atom_site_label_1
_geom_bond_atom_site_label_2
_geom_bond_distance
_geom_bond_site_symmetry_2
_ccdc_geom_bond_type
H0 C3 0.929 . S
H1 C6 0.929 . S
H2 C8 0.930 . S
C3 H0 0.929 . S
C3 C4 1.398 . S
C3 C5 1.396 . S
C4 C3 1.398 . S
C4 C8 1.407 . S
C5 C3 1.396 . S
C5 C6 1.394 . S
C6 H1 0.929 . S
C6 C5 1.394 . S
C6 C7 1.382 . S
C7 C6 1.382 . S
C7 C8 1.392 . S
C7 N9 1.420 . S
C8 H2 0.930 . S
C8 C4 1.407 . S
C8 C7 1.392 . S
N9 C7 1.420 . S
N9 C10 1.244 . S
C10 N9 1.244 . S
H11 C14 0.929 . S
H12 C17 0.929 . S
H13 C19 0.930 . S
C14 H11 0.929 . S
C14 C15 1.398 . S
C14 C16 1.396 . S
C15 C14 1.398 . S
C15 C19 1.407 . S
C16 C14 1.396 . S
C16 C17 1.394 . S
C17 H12 0.929 . S
C17 C16 1.394 . S
C17 C18 1.382 . S
C18 C17 1.382 . S
C18 C19 1.392 . S
C18 N20 1.420 1_655 S
C19 H13 0.930 . S
C19 C15 1.407 . S
C19 C18 1.392 . S
N20 C18 1.420 1_455 S
N20 C21 1.244 1_455 S
C21 N20 1.244 1_655 S
H22 C25 0.929 . S
H23 C28 0.929 . S
H24 C30 0.930 . S
C25 H22 0.929 . S
C25 C26 1.398 . S
C25 C27 1.396 . S
C26 C25 1.398 . S
C26 C30 1.407 1_565 S
C27 C25 1.396 . S
C27 C28 1.394 1_565 S
C28 H23 0.929 . S
C28 C27 1.394 1_545 S
C28 C29 1.382 . S
C29 C28 1.382 . S
C29 C30 1.392 . S
C29 N31 1.420 . S
C30 H24 0.930 . S
C30 C26 1.407 1_545 S
C30 C29 1.392 . S
N31 C29 1.420 . S
N31 C32 1.244 1_545 S
C32 N31 1.244 1_565 S
H33 C36 0.929 . S
H34 C39 0.929 . S
H35 C41 0.930 . S
C36 H33 0.929 . S
C36 C37 1.398 . S
C36 C38 1.396 . S
C37 C36 1.398 . S
C37 C41 1.407 . S
C38 C36 1.396 . S
C38 C39 1.394 . S
C39 H34 0.929 . S
C39 C38 1.394 . S
C39 C40 1.382 . S
C40 C39 1.382 . S
C40 C41 1.392 . S
C40 N42 1.420 . S
C41 H35 0.930 . S
C41 C37 1.407 . S
C41 C40 1.392 . S
N42 C40 1.420 . S
N42 C43 1.244 . S
C43 N42 1.244 . S
H44 C47 0.929 . S
H45 C50 0.929 . S
H46 C52 0.930 . S
C47 H44 0.929 . S
C47 C48 1.398 . S
C47 C49 1.396 1_556 S
C48 C47 1.398 . S
C48 C52 1.407 . S
C49 C47 1.396 1_554 S
C49 C50 1.394 . S
C50 H45 0.929 . S
C50 C49 1.394 . S
C50 C51 1.382 1_554 S
C51 C50 1.382 1_556 S
C51 C52 1.392 . S
C51 N53 1.420 . S
C52 H46 0.930 . S
C52 C48 1.407 . S
C52 C51 1.392 . S
N53 C51 1.420 . S
N53 C54 1.244 1_556 S
C54 N53 1.244 1_554 S
H55 C58 0.929 . S
H56 C61 0.929 . S
H57 C63 0.930 . S
C58 H55 0.929 . S
C58 C59 1.398 . S
C58 C60 1.396 . S
C59 C58 1.398 . S
C59 C63 1.407 . S
C60 C58 1.396 . S
C60 C61 1.394 . S
C61 H56 0.929 . S
C61 C60 1.394 . S
C61 C62 1.382 . S
C62 C61 1.382 . S
C62 C63 1.392 . S
C62 N64 1.420 . S
C63 H57 0.930 . S
C63 C59 1.407 . S
C63 C62 1.392 . S
N64 C62 1.420 . S
N64 C65 1.244 . S
C65 N64 1.244 . S
H66 C69 0.937 . S
H67 C72 0.929 . S
H68 C74 0.930 . S
C69 H66 0.937 . S
C69 C70 1.398 . S
C69 C71 1.396 . S
C70 C69 1.398 . S
C70 C74 1.407 . S
C71 C69 1.396 . S
C71 C72 1.394 . S
C72 H67 0.929 . S
C72 C71 1.394 . S
C72 C73 1.382 . S
C73 C72 1.382 . S
C73 C74 1.392 . S
C73 N75 1.420 . S
C74 H68 0.930 . S
C74 C70 1.407 . S
C74 C73 1.392 . S
N75 C73 1.420 . S
N75 C76 1.244 . S
C76 N75 1.244 . S
H77 C80 0.929 . S
H78 C83 0.929 . S
H79 C85 0.930 . S
C80 H77 0.929 . S
C80 C81 1.398 . S
C80 C82 1.396 . S
C81 C80 1.398 . S
C81 C85 1.407 . S
C82 C80 1.396 . S
C82 C83 1.394 . S
C83 H78 0.929 . S
C83 C82 1.394 . S
C83 C84 1.382 . S
C84 C83 1.382 . S
C84 C85 1.392 . S
C84 N86 1.420 . S
C85 H79 0.930 . S
C85 C81 1.407 . S
C85 C84 1.392 . S
N86 C84 1.420 . S
N86 C87 1.244 . S
C87 N86 1.244 . S
Dy88 O91 2.307 1_545 S
Dy88 O93 2.395 1_655 S
Dy88 O94 2.379 . S
Dy88 O96 2.339 . S
Dy88 O98 2.298 1_655 S
Dy88 O102 2.275 1_655 S
Dy88 C110 2.738 . S
Dy89 O92 2.298 . S
Dy89 O95 2.275 1_455 S
Dy89 O97 2.307 1_565 S
Dy89 O99 2.395 . S
Dy89 O100 2.379 . S
Dy89 O103 2.339 . S
Dy89 C119 2.738 . S
C90 O102 1.254 1_565 S
C90 O103 1.257 . S
O91 Dy88 2.307 1_565 S
O91 C101 1.266 1_655 S
O92 Dy89 2.298 . S
O92 C101 1.236 . S
O93 Dy88 2.395 1_455 S
O93 C110 1.255 1_455 S
O94 Dy88 2.379 . S
O94 C110 1.249 . S
O95 Dy89 2.275 1_655 S
O95 C111 1.254 1_565 S
O96 Dy88 2.339 . S
O96 C111 1.257 . S
O97 Dy89 2.307 1_545 S
O97 C112 1.266 . S
O98 Dy88 2.298 1_455 S
O98 C112 1.236 . S
O99 Dy89 2.395 . S
O99 C119 1.255 . S
O100 Dy89 2.379 . S
O100 C119 1.249 . S
C101 O91 1.266 1_455 S
C101 O92 1.236 . S
O102 Dy88 2.275 1_455 S
O102 C90 1.254 1_545 S
O103 Dy89 2.339 . S
O103 C90 1.257 . S
C104 C107 1.344 1_655 S
C104 C108 1.328 . S
C104 C110 1.516 . S
C105 C106 1.280 1_655 S
C105 C109 1.348 . S
C106 C105 1.280 1_455 S
C106 C107 1.371 . S
C106 H120 0.930 . S
C107 C104 1.344 1_455 S
C107 C106 1.371 . S
C107 H121 0.931 . S
C108 C104 1.328 . S
C108 C109 1.433 . S
C108 H122 0.931 . S
C109 C105 1.348 . S
C109 C108 1.433 . S
C109 H123 0.933 . S
C110 Dy88 2.738 . S
C110 O93 1.255 1_655 S
C110 O94 1.249 . S
C110 C104 1.516 . S
C111 O95 1.254 1_545 S
C111 O96 1.257 . S
C112 O97 1.266 . S
C112 O98 1.236 . S
C113 C116 1.344 . S
C113 C117 1.328 . S
C113 C119 1.516 . S
C114 C115 1.304 . S
C114 C118 1.323 . S
C115 C114 1.304 . S
C115 C116 1.371 . S
C115 H124 0.930 1_455 S
C116 C113 1.344 . S
C116 C115 1.371 . S
C116 H125 0.931 1_455 S
C117 C113 1.328 . S
C117 C118 1.433 . S
C117 H126 0.931 . S
C118 C114 1.323 . S
C118 C117 1.433 . S
C118 H127 0.933 . S
C119 Dy89 2.738 . S
C119 O99 1.255 . S
C119 O100 1.249 . S
C119 C113 1.516 . S
H120 C106 0.930 . S
H121 C107 0.931 . S
H122 C108 0.931 . S
H123 C109 0.933 . S
H124 C115 0.930 1_655 S
H125 C116 0.931 1_655 S
H126 C117 0.931 . S
H127 C118 0.933 . S
Dy128 O131 2.307 . S
Dy128 O133 2.395 1_565 S
Dy128 O134 2.379 . S
Dy128 O136 2.339 . S
Dy128 O138 2.298 . S
Dy128 O142 2.275 1_565 S
Dy128 C150 2.738 . S
Dy129 O132 2.298 . S
Dy129 O135 2.275 1_545 S
Dy129 O137 2.307 . S
Dy129 O139 2.395 1_545 S
Dy129 O140 2.379 . S
Dy129 O143 2.339 . S
Dy129 C159 2.738 . S
C130 O142 1.254 . S
C130 O143 1.257 . S
O131 Dy128 2.307 . S
O131 C141 1.266 . S
O132 Dy129 2.298 . S
O132 C141 1.236 1_545 S
O133 Dy128 2.395 1_545 S
O133 C150 1.255 1_545 S
O134 Dy128 2.379 . S
O134 C150 1.249 . S
O135 Dy129 2.275 1_565 S
O135 C151 1.254 . S
O136 Dy128 2.339 . S
O136 C151 1.257 . S
O137 Dy129 2.307 . S
O137 C152 1.266 . S
O138 Dy128 2.298 . S
O138 C152 1.236 1_565 S
O139 Dy129 2.395 1_565 S
O139 C159 1.255 1_565 S
O140 Dy129 2.379 . S
O140 C159 1.249 . S
C141 O131 1.266 . S
C141 O132 1.236 1_565 S
O142 Dy128 2.275 1_545 S
O142 C130 1.254 . S
O143 Dy129 2.339 . S
O143 C130 1.257 . S
C144 C147 1.344 1_565 S
C144 C148 1.328 . S
C144 C150 1.516 . S
C145 C146 1.304 1_565 S
C145 C149 1.323 . S
C146 C145 1.304 1_545 S
C146 C147 1.371 . S
C146 H160 0.930 . S
C147 C144 1.344 1_545 S
C147 C146 1.371 . S
C147 H161 0.931 . S
C148 C144 1.328 . S
C148 C149 1.433 . S
C148 H162 0.931 . S
C149 C145 1.323 . S
C149 C148 1.433 . S
C149 H163 0.933 . S
C150 Dy128 2.738 . S
C150 O133 1.255 1_565 S
C150 O134 1.249 . S
C150 C144 1.516 . S
C151 O135 1.254 . S
C151 O136 1.257 . S
C152 O137 1.266 . S
C152 O138 1.236 1_545 S
C153 C156 1.344 1_545 S
C153 C157 1.328 . S
C153 C159 1.516 . S
C154 C155 1.304 1_545 S
C154 C158 1.323 . S
C155 C154 1.304 1_565 S
C155 C156 1.371 . S
C155 H164 0.930 . S
C156 C153 1.344 1_565 S
C156 C155 1.371 . S
C156 H165 0.931 . S
C157 C153 1.328 . S
C157 C158 1.433 . S
C157 H166 0.931 . S
C158 C154 1.323 . S
C158 C157 1.433 . S
C158 H167 0.933 . S
C159 Dy129 2.738 . S
C159 O139 1.255 1_545 S
C159 O140 1.249 . S
C159 C153 1.516 . S
H160 C146 0.930 . S
H161 C147 0.931 . S
H162 C148 0.931 . S
H163 C149 0.933 . S
H164 C155 0.930 . S
H165 C156 0.931 . S
H166 C157 0.931 . S
H167 C158 0.933 . S
Dy168 O171 2.307 . S
Dy168 O173 2.395 . S
Dy168 O174 2.379 . S
Dy168 O176 2.339 . S
Dy168 O178 2.298 . S
Dy168 O182 2.275 . S
Dy168 C190 2.738 . S
Dy169 O172 2.298 . S
Dy169 O175 2.275 . S
Dy169 O177 2.307 . S
Dy169 O179 2.395 . S
Dy169 O180 2.379 . S
Dy169 O183 2.339 . S
Dy169 C199 2.738 . S
C170 O182 1.254 . S
C170 O183 1.257 . S
O171 Dy168 2.307 . S
O171 C181 1.266 . S
O172 Dy169 2.298 . S
O172 C181 1.236 . S
O173 Dy168 2.395 . S
O173 C190 1.255 . S
O174 Dy168 2.379 . S
O174 C190 1.249 . S
O175 Dy169 2.275 . S
O175 C191 1.254 . S
O176 Dy168 2.339 . S
O176 C191 1.257 . S
O177 Dy169 2.307 . S
O177 C192 1.266 . S
O178 Dy168 2.298 . S
O178 C192 1.236 . S
O179 Dy169 2.395 . S
O179 C199 1.255 . S
O180 Dy169 2.379 . S
O180 C199 1.249 . S
C181 O171 1.266 . S
C181 O172 1.236 . S
O182 Dy168 2.275 . S
O182 C170 1.254 . S
O183 Dy169 2.339 . S
O183 C170 1.257 . S
C184 C187 1.344 . S
C184 C188 1.328 . S
C184 C190 1.516 . S
C185 C186 1.304 . S
C185 C189 1.323 . S
C186 C185 1.304 . S
C186 C187 1.371 . S
C186 H200 0.930 . S
C187 C184 1.344 . S
C187 C186 1.371 . S
C187 H201 0.931 . S
C188 C184 1.328 . S
C188 C189 1.433 . S
C188 H202 0.931 . S
C189 C185 1.323 . S
C189 C188 1.433 . S
C189 H203 0.933 . S
C190 Dy168 2.738 . S
C190 O173 1.255 . S
C190 O174 1.249 . S
C190 C184 1.516 . S
C191 O175 1.254 . S
C191 O176 1.257 . S
C192 O177 1.266 . S
C192 O178 1.236 . S
C193 C196 1.344 . S
C193 C197 1.328 . S
C193 C199 1.516 . S
C194 C195 1.304 . S
C194 C198 1.323 . S
C195 C194 1.304 . S
C195 C196 1.371 . S
C195 H204 0.930 . S
C196 C193 1.344 . S
C196 C195 1.371 . S
C196 H205 0.931 . S
C197 C193 1.328 . S
C197 C198 1.433 . S
C197 H206 0.931 . S
C198 C194 1.323 . S
C198 C197 1.433 . S
C198 H207 0.933 . S
C199 Dy169 2.738 . S
C199 O179 1.255 . S
C199 O180 1.249 . S
C199 C193 1.516 . S
H200 C186 0.930 . S
H201 C187 0.931 . S
H202 C188 0.931 . S
H203 C189 0.933 . S
H204 C195 0.930 . S
H205 C196 0.931 . S
H206 C197 0.931 . S
H207 C198 0.933 . S
Dy208 O211 2.307 1_455 S
Dy208 O213 2.395 . S
Dy208 O214 2.379 . S
Dy208 O216 2.339 . S
Dy208 O218 2.298 . S
Dy208 O222 2.275 . S
Dy208 C230 2.738 . S
Dy209 O212 2.298 . S
Dy209 O215 2.275 1_655 S
Dy209 O217 2.307 1_655 S
Dy209 O219 2.395 . S
Dy209 O220 2.379 . S
Dy209 O223 2.339 . S
Dy209 C239 2.738 . S
C210 O222 1.254 . S
C210 O223 1.257 1_455 S
O211 Dy208 2.307 1_655 S
O211 C221 1.266 . S
O212 Dy209 2.298 . S
O212 C221 1.236 . S
O213 Dy208 2.395 . S
O213 C230 1.255 . S
O214 Dy208 2.379 . S
O214 C230 1.249 . S
O215 Dy209 2.275 1_455 S
O215 C231 1.254 . S
O216 Dy208 2.339 . S
O216 C231 1.257 . S
O217 Dy209 2.307 1_455 S
O217 C232 1.266 . S
O218 Dy208 2.298 . S
O218 C232 1.236 . S
O219 Dy209 2.395 . S
O219 C239 1.255 . S
O220 Dy209 2.379 . S
O220 C239 1.249 . S
C221 O211 1.266 . S
C221 O212 1.236 . S
O222 Dy208 2.275 . S
O222 C210 1.254 . S
O223 Dy209 2.339 . S
O223 C210 1.257 1_655 S
C224 C227 1.344 . S
C224 C228 1.328 . S
C224 C230 1.516 . S
C225 C226 1.304 . S
C225 C229 1.323 . S
C226 C225 1.304 . S
C226 C227 1.371 . S
C226 H240 0.930 . S
C227 C224 1.344 . S
C227 C226 1.371 . S
C227 H241 0.931 . S
C228 C224 1.328 . S
C228 C229 1.433 . S
C228 H242 0.931 . S
C229 C225 1.323 . S
C229 C228 1.433 . S
C229 H243 0.933 . S
C230 Dy208 2.738 . S
C230 O213 1.255 . S
C230 O214 1.249 . S
C230 C224 1.516 . S
C231 O215 1.254 . S
C231 O216 1.257 . S
C232 O217 1.266 . S
C232 O218 1.236 . S
C233 C236 1.344 . S
C233 C237 1.328 . S
C233 C239 1.516 . S
C234 C235 1.302 1_554 S
C234 C238 1.323 1_554 S
C235 C234 1.302 1_556 S
C235 C236 1.376 . S
C235 H244 0.927 1_556 S
C236 C233 1.344 . S
C236 C235 1.376 . S
C236 H245 0.931 . S
C237 C233 1.328 . S
C237 C238 1.433 . S
C237 H246 0.931 . S
C238 C234 1.323 1_556 S
C238 C237 1.433 . S
C238 H247 0.933 1_556 S
C239 Dy209 2.738 . S
C239 O219 1.255 . S
C239 O220 1.249 . S
C239 C233 1.516 . S
H240 C226 0.930 . S
H241 C227 0.931 . S
H242 C228 0.931 . S
H243 C229 0.933 . S
H244 C235 0.927 1_554 S
H245 C236 0.931 . S
H246 C237 0.931 . S
H247 C238 0.933 1_554 S
C248 C249 1.349 1_565 S
C248 C250 1.327 . S
C248 H273 0.950 . S
C249 C248 1.349 1_545 S
C249 C265 1.349 . S
C250 C248 1.327 . S
C250 C269 1.429 1_565 S
C250 H274 0.950 . S
C251 C268 1.574 . S
C251 C270 1.368 . S
C251 H275 0.949 . S
H252 C256 0.949 . S
C253 C254 1.349 . S
C253 C255 1.327 . S
C253 H276 0.950 . S
C254 C253 1.349 . S
C254 C266 1.349 1_545 S
C255 C253 1.327 . S
C255 C271 1.429 . S
C255 H277 0.950 . S
C256 H252 0.949 . S
C256 C264 1.574 . S
C256 C272 1.368 1_565 S
H257 C265 0.950 . S
H258 C263 0.950 . S
H259 C264 0.949 . S
H260 C266 0.950 . S
H261 C267 0.950 . S
H262 C268 0.949 . S
C263 H258 0.950 . S
C263 C265 1.327 . S
C263 C269 1.429 . S
C264 C256 1.574 . S
C264 H259 0.949 . S
C264 C270 1.368 1_565 S
C265 C249 1.349 . S
C265 H257 0.950 . S
C265 C263 1.327 . S
C266 C254 1.349 1_565 S
C266 H260 0.950 . S
C266 C267 1.327 . S
C267 H261 0.950 . S
C267 C266 1.327 . S
C267 C271 1.429 1_565 S
C268 C251 1.574 . S
C268 H262 0.949 . S
C268 C272 1.368 . S
C269 C250 1.429 1_545 S
C269 C263 1.429 . S
C269 C270 1.523 . S
C270 C251 1.368 . S
C270 C264 1.368 1_545 S
C270 C269 1.523 . S
C271 C255 1.429 . S
C271 C267 1.429 1_545 S
C271 C272 1.523 . S
C272 C256 1.368 1_545 S
C272 C268 1.368 . S
C272 C271 1.523 . S
H273 C248 0.950 . S
H274 C250 0.950 . S
H275 C251 0.949 . S
H276 C253 0.950 . S
H277 C255 0.950 . S
C278 C279 1.349 . S
C278 C280 1.327 . S
C278 H303 0.950 . S
C279 C278 1.349 . S
C279 C295 1.349 . S
C280 C278 1.327 . S
C280 C299 1.429 . S
C280 H304 0.950 . S
C281 C298 1.574 . S
C281 C300 1.368 . S
C281 H305 0.949 . S
H282 C286 0.949 . S
C283 C284 1.349 . S
C283 C285 1.327 . S
C283 H306 0.950 . S
C284 C283 1.349 . S
C284 C296 1.349 . S
C285 C283 1.327 . S
C285 C301 1.429 . S
C285 H307 0.950 . S
C286 H282 0.949 . S
C286 C294 1.574 . S
C286 C302 1.368 . S
H287 C295 0.950 . S
H288 C293 0.950 . S
H289 C294 0.949 . S
H290 C296 0.950 . S
H291 C297 0.950 . S
H292 C298 0.949 . S
C293 H288 0.950 . S
C293 C295 1.327 . S
C293 C299 1.429 . S
C294 C286 1.574 . S
C294 H289 0.949 . S
C294 C300 1.368 . S
C295 C279 1.349 . S
C295 H287 0.950 . S
C295 C293 1.327 . S
C296 C284 1.349 . S
C296 H290 0.950 . S
C296 C297 1.327 . S
C297 H291 0.950 . S
C297 C296 1.327 . S
C297 C301 1.429 . S
C298 C281 1.574 . S
C298 H292 0.949 . S
C298 C302 1.368 . S
C299 C280 1.429 . S
C299 C293 1.429 . S
C299 C300 1.523 . S
C300 C281 1.368 . S
C300 C294 1.368 . S
C300 C299 1.523 . S
C301 C285 1.429 . S
C301 C297 1.429 . S
C301 C302 1.523 . S
C302 C286 1.368 . S
C302 C298 1.368 . S
C302 C301 1.523 . S
H303 C278 0.950 . S
H304 C280 0.950 . S
H305 C281 0.949 . S
H306 C283 0.950 . S
H307 C285 0.950 . S
C308 C309 1.349 . S
C308 C310 1.327 . S
C308 H333 0.950 . S
C309 C308 1.349 . S
C309 C325 1.349 . S
C310 C308 1.327 . S
C310 C329 1.429 . S
C310 H334 0.950 . S
C311 C328 1.574 . S
C311 C330 1.368 . S
C311 H335 0.949 . S
H312 C316 0.949 . S
C313 C314 1.349 . S
C313 C315 1.327 . S
C313 H336 0.950 . S
C314 C313 1.349 . S
C314 C326 1.349 . S
C315 C313 1.327 . S
C315 C331 1.429 . S
C315 H337 0.950 . S
C316 H312 0.949 . S
C316 C324 1.574 . S
C316 C332 1.368 . S
H317 C325 0.950 . S
H318 C323 0.950 . S
H319 C324 0.949 . S
H320 C326 0.950 . S
H321 C327 0.950 . S
H322 C328 0.949 . S
C323 H318 0.950 . S
C323 C325 1.327 . S
C323 C329 1.429 . S
C324 C316 1.574 . S
C324 H319 0.949 . S
C324 C330 1.368 . S
C325 C309 1.349 . S
C325 H317 0.950 . S
C325 C323 1.327 . S
C326 C314 1.349 . S
C326 H320 0.950 . S
C326 C327 1.327 . S
C327 H321 0.950 . S
C327 C326 1.327 . S
C327 C331 1.429 . S
C328 C311 1.574 . S
C328 H322 0.949 . S
C328 C332 1.368 . S
C329 C310 1.429 . S
C329 C323 1.429 . S
C329 C330 1.523 . S
C330 C311 1.368 . S
C330 C324 1.368 . S
C330 C329 1.523 . S
C331 C315 1.429 . S
C331 C327 1.429 . S
C331 C332 1.523 . S
C332 C316 1.368 . S
C332 C328 1.368 . S
C332 C331 1.523 . S
H333 C308 0.950 . S
H334 C310 0.950 . S
H335 C311 0.949 . S
H336 C313 0.950 . S
H337 C315 0.950 . S
C338 C339 1.349 . S
C338 C340 1.327 . S
C338 H363 0.935 1_455 S
C339 C338 1.349 . S
C339 C355 1.349 . S
C340 C338 1.327 . S
C340 C359 1.429 . S
C340 H364 0.950 1_455 S
C341 C358 1.574 . S
C341 C360 1.368 . S
C341 H365 0.949 . S
H342 C346 0.949 1_655 S
C343 C344 1.349 . S
C343 C345 1.327 . S
C343 H366 0.950 . S
C344 C343 1.349 . S
C344 C356 1.330 1_455 S
C345 C343 1.327 . S
C345 C361 1.429 . S
C345 H367 0.950 . S
C346 H342 0.949 1_455 S
C346 C354 1.574 . S
C346 C362 1.368 . S
H347 C355 0.950 . S
H348 C353 0.950 . S
H349 C354 0.949 1_655 S
H350 C356 0.966 . S
H351 C357 0.936 1_655 S
H352 C358 0.949 . S
C353 H348 0.950 . S
C353 C355 1.327 . S
C353 C359 1.429 . S
C354 C346 1.574 . S
C354 H349 0.949 1_455 S
C354 C360 1.368 . S
C355 C339 1.349 . S
C355 H347 0.950 . S
C355 C353 1.327 . S
C356 C344 1.330 1_655 S
C356 H350 0.966 . S
C356 C357 1.333 1_655 S
C357 H351 0.936 1_455 S
C357 C356 1.333 1_455 S
C357 C361 1.440 . S
C358 C341 1.574 . S
C358 H352 0.949 . S
C358 C362 1.368 . S
C359 C340 1.429 . S
C359 C353 1.429 . S
C359 C360 1.523 . S
C360 C341 1.368 . S
C360 C354 1.368 . S
C360 C359 1.523 . S
C361 C345 1.429 . S
C361 C357 1.440 . S
C361 C362 1.523 . S
C362 C346 1.368 . S
C362 C358 1.368 . S
C362 C361 1.523 . S
H363 C338 0.935 1_655 S
H364 C340 0.950 1_655 S
H365 C341 0.949 . S
H366 C343 0.950 . S
H367 C345 0.950 . S
C368 C369 1.349 . S
C368 C370 1.327 . S
C368 H393 0.950 . S
C369 C368 1.349 . S
C369 C385 1.349 1_565 S
C370 C368 1.327 . S
C370 C389 1.429 . S
C370 H394 0.950 . S
C371 C388 1.574 . S
C371 C390 1.368 1_545 S
C371 H395 0.949 . S
H372 C376 0.949 . S
C373 C374 1.351 1_545 S
C373 C375 1.327 . S
C373 H396 0.950 . S
C374 C373 1.351 1_565 S
C374 C386 1.347 . S
C375 C373 1.327 . S
C375 C391 1.400 1_545 S
C375 H397 0.950 . S
C376 H372 0.949 . S
C376 C384 1.574 1_556 S
C376 C392 1.368 . S
H377 C385 0.950 . S
H378 C383 0.950 . S
H379 C384 0.949 . S
H380 C386 0.950 . S
H381 C387 0.950 . S
H382 C388 0.949 . S
C383 H378 0.950 . S
C383 C385 1.327 . S
C383 C389 1.429 1_545 S
C384 C376 1.574 1_554 S
C384 H379 0.949 . S
C384 C390 1.368 . S
C385 C369 1.349 1_545 S
C385 H377 0.950 . S
C385 C383 1.327 . S
C386 C374 1.347 . S
C386 H380 0.950 . S
C386 C387 1.327 . S
C387 H381 0.950 . S
C387 C386 1.327 . S
C387 C391 1.454 . S
C388 C371 1.574 . S
C388 H382 0.949 . S
C388 C392 1.368 1_544 S
C389 C370 1.429 . S
C389 C383 1.429 1_565 S
C389 C390 1.523 . S
C390 C371 1.368 1_565 S
C390 C384 1.368 . S
C390 C389 1.523 . S
C391 C375 1.400 1_565 S
C391 C387 1.454 . S
C391 C392 1.526 . S
C392 C376 1.368 . S
C392 C388 1.368 1_566 S
C392 C391 1.526 . S
H393 C368 0.950 . S
H394 C370 0.950 . S
H395 C371 0.949 . S
H396 C373 0.950 . S
H397 C375 0.950 . S
C398 C399 1.349 1_556 S
C398 C400 1.327 . S
C398 H423 0.950 . S
C399 C398 1.349 1_554 S
C399 C415 1.349 . S
C400 C398 1.327 . S
C400 C419 1.429 . S
C400 H424 0.950 . S
C401 C418 1.574 . S
C401 C420 1.368 . S
C401 H425 0.949 1_556 S
H402 C406 0.949 . S
C403 C404 1.349 . S
C403 C405 1.327 . S
C403 H426 0.950 . S
C404 C403 1.349 . S
C404 C416 1.349 . S
C405 C403 1.327 . S
C405 C421 1.429 . S
C405 H427 0.950 . S
C406 H402 0.949 . S
C406 C414 1.574 . S
C406 C422 1.368 . S
H407 C415 0.950 . S
H408 C413 0.950 . S
H409 C414 0.949 . S
H410 C416 0.950 . S
H411 C417 0.950 . S
H412 C418 0.949 . S
C413 H408 0.950 . S
C413 C415 1.327 . S
C413 C419 1.429 1_554 S
C414 C406 1.574 . S
C414 H409 0.949 . S
C414 C420 1.368 . S
C415 C399 1.349 . S
C415 H407 0.950 . S
C415 C413 1.327 . S
C416 C404 1.349 . S
C416 H410 0.950 . S
C416 C417 1.327 . S
C417 H411 0.950 . S
C417 C416 1.327 . S
C417 C421 1.429 . S
C418 C401 1.574 . S
C418 H412 0.949 . S
C418 C422 1.368 . S
C419 C400 1.429 . S
C419 C413 1.429 1_556 S
C419 C420 1.523 . S
C420 C401 1.368 . S
C420 C414 1.368 . S
C420 C419 1.523 . S
C421 C405 1.429 . S
C421 C417 1.429 . S
C421 C422 1.523 . S
C422 C406 1.368 . S
C422 C418 1.368 . S
C422 C421 1.523 . S
H423 C398 0.950 . S
H424 C400 0.950 . S
H425 C401 0.949 1_554 S
H426 C403 0.950 . S
H427 C405 0.950 . S
C428 C429 1.349 . S
C428 C430 1.327 . S
C428 H453 0.950 . S
C429 C428 1.349 . S
C429 C445 1.349 . S
C430 C428 1.327 . S
C430 C449 1.429 . S
C430 H454 0.950 . S
C431 C448 1.574 . S
C431 C450 1.368 . S
C431 H455 0.949 . S
H432 C436 0.949 . S
C433 C434 1.349 1_554 S
C433 C435 1.327 . S
C433 H456 0.950 . S
C434 C433 1.349 1_556 S
C434 C446 1.349 . S
C435 C433 1.327 . S
C435 C451 1.429 . S
C435 H457 0.950 . S
C436 H432 0.949 . S
C436 C444 1.574 . S
C436 C452 1.368 . S
H437 C445 0.950 . S
H438 C443 0.950 . S
H439 C444 0.949 . S
H440 C446 0.950 . S
H441 C447 0.950 . S
H442 C448 0.949 . S
C443 H438 0.950 . S
C443 C445 1.327 . S
C443 C449 1.429 . S
C444 C436 1.574 . S
C444 H439 0.949 . S
C444 C450 1.368 . S
C445 C429 1.349 . S
C445 H437 0.950 . S
C445 C443 1.327 . S
C446 C434 1.349 . S
C446 H440 0.950 . S
C446 C447 1.327 1_556 S
C447 H441 0.950 . S
C447 C446 1.327 1_554 S
C447 C451 1.429 . S
C448 C431 1.574 . S
C448 H442 0.949 . S
C448 C452 1.368 . S
C449 C430 1.429 . S
C449 C443 1.429 . S
C449 C450 1.523 . S
C450 C431 1.368 . S
C450 C444 1.368 . S
C450 C449 1.523 . S
C451 C435 1.429 . S
C451 C447 1.429 . S
C451 C452 1.523 . S
C452 C436 1.368 . S
C452 C448 1.368 . S
C452 C451 1.523 . S
H453 C428 0.950 . S
H454 C430 0.950 . S
H455 C431 0.949 . S
H456 C433 0.950 . S
H457 C435 0.950 . S
C458 C459 1.349 . S
C458 C460 1.324 . S
C458 H483 0.949 . S
C459 C458 1.349 . S
C459 C475 1.349 . S
C460 C458 1.324 . S
C460 C479 1.436 . S
C460 H484 0.947 1_655 S
C461 C478 1.574 . S
C461 C480 1.368 . S
C461 H485 0.949 . S
H462 C466 0.949 . S
C463 C464 1.350 . S
C463 C465 1.328 1_455 S
C463 H486 0.948 1_455 S
C464 C463 1.350 . S
C464 C476 1.349 . S
C465 C463 1.328 1_655 S
C465 C481 1.429 1_655 S
C465 H487 0.950 . S
C466 H462 0.949 . S
C466 C474 1.574 1_556 S
C466 C482 1.371 1_556 S
H467 C475 0.950 . S
H468 C473 0.950 . S
H469 C474 0.949 . S
H470 C476 0.950 . S
H471 C477 0.950 . S
H472 C478 0.949 . S
C473 H468 0.950 . S
C473 C475 1.327 . S
C473 C479 1.429 . S
C474 C466 1.574 1_554 S
C474 H469 0.949 . S
C474 C480 1.368 1_455 S
C475 C459 1.349 . S
C475 H467 0.950 . S
C475 C473 1.327 . S
C476 C464 1.349 . S
C476 H470 0.950 . S
C476 C477 1.327 . S
C477 H471 0.950 . S
C477 C476 1.327 . S
C477 C481 1.429 . S
C478 C461 1.574 . S
C478 H472 0.949 . S
C478 C482 1.367 1_655 S
C479 C460 1.436 . S
C479 C473 1.429 . S
C479 C480 1.523 . S
C480 C461 1.368 . S
C480 C474 1.368 1_655 S
C480 C479 1.523 . S
C481 C465 1.429 1_455 S
C481 C477 1.429 . S
C481 C482 1.521 1_556 S
C482 C466 1.371 1_554 S
C482 C478 1.367 1_455 S
C482 C481 1.521 1_554 S
H483 C458 0.949 . S
H484 C460 0.947 1_455 S
H485 C461 0.949 . S
H486 C463 0.948 1_655 S
H487 C465 0.950 . S
C488 C489 1.349 . S
C488 C490 1.327 . S
C488 H513 0.950 . S
C489 C488 1.349 . S
C489 C505 1.349 . S
C490 C488 1.327 . S
C490 C509 1.429 . S
C490 H514 0.950 . S
C491 C508 1.574 . S
C491 C510 1.368 1_655 S
C491 H515 0.949 . S
H492 C496 0.949 . S
C493 C494 1.349 . S
C493 C495 1.327 . S
C493 H516 0.950 . S
C494 C493 1.349 . S
C494 C506 1.349 1_655 S
C495 C493 1.327 . S
C495 C511 1.429 1_655 S
C495 H517 0.950 . S
C496 H492 0.949 . S
C496 C504 1.574 . S
C496 C512 1.368 . S
H497 C505 0.950 1_655 S
H498 C503 0.950 1_655 S
H499 C504 0.949 . S
H500 C506 0.950 . S
H501 C507 0.950 . S
H502 C508 0.949 . S
C503 H498 0.950 1_455 S
C503 C505 1.327 . S
C503 C509 1.429 . S
C504 C496 1.574 . S
C504 H499 0.949 . S
C504 C510 1.368 . S
C505 C489 1.349 . S
C505 H497 0.950 1_455 S
C505 C503 1.327 . S
C506 C494 1.349 1_455 S
C506 H500 0.950 . S
C506 C507 1.327 . S
C507 H501 0.950 . S
C507 C506 1.327 . S
C507 C511 1.429 . S
C508 C491 1.574 . S
C508 H502 0.949 . S
C508 C512 1.368 1_655 S
C509 C490 1.429 . S
C509 C503 1.429 . S
C509 C510 1.523 . S
C510 C491 1.368 1_455 S
C510 C504 1.368 . S
C510 C509 1.523 . S
C511 C495 1.429 1_455 S
C511 C507 1.429 . S
C511 C512 1.523 . S
C512 C496 1.368 . S
C512 C508 1.368 1_455 S
C512 C511 1.523 . S
H513 C488 0.950 . S
H514 C490 0.950 . S
H515 C491 0.949 . S
H516 C493 0.950 . S
H517 C495 0.950 . S
C518 C519 1.349 . S
C518 C520 1.327 . S
C518 H543 0.950 . S
C519 C518 1.349 . S
C519 C535 1.349 1_545 S
C520 C518 1.327 . S
C520 C539 1.436 . S
C520 H544 0.950 . S
C521 C538 1.574 . S
C521 C540 1.368 . S
C521 H545 0.949 . S
H522 C526 0.949 . S
C523 C524 1.349 . S
C523 C525 1.327 . S
C523 H546 0.950 . S
C524 C523 1.349 . S
C524 C536 1.349 . S
C525 C523 1.327 . S
C525 C541 1.429 . S
C525 H547 0.950 . S
C526 H522 0.949 . S
C526 C534 1.574 . S
C526 C542 1.368 1_545 S
H527 C535 0.950 . S
H528 C533 0.950 . S
H529 C534 0.949 . S
H530 C536 0.950 . S
H531 C537 0.950 1_545 S
H532 C538 0.949 . S
C533 H528 0.950 . S
C533 C535 1.327 . S
C533 C539 1.423 1_565 S
C534 C526 1.574 . S
C534 H529 0.949 . S
C534 C540 1.368 1_545 S
C535 C519 1.349 1_565 S
C535 H527 0.950 . S
C535 C533 1.327 . S
C536 C524 1.349 . S
C536 H530 0.950 . S
C536 C537 1.327 . S
C537 H531 0.950 1_565 S
C537 C536 1.327 . S
C537 C541 1.429 . S
C538 C521 1.574 . S
C538 H532 0.949 . S
C538 C542 1.368 . S
C539 C520 1.436 . S
C539 C533 1.423 1_545 S
C539 C540 1.522 1_545 S
C540 C521 1.368 . S
C540 C534 1.368 1_565 S
C540 C539 1.522 1_565 S
C541 C525 1.429 . S
C541 C537 1.429 . S
C541 C542 1.523 . S
C542 C526 1.368 1_565 S
C542 C538 1.368 . S
C542 C541 1.523 . S
H543 C518 0.950 . S
H544 C520 0.950 . S
H545 C521 0.949 . S
H546 C523 0.950 . S
H547 C525 0.950 . S
C548 C549 1.349 . S
C548 C550 1.327 . S
C548 H573 0.950 . S
C549 C548 1.349 . S
C549 C565 1.349 . S
C550 C548 1.327 . S
C550 C569 1.429 . S
C550 H574 0.950 . S
C551 C568 1.574 . S
C551 C570 1.368 . S
C551 H575 0.949 . S
H552 C556 0.949 . S
C553 C554 1.349 . S
C553 C555 1.327 . S
C553 H576 0.950 . S
C554 C553 1.349 . S
C554 C566 1.349 . S
C555 C553 1.327 . S
C555 C571 1.429 . S
C555 H577 0.950 . S
C556 H552 0.949 . S
C556 C564 1.574 . S
C556 C572 1.368 . S
H557 C565 0.950 . S
H558 C563 0.950 . S
H559 C564 0.949 . S
H560 C566 0.950 . S
H561 C567 0.950 . S
H562 C568 0.949 . S
C563 H558 0.950 . S
C563 C565 1.327 . S
C563 C569 1.429 . S
C564 C556 1.574 . S
C564 H559 0.949 . S
C564 C570 1.368 . S
C565 C549 1.349 . S
C565 H557 0.950 . S
C565 C563 1.327 . S
C566 C554 1.349 . S
C566 H560 0.950 . S
C566 C567 1.327 . S
C567 H561 0.950 . S
C567 C566 1.327 . S
C567 C571 1.429 . S
C568 C551 1.574 . S
C568 H562 0.949 . S
C568 C572 1.368 . S
C569 C550 1.429 . S
C569 C563 1.429 . S
C569 C570 1.523 . S
C570 C551 1.368 . S
C570 C564 1.368 . S
C570 C569 1.523 . S
C571 C555 1.429 . S
C571 C567 1.429 . S
C571 C572 1.523 . S
C572 C556 1.368 . S
C572 C568 1.368 . S
C572 C571 1.523 . S
H573 C548 0.950 . S
H574 C550 0.950 . S
H575 C551 0.949 . S
H576 C553 0.950 . S
H577 C555 0.950 . S
C578 C579 1.349 . S
C578 C580 1.327 . S
C578 H603 0.950 . S
C579 C578 1.349 . S
C579 C595 1.349 . S
C580 C578 1.327 . S
C580 C599 1.429 . S
C580 H604 0.950 . S
C581 C598 1.574 . S
C581 C600 1.368 . S
C581 H605 0.949 . S
H582 C586 0.949 . S
C583 C584 1.349 . S
C583 C585 1.327 . S
C583 H606 0.950 . S
C584 C583 1.349 . S
C584 C596 1.349 . S
C585 C583 1.327 . S
C585 C601 1.429 . S
C585 H607 0.950 . S
C586 H582 0.949 . S
C586 C594 1.574 . S
C586 C602 1.368 . S
H587 C595 0.950 . S
H588 C593 0.950 . S
H589 C594 0.949 . S
H590 C596 0.950 . S
H591 C597 0.950 . S
H592 C598 0.949 . S
C593 H588 0.950 . S
C593 C595 1.327 . S
C593 C599 1.429 . S
C594 C586 1.574 . S
C594 H589 0.949 . S
C594 C600 1.368 . S
C595 C579 1.349 . S
C595 H587 0.950 . S
C595 C593 1.327 . S
C596 C584 1.349 . S
C596 H590 0.950 . S
C596 C597 1.327 . S
C597 H591 0.950 . S
C597 C596 1.327 . S
C597 C601 1.429 . S
C598 C581 1.574 . S
C598 H592 0.949 . S
C598 C602 1.368 . S
C599 C580 1.429 . S
C599 C593 1.429 . S
C599 C600 1.523 . S
C600 C581 1.368 . S
C600 C594 1.368 . S
C600 C599 1.523 . S
C601 C585 1.429 . S
C601 C597 1.429 . S
C601 C602 1.523 . S
C602 C586 1.368 . S
C602 C598 1.368 . S
C602 C601 1.523 . S
H603 C578 0.950 . S
H604 C580 0.950 . S
H605 C581 0.949 . S
H606 C583 0.950 . S
H607 C585 0.950 . S
C608 C609 1.349 1_455 S
C608 C610 1.327 . S
C608 H633 0.950 . S
C609 C608 1.349 1_655 S
C609 C625 1.349 . S
C610 C608 1.327 . S
C610 C629 1.401 1_455 S
C610 H634 0.950 . S
C611 C628 1.577 . S
C611 C630 1.368 1_655 S
C611 H635 0.949 . S
H612 C616 0.949 . S
C613 C614 1.349 . S
C613 C615 1.327 . S
C613 H636 0.950 . S
C614 C613 1.349 . S
C614 C626 1.349 1_556 S
C615 C613 1.327 . S
C615 C631 1.429 1_556 S
C615 H637 0.958 . S
C616 H612 0.949 . S
C616 C624 1.574 . S
C616 C632 1.368 . S
H617 C625 0.950 . S
H618 C623 0.950 . S
H619 C624 0.949 . S
H620 C626 0.950 . S
H621 C627 0.950 . S
H622 C628 0.959 . S
C623 H618 0.950 . S
C623 C625 1.327 . S
C623 C629 1.468 . S
C624 C616 1.574 . S
C624 H619 0.949 . S
C624 C630 1.368 . S
C625 C609 1.349 . S
C625 H617 0.950 . S
C625 C623 1.327 . S
C626 C614 1.349 1_554 S
C626 H620 0.950 . S
C626 C627 1.327 . S
C627 H621 0.950 . S
C627 C626 1.327 . S
C627 C631 1.429 . S
C628 C611 1.577 . S
C628 H622 0.959 . S
C628 C632 1.354 1_655 S
C629 C610 1.401 1_655 S
C629 C623 1.468 . S
C629 C630 1.515 1_655 S
C630 C611 1.368 1_455 S
C630 C624 1.368 . S
C630 C629 1.515 1_455 S
C631 C615 1.429 1_554 S
C631 C627 1.429 . S
C631 C632 1.523 . S
C632 C616 1.368 . S
C632 C628 1.354 1_455 S
C632 C631 1.523 . S
H633 C608 0.950 . S
H634 C610 0.950 . S
H635 C611 0.949 . S
H636 C613 0.950 . S
H637 C615 0.958 . S
C638 C639 1.349 . S
C638 C640 1.327 . S
C638 H663 0.950 . S
C639 C638 1.349 . S
C639 C655 1.349 1_565 S
C640 C638 1.327 . S
C640 C659 1.429 1_565 S
C640 H664 0.950 . S
C641 C658 1.574 . S
C641 C660 1.368 . S
C641 H665 0.949 . S
H642 C646 0.949 . S
C643 C644 1.349 . S
C643 C645 1.327 . S
C643 H666 0.950 . S
C644 C643 1.349 . S
C644 C656 1.349 1_556 S
C645 C643 1.327 . S
C645 C661 1.429 1_556 S
C645 H667 0.950 . S
C646 H642 0.949 . S
C646 C654 1.574 . S
C646 C662 1.368 1_565 S
H647 C655 0.950 . S
H648 C653 0.950 . S
H649 C654 0.949 . S
H650 C656 0.950 1_565 S
H651 C657 0.950 . S
H652 C658 0.949 . S
C653 H648 0.950 . S
C653 C655 1.327 . S
C653 C659 1.429 . S
C654 C646 1.574 . S
C654 H649 0.949 . S
C654 C660 1.368 1_565 S
C655 C639 1.349 1_545 S
C655 H647 0.950 . S
C655 C653 1.327 . S
C656 C644 1.349 1_554 S
C656 H650 0.950 1_545 S
C656 C657 1.327 1_545 S
C657 H651 0.950 . S
C657 C656 1.327 1_565 S
C657 C661 1.429 1_565 S
C658 C641 1.574 . S
C658 H652 0.949 . S
C658 C662 1.368 . S
C659 C640 1.429 1_545 S
C659 C653 1.429 . S
C659 C660 1.523 . S
C660 C641 1.368 . S
C660 C654 1.368 1_545 S
C660 C659 1.523 . S
C661 C645 1.429 1_554 S
C661 C657 1.429 1_545 S
C661 C662 1.523 . S
C662 C646 1.368 1_545 S
C662 C658 1.368 . S
C662 C661 1.523 . S
H663 C638 0.950 . S
H664 C640 0.950 . S
H665 C641 0.949 . S
H666 C643 0.950 . S
H667 C645 0.950 . S
C668 C669 1.349 1_556 S
C668 C670 1.327 . S
C668 H693 0.950 . S
C669 C668 1.349 1_554 S
C669 C685 1.349 . S
C670 C668 1.327 . S
C670 C689 1.424 1_556 S
C670 H694 0.950 . S
C671 C688 1.574 1_554 S
C671 C690 1.368 1_554 S
C671 H695 0.949 . S
H672 C676 0.949 . S
C673 C674 1.349 . S
C673 C675 1.327 . S
C673 H696 0.950 . S
C674 C673 1.349 . S
C674 C686 1.349 . S
C675 C673 1.327 . S
C675 C691 1.429 . S
C675 H697 0.950 . S
C676 H672 0.949 . S
C676 C684 1.574 . S
C676 C692 1.368 . S
H677 C685 0.950 . S
H678 C683 0.950 . S
H679 C684 0.949 . S
H680 C686 0.950 . S
H681 C687 0.950 . S
H682 C688 0.949 . S
C683 H678 0.950 . S
C683 C685 1.327 . S
C683 C689 1.440 . S
C684 C676 1.574 . S
C684 H679 0.949 . S
C684 C690 1.368 . S
C685 C669 1.349 . S
C685 H677 0.950 . S
C685 C683 1.327 . S
C686 C674 1.349 . S
C686 H680 0.950 . S
C686 C687 1.327 . S
C687 H681 0.950 . S
C687 C686 1.327 . S
C687 C691 1.429 . S
C688 C671 1.574 1_556 S
C688 H682 0.949 . S
C688 C692 1.368 . S
C689 C670 1.424 1_554 S
C689 C683 1.440 . S
C689 C690 1.517 1_554 S
C690 C671 1.368 1_556 S
C690 C684 1.368 . S
C690 C689 1.517 1_556 S
C691 C675 1.429 . S
C691 C687 1.429 . S
C691 C692 1.523 . S
C692 C676 1.368 . S
C692 C688 1.368 . S
C692 C691 1.523 . S
H693 C668 0.950 . S
H694 C670 0.950 . S
H695 C671 0.949 . S
H696 C673 0.950 . S
H697 C675 0.950 . S
C698 C699 1.349 . S
C698 C700 1.327 . S
C698 H723 0.950 . S
C699 C698 1.349 . S
C699 C715 1.349 . S
C700 C698 1.327 . S
C700 C719 1.429 . S
C700 H724 0.950 . S
C701 C718 1.574 . S
C701 C720 1.368 . S
C701 H725 0.949 . S
H702 C706 0.949 . S
C703 C704 1.349 . S
C703 C705 1.327 . S
C703 H726 0.950 . S
C704 C703 1.349 . S
C704 C716 1.349 . S
C705 C703 1.327 . S
C705 C721 1.429 . S
C705 H727 0.950 . S
C706 H702 0.949 . S
C706 C714 1.574 . S
C706 C722 1.368 . S
H707 C715 0.950 . S
H708 C713 0.950 . S
H709 C714 0.949 . S
H710 C716 0.950 . S
H711 C717 0.950 . S
H712 C718 0.949 . S
C713 H708 0.950 . S
C713 C715 1.327 . S
C713 C719 1.429 . S
C714 C706 1.574 . S
C714 H709 0.949 . S
C714 C720 1.368 . S
C715 C699 1.349 . S
C715 H707 0.950 . S
C715 C713 1.327 . S
C716 C704 1.349 . S
C716 H710 0.950 . S
C716 C717 1.327 . S
C717 H711 0.950 . S
C717 C716 1.327 . S
C717 C721 1.429 . S
C718 C701 1.574 . S
C718 H712 0.949 . S
C718 C722 1.368 . S
C719 C700 1.429 . S
C719 C713 1.429 . S
C719 C720 1.523 . S
C720 C701 1.368 . S
C720 C714 1.368 . S
C720 C719 1.523 . S
C721 C705 1.429 . S
C721 C717 1.429 . S
C721 C722 1.523 . S
C722 C706 1.368 . S
C722 C718 1.368 . S
C722 C721 1.523 . S
H723 C698 0.950 . S
H724 C700 0.950 . S
H725 C701 0.949 . S
H726 C703 0.950 . S
H727 C705 0.950 . S
C728 C729 1.349 . S
C728 C730 1.327 . S
C728 H753 0.950 . S
C729 C728 1.349 . S
C729 C745 1.349 1_556 S
C730 C728 1.327 . S
C730 C749 1.429 . S
C730 H754 0.950 . S
C731 C748 1.574 . S
C731 C750 1.368 . S
C731 H755 0.949 1_455 S
H732 C736 0.949 . S
C733 C734 1.349 . S
C733 C735 1.327 . S
C733 H756 0.950 1_455 S
C734 C733 1.349 . S
C734 C746 1.349 . S
C735 C733 1.327 . S
C735 C751 1.429 . S
C735 H757 0.950 1_455 S
C736 H732 0.949 . S
C736 C744 1.574 . S
C736 C752 1.368 . S
H737 C745 0.921 1_655 S
H738 C743 0.950 1_654 S
H739 C744 0.949 . S
H740 C746 0.950 . S
H741 C747 0.950 . S
H742 C748 0.949 1_655 S
C743 H738 0.950 1_456 S
C743 C745 1.327 1_556 S
C743 C749 1.429 . S
C744 C736 1.574 . S
C744 H739 0.949 . S
C744 C750 1.368 . S
C745 C729 1.349 1_554 S
C745 H737 0.921 1_455 S
C745 C743 1.327 1_554 S
C746 C734 1.349 . S
C746 H740 0.950 . S
C746 C747 1.327 . S
C747 H741 0.950 . S
C747 C746 1.327 . S
C747 C751 1.429 . S
C748 C731 1.574 . S
C748 H742 0.949 1_455 S
C748 C752 1.368 . S
C749 C730 1.429 . S
C749 C743 1.429 . S
C749 C750 1.523 . S
C750 C731 1.368 . S
C750 C744 1.368 . S
C750 C749 1.523 . S
C751 C735 1.429 . S
C751 C747 1.429 . S
C751 C752 1.523 . S
C752 C736 1.368 . S
C752 C748 1.368 . S
C752 C751 1.523 . S
H753 C728 0.950 . S
H754 C730 0.950 . S
H755 C731 0.949 1_655 S
H756 C733 0.950 1_655 S
H757 C735 0.950 1_655 S
C758 C759 1.349 1_565 S
C758 C760 1.327 1_554 S
C758 H783 0.950 1_554 S
C759 C758 1.349 1_545 S
C759 C775 1.349 . S
C760 C758 1.327 1_556 S
C760 C779 1.429 1_566 S
C760 H784 0.950 . S
C761 C778 1.574 1_554 S
C761 C780 1.368 1_554 S
C761 H785 0.949 . S
H762 C766 0.949 . S
C763 C764 1.349 . S
C763 C765 1.327 . S
C763 H786 0.950 . S
C764 C763 1.349 . S
C764 C776 1.349 1_545 S
C765 C763 1.327 . S
C765 C781 1.429 . S
C765 H787 0.950 . S
C766 H762 0.949 . S
C766 C774 1.574 . S
C766 C782 1.368 1_565 S
H767 C775 0.950 . S
H768 C773 0.950 . S
H769 C774 0.949 . S
H770 C776 0.950 . S
H771 C777 0.950 . S
H772 C778 0.949 . S
C773 H768 0.950 . S
C773 C775 1.327 . S
C773 C779 1.429 . S
C774 C766 1.574 . S
C774 H769 0.949 . S
C774 C780 1.368 1_565 S
C775 C759 1.349 . S
C775 H767 0.950 . S
C775 C773 1.327 . S
C776 C764 1.349 1_565 S
C776 H770 0.950 . S
C776 C777 1.327 . S
C777 H771 0.950 . S
C777 C776 1.327 . S
C777 C781 1.429 1_565 S
C778 C761 1.574 1_556 S
C778 H772 0.949 . S
C778 C782 1.368 . S
C779 C760 1.429 1_544 S
C779 C773 1.429 . S
C779 C780 1.523 1_554 S
C780 C761 1.368 1_556 S
C780 C774 1.368 1_545 S
C780 C779 1.523 1_556 S
C781 C765 1.429 . S
C781 C777 1.429 1_545 S
C781 C782 1.523 . S
C782 C766 1.368 1_545 S
C782 C778 1.368 . S
C782 C781 1.523 . S
H783 C758 0.950 1_556 S
H784 C760 0.950 . S
H785 C761 0.949 . S
H786 C763 0.950 . S
H787 C765 0.950 . S
C788 C789 1.349 . S
C788 C790 1.327 . S
C788 H813 0.950 . S
C789 C788 1.349 . S
C789 C805 1.349 . S
C790 C788 1.327 . S
C790 C809 1.429 . S
C790 H814 0.950 . S
C791 C808 1.574 . S
C791 C810 1.368 . S
C791 H815 0.949 . S
H792 C796 0.949 . S
C793 C794 1.349 . S
C793 C795 1.327 . S
C793 H816 0.950 . S
C794 C793 1.349 . S
C794 C806 1.349 . S
C795 C793 1.327 . S
C795 C811 1.429 . S
C795 H817 0.950 . S
C796 H792 0.949 . S
C796 C804 1.574 . S
C796 C812 1.368 . S
H797 C805 0.950 . S
H798 C803 0.950 . S
H799 C804 0.949 . S
H800 C806 0.950 . S
H801 C807 0.950 . S
H802 C808 0.949 . S
C803 H798 0.950 . S
C803 C805 1.327 . S
C803 C809 1.429 . S
C804 C796 1.574 . S
C804 H799 0.949 . S
C804 C810 1.368 . S
C805 C789 1.349 . S
C805 H797 0.950 . S
C805 C803 1.327 . S
C806 C794 1.349 . S
C806 H800 0.950 . S
C806 C807 1.327 . S
C807 H801 0.950 . S
C807 C806 1.327 . S
C807 C811 1.429 . S
C808 C791 1.574 . S
C808 H802 0.949 . S
C808 C812 1.368 . S
C809 C790 1.429 . S
C809 C803 1.429 . S
C809 C810 1.523 . S
C810 C791 1.368 . S
C810 C804 1.368 . S
C810 C809 1.523 . S
C811 C795 1.429 . S
C811 C807 1.429 . S
C811 C812 1.523 1_556 S
C812 C796 1.368 . S
C812 C808 1.368 . S
C812 C811 1.523 1_554 S
H813 C788 0.950 . S
H814 C790 0.950 . S
H815 C791 0.949 . S
H816 C793 0.950 . S
H817 C795 0.950 . S
C818 C819 1.349 . S
C818 C820 1.327 . S
C818 H843 0.950 . S
C819 C818 1.349 . S
C819 C835 1.349 . S
C820 C818 1.327 . S
C820 C839 1.429 . S
C820 H844 0.950 . S
C821 C838 1.574 . S
C821 C840 1.368 . S
C821 H845 0.949 . S
H822 C826 0.949 . S
C823 C824 1.349 . S
C823 C825 1.327 . S
C823 H846 0.950 . S
C824 C823 1.349 . S
C824 C836 1.349 . S
C825 C823 1.327 . S
C825 C841 1.429 . S
C825 H847 0.950 . S
C826 H822 0.949 . S
C826 C834 1.574 . S
C826 C842 1.368 . S
H827 C835 0.950 . S
H828 C833 0.950 . S
H829 C834 0.949 . S
H830 C836 0.950 . S
H831 C837 0.950 . S
H832 C838 0.949 . S
C833 H828 0.950 . S
C833 C835 1.327 . S
C833 C839 1.429 . S
C834 C826 1.574 . S
C834 H829 0.949 . S
C834 C840 1.368 . S
C835 C819 1.349 . S
C835 H827 0.950 . S
C835 C833 1.327 . S
C836 C824 1.349 . S
C836 H830 0.950 . S
C836 C837 1.327 . S
C837 H831 0.950 . S
C837 C836 1.327 . S
C837 C841 1.429 . S
C838 C821 1.574 . S
C838 H832 0.949 . S
C838 C842 1.368 . S
C839 C820 1.429 . S
C839 C833 1.429 . S
C839 C840 1.523 . S
C840 C821 1.368 . S
C840 C834 1.368 . S
C840 C839 1.523 . S
C841 C825 1.429 . S
C841 C837 1.429 . S
C841 C842 1.523 . S
C842 C826 1.368 . S
C842 C838 1.368 . S
C842 C841 1.523 . S
H843 C818 0.950 . S
H844 C820 0.950 . S
H845 C821 0.949 . S
H846 C823 0.950 . S
H847 C825 0.950 . S
C848 C849 1.349 . S
C848 C850 1.338 . S
C848 H873 0.939 1_655 S
C849 C848 1.349 . S
C849 C865 1.349 . S
C850 C848 1.338 . S
C850 C869 1.443 . S
C850 H874 0.928 1_655 S
C851 C868 1.574 . S
C851 C870 1.368 . S
C851 H875 0.949 . S
H852 C856 0.949 . S
C853 C854 1.366 . S
C853 C855 1.327 . S
C853 H876 0.950 . S
C854 C853 1.366 . S
C854 C866 1.339 1_655 S
C855 C853 1.327 . S
C855 C871 1.429 . S
C855 H877 0.950 . S
C856 H852 0.949 . S
C856 C864 1.579 . S
C856 C872 1.368 1_455 S
H857 C865 0.950 . S
H858 C863 0.950 . S
H859 C864 0.957 . S
H860 C866 0.950 . S
H861 C867 0.950 . S
H862 C868 0.949 . S
C863 H858 0.950 . S
C863 C865 1.327 . S
C863 C869 1.429 . S
C864 C856 1.579 . S
C864 H859 0.957 . S
C864 C870 1.356 1_455 S
C865 C849 1.349 . S
C865 H857 0.950 . S
C865 C863 1.327 . S
C866 C854 1.339 1_455 S
C866 H860 0.950 . S
C866 C867 1.327 . S
C867 H861 0.950 . S
C867 C866 1.327 . S
C867 C871 1.429 1_455 S
C868 C851 1.574 . S
C868 H862 0.949 . S
C868 C872 1.368 . S
C869 C850 1.443 . S
C869 C863 1.429 . S
C869 C870 1.523 . S
C870 C851 1.368 . S
C870 C864 1.356 1_655 S
C870 C869 1.523 . S
C871 C855 1.429 . S
C871 C867 1.429 1_655 S
C871 C872 1.523 . S
C872 C856 1.368 1_655 S
C872 C868 1.368 . S
C872 C871 1.523 . S
H873 C848 0.939 1_455 S
H874 C850 0.928 1_455 S
H875 C851 0.949 . S
H876 C853 0.950 . S
H877 C855 0.950 . S
C878 C879 1.349 . S
C878 C880 1.327 . S
C878 H903 0.950 . S
C879 C878 1.349 . S
C879 C895 1.349 1_565 S
C880 C878 1.327 . S
C880 C899 1.429 . S
C880 H904 0.950 . S
C881 C898 1.574 . S
C881 C900 1.368 1_545 S
C881 H905 0.949 . S
H882 C886 0.949 . S
C883 C884 1.349 1_545 S
C883 C885 1.327 . S
C883 H906 0.950 . S
C884 C883 1.349 1_565 S
C884 C896 1.349 . S
C885 C883 1.327 . S
C885 C901 1.429 1_545 S
C885 H907 0.950 . S
C886 H882 0.949 . S
C886 C894 1.574 . S
C886 C902 1.368 . S
H887 C895 0.950 . S
H888 C893 0.950 . S
H889 C894 0.949 . S
H890 C896 0.950 . S
H891 C897 0.950 . S
H892 C898 0.949 . S
C893 H888 0.950 . S
C893 C895 1.327 . S
C893 C899 1.429 1_545 S
C894 C886 1.574 . S
C894 H889 0.949 . S
C894 C900 1.368 . S
C895 C879 1.349 1_545 S
C895 H887 0.950 . S
C895 C893 1.327 . S
C896 C884 1.349 . S
C896 H890 0.950 . S
C896 C897 1.327 . S
C897 H891 0.950 . S
C897 C896 1.327 . S
C897 C901 1.429 . S
C898 C881 1.574 . S
C898 H892 0.949 . S
C898 C902 1.368 1_545 S
C899 C880 1.429 . S
C899 C893 1.429 1_565 S
C899 C900 1.523 . S
C900 C881 1.368 1_565 S
C900 C894 1.368 . S
C900 C899 1.523 . S
C901 C885 1.429 1_565 S
C901 C897 1.429 . S
C901 C902 1.523 . S
C902 C886 1.368 . S
C902 C898 1.368 1_565 S
C902 C901 1.523 . S
H903 C878 0.950 . S
H904 C880 0.950 . S
H905 C881 0.949 . S
H906 C883 0.950 . S
H907 C885 0.950 . S
C908 C909 1.349 . S
C908 C910 1.327 . S
C908 H933 0.950 . S
C909 C908 1.349 . S
C909 C925 1.349 . S
C910 C908 1.327 . S
C910 C929 1.429 . S
C910 H934 0.950 . S
C911 C928 1.574 . S
C911 C930 1.368 . S
C911 H935 0.949 . S
H912 C916 0.949 . S
C913 C914 1.349 . S
C913 C915 1.327 . S
C913 H936 0.950 . S
C914 C913 1.349 . S
C914 C926 1.349 . S
C915 C913 1.327 . S
C915 C931 1.429 . S
C915 H937 0.950 . S
C916 H912 0.949 . S
C916 C924 1.574 . S
C916 C932 1.368 . S
H917 C925 0.950 . S
H918 C923 0.950 . S
H919 C924 0.949 . S
H920 C926 0.950 . S
H921 C927 0.950 . S
H922 C928 0.949 . S
C923 H918 0.950 . S
C923 C925 1.327 . S
C923 C929 1.429 . S
C924 C916 1.574 . S
C924 H919 0.949 . S
C924 C930 1.368 . S
C925 C909 1.349 . S
C925 H917 0.950 . S
C925 C923 1.327 . S
C926 C914 1.349 . S
C926 H920 0.950 . S
C926 C927 1.327 . S
C927 H921 0.950 . S
C927 C926 1.327 . S
C927 C931 1.429 . S
C928 C911 1.574 . S
C928 H922 0.949 . S
C928 C932 1.368 . S
C929 C910 1.429 . S
C929 C923 1.429 . S
C929 C930 1.523 . S
C930 C911 1.368 . S
C930 C924 1.368 . S
C930 C929 1.523 . S
C931 C915 1.429 . S
C931 C927 1.429 . S
C931 C932 1.523 . S
C932 C916 1.368 . S
C932 C928 1.368 . S
C932 C931 1.523 . S
H933 C908 0.950 . S
H934 C910 0.950 . S
H935 C911 0.949 . S
H936 C913 0.950 . S
H937 C915 0.950 . S
C938 C939 1.349 . S
C938 C940 1.327 . S
C938 H963 0.950 . S
C939 C938 1.349 . S
C939 C955 1.349 . S
C940 C938 1.327 . S
C940 C959 1.429 . S
C940 H964 0.950 . S
C941 C958 1.574 . S
C941 C960 1.368 . S
C941 H965 0.949 . S
H942 C946 0.949 . S
C943 C944 1.349 . S
C943 C945 1.327 . S
C943 H966 0.950 . S
C944 C943 1.349 . S
C944 C956 1.349 . S
C945 C943 1.327 . S
C945 C961 1.429 . S
C945 H967 0.950 . S
C946 H942 0.949 . S
C946 C954 1.574 . S
C946 C962 1.368 . S
H947 C955 0.950 . S
H948 C953 0.950 . S
H949 C954 0.949 . S
H950 C956 0.950 . S
H951 C957 0.950 . S
H952 C958 0.949 . S
C953 H948 0.950 . S
C953 C955 1.327 . S
C953 C959 1.429 . S
C954 C946 1.574 . S
C954 H949 0.949 . S
C954 C960 1.368 . S
C955 C939 1.349 . S
C955 H947 0.950 . S
C955 C953 1.327 . S
C956 C944 1.349 . S
C956 H950 0.950 . S
C956 C957 1.327 . S
C957 H951 0.950 . S
C957 C956 1.327 . S
C957 C961 1.429 . S
C958 C941 1.574 . S
C958 H952 0.949 . S
C958 C962 1.368 . S
C959 C940 1.429 . S
C959 C953 1.429 . S
C959 C960 1.523 . S
C960 C941 1.368 . S
C960 C954 1.368 . S
C960 C959 1.523 . S
C961 C945 1.429 . S
C961 C957 1.429 . S
C961 C962 1.523 . S
C962 C946 1.368 . S
C962 C958 1.368 . S
C962 C961 1.523 . S
H963 C938 0.950 . S
H964 C940 0.950 . S
H965 C941 0.949 . S
H966 C943 0.950 . S
H967 C945 0.950 . S
C249 C76 1.864 . S
C254 C90 1.906 1_545 S
C284 C130 2.061 . S
C279 C87 2.040 . S
C314 C194 1.838 . S
C309 C54 1.751 . S
C344 C210 1.460 . S
C339 C65 1.363 . S
C374 C111 1.906 1_565 S
C369 C32 1.865 . S
C399 C43 2.046 . S
C404 C151 2.061 . S
C429 C10 1.755 . S
C434 C185 1.838 . S
C459 C21 1.365 . S
C464 C231 1.460 . S
C494 C105 0.318 . S
C489 C60 0.304 . S
C524 C145 0.576 . S
C519 C71 0.589 . S
C554 C181 0.439 . S
C549 C82 0.451 . S
C579 C49 0.401 . S
C584 C225 0.457 . S
C609 C16 0.320 . S
C614 C114 0.294 . S
C644 C154 0.576 . S
C639 C27 0.591 . S
C674 C192 0.439 . S
C669 C38 0.463 . S
C699 C5 0.418 . S
C704 C234 0.457 . S
C729 C59 1.794 1_556 S
C734 C112 1.955 . S
C759 C70 1.770 . S
C764 C152 1.899 . S
C794 C170 1.491 . S
C789 C81 1.481 . S
C824 C232 2.302 . S
C819 C48 2.106 . S
C849 C15 1.792 . S
C854 C101 1.945 1_655 S
C884 C141 1.899 . S
C879 C26 1.771 . S
C914 C191 1.491 . S
C909 C37 1.473 . S
C939 C4 2.100 . S
C944 C221 2.302 . S
