# Generated by pormake.
# Topology ftw, (4,12)-cn, num edge types: 1
# Building blocks:
#     Node 0, Type 0, BuildingBlock: GIZVER_clean_linker_0, # of connection points: 4
#     Node 1, Type 0, BuildingBlock: GIZVER_clean_linker_0, # of connection points: 4
#     Node 2, Type 0, BuildingBlock: GIZVER_clean_linker_0, # of connection points: 4
#     Node 3, Type 1, BuildingBlock: EZIPEK_clean_sbu_0, # of connection points: 12
#     Edge 4, Type (0, 1), BuildingBlock: XIVTED_clean_linker_0, # of connection points: 2
#     Edge 5, Type (0, 1), BuildingBlock: XIVTED_clean_linker_0, # of connection points: 2
#     Edge 6, Type (0, 1), BuildingBlock: XIVTED_clean_linker_0, # of connection points: 2
#     Edge 7, Type (0, 1), BuildingBlock: XIVTED_clean_linker_0, # of connection points: 2
#     Edge 8, Type (0, 1), BuildingBlock: XIVTED_clean_linker_0, # of connection points: 2
#     Edge 9, Type (0, 1), BuildingBlock: XIVTED_clean_linker_0, # of connection points: 2
#     Edge 10, Type (0, 1), BuildingBlock: XIVTED_clean_linker_0, # of connection points: 2
#     Edge 11, Type (0, 1), BuildingBlock: XIVTED_clean_linker_0, # of connection points: 2
#     Edge 12, Type (0, 1), BuildingBlock: XIVTED_clean_linker_0, # of connection points: 2
#     Edge 13, Type (0, 1), BuildingBlock: XIVTED_clean_linker_0, # of connection points: 2
#     Edge 14, Type (0, 1), BuildingBlock: XIVTED_clean_linker_0, # of connection points: 2
#     Edge 15, Type (0, 1), BuildingBlock: XIVTED_clean_linker_0, # of connection points: 2
# Relax obj value: 0.085
# Max RMSD: 0.239
# Mean RMSD: 0.181
data_MOF--net-ftw--node1-EZIPEK_clean_sbu_0--node2-GIZVER_clean_linker_0--edge1-XIVTED_clean_linker_0
_symmetry_space_group_name_H-M    P1
_symmetry_Int_Tables_number       1
_symmetry_cell_setting            triclinic
loop_
_symmetry_equiv_pos_as_xyz
'x, y, z'
_cell_length_a     25.877364
_cell_length_b     24.29152
_cell_length_c     23.705782
_cell_angle_alpha  89.321956
_cell_angle_beta   89.804977
_cell_angle_gamma 90.025832
loop_
_atom_site_label
_atom_site_type_symbol
_atom_site_fract_x
_atom_site_fract_y
_atom_site_fract_z
_atom_type_partial_charge
H0 H 0.88023 0.44072 0.40564 0.0
H1 H 0.90352 0.47514 0.58161 0.0
H2 H 0.97474 0.33354 0.50704 0.0
H3 H 0.82913 0.51136 0.45036 0.0
H4 H 0.82971 0.51761 0.52561 0.0
H5 H 0.90256 0.55272 0.39294 0.0
H6 H 0.97939 0.69085 0.46732 0.0
H7 H 0.8836 0.5854 0.57 0.0
C8 C 0.8976 0.43022 0.44589 0.0
C9 C 0.92852 0.383 0.45094 0.0
C10 C 0.88815 0.46335 0.49308 0.0
C11 C 0.91055 0.44946 0.5453 0.0
C12 C 0.94245 0.40303 0.55043 0.0
C13 C 0.95091 0.37008 0.50312 0.0
C14 C 0.85491 0.51394 0.48771 0.0
C15 C 0.8889 0.56402 0.48195 0.0
C16 C 0.91096 0.57772 0.42935 0.0
C17 C 0.9441 0.62319 0.42389 0.0
C18 C 0.95456 0.65508 0.47145 0.0
C19 C 0.93279 0.64215 0.52414 0.0
C20 C 0.9005 0.59594 0.5294 0.0
H21 H 0.48728 0.07009 0.38913 0.0
H22 H 0.47926 0.10203 0.56722 0.0
H23 H 0.35313 0.02166 0.48524 0.0
H24 H 0.53884 0.14456 0.43258 0.0
H25 H 0.53872 0.15347 0.50707 0.0
H26 H 0.58615 0.06616 0.38951 0.0
H27 H 0.71912 1.01357 0.48421 0.0
H28 H 0.59751 0.102 0.56646 0.0
C29 C 0.46716 0.06596 0.4291 0.0
C30 C 0.41795 0.0414 0.43121 0.0
C31 C 0.48956 0.08777 0.47804 0.0
C32 C 0.46304 0.08363 0.52978 0.0
C33 C 0.41375 0.05988 0.53216 0.0
C34 C 0.39202 0.03819 0.48318 0.0
C35 C 0.53813 0.12174 0.47358 0.0
C36 C 0.58585 0.08648 0.47782 0.0
C37 C 0.60658 0.06215 0.42916 0.0
C38 C 0.65472 0.03538 0.43096 0.0
C39 C 0.68105 0.03208 0.48249 0.0
C40 C 0.66087 0.05603 0.53131 0.0
C41 C 0.6126 0.08207 0.52919 0.0
H42 H 0.58998 0.42608 0.03443 0.0
H43 H 0.59391 0.60344 0.02786 0.0
H44 H 0.72327 0.50989 0.96789 0.0
H45 H 0.53471 0.48158 0.09533 0.0
H46 H 0.53552 0.55449 0.0916 0.0
H47 H 0.4739 0.42903 0.0409 0.0
H48 H 0.34626 0.51936 0.97123 0.0
H49 H 0.48497 0.60478 0.01835 0.0
C50 C 0.60867 0.46387 0.02065 0.0
C51 C 0.65945 0.46202 -0.00044 0.0
C52 C 0.58412 0.51494 0.02983 0.0
C53 C 0.61093 0.5642 0.01694 0.0
C54 C 0.66174 0.56261 -0.00417 0.0
C55 C 0.68417 0.51138 -0.01552 0.0
C56 C 0.53526 0.51698 0.06508 0.0
C57 C 0.48597 0.51666 0.03083 0.0
C58 C 0.45783 0.46736 0.02499 0.0
C59 C 0.40711 0.46827 0.00402 0.0
C60 C 0.3858 0.51865 -0.0139 0.0
C61 C 0.41318 0.56835 -0.00907 0.0
C62 C 0.46374 0.56679 0.01276 0.0
C63 C 0.03683 0.16082 0.86465 0.0
C64 C 0.02503 0.13186 0.13507 0.0
C65 C 0.02945 0.89563 0.8375 0.0
C66 C 0.03578 0.86643 0.10837 0.0
C67 C 0.16282 0.88183 0.97439 0.0
C68 C 0.16075 0.14769 -4e-05 0.0
C69 C 0.9114 0.87995 0.97615 0.0
C70 C 0.90989 0.14598 -0.00342 0.0
C71 C 0.90866 0.99873 0.11975 0.0
C72 C 0.16036 1.00365 0.12356 0.0
C73 C 0.91327 0.03133 0.84866 0.0
C74 C 0.16342 0.02925 0.85198 0.0
Eu75 Eu 0.03551 0.11681 -0.00302 0.0
O76 O 0.08163 0.05744 0.0423 0.0
O77 O 0.99082 0.06727 0.94068 0.0
Eu78 Eu 0.13426 0.0145 -0.01261 0.0
Eu79 Eu 0.9382 1.01326 -0.01554 0.0
O80 O 0.08249 0.06787 0.94205 0.0
O81 O 0.98939 0.05609 0.0402 0.0
Eu82 Eu 0.03787 0.02498 0.88034 0.0
Eu83 Eu 0.03492 1.00234 0.09288 0.0
O84 O 0.08374 0.97027 0.93168 0.0
O85 O 0.08188 0.96019 0.03189 0.0
O86 O 0.99021 0.96002 0.03039 0.0
O87 O 0.99127 0.97008 0.93087 0.0
Eu88 Eu 0.03699 0.91029 0.97588 0.0
O89 O 0.03409 0.17187 0.91952 0.0
O90 O 0.0291 0.15401 0.08352 0.0
O91 O 0.03164 0.87327 0.8891 0.0
O92 O 0.03529 0.85526 0.05345 0.0
O93 O 0.17822 0.93371 0.98216 0.0
O94 O 0.17727 0.09598 -0.00634 0.0
O95 O 0.895 0.93203 0.97833 0.0
O96 O 0.894 0.09405 -0.0096 0.0
O97 O 0.95736 0.99419 0.13801 0.0
O98 O 0.11113 1.00026 0.14075 0.0
O99 O 0.96276 0.03439 0.8329 0.0
O100 O 0.11444 0.02988 0.8345 0.0
O101 O 0.96083 0.86408 0.97501 0.0
O102 O 0.11375 0.86522 0.96978 0.0
O103 O 0.95912 0.16209 2e-05 0.0
O104 O 0.11129 0.16316 0.00297 0.0
O105 O 0.02709 0.07809 0.14742 0.0
O106 O 0.03672 0.91649 0.13099 0.0
O107 O 0.03982 0.11081 0.84212 0.0
O108 O 0.03233 0.94942 0.82541 0.0
O109 O 0.17886 0.02348 0.90537 0.0
O110 O 0.17632 1.00892 0.07026 0.0
O111 O 0.89628 0.0223 0.90116 0.0
O112 O 0.89422 1.00669 0.06637 0.0
H113 H 0.9233 0.27094 0.44976 0.0
H114 H 0.02237 0.24489 0.13136 0.0
H115 H 0.95535 0.41149 0.34229 0.0
H116 H 1.00068 0.10635 0.2451 0.0
H117 H 0.99613 0.30659 0.20661 0.0
H118 H 0.94775 0.21016 0.37311 0.0
C119 C 0.93543 0.28898 0.40984 0.0
C120 C 0.93787 0.34632 0.40249 0.0
C121 C 0.99733 0.26271 0.21511 0.0
C122 C 0.9659 0.27691 0.31437 0.0
C123 C 1.01249 0.22733 0.1722 0.0
C124 C 1.01384 0.17011 0.18175 0.0
C125 C 0.98319 0.24084 0.26798 0.0
C126 C 1.00049 0.15005 0.23564 0.0
C127 C 0.94937 0.25425 0.36608 0.0
C128 C 0.95282 0.3675 0.3496 0.0
N129 N 0.98557 0.18536 0.27658 0.0
N130 N 0.96662 0.33274 0.30757 0.0
H131 H 0.71686 0.94479 0.41549 0.0
H132 H 0.81095 0.0394 0.10882 0.0
H133 H 0.65543 0.08679 0.32718 0.0
H134 H 0.91002 0.95324 0.22658 0.0
H135 H 0.74225 0.03898 0.17944 0.0
H136 H 0.77573 0.92917 0.33631 0.0
C137 C 0.71518 0.97227 0.37923 0.0
C138 C 0.68169 0.01787 0.37863 0.0
C139 C 0.77891 0.01985 0.18962 0.0
C140 C 0.74829 0.99945 0.28774 0.0
C141 C 0.81819 0.0199 0.14936 0.0
C142 C 0.86652 0.99656 0.16195 0.0
C143 C 0.78765 0.99571 0.24268 0.0
C144 C 0.87356 0.97217 0.21532 0.0
C145 C 0.74879 0.96324 0.33417 0.0
C146 C 0.68028 0.05105 0.32973 0.0
N147 N 0.83447 0.97237 0.25384 0.0
N148 N 0.71346 0.04144 0.28645 0.0
H149 H 0.89508 0.62825 0.32145 0.0
H150 H 0.08095 0.85674 0.21141 0.0
H151 H 0.04229 0.65838 0.4004 0.0
H152 H 0.98263 0.77033 0.09545 0.0
H153 H 0.06715 0.78338 0.28125 0.0
H154 H 0.92612 0.67635 0.23648 0.0
C155 C 0.93434 0.6437 0.32042 0.0
C156 C 0.96575 0.64051 0.3685 0.0
C157 C 0.04929 0.77994 0.24018 0.0
C158 C 1.00083 0.69642 0.27234 0.0
C159 C 0.0569 0.82193 0.20055 0.0
C160 C 0.03263 0.81952 0.14796 0.0
C161 C 1.01604 0.73608 0.22762 0.0
C162 C 1.00209 0.77346 0.13566 0.0
C163 C 0.95193 0.67133 0.27204 0.0
C164 C 1.01626 0.66143 0.36485 0.0
N165 N 0.99377 0.73391 0.17572 0.0
N166 N 0.03185 0.68956 0.31808 0.0
H167 H 0.41825 0.09458 0.32826 0.0
H168 H 0.15631 0.95994 0.23094 0.0
H169 H 0.3522 0.95392 0.41538 0.0
H170 H 0.25787 0.04544 0.11449 0.0
H171 H 0.2253 0.96092 0.30166 0.0
H172 H 0.35941 0.07898 0.24995 0.0
C173 C 0.39231 0.05963 0.33053 0.0
C174 C 0.38986 0.02597 0.37904 0.0
C175 C 0.23247 0.979 0.26039 0.0
C176 C 0.32104 1.00923 0.29018 0.0
C177 C 0.19304 0.97887 0.22027 0.0
C178 C 0.2013 1.00278 0.16686 0.0
C179 C 0.28002 1.00415 0.24727 0.0
C180 C 0.24982 0.02633 0.15506 0.0
C181 C 0.35832 0.0511 0.28592 0.0
C182 C 0.35462 0.98183 0.37954 0.0
N183 N 0.28714 0.02692 0.19512 0.0
N184 N 0.32096 0.97533 0.33628 0.0
H185 H 0.95842 0.61161 0.6325 0.0
H186 H 1.01042 0.92228 0.72675 0.0
H187 H 0.9325 0.75437 0.52629 0.0
H188 H 0.02394 0.78263 0.84045 0.0
H189 H 0.98555 0.86013 0.65179 0.0
H190 H 0.98361 0.67266 0.70942 0.0
C191 C 0.95757 0.65576 0.62558 0.0
C192 C 0.94387 0.67797 0.57283 0.0
C193 C 0.99412 0.84302 0.6931 0.0
C194 C 0.97323 0.74782 0.65998 0.0
C195 C 1.00868 0.87854 0.73596 0.0
C196 C 1.01928 0.85784 0.79023 0.0
C197 C 0.99013 0.78627 0.70435 0.0
C198 C 1.01605 0.80063 0.79939 0.0
C199 C 0.97229 0.69054 0.66927 0.0
C200 C 0.94375 0.73545 0.56596 0.0
N201 N 1.00163 0.76687 0.75693 0.0
N202 N 0.95843 0.76829 0.60887 0.0
H203 H 0.31843 0.10439 0.54 0.0
H204 H 0.26822 1.01042 0.86 0.0
H205 H 0.43552 0.02376 0.64007 0.0
H206 H 0.15045 0.06654 0.74406 0.0
H207 H 0.33317 0.02384 0.7854 0.0
H208 H 0.26007 0.10158 0.62057 0.0
C209 C 0.3318 0.08621 0.57929 0.0
C210 C 0.38136 0.06341 0.58338 0.0
C211 C 0.29308 0.03322 0.77657 0.0
C212 C 0.31468 0.05972 0.67596 0.0
C213 C 0.25599 0.02561 0.81903 0.0
C214 C 0.20366 0.03691 0.80818 0.0
C215 C 0.27765 0.05273 0.72325 0.0
C216 C 0.1901 0.05658 0.75437 0.0
C217 C 0.29851 0.08456 0.62529 0.0
C218 C 0.39735 0.04143 0.63541 0.0
N219 N 0.2268 0.06381 0.71411 0.0
N220 N 0.36378 0.03955 0.67981 0.0
H221 H 0.89568 0.40015 0.6545 0.0
H222 H 0.08209 0.17068 0.7612 0.0
H223 H 0.04046 0.36639 0.57092 0.0
H224 H 0.98371 0.25692 0.87794 0.0
H225 H 0.06808 0.24391 0.69145 0.0
H226 H 0.92781 0.35244 0.73896 0.0
C227 C 0.93468 0.38397 0.6544 0.0
C228 C 0.96502 0.38601 0.60526 0.0
C229 C 0.05024 0.24734 0.73266 0.0
C230 C 1.00136 0.33058 0.70083 0.0
C231 C 0.05798 0.20541 0.77226 0.0
C232 C 0.03369 0.20773 0.82504 0.0
C233 C 1.01691 0.29111 0.74547 0.0
C234 C 1.00315 0.25376 0.83758 0.0
C235 C 0.9529 0.35656 0.70249 0.0
C236 C 1.01523 0.36424 0.60742 0.0
N237 N 0.99475 0.29327 0.79758 0.0
N238 N 0.03144 0.3364 0.65397 0.0
H239 H 0.63652 0.02839 0.64124 0.0
H240 H 0.92921 0.06759 0.74055 0.0
H241 H 0.76 0.09124 0.53614 0.0
H242 H 0.80818 1.01365 0.85452 0.0
H243 H 0.86556 0.07921 0.66662 0.0
H244 H 0.69621 0.02658 0.72197 0.0
C245 C 0.676 0.04223 0.63543 0.0
C246 C 0.69379 0.05904 0.58201 0.0
C247 C 0.85271 0.06494 0.70778 0.0
C248 C 0.7618 0.05704 0.67319 0.0
C249 C 0.88922 0.05805 0.75014 0.0
C250 C 0.87421 0.03918 0.80389 0.0
C251 C 0.8006 0.05264 0.71881 0.0
C252 C 0.82156 0.02817 0.81367 0.0
C253 C 0.71001 0.04103 0.68125 0.0
C254 C 0.74511 0.0768 0.57643 0.0
N255 N 0.78661 0.03477 0.77138 0.0
N256 N 0.7773 0.07499 0.62128 0.0
H257 H 0.30885 0.46177 0.04469 0.0
H258 H 0.26545 0.14271 0.97678 0.0
H259 H 0.42876 0.36142 0.97203 0.0
H260 H 0.14606 0.25453 0.03131 0.0
H261 H 0.32809 0.21857 0.98043 0.0
H262 H 0.25138 0.38273 0.04612 0.0
C263 C 0.32302 0.42303 0.02859 0.0
C264 C 0.37344 0.41856 0.00713 0.0
C265 C 0.28818 0.22627 -0.00832 0.0
C266 C 0.30752 0.32689 0.00934 0.0
C267 C 0.25236 0.18297 -0.01024 0.0
C268 C 0.20015 0.1921 0.00352 0.0
C269 C 0.27171 0.27892 0.00783 0.0
C270 C 0.18562 0.24528 0.01987 0.0
C271 C 0.29016 0.37768 0.02969 0.0
C272 C 0.39008 0.36672 -0.01137 0.0
N273 N 0.22107 0.2864 0.02152 0.0
N274 N 0.35706 0.32287 -0.01021 0.0
H275 H 0.41801 0.66458 0.05131 0.0
H276 H 0.15691 0.78105 0.92426 0.0
H277 H 0.3441 0.59331 0.90636 0.0
H278 H 0.26144 0.88454 0.01695 0.0
H279 H 0.22332 0.70958 0.92161 0.0
H280 H 0.36131 0.74474 0.04208 0.0
C281 C 0.39073 0.66611 0.01681 0.0
C282 C 0.38563 0.62149 0.97996 0.0
C283 C 0.23188 0.74809 0.94217 0.0
C284 C 0.3194 0.71264 0.97041 0.0
C285 C 0.19384 0.78881 0.94403 0.0
C286 C 0.2035 0.83889 0.97101 0.0
C287 C 0.27974 0.75691 0.96837 0.0
C288 C 0.25233 0.84666 -0.00448 0.0
C289 C 0.35802 0.7118 0.01191 0.0
C290 C 0.34877 0.62592 0.93664 0.0
N291 N 0.28843 0.80589 -0.00583 0.0
N292 N 0.31664 0.67012 0.93362 0.0
H293 H 0.63753 0.3574 0.95991 0.0
H294 H 0.92277 0.25095 0.03356 0.0
H295 H 0.75343 0.45047 0.04785 0.0
H296 H 0.80637 0.14177 0.96788 0.0
H297 H 0.8593 0.32409 0.03705 0.0
H298 H 0.69606 0.27699 0.9615 0.0
C299 C 0.67501 0.36077 0.97975 0.0
C300 C 0.6911 0.41095 0.00272 0.0
C301 C 0.84729 0.28419 0.02198 0.0
C302 C 0.75779 0.3199 0.00477 0.0
C303 C 0.88379 0.24222 0.01975 0.0
C304 C 0.87015 0.18995 0.00012 0.0
C305 C 0.79641 0.27447 0.00413 0.0
C306 C 0.81864 0.1814 -0.0166 0.0
C307 C 0.70838 0.31507 0.98056 0.0
C308 C 0.73989 0.41308 0.02831 0.0
N309 N 0.78363 0.22335 -0.01454 0.0
N310 N 0.77138 0.36858 0.02828 0.0
H311 H 0.75916 0.57116 0.03677 0.0
H312 H 0.80584 0.88813 0.95969 0.0
H313 H 0.64098 0.66792 0.95447 0.0
H314 H 0.92655 0.77008 -0.00467 0.0
H315 H 0.74207 0.81309 0.96495 0.0
H316 H 0.81744 0.64906 0.03112 0.0
C317 C 0.74554 0.60881 0.01689 0.0
C318 C 0.69542 0.6124 -0.00539 0.0
C319 C 0.78258 0.80388 0.97137 0.0
C320 C 0.76241 0.70302 -0.01106 0.0
C321 C 0.81903 0.84661 0.9685 0.0
C322 C 0.87184 0.83557 0.97704 0.0
C323 C 0.79906 0.74998 -0.01639 0.0
C324 C 0.88651 0.7809 -0.01185 0.0
C325 C 0.77894 0.65351 0.0139 0.0
C326 C 0.67947 0.6632 0.9716 0.0
N327 N 0.85041 0.74048 -0.00864 0.0
N328 N 0.71303 0.70663 0.96905 0.0
loop_
_geom_bond_atom_site_label_1
_geom_bond_atom_site_label_2
_geom_bond_distance
_geom_bond_site_symmetry_2
_ccdc_geom_bond_type
H0 C8 0.930 . S
H1 C11 0.930 . S
H2 C13 0.930 . S
H3 C14 0.970 . S
H4 C14 0.970 . S
H5 C16 0.930 . S
H6 C18 0.930 . S
H7 C20 0.930 . S
C8 H0 0.930 . S
C8 C9 1.382 . S
C8 C10 1.426 . S
C9 C8 1.382 . S
C9 C13 1.389 1_655 S
C10 C8 1.426 . S
C10 C11 1.375 . S
C10 C14 1.532 . S
C11 H1 0.930 . S
C11 C10 1.375 . S
C11 C12 1.416 . S
C12 C11 1.416 . S
C12 C13 1.371 1_655 S
C13 H2 0.930 . S
C13 C9 1.389 1_455 S
C13 C12 1.371 1_455 S
C14 H3 0.970 . S
C14 H4 0.970 . S
C14 C10 1.532 . S
C14 C15 1.499 . S
C15 C14 1.499 . S
C15 C16 1.370 . S
C15 C20 1.415 . S
C16 H5 0.930 . S
C16 C15 1.370 . S
C16 C17 1.407 . S
C17 C16 1.407 . S
C17 C18 1.365 1_655 S
C18 H6 0.930 . S
C18 C17 1.365 1_455 S
C18 C19 1.393 1_455 S
C19 C18 1.393 1_655 S
C19 C20 1.387 . S
C20 H7 0.930 . S
C20 C15 1.415 . S
C20 C19 1.387 . S
H21 C29 0.930 . S
H22 C32 0.930 . S
H23 C34 0.933 . S
H24 C35 0.970 . S
H25 C35 0.970 . S
H26 C37 0.930 . S
H27 C39 0.930 . S
H28 C41 0.930 . S
C29 H21 0.930 . S
C29 C30 1.382 . S
C29 C31 1.426 . S
C30 C29 1.382 . S
C30 C34 1.387 1_545 S
C31 C29 1.426 . S
C31 C32 1.375 . S
C31 C35 1.532 . S
C32 H22 0.930 . S
C32 C31 1.375 . S
C32 C33 1.416 . S
C33 C32 1.416 . S
C33 C34 1.370 1_545 S
C34 H23 0.933 . S
C34 C30 1.387 1_565 S
C34 C33 1.370 1_565 S
C35 H24 0.970 . S
C35 H25 0.970 . S
C35 C31 1.532 . S
C35 C36 1.499 . S
C36 C35 1.499 . S
C36 C37 1.370 . S
C36 C41 1.415 . S
C37 H26 0.930 . S
C37 C36 1.370 . S
C37 C38 1.407 . S
C38 C37 1.407 . S
C38 C39 1.365 1_545 S
C39 H27 0.930 . S
C39 C38 1.365 1_565 S
C39 C40 1.393 1_565 S
C40 C39 1.393 1_545 S
C40 C41 1.387 . S
C41 H28 0.930 . S
C41 C36 1.415 . S
C41 C40 1.387 . S
H42 C50 0.930 . S
H43 C53 0.930 . S
H44 C55 0.930 . S
H45 C56 0.970 . S
H46 C56 0.970 . S
H47 C58 0.930 . S
H48 C60 0.930 . S
H49 C62 0.930 . S
C50 H42 0.930 . S
C50 C51 1.382 . S
C50 C52 1.426 . S
C51 C50 1.382 . S
C51 C55 1.389 1_554 S
C52 C50 1.426 . S
C52 C53 1.375 . S
C52 C56 1.532 . S
C53 H43 0.930 . S
C53 C52 1.375 . S
C53 C54 1.416 . S
C54 C53 1.416 . S
C54 C55 1.371 1_554 S
C55 H44 0.930 . S
C55 C51 1.389 1_556 S
C55 C54 1.371 1_556 S
C56 H45 0.970 . S
C56 H46 0.970 . S
C56 C52 1.532 . S
C56 C57 1.499 . S
C57 C56 1.499 . S
C57 C58 1.370 . S
C57 C62 1.415 . S
C58 H47 0.930 . S
C58 C57 1.370 . S
C58 C59 1.407 . S
C59 C58 1.407 . S
C59 C60 1.365 1_554 S
C60 H48 0.930 . S
C60 C59 1.365 1_556 S
C60 C61 1.393 1_556 S
C61 C60 1.393 1_554 S
C61 C62 1.387 . S
C62 H49 0.930 . S
C62 C57 1.415 . S
C62 C61 1.387 . S
C63 O89 1.283 . S
C63 O107 1.283 . S
C64 O90 1.283 . S
C64 O105 1.283 1_455 S
C65 O91 1.283 . S
C65 O108 1.283 . S
C66 O92 1.283 . S
C66 O106 1.283 . S
C67 O93 1.283 . S
C67 O102 1.283 . S
C68 O94 1.283 . S
C68 O104 1.283 . S
C69 O95 1.283 . S
C69 O101 1.283 . S
C70 O96 1.283 . S
C70 O103 1.283 . S
C71 O97 1.283 . S
C71 O112 1.283 . S
C72 O98 1.283 . S
C72 O110 1.283 . S
C73 O99 1.283 . S
C73 O111 1.283 . S
C74 O100 1.283 . S
C74 O109 1.283 . S
Eu75 O76 2.374 . S
Eu75 O77 2.366 1_454 S
Eu75 O80 2.374 1_554 S
Eu75 O81 2.366 1_455 S
Eu75 O89 2.363 1_554 S
Eu75 O90 2.363 . S
Eu75 O103 2.356 1_455 S
Eu75 O104 2.370 . S
O76 Eu75 2.374 . S
O76 Eu78 2.370 . S
O76 Eu83 2.369 1_455 S
O77 Eu75 2.366 1_656 S
O77 Eu79 2.370 1_556 S
O77 Eu82 2.365 1_655 S
Eu78 O76 2.370 . S
Eu78 O80 2.370 1_554 S
Eu78 O84 2.370 1_544 S
Eu78 O85 2.370 1_545 S
Eu78 O93 2.363 1_545 S
Eu78 O94 2.363 . S
Eu78 O109 2.363 1_554 S
Eu78 O110 2.363 . S
Eu79 O77 2.370 1_554 S
Eu79 O81 2.370 . S
Eu79 O86 2.370 1_545 S
Eu79 O87 2.370 1_544 S
Eu79 O95 2.363 1_545 S
Eu79 O96 2.363 . S
Eu79 O111 2.363 1_554 S
Eu79 O112 2.363 . S
O80 Eu75 2.374 1_556 S
O80 Eu78 2.370 1_556 S
O80 Eu82 2.375 . S
O81 Eu75 2.366 1_655 S
O81 Eu79 2.370 . S
O81 Eu83 2.371 . S
Eu82 O77 2.365 1_455 S
Eu82 O80 2.375 . S
Eu82 O84 2.375 1_545 S
Eu82 O87 2.365 1_445 S
Eu82 O99 2.355 1_455 S
Eu82 O100 2.371 . S
Eu82 O107 2.363 . S
Eu82 O108 2.363 1_545 S
Eu83 O76 2.369 1_655 S
Eu83 O81 2.371 . S
Eu83 O85 2.369 1_645 S
Eu83 O86 2.371 1_545 S
Eu83 O97 2.365 . S
Eu83 O98 2.361 1_655 S
Eu83 O105 2.363 . S
Eu83 O106 2.363 1_545 S
O84 Eu78 2.370 1_566 S
O84 Eu82 2.375 1_565 S
O84 Eu88 2.370 1_456 S
O85 Eu78 2.370 1_565 S
O85 Eu83 2.369 1_465 S
O85 Eu88 2.370 1_455 S
O86 Eu79 2.370 1_565 S
O86 Eu83 2.371 1_565 S
O86 Eu88 2.371 . S
O87 Eu79 2.370 1_566 S
O87 Eu82 2.365 1_665 S
O87 Eu88 2.371 1_556 S
Eu88 O84 2.370 1_654 S
Eu88 O85 2.370 1_655 S
Eu88 O86 2.371 . S
Eu88 O87 2.371 1_554 S
Eu88 O91 2.363 1_654 S
Eu88 O92 2.363 . S
Eu88 O101 2.364 . S
Eu88 O102 2.362 1_655 S
O89 C63 1.283 . S
O89 Eu75 2.363 1_556 S
O90 C64 1.283 . S
O90 Eu75 2.363 . S
O91 C65 1.283 . S
O91 Eu88 2.363 1_456 S
O92 C66 1.283 . S
O92 Eu88 2.363 . S
O93 C67 1.283 . S
O93 Eu78 2.363 1_565 S
O94 C68 1.283 . S
O94 Eu78 2.363 . S
O95 C69 1.283 . S
O95 Eu79 2.363 1_565 S
O96 C70 1.283 . S
O96 Eu79 2.363 . S
O97 C71 1.283 . S
O97 Eu83 2.365 . S
O98 C72 1.283 . S
O98 Eu83 2.361 1_455 S
O99 C73 1.283 . S
O99 Eu82 2.355 1_655 S
O100 C74 1.283 . S
O100 Eu82 2.371 . S
O101 C69 1.283 . S
O101 Eu88 2.364 . S
O102 C67 1.283 . S
O102 Eu88 2.362 1_455 S
O103 C70 1.283 . S
O103 Eu75 2.356 1_655 S
O104 C68 1.283 . S
O104 Eu75 2.370 . S
O105 C64 1.283 1_655 S
O105 Eu83 2.363 . S
O106 C66 1.283 . S
O106 Eu83 2.363 1_565 S
O107 C63 1.283 . S
O107 Eu82 2.363 . S
O108 C65 1.283 . S
O108 Eu82 2.363 1_565 S
O109 C74 1.283 . S
O109 Eu78 2.363 1_556 S
O110 C72 1.283 . S
O110 Eu78 2.363 . S
O111 C73 1.283 . S
O111 Eu79 2.363 1_556 S
O112 C71 1.283 . S
O112 Eu79 2.363 . S
H113 C119 0.930 . S
H114 C123 0.930 . S
H115 C128 0.929 . S
H116 C126 0.929 . S
H117 C121 0.929 . S
H118 C127 0.929 . S
C119 H113 0.930 . S
C119 C120 1.367 . S
C119 C127 1.378 . S
C120 C119 1.367 . S
C120 C128 1.433 1_655 S
C121 H117 0.929 . S
C121 C123 1.378 . S
C121 C125 1.350 1_455 S
C122 C125 1.462 . S
C122 C127 1.350 . S
C122 N130 1.427 1_655 S
C123 H114 0.930 . S
C123 C121 1.378 . S
C123 C124 1.382 . S
C124 C123 1.382 . S
C124 C126 1.417 1_455 S
C125 C121 1.350 1_655 S
C125 C122 1.462 . S
C125 N129 1.427 . S
C126 H116 0.929 . S
C126 C124 1.417 1_655 S
C126 N129 1.384 . S
C127 H118 0.929 . S
C127 C119 1.378 . S
C127 C122 1.350 . S
C128 H115 0.929 . S
C128 C120 1.433 1_455 S
C128 N130 1.384 . S
N129 C125 1.427 . S
N129 C126 1.384 . S
N130 C122 1.427 1_455 S
N130 C128 1.384 . S
H131 C137 0.930 . S
H132 C141 0.930 . S
H133 C146 0.929 . S
H134 C144 0.929 . S
H135 C139 0.929 . S
H136 C145 0.929 . S
C137 H131 0.930 . S
C137 C138 1.376 . S
C137 C145 1.378 . S
C138 C137 1.376 . S
C138 C146 1.424 1_565 S
C139 H135 0.929 . S
C139 C141 1.378 . S
C139 C143 1.350 . S
C140 C143 1.462 . S
C140 C145 1.351 1_545 S
C140 N148 1.426 . S
C141 H132 0.930 . S
C141 C139 1.378 . S
C141 C142 1.367 . S
C142 C141 1.367 . S
C142 C144 1.433 1_545 S
C143 C139 1.350 . S
C143 C140 1.462 . S
C143 N147 1.427 1_545 S
C144 H134 0.929 . S
C144 C142 1.433 1_565 S
C144 N147 1.384 . S
C145 H136 0.929 . S
C145 C137 1.378 . S
C145 C140 1.351 1_565 S
C146 H133 0.929 . S
C146 C138 1.424 1_545 S
C146 N148 1.384 . S
N147 C143 1.427 1_565 S
N147 C144 1.384 . S
N148 C140 1.426 . S
N148 C146 1.384 . S
H149 C155 0.930 . S
H150 C159 0.930 . S
H151 C164 0.929 . S
H152 C162 0.929 . S
H153 C157 0.929 . S
H154 C163 0.929 . S
C155 H149 0.930 . S
C155 C156 1.367 1_655 S
C155 C163 1.378 . S
C156 C155 1.367 1_455 S
C156 C164 1.433 . S
C157 H153 0.929 . S
C157 C159 1.378 . S
C157 C161 1.350 . S
C158 C161 1.463 . S
C158 C163 1.350 1_455 S
C158 N166 1.427 . S
C159 H150 0.930 . S
C159 C157 1.378 . S
C159 C160 1.372 . S
C160 C159 1.372 . S
C160 C162 1.428 1_455 S
C161 C157 1.350 . S
C161 C158 1.463 . S
C161 N165 1.427 1_455 S
C162 H152 0.929 . S
C162 C160 1.428 1_655 S
C162 N165 1.384 . S
C163 H154 0.929 . S
C163 C155 1.378 . S
C163 C158 1.350 1_655 S
C164 H151 0.929 . S
C164 C156 1.433 . S
C164 N166 1.384 . S
N165 C161 1.427 1_655 S
N165 C162 1.384 . S
N166 C158 1.427 . S
N166 C164 1.384 . S
H167 C173 0.930 . S
H168 C177 0.930 . S
H169 C182 0.929 . S
H170 C180 0.929 . S
H171 C175 0.929 . S
H172 C181 0.929 . S
C173 H167 0.930 . S
C173 C174 1.367 . S
C173 C181 1.378 . S
C174 C173 1.367 . S
C174 C182 1.433 1_545 S
C175 H171 0.929 . S
C175 C177 1.378 . S
C175 C179 1.350 1_565 S
C176 C179 1.463 . S
C176 C181 1.350 . S
C176 N184 1.427 1_545 S
C177 H168 0.930 . S
C177 C175 1.378 . S
C177 C178 1.367 1_565 S
C178 C177 1.367 1_545 S
C178 C180 1.433 . S
C179 C175 1.350 1_545 S
C179 C176 1.463 . S
C179 N183 1.427 . S
C180 H170 0.929 . S
C180 C178 1.433 . S
C180 N183 1.384 . S
C181 H172 0.929 . S
C181 C173 1.378 . S
C181 C176 1.350 . S
C182 H169 0.929 . S
C182 C174 1.433 1_565 S
C182 N184 1.384 . S
N183 C179 1.427 . S
N183 C180 1.384 . S
N184 C176 1.427 1_565 S
N184 C182 1.384 . S
H185 C191 0.930 . S
H186 C195 0.930 . S
H187 C200 0.929 . S
H188 C198 0.929 . S
H189 C193 0.929 . S
H190 C199 0.929 . S
C191 H185 0.930 . S
C191 C192 1.367 1_455 S
C191 C199 1.378 . S
C192 C191 1.367 1_655 S
C192 C200 1.433 . S
C193 H189 0.929 . S
C193 C195 1.378 . S
C193 C197 1.350 . S
C194 C197 1.463 . S
C194 C199 1.350 1_655 S
C194 N202 1.427 . S
C195 H186 0.930 . S
C195 C193 1.378 . S
C195 C196 1.370 . S
C196 C195 1.370 . S
C196 C198 1.431 1_655 S
C197 C193 1.350 . S
C197 C194 1.463 . S
C197 N201 1.427 1_655 S
C198 H188 0.929 . S
C198 C196 1.431 1_455 S
C198 N201 1.384 . S
C199 H190 0.929 . S
C199 C191 1.378 . S
C199 C194 1.350 1_455 S
C200 H187 0.929 . S
C200 C192 1.433 . S
C200 N202 1.384 . S
N201 C197 1.427 1_455 S
N201 C198 1.384 . S
N202 C194 1.427 . S
N202 C200 1.384 . S
H203 C209 0.930 . S
H204 C213 0.930 . S
H205 C218 0.929 . S
H206 C216 0.929 . S
H207 C211 0.929 . S
H208 C217 0.929 . S
C209 H203 0.930 . S
C209 C210 1.365 1_565 S
C209 C217 1.378 . S
C210 C209 1.365 1_545 S
C210 C218 1.435 . S
C211 H207 0.929 . S
C211 C213 1.378 . S
C211 C215 1.350 . S
C212 C215 1.463 . S
C212 C217 1.350 1_545 S
C212 N220 1.427 . S
C213 H204 0.930 . S
C213 C211 1.378 . S
C213 C214 1.367 . S
C214 C213 1.367 . S
C214 C216 1.433 1_545 S
C215 C211 1.350 . S
C215 C212 1.463 . S
C215 N219 1.427 1_545 S
C216 H206 0.929 . S
C216 C214 1.433 1_565 S
C216 N219 1.384 . S
C217 H208 0.929 . S
C217 C209 1.378 . S
C217 C212 1.350 1_565 S
C218 H205 0.929 . S
C218 C210 1.435 . S
C218 N220 1.384 . S
N219 C215 1.427 1_565 S
N219 C216 1.384 . S
N220 C212 1.427 . S
N220 C218 1.384 . S
H221 C227 0.930 . S
H222 C231 0.930 . S
H223 C236 0.929 . S
H224 C234 0.929 . S
H225 C229 0.929 . S
H226 C235 0.929 . S
C227 H221 0.930 . S
C227 C228 1.367 1_655 S
C227 C235 1.378 . S
C228 C227 1.367 1_455 S
C228 C236 1.433 . S
C229 H225 0.929 . S
C229 C231 1.378 . S
C229 C233 1.350 . S
C230 C233 1.463 . S
C230 C235 1.350 1_455 S
C230 N238 1.427 . S
C231 H222 0.930 . S
C231 C229 1.378 . S
C231 C232 1.367 . S
C232 C231 1.367 . S
C232 C234 1.433 1_455 S
C233 C229 1.350 . S
C233 C230 1.463 . S
C233 N237 1.427 1_455 S
C234 H224 0.929 . S
C234 C232 1.433 1_655 S
C234 N237 1.384 . S
C235 H226 0.929 . S
C235 C227 1.378 . S
C235 C230 1.350 1_655 S
C236 H223 0.929 . S
C236 C228 1.433 . S
C236 N238 1.384 . S
N237 C233 1.427 1_655 S
N237 C234 1.384 . S
N238 C230 1.427 . S
N238 C236 1.384 . S
H239 C245 0.930 . S
H240 C249 0.930 1_565 S
H241 C254 0.929 1_565 S
H242 C252 0.929 . S
H243 C247 0.929 1_565 S
H244 C253 0.929 . S
C245 H239 0.930 . S
C245 C246 1.367 . S
C245 C253 1.378 . S
C246 C245 1.367 . S
C246 C254 1.433 . S
C247 H243 0.929 1_545 S
C247 C249 1.378 . S
C247 C251 1.350 . S
C248 C251 1.463 . S
C248 C253 1.350 . S
C248 N256 1.427 . S
C249 H240 0.930 1_545 S
C249 C247 1.378 . S
C249 C250 1.367 . S
C250 C249 1.367 . S
C250 C252 1.433 . S
C251 C247 1.350 . S
C251 C248 1.463 . S
C251 N255 1.427 . S
C252 H242 0.929 . S
C252 C250 1.433 . S
C252 N255 1.384 . S
C253 H244 0.929 . S
C253 C245 1.378 . S
C253 C248 1.350 . S
C254 H241 0.929 1_545 S
C254 C246 1.433 . S
C254 N256 1.384 . S
N255 C251 1.427 . S
N255 C252 1.384 . S
N256 C248 1.427 . S
N256 C254 1.384 . S
H257 C263 0.930 . S
H258 C267 0.930 . S
H259 C272 0.929 . S
H260 C270 0.929 . S
H261 C265 0.929 . S
H262 C271 0.929 . S
C263 H257 0.930 . S
C263 C264 1.372 . S
C263 C271 1.378 . S
C264 C263 1.372 . S
C264 C272 1.428 1_554 S
C265 H261 0.929 . S
C265 C267 1.378 . S
C265 C269 1.363 . S
C266 C269 1.462 1_554 S
C266 C271 1.350 . S
C266 N274 1.427 1_554 S
C267 H258 0.930 . S
C267 C265 1.378 . S
C267 C268 1.352 1_556 S
C268 C267 1.352 1_554 S
C268 C270 1.448 . S
C269 C265 1.363 . S
C269 C266 1.462 1_556 S
C269 N273 1.414 1_556 S
C270 H260 0.929 . S
C270 C268 1.448 . S
C270 N273 1.384 . S
C271 H262 0.929 . S
C271 C263 1.378 . S
C271 C266 1.350 . S
C272 H259 0.929 . S
C272 C264 1.428 1_556 S
C272 N274 1.384 . S
N273 C269 1.414 1_554 S
N273 C270 1.384 . S
N274 C266 1.427 1_556 S
N274 C272 1.384 . S
H275 C281 0.930 . S
H276 C285 0.930 . S
H277 C290 0.929 . S
H278 C288 0.929 . S
H279 C283 0.929 . S
H280 C289 0.929 . S
C281 H275 0.930 . S
C281 C282 1.367 . S
C281 C289 1.378 . S
C282 C281 1.367 . S
C282 C290 1.433 1_554 S
C283 H279 0.929 . S
C283 C285 1.378 . S
C283 C287 1.350 1_556 S
C284 C287 1.463 . S
C284 C289 1.350 . S
C284 N292 1.427 1_554 S
C285 H276 0.930 . S
C285 C283 1.378 . S
C285 C286 1.367 1_556 S
C286 C285 1.367 1_554 S
C286 C288 1.433 . S
C287 C283 1.350 1_554 S
C287 C284 1.463 . S
C287 N291 1.427 . S
C288 H278 0.929 . S
C288 C286 1.433 . S
C288 N291 1.384 . S
C289 H280 0.929 . S
C289 C281 1.378 . S
C289 C284 1.350 . S
C290 H277 0.929 . S
C290 C282 1.433 1_556 S
C290 N292 1.384 . S
N291 C287 1.427 . S
N291 C288 1.384 . S
N292 C284 1.427 1_556 S
N292 C290 1.384 . S
H293 C299 0.930 . S
H294 C303 0.930 . S
H295 C308 0.929 . S
H296 C306 0.929 . S
H297 C301 0.929 . S
H298 C307 0.929 . S
C299 H293 0.930 . S
C299 C300 1.367 1_556 S
C299 C307 1.378 . S
C300 C299 1.367 1_554 S
C300 C308 1.433 . S
C301 H297 0.929 . S
C301 C303 1.378 . S
C301 C305 1.350 . S
C302 C305 1.463 . S
C302 C307 1.350 1_554 S
C302 N310 1.427 . S
C303 H294 0.930 . S
C303 C301 1.378 . S
C303 C304 1.367 . S
C304 C303 1.367 . S
C304 C306 1.433 1_554 S
C305 C301 1.350 . S
C305 C302 1.463 . S
C305 N309 1.427 1_554 S
C306 H296 0.929 . S
C306 C304 1.433 1_556 S
C306 N309 1.384 . S
C307 H298 0.929 . S
C307 C299 1.378 . S
C307 C302 1.350 1_556 S
C308 H295 0.929 . S
C308 C300 1.433 . S
C308 N310 1.384 . S
N309 C305 1.427 1_556 S
N309 C306 1.384 . S
N310 C302 1.427 . S
N310 C308 1.384 . S
H311 C317 0.930 . S
H312 C321 0.930 . S
H313 C326 0.929 . S
H314 C324 0.929 . S
H315 C319 0.929 . S
H316 C325 0.929 . S
C317 H311 0.930 . S
C317 C318 1.371 . S
C317 C325 1.378 . S
C318 C317 1.371 . S
C318 C326 1.429 1_554 S
C319 H315 0.929 . S
C319 C321 1.378 . S
C319 C323 1.344 1_556 S
C320 C323 1.463 . S
C320 C325 1.350 . S
C320 N328 1.427 1_554 S
C321 H312 0.930 . S
C321 C319 1.378 . S
C321 C322 1.367 1_556 S
C322 C321 1.367 1_554 S
C322 C324 1.433 . S
C323 C319 1.344 1_554 S
C323 C320 1.463 . S
C323 N327 1.433 . S
C324 H314 0.929 . S
C324 C322 1.433 . S
C324 N327 1.384 . S
C325 H316 0.929 . S
C325 C317 1.378 . S
C325 C320 1.350 . S
C326 H313 0.929 . S
C326 C318 1.429 1_556 S
C326 N328 1.384 . S
N327 C323 1.433 . S
N327 C324 1.384 . S
N328 C320 1.427 1_556 S
N328 C326 1.384 . S
C124 C64 1.199 . S
C120 C9 1.167 . S
C142 C71 1.558 . S
C138 C38 1.502 1_565 S
C160 C66 1.212 1_455 S
C156 C17 1.179 1_455 S
C178 C72 1.541 . S
C174 C30 1.498 . S
C192 C19 1.178 . S
C196 C65 1.189 1_655 S
C214 C74 1.554 . S
C210 C33 1.486 . S
C228 C12 1.168 1_455 S
C232 C63 1.210 . S
C246 C40 1.501 . S
C250 C73 1.531 . S
C264 C59 1.870 . S
C268 C68 1.927 . S
C282 C61 1.871 . S
C286 C67 1.899 . S
C304 C70 1.909 . S
C300 C51 1.874 . S
C322 C69 1.924 . S
C318 C54 1.854 . S
