# Generated by pormake.
# Topology ptr, (4,4)-cn, num edge types: 1
# Building blocks:
#     Node 0, Type 0, BuildingBlock: QUQFOY_clean_sbu_1, # of connection points: 4
#     Node 1, Type 0, BuildingBlock: QUQFOY_clean_sbu_1, # of connection points: 4
#     Node 2, Type 0, BuildingBlock: QUQFOY_clean_sbu_1, # of connection points: 4
#     Node 3, Type 0, BuildingBlock: QUQFOY_clean_sbu_1, # of connection points: 4
#     Node 4, Type 0, BuildingBlock: QUQFOY_clean_sbu_1, # of connection points: 4
#     Node 5, Type 0, BuildingBlock: QUQFOY_clean_sbu_1, # of connection points: 4
#     Node 6, Type 0, BuildingBlock: QUQFOY_clean_sbu_1, # of connection points: 4
#     Node 7, Type 0, BuildingBlock: QUQFOY_clean_sbu_1, # of connection points: 4
#     Node 8, Type 0, BuildingBlock: QUQFOY_clean_sbu_1, # of connection points: 4
#     Node 9, Type 0, BuildingBlock: QUQFOY_clean_sbu_1, # of connection points: 4
#     Node 10, Type 0, BuildingBlock: QUQFOY_clean_sbu_1, # of connection points: 4
#     Node 11, Type 0, BuildingBlock: QUQFOY_clean_sbu_1, # of connection points: 4
#     Node 12, Type 0, BuildingBlock: QUQFOY_clean_sbu_1, # of connection points: 4
#     Node 13, Type 0, BuildingBlock: QUQFOY_clean_sbu_1, # of connection points: 4
#     Node 14, Type 0, BuildingBlock: QUQFOY_clean_sbu_1, # of connection points: 4
#     Node 15, Type 0, BuildingBlock: QUQFOY_clean_sbu_1, # of connection points: 4
#     Node 16, Type 0, BuildingBlock: QUQFOY_clean_sbu_1, # of connection points: 4
#     Node 17, Type 0, BuildingBlock: QUQFOY_clean_sbu_1, # of connection points: 4
#     Node 18, Type 1, BuildingBlock: NAWXER_clean_linker_0, # of connection points: 4
#     Node 19, Type 1, BuildingBlock: NAWXER_clean_linker_0, # of connection points: 4
#     Node 20, Type 1, BuildingBlock: NAWXER_clean_linker_0, # of connection points: 4
#     Node 21, Type 1, BuildingBlock: NAWXER_clean_linker_0, # of connection points: 4
#     Node 22, Type 1, BuildingBlock: NAWXER_clean_linker_0, # of connection points: 4
#     Node 23, Type 1, BuildingBlock: NAWXER_clean_linker_0, # of connection points: 4
#     Node 24, Type 1, BuildingBlock: NAWXER_clean_linker_0, # of connection points: 4
#     Node 25, Type 1, BuildingBlock: NAWXER_clean_linker_0, # of connection points: 4
#     Node 26, Type 1, BuildingBlock: NAWXER_clean_linker_0, # of connection points: 4
#     Node 27, Type 1, BuildingBlock: NAWXER_clean_linker_0, # of connection points: 4
#     Node 28, Type 1, BuildingBlock: NAWXER_clean_linker_0, # of connection points: 4
#     Node 29, Type 1, BuildingBlock: NAWXER_clean_linker_0, # of connection points: 4
#     Node 30, Type 1, BuildingBlock: NAWXER_clean_linker_0, # of connection points: 4
#     Node 31, Type 1, BuildingBlock: NAWXER_clean_linker_0, # of connection points: 4
#     Node 32, Type 1, BuildingBlock: NAWXER_clean_linker_0, # of connection points: 4
#     Node 33, Type 1, BuildingBlock: NAWXER_clean_linker_0, # of connection points: 4
#     Node 34, Type 1, BuildingBlock: NAWXER_clean_linker_0, # of connection points: 4
#     Node 35, Type 1, BuildingBlock: NAWXER_clean_linker_0, # of connection points: 4
#     Edge 36, Type (0, 1), BuildingBlock: TEMPAE_clean_linker_10, # of connection points: 2
#     Edge 37, Type (0, 1), BuildingBlock: TEMPAE_clean_linker_10, # of connection points: 2
#     Edge 38, Type (0, 1), BuildingBlock: TEMPAE_clean_linker_10, # of connection points: 2
#     Edge 39, Type (0, 1), BuildingBlock: TEMPAE_clean_linker_10, # of connection points: 2
#     Edge 40, Type (0, 1), BuildingBlock: TEMPAE_clean_linker_10, # of connection points: 2
#     Edge 41, Type (0, 1), BuildingBlock: TEMPAE_clean_linker_10, # of connection points: 2
#     Edge 42, Type (0, 1), BuildingBlock: TEMPAE_clean_linker_10, # of connection points: 2
#     Edge 43, Type (0, 1), BuildingBlock: TEMPAE_clean_linker_10, # of connection points: 2
#     Edge 44, Type (0, 1), BuildingBlock: TEMPAE_clean_linker_10, # of connection points: 2
#     Edge 45, Type (0, 1), BuildingBlock: TEMPAE_clean_linker_10, # of connection points: 2
#     Edge 46, Type (0, 1), BuildingBlock: TEMPAE_clean_linker_10, # of connection points: 2
#     Edge 47, Type (0, 1), BuildingBlock: TEMPAE_clean_linker_10, # of connection points: 2
#     Edge 48, Type (0, 1), BuildingBlock: TEMPAE_clean_linker_10, # of connection points: 2
#     Edge 49, Type (0, 1), BuildingBlock: TEMPAE_clean_linker_10, # of connection points: 2
#     Edge 50, Type (0, 1), BuildingBlock: TEMPAE_clean_linker_10, # of connection points: 2
#     Edge 51, Type (0, 1), BuildingBlock: TEMPAE_clean_linker_10, # of connection points: 2
#     Edge 52, Type (0, 1), BuildingBlock: TEMPAE_clean_linker_10, # of connection points: 2
#     Edge 53, Type (0, 1), BuildingBlock: TEMPAE_clean_linker_10, # of connection points: 2
#     Edge 54, Type (0, 1), BuildingBlock: TEMPAE_clean_linker_10, # of connection points: 2
#     Edge 55, Type (0, 1), BuildingBlock: TEMPAE_clean_linker_10, # of connection points: 2
#     Edge 56, Type (0, 1), BuildingBlock: TEMPAE_clean_linker_10, # of connection points: 2
#     Edge 57, Type (0, 1), BuildingBlock: TEMPAE_clean_linker_10, # of connection points: 2
#     Edge 58, Type (0, 1), BuildingBlock: TEMPAE_clean_linker_10, # of connection points: 2
#     Edge 59, Type (0, 1), BuildingBlock: TEMPAE_clean_linker_10, # of connection points: 2
#     Edge 60, Type (0, 1), BuildingBlock: TEMPAE_clean_linker_10, # of connection points: 2
#     Edge 61, Type (0, 1), BuildingBlock: TEMPAE_clean_linker_10, # of connection points: 2
#     Edge 62, Type (0, 1), BuildingBlock: TEMPAE_clean_linker_10, # of connection points: 2
#     Edge 63, Type (0, 1), BuildingBlock: TEMPAE_clean_linker_10, # of connection points: 2
#     Edge 64, Type (0, 1), BuildingBlock: TEMPAE_clean_linker_10, # of connection points: 2
#     Edge 65, Type (0, 1), BuildingBlock: TEMPAE_clean_linker_10, # of connection points: 2
#     Edge 66, Type (0, 1), BuildingBlock: TEMPAE_clean_linker_10, # of connection points: 2
#     Edge 67, Type (0, 1), BuildingBlock: TEMPAE_clean_linker_10, # of connection points: 2
#     Edge 68, Type (0, 1), BuildingBlock: TEMPAE_clean_linker_10, # of connection points: 2
#     Edge 69, Type (0, 1), BuildingBlock: TEMPAE_clean_linker_10, # of connection points: 2
#     Edge 70, Type (0, 1), BuildingBlock: TEMPAE_clean_linker_10, # of connection points: 2
#     Edge 71, Type (0, 1), BuildingBlock: TEMPAE_clean_linker_10, # of connection points: 2
#     Edge 72, Type (0, 1), BuildingBlock: TEMPAE_clean_linker_10, # of connection points: 2
#     Edge 73, Type (0, 1), BuildingBlock: TEMPAE_clean_linker_10, # of connection points: 2
#     Edge 74, Type (0, 1), BuildingBlock: TEMPAE_clean_linker_10, # of connection points: 2
#     Edge 75, Type (0, 1), BuildingBlock: TEMPAE_clean_linker_10, # of connection points: 2
#     Edge 76, Type (0, 1), BuildingBlock: TEMPAE_clean_linker_10, # of connection points: 2
#     Edge 77, Type (0, 1), BuildingBlock: TEMPAE_clean_linker_10, # of connection points: 2
#     Edge 78, Type (0, 1), BuildingBlock: TEMPAE_clean_linker_10, # of connection points: 2
#     Edge 79, Type (0, 1), BuildingBlock: TEMPAE_clean_linker_10, # of connection points: 2
#     Edge 80, Type (0, 1), BuildingBlock: TEMPAE_clean_linker_10, # of connection points: 2
#     Edge 81, Type (0, 1), BuildingBlock: TEMPAE_clean_linker_10, # of connection points: 2
#     Edge 82, Type (0, 1), BuildingBlock: TEMPAE_clean_linker_10, # of connection points: 2
#     Edge 83, Type (0, 1), BuildingBlock: TEMPAE_clean_linker_10, # of connection points: 2
#     Edge 84, Type (0, 1), BuildingBlock: TEMPAE_clean_linker_10, # of connection points: 2
#     Edge 85, Type (0, 1), BuildingBlock: TEMPAE_clean_linker_10, # of connection points: 2
#     Edge 86, Type (0, 1), BuildingBlock: TEMPAE_clean_linker_10, # of connection points: 2
#     Edge 87, Type (0, 1), BuildingBlock: TEMPAE_clean_linker_10, # of connection points: 2
#     Edge 88, Type (0, 1), BuildingBlock: TEMPAE_clean_linker_10, # of connection points: 2
#     Edge 89, Type (0, 1), BuildingBlock: TEMPAE_clean_linker_10, # of connection points: 2
#     Edge 90, Type (0, 1), BuildingBlock: TEMPAE_clean_linker_10, # of connection points: 2
#     Edge 91, Type (0, 1), BuildingBlock: TEMPAE_clean_linker_10, # of connection points: 2
#     Edge 92, Type (0, 1), BuildingBlock: TEMPAE_clean_linker_10, # of connection points: 2
#     Edge 93, Type (0, 1), BuildingBlock: TEMPAE_clean_linker_10, # of connection points: 2
#     Edge 94, Type (0, 1), BuildingBlock: TEMPAE_clean_linker_10, # of connection points: 2
#     Edge 95, Type (0, 1), BuildingBlock: TEMPAE_clean_linker_10, # of connection points: 2
#     Edge 96, Type (0, 1), BuildingBlock: TEMPAE_clean_linker_10, # of connection points: 2
#     Edge 97, Type (0, 1), BuildingBlock: TEMPAE_clean_linker_10, # of connection points: 2
#     Edge 98, Type (0, 1), BuildingBlock: TEMPAE_clean_linker_10, # of connection points: 2
#     Edge 99, Type (0, 1), BuildingBlock: TEMPAE_clean_linker_10, # of connection points: 2
#     Edge 100, Type (0, 1), BuildingBlock: TEMPAE_clean_linker_10, # of connection points: 2
#     Edge 101, Type (0, 1), BuildingBlock: TEMPAE_clean_linker_10, # of connection points: 2
#     Edge 102, Type (0, 1), BuildingBlock: TEMPAE_clean_linker_10, # of connection points: 2
#     Edge 103, Type (0, 1), BuildingBlock: TEMPAE_clean_linker_10, # of connection points: 2
#     Edge 104, Type (0, 1), BuildingBlock: TEMPAE_clean_linker_10, # of connection points: 2
#     Edge 105, Type (0, 1), BuildingBlock: TEMPAE_clean_linker_10, # of connection points: 2
#     Edge 106, Type (0, 1), BuildingBlock: TEMPAE_clean_linker_10, # of connection points: 2
#     Edge 107, Type (0, 1), BuildingBlock: TEMPAE_clean_linker_10, # of connection points: 2
# Relax obj value: 0.008
# Max RMSD: 0.056
# Mean RMSD: 0.039
data_MOF--net-ptr--node1-QUQFOY_clean_sbu_1--node2-NAWXER_clean_linker_0--edge1-TEMPAE_clean_linker_10
_symmetry_space_group_name_H-M    P1
_symmetry_Int_Tables_number       1
_symmetry_cell_setting            triclinic
loop_
_symmetry_equiv_pos_as_xyz
'x, y, z'
_cell_length_a     90.175396
_cell_length_b     90.179118
_cell_length_c     66.349705
_cell_angle_alpha  90.140679
_cell_angle_beta   89.870218
_cell_angle_gamma 119.91518
loop_
_atom_site_label
_atom_site_type_symbol
_atom_site_fract_x
_atom_site_fract_y
_atom_site_fract_z
_atom_type_partial_charge
O0 O 0.01273 0.37811 0.03781 0.0
Cd1 Cd 0.0211 0.36927 0.01416 0.0
Cd2 Cd 0.98725 0.35175 0.00638 0.0
O3 O 0.98498 0.36087 0.03422 0.0
O4 O 0.0446 0.37491 0.02223 0.0
O5 O 0.02322 0.34836 0.01897 0.0
C6 C 0.03897 0.35871 0.02385 0.0
C7 C 0.96973 0.32313 0.9972 0.0
C8 C 0.9975 0.37252 0.044 0.0
C9 C 0.01025 0.37849 0.97616 0.0
O10 O 0.99514 0.36851 0.98241 0.0
O11 O 0.02301 0.38004 0.98606 0.0
O12 O 0.96392 0.33359 0.99829 0.0
O13 O 0.98547 0.32875 0.00232 0.0
O14 O 0.6265 0.63246 0.03861 0.0
Cd15 Cd 0.63474 0.64924 0.01458 0.0
Cd16 Cd 0.65151 0.63249 0.00615 0.0
O17 O 0.64355 0.62176 0.03437 0.0
O18 O 0.62911 0.66713 0.02269 0.0
O19 O 0.65565 0.67239 0.01866 0.0
C20 C 0.64531 0.67779 0.02375 0.0
C21 C 0.67999 0.64475 0.99601 0.0
C22 C 0.63224 0.62291 0.04462 0.0
C23 C 0.62412 0.62828 0.97706 0.0
O24 O 0.63389 0.62281 0.98307 0.0
O25 O 0.62336 0.64005 0.98679 0.0
O26 O 0.67024 0.62839 0.99729 0.0
O27 O 0.67371 0.65429 1.00137 0.0
O28 O 0.37358 0.00366 0.98438 0.0
Cd29 Cd 0.36787 0.01407 0.00901 0.0
Cd30 Cd 0.35159 0.98047 0.02036 0.0
O31 O 0.3597 0.97637 0.99297 0.0
O32 O 0.37446 0.0375 0.99949 0.0
O33 O 0.34778 0.01801 0.00655 0.0
C34 C 0.3585 0.03311 0.99993 0.0
C35 C 0.32312 0.96396 0.03047 0.0
C36 C 0.36894 0.98812 0.98059 0.0
C37 C 0.3801 0.00537 0.04709 0.0
O38 O 0.36939 0.98986 0.04306 0.0
O39 O 0.38114 0.01731 0.03589 0.0
O40 O 0.33333 0.95781 0.0301 0.0
O41 O 0.32899 0.97952 0.02444 0.0
O42 O 0.99382 0.62697 0.98309 0.0
Cd43 Cd 0.98613 0.63612 0.00707 0.0
Cd44 Cd 0.01976 0.65264 0.01443 0.0
O45 O 0.02166 0.64366 0.98635 0.0
O46 O 0.96292 0.63144 0.99916 0.0
O47 O 0.98491 0.6576 0.00297 0.0
C48 C 0.9691 0.64775 0.99797 0.0
C49 C 0.03695 0.68124 0.0237 0.0
C50 C 0.00891 0.63225 0.97664 0.0
C51 C 0.99671 0.62611 0.04467 0.0
O52 O 0.01186 0.63573 0.03826 0.0
O53 O 0.98406 0.62506 0.035 0.0
O54 O 0.04306 0.67104 0.02219 0.0
O55 O 0.02109 0.67535 0.01895 0.0
O56 O 0.3802 0.37145 0.98516 0.0
Cd57 Cd 0.37069 0.35407 0.0085 0.0
Cd58 Cd 0.35337 0.37056 0.01601 0.0
O59 O 0.36263 0.38167 0.9881 0.0
O60 O 0.37588 0.33588 1.00037 0.0
O61 O 0.3495 0.33129 0.00362 0.0
C62 C 0.35963 0.32557 0.99879 0.0
C63 C 0.32468 0.35949 0.025 0.0
C64 C 0.3746 0.38099 0.97871 0.0
C65 C 0.3797 0.37397 0.04662 0.0
O66 O 0.37003 0.37943 0.04015 0.0
O67 O 0.38108 0.36259 0.0368 0.0
O68 O 0.33505 0.37574 0.02366 0.0
O69 O 0.33043 0.34938 0.02024 0.0
O70 O 0.62669 0.99259 0.04208 0.0
Cd71 Cd 0.63466 0.98354 0.01813 0.0
Cd72 Cd 0.65016 0.01723 0.00767 0.0
O73 O 0.64066 0.02015 0.03486 0.0
O74 O 0.62937 0.96035 0.02705 0.0
O75 O 0.65575 0.98146 0.02187 0.0
C76 C 0.64559 0.96588 0.02752 0.0
C77 C 0.67854 0.03523 0.99797 0.0
C78 C 0.63076 0.0079 0.04637 0.0
C79 C 0.6234 0.99182 0.97935 0.0
O80 O 0.63324 0.00739 0.98407 0.0
O81 O 0.62249 0.97996 0.99053 0.0
O82 O 0.66756 0.04043 0.99823 0.0
O83 O 0.67357 0.01989 0.00422 0.0
O84 O 0.6777 0.71223 0.37578 0.0
Cd85 Cd 0.68523 0.70254 0.35223 0.0
Cd86 Cd 0.65171 0.68473 0.3458 0.0
O87 O 0.65016 0.69355 0.37417 0.0
O88 O 0.70869 0.7076 0.35968 0.0
O89 O 0.68669 0.6813 0.35716 0.0
C90 C 0.70261 0.69134 0.36157 0.0
C91 C 0.63611 0.65597 0.33683 0.0
C92 C 0.66271 0.70602 0.38299 0.0
C93 C 0.6731 0.71096 0.31468 0.0
O94 O 0.65818 0.70144 0.32183 0.0
O95 O 0.68611 0.71232 0.32382 0.0
O96 O 0.62868 0.66486 0.33962 0.0
O97 O 0.65238 0.66318 0.34004 0.0
O98 O 0.29173 0.96836 0.37242 0.0
Cd99 Cd 0.30195 0.98526 0.34866 0.0
Cd100 Cd 0.31781 0.96744 0.34166 0.0
O101 O 0.30845 0.9571 0.36985 0.0
O102 O 0.29828 0.00478 0.35509 0.0
O103 O 0.3239 0.00701 0.35443 0.0
C104 C 0.31458 0.01394 0.35774 0.0
C105 C 0.3463 0.97796 0.33231 0.0
C106 C 0.29689 0.95854 0.37919 0.0
C107 C 0.29203 0.96465 0.31098 0.0
O108 O 0.30098 0.95849 0.31777 0.0
O109 O 0.29156 0.97671 0.32036 0.0
O110 O 0.33577 0.96176 0.33397 0.0
O111 O 0.34087 0.98833 0.33709 0.0
O112 O 0.04165 0.34125 0.31541 0.0
Cd113 Cd 0.03607 0.35223 0.33932 0.0
Cd114 Cd 0.01963 0.31886 0.353 0.0
O115 O 0.0297 0.31473 0.32678 0.0
O116 O 0.04175 0.37519 0.32909 0.0
O117 O 0.01542 0.35522 0.33695 0.0
C118 C 0.02568 0.37032 0.32993 0.0
C119 C 0.99115 0.30029 0.36196 0.0
C120 C 0.03814 0.32583 0.31334 0.0
C121 C 0.04743 0.34563 0.37922 0.0
O122 O 0.03581 0.33012 0.37709 0.0
O123 O 0.05001 0.35666 0.36572 0.0
O124 O 0.00259 0.29574 0.36309 0.0
O125 O 0.99575 0.31533 0.35494 0.0
O126 O 0.65974 0.95618 0.31928 0.0
Cd127 Cd 0.65141 0.96475 0.34326 0.0
Cd128 Cd 0.68538 0.98137 0.3512 0.0
O129 O 0.68754 0.97298 0.32291 0.0
O130 O 0.62781 0.95867 0.335 0.0
O131 O 0.64866 0.98538 0.33882 0.0
C132 C 0.63306 0.97479 0.33362 0.0
C133 C 0.70305 0.00978 0.36105 0.0
C134 C 0.67491 0.96167 0.31296 0.0
C135 C 0.66197 0.9543 0.38072 0.0
O136 O 0.67717 0.96387 0.37444 0.0
O137 O 0.64942 0.95362 0.3712 0.0
O138 O 0.7088 0.9993 0.35935 0.0
O139 O 0.68724 0.00427 0.35634 0.0
O140 O 0.04568 0.70087 0.32068 0.0
Cd141 Cd 0.03734 0.68394 0.34451 0.0
Cd142 Cd 0.01947 0.69983 0.35263 0.0
O143 O 0.02808 0.71096 0.32465 0.0
O144 O 0.04273 0.66591 0.33631 0.0
O145 O 0.01628 0.66098 0.34019 0.0
C146 C 0.0265 0.65544 0.33505 0.0
C147 C 0.99092 0.68861 0.36214 0.0
C148 C 0.03972 0.71022 0.31461 0.0
C149 C 0.04673 0.70422 0.38242 0.0
O150 O 0.03647 0.70907 0.37636 0.0
O151 O 0.04842 0.6931 0.37243 0.0
O152 O 1.00123 0.70487 0.36094 0.0
O153 O 0.99665 0.67856 0.357 0.0
O154 O 0.29277 0.326 0.37265 0.0
Cd155 Cd 0.30293 0.31879 0.3492 0.0
Cd156 Cd 0.31965 0.35247 0.34197 0.0
O157 O 0.31028 0.35378 0.37001 0.0
O158 O 0.2988 0.29552 0.35588 0.0
O159 O 0.32462 0.31859 0.35544 0.0
C160 C 0.31505 0.3024 0.35878 0.0
C161 C 0.34824 0.37062 0.33325 0.0
C162 C 0.29839 0.3411 0.37933 0.0
C163 C 0.29388 0.3297 0.31108 0.0
O164 O 0.30305 0.3448 0.31783 0.0
O165 O 0.29298 0.31709 0.32067 0.0
O166 O 0.3376 0.37617 0.33487 0.0
O167 O 0.34281 0.35476 0.33755 0.0
O168 O 0.34765 0.04776 0.70744 0.0
Cd169 Cd 0.3542 0.03672 0.68438 0.0
Cd170 Cd 0.32049 0.02005 0.67788 0.0
O171 O 0.31985 0.02992 0.70594 0.0
O172 O 0.37721 0.04001 0.69085 0.0
O173 O 0.35349 0.01467 0.69109 0.0
C174 C 0.36979 0.02377 0.6941 0.0
C175 C 0.30194 0.99145 0.66934 0.0
C176 C 0.3327 0.04221 0.7146 0.0
C177 C 0.34299 0.04525 0.64631 0.0
O178 O 0.328 0.03642 0.6535 0.0
O179 O 0.35568 0.04607 0.6556 0.0
O180 O 0.29658 0.00224 0.67119 0.0
O181 O 0.31781 0.99672 0.67342 0.0
O182 O 0.95702 0.2978 0.70831 0.0
Cd183 Cd 0.96638 0.31498 0.68475 0.0
Cd184 Cd 0.98393 0.29887 0.67737 0.0
O185 O 0.97546 0.28863 0.7058 0.0
O186 O 0.9608 0.33305 0.69219 0.0
O187 O 0.98732 0.33793 0.68966 0.0
C188 C 0.97699 0.34353 0.69396 0.0
C189 C 0.01249 0.31112 0.66777 0.0
C190 C 0.96323 0.28888 0.71508 0.0
C191 C 0.95735 0.29437 0.64701 0.0
O192 O 0.96684 0.28879 0.65374 0.0
O193 O 0.95626 0.3061 0.65644 0.0
O194 O 0.00321 0.29487 0.67062 0.0
O195 O 0.00579 0.32063 0.67126 0.0
O196 O 0.7136 0.67613 0.65236 0.0
Cd197 Cd 0.70459 0.68462 0.67574 0.0
Cd198 Cd 0.68818 0.65106 0.68451 0.0
O199 O 0.69657 0.6484 0.65639 0.0
O200 O 0.70979 0.70778 0.66682 0.0
O201 O 0.68342 0.68636 0.67119 0.0
C202 C 0.69354 0.702 0.66569 0.0
C203 C 0.6598 0.6336 0.69471 0.0
C204 C 0.70809 0.66086 0.64639 0.0
C205 C 0.71526 0.67515 0.71364 0.0
O206 O 0.70576 0.65982 0.70772 0.0
O207 O 0.7158 0.68746 0.70372 0.0
O208 O 0.67033 0.62787 0.69352 0.0
O209 O 0.66523 0.64922 0.68921 0.0
O210 O 0.32251 0.28854 0.65671 0.0
Cd211 Cd 0.31518 0.29837 0.68041 0.0
Cd212 Cd 0.34882 0.31534 0.68727 0.0
O213 O 0.35024 0.30651 0.65897 0.0
O214 O 0.29193 0.29443 0.67371 0.0
O215 O 0.31509 0.32016 0.67442 0.0
C216 C 0.29892 0.3107 0.67087 0.0
C217 C 0.36658 0.34387 0.69657 0.0
C218 C 0.33758 0.29448 0.64976 0.0
C219 C 0.32655 0.28897 0.71788 0.0
O220 O 0.34152 0.29826 0.71084 0.0
O221 O 0.31376 0.28824 0.70887 0.0
O222 O 0.37237 0.33343 0.69474 0.0
O223 O 0.35071 0.33828 0.69218 0.0
O224 O 0.70837 0.03646 0.65051 0.0
Cd225 Cd 0.70338 0.02039 0.67474 0.0
Cd226 Cd 0.68722 0.03755 0.6882 0.0
O227 O 0.69624 0.05103 0.66152 0.0
O228 O 0.70912 0.00317 0.66422 0.0
O229 O 0.68289 0.99662 0.67299 0.0
C230 C 0.69312 0.99188 0.66549 0.0
C231 C 0.65874 0.02654 0.69789 0.0
C232 C 0.70454 0.0481 0.64809 0.0
C233 C 0.7157 0.0396 0.71391 0.0
O234 O 0.7042 0.04365 0.71164 0.0
O235 O 0.71771 0.03038 0.70086 0.0
O236 O 0.66959 0.04271 0.69866 0.0
O237 O 0.66395 0.01655 0.69085 0.0
O238 O 0.95725 0.65993 0.70649 0.0
Cd239 Cd 0.96634 0.65163 0.68297 0.0
Cd240 Cd 0.98346 0.68544 0.67486 0.0
O241 O 0.97482 0.68763 0.70302 0.0
O242 O 0.96068 0.62812 0.69101 0.0
O243 O 0.98724 0.64945 0.68781 0.0
C244 C 0.97687 0.63368 0.69256 0.0
C245 C 0.01199 0.7032 0.66531 0.0
C246 C 0.96303 0.67517 0.71274 0.0
C247 C 0.95652 0.66216 0.64511 0.0
O248 O 0.96616 0.67736 0.65135 0.0
O249 O 0.95563 0.6496 0.65483 0.0
O250 O 0.00146 0.7089 0.66686 0.0
O251 O 0.00647 0.68739 0.67001 0.0
C252 C 0.21968 0.33602 0.12061 0.0
C253 C 0.21696 0.32525 0.10397 0.0
C254 C 0.20599 0.33383 0.13262 0.0
C255 C 0.18927 0.32069 0.12843 0.0
C256 C 0.20016 0.31224 0.09963 0.0
C257 C 0.18645 0.31005 0.11169 0.0
C258 C 0.17463 0.31873 0.14068 0.0
C259 C 0.20679 0.30757 0.18427 0.0
C260 C 0.21242 0.3184 0.20123 0.0
C261 C 0.19475 0.30773 0.17107 0.0
C262 C 0.18835 0.31889 0.17449 0.0
C263 C 0.2062 0.32974 0.20433 0.0
C264 C 0.19427 0.32992 0.19118 0.0
C265 C 0.17457 0.31849 0.16196 0.0
C266 C 0.10499 0.30952 0.18395 0.0
C267 C 0.11008 0.31843 0.20243 0.0
C268 C 0.1171 0.3094 0.17074 0.0
C269 C 0.13466 0.31871 0.17535 0.0
C270 C 0.12763 0.32728 0.20716 0.0
C271 C 0.13969 0.32757 0.19376 0.0
C272 C 0.14802 0.31849 0.1623 0.0
C273 C 0.12093 0.33675 0.12087 0.0
C274 C 0.11278 0.32593 0.10432 0.0
C275 C 0.13228 0.33438 0.1329 0.0
C276 C 0.13557 0.321 0.12881 0.0
C277 C 0.11628 0.31267 0.10012 0.0
C278 C 0.12763 0.3103 0.11219 0.0
C279 C 0.14812 0.31885 0.14095 0.0
H280 H 0.23237 0.34643 0.12409 0.0
H281 H 0.20845 0.34262 0.14498 0.0
H282 H 0.19763 0.30369 0.08699 0.0
H283 H 0.17363 0.29997 0.10802 0.0
H284 H 0.21127 0.2986 0.18159 0.0
H285 H 0.19011 0.29881 0.15856 0.0
H286 H 0.21051 0.33846 0.21704 0.0
H287 H 0.18955 0.33866 0.19416 0.0
H288 H 0.09165 0.30259 0.17963 0.0
H289 H 0.11263 0.3018 0.15713 0.0
H290 H 0.13218 0.33382 0.22144 0.0
H291 H 0.15307 0.33465 0.198 0.0
H292 H 0.11884 0.34732 0.12426 0.0
H293 H 0.13868 0.34316 0.14524 0.0
H294 H 0.11015 0.30405 0.08757 0.0
H295 H 0.13016 0.30004 0.1086 0.0
N296 N 0.16135 0.31878 0.13103 0.0
N297 N 0.16128 0.31835 0.17176 0.0
C298 C 0.66739 0.8825 0.12024 0.0
C299 C 0.67853 0.8906 0.10396 0.0
C300 C 0.66893 0.87049 0.13193 0.0
C301 C 0.68181 0.86648 0.12782 0.0
C302 C 0.69123 0.88634 0.0996 0.0
C303 C 0.6928 0.87433 0.11139 0.0
C304 C 0.68314 0.85338 0.13989 0.0
C305 C 0.69503 0.89623 0.18463 0.0
C306 C 0.68389 0.89121 0.20128 0.0
C307 C 0.69442 0.88397 0.1711 0.0
C308 C 0.6825 0.86653 0.1739 0.0
C309 C 0.67177 0.87381 0.20372 0.0
C310 C 0.67114 0.86163 0.19026 0.0
C311 C 0.68256 0.85304 0.16117 0.0
C312 C 0.69232 0.79414 0.18473 0.0
C313 C 0.68103 0.7885 0.20126 0.0
C314 C 0.69237 0.80603 0.1711 0.0
C315 C 0.68096 0.81225 0.17367 0.0
C316 C 0.66936 0.79443 0.20342 0.0
C317 C 0.66939 0.8062 0.18984 0.0
C318 C 0.68188 0.82622 0.16104 0.0
C319 C 0.66602 0.7818 0.11913 0.0
C320 C 0.67729 0.78476 0.10298 0.0
C321 C 0.6678 0.79532 0.13115 0.0
C322 C 0.68104 0.8121 0.12748 0.0
C323 C 0.69038 0.80161 0.09912 0.0
C324 C 0.69218 0.81515 0.11121 0.0
C325 C 0.68262 0.82657 0.13975 0.0
H326 H 0.65719 0.88514 0.12369 0.0
H327 H 0.65984 0.86414 0.14401 0.0
H328 H 0.70002 0.89237 0.08718 0.0
H329 H 0.70268 0.87125 0.10775 0.0
H330 H 0.70459 0.90955 0.18246 0.0
H331 H 0.7036 0.88806 0.15888 0.0
H332 H 0.6628 0.86957 0.21619 0.0
H333 H 0.66183 0.84827 0.19276 0.0
H334 H 0.70153 0.78987 0.18278 0.0
H335 H 0.7017 0.81077 0.15902 0.0
H336 H 0.66031 0.7901 0.21579 0.0
H337 H 0.66046 0.8108 0.19216 0.0
H338 H 0.65554 0.76905 0.1222 0.0
H339 H 0.65861 0.79267 0.1431 0.0
H340 H 0.6993 0.80431 0.08684 0.0
H341 H 0.70235 0.82802 0.10793 0.0
N342 N 0.6833 0.84019 0.13001 0.0
N343 N 0.68188 0.83946 0.17078 0.0
C344 C 0.1167 0.78462 0.12123 0.0
C345 C 0.1086 0.78766 0.10495 0.0
C346 C 0.12822 0.79808 0.13343 0.0
C347 C 0.13176 0.81488 0.12979 0.0
C348 C 0.11231 0.80452 0.1012 0.0
C349 C 0.12385 0.818 0.11345 0.0
C350 C 0.14462 0.82931 0.14205 0.0
C351 C 0.10213 0.79702 0.18672 0.0
C352 C 0.10761 0.79125 0.20325 0.0
C353 C 0.11409 0.80898 0.17323 0.0
C354 C 0.13168 0.81515 0.17595 0.0
C355 C 0.12516 0.79716 0.20558 0.0
C356 C 0.13703 0.80901 0.19215 0.0
C357 C 0.14484 0.82904 0.16335 0.0
C358 C 0.20314 0.89871 0.18603 0.0
C359 C 0.20904 0.89359 0.20276 0.0
C360 C 0.19105 0.88649 0.17291 0.0
C361 C 0.18488 0.86896 0.17613 0.0
C362 C 0.20298 0.87607 0.20575 0.0
C363 C 0.191 0.86392 0.19265 0.0
C364 C 0.1712 0.85559 0.16347 0.0
C365 C 0.21628 0.88374 0.12274 0.0
C366 C 0.2137 0.8921 0.10641 0.0
C367 C 0.20249 0.87202 0.13436 0.0
C368 C 0.18581 0.86856 0.13012 0.0
C369 C 0.19694 0.88836 0.1019 0.0
C370 C 0.18312 0.87664 0.11362 0.0
C371 C 0.17113 0.85581 0.14217 0.0
H372 H 0.11447 0.77187 0.12424 0.0
H373 H 0.13463 0.79539 0.14545 0.0
H374 H 0.10624 0.80728 0.08884 0.0
H375 H 0.12656 0.83089 0.1102 0.0
H376 H 0.08869 0.79276 0.18463 0.0
H377 H 0.10964 0.8138 0.16111 0.0
H378 H 0.12976 0.79272 0.21793 0.0
H379 H 0.15051 0.81354 0.19458 0.0
H380 H 0.20748 0.91212 0.18346 0.0
H381 H 0.18622 0.89071 0.16057 0.0
H382 H 0.20749 0.87173 0.2183 0.0
H383 H 0.18645 0.85049 0.19549 0.0
H384 H 0.22895 0.88598 0.12629 0.0
H385 H 0.20486 0.86546 0.14649 0.0
H386 H 0.19455 0.89459 0.08942 0.0
H387 H 0.17033 0.87398 0.10989 0.0
N388 N 0.15775 0.84273 0.1323 0.0
N389 N 0.15811 0.84219 0.1731 0.0
C390 C 0.32989 0.11582 0.8432 0.0
C391 C 0.3173 0.1081 0.82819 0.0
C392 C 0.32928 0.12729 0.85697 0.0
C393 C 0.3159 0.13102 0.85623 0.0
C394 C 0.30379 0.11164 0.8277 0.0
C395 C 0.30314 0.12301 0.84152 0.0
C396 C 0.31605 0.1446 0.86903 0.0
C397 C 0.31266 0.10434 0.91182 0.0
C398 C 0.32589 0.11022 0.92612 0.0
C399 C 0.31037 0.11593 0.9001 0.0
C400 C 0.32152 0.13364 0.90214 0.0
C401 C 0.33675 0.12794 0.92848 0.0
C402 C 0.33456 0.13951 0.91666 0.0
C403 C 0.31937 0.14626 0.88998 0.0
C404 C 0.31081 0.20708 0.91199 0.0
C405 C 0.32395 0.21461 0.92637 0.0
C406 C 0.30879 0.1932 0.9004 0.0
C407 C 0.32022 0.18695 0.90254 0.0
C408 C 0.33495 0.20795 0.92903 0.0
C409 C 0.33311 0.19428 0.91723 0.0
C410 C 0.31866 0.17247 0.89019 0.0
C411 C 0.32675 0.21297 0.8441 0.0
C412 C 0.31383 0.20763 0.82944 0.0
C413 C 0.32709 0.20114 0.85744 0.0
C414 C 0.31432 0.18381 0.85664 0.0
C415 C 0.30099 0.19032 0.82881 0.0
C416 C 0.30127 0.17855 0.84222 0.0
C417 C 0.31532 0.17076 0.86923 0.0
H418 H 0.3406 0.11356 0.84376 0.0
H419 H 0.33961 0.1337 0.8677 0.0
H420 H 0.29382 0.10578 0.81644 0.0
H421 H 0.29277 0.12579 0.84051 0.0
H422 H 0.30393 0.09076 0.90988 0.0
H423 H 0.2998 0.11103 0.88958 0.0
H424 H 0.34716 0.13287 0.93925 0.0
H425 H 0.34325 0.15309 0.91868 0.0
H426 H 0.30201 0.21183 0.90985 0.0
H427 H 0.29829 0.18737 0.88982 0.0
H428 H 0.34524 0.21358 0.93993 0.0
H429 H 0.34199 0.18962 0.91938 0.0
H430 H 0.33697 0.22616 0.84474 0.0
H431 H 0.33762 0.20546 0.86795 0.0
H432 H 0.29082 0.18585 0.81777 0.0
H433 H 0.29138 0.16523 0.84116 0.0
N434 N 0.31405 0.15685 0.85962 0.0
N435 N 0.32062 0.16017 0.89963 0.0
C436 C 0.90124 0.20476 0.91011 0.0
C437 C 0.89542 0.21226 0.92437 0.0
C438 C 0.88957 0.19091 0.89839 0.0
C439 C 0.87188 0.1846 0.90032 0.0
C440 C 0.87773 0.20559 0.92674 0.0
C441 C 0.8661 0.19192 0.91485 0.0
C442 C 0.85918 0.17007 0.88792 0.0
C443 C 0.89065 0.21088 0.84198 0.0
C444 C 0.8985 0.20599 0.82709 0.0
C445 C 0.87885 0.19878 0.8554 0.0
C446 C 0.87493 0.18163 0.85446 0.0
C447 C 0.8947 0.18887 0.82633 0.0
C448 C 0.88301 0.17682 0.83983 0.0
C449 C 0.8611 0.16829 0.86702 0.0
C450 C 0.79318 0.11628 0.83784 0.0
C451 C 0.79696 0.10557 0.82617 0.0
C452 C 0.80506 0.12763 0.85177 0.0
C453 C 0.82099 0.1286 0.85401 0.0
C454 C 0.81268 0.10616 0.82888 0.0
C455 C 0.82472 0.11778 0.8425 0.0
C456 C 0.83439 0.14206 0.86673 0.0
C457 C 0.7957 0.10265 0.90889 0.0
C458 C 0.78862 0.109 0.92305 0.0
C459 C 0.80988 0.11387 0.89729 0.0
C460 C 0.81703 0.13168 0.89932 0.0
C461 C 0.79599 0.12679 0.92532 0.0
C462 C 0.81003 0.13798 0.91361 0.0
C463 C 0.83228 0.14394 0.88751 0.0
H464 H 0.9148 0.20951 0.90819 0.0
H465 H 0.89441 0.18513 0.88789 0.0
H466 H 0.87288 0.2112 0.9375 0.0
H467 H 0.85255 0.18723 0.91681 0.0
H468 H 0.89307 0.2239 0.84271 0.0
H469 H 0.87237 0.20275 0.86603 0.0
H470 H 0.90062 0.18475 0.8151 0.0
H471 H 0.88006 0.16364 0.83864 0.0
H472 H 0.78113 0.11604 0.83594 0.0
H473 H 0.80206 0.13608 0.86027 0.0
H474 H 0.81591 0.09811 0.8199 0.0
H475 H 0.83703 0.1185 0.84387 0.0
H476 H 0.79045 0.08899 0.90704 0.0
H477 H 0.81539 0.10858 0.88703 0.0
H478 H 0.79073 0.13206 0.93598 0.0
H479 H 0.81534 0.15164 0.91561 0.0
N480 N 0.84478 0.15786 0.89722 0.0
N481 N 0.84869 0.15427 0.85737 0.0
C482 C 0.79881 0.69856 0.90885 0.0
C483 C 0.7916 0.6854 0.92323 0.0
C484 C 0.81282 0.70099 0.89722 0.0
C485 C 0.81957 0.68999 0.8994 0.0
C486 C 0.79871 0.67478 0.92583 0.0
C487 C 0.81253 0.67705 0.91405 0.0
C488 C 0.83428 0.69204 0.88717 0.0
C489 C 0.79334 0.68183 0.84089 0.0
C490 C 0.79824 0.6944 0.82586 0.0
C491 C 0.80542 0.68226 0.85443 0.0
C492 C 0.82257 0.69546 0.85346 0.0
C493 C 0.81536 0.70768 0.82506 0.0
C494 C 0.82739 0.70817 0.83868 0.0
C495 C 0.83592 0.69517 0.86618 0.0
C496 C 0.8916 0.68155 0.84096 0.0
C497 C 0.89922 0.69401 0.8258 0.0
C498 C 0.88002 0.68212 0.85457 0.0
C499 C 0.8761 0.69537 0.85354 0.0
C500 C 0.89545 0.70736 0.82498 0.0
C501 C 0.88398 0.70799 0.83866 0.0
C502 C 0.86245 0.69516 0.86623 0.0
C503 C 0.9028 0.69889 0.90918 0.0
C504 C 0.89686 0.68591 0.92381 0.0
C505 C 0.89123 0.70112 0.89735 0.0
C506 C 0.8735 0.6901 0.89955 0.0
C507 C 0.87915 0.67525 0.92639 0.0
C508 C 0.86762 0.67732 0.9144 0.0
C509 C 0.86085 0.69205 0.88723 0.0
H510 H 0.7937 0.70707 0.90674 0.0
H511 H 0.81838 0.71148 0.8866 0.0
H512 H 0.79332 0.66444 0.93668 0.0
H513 H 0.81756 0.66848 0.91619 0.0
H514 H 0.78031 0.67128 0.84165 0.0
H515 H 0.80145 0.67195 0.86519 0.0
H516 H 0.81949 0.71758 0.81372 0.0
H517 H 0.84056 0.71837 0.83748 0.0
H518 H 0.89403 0.67096 0.84175 0.0
H519 H 0.87369 0.67188 0.86542 0.0
H520 H 0.90121 0.7172 0.81356 0.0
H521 H 0.88104 0.71822 0.83741 0.0
H522 H 0.9164 0.70742 0.90707 0.0
H523 H 0.89616 0.7115 0.88658 0.0
H524 H 0.87421 0.66505 0.93743 0.0
H525 H 0.85403 0.66875 0.91657 0.0
N526 N 0.8468 0.69055 0.89675 0.0
N527 N 0.84998 0.69672 0.85667 0.0
C528 C 0.76971 0.64057 0.44947 0.0
C529 C 0.77576 0.65378 0.43514 0.0
C530 C 0.7812 0.63808 0.46116 0.0
C531 C 0.79894 0.64909 0.45912 0.0
C532 C 0.79348 0.66441 0.43269 0.0
C533 C 0.80493 0.66209 0.44455 0.0
C534 C 0.8115 0.64694 0.47138 0.0
C535 C 0.7801 0.65637 0.51793 0.0
C536 C 0.77254 0.64367 0.53283 0.0
C537 C 0.79188 0.65619 0.5043 0.0
C538 C 0.79602 0.64309 0.50504 0.0
C539 C 0.77653 0.63048 0.53337 0.0
C540 C 0.78817 0.63022 0.51966 0.0
C541 C 0.80983 0.64364 0.49234 0.0
C542 C 0.87901 0.65696 0.51752 0.0
C543 C 0.8741 0.64454 0.53273 0.0
C544 C 0.86692 0.65649 0.50397 0.0
C545 C 0.84974 0.64337 0.50509 0.0
C546 C 0.85696 0.63133 0.53367 0.0
C547 C 0.84491 0.63078 0.52003 0.0
C548 C 0.83638 0.64364 0.49236 0.0
C549 C 0.87282 0.63928 0.44966 0.0
C550 C 0.88017 0.65231 0.43513 0.0
C551 C 0.85899 0.63724 0.46135 0.0
C552 C 0.85255 0.6485 0.45909 0.0
C553 C 0.87338 0.6632 0.43246 0.0
C554 C 0.85972 0.66131 0.4443 0.0
C555 C 0.838 0.64678 0.47138 0.0
H556 H 0.7561 0.63204 0.45146 0.0
H557 H 0.77619 0.62753 0.47169 0.0
H558 H 0.7985 0.67478 0.42188 0.0
H559 H 0.81854 0.67066 0.44251 0.0
H560 H 0.77748 0.66684 0.51737 0.0
H561 H 0.79817 0.6666 0.49366 0.0
H562 H 0.77082 0.62047 0.54461 0.0
H563 H 0.79129 0.62009 0.52069 0.0
H564 H 0.89207 0.66745 0.51664 0.0
H565 H 0.8709 0.6667 0.49307 0.0
H566 H 0.85281 0.62152 0.54513 0.0
H567 H 0.83172 0.62065 0.52136 0.0
H568 H 0.87767 0.63056 0.45182 0.0
H569 H 0.85331 0.62683 0.47207 0.0
H570 H 0.87887 0.67344 0.42149 0.0
H571 H 0.85492 0.67006 0.4421 0.0
N572 N 0.82554 0.6484 0.46183 0.0
N573 N 0.8223 0.64206 0.50188 0.0
C574 C 0.33218 0.21823 0.45838 0.0
C575 C 0.34009 0.2231 0.43932 0.0
C576 C 0.33382 0.20634 0.47023 0.0
C577 C 0.34426 0.19971 0.46396 0.0
C578 C 0.34996 0.21585 0.43272 0.0
C579 C 0.35212 0.20446 0.44495 0.0
C580 C 0.34617 0.18695 0.47621 0.0
C581 C 0.35968 0.23058 0.52106 0.0
C582 C 0.34895 0.22538 0.53811 0.0
C583 C 0.35916 0.21839 0.50745 0.0
C584 C 0.34766 0.20089 0.51053 0.0
C585 C 0.33738 0.20788 0.54094 0.0
C586 C 0.33679 0.1958 0.52737 0.0
C587 C 0.34749 0.18747 0.49749 0.0
C588 C 0.36215 0.13133 0.51929 0.0
C589 C 0.35177 0.12546 0.5366 0.0
C590 C 0.36091 0.1428 0.5061 0.0
C591 C 0.34905 0.14829 0.50988 0.0
C592 C 0.33985 0.13089 0.54016 0.0
C593 C 0.33857 0.1422 0.52702 0.0
C594 C 0.34807 0.16125 0.49719 0.0
C595 C 0.33306 0.11546 0.45769 0.0
C596 C 0.34071 0.11856 0.43846 0.0
C597 C 0.33468 0.12892 0.46972 0.0
C598 C 0.34484 0.14598 0.46347 0.0
C599 C 0.35033 0.13566 0.4319 0.0
C600 C 0.35247 0.14916 0.44431 0.0
C601 C 0.3466 0.16052 0.47594 0.0
H602 H 0.32463 0.22354 0.46433 0.0
H603 H 0.32669 0.20226 0.48419 0.0
H604 H 0.35585 0.2187 0.41796 0.0
H605 H 0.3599 0.19925 0.43942 0.0
H606 H 0.3688 0.24398 0.5186 0.0
H607 H 0.36791 0.22259 0.49478 0.0
H608 H 0.32876 0.2035 0.55374 0.0
H609 H 0.32785 0.18238 0.53009 0.0
H610 H 0.37152 0.12744 0.51626 0.0
H611 H 0.36938 0.1476 0.4932 0.0
H612 H 0.33149 0.12637 0.55319 0.0
H613 H 0.32935 0.14627 0.53029 0.0
H614 H 0.32574 0.10262 0.46362 0.0
H615 H 0.32774 0.12582 0.48383 0.0
H616 H 0.35602 0.13873 0.41704 0.0
H617 H 0.36002 0.16214 0.4388 0.0
N618 N 0.34589 0.17352 0.46638 0.0
N619 N 0.34832 0.1746 0.50695 0.0
C620 C 0.78658 0.11585 0.4544 0.0
C621 C 0.77819 0.11824 0.43794 0.0
C622 C 0.79809 0.12975 0.46609 0.0
C623 C 0.80131 0.14633 0.46173 0.0
C624 C 0.7817 0.13491 0.43337 0.0
C625 C 0.79323 0.14883 0.4451 0.0
C626 C 0.81376 0.16114 0.47383 0.0
C627 C 0.77033 0.12787 0.51662 0.0
C628 C 0.77532 0.12405 0.53512 0.0
C629 C 0.78254 0.13993 0.50343 0.0
C630 C 0.80007 0.148 0.50811 0.0
C631 C 0.79286 0.13252 0.53989 0.0
C632 C 0.805 0.14413 0.52653 0.0
C633 C 0.81352 0.16148 0.49516 0.0
C634 C 0.87216 0.23069 0.5182 0.0
C635 C 0.87763 0.22525 0.53504 0.0
C636 C 0.86024 0.2187 0.50469 0.0
C637 C 0.85384 0.20111 0.50771 0.0
C638 C 0.87146 0.20768 0.53769 0.0
C639 C 0.85967 0.19577 0.52425 0.0
C640 C 0.84008 0.18789 0.49501 0.0
C641 C 0.88539 0.21612 0.45432 0.0
C642 C 0.8826 0.22398 0.43762 0.0
C643 C 0.87168 0.20438 0.46605 0.0
C644 C 0.85489 0.20045 0.46158 0.0
C645 C 0.86574 0.21975 0.43288 0.0
C646 C 0.85201 0.20805 0.44472 0.0
C647 C 0.84026 0.18772 0.47373 0.0
H648 H 0.7845 0.10325 0.45805 0.0
H649 H 0.8046 0.12756 0.47843 0.0
H650 H 0.77541 0.13718 0.42084 0.0
H651 H 0.7957 0.16155 0.44131 0.0
H652 H 0.75699 0.12162 0.51228 0.0
H653 H 0.77818 0.1431 0.48978 0.0
H654 H 0.79732 0.13051 0.55419 0.0
H655 H 0.81837 0.15029 0.5308 0.0
H656 H 0.87663 0.24416 0.51587 0.0
H657 H 0.85568 0.22312 0.49229 0.0
H658 H 0.87566 0.2031 0.5503 0.0
H659 H 0.85495 0.18229 0.5269 0.0
H660 H 0.89817 0.21877 0.45807 0.0
H661 H 0.87422 0.19819 0.47847 0.0
H662 H 0.86318 0.22561 0.42012 0.0
H663 H 0.83914 0.20502 0.44081 0.0
N664 N 0.82702 0.17438 0.46397 0.0
N665 N 0.82673 0.17483 0.50471 0.0
C666 C 0.97612 0.53966 0.17167 0.0
C667 C 0.98718 0.54556 0.15493 0.0
C668 C 0.97645 0.52779 0.185 0.0
C669 C 0.98801 0.52181 0.18192 0.0
C670 C 0.99895 0.53982 0.15222 0.0
C671 C 0.9993 0.52804 0.16549 0.0
C672 C 0.98759 0.508 0.1944 0.0
C673 C 0.00388 0.55241 0.2366 0.0
C674 C 0.99295 0.54935 0.25316 0.0
C675 C 0.00188 0.53896 0.22429 0.0
C676 C 0.98878 0.52214 0.22809 0.0
C677 C 0.97994 0.53247 0.25706 0.0
C678 C 0.97794 0.51899 0.24469 0.0
C679 C 0.98715 0.5077 0.21569 0.0
C680 C 0.00312 0.45223 0.23503 0.0
C681 C 0.99233 0.44449 0.2517 0.0
C682 C 0.00131 0.46399 0.22313 0.0
C683 C 0.98849 0.46806 0.22741 0.0
C684 C 0.97967 0.44877 0.25616 0.0
C685 C 0.97781 0.46049 0.24416 0.0
C686 C 0.987 0.48107 0.21536 0.0
C687 C 0.9756 0.43834 0.17065 0.0
C688 C 0.98668 0.44349 0.15393 0.0
C689 C 0.97597 0.45052 0.18412 0.0
C690 C 0.9876 0.46803 0.18123 0.0
C691 C 0.99847 0.46097 0.15133 0.0
C692 C 0.99886 0.47308 0.16475 0.0
C693 C 0.9874 0.4814 0.19406 0.0
H694 H 0.96682 0.54376 0.17406 0.0
H695 H 0.96733 0.52289 0.19729 0.0
H696 H 0.00785 0.54435 0.13969 0.0
H697 H 0.00833 0.52364 0.16277 0.0
H698 H 0.01429 0.56518 0.23345 0.0
H699 H 0.01085 0.54168 0.21206 0.0
H700 H 0.97126 0.52968 0.26963 0.0
H701 H 0.96788 0.50609 0.24807 0.0
H702 H 0.01327 0.44954 0.23149 0.0
H703 H 0.0102 0.47014 0.21082 0.0
H704 H 0.97114 0.443 0.26886 0.0
H705 H 0.96799 0.46362 0.24792 0.0
H706 H 0.96629 0.42497 0.17295 0.0
H707 H 0.96686 0.44631 0.19643 0.0
H708 H 0.00738 0.46533 0.13882 0.0
H709 H 0.00794 0.48648 0.16217 0.0
N710 N 0.98773 0.49487 0.18454 0.0
N711 N 0.98676 0.49418 0.22532 0.0
C712 C 0.46527 0.43912 0.17465 0.0
C713 C 0.45966 0.44437 0.15776 0.0
C714 C 0.47724 0.45126 0.18799 0.0
C715 C 0.48359 0.46882 0.18475 0.0
C716 C 0.46576 0.46192 0.15492 0.0
C717 C 0.47763 0.47397 0.16818 0.0
C718 C 0.4975 0.48212 0.19722 0.0
C719 C 0.4526 0.45461 0.23878 0.0
C720 C 0.45547 0.44648 0.25516 0.0
C721 C 0.4662 0.46622 0.22682 0.0
C722 C 0.48297 0.46984 0.23082 0.0
C723 C 0.47232 0.45034 0.25933 0.0
C724 C 0.48594 0.46198 0.24733 0.0
C725 C 0.4975 0.48245 0.21849 0.0
C726 C 0.55582 0.55385 0.23605 0.0
C727 C 0.56041 0.55087 0.25528 0.0
C728 C 0.54411 0.54032 0.22407 0.0
C729 C 0.53739 0.52327 0.23034 0.0
C730 C 0.55323 0.53378 0.2618 0.0
C731 C 0.54202 0.5202 0.24943 0.0
C732 C 0.5244 0.50867 0.21814 0.0
C733 C 0.56794 0.53728 0.17305 0.0
C734 C 0.56313 0.54321 0.15606 0.0
C735 C 0.55552 0.52607 0.18671 0.0
C736 C 0.53817 0.52088 0.18371 0.0
C737 C 0.5458 0.53813 0.15334 0.0
C738 C 0.53348 0.52705 0.16694 0.0
C739 C 0.52448 0.50805 0.1968 0.0
H740 H 0.46088 0.4257 0.17715 0.0
H741 H 0.48191 0.44696 0.20041 0.0
H742 H 0.46146 0.46637 0.14228 0.0
H743 H 0.48233 0.48743 0.16536 0.0
H744 H 0.43986 0.45226 0.23544 0.0
H745 H 0.46363 0.47257 0.21461 0.0
H746 H 0.47496 0.44425 0.27177 0.0
H747 H 0.4988 0.46474 0.25083 0.0
H748 H 0.56113 0.56667 0.23013 0.0
H749 H 0.54013 0.54337 0.21007 0.0
H750 H 0.55592 0.53077 0.27664 0.0
H751 H 0.53675 0.50724 0.25496 0.0
H752 H 0.58121 0.54092 0.17544 0.0
H753 H 0.55941 0.5212 0.19932 0.0
H754 H 0.54172 0.54271 0.14061 0.0
H755 H 0.52019 0.52323 0.16429 0.0
N756 N 0.51097 0.4949 0.18735 0.0
N757 N 0.51096 0.49567 0.22808 0.0
C758 C 0.46314 0.02577 0.24242 0.0
C759 C 0.45558 0.01241 0.25653 0.0
C760 C 0.47692 0.02787 0.23056 0.0
C761 C 0.48308 0.01633 0.23219 0.0
C762 C 0.46204 0.00118 0.25851 0.0
C763 C 0.47561 0.00312 0.24648 0.0
C764 C 0.49771 0.01817 0.21992 0.0
C765 C 0.45794 0.01106 0.17335 0.0
C766 C 0.46352 0.02391 0.15858 0.0
C767 C 0.46958 0.01066 0.18695 0.0
C768 C 0.48696 0.02334 0.18636 0.0
C769 C 0.48086 0.03665 0.15812 0.0
C770 C 0.49245 0.03635 0.17185 0.0
C771 C 0.49983 0.02212 0.19909 0.0
C772 C 0.55155 0.00515 0.17073 0.0
C773 C 0.56258 0.01961 0.15931 0.0
C774 C 0.54008 0.00584 0.1844 0.0
C775 C 0.5393 0.02092 0.18659 0.0
C776 C 0.56214 0.03483 0.16193 0.0
C777 C 0.5504 0.03541 0.17527 0.0
C778 C 0.52583 0.02109 0.19913 0.0
C779 C 0.56486 0.02177 0.24183 0.0
C780 C 0.55842 0.00856 0.25618 0.0
C781 C 0.55371 0.02464 0.22998 0.0
C782 C 0.53588 0.01408 0.2319 0.0
C783 C 0.54062 0.99824 0.25836 0.0
C784 C 0.52949 0.00097 0.24637 0.0
C785 C 0.52372 0.01706 0.21986 0.0
H786 H 0.45853 0.03474 0.24078 0.0
H787 H 0.48281 0.03857 0.22025 0.0
H788 H 0.45638 0.99069 0.26914 0.0
H789 H 0.48017 0.99412 0.24821 0.0
H790 H 0.44471 0.0009 0.17382 0.0
H791 H 0.46506 1.0001 0.19744 0.0
H792 H 0.48551 0.04673 0.14695 0.0
H793 H 0.5058 0.04615 0.1709 0.0
H794 H 0.55165 0.99326 0.16883 0.0
H795 H 0.53142 0.99444 0.19275 0.0
H796 H 0.57044 0.04607 0.15311 0.0
H797 H 0.54984 0.0471 0.17659 0.0
H798 H 0.57852 0.0301 0.24005 0.0
H799 H 0.55908 0.03532 0.21962 0.0
H800 H 0.53529 0.98788 0.26919 0.0
H801 H 0.51583 0.99272 0.24833 0.0
N802 N 0.50973 0.01574 0.22936 0.0
N803 N 0.51388 0.02353 0.18964 0.0
C804 C 0.55132 0.99888 0.79127 0.0
C805 C 0.54895 0.98927 0.77363 0.0
C806 C 0.53732 0.99636 0.80288 0.0
C807 C 0.52063 0.98399 0.79728 0.0
C808 C 0.53221 0.97706 0.76788 0.0
C809 C 0.51818 0.97451 0.77956 0.0
C810 C 0.50569 0.98171 0.8091 0.0
C811 C 0.53537 0.9669 0.85246 0.0
C812 C 0.54064 0.97695 0.87007 0.0
C813 C 0.52391 0.96795 0.83907 0.0
C814 C 0.51772 0.97922 0.84302 0.0
C815 C 0.53464 0.98841 0.87367 0.0
C816 C 0.52326 0.98945 0.86039 0.0
C817 C 0.50459 0.97981 0.83024 0.0
C818 C 0.43503 0.97152 0.8506 0.0
C819 C 0.43981 0.98003 0.86935 0.0
C820 C 0.44732 0.97128 0.83781 0.0
C821 C 0.46474 0.98014 0.84313 0.0
C822 C 0.45716 0.9881 0.87493 0.0
C823 C 0.46941 0.98833 0.86195 0.0
C824 C 0.47837 0.98045 0.83018 0.0
C825 C 0.45129 1.00035 0.79149 0.0
C826 C 0.44594 0.99271 0.77234 0.0
C827 C 0.46244 0.99744 0.8032 0.0
C828 C 0.46777 0.986 0.7967 0.0
C829 C 0.45205 0.98193 0.76546 0.0
C830 C 0.46269 0.97852 0.77755 0.0
C831 C 0.47959 0.98267 0.80896 0.0
H832 H 0.564 0.00868 0.79585 0.0
H833 H 0.53953 0.00431 0.81605 0.0
H834 H 0.52995 0.96942 0.75441 0.0
H835 H 0.50541 0.96507 0.7748 0.0
H836 H 0.53972 0.95789 0.84934 0.0
H837 H 0.51957 0.95968 0.82596 0.0
H838 H 0.53872 0.99661 0.88685 0.0
H839 H 0.51871 0.99826 0.86375 0.0
H840 H 0.42184 0.96513 0.84567 0.0
H841 H 0.44319 0.96423 0.82378 0.0
H842 H 0.46141 0.99418 0.8895 0.0
H843 H 0.48266 0.99497 0.86674 0.0
H844 H 0.44685 0.00857 0.79765 0.0
H845 H 0.46684 0.00418 0.8174 0.0
H846 H 0.44885 0.97622 0.7506 0.0
H847 H 0.467 0.97004 0.77185 0.0
N848 N 0.4931 0.98296 0.79931 0.0
N849 N 0.49099 0.97922 0.83977 0.0
C850 C 0.9983 0.54963 0.78591 0.0
C851 C 0.00912 0.55775 0.76937 0.0
C852 C 1.00033 0.53791 0.7976 0.0
C853 C 0.01336 0.53417 0.79319 0.0
C854 C 0.02197 0.55376 0.76475 0.0
C855 C 0.02401 0.54201 0.77649 0.0
C856 C 0.01528 0.52143 0.80529 0.0
C857 C 0.02752 0.56489 0.84924 0.0
C858 C 0.01675 0.55998 0.86625 0.0
C859 C 0.02688 0.55252 0.83588 0.0
C860 C 0.01532 0.53507 0.8392 0.0
C861 C 0.00498 0.54254 0.86921 0.0
C862 C 0.00434 0.53025 0.85591 0.0
C863 C 0.0154 0.52152 0.82659 0.0
C864 C 0.02822 0.46431 0.84933 0.0
C865 C 0.01748 0.45844 0.86636 0.0
C866 C 0.02742 0.47592 0.83598 0.0
C867 C 0.01573 0.48169 0.83933 0.0
C868 C 0.0056 0.46401 0.86937 0.0
C869 C 0.00481 0.47555 0.85609 0.0
C870 C 0.01559 0.49514 0.82667 0.0
C871 C 0.99866 0.44974 0.78626 0.0
C872 C 0.00949 0.45233 0.76975 0.0
C873 C 1.00064 0.46355 0.79786 0.0
C874 C 0.01361 0.48027 0.79336 0.0
C875 C 0.0223 0.46913 0.76504 0.0
C876 C 0.02427 0.48297 0.77669 0.0
C877 C 0.01545 0.49497 0.80536 0.0
H878 H 0.988 0.55206 0.7896 0.0
H879 H 0.99153 0.53157 0.80993 0.0
H880 H 0.03055 0.55982 0.75215 0.0
H881 H 0.034 0.53916 0.77265 0.0
H882 H 0.03681 0.57823 0.84665 0.0
H883 H 0.03577 0.55656 0.82336 0.0
H884 H 0.99629 0.53835 0.88195 0.0
H885 H 0.99531 0.51688 0.85881 0.0
H886 H 0.03761 0.46036 0.8467 0.0
H887 H 0.03628 0.48076 0.82343 0.0
H888 H 0.99692 0.4595 0.88212 0.0
H889 H 0.99568 0.4798 0.85902 0.0
H890 H 0.98839 0.43704 0.79 0.0
H891 H 0.99182 0.46116 0.81017 0.0
H892 H 0.03088 0.47156 0.75246 0.0
H893 H 0.03423 0.49578 0.77279 0.0
N894 N 0.01542 0.50819 0.7955 0.0
N895 N 0.01551 0.50837 0.83633 0.0
C896 C 0.5413 0.56547 0.78172 0.0
C897 C 0.54873 0.55945 0.76762 0.0
C898 C 0.52727 0.55398 0.79333 0.0
C899 C 0.52068 0.53624 0.79142 0.0
C900 C 0.54177 0.54172 0.76527 0.0
C901 C 0.5279 0.53025 0.77702 0.0
C902 C 0.50599 0.52372 0.80375 0.0
C903 C 0.54685 0.55512 0.84994 0.0
C904 C 0.54185 0.56292 0.86477 0.0
C905 C 0.53484 0.54332 0.83644 0.0
C906 C 0.51767 0.53937 0.83726 0.0
C907 C 0.52473 0.55911 0.86539 0.0
C908 C 0.51277 0.54743 0.85181 0.0
C909 C 0.50436 0.52555 0.82468 0.0
C910 C 0.448 0.45696 0.85072 0.0
C911 C 0.4405 0.46222 0.86566 0.0
C912 C 0.45975 0.4688 0.83703 0.0
C913 C 0.46398 0.48605 0.83777 0.0
C914 C 0.4446 0.47943 0.8662 0.0
C915 C 0.45624 0.49121 0.85245 0.0
C916 C 0.47775 0.49916 0.82493 0.0
C917 C 0.43696 0.46248 0.78265 0.0
C918 C 0.44257 0.45487 0.76829 0.0
C919 C 0.44878 0.47641 0.79412 0.0
C920 C 0.46644 0.48269 0.79185 0.0
C921 C 0.46022 0.46152 0.76556 0.0
C922 C 0.47202 0.47528 0.77721 0.0
C923 C 0.47931 0.49732 0.80398 0.0
H924 H 0.54625 0.57908 0.78363 0.0
H925 H 0.52157 0.55897 0.80373 0.0
H926 H 0.5473 0.53671 0.75463 0.0
H927 H 0.52299 0.51665 0.77509 0.0
H928 H 0.5599 0.5576 0.84932 0.0
H929 H 0.53887 0.53686 0.82585 0.0
H930 H 0.52052 0.565 0.87657 0.0
H931 H 0.49958 0.54446 0.85289 0.0
H932 H 0.44532 0.44385 0.85014 0.0
H933 H 0.46595 0.46456 0.82633 0.0
H934 H 0.43894 0.48384 0.87745 0.0
H935 H 0.45941 0.50447 0.85347 0.0
H936 H 0.42342 0.45775 0.78484 0.0
H937 H 0.4441 0.48229 0.8047 0.0
H938 H 0.46491 0.45584 0.7547 0.0
H939 H 0.48555 0.47996 0.77499 0.0
N940 N 0.49341 0.50964 0.79432 0.0
N941 N 0.49027 0.51325 0.83432 0.0
C942 C 0.65955 0.78032 0.50979 0.0
C943 C 0.64664 0.77239 0.49518 0.0
C944 C 0.65943 0.79226 0.52321 0.0
C945 C 0.64622 0.79624 0.52253 0.0
C946 C 0.63335 0.77625 0.49468 0.0
C947 C 0.63318 0.78808 0.50817 0.0
C948 C 0.64678 0.81011 0.53514 0.0
C949 C 0.64356 0.77009 0.57812 0.0
C950 C 0.65692 0.77602 0.59225 0.0
C951 C 0.6412 0.78167 0.56646 0.0
C952 C 0.65246 0.79938 0.56831 0.0
C953 C 0.66782 0.79373 0.59452 0.0
C954 C 0.6656 0.80527 0.58269 0.0
C955 C 0.6504 0.81199 0.55602 0.0
C956 C 0.64353 0.87361 0.57821 0.0
C957 C 0.65706 0.8812 0.59211 0.0
C958 C 0.64118 0.85969 0.56644 0.0
C959 C 0.65257 0.85335 0.56803 0.0
C960 C 0.66818 0.87458 0.594 0.0
C961 C 0.66593 0.86081 0.58213 0.0
C962 C 0.6504 0.83856 0.55588 0.0
C963 C 0.65894 0.8787 0.50907 0.0
C964 C 0.64609 0.8734 0.49432 0.0
C965 C 0.65895 0.86693 0.52278 0.0
C966 C 0.64591 0.84969 0.52227 0.0
C967 C 0.63295 0.85621 0.49403 0.0
C968 C 0.6329 0.84449 0.50781 0.0
C969 C 0.6467 0.83661 0.53501 0.0
H970 H 0.67011 0.77783 0.51032 0.0
H971 H 0.66997 0.79877 0.53366 0.0
H972 H 0.62317 0.77026 0.48368 0.0
H973 H 0.62295 0.79107 0.5072 0.0
H974 H 0.63482 0.75651 0.57627 0.0
H975 H 0.63054 0.77674 0.55608 0.0
H976 H 0.67831 0.79866 0.60517 0.0
H977 H 0.67437 0.81884 0.58459 0.0
H978 H 0.63462 0.8783 0.57663 0.0
H979 H 0.63039 0.85382 0.55624 0.0
H980 H 0.67882 0.88026 0.60442 0.0
H981 H 0.67482 0.8561 0.58379 0.0
H982 H 0.66939 0.8918 0.50945 0.0
H983 H 0.66949 0.8712 0.53327 0.0
H984 H 0.62282 0.85177 0.48294 0.0
H985 H 0.6228 0.83125 0.50696 0.0
N986 N 0.64496 0.82242 0.5256 0.0
N987 N 0.65214 0.82618 0.56546 0.0
C988 C 0.13242 0.77293 0.50913 0.0
C989 C 0.12631 0.77766 0.49225 0.0
C990 C 0.1439 0.7854 0.52253 0.0
C991 C 0.14929 0.80277 0.51939 0.0
C992 C 0.13148 0.79502 0.48944 0.0
C993 C 0.14289 0.80741 0.50278 0.0
C994 C 0.16264 0.81645 0.53208 0.0
C995 C 0.11762 0.78738 0.57269 0.0
C996 C 0.12044 0.77925 0.5891 0.0
C997 C 0.13129 0.79932 0.56107 0.0
C998 C 0.14812 0.80328 0.56541 0.0
C999 C 0.13733 0.78346 0.59366 0.0
C1000 C 0.15104 0.79543 0.58198 0.0
C1001 C 0.16267 0.81628 0.55338 0.0
C1002 C 0.21714 0.88787 0.57394 0.0
C1003 C 0.22532 0.8849 0.59019 0.0
C1004 C 0.20545 0.87434 0.56193 0.0
C1005 C 0.2018 0.85753 0.56572 0.0
C1006 C 0.22146 0.86802 0.59414 0.0
C1007 C 0.20975 0.85447 0.58208 0.0
C1008 C 0.18895 0.84304 0.55348 0.0
C1009 C 0.2315 0.87493 0.50861 0.0
C1010 C 0.22607 0.88057 0.4919 0.0
C1011 C 0.21951 0.86318 0.52225 0.0
C1012 C 0.20194 0.85709 0.51953 0.0
C1013 C 0.20853 0.87477 0.48959 0.0
C1014 C 0.19663 0.86313 0.50317 0.0
C1015 C 0.18875 0.84324 0.53218 0.0
H1016 H 0.12879 0.75967 0.51159 0.0
H1017 H 0.14896 0.78151 0.53495 0.0
H1018 H 0.12676 0.79906 0.47681 0.0
H1019 H 0.14684 0.82072 0.50001 0.0
H1020 H 0.10484 0.7848 0.56906 0.0
H1021 H 0.12871 0.80566 0.54886 0.0
H1022 H 0.13994 0.77741 0.60617 0.0
H1023 H 0.16393 0.79845 0.58578 0.0
H1024 H 0.21948 0.90063 0.57077 0.0
H1025 H 0.19903 0.877 0.54989 0.0
H1026 H 0.22759 0.86529 0.60646 0.0
H1027 H 0.20698 0.84158 0.58545 0.0
H1028 H 0.24492 0.87908 0.5107 0.0
H1029 H 0.22393 0.85844 0.53447 0.0
H1030 H 0.20396 0.87911 0.4771 0.0
H1031 H 0.18317 0.85863 0.50073 0.0
N1032 N 0.17562 0.82995 0.52244 0.0
N1033 N 0.17592 0.82951 0.56325 0.0
C1034 C 0.23261 0.36178 0.50727 0.0
C1035 C 0.22783 0.35159 0.48975 0.0
C1036 C 0.22009 0.36081 0.52067 0.0
C1037 C 0.20267 0.34943 0.51688 0.0
C1038 C 0.21041 0.34012 0.48624 0.0
C1039 C 0.19801 0.33911 0.49958 0.0
C1040 C 0.1889 0.3488 0.52968 0.0
C1041 C 0.21857 0.33199 0.56877 0.0
C1042 C 0.22264 0.33897 0.58837 0.0
C1043 C 0.20711 0.33413 0.55667 0.0
C1044 C 0.20011 0.34417 0.56327 0.0
C1045 C 0.21504 0.34845 0.59523 0.0
C1046 C 0.20408 0.35112 0.5828 0.0
C1047 C 0.18768 0.3465 0.55082 0.0
C1048 C 0.1153 0.33111 0.56781 0.0
C1049 C 0.11787 0.33853 0.58715 0.0
C1050 C 0.12915 0.33335 0.55604 0.0
C1051 C 0.14602 0.34391 0.5627 0.0
C1052 C 0.13481 0.34844 0.59413 0.0
C1053 C 0.14866 0.35119 0.58201 0.0
C1054 C 0.161 0.34648 0.55052 0.0
C1055 C 0.12993 0.36027 0.50812 0.0
C1056 C 0.12621 0.35187 0.48929 0.0
C1057 C 0.14177 0.3596 0.52127 0.0
C1058 C 0.14962 0.34998 0.51619 0.0
C1059 C 0.13476 0.34295 0.48401 0.0
C1060 C 0.1461 0.34187 0.49732 0.0
C1061 C 0.16241 0.34895 0.52936 0.0
H1062 H 0.24595 0.3708 0.51028 0.0
H1063 H 0.22397 0.36914 0.53373 0.0
H1064 H 0.20634 0.33189 0.47308 0.0
H1065 H 0.18466 0.33025 0.49631 0.0
H1066 H 0.22417 0.32478 0.56261 0.0
H1067 H 0.20361 0.32767 0.54226 0.0
H1068 H 0.21726 0.35362 0.61035 0.0
H1069 H 0.19857 0.35856 0.58857 0.0
H1070 H 0.1026 0.32355 0.56158 0.0
H1071 H 0.12656 0.32675 0.54172 0.0
H1072 H 0.13751 0.35393 0.60911 0.0
H1073 H 0.16151 0.359 0.58783 0.0
H1074 H 0.12367 0.36728 0.51283 0.0
H1075 H 0.14473 0.36659 0.53535 0.0
H1076 H 0.1329 0.33687 0.46943 0.0
H1077 H 0.1522 0.33466 0.49272 0.0
N1078 N 0.17626 0.34989 0.52001 0.0
N1079 N 0.17381 0.34557 0.5603 0.0
C1080 C 0.97785 0.37606 0.06801 0.0
C1081 C 0.99449 0.38035 0.06214 0.0
C1082 C 0.97508 0.38458 0.0841 0.0
C1083 C 0.98927 0.39768 0.09454 0.0
C1084 C 0.00604 0.40155 0.08923 0.0
C1085 C 0.00844 0.39286 0.07313 0.0
C1086 C 0.95701 0.38003 0.08938 0.0
C1087 C 0.02153 0.41541 0.1 0.0
C1088 C 0.98669 0.43462 0.1182 0.0
C1089 C 0.98584 0.43089 0.13882 0.0
C1090 C 0.98721 0.42361 0.10365 0.0
C1091 C 0.98684 0.40841 0.10982 0.0
C1092 C 0.98532 0.40421 0.13056 0.0
C1093 C 0.98483 0.41551 0.14485 0.0
C1094 C 0.98874 0.42854 0.08168 0.0
C1095 C 0.98484 0.3881 0.13771 0.0
H1096 H 0.96699 0.36637 0.05968 0.0
H1097 H 0.02134 0.39619 0.06887 0.0
H1098 H 0.9548 0.37781 0.10583 0.0
H1099 H 0.95501 0.39086 0.08549 0.0
H1100 H 0.94735 0.36845 0.08124 0.0
H1101 H 0.03359 0.416 0.09505 0.0
H1102 H 0.02259 0.42801 0.09709 0.0
H1103 H 0.02016 0.41327 0.11652 0.0
H1104 H 0.98711 0.44632 0.11343 0.0
H1105 H 0.98423 0.41258 0.16077 0.0
H1106 H 0.97849 0.41798 0.07279 0.0
H1107 H 1.00117 0.43077 0.07562 0.0
H1108 H 0.98792 0.4403 0.07931 0.0
H1109 H 0.975 0.37684 0.1293 0.0
H1110 H 0.98208 0.3859 0.1541 0.0
H1111 H 0.99736 0.38898 0.13468 0.0
C1112 C 0.61255 0.61389 0.07435 0.0
C1113 C 0.62498 0.61246 0.06309 0.0
C1114 C 0.60432 0.60305 0.09073 0.0
C1115 C 0.6086 0.59046 0.09607 0.0
C1116 C 0.62168 0.58945 0.08538 0.0
C1117 C 0.62971 0.60046 0.069 0.0
C1118 C 0.59046 0.60458 0.10175 0.0
C1119 C 0.62667 0.57626 0.09071 0.0
C1120 C 0.59129 0.56883 0.14667 0.0
C1121 C 0.57589 0.55442 0.14083 0.0
C1122 C 0.60251 0.58039 0.13221 0.0
C1123 C 0.59819 0.5774 0.1115 0.0
C1124 C 0.58305 0.56244 0.10554 0.0
C1125 C 0.57213 0.55115 0.12026 0.0
C1126 C 0.61858 0.59615 0.13913 0.0
C1127 C 0.578 0.55871 0.08362 0.0
H1128 H 0.60888 0.6232 0.07005 0.0
H1129 H 0.63936 0.59931 0.06047 0.0
H1130 H 0.57791 0.5929 0.09909 0.0
H1131 H 0.59284 0.60559 0.11822 0.0
H1132 H 0.58957 0.61586 0.09676 0.0
H1133 H 0.63832 0.57837 0.08251 0.0
H1134 H 0.62899 0.57644 0.10714 0.0
H1135 H 0.61602 0.56331 0.08688 0.0
H1136 H 0.59423 0.57143 0.16256 0.0
H1137 H 0.56041 0.53983 0.11566 0.0
H1138 H 0.6174 0.60765 0.13635 0.0
H1139 H 0.6298 0.59774 0.13042 0.0
H1140 H 0.62106 0.59566 0.15544 0.0
H1141 H 0.57542 0.56864 0.0775 0.0
H1142 H 0.5664 0.54599 0.08143 0.0
H1143 H 0.58862 0.55916 0.07467 0.0
C1144 C 0.40221 0.02613 0.07134 0.0
C1145 C 0.39185 0.00929 0.06447 0.0
C1146 C 0.41376 0.0298 0.08736 0.0
C1147 C 0.41514 0.01635 0.09649 0.0
C1148 C 0.40459 0.99933 0.08975 0.0
C1149 C 0.39303 0.99601 0.07396 0.0
C1150 C 0.42463 0.04807 0.09434 0.0
C1151 C 0.40579 0.98464 0.09889 0.0
C1152 C 0.45622 0.02507 0.12247 0.0
C1153 C 0.45153 0.02335 0.14287 0.0
C1154 C 0.44467 0.02333 0.10726 0.0
C1155 C 0.42806 0.01998 0.11256 0.0
C1156 C 0.42344 0.01882 0.13316 0.0
C1157 C 0.43519 0.02038 0.14807 0.0
C1158 C 0.45002 0.02439 0.08548 0.0
C1159 C 0.40594 0.0155 0.13943 0.0
H1160 H 0.40134 0.03646 0.06418 0.0
H1161 H 0.38514 0.98296 0.06876 0.0
H1162 H 0.42306 0.04896 0.11081 0.0
H1163 H 0.43834 0.05242 0.09157 0.0
H1164 H 0.42133 0.05691 0.08649 0.0
H1165 H 0.39649 0.97211 0.09214 0.0
H1166 H 0.41888 0.98667 0.0967 0.0
H1167 H 0.40344 0.98405 0.11536 0.0
H1168 H 0.46876 0.02716 0.11836 0.0
H1169 H 0.43158 0.0192 0.16383 0.0
H1170 H 0.44795 0.03392 0.07731 0.0
H1171 H 0.44202 0.01183 0.07804 0.0
H1172 H 0.46368 0.02798 0.08391 0.0
H1173 H 0.40301 0.02474 0.13199 0.0
H1174 H 0.40488 0.01646 0.15601 0.0
H1175 H 0.39609 0.0025 0.13452 0.0
C1176 C 0.38359 0.9742 0.9641 0.0
C1177 C 0.3756 0.98403 0.96243 0.0
C1178 C 0.39239 0.97238 0.94767 0.0
C1179 C 0.39257 0.98002 0.92896 0.0
C1180 C 0.3834 0.98891 0.92687 0.0
C1181 C 0.37537 0.99118 0.94381 0.0
C1182 C 0.4025 0.96333 0.95077 0.0
C1183 C 0.38263 0.99658 0.90698 0.0
C1184 C 0.43186 0.99457 0.89617 0.0
C1185 C 0.42699 0.98045 0.88334 0.0
C1186 C 0.42077 0.99454 0.911 0.0
C1187 C 0.40397 0.98044 0.91245 0.0
C1188 C 0.39849 0.96664 0.89875 0.0
C1189 C 0.41015 0.96663 0.88462 0.0
C1190 C 0.42729 0.00941 0.92555 0.0
C1191 C 0.38044 0.95171 0.89928 0.0
H1192 H 0.38387 0.96883 0.97861 0.0
H1193 H 0.36906 0.9987 0.94256 0.0
H1194 H 0.39912 0.9533 0.93915 0.0
H1195 H 0.41636 0.97265 0.94913 0.0
H1196 H 0.40028 0.95732 0.96589 0.0
H1197 H 0.37267 1.0004 0.90699 0.0
H1198 H 0.39517 0.0081 0.90382 0.0
H1199 H 0.37994 0.98736 0.89451 0.0
H1200 H 0.44453 0.00566 0.8949 0.0
H1201 H 0.40613 0.95558 0.87497 0.0
H1202 H 0.42598 0.00471 0.94126 0.0
H1203 H 0.41955 0.01581 0.92429 0.0
H1204 H 0.44092 0.01908 0.92284 0.0
H1205 H 0.37855 0.94401 0.91304 0.0
H1206 H 0.37751 0.94323 0.88594 0.0
H1207 H 0.37112 0.95634 0.8999 0.0
C1208 C 0.02924 0.40158 0.9518 0.0
C1209 C 0.0128 0.38899 0.95789 0.0
C1210 C 0.03153 0.41262 0.93566 0.0
C1211 C 0.01704 0.41103 0.92542 0.0
C1212 C 1.00049 0.39788 0.93094 0.0
C1213 C 0.99858 0.38703 0.94706 0.0
C1214 C 0.04939 0.42641 0.93012 0.0
C1215 C 0.98469 0.39574 0.92042 0.0
C1216 C 0.01815 0.44987 0.90202 0.0
C1217 C 0.01882 0.44693 0.88136 0.0
C1218 C 0.01814 0.43858 0.9165 0.0
C1219 C 0.01892 0.42397 0.9102 0.0
C1220 C 0.02028 0.42125 0.8894 0.0
C1221 C 0.02021 0.43278 0.8752 0.0
C1222 C 0.01674 0.442 0.93852 0.0
C1223 C 0.0212 0.40586 0.88212 0.0
H1224 H 0.04033 0.40316 0.95999 0.0
H1225 H 0.98582 0.37728 0.9515 0.0
H1226 H 0.05144 0.4264 0.91363 0.0
H1227 H 0.05109 0.43912 0.93412 0.0
H1228 H 0.05935 0.42482 0.93803 0.0
H1229 H 0.97287 0.38412 0.9255 0.0
H1230 H 0.98326 0.40707 0.92343 0.0
H1231 H 0.98594 0.39493 0.90387 0.0
H1232 H 0.01746 0.46099 0.90691 0.0
H1233 H 0.02068 0.4304 0.85925 0.0
H1234 H 0.02729 0.4421 0.94719 0.0
H1235 H 0.00453 0.43162 0.94476 0.0
H1236 H 0.01715 0.4544 0.94097 0.0
H1237 H 0.03134 0.40481 0.89034 0.0
H1238 H 0.02382 0.40643 0.86569 0.0
H1239 H 0.00889 0.39405 0.88529 0.0
C1240 C 0.60328 0.62697 0.95104 0.0
C1241 C 0.61309 0.62029 0.95917 0.0
C1242 C 0.59215 0.61889 0.93476 0.0
C1243 C 0.59066 0.60369 0.92657 0.0
C1244 C 0.60077 0.59709 0.93444 0.0
C1245 C 0.6119 0.60551 0.95055 0.0
C1246 C 0.58171 0.62641 0.92661 0.0
C1247 C 0.59946 0.58083 0.92625 0.0
C1248 C 0.54941 0.57162 0.90077 0.0
C1249 C 0.55416 0.57411 0.88038 0.0
C1250 C 0.56107 0.58141 0.91589 0.0
C1251 C 0.57789 0.5941 0.91051 0.0
C1252 C 0.58266 0.59695 0.88992 0.0
C1253 C 0.57076 0.58683 0.87509 0.0
C1254 C 0.55554 0.57781 0.93768 0.0
C1255 C 0.6004 0.61049 0.88359 0.0
H1256 H 0.60417 0.63843 0.95752 0.0
H1257 H 0.6194 0.60022 0.9567 0.0
H1258 H 0.58349 0.62819 0.91006 0.0
H1259 H 0.56792 0.61745 0.92936 0.0
H1260 H 0.58521 0.63891 0.93368 0.0
H1261 H 0.60865 0.57773 0.93356 0.0
H1262 H 0.58631 0.56998 0.92866 0.0
H1263 H 0.60187 0.58198 0.90978 0.0
H1264 H 0.53667 0.56164 0.90495 0.0
H1265 H 0.57442 0.58888 0.85933 0.0
H1266 H 0.55765 0.58968 0.94526 0.0
H1267 H 0.56339 0.57337 0.94571 0.0
H1268 H 0.54184 0.56791 0.9393 0.0
H1269 H 0.60352 0.62304 0.89017 0.0
H1270 H 0.60176 0.61181 0.86695 0.0
H1271 H 0.60995 0.60724 0.88942 0.0
C1272 C 0.99727 0.6119 0.94759 0.0
C1273 C 0.01148 0.62431 0.95831 0.0
C1274 C 0.99924 0.60303 0.93137 0.0
C1275 C 0.01585 0.60666 0.92564 0.0
C1276 C 0.03031 0.61969 0.93578 0.0
C1277 C 0.02796 0.62836 0.95202 0.0
C1278 C 0.98348 0.58924 0.92094 0.0
C1279 C 0.04821 0.62397 0.93003 0.0
C1280 C 0.01747 0.56922 0.90195 0.0
C1281 C 0.01798 0.57277 0.88131 0.0
C1282 C 0.01736 0.58044 0.9165 0.0
C1283 C 0.01783 0.59568 0.91031 0.0
C1284 C 0.01901 0.5997 0.88953 0.0
C1285 C 0.01908 0.58818 0.87525 0.0
C1286 C 0.01616 0.57569 0.93851 0.0
C1287 C 0.0196 0.61586 0.88237 0.0
H1288 H 0.98448 0.60874 0.95219 0.0
H1289 H 0.03903 0.63798 0.96013 0.0
H1290 H 0.98459 0.59126 0.9044 0.0
H1291 H 0.98227 0.57658 0.92387 0.0
H1292 H 0.97159 0.58888 0.92618 0.0
H1293 H 0.05811 0.63559 0.93791 0.0
H1294 H 0.05014 0.61309 0.9339 0.0
H1295 H 0.05013 0.62602 0.91353 0.0
H1296 H 0.017 0.55751 0.90675 0.0
H1297 H 0.01942 0.59097 0.85931 0.0
H1298 H 0.00392 0.57371 0.94488 0.0
H1299 H 0.02667 0.58624 0.94713 0.0
H1300 H 0.01681 0.56384 0.94086 0.0
H1301 H 0.00722 0.61519 0.8857 0.0
H1302 H 0.0221 0.61789 0.86592 0.0
H1303 H 0.02968 0.62713 0.89054 0.0
C1304 C 0.37613 0.40172 0.95236 0.0
C1305 C 0.38266 0.39186 0.96071 0.0
C1306 C 0.38432 0.41272 0.936 0.0
C1307 C 0.39948 0.41401 0.92793 0.0
C1308 C 0.40592 0.40384 0.93602 0.0
C1309 C 0.39741 0.39286 0.95222 0.0
C1310 C 0.37697 0.42324 0.92764 0.0
C1311 C 0.42211 0.40492 0.92796 0.0
C1312 C 0.41644 0.43346 0.87627 0.0
C1313 C 0.42929 0.45005 0.8814 0.0
C1314 C 0.40627 0.42171 0.8912 0.0
C1315 C 0.40917 0.42663 0.91175 0.0
C1316 C 0.42199 0.44344 0.91698 0.0
C1317 C 0.43184 0.45494 0.90175 0.0
C1318 C 0.39262 0.40397 0.88503 0.0
C1319 C 0.42564 0.44913 0.93871 0.0
H1320 H 0.36471 0.401 0.95874 0.0
H1321 H 0.40259 0.38531 0.95852 0.0
H1322 H 0.38604 0.43703 0.93026 0.0
H1323 H 0.37517 0.42134 0.91111 0.0
H1324 H 0.3645 0.41993 0.93466 0.0
H1325 H 0.42509 0.3957 0.93542 0.0
H1326 H 0.42096 0.40239 0.91151 0.0
H1327 H 0.43305 0.41803 0.93027 0.0
H1328 H 0.41433 0.42967 0.86055 0.0
H1329 H 0.44191 0.46767 0.90583 0.0
H1330 H 0.3801 0.40103 0.89152 0.0
H1331 H 0.39573 0.39438 0.89107 0.0
H1332 H 0.39132 0.40246 0.8684 0.0
H1333 H 0.4138 0.44719 0.94623 0.0
H1334 H 0.43563 0.46281 0.9402 0.0
H1335 H 0.42997 0.44125 0.94689 0.0
C1336 C 0.6128 0.00102 0.94983 0.0
C1337 C 0.61236 0.98772 0.96125 0.0
C1338 C 0.60145 0.99761 0.9338 0.0
C1339 C 0.58938 0.98046 0.9289 0.0
C1340 C 0.58938 0.96693 0.9397 0.0
C1341 C 0.60083 0.97072 0.95582 0.0
C1342 C 0.60186 0.01243 0.92272 0.0
C1343 C 0.57683 0.94848 0.93474 0.0
C1344 C 0.54892 0.97563 0.90566 0.0
C1345 C 0.55218 0.97558 0.88498 0.0
C1346 C 0.56058 0.9764 0.92011 0.0
C1347 C 0.57584 0.97695 0.91378 0.0
C1348 C 0.57875 0.97586 0.89297 0.0
C1349 C 0.56688 0.97522 0.87878 0.0
C1350 C 0.55694 0.97751 0.94214 0.0
C1351 C 0.59478 0.97622 0.88566 0.0
H1352 H 0.62171 0.01421 0.95377 0.0
H1353 H 0.60046 0.96035 0.96445 0.0
H1354 H 0.60282 0.011 0.90624 0.0
H1355 H 0.58977 0.01254 0.92554 0.0
H1356 H 0.61274 0.02497 0.9275 0.0
H1357 H 0.57981 0.93951 0.94285 0.0
H1358 H 0.56372 0.9455 0.93896 0.0
H1359 H 0.5768 0.9462 0.91829 0.0
H1360 H 0.53737 0.97549 0.91056 0.0
H1361 H 0.56948 0.97519 0.86283 0.0
H1362 H 0.56648 0.99024 0.94817 0.0
H1363 H 0.55815 0.96773 0.95095 0.0
H1364 H 0.54395 0.97569 0.94463 0.0
H1365 H 0.60594 0.98919 0.88799 0.0
H1366 H 0.59406 0.97296 0.8694 0.0
H1367 H 0.59715 0.96714 0.89443 0.0
C1368 C 0.61979 0.02486 0.0645 0.0
C1369 C 0.6231 0.01123 0.06434 0.0
C1370 C 0.61079 0.02699 0.08052 0.0
C1371 C 0.60541 0.0155 0.097 0.0
C1372 C 0.60948 0.00223 0.09735 0.0
C1373 C 0.61805 1.0001 0.08088 0.0
C1374 C 0.60636 0.04106 0.07934 0.0
C1375 C 0.60438 0.98999 0.11488 0.0
C1376 C 0.5915 0.02829 0.14514 0.0
C1377 C 0.57366 0.01847 0.14369 0.0
C1378 C 0.60206 0.0273 0.1302 0.0
C1379 C 0.59452 0.01661 0.11319 0.0
C1380 C 0.57646 0.00684 0.11162 0.0
C1381 C 0.56626 0.00773 0.12703 0.0
C1382 C 0.62123 0.03755 0.13267 0.0
C1383 C 0.5679 0.99559 0.09354 0.0
H1384 H 0.62356 0.03341 0.05167 0.0
H1385 H 0.62071 0.98963 0.08088 0.0
H1386 H 0.59226 0.03534 0.07854 0.0
H1387 H 0.61075 0.04911 0.09311 0.0
H1388 H 0.61217 0.0494 0.06598 0.0
H1389 H 0.60998 0.98149 0.11378 0.0
H1390 H 0.60852 0.99718 0.12929 0.0
H1391 H 0.59024 0.98189 0.11544 0.0
H1392 H 0.59715 0.03656 0.15811 0.0
H1393 H 0.55243 1.00027 0.12591 0.0
H1394 H 0.62702 0.04663 0.11995 0.0
H1395 H 0.62666 0.02889 0.13234 0.0
H1396 H 0.62505 0.04491 0.14701 0.0
H1397 H 0.57233 0.0033 0.07953 0.0
H1398 H 0.55373 0.9893 0.0943 0.0
H1399 H 0.57151 0.98552 0.09241 0.0
C1400 C 0.97738 0.60324 0.06902 0.0
C1401 C 0.99394 0.61553 0.06291 0.0
C1402 C 0.97482 0.59217 0.08521 0.0
C1403 C 0.98915 0.59343 0.09551 0.0
C1404 C 0.00584 0.60628 0.08995 0.0
C1405 C 0.00802 0.61715 0.07376 0.0
C1406 C 0.95683 0.57867 0.09076 0.0
C1407 C 0.02147 0.60809 0.10056 0.0
C1408 C 0.98522 0.57161 0.14588 0.0
C1409 C 0.98625 0.55723 0.13985 0.0
C1410 C 0.98556 0.58327 0.13159 0.0
C1411 C 0.98694 0.58044 0.11082 0.0
C1412 C 0.98734 0.56561 0.10466 0.0
C1413 C 0.98697 0.5542 0.11922 0.0
C1414 C 0.98506 0.59892 0.13873 0.0
C1415 C 0.98871 0.56204 0.08267 0.0
H1416 H 0.96641 0.60192 0.06081 0.0
H1417 H 0.02087 0.62669 0.0693 0.0
H1418 H 0.95486 0.56583 0.0869 0.0
H1419 H 0.95478 0.57883 0.10723 0.0
H1420 H 0.94705 0.58048 0.08274 0.0
H1421 H 0.03344 0.61953 0.09546 0.0
H1422 H 0.02023 0.60899 0.11709 0.0
H1423 H 0.0226 0.59657 0.09765 0.0
H1424 H 0.9847 0.57403 0.16181 0.0
H1425 H 0.9874 0.54291 0.11444 0.0
H1426 H 0.97509 0.60021 0.13045 0.0
H1427 H 0.99751 0.61054 0.13552 0.0
H1428 H 0.98245 0.59849 0.15515 0.0
H1429 H 0.97834 0.56221 0.07391 0.0
H1430 H 0.98798 0.54948 0.08033 0.0
H1431 H 1.00105 0.57221 0.07646 0.0
C1432 C 0.40206 0.37715 0.07155 0.0
C1433 C 0.39001 0.38164 0.0651 0.0
C1434 C 0.41294 0.38554 0.08793 0.0
C1435 C 0.41176 0.39875 0.09806 0.0
C1436 C 0.39913 0.40282 0.09219 0.0
C1437 C 0.38842 0.39422 0.07582 0.0
C1438 C 0.42619 0.38078 0.09383 0.0
C1439 C 0.39742 0.41681 0.10261 0.0
C1440 C 0.43333 0.41664 0.14861 0.0
C1441 C 0.44793 0.43184 0.14264 0.0
C1442 C 0.42165 0.4054 0.13425 0.0
C1443 C 0.42469 0.40947 0.11349 0.0
C1444 C 0.43971 0.42449 0.1074 0.0
C1445 C 0.45113 0.43544 0.12202 0.0
C1446 C 0.4058 0.38948 0.14132 0.0
C1447 C 0.44349 0.42928 0.08542 0.0
H1448 H 0.40335 0.36739 0.06345 0.0
H1449 H 0.37908 0.39772 0.07109 0.0
H1450 H 0.43914 0.39146 0.09009 0.0
H1451 H 0.42584 0.37866 0.11033 0.0
H1452 H 0.42427 0.36907 0.08594 0.0
H1453 H 0.38609 0.41748 0.09729 0.0
H1454 H 0.39636 0.41476 0.11914 0.0
H1455 H 0.40905 0.42935 0.09975 0.0
H1456 H 0.43077 0.41382 0.16453 0.0
H1457 H 0.46258 0.44698 0.11729 0.0
H1458 H 0.40439 0.37809 0.13317 0.0
H1459 H 0.39432 0.39053 0.13787 0.0
H1460 H 0.40605 0.38738 0.15777 0.0
H1461 H 0.44327 0.41862 0.07678 0.0
H1462 H 0.45613 0.44097 0.08315 0.0
H1463 H 0.43346 0.43157 0.079 0.0
C1464 C 0.67345 0.72904 0.40923 0.0
C1465 C 0.65987 0.71401 0.4011 0.0
C1466 C 0.67085 0.73755 0.42539 0.0
C1467 C 0.65429 0.73083 0.43379 0.0
C1468 C 0.64063 0.71537 0.42613 0.0
C1469 C 0.64356 0.70717 0.40982 0.0
C1470 C 0.68574 0.75406 0.43304 0.0
C1471 C 0.62283 0.70773 0.43483 0.0
C1472 C 0.6518 0.74846 0.48508 0.0
C1473 C 0.64762 0.76096 0.4797 0.0
C1474 C 0.65351 0.73816 0.47036 0.0
C1475 C 0.65117 0.74058 0.44978 0.0
C1476 C 0.64669 0.75301 0.44431 0.0
C1477 C 0.64492 0.763 0.45933 0.0
C1478 C 0.65813 0.72493 0.4768 0.0
C1479 C 0.64426 0.75612 0.42252 0.0
H1480 H 0.6861 0.73444 0.40266 0.0
H1481 H 0.63301 0.69553 0.40372 0.0
H1482 H 0.6832 0.76475 0.43049 0.0
H1483 H 0.6873 0.75325 0.44951 0.0
H1484 H 0.69796 0.75718 0.42546 0.0
H1485 H 0.61391 0.69501 0.4282 0.0
H1486 H 0.62318 0.70633 0.4514 0.0
H1487 H 0.61768 0.71642 0.43199 0.0
H1488 H 0.65374 0.74673 0.50083 0.0
H1489 H 0.64192 0.7728 0.45505 0.0
H1490 H 0.67087 0.72827 0.47065 0.0
H1491 H 0.64877 0.71221 0.4706 0.0
H1492 H 0.65848 0.72393 0.49345 0.0
H1493 H 0.65643 0.76061 0.41415 0.0
H1494 H 0.64015 0.7658 0.42085 0.0
H1495 H 0.63454 0.74402 0.41534 0.0
C1496 C 0.2928 0.93586 0.40416 0.0
C1497 C 0.2888 0.94824 0.39758 0.0
C1498 C 0.28419 0.92518 0.42061 0.0
C1499 C 0.2713 0.92694 0.43073 0.0
C1500 C 0.26768 0.93984 0.42464 0.0
C1501 C 0.27645 0.95031 0.40817 0.0
C1502 C 0.28843 0.9116 0.42668 0.0
C1503 C 0.25406 0.94216 0.43505 0.0
C1504 C 0.23436 0.88851 0.45588 0.0
C1505 C 0.2384 0.89196 0.47639 0.0
C1506 C 0.24521 0.89955 0.44091 0.0
C1507 C 0.26055 0.91444 0.44653 0.0
C1508 C 0.26502 0.91774 0.46717 0.0
C1509 C 0.25389 0.90643 0.48189 0.0
C1510 C 0.24 0.89548 0.41907 0.0
C1511 C 0.28128 0.93348 0.47373 0.0
H1512 H 0.30235 0.9342 0.39614 0.0
H1513 H 0.27334 0.9599 0.40334 0.0
H1514 H 0.29087 0.91223 0.44313 0.0
H1515 H 0.27737 0.89876 0.42342 0.0
H1516 H 0.2998 0.9129 0.41855 0.0
H1517 H 0.25366 0.95356 0.42947 0.0
H1518 H 0.24134 0.93068 0.43252 0.0
H1519 H 0.25631 0.94349 0.45155 0.0
H1520 H 0.22258 0.87716 0.45152 0.0
H1521 H 0.25705 0.90918 0.49771 0.0
H1522 H 0.25035 0.89522 0.41028 0.0
H1523 H 0.23796 0.90563 0.41251 0.0
H1524 H 0.22807 0.88299 0.41719 0.0
H1525 H 0.29242 0.93433 0.46556 0.0
H1526 H 0.28353 0.93355 0.4902 0.0
H1527 H 0.28059 0.94509 0.46991 0.0
C1528 C 0.07653 0.35955 0.39442 0.0
C1529 C 0.05875 0.35036 0.39692 0.0
C1530 C 0.08748 0.36145 0.41047 0.0
C1531 C 0.08043 0.35452 0.42961 0.0
C1532 C 0.06251 0.34642 0.43253 0.0
C1533 C 0.05184 0.34409 0.41602 0.0
C1534 C 0.10645 0.36969 0.40652 0.0
C1535 C 0.05451 0.33946 0.45284 0.0
C1536 C 0.10399 0.33841 0.46209 0.0
C1537 C 0.11367 0.35237 0.47495 0.0
C1538 C 0.09332 0.33908 0.44724 0.0
C1539 C 0.09153 0.35375 0.4457 0.0
C1540 C 0.10049 0.36755 0.45925 0.0
C1541 C 0.11168 0.36684 0.47348 0.0
C1542 C 0.08423 0.32415 0.4329 0.0
C1543 C 0.0984 0.38314 0.45857 0.0
H1544 H 0.08182 0.36424 0.37957 0.0
H1545 H 0.03806 0.33706 0.41794 0.0
H1546 H 0.11378 0.37959 0.41803 0.0
H1547 H 0.11039 0.35985 0.4076 0.0
H1548 H 0.11003 0.37566 0.39136 0.0
H1549 H 0.04092 0.33625 0.45342 0.0
H1550 H 0.05506 0.32769 0.45613 0.0
H1551 H 0.06169 0.34886 0.46492 0.0
H1552 H 0.10481 0.32688 0.46346 0.0
H1553 H 0.11909 0.37779 0.48313 0.0
H1554 H 0.08746 0.32865 0.4171 0.0
H1555 H 0.07018 0.31832 0.43463 0.0
H1556 H 0.08768 0.31408 0.43548 0.0
H1557 H 0.1038 0.3902 0.44431 0.0
H1558 H 0.10489 0.39198 0.47139 0.0
H1559 H 0.08462 0.37925 0.45886 0.0
C1560 C 0.0538 0.31227 0.29827 0.0
C1561 C 0.04504 0.32129 0.29571 0.0
C1562 C 0.06294 0.3104 0.28222 0.0
C1563 C 0.06274 0.31718 0.26304 0.0
C1564 C 0.05283 0.3252 0.26009 0.0
C1565 C 0.04441 0.32751 0.27659 0.0
C1566 C 0.07377 0.30225 0.28619 0.0
C1567 C 0.05171 0.332 0.23972 0.0
C1568 C 0.1019 0.33251 0.22966 0.0
C1569 C 0.09735 0.31833 0.21705 0.0
C1570 C 0.09083 0.33218 0.24473 0.0
C1571 C 0.07436 0.31761 0.24676 0.0
C1572 C 0.06927 0.30358 0.2335 0.0
C1573 C 0.08091 0.30397 0.21905 0.0
C1574 C 0.09692 0.34734 0.25877 0.0
C1575 C 0.05159 0.28808 0.23471 0.0
H1576 H 0.05441 0.30763 0.31314 0.0
H1577 H 0.03753 0.33441 0.27463 0.0
H1578 H 0.07104 0.29211 0.27492 0.0
H1579 H 0.0875 0.31205 0.28469 0.0
H1580 H 0.07161 0.29658 0.3015 0.0
H1581 H 0.04144 0.33539 0.23923 0.0
H1582 H 0.06405 0.34363 0.23616 0.0
H1583 H 0.04927 0.32242 0.22778 0.0
H1584 H 0.11426 0.34395 0.22792 0.0
H1585 H 0.07717 0.29283 0.20965 0.0
H1586 H 0.09588 0.34307 0.27465 0.0
H1587 H 0.08873 0.35321 0.25715 0.0
H1588 H 0.1104 0.35731 0.2558 0.0
H1589 H 0.05008 0.28129 0.24914 0.0
H1590 H 0.04904 0.27898 0.22211 0.0
H1591 H 0.04176 0.29207 0.23445 0.0
C1592 C 0.66088 0.719 0.28564 0.0
C1593 C 0.67527 0.72102 0.29612 0.0
C1594 C 0.6626 0.72932 0.26899 0.0
C1595 C 0.67911 0.74201 0.26266 0.0
C1596 C 0.69373 0.74369 0.27267 0.0
C1597 C 0.69164 0.73316 0.28927 0.0
C1598 C 0.64669 0.72708 0.25869 0.0
C1599 C 0.71155 0.75706 0.26635 0.0
C1600 C 0.68248 0.76239 0.21139 0.0
C1601 C 0.6817 0.77702 0.21682 0.0
C1602 C 0.68207 0.75101 0.22616 0.0
C1603 C 0.68093 0.75445 0.24678 0.0
C1604 C 0.68069 0.76949 0.25232 0.0
C1605 C 0.68109 0.78057 0.2373 0.0
C1606 C 0.68234 0.7351 0.21968 0.0
C1607 C 0.67962 0.77372 0.27414 0.0
H1608 H 0.64818 0.70958 0.29068 0.0
H1609 H 0.70285 0.73478 0.2972 0.0
H1610 H 0.64554 0.73863 0.26118 0.0
H1611 H 0.64755 0.72565 0.24219 0.0
H1612 H 0.63488 0.71576 0.2644 0.0
H1613 H 0.72158 0.75568 0.27441 0.0
H1614 H 0.71326 0.75627 0.24989 0.0
H1615 H 0.71349 0.76999 0.26951 0.0
H1616 H 0.68291 0.75957 0.19557 0.0
H1617 H 0.68083 0.79205 0.24159 0.0
H1618 H 0.67002 0.72361 0.22371 0.0
H1619 H 0.69259 0.73415 0.22777 0.0
H1620 H 0.68441 0.73487 0.2032 0.0
H1621 H 0.66742 0.76368 0.2808 0.0
H1622 H 0.68029 0.78629 0.27595 0.0
H1623 H 0.69018 0.77391 0.28289 0.0
C1624 C 0.28238 0.94402 0.28214 0.0
C1625 C 0.28136 0.95696 0.29277 0.0
C1626 C 0.27122 0.93533 0.26615 0.0
C1627 C 0.2587 0.93965 0.26061 0.0
C1628 C 0.25809 0.95322 0.27063 0.0
C1629 C 0.26944 0.96173 0.2866 0.0
C1630 C 0.27234 0.92097 0.2558 0.0
C1631 C 0.24496 0.95823 0.2651 0.0
C1632 C 0.23576 0.92123 0.21091 0.0
C1633 C 0.22118 0.90627 0.21744 0.0
C1634 C 0.24789 0.93258 0.22482 0.0
C1635 C 0.24531 0.92885 0.24569 0.0
C1636 C 0.23029 0.91409 0.25235 0.0
C1637 C 0.21843 0.90301 0.23817 0.0
C1638 C 0.26373 0.94821 0.21716 0.0
C1639 C 0.22698 0.9097 0.27447 0.0
H1640 H 0.29162 0.94032 0.28665 0.0
H1641 H 0.26859 0.97175 0.29465 0.0
H1642 H 0.26065 0.90861 0.25915 0.0
H1643 H 0.27299 0.92273 0.23922 0.0
H1644 H 0.28366 0.92014 0.26075 0.0
H1645 H 0.24734 0.97018 0.27279 0.0
H1646 H 0.24491 0.96005 0.24857 0.0
H1647 H 0.23202 0.94781 0.26938 0.0
H1648 H 0.23797 0.92377 0.1949 0.0
H1649 H 0.20701 0.89164 0.24331 0.0
H1650 H 0.27513 0.94695 0.22024 0.0
H1651 H 0.26558 0.95982 0.22518 0.0
H1652 H 0.26311 0.95008 0.2007 0.0
H1653 H 0.23698 0.90721 0.28059 0.0
H1654 H 0.21427 0.89823 0.27722 0.0
H1655 H 0.2277 0.92062 0.28302 0.0
C1656 C 0.66366 0.94198 0.28328 0.0
C1657 C 0.67772 0.95411 0.29446 0.0
C1658 C 0.66586 0.93344 0.26687 0.0
C1659 C 0.68253 0.93709 0.26143 0.0
C1660 C 0.69685 0.94986 0.27203 0.0
C1661 C 0.69428 0.95822 0.28844 0.0
C1662 C 0.65024 0.91994 0.25592 0.0
C1663 C 0.71482 0.95416 0.2666 0.0
C1664 C 0.6842 0.8999 0.23712 0.0
C1665 C 0.68508 0.90383 0.21656 0.0
C1666 C 0.68398 0.91093 0.25187 0.0
C1667 C 0.6847 0.92635 0.24594 0.0
C1668 C 0.68627 0.93075 0.22525 0.0
C1669 C 0.68646 0.91942 0.21077 0.0
C1670 C 0.68238 0.90579 0.27376 0.0
C1671 C 0.68712 0.9471 0.21838 0.0
H1672 H 0.65082 0.9388 0.28767 0.0
H1673 H 0.70523 0.96763 0.2969 0.0
H1674 H 0.65168 0.92227 0.23944 0.0
H1675 H 0.64887 0.90717 0.2586 0.0
H1676 H 0.63831 0.91959 0.26096 0.0
H1677 H 0.72462 0.96562 0.27481 0.0
H1678 H 0.71662 0.94317 0.27034 0.0
H1679 H 0.71701 0.95646 0.25017 0.0
H1680 H 0.6835 0.88804 0.2417 0.0
H1681 H 0.68711 0.9225 0.1949 0.0
H1682 H 0.67005 0.90376 0.27991 0.0
H1683 H 0.69276 0.91615 0.28273 0.0
H1684 H 0.68293 0.89386 0.27592 0.0
H1685 H 0.67472 0.94645 0.22145 0.0
H1686 H 0.68996 0.94943 0.20202 0.0
H1687 H 0.69708 0.95817 0.22693 0.0
C1688 C 0.05959 0.71962 0.28503 0.0
C1689 C 0.04703 0.72084 0.29627 0.0
C1690 C 0.06777 0.73053 0.26869 0.0
C1691 C 0.06332 0.74301 0.26339 0.0
C1692 C 0.05015 0.74385 0.2741 0.0
C1693 C 0.04216 0.73275 0.29043 0.0
C1694 C 0.08172 0.72919 0.25764 0.0
C1695 C 0.04501 0.75694 0.26884 0.0
C1696 C 0.09926 0.7827 0.23909 0.0
C1697 C 0.09531 0.77952 0.21853 0.0
C1698 C 0.08862 0.77119 0.25383 0.0
C1699 C 0.07358 0.7561 0.24792 0.0
C1700 C 0.06913 0.75312 0.22725 0.0
C1701 C 0.08006 0.7649 0.21277 0.0
C1702 C 0.0938 0.77492 0.27571 0.0
C1703 C 0.05318 0.7372 0.22039 0.0
H1704 H 0.06337 0.71038 0.28929 0.0
H1705 H 0.03242 0.73375 0.29894 0.0
H1706 H 0.07933 0.72817 0.24117 0.0
H1707 H 0.0942 0.74094 0.2603 0.0
H1708 H 0.08274 0.71797 0.26259 0.0
H1709 H 0.0334 0.75478 0.27718 0.0
H1710 H 0.05563 0.76993 0.27254 0.0
H1711 H 0.04254 0.75667 0.25244 0.0
H1712 H 0.11085 0.79416 0.24365 0.0
H1713 H 0.07697 0.76237 0.1969 0.0
H1714 H 0.09648 0.76503 0.28174 0.0
H1715 H 0.0832 0.7744 0.28478 0.0
H1716 H 0.10537 0.78767 0.27787 0.0
H1717 H 0.0545 0.72581 0.22337 0.0
H1718 H 0.0507 0.73755 0.20405 0.0
H1719 H 0.0419 0.73555 0.22902 0.0
C1720 C 0.28463 0.34084 0.28208 0.0
C1721 C 0.28348 0.32684 0.29265 0.0
C1722 C 0.27372 0.33846 0.26585 0.0
C1723 C 0.26134 0.32167 0.25998 0.0
C1724 C 0.26062 0.30746 0.26994 0.0
C1725 C 0.2717 0.31021 0.28617 0.0
C1726 C 0.27493 0.35397 0.25559 0.0
C1727 C 0.24765 0.28937 0.26405 0.0
C1728 C 0.2213 0.31806 0.23678 0.0
C1729 C 0.22437 0.31774 0.2161 0.0
C1730 C 0.23298 0.31879 0.25118 0.0
C1731 C 0.24815 0.31915 0.24478 0.0
C1732 C 0.25105 0.31817 0.22395 0.0
C1733 C 0.2391 0.31746 0.20982 0.0
C1734 C 0.22933 0.31971 0.27325 0.0
C1735 C 0.26704 0.31847 0.21657 0.0
H1736 H 0.29376 0.35374 0.28683 0.0
H1737 H 0.27076 0.2993 0.29416 0.0
H1738 H 0.27586 0.35298 0.23902 0.0
H1739 H 0.26316 0.3546 0.25871 0.0
H1740 H 0.28614 0.36608 0.26082 0.0
H1741 H 0.24996 0.27978 0.27173 0.0
H1742 H 0.23462 0.28679 0.26807 0.0
H1743 H 0.24787 0.28763 0.24752 0.0
H1744 H 0.20976 0.31792 0.24173 0.0
H1745 H 0.24155 0.31726 0.19385 0.0
H1746 H 0.23921 0.33213 0.27962 0.0
H1747 H 0.22996 0.30946 0.28174 0.0
H1748 H 0.21656 0.31843 0.27575 0.0
H1749 H 0.27836 0.33112 0.21992 0.0
H1750 H 0.26667 0.31609 0.20009 0.0
H1751 H 0.26884 0.3087 0.22458 0.0
C1752 C 0.27721 0.32991 0.40765 0.0
C1753 C 0.2905 0.3439 0.39755 0.0
C1754 C 0.26867 0.3323 0.42393 0.0
C1755 C 0.27351 0.34911 0.43032 0.0
C1756 C 0.28735 0.36328 0.42074 0.0
C1757 C 0.29568 0.36051 0.40445 0.0
C1758 C 0.25398 0.31684 0.43374 0.0
C1759 C 0.29294 0.38138 0.42718 0.0
C1760 C 0.23761 0.35337 0.45416 0.0
C1761 C 0.2407 0.3529 0.47479 0.0
C1762 C 0.24856 0.35278 0.43958 0.0
C1763 C 0.26304 0.35175 0.44575 0.0
C1764 C 0.26669 0.35207 0.46656 0.0
C1765 C 0.25546 0.35266 0.48088 0.0
C1766 C 0.24425 0.35258 0.41756 0.0
C1767 C 0.28205 0.35107 0.4737 0.0
H1768 H 0.27317 0.31701 0.40256 0.0
H1769 H 0.30599 0.37141 0.39683 0.0
H1770 H 0.25578 0.31734 0.45031 0.0
H1771 H 0.24185 0.31682 0.43085 0.0
H1772 H 0.25262 0.30464 0.428 0.0
H1773 H 0.30496 0.39088 0.41962 0.0
H1774 H 0.28276 0.38444 0.42349 0.0
H1775 H 0.29487 0.38276 0.44374 0.0
H1776 H 0.22639 0.35389 0.4494 0.0
H1777 H 0.25787 0.35226 0.49681 0.0
H1778 H 0.24126 0.34015 0.41073 0.0
H1779 H 0.25538 0.36275 0.4093 0.0
H1780 H 0.23311 0.35448 0.41527 0.0
H1781 H 0.28029 0.33828 0.47004 0.0
H1782 H 0.28405 0.35318 0.49021 0.0
H1783 H 0.29377 0.3607 0.46578 0.0
C1784 C 0.64259 0.93367 0.40707 0.0
C1785 C 0.65901 0.9434 0.39874 0.0
C1786 C 0.63964 0.9227 0.42349 0.0
C1787 C 0.65339 0.92129 0.43163 0.0
C1788 C 0.67003 0.9313 0.42353 0.0
C1789 C 0.67264 0.94227 0.40728 0.0
C1790 C 0.62176 0.91236 0.43188 0.0
C1791 C 0.68503 0.93008 0.43165 0.0
C1792 C 0.6508 0.90212 0.48347 0.0
C1793 C 0.64699 0.88546 0.47849 0.0
C1794 C 0.65239 0.91379 0.46843 0.0
C1795 C 0.65035 0.90873 0.44793 0.0
C1796 C 0.64627 0.89185 0.44286 0.0
C1797 C 0.64458 0.88042 0.45819 0.0
C1798 C 0.65656 0.93161 0.47444 0.0
C1799 C 0.64419 0.886 0.42118 0.0
H1800 H 0.63199 0.93451 0.40066 0.0
H1801 H 0.68538 0.9497 0.40098 0.0
H1802 H 0.61697 0.89853 0.42938 0.0
H1803 H 0.62183 0.91437 0.44839 0.0
H1804 H 0.6127 0.91574 0.42477 0.0
H1805 H 0.69725 0.93915 0.42412 0.0
H1806 H 0.68641 0.93274 0.44807 0.0
H1807 H 0.68273 0.91689 0.42948 0.0
H1808 H 0.65253 0.90602 0.49916 0.0
H1809 H 0.64187 0.86763 0.45423 0.0
H1810 H 0.64708 0.93463 0.46785 0.0
H1811 H 0.6693 0.94108 0.46841 0.0
H1812 H 0.65669 0.9332 0.49106 0.0
H1813 H 0.63439 0.88803 0.41362 0.0
H1814 H 0.64039 0.87227 0.41982 0.0
H1815 H 0.65641 0.89372 0.41295 0.0
C1816 C 0.05511 0.72444 0.41158 0.0
C1817 C 0.05731 0.71234 0.4006 0.0
C1818 C 0.06596 0.73349 0.42766 0.0
C1819 C 0.07936 0.73039 0.43299 0.0
C1820 C 0.08122 0.71769 0.42257 0.0
C1821 C 0.07018 0.70881 0.40647 0.0
C1822 C 0.06351 0.74692 0.43839 0.0
C1823 C 0.0953 0.71396 0.4279 0.0
C1824 C 0.11779 0.76845 0.45654 0.0
C1825 C 0.11495 0.76476 0.47718 0.0
C1826 C 0.10662 0.75709 0.44201 0.0
C1827 C 0.09223 0.74156 0.44823 0.0
C1828 C 0.08962 0.73741 0.469 0.0
C1829 C 0.10102 0.74908 0.48326 0.0
C1830 C 0.10992 0.76199 0.42002 0.0
C1831 C 0.07446 0.72094 0.4762 0.0
H1832 H 0.04514 0.72719 0.40731 0.0
H1833 H 0.07195 0.69945 0.39815 0.0
H1834 H 0.06277 0.74482 0.45491 0.0
H1835 H 0.07468 0.75977 0.43545 0.0
H1836 H 0.05175 0.74691 0.43341 0.0
H1837 H 0.09396 0.70255 0.41982 0.0
H1838 H 0.10788 0.72513 0.42394 0.0
H1839 H 0.09537 0.71186 0.44436 0.0
H1840 H 0.12874 0.78038 0.45171 0.0
H1841 H 0.09872 0.74617 0.49918 0.0
H1842 H 0.09936 0.7636 0.41391 0.0
H1843 H 0.11023 0.75168 0.41121 0.0
H1844 H 0.12218 0.77409 0.41762 0.0
H1845 H 0.06249 0.72119 0.47316 0.0
H1846 H 0.07512 0.71887 0.4926 0.0
H1847 H 0.07365 0.70989 0.46784 0.0
C1848 C 0.31408 0.04398 0.74163 0.0
C1849 C 0.33026 0.05056 0.73263 0.0
C1850 C 0.31151 0.05232 0.75806 0.0
C1851 C 0.32541 0.06768 0.76557 0.0
C1852 C 0.34183 0.07419 0.75683 0.0
C1853 C 0.34407 0.06553 0.74055 0.0
C1854 C 0.29385 0.04491 0.76709 0.0
C1855 C 0.35696 0.09058 0.76432 0.0
C1856 C 0.31623 0.09963 0.79205 0.0
C1857 C 0.31877 0.09721 0.81235 0.0
C1858 C 0.31816 0.08997 0.77674 0.0
C1859 C 0.32265 0.07748 0.78183 0.0
C1860 C 0.325 0.07478 0.80232 0.0
C1861 C 0.32312 0.08475 0.81734 0.0
C1862 C 0.31571 0.09337 0.75507 0.0
C1863 C 0.32964 0.06148 0.80835 0.0
H1864 H 0.30335 0.03238 0.73571 0.0
H1865 H 0.35662 0.07074 0.73374 0.0
H1866 H 0.29437 0.04333 0.7836 0.0
H1867 H 0.28891 0.05383 0.76466 0.0
H1868 H 0.28466 0.03231 0.76039 0.0
H1869 H 0.36902 0.09357 0.75645 0.0
H1870 H 0.35456 0.10139 0.76201 0.0
H1871 H 0.35873 0.08972 0.78073 0.0
H1872 H 0.31313 0.10942 0.78807 0.0
H1873 H 0.32496 0.08274 0.83303 0.0
H1874 H 0.30577 0.08142 0.74783 0.0
H1875 H 0.32778 0.09768 0.74654 0.0
H1876 H 0.31188 0.10327 0.75367 0.0
H1877 H 0.32004 0.04877 0.80236 0.0
H1878 H 0.3304 0.06052 0.82497 0.0
H1879 H 0.34219 0.06467 0.80171 0.0
C1880 C 0.94052 0.27649 0.74167 0.0
C1881 C 0.95549 0.27803 0.73317 0.0
C1882 C 0.93222 0.26531 0.75778 0.0
C1883 C 0.93911 0.25549 0.76576 0.0
C1884 C 0.95453 0.25739 0.75774 0.0
C1885 C 0.9625 0.26858 0.74148 0.0
C1886 C 0.91574 0.26359 0.76582 0.0
C1887 C 0.96236 0.24726 0.76599 0.0
C1888 C 0.92219 0.23513 0.81704 0.0
C1889 C 0.90972 0.21846 0.8116 0.0
C1890 C 0.93223 0.24721 0.80233 0.0
C1891 C 0.92959 0.24255 0.7817 0.0
C1892 C 0.91721 0.22565 0.77616 0.0
C1893 C 0.90747 0.21382 0.79117 0.0
C1894 C 0.94544 0.26504 0.80883 0.0
C1895 C 0.91387 0.22021 0.75433 0.0
H1896 H 0.93498 0.28372 0.7354 0.0
H1897 H 0.97411 0.26973 0.73511 0.0
H1898 H 0.90508 0.25037 0.76322 0.0
H1899 H 0.91671 0.26587 0.78232 0.0
H1900 H 0.91247 0.27267 0.75855 0.0
H1901 H 0.97502 0.25113 0.75912 0.0
H1902 H 0.96392 0.24894 0.78257 0.0
H1903 H 0.9537 0.23344 0.76304 0.0
H1904 H 0.92408 0.23873 0.83283 0.0
H1905 H 0.89769 0.20102 0.78685 0.0
H1906 H 0.94193 0.27441 0.80301 0.0
H1907 H 0.95811 0.26849 0.80237 0.0
H1908 H 0.94662 0.26633 0.82549 0.0
H1909 H 0.9092 0.22787 0.74628 0.0
H1910 H 0.90423 0.20644 0.75259 0.0
H1911 H 0.9259 0.22266 0.74687 0.0
C1912 C 0.73597 0.69517 0.73947 0.0
C1913 C 0.7263 0.67857 0.73161 0.0
C1914 C 0.7472 0.69859 0.75574 0.0
C1915 C 0.74892 0.68513 0.7642 0.0
C1916 C 0.73893 0.6683 0.75662 0.0
C1917 C 0.72769 0.66521 0.74052 0.0
C1918 C 0.7575 0.71667 0.76356 0.0
C1919 C 0.74048 0.6536 0.76512 0.0
C1920 C 0.79046 0.69504 0.78985 0.0
C1921 C 0.78582 0.69304 0.81027 0.0
C1922 C 0.77867 0.69286 0.77475 0.0
C1923 C 0.76184 0.6887 0.7802 0.0
C1924 C 0.75719 0.68708 0.80082 0.0
C1925 C 0.76922 0.68916 0.81562 0.0
C1926 C 0.78409 0.69449 0.75294 0.0
C1927 C 0.73943 0.68285 0.80722 0.0
H1928 H 0.73492 0.70556 0.73276 0.0
H1929 H 0.7203 0.65233 0.73459 0.0
H1930 H 0.75584 0.71693 0.78011 0.0
H1931 H 0.7713 0.72159 0.76069 0.0
H1932 H 0.75379 0.72545 0.75635 0.0
H1933 H 0.73133 0.64116 0.75806 0.0
H1934 H 0.75366 0.65596 0.76267 0.0
H1935 H 0.73818 0.65261 0.78161 0.0
H1936 H 0.80321 0.6978 0.78562 0.0
H1937 H 0.76564 0.68776 0.8314 0.0
H1938 H 0.78177 0.70403 0.74519 0.0
H1939 H 0.77631 0.68206 0.74513 0.0
H1940 H 0.79782 0.6984 0.75126 0.0
H1941 H 0.73613 0.69206 0.80043 0.0
H1942 H 0.73818 0.68312 0.82386 0.0
H1943 H 0.72995 0.66993 0.80167 0.0
C1944 C 0.70919 0.64117 0.62027 0.0
C1945 C 0.7158 0.65771 0.62824 0.0
C1946 C 0.71709 0.63805 0.60379 0.0
C1947 C 0.73205 0.65176 0.59524 0.0
C1948 C 0.73856 0.66852 0.60293 0.0
C1949 C 0.73032 0.6713 0.61924 0.0
C1950 C 0.70967 0.62004 0.59583 0.0
C1951 C 0.75456 0.68346 0.59436 0.0
C1952 C 0.76421 0.6428 0.56895 0.0
C1953 C 0.76142 0.64479 0.5486 0.0
C1954 C 0.7545 0.64469 0.58422 0.0
C1955 C 0.74155 0.64852 0.57903 0.0
C1956 C 0.73838 0.65014 0.55848 0.0
C1957 C 0.74845 0.64838 0.54349 0.0
C1958 C 0.75845 0.6431 0.60596 0.0
C1959 C 0.72456 0.65402 0.55235 0.0
H1960 H 0.69794 0.63061 0.62704 0.0
H1961 H 0.73555 0.68413 0.62525 0.0
H1962 H 0.70767 0.61981 0.57931 0.0
H1963 H 0.7188 0.61538 0.59849 0.0
H1964 H 0.6973 0.61105 0.60313 0.0
H1965 H 0.75758 0.6958 0.60153 0.0
H1966 H 0.76559 0.6814 0.59658 0.0
H1967 H 0.75313 0.68446 0.5779 0.0
H1968 H 0.77437 0.64026 0.57298 0.0
H1969 H 0.74617 0.64979 0.52776 0.0
H1970 H 0.74674 0.63334 0.61376 0.0
H1971 H 0.76282 0.65545 0.61387 0.0
H1972 H 0.76852 0.63949 0.60743 0.0
H1973 H 0.71216 0.64459 0.5592 0.0
H1974 H 0.72299 0.6538 0.53573 0.0
H1975 H 0.7277 0.66684 0.55804 0.0
C1976 C 0.33155 0.05424 0.61737 0.0
C1977 C 0.34566 0.05543 0.62773 0.0
C1978 C 0.33377 0.06502 0.60107 0.0
C1979 C 0.3505 0.07733 0.59493 0.0
C1980 C 0.36481 0.07805 0.60465 0.0
C1981 C 0.36222 0.06708 0.62095 0.0
C1982 C 0.31816 0.0638 0.59106 0.0
C1983 C 0.38284 0.09095 0.59846 0.0
C1984 C 0.35375 0.09931 0.54488 0.0
C1985 C 0.35335 0.11394 0.55131 0.0
C1986 C 0.35349 0.08752 0.55892 0.0
C1987 C 0.35287 0.0905 0.5798 0.0
C1988 C 0.35325 0.10564 0.58632 0.0
C1989 C 0.3535 0.11716 0.57201 0.0
C1990 C 0.35317 0.07156 0.5514 0.0
C1991 C 0.35271 0.10938 0.60844 0.0
H1992 H 0.3187 0.04518 0.62235 0.0
H1993 H 0.37321 0.06805 0.62878 0.0
H1994 H 0.31758 0.07558 0.59424 0.0
H1995 H 0.31897 0.06282 0.57447 0.0
H1996 H 0.3061 0.05261 0.59645 0.0
H1997 H 0.39249 0.08854 0.60586 0.0
H1998 H 0.38435 0.09074 0.58188 0.0
H1999 H 0.38557 0.10399 0.60262 0.0
H2000 H 0.35358 0.09676 0.52888 0.0
H2001 H 0.35353 0.12862 0.57704 0.0
H2002 H 0.34051 0.06024 0.5547 0.0
H2003 H 0.36293 0.06969 0.55935 0.0
H2004 H 0.35553 0.07199 0.53492 0.0
H2005 H 0.34035 0.0996 0.61504 0.0
H2006 H 0.35413 0.12221 0.61102 0.0
H2007 H 0.36304 0.10869 0.61667 0.0
C2008 C 0.93526 0.29148 0.62189 0.0
C2009 C 0.94698 0.28663 0.6286 0.0
C2010 C 0.92444 0.28323 0.60543 0.0
C2011 C 0.92536 0.26982 0.59546 0.0
C2012 C 0.93763 0.26534 0.60164 0.0
C2013 C 0.94827 0.27378 0.61812 0.0
C2014 C 0.91156 0.28841 0.59923 0.0
C2015 C 0.93904 0.25112 0.59138 0.0
C2016 C 0.8858 0.23389 0.57088 0.0
C2017 C 0.8893 0.23759 0.55032 0.0
C2018 C 0.89721 0.24457 0.58569 0.0
C2019 C 0.91253 0.25937 0.57982 0.0
C2020 C 0.91588 0.26355 0.55911 0.0
C2021 C 0.90418 0.25259 0.54457 0.0
C2022 C 0.89308 0.2397 0.6076 0.0
C2023 C 0.93206 0.27925 0.55231 0.0
H2024 H 0.93421 0.30145 0.6298 0.0
H2025 H 0.95736 0.27 0.62306 0.0
H2026 H 0.91222 0.29067 0.58274 0.0
H2027 H 0.89845 0.27788 0.60268 0.0
H2028 H 0.91359 0.30014 0.60716 0.0
H2029 H 0.9501 0.25009 0.59696 0.0
H2030 H 0.92718 0.23873 0.59407 0.0
H2031 H 0.94037 0.2532 0.57485 0.0
H2032 H 0.87415 0.22248 0.57541 0.0
H2033 H 0.90696 0.25547 0.52869 0.0
H2034 H 0.89353 0.25047 0.61624 0.0
H2035 H 0.90281 0.23703 0.61419 0.0
H2036 H 0.88025 0.22822 0.60967 0.0
H2037 H 0.93367 0.29074 0.5604 0.0
H2038 H 0.93211 0.28143 0.53583 0.0
H2039 H 0.94328 0.27784 0.55603 0.0
C2040 C 0.35703 0.29194 0.62457 0.0
C2041 C 0.3404 0.28681 0.63136 0.0
C2042 C 0.35982 0.28375 0.60816 0.0
C2043 C 0.34565 0.27013 0.5983 0.0
C2044 C 0.32884 0.26538 0.60454 0.0
C2045 C 0.32642 0.27376 0.62098 0.0
C2046 C 0.37794 0.28921 0.6019 0.0
C2047 C 0.31338 0.25094 0.59439 0.0
C2048 C 0.34979 0.2528 0.54749 0.0
C2049 C 0.34985 0.2379 0.55332 0.0
C2050 C 0.34898 0.26379 0.56198 0.0
C2051 C 0.3483 0.25977 0.58272 0.0
C2052 C 0.34909 0.24511 0.58865 0.0
C2053 C 0.34986 0.23439 0.57389 0.0
C2054 C 0.34821 0.27933 0.55509 0.0
C2055 C 0.34852 0.24042 0.61059 0.0
H2056 H 0.36792 0.30206 0.63242 0.0
H2057 H 0.31351 0.26977 0.62598 0.0
H2058 H 0.38079 0.27888 0.60543 0.0
H2059 H 0.37949 0.29138 0.58539 0.0
H2060 H 0.38746 0.30108 0.60972 0.0
H2061 H 0.30119 0.2497 0.6 0.0
H2062 H 0.31409 0.25296 0.57785 0.0
H2063 H 0.31313 0.23869 0.59713 0.0
H2064 H 0.34973 0.25552 0.53159 0.0
H2065 H 0.35023 0.22304 0.57847 0.0
H2066 H 0.35787 0.29091 0.56319 0.0
H2067 H 0.33546 0.27768 0.55873 0.0
H2068 H 0.35041 0.28151 0.53862 0.0
H2069 H 0.35867 0.25135 0.61913 0.0
H2070 H 0.35021 0.22913 0.61271 0.0
H2071 H 0.33605 0.2375 0.61724 0.0
C2072 C 0.72003 0.07682 0.63206 0.0
C2073 C 0.71097 0.05899 0.63006 0.0
C2074 C 0.72889 0.08729 0.61558 0.0
C2075 C 0.72808 0.07971 0.59657 0.0
C2076 C 0.71781 0.06177 0.5942 0.0
C2077 C 0.70968 0.05158 0.61111 0.0
C2078 C 0.74012 0.10629 0.61892 0.0
C2079 C 0.71603 0.05325 0.57404 0.0
C2080 C 0.74624 0.11008 0.55189 0.0
C2081 C 0.7625 0.11169 0.54978 0.0
C2082 C 0.73461 0.09923 0.56655 0.0
C2083 C 0.73956 0.09027 0.5799 0.0
C2084 C 0.7558 0.09163 0.57769 0.0
C2085 C 0.76685 0.10195 0.56241 0.0
C2086 C 0.71713 0.09757 0.56795 0.0
C2087 C 0.76174 0.08252 0.59181 0.0
H2088 H 0.72114 0.08249 0.64681 0.0
H2089 H 0.70257 0.03776 0.60961 0.0
H2090 H 0.75374 0.10984 0.61713 0.0
H2091 H 0.73739 0.11357 0.60751 0.0
H2092 H 0.73837 0.11031 0.63417 0.0
H2093 H 0.70544 0.03975 0.574 0.0
H2094 H 0.71368 0.06033 0.56196 0.0
H2095 H 0.72809 0.05339 0.57029 0.0
H2096 H 0.74267 0.11756 0.54244 0.0
H2097 H 0.77906 0.10252 0.56057 0.0
H2098 H 0.71607 0.10348 0.58216 0.0
H2099 H 0.70706 0.08388 0.5683 0.0
H2100 H 0.71456 0.10386 0.55512 0.0
H2101 H 0.7611 0.08618 0.60764 0.0
H2102 H 0.77505 0.08553 0.5886 0.0
H2103 H 0.7532 0.06848 0.59058 0.0
C2104 C 0.94467 0.67276 0.61826 0.0
C2105 C 0.94569 0.65915 0.62704 0.0
C2106 C 0.93357 0.67003 0.60211 0.0
C2107 C 0.92332 0.6533 0.59436 0.0
C2108 C 0.92469 0.63958 0.60267 0.0
C2109 C 0.93579 0.64265 0.61897 0.0
C2110 C 0.93241 0.68499 0.59378 0.0
C2111 C 0.9141 0.62159 0.59466 0.0
C2112 C 0.88196 0.64407 0.56875 0.0
C2113 C 0.88654 0.64594 0.54832 0.0
C2114 C 0.89372 0.64615 0.58383 0.0
C2115 C 0.91048 0.65008 0.57836 0.0
C2116 C 0.9151 0.65164 0.55773 0.0
C2117 C 0.9031 0.64965 0.54295 0.0
C2118 C 0.88834 0.64458 0.60566 0.0
C2119 C 0.93278 0.65563 0.55131 0.0
H2120 H 0.95224 0.68556 0.62435 0.0
H2121 H 0.93655 0.63206 0.62556 0.0
H2122 H 0.93467 0.68602 0.57727 0.0
H2123 H 0.91934 0.68294 0.5963 0.0
H2124 H 0.94177 0.69732 0.60089 0.0
H2125 H 0.91757 0.61258 0.60175 0.0
H2126 H 0.90035 0.61691 0.59754 0.0
H2127 H 0.91577 0.62141 0.5781 0.0
H2128 H 0.86926 0.64144 0.573 0.0
H2129 H 0.90664 0.65097 0.52716 0.0
H2130 H 0.89636 0.65693 0.61353 0.0
H2131 H 0.89036 0.63482 0.61333 0.0
H2132 H 0.8747 0.64099 0.60736 0.0
H2133 H 0.94242 0.66842 0.55706 0.0
H2134 H 0.93407 0.65554 0.53466 0.0
H2135 H 0.93584 0.64618 0.5579 0.0
C2136 C 0.94061 0.66491 0.73969 0.0
C2137 C 0.95534 0.67837 0.73087 0.0
C2138 C 0.93239 0.66782 0.75593 0.0
C2139 C 0.93913 0.68459 0.76373 0.0
C2140 C 0.95431 0.69814 0.75537 0.0
C2141 C 0.96219 0.69489 0.73898 0.0
C2142 C 0.91617 0.65304 0.76432 0.0
C2143 C 0.96198 0.71615 0.76343 0.0
C2144 C 0.9075 0.69448 0.78971 0.0
C2145 C 0.91016 0.69248 0.8101 0.0
C2146 C 0.91706 0.69224 0.77452 0.0
C2147 C 0.9297 0.68801 0.77984 0.0
C2148 C 0.93271 0.68633 0.80043 0.0
C2149 C 0.92283 0.68848 0.81532 0.0
C2150 C 0.9133 0.69396 0.75275 0.0
C2151 C 0.9462 0.68201 0.80669 0.0
H2152 H 0.93519 0.65209 0.73357 0.0
H2153 H 0.97361 0.70536 0.73236 0.0
H2154 H 0.91741 0.65195 0.7808 0.0
H2155 H 0.90532 0.65536 0.76193 0.0
H2156 H 0.91299 0.64066 0.75713 0.0
H2157 H 0.97447 0.725 0.75628 0.0
H2158 H 0.95308 0.72108 0.76068 0.0
H2159 H 0.96383 0.71627 0.77997 0.0
H2160 H 0.89756 0.69733 0.78557 0.0
H2161 H 0.92502 0.68707 0.83108 0.0
H2162 H 0.90876 0.68158 0.74483 0.0
H2163 H 0.92514 0.70358 0.74503 0.0
H2164 H 0.90343 0.69782 0.75117 0.0
H2165 H 0.94284 0.66916 0.8009 0.0
H2166 H 0.9476 0.68208 0.82332 0.0
H2167 H 0.95874 0.6913 0.80002 0.0
C2168 C 0.33803 0.27753 0.74417 0.0
C2169 C 0.32408 0.27829 0.73597 0.0
C2170 C 0.33586 0.26655 0.76025 0.0
C2171 C 0.31936 0.25614 0.76853 0.0
C2172 C 0.30531 0.25726 0.76082 0.0
C2173 C 0.30782 0.26827 0.74457 0.0
C2174 C 0.35117 0.26568 0.76792 0.0
C2175 C 0.28755 0.2465 0.76941 0.0
C2176 C 0.31182 0.21517 0.79367 0.0
C2177 C 0.3143 0.21984 0.81408 0.0
C2178 C 0.31305 0.22674 0.77877 0.0
C2179 C 0.31675 0.2434 0.7844 0.0
C2180 C 0.31887 0.24808 0.80503 0.0
C2181 C 0.31772 0.23627 0.81963 0.0
C2182 C 0.3109 0.2213 0.75692 0.0
C2183 C 0.32265 0.26565 0.81165 0.0
H2184 H 0.35066 0.28521 0.73769 0.0
H2185 H 0.29697 0.26881 0.73842 0.0
H2186 H 0.35257 0.26799 0.78441 0.0
H2187 H 0.34925 0.25268 0.76525 0.0
H2188 H 0.36325 0.27514 0.76045 0.0
H2189 H 0.27826 0.24981 0.76282 0.0
H2190 H 0.28296 0.23277 0.76641 0.0
H2191 H 0.28776 0.24814 0.786 0.0
H2192 H 0.3094 0.20257 0.78926 0.0
H2193 H 0.31949 0.23988 0.83541 0.0
H2194 H 0.323 0.2294 0.74862 0.0
H2195 H 0.30084 0.22315 0.74978 0.0
H2196 H 0.30742 0.20769 0.75512 0.0
H2197 H 0.33525 0.27546 0.8056 0.0
H2198 H 0.32287 0.26693 0.82832 0.0
H2199 H 0.3129 0.26848 0.80547 0.0
C2200 C 0.72141 0.05 0.74946 0.0
C2201 C 0.72727 0.04649 0.73148 0.0
C2202 C 0.73256 0.05813 0.76565 0.0
C2203 C 0.75012 0.06334 0.7636 0.0
C2204 C 0.75603 0.05939 0.74568 0.0
C2205 C 0.74446 0.05079 0.72991 0.0
C2206 C 0.72564 0.06168 0.78469 0.0
C2207 C 0.77471 0.06504 0.74273 0.0
C2208 C 0.78042 0.10207 0.7948 0.0
C2209 C 0.785 0.09462 0.81028 0.0
C2210 C 0.7694 0.09206 0.77929 0.0
C2211 C 0.76244 0.07408 0.77956 0.0
C2212 C 0.76695 0.06647 0.79528 0.0
C2213 C 0.77839 0.07688 0.81034 0.0
C2214 C 0.76522 0.10073 0.76259 0.0
C2215 C 0.75948 0.04733 0.79637 0.0
H2216 H 0.70808 0.04655 0.75078 0.0
H2217 H 0.74905 0.04819 0.71597 0.0
H2218 H 0.72986 0.05741 0.79808 0.0
H2219 H 0.73076 0.07565 0.78628 0.0
H2220 H 0.71144 0.05519 0.78472 0.0
H2221 H 0.77706 0.06 0.72851 0.0
H2222 H 0.78228 0.07922 0.74236 0.0
H2223 H 0.77953 0.06076 0.75554 0.0
H2224 H 0.78571 0.11583 0.79468 0.0
H2225 H 0.78195 0.07116 0.82238 0.0
H2226 H 0.75133 0.09632 0.76268 0.0
H2227 H 0.76827 0.09721 0.74774 0.0
H2228 H 0.77238 0.11489 0.76405 0.0
H2229 H 0.74533 0.04096 0.79738 0.0
H2230 H 0.7643 0.04343 0.80955 0.0
H2231 H 0.76258 0.0426 0.78244 0.0
C2232 C 0.04329 0.33506 0.03705 0.0
C2233 C 0.04996 0.35245 0.03258 0.0
C2234 C 0.05309 0.3294 0.04751 0.0
C2235 C 0.06994 0.34142 0.05366 0.0
C2236 C 0.07696 0.35887 0.04846 0.0
C2237 C 0.0669 0.36416 0.03799 0.0
C2238 C 0.04521 0.31067 0.05266 0.0
C2239 C 0.09488 0.3721 0.05467 0.0
C2240 C 0.0894 0.33304 0.0999 0.0
C2241 C 0.10101 0.32877 0.09129 0.0
C2242 C 0.07889 0.33671 0.08782 0.0
C2243 C 0.07994 0.33606 0.06656 0.0
C2244 C 0.09127 0.33129 0.05776 0.0
C2245 C 0.10168 0.32772 0.07022 0.0
C2246 C 0.06695 0.34171 0.09781 0.0
C2247 C 0.09276 0.33045 0.03517 0.0
H2248 H 0.03022 0.32592 0.03292 0.0
H2249 H 0.07221 0.37761 0.03456 0.0
H2250 H 0.05381 0.3058 0.04793 0.0
H2251 H 0.04355 0.30899 0.06923 0.0
H2252 H 0.03255 0.30277 0.04538 0.0
H2253 H 0.0988 0.38496 0.04842 0.0
H2254 H 0.09567 0.37308 0.07135 0.0
H2255 H 0.10416 0.36821 0.04957 0.0
H2256 H 0.08858 0.33358 0.11616 0.0
H2257 H 0.11073 0.3246 0.06343 0.0
H2258 H 0.05367 0.33334 0.09243 0.0
H2259 H 0.07068 0.35503 0.09365 0.0
H2260 H 0.06708 0.34085 0.1145 0.0
H2261 H 0.07995 0.32231 0.0284 0.0
H2262 H 0.1012 0.32529 0.03072 0.0
H2263 H 0.09803 0.34345 0.02867 0.0
C2264 C 0.63996 0.70053 0.03741 0.0
C2265 C 0.65164 0.6952 0.03207 0.0
C2266 C 0.64531 0.71604 0.04757 0.0
C2267 C 0.6628 0.72653 0.05254 0.0
C2268 C 0.67479 0.72161 0.04642 0.0
C2269 C 0.66907 0.70598 0.03625 0.0
C2270 C 0.63211 0.72083 0.05375 0.0
C2271 C 0.69356 0.73251 0.05134 0.0
C2272 C 0.67618 0.77195 0.06893 0.0
C2273 C 0.67503 0.77029 0.09 0.0
C2274 C 0.67283 0.75797 0.05651 0.0
C2275 C 0.6682 0.74196 0.06536 0.0
C2276 C 0.66758 0.74038 0.08662 0.0
C2277 C 0.67101 0.75455 0.09866 0.0
C2278 C 0.67364 0.76017 0.03392 0.0
C2279 C 0.66275 0.72355 0.09667 0.0
H2280 H 0.62647 0.69234 0.03417 0.0
H2281 H 0.67818 0.70197 0.03217 0.0
H2282 H 0.63119 0.72079 0.07044 0.0
H2283 H 0.63599 0.73396 0.04856 0.0
H2284 H 0.61923 0.71187 0.04758 0.0
H2285 H 0.70143 0.72773 0.04392 0.0
H2286 H 0.69834 0.74593 0.0466 0.0
H2287 H 0.6954 0.73262 0.06788 0.0
H2288 H 0.67913 0.78403 0.06212 0.0
H2289 H 0.6704 0.75326 0.11492 0.0
H2290 H 0.66062 0.75254 0.02747 0.0
H2291 H 0.68168 0.75534 0.02713 0.0
H2292 H 0.6789 0.77375 0.02945 0.0
H2293 H 0.6494 0.71393 0.09269 0.0
H2294 H 0.66377 0.72469 0.11335 0.0
H2295 H 0.67111 0.71863 0.09118 0.0
C2296 C 0.29513 0.9609 0.0418 0.0
C2297 C 0.30558 0.95366 0.03872 0.0
C2298 C 0.27918 0.95164 0.05147 0.0
C2299 C 0.2736 0.93476 0.05821 0.0
C2300 C 0.28382 0.92719 0.05444 0.0
C2301 C 0.29965 0.93672 0.04476 0.0
C2302 C 0.26859 0.9601 0.05513 0.0
C2303 C 0.27832 0.90921 0.06132 0.0
C2304 C 0.24395 0.916 0.10315 0.0
C2305 C 0.22849 0.90428 0.09392 0.0
C2306 C 0.25854 0.9265 0.09165 0.0
C2307 C 0.25767 0.9253 0.07035 0.0
C2308 C 0.24191 0.91404 0.0609 0.0
C2309 C 0.2275 0.90365 0.0728 0.0
C2310 C 0.27507 0.9384 0.10233 0.0
C2311 C 0.24046 0.91242 0.03825 0.0
H2312 H 0.29961 0.97398 0.03716 0.0
H2313 H 0.30759 0.93097 0.04237 0.0
H2314 H 0.25529 0.95173 0.04979 0.0
H2315 H 0.26793 0.96209 0.07154 0.0
H2316 H 0.27399 0.97268 0.04745 0.0
H2317 H 0.28725 0.90485 0.0562 0.0
H2318 H 0.27766 0.90862 0.07802 0.0
H2319 H 0.26534 0.90016 0.05555 0.0
H2320 H 0.24472 0.91677 0.11946 0.0
H2321 H 0.21562 0.89454 0.06557 0.0
H2322 H 0.28052 0.9516 0.09638 0.0
H2323 H 0.28458 0.93425 0.09946 0.0
H2324 H 0.27333 0.93869 0.11888 0.0
H2325 H 0.24593 0.92523 0.03119 0.0
H2326 H 0.22699 0.90443 0.03321 0.0
H2327 H 0.24792 0.90651 0.03263 0.0
C2328 C 0.33535 0.03986 0.99143 0.0
C2329 C 0.35274 0.04468 0.99168 0.0
C2330 C 0.32976 0.05015 0.98194 0.0
C2331 C 0.34184 0.06553 0.97236 0.0
C2332 C 0.35944 0.07064 0.97303 0.0
C2333 C 0.36467 0.06021 0.98273 0.0
C2334 C 0.31091 0.04437 0.98173 0.0
C2335 C 0.37275 0.08691 0.96296 0.0
C2336 C 0.3286 0.08397 0.92909 0.0
C2337 C 0.32865 0.098 0.93832 0.0
C2338 C 0.33238 0.073 0.94014 0.0
C2339 C 0.33617 0.07605 0.96096 0.0
C2340 C 0.33567 0.08985 0.9705 0.0
C2341 C 0.332 0.10071 0.95905 0.0
C2342 C 0.33294 0.05852 0.92935 0.0
C2343 C 0.33946 0.09343 0.9927 0.0
H2344 H 0.32605 0.02789 0.99831 0.0
H2345 H 0.37813 0.06406 0.98282 0.0
H2346 H 0.30876 0.05471 0.98751 0.0
H2347 H 0.30608 0.04162 0.96602 0.0
H2348 H 0.3033 0.03271 0.99096 0.0
H2349 H 0.38596 0.08933 0.96536 0.0
H2350 H 0.37027 0.08615 0.94651 0.0
H2351 H 0.37195 0.09802 0.96883 0.0
H2352 H 0.32617 0.0819 0.91305 0.0
H2353 H 0.33183 0.1114 0.96631 0.0
H2354 H 0.32463 0.04623 0.93716 0.0
H2355 H 0.34617 0.06068 0.92964 0.0
H2356 H 0.32875 0.0573 0.9134 0.0
H2357 H 0.33135 0.08171 1.0016 0.0
H2358 H 0.33726 0.10383 0.99814 0.0
H2359 H 0.35299 0.09717 0.99566 0.0
C2360 C 0.96479 0.29389 0.98831 0.0
C2361 C 0.95892 0.30566 0.98892 0.0
C2362 C 0.95508 0.27783 0.97897 0.0
C2363 C 0.93925 0.27358 0.96984 0.0
C2364 C 0.93314 0.28528 0.97078 0.0
C2365 C 0.94298 0.3011 0.9804 0.0
C2366 C 0.96189 0.26557 0.97852 0.0
C2367 C 0.91639 0.28131 0.96111 0.0
C2368 C 0.92125 0.24144 0.9269 0.0
C2369 C 0.90767 0.22732 0.9364 0.0
C2370 C 0.93201 0.2564 0.93775 0.0
C2371 C 0.92924 0.25716 0.95867 0.0
C2372 C 0.91599 0.24266 0.9685 0.0
C2373 C 0.90529 0.22795 0.95722 0.0
C2374 C 0.94585 0.27165 0.92665 0.0
C2375 C 0.91278 0.24287 0.99081 0.0
H2376 H 0.97708 0.2973 0.99489 0.0
H2377 H 0.93834 0.31011 0.98074 0.0
H2378 H 0.95217 0.25294 0.98456 0.0
H2379 H 0.96455 0.26354 0.96273 0.0
H2380 H 0.97384 0.27033 0.98742 0.0
H2381 H 0.9133 0.29166 0.9635 0.0
H2382 H 0.91696 0.27941 0.94465 0.0
H2383 H 0.9058 0.26924 0.96731 0.0
H2384 H 0.92304 0.24104 0.91078 0.0
H2385 H 0.89492 0.21697 0.96465 0.0
H2386 H 0.95837 0.27631 0.9342 0.0
H2387 H 0.94298 0.28226 0.92697 0.0
H2388 H 0.94703 0.26864 0.91069 0.0
H2389 H 0.92483 0.24729 0.99936 0.0
H2390 H 0.90307 0.23007 0.99651 0.0
H2391 H 0.90822 0.25202 0.99396 0.0
C2392 C 0.7085 0.66992 0.98682 0.0
C2393 C 0.69745 0.65215 0.98744 0.0
C2394 C 0.7246 0.67694 0.97741 0.0
C2395 C 0.72963 0.66593 0.96822 0.0
C2396 C 0.71863 0.648 0.96911 0.0
C2397 C 0.70274 0.64134 0.9788 0.0
C2398 C 0.7361 0.69612 0.97699 0.0
C2399 C 0.72345 0.63582 0.9594 0.0
C2400 C 0.76202 0.68112 0.92553 0.0
C2401 C 0.77638 0.6823 0.93516 0.0
C2402 C 0.74688 0.67642 0.93628 0.0
C2403 C 0.74618 0.67301 0.9572 0.0
C2404 C 0.76092 0.67498 0.96717 0.0
C2405 C 0.77581 0.67948 0.956 0.0
C2406 C 0.73139 0.67429 0.92505 0.0
C2407 C 0.76077 0.6717 0.98949 0.0
H2408 H 0.70451 0.67835 0.99349 0.0
H2409 H 0.69428 0.6276 0.97914 0.0
H2410 H 0.74886 0.69965 0.9832 0.0
H2411 H 0.73806 0.70073 0.9612 0.0
H2412 H 0.73072 0.70286 0.98576 0.0
H2413 H 0.71353 0.6222 0.96165 0.0
H2414 H 0.72538 0.63836 0.94297 0.0
H2415 H 0.73571 0.63785 0.96571 0.0
H2416 H 0.76238 0.68316 0.90939 0.0
H2417 H 0.78698 0.68059 0.96352 0.0
H2418 H 0.72608 0.68162 0.93262 0.0
H2419 H 0.72125 0.66062 0.92516 0.0
H2420 H 0.73437 0.6786 0.90914 0.0
H2421 H 0.75572 0.67886 0.99797 0.0
H2422 H 0.77371 0.67543 0.99531 0.0
H2423 H 0.75216 0.6579 0.99259 0.0
C2424 C 0.9425 0.64362 0.98132 0.0
C2425 C 0.95861 0.65475 0.98963 0.0
C2426 C 0.93301 0.6499 0.97152 0.0
C2427 C 0.93966 0.66777 0.97017 0.0
C2428 C 0.95564 0.67911 0.97913 0.0
C2429 C 0.96499 0.67246 0.98867 0.0
C2430 C 0.91606 0.63737 0.96207 0.0
C2431 C 0.96301 0.69824 0.97826 0.0
C2432 C 0.92228 0.68187 0.92668 0.0
C2433 C 0.90897 0.68308 0.93604 0.0
C2434 C 0.93278 0.67749 0.93776 0.0
C2435 C 0.93003 0.67445 0.95875 0.0
C2436 C 0.91711 0.67643 0.96843 0.0
C2437 C 0.90665 0.6806 0.95692 0.0
C2438 C 0.94629 0.67533 0.92684 0.0
C2439 C 0.91393 0.67355 0.9908 0.0
H2440 H 0.93747 0.62992 0.98194 0.0
H2441 H 0.97741 0.68115 0.99508 0.0
H2442 H 0.90575 0.63943 0.96812 0.0
H2443 H 0.91665 0.63951 0.94555 0.0
H2444 H 0.91253 0.62385 0.96481 0.0
H2445 H 0.975 0.70526 0.98712 0.0
H2446 H 0.96578 0.70261 0.96237 0.0
H2447 H 0.95358 0.70169 0.98406 0.0
H2448 H 0.92401 0.68365 0.91052 0.0
H2449 H 0.89649 0.68173 0.96423 0.0
H2450 H 0.94298 0.66172 0.92746 0.0
H2451 H 0.95888 0.68297 0.93431 0.0
H2452 H 0.94757 0.67925 0.91078 0.0
H2453 H 0.90892 0.65983 0.9943 0.0
H2454 H 0.90458 0.67724 0.99633 0.0
H2455 H 0.92608 0.68098 0.99923 0.0
C2456 C 0.36452 0.30333 0.98265 0.0
C2457 C 0.35304 0.30813 0.99042 0.0
C2458 C 0.35866 0.2875 0.97305 0.0
C2459 C 0.34085 0.27606 0.97134 0.0
C2460 C 0.32917 0.28057 0.9797 0.0
C2461 C 0.3354 0.29662 0.98905 0.0
C2462 C 0.37155 0.28324 0.96424 0.0
C2463 C 0.3101 0.2686 0.97841 0.0
C2464 C 0.32773 0.244 0.92841 0.0
C2465 C 0.3266 0.22972 0.9382 0.0
C2466 C 0.33184 0.25901 0.93913 0.0
C2467 C 0.33462 0.25964 0.96021 0.0
C2468 C 0.33275 0.24498 0.9703 0.0
C2469 C 0.32891 0.23024 0.95914 0.0
C2470 C 0.33395 0.27443 0.92776 0.0
C2471 C 0.33532 0.24504 0.99278 0.0
H2472 H 0.37817 0.31214 0.98359 0.0
H2473 H 0.32645 0.30022 0.99504 0.0
H2474 H 0.36964 0.27106 0.97066 0.0
H2475 H 0.36968 0.28141 0.94771 0.0
H2476 H 0.38496 0.29341 0.96717 0.0
H2477 H 0.30276 0.27354 0.98674 0.0
H2478 H 0.30602 0.26669 0.9624 0.0
H2479 H 0.30675 0.25587 0.98457 0.0
H2480 H 0.32609 0.24366 0.9122 0.0
H2481 H 0.32786 0.21913 0.96675 0.0
H2482 H 0.34748 0.28487 0.92864 0.0
H2483 H 0.32599 0.27928 0.93471 0.0
H2484 H 0.33037 0.27155 0.91163 0.0
H2485 H 0.34893 0.25398 0.99651 0.0
H2486 H 0.3318 0.23215 0.99858 0.0
H2487 H 0.32756 0.24965 1.00077 0.0
C2488 C 0.69998 0.0619 0.98046 0.0
C2489 C 0.69586 0.04621 0.98939 0.0
C2490 C 0.71564 0.07182 0.97053 0.0
C2491 C 0.7276 0.06602 0.96963 0.0
C2492 C 0.72379 0.05047 0.97915 0.0
C2493 C 0.70791 0.04069 0.98885 0.0
C2494 C 0.71917 0.08829 0.96051 0.0
C2495 C 0.73631 0.04398 0.97871 0.0
C2496 C 0.75923 0.08347 0.92613 0.0
C2497 C 0.77348 0.09719 0.9353 0.0
C2498 C 0.74438 0.07292 0.93726 0.0
C2499 C 0.74382 0.07606 0.95811 0.0
C2500 C 0.75839 0.08952 0.96758 0.0
C2501 C 0.77301 0.09998 0.95604 0.0
C2502 C 0.72906 0.0588 0.92655 0.0
C2503 C 0.75838 0.09316 0.98981 0.0
H2504 H 0.69076 0.06628 0.98076 0.0
H2505 H 0.70484 0.0286 0.99572 0.0
H2506 H 0.73127 0.09913 0.96632 0.0
H2507 H 0.72079 0.08744 0.94404 0.0
H2508 H 0.7087 0.09122 0.96301 0.0
H2509 H 0.73188 0.03221 0.98786 0.0
H2510 H 0.7382 0.04112 0.96295 0.0
H2511 H 0.74895 0.05396 0.98444 0.0
H2512 H 0.75949 0.08135 0.91008 0.0
H2513 H 0.78409 0.11043 0.96324 0.0
H2514 H 0.71832 0.06148 0.927 0.0
H2515 H 0.72469 0.04642 0.93431 0.0
H2516 H 0.73186 0.05745 0.91055 0.0
H2517 H 0.74898 0.0974 0.99291 0.0
H2518 H 0.77115 0.10323 0.99518 0.0
H2519 H 0.7544 0.08135 0.99868 0.0
C2520 C 0.66969 0.96156 0.03905 0.0
C2521 C 0.65214 0.95494 0.03563 0.0
C2522 C 0.67569 0.95172 0.04879 0.0
C2523 C 0.66386 0.93491 0.05524 0.0
C2524 C 0.64623 0.92796 0.05108 0.0
C2525 C 0.6406 0.93803 0.04133 0.0
C2526 C 0.69459 0.95954 0.05286 0.0
C2527 C 0.63319 0.91007 0.05764 0.0
C2528 C 0.67716 0.90254 0.07026 0.0
C2529 C 0.67649 0.9031 0.09137 0.0
C2530 C 0.67377 0.91332 0.05824 0.0
C2531 C 0.66959 0.92491 0.06756 0.0
C2532 C 0.66956 0.92599 0.08886 0.0
C2533 C 0.67302 0.9151 0.10048 0.0
C2534 C 0.67396 0.91181 0.03559 0.0
C2535 C 0.66524 0.93822 0.0994 0.0
H2536 H 0.67869 0.9746 0.03468 0.0
H2537 H 0.62704 0.93276 0.03866 0.0
H2538 H 0.69694 0.96139 0.06933 0.0
H2539 H 0.69918 0.95082 0.0477 0.0
H2540 H 0.70225 0.97211 0.04529 0.0
H2541 H 0.62011 0.90619 0.05216 0.0
H2542 H 0.63682 0.90073 0.052 0.0
H2543 H 0.63286 0.90933 0.07434 0.0
H2544 H 0.67971 0.89322 0.06311 0.0
H2545 H 0.67279 0.91582 0.11678 0.0
H2546 H 0.68178 0.92462 0.02868 0.0
H2547 H 0.66076 0.90638 0.02969 0.0
H2548 H 0.67911 0.90346 0.03069 0.0
H2549 H 0.67345 0.95141 0.09366 0.0
H2550 H 0.66686 0.93829 0.116 0.0
H2551 H 0.65177 0.93457 0.09616 0.0
C2552 C 0.04038 0.70901 0.03648 0.0
C2553 C 0.04753 0.69863 0.03225 0.0
C2554 C 0.04977 0.72457 0.0469 0.0
C2555 C 0.06667 0.72983 0.05327 0.0
C2556 C 0.07418 0.71977 0.04825 0.0
C2557 C 0.06454 0.70433 0.03779 0.0
C2558 C 0.04138 0.73503 0.05183 0.0
C2559 C 0.09218 0.72492 0.05471 0.0
C2560 C 0.09759 0.77522 0.07062 0.0
C2561 C 0.09677 0.77329 0.09165 0.0
C2562 C 0.08738 0.76134 0.05789 0.0
C2563 C 0.07615 0.74515 0.0664 0.0
C2564 C 0.07486 0.74327 0.08762 0.0
C2565 C 0.08514 0.75735 0.09997 0.0
C2566 C 0.08909 0.76387 0.03535 0.0
C2567 C 0.06301 0.72622 0.09731 0.0
H2568 H 0.02725 0.70471 0.03223 0.0
H2569 H 0.07022 0.69645 0.03452 0.0
H2570 H 0.0393 0.73483 0.06834 0.0
H2571 H 0.04982 0.74857 0.04741 0.0
H2572 H 0.02884 0.73008 0.04416 0.0
H2573 H 0.09653 0.71628 0.04849 0.0
H2574 H 0.10123 0.73818 0.04977 0.0
H2575 H 0.0928 0.72471 0.0714 0.0
H2576 H 0.10664 0.78745 0.06405 0.0
H2577 H 0.08421 0.75584 0.1162 0.0
H2578 H 0.0763 0.75879 0.02834 0.0
H2579 H 0.09494 0.75662 0.02887 0.0
H2580 H 0.09714 0.77755 0.03116 0.0
H2581 H 0.04979 0.72109 0.0916 0.0
H2582 H 0.06281 0.72711 0.11401 0.0
H2583 H 0.06712 0.71687 0.09326 0.0
C2584 C 0.30168 0.36437 0.03888 0.0
C2585 C 0.30722 0.3529 0.03333 0.0
C2586 C 0.28612 0.35875 0.04904 0.0
C2587 C 0.27577 0.34119 0.05375 0.0
C2588 C 0.28089 0.32941 0.04742 0.0
C2589 C 0.29658 0.3354 0.03729 0.0
C2590 C 0.28113 0.37175 0.05548 0.0
C2591 C 0.27013 0.31057 0.05203 0.0
C2592 C 0.24735 0.332 0.09973 0.0
C2593 C 0.23161 0.32795 0.09101 0.0
C2594 C 0.26166 0.33581 0.08776 0.0
C2595 C 0.26022 0.33549 0.06649 0.0
C2596 C 0.24423 0.33083 0.05756 0.0
C2597 C 0.23012 0.32714 0.06993 0.0
C2598 C 0.27846 0.34068 0.09789 0.0
C2599 C 0.24216 0.3303 0.03496 0.0
H2600 H 0.30976 0.37791 0.03583 0.0
H2601 H 0.30075 0.32644 0.03305 0.0
H2602 H 0.26801 0.36783 0.05021 0.0
H2603 H 0.28104 0.37243 0.07218 0.0
H2604 H 0.29004 0.38474 0.04956 0.0
H2605 H 0.27508 0.30289 0.0445 0.0
H2606 H 0.26993 0.30855 0.06853 0.0
H2607 H 0.25672 0.30571 0.04719 0.0
H2608 H 0.24853 0.33235 0.116 0.0
H2609 H 0.21805 0.32417 0.06304 0.0
H2610 H 0.28802 0.35411 0.09411 0.0
H2611 H 0.28354 0.33248 0.09229 0.0
H2612 H 0.27725 0.33948 0.11455 0.0
H2613 H 0.24975 0.34342 0.02875 0.0
H2614 H 0.2286 0.325 0.03039 0.0
H2615 H 0.24714 0.32244 0.02802 0.0
C2616 C 0.70719 0.66696 0.371 0.0
C2617 C 0.71332 0.68463 0.36996 0.0
C2618 C 0.71677 0.66056 0.38048 0.0
C2619 C 0.73274 0.67208 0.38934 0.0
C2620 C 0.73913 0.68992 0.38796 0.0
C2621 C 0.72941 0.69596 0.37819 0.0
C2622 C 0.70967 0.64146 0.38138 0.0
C2623 C 0.75603 0.70264 0.39733 0.0
C2624 C 0.75042 0.658 0.43257 0.0
C2625 C 0.76372 0.65686 0.42308 0.0
C2626 C 0.7399 0.66246 0.42164 0.0
C2627 C 0.74261 0.66562 0.40067 0.0
C2628 C 0.75557 0.66378 0.39087 0.0
C2629 C 0.76605 0.65955 0.40222 0.0
C2630 C 0.72636 0.66448 0.4327 0.0
C2631 C 0.75869 0.66678 0.3685 0.0
H2632 H 0.69479 0.65813 0.36465 0.0
H2633 H 0.73424 0.70962 0.37752 0.0
H2634 H 0.71919 0.63819 0.37543 0.0
H2635 H 0.70708 0.63711 0.39728 0.0
H2636 H 0.69762 0.63428 0.37265 0.0
H2637 H 0.75934 0.71609 0.39459 0.0
H2638 H 0.75554 0.70052 0.41385 0.0
H2639 H 0.76644 0.70077 0.39121 0.0
H2640 H 0.74869 0.65607 0.44872 0.0
H2641 H 0.77621 0.65848 0.39482 0.0
H2642 H 0.71373 0.65667 0.42537 0.0
H2643 H 0.72949 0.67803 0.43202 0.0
H2644 H 0.72526 0.66065 0.44878 0.0
H2645 H 0.74656 0.65918 0.36009 0.0
H2646 H 0.76822 0.66337 0.36289 0.0
H2647 H 0.76343 0.68046 0.36507 0.0
C2648 C 0.333 0.03592 0.38282 0.0
C2649 C 0.32189 0.03124 0.36634 0.0
C2650 C 0.33746 0.05093 0.39375 0.0
C2651 C 0.33116 0.06178 0.3875 0.0
C2652 C 0.32096 0.05768 0.36992 0.0
C2653 C 0.3161 0.04223 0.35982 0.0
C2654 C 0.34783 0.05448 0.4128 0.0
C2655 C 0.31457 0.06924 0.36227 0.0
C2656 C 0.32338 0.08798 0.42656 0.0
C2657 C 0.33835 0.10404 0.42524 0.0
C2658 C 0.32113 0.0741 0.41474 0.0
C2659 C 0.33376 0.07642 0.40042 0.0
C2660 C 0.34868 0.09262 0.39849 0.0
C2661 C 0.35097 0.1061 0.4112 0.0
C2662 C 0.3052 0.0569 0.41765 0.0
C2663 C 0.36216 0.09574 0.38291 0.0
H2664 H 0.33724 0.02726 0.388 0.0
H2665 H 0.30751 0.03856 0.34702 0.0
H2666 H 0.35877 0.06776 0.41282 0.0
H2667 H 0.3397 0.05322 0.42601 0.0
H2668 H 0.35281 0.04552 0.41476 0.0
H2669 H 0.30907 0.06559 0.34688 0.0
H2670 H 0.30451 0.06854 0.37253 0.0
H2671 H 0.32511 0.08274 0.36203 0.0
H2672 H 0.31322 0.08616 0.43675 0.0
H2673 H 0.36276 0.11823 0.41013 0.0
H2674 H 0.30873 0.04692 0.42039 0.0
H2675 H 0.29729 0.05324 0.4038 0.0
H2676 H 0.29727 0.05691 0.43048 0.0
H2677 H 0.3679 0.08762 0.3861 0.0
H2678 H 0.37255 0.10933 0.38253 0.0
H2679 H 0.35624 0.09212 0.36774 0.0
C2680 C 0.96212 0.29493 0.37253 0.0
C2681 C 0.97365 0.28891 0.36983 0.0
C2682 C 0.94629 0.2848 0.38217 0.0
C2683 C 0.9419 0.26828 0.38919 0.0
C2684 C 0.95319 0.2619 0.38571 0.0
C2685 C 0.96891 0.27228 0.37612 0.0
C2686 C 0.93457 0.29204 0.38556 0.0
C2687 C 0.94897 0.24432 0.39284 0.0
C2688 C 0.91248 0.2486 0.43421 0.0
C2689 C 0.89728 0.23626 0.42504 0.0
C2690 C 0.92689 0.2595 0.42266 0.0
C2691 C 0.92612 0.25804 0.40138 0.0
C2692 C 0.91064 0.246 0.39198 0.0
C2693 C 0.89638 0.23526 0.40393 0.0
C2694 C 0.94312 0.27224 0.43327 0.0
C2695 C 0.90932 0.24403 0.36935 0.0
H2696 H 0.96569 0.30776 0.36772 0.0
H2697 H 0.97769 0.26748 0.374 0.0
H2698 H 0.92146 0.28287 0.38028 0.0
H2699 H 0.93372 0.29405 0.40193 0.0
H2700 H 0.93913 0.30443 0.37769 0.0
H2701 H 0.95856 0.24081 0.38776 0.0
H2702 H 0.94842 0.24387 0.40955 0.0
H2703 H 0.93619 0.23454 0.38722 0.0
H2704 H 0.91316 0.24962 0.45051 0.0
H2705 H 0.88471 0.22567 0.39675 0.0
H2706 H 0.94775 0.28528 0.4272 0.0
H2707 H 0.95329 0.26897 0.43048 0.0
H2708 H 0.94131 0.27249 0.44981 0.0
H2709 H 0.91384 0.25663 0.36206 0.0
H2710 H 0.89602 0.23513 0.36432 0.0
H2711 H 0.91768 0.23907 0.36398 0.0
C2712 C 0.00172 0.37501 0.31883 0.0
C2713 C 0.01929 0.38136 0.32169 0.0
C2714 C 0.9958 0.38479 0.30881 0.0
C2715 C 0.00773 0.40129 0.30157 0.0
C2716 C 0.0254 0.40802 0.30521 0.0
C2717 C 0.03096 0.39798 0.31519 0.0
C2718 C 0.97685 0.3772 0.30527 0.0
C2719 C 0.03855 0.42559 0.29785 0.0
C2720 C 0.99788 0.42007 0.25584 0.0
C2721 C 0.99473 0.4324 0.26462 0.0
C2722 C 0.00149 0.40943 0.26776 0.0
C2723 C 0.00199 0.41116 0.28901 0.0
C2724 C 0.99823 0.42316 0.29801 0.0
C2725 C 0.99463 0.43363 0.28571 0.0
C2726 C 0.00534 0.39673 0.25755 0.0
C2727 C 0.99866 0.42539 0.3206 0.0
H2728 H 0.99263 0.36217 0.3238 0.0
H2729 H 0.04455 0.40304 0.31744 0.0
H2730 H 0.97262 0.38627 0.31022 0.0
H2731 H 0.97412 0.37492 0.28891 0.0
H2732 H 0.96917 0.36489 0.31336 0.0
H2733 H 0.05167 0.42939 0.30305 0.0
H2734 H 0.03854 0.42582 0.28112 0.0
H2735 H 0.03528 0.43529 0.30316 0.0
H2736 H 0.99769 0.41886 0.23957 0.0
H2737 H 0.99235 0.44323 0.29259 0.0
H2738 H 0.99709 0.38375 0.26384 0.0
H2739 H 0.01881 0.40027 0.26048 0.0
H2740 H 0.00336 0.39623 0.24099 0.0
H2741 H 0.99077 0.41285 0.32807 0.0
H2742 H 0.99396 0.43415 0.32531 0.0
H2743 H 0.01198 0.43068 0.32609 0.0
C2744 C 0.60969 0.62743 0.33436 0.0
C2745 C 0.62647 0.63867 0.3281 0.0
C2746 C 0.5995 0.61193 0.32416 0.0
C2747 C 0.60602 0.60804 0.30673 0.0
C2748 C 0.62317 0.61916 0.30072 0.0
C2749 C 0.63331 0.6342 0.31175 0.0
C2750 C 0.58154 0.60009 0.33157 0.0
C2751 C 0.63042 0.61584 0.28181 0.0
C2752 C 0.58275 0.5637 0.28285 0.0
C2753 C 0.57221 0.5655 0.2686 0.0
C2754 C 0.59352 0.57726 0.29568 0.0
C2755 C 0.5944 0.5933 0.29369 0.0
C2756 C 0.58411 0.59536 0.27916 0.0
C2757 C 0.57289 0.58139 0.26722 0.0
C2758 C 0.60385 0.57439 0.31148 0.0
C2759 C 0.58497 0.61238 0.27616 0.0
H2760 H 0.60445 0.63091 0.34705 0.0
H2761 H 0.64623 0.64305 0.30676 0.0
H2762 H 0.5722 0.60058 0.32114 0.0
H2763 H 0.57889 0.58668 0.33186 0.0
H2764 H 0.57937 0.60363 0.3469 0.0
H2765 H 0.64431 0.62504 0.28002 0.0
H2766 H 0.62843 0.60268 0.28187 0.0
H2767 H 0.62359 0.6169 0.26848 0.0
H2768 H 0.58273 0.55172 0.28399 0.0
H2769 H 0.56454 0.58302 0.25689 0.0
H2770 H 0.60122 0.5779 0.32658 0.0
H2771 H 0.61771 0.58274 0.30849 0.0
H2772 H 0.60095 0.56089 0.31191 0.0
H2773 H 0.58036 0.61586 0.2899 0.0
H2774 H 0.57714 0.61221 0.26317 0.0
H2775 H 0.59842 0.62258 0.27362 0.0
C2776 C 0.3678 0.97259 0.31499 0.0
C2777 C 0.3636 0.98424 0.32366 0.0
C2778 C 0.38337 0.97823 0.30488 0.0
C2779 C 0.39521 0.99598 0.3036 0.0
C2780 C 0.39134 0.0078 0.31291 0.0
C2781 C 0.37551 0.0018 0.32271 0.0
C2782 C 0.38693 0.9652 0.29504 0.0
C2783 C 0.40376 0.0268 0.31214 0.0
C2784 C 0.44047 0.00696 0.28973 0.0
C2785 C 0.44076 0.00985 0.26893 0.0
C2786 C 0.426 0.0032 0.3014 0.0
C2787 C 0.41138 0.00203 0.29198 0.0
C2788 C 0.41179 0.0054 0.27107 0.0
C2789 C 0.42653 0.00939 0.25982 0.0
C2790 C 0.42617 0.99996 0.32368 0.0
C2791 C 0.3964 0.00407 0.2604 0.0
H2792 H 0.35866 0.959 0.31556 0.0
H2793 H 0.37238 0.01088 0.32939 0.0
H2794 H 0.38849 0.96746 0.27854 0.0
H2795 H 0.39907 0.96656 0.30086 0.0
H2796 H 0.37652 0.95186 0.2977 0.0
H2797 H 0.39933 0.03422 0.32121 0.0
H2798 H 0.41648 0.02959 0.31779 0.0
H2799 H 0.40551 0.0313 0.29631 0.0
H2800 H 0.45154 0.00751 0.29684 0.0
H2801 H 0.42669 0.01148 0.24372 0.0
H2802 H 0.41695 0.98634 0.32702 0.0
H2803 H 0.42207 0.00781 0.3324 0.0
H2804 H 0.43903 0.0029 0.32902 0.0
H2805 H 0.38569 0.99067 0.26101 0.0
H2806 H 0.39911 0.00803 0.24435 0.0
H2807 H 0.39203 0.01216 0.26808 0.0
C2808 C 0.62725 0.99826 0.32344 0.0
C2809 C 0.62184 0.98076 0.3248 0.0
C2810 C 0.61727 0.00394 0.3134 0.0
C2811 C 0.60163 0.99184 0.30432 0.0
C2812 C 0.59594 0.97416 0.30607 0.0
C2813 C 0.60604 0.96885 0.31637 0.0
C2814 C 0.62364 0.02288 0.3121 0.0
C2815 C 0.5794 0.96084 0.29651 0.0
C2816 C 0.56745 0.00274 0.28958 0.0
C2817 C 0.57019 0.00541 0.26876 0.0
C2818 C 0.57798 0.99894 0.30149 0.0
C2819 C 0.59143 0.99755 0.29232 0.0
C2820 C 0.59446 1.00057 0.27136 0.0
C2821 C 0.58386 0.00457 0.25986 0.0
C2822 C 0.57447 0.99603 0.32382 0.0
C2823 C 0.60853 0.99901 0.26095 0.0
H2824 H 0.63942 0.00754 0.32993 0.0
H2825 H 0.60175 0.9553 0.31728 0.0
H2826 H 0.62639 0.02708 0.29616 0.0
H2827 H 0.61363 0.02568 0.31748 0.0
H2828 H 0.63544 0.03055 0.3211 0.0
H2829 H 0.57657 0.94759 0.2997 0.0
H2830 H 0.56858 0.96228 0.30207 0.0
H2831 H 0.5801 0.96269 0.27993 0.0
H2832 H 0.55702 0.0036 0.29655 0.0
H2833 H 0.58593 0.00649 0.24375 0.0
H2834 H 0.58632 0.00421 0.33249 0.0
H2835 H 0.57036 0.98254 0.32755 0.0
H2836 H 0.56436 0.99882 0.32887 0.0
H2837 H 0.62097 0.00737 0.26843 0.0
H2838 H 0.6097 0.00251 0.24475 0.0
H2839 H 0.60595 0.98566 0.26216 0.0
C2840 C 0.03156 0.63276 0.32051 0.0
C2841 C 0.02 0.63812 0.32635 0.0
C2842 C 0.02603 0.6174 0.30994 0.0
C2843 C 0.00849 0.60708 0.3051 0.0
C2844 C 0.99662 0.612 0.31175 0.0
C2845 C 0.00252 0.62749 0.32229 0.0
C2846 C 0.0391 0.61261 0.30318 0.0
C2847 C 0.9778 0.60126 0.30701 0.0
C2848 C 0.99956 0.5796 0.2583 0.0
C2849 C 0.99552 0.56371 0.26655 0.0
C2850 C 0.00327 0.59366 0.27071 0.0
C2851 C 0.00289 0.5918 0.29192 0.0
C2852 C 0.99825 0.57565 0.30037 0.0
C2853 C 0.99465 0.56181 0.28759 0.0
C2854 C 0.00811 0.61064 0.26108 0.0
C2855 C 0.99766 0.57315 0.32291 0.0
H2856 H 0.04508 0.64085 0.32364 0.0
H2857 H 0.9935 0.63151 0.32677 0.0
H2858 H 0.03521 0.5994 0.30803 0.0
H2859 H 0.03986 0.61288 0.28648 0.0
H2860 H 0.05206 0.62143 0.30927 0.0
H2861 H 0.97006 0.606 0.31481 0.0
H2862 H 0.97582 0.60138 0.29053 0.0
H2863 H 0.97299 0.58776 0.31144 0.0
H2864 H 0.99997 0.5811 0.24207 0.0
H2865 H 0.99169 0.54962 0.2941 0.0
H2866 H 0.02152 0.62016 0.26501 0.0
H2867 H 0.99986 0.61556 0.26696 0.0
H2868 H 0.00696 0.60975 0.2444 0.0
H2869 H 0.01076 0.58066 0.3292 0.0
H2870 H 0.9924 0.55951 0.32708 0.0
H2871 H 0.98974 0.57795 0.33011 0.0
C2872 C 0.37661 0.37539 0.3208 0.0
C2873 C 0.36567 0.38187 0.32513 0.0
C2874 C 0.39227 0.38547 0.3108 0.0
C2875 C 0.39704 0.40237 0.30497 0.0
C2876 C 0.38639 0.4092 0.31009 0.0
C2877 C 0.37087 0.39888 0.32012 0.0
C2878 C 0.40335 0.37779 0.30575 0.0
C2879 C 0.39102 0.42717 0.30419 0.0
C2880 C 0.44243 0.43474 0.28906 0.0
C2881 C 0.44092 0.43429 0.26798 0.0
C2882 C 0.42842 0.424 0.30133 0.0
C2883 C 0.41251 0.4126 0.2923 0.0
C2884 C 0.41104 0.41174 0.27103 0.0
C2885 C 0.42525 0.42256 0.25915 0.0
C2886 C 0.4305 0.42525 0.32394 0.0
C2887 C 0.3943 0.39974 0.2608 0.0
H2888 H 0.3727 0.36227 0.32464 0.0
H2889 H 0.36256 0.40404 0.32347 0.0
H2890 H 0.40358 0.37621 0.28918 0.0
H2891 H 0.41673 0.38648 0.31062 0.0
H2892 H 0.39867 0.36512 0.31296 0.0
H2893 H 0.38192 0.43093 0.31044 0.0
H2894 H 0.40408 0.43645 0.30952 0.0
H2895 H 0.39105 0.42817 0.28752 0.0
H2896 H 0.45444 0.44386 0.29602 0.0
H2897 H 0.42407 0.42191 0.24288 0.0
H2898 H 0.42579 0.41237 0.33054 0.0
H2899 H 0.42268 0.43044 0.33046 0.0
H2900 H 0.44403 0.43365 0.32854 0.0
H2901 H 0.3895 0.38644 0.26603 0.0
H2902 H 0.39551 0.40003 0.24412 0.0
H2903 H 0.38454 0.40329 0.26491 0.0
C2904 C 0.33283 0.29845 0.3844 0.0
C2905 C 0.32203 0.2922 0.36763 0.0
C2906 C 0.33703 0.28777 0.39541 0.0
C2907 C 0.33081 0.27068 0.38895 0.0
C2908 C 0.32088 0.26474 0.37115 0.0
C2909 C 0.31625 0.27546 0.36097 0.0
C2910 C 0.3471 0.29442 0.4147 0.0
C2911 C 0.31458 0.24686 0.36328 0.0
C2912 C 0.35056 0.24611 0.41254 0.0
C2913 C 0.3378 0.23539 0.4263 0.0
C2914 C 0.34833 0.25737 0.39996 0.0
C2915 C 0.33333 0.25858 0.40176 0.0
C2916 C 0.32057 0.24812 0.41583 0.0
C2917 C 0.32276 0.23641 0.42751 0.0
C2918 C 0.36196 0.26788 0.38464 0.0
C2919 C 0.30456 0.24931 0.41862 0.0
H2920 H 0.33706 0.31134 0.38969 0.0
H2921 H 0.30789 0.27068 0.34796 0.0
H2922 H 0.33882 0.28736 0.42769 0.0
H2923 H 0.35812 0.29218 0.41482 0.0
H2924 H 0.35194 0.3083 0.41692 0.0
H2925 H 0.30921 0.2451 0.34784 0.0
H2926 H 0.32514 0.24391 0.36309 0.0
H2927 H 0.30445 0.23745 0.37339 0.0
H2928 H 0.36241 0.24585 0.41157 0.0
H2929 H 0.31251 0.22796 0.4375 0.0
H2930 H 0.36761 0.2817 0.38806 0.0
H2931 H 0.35621 0.26571 0.36938 0.0
H2932 H 0.3724 0.26473 0.38431 0.0
H2933 H 0.30799 0.26277 0.42155 0.0
H2934 H 0.29651 0.24126 0.43129 0.0
H2935 H 0.2968 0.24516 0.40465 0.0
C2936 C 0.73107 0.03252 0.37466 0.0
C2937 C 0.71405 0.02716 0.36947 0.0
C2938 C 0.74125 0.04812 0.3846 0.0
C2939 C 0.73428 0.05869 0.38948 0.0
C2940 C 0.71733 0.0537 0.3836 0.0
C2941 C 0.7074 0.03797 0.37367 0.0
C2942 C 0.75928 0.05298 0.39056 0.0
C2943 C 0.70949 0.06468 0.38843 0.0
C2944 C 0.75456 0.0878 0.43465 0.0
C2945 C 0.76608 0.10336 0.42545 0.0
C2946 C 0.74378 0.07332 0.4231 0.0
C2947 C 0.74447 0.0744 0.4018 0.0
C2948 C 0.75567 0.0902 0.39241 0.0
C2949 C 0.76636 0.10449 0.40434 0.0
C2950 C 0.73199 0.05673 0.43372 0.0
C2951 C 0.75677 0.09187 0.36974 0.0
H2952 H 0.73637 0.0243 0.37142 0.0
H2953 H 0.69427 0.03394 0.3697 0.0
H2954 H 0.76847 0.06596 0.38493 0.0
H2955 H 0.76035 0.05334 0.40724 0.0
H2956 H 0.76311 0.04384 0.38464 0.0
H2957 H 0.69669 0.05969 0.38142 0.0
H2958 H 0.70813 0.06523 0.405 0.0
H2959 H 0.71797 0.07797 0.38316 0.0
H2960 H 0.75404 0.08691 0.45095 0.0
H2961 H 0.77532 0.11642 0.3971 0.0
H2962 H 0.73567 0.04701 0.4299 0.0
H2963 H 0.71863 0.05169 0.42855 0.0
H2964 H 0.73237 0.05823 0.45037 0.0
H2965 H 0.76199 0.084 0.36345 0.0
H2966 H 0.76508 0.10532 0.36481 0.0
H2967 H 0.74383 0.08698 0.36322 0.0
C2968 C 0.96188 0.66426 0.37134 0.0
C2969 C 0.97347 0.6819 0.37051 0.0
C2970 C 0.94584 0.65789 0.38073 0.0
C2971 C 0.94142 0.66945 0.38968 0.0
C2972 C 0.95295 0.68727 0.38852 0.0
C2973 C 0.96876 0.69326 0.37886 0.0
C2974 C 0.93377 0.63882 0.38143 0.0
C2975 C 0.94879 0.70002 0.39797 0.0
C2976 C 0.89572 0.65761 0.40225 0.0
C2977 C 0.8952 0.65496 0.42312 0.0
C2978 C 0.91042 0.66153 0.39097 0.0
C2979 C 0.92501 0.66306 0.40086 0.0
C2980 C 0.92436 0.65986 0.42183 0.0
C2981 C 0.90942 0.65575 0.43269 0.0
C2982 C 0.91052 0.66461 0.3686 0.0
C2983 C 0.93971 0.66155 0.43298 0.0
H2984 H 0.96542 0.6554 0.36489 0.0
H2985 H 0.97763 0.70692 0.37835 0.0
H2986 H 0.93181 0.63436 0.39728 0.0
H2987 H 0.92107 0.6357 0.37537 0.0
H2988 H 0.93865 0.63162 0.37268 0.0
H2989 H 0.95902 0.71347 0.39543 0.0
H2990 H 0.93664 0.69834 0.39174 0.0
H2991 H 0.94695 0.69776 0.41446 0.0
H2992 H 0.88466 0.65681 0.39478 0.0
H2993 H 0.9091 0.65383 0.44884 0.0
H2994 H 0.91507 0.65698 0.36021 0.0
H2995 H 0.91952 0.67828 0.36526 0.0
H2996 H 0.89766 0.66129 0.36289 0.0
H2997 H 0.9445 0.65372 0.42556 0.0
H2998 H 0.93677 0.65754 0.44898 0.0
H2999 H 0.95021 0.67507 0.43254 0.0
C3000 C 0.37314 0.00556 0.71965 0.0
C3001 C 0.37955 0.01626 0.70282 0.0
C3002 C 0.38344 1.00066 0.73034 0.0
C3003 C 0.40027 0.00606 0.72348 0.0
C3004 C 0.40635 0.01595 0.70567 0.0
C3005 C 0.39605 0.02129 0.69582 0.0
C3006 C 0.3767 0.99067 0.74966 0.0
C3007 C 0.42393 0.02138 0.69738 0.0
C3008 C 0.43438 0.01175 0.76115 0.0
C3009 C 0.43426 0.99613 0.75958 0.0
C3010 C 0.42314 0.01493 0.74984 0.0
C3011 C 0.41199 0.00257 0.7358 0.0
C3012 C 0.41207 0.98701 0.73361 0.0
C3013 C 0.42289 0.98382 0.74582 0.0
C3014 C 0.42314 0.03153 0.75304 0.0
C3015 C 0.4008 0.97377 0.71829 0.0
H3016 H 0.36045 0.00191 0.7252 0.0
H3017 H 0.40095 0.02956 0.68275 0.0
H3018 H 0.37801 0.97909 0.7494 0.0
H3019 H 0.38437 0.99866 0.76255 0.0
H3020 H 0.36305 0.98671 0.75235 0.0
H3021 H 0.42578 0.02694 0.68203 0.0
H3022 H 0.43381 0.0311 0.70745 0.0
H3023 H 0.42609 0.0103 0.69678 0.0
H3024 H 0.44334 0.02166 0.77114 0.0
H3025 H 0.42226 0.97155 0.7446 0.0
H3026 H 0.40998 0.02889 0.7564 0.0
H3027 H 0.42741 0.03932 0.73909 0.0
H3028 H 0.43168 0.03923 0.76558 0.0
H3029 H 0.38714 0.96877 0.72212 0.0
H3030 H 0.4032 0.96284 0.71751 0.0
H3031 H 0.40298 0.97969 0.70314 0.0
C3032 C 0.97159 0.36634 0.70732 0.0
C3033 C 0.98329 0.361 0.70208 0.0
C3034 C 0.97697 0.38203 0.71705 0.0
C3035 C 0.99451 0.39273 0.72163 0.0
C3036 C 0.00651 0.38777 0.71565 0.0
C3037 C 1.00075 0.37194 0.70596 0.0
C3038 C 0.96376 0.38684 0.72315 0.0
C3039 C 0.02533 0.3989 0.72014 0.0
C3040 C 0.00781 0.43853 0.7362 0.0
C3041 C 0.00709 0.43752 0.75732 0.0
C3042 C 0.00435 0.42422 0.72434 0.0
C3043 C 1.0 0.40852 0.73383 0.0
C3044 C 0.99979 0.40757 0.75514 0.0
C3045 C 0.00337 0.42208 0.7666 0.0
C3046 C 0.00476 0.42575 0.70167 0.0
C3047 C 0.99526 0.39109 0.76586 0.0
H3048 H 0.95808 0.35802 0.70433 0.0
H3049 H 0.00988 0.36793 0.70194 0.0
H3050 H 0.96317 0.38732 0.73983 0.0
H3051 H 0.96741 0.39976 0.7174 0.0
H3052 H 0.95079 0.3776 0.71743 0.0
H3053 H 0.03316 0.39395 0.71298 0.0
H3054 H 0.02996 0.41214 0.71479 0.0
H3055 H 0.02741 0.39956 0.73667 0.0
H3056 H 0.01053 0.45036 0.7289 0.0
H3057 H 0.0031 0.42128 0.78291 0.0
H3058 H 0.99164 0.41783 0.69558 0.0
H3059 H 0.01277 0.42082 0.69505 0.0
H3060 H 0.00982 0.43917 0.69665 0.0
H3061 H 0.98187 0.38127 0.76228 0.0
H3062 H 0.99652 0.39271 0.78248 0.0
H3063 H 0.00362 0.3861 0.76056 0.0
C3064 C 0.63057 0.62856 0.70385 0.0
C3065 C 0.64245 0.62282 0.70332 0.0
C3066 C 0.61457 0.61882 0.71328 0.0
C3067 C 0.61045 0.6031 0.72258 0.0
C3068 C 0.62229 0.59714 0.72179 0.0
C3069 C 0.63808 0.60701 0.71209 0.0
C3070 C 0.60218 0.62547 0.71358 0.0
C3071 C 0.61848 0.58051 0.73163 0.0
C3072 C 0.57805 0.58515 0.76528 0.0
C3073 C 0.56397 0.57155 0.75571 0.0
C3074 C 0.5931 0.59584 0.75453 0.0
C3075 C 0.59401 0.59299 0.73367 0.0
C3076 C 0.57958 0.57969 0.72378 0.0
C3077 C 0.56478 0.56906 0.73495 0.0
C3078 C 0.60826 0.60976 0.76569 0.0
C3079 C 0.57995 0.57638 0.70152 0.0
H3080 H 0.63385 0.64074 0.69708 0.0
H3081 H 0.64717 0.60248 0.71182 0.0
H3082 H 0.58963 0.61569 0.70741 0.0
H3083 H 0.59997 0.62804 0.72935 0.0
H3084 H 0.6069 0.63744 0.70473 0.0
H3085 H 0.62894 0.57755 0.7294 0.0
H3086 H 0.6165 0.58114 0.74806 0.0
H3087 H 0.60648 0.5698 0.72543 0.0
H3088 H 0.57753 0.58702 0.78135 0.0
H3089 H 0.55383 0.55868 0.72746 0.0
H3090 H 0.61287 0.62225 0.75811 0.0
H3091 H 0.61894 0.60697 0.76549 0.0
H3092 H 0.60517 0.61094 0.78162 0.0
H3093 H 0.58424 0.58835 0.69287 0.0
H3094 H 0.56724 0.5665 0.69578 0.0
H3095 H 0.58929 0.57201 0.69856 0.0
C3096 C 0.6693 0.70692 0.65652 0.0
C3097 C 0.68692 0.71272 0.65708 0.0
C3098 C 0.663 0.7166 0.64703 0.0
C3099 C 0.67457 0.73232 0.6377 0.0
C3100 C 0.69236 0.73835 0.63854 0.0
C3101 C 0.69831 0.72854 0.6483 0.0
C3102 C 0.64396 0.70988 0.64669 0.0
C3103 C 0.70513 0.75498 0.62867 0.0
C3104 C 0.66036 0.7502 0.5948 0.0
C3105 C 0.65985 0.76385 0.60427 0.0
C3106 C 0.6646 0.73947 0.60566 0.0
C3107 C 0.6682 0.74235 0.62653 0.0
C3108 C 0.66701 0.75569 0.63633 0.0
C3109 C 0.66296 0.76635 0.62505 0.0
C3110 C 0.66593 0.72553 0.59459 0.0
C3111 C 0.67052 0.75903 0.6586 0.0
H3112 H 0.66042 0.69473 0.66329 0.0
H3113 H 0.71193 0.73312 0.64859 0.0
H3114 H 0.64109 0.71966 0.65276 0.0
H3115 H 0.63926 0.70723 0.63092 0.0
H3116 H 0.63675 0.69795 0.65561 0.0
H3117 H 0.71855 0.75799 0.63094 0.0
H3118 H 0.7026 0.75431 0.61224 0.0
H3119 H 0.70375 0.76568 0.63482 0.0
H3120 H 0.6581 0.74832 0.57871 0.0
H3121 H 0.66237 0.77677 0.63246 0.0
H3122 H 0.65807 0.71306 0.60224 0.0
H3123 H 0.67939 0.72834 0.59481 0.0
H3124 H 0.6617 0.72428 0.57866 0.0
H3125 H 0.66286 0.74704 0.66725 0.0
H3126 H 0.66754 0.76885 0.66427 0.0
H3127 H 0.6842 0.76348 0.66163 0.0
C3128 C 0.27349 0.96906 0.65626 0.0
C3129 C 0.2905 0.97409 0.6611 0.0
C3130 C 0.26302 0.95366 0.64606 0.0
C3131 C 0.26969 0.94294 0.64057 0.0
C3132 C 0.28659 0.94754 0.64621 0.0
C3133 C 0.29681 0.96307 0.6564 0.0
C3134 C 0.24506 0.94924 0.64039 0.0
C3135 C 0.29411 0.93639 0.64076 0.0
C3136 C 0.23714 0.89769 0.6242 0.0
C3137 C 0.23752 0.89938 0.60314 0.0
C3138 C 0.24791 0.91161 0.63659 0.0
C3139 C 0.2593 0.9276 0.62773 0.0
C3140 C 0.26007 0.92925 0.60647 0.0
C3141 C 0.24922 0.91513 0.59446 0.0
C3142 C 0.24673 0.90934 0.65918 0.0
C3143 C 0.27207 0.94606 0.5964 0.0
H3144 H 0.26846 0.97744 0.65988 0.0
H3145 H 0.30993 0.96684 0.66008 0.0
H3146 H 0.24399 0.9494 0.62374 0.0
H3147 H 0.23574 0.93613 0.64555 0.0
H3148 H 0.24143 0.95833 0.64693 0.0
H3149 H 0.30682 0.94092 0.64782 0.0
H3150 H 0.28538 0.92299 0.6455 0.0
H3151 H 0.29558 0.9363 0.62416 0.0
H3152 H 0.22804 0.88563 0.63105 0.0
H3153 H 0.24982 0.91646 0.5782 0.0
H3154 H 0.24168 0.91721 0.66594 0.0
H3155 H 0.25961 0.91386 0.66566 0.0
H3156 H 0.23823 0.89579 0.66364 0.0
H3157 H 0.26861 0.95583 0.60082 0.0
H3158 H 0.27166 0.94502 0.5797 0.0
H3159 H 0.28539 0.95075 0.60147 0.0
C3160 C 0.04061 0.3123 0.66506 0.0
C3161 C 0.02965 0.31819 0.65879 0.0
C3162 C 0.05599 0.31712 0.65479 0.0
C3163 C 0.06003 0.32738 0.63727 0.0
C3164 C 0.04914 0.33367 0.63117 0.0
C3165 C 0.03422 0.32926 0.64228 0.0
C3166 C 0.0676 0.31073 0.66228 0.0
C3167 C 0.05261 0.3441 0.61218 0.0
C3168 C 0.10464 0.34812 0.61423 0.0
C3169 C 0.103 0.33576 0.60004 0.0
C3170 C 0.09092 0.34543 0.62675 0.0
C3171 C 0.07488 0.33038 0.62447 0.0
C3172 C 0.07295 0.31803 0.60993 0.0
C3173 C 0.08708 0.32066 0.59829 0.0
C3174 C 0.09364 0.35864 0.64254 0.0
C3175 C 0.05592 0.30199 0.60662 0.0
H3176 H 0.03703 0.30373 0.67787 0.0
H3177 H 0.02556 0.33357 0.63727 0.0
H3178 H 0.06714 0.30095 0.65175 0.0
H3179 H 0.08104 0.32137 0.66283 0.0
H3180 H 0.06384 0.30493 0.67751 0.0
H3181 H 0.04343 0.3488 0.61014 0.0
H3182 H 0.06577 0.35524 0.61236 0.0
H3183 H 0.05169 0.33613 0.59893 0.0
H3184 H 0.11662 0.36003 0.61559 0.0
H3185 H 0.08555 0.31071 0.58794 0.0
H3186 H 0.08994 0.35252 0.6576 0.0
H3187 H 0.08537 0.36422 0.63936 0.0
H3188 H 0.10715 0.36919 0.64319 0.0
H3189 H 0.0522 0.29388 0.62031 0.0
H3190 H 0.05622 0.29431 0.59366 0.0
H3191 H 0.04582 0.30535 0.60385 0.0
C3192 C 0.27185 0.31162 0.66744 0.0
C3193 C 0.28892 0.31783 0.66178 0.0
C3194 C 0.26149 0.31656 0.65699 0.0
C3195 C 0.26814 0.32731 0.6399 0.0
C3196 C 0.28552 0.33394 0.63444 0.0
C3197 C 0.2958 0.32937 0.64572 0.0
C3198 C 0.24325 0.30978 0.66381 0.0
C3199 C 0.29296 0.34492 0.61592 0.0
C3200 C 0.23558 0.32116 0.59969 0.0
C3201 C 0.2344 0.33607 0.60166 0.0
C3202 C 0.24679 0.31841 0.61168 0.0
C3203 C 0.25656 0.33044 0.62679 0.0
C3204 C 0.25519 0.34529 0.62931 0.0
C3205 C 0.24446 0.34811 0.61647 0.0
C3206 C 0.24819 0.3026 0.6081 0.0
C3207 C 0.26496 0.35814 0.64569 0.0
H3208 H 0.26656 0.30269 0.67989 0.0
H3209 H 0.30894 0.33396 0.64118 0.0
H3210 H 0.24021 0.32028 0.66448 0.0
H3211 H 0.23436 0.30019 0.65282 0.0
H3212 H 0.2408 0.3036 0.67886 0.0
H3213 H 0.30692 0.34985 0.61441 0.0
H3214 H 0.28647 0.33727 0.60229 0.0
H3215 H 0.2907 0.35593 0.61629 0.0
H3216 H 0.22764 0.31142 0.58887 0.0
H3217 H 0.24409 0.35987 0.61805 0.0
H3218 H 0.24348 0.29415 0.6215 0.0
H3219 H 0.26178 0.30621 0.60582 0.0
H3220 H 0.24073 0.29518 0.59477 0.0
H3221 H 0.26214 0.35163 0.66054 0.0
H3222 H 0.26174 0.36852 0.64645 0.0
H3223 H 0.27892 0.36398 0.64307 0.0
C3224 C 0.69809 0.97037 0.64756 0.0
C3225 C 0.68671 0.97443 0.65723 0.0
C3226 C 0.69223 0.95456 0.63793 0.0
C3227 C 0.67454 0.94239 0.63807 0.0
C3228 C 0.66302 0.94616 0.64833 0.0
C3229 C 0.66923 0.96218 0.65775 0.0
C3230 C 0.70495 0.95108 0.62712 0.0
C3231 C 0.64409 0.93343 0.64898 0.0
C3232 C 0.65965 0.9101 0.59523 0.0
C3233 C 0.65993 0.89623 0.60434 0.0
C3234 C 0.6638 0.925 0.60623 0.0
C3235 C 0.6682 0.92599 0.62688 0.0
C3236 C 0.66782 0.91175 0.63634 0.0
C3237 C 0.66376 0.89707 0.62494 0.0
C3238 C 0.66419 0.93995 0.59553 0.0
C3239 C 0.67224 0.91223 0.65836 0.0
H3240 H 0.71162 0.97974 0.64705 0.0
H3241 H 0.66036 0.96521 0.66519 0.0
H3242 H 0.70414 0.93918 0.63297 0.0
H3243 H 0.70184 0.94909 0.61081 0.0
H3244 H 0.71832 0.96172 0.62884 0.0
H3245 H 0.63697 0.93788 0.6586 0.0
H3246 H 0.63874 0.93118 0.63351 0.0
H3247 H 0.64187 0.92096 0.65479 0.0
H3248 H 0.65683 0.90956 0.57928 0.0
H3249 H 0.66376 0.88628 0.6321 0.0
H3250 H 0.67751 0.95083 0.59509 0.0
H3251 H 0.65638 0.94432 0.60386 0.0
H3252 H 0.65934 0.93673 0.57983 0.0
H3253 H 0.68594 0.92176 0.66073 0.0
H3254 H 0.66988 0.89961 0.66386 0.0
H3255 H 0.66464 0.91629 0.66764 0.0
C3256 C 0.03473 0.73123 0.65173 0.0
C3257 C 0.02943 0.71426 0.65708 0.0
C3258 C 0.0504 0.74145 0.64193 0.0
C3259 C 0.06112 0.73459 0.63739 0.0
C3260 C 0.05619 0.71769 0.64346 0.0
C3261 C 0.04038 0.70771 0.65322 0.0
C3262 C 0.05516 0.75941 0.63575 0.0
C3263 C 0.06734 0.70997 0.63901 0.0
C3264 C 0.09033 0.75492 0.59233 0.0
C3265 C 0.10575 0.76676 0.60156 0.0
C3266 C 0.0759 0.74397 0.60384 0.0
C3267 C 0.07688 0.7448 0.62515 0.0
C3268 C 0.09259 0.75625 0.63458 0.0
C3269 C 0.10683 0.76711 0.62268 0.0
C3270 C 0.05942 0.73192 0.59316 0.0
C3271 C 0.09417 0.75747 0.65725 0.0
H3272 H 0.02641 0.73645 0.6547 0.0
H3273 H 0.03641 0.69462 0.65732 0.0
H3274 H 0.06807 0.7687 0.64149 0.0
H3275 H 0.05564 0.76037 0.61907 0.0
H3276 H 0.0459 0.76317 0.64142 0.0
H3277 H 0.06243 0.69726 0.64623 0.0
H3278 H 0.06797 0.70844 0.62249 0.0
H3279 H 0.08059 0.71861 0.64431 0.0
H3280 H 0.08948 0.75434 0.57603 0.0
H3281 H 0.11865 0.77631 0.62995 0.0
H3282 H 0.04957 0.7355 0.59668 0.0
H3283 H 0.05448 0.71864 0.59856 0.0
H3284 H 0.06103 0.73214 0.57654 0.0
H3285 H 0.08627 0.76274 0.66335 0.0
H3286 H 0.1076 0.76582 0.66222 0.0
H3287 H 0.08925 0.74458 0.6639 0.0
C3288 C 0.97136 0.6056 0.70627 0.0
C3289 C 0.98311 0.62254 0.7009 0.0
C3290 C 0.97667 0.59532 0.71618 0.0
C3291 C 0.9942 0.6021 0.72083 0.0
C3292 C 0.00624 0.61896 0.71475 0.0
C3293 C 1.00055 0.629 0.70487 0.0
C3294 C 0.96341 0.57741 0.72235 0.0
C3295 C 0.02504 0.6266 0.71932 0.0
C3296 C 0.00292 0.58183 0.76601 0.0
C3297 C 0.00666 0.57004 0.75684 0.0
C3298 C 0.99937 0.5927 0.75445 0.0
C3299 C 0.99962 0.59184 0.73314 0.0
C3300 C 0.00396 0.58038 0.72377 0.0
C3301 C 0.00741 0.5696 0.73572 0.0
C3302 C 0.99485 0.60476 0.76505 0.0
C3303 C 0.00439 0.5791 0.70111 0.0
H3304 H 0.95786 0.60045 0.70322 0.0
H3305 H 0.00972 0.64206 0.70076 0.0
H3306 H 0.96703 0.56805 0.71672 0.0
H3307 H 0.9628 0.57646 0.73904 0.0
H3308 H 0.95046 0.57371 0.71659 0.0
H3309 H 0.03292 0.63931 0.71215 0.0
H3310 H 0.02707 0.62808 0.73586 0.0
H3311 H 0.02967 0.61793 0.71406 0.0
H3312 H 0.00263 0.58247 0.78231 0.0
H3313 H 0.01014 0.56044 0.7285 0.0
H3314 H 0.98148 0.60123 0.76142 0.0
H3315 H 0.00324 0.61804 0.75971 0.0
H3316 H 0.99608 0.6045 0.78169 0.0
H3317 H 0.99129 0.57397 0.69498 0.0
H3318 H 0.00939 0.57064 0.69617 0.0
H3319 H 0.01248 0.59197 0.69444 0.0
C3320 C 0.39371 0.36578 0.71279 0.0
C3321 C 0.37763 0.36131 0.70478 0.0
C3322 C 0.40382 0.38161 0.7223 0.0
C3323 C 0.39782 0.3934 0.72363 0.0
C3324 C 0.38184 0.38921 0.71501 0.0
C3325 C 0.37186 0.37315 0.7058 0.0
C3326 C 0.42073 0.3855 0.73143 0.0
C3327 C 0.37515 0.40157 0.71588 0.0
C3328 C 0.41674 0.42567 0.76631 0.0
C3329 C 0.43014 0.43974 0.75651 0.0
C3330 C 0.40577 0.41067 0.75566 0.0
C3331 C 0.40814 0.40982 0.73466 0.0
C3332 C 0.42121 0.42426 0.72455 0.0
C3333 C 0.43214 0.43901 0.73563 0.0
C3334 C 0.39213 0.39548 0.76704 0.0
C3335 C 0.42399 0.42396 0.70214 0.0
H3336 H 0.39826 0.35671 0.71215 0.0
H3337 H 0.35946 0.3698 0.6996 0.0
H3338 H 0.43124 0.39752 0.72503 0.0
H3339 H 0.4205 0.38745 0.74793 0.0
H3340 H 0.42368 0.37508 0.72879 0.0
H3341 H 0.36302 0.39684 0.70737 0.0
H3342 H 0.37287 0.40369 0.73178 0.0
H3343 H 0.38479 0.41415 0.70965 0.0
H3344 H 0.41525 0.42616 0.78248 0.0
H3345 H 0.44238 0.44996 0.72799 0.0
H3346 H 0.39492 0.38481 0.76644 0.0
H3347 H 0.37946 0.39087 0.75991 0.0
H3348 H 0.39132 0.39854 0.7831 0.0
H3349 H 0.42838 0.41471 0.69873 0.0
H3350 H 0.43366 0.43671 0.69628 0.0
H3351 H 0.41179 0.4196 0.69394 0.0
C3352 C 0.63004 0.00209 0.70791 0.0
C3353 C 0.64123 0.01976 0.7061 0.0
C3354 C 0.61411 0.9957 0.71756 0.0
C3355 C 0.60929 0.00726 0.72557 0.0
C3356 C 0.62027 0.02508 0.72312 0.0
C3357 C 0.63608 0.0311 0.71342 0.0
C3358 C 0.60269 0.97661 0.7198 0.0
C3359 C 0.61561 0.03785 0.73139 0.0
C3360 C 0.56338 0.99349 0.74 0.0
C3361 C 0.56392 0.9924 0.76106 0.0
C3362 C 0.57788 0.9977 0.72814 0.0
C3363 C 0.59328 0.00092 0.73756 0.0
C3364 C 0.59373 0.99928 0.75874 0.0
C3365 C 0.57906 0.99503 0.77021 0.0
C3366 C 0.57689 0.99932 0.7056 0.0
C3367 C 0.60988 0.00255 0.76937 0.0
H3368 H 0.63392 0.99324 0.70228 0.0
H3369 H 0.64459 0.04478 0.71203 0.0
H3370 H 0.60161 0.97309 0.73597 0.0
H3371 H 0.58961 0.97262 0.71435 0.0
H3372 H 0.60766 0.96932 0.7114 0.0
H3373 H 0.62512 0.05123 0.72725 0.0
H3374 H 0.60288 0.03495 0.7257 0.0
H3375 H 0.61474 0.03691 0.74806 0.0
H3376 H 0.55179 0.99163 0.73283 0.0
H3377 H 0.57948 0.99392 0.78644 0.0
H3378 H 0.58178 0.99178 0.69767 0.0
H3379 H 0.58511 0.01288 0.70111 0.0
H3380 H 0.56362 0.99493 0.70043 0.0
H3381 H 0.61483 0.9946 0.76263 0.0
H3382 H 0.60783 0.99975 0.78576 0.0
H3383 H 0.61991 0.01614 0.76743 0.0
loop_
_geom_bond_atom_site_label_1
_geom_bond_atom_site_label_2
_geom_bond_distance
_geom_bond_site_symmetry_2
_ccdc_geom_bond_type
O0 Cd1 2.223 . S
O0 C8 1.315 . S
Cd1 O0 2.223 . S
Cd1 O4 2.297 . S
Cd1 O5 2.439 . S
Cd1 O11 2.240 1_554 S
Cd2 O3 2.240 . S
Cd2 O10 2.223 1_554 S
Cd2 O12 2.297 1_554 S
Cd2 O13 2.439 1_554 S
O3 Cd2 2.240 . S
O3 C8 1.279 1_655 S
O4 Cd1 2.297 . S
O4 C6 1.247 . S
O5 Cd1 2.439 . S
O5 C6 1.208 . S
C6 O4 1.247 . S
C6 O5 1.208 . S
C7 O12 1.247 . S
C7 O13 1.208 . S
C8 O0 1.315 . S
C8 O3 1.279 1_455 S
C9 O10 1.371 . S
C9 O11 1.226 1_655 S
O10 Cd2 2.223 1_556 S
O10 C9 1.371 . S
O11 Cd1 2.240 1_556 S
O11 C9 1.226 1_455 S
O12 Cd2 2.297 1_556 S
O12 C7 1.247 . S
O13 Cd2 2.439 1_556 S
O13 C7 1.208 . S
O14 Cd15 2.223 . S
O14 C22 1.315 . S
Cd15 O14 2.223 . S
Cd15 O18 2.297 . S
Cd15 O19 2.439 . S
Cd15 O25 2.240 1_554 S
Cd16 O17 2.240 . S
Cd16 O24 2.223 1_554 S
Cd16 O26 2.297 1_554 S
Cd16 O27 2.439 1_554 S
O17 Cd16 2.240 . S
O17 C22 1.279 . S
O18 Cd15 2.297 . S
O18 C20 1.247 . S
O19 Cd15 2.439 . S
O19 C20 1.208 . S
C20 O18 1.247 . S
C20 O19 1.208 . S
C21 O26 1.247 . S
C21 O27 1.208 . S
C22 O14 1.315 . S
C22 O17 1.279 . S
C23 O24 1.315 . S
C23 O25 1.279 . S
O24 Cd16 2.223 1_556 S
O24 C23 1.315 . S
O25 Cd15 2.240 1_556 S
O25 C23 1.279 . S
O26 Cd16 2.297 1_556 S
O26 C21 1.247 . S
O27 Cd16 2.439 1_556 S
O27 C21 1.208 . S
O28 Cd29 2.223 1_556 S
O28 C36 1.315 . S
Cd29 O28 2.223 1_554 S
Cd29 O32 2.297 1_554 S
Cd29 O33 2.439 1_554 S
Cd29 O39 2.240 . S
Cd30 O31 2.240 1_554 S
Cd30 O38 2.223 . S
Cd30 O40 2.297 . S
Cd30 O41 2.439 . S
O31 Cd30 2.240 1_556 S
O31 C36 1.279 1_565 S
O32 Cd29 2.297 1_556 S
O32 C34 1.247 . S
O33 Cd29 2.439 1_556 S
O33 C34 1.208 . S
C34 O32 1.247 . S
C34 O33 1.208 . S
C35 O40 1.247 . S
C35 O41 1.208 . S
C36 O28 1.315 . S
C36 O31 1.279 1_545 S
C37 O38 1.364 . S
C37 O39 1.233 1_565 S
O38 Cd30 2.223 . S
O38 C37 1.364 . S
O39 Cd29 2.240 . S
O39 C37 1.233 1_545 S
O40 Cd30 2.297 . S
O40 C35 1.247 . S
O41 Cd30 2.439 . S
O41 C35 1.208 . S
O42 Cd43 2.223 1_556 S
O42 C50 1.315 . S
Cd43 O42 2.223 1_554 S
Cd43 O46 2.297 1_554 S
Cd43 O47 2.439 1_554 S
Cd43 O53 2.240 . S
Cd44 O45 2.240 1_554 S
Cd44 O52 2.223 . S
Cd44 O54 2.297 . S
Cd44 O55 2.439 . S
O45 Cd44 2.240 1_556 S
O45 C50 1.279 1_455 S
O46 Cd43 2.297 1_556 S
O46 C48 1.247 . S
O47 Cd43 2.439 1_556 S
O47 C48 1.208 . S
C48 O46 1.247 . S
C48 O47 1.208 . S
C49 O54 1.247 . S
C49 O55 1.208 . S
C50 O42 1.315 . S
C50 O45 1.279 1_655 S
C51 O52 1.315 . S
C51 O53 1.279 1_455 S
O52 Cd44 2.223 . S
O52 C51 1.315 . S
O53 Cd43 2.240 . S
O53 C51 1.279 1_655 S
O54 Cd44 2.297 . S
O54 C49 1.247 . S
O55 Cd44 2.439 . S
O55 C49 1.208 . S
O56 Cd57 2.223 1_556 S
O56 C64 1.315 . S
Cd57 O56 2.223 1_554 S
Cd57 O60 2.297 1_554 S
Cd57 O61 2.439 1_554 S
Cd57 O67 2.240 . S
Cd58 O59 2.240 1_554 S
Cd58 O66 2.223 . S
Cd58 O68 2.297 . S
Cd58 O69 2.439 . S
O59 Cd58 2.240 1_556 S
O59 C64 1.279 . S
O60 Cd57 2.297 1_556 S
O60 C62 1.247 . S
O61 Cd57 2.439 1_556 S
O61 C62 1.208 . S
C62 O60 1.247 . S
C62 O61 1.208 . S
C63 O68 1.247 . S
C63 O69 1.208 . S
C64 O56 1.315 . S
C64 O59 1.279 . S
C65 O66 1.315 . S
C65 O67 1.279 . S
O66 Cd58 2.223 . S
O66 C65 1.315 . S
O67 Cd57 2.240 . S
O67 C65 1.279 . S
O68 Cd58 2.297 . S
O68 C63 1.247 . S
O69 Cd58 2.439 . S
O69 C63 1.208 . S
O70 Cd71 2.223 . S
O70 C78 1.315 . S
Cd71 O70 2.223 . S
Cd71 O74 2.297 . S
Cd71 O75 2.439 . S
Cd71 O81 2.240 1_554 S
Cd72 O73 2.240 . S
Cd72 O80 2.223 1_554 S
Cd72 O82 2.297 1_554 S
Cd72 O83 2.439 1_554 S
O73 Cd72 2.240 . S
O73 C78 1.279 1_545 S
O74 Cd71 2.297 . S
O74 C76 1.247 . S
O75 Cd71 2.439 . S
O75 C76 1.208 . S
C76 O74 1.247 . S
C76 O75 1.208 . S
C77 O82 1.247 . S
C77 O83 1.208 . S
C78 O70 1.315 . S
C78 O73 1.279 1_565 S
C79 O80 1.315 . S
C79 O81 1.279 1_545 S
O80 Cd72 2.223 1_556 S
O80 C79 1.315 . S
O81 Cd71 2.240 1_556 S
O81 C79 1.279 1_565 S
O82 Cd72 2.297 1_556 S
O82 C77 1.247 . S
O83 Cd72 2.439 1_556 S
O83 C77 1.208 . S
O84 Cd85 2.223 . S
O84 C92 1.315 . S
Cd85 O84 2.223 . S
Cd85 O88 2.297 . S
Cd85 O89 2.439 . S
Cd85 O95 2.240 . S
Cd86 O87 2.240 . S
Cd86 O94 2.223 . S
Cd86 O96 2.297 . S
Cd86 O97 2.439 . S
O87 Cd86 2.240 . S
O87 C92 1.279 . S
O88 Cd85 2.297 . S
O88 C90 1.247 . S
O89 Cd85 2.439 . S
O89 C90 1.208 . S
C90 O88 1.247 . S
C90 O89 1.208 . S
C91 O96 1.247 . S
C91 O97 1.208 . S
C92 O84 1.315 . S
C92 O87 1.279 . S
C93 O94 1.315 . S
C93 O95 1.279 . S
O94 Cd86 2.223 . S
O94 C93 1.315 . S
O95 Cd85 2.240 . S
O95 C93 1.279 . S
O96 Cd86 2.297 . S
O96 C91 1.247 . S
O97 Cd86 2.439 . S
O97 C91 1.208 . S
O98 Cd99 2.223 . S
O98 C106 1.315 . S
Cd99 O98 2.223 . S
Cd99 O102 2.297 1_565 S
Cd99 O103 2.439 1_565 S
Cd99 O109 2.240 . S
Cd100 O101 2.240 . S
Cd100 O108 2.223 . S
Cd100 O110 2.297 . S
Cd100 O111 2.439 . S
O101 Cd100 2.240 . S
O101 C106 1.279 . S
O102 Cd99 2.297 1_545 S
O102 C104 1.247 . S
O103 Cd99 2.439 1_545 S
O103 C104 1.208 . S
C104 O102 1.247 . S
C104 O103 1.208 . S
C105 O110 1.247 . S
C105 O111 1.208 . S
C106 O98 1.315 . S
C106 O101 1.279 . S
C107 O108 1.315 . S
C107 O109 1.279 . S
O108 Cd100 2.223 . S
O108 C107 1.315 . S
O109 Cd99 2.240 . S
O109 C107 1.279 . S
O110 Cd100 2.297 . S
O110 C105 1.247 . S
O111 Cd100 2.439 . S
O111 C105 1.208 . S
O112 Cd113 2.223 . S
O112 C120 1.315 . S
Cd113 O112 2.223 . S
Cd113 O116 2.297 . S
Cd113 O117 2.439 . S
Cd113 O123 2.240 . S
Cd114 O115 2.240 . S
Cd114 O122 2.223 . S
Cd114 O124 2.297 1_455 S
Cd114 O125 2.439 1_455 S
O115 Cd114 2.240 . S
O115 C120 1.279 . S
O116 Cd113 2.297 . S
O116 C118 1.247 . S
O117 Cd113 2.439 . S
O117 C118 1.208 . S
C118 O116 1.247 . S
C118 O117 1.208 . S
C119 O124 1.247 . S
C119 O125 1.208 . S
C120 O112 1.315 . S
C120 O115 1.279 . S
C121 O122 1.315 . S
C121 O123 1.279 . S
O122 Cd114 2.223 . S
O122 C121 1.315 . S
O123 Cd113 2.240 . S
O123 C121 1.279 . S
O124 Cd114 2.297 1_655 S
O124 C119 1.247 . S
O125 Cd114 2.439 1_655 S
O125 C119 1.208 . S
O126 Cd127 2.223 . S
O126 C134 1.315 . S
Cd127 O126 2.223 . S
Cd127 O130 2.297 . S
Cd127 O131 2.439 . S
Cd127 O137 2.240 . S
Cd128 O129 2.240 . S
Cd128 O136 2.223 . S
Cd128 O138 2.297 1_565 S
Cd128 O139 2.439 1_565 S
O129 Cd128 2.240 . S
O129 C134 1.279 . S
O130 Cd127 2.297 . S
O130 C132 1.247 . S
O131 Cd127 2.439 . S
O131 C132 1.208 . S
C132 O130 1.247 . S
C132 O131 1.208 . S
C133 O138 1.247 . S
C133 O139 1.208 . S
C134 O126 1.315 . S
C134 O129 1.279 . S
C135 O136 1.315 . S
C135 O137 1.279 . S
O136 Cd128 2.223 . S
O136 C135 1.315 . S
O137 Cd127 2.240 . S
O137 C135 1.279 . S
O138 Cd128 2.297 1_545 S
O138 C133 1.247 . S
O139 Cd128 2.439 1_545 S
O139 C133 1.208 . S
O140 Cd141 2.223 . S
O140 C148 1.315 . S
Cd141 O140 2.223 . S
Cd141 O144 2.297 . S
Cd141 O145 2.439 . S
Cd141 O151 2.240 . S
Cd142 O143 2.240 . S
Cd142 O150 2.223 . S
Cd142 O152 2.297 1_455 S
Cd142 O153 2.439 1_455 S
O143 Cd142 2.240 . S
O143 C148 1.279 . S
O144 Cd141 2.297 . S
O144 C146 1.247 . S
O145 Cd141 2.439 . S
O145 C146 1.208 . S
C146 O144 1.247 . S
C146 O145 1.208 . S
C147 O152 1.247 . S
C147 O153 1.208 . S
C148 O140 1.315 . S
C148 O143 1.279 . S
C149 O150 1.315 . S
C149 O151 1.279 . S
O150 Cd142 2.223 . S
O150 C149 1.315 . S
O151 Cd141 2.240 . S
O151 C149 1.279 . S
O152 Cd142 2.297 1_655 S
O152 C147 1.247 . S
O153 Cd142 2.439 1_655 S
O153 C147 1.208 . S
O154 Cd155 2.223 . S
O154 C162 1.315 . S
Cd155 O154 2.223 . S
Cd155 O158 2.297 . S
Cd155 O159 2.439 . S
Cd155 O165 2.240 . S
Cd156 O157 2.240 . S
Cd156 O164 2.223 . S
Cd156 O166 2.297 . S
Cd156 O167 2.439 . S
O157 Cd156 2.240 . S
O157 C162 1.279 . S
O158 Cd155 2.297 . S
O158 C160 1.247 . S
O159 Cd155 2.439 . S
O159 C160 1.208 . S
C160 O158 1.247 . S
C160 O159 1.208 . S
C161 O166 1.247 . S
C161 O167 1.208 . S
C162 O154 1.315 . S
C162 O157 1.279 . S
C163 O164 1.315 . S
C163 O165 1.279 . S
O164 Cd156 2.223 . S
O164 C163 1.315 . S
O165 Cd155 2.240 . S
O165 C163 1.279 . S
O166 Cd156 2.297 . S
O166 C161 1.247 . S
O167 Cd156 2.439 . S
O167 C161 1.208 . S
O168 Cd169 2.223 . S
O168 C176 1.315 . S
Cd169 O168 2.223 . S
Cd169 O172 2.297 . S
Cd169 O173 2.439 . S
Cd169 O179 2.240 . S
Cd170 O171 2.240 . S
Cd170 O178 2.223 . S
Cd170 O180 2.297 1_545 S
Cd170 O181 2.439 1_545 S
O171 Cd170 2.240 . S
O171 C176 1.279 . S
O172 Cd169 2.297 . S
O172 C174 1.247 . S
O173 Cd169 2.439 . S
O173 C174 1.208 . S
C174 O172 1.247 . S
C174 O173 1.208 . S
C175 O180 1.247 . S
C175 O181 1.208 . S
C176 O168 1.315 . S
C176 O171 1.279 . S
C177 O178 1.315 . S
C177 O179 1.279 . S
O178 Cd170 2.223 . S
O178 C177 1.315 . S
O179 Cd169 2.240 . S
O179 C177 1.279 . S
O180 Cd170 2.297 1_565 S
O180 C175 1.247 . S
O181 Cd170 2.439 1_565 S
O181 C175 1.208 . S
O182 Cd183 2.223 . S
O182 C190 1.315 . S
Cd183 O182 2.223 . S
Cd183 O186 2.297 . S
Cd183 O187 2.439 . S
Cd183 O193 2.240 . S
Cd184 O185 2.240 . S
Cd184 O192 2.223 . S
Cd184 O194 2.297 1_655 S
Cd184 O195 2.439 1_655 S
O185 Cd184 2.240 . S
O185 C190 1.279 . S
O186 Cd183 2.297 . S
O186 C188 1.247 . S
O187 Cd183 2.439 . S
O187 C188 1.208 . S
C188 O186 1.247 . S
C188 O187 1.208 . S
C189 O194 1.247 . S
C189 O195 1.208 . S
C190 O182 1.315 . S
C190 O185 1.279 . S
C191 O192 1.315 . S
C191 O193 1.279 . S
O192 Cd184 2.223 . S
O192 C191 1.315 . S
O193 Cd183 2.240 . S
O193 C191 1.279 . S
O194 Cd184 2.297 1_455 S
O194 C189 1.247 . S
O195 Cd184 2.439 1_455 S
O195 C189 1.208 . S
O196 Cd197 2.223 . S
O196 C204 1.315 . S
Cd197 O196 2.223 . S
Cd197 O200 2.297 . S
Cd197 O201 2.439 . S
Cd197 O207 2.240 . S
Cd198 O199 2.240 . S
Cd198 O206 2.223 . S
Cd198 O208 2.297 . S
Cd198 O209 2.439 . S
O199 Cd198 2.240 . S
O199 C204 1.279 . S
O200 Cd197 2.297 . S
O200 C202 1.247 . S
O201 Cd197 2.439 . S
O201 C202 1.208 . S
C202 O200 1.247 . S
C202 O201 1.208 . S
C203 O208 1.247 . S
C203 O209 1.208 . S
C204 O196 1.315 . S
C204 O199 1.279 . S
C205 O206 1.315 . S
C205 O207 1.279 . S
O206 Cd198 2.223 . S
O206 C205 1.315 . S
O207 Cd197 2.240 . S
O207 C205 1.279 . S
O208 Cd198 2.297 . S
O208 C203 1.247 . S
O209 Cd198 2.439 . S
O209 C203 1.208 . S
O210 Cd211 2.223 . S
O210 C218 1.315 . S
Cd211 O210 2.223 . S
Cd211 O214 2.297 . S
Cd211 O215 2.439 . S
Cd211 O221 2.240 . S
Cd212 O213 2.240 . S
Cd212 O220 2.223 . S
Cd212 O222 2.297 . S
Cd212 O223 2.439 . S
O213 Cd212 2.240 . S
O213 C218 1.279 . S
O214 Cd211 2.297 . S
O214 C216 1.247 . S
O215 Cd211 2.439 . S
O215 C216 1.208 . S
C216 O214 1.247 . S
C216 O215 1.208 . S
C217 O222 1.247 . S
C217 O223 1.208 . S
C218 O210 1.315 . S
C218 O213 1.279 . S
C219 O220 1.315 . S
C219 O221 1.279 . S
O220 Cd212 2.223 . S
O220 C219 1.315 . S
O221 Cd211 2.240 . S
O221 C219 1.279 . S
O222 Cd212 2.297 . S
O222 C217 1.247 . S
O223 Cd212 2.439 . S
O223 C217 1.208 . S
O224 Cd225 2.223 . S
O224 C232 1.315 . S
Cd225 O224 2.223 . S
Cd225 O228 2.297 1_545 S
Cd225 O229 2.439 1_545 S
Cd225 O235 2.240 . S
Cd226 O227 2.240 . S
Cd226 O234 2.223 . S
Cd226 O236 2.297 . S
Cd226 O237 2.439 . S
O227 Cd226 2.240 . S
O227 C232 1.279 . S
O228 Cd225 2.297 1_565 S
O228 C230 1.247 . S
O229 Cd225 2.439 1_565 S
O229 C230 1.208 . S
C230 O228 1.247 . S
C230 O229 1.208 . S
C231 O236 1.247 . S
C231 O237 1.208 . S
C232 O224 1.315 . S
C232 O227 1.279 . S
C233 O234 1.315 . S
C233 O235 1.279 . S
O234 Cd226 2.223 . S
O234 C233 1.315 . S
O235 Cd225 2.240 . S
O235 C233 1.279 . S
O236 Cd226 2.297 . S
O236 C231 1.247 . S
O237 Cd226 2.439 . S
O237 C231 1.208 . S
O238 Cd239 2.223 . S
O238 C246 1.315 . S
Cd239 O238 2.223 . S
Cd239 O242 2.297 . S
Cd239 O243 2.439 . S
Cd239 O249 2.240 . S
Cd240 O241 2.240 . S
Cd240 O248 2.223 . S
Cd240 O250 2.297 1_655 S
Cd240 O251 2.439 1_655 S
O241 Cd240 2.240 . S
O241 C246 1.279 . S
O242 Cd239 2.297 . S
O242 C244 1.247 . S
O243 Cd239 2.439 . S
O243 C244 1.208 . S
C244 O242 1.247 . S
C244 O243 1.208 . S
C245 O250 1.247 . S
C245 O251 1.208 . S
C246 O238 1.315 . S
C246 O241 1.279 . S
C247 O248 1.315 . S
C247 O249 1.279 . S
O248 Cd240 2.223 . S
O248 C247 1.315 . S
O249 Cd239 2.240 . S
O249 C247 1.279 . S
O250 Cd240 2.297 1_455 S
O250 C245 1.247 . S
O251 Cd240 2.439 1_455 S
O251 C245 1.208 . S
C252 C253 1.384 . S
C252 C254 1.384 . S
C252 H280 0.931 . S
C253 C252 1.384 . S
C253 C256 1.382 . S
C254 C252 1.384 . S
C254 C255 1.381 . S
C254 H281 0.930 . S
C255 C254 1.381 . S
C255 C257 1.381 . S
C255 C258 1.487 . S
C256 C253 1.382 . S
C256 C257 1.387 . S
C256 H282 0.930 . S
C257 C255 1.381 . S
C257 C256 1.387 . S
C257 H283 0.931 . S
C258 C255 1.487 . S
C258 C265 1.399 . S
C258 N296 1.343 . S
C259 C260 1.384 . S
C259 C261 1.384 . S
C259 H284 0.931 . S
C260 C259 1.384 . S
C260 C263 1.382 . S
C261 C259 1.384 . S
C261 C262 1.381 . S
C261 H285 0.930 . S
C262 C261 1.381 . S
C262 C264 1.381 . S
C262 C265 1.487 . S
C263 C260 1.382 . S
C263 C264 1.387 . S
C263 H286 0.930 . S
C264 C262 1.381 . S
C264 C263 1.387 . S
C264 H287 0.931 . S
C265 C258 1.399 . S
C265 C262 1.487 . S
C265 N297 1.343 . S
C266 C267 1.384 . S
C266 C268 1.384 . S
C266 H288 0.931 . S
C267 C266 1.384 . S
C267 C270 1.382 . S
C268 C266 1.384 . S
C268 C269 1.381 . S
C268 H289 0.930 . S
C269 C268 1.381 . S
C269 C271 1.381 . S
C269 C272 1.487 . S
C270 C267 1.382 . S
C270 C271 1.387 . S
C270 H290 0.930 . S
C271 C269 1.381 . S
C271 C270 1.387 . S
C271 H291 0.931 . S
C272 C269 1.487 . S
C272 C279 1.399 . S
C272 N297 1.343 . S
C273 C274 1.384 . S
C273 C275 1.384 . S
C273 H292 0.931 . S
C274 C273 1.384 . S
C274 C277 1.382 . S
C275 C273 1.384 . S
C275 C276 1.381 . S
C275 H293 0.930 . S
C276 C275 1.381 . S
C276 C278 1.381 . S
C276 C279 1.487 . S
C277 C274 1.382 . S
C277 C278 1.387 . S
C277 H294 0.930 . S
C278 C276 1.381 . S
C278 C277 1.387 . S
C278 H295 0.931 . S
C279 C272 1.399 . S
C279 C276 1.487 . S
C279 N296 1.343 . S
H280 C252 0.931 . S
H281 C254 0.930 . S
H282 C256 0.930 . S
H283 C257 0.931 . S
H284 C259 0.931 . S
H285 C261 0.930 . S
H286 C263 0.930 . S
H287 C264 0.931 . S
H288 C266 0.931 . S
H289 C268 0.930 . S
H290 C270 0.930 . S
H291 C271 0.931 . S
H292 C273 0.931 . S
H293 C275 0.930 . S
H294 C277 0.930 . S
H295 C278 0.931 . S
N296 C258 1.343 . S
N296 C279 1.343 . S
N297 C265 1.343 . S
N297 C272 1.343 . S
C298 C299 1.384 . S
C298 C300 1.384 . S
C298 H326 0.931 . S
C299 C298 1.384 . S
C299 C302 1.382 . S
C300 C298 1.384 . S
C300 C301 1.381 . S
C300 H327 0.930 . S
C301 C300 1.381 . S
C301 C303 1.381 . S
C301 C304 1.487 . S
C302 C299 1.382 . S
C302 C303 1.387 . S
C302 H328 0.930 . S
C303 C301 1.381 . S
C303 C302 1.387 . S
C303 H329 0.931 . S
C304 C301 1.487 . S
C304 C311 1.399 . S
C304 N342 1.343 . S
C305 C306 1.384 . S
C305 C307 1.384 . S
C305 H330 0.931 . S
C306 C305 1.384 . S
C306 C309 1.382 . S
C307 C305 1.384 . S
C307 C308 1.381 . S
C307 H331 0.930 . S
C308 C307 1.381 . S
C308 C310 1.381 . S
C308 C311 1.487 . S
C309 C306 1.382 . S
C309 C310 1.387 . S
C309 H332 0.930 . S
C310 C308 1.381 . S
C310 C309 1.387 . S
C310 H333 0.931 . S
C311 C304 1.399 . S
C311 C308 1.487 . S
C311 N343 1.343 . S
C312 C313 1.384 . S
C312 C314 1.384 . S
C312 H334 0.931 . S
C313 C312 1.384 . S
C313 C316 1.382 . S
C314 C312 1.384 . S
C314 C315 1.381 . S
C314 H335 0.930 . S
C315 C314 1.381 . S
C315 C317 1.381 . S
C315 C318 1.487 . S
C316 C313 1.382 . S
C316 C317 1.387 . S
C316 H336 0.930 . S
C317 C315 1.381 . S
C317 C316 1.387 . S
C317 H337 0.931 . S
C318 C315 1.487 . S
C318 C325 1.399 . S
C318 N343 1.343 . S
C319 C320 1.384 . S
C319 C321 1.384 . S
C319 H338 0.931 . S
C320 C319 1.384 . S
C320 C323 1.382 . S
C321 C319 1.384 . S
C321 C322 1.381 . S
C321 H339 0.930 . S
C322 C321 1.381 . S
C322 C324 1.381 . S
C322 C325 1.487 . S
C323 C320 1.382 . S
C323 C324 1.387 . S
C323 H340 0.930 . S
C324 C322 1.381 . S
C324 C323 1.387 . S
C324 H341 0.931 . S
C325 C318 1.399 . S
C325 C322 1.487 . S
C325 N342 1.343 . S
H326 C298 0.931 . S
H327 C300 0.930 . S
H328 C302 0.930 . S
H329 C303 0.931 . S
H330 C305 0.931 . S
H331 C307 0.930 . S
H332 C309 0.930 . S
H333 C310 0.931 . S
H334 C312 0.931 . S
H335 C314 0.930 . S
H336 C316 0.930 . S
H337 C317 0.931 . S
H338 C319 0.931 . S
H339 C321 0.930 . S
H340 C323 0.930 . S
H341 C324 0.931 . S
N342 C304 1.343 . S
N342 C325 1.343 . S
N343 C311 1.343 . S
N343 C318 1.343 . S
C344 C345 1.384 . S
C344 C346 1.384 . S
C344 H372 0.931 . S
C345 C344 1.384 . S
C345 C348 1.382 . S
C346 C344 1.384 . S
C346 C347 1.381 . S
C346 H373 0.930 . S
C347 C346 1.381 . S
C347 C349 1.381 . S
C347 C350 1.487 . S
C348 C345 1.382 . S
C348 C349 1.387 . S
C348 H374 0.930 . S
C349 C347 1.381 . S
C349 C348 1.387 . S
C349 H375 0.931 . S
C350 C347 1.487 . S
C350 C357 1.399 . S
C350 N388 1.343 . S
C351 C352 1.384 . S
C351 C353 1.384 . S
C351 H376 0.931 . S
C352 C351 1.384 . S
C352 C355 1.382 . S
C353 C351 1.384 . S
C353 C354 1.381 . S
C353 H377 0.930 . S
C354 C353 1.381 . S
C354 C356 1.381 . S
C354 C357 1.487 . S
C355 C352 1.382 . S
C355 C356 1.387 . S
C355 H378 0.930 . S
C356 C354 1.381 . S
C356 C355 1.387 . S
C356 H379 0.931 . S
C357 C350 1.399 . S
C357 C354 1.487 . S
C357 N389 1.343 . S
C358 C359 1.384 . S
C358 C360 1.384 . S
C358 H380 0.931 . S
C359 C358 1.384 . S
C359 C362 1.382 . S
C360 C358 1.384 . S
C360 C361 1.381 . S
C360 H381 0.930 . S
C361 C360 1.381 . S
C361 C363 1.381 . S
C361 C364 1.487 . S
C362 C359 1.382 . S
C362 C363 1.387 . S
C362 H382 0.930 . S
C363 C361 1.381 . S
C363 C362 1.387 . S
C363 H383 0.931 . S
C364 C361 1.487 . S
C364 C371 1.399 . S
C364 N389 1.343 . S
C365 C366 1.384 . S
C365 C367 1.384 . S
C365 H384 0.931 . S
C366 C365 1.384 . S
C366 C369 1.382 . S
C367 C365 1.384 . S
C367 C368 1.381 . S
C367 H385 0.930 . S
C368 C367 1.381 . S
C368 C370 1.381 . S
C368 C371 1.487 . S
C369 C366 1.382 . S
C369 C370 1.387 . S
C369 H386 0.930 . S
C370 C368 1.381 . S
C370 C369 1.387 . S
C370 H387 0.931 . S
C371 C364 1.399 . S
C371 C368 1.487 . S
C371 N388 1.343 . S
H372 C344 0.931 . S
H373 C346 0.930 . S
H374 C348 0.930 . S
H375 C349 0.931 . S
H376 C351 0.931 . S
H377 C353 0.930 . S
H378 C355 0.930 . S
H379 C356 0.931 . S
H380 C358 0.931 . S
H381 C360 0.930 . S
H382 C362 0.930 . S
H383 C363 0.931 . S
H384 C365 0.931 . S
H385 C367 0.930 . S
H386 C369 0.930 . S
H387 C370 0.931 . S
N388 C350 1.343 . S
N388 C371 1.343 . S
N389 C357 1.343 . S
N389 C364 1.343 . S
C390 C391 1.384 . S
C390 C392 1.384 . S
C390 H418 0.931 . S
C391 C390 1.384 . S
C391 C394 1.382 . S
C392 C390 1.384 . S
C392 C393 1.381 . S
C392 H419 0.930 . S
C393 C392 1.381 . S
C393 C395 1.381 . S
C393 C396 1.487 . S
C394 C391 1.382 . S
C394 C395 1.387 . S
C394 H420 0.930 . S
C395 C393 1.381 . S
C395 C394 1.387 . S
C395 H421 0.931 . S
C396 C393 1.487 . S
C396 C403 1.399 . S
C396 N434 1.343 . S
C397 C398 1.384 . S
C397 C399 1.384 . S
C397 H422 0.931 . S
C398 C397 1.384 . S
C398 C401 1.382 . S
C399 C397 1.384 . S
C399 C400 1.381 . S
C399 H423 0.930 . S
C400 C399 1.381 . S
C400 C402 1.381 . S
C400 C403 1.487 . S
C401 C398 1.382 . S
C401 C402 1.387 . S
C401 H424 0.930 . S
C402 C400 1.381 . S
C402 C401 1.387 . S
C402 H425 0.931 . S
C403 C396 1.399 . S
C403 C400 1.487 . S
C403 N435 1.343 . S
C404 C405 1.384 . S
C404 C406 1.384 . S
C404 H426 0.931 . S
C405 C404 1.384 . S
C405 C408 1.382 . S
C406 C404 1.384 . S
C406 C407 1.381 . S
C406 H427 0.930 . S
C407 C406 1.381 . S
C407 C409 1.381 . S
C407 C410 1.487 . S
C408 C405 1.382 . S
C408 C409 1.387 . S
C408 H428 0.930 . S
C409 C407 1.381 . S
C409 C408 1.387 . S
C409 H429 0.931 . S
C410 C407 1.487 . S
C410 C417 1.399 . S
C410 N435 1.343 . S
C411 C412 1.384 . S
C411 C413 1.384 . S
C411 H430 0.931 . S
C412 C411 1.384 . S
C412 C415 1.382 . S
C413 C411 1.384 . S
C413 C414 1.381 . S
C413 H431 0.930 . S
C414 C413 1.381 . S
C414 C416 1.381 . S
C414 C417 1.487 . S
C415 C412 1.382 . S
C415 C416 1.387 . S
C415 H432 0.930 . S
C416 C414 1.381 . S
C416 C415 1.387 . S
C416 H433 0.931 . S
C417 C410 1.399 . S
C417 C414 1.487 . S
C417 N434 1.343 . S
H418 C390 0.931 . S
H419 C392 0.930 . S
H420 C394 0.930 . S
H421 C395 0.931 . S
H422 C397 0.931 . S
H423 C399 0.930 . S
H424 C401 0.930 . S
H425 C402 0.931 . S
H426 C404 0.931 . S
H427 C406 0.930 . S
H428 C408 0.930 . S
H429 C409 0.931 . S
H430 C411 0.931 . S
H431 C413 0.930 . S
H432 C415 0.930 . S
H433 C416 0.931 . S
N434 C396 1.343 . S
N434 C417 1.343 . S
N435 C403 1.343 . S
N435 C410 1.343 . S
C436 C437 1.384 . S
C436 C438 1.384 . S
C436 H464 0.931 . S
C437 C436 1.384 . S
C437 C440 1.382 . S
C438 C436 1.384 . S
C438 C439 1.381 . S
C438 H465 0.930 . S
C439 C438 1.381 . S
C439 C441 1.381 . S
C439 C442 1.487 . S
C440 C437 1.382 . S
C440 C441 1.387 . S
C440 H466 0.930 . S
C441 C439 1.381 . S
C441 C440 1.387 . S
C441 H467 0.931 . S
C442 C439 1.487 . S
C442 C449 1.399 . S
C442 N480 1.343 . S
C443 C444 1.384 . S
C443 C445 1.384 . S
C443 H468 0.931 . S
C444 C443 1.384 . S
C444 C447 1.382 . S
C445 C443 1.384 . S
C445 C446 1.381 . S
C445 H469 0.930 . S
C446 C445 1.381 . S
C446 C448 1.381 . S
C446 C449 1.487 . S
C447 C444 1.382 . S
C447 C448 1.387 . S
C447 H470 0.930 . S
C448 C446 1.381 . S
C448 C447 1.387 . S
C448 H471 0.931 . S
C449 C442 1.399 . S
C449 C446 1.487 . S
C449 N481 1.343 . S
C450 C451 1.384 . S
C450 C452 1.384 . S
C450 H472 0.931 . S
C451 C450 1.384 . S
C451 C454 1.382 . S
C452 C450 1.384 . S
C452 C453 1.381 . S
C452 H473 0.930 . S
C453 C452 1.381 . S
C453 C455 1.381 . S
C453 C456 1.487 . S
C454 C451 1.382 . S
C454 C455 1.387 . S
C454 H474 0.930 . S
C455 C453 1.381 . S
C455 C454 1.387 . S
C455 H475 0.931 . S
C456 C453 1.487 . S
C456 C463 1.399 . S
C456 N481 1.343 . S
C457 C458 1.384 . S
C457 C459 1.384 . S
C457 H476 0.931 . S
C458 C457 1.384 . S
C458 C461 1.382 . S
C459 C457 1.384 . S
C459 C460 1.381 . S
C459 H477 0.930 . S
C460 C459 1.381 . S
C460 C462 1.381 . S
C460 C463 1.487 . S
C461 C458 1.382 . S
C461 C462 1.387 . S
C461 H478 0.930 . S
C462 C460 1.381 . S
C462 C461 1.387 . S
C462 H479 0.931 . S
C463 C456 1.399 . S
C463 C460 1.487 . S
C463 N480 1.343 . S
H464 C436 0.931 . S
H465 C438 0.930 . S
H466 C440 0.930 . S
H467 C441 0.931 . S
H468 C443 0.931 . S
H469 C445 0.930 . S
H470 C447 0.930 . S
H471 C448 0.931 . S
H472 C450 0.931 . S
H473 C452 0.930 . S
H474 C454 0.930 . S
H475 C455 0.931 . S
H476 C457 0.931 . S
H477 C459 0.930 . S
H478 C461 0.930 . S
H479 C462 0.931 . S
N480 C442 1.343 . S
N480 C463 1.343 . S
N481 C449 1.343 . S
N481 C456 1.343 . S
C482 C483 1.384 . S
C482 C484 1.384 . S
C482 H510 0.931 . S
C483 C482 1.384 . S
C483 C486 1.382 . S
C484 C482 1.384 . S
C484 C485 1.381 . S
C484 H511 0.930 . S
C485 C484 1.381 . S
C485 C487 1.381 . S
C485 C488 1.487 . S
C486 C483 1.382 . S
C486 C487 1.387 . S
C486 H512 0.930 . S
C487 C485 1.381 . S
C487 C486 1.387 . S
C487 H513 0.931 . S
C488 C485 1.487 . S
C488 C495 1.399 . S
C488 N526 1.343 . S
C489 C490 1.384 . S
C489 C491 1.384 . S
C489 H514 0.931 . S
C490 C489 1.384 . S
C490 C493 1.382 . S
C491 C489 1.384 . S
C491 C492 1.381 . S
C491 H515 0.930 . S
C492 C491 1.381 . S
C492 C494 1.381 . S
C492 C495 1.487 . S
C493 C490 1.382 . S
C493 C494 1.387 . S
C493 H516 0.930 . S
C494 C492 1.381 . S
C494 C493 1.387 . S
C494 H517 0.931 . S
C495 C488 1.399 . S
C495 C492 1.487 . S
C495 N527 1.343 . S
C496 C497 1.384 . S
C496 C498 1.384 . S
C496 H518 0.931 . S
C497 C496 1.384 . S
C497 C500 1.382 . S
C498 C496 1.384 . S
C498 C499 1.381 . S
C498 H519 0.930 . S
C499 C498 1.381 . S
C499 C501 1.381 . S
C499 C502 1.487 . S
C500 C497 1.382 . S
C500 C501 1.387 . S
C500 H520 0.930 . S
C501 C499 1.381 . S
C501 C500 1.387 . S
C501 H521 0.931 . S
C502 C499 1.487 . S
C502 C509 1.399 . S
C502 N527 1.343 . S
C503 C504 1.384 . S
C503 C505 1.384 . S
C503 H522 0.931 . S
C504 C503 1.384 . S
C504 C507 1.382 . S
C505 C503 1.384 . S
C505 C506 1.381 . S
C505 H523 0.930 . S
C506 C505 1.381 . S
C506 C508 1.381 . S
C506 C509 1.487 . S
C507 C504 1.382 . S
C507 C508 1.387 . S
C507 H524 0.930 . S
C508 C506 1.381 . S
C508 C507 1.387 . S
C508 H525 0.931 . S
C509 C502 1.399 . S
C509 C506 1.487 . S
C509 N526 1.343 . S
H510 C482 0.931 . S
H511 C484 0.930 . S
H512 C486 0.930 . S
H513 C487 0.931 . S
H514 C489 0.931 . S
H515 C491 0.930 . S
H516 C493 0.930 . S
H517 C494 0.931 . S
H518 C496 0.931 . S
H519 C498 0.930 . S
H520 C500 0.930 . S
H521 C501 0.931 . S
H522 C503 0.931 . S
H523 C505 0.930 . S
H524 C507 0.930 . S
H525 C508 0.931 . S
N526 C488 1.343 . S
N526 C509 1.343 . S
N527 C495 1.343 . S
N527 C502 1.343 . S
C528 C529 1.384 . S
C528 C530 1.384 . S
C528 H556 0.931 . S
C529 C528 1.384 . S
C529 C532 1.382 . S
C530 C528 1.384 . S
C530 C531 1.381 . S
C530 H557 0.930 . S
C531 C530 1.381 . S
C531 C533 1.381 . S
C531 C534 1.487 . S
C532 C529 1.382 . S
C532 C533 1.387 . S
C532 H558 0.930 . S
C533 C531 1.381 . S
C533 C532 1.387 . S
C533 H559 0.931 . S
C534 C531 1.487 . S
C534 C541 1.399 . S
C534 N572 1.343 . S
C535 C536 1.384 . S
C535 C537 1.384 . S
C535 H560 0.931 . S
C536 C535 1.384 . S
C536 C539 1.382 . S
C537 C535 1.384 . S
C537 C538 1.381 . S
C537 H561 0.930 . S
C538 C537 1.381 . S
C538 C540 1.381 . S
C538 C541 1.487 . S
C539 C536 1.382 . S
C539 C540 1.387 . S
C539 H562 0.930 . S
C540 C538 1.381 . S
C540 C539 1.387 . S
C540 H563 0.931 . S
C541 C534 1.399 . S
C541 C538 1.487 . S
C541 N573 1.343 . S
C542 C543 1.384 . S
C542 C544 1.384 . S
C542 H564 0.931 . S
C543 C542 1.384 . S
C543 C546 1.382 . S
C544 C542 1.384 . S
C544 C545 1.381 . S
C544 H565 0.930 . S
C545 C544 1.381 . S
C545 C547 1.381 . S
C545 C548 1.487 . S
C546 C543 1.382 . S
C546 C547 1.387 . S
C546 H566 0.930 . S
C547 C545 1.381 . S
C547 C546 1.387 . S
C547 H567 0.931 . S
C548 C545 1.487 . S
C548 C555 1.399 . S
C548 N573 1.343 . S
C549 C550 1.384 . S
C549 C551 1.384 . S
C549 H568 0.931 . S
C550 C549 1.384 . S
C550 C553 1.382 . S
C551 C549 1.384 . S
C551 C552 1.381 . S
C551 H569 0.930 . S
C552 C551 1.381 . S
C552 C554 1.381 . S
C552 C555 1.487 . S
C553 C550 1.382 . S
C553 C554 1.387 . S
C553 H570 0.930 . S
C554 C552 1.381 . S
C554 C553 1.387 . S
C554 H571 0.931 . S
C555 C548 1.399 . S
C555 C552 1.487 . S
C555 N572 1.343 . S
H556 C528 0.931 . S
H557 C530 0.930 . S
H558 C532 0.930 . S
H559 C533 0.931 . S
H560 C535 0.931 . S
H561 C537 0.930 . S
H562 C539 0.930 . S
H563 C540 0.931 . S
H564 C542 0.931 . S
H565 C544 0.930 . S
H566 C546 0.930 . S
H567 C547 0.931 . S
H568 C549 0.931 . S
H569 C551 0.930 . S
H570 C553 0.930 . S
H571 C554 0.931 . S
N572 C534 1.343 . S
N572 C555 1.343 . S
N573 C541 1.343 . S
N573 C548 1.343 . S
C574 C575 1.384 . S
C574 C576 1.384 . S
C574 H602 0.931 . S
C575 C574 1.384 . S
C575 C578 1.382 . S
C576 C574 1.384 . S
C576 C577 1.381 . S
C576 H603 0.930 . S
C577 C576 1.381 . S
C577 C579 1.381 . S
C577 C580 1.487 . S
C578 C575 1.382 . S
C578 C579 1.387 . S
C578 H604 0.930 . S
C579 C577 1.381 . S
C579 C578 1.387 . S
C579 H605 0.931 . S
C580 C577 1.487 . S
C580 C587 1.399 . S
C580 N618 1.343 . S
C581 C582 1.384 . S
C581 C583 1.384 . S
C581 H606 0.931 . S
C582 C581 1.384 . S
C582 C585 1.382 . S
C583 C581 1.384 . S
C583 C584 1.381 . S
C583 H607 0.930 . S
C584 C583 1.381 . S
C584 C586 1.381 . S
C584 C587 1.487 . S
C585 C582 1.382 . S
C585 C586 1.387 . S
C585 H608 0.930 . S
C586 C584 1.381 . S
C586 C585 1.387 . S
C586 H609 0.931 . S
C587 C580 1.399 . S
C587 C584 1.487 . S
C587 N619 1.343 . S
C588 C589 1.384 . S
C588 C590 1.384 . S
C588 H610 0.931 . S
C589 C588 1.384 . S
C589 C592 1.382 . S
C590 C588 1.384 . S
C590 C591 1.381 . S
C590 H611 0.930 . S
C591 C590 1.381 . S
C591 C593 1.381 . S
C591 C594 1.487 . S
C592 C589 1.382 . S
C592 C593 1.387 . S
C592 H612 0.930 . S
C593 C591 1.381 . S
C593 C592 1.387 . S
C593 H613 0.931 . S
C594 C591 1.487 . S
C594 C601 1.399 . S
C594 N619 1.343 . S
C595 C596 1.384 . S
C595 C597 1.384 . S
C595 H614 0.931 . S
C596 C595 1.384 . S
C596 C599 1.382 . S
C597 C595 1.384 . S
C597 C598 1.381 . S
C597 H615 0.930 . S
C598 C597 1.381 . S
C598 C600 1.381 . S
C598 C601 1.487 . S
C599 C596 1.382 . S
C599 C600 1.387 . S
C599 H616 0.930 . S
C600 C598 1.381 . S
C600 C599 1.387 . S
C600 H617 0.931 . S
C601 C594 1.399 . S
C601 C598 1.487 . S
C601 N618 1.343 . S
H602 C574 0.931 . S
H603 C576 0.930 . S
H604 C578 0.930 . S
H605 C579 0.931 . S
H606 C581 0.931 . S
H607 C583 0.930 . S
H608 C585 0.930 . S
H609 C586 0.931 . S
H610 C588 0.931 . S
H611 C590 0.930 . S
H612 C592 0.930 . S
H613 C593 0.931 . S
H614 C595 0.931 . S
H615 C597 0.930 . S
H616 C599 0.930 . S
H617 C600 0.931 . S
N618 C580 1.343 . S
N618 C601 1.343 . S
N619 C587 1.343 . S
N619 C594 1.343 . S
C620 C621 1.384 . S
C620 C622 1.384 . S
C620 H648 0.931 . S
C621 C620 1.384 . S
C621 C624 1.382 . S
C622 C620 1.384 . S
C622 C623 1.381 . S
C622 H649 0.930 . S
C623 C622 1.381 . S
C623 C625 1.381 . S
C623 C626 1.487 . S
C624 C621 1.382 . S
C624 C625 1.387 . S
C624 H650 0.930 . S
C625 C623 1.381 . S
C625 C624 1.387 . S
C625 H651 0.931 . S
C626 C623 1.487 . S
C626 C633 1.399 . S
C626 N664 1.343 . S
C627 C628 1.384 . S
C627 C629 1.384 . S
C627 H652 0.931 . S
C628 C627 1.384 . S
C628 C631 1.382 . S
C629 C627 1.384 . S
C629 C630 1.381 . S
C629 H653 0.930 . S
C630 C629 1.381 . S
C630 C632 1.381 . S
C630 C633 1.487 . S
C631 C628 1.382 . S
C631 C632 1.387 . S
C631 H654 0.930 . S
C632 C630 1.381 . S
C632 C631 1.387 . S
C632 H655 0.931 . S
C633 C626 1.399 . S
C633 C630 1.487 . S
C633 N665 1.343 . S
C634 C635 1.384 . S
C634 C636 1.384 . S
C634 H656 0.931 . S
C635 C634 1.384 . S
C635 C638 1.382 . S
C636 C634 1.384 . S
C636 C637 1.381 . S
C636 H657 0.930 . S
C637 C636 1.381 . S
C637 C639 1.381 . S
C637 C640 1.487 . S
C638 C635 1.382 . S
C638 C639 1.387 . S
C638 H658 0.930 . S
C639 C637 1.381 . S
C639 C638 1.387 . S
C639 H659 0.931 . S
C640 C637 1.487 . S
C640 C647 1.399 . S
C640 N665 1.343 . S
C641 C642 1.384 . S
C641 C643 1.384 . S
C641 H660 0.931 . S
C642 C641 1.384 . S
C642 C645 1.382 . S
C643 C641 1.384 . S
C643 C644 1.381 . S
C643 H661 0.930 . S
C644 C643 1.381 . S
C644 C646 1.381 . S
C644 C647 1.487 . S
C645 C642 1.382 . S
C645 C646 1.387 . S
C645 H662 0.930 . S
C646 C644 1.381 . S
C646 C645 1.387 . S
C646 H663 0.931 . S
C647 C640 1.399 . S
C647 C644 1.487 . S
C647 N664 1.343 . S
H648 C620 0.931 . S
H649 C622 0.930 . S
H650 C624 0.930 . S
H651 C625 0.931 . S
H652 C627 0.931 . S
H653 C629 0.930 . S
H654 C631 0.930 . S
H655 C632 0.931 . S
H656 C634 0.931 . S
H657 C636 0.930 . S
H658 C638 0.930 . S
H659 C639 0.931 . S
H660 C641 0.931 . S
H661 C643 0.930 . S
H662 C645 0.930 . S
H663 C646 0.931 . S
N664 C626 1.343 . S
N664 C647 1.343 . S
N665 C633 1.343 . S
N665 C640 1.343 . S
C666 C667 1.384 . S
C666 C668 1.384 . S
C666 H694 0.931 . S
C667 C666 1.384 . S
C667 C670 1.382 1_655 S
C668 C666 1.384 . S
C668 C669 1.373 . S
C668 H695 0.930 . S
C669 C668 1.373 . S
C669 C671 1.386 1_655 S
C669 C672 1.481 1_655 S
C670 C667 1.382 1_455 S
C670 C671 1.387 . S
C670 H696 0.930 . S
C671 C669 1.386 1_455 S
C671 C670 1.387 . S
C671 H697 0.931 . S
C672 C669 1.481 1_455 S
C672 C679 1.399 1_455 S
C672 N710 1.354 . S
C673 C674 1.384 . S
C673 C675 1.384 . S
C673 H698 0.931 . S
C674 C673 1.384 . S
C674 C677 1.382 1_455 S
C675 C673 1.384 . S
C675 C676 1.381 . S
C675 H699 0.930 . S
C676 C675 1.381 . S
C676 C678 1.381 1_455 S
C676 C679 1.491 1_455 S
C677 C674 1.382 1_655 S
C677 C678 1.387 . S
C677 H700 0.930 . S
C678 C676 1.381 1_655 S
C678 C677 1.387 . S
C678 H701 0.931 . S
C679 C672 1.399 1_655 S
C679 C676 1.491 1_655 S
C679 N711 1.367 . S
C680 C681 1.384 . S
C680 C682 1.384 . S
C680 H702 0.931 . S
C681 C680 1.384 . S
C681 C684 1.382 1_455 S
C682 C680 1.384 . S
C682 C683 1.390 . S
C682 H703 0.930 . S
C683 C682 1.390 . S
C683 C685 1.377 1_455 S
C683 C686 1.481 1_455 S
C684 C681 1.382 1_655 S
C684 C685 1.387 . S
C684 H704 0.930 . S
C685 C683 1.377 1_655 S
C685 C684 1.387 . S
C685 H705 0.931 . S
C686 C683 1.481 1_655 S
C686 C693 1.399 1_655 S
C686 N711 1.316 . S
C687 C688 1.384 . S
C687 C689 1.384 . S
C687 H706 0.931 . S
C688 C687 1.384 . S
C688 C691 1.382 1_655 S
C689 C687 1.384 . S
C689 C690 1.381 1_655 S
C689 H707 0.930 . S
C690 C689 1.381 1_455 S
C690 C692 1.381 . S
C690 C693 1.498 . S
C691 C688 1.382 1_455 S
C691 C692 1.387 . S
C691 H708 0.930 . S
C692 C690 1.381 . S
C692 C691 1.387 . S
C692 H709 0.931 . S
C693 C686 1.399 1_455 S
C693 C690 1.498 . S
C693 N710 1.332 . S
H694 C666 0.931 . S
H695 C668 0.930 . S
H696 C670 0.930 . S
H697 C671 0.931 . S
H698 C673 0.931 . S
H699 C675 0.930 . S
H700 C677 0.930 . S
H701 C678 0.931 . S
H702 C680 0.931 . S
H703 C682 0.930 . S
H704 C684 0.930 . S
H705 C685 0.931 . S
H706 C687 0.931 . S
H707 C689 0.930 . S
H708 C691 0.930 . S
H709 C692 0.931 . S
N710 C672 1.354 . S
N710 C693 1.332 . S
N711 C679 1.367 . S
N711 C686 1.316 . S
C712 C713 1.384 . S
C712 C714 1.384 . S
C712 H740 0.931 . S
C713 C712 1.384 . S
C713 C716 1.382 . S
C714 C712 1.384 . S
C714 C715 1.381 . S
C714 H741 0.930 . S
C715 C714 1.381 . S
C715 C717 1.381 . S
C715 C718 1.487 . S
C716 C713 1.382 . S
C716 C717 1.387 . S
C716 H742 0.930 . S
C717 C715 1.381 . S
C717 C716 1.387 . S
C717 H743 0.931 . S
C718 C715 1.487 . S
C718 C725 1.399 . S
C718 N756 1.343 . S
C719 C720 1.384 . S
C719 C721 1.384 . S
C719 H744 0.931 . S
C720 C719 1.384 . S
C720 C723 1.382 . S
C721 C719 1.384 . S
C721 C722 1.381 . S
C721 H745 0.930 . S
C722 C721 1.381 . S
C722 C724 1.381 . S
C722 C725 1.487 . S
C723 C720 1.382 . S
C723 C724 1.387 . S
C723 H746 0.930 . S
C724 C722 1.381 . S
C724 C723 1.387 . S
C724 H747 0.931 . S
C725 C718 1.399 . S
C725 C722 1.487 . S
C725 N757 1.343 . S
C726 C727 1.384 . S
C726 C728 1.384 . S
C726 H748 0.931 . S
C727 C726 1.384 . S
C727 C730 1.382 . S
C728 C726 1.384 . S
C728 C729 1.381 . S
C728 H749 0.930 . S
C729 C728 1.381 . S
C729 C731 1.381 . S
C729 C732 1.487 . S
C730 C727 1.382 . S
C730 C731 1.387 . S
C730 H750 0.930 . S
C731 C729 1.381 . S
C731 C730 1.387 . S
C731 H751 0.931 . S
C732 C729 1.487 . S
C732 C739 1.399 . S
C732 N757 1.343 . S
C733 C734 1.384 . S
C733 C735 1.384 . S
C733 H752 0.931 . S
C734 C733 1.384 . S
C734 C737 1.382 . S
C735 C733 1.384 . S
C735 C736 1.381 . S
C735 H753 0.930 . S
C736 C735 1.381 . S
C736 C738 1.381 . S
C736 C739 1.487 . S
C737 C734 1.382 . S
C737 C738 1.387 . S
C737 H754 0.930 . S
C738 C736 1.381 . S
C738 C737 1.387 . S
C738 H755 0.931 . S
C739 C732 1.399 . S
C739 C736 1.487 . S
C739 N756 1.343 . S
H740 C712 0.931 . S
H741 C714 0.930 . S
H742 C716 0.930 . S
H743 C717 0.931 . S
H744 C719 0.931 . S
H745 C721 0.930 . S
H746 C723 0.930 . S
H747 C724 0.931 . S
H748 C726 0.931 . S
H749 C728 0.930 . S
H750 C730 0.930 . S
H751 C731 0.931 . S
H752 C733 0.931 . S
H753 C735 0.930 . S
H754 C737 0.930 . S
H755 C738 0.931 . S
N756 C718 1.343 . S
N756 C739 1.343 . S
N757 C725 1.343 . S
N757 C732 1.343 . S
C758 C759 1.384 1_545 S
C758 C760 1.384 . S
C758 H786 0.931 . S
C759 C758 1.384 1_565 S
C759 C762 1.382 . S
C760 C758 1.384 . S
C760 C761 1.381 1_545 S
C760 H787 0.930 . S
C761 C760 1.381 1_565 S
C761 C763 1.381 . S
C761 C764 1.487 . S
C762 C759 1.382 . S
C762 C763 1.387 . S
C762 H788 0.930 . S
C763 C761 1.381 . S
C763 C762 1.387 . S
C763 H789 0.931 . S
C764 C761 1.487 . S
C764 C771 1.399 1_565 S
C764 N802 1.343 . S
C765 C766 1.384 1_565 S
C765 C767 1.384 . S
C765 H790 0.931 . S
C766 C765 1.384 1_545 S
C766 C769 1.382 . S
C767 C765 1.384 . S
C767 C768 1.381 1_565 S
C767 H791 0.930 . S
C768 C767 1.381 1_545 S
C768 C770 1.381 . S
C768 C771 1.487 . S
C769 C766 1.382 . S
C769 C770 1.387 . S
C769 H792 0.930 . S
C770 C768 1.381 . S
C770 C769 1.387 . S
C770 H793 0.931 . S
C771 C764 1.399 1_545 S
C771 C768 1.487 . S
C771 N803 1.343 . S
C772 C773 1.384 1_565 S
C772 C774 1.384 . S
C772 H794 0.931 . S
C773 C772 1.384 1_545 S
C773 C776 1.382 . S
C774 C772 1.384 . S
C774 C775 1.381 1_565 S
C774 H795 0.930 . S
C775 C774 1.381 1_545 S
C775 C777 1.381 . S
C775 C778 1.487 . S
C776 C773 1.382 . S
C776 C777 1.387 . S
C776 H796 0.930 . S
C777 C775 1.381 . S
C777 C776 1.387 . S
C777 H797 0.931 . S
C778 C775 1.487 . S
C778 C785 1.399 1_545 S
C778 N803 1.343 . S
C779 C780 1.384 1_545 S
C779 C781 1.384 . S
C779 H798 0.931 . S
C780 C779 1.384 1_565 S
C780 C783 1.382 . S
C781 C779 1.384 . S
C781 C782 1.381 1_545 S
C781 H799 0.930 . S
C782 C781 1.381 1_565 S
C782 C784 1.381 . S
C782 C785 1.487 . S
C783 C780 1.382 . S
C783 C784 1.387 . S
C783 H800 0.930 . S
C784 C782 1.381 . S
C784 C783 1.387 . S
C784 H801 0.931 . S
C785 C778 1.399 1_565 S
C785 C782 1.487 . S
C785 N802 1.343 . S
H786 C758 0.931 . S
H787 C760 0.930 . S
H788 C762 0.930 . S
H789 C763 0.931 . S
H790 C765 0.931 . S
H791 C767 0.930 . S
H792 C769 0.930 . S
H793 C770 0.931 . S
H794 C772 0.931 . S
H795 C774 0.930 . S
H796 C776 0.930 . S
H797 C777 0.931 . S
H798 C779 0.931 . S
H799 C781 0.930 . S
H800 C783 0.930 . S
H801 C784 0.931 . S
N802 C764 1.343 . S
N802 C785 1.343 . S
N803 C771 1.343 . S
N803 C778 1.343 . S
C804 C805 1.384 . S
C804 C806 1.384 . S
C804 H832 0.931 . S
C805 C804 1.384 . S
C805 C808 1.382 1_545 S
C806 C804 1.384 . S
C806 C807 1.381 . S
C806 H833 0.930 . S
C807 C806 1.381 . S
C807 C809 1.381 1_545 S
C807 C810 1.491 1_545 S
C808 C805 1.382 1_565 S
C808 C809 1.387 . S
C808 H834 0.930 . S
C809 C807 1.381 1_565 S
C809 C808 1.387 . S
C809 H835 0.931 . S
C810 C807 1.491 1_565 S
C810 C817 1.399 1_565 S
C810 N848 1.367 . S
C811 C812 1.384 . S
C811 C813 1.384 . S
C811 H836 0.931 . S
C812 C811 1.384 . S
C812 C815 1.382 1_565 S
C813 C811 1.384 . S
C813 C814 1.373 . S
C813 H837 0.930 . S
C814 C813 1.373 . S
C814 C816 1.385 1_565 S
C814 C817 1.481 1_565 S
C815 C812 1.382 1_545 S
C815 C816 1.387 . S
C815 H838 0.930 . S
C816 C814 1.385 1_545 S
C816 C815 1.387 . S
C816 H839 0.931 . S
C817 C810 1.399 1_545 S
C817 C814 1.481 1_545 S
C817 N849 1.354 . S
C818 C819 1.384 . S
C818 C820 1.384 . S
C818 H840 0.931 . S
C819 C818 1.384 . S
C819 C822 1.382 1_565 S
C820 C818 1.384 . S
C820 C821 1.381 1_565 S
C820 H841 0.930 . S
C821 C820 1.381 1_545 S
C821 C823 1.381 . S
C821 C824 1.498 . S
C822 C819 1.382 1_545 S
C822 C823 1.387 . S
C822 H842 0.930 . S
C823 C821 1.381 . S
C823 C822 1.387 . S
C823 H843 0.931 . S
C824 C821 1.498 . S
C824 C831 1.399 1_545 S
C824 N849 1.332 . S
C825 C826 1.384 . S
C825 C827 1.384 . S
C825 H844 0.931 . S
C826 C825 1.384 . S
C826 C829 1.382 1_545 S
C827 C825 1.384 . S
C827 C828 1.390 . S
C827 H845 0.930 . S
C828 C827 1.390 . S
C828 C830 1.376 1_545 S
C828 C831 1.481 1_545 S
C829 C826 1.382 1_565 S
C829 C830 1.387 . S
C829 H846 0.930 . S
C830 C828 1.376 1_565 S
C830 C829 1.387 . S
C830 H847 0.931 . S
C831 C824 1.399 1_565 S
C831 C828 1.481 1_565 S
C831 N848 1.316 . S
H832 C804 0.931 . S
H833 C806 0.930 . S
H834 C808 0.930 . S
H835 C809 0.931 . S
H836 C811 0.931 . S
H837 C813 0.930 . S
H838 C815 0.930 . S
H839 C816 0.931 . S
H840 C818 0.931 . S
H841 C820 0.930 . S
H842 C822 0.930 . S
H843 C823 0.931 . S
H844 C825 0.931 . S
H845 C827 0.930 . S
H846 C829 0.930 . S
H847 C830 0.931 . S
N848 C810 1.367 . S
N848 C831 1.316 . S
N849 C817 1.354 . S
N849 C824 1.332 . S
C850 C851 1.384 . S
C850 C852 1.384 . S
C850 H878 0.931 . S
C851 C850 1.384 . S
C851 C854 1.382 1_655 S
C852 C850 1.384 . S
C852 C853 1.394 . S
C852 H879 0.930 . S
C853 C852 1.394 . S
C853 C855 1.375 1_655 S
C853 C856 1.480 1_655 S
C854 C851 1.382 1_455 S
C854 C855 1.387 . S
C854 H880 0.930 . S
C855 C853 1.375 1_455 S
C855 C854 1.387 . S
C855 H881 0.931 . S
C856 C853 1.480 1_455 S
C856 C863 1.399 1_455 S
C856 N894 1.317 . S
C857 C858 1.384 . S
C857 C859 1.384 . S
C857 H882 0.931 . S
C858 C857 1.384 . S
C858 C861 1.382 1_455 S
C859 C857 1.384 . S
C859 C860 1.382 1_455 S
C859 H883 0.930 . S
C860 C859 1.382 1_655 S
C860 C862 1.379 . S
C860 C863 1.499 . S
C861 C858 1.382 1_655 S
C861 C862 1.387 . S
C861 H884 0.930 . S
C862 C860 1.379 . S
C862 C861 1.387 . S
C862 H885 0.931 . S
C863 C856 1.399 1_655 S
C863 C860 1.499 . S
C863 N895 1.366 . S
C864 C865 1.384 . S
C864 C866 1.384 . S
C864 H886 0.931 . S
C865 C864 1.384 . S
C865 C868 1.382 1_455 S
C866 C864 1.384 . S
C866 C867 1.377 . S
C866 H887 0.930 . S
C867 C866 1.377 . S
C867 C869 1.384 1_455 S
C867 C870 1.480 1_455 S
C868 C865 1.382 1_655 S
C868 C869 1.387 . S
C868 H888 0.930 . S
C869 C867 1.384 1_655 S
C869 C868 1.387 . S
C869 H889 0.931 . S
C870 C867 1.480 1_655 S
C870 C877 1.399 1_655 S
C870 N895 1.317 . S
C871 C872 1.384 . S
C871 C873 1.384 . S
C871 H890 0.931 . S
C872 C871 1.384 . S
C872 C875 1.382 1_655 S
C873 C871 1.384 . S
C873 C874 1.382 . S
C873 H891 0.930 . S
C874 C873 1.382 . S
C874 C876 1.379 1_655 S
C874 C877 1.492 1_655 S
C875 C872 1.382 1_455 S
C875 C876 1.387 . S
C875 H892 0.930 . S
C876 C874 1.379 1_455 S
C876 C875 1.387 . S
C876 H893 0.931 . S
C877 C870 1.399 1_455 S
C877 C874 1.492 1_455 S
C877 N894 1.366 . S
H878 C850 0.931 . S
H879 C852 0.930 . S
H880 C854 0.930 . S
H881 C855 0.931 . S
H882 C857 0.931 . S
H883 C859 0.930 . S
H884 C861 0.930 . S
H885 C862 0.931 . S
H886 C864 0.931 . S
H887 C866 0.930 . S
H888 C868 0.930 . S
H889 C869 0.931 . S
H890 C871 0.931 . S
H891 C873 0.930 . S
H892 C875 0.930 . S
H893 C876 0.931 . S
N894 C856 1.317 . S
N894 C877 1.366 . S
N895 C863 1.366 . S
N895 C870 1.317 . S
C896 C897 1.384 . S
C896 C898 1.384 . S
C896 H924 0.931 . S
C897 C896 1.384 . S
C897 C900 1.382 . S
C898 C896 1.384 . S
C898 C899 1.381 . S
C898 H925 0.930 . S
C899 C898 1.381 . S
C899 C901 1.381 . S
C899 C902 1.487 . S
C900 C897 1.382 . S
C900 C901 1.387 . S
C900 H926 0.930 . S
C901 C899 1.381 . S
C901 C900 1.387 . S
C901 H927 0.931 . S
C902 C899 1.487 . S
C902 C909 1.399 . S
C902 N940 1.343 . S
C903 C904 1.384 . S
C903 C905 1.384 . S
C903 H928 0.931 . S
C904 C903 1.384 . S
C904 C907 1.382 . S
C905 C903 1.384 . S
C905 C906 1.381 . S
C905 H929 0.930 . S
C906 C905 1.381 . S
C906 C908 1.381 . S
C906 C909 1.487 . S
C907 C904 1.382 . S
C907 C908 1.387 . S
C907 H930 0.930 . S
C908 C906 1.381 . S
C908 C907 1.387 . S
C908 H931 0.931 . S
C909 C902 1.399 . S
C909 C906 1.487 . S
C909 N941 1.343 . S
C910 C911 1.384 . S
C910 C912 1.384 . S
C910 H932 0.931 . S
C911 C910 1.384 . S
C911 C914 1.382 . S
C912 C910 1.384 . S
C912 C913 1.381 . S
C912 H933 0.930 . S
C913 C912 1.381 . S
C913 C915 1.381 . S
C913 C916 1.487 . S
C914 C911 1.382 . S
C914 C915 1.387 . S
C914 H934 0.930 . S
C915 C913 1.381 . S
C915 C914 1.387 . S
C915 H935 0.931 . S
C916 C913 1.487 . S
C916 C923 1.399 . S
C916 N941 1.343 . S
C917 C918 1.384 . S
C917 C919 1.384 . S
C917 H936 0.931 . S
C918 C917 1.384 . S
C918 C921 1.382 . S
C919 C917 1.384 . S
C919 C920 1.381 . S
C919 H937 0.930 . S
C920 C919 1.381 . S
C920 C922 1.381 . S
C920 C923 1.487 . S
C921 C918 1.382 . S
C921 C922 1.387 . S
C921 H938 0.930 . S
C922 C920 1.381 . S
C922 C921 1.387 . S
C922 H939 0.931 . S
C923 C916 1.399 . S
C923 C920 1.487 . S
C923 N940 1.343 . S
H924 C896 0.931 . S
H925 C898 0.930 . S
H926 C900 0.930 . S
H927 C901 0.931 . S
H928 C903 0.931 . S
H929 C905 0.930 . S
H930 C907 0.930 . S
H931 C908 0.931 . S
H932 C910 0.931 . S
H933 C912 0.930 . S
H934 C914 0.930 . S
H935 C915 0.931 . S
H936 C917 0.931 . S
H937 C919 0.930 . S
H938 C921 0.930 . S
H939 C922 0.931 . S
N940 C902 1.343 . S
N940 C923 1.343 . S
N941 C909 1.343 . S
N941 C916 1.343 . S
C942 C943 1.384 . S
C942 C944 1.384 . S
C942 H970 0.931 . S
C943 C942 1.384 . S
C943 C946 1.382 . S
C944 C942 1.384 . S
C944 C945 1.381 . S
C944 H971 0.930 . S
C945 C944 1.381 . S
C945 C947 1.381 . S
C945 C948 1.487 . S
C946 C943 1.382 . S
C946 C947 1.387 . S
C946 H972 0.930 . S
C947 C945 1.381 . S
C947 C946 1.387 . S
C947 H973 0.931 . S
C948 C945 1.487 . S
C948 C955 1.399 . S
C948 N986 1.343 . S
C949 C950 1.384 . S
C949 C951 1.384 . S
C949 H974 0.931 . S
C950 C949 1.384 . S
C950 C953 1.382 . S
C951 C949 1.384 . S
C951 C952 1.381 . S
C951 H975 0.930 . S
C952 C951 1.381 . S
C952 C954 1.381 . S
C952 C955 1.487 . S
C953 C950 1.382 . S
C953 C954 1.387 . S
C953 H976 0.930 . S
C954 C952 1.381 . S
C954 C953 1.387 . S
C954 H977 0.931 . S
C955 C948 1.399 . S
C955 C952 1.487 . S
C955 N987 1.343 . S
C956 C957 1.384 . S
C956 C958 1.384 . S
C956 H978 0.931 . S
C957 C956 1.384 . S
C957 C960 1.382 . S
C958 C956 1.384 . S
C958 C959 1.381 . S
C958 H979 0.930 . S
C959 C958 1.381 . S
C959 C961 1.381 . S
C959 C962 1.487 . S
C960 C957 1.382 . S
C960 C961 1.387 . S
C960 H980 0.930 . S
C961 C959 1.381 . S
C961 C960 1.387 . S
C961 H981 0.931 . S
C962 C959 1.487 . S
C962 C969 1.399 . S
C962 N987 1.343 . S
C963 C964 1.384 . S
C963 C965 1.384 . S
C963 H982 0.931 . S
C964 C963 1.384 . S
C964 C967 1.382 . S
C965 C963 1.384 . S
C965 C966 1.381 . S
C965 H983 0.930 . S
C966 C965 1.381 . S
C966 C968 1.381 . S
C966 C969 1.487 . S
C967 C964 1.382 . S
C967 C968 1.387 . S
C967 H984 0.930 . S
C968 C966 1.381 . S
C968 C967 1.387 . S
C968 H985 0.931 . S
C969 C962 1.399 . S
C969 C966 1.487 . S
C969 N986 1.343 . S
H970 C942 0.931 . S
H971 C944 0.930 . S
H972 C946 0.930 . S
H973 C947 0.931 . S
H974 C949 0.931 . S
H975 C951 0.930 . S
H976 C953 0.930 . S
H977 C954 0.931 . S
H978 C956 0.931 . S
H979 C958 0.930 . S
H980 C960 0.930 . S
H981 C961 0.931 . S
H982 C963 0.931 . S
H983 C965 0.930 . S
H984 C967 0.930 . S
H985 C968 0.931 . S
N986 C948 1.343 . S
N986 C969 1.343 . S
N987 C955 1.343 . S
N987 C962 1.343 . S
C988 C989 1.384 . S
C988 C990 1.384 . S
C988 H1016 0.931 . S
C989 C988 1.384 . S
C989 C992 1.382 . S
C990 C988 1.384 . S
C990 C991 1.381 . S
C990 H1017 0.930 . S
C991 C990 1.381 . S
C991 C993 1.381 . S
C991 C994 1.487 . S
C992 C989 1.382 . S
C992 C993 1.387 . S
C992 H1018 0.930 . S
C993 C991 1.381 . S
C993 C992 1.387 . S
C993 H1019 0.931 . S
C994 C991 1.487 . S
C994 C1001 1.399 . S
C994 N1032 1.343 . S
C995 C996 1.384 . S
C995 C997 1.384 . S
C995 H1020 0.931 . S
C996 C995 1.384 . S
C996 C999 1.382 . S
C997 C995 1.384 . S
C997 C998 1.381 . S
C997 H1021 0.930 . S
C998 C997 1.381 . S
C998 C1000 1.381 . S
C998 C1001 1.487 . S
C999 C996 1.382 . S
C999 C1000 1.387 . S
C999 H1022 0.930 . S
C1000 C998 1.381 . S
C1000 C999 1.387 . S
C1000 H1023 0.931 . S
C1001 C994 1.399 . S
C1001 C998 1.487 . S
C1001 N1033 1.343 . S
C1002 C1003 1.384 . S
C1002 C1004 1.384 . S
C1002 H1024 0.931 . S
C1003 C1002 1.384 . S
C1003 C1006 1.382 . S
C1004 C1002 1.384 . S
C1004 C1005 1.381 . S
C1004 H1025 0.930 . S
C1005 C1004 1.381 . S
C1005 C1007 1.381 . S
C1005 C1008 1.487 . S
C1006 C1003 1.382 . S
C1006 C1007 1.387 . S
C1006 H1026 0.930 . S
C1007 C1005 1.381 . S
C1007 C1006 1.387 . S
C1007 H1027 0.931 . S
C1008 C1005 1.487 . S
C1008 C1015 1.399 . S
C1008 N1033 1.343 . S
C1009 C1010 1.384 . S
C1009 C1011 1.384 . S
C1009 H1028 0.931 . S
C1010 C1009 1.384 . S
C1010 C1013 1.382 . S
C1011 C1009 1.384 . S
C1011 C1012 1.381 . S
C1011 H1029 0.930 . S
C1012 C1011 1.381 . S
C1012 C1014 1.381 . S
C1012 C1015 1.487 . S
C1013 C1010 1.382 . S
C1013 C1014 1.387 . S
C1013 H1030 0.930 . S
C1014 C1012 1.381 . S
C1014 C1013 1.387 . S
C1014 H1031 0.931 . S
C1015 C1008 1.399 . S
C1015 C1012 1.487 . S
C1015 N1032 1.343 . S
H1016 C988 0.931 . S
H1017 C990 0.930 . S
H1018 C992 0.930 . S
H1019 C993 0.931 . S
H1020 C995 0.931 . S
H1021 C997 0.930 . S
H1022 C999 0.930 . S
H1023 C1000 0.931 . S
H1024 C1002 0.931 . S
H1025 C1004 0.930 . S
H1026 C1006 0.930 . S
H1027 C1007 0.931 . S
H1028 C1009 0.931 . S
H1029 C1011 0.930 . S
H1030 C1013 0.930 . S
H1031 C1014 0.931 . S
N1032 C994 1.343 . S
N1032 C1015 1.343 . S
N1033 C1001 1.343 . S
N1033 C1008 1.343 . S
C1034 C1035 1.384 . S
C1034 C1036 1.384 . S
C1034 H1062 0.931 . S
C1035 C1034 1.384 . S
C1035 C1038 1.382 . S
C1036 C1034 1.384 . S
C1036 C1037 1.381 . S
C1036 H1063 0.930 . S
C1037 C1036 1.381 . S
C1037 C1039 1.381 . S
C1037 C1040 1.487 . S
C1038 C1035 1.382 . S
C1038 C1039 1.387 . S
C1038 H1064 0.930 . S
C1039 C1037 1.381 . S
C1039 C1038 1.387 . S
C1039 H1065 0.931 . S
C1040 C1037 1.487 . S
C1040 C1047 1.399 . S
C1040 N1078 1.343 . S
C1041 C1042 1.384 . S
C1041 C1043 1.384 . S
C1041 H1066 0.931 . S
C1042 C1041 1.384 . S
C1042 C1045 1.382 . S
C1043 C1041 1.384 . S
C1043 C1044 1.381 . S
C1043 H1067 0.930 . S
C1044 C1043 1.381 . S
C1044 C1046 1.381 . S
C1044 C1047 1.487 . S
C1045 C1042 1.382 . S
C1045 C1046 1.387 . S
C1045 H1068 0.930 . S
C1046 C1044 1.381 . S
C1046 C1045 1.387 . S
C1046 H1069 0.931 . S
C1047 C1040 1.399 . S
C1047 C1044 1.487 . S
C1047 N1079 1.343 . S
C1048 C1049 1.384 . S
C1048 C1050 1.384 . S
C1048 H1070 0.931 . S
C1049 C1048 1.384 . S
C1049 C1052 1.382 . S
C1050 C1048 1.384 . S
C1050 C1051 1.381 . S
C1050 H1071 0.930 . S
C1051 C1050 1.381 . S
C1051 C1053 1.381 . S
C1051 C1054 1.487 . S
C1052 C1049 1.382 . S
C1052 C1053 1.387 . S
C1052 H1072 0.930 . S
C1053 C1051 1.381 . S
C1053 C1052 1.387 . S
C1053 H1073 0.931 . S
C1054 C1051 1.487 . S
C1054 C1061 1.399 . S
C1054 N1079 1.343 . S
C1055 C1056 1.384 . S
C1055 C1057 1.384 . S
C1055 H1074 0.931 . S
C1056 C1055 1.384 . S
C1056 C1059 1.382 . S
C1057 C1055 1.384 . S
C1057 C1058 1.381 . S
C1057 H1075 0.930 . S
C1058 C1057 1.381 . S
C1058 C1060 1.381 . S
C1058 C1061 1.487 . S
C1059 C1056 1.382 . S
C1059 C1060 1.387 . S
C1059 H1076 0.930 . S
C1060 C1058 1.381 . S
C1060 C1059 1.387 . S
C1060 H1077 0.931 . S
C1061 C1054 1.399 . S
C1061 C1058 1.487 . S
C1061 N1078 1.343 . S
H1062 C1034 0.931 . S
H1063 C1036 0.930 . S
H1064 C1038 0.930 . S
H1065 C1039 0.931 . S
H1066 C1041 0.931 . S
H1067 C1043 0.930 . S
H1068 C1045 0.930 . S
H1069 C1046 0.931 . S
H1070 C1048 0.931 . S
H1071 C1050 0.930 . S
H1072 C1052 0.930 . S
H1073 C1053 0.931 . S
H1074 C1055 0.931 . S
H1075 C1057 0.930 . S
H1076 C1059 0.930 . S
H1077 C1060 0.931 . S
N1078 C1040 1.343 . S
N1078 C1061 1.343 . S
N1079 C1047 1.343 . S
N1079 C1054 1.343 . S
C1080 C1081 1.391 . S
C1080 C1082 1.394 . S
C1080 H1096 0.931 . S
C1081 C1080 1.391 . S
C1081 C1085 1.376 1_655 S
C1082 C1080 1.394 . S
C1082 C1083 1.369 . S
C1082 C1086 1.531 . S
C1083 C1082 1.369 . S
C1083 C1084 1.410 1_655 S
C1083 C1091 1.503 . S
C1084 C1083 1.410 1_455 S
C1084 C1085 1.392 . S
C1084 C1087 1.511 . S
C1085 C1081 1.376 1_455 S
C1085 C1084 1.392 . S
C1085 H1097 0.929 . S
C1086 C1082 1.531 . S
C1086 H1098 0.960 . S
C1086 H1099 0.962 . S
C1086 H1100 0.960 . S
C1087 C1084 1.511 . S
C1087 H1101 0.961 . S
C1087 H1102 0.961 . S
C1087 H1103 0.961 . S
C1088 C1089 1.370 1_455 S
C1088 C1090 1.363 . S
C1088 H1104 0.931 . S
C1089 C1088 1.370 1_655 S
C1089 C1093 1.408 . S
C1090 C1088 1.363 . S
C1090 C1091 1.370 1_455 S
C1090 C1094 1.524 . S
C1091 C1083 1.503 . S
C1091 C1090 1.370 1_655 S
C1091 C1092 1.403 . S
C1092 C1091 1.403 . S
C1092 C1093 1.404 . S
C1092 C1095 1.539 . S
C1093 C1089 1.408 . S
C1093 C1092 1.404 . S
C1093 H1105 0.930 . S
C1094 C1090 1.524 . S
C1094 H1106 0.956 . S
C1094 H1107 0.961 . S
C1094 H1108 0.961 . S
C1095 C1092 1.539 . S
C1095 H1109 0.958 . S
C1095 H1110 0.961 . S
C1095 H1111 0.960 . S
H1096 C1080 0.931 . S
H1097 C1085 0.929 . S
H1098 C1086 0.960 . S
H1099 C1086 0.962 . S
H1100 C1086 0.960 . S
H1101 C1087 0.961 . S
H1102 C1087 0.961 . S
H1103 C1087 0.961 . S
H1104 C1088 0.931 . S
H1105 C1093 0.930 . S
H1106 C1094 0.956 . S
H1107 C1094 0.961 . S
H1108 C1094 0.961 . S
H1109 C1095 0.958 . S
H1110 C1095 0.961 . S
H1111 C1095 0.960 . S
C1112 C1113 1.391 . S
C1112 C1114 1.394 . S
C1112 H1128 0.931 . S
C1113 C1112 1.391 . S
C1113 C1117 1.376 . S
C1114 C1112 1.394 . S
C1114 C1115 1.369 . S
C1114 C1118 1.531 . S
C1115 C1114 1.369 . S
C1115 C1116 1.410 . S
C1115 C1123 1.503 . S
C1116 C1115 1.410 . S
C1116 C1117 1.392 . S
C1116 C1119 1.511 . S
C1117 C1113 1.376 . S
C1117 C1116 1.392 . S
C1117 H1129 0.929 . S
C1118 C1114 1.531 . S
C1118 H1130 0.960 . S
C1118 H1131 0.962 . S
C1118 H1132 0.960 . S
C1119 C1116 1.511 . S
C1119 H1133 0.961 . S
C1119 H1134 0.961 . S
C1119 H1135 0.961 . S
C1120 C1121 1.370 . S
C1120 C1122 1.363 . S
C1120 H1136 0.931 . S
C1121 C1120 1.370 . S
C1121 C1125 1.408 . S
C1122 C1120 1.363 . S
C1122 C1123 1.370 . S
C1122 C1126 1.524 . S
C1123 C1115 1.503 . S
C1123 C1122 1.370 . S
C1123 C1124 1.403 . S
C1124 C1123 1.403 . S
C1124 C1125 1.404 . S
C1124 C1127 1.539 . S
C1125 C1121 1.408 . S
C1125 C1124 1.404 . S
C1125 H1137 0.930 . S
C1126 C1122 1.524 . S
C1126 H1138 0.956 . S
C1126 H1139 0.961 . S
C1126 H1140 0.961 . S
C1127 C1124 1.539 . S
C1127 H1141 0.958 . S
C1127 H1142 0.961 . S
C1127 H1143 0.960 . S
H1128 C1112 0.931 . S
H1129 C1117 0.929 . S
H1130 C1118 0.960 . S
H1131 C1118 0.962 . S
H1132 C1118 0.960 . S
H1133 C1119 0.961 . S
H1134 C1119 0.961 . S
H1135 C1119 0.961 . S
H1136 C1120 0.931 . S
H1137 C1125 0.930 . S
H1138 C1126 0.956 . S
H1139 C1126 0.961 . S
H1140 C1126 0.961 . S
H1141 C1127 0.958 . S
H1142 C1127 0.961 . S
H1143 C1127 0.960 . S
C1144 C1145 1.391 . S
C1144 C1146 1.394 . S
C1144 H1160 0.931 . S
C1145 C1144 1.391 . S
C1145 C1149 1.376 1_545 S
C1146 C1144 1.394 . S
C1146 C1147 1.369 . S
C1146 C1150 1.531 . S
C1147 C1146 1.369 . S
C1147 C1148 1.410 1_545 S
C1147 C1155 1.503 . S
C1148 C1147 1.410 1_565 S
C1148 C1149 1.392 . S
C1148 C1151 1.511 . S
C1149 C1145 1.376 1_565 S
C1149 C1148 1.392 . S
C1149 H1161 0.929 . S
C1150 C1146 1.531 . S
C1150 H1162 0.960 . S
C1150 H1163 0.962 . S
C1150 H1164 0.960 . S
C1151 C1148 1.511 . S
C1151 H1165 0.961 . S
C1151 H1166 0.961 . S
C1151 H1167 0.961 . S
C1152 C1153 1.370 . S
C1152 C1154 1.363 . S
C1152 H1168 0.931 . S
C1153 C1152 1.370 . S
C1153 C1157 1.408 . S
C1154 C1152 1.363 . S
C1154 C1155 1.370 . S
C1154 C1158 1.524 . S
C1155 C1147 1.503 . S
C1155 C1154 1.370 . S
C1155 C1156 1.403 . S
C1156 C1155 1.403 . S
C1156 C1157 1.404 . S
C1156 C1159 1.539 . S
C1157 C1153 1.408 . S
C1157 C1156 1.404 . S
C1157 H1169 0.930 . S
C1158 C1154 1.524 . S
C1158 H1170 0.956 . S
C1158 H1171 0.961 1_545 S
C1158 H1172 0.961 . S
C1159 C1156 1.539 . S
C1159 H1173 0.958 . S
C1159 H1174 0.961 1_545 S
C1159 H1175 0.960 1_545 S
H1160 C1144 0.931 . S
H1161 C1149 0.929 . S
H1162 C1150 0.960 . S
H1163 C1150 0.962 . S
H1164 C1150 0.960 . S
H1165 C1151 0.961 . S
H1166 C1151 0.961 . S
H1167 C1151 0.961 . S
H1168 C1152 0.931 . S
H1169 C1157 0.930 . S
H1170 C1158 0.956 . S
H1171 C1158 0.961 1_565 S
H1172 C1158 0.961 . S
H1173 C1159 0.958 . S
H1174 C1159 0.961 1_565 S
H1175 C1159 0.960 1_565 S
C1176 C1177 1.391 . S
C1176 C1178 1.394 . S
C1176 H1192 0.931 . S
C1177 C1176 1.391 . S
C1177 C1181 1.389 . S
C1178 C1176 1.394 . S
C1178 C1179 1.369 . S
C1178 C1182 1.531 . S
C1179 C1178 1.369 . S
C1179 C1180 1.410 . S
C1179 C1187 1.503 . S
C1180 C1179 1.410 . S
C1180 C1181 1.429 . S
C1180 C1183 1.511 . S
C1181 C1177 1.389 . S
C1181 C1180 1.429 . S
C1181 H1193 0.843 1_565 S
C1182 C1178 1.531 . S
C1182 H1194 0.960 . S
C1182 H1195 0.954 1_565 S
C1182 H1196 0.960 . S
C1183 C1180 1.511 . S
C1183 H1197 0.961 1_565 S
C1183 H1198 0.961 1_565 S
C1183 H1199 0.961 . S
C1184 C1185 1.370 1_545 S
C1184 C1186 1.363 . S
C1184 H1200 0.931 . S
C1185 C1184 1.370 1_565 S
C1185 C1189 1.408 . S
C1186 C1184 1.363 . S
C1186 C1187 1.370 1_545 S
C1186 C1190 1.524 . S
C1187 C1179 1.503 . S
C1187 C1186 1.370 1_565 S
C1187 C1188 1.403 . S
C1188 C1187 1.403 . S
C1188 C1189 1.404 . S
C1188 C1191 1.539 . S
C1189 C1185 1.408 . S
C1189 C1188 1.404 . S
C1189 H1201 0.930 . S
C1190 C1186 1.524 . S
C1190 H1202 0.956 . S
C1190 H1203 0.961 . S
C1190 H1204 0.961 . S
C1191 C1188 1.539 . S
C1191 H1205 0.958 . S
C1191 H1206 0.961 . S
C1191 H1207 0.960 . S
H1192 C1176 0.931 . S
H1193 C1181 0.843 1_545 S
H1194 C1182 0.960 . S
H1195 C1182 0.954 1_545 S
H1196 C1182 0.960 . S
H1197 C1183 0.961 1_545 S
H1198 C1183 0.961 1_545 S
H1199 C1183 0.961 . S
H1200 C1184 0.931 . S
H1201 C1189 0.930 . S
H1202 C1190 0.956 . S
H1203 C1190 0.961 . S
H1204 C1190 0.961 . S
H1205 C1191 0.958 . S
H1206 C1191 0.961 . S
H1207 C1191 0.960 . S
C1208 C1209 1.391 . S
C1208 C1210 1.394 . S
C1208 H1224 0.931 . S
C1209 C1208 1.391 . S
C1209 C1213 1.376 1_455 S
C1210 C1208 1.394 . S
C1210 C1211 1.348 1_455 S
C1210 C1214 1.531 . S
C1211 C1210 1.348 1_655 S
C1211 C1212 1.421 . S
C1211 C1219 1.524 1_655 S
C1212 C1211 1.421 . S
C1212 C1213 1.392 . S
C1212 C1215 1.511 . S
C1213 C1209 1.376 1_655 S
C1213 C1212 1.392 . S
C1213 H1225 0.929 . S
C1214 C1210 1.531 . S
C1214 H1226 0.960 . S
C1214 H1227 0.962 . S
C1214 H1228 0.960 . S
C1215 C1212 1.511 . S
C1215 H1229 0.961 . S
C1215 H1230 0.961 . S
C1215 H1231 0.961 . S
C1216 C1217 1.370 . S
C1216 C1218 1.363 . S
C1216 H1232 0.931 . S
C1217 C1216 1.370 . S
C1217 C1221 1.408 1_455 S
C1218 C1216 1.363 . S
C1218 C1219 1.381 . S
C1218 C1222 1.524 . S
C1219 C1211 1.524 1_455 S
C1219 C1218 1.381 . S
C1219 C1220 1.382 1_455 S
C1220 C1219 1.382 1_655 S
C1220 C1221 1.404 . S
C1220 C1223 1.539 . S
C1221 C1217 1.408 1_655 S
C1221 C1220 1.404 . S
C1221 H1233 0.930 . S
C1222 C1218 1.524 . S
C1222 H1234 0.956 . S
C1222 H1235 0.961 . S
C1222 H1236 0.961 . S
C1223 C1220 1.539 . S
C1223 H1237 0.958 . S
C1223 H1238 0.961 . S
C1223 H1239 0.960 . S
H1224 C1208 0.931 . S
H1225 C1213 0.929 . S
H1226 C1214 0.960 . S
H1227 C1214 0.962 . S
H1228 C1214 0.960 . S
H1229 C1215 0.961 . S
H1230 C1215 0.961 . S
H1231 C1215 0.961 . S
H1232 C1216 0.931 . S
H1233 C1221 0.930 . S
H1234 C1222 0.956 . S
H1235 C1222 0.961 . S
H1236 C1222 0.961 . S
H1237 C1223 0.958 . S
H1238 C1223 0.961 . S
H1239 C1223 0.960 . S
C1240 C1241 1.391 . S
C1240 C1242 1.394 . S
C1240 H1256 0.931 . S
C1241 C1240 1.391 . S
C1241 C1245 1.376 . S
C1242 C1240 1.394 . S
C1242 C1243 1.369 . S
C1242 C1246 1.531 . S
C1243 C1242 1.369 . S
C1243 C1244 1.410 . S
C1243 C1251 1.503 . S
C1244 C1243 1.410 . S
C1244 C1245 1.392 . S
C1244 C1247 1.511 . S
C1245 C1241 1.376 . S
C1245 C1244 1.392 . S
C1245 H1257 0.929 . S
C1246 C1242 1.531 . S
C1246 H1258 0.960 . S
C1246 H1259 0.962 . S
C1246 H1260 0.960 . S
C1247 C1244 1.511 . S
C1247 H1261 0.961 . S
C1247 H1262 0.961 . S
C1247 H1263 0.961 . S
C1248 C1249 1.370 . S
C1248 C1250 1.363 . S
C1248 H1264 0.931 . S
C1249 C1248 1.370 . S
C1249 C1253 1.408 . S
C1250 C1248 1.363 . S
C1250 C1251 1.370 . S
C1250 C1254 1.524 . S
C1251 C1243 1.503 . S
C1251 C1250 1.370 . S
C1251 C1252 1.403 . S
C1252 C1251 1.403 . S
C1252 C1253 1.404 . S
C1252 C1255 1.539 . S
C1253 C1249 1.408 . S
C1253 C1252 1.404 . S
C1253 H1265 0.930 . S
C1254 C1250 1.524 . S
C1254 H1266 0.956 . S
C1254 H1267 0.961 . S
C1254 H1268 0.961 . S
C1255 C1252 1.539 . S
C1255 H1269 0.958 . S
C1255 H1270 0.961 . S
C1255 H1271 0.960 . S
H1256 C1240 0.931 . S
H1257 C1245 0.929 . S
H1258 C1246 0.960 . S
H1259 C1246 0.962 . S
H1260 C1246 0.960 . S
H1261 C1247 0.961 . S
H1262 C1247 0.961 . S
H1263 C1247 0.961 . S
H1264 C1248 0.931 . S
H1265 C1253 0.930 . S
H1266 C1254 0.956 . S
H1267 C1254 0.961 . S
H1268 C1254 0.961 . S
H1269 C1255 0.958 . S
H1270 C1255 0.961 . S
H1271 C1255 0.960 . S
C1272 C1273 1.391 1_655 S
C1272 C1274 1.394 . S
C1272 H1288 0.931 . S
C1273 C1272 1.391 1_455 S
C1273 C1277 1.376 . S
C1274 C1272 1.394 . S
C1274 C1275 1.369 1_655 S
C1274 C1278 1.531 . S
C1275 C1274 1.369 1_455 S
C1275 C1276 1.410 . S
C1275 C1283 1.503 . S
C1276 C1275 1.410 . S
C1276 C1277 1.392 . S
C1276 C1279 1.511 . S
C1277 C1273 1.376 . S
C1277 C1276 1.392 . S
C1277 H1289 0.929 . S
C1278 C1274 1.531 . S
C1278 H1290 0.960 . S
C1278 H1291 0.962 . S
C1278 H1292 0.960 . S
C1279 C1276 1.511 . S
C1279 H1293 0.961 . S
C1279 H1294 0.961 . S
C1279 H1295 0.961 . S
C1280 C1281 1.370 1_655 S
C1280 C1282 1.363 . S
C1280 H1296 0.931 . S
C1281 C1280 1.370 1_455 S
C1281 C1285 1.408 . S
C1282 C1280 1.363 . S
C1282 C1283 1.370 1_655 S
C1282 C1286 1.524 . S
C1283 C1275 1.503 . S
C1283 C1282 1.370 1_455 S
C1283 C1284 1.403 . S
C1284 C1283 1.403 . S
C1284 C1285 1.404 . S
C1284 C1287 1.539 . S
C1285 C1281 1.408 . S
C1285 C1284 1.404 . S
C1285 H1297 0.930 . S
C1286 C1282 1.524 . S
C1286 H1298 0.956 . S
C1286 H1299 0.961 . S
C1286 H1300 0.961 . S
C1287 C1284 1.539 . S
C1287 H1301 0.958 . S
C1287 H1302 0.961 . S
C1287 H1303 0.960 . S
H1288 C1272 0.931 . S
H1289 C1277 0.929 . S
H1290 C1278 0.960 . S
H1291 C1278 0.962 . S
H1292 C1278 0.960 . S
H1293 C1279 0.961 . S
H1294 C1279 0.961 . S
H1295 C1279 0.961 . S
H1296 C1280 0.931 . S
H1297 C1285 0.930 . S
H1298 C1286 0.956 . S
H1299 C1286 0.961 . S
H1300 C1286 0.961 . S
H1301 C1287 0.958 . S
H1302 C1287 0.961 . S
H1303 C1287 0.960 . S
C1304 C1305 1.391 . S
C1304 C1306 1.394 . S
C1304 H1320 0.931 . S
C1305 C1304 1.391 . S
C1305 C1309 1.376 . S
C1306 C1304 1.394 . S
C1306 C1307 1.369 . S
C1306 C1310 1.531 . S
C1307 C1306 1.369 . S
C1307 C1308 1.410 . S
C1307 C1315 1.503 . S
C1308 C1307 1.410 . S
C1308 C1309 1.392 . S
C1308 C1311 1.511 . S
C1309 C1305 1.376 . S
C1309 C1308 1.392 . S
C1309 H1321 0.929 . S
C1310 C1306 1.531 . S
C1310 H1322 0.960 . S
C1310 H1323 0.962 . S
C1310 H1324 0.960 . S
C1311 C1308 1.511 . S
C1311 H1325 0.961 . S
C1311 H1326 0.961 . S
C1311 H1327 0.961 . S
C1312 C1313 1.370 . S
C1312 C1314 1.363 . S
C1312 H1328 0.931 . S
C1313 C1312 1.370 . S
C1313 C1317 1.408 . S
C1314 C1312 1.363 . S
C1314 C1315 1.370 . S
C1314 C1318 1.524 . S
C1315 C1307 1.503 . S
C1315 C1314 1.370 . S
C1315 C1316 1.403 . S
C1316 C1315 1.403 . S
C1316 C1317 1.404 . S
C1316 C1319 1.539 . S
C1317 C1313 1.408 . S
C1317 C1316 1.404 . S
C1317 H1329 0.930 . S
C1318 C1314 1.524 . S
C1318 H1330 0.956 . S
C1318 H1331 0.961 . S
C1318 H1332 0.961 . S
C1319 C1316 1.539 . S
C1319 H1333 0.958 . S
C1319 H1334 0.961 . S
C1319 H1335 0.960 . S
H1320 C1304 0.931 . S
H1321 C1309 0.929 . S
H1322 C1310 0.960 . S
H1323 C1310 0.962 . S
H1324 C1310 0.960 . S
H1325 C1311 0.961 . S
H1326 C1311 0.961 . S
H1327 C1311 0.961 . S
H1328 C1312 0.931 . S
H1329 C1317 0.930 . S
H1330 C1318 0.956 . S
H1331 C1318 0.961 . S
H1332 C1318 0.961 . S
H1333 C1319 0.958 . S
H1334 C1319 0.961 . S
H1335 C1319 0.960 . S
C1336 C1337 1.391 1_545 S
C1336 C1338 1.394 . S
C1336 H1352 0.931 . S
C1337 C1336 1.391 1_565 S
C1337 C1341 1.376 . S
C1338 C1336 1.394 . S
C1338 C1339 1.369 1_545 S
C1338 C1342 1.531 . S
C1339 C1338 1.369 1_565 S
C1339 C1340 1.410 . S
C1339 C1347 1.503 . S
C1340 C1339 1.410 . S
C1340 C1341 1.392 . S
C1340 C1343 1.511 . S
C1341 C1337 1.376 . S
C1341 C1340 1.392 . S
C1341 H1353 0.929 . S
C1342 C1338 1.531 . S
C1342 H1354 0.960 . S
C1342 H1355 0.962 . S
C1342 H1356 0.960 . S
C1343 C1340 1.511 . S
C1343 H1357 0.961 . S
C1343 H1358 0.961 . S
C1343 H1359 0.961 . S
C1344 C1345 1.370 1_545 S
C1344 C1346 1.363 . S
C1344 H1360 0.931 . S
C1345 C1344 1.370 1_565 S
C1345 C1349 1.408 . S
C1346 C1344 1.363 . S
C1346 C1347 1.370 1_545 S
C1346 C1350 1.524 . S
C1347 C1339 1.503 . S
C1347 C1346 1.370 1_565 S
C1347 C1348 1.403 . S
C1348 C1347 1.403 . S
C1348 C1349 1.404 . S
C1348 C1351 1.539 . S
C1349 C1345 1.408 . S
C1349 C1348 1.404 . S
C1349 H1361 0.930 . S
C1350 C1346 1.524 . S
C1350 H1362 0.956 . S
C1350 H1363 0.961 . S
C1350 H1364 0.961 . S
C1351 C1348 1.539 . S
C1351 H1365 0.958 . S
C1351 H1366 0.961 . S
C1351 H1367 0.960 . S
H1352 C1336 0.931 . S
H1353 C1341 0.929 . S
H1354 C1342 0.960 . S
H1355 C1342 0.962 . S
H1356 C1342 0.960 . S
H1357 C1343 0.961 . S
H1358 C1343 0.961 . S
H1359 C1343 0.961 . S
H1360 C1344 0.931 . S
H1361 C1349 0.930 . S
H1362 C1350 0.956 . S
H1363 C1350 0.961 . S
H1364 C1350 0.961 . S
H1365 C1351 0.958 . S
H1366 C1351 0.961 . S
H1367 C1351 0.960 . S
C1368 C1369 1.451 . S
C1368 C1370 1.394 . S
C1368 H1384 0.931 . S
C1369 C1368 1.451 . S
C1369 C1373 1.341 1_545 S
C1370 C1368 1.394 . S
C1370 C1371 1.343 1_545 S
C1370 C1374 1.531 . S
C1371 C1370 1.343 1_565 S
C1371 C1372 1.456 . S
C1371 C1379 1.479 1_565 S
C1372 C1371 1.456 . S
C1372 C1373 1.392 . S
C1372 C1375 1.511 . S
C1373 C1369 1.341 1_565 S
C1373 C1372 1.392 . S
C1373 H1385 0.929 . S
C1374 C1370 1.531 . S
C1374 H1386 0.960 . S
C1374 H1387 0.962 . S
C1374 H1388 0.960 . S
C1375 C1372 1.511 . S
C1375 H1389 0.961 . S
C1375 H1390 0.961 . S
C1375 H1391 0.961 . S
C1376 C1377 1.370 . S
C1376 C1378 1.363 . S
C1376 H1392 0.931 . S
C1377 C1376 1.370 . S
C1377 C1381 1.408 1_545 S
C1378 C1376 1.363 . S
C1378 C1379 1.376 . S
C1378 C1382 1.524 . S
C1379 C1371 1.479 1_545 S
C1379 C1378 1.376 . S
C1379 C1380 1.401 1_545 S
C1380 C1379 1.401 1_565 S
C1380 C1381 1.404 . S
C1380 C1383 1.539 . S
C1381 C1377 1.408 1_565 S
C1381 C1380 1.404 . S
C1381 H1393 0.930 . S
C1382 C1378 1.524 . S
C1382 H1394 0.956 . S
C1382 H1395 0.961 . S
C1382 H1396 0.961 . S
C1383 C1380 1.539 . S
C1383 H1397 0.958 . S
C1383 H1398 0.961 . S
C1383 H1399 0.960 . S
H1384 C1368 0.931 . S
H1385 C1373 0.929 . S
H1386 C1374 0.960 . S
H1387 C1374 0.962 . S
H1388 C1374 0.960 . S
H1389 C1375 0.961 . S
H1390 C1375 0.961 . S
H1391 C1375 0.961 . S
H1392 C1376 0.931 . S
H1393 C1381 0.930 . S
H1394 C1382 0.956 . S
H1395 C1382 0.961 . S
H1396 C1382 0.961 . S
H1397 C1383 0.958 . S
H1398 C1383 0.961 . S
H1399 C1383 0.960 . S
C1400 C1401 1.395 . S
C1400 C1402 1.394 . S
C1400 H1416 0.931 . S
C1401 C1400 1.395 . S
C1401 C1405 1.355 1_655 S
C1402 C1400 1.394 . S
C1402 C1403 1.336 1_655 S
C1402 C1406 1.531 . S
C1403 C1402 1.336 1_455 S
C1403 C1404 1.418 . S
C1403 C1411 1.525 1_455 S
C1404 C1403 1.418 . S
C1404 C1405 1.392 . S
C1404 C1407 1.511 . S
C1405 C1401 1.355 1_455 S
C1405 C1404 1.392 . S
C1405 H1417 0.929 . S
C1406 C1402 1.531 . S
C1406 H1418 0.960 . S
C1406 H1419 0.962 . S
C1406 H1420 0.960 . S
C1407 C1404 1.511 . S
C1407 H1421 0.961 . S
C1407 H1422 0.961 . S
C1407 H1423 0.961 . S
C1408 C1409 1.370 . S
C1408 C1410 1.363 . S
C1408 H1424 0.931 . S
C1409 C1408 1.370 . S
C1409 C1413 1.408 1_655 S
C1410 C1408 1.363 . S
C1410 C1411 1.368 . S
C1410 C1414 1.524 . S
C1411 C1403 1.525 1_655 S
C1411 C1410 1.368 . S
C1411 C1412 1.406 1_655 S
C1412 C1411 1.406 1_455 S
C1412 C1413 1.404 . S
C1412 C1415 1.539 . S
C1413 C1409 1.408 1_455 S
C1413 C1412 1.404 . S
C1413 H1425 0.930 . S
C1414 C1410 1.524 . S
C1414 H1426 0.956 . S
C1414 H1427 0.961 . S
C1414 H1428 0.961 . S
C1415 C1412 1.539 . S
C1415 H1429 0.958 . S
C1415 H1430 0.961 . S
C1415 H1431 0.960 . S
H1416 C1400 0.931 . S
H1417 C1405 0.929 . S
H1418 C1406 0.960 . S
H1419 C1406 0.962 . S
H1420 C1406 0.960 . S
H1421 C1407 0.961 . S
H1422 C1407 0.961 . S
H1423 C1407 0.961 . S
H1424 C1408 0.931 . S
H1425 C1413 0.930 . S
H1426 C1414 0.956 . S
H1427 C1414 0.961 . S
H1428 C1414 0.961 . S
H1429 C1415 0.958 . S
H1430 C1415 0.961 . S
H1431 C1415 0.960 . S
C1432 C1433 1.391 . S
C1432 C1434 1.394 . S
C1432 H1448 0.931 . S
C1433 C1432 1.391 . S
C1433 C1437 1.376 . S
C1434 C1432 1.394 . S
C1434 C1435 1.369 . S
C1434 C1438 1.531 . S
C1435 C1434 1.369 . S
C1435 C1436 1.410 . S
C1435 C1443 1.503 . S
C1436 C1435 1.410 . S
C1436 C1437 1.392 . S
C1436 C1439 1.511 . S
C1437 C1433 1.376 . S
C1437 C1436 1.392 . S
C1437 H1449 0.929 . S
C1438 C1434 1.531 . S
C1438 H1450 0.960 . S
C1438 H1451 0.962 . S
C1438 H1452 0.960 . S
C1439 C1436 1.511 . S
C1439 H1453 0.961 . S
C1439 H1454 0.961 . S
C1439 H1455 0.961 . S
C1440 C1441 1.370 . S
C1440 C1442 1.363 . S
C1440 H1456 0.931 . S
C1441 C1440 1.370 . S
C1441 C1445 1.408 . S
C1442 C1440 1.363 . S
C1442 C1443 1.370 . S
C1442 C1446 1.524 . S
C1443 C1435 1.503 . S
C1443 C1442 1.370 . S
C1443 C1444 1.403 . S
C1444 C1443 1.403 . S
C1444 C1445 1.404 . S
C1444 C1447 1.539 . S
C1445 C1441 1.408 . S
C1445 C1444 1.404 . S
C1445 H1457 0.930 . S
C1446 C1442 1.524 . S
C1446 H1458 0.956 . S
C1446 H1459 0.961 . S
C1446 H1460 0.961 . S
C1447 C1444 1.539 . S
C1447 H1461 0.958 . S
C1447 H1462 0.961 . S
C1447 H1463 0.960 . S
H1448 C1432 0.931 . S
H1449 C1437 0.929 . S
H1450 C1438 0.960 . S
H1451 C1438 0.962 . S
H1452 C1438 0.960 . S
H1453 C1439 0.961 . S
H1454 C1439 0.961 . S
H1455 C1439 0.961 . S
H1456 C1440 0.931 . S
H1457 C1445 0.930 . S
H1458 C1446 0.956 . S
H1459 C1446 0.961 . S
H1460 C1446 0.961 . S
H1461 C1447 0.958 . S
H1462 C1447 0.961 . S
H1463 C1447 0.960 . S
C1464 C1465 1.391 . S
C1464 C1466 1.394 . S
C1464 H1480 0.931 . S
C1465 C1464 1.391 . S
C1465 C1469 1.376 . S
C1466 C1464 1.394 . S
C1466 C1467 1.369 . S
C1466 C1470 1.531 . S
C1467 C1466 1.369 . S
C1467 C1468 1.410 . S
C1467 C1475 1.503 . S
C1468 C1467 1.410 . S
C1468 C1469 1.392 . S
C1468 C1471 1.511 . S
C1469 C1465 1.376 . S
C1469 C1468 1.392 . S
C1469 H1481 0.929 . S
C1470 C1466 1.531 . S
C1470 H1482 0.960 . S
C1470 H1483 0.962 . S
C1470 H1484 0.960 . S
C1471 C1468 1.511 . S
C1471 H1485 0.961 . S
C1471 H1486 0.961 . S
C1471 H1487 0.961 . S
C1472 C1473 1.370 . S
C1472 C1474 1.363 . S
C1472 H1488 0.931 . S
C1473 C1472 1.370 . S
C1473 C1477 1.408 . S
C1474 C1472 1.363 . S
C1474 C1475 1.370 . S
C1474 C1478 1.524 . S
C1475 C1467 1.503 . S
C1475 C1474 1.370 . S
C1475 C1476 1.403 . S
C1476 C1475 1.403 . S
C1476 C1477 1.404 . S
C1476 C1479 1.539 . S
C1477 C1473 1.408 . S
C1477 C1476 1.404 . S
C1477 H1489 0.930 . S
C1478 C1474 1.524 . S
C1478 H1490 0.956 . S
C1478 H1491 0.961 . S
C1478 H1492 0.961 . S
C1479 C1476 1.539 . S
C1479 H1493 0.958 . S
C1479 H1494 0.961 . S
C1479 H1495 0.960 . S
H1480 C1464 0.931 . S
H1481 C1469 0.929 . S
H1482 C1470 0.960 . S
H1483 C1470 0.962 . S
H1484 C1470 0.960 . S
H1485 C1471 0.961 . S
H1486 C1471 0.961 . S
H1487 C1471 0.961 . S
H1488 C1472 0.931 . S
H1489 C1477 0.930 . S
H1490 C1478 0.956 . S
H1491 C1478 0.961 . S
H1492 C1478 0.961 . S
H1493 C1479 0.958 . S
H1494 C1479 0.961 . S
H1495 C1479 0.960 . S
C1496 C1497 1.391 . S
C1496 C1498 1.394 . S
C1496 H1512 0.931 . S
C1497 C1496 1.391 . S
C1497 C1501 1.376 . S
C1498 C1496 1.394 . S
C1498 C1499 1.369 . S
C1498 C1502 1.531 . S
C1499 C1498 1.369 . S
C1499 C1500 1.410 . S
C1499 C1507 1.503 . S
C1500 C1499 1.410 . S
C1500 C1501 1.392 . S
C1500 C1503 1.511 . S
C1501 C1497 1.376 . S
C1501 C1500 1.392 . S
C1501 H1513 0.929 . S
C1502 C1498 1.531 . S
C1502 H1514 0.960 . S
C1502 H1515 0.962 . S
C1502 H1516 0.960 . S
C1503 C1500 1.511 . S
C1503 H1517 0.961 . S
C1503 H1518 0.961 . S
C1503 H1519 0.961 . S
C1504 C1505 1.370 . S
C1504 C1506 1.363 . S
C1504 H1520 0.931 . S
C1505 C1504 1.370 . S
C1505 C1509 1.408 . S
C1506 C1504 1.363 . S
C1506 C1507 1.370 . S
C1506 C1510 1.524 . S
C1507 C1499 1.503 . S
C1507 C1506 1.370 . S
C1507 C1508 1.403 . S
C1508 C1507 1.403 . S
C1508 C1509 1.404 . S
C1508 C1511 1.539 . S
C1509 C1505 1.408 . S
C1509 C1508 1.404 . S
C1509 H1521 0.930 . S
C1510 C1506 1.524 . S
C1510 H1522 0.956 . S
C1510 H1523 0.961 . S
C1510 H1524 0.961 . S
C1511 C1508 1.539 . S
C1511 H1525 0.958 . S
C1511 H1526 0.961 . S
C1511 H1527 0.960 . S
H1512 C1496 0.931 . S
H1513 C1501 0.929 . S
H1514 C1502 0.960 . S
H1515 C1502 0.962 . S
H1516 C1502 0.960 . S
H1517 C1503 0.961 . S
H1518 C1503 0.961 . S
H1519 C1503 0.961 . S
H1520 C1504 0.931 . S
H1521 C1509 0.930 . S
H1522 C1510 0.956 . S
H1523 C1510 0.961 . S
H1524 C1510 0.961 . S
H1525 C1511 0.958 . S
H1526 C1511 0.961 . S
H1527 C1511 0.960 . S
C1528 C1529 1.391 . S
C1528 C1530 1.394 . S
C1528 H1544 0.931 . S
C1529 C1528 1.391 . S
C1529 C1533 1.376 . S
C1530 C1528 1.394 . S
C1530 C1531 1.369 . S
C1530 C1534 1.531 . S
C1531 C1530 1.369 . S
C1531 C1532 1.410 . S
C1531 C1539 1.503 . S
C1532 C1531 1.410 . S
C1532 C1533 1.392 . S
C1532 C1535 1.511 . S
C1533 C1529 1.376 . S
C1533 C1532 1.392 . S
C1533 H1545 0.929 . S
C1534 C1530 1.531 . S
C1534 H1546 0.960 . S
C1534 H1547 0.962 . S
C1534 H1548 0.960 . S
C1535 C1532 1.511 . S
C1535 H1549 0.961 . S
C1535 H1550 0.961 . S
C1535 H1551 0.961 . S
C1536 C1537 1.370 . S
C1536 C1538 1.363 . S
C1536 H1552 0.931 . S
C1537 C1536 1.370 . S
C1537 C1541 1.408 . S
C1538 C1536 1.363 . S
C1538 C1539 1.370 . S
C1538 C1542 1.524 . S
C1539 C1531 1.503 . S
C1539 C1538 1.370 . S
C1539 C1540 1.403 . S
C1540 C1539 1.403 . S
C1540 C1541 1.404 . S
C1540 C1543 1.539 . S
C1541 C1537 1.408 . S
C1541 C1540 1.404 . S
C1541 H1553 0.930 . S
C1542 C1538 1.524 . S
C1542 H1554 0.956 . S
C1542 H1555 0.961 . S
C1542 H1556 0.961 . S
C1543 C1540 1.539 . S
C1543 H1557 0.958 . S
C1543 H1558 0.961 . S
C1543 H1559 0.960 . S
H1544 C1528 0.931 . S
H1545 C1533 0.929 . S
H1546 C1534 0.960 . S
H1547 C1534 0.962 . S
H1548 C1534 0.960 . S
H1549 C1535 0.961 . S
H1550 C1535 0.961 . S
H1551 C1535 0.961 . S
H1552 C1536 0.931 . S
H1553 C1541 0.930 . S
H1554 C1542 0.956 . S
H1555 C1542 0.961 . S
H1556 C1542 0.961 . S
H1557 C1543 0.958 . S
H1558 C1543 0.961 . S
H1559 C1543 0.960 . S
C1560 C1561 1.391 . S
C1560 C1562 1.394 . S
C1560 H1576 0.931 . S
C1561 C1560 1.391 . S
C1561 C1565 1.376 . S
C1562 C1560 1.394 . S
C1562 C1563 1.369 . S
C1562 C1566 1.531 . S
C1563 C1562 1.369 . S
C1563 C1564 1.410 . S
C1563 C1571 1.503 . S
C1564 C1563 1.410 . S
C1564 C1565 1.392 . S
C1564 C1567 1.511 . S
C1565 C1561 1.376 . S
C1565 C1564 1.392 . S
C1565 H1577 0.929 . S
C1566 C1562 1.531 . S
C1566 H1578 0.960 . S
C1566 H1579 0.962 . S
C1566 H1580 0.960 . S
C1567 C1564 1.511 . S
C1567 H1581 0.961 . S
C1567 H1582 0.961 . S
C1567 H1583 0.961 . S
C1568 C1569 1.370 . S
C1568 C1570 1.363 . S
C1568 H1584 0.931 . S
C1569 C1568 1.370 . S
C1569 C1573 1.408 . S
C1570 C1568 1.363 . S
C1570 C1571 1.370 . S
C1570 C1574 1.524 . S
C1571 C1563 1.503 . S
C1571 C1570 1.370 . S
C1571 C1572 1.403 . S
C1572 C1571 1.403 . S
C1572 C1573 1.404 . S
C1572 C1575 1.539 . S
C1573 C1569 1.408 . S
C1573 C1572 1.404 . S
C1573 H1585 0.930 . S
C1574 C1570 1.524 . S
C1574 H1586 0.956 . S
C1574 H1587 0.961 . S
C1574 H1588 0.961 . S
C1575 C1572 1.539 . S
C1575 H1589 0.958 . S
C1575 H1590 0.961 . S
C1575 H1591 0.960 . S
H1576 C1560 0.931 . S
H1577 C1565 0.929 . S
H1578 C1566 0.960 . S
H1579 C1566 0.962 . S
H1580 C1566 0.960 . S
H1581 C1567 0.961 . S
H1582 C1567 0.961 . S
H1583 C1567 0.961 . S
H1584 C1568 0.931 . S
H1585 C1573 0.930 . S
H1586 C1574 0.956 . S
H1587 C1574 0.961 . S
H1588 C1574 0.961 . S
H1589 C1575 0.958 . S
H1590 C1575 0.961 . S
H1591 C1575 0.960 . S
C1592 C1593 1.391 . S
C1592 C1594 1.394 . S
C1592 H1608 0.931 . S
C1593 C1592 1.391 . S
C1593 C1597 1.376 . S
C1594 C1592 1.394 . S
C1594 C1595 1.369 . S
C1594 C1598 1.531 . S
C1595 C1594 1.369 . S
C1595 C1596 1.410 . S
C1595 C1603 1.503 . S
C1596 C1595 1.410 . S
C1596 C1597 1.392 . S
C1596 C1599 1.511 . S
C1597 C1593 1.376 . S
C1597 C1596 1.392 . S
C1597 H1609 0.929 . S
C1598 C1594 1.531 . S
C1598 H1610 0.960 . S
C1598 H1611 0.962 . S
C1598 H1612 0.960 . S
C1599 C1596 1.511 . S
C1599 H1613 0.961 . S
C1599 H1614 0.961 . S
C1599 H1615 0.961 . S
C1600 C1601 1.370 . S
C1600 C1602 1.363 . S
C1600 H1616 0.931 . S
C1601 C1600 1.370 . S
C1601 C1605 1.408 . S
C1602 C1600 1.363 . S
C1602 C1603 1.370 . S
C1602 C1606 1.524 . S
C1603 C1595 1.503 . S
C1603 C1602 1.370 . S
C1603 C1604 1.403 . S
C1604 C1603 1.403 . S
C1604 C1605 1.404 . S
C1604 C1607 1.539 . S
C1605 C1601 1.408 . S
C1605 C1604 1.404 . S
C1605 H1617 0.930 . S
C1606 C1602 1.524 . S
C1606 H1618 0.956 . S
C1606 H1619 0.961 . S
C1606 H1620 0.961 . S
C1607 C1604 1.539 . S
C1607 H1621 0.958 . S
C1607 H1622 0.961 . S
C1607 H1623 0.960 . S
H1608 C1592 0.931 . S
H1609 C1597 0.929 . S
H1610 C1598 0.960 . S
H1611 C1598 0.962 . S
H1612 C1598 0.960 . S
H1613 C1599 0.961 . S
H1614 C1599 0.961 . S
H1615 C1599 0.961 . S
H1616 C1600 0.931 . S
H1617 C1605 0.930 . S
H1618 C1606 0.956 . S
H1619 C1606 0.961 . S
H1620 C1606 0.961 . S
H1621 C1607 0.958 . S
H1622 C1607 0.961 . S
H1623 C1607 0.960 . S
C1624 C1625 1.391 . S
C1624 C1626 1.394 . S
C1624 H1640 0.931 . S
C1625 C1624 1.391 . S
C1625 C1629 1.376 . S
C1626 C1624 1.394 . S
C1626 C1627 1.369 . S
C1626 C1630 1.531 . S
C1627 C1626 1.369 . S
C1627 C1628 1.410 . S
C1627 C1635 1.503 . S
C1628 C1627 1.410 . S
C1628 C1629 1.392 . S
C1628 C1631 1.511 . S
C1629 C1625 1.376 . S
C1629 C1628 1.392 . S
C1629 H1641 0.929 . S
C1630 C1626 1.531 . S
C1630 H1642 0.960 . S
C1630 H1643 0.962 . S
C1630 H1644 0.960 . S
C1631 C1628 1.511 . S
C1631 H1645 0.961 . S
C1631 H1646 0.961 . S
C1631 H1647 0.961 . S
C1632 C1633 1.370 . S
C1632 C1634 1.363 . S
C1632 H1648 0.931 . S
C1633 C1632 1.370 . S
C1633 C1637 1.408 . S
C1634 C1632 1.363 . S
C1634 C1635 1.370 . S
C1634 C1638 1.524 . S
C1635 C1627 1.503 . S
C1635 C1634 1.370 . S
C1635 C1636 1.403 . S
C1636 C1635 1.403 . S
C1636 C1637 1.404 . S
C1636 C1639 1.539 . S
C1637 C1633 1.408 . S
C1637 C1636 1.404 . S
C1637 H1649 0.930 . S
C1638 C1634 1.524 . S
C1638 H1650 0.956 . S
C1638 H1651 0.961 . S
C1638 H1652 0.961 . S
C1639 C1636 1.539 . S
C1639 H1653 0.958 . S
C1639 H1654 0.961 . S
C1639 H1655 0.960 . S
H1640 C1624 0.931 . S
H1641 C1629 0.929 . S
H1642 C1630 0.960 . S
H1643 C1630 0.962 . S
H1644 C1630 0.960 . S
H1645 C1631 0.961 . S
H1646 C1631 0.961 . S
H1647 C1631 0.961 . S
H1648 C1632 0.931 . S
H1649 C1637 0.930 . S
H1650 C1638 0.956 . S
H1651 C1638 0.961 . S
H1652 C1638 0.961 . S
H1653 C1639 0.958 . S
H1654 C1639 0.961 . S
H1655 C1639 0.960 . S
C1656 C1657 1.391 . S
C1656 C1658 1.394 . S
C1656 H1672 0.931 . S
C1657 C1656 1.391 . S
C1657 C1661 1.376 . S
C1658 C1656 1.394 . S
C1658 C1659 1.369 . S
C1658 C1662 1.531 . S
C1659 C1658 1.369 . S
C1659 C1660 1.410 . S
C1659 C1667 1.503 . S
C1660 C1659 1.410 . S
C1660 C1661 1.392 . S
C1660 C1663 1.511 . S
C1661 C1657 1.376 . S
C1661 C1660 1.392 . S
C1661 H1673 0.929 . S
C1662 C1658 1.531 . S
C1662 H1674 0.960 . S
C1662 H1675 0.962 . S
C1662 H1676 0.960 . S
C1663 C1660 1.511 . S
C1663 H1677 0.961 . S
C1663 H1678 0.961 . S
C1663 H1679 0.961 . S
C1664 C1665 1.370 . S
C1664 C1666 1.363 . S
C1664 H1680 0.931 . S
C1665 C1664 1.370 . S
C1665 C1669 1.408 . S
C1666 C1664 1.363 . S
C1666 C1667 1.370 . S
C1666 C1670 1.524 . S
C1667 C1659 1.503 . S
C1667 C1666 1.370 . S
C1667 C1668 1.403 . S
C1668 C1667 1.403 . S
C1668 C1669 1.404 . S
C1668 C1671 1.539 . S
C1669 C1665 1.408 . S
C1669 C1668 1.404 . S
C1669 H1681 0.930 . S
C1670 C1666 1.524 . S
C1670 H1682 0.956 . S
C1670 H1683 0.961 . S
C1670 H1684 0.961 . S
C1671 C1668 1.539 . S
C1671 H1685 0.958 . S
C1671 H1686 0.961 . S
C1671 H1687 0.960 . S
H1672 C1656 0.931 . S
H1673 C1661 0.929 . S
H1674 C1662 0.960 . S
H1675 C1662 0.962 . S
H1676 C1662 0.960 . S
H1677 C1663 0.961 . S
H1678 C1663 0.961 . S
H1679 C1663 0.961 . S
H1680 C1664 0.931 . S
H1681 C1669 0.930 . S
H1682 C1670 0.956 . S
H1683 C1670 0.961 . S
H1684 C1670 0.961 . S
H1685 C1671 0.958 . S
H1686 C1671 0.961 . S
H1687 C1671 0.960 . S
C1688 C1689 1.391 . S
C1688 C1690 1.394 . S
C1688 H1704 0.931 . S
C1689 C1688 1.391 . S
C1689 C1693 1.376 . S
C1690 C1688 1.394 . S
C1690 C1691 1.369 . S
C1690 C1694 1.531 . S
C1691 C1690 1.369 . S
C1691 C1692 1.410 . S
C1691 C1699 1.503 . S
C1692 C1691 1.410 . S
C1692 C1693 1.392 . S
C1692 C1695 1.511 . S
C1693 C1689 1.376 . S
C1693 C1692 1.392 . S
C1693 H1705 0.929 . S
C1694 C1690 1.531 . S
C1694 H1706 0.960 . S
C1694 H1707 0.962 . S
C1694 H1708 0.960 . S
C1695 C1692 1.511 . S
C1695 H1709 0.961 . S
C1695 H1710 0.961 . S
C1695 H1711 0.961 . S
C1696 C1697 1.370 . S
C1696 C1698 1.363 . S
C1696 H1712 0.931 . S
C1697 C1696 1.370 . S
C1697 C1701 1.408 . S
C1698 C1696 1.363 . S
C1698 C1699 1.370 . S
C1698 C1702 1.524 . S
C1699 C1691 1.503 . S
C1699 C1698 1.370 . S
C1699 C1700 1.403 . S
C1700 C1699 1.403 . S
C1700 C1701 1.404 . S
C1700 C1703 1.539 . S
C1701 C1697 1.408 . S
C1701 C1700 1.404 . S
C1701 H1713 0.930 . S
C1702 C1698 1.524 . S
C1702 H1714 0.956 . S
C1702 H1715 0.961 . S
C1702 H1716 0.961 . S
C1703 C1700 1.539 . S
C1703 H1717 0.958 . S
C1703 H1718 0.961 . S
C1703 H1719 0.960 . S
H1704 C1688 0.931 . S
H1705 C1693 0.929 . S
H1706 C1694 0.960 . S
H1707 C1694 0.962 . S
H1708 C1694 0.960 . S
H1709 C1695 0.961 . S
H1710 C1695 0.961 . S
H1711 C1695 0.961 . S
H1712 C1696 0.931 . S
H1713 C1701 0.930 . S
H1714 C1702 0.956 . S
H1715 C1702 0.961 . S
H1716 C1702 0.961 . S
H1717 C1703 0.958 . S
H1718 C1703 0.961 . S
H1719 C1703 0.960 . S
C1720 C1721 1.391 . S
C1720 C1722 1.394 . S
C1720 H1736 0.931 . S
C1721 C1720 1.391 . S
C1721 C1725 1.376 . S
C1722 C1720 1.394 . S
C1722 C1723 1.369 . S
C1722 C1726 1.531 . S
C1723 C1722 1.369 . S
C1723 C1724 1.410 . S
C1723 C1731 1.503 . S
C1724 C1723 1.410 . S
C1724 C1725 1.392 . S
C1724 C1727 1.511 . S
C1725 C1721 1.376 . S
C1725 C1724 1.392 . S
C1725 H1737 0.929 . S
C1726 C1722 1.531 . S
C1726 H1738 0.960 . S
C1726 H1739 0.962 . S
C1726 H1740 0.960 . S
C1727 C1724 1.511 . S
C1727 H1741 0.961 . S
C1727 H1742 0.961 . S
C1727 H1743 0.961 . S
C1728 C1729 1.370 . S
C1728 C1730 1.363 . S
C1728 H1744 0.931 . S
C1729 C1728 1.370 . S
C1729 C1733 1.408 . S
C1730 C1728 1.363 . S
C1730 C1731 1.370 . S
C1730 C1734 1.524 . S
C1731 C1723 1.503 . S
C1731 C1730 1.370 . S
C1731 C1732 1.403 . S
C1732 C1731 1.403 . S
C1732 C1733 1.404 . S
C1732 C1735 1.539 . S
C1733 C1729 1.408 . S
C1733 C1732 1.404 . S
C1733 H1745 0.930 . S
C1734 C1730 1.524 . S
C1734 H1746 0.956 . S
C1734 H1747 0.961 . S
C1734 H1748 0.961 . S
C1735 C1732 1.539 . S
C1735 H1749 0.958 . S
C1735 H1750 0.961 . S
C1735 H1751 0.960 . S
H1736 C1720 0.931 . S
H1737 C1725 0.929 . S
H1738 C1726 0.960 . S
H1739 C1726 0.962 . S
H1740 C1726 0.960 . S
H1741 C1727 0.961 . S
H1742 C1727 0.961 . S
H1743 C1727 0.961 . S
H1744 C1728 0.931 . S
H1745 C1733 0.930 . S
H1746 C1734 0.956 . S
H1747 C1734 0.961 . S
H1748 C1734 0.961 . S
H1749 C1735 0.958 . S
H1750 C1735 0.961 . S
H1751 C1735 0.960 . S
C1752 C1753 1.391 . S
C1752 C1754 1.394 . S
C1752 H1768 0.931 . S
C1753 C1752 1.391 . S
C1753 C1757 1.376 . S
C1754 C1752 1.394 . S
C1754 C1755 1.369 . S
C1754 C1758 1.531 . S
C1755 C1754 1.369 . S
C1755 C1756 1.410 . S
C1755 C1763 1.503 . S
C1756 C1755 1.410 . S
C1756 C1757 1.392 . S
C1756 C1759 1.511 . S
C1757 C1753 1.376 . S
C1757 C1756 1.392 . S
C1757 H1769 0.929 . S
C1758 C1754 1.531 . S
C1758 H1770 0.960 . S
C1758 H1771 0.962 . S
C1758 H1772 0.960 . S
C1759 C1756 1.511 . S
C1759 H1773 0.961 . S
C1759 H1774 0.961 . S
C1759 H1775 0.961 . S
C1760 C1761 1.370 . S
C1760 C1762 1.363 . S
C1760 H1776 0.931 . S
C1761 C1760 1.370 . S
C1761 C1765 1.408 . S
C1762 C1760 1.363 . S
C1762 C1763 1.370 . S
C1762 C1766 1.524 . S
C1763 C1755 1.503 . S
C1763 C1762 1.370 . S
C1763 C1764 1.403 . S
C1764 C1763 1.403 . S
C1764 C1765 1.404 . S
C1764 C1767 1.539 . S
C1765 C1761 1.408 . S
C1765 C1764 1.404 . S
C1765 H1777 0.930 . S
C1766 C1762 1.524 . S
C1766 H1778 0.956 . S
C1766 H1779 0.961 . S
C1766 H1780 0.961 . S
C1767 C1764 1.539 . S
C1767 H1781 0.958 . S
C1767 H1782 0.961 . S
C1767 H1783 0.960 . S
H1768 C1752 0.931 . S
H1769 C1757 0.929 . S
H1770 C1758 0.960 . S
H1771 C1758 0.962 . S
H1772 C1758 0.960 . S
H1773 C1759 0.961 . S
H1774 C1759 0.961 . S
H1775 C1759 0.961 . S
H1776 C1760 0.931 . S
H1777 C1765 0.930 . S
H1778 C1766 0.956 . S
H1779 C1766 0.961 . S
H1780 C1766 0.961 . S
H1781 C1767 0.958 . S
H1782 C1767 0.961 . S
H1783 C1767 0.960 . S
C1784 C1785 1.391 . S
C1784 C1786 1.394 . S
C1784 H1800 0.931 . S
C1785 C1784 1.391 . S
C1785 C1789 1.376 . S
C1786 C1784 1.394 . S
C1786 C1787 1.369 . S
C1786 C1790 1.531 . S
C1787 C1786 1.369 . S
C1787 C1788 1.410 . S
C1787 C1795 1.503 . S
C1788 C1787 1.410 . S
C1788 C1789 1.392 . S
C1788 C1791 1.511 . S
C1789 C1785 1.376 . S
C1789 C1788 1.392 . S
C1789 H1801 0.929 . S
C1790 C1786 1.531 . S
C1790 H1802 0.960 . S
C1790 H1803 0.962 . S
C1790 H1804 0.960 . S
C1791 C1788 1.511 . S
C1791 H1805 0.961 . S
C1791 H1806 0.961 . S
C1791 H1807 0.961 . S
C1792 C1793 1.370 . S
C1792 C1794 1.363 . S
C1792 H1808 0.931 . S
C1793 C1792 1.370 . S
C1793 C1797 1.408 . S
C1794 C1792 1.363 . S
C1794 C1795 1.370 . S
C1794 C1798 1.524 . S
C1795 C1787 1.503 . S
C1795 C1794 1.370 . S
C1795 C1796 1.403 . S
C1796 C1795 1.403 . S
C1796 C1797 1.404 . S
C1796 C1799 1.539 . S
C1797 C1793 1.408 . S
C1797 C1796 1.404 . S
C1797 H1809 0.930 . S
C1798 C1794 1.524 . S
C1798 H1810 0.956 . S
C1798 H1811 0.961 . S
C1798 H1812 0.961 . S
C1799 C1796 1.539 . S
C1799 H1813 0.958 . S
C1799 H1814 0.961 . S
C1799 H1815 0.960 . S
H1800 C1784 0.931 . S
H1801 C1789 0.929 . S
H1802 C1790 0.960 . S
H1803 C1790 0.962 . S
H1804 C1790 0.960 . S
H1805 C1791 0.961 . S
H1806 C1791 0.961 . S
H1807 C1791 0.961 . S
H1808 C1792 0.931 . S
H1809 C1797 0.930 . S
H1810 C1798 0.956 . S
H1811 C1798 0.961 . S
H1812 C1798 0.961 . S
H1813 C1799 0.958 . S
H1814 C1799 0.961 . S
H1815 C1799 0.960 . S
C1816 C1817 1.391 . S
C1816 C1818 1.394 . S
C1816 H1832 0.931 . S
C1817 C1816 1.391 . S
C1817 C1821 1.376 . S
C1818 C1816 1.394 . S
C1818 C1819 1.369 . S
C1818 C1822 1.531 . S
C1819 C1818 1.369 . S
C1819 C1820 1.410 . S
C1819 C1827 1.503 . S
C1820 C1819 1.410 . S
C1820 C1821 1.392 . S
C1820 C1823 1.511 . S
C1821 C1817 1.376 . S
C1821 C1820 1.392 . S
C1821 H1833 0.929 . S
C1822 C1818 1.531 . S
C1822 H1834 0.960 . S
C1822 H1835 0.962 . S
C1822 H1836 0.960 . S
C1823 C1820 1.511 . S
C1823 H1837 0.961 . S
C1823 H1838 0.961 . S
C1823 H1839 0.961 . S
C1824 C1825 1.370 . S
C1824 C1826 1.363 . S
C1824 H1840 0.931 . S
C1825 C1824 1.370 . S
C1825 C1829 1.408 . S
C1826 C1824 1.363 . S
C1826 C1827 1.370 . S
C1826 C1830 1.524 . S
C1827 C1819 1.503 . S
C1827 C1826 1.370 . S
C1827 C1828 1.403 . S
C1828 C1827 1.403 . S
C1828 C1829 1.404 . S
C1828 C1831 1.539 . S
C1829 C1825 1.408 . S
C1829 C1828 1.404 . S
C1829 H1841 0.930 . S
C1830 C1826 1.524 . S
C1830 H1842 0.956 . S
C1830 H1843 0.961 . S
C1830 H1844 0.961 . S
C1831 C1828 1.539 . S
C1831 H1845 0.958 . S
C1831 H1846 0.961 . S
C1831 H1847 0.960 . S
H1832 C1816 0.931 . S
H1833 C1821 0.929 . S
H1834 C1822 0.960 . S
H1835 C1822 0.962 . S
H1836 C1822 0.960 . S
H1837 C1823 0.961 . S
H1838 C1823 0.961 . S
H1839 C1823 0.961 . S
H1840 C1824 0.931 . S
H1841 C1829 0.930 . S
H1842 C1830 0.956 . S
H1843 C1830 0.961 . S
H1844 C1830 0.961 . S
H1845 C1831 0.958 . S
H1846 C1831 0.961 . S
H1847 C1831 0.960 . S
C1848 C1849 1.391 . S
C1848 C1850 1.394 . S
C1848 H1864 0.931 . S
C1849 C1848 1.391 . S
C1849 C1853 1.376 . S
C1850 C1848 1.394 . S
C1850 C1851 1.369 . S
C1850 C1854 1.531 . S
C1851 C1850 1.369 . S
C1851 C1852 1.410 . S
C1851 C1859 1.503 . S
C1852 C1851 1.410 . S
C1852 C1853 1.392 . S
C1852 C1855 1.511 . S
C1853 C1849 1.376 . S
C1853 C1852 1.392 . S
C1853 H1865 0.929 . S
C1854 C1850 1.531 . S
C1854 H1866 0.960 . S
C1854 H1867 0.962 . S
C1854 H1868 0.960 . S
C1855 C1852 1.511 . S
C1855 H1869 0.961 . S
C1855 H1870 0.961 . S
C1855 H1871 0.961 . S
C1856 C1857 1.370 . S
C1856 C1858 1.363 . S
C1856 H1872 0.931 . S
C1857 C1856 1.370 . S
C1857 C1861 1.408 . S
C1858 C1856 1.363 . S
C1858 C1859 1.370 . S
C1858 C1862 1.524 . S
C1859 C1851 1.503 . S
C1859 C1858 1.370 . S
C1859 C1860 1.403 . S
C1860 C1859 1.403 . S
C1860 C1861 1.404 . S
C1860 C1863 1.539 . S
C1861 C1857 1.408 . S
C1861 C1860 1.404 . S
C1861 H1873 0.930 . S
C1862 C1858 1.524 . S
C1862 H1874 0.956 . S
C1862 H1875 0.961 . S
C1862 H1876 0.961 . S
C1863 C1860 1.539 . S
C1863 H1877 0.958 . S
C1863 H1878 0.961 . S
C1863 H1879 0.960 . S
H1864 C1848 0.931 . S
H1865 C1853 0.929 . S
H1866 C1854 0.960 . S
H1867 C1854 0.962 . S
H1868 C1854 0.960 . S
H1869 C1855 0.961 . S
H1870 C1855 0.961 . S
H1871 C1855 0.961 . S
H1872 C1856 0.931 . S
H1873 C1861 0.930 . S
H1874 C1862 0.956 . S
H1875 C1862 0.961 . S
H1876 C1862 0.961 . S
H1877 C1863 0.958 . S
H1878 C1863 0.961 . S
H1879 C1863 0.960 . S
C1880 C1881 1.391 . S
C1880 C1882 1.394 . S
C1880 H1896 0.931 . S
C1881 C1880 1.391 . S
C1881 C1885 1.376 . S
C1882 C1880 1.394 . S
C1882 C1883 1.369 . S
C1882 C1886 1.531 . S
C1883 C1882 1.369 . S
C1883 C1884 1.410 . S
C1883 C1891 1.503 . S
C1884 C1883 1.410 . S
C1884 C1885 1.392 . S
C1884 C1887 1.511 . S
C1885 C1881 1.376 . S
C1885 C1884 1.392 . S
C1885 H1897 0.929 . S
C1886 C1882 1.531 . S
C1886 H1898 0.960 . S
C1886 H1899 0.962 . S
C1886 H1900 0.960 . S
C1887 C1884 1.511 . S
C1887 H1901 0.961 . S
C1887 H1902 0.961 . S
C1887 H1903 0.961 . S
C1888 C1889 1.370 . S
C1888 C1890 1.363 . S
C1888 H1904 0.931 . S
C1889 C1888 1.370 . S
C1889 C1893 1.408 . S
C1890 C1888 1.363 . S
C1890 C1891 1.370 . S
C1890 C1894 1.524 . S
C1891 C1883 1.503 . S
C1891 C1890 1.370 . S
C1891 C1892 1.403 . S
C1892 C1891 1.403 . S
C1892 C1893 1.404 . S
C1892 C1895 1.539 . S
C1893 C1889 1.408 . S
C1893 C1892 1.404 . S
C1893 H1905 0.930 . S
C1894 C1890 1.524 . S
C1894 H1906 0.956 . S
C1894 H1907 0.961 . S
C1894 H1908 0.961 . S
C1895 C1892 1.539 . S
C1895 H1909 0.958 . S
C1895 H1910 0.961 . S
C1895 H1911 0.960 . S
H1896 C1880 0.931 . S
H1897 C1885 0.929 . S
H1898 C1886 0.960 . S
H1899 C1886 0.962 . S
H1900 C1886 0.960 . S
H1901 C1887 0.961 . S
H1902 C1887 0.961 . S
H1903 C1887 0.961 . S
H1904 C1888 0.931 . S
H1905 C1893 0.930 . S
H1906 C1894 0.956 . S
H1907 C1894 0.961 . S
H1908 C1894 0.961 . S
H1909 C1895 0.958 . S
H1910 C1895 0.961 . S
H1911 C1895 0.960 . S
C1912 C1913 1.391 . S
C1912 C1914 1.394 . S
C1912 H1928 0.931 . S
C1913 C1912 1.391 . S
C1913 C1917 1.376 . S
C1914 C1912 1.394 . S
C1914 C1915 1.369 . S
C1914 C1918 1.531 . S
C1915 C1914 1.369 . S
C1915 C1916 1.410 . S
C1915 C1923 1.503 . S
C1916 C1915 1.410 . S
C1916 C1917 1.392 . S
C1916 C1919 1.511 . S
C1917 C1913 1.376 . S
C1917 C1916 1.392 . S
C1917 H1929 0.929 . S
C1918 C1914 1.531 . S
C1918 H1930 0.960 . S
C1918 H1931 0.962 . S
C1918 H1932 0.960 . S
C1919 C1916 1.511 . S
C1919 H1933 0.961 . S
C1919 H1934 0.961 . S
C1919 H1935 0.961 . S
C1920 C1921 1.370 . S
C1920 C1922 1.363 . S
C1920 H1936 0.931 . S
C1921 C1920 1.370 . S
C1921 C1925 1.408 . S
C1922 C1920 1.363 . S
C1922 C1923 1.370 . S
C1922 C1926 1.524 . S
C1923 C1915 1.503 . S
C1923 C1922 1.370 . S
C1923 C1924 1.403 . S
C1924 C1923 1.403 . S
C1924 C1925 1.404 . S
C1924 C1927 1.539 . S
C1925 C1921 1.408 . S
C1925 C1924 1.404 . S
C1925 H1937 0.930 . S
C1926 C1922 1.524 . S
C1926 H1938 0.956 . S
C1926 H1939 0.961 . S
C1926 H1940 0.961 . S
C1927 C1924 1.539 . S
C1927 H1941 0.958 . S
C1927 H1942 0.961 . S
C1927 H1943 0.960 . S
H1928 C1912 0.931 . S
H1929 C1917 0.929 . S
H1930 C1918 0.960 . S
H1931 C1918 0.962 . S
H1932 C1918 0.960 . S
H1933 C1919 0.961 . S
H1934 C1919 0.961 . S
H1935 C1919 0.961 . S
H1936 C1920 0.931 . S
H1937 C1925 0.930 . S
H1938 C1926 0.956 . S
H1939 C1926 0.961 . S
H1940 C1926 0.961 . S
H1941 C1927 0.958 . S
H1942 C1927 0.961 . S
H1943 C1927 0.960 . S
C1944 C1945 1.391 . S
C1944 C1946 1.394 . S
C1944 H1960 0.931 . S
C1945 C1944 1.391 . S
C1945 C1949 1.376 . S
C1946 C1944 1.394 . S
C1946 C1947 1.369 . S
C1946 C1950 1.531 . S
C1947 C1946 1.369 . S
C1947 C1948 1.410 . S
C1947 C1955 1.503 . S
C1948 C1947 1.410 . S
C1948 C1949 1.392 . S
C1948 C1951 1.511 . S
C1949 C1945 1.376 . S
C1949 C1948 1.392 . S
C1949 H1961 0.929 . S
C1950 C1946 1.531 . S
C1950 H1962 0.960 . S
C1950 H1963 0.962 . S
C1950 H1964 0.960 . S
C1951 C1948 1.511 . S
C1951 H1965 0.961 . S
C1951 H1966 0.961 . S
C1951 H1967 0.961 . S
C1952 C1953 1.370 . S
C1952 C1954 1.363 . S
C1952 H1968 0.931 . S
C1953 C1952 1.370 . S
C1953 C1957 1.408 . S
C1954 C1952 1.363 . S
C1954 C1955 1.370 . S
C1954 C1958 1.524 . S
C1955 C1947 1.503 . S
C1955 C1954 1.370 . S
C1955 C1956 1.403 . S
C1956 C1955 1.403 . S
C1956 C1957 1.404 . S
C1956 C1959 1.539 . S
C1957 C1953 1.408 . S
C1957 C1956 1.404 . S
C1957 H1969 0.930 . S
C1958 C1954 1.524 . S
C1958 H1970 0.956 . S
C1958 H1971 0.961 . S
C1958 H1972 0.961 . S
C1959 C1956 1.539 . S
C1959 H1973 0.958 . S
C1959 H1974 0.961 . S
C1959 H1975 0.960 . S
H1960 C1944 0.931 . S
H1961 C1949 0.929 . S
H1962 C1950 0.960 . S
H1963 C1950 0.962 . S
H1964 C1950 0.960 . S
H1965 C1951 0.961 . S
H1966 C1951 0.961 . S
H1967 C1951 0.961 . S
H1968 C1952 0.931 . S
H1969 C1957 0.930 . S
H1970 C1958 0.956 . S
H1971 C1958 0.961 . S
H1972 C1958 0.961 . S
H1973 C1959 0.958 . S
H1974 C1959 0.961 . S
H1975 C1959 0.960 . S
C1976 C1977 1.391 . S
C1976 C1978 1.394 . S
C1976 H1992 0.931 . S
C1977 C1976 1.391 . S
C1977 C1981 1.376 . S
C1978 C1976 1.394 . S
C1978 C1979 1.369 . S
C1978 C1982 1.531 . S
C1979 C1978 1.369 . S
C1979 C1980 1.410 . S
C1979 C1987 1.503 . S
C1980 C1979 1.410 . S
C1980 C1981 1.392 . S
C1980 C1983 1.511 . S
C1981 C1977 1.376 . S
C1981 C1980 1.392 . S
C1981 H1993 0.929 . S
C1982 C1978 1.531 . S
C1982 H1994 0.960 . S
C1982 H1995 0.962 . S
C1982 H1996 0.960 . S
C1983 C1980 1.511 . S
C1983 H1997 0.961 . S
C1983 H1998 0.961 . S
C1983 H1999 0.961 . S
C1984 C1985 1.370 . S
C1984 C1986 1.363 . S
C1984 H2000 0.931 . S
C1985 C1984 1.370 . S
C1985 C1989 1.408 . S
C1986 C1984 1.363 . S
C1986 C1987 1.370 . S
C1986 C1990 1.524 . S
C1987 C1979 1.503 . S
C1987 C1986 1.370 . S
C1987 C1988 1.403 . S
C1988 C1987 1.403 . S
C1988 C1989 1.404 . S
C1988 C1991 1.539 . S
C1989 C1985 1.408 . S
C1989 C1988 1.404 . S
C1989 H2001 0.930 . S
C1990 C1986 1.524 . S
C1990 H2002 0.956 . S
C1990 H2003 0.961 . S
C1990 H2004 0.961 . S
C1991 C1988 1.539 . S
C1991 H2005 0.958 . S
C1991 H2006 0.961 . S
C1991 H2007 0.960 . S
H1992 C1976 0.931 . S
H1993 C1981 0.929 . S
H1994 C1982 0.960 . S
H1995 C1982 0.962 . S
H1996 C1982 0.960 . S
H1997 C1983 0.961 . S
H1998 C1983 0.961 . S
H1999 C1983 0.961 . S
H2000 C1984 0.931 . S
H2001 C1989 0.930 . S
H2002 C1990 0.956 . S
H2003 C1990 0.961 . S
H2004 C1990 0.961 . S
H2005 C1991 0.958 . S
H2006 C1991 0.961 . S
H2007 C1991 0.960 . S
C2008 C2009 1.391 . S
C2008 C2010 1.394 . S
C2008 H2024 0.931 . S
C2009 C2008 1.391 . S
C2009 C2013 1.376 . S
C2010 C2008 1.394 . S
C2010 C2011 1.369 . S
C2010 C2014 1.531 . S
C2011 C2010 1.369 . S
C2011 C2012 1.410 . S
C2011 C2019 1.503 . S
C2012 C2011 1.410 . S
C2012 C2013 1.392 . S
C2012 C2015 1.511 . S
C2013 C2009 1.376 . S
C2013 C2012 1.392 . S
C2013 H2025 0.929 . S
C2014 C2010 1.531 . S
C2014 H2026 0.960 . S
C2014 H2027 0.962 . S
C2014 H2028 0.960 . S
C2015 C2012 1.511 . S
C2015 H2029 0.961 . S
C2015 H2030 0.961 . S
C2015 H2031 0.961 . S
C2016 C2017 1.370 . S
C2016 C2018 1.363 . S
C2016 H2032 0.931 . S
C2017 C2016 1.370 . S
C2017 C2021 1.408 . S
C2018 C2016 1.363 . S
C2018 C2019 1.370 . S
C2018 C2022 1.524 . S
C2019 C2011 1.503 . S
C2019 C2018 1.370 . S
C2019 C2020 1.403 . S
C2020 C2019 1.403 . S
C2020 C2021 1.404 . S
C2020 C2023 1.539 . S
C2021 C2017 1.408 . S
C2021 C2020 1.404 . S
C2021 H2033 0.930 . S
C2022 C2018 1.524 . S
C2022 H2034 0.956 . S
C2022 H2035 0.961 . S
C2022 H2036 0.961 . S
C2023 C2020 1.539 . S
C2023 H2037 0.958 . S
C2023 H2038 0.961 . S
C2023 H2039 0.960 . S
H2024 C2008 0.931 . S
H2025 C2013 0.929 . S
H2026 C2014 0.960 . S
H2027 C2014 0.962 . S
H2028 C2014 0.960 . S
H2029 C2015 0.961 . S
H2030 C2015 0.961 . S
H2031 C2015 0.961 . S
H2032 C2016 0.931 . S
H2033 C2021 0.930 . S
H2034 C2022 0.956 . S
H2035 C2022 0.961 . S
H2036 C2022 0.961 . S
H2037 C2023 0.958 . S
H2038 C2023 0.961 . S
H2039 C2023 0.960 . S
C2040 C2041 1.391 . S
C2040 C2042 1.394 . S
C2040 H2056 0.931 . S
C2041 C2040 1.391 . S
C2041 C2045 1.376 . S
C2042 C2040 1.394 . S
C2042 C2043 1.369 . S
C2042 C2046 1.531 . S
C2043 C2042 1.369 . S
C2043 C2044 1.410 . S
C2043 C2051 1.503 . S
C2044 C2043 1.410 . S
C2044 C2045 1.392 . S
C2044 C2047 1.511 . S
C2045 C2041 1.376 . S
C2045 C2044 1.392 . S
C2045 H2057 0.929 . S
C2046 C2042 1.531 . S
C2046 H2058 0.960 . S
C2046 H2059 0.962 . S
C2046 H2060 0.960 . S
C2047 C2044 1.511 . S
C2047 H2061 0.961 . S
C2047 H2062 0.961 . S
C2047 H2063 0.961 . S
C2048 C2049 1.370 . S
C2048 C2050 1.363 . S
C2048 H2064 0.931 . S
C2049 C2048 1.370 . S
C2049 C2053 1.408 . S
C2050 C2048 1.363 . S
C2050 C2051 1.370 . S
C2050 C2054 1.524 . S
C2051 C2043 1.503 . S
C2051 C2050 1.370 . S
C2051 C2052 1.403 . S
C2052 C2051 1.403 . S
C2052 C2053 1.404 . S
C2052 C2055 1.539 . S
C2053 C2049 1.408 . S
C2053 C2052 1.404 . S
C2053 H2065 0.930 . S
C2054 C2050 1.524 . S
C2054 H2066 0.956 . S
C2054 H2067 0.961 . S
C2054 H2068 0.961 . S
C2055 C2052 1.539 . S
C2055 H2069 0.958 . S
C2055 H2070 0.961 . S
C2055 H2071 0.960 . S
H2056 C2040 0.931 . S
H2057 C2045 0.929 . S
H2058 C2046 0.960 . S
H2059 C2046 0.962 . S
H2060 C2046 0.960 . S
H2061 C2047 0.961 . S
H2062 C2047 0.961 . S
H2063 C2047 0.961 . S
H2064 C2048 0.931 . S
H2065 C2053 0.930 . S
H2066 C2054 0.956 . S
H2067 C2054 0.961 . S
H2068 C2054 0.961 . S
H2069 C2055 0.958 . S
H2070 C2055 0.961 . S
H2071 C2055 0.960 . S
C2072 C2073 1.391 . S
C2072 C2074 1.394 . S
C2072 H2088 0.931 . S
C2073 C2072 1.391 . S
C2073 C2077 1.376 . S
C2074 C2072 1.394 . S
C2074 C2075 1.369 . S
C2074 C2078 1.531 . S
C2075 C2074 1.369 . S
C2075 C2076 1.410 . S
C2075 C2083 1.503 . S
C2076 C2075 1.410 . S
C2076 C2077 1.392 . S
C2076 C2079 1.511 . S
C2077 C2073 1.376 . S
C2077 C2076 1.392 . S
C2077 H2089 0.929 . S
C2078 C2074 1.531 . S
C2078 H2090 0.960 . S
C2078 H2091 0.962 . S
C2078 H2092 0.960 . S
C2079 C2076 1.511 . S
C2079 H2093 0.961 . S
C2079 H2094 0.961 . S
C2079 H2095 0.961 . S
C2080 C2081 1.370 . S
C2080 C2082 1.363 . S
C2080 H2096 0.931 . S
C2081 C2080 1.370 . S
C2081 C2085 1.408 . S
C2082 C2080 1.363 . S
C2082 C2083 1.370 . S
C2082 C2086 1.524 . S
C2083 C2075 1.503 . S
C2083 C2082 1.370 . S
C2083 C2084 1.403 . S
C2084 C2083 1.403 . S
C2084 C2085 1.404 . S
C2084 C2087 1.539 . S
C2085 C2081 1.408 . S
C2085 C2084 1.404 . S
C2085 H2097 0.930 . S
C2086 C2082 1.524 . S
C2086 H2098 0.956 . S
C2086 H2099 0.961 . S
C2086 H2100 0.961 . S
C2087 C2084 1.539 . S
C2087 H2101 0.958 . S
C2087 H2102 0.961 . S
C2087 H2103 0.960 . S
H2088 C2072 0.931 . S
H2089 C2077 0.929 . S
H2090 C2078 0.960 . S
H2091 C2078 0.962 . S
H2092 C2078 0.960 . S
H2093 C2079 0.961 . S
H2094 C2079 0.961 . S
H2095 C2079 0.961 . S
H2096 C2080 0.931 . S
H2097 C2085 0.930 . S
H2098 C2086 0.956 . S
H2099 C2086 0.961 . S
H2100 C2086 0.961 . S
H2101 C2087 0.958 . S
H2102 C2087 0.961 . S
H2103 C2087 0.960 . S
C2104 C2105 1.391 . S
C2104 C2106 1.394 . S
C2104 H2120 0.931 . S
C2105 C2104 1.391 . S
C2105 C2109 1.376 . S
C2106 C2104 1.394 . S
C2106 C2107 1.369 . S
C2106 C2110 1.531 . S
C2107 C2106 1.369 . S
C2107 C2108 1.410 . S
C2107 C2115 1.503 . S
C2108 C2107 1.410 . S
C2108 C2109 1.392 . S
C2108 C2111 1.511 . S
C2109 C2105 1.376 . S
C2109 C2108 1.392 . S
C2109 H2121 0.929 . S
C2110 C2106 1.531 . S
C2110 H2122 0.960 . S
C2110 H2123 0.962 . S
C2110 H2124 0.960 . S
C2111 C2108 1.511 . S
C2111 H2125 0.961 . S
C2111 H2126 0.961 . S
C2111 H2127 0.961 . S
C2112 C2113 1.370 . S
C2112 C2114 1.363 . S
C2112 H2128 0.931 . S
C2113 C2112 1.370 . S
C2113 C2117 1.408 . S
C2114 C2112 1.363 . S
C2114 C2115 1.370 . S
C2114 C2118 1.524 . S
C2115 C2107 1.503 . S
C2115 C2114 1.370 . S
C2115 C2116 1.403 . S
C2116 C2115 1.403 . S
C2116 C2117 1.404 . S
C2116 C2119 1.539 . S
C2117 C2113 1.408 . S
C2117 C2116 1.404 . S
C2117 H2129 0.930 . S
C2118 C2114 1.524 . S
C2118 H2130 0.956 . S
C2118 H2131 0.961 . S
C2118 H2132 0.961 . S
C2119 C2116 1.539 . S
C2119 H2133 0.958 . S
C2119 H2134 0.961 . S
C2119 H2135 0.960 . S
H2120 C2104 0.931 . S
H2121 C2109 0.929 . S
H2122 C2110 0.960 . S
H2123 C2110 0.962 . S
H2124 C2110 0.960 . S
H2125 C2111 0.961 . S
H2126 C2111 0.961 . S
H2127 C2111 0.961 . S
H2128 C2112 0.931 . S
H2129 C2117 0.930 . S
H2130 C2118 0.956 . S
H2131 C2118 0.961 . S
H2132 C2118 0.961 . S
H2133 C2119 0.958 . S
H2134 C2119 0.961 . S
H2135 C2119 0.960 . S
C2136 C2137 1.391 . S
C2136 C2138 1.394 . S
C2136 H2152 0.931 . S
C2137 C2136 1.391 . S
C2137 C2141 1.376 . S
C2138 C2136 1.394 . S
C2138 C2139 1.369 . S
C2138 C2142 1.531 . S
C2139 C2138 1.369 . S
C2139 C2140 1.410 . S
C2139 C2147 1.503 . S
C2140 C2139 1.410 . S
C2140 C2141 1.392 . S
C2140 C2143 1.511 . S
C2141 C2137 1.376 . S
C2141 C2140 1.392 . S
C2141 H2153 0.929 . S
C2142 C2138 1.531 . S
C2142 H2154 0.960 . S
C2142 H2155 0.962 . S
C2142 H2156 0.960 . S
C2143 C2140 1.511 . S
C2143 H2157 0.961 . S
C2143 H2158 0.961 . S
C2143 H2159 0.961 . S
C2144 C2145 1.370 . S
C2144 C2146 1.363 . S
C2144 H2160 0.931 . S
C2145 C2144 1.370 . S
C2145 C2149 1.408 . S
C2146 C2144 1.363 . S
C2146 C2147 1.370 . S
C2146 C2150 1.524 . S
C2147 C2139 1.503 . S
C2147 C2146 1.370 . S
C2147 C2148 1.403 . S
C2148 C2147 1.403 . S
C2148 C2149 1.404 . S
C2148 C2151 1.539 . S
C2149 C2145 1.408 . S
C2149 C2148 1.404 . S
C2149 H2161 0.930 . S
C2150 C2146 1.524 . S
C2150 H2162 0.956 . S
C2150 H2163 0.961 . S
C2150 H2164 0.961 . S
C2151 C2148 1.539 . S
C2151 H2165 0.958 . S
C2151 H2166 0.961 . S
C2151 H2167 0.960 . S
H2152 C2136 0.931 . S
H2153 C2141 0.929 . S
H2154 C2142 0.960 . S
H2155 C2142 0.962 . S
H2156 C2142 0.960 . S
H2157 C2143 0.961 . S
H2158 C2143 0.961 . S
H2159 C2143 0.961 . S
H2160 C2144 0.931 . S
H2161 C2149 0.930 . S
H2162 C2150 0.956 . S
H2163 C2150 0.961 . S
H2164 C2150 0.961 . S
H2165 C2151 0.958 . S
H2166 C2151 0.961 . S
H2167 C2151 0.960 . S
C2168 C2169 1.391 . S
C2168 C2170 1.394 . S
C2168 H2184 0.931 . S
C2169 C2168 1.391 . S
C2169 C2173 1.376 . S
C2170 C2168 1.394 . S
C2170 C2171 1.369 . S
C2170 C2174 1.531 . S
C2171 C2170 1.369 . S
C2171 C2172 1.410 . S
C2171 C2179 1.503 . S
C2172 C2171 1.410 . S
C2172 C2173 1.392 . S
C2172 C2175 1.511 . S
C2173 C2169 1.376 . S
C2173 C2172 1.392 . S
C2173 H2185 0.929 . S
C2174 C2170 1.531 . S
C2174 H2186 0.960 . S
C2174 H2187 0.962 . S
C2174 H2188 0.960 . S
C2175 C2172 1.511 . S
C2175 H2189 0.961 . S
C2175 H2190 0.961 . S
C2175 H2191 0.961 . S
C2176 C2177 1.370 . S
C2176 C2178 1.363 . S
C2176 H2192 0.931 . S
C2177 C2176 1.370 . S
C2177 C2181 1.408 . S
C2178 C2176 1.363 . S
C2178 C2179 1.370 . S
C2178 C2182 1.524 . S
C2179 C2171 1.503 . S
C2179 C2178 1.370 . S
C2179 C2180 1.403 . S
C2180 C2179 1.403 . S
C2180 C2181 1.404 . S
C2180 C2183 1.539 . S
C2181 C2177 1.408 . S
C2181 C2180 1.404 . S
C2181 H2193 0.930 . S
C2182 C2178 1.524 . S
C2182 H2194 0.956 . S
C2182 H2195 0.961 . S
C2182 H2196 0.961 . S
C2183 C2180 1.539 . S
C2183 H2197 0.958 . S
C2183 H2198 0.961 . S
C2183 H2199 0.960 . S
H2184 C2168 0.931 . S
H2185 C2173 0.929 . S
H2186 C2174 0.960 . S
H2187 C2174 0.962 . S
H2188 C2174 0.960 . S
H2189 C2175 0.961 . S
H2190 C2175 0.961 . S
H2191 C2175 0.961 . S
H2192 C2176 0.931 . S
H2193 C2181 0.930 . S
H2194 C2182 0.956 . S
H2195 C2182 0.961 . S
H2196 C2182 0.961 . S
H2197 C2183 0.958 . S
H2198 C2183 0.961 . S
H2199 C2183 0.960 . S
C2200 C2201 1.391 . S
C2200 C2202 1.394 . S
C2200 H2216 0.931 . S
C2201 C2200 1.391 . S
C2201 C2205 1.376 . S
C2202 C2200 1.394 . S
C2202 C2203 1.369 . S
C2202 C2206 1.531 . S
C2203 C2202 1.369 . S
C2203 C2204 1.410 . S
C2203 C2211 1.503 . S
C2204 C2203 1.410 . S
C2204 C2205 1.392 . S
C2204 C2207 1.511 . S
C2205 C2201 1.376 . S
C2205 C2204 1.392 . S
C2205 H2217 0.929 . S
C2206 C2202 1.531 . S
C2206 H2218 0.960 . S
C2206 H2219 0.962 . S
C2206 H2220 0.960 . S
C2207 C2204 1.511 . S
C2207 H2221 0.961 . S
C2207 H2222 0.961 . S
C2207 H2223 0.961 . S
C2208 C2209 1.370 . S
C2208 C2210 1.363 . S
C2208 H2224 0.931 . S
C2209 C2208 1.370 . S
C2209 C2213 1.408 . S
C2210 C2208 1.363 . S
C2210 C2211 1.370 . S
C2210 C2214 1.524 . S
C2211 C2203 1.503 . S
C2211 C2210 1.370 . S
C2211 C2212 1.403 . S
C2212 C2211 1.403 . S
C2212 C2213 1.404 . S
C2212 C2215 1.539 . S
C2213 C2209 1.408 . S
C2213 C2212 1.404 . S
C2213 H2225 0.930 . S
C2214 C2210 1.524 . S
C2214 H2226 0.956 . S
C2214 H2227 0.961 . S
C2214 H2228 0.961 . S
C2215 C2212 1.539 . S
C2215 H2229 0.958 . S
C2215 H2230 0.961 . S
C2215 H2231 0.960 . S
H2216 C2200 0.931 . S
H2217 C2205 0.929 . S
H2218 C2206 0.960 . S
H2219 C2206 0.962 . S
H2220 C2206 0.960 . S
H2221 C2207 0.961 . S
H2222 C2207 0.961 . S
H2223 C2207 0.961 . S
H2224 C2208 0.931 . S
H2225 C2213 0.930 . S
H2226 C2214 0.956 . S
H2227 C2214 0.961 . S
H2228 C2214 0.961 . S
H2229 C2215 0.958 . S
H2230 C2215 0.961 . S
H2231 C2215 0.960 . S
C2232 C2233 1.391 . S
C2232 C2234 1.394 . S
C2232 H2248 0.931 . S
C2233 C2232 1.391 . S
C2233 C2237 1.376 . S
C2234 C2232 1.394 . S
C2234 C2235 1.369 . S
C2234 C2238 1.531 . S
C2235 C2234 1.369 . S
C2235 C2236 1.410 . S
C2235 C2243 1.503 . S
C2236 C2235 1.410 . S
C2236 C2237 1.392 . S
C2236 C2239 1.511 . S
C2237 C2233 1.376 . S
C2237 C2236 1.392 . S
C2237 H2249 0.929 . S
C2238 C2234 1.531 . S
C2238 H2250 0.960 . S
C2238 H2251 0.962 . S
C2238 H2252 0.960 . S
C2239 C2236 1.511 . S
C2239 H2253 0.961 . S
C2239 H2254 0.961 . S
C2239 H2255 0.961 . S
C2240 C2241 1.370 . S
C2240 C2242 1.363 . S
C2240 H2256 0.931 . S
C2241 C2240 1.370 . S
C2241 C2245 1.408 . S
C2242 C2240 1.363 . S
C2242 C2243 1.370 . S
C2242 C2246 1.524 . S
C2243 C2235 1.503 . S
C2243 C2242 1.370 . S
C2243 C2244 1.403 . S
C2244 C2243 1.403 . S
C2244 C2245 1.404 . S
C2244 C2247 1.539 . S
C2245 C2241 1.408 . S
C2245 C2244 1.404 . S
C2245 H2257 0.930 . S
C2246 C2242 1.524 . S
C2246 H2258 0.956 . S
C2246 H2259 0.961 . S
C2246 H2260 0.961 . S
C2247 C2244 1.539 . S
C2247 H2261 0.958 . S
C2247 H2262 0.961 . S
C2247 H2263 0.960 . S
H2248 C2232 0.931 . S
H2249 C2237 0.929 . S
H2250 C2238 0.960 . S
H2251 C2238 0.962 . S
H2252 C2238 0.960 . S
H2253 C2239 0.961 . S
H2254 C2239 0.961 . S
H2255 C2239 0.961 . S
H2256 C2240 0.931 . S
H2257 C2245 0.930 . S
H2258 C2246 0.956 . S
H2259 C2246 0.961 . S
H2260 C2246 0.961 . S
H2261 C2247 0.958 . S
H2262 C2247 0.961 . S
H2263 C2247 0.960 . S
C2264 C2265 1.391 . S
C2264 C2266 1.394 . S
C2264 H2280 0.931 . S
C2265 C2264 1.391 . S
C2265 C2269 1.376 . S
C2266 C2264 1.394 . S
C2266 C2267 1.369 . S
C2266 C2270 1.531 . S
C2267 C2266 1.369 . S
C2267 C2268 1.410 . S
C2267 C2275 1.503 . S
C2268 C2267 1.410 . S
C2268 C2269 1.392 . S
C2268 C2271 1.511 . S
C2269 C2265 1.376 . S
C2269 C2268 1.392 . S
C2269 H2281 0.929 . S
C2270 C2266 1.531 . S
C2270 H2282 0.960 . S
C2270 H2283 0.962 . S
C2270 H2284 0.960 . S
C2271 C2268 1.511 . S
C2271 H2285 0.961 . S
C2271 H2286 0.961 . S
C2271 H2287 0.961 . S
C2272 C2273 1.370 . S
C2272 C2274 1.363 . S
C2272 H2288 0.931 . S
C2273 C2272 1.370 . S
C2273 C2277 1.408 . S
C2274 C2272 1.363 . S
C2274 C2275 1.370 . S
C2274 C2278 1.524 . S
C2275 C2267 1.503 . S
C2275 C2274 1.370 . S
C2275 C2276 1.403 . S
C2276 C2275 1.403 . S
C2276 C2277 1.404 . S
C2276 C2279 1.539 . S
C2277 C2273 1.408 . S
C2277 C2276 1.404 . S
C2277 H2289 0.930 . S
C2278 C2274 1.524 . S
C2278 H2290 0.956 . S
C2278 H2291 0.961 . S
C2278 H2292 0.961 . S
C2279 C2276 1.539 . S
C2279 H2293 0.958 . S
C2279 H2294 0.961 . S
C2279 H2295 0.960 . S
H2280 C2264 0.931 . S
H2281 C2269 0.929 . S
H2282 C2270 0.960 . S
H2283 C2270 0.962 . S
H2284 C2270 0.960 . S
H2285 C2271 0.961 . S
H2286 C2271 0.961 . S
H2287 C2271 0.961 . S
H2288 C2272 0.931 . S
H2289 C2277 0.930 . S
H2290 C2278 0.956 . S
H2291 C2278 0.961 . S
H2292 C2278 0.961 . S
H2293 C2279 0.958 . S
H2294 C2279 0.961 . S
H2295 C2279 0.960 . S
C2296 C2297 1.391 . S
C2296 C2298 1.394 . S
C2296 H2312 0.931 . S
C2297 C2296 1.391 . S
C2297 C2301 1.376 . S
C2298 C2296 1.394 . S
C2298 C2299 1.369 . S
C2298 C2302 1.531 . S
C2299 C2298 1.369 . S
C2299 C2300 1.410 . S
C2299 C2307 1.503 . S
C2300 C2299 1.410 . S
C2300 C2301 1.392 . S
C2300 C2303 1.511 . S
C2301 C2297 1.376 . S
C2301 C2300 1.392 . S
C2301 H2313 0.929 . S
C2302 C2298 1.531 . S
C2302 H2314 0.960 . S
C2302 H2315 0.962 . S
C2302 H2316 0.960 . S
C2303 C2300 1.511 . S
C2303 H2317 0.961 . S
C2303 H2318 0.961 . S
C2303 H2319 0.961 . S
C2304 C2305 1.370 . S
C2304 C2306 1.363 . S
C2304 H2320 0.931 . S
C2305 C2304 1.370 . S
C2305 C2309 1.408 . S
C2306 C2304 1.363 . S
C2306 C2307 1.370 . S
C2306 C2310 1.524 . S
C2307 C2299 1.503 . S
C2307 C2306 1.370 . S
C2307 C2308 1.403 . S
C2308 C2307 1.403 . S
C2308 C2309 1.404 . S
C2308 C2311 1.539 . S
C2309 C2305 1.408 . S
C2309 C2308 1.404 . S
C2309 H2321 0.930 . S
C2310 C2306 1.524 . S
C2310 H2322 0.956 . S
C2310 H2323 0.961 . S
C2310 H2324 0.961 . S
C2311 C2308 1.539 . S
C2311 H2325 0.958 . S
C2311 H2326 0.961 . S
C2311 H2327 0.960 . S
H2312 C2296 0.931 . S
H2313 C2301 0.929 . S
H2314 C2302 0.960 . S
H2315 C2302 0.962 . S
H2316 C2302 0.960 . S
H2317 C2303 0.961 . S
H2318 C2303 0.961 . S
H2319 C2303 0.961 . S
H2320 C2304 0.931 . S
H2321 C2309 0.930 . S
H2322 C2310 0.956 . S
H2323 C2310 0.961 . S
H2324 C2310 0.961 . S
H2325 C2311 0.958 . S
H2326 C2311 0.961 . S
H2327 C2311 0.960 . S
C2328 C2329 1.391 . S
C2328 C2330 1.394 . S
C2328 H2344 0.931 . S
C2329 C2328 1.391 . S
C2329 C2333 1.376 . S
C2330 C2328 1.394 . S
C2330 C2331 1.369 . S
C2330 C2334 1.531 . S
C2331 C2330 1.369 . S
C2331 C2332 1.410 . S
C2331 C2339 1.503 . S
C2332 C2331 1.410 . S
C2332 C2333 1.392 . S
C2332 C2335 1.511 . S
C2333 C2329 1.376 . S
C2333 C2332 1.392 . S
C2333 H2345 0.929 . S
C2334 C2330 1.531 . S
C2334 H2346 0.960 . S
C2334 H2347 0.962 . S
C2334 H2348 0.960 . S
C2335 C2332 1.511 . S
C2335 H2349 0.961 . S
C2335 H2350 0.961 . S
C2335 H2351 0.961 . S
C2336 C2337 1.370 . S
C2336 C2338 1.363 . S
C2336 H2352 0.931 . S
C2337 C2336 1.370 . S
C2337 C2341 1.408 . S
C2338 C2336 1.363 . S
C2338 C2339 1.370 . S
C2338 C2342 1.524 . S
C2339 C2331 1.503 . S
C2339 C2338 1.370 . S
C2339 C2340 1.403 . S
C2340 C2339 1.403 . S
C2340 C2341 1.404 . S
C2340 C2343 1.539 . S
C2341 C2337 1.408 . S
C2341 C2340 1.404 . S
C2341 H2353 0.930 . S
C2342 C2338 1.524 . S
C2342 H2354 0.956 . S
C2342 H2355 0.961 . S
C2342 H2356 0.961 . S
C2343 C2340 1.539 . S
C2343 H2357 0.958 . S
C2343 H2358 0.961 . S
C2343 H2359 0.960 . S
H2344 C2328 0.931 . S
H2345 C2333 0.929 . S
H2346 C2334 0.960 . S
H2347 C2334 0.962 . S
H2348 C2334 0.960 . S
H2349 C2335 0.961 . S
H2350 C2335 0.961 . S
H2351 C2335 0.961 . S
H2352 C2336 0.931 . S
H2353 C2341 0.930 . S
H2354 C2342 0.956 . S
H2355 C2342 0.961 . S
H2356 C2342 0.961 . S
H2357 C2343 0.958 . S
H2358 C2343 0.961 . S
H2359 C2343 0.960 . S
C2360 C2361 1.391 . S
C2360 C2362 1.394 . S
C2360 H2376 0.931 . S
C2361 C2360 1.391 . S
C2361 C2365 1.376 . S
C2362 C2360 1.394 . S
C2362 C2363 1.369 . S
C2362 C2366 1.531 . S
C2363 C2362 1.369 . S
C2363 C2364 1.410 . S
C2363 C2371 1.503 . S
C2364 C2363 1.410 . S
C2364 C2365 1.392 . S
C2364 C2367 1.511 . S
C2365 C2361 1.376 . S
C2365 C2364 1.392 . S
C2365 H2377 0.929 . S
C2366 C2362 1.531 . S
C2366 H2378 0.960 . S
C2366 H2379 0.962 . S
C2366 H2380 0.960 . S
C2367 C2364 1.511 . S
C2367 H2381 0.961 . S
C2367 H2382 0.961 . S
C2367 H2383 0.961 . S
C2368 C2369 1.370 . S
C2368 C2370 1.363 . S
C2368 H2384 0.931 . S
C2369 C2368 1.370 . S
C2369 C2373 1.408 . S
C2370 C2368 1.363 . S
C2370 C2371 1.370 . S
C2370 C2374 1.524 . S
C2371 C2363 1.503 . S
C2371 C2370 1.370 . S
C2371 C2372 1.403 . S
C2372 C2371 1.403 . S
C2372 C2373 1.404 . S
C2372 C2375 1.539 . S
C2373 C2369 1.408 . S
C2373 C2372 1.404 . S
C2373 H2385 0.930 . S
C2374 C2370 1.524 . S
C2374 H2386 0.956 . S
C2374 H2387 0.961 . S
C2374 H2388 0.961 . S
C2375 C2372 1.539 . S
C2375 H2389 0.958 . S
C2375 H2390 0.961 . S
C2375 H2391 0.960 . S
H2376 C2360 0.931 . S
H2377 C2365 0.929 . S
H2378 C2366 0.960 . S
H2379 C2366 0.962 . S
H2380 C2366 0.960 . S
H2381 C2367 0.961 . S
H2382 C2367 0.961 . S
H2383 C2367 0.961 . S
H2384 C2368 0.931 . S
H2385 C2373 0.930 . S
H2386 C2374 0.956 . S
H2387 C2374 0.961 . S
H2388 C2374 0.961 . S
H2389 C2375 0.958 . S
H2390 C2375 0.961 . S
H2391 C2375 0.960 . S
C2392 C2393 1.391 . S
C2392 C2394 1.394 . S
C2392 H2408 0.931 . S
C2393 C2392 1.391 . S
C2393 C2397 1.376 . S
C2394 C2392 1.394 . S
C2394 C2395 1.369 . S
C2394 C2398 1.531 . S
C2395 C2394 1.369 . S
C2395 C2396 1.410 . S
C2395 C2403 1.503 . S
C2396 C2395 1.410 . S
C2396 C2397 1.392 . S
C2396 C2399 1.511 . S
C2397 C2393 1.376 . S
C2397 C2396 1.392 . S
C2397 H2409 0.929 . S
C2398 C2394 1.531 . S
C2398 H2410 0.960 . S
C2398 H2411 0.962 . S
C2398 H2412 0.960 . S
C2399 C2396 1.511 . S
C2399 H2413 0.961 . S
C2399 H2414 0.961 . S
C2399 H2415 0.961 . S
C2400 C2401 1.370 . S
C2400 C2402 1.363 . S
C2400 H2416 0.931 . S
C2401 C2400 1.370 . S
C2401 C2405 1.408 . S
C2402 C2400 1.363 . S
C2402 C2403 1.370 . S
C2402 C2406 1.524 . S
C2403 C2395 1.503 . S
C2403 C2402 1.370 . S
C2403 C2404 1.403 . S
C2404 C2403 1.403 . S
C2404 C2405 1.404 . S
C2404 C2407 1.539 . S
C2405 C2401 1.408 . S
C2405 C2404 1.404 . S
C2405 H2417 0.930 . S
C2406 C2402 1.524 . S
C2406 H2418 0.956 . S
C2406 H2419 0.961 . S
C2406 H2420 0.961 . S
C2407 C2404 1.539 . S
C2407 H2421 0.958 . S
C2407 H2422 0.961 . S
C2407 H2423 0.960 . S
H2408 C2392 0.931 . S
H2409 C2397 0.929 . S
H2410 C2398 0.960 . S
H2411 C2398 0.962 . S
H2412 C2398 0.960 . S
H2413 C2399 0.961 . S
H2414 C2399 0.961 . S
H2415 C2399 0.961 . S
H2416 C2400 0.931 . S
H2417 C2405 0.930 . S
H2418 C2406 0.956 . S
H2419 C2406 0.961 . S
H2420 C2406 0.961 . S
H2421 C2407 0.958 . S
H2422 C2407 0.961 . S
H2423 C2407 0.960 . S
C2424 C2425 1.391 . S
C2424 C2426 1.394 . S
C2424 H2440 0.931 . S
C2425 C2424 1.391 . S
C2425 C2429 1.376 . S
C2426 C2424 1.394 . S
C2426 C2427 1.369 . S
C2426 C2430 1.531 . S
C2427 C2426 1.369 . S
C2427 C2428 1.410 . S
C2427 C2435 1.503 . S
C2428 C2427 1.410 . S
C2428 C2429 1.392 . S
C2428 C2431 1.511 . S
C2429 C2425 1.376 . S
C2429 C2428 1.392 . S
C2429 H2441 0.929 . S
C2430 C2426 1.531 . S
C2430 H2442 0.960 . S
C2430 H2443 0.962 . S
C2430 H2444 0.960 . S
C2431 C2428 1.511 . S
C2431 H2445 0.961 . S
C2431 H2446 0.961 . S
C2431 H2447 0.961 . S
C2432 C2433 1.370 . S
C2432 C2434 1.363 . S
C2432 H2448 0.931 . S
C2433 C2432 1.370 . S
C2433 C2437 1.408 . S
C2434 C2432 1.363 . S
C2434 C2435 1.370 . S
C2434 C2438 1.524 . S
C2435 C2427 1.503 . S
C2435 C2434 1.370 . S
C2435 C2436 1.403 . S
C2436 C2435 1.403 . S
C2436 C2437 1.404 . S
C2436 C2439 1.539 . S
C2437 C2433 1.408 . S
C2437 C2436 1.404 . S
C2437 H2449 0.930 . S
C2438 C2434 1.524 . S
C2438 H2450 0.956 . S
C2438 H2451 0.961 . S
C2438 H2452 0.961 . S
C2439 C2436 1.539 . S
C2439 H2453 0.958 . S
C2439 H2454 0.961 . S
C2439 H2455 0.960 . S
H2440 C2424 0.931 . S
H2441 C2429 0.929 . S
H2442 C2430 0.960 . S
H2443 C2430 0.962 . S
H2444 C2430 0.960 . S
H2445 C2431 0.961 . S
H2446 C2431 0.961 . S
H2447 C2431 0.961 . S
H2448 C2432 0.931 . S
H2449 C2437 0.930 . S
H2450 C2438 0.956 . S
H2451 C2438 0.961 . S
H2452 C2438 0.961 . S
H2453 C2439 0.958 . S
H2454 C2439 0.961 . S
H2455 C2439 0.960 . S
C2456 C2457 1.391 . S
C2456 C2458 1.394 . S
C2456 H2472 0.931 . S
C2457 C2456 1.391 . S
C2457 C2461 1.376 . S
C2458 C2456 1.394 . S
C2458 C2459 1.369 . S
C2458 C2462 1.531 . S
C2459 C2458 1.369 . S
C2459 C2460 1.410 . S
C2459 C2467 1.503 . S
C2460 C2459 1.410 . S
C2460 C2461 1.392 . S
C2460 C2463 1.511 . S
C2461 C2457 1.376 . S
C2461 C2460 1.392 . S
C2461 H2473 0.929 . S
C2462 C2458 1.531 . S
C2462 H2474 0.960 . S
C2462 H2475 0.962 . S
C2462 H2476 0.960 . S
C2463 C2460 1.511 . S
C2463 H2477 0.961 . S
C2463 H2478 0.961 . S
C2463 H2479 0.961 . S
C2464 C2465 1.370 . S
C2464 C2466 1.363 . S
C2464 H2480 0.931 . S
C2465 C2464 1.370 . S
C2465 C2469 1.408 . S
C2466 C2464 1.363 . S
C2466 C2467 1.370 . S
C2466 C2470 1.524 . S
C2467 C2459 1.503 . S
C2467 C2466 1.370 . S
C2467 C2468 1.403 . S
C2468 C2467 1.403 . S
C2468 C2469 1.404 . S
C2468 C2471 1.539 . S
C2469 C2465 1.408 . S
C2469 C2468 1.404 . S
C2469 H2481 0.930 . S
C2470 C2466 1.524 . S
C2470 H2482 0.956 . S
C2470 H2483 0.961 . S
C2470 H2484 0.961 . S
C2471 C2468 1.539 . S
C2471 H2485 0.958 . S
C2471 H2486 0.961 . S
C2471 H2487 0.960 . S
H2472 C2456 0.931 . S
H2473 C2461 0.929 . S
H2474 C2462 0.960 . S
H2475 C2462 0.962 . S
H2476 C2462 0.960 . S
H2477 C2463 0.961 . S
H2478 C2463 0.961 . S
H2479 C2463 0.961 . S
H2480 C2464 0.931 . S
H2481 C2469 0.930 . S
H2482 C2470 0.956 . S
H2483 C2470 0.961 . S
H2484 C2470 0.961 . S
H2485 C2471 0.958 . S
H2486 C2471 0.961 . S
H2487 C2471 0.960 . S
C2488 C2489 1.391 . S
C2488 C2490 1.394 . S
C2488 H2504 0.931 . S
C2489 C2488 1.391 . S
C2489 C2493 1.376 . S
C2490 C2488 1.394 . S
C2490 C2491 1.369 . S
C2490 C2494 1.531 . S
C2491 C2490 1.369 . S
C2491 C2492 1.410 . S
C2491 C2499 1.503 . S
C2492 C2491 1.410 . S
C2492 C2493 1.392 . S
C2492 C2495 1.511 . S
C2493 C2489 1.376 . S
C2493 C2492 1.392 . S
C2493 H2505 0.929 . S
C2494 C2490 1.531 . S
C2494 H2506 0.960 . S
C2494 H2507 0.962 . S
C2494 H2508 0.960 . S
C2495 C2492 1.511 . S
C2495 H2509 0.961 . S
C2495 H2510 0.961 . S
C2495 H2511 0.961 . S
C2496 C2497 1.370 . S
C2496 C2498 1.363 . S
C2496 H2512 0.931 . S
C2497 C2496 1.370 . S
C2497 C2501 1.408 . S
C2498 C2496 1.363 . S
C2498 C2499 1.370 . S
C2498 C2502 1.524 . S
C2499 C2491 1.503 . S
C2499 C2498 1.370 . S
C2499 C2500 1.403 . S
C2500 C2499 1.403 . S
C2500 C2501 1.404 . S
C2500 C2503 1.539 . S
C2501 C2497 1.408 . S
C2501 C2500 1.404 . S
C2501 H2513 0.930 . S
C2502 C2498 1.524 . S
C2502 H2514 0.956 . S
C2502 H2515 0.961 . S
C2502 H2516 0.961 . S
C2503 C2500 1.539 . S
C2503 H2517 0.958 . S
C2503 H2518 0.961 . S
C2503 H2519 0.960 . S
H2504 C2488 0.931 . S
H2505 C2493 0.929 . S
H2506 C2494 0.960 . S
H2507 C2494 0.962 . S
H2508 C2494 0.960 . S
H2509 C2495 0.961 . S
H2510 C2495 0.961 . S
H2511 C2495 0.961 . S
H2512 C2496 0.931 . S
H2513 C2501 0.930 . S
H2514 C2502 0.956 . S
H2515 C2502 0.961 . S
H2516 C2502 0.961 . S
H2517 C2503 0.958 . S
H2518 C2503 0.961 . S
H2519 C2503 0.960 . S
C2520 C2521 1.391 . S
C2520 C2522 1.394 . S
C2520 H2536 0.931 . S
C2521 C2520 1.391 . S
C2521 C2525 1.376 . S
C2522 C2520 1.394 . S
C2522 C2523 1.369 . S
C2522 C2526 1.531 . S
C2523 C2522 1.369 . S
C2523 C2524 1.410 . S
C2523 C2531 1.503 . S
C2524 C2523 1.410 . S
C2524 C2525 1.392 . S
C2524 C2527 1.511 . S
C2525 C2521 1.376 . S
C2525 C2524 1.392 . S
C2525 H2537 0.929 . S
C2526 C2522 1.531 . S
C2526 H2538 0.960 . S
C2526 H2539 0.962 . S
C2526 H2540 0.960 . S
C2527 C2524 1.511 . S
C2527 H2541 0.961 . S
C2527 H2542 0.961 . S
C2527 H2543 0.961 . S
C2528 C2529 1.370 . S
C2528 C2530 1.363 . S
C2528 H2544 0.931 . S
C2529 C2528 1.370 . S
C2529 C2533 1.408 . S
C2530 C2528 1.363 . S
C2530 C2531 1.370 . S
C2530 C2534 1.524 . S
C2531 C2523 1.503 . S
C2531 C2530 1.370 . S
C2531 C2532 1.403 . S
C2532 C2531 1.403 . S
C2532 C2533 1.404 . S
C2532 C2535 1.539 . S
C2533 C2529 1.408 . S
C2533 C2532 1.404 . S
C2533 H2545 0.930 . S
C2534 C2530 1.524 . S
C2534 H2546 0.956 . S
C2534 H2547 0.961 . S
C2534 H2548 0.961 . S
C2535 C2532 1.539 . S
C2535 H2549 0.958 . S
C2535 H2550 0.961 . S
C2535 H2551 0.960 . S
H2536 C2520 0.931 . S
H2537 C2525 0.929 . S
H2538 C2526 0.960 . S
H2539 C2526 0.962 . S
H2540 C2526 0.960 . S
H2541 C2527 0.961 . S
H2542 C2527 0.961 . S
H2543 C2527 0.961 . S
H2544 C2528 0.931 . S
H2545 C2533 0.930 . S
H2546 C2534 0.956 . S
H2547 C2534 0.961 . S
H2548 C2534 0.961 . S
H2549 C2535 0.958 . S
H2550 C2535 0.961 . S
H2551 C2535 0.960 . S
C2552 C2553 1.391 . S
C2552 C2554 1.394 . S
C2552 H2568 0.931 . S
C2553 C2552 1.391 . S
C2553 C2557 1.376 . S
C2554 C2552 1.394 . S
C2554 C2555 1.369 . S
C2554 C2558 1.531 . S
C2555 C2554 1.369 . S
C2555 C2556 1.410 . S
C2555 C2563 1.503 . S
C2556 C2555 1.410 . S
C2556 C2557 1.392 . S
C2556 C2559 1.511 . S
C2557 C2553 1.376 . S
C2557 C2556 1.392 . S
C2557 H2569 0.929 . S
C2558 C2554 1.531 . S
C2558 H2570 0.960 . S
C2558 H2571 0.962 . S
C2558 H2572 0.960 . S
C2559 C2556 1.511 . S
C2559 H2573 0.961 . S
C2559 H2574 0.961 . S
C2559 H2575 0.961 . S
C2560 C2561 1.370 . S
C2560 C2562 1.363 . S
C2560 H2576 0.931 . S
C2561 C2560 1.370 . S
C2561 C2565 1.408 . S
C2562 C2560 1.363 . S
C2562 C2563 1.370 . S
C2562 C2566 1.524 . S
C2563 C2555 1.503 . S
C2563 C2562 1.370 . S
C2563 C2564 1.403 . S
C2564 C2563 1.403 . S
C2564 C2565 1.404 . S
C2564 C2567 1.539 . S
C2565 C2561 1.408 . S
C2565 C2564 1.404 . S
C2565 H2577 0.930 . S
C2566 C2562 1.524 . S
C2566 H2578 0.956 . S
C2566 H2579 0.961 . S
C2566 H2580 0.961 . S
C2567 C2564 1.539 . S
C2567 H2581 0.958 . S
C2567 H2582 0.961 . S
C2567 H2583 0.960 . S
H2568 C2552 0.931 . S
H2569 C2557 0.929 . S
H2570 C2558 0.960 . S
H2571 C2558 0.962 . S
H2572 C2558 0.960 . S
H2573 C2559 0.961 . S
H2574 C2559 0.961 . S
H2575 C2559 0.961 . S
H2576 C2560 0.931 . S
H2577 C2565 0.930 . S
H2578 C2566 0.956 . S
H2579 C2566 0.961 . S
H2580 C2566 0.961 . S
H2581 C2567 0.958 . S
H2582 C2567 0.961 . S
H2583 C2567 0.960 . S
C2584 C2585 1.391 . S
C2584 C2586 1.394 . S
C2584 H2600 0.931 . S
C2585 C2584 1.391 . S
C2585 C2589 1.376 . S
C2586 C2584 1.394 . S
C2586 C2587 1.369 . S
C2586 C2590 1.531 . S
C2587 C2586 1.369 . S
C2587 C2588 1.410 . S
C2587 C2595 1.503 . S
C2588 C2587 1.410 . S
C2588 C2589 1.392 . S
C2588 C2591 1.511 . S
C2589 C2585 1.376 . S
C2589 C2588 1.392 . S
C2589 H2601 0.929 . S
C2590 C2586 1.531 . S
C2590 H2602 0.960 . S
C2590 H2603 0.962 . S
C2590 H2604 0.960 . S
C2591 C2588 1.511 . S
C2591 H2605 0.961 . S
C2591 H2606 0.961 . S
C2591 H2607 0.961 . S
C2592 C2593 1.370 . S
C2592 C2594 1.363 . S
C2592 H2608 0.931 . S
C2593 C2592 1.370 . S
C2593 C2597 1.408 . S
C2594 C2592 1.363 . S
C2594 C2595 1.370 . S
C2594 C2598 1.524 . S
C2595 C2587 1.503 . S
C2595 C2594 1.370 . S
C2595 C2596 1.403 . S
C2596 C2595 1.403 . S
C2596 C2597 1.404 . S
C2596 C2599 1.539 . S
C2597 C2593 1.408 . S
C2597 C2596 1.404 . S
C2597 H2609 0.930 . S
C2598 C2594 1.524 . S
C2598 H2610 0.956 . S
C2598 H2611 0.961 . S
C2598 H2612 0.961 . S
C2599 C2596 1.539 . S
C2599 H2613 0.958 . S
C2599 H2614 0.961 . S
C2599 H2615 0.960 . S
H2600 C2584 0.931 . S
H2601 C2589 0.929 . S
H2602 C2590 0.960 . S
H2603 C2590 0.962 . S
H2604 C2590 0.960 . S
H2605 C2591 0.961 . S
H2606 C2591 0.961 . S
H2607 C2591 0.961 . S
H2608 C2592 0.931 . S
H2609 C2597 0.930 . S
H2610 C2598 0.956 . S
H2611 C2598 0.961 . S
H2612 C2598 0.961 . S
H2613 C2599 0.958 . S
H2614 C2599 0.961 . S
H2615 C2599 0.960 . S
C2616 C2617 1.391 . S
C2616 C2618 1.394 . S
C2616 H2632 0.931 . S
C2617 C2616 1.391 . S
C2617 C2621 1.376 . S
C2618 C2616 1.394 . S
C2618 C2619 1.369 . S
C2618 C2622 1.531 . S
C2619 C2618 1.369 . S
C2619 C2620 1.410 . S
C2619 C2627 1.503 . S
C2620 C2619 1.410 . S
C2620 C2621 1.392 . S
C2620 C2623 1.511 . S
C2621 C2617 1.376 . S
C2621 C2620 1.392 . S
C2621 H2633 0.929 . S
C2622 C2618 1.531 . S
C2622 H2634 0.960 . S
C2622 H2635 0.962 . S
C2622 H2636 0.960 . S
C2623 C2620 1.511 . S
C2623 H2637 0.961 . S
C2623 H2638 0.961 . S
C2623 H2639 0.961 . S
C2624 C2625 1.370 . S
C2624 C2626 1.363 . S
C2624 H2640 0.931 . S
C2625 C2624 1.370 . S
C2625 C2629 1.408 . S
C2626 C2624 1.363 . S
C2626 C2627 1.370 . S
C2626 C2630 1.524 . S
C2627 C2619 1.503 . S
C2627 C2626 1.370 . S
C2627 C2628 1.403 . S
C2628 C2627 1.403 . S
C2628 C2629 1.404 . S
C2628 C2631 1.539 . S
C2629 C2625 1.408 . S
C2629 C2628 1.404 . S
C2629 H2641 0.930 . S
C2630 C2626 1.524 . S
C2630 H2642 0.956 . S
C2630 H2643 0.961 . S
C2630 H2644 0.961 . S
C2631 C2628 1.539 . S
C2631 H2645 0.958 . S
C2631 H2646 0.961 . S
C2631 H2647 0.960 . S
H2632 C2616 0.931 . S
H2633 C2621 0.929 . S
H2634 C2622 0.960 . S
H2635 C2622 0.962 . S
H2636 C2622 0.960 . S
H2637 C2623 0.961 . S
H2638 C2623 0.961 . S
H2639 C2623 0.961 . S
H2640 C2624 0.931 . S
H2641 C2629 0.930 . S
H2642 C2630 0.956 . S
H2643 C2630 0.961 . S
H2644 C2630 0.961 . S
H2645 C2631 0.958 . S
H2646 C2631 0.961 . S
H2647 C2631 0.960 . S
C2648 C2649 1.391 . S
C2648 C2650 1.394 . S
C2648 H2664 0.931 . S
C2649 C2648 1.391 . S
C2649 C2653 1.376 . S
C2650 C2648 1.394 . S
C2650 C2651 1.369 . S
C2650 C2654 1.531 . S
C2651 C2650 1.369 . S
C2651 C2652 1.410 . S
C2651 C2659 1.503 . S
C2652 C2651 1.410 . S
C2652 C2653 1.392 . S
C2652 C2655 1.511 . S
C2653 C2649 1.376 . S
C2653 C2652 1.392 . S
C2653 H2665 0.929 . S
C2654 C2650 1.531 . S
C2654 H2666 0.960 . S
C2654 H2667 0.962 . S
C2654 H2668 0.960 . S
C2655 C2652 1.511 . S
C2655 H2669 0.961 . S
C2655 H2670 0.961 . S
C2655 H2671 0.961 . S
C2656 C2657 1.370 . S
C2656 C2658 1.363 . S
C2656 H2672 0.931 . S
C2657 C2656 1.370 . S
C2657 C2661 1.408 . S
C2658 C2656 1.363 . S
C2658 C2659 1.370 . S
C2658 C2662 1.524 . S
C2659 C2651 1.503 . S
C2659 C2658 1.370 . S
C2659 C2660 1.403 . S
C2660 C2659 1.403 . S
C2660 C2661 1.404 . S
C2660 C2663 1.539 . S
C2661 C2657 1.408 . S
C2661 C2660 1.404 . S
C2661 H2673 0.930 . S
C2662 C2658 1.524 . S
C2662 H2674 0.956 . S
C2662 H2675 0.961 . S
C2662 H2676 0.961 . S
C2663 C2660 1.539 . S
C2663 H2677 0.958 . S
C2663 H2678 0.961 . S
C2663 H2679 0.960 . S
H2664 C2648 0.931 . S
H2665 C2653 0.929 . S
H2666 C2654 0.960 . S
H2667 C2654 0.962 . S
H2668 C2654 0.960 . S
H2669 C2655 0.961 . S
H2670 C2655 0.961 . S
H2671 C2655 0.961 . S
H2672 C2656 0.931 . S
H2673 C2661 0.930 . S
H2674 C2662 0.956 . S
H2675 C2662 0.961 . S
H2676 C2662 0.961 . S
H2677 C2663 0.958 . S
H2678 C2663 0.961 . S
H2679 C2663 0.960 . S
C2680 C2681 1.391 . S
C2680 C2682 1.394 . S
C2680 H2696 0.931 . S
C2681 C2680 1.391 . S
C2681 C2685 1.376 . S
C2682 C2680 1.394 . S
C2682 C2683 1.369 . S
C2682 C2686 1.531 . S
C2683 C2682 1.369 . S
C2683 C2684 1.410 . S
C2683 C2691 1.503 . S
C2684 C2683 1.410 . S
C2684 C2685 1.392 . S
C2684 C2687 1.511 . S
C2685 C2681 1.376 . S
C2685 C2684 1.392 . S
C2685 H2697 0.929 . S
C2686 C2682 1.531 . S
C2686 H2698 0.960 . S
C2686 H2699 0.962 . S
C2686 H2700 0.960 . S
C2687 C2684 1.511 . S
C2687 H2701 0.961 . S
C2687 H2702 0.961 . S
C2687 H2703 0.961 . S
C2688 C2689 1.370 . S
C2688 C2690 1.363 . S
C2688 H2704 0.931 . S
C2689 C2688 1.370 . S
C2689 C2693 1.408 . S
C2690 C2688 1.363 . S
C2690 C2691 1.370 . S
C2690 C2694 1.524 . S
C2691 C2683 1.503 . S
C2691 C2690 1.370 . S
C2691 C2692 1.403 . S
C2692 C2691 1.403 . S
C2692 C2693 1.404 . S
C2692 C2695 1.539 . S
C2693 C2689 1.408 . S
C2693 C2692 1.404 . S
C2693 H2705 0.930 . S
C2694 C2690 1.524 . S
C2694 H2706 0.956 . S
C2694 H2707 0.961 . S
C2694 H2708 0.961 . S
C2695 C2692 1.539 . S
C2695 H2709 0.958 . S
C2695 H2710 0.961 . S
C2695 H2711 0.960 . S
H2696 C2680 0.931 . S
H2697 C2685 0.929 . S
H2698 C2686 0.960 . S
H2699 C2686 0.962 . S
H2700 C2686 0.960 . S
H2701 C2687 0.961 . S
H2702 C2687 0.961 . S
H2703 C2687 0.961 . S
H2704 C2688 0.931 . S
H2705 C2693 0.930 . S
H2706 C2694 0.956 . S
H2707 C2694 0.961 . S
H2708 C2694 0.961 . S
H2709 C2695 0.958 . S
H2710 C2695 0.961 . S
H2711 C2695 0.960 . S
C2712 C2713 1.391 1_655 S
C2712 C2714 1.394 . S
C2712 H2728 0.931 . S
C2713 C2712 1.391 1_455 S
C2713 C2717 1.376 . S
C2714 C2712 1.394 . S
C2714 C2715 1.369 1_655 S
C2714 C2718 1.531 . S
C2715 C2714 1.369 1_455 S
C2715 C2716 1.410 . S
C2715 C2723 1.503 . S
C2716 C2715 1.410 . S
C2716 C2717 1.392 . S
C2716 C2719 1.511 . S
C2717 C2713 1.376 . S
C2717 C2716 1.392 . S
C2717 H2729 0.929 . S
C2718 C2714 1.531 . S
C2718 H2730 0.960 . S
C2718 H2731 0.962 . S
C2718 H2732 0.960 . S
C2719 C2716 1.511 . S
C2719 H2733 0.961 . S
C2719 H2734 0.961 . S
C2719 H2735 0.961 . S
C2720 C2721 1.370 1_655 S
C2720 C2722 1.363 . S
C2720 H2736 0.931 . S
C2721 C2720 1.370 1_455 S
C2721 C2725 1.408 . S
C2722 C2720 1.363 . S
C2722 C2723 1.370 1_655 S
C2722 C2726 1.524 . S
C2723 C2715 1.503 . S
C2723 C2722 1.370 1_455 S
C2723 C2724 1.403 . S
C2724 C2723 1.403 . S
C2724 C2725 1.404 . S
C2724 C2727 1.539 . S
C2725 C2721 1.408 . S
C2725 C2724 1.404 . S
C2725 H2737 0.930 . S
C2726 C2722 1.524 . S
C2726 H2738 0.956 . S
C2726 H2739 0.961 . S
C2726 H2740 0.961 . S
C2727 C2724 1.539 . S
C2727 H2741 0.958 . S
C2727 H2742 0.961 . S
C2727 H2743 0.960 . S
H2728 C2712 0.931 . S
H2729 C2717 0.929 . S
H2730 C2718 0.960 . S
H2731 C2718 0.962 . S
H2732 C2718 0.960 . S
H2733 C2719 0.961 . S
H2734 C2719 0.961 . S
H2735 C2719 0.961 . S
H2736 C2720 0.931 . S
H2737 C2725 0.930 . S
H2738 C2726 0.956 . S
H2739 C2726 0.961 . S
H2740 C2726 0.961 . S
H2741 C2727 0.958 . S
H2742 C2727 0.961 . S
H2743 C2727 0.960 . S
C2744 C2745 1.391 . S
C2744 C2746 1.394 . S
C2744 H2760 0.931 . S
C2745 C2744 1.391 . S
C2745 C2749 1.376 . S
C2746 C2744 1.394 . S
C2746 C2747 1.369 . S
C2746 C2750 1.531 . S
C2747 C2746 1.369 . S
C2747 C2748 1.410 . S
C2747 C2755 1.503 . S
C2748 C2747 1.410 . S
C2748 C2749 1.392 . S
C2748 C2751 1.511 . S
C2749 C2745 1.376 . S
C2749 C2748 1.392 . S
C2749 H2761 0.929 . S
C2750 C2746 1.531 . S
C2750 H2762 0.960 . S
C2750 H2763 0.962 . S
C2750 H2764 0.960 . S
C2751 C2748 1.511 . S
C2751 H2765 0.961 . S
C2751 H2766 0.961 . S
C2751 H2767 0.961 . S
C2752 C2753 1.370 . S
C2752 C2754 1.363 . S
C2752 H2768 0.931 . S
C2753 C2752 1.370 . S
C2753 C2757 1.408 . S
C2754 C2752 1.363 . S
C2754 C2755 1.370 . S
C2754 C2758 1.524 . S
C2755 C2747 1.503 . S
C2755 C2754 1.370 . S
C2755 C2756 1.403 . S
C2756 C2755 1.403 . S
C2756 C2757 1.404 . S
C2756 C2759 1.539 . S
C2757 C2753 1.408 . S
C2757 C2756 1.404 . S
C2757 H2769 0.930 . S
C2758 C2754 1.524 . S
C2758 H2770 0.956 . S
C2758 H2771 0.961 . S
C2758 H2772 0.961 . S
C2759 C2756 1.539 . S
C2759 H2773 0.958 . S
C2759 H2774 0.961 . S
C2759 H2775 0.960 . S
H2760 C2744 0.931 . S
H2761 C2749 0.929 . S
H2762 C2750 0.960 . S
H2763 C2750 0.962 . S
H2764 C2750 0.960 . S
H2765 C2751 0.961 . S
H2766 C2751 0.961 . S
H2767 C2751 0.961 . S
H2768 C2752 0.931 . S
H2769 C2757 0.930 . S
H2770 C2758 0.956 . S
H2771 C2758 0.961 . S
H2772 C2758 0.961 . S
H2773 C2759 0.958 . S
H2774 C2759 0.961 . S
H2775 C2759 0.960 . S
C2776 C2777 1.391 . S
C2776 C2778 1.394 . S
C2776 H2792 0.931 . S
C2777 C2776 1.391 . S
C2777 C2781 1.376 1_565 S
C2778 C2776 1.394 . S
C2778 C2779 1.369 . S
C2778 C2782 1.531 . S
C2779 C2778 1.369 . S
C2779 C2780 1.410 1_565 S
C2779 C2787 1.503 . S
C2780 C2779 1.410 1_545 S
C2780 C2781 1.392 . S
C2780 C2783 1.511 . S
C2781 C2777 1.376 1_545 S
C2781 C2780 1.392 . S
C2781 H2793 0.929 . S
C2782 C2778 1.531 . S
C2782 H2794 0.960 . S
C2782 H2795 0.962 . S
C2782 H2796 0.960 . S
C2783 C2780 1.511 . S
C2783 H2797 0.961 . S
C2783 H2798 0.961 . S
C2783 H2799 0.961 . S
C2784 C2785 1.370 1_545 S
C2784 C2786 1.341 . S
C2784 H2800 0.931 . S
C2785 C2784 1.370 1_565 S
C2785 C2789 1.408 . S
C2786 C2784 1.341 . S
C2786 C2787 1.377 1_545 S
C2786 C2790 1.544 . S
C2787 C2779 1.503 . S
C2787 C2786 1.377 1_565 S
C2787 C2788 1.403 . S
C2788 C2787 1.403 . S
C2788 C2789 1.404 . S
C2788 C2791 1.539 . S
C2789 C2785 1.408 . S
C2789 C2788 1.404 . S
C2789 H2801 0.930 . S
C2790 C2786 1.544 . S
C2790 H2802 0.956 1_545 S
C2790 H2803 0.961 . S
C2790 H2804 0.961 . S
C2791 C2788 1.539 . S
C2791 H2805 0.958 . S
C2791 H2806 0.961 . S
C2791 H2807 0.960 . S
H2792 C2776 0.931 . S
H2793 C2781 0.929 . S
H2794 C2782 0.960 . S
H2795 C2782 0.962 . S
H2796 C2782 0.960 . S
H2797 C2783 0.961 . S
H2798 C2783 0.961 . S
H2799 C2783 0.961 . S
H2800 C2784 0.931 . S
H2801 C2789 0.930 . S
H2802 C2790 0.956 1_565 S
H2803 C2790 0.961 . S
H2804 C2790 0.961 . S
H2805 C2791 0.958 . S
H2806 C2791 0.961 . S
H2807 C2791 0.960 . S
C2808 C2809 1.391 1_545 S
C2808 C2810 1.394 . S
C2808 H2824 0.931 . S
C2809 C2808 1.391 1_565 S
C2809 C2813 1.376 . S
C2810 C2808 1.394 . S
C2810 C2811 1.369 1_545 S
C2810 C2814 1.531 . S
C2811 C2810 1.369 1_565 S
C2811 C2812 1.410 . S
C2811 C2819 1.503 . S
C2812 C2811 1.410 . S
C2812 C2813 1.392 . S
C2812 C2815 1.511 . S
C2813 C2809 1.376 . S
C2813 C2812 1.392 . S
C2813 H2825 0.929 . S
C2814 C2810 1.531 . S
C2814 H2826 0.960 . S
C2814 H2827 0.962 . S
C2814 H2828 0.960 . S
C2815 C2812 1.511 . S
C2815 H2829 0.961 . S
C2815 H2830 0.961 . S
C2815 H2831 0.961 . S
C2816 C2817 1.370 . S
C2816 C2818 1.363 . S
C2816 H2832 0.931 . S
C2817 C2816 1.370 . S
C2817 C2821 1.408 1_565 S
C2818 C2816 1.363 . S
C2818 C2819 1.370 . S
C2818 C2822 1.524 . S
C2819 C2811 1.503 . S
C2819 C2818 1.370 . S
C2819 C2820 1.403 1_565 S
C2820 C2819 1.403 1_545 S
C2820 C2821 1.404 . S
C2820 C2823 1.539 . S
C2821 C2817 1.408 1_545 S
C2821 C2820 1.404 . S
C2821 H2833 0.930 . S
C2822 C2818 1.524 . S
C2822 H2834 0.956 . S
C2822 H2835 0.961 . S
C2822 H2836 0.961 . S
C2823 C2820 1.539 . S
C2823 H2837 0.958 . S
C2823 H2838 0.961 . S
C2823 H2839 0.957 1_545 S
H2824 C2808 0.931 . S
H2825 C2813 0.929 . S
H2826 C2814 0.960 . S
H2827 C2814 0.962 . S
H2828 C2814 0.960 . S
H2829 C2815 0.961 . S
H2830 C2815 0.961 . S
H2831 C2815 0.961 . S
H2832 C2816 0.931 . S
H2833 C2821 0.930 . S
H2834 C2822 0.956 . S
H2835 C2822 0.961 . S
H2836 C2822 0.961 . S
H2837 C2823 0.958 . S
H2838 C2823 0.961 . S
H2839 C2823 0.957 1_565 S
C2840 C2841 1.391 . S
C2840 C2842 1.394 . S
C2840 H2856 0.931 . S
C2841 C2840 1.391 . S
C2841 C2845 1.376 1_455 S
C2842 C2840 1.394 . S
C2842 C2843 1.369 . S
C2842 C2846 1.531 . S
C2843 C2842 1.369 . S
C2843 C2844 1.410 1_455 S
C2843 C2851 1.503 . S
C2844 C2843 1.410 1_655 S
C2844 C2845 1.392 . S
C2844 C2847 1.511 . S
C2845 C2841 1.376 1_655 S
C2845 C2844 1.392 . S
C2845 H2857 0.929 . S
C2846 C2842 1.531 . S
C2846 H2858 0.960 . S
C2846 H2859 0.962 . S
C2846 H2860 0.960 . S
C2847 C2844 1.511 . S
C2847 H2861 0.961 . S
C2847 H2862 0.961 . S
C2847 H2863 0.961 . S
C2848 C2849 1.370 . S
C2848 C2850 1.363 . S
C2848 H2864 0.943 . S
C2849 C2848 1.370 . S
C2849 C2853 1.408 . S
C2850 C2848 1.363 . S
C2850 C2851 1.370 . S
C2850 C2854 1.524 . S
C2851 C2843 1.503 . S
C2851 C2850 1.370 . S
C2851 C2852 1.403 . S
C2852 C2851 1.403 . S
C2852 C2853 1.404 . S
C2852 C2855 1.539 . S
C2853 C2849 1.408 . S
C2853 C2852 1.404 . S
C2853 H2865 0.930 . S
C2854 C2850 1.524 . S
C2854 H2866 0.956 . S
C2854 H2867 0.961 1_455 S
C2854 H2868 0.961 1_455 S
C2855 C2852 1.539 . S
C2855 H2869 0.958 . S
C2855 H2870 0.961 . S
C2855 H2871 0.960 . S
H2856 C2840 0.931 . S
H2857 C2845 0.929 . S
H2858 C2846 0.960 . S
H2859 C2846 0.962 . S
H2860 C2846 0.960 . S
H2861 C2847 0.961 . S
H2862 C2847 0.961 . S
H2863 C2847 0.961 . S
H2864 C2848 0.943 . S
H2865 C2853 0.930 . S
H2866 C2854 0.956 . S
H2867 C2854 0.961 1_655 S
H2868 C2854 0.961 1_655 S
H2869 C2855 0.958 . S
H2870 C2855 0.961 . S
H2871 C2855 0.960 . S
C2872 C2873 1.391 . S
C2872 C2874 1.394 . S
C2872 H2888 0.931 . S
C2873 C2872 1.391 . S
C2873 C2877 1.376 . S
C2874 C2872 1.394 . S
C2874 C2875 1.369 . S
C2874 C2878 1.531 . S
C2875 C2874 1.369 . S
C2875 C2876 1.410 . S
C2875 C2883 1.503 . S
C2876 C2875 1.410 . S
C2876 C2877 1.392 . S
C2876 C2879 1.511 . S
C2877 C2873 1.376 . S
C2877 C2876 1.392 . S
C2877 H2889 0.929 . S
C2878 C2874 1.531 . S
C2878 H2890 0.960 . S
C2878 H2891 0.962 . S
C2878 H2892 0.960 . S
C2879 C2876 1.511 . S
C2879 H2893 0.961 . S
C2879 H2894 0.961 . S
C2879 H2895 0.961 . S
C2880 C2881 1.370 . S
C2880 C2882 1.363 . S
C2880 H2896 0.931 . S
C2881 C2880 1.370 . S
C2881 C2885 1.408 . S
C2882 C2880 1.363 . S
C2882 C2883 1.370 . S
C2882 C2886 1.524 . S
C2883 C2875 1.503 . S
C2883 C2882 1.370 . S
C2883 C2884 1.403 . S
C2884 C2883 1.403 . S
C2884 C2885 1.404 . S
C2884 C2887 1.539 . S
C2885 C2881 1.408 . S
C2885 C2884 1.404 . S
C2885 H2897 0.930 . S
C2886 C2882 1.524 . S
C2886 H2898 0.956 . S
C2886 H2899 0.961 . S
C2886 H2900 0.961 . S
C2887 C2884 1.539 . S
C2887 H2901 0.958 . S
C2887 H2902 0.961 . S
C2887 H2903 0.960 . S
H2888 C2872 0.931 . S
H2889 C2877 0.929 . S
H2890 C2878 0.960 . S
H2891 C2878 0.962 . S
H2892 C2878 0.960 . S
H2893 C2879 0.961 . S
H2894 C2879 0.961 . S
H2895 C2879 0.961 . S
H2896 C2880 0.931 . S
H2897 C2885 0.930 . S
H2898 C2886 0.956 . S
H2899 C2886 0.961 . S
H2900 C2886 0.961 . S
H2901 C2887 0.958 . S
H2902 C2887 0.961 . S
H2903 C2887 0.960 . S
C2904 C2905 1.391 . S
C2904 C2906 1.394 . S
C2904 H2920 0.931 . S
C2905 C2904 1.391 . S
C2905 C2909 1.376 . S
C2906 C2904 1.394 . S
C2906 C2907 1.369 . S
C2906 C2910 1.531 . S
C2907 C2906 1.369 . S
C2907 C2908 1.410 . S
C2907 C2915 1.503 . S
C2908 C2907 1.410 . S
C2908 C2909 1.392 . S
C2908 C2911 1.511 . S
C2909 C2905 1.376 . S
C2909 C2908 1.392 . S
C2909 H2921 0.929 . S
C2910 C2906 1.531 . S
C2910 H2922 0.960 . S
C2910 H2923 0.962 . S
C2910 H2924 0.960 . S
C2911 C2908 1.511 . S
C2911 H2925 0.961 . S
C2911 H2926 0.961 . S
C2911 H2927 0.961 . S
C2912 C2913 1.370 . S
C2912 C2914 1.363 . S
C2912 H2928 0.931 . S
C2913 C2912 1.370 . S
C2913 C2917 1.408 . S
C2914 C2912 1.363 . S
C2914 C2915 1.370 . S
C2914 C2918 1.524 . S
C2915 C2907 1.503 . S
C2915 C2914 1.370 . S
C2915 C2916 1.403 . S
C2916 C2915 1.403 . S
C2916 C2917 1.404 . S
C2916 C2919 1.539 . S
C2917 C2913 1.408 . S
C2917 C2916 1.404 . S
C2917 H2929 0.930 . S
C2918 C2914 1.524 . S
C2918 H2930 0.956 . S
C2918 H2931 0.961 . S
C2918 H2932 0.961 . S
C2919 C2916 1.539 . S
C2919 H2933 0.958 . S
C2919 H2934 0.961 . S
C2919 H2935 0.960 . S
H2920 C2904 0.931 . S
H2921 C2909 0.929 . S
H2922 C2910 0.960 . S
H2923 C2910 0.962 . S
H2924 C2910 0.960 . S
H2925 C2911 0.961 . S
H2926 C2911 0.961 . S
H2927 C2911 0.961 . S
H2928 C2912 0.931 . S
H2929 C2917 0.930 . S
H2930 C2918 0.956 . S
H2931 C2918 0.961 . S
H2932 C2918 0.961 . S
H2933 C2919 0.958 . S
H2934 C2919 0.961 . S
H2935 C2919 0.960 . S
C2936 C2937 1.391 . S
C2936 C2938 1.394 . S
C2936 H2952 0.931 . S
C2937 C2936 1.391 . S
C2937 C2941 1.376 . S
C2938 C2936 1.394 . S
C2938 C2939 1.369 . S
C2938 C2942 1.531 . S
C2939 C2938 1.369 . S
C2939 C2940 1.410 . S
C2939 C2947 1.503 . S
C2940 C2939 1.410 . S
C2940 C2941 1.392 . S
C2940 C2943 1.511 . S
C2941 C2937 1.376 . S
C2941 C2940 1.392 . S
C2941 H2953 0.929 . S
C2942 C2938 1.531 . S
C2942 H2954 0.960 . S
C2942 H2955 0.962 . S
C2942 H2956 0.960 . S
C2943 C2940 1.511 . S
C2943 H2957 0.961 . S
C2943 H2958 0.961 . S
C2943 H2959 0.961 . S
C2944 C2945 1.370 . S
C2944 C2946 1.363 . S
C2944 H2960 0.931 . S
C2945 C2944 1.370 . S
C2945 C2949 1.408 . S
C2946 C2944 1.363 . S
C2946 C2947 1.370 . S
C2946 C2950 1.524 . S
C2947 C2939 1.503 . S
C2947 C2946 1.370 . S
C2947 C2948 1.403 . S
C2948 C2947 1.403 . S
C2948 C2949 1.404 . S
C2948 C2951 1.539 . S
C2949 C2945 1.408 . S
C2949 C2948 1.404 . S
C2949 H2961 0.930 . S
C2950 C2946 1.524 . S
C2950 H2962 0.956 . S
C2950 H2963 0.961 . S
C2950 H2964 0.961 . S
C2951 C2948 1.539 . S
C2951 H2965 0.958 . S
C2951 H2966 0.961 . S
C2951 H2967 0.960 . S
H2952 C2936 0.931 . S
H2953 C2941 0.929 . S
H2954 C2942 0.960 . S
H2955 C2942 0.962 . S
H2956 C2942 0.960 . S
H2957 C2943 0.961 . S
H2958 C2943 0.961 . S
H2959 C2943 0.961 . S
H2960 C2944 0.931 . S
H2961 C2949 0.930 . S
H2962 C2950 0.956 . S
H2963 C2950 0.961 . S
H2964 C2950 0.961 . S
H2965 C2951 0.958 . S
H2966 C2951 0.961 . S
H2967 C2951 0.960 . S
C2968 C2969 1.391 . S
C2968 C2970 1.394 . S
C2968 H2984 0.931 . S
C2969 C2968 1.391 . S
C2969 C2973 1.376 . S
C2970 C2968 1.394 . S
C2970 C2971 1.369 . S
C2970 C2974 1.531 . S
C2971 C2970 1.369 . S
C2971 C2972 1.410 . S
C2971 C2979 1.503 . S
C2972 C2971 1.410 . S
C2972 C2973 1.392 . S
C2972 C2975 1.511 . S
C2973 C2969 1.376 . S
C2973 C2972 1.392 . S
C2973 H2985 0.929 . S
C2974 C2970 1.531 . S
C2974 H2986 0.960 . S
C2974 H2987 0.962 . S
C2974 H2988 0.960 . S
C2975 C2972 1.511 . S
C2975 H2989 0.961 . S
C2975 H2990 0.961 . S
C2975 H2991 0.961 . S
C2976 C2977 1.370 . S
C2976 C2978 1.363 . S
C2976 H2992 0.931 . S
C2977 C2976 1.370 . S
C2977 C2981 1.408 . S
C2978 C2976 1.363 . S
C2978 C2979 1.370 . S
C2978 C2982 1.524 . S
C2979 C2971 1.503 . S
C2979 C2978 1.370 . S
C2979 C2980 1.403 . S
C2980 C2979 1.403 . S
C2980 C2981 1.404 . S
C2980 C2983 1.539 . S
C2981 C2977 1.408 . S
C2981 C2980 1.404 . S
C2981 H2993 0.930 . S
C2982 C2978 1.524 . S
C2982 H2994 0.956 . S
C2982 H2995 0.961 . S
C2982 H2996 0.961 . S
C2983 C2980 1.539 . S
C2983 H2997 0.958 . S
C2983 H2998 0.961 . S
C2983 H2999 0.960 . S
H2984 C2968 0.931 . S
H2985 C2973 0.929 . S
H2986 C2974 0.960 . S
H2987 C2974 0.962 . S
H2988 C2974 0.960 . S
H2989 C2975 0.961 . S
H2990 C2975 0.961 . S
H2991 C2975 0.961 . S
H2992 C2976 0.931 . S
H2993 C2981 0.930 . S
H2994 C2982 0.956 . S
H2995 C2982 0.961 . S
H2996 C2982 0.961 . S
H2997 C2983 0.958 . S
H2998 C2983 0.961 . S
H2999 C2983 0.960 . S
C3000 C3001 1.391 . S
C3000 C3002 1.385 1_545 S
C3000 H3016 0.930 1_545 S
C3001 C3000 1.391 . S
C3001 C3005 1.376 . S
C3002 C3000 1.385 1_565 S
C3002 C3003 1.375 1_565 S
C3002 C3006 1.534 . S
C3003 C3002 1.375 1_545 S
C3003 C3004 1.410 . S
C3003 C3011 1.503 . S
C3004 C3003 1.410 . S
C3004 C3005 1.392 . S
C3004 C3007 1.511 . S
C3005 C3001 1.376 . S
C3005 C3004 1.392 . S
C3005 H3017 0.929 . S
C3006 C3002 1.534 . S
C3006 H3018 0.960 . S
C3006 H3019 0.962 1_565 S
C3006 H3020 0.960 . S
C3007 C3004 1.511 . S
C3007 H3021 0.961 . S
C3007 H3022 0.961 . S
C3007 H3023 0.961 1_545 S
C3008 C3009 1.370 . S
C3008 C3010 1.363 . S
C3008 H3024 0.931 . S
C3009 C3008 1.370 . S
C3009 C3013 1.408 1_545 S
C3010 C3008 1.363 . S
C3010 C3011 1.370 . S
C3010 C3014 1.524 . S
C3011 C3003 1.503 . S
C3011 C3010 1.370 . S
C3011 C3012 1.403 1_545 S
C3012 C3011 1.403 1_565 S
C3012 C3013 1.404 . S
C3012 C3015 1.539 . S
C3013 C3009 1.408 1_565 S
C3013 C3012 1.404 . S
C3013 H3025 0.930 . S
C3014 C3010 1.524 . S
C3014 H3026 0.956 . S
C3014 H3027 0.961 . S
C3014 H3028 0.961 . S
C3015 C3012 1.539 . S
C3015 H3029 0.958 . S
C3015 H3030 0.961 . S
C3015 H3031 0.960 . S
H3016 C3000 0.930 1_565 S
H3017 C3005 0.929 . S
H3018 C3006 0.960 . S
H3019 C3006 0.962 1_545 S
H3020 C3006 0.960 . S
H3021 C3007 0.961 . S
H3022 C3007 0.961 . S
H3023 C3007 0.961 1_565 S
H3024 C3008 0.931 . S
H3025 C3013 0.930 . S
H3026 C3014 0.956 . S
H3027 C3014 0.961 . S
H3028 C3014 0.961 . S
H3029 C3015 0.958 . S
H3030 C3015 0.961 . S
H3031 C3015 0.960 . S
C3032 C3033 1.391 . S
C3032 C3034 1.394 . S
C3032 H3048 0.931 . S
C3033 C3032 1.391 . S
C3033 C3037 1.376 1_655 S
C3034 C3032 1.394 . S
C3034 C3035 1.369 . S
C3034 C3038 1.531 . S
C3035 C3034 1.369 . S
C3035 C3036 1.410 1_655 S
C3035 C3043 1.503 . S
C3036 C3035 1.410 1_455 S
C3036 C3037 1.392 . S
C3036 C3039 1.511 . S
C3037 C3033 1.376 1_455 S
C3037 C3036 1.392 . S
C3037 H3049 0.929 . S
C3038 C3034 1.531 . S
C3038 H3050 0.960 . S
C3038 H3051 0.962 . S
C3038 H3052 0.960 . S
C3039 C3036 1.511 . S
C3039 H3053 0.961 . S
C3039 H3054 0.961 . S
C3039 H3055 0.961 . S
C3040 C3041 1.370 . S
C3040 C3042 1.363 . S
C3040 H3056 0.931 . S
C3041 C3040 1.370 . S
C3041 C3045 1.408 1_655 S
C3042 C3040 1.363 . S
C3042 C3043 1.370 . S
C3042 C3046 1.524 . S
C3043 C3035 1.503 . S
C3043 C3042 1.370 . S
C3043 C3044 1.403 1_655 S
C3044 C3043 1.403 1_455 S
C3044 C3045 1.404 . S
C3044 C3047 1.539 . S
C3045 C3041 1.408 1_455 S
C3045 C3044 1.404 . S
C3045 H3057 0.930 . S
C3046 C3042 1.524 . S
C3046 H3058 0.956 . S
C3046 H3059 0.961 . S
C3046 H3060 0.961 . S
C3047 C3044 1.539 . S
C3047 H3061 0.958 . S
C3047 H3062 0.961 . S
C3047 H3063 0.960 . S
H3048 C3032 0.931 . S
H3049 C3037 0.929 . S
H3050 C3038 0.960 . S
H3051 C3038 0.962 . S
H3052 C3038 0.960 . S
H3053 C3039 0.961 . S
H3054 C3039 0.961 . S
H3055 C3039 0.961 . S
H3056 C3040 0.931 . S
H3057 C3045 0.930 . S
H3058 C3046 0.956 . S
H3059 C3046 0.961 . S
H3060 C3046 0.961 . S
H3061 C3047 0.958 . S
H3062 C3047 0.961 . S
H3063 C3047 0.960 . S
C3064 C3065 1.391 . S
C3064 C3066 1.394 . S
C3064 H3080 0.931 . S
C3065 C3064 1.391 . S
C3065 C3069 1.376 . S
C3066 C3064 1.394 . S
C3066 C3067 1.369 . S
C3066 C3070 1.531 . S
C3067 C3066 1.369 . S
C3067 C3068 1.410 . S
C3067 C3075 1.503 . S
C3068 C3067 1.410 . S
C3068 C3069 1.392 . S
C3068 C3071 1.511 . S
C3069 C3065 1.376 . S
C3069 C3068 1.392 . S
C3069 H3081 0.929 . S
C3070 C3066 1.531 . S
C3070 H3082 0.960 . S
C3070 H3083 0.962 . S
C3070 H3084 0.960 . S
C3071 C3068 1.511 . S
C3071 H3085 0.961 . S
C3071 H3086 0.961 . S
C3071 H3087 0.961 . S
C3072 C3073 1.370 . S
C3072 C3074 1.363 . S
C3072 H3088 0.931 . S
C3073 C3072 1.370 . S
C3073 C3077 1.408 . S
C3074 C3072 1.363 . S
C3074 C3075 1.370 . S
C3074 C3078 1.524 . S
C3075 C3067 1.503 . S
C3075 C3074 1.370 . S
C3075 C3076 1.403 . S
C3076 C3075 1.403 . S
C3076 C3077 1.404 . S
C3076 C3079 1.539 . S
C3077 C3073 1.408 . S
C3077 C3076 1.404 . S
C3077 H3089 0.930 . S
C3078 C3074 1.524 . S
C3078 H3090 0.956 . S
C3078 H3091 0.961 . S
C3078 H3092 0.961 . S
C3079 C3076 1.539 . S
C3079 H3093 0.958 . S
C3079 H3094 0.961 . S
C3079 H3095 0.960 . S
H3080 C3064 0.931 . S
H3081 C3069 0.929 . S
H3082 C3070 0.960 . S
H3083 C3070 0.962 . S
H3084 C3070 0.960 . S
H3085 C3071 0.961 . S
H3086 C3071 0.961 . S
H3087 C3071 0.961 . S
H3088 C3072 0.931 . S
H3089 C3077 0.930 . S
H3090 C3078 0.956 . S
H3091 C3078 0.961 . S
H3092 C3078 0.961 . S
H3093 C3079 0.958 . S
H3094 C3079 0.961 . S
H3095 C3079 0.960 . S
C3096 C3097 1.391 . S
C3096 C3098 1.394 . S
C3096 H3112 0.931 . S
C3097 C3096 1.391 . S
C3097 C3101 1.376 . S
C3098 C3096 1.394 . S
C3098 C3099 1.369 . S
C3098 C3102 1.531 . S
C3099 C3098 1.369 . S
C3099 C3100 1.410 . S
C3099 C3107 1.503 . S
C3100 C3099 1.410 . S
C3100 C3101 1.392 . S
C3100 C3103 1.511 . S
C3101 C3097 1.376 . S
C3101 C3100 1.392 . S
C3101 H3113 0.929 . S
C3102 C3098 1.531 . S
C3102 H3114 0.960 . S
C3102 H3115 0.962 . S
C3102 H3116 0.960 . S
C3103 C3100 1.511 . S
C3103 H3117 0.961 . S
C3103 H3118 0.961 . S
C3103 H3119 0.961 . S
C3104 C3105 1.370 . S
C3104 C3106 1.363 . S
C3104 H3120 0.931 . S
C3105 C3104 1.370 . S
C3105 C3109 1.408 . S
C3106 C3104 1.363 . S
C3106 C3107 1.370 . S
C3106 C3110 1.524 . S
C3107 C3099 1.503 . S
C3107 C3106 1.370 . S
C3107 C3108 1.403 . S
C3108 C3107 1.403 . S
C3108 C3109 1.404 . S
C3108 C3111 1.539 . S
C3109 C3105 1.408 . S
C3109 C3108 1.404 . S
C3109 H3121 0.930 . S
C3110 C3106 1.524 . S
C3110 H3122 0.956 . S
C3110 H3123 0.961 . S
C3110 H3124 0.961 . S
C3111 C3108 1.539 . S
C3111 H3125 0.958 . S
C3111 H3126 0.961 . S
C3111 H3127 0.960 . S
H3112 C3096 0.931 . S
H3113 C3101 0.929 . S
H3114 C3102 0.960 . S
H3115 C3102 0.962 . S
H3116 C3102 0.960 . S
H3117 C3103 0.961 . S
H3118 C3103 0.961 . S
H3119 C3103 0.961 . S
H3120 C3104 0.931 . S
H3121 C3109 0.930 . S
H3122 C3110 0.956 . S
H3123 C3110 0.961 . S
H3124 C3110 0.961 . S
H3125 C3111 0.958 . S
H3126 C3111 0.961 . S
H3127 C3111 0.960 . S
C3128 C3129 1.391 . S
C3128 C3130 1.394 . S
C3128 H3144 0.931 . S
C3129 C3128 1.391 . S
C3129 C3133 1.376 . S
C3130 C3128 1.394 . S
C3130 C3131 1.369 . S
C3130 C3134 1.531 . S
C3131 C3130 1.369 . S
C3131 C3132 1.410 . S
C3131 C3139 1.503 . S
C3132 C3131 1.410 . S
C3132 C3133 1.392 . S
C3132 C3135 1.511 . S
C3133 C3129 1.376 . S
C3133 C3132 1.392 . S
C3133 H3145 0.929 . S
C3134 C3130 1.531 . S
C3134 H3146 0.960 . S
C3134 H3147 0.962 . S
C3134 H3148 0.960 . S
C3135 C3132 1.511 . S
C3135 H3149 0.961 . S
C3135 H3150 0.961 . S
C3135 H3151 0.961 . S
C3136 C3137 1.370 . S
C3136 C3138 1.363 . S
C3136 H3152 0.931 . S
C3137 C3136 1.370 . S
C3137 C3141 1.408 . S
C3138 C3136 1.363 . S
C3138 C3139 1.370 . S
C3138 C3142 1.524 . S
C3139 C3131 1.503 . S
C3139 C3138 1.370 . S
C3139 C3140 1.403 . S
C3140 C3139 1.403 . S
C3140 C3141 1.404 . S
C3140 C3143 1.539 . S
C3141 C3137 1.408 . S
C3141 C3140 1.404 . S
C3141 H3153 0.930 . S
C3142 C3138 1.524 . S
C3142 H3154 0.956 . S
C3142 H3155 0.961 . S
C3142 H3156 0.961 . S
C3143 C3140 1.539 . S
C3143 H3157 0.958 . S
C3143 H3158 0.961 . S
C3143 H3159 0.960 . S
H3144 C3128 0.931 . S
H3145 C3133 0.929 . S
H3146 C3134 0.960 . S
H3147 C3134 0.962 . S
H3148 C3134 0.960 . S
H3149 C3135 0.961 . S
H3150 C3135 0.961 . S
H3151 C3135 0.961 . S
H3152 C3136 0.931 . S
H3153 C3141 0.930 . S
H3154 C3142 0.956 . S
H3155 C3142 0.961 . S
H3156 C3142 0.961 . S
H3157 C3143 0.958 . S
H3158 C3143 0.961 . S
H3159 C3143 0.960 . S
C3160 C3161 1.391 . S
C3160 C3162 1.394 . S
C3160 H3176 0.931 . S
C3161 C3160 1.391 . S
C3161 C3165 1.376 . S
C3162 C3160 1.394 . S
C3162 C3163 1.369 . S
C3162 C3166 1.531 . S
C3163 C3162 1.369 . S
C3163 C3164 1.410 . S
C3163 C3171 1.503 . S
C3164 C3163 1.410 . S
C3164 C3165 1.392 . S
C3164 C3167 1.511 . S
C3165 C3161 1.376 . S
C3165 C3164 1.392 . S
C3165 H3177 0.929 . S
C3166 C3162 1.531 . S
C3166 H3178 0.960 . S
C3166 H3179 0.962 . S
C3166 H3180 0.960 . S
C3167 C3164 1.511 . S
C3167 H3181 0.961 . S
C3167 H3182 0.961 . S
C3167 H3183 0.961 . S
C3168 C3169 1.370 . S
C3168 C3170 1.363 . S
C3168 H3184 0.931 . S
C3169 C3168 1.370 . S
C3169 C3173 1.408 . S
C3170 C3168 1.363 . S
C3170 C3171 1.370 . S
C3170 C3174 1.524 . S
C3171 C3163 1.503 . S
C3171 C3170 1.370 . S
C3171 C3172 1.403 . S
C3172 C3171 1.403 . S
C3172 C3173 1.404 . S
C3172 C3175 1.539 . S
C3173 C3169 1.408 . S
C3173 C3172 1.404 . S
C3173 H3185 0.930 . S
C3174 C3170 1.524 . S
C3174 H3186 0.956 . S
C3174 H3187 0.961 . S
C3174 H3188 0.961 . S
C3175 C3172 1.539 . S
C3175 H3189 0.958 . S
C3175 H3190 0.961 . S
C3175 H3191 0.960 . S
H3176 C3160 0.931 . S
H3177 C3165 0.929 . S
H3178 C3166 0.960 . S
H3179 C3166 0.962 . S
H3180 C3166 0.960 . S
H3181 C3167 0.961 . S
H3182 C3167 0.961 . S
H3183 C3167 0.961 . S
H3184 C3168 0.931 . S
H3185 C3173 0.930 . S
H3186 C3174 0.956 . S
H3187 C3174 0.961 . S
H3188 C3174 0.961 . S
H3189 C3175 0.958 . S
H3190 C3175 0.961 . S
H3191 C3175 0.960 . S
C3192 C3193 1.391 . S
C3192 C3194 1.394 . S
C3192 H3208 0.931 . S
C3193 C3192 1.391 . S
C3193 C3197 1.376 . S
C3194 C3192 1.394 . S
C3194 C3195 1.369 . S
C3194 C3198 1.531 . S
C3195 C3194 1.369 . S
C3195 C3196 1.410 . S
C3195 C3203 1.503 . S
C3196 C3195 1.410 . S
C3196 C3197 1.392 . S
C3196 C3199 1.511 . S
C3197 C3193 1.376 . S
C3197 C3196 1.392 . S
C3197 H3209 0.929 . S
C3198 C3194 1.531 . S
C3198 H3210 0.960 . S
C3198 H3211 0.962 . S
C3198 H3212 0.960 . S
C3199 C3196 1.511 . S
C3199 H3213 0.961 . S
C3199 H3214 0.961 . S
C3199 H3215 0.961 . S
C3200 C3201 1.370 . S
C3200 C3202 1.363 . S
C3200 H3216 0.931 . S
C3201 C3200 1.370 . S
C3201 C3205 1.408 . S
C3202 C3200 1.363 . S
C3202 C3203 1.370 . S
C3202 C3206 1.524 . S
C3203 C3195 1.503 . S
C3203 C3202 1.370 . S
C3203 C3204 1.403 . S
C3204 C3203 1.403 . S
C3204 C3205 1.404 . S
C3204 C3207 1.539 . S
C3205 C3201 1.408 . S
C3205 C3204 1.404 . S
C3205 H3217 0.930 . S
C3206 C3202 1.524 . S
C3206 H3218 0.956 . S
C3206 H3219 0.961 . S
C3206 H3220 0.961 . S
C3207 C3204 1.539 . S
C3207 H3221 0.958 . S
C3207 H3222 0.961 . S
C3207 H3223 0.960 . S
H3208 C3192 0.931 . S
H3209 C3197 0.929 . S
H3210 C3198 0.960 . S
H3211 C3198 0.962 . S
H3212 C3198 0.960 . S
H3213 C3199 0.961 . S
H3214 C3199 0.961 . S
H3215 C3199 0.961 . S
H3216 C3200 0.931 . S
H3217 C3205 0.930 . S
H3218 C3206 0.956 . S
H3219 C3206 0.961 . S
H3220 C3206 0.961 . S
H3221 C3207 0.958 . S
H3222 C3207 0.961 . S
H3223 C3207 0.960 . S
C3224 C3225 1.391 . S
C3224 C3226 1.394 . S
C3224 H3240 0.931 . S
C3225 C3224 1.391 . S
C3225 C3229 1.376 . S
C3226 C3224 1.394 . S
C3226 C3227 1.369 . S
C3226 C3230 1.531 . S
C3227 C3226 1.369 . S
C3227 C3228 1.410 . S
C3227 C3235 1.503 . S
C3228 C3227 1.410 . S
C3228 C3229 1.392 . S
C3228 C3231 1.511 . S
C3229 C3225 1.376 . S
C3229 C3228 1.392 . S
C3229 H3241 0.929 . S
C3230 C3226 1.531 . S
C3230 H3242 0.960 . S
C3230 H3243 0.962 . S
C3230 H3244 0.960 . S
C3231 C3228 1.511 . S
C3231 H3245 0.961 . S
C3231 H3246 0.961 . S
C3231 H3247 0.961 . S
C3232 C3233 1.370 . S
C3232 C3234 1.363 . S
C3232 H3248 0.931 . S
C3233 C3232 1.370 . S
C3233 C3237 1.408 . S
C3234 C3232 1.363 . S
C3234 C3235 1.370 . S
C3234 C3238 1.524 . S
C3235 C3227 1.503 . S
C3235 C3234 1.370 . S
C3235 C3236 1.403 . S
C3236 C3235 1.403 . S
C3236 C3237 1.404 . S
C3236 C3239 1.539 . S
C3237 C3233 1.408 . S
C3237 C3236 1.404 . S
C3237 H3249 0.930 . S
C3238 C3234 1.524 . S
C3238 H3250 0.956 . S
C3238 H3251 0.961 . S
C3238 H3252 0.961 . S
C3239 C3236 1.539 . S
C3239 H3253 0.958 . S
C3239 H3254 0.961 . S
C3239 H3255 0.960 . S
H3240 C3224 0.931 . S
H3241 C3229 0.929 . S
H3242 C3230 0.960 . S
H3243 C3230 0.962 . S
H3244 C3230 0.960 . S
H3245 C3231 0.961 . S
H3246 C3231 0.961 . S
H3247 C3231 0.961 . S
H3248 C3232 0.931 . S
H3249 C3237 0.930 . S
H3250 C3238 0.956 . S
H3251 C3238 0.961 . S
H3252 C3238 0.961 . S
H3253 C3239 0.958 . S
H3254 C3239 0.961 . S
H3255 C3239 0.960 . S
C3256 C3257 1.391 . S
C3256 C3258 1.394 . S
C3256 H3272 0.931 . S
C3257 C3256 1.391 . S
C3257 C3261 1.376 . S
C3258 C3256 1.394 . S
C3258 C3259 1.369 . S
C3258 C3262 1.531 . S
C3259 C3258 1.369 . S
C3259 C3260 1.410 . S
C3259 C3267 1.503 . S
C3260 C3259 1.410 . S
C3260 C3261 1.392 . S
C3260 C3263 1.511 . S
C3261 C3257 1.376 . S
C3261 C3260 1.392 . S
C3261 H3273 0.929 . S
C3262 C3258 1.531 . S
C3262 H3274 0.960 . S
C3262 H3275 0.962 . S
C3262 H3276 0.960 . S
C3263 C3260 1.511 . S
C3263 H3277 0.961 . S
C3263 H3278 0.961 . S
C3263 H3279 0.961 . S
C3264 C3265 1.370 . S
C3264 C3266 1.363 . S
C3264 H3280 0.931 . S
C3265 C3264 1.370 . S
C3265 C3269 1.408 . S
C3266 C3264 1.363 . S
C3266 C3267 1.370 . S
C3266 C3270 1.524 . S
C3267 C3259 1.503 . S
C3267 C3266 1.370 . S
C3267 C3268 1.403 . S
C3268 C3267 1.403 . S
C3268 C3269 1.404 . S
C3268 C3271 1.539 . S
C3269 C3265 1.408 . S
C3269 C3268 1.404 . S
C3269 H3281 0.930 . S
C3270 C3266 1.524 . S
C3270 H3282 0.956 . S
C3270 H3283 0.961 . S
C3270 H3284 0.961 . S
C3271 C3268 1.539 . S
C3271 H3285 0.958 . S
C3271 H3286 0.961 . S
C3271 H3287 0.960 . S
H3272 C3256 0.931 . S
H3273 C3261 0.929 . S
H3274 C3262 0.960 . S
H3275 C3262 0.962 . S
H3276 C3262 0.960 . S
H3277 C3263 0.961 . S
H3278 C3263 0.961 . S
H3279 C3263 0.961 . S
H3280 C3264 0.931 . S
H3281 C3269 0.930 . S
H3282 C3270 0.956 . S
H3283 C3270 0.961 . S
H3284 C3270 0.961 . S
H3285 C3271 0.958 . S
H3286 C3271 0.961 . S
H3287 C3271 0.960 . S
C3288 C3289 1.391 . S
C3288 C3290 1.394 . S
C3288 H3304 0.931 . S
C3289 C3288 1.391 . S
C3289 C3293 1.376 1_655 S
C3290 C3288 1.394 . S
C3290 C3291 1.369 . S
C3290 C3294 1.531 . S
C3291 C3290 1.369 . S
C3291 C3292 1.410 1_655 S
C3291 C3299 1.503 . S
C3292 C3291 1.410 1_455 S
C3292 C3293 1.392 . S
C3292 C3295 1.511 . S
C3293 C3289 1.376 1_455 S
C3293 C3292 1.392 . S
C3293 H3305 0.929 . S
C3294 C3290 1.531 . S
C3294 H3306 0.960 . S
C3294 H3307 0.962 . S
C3294 H3308 0.960 . S
C3295 C3292 1.511 . S
C3295 H3309 0.961 . S
C3295 H3310 0.961 . S
C3295 H3311 0.961 . S
C3296 C3297 1.370 . S
C3296 C3298 1.363 . S
C3296 H3312 0.931 . S
C3297 C3296 1.370 . S
C3297 C3301 1.408 . S
C3298 C3296 1.363 . S
C3298 C3299 1.370 . S
C3298 C3302 1.524 . S
C3299 C3291 1.503 . S
C3299 C3298 1.370 . S
C3299 C3300 1.403 . S
C3300 C3299 1.403 . S
C3300 C3301 1.404 . S
C3300 C3303 1.539 . S
C3301 C3297 1.408 . S
C3301 C3300 1.404 . S
C3301 H3313 0.930 . S
C3302 C3298 1.524 . S
C3302 H3314 0.956 . S
C3302 H3315 0.961 1_655 S
C3302 H3316 0.961 . S
C3303 C3300 1.539 . S
C3303 H3317 0.958 . S
C3303 H3318 0.961 1_655 S
C3303 H3319 0.960 1_655 S
H3304 C3288 0.931 . S
H3305 C3293 0.929 . S
H3306 C3294 0.960 . S
H3307 C3294 0.962 . S
H3308 C3294 0.960 . S
H3309 C3295 0.961 . S
H3310 C3295 0.961 . S
H3311 C3295 0.961 . S
H3312 C3296 0.931 . S
H3313 C3301 0.930 . S
H3314 C3302 0.956 . S
H3315 C3302 0.961 1_455 S
H3316 C3302 0.961 . S
H3317 C3303 0.958 . S
H3318 C3303 0.961 1_455 S
H3319 C3303 0.960 1_455 S
C3320 C3321 1.391 . S
C3320 C3322 1.394 . S
C3320 H3336 0.931 . S
C3321 C3320 1.391 . S
C3321 C3325 1.376 . S
C3322 C3320 1.394 . S
C3322 C3323 1.369 . S
C3322 C3326 1.531 . S
C3323 C3322 1.369 . S
C3323 C3324 1.410 . S
C3323 C3331 1.503 . S
C3324 C3323 1.410 . S
C3324 C3325 1.392 . S
C3324 C3327 1.511 . S
C3325 C3321 1.376 . S
C3325 C3324 1.392 . S
C3325 H3337 0.929 . S
C3326 C3322 1.531 . S
C3326 H3338 0.960 . S
C3326 H3339 0.962 . S
C3326 H3340 0.960 . S
C3327 C3324 1.511 . S
C3327 H3341 0.961 . S
C3327 H3342 0.961 . S
C3327 H3343 0.961 . S
C3328 C3329 1.370 . S
C3328 C3330 1.363 . S
C3328 H3344 0.931 . S
C3329 C3328 1.370 . S
C3329 C3333 1.408 . S
C3330 C3328 1.363 . S
C3330 C3331 1.370 . S
C3330 C3334 1.524 . S
C3331 C3323 1.503 . S
C3331 C3330 1.370 . S
C3331 C3332 1.403 . S
C3332 C3331 1.403 . S
C3332 C3333 1.404 . S
C3332 C3335 1.539 . S
C3333 C3329 1.408 . S
C3333 C3332 1.404 . S
C3333 H3345 0.930 . S
C3334 C3330 1.524 . S
C3334 H3346 0.956 . S
C3334 H3347 0.961 . S
C3334 H3348 0.961 . S
C3335 C3332 1.539 . S
C3335 H3349 0.958 . S
C3335 H3350 0.961 . S
C3335 H3351 0.960 . S
H3336 C3320 0.931 . S
H3337 C3325 0.929 . S
H3338 C3326 0.960 . S
H3339 C3326 0.962 . S
H3340 C3326 0.960 . S
H3341 C3327 0.961 . S
H3342 C3327 0.961 . S
H3343 C3327 0.961 . S
H3344 C3328 0.931 . S
H3345 C3333 0.930 . S
H3346 C3334 0.956 . S
H3347 C3334 0.961 . S
H3348 C3334 0.961 . S
H3349 C3335 0.958 . S
H3350 C3335 0.961 . S
H3351 C3335 0.960 . S
C3352 C3353 1.391 1_565 S
C3352 C3354 1.394 . S
C3352 H3368 0.931 . S
C3353 C3352 1.391 1_545 S
C3353 C3357 1.376 . S
C3354 C3352 1.394 . S
C3354 C3355 1.369 1_565 S
C3354 C3358 1.531 . S
C3355 C3354 1.369 1_545 S
C3355 C3356 1.410 . S
C3355 C3363 1.503 . S
C3356 C3355 1.410 . S
C3356 C3357 1.392 . S
C3356 C3359 1.511 . S
C3357 C3353 1.376 . S
C3357 C3356 1.392 . S
C3357 H3369 0.929 . S
C3358 C3354 1.531 . S
C3358 H3370 0.960 . S
C3358 H3371 0.962 . S
C3358 H3372 0.960 . S
C3359 C3356 1.511 . S
C3359 H3373 0.961 . S
C3359 H3374 0.961 . S
C3359 H3375 0.961 . S
C3360 C3361 1.370 . S
C3360 C3362 1.363 . S
C3360 H3376 0.931 . S
C3361 C3360 1.370 . S
C3361 C3365 1.408 1_545 S
C3362 C3360 1.363 . S
C3362 C3363 1.370 . S
C3362 C3366 1.524 . S
C3363 C3355 1.503 . S
C3363 C3362 1.370 . S
C3363 C3364 1.403 1_545 S
C3364 C3363 1.403 1_565 S
C3364 C3365 1.404 . S
C3364 C3367 1.539 . S
C3365 C3361 1.408 1_565 S
C3365 C3364 1.404 . S
C3365 H3377 0.930 . S
C3366 C3362 1.524 . S
C3366 H3378 0.956 . S
C3366 H3379 0.961 . S
C3366 H3380 0.961 . S
C3367 C3364 1.539 . S
C3367 H3381 0.958 . S
C3367 H3382 0.961 . S
C3367 H3383 0.960 . S
H3368 C3352 0.931 . S
H3369 C3357 0.929 . S
H3370 C3358 0.960 . S
H3371 C3358 0.962 . S
H3372 C3358 0.960 . S
H3373 C3359 0.961 . S
H3374 C3359 0.961 . S
H3375 C3359 0.961 . S
H3376 C3360 0.931 . S
H3377 C3365 0.930 . S
H3378 C3366 0.956 . S
H3379 C3366 0.961 . S
H3380 C3366 0.961 . S
H3381 C3367 0.958 . S
H3382 C3367 0.961 . S
H3383 C3367 0.960 . S
C1081 C8 1.466 1_655 S
C1089 C688 1.479 . S
C1113 C22 1.560 . S
C1121 C734 1.561 . S
C1153 C766 1.488 . S
C1145 C37 1.467 1_545 S
C1177 C36 1.474 1_565 S
C1185 C819 1.480 . S
C1209 C9 1.451 1_455 S
C1217 C865 1.489 . S
C1241 C23 1.545 . S
C1249 C904 1.564 . S
C1273 C50 1.458 1_455 S
C1281 C858 1.471 . S
C1313 C911 1.563 . S
C1305 C64 1.552 . S
C1345 C812 1.495 . S
C1337 C79 1.478 1_565 S
C1369 C78 1.388 1_545 S
C1377 C773 1.470 . S
C1409 C667 1.491 . S
C1401 C51 1.454 1_655 S
C1433 C65 1.567 . S
C1441 C713 1.562 . S
C1465 C92 1.614 . S
C1473 C943 1.619 . S
C1497 C106 1.608 . S
C1505 C1010 1.610 . S
C1537 C1056 1.587 . S
C1529 C121 1.592 . S
C1561 C120 1.549 . S
C1569 C267 1.544 . S
C1593 C93 1.579 . S
C1601 C313 1.576 . S
C1625 C107 1.572 . S
C1633 C359 1.573 . S
C1657 C134 1.542 . S
C1665 C306 1.541 . S
C1689 C148 1.564 . S
C1697 C352 1.573 . S
C1729 C260 1.569 . S
C1721 C163 1.559 . S
C1761 C1035 1.606 . S
C1753 C162 1.595 . S
C1793 C964 1.585 . S
C1785 C135 1.580 . S
C1825 C989 1.618 . S
C1817 C149 1.619 . S
C1849 C176 1.529 . S
C1857 C391 1.544 . S
C1881 C190 1.581 . S
C1889 C444 1.586 . S
C1913 C205 1.571 . S
C1921 C490 1.581 . S
C1945 C204 1.620 . S
C1953 C536 1.621 . S
C1985 C589 1.585 . S
C1977 C177 1.590 . S
C2017 C635 1.617 . S
C2009 C191 1.620 . S
C2049 C582 1.608 . S
C2041 C218 1.606 . S
C2081 C628 1.608 . S
C2073 C232 1.606 . S
C2105 C247 1.570 . S
C2113 C543 1.585 . S
C2145 C497 1.541 . S
C2137 C246 1.520 . S
C2169 C219 1.556 . S
C2177 C412 1.578 . S
C2209 C451 1.592 . S
C2201 C233 1.588 . S
C2241 C274 1.564 . S
C2233 C6 1.547 . S
C2265 C20 1.512 . S
C2273 C320 1.514 . S
C2305 C366 1.563 . S
C2297 C35 1.537 . S
C2337 C398 1.556 . S
C2329 C34 1.544 . S
C2369 C437 1.555 . S
C2361 C7 1.540 . S
C2401 C483 1.510 . S
C2393 C21 1.503 . S
C2425 C48 1.566 . S
C2433 C504 1.570 . S
C2457 C62 1.511 . S
C2465 C405 1.505 . S
C2489 C77 1.546 . S
C2497 C458 1.554 . S
C2521 C76 1.564 . S
C2529 C299 1.572 . S
C2561 C345 1.556 . S
C2553 C49 1.542 . S
C2585 C63 1.497 . S
C2593 C253 1.515 . S
C2625 C529 1.541 . S
C2617 C90 1.533 . S
C2649 C104 1.586 . S
C2657 C596 1.598 . S
C2681 C119 1.548 . S
C2689 C642 1.593 . S
C2721 C681 1.486 . S
C2713 C118 1.410 . S
C2745 C91 1.510 . S
C2753 C727 1.547 . S
C2777 C105 1.438 . S
C2785 C759 1.485 . S
C2809 C132 1.453 . S
C2817 C780 1.474 . S
C2841 C146 1.434 . S
C2849 C674 1.493 . S
C2881 C720 1.551 . S
C2873 C161 1.544 . S
C2905 C160 1.505 . S
C2913 C575 1.544 . S
C2937 C133 1.546 . S
C2945 C621 1.593 . S
C2977 C550 1.585 . S
C2969 C147 1.584 . S
C3009 C826 1.484 . S
C3001 C174 1.460 . S
C3033 C188 1.463 . S
C3041 C872 1.486 . S
C3065 C203 1.524 . S
C3073 C897 1.547 . S
C3105 C950 1.540 . S
C3097 C202 1.540 . S
C3137 C1003 1.590 . S
C3129 C175 1.565 . S
C3161 C189 1.550 . S
C3169 C1049 1.590 . S
C3193 C216 1.541 . S
C3201 C1042 1.549 . S
C3225 C230 1.582 . S
C3233 C957 1.591 . S
C3265 C996 1.595 . S
C3257 C245 1.554 . S
C3297 C851 1.483 . S
C3289 C244 1.425 . S
C3329 C918 1.551 . S
C3321 C217 1.550 . S
C3353 C231 1.463 . S
C3361 C805 1.488 . S
