# Generated by pormake.
# Topology zzz, (3,6)-cn, num edge types: 1
# Building blocks:
#     Node 0, Type 0, BuildingBlock: BETDAH_clean_linker_0, # of connection points: 3
#     Node 1, Type 0, BuildingBlock: BETDAH_clean_linker_0, # of connection points: 3
#     Node 2, Type 0, BuildingBlock: BETDAH_clean_linker_0, # of connection points: 3
#     Node 3, Type 0, BuildingBlock: BETDAH_clean_linker_0, # of connection points: 3
#     Node 4, Type 0, BuildingBlock: BETDAH_clean_linker_0, # of connection points: 3
#     Node 5, Type 0, BuildingBlock: BETDAH_clean_linker_0, # of connection points: 3
#     Node 6, Type 0, BuildingBlock: BETDAH_clean_linker_0, # of connection points: 3
#     Node 7, Type 0, BuildingBlock: BETDAH_clean_linker_0, # of connection points: 3
#     Node 8, Type 1, BuildingBlock: KUMBUR_clean_sbu_0, # of connection points: 6
#     Node 9, Type 1, BuildingBlock: KUMBUR_clean_sbu_0, # of connection points: 6
#     Node 10, Type 1, BuildingBlock: KUMBUR_clean_sbu_0, # of connection points: 6
#     Node 11, Type 1, BuildingBlock: KUMBUR_clean_sbu_0, # of connection points: 6
#     Edge 12, Type (0, 1), BuildingBlock: XUDNAN_clean_linker_2, # of connection points: 2
#     Edge 13, Type (0, 1), BuildingBlock: XUDNAN_clean_linker_2, # of connection points: 2
#     Edge 14, Type (0, 1), BuildingBlock: XUDNAN_clean_linker_2, # of connection points: 2
#     Edge 15, Type (0, 1), BuildingBlock: XUDNAN_clean_linker_2, # of connection points: 2
#     Edge 16, Type (0, 1), BuildingBlock: XUDNAN_clean_linker_2, # of connection points: 2
#     Edge 17, Type (0, 1), BuildingBlock: XUDNAN_clean_linker_2, # of connection points: 2
#     Edge 18, Type (0, 1), BuildingBlock: XUDNAN_clean_linker_2, # of connection points: 2
#     Edge 19, Type (0, 1), BuildingBlock: XUDNAN_clean_linker_2, # of connection points: 2
#     Edge 20, Type (0, 1), BuildingBlock: XUDNAN_clean_linker_2, # of connection points: 2
#     Edge 21, Type (0, 1), BuildingBlock: XUDNAN_clean_linker_2, # of connection points: 2
#     Edge 22, Type (0, 1), BuildingBlock: XUDNAN_clean_linker_2, # of connection points: 2
#     Edge 23, Type (0, 1), BuildingBlock: XUDNAN_clean_linker_2, # of connection points: 2
#     Edge 24, Type (0, 1), BuildingBlock: XUDNAN_clean_linker_2, # of connection points: 2
#     Edge 25, Type (0, 1), BuildingBlock: XUDNAN_clean_linker_2, # of connection points: 2
#     Edge 26, Type (0, 1), BuildingBlock: XUDNAN_clean_linker_2, # of connection points: 2
#     Edge 27, Type (0, 1), BuildingBlock: XUDNAN_clean_linker_2, # of connection points: 2
#     Edge 28, Type (0, 1), BuildingBlock: XUDNAN_clean_linker_2, # of connection points: 2
#     Edge 29, Type (0, 1), BuildingBlock: XUDNAN_clean_linker_2, # of connection points: 2
#     Edge 30, Type (0, 1), BuildingBlock: XUDNAN_clean_linker_2, # of connection points: 2
#     Edge 31, Type (0, 1), BuildingBlock: XUDNAN_clean_linker_2, # of connection points: 2
#     Edge 32, Type (0, 1), BuildingBlock: XUDNAN_clean_linker_2, # of connection points: 2
#     Edge 33, Type (0, 1), BuildingBlock: XUDNAN_clean_linker_2, # of connection points: 2
#     Edge 34, Type (0, 1), BuildingBlock: XUDNAN_clean_linker_2, # of connection points: 2
#     Edge 35, Type (0, 1), BuildingBlock: XUDNAN_clean_linker_2, # of connection points: 2
# Relax obj value: 0.176
# Max RMSD: 0.164
# Mean RMSD: 0.117
data_MOF--net-zzz--node1-KUMBUR_clean_sbu_0--node2-BETDAH_clean_linker_0--edge1-XUDNAN_clean_linker_2
_symmetry_space_group_name_H-M    P1
_symmetry_Int_Tables_number       1
_symmetry_cell_setting            triclinic
loop_
_symmetry_equiv_pos_as_xyz
'x, y, z'
_cell_length_a     50.618225
_cell_length_b     50.511552
_cell_length_c     14.728313
_cell_angle_alpha  91.08576
_cell_angle_beta   89.840788
_cell_angle_gamma 90.018174
loop_
_atom_site_label
_atom_site_type_symbol
_atom_site_fract_x
_atom_site_fract_y
_atom_site_fract_z
_atom_type_partial_charge
H0 H 0.82332 0.57032 0.24249 0.0
H1 H 0.74607 0.562 0.12786 0.0
H2 H 0.76299 0.52847 0.38897 0.0
C3 C 0.803 0.56391 0.25035 0.0
C4 C 0.79571 0.54938 0.3268 0.0
C5 C 0.78522 0.56837 0.17928 0.0
C6 C 0.7593 0.55889 0.18433 0.0
C7 C 0.75082 0.54484 0.2605 0.0
C8 C 0.76927 0.53984 0.33115 0.0
N9 N 0.72429 0.53496 0.26639 0.0
C10 C 0.70429 0.53851 0.20136 0.0
H11 H 0.97609 0.834 0.23268 0.0
H12 H 0.9748 0.75201 0.14576 0.0
H13 H 0.02087 0.77668 0.37702 0.0
C14 C 0.98099 0.81346 0.24291 0.0
C15 C 0.99728 0.80778 0.31705 0.0
C16 C 0.97359 0.79383 0.17787 0.0
C17 C 0.98148 0.76752 0.19159 0.0
C18 C 0.99932 0.76111 0.26022 0.0
C19 C 1.00707 0.78139 0.32365 0.0
N20 N 1.01044 0.73487 0.26352 0.0
C21 C 1.00738 0.71457 0.19653 0.0
H22 H 0.69302 1.00458 0.17843 0.0
H23 H 0.77447 0.99484 0.10009 0.0
H24 H 0.75381 0.01446 0.37789 0.0
C25 C 0.71372 1.00322 0.19635 0.0
C26 C 0.72067 1.00859 0.28674 0.0
C27 C 0.73285 0.99844 0.12828 0.0
C28 C 0.75969 0.99852 0.15208 0.0
C29 C 0.76763 1.00444 0.24148 0.0
C30 C 0.74792 1.00929 0.30919 0.0
N31 N 0.79513 1.00684 0.26357 0.0
C32 C 0.81644 1.00408 0.2021 0.0
H33 H 0.5741 0.7189 0.24056 0.0
H34 H 0.57074 0.79647 0.12915 0.0
H35 H 0.52569 0.77867 0.36962 0.0
C36 C 0.56675 0.73899 0.24446 0.0
C37 C 0.54872 0.74594 0.31342 0.0
C38 C 0.57433 0.75682 0.17698 0.0
C39 C 0.56496 0.78291 0.18153 0.0
C40 C 0.5477 0.79121 0.25148 0.0
C41 C 0.53962 0.77257 0.31739 0.0
N42 N 0.53751 0.81772 0.25495 0.0
C43 C 0.54197 0.83702 0.18891 0.0
H44 H 0.21853 0.48338 0.11954 0.0
H45 H 0.29688 0.49133 0.22741 0.0
H46 H 0.27848 0.52288 0.96485 0.0
C47 C 0.23894 0.48924 0.11006 0.0
C48 C 0.24596 0.50284 0.03127 0.0
C49 C 0.25711 0.48511 0.18069 0.0
C50 C 0.28309 0.49433 0.17241 0.0
C51 C 0.29113 0.50784 0.09471 0.0
C52 C 0.27242 0.51214 0.02435 0.0
N53 N 0.31759 0.51765 0.08638 0.0
C54 C 0.33713 0.51778 0.15446 0.0
H55 H 0.05344 0.21022 0.14281 0.0
H56 H 0.0578 0.29137 0.24021 0.0
H57 H 0.02016 0.27239 0.98619 0.0
C58 C 0.05067 0.2312 0.13307 0.0
C59 C 0.03786 0.23883 0.05329 0.0
C60 C 0.0573 0.24969 0.20298 0.0
C61 C 0.05186 0.27671 0.1899 0.0
C62 C 0.03791 0.28514 0.11384 0.0
C63 C 0.03108 0.26607 0.04509 0.0
N64 N 0.03019 0.31242 0.10607 0.0
C65 C 0.02921 0.3319 0.17657 0.0
H66 H 0.32741 0.0676 0.12757 0.0
H67 H 0.2472 0.077 0.22296 0.0
H68 H 0.26287 0.0451 0.95508 0.0
C69 C 0.3063 0.06644 0.11649 0.0
C70 C 0.29757 0.0566 0.03224 0.0
C71 C 0.28845 0.07416 0.18602 0.0
C72 C 0.26117 0.07102 0.17084 0.0
C73 C 0.25168 0.05969 0.0895 0.0
C74 C 0.27001 0.05321 0.01903 0.0
N75 N 0.22404 0.05422 0.07791 0.0
C76 C 0.20411 0.05795 0.14416 0.0
H77 H 0.5318 0.31767 0.02736 0.0
H78 H 0.51824 0.242 0.1474 0.0
H79 H 0.47451 0.26492 0.90974 0.0
C80 C 0.52247 0.29834 0.02468 0.0
C81 C 0.50344 0.29347 0.95797 0.0
C82 C 0.5279 0.28008 0.09304 0.0
C83 C 0.51435 0.25585 0.09378 0.0
C84 C 0.49529 0.24994 0.02699 0.0
C85 C 0.48965 0.26905 0.95986 0.0
N86 N 0.48102 0.22546 0.02688 0.0
C87 C 0.48375 0.20487 0.08922 0.0
Tb88 Tb 0.0361 0.01803 0.7608 0.0
C89 C 0.95128 0.99456 0.47518 0.0
C90 C 0.97638 0.97747 0.34717 0.0
C91 C 0.92933 0.96887 0.35541 0.0
C92 C 0.97501 0.992 0.43025 0.0
C93 C 0.92813 0.98286 0.43847 0.0
C94 C 0.95339 0.96635 0.30945 0.0
C95 C 0.90341 1.00221 0.56247 0.0
N96 N 0.95058 1.00947 0.55268 0.0
C97 C 0.92655 1.01427 0.59384 0.0
C98 C 0.9042 0.9863 0.48451 0.0
Tb99 Tb 0.98906 0.03204 0.59242 0.0
N100 N 0.99663 1.00398 0.46702 0.0
C101 C 0.02052 1.00121 0.42296 0.0
C102 C 1.00074 0.97465 0.30374 0.0
C103 C 0.02293 0.98638 0.34236 0.0
H104 H 0.92492 0.02845 0.64915 0.0
H105 H 0.04201 0.98415 0.30977 0.0
H106 H 0.95409 0.95541 0.24545 0.0
H107 H 0.88481 1.00601 0.59673 0.0
H108 H 0.03849 1.00928 0.44979 0.0
H109 H 0.99874 0.0774 0.04906 0.0
H110 H 1.00262 0.96344 0.24058 0.0
H111 H 0.09781 1.00703 0.6921 0.0
H112 H 0.99427 0.05167 0.91116 0.0
H113 H 0.14278 0.02092 0.73388 0.0
H114 H 0.91176 0.95993 0.32623 0.0
H115 H 0.04269 0.08984 0.10728 0.0
H116 H 0.09151 0.08914 0.08806 0.0
H117 H 0.88611 0.97753 0.45871 0.0
H118 H 0.13052 0.07559 0.99914 0.0
N119 N 0.03608 0.04792 0.88402 0.0
C120 C 0.0141 0.05592 0.93273 0.0
C121 C 0.04108 0.07819 0.04496 0.0
C122 C 0.06349 0.0705 0.99602 0.0
C123 C 0.01631 0.07116 0.01245 0.0
C124 C 0.06036 0.05543 0.91472 0.0
H125 H 0.14973 0.05091 0.8661 0.0
N126 N 0.07875 0.03161 0.79189 0.0
C127 C 0.12599 0.02882 0.7711 0.0
C128 C 0.08233 0.04751 0.8659 0.0
C129 C 0.10038 0.02143 0.74649 0.0
C130 C 0.12982 0.04568 0.84574 0.0
C131 C 0.10795 0.05474 0.89546 0.0
O132 O 0.06218 0.99203 0.8262 0.0
O133 O 1.01153 1.00021 0.65266 0.0
O134 O 0.9669 1.01412 0.70583 0.0
O135 O 0.99695 0.01474 0.82488 0.0
O136 O 0.051 0.99191 0.6533 0.0
O137 O 0.02058 0.98558 0.83038 0.0
O138 O 0.95744 0.05641 0.55621 0.0
O139 O 0.01455 0.04998 0.69786 0.0
O140 O 0.05906 0.03677 0.65114 0.0
O141 O 0.02776 0.04522 0.53961 0.0
O142 O 0.97586 0.06059 0.69607 0.0
O143 O 0.99521 0.06056 0.4919 0.0
C144 C 0.02908 0.98556 0.61488 0.0
C145 C 0.04734 0.94777 0.81012 0.0
C146 C 0.0287 0.90368 0.78139 0.0
C147 C 0.02559 0.93058 0.80567 0.0
C148 C 0.05399 0.89485 0.7539 0.0
C149 C 0.0723 0.93845 0.78276 0.0
C150 C 0.07543 0.91225 0.75331 0.0
C151 C 0.97265 1.01182 0.79302 0.0
C152 C 0.04364 0.97526 0.84365 0.0
C153 C 0.11105 0.06997 0.97532 0.0
C154 C 0.08887 0.07754 0.02612 0.0
C155 C 0.99806 0.06603 0.73427 0.0
C156 C 0.97086 0.09953 0.52923 0.0
C157 C 0.99384 0.11394 0.55043 0.0
C158 C 0.99245 0.14113 0.57248 0.0
C159 C 0.96735 0.15314 0.57957 0.0
C160 C 0.94618 0.112 0.53586 0.0
C161 C 0.94446 0.13856 0.56232 0.0
C162 C 0.05248 0.04515 0.56953 0.0
C163 C 0.97203 0.07113 0.5057 0.0
H164 H 1.00626 0.93828 0.8232 0.0
H165 H 0.05776 0.87433 0.73629 0.0
H166 H 0.08941 0.95133 0.78422 0.0
H167 H 0.09474 0.90515 0.73258 0.0
H168 H 1.01282 0.10408 0.5483 0.0
H169 H 0.96523 0.1741 0.59418 0.0
H170 H 0.92819 0.1011 0.52134 0.0
H171 H 0.92533 0.14808 0.56714 0.0
Tb172 Tb 0.51423 0.04636 0.72567 0.0
C173 C 0.53728 0.94876 0.51516 0.0
C174 C 0.56401 0.96508 0.39182 0.0
C175 C 0.57031 0.92018 0.44347 0.0
C176 C 0.54409 0.96898 0.45811 0.0
C177 C 0.54988 0.92387 0.50706 0.0
C178 C 0.57727 0.94071 0.38565 0.0
C179 C 0.51877 0.90691 0.61579 0.0
N180 N 0.51698 0.95286 0.57401 0.0
C181 C 0.50667 0.93177 0.62042 0.0
C182 C 0.54074 0.90304 0.55991 0.0
Tb183 Tb 0.49768 0.99445 0.57347 0.0
N184 N 0.53007 0.99186 0.46358 0.0
C185 C 0.53428 1.01112 0.40101 0.0
C186 C 0.56934 0.98541 0.33144 0.0
C187 C 0.55416 1.00839 0.33534 0.0
H188 H 0.48967 0.93455 0.66427 0.0
H189 H 0.55764 0.024 0.28742 0.0
H190 H 0.59247 0.93731 0.33481 0.0
H191 H 0.51107 0.89075 0.65519 0.0
H192 H 0.52269 0.02885 0.40087 0.0
H193 H 0.47225 0.9947 0.02006 0.0
H194 H 0.58456 0.98324 0.27994 0.0
H195 H 0.4868 0.09967 0.62195 0.0
H196 H 0.49106 0.99597 0.86976 0.0
H197 H 0.45587 0.13444 0.65779 0.0
H198 H 0.58027 0.90126 0.43646 0.0
H199 H 0.45138 0.03453 0.08712 0.0
H200 H 0.43365 0.07974 0.06216 0.0
H201 H 0.54993 0.88368 0.5557 0.0
H202 H 0.42695 0.11682 0.95938 0.0
N203 N 0.48805 0.03806 0.85496 0.0
C204 C 0.48557 0.01455 0.90003 0.0
C205 C 0.46136 0.03569 0.02212 0.0
C206 C 0.45995 0.05842 0.97031 0.0
C207 C 0.47335 1.01329 0.985 0.0
C208 C 0.47351 0.05895 0.88605 0.0
H209 H 0.43385 0.13646 0.80725 0.0
N210 N 0.48133 0.07825 0.74528 0.0
C211 C 0.45926 0.11897 0.7063 0.0
C212 C 0.46955 0.07954 0.82822 0.0
C213 C 0.47659 0.09822 0.68523 0.0
C214 C 0.4471 0.1202 0.79082 0.0
C215 C 0.45218 0.10045 0.85317 0.0
O216 O 0.53069 0.08369 0.70079 0.0
O217 O 0.52751 0.02382 0.6057 0.0
O218 O 0.51943 0.97726 0.68801 0.0
O219 O 0.52852 1.01051 0.79635 0.0
O220 O 0.55381 0.02931 0.70729 0.0
O221 O 0.53737 0.0648 0.82772 0.0
O222 O 0.46932 0.96525 0.5484 0.0
O223 O 0.48193 0.02515 0.66403 0.0
O224 O 0.51083 0.06283 0.58757 0.0
O225 O 0.48613 0.03163 0.50751 0.0
O226 O 0.46681 0.98817 0.67751 0.0
O227 O 0.47691 0.99476 0.44915 0.0
C228 C 0.55148 0.01945 0.6267 0.0
C229 C 0.57138 0.09232 0.76919 0.0
C230 C 0.61828 0.08034 0.76126 0.0
C231 C 0.59156 0.07337 0.77331 0.0
C232 C 0.62429 0.10719 0.74614 0.0
C233 C 0.57789 0.11873 0.75278 0.0
C234 C 0.60423 0.1261 0.74158 0.0
C235 C 0.52873 0.98523 0.76801 0.0
C236 C 0.54335 0.0848 0.77698 0.0
C237 C 0.44002 0.10079 0.93888 0.0
C238 C 0.44398 0.07981 0.99759 0.0
C239 C 0.46438 1.01229 0.70528 0.0
C240 C 0.43323 0.97883 0.46812 0.0
C241 C 0.42152 1.00245 0.49968 0.0
C242 C 0.39398 1.00422 0.5085 0.0
C243 C 0.37835 0.98199 0.48587 0.0
C244 C 0.41739 0.95697 0.44523 0.0
C245 C 0.39003 0.95857 0.45426 0.0
C246 C 0.49561 0.05599 0.51767 0.0
C247 C 0.46178 0.97518 0.47262 0.0
H248 H 0.58629 0.05323 0.78633 0.0
H249 H 0.64446 0.11399 0.74015 0.0
H250 H 0.56257 0.13364 0.7485 0.0
H251 H 0.60916 0.14662 0.72989 0.0
H252 H 0.43375 0.0193 0.51807 0.0
H253 H 0.35699 0.98297 0.48947 0.0
H254 H 0.42626 0.93845 0.42273 0.0
H255 H 0.37785 0.94164 0.43662 0.0
Tb256 Tb 0.5428 0.51709 0.60542 0.0
C257 C 0.43731 0.50839 0.78062 0.0
C258 C 0.40915 0.53256 0.67924 0.0
C259 C 0.39111 0.49596 0.76425 0.0
C260 C 0.43413 0.52807 0.71845 0.0
C261 C 0.41568 0.49255 0.80645 0.0
C262 C 0.38783 0.51601 0.7009 0.0
C263 C 0.44321 0.47367 0.92198 0.0
N264 N 0.46119 0.50612 0.82089 0.0
C265 C 0.46397 0.48996 0.89445 0.0
C266 C 0.41906 0.47464 0.87676 0.0
Tb267 Tb 0.49434 0.53376 0.77068 0.0
N268 N 0.45501 0.54412 0.70178 0.0
C269 C 0.45153 0.56628 0.6512 0.0
C270 C 0.40606 0.55423 0.62269 0.0
C271 C 0.42722 0.57146 0.61012 0.0
H272 H 0.4827 0.48879 0.92926 0.0
H273 H 0.42489 0.58872 0.56843 0.0
H274 H 0.36852 0.51912 0.6714 0.0
H275 H 0.44587 0.46036 0.97795 0.0
H276 H 0.46736 0.58002 0.64047 0.0
H277 H 0.60117 0.45014 0.81468 0.0
H278 H 0.38726 0.55831 0.59092 0.0
H279 H 0.56428 0.56999 0.48648 0.0
H280 H 0.56164 0.4653 0.74317 0.0
H281 H 0.60153 0.60032 0.48876 0.0
H282 H 0.3743 0.48386 0.78251 0.0
H283 H 0.64169 0.47711 0.8114 0.0
H284 H 0.66376 0.51909 0.77099 0.0
H285 H 0.40293 0.46214 0.89856 0.0
H286 H 0.66301 0.56106 0.69017 0.0
N287 N 0.57824 0.50082 0.68891 0.0
C288 C 0.57863 0.47741 0.73516 0.0
C289 C 0.62406 0.48401 0.7777 0.0
C290 C 0.62373 0.50823 0.7341 0.0
C291 C 0.60136 0.46866 0.77884 0.0
C292 C 0.60046 0.51609 0.68859 0.0
H293 H 0.63983 0.59175 0.58714 0.0
N294 N 0.57786 0.54657 0.59729 0.0
C295 C 0.60116 0.58384 0.5347 0.0
C296 C 0.60001 0.53989 0.6435 0.0
C297 C 0.57942 0.56686 0.53639 0.0
C298 C 0.62276 0.57883 0.58969 0.0
C299 C 0.62285 0.55612 0.64215 0.0
O300 O 0.54507 0.5236 0.46473 0.0
O301 O 0.50172 0.52797 0.62701 0.0
O302 O 0.4922 0.49046 0.747 0.0
O303 O 0.52847 0.47857 0.65653 0.0
O304 O 0.50887 0.49738 0.53906 0.0
O305 O 0.56748 0.49259 0.52712 0.0
O306 O 0.49177 0.5382 0.91211 0.0
O307 O 0.53656 0.5333 0.74138 0.0
O308 O 0.52979 0.55807 0.58001 0.0
O309 O 0.50859 0.57147 0.71303 0.0
O310 O 0.52421 0.51687 0.85999 0.0
O311 O 0.48431 0.57125 0.82694 0.0
C312 C 0.49019 0.51191 0.57271 0.0
C313 C 0.55309 0.48464 0.37666 0.0
C314 C 0.55263 0.43996 0.31179 0.0
C315 C 0.55784 0.45736 0.38448 0.0
C316 C 0.54224 0.44983 0.23085 0.0
C317 C 0.5426 0.49425 0.29544 0.0
C318 C 0.53699 0.47683 0.22326 0.0
C319 C 0.50802 0.47242 0.70922 0.0
C320 C 0.56032 0.50315 0.45103 0.0
C321 C 0.6455 0.54871 0.68991 0.0
C322 C 0.64599 0.52475 0.73536 0.0
C323 C 0.54474 0.52363 0.81503 0.0
C324 C 0.50624 0.57886 0.96818 0.0
C325 C 0.52562 0.59561 0.93197 0.0
C326 C 0.54301 0.60965 0.98963 0.0
C327 C 0.54148 0.60565 0.084 0.0
C328 C 0.50508 0.57528 0.0623 0.0
C329 C 0.5228 0.58839 0.11969 0.0
C330 C 0.51992 0.57688 0.63409 0.0
C331 C 0.48814 0.56349 0.90965 0.0
H332 H 0.5661 0.44955 0.44633 0.0
H333 H 0.5379 0.43661 0.17405 0.0
H334 H 0.53898 0.51521 0.28745 0.0
H335 H 0.52891 0.48434 0.16083 0.0
H336 H 0.5271 0.59789 0.85933 0.0
H337 H 0.55401 0.61656 0.13095 0.0
H338 H 0.49057 0.56209 0.09134 0.0
H339 H 0.52177 0.58553 0.19226 0.0
Tb340 Tb 0.02703 0.54923 0.59651 0.0
C341 C 0.04375 0.44642 0.80256 0.0
C342 C 0.02406 0.41182 0.71012 0.0
C343 C 0.06105 0.40156 0.80791 0.0
C344 C 0.02559 0.43863 0.73857 0.0
C345 C 0.06095 0.4278 0.84121 0.0
C346 C 0.04264 0.39359 0.74202 0.0
C347 C 0.07381 0.46143 0.95087 0.0
N348 N 0.04268 0.47178 0.83352 0.0
C349 C 0.05701 0.47932 0.90866 0.0
C350 C 0.07632 0.43571 0.91562 0.0
Tb351 Tb 0.0139 0.49991 0.7621 0.0
N352 N 1.00746 0.45671 0.71262 0.0
C353 C 0.98539 0.44822 0.66721 0.0
C354 C 1.00288 0.40381 0.65559 0.0
C355 C 0.98307 0.42196 0.63622 0.0
H356 H 0.05573 0.4993 0.93568 0.0
H357 H 0.96595 0.41577 0.59742 0.0
H358 H 0.04204 0.37302 0.71982 0.0
H359 H 0.08496 0.4676 1.01019 0.0
H360 H 0.96964 0.46151 0.65185 0.0
H361 H 0.07111 0.62946 0.79481 0.0
H362 H 1.00093 0.38344 0.63222 0.0
H363 H 0.98446 0.55107 0.42607 0.0
H364 H 0.06718 0.5842 0.73674 0.0
H365 H 0.95672 0.584 0.35061 0.0
H366 H 0.0744 0.38704 0.83559 0.0
H367 H 0.03975 0.66381 0.74595 0.0
H368 H 1.0021 0.67656 0.64521 0.0
H369 H 0.08946 0.42191 0.94821 0.0
H370 H 0.97098 0.66427 0.52335 0.0
N371 N 0.03313 0.59152 0.65525 0.0
C372 C 0.05329 0.5985 0.71291 0.0
C373 C 0.03785 0.64373 0.71959 0.0
C374 C 0.01838 0.63705 0.65616 0.0
C375 C 0.05562 0.62443 0.74701 0.0
C376 C 0.01663 0.61052 0.62464 0.0
H377 H 0.9546 0.63002 0.4109 0.0
N378 N 0.99879 0.57819 0.52726 0.0
C379 C 0.9682 0.58976 0.40965 0.0
C380 C 0.99892 0.60363 0.55775 0.0
C381 C 0.98409 0.57117 0.45243 0.0
C382 C 0.96707 0.61568 0.44383 0.0
C383 C 0.98271 0.62299 0.51831 0.0
O384 O 0.03599 0.55295 0.45848 0.0
O385 O 0.02617 0.50704 0.6245 0.0
O386 O 0.05729 0.49996 0.74095 0.0
O387 O 0.0629 0.54158 0.67908 0.0
O388 O 0.01503 0.51814 0.49841 0.0
O389 O 0.06666 0.55594 0.55889 0.0
O390 O 1.00462 0.49669 0.90037 0.0
O391 O 0.0138 0.54198 0.7329 0.0
O392 O 0.9837 0.54872 0.61712 0.0
O393 O 0.97879 0.50621 0.67318 0.0
O394 O 0.02777 0.53168 0.85556 0.0
O395 O 0.97383 0.49719 0.80122 0.0
C396 C 0.01898 0.49787 0.54738 0.0
C397 C 0.07609 0.53289 0.41988 0.0
C398 C 0.10965 0.49818 0.40795 0.0
C399 C 0.09565 0.51719 0.46006 0.0
C400 C 0.10276 0.49439 0.31571 0.0
C401 C 0.06986 0.52879 0.32788 0.0
C402 C 0.08288 0.5094 0.27663 0.0
C403 C 0.0725 0.5204 0.72025 0.0
C404 C 0.06124 0.55301 0.47278 0.0
C405 C 0.98348 0.64917 0.552 0.0
C406 C 1.00122 0.65616 0.62124 0.0
C407 C 0.0222 0.55173 0.80727 0.0
C408 C 0.96846 0.52424 0.9338 0.0
C409 C 0.94684 0.53788 0.89725 0.0
C410 C 0.93731 0.56129 0.93929 0.0
C411 C 0.95051 0.57142 0.01659 0.0
C412 C 0.98081 0.53454 0.01231 0.0
C413 C 0.9721 0.55815 0.05239 0.0
C414 C 0.96881 0.52777 0.63472 0.0
C415 C 0.97969 0.50068 0.88659 0.0
H416 H 0.10025 0.52006 0.53129 0.0
H417 H 0.11344 0.48071 0.27173 0.0
H418 H 0.05478 0.54056 0.29563 0.0
H419 H 0.07802 0.50644 0.20561 0.0
H420 H 0.93731 0.53019 0.83647 0.0
H421 H 0.94353 0.58899 0.05235 0.0
H422 H 0.99759 0.52462 0.04193 0.0
H423 H 0.98184 0.56596 0.11249 0.0
H424 H 0.19132 0.03102 0.29979 0.0
H425 H 0.16423 0.09282 0.12279 0.0
H426 H 0.12357 0.09794 0.21567 0.0
H427 H 0.12815 1.00091 0.3369 0.0
H428 H 0.13397 0.99367 0.45452 0.0
H429 H 0.16136 0.99565 0.37665 0.0
H430 H 0.18338 0.03113 0.48076 0.0
H431 H 0.15598 0.02922 0.55876 0.0
H432 H 0.16524 0.06063 0.51214 0.0
H433 H 0.08379 0.09389 0.32239 0.0
H434 H 0.05004 0.08285 0.43776 0.0
H435 H 0.10307 0.02462 0.54922 0.0
C436 C 0.17691 0.04579 0.28131 0.0
C437 C 0.18102 0.06165 0.20402 0.0
C438 C 0.16158 0.08056 0.18169 0.0
C439 C 0.13834 0.08354 0.23405 0.0
C440 C 0.13466 0.06748 0.30929 0.0
C441 C 0.15353 0.04909 0.33339 0.0
C442 C 0.1445 0.03408 0.41684 0.0
C443 C 0.14184 1.00432 0.39489 0.0
C444 C 0.16341 0.03907 0.49686 0.0
C445 C 0.11759 0.04665 0.43533 0.0
C446 C 0.11224 0.06583 0.37231 0.0
C447 C 0.08804 0.07918 0.37278 0.0
C448 C 0.06891 0.07276 0.43876 0.0
C449 C 0.07393 0.05332 0.50482 0.0
C450 C 0.09879 0.04025 0.50256 0.0
H451 H 0.51275 0.19233 0.24192 0.0
H452 H 0.4518 0.16321 0.05975 0.0
H453 H 0.4481 0.12231 0.14877 0.0
H454 H 0.54458 0.12876 0.27672 0.0
H455 H 0.55158 0.13511 0.39506 0.0
H456 H 0.54946 0.16225 0.31776 0.0
H457 H 0.51372 0.18439 0.41992 0.0
H458 H 0.51576 0.15728 0.4974 0.0
H459 H 0.48441 0.16603 0.44866 0.0
H460 H 0.45109 0.0841 0.25705 0.0
H461 H 0.45998 0.05203 0.37766 0.0
H462 H 0.51956 0.10488 0.49079 0.0
C463 C 0.49871 0.17726 0.22095 0.0
C464 C 0.4825 0.18092 0.14379 0.0
C465 C 0.46436 0.1608 0.11849 0.0
C466 C 0.46216 0.13746 0.16861 0.0
C467 C 0.47834 0.1343 0.2442 0.0
C468 C 0.49629 0.15363 0.27047 0.0
C469 C 0.51124 0.14512 0.35477 0.0
C470 C 0.54098 0.14267 0.33486 0.0
C471 C 0.50597 0.16436 0.43492 0.0
C472 C 0.49893 0.1181 0.37157 0.0
C473 C 0.47998 0.11228 0.30692 0.0
C474 C 0.46587 0.08852 0.30809 0.0
C475 C 0.47115 0.07032 0.37699 0.0
C476 C 0.49045 0.07572 0.44456 0.0
C477 C 0.50454 0.10004 0.44095 0.0
H478 H 0.35677 0.48376 0.28406 0.0
H479 H 0.369 0.56025 0.16251 0.0
H480 H 0.40831 0.56762 0.25926 0.0
H481 H 0.37619 0.50362 0.51089 0.0
H482 H 0.39347 0.47356 0.53809 0.0
H483 H 0.36628 0.47262 0.4592 0.0
H484 H 0.39498 0.45131 0.33369 0.0
H485 H 0.42232 0.4505 0.41165 0.0
H486 H 0.42603 0.46635 0.30371 0.0
H487 H 0.44782 0.56596 0.36378 0.0
H488 H 0.48345 0.55611 0.47258 0.0
H489 H 0.44607 0.48133 0.53307 0.0
C490 C 0.3677 0.50209 0.27843 0.0
C491 C 0.35973 0.52156 0.21583 0.0
C492 C 0.37463 0.54517 0.21012 0.0
C493 C 0.39705 0.5495 0.26484 0.0
C494 C 0.40452 0.53003 0.32571 0.0
C495 C 0.3903 0.50677 0.33311 0.0
C496 C 0.40285 0.4891 0.40401 0.0
C497 C 0.38356 0.48443 0.4828 0.0
C498 C 0.41209 0.46275 0.36066 0.0
C499 C 0.42633 0.50595 0.43481 0.0
C500 C 0.4269 0.52946 0.3883 0.0
C501 C 0.44725 0.5478 0.40159 0.0
C502 C 0.46739 0.54212 0.46402 0.0
C503 C 0.46705 0.51849 0.51426 0.0
C504 C 0.44637 0.49999 0.49811 0.0
H505 H 0.06252 0.35964 0.29773 0.0
H506 H 0.98256 0.35643 0.19355 0.0
H507 H 0.97097 0.39603 0.28617 0.0
H508 H 0.0445 0.38171 0.52913 0.0
H509 H 0.07184 0.40423 0.54451 0.0
H510 H 0.07534 0.37532 0.47167 0.0
H511 H 0.08916 0.40391 0.33707 0.0
H512 H 0.08653 0.43311 0.40873 0.0
H513 H 0.06842 0.43106 0.30374 0.0
H514 H 0.96864 0.43828 0.37728 0.0
H515 H 0.97493 0.47922 0.4684 0.0
H516 H 0.05528 0.45585 0.52771 0.0
C517 C 0.04251 0.36715 0.29548 0.0
C518 C 0.0233 0.35464 0.23829 0.0
C519 C 0.99751 0.36538 0.23681 0.0
C520 C 0.99074 0.38797 0.28935 0.0
C521 C 1.00991 0.39992 0.3445 0.0
C522 C 0.03528 0.3899 0.3487 0.0
C523 C 0.05199 0.40721 0.41322 0.0
C524 C 0.06149 0.39117 0.49449 0.0
C525 C 0.07542 0.41953 0.36256 0.0
C526 C 0.03215 0.42856 0.44343 0.0
C527 C 1.00807 0.42386 0.40199 0.0
C528 C 0.9872 0.44172 0.41185 0.0
C529 C 0.99092 0.46496 0.46434 0.0
C530 C 0.01503 0.47027 0.50991 0.0
C531 C 0.03606 0.4517 0.4987 0.0
H532 H 0.82927 0.02595 0.03673 0.0
H533 H 0.85923 0.97549 0.2476 0.0
H534 H 0.90158 0.97078 0.16399 0.0
H535 H 0.86122 0.991 0.84531 0.0
H536 H 0.86855 0.02078 0.7846 0.0
H537 H 0.84022 0.01964 0.85889 0.0
H538 H 0.85748 0.06081 0.94772 0.0
H539 H 0.88576 0.06212 0.87343 0.0
H540 H 0.89035 0.0604 0.99449 0.0
H541 H 0.94181 0.97307 0.06058 0.0
H542 H 0.97593 0.98128 0.94401 0.0
H543 H 0.92076 0.03057 0.79935 0.0
C544 C 0.84473 1.01376 0.06475 0.0
C545 C 0.84087 1.00089 0.14863 0.0
C546 C 0.86165 0.98535 0.18339 0.0
C547 C 0.88583 0.98262 0.1364 0.0
C548 C 0.88916 0.99557 0.05421 0.0
C549 C 0.86915 1.01081 0.01838 0.0
C550 C 0.87816 0.02297 0.92942 0.0
C551 C 0.86101 1.013 0.84985 0.0
C552 C 0.87792 0.05338 0.93674 0.0
C553 C 0.90629 1.01236 0.9212 0.0
C554 C 0.91221 0.99658 0.99398 0.0
C555 C 0.9372 0.9852 1.00294 0.0
C556 C 0.95656 0.99002 0.93619 0.0
C557 C 0.95106 1.00596 0.86023 0.0
C558 C 0.92546 0.01732 0.85353 0.0
H559 H 0.52845 0.88971 0.1996 0.0
H560 H 0.56316 0.83 0.02105 0.0
H561 H 0.56826 0.86323 0.90117 0.0
H562 H 0.49085 0.92191 0.0299 0.0
H563 H 0.49567 0.95485 0.07606 0.0
H564 H 0.49671 0.92688 0.14975 0.0
H565 H 0.54308 0.94148 0.20445 0.0
H566 H 0.54225 0.96932 0.12973 0.0
H567 H 0.56917 0.946 0.12264 0.0
H568 H 0.56738 0.90217 0.79699 0.0
H569 H 0.55798 0.94285 0.71318 0.0
H570 H 0.52417 0.9786 0.95699 0.0
C571 C 0.53742 0.8838 0.13553 0.0
C572 C 0.54568 0.85725 0.11992 0.0
C573 C 0.55698 0.85018 0.03498 0.0
C574 C 0.55998 0.869 0.9664 0.0
C575 C 0.55164 0.89499 0.98348 0.0
C576 C 0.54056 0.90247 0.06594 0.0
C577 C 0.53194 0.9314 0.06451 0.0
C578 C 0.50201 0.93389 0.08099 0.0
C579 C 0.54755 0.94803 0.13446 0.0
C580 C 0.53928 0.9388 0.96771 0.0
C581 C 0.55089 0.9175 0.92278 0.0
C582 C 0.55831 0.91892 0.83176 0.0
C583 C 0.55277 0.94215 0.78442 0.0
C584 C 0.53962 0.96387 0.8269 0.0
C585 C 0.53388 0.96246 0.92128 0.0
H586 H 0.66174 0.50564 0.17898 0.0
H587 H 0.69678 0.57783 0.08017 0.0
H588 H 0.65941 0.58288 0.97285 0.0
H589 H 0.63929 0.4806 0.97109 0.0
H590 H 0.60781 0.46781 1.0078 0.0
H591 H 0.6351 0.46991 0.08584 0.0
H592 H 0.60949 0.49854 0.20023 0.0
H593 H 0.58089 0.49556 0.12832 0.0
H594 H 0.59262 0.52784 0.16312 0.0
H595 H 0.61669 0.5803 0.87737 0.0
H596 H 0.57538 0.56846 0.79583 0.0
H597 H 0.56918 0.49694 0.952 0.0
C598 C 0.66148 0.52252 0.13475 0.0
C599 C 0.68222 0.54135 0.1377 0.0
C600 C 0.68116 0.56317 0.0789 0.0
C601 C 0.65993 0.56621 0.01788 0.0
C602 C 0.63975 0.54728 0.01632 0.0
C603 C 0.64039 0.52584 0.07344 0.0
C604 C 0.61653 0.50804 0.0575 0.0
C605 C 0.62516 0.47993 0.02872 0.0
C606 C 0.59886 0.50749 0.14247 0.0
C607 C 0.60277 0.52224 0.98062 0.0
C608 C 0.61613 0.54517 0.95907 0.0
C609 C 0.60644 0.56213 0.89288 0.0
C610 C 0.58301 0.55518 0.84635 0.0
C611 C 0.56965 0.53117 0.86435 0.0
C612 C 0.57939 0.515 0.93448 0.0
H613 H 0.0385 0.67002 0.18014 0.0
H614 H 0.9713 0.70894 0.05987 0.0
H615 H 0.96728 0.67206 0.94691 0.0
H616 H 0.06689 0.64457 0.97008 0.0
H617 H 0.07751 0.61373 0.01757 0.0
H618 H 0.07494 0.64297 0.08901 0.0
H619 H 0.0438 0.61818 0.19747 0.0
H620 H 0.04583 0.58877 0.12663 0.0
H621 H 0.01409 0.60309 0.15363 0.0
H622 H 0.97065 0.62931 0.84513 0.0
H623 H 0.98163 0.58668 0.76695 0.0
H624 H 0.0468 0.57586 0.95229 0.0
C625 C 0.02294 0.67078 0.12994 0.0
C626 C 1.00519 0.69255 0.12915 0.0
C627 C 0.98514 0.69263 0.06219 0.0
C628 C 0.98271 0.67166 0.99755 0.0
C629 C 1.0005 0.65046 1.00002 0.0
C630 C 0.02027 0.64994 0.06473 0.0
C631 C 0.03692 0.62496 0.0529 0.0
C632 C 0.06578 0.63199 0.0311 0.0
C633 C 0.03505 0.60773 0.13767 0.0
C634 C 0.0236 0.61151 0.97161 0.0
C635 C 1.00257 0.62644 0.94185 0.0
C636 C 0.98728 0.61774 0.86785 0.0
C637 C 0.99375 0.5935 0.82315 0.0
C638 C 0.01556 0.57813 0.85135 0.0
C639 C 0.03029 0.5873 0.92772 0.0
H640 H 0.08336 0.20338 0.2461 0.0
H641 H 0.04927 0.27405 0.3715 0.0
H642 H 0.04867 0.25264 0.51651 0.0
H643 H 0.03836 0.16684 0.30624 0.0
H644 H 0.05574 0.13665 0.33107 0.0
H645 H 0.07025 0.15982 0.25623 0.0
H646 H 0.11188 0.16211 0.35714 0.0
H647 H 0.09717 0.13882 0.43374 0.0
H648 H 0.10891 0.17035 0.47635 0.0
H649 H 0.03321 0.22179 0.62554 0.0
H650 H 1.00239 0.18708 0.6716 0.0
H651 H 0.03737 0.13343 0.47203 0.0
C652 C 0.07626 0.21458 0.30442 0.0
C653 C 0.06561 0.24025 0.29468 0.0
C654 C 0.05781 0.25449 0.37436 0.0
C655 C 0.05735 0.24231 0.45872 0.0
C656 C 0.06408 0.21563 0.46319 0.0
C657 C 0.07381 0.20189 0.3878 0.0
C658 C 0.07169 0.17222 0.40052 0.0
C659 C 0.05815 0.15813 0.31885 0.0
C660 C 0.09904 0.16018 0.41802 0.0
C661 C 0.05496 0.17175 0.48602 0.0
C662 C 0.05291 0.19674 0.52558 0.0
C663 C 0.03502 0.20211 0.5959 0.0
C664 C 0.01719 0.18234 0.62063 0.0
C665 C 0.01678 0.15774 0.57314 0.0
C666 C 0.03728 0.15184 0.51055 0.0
H667 H 0.33471 0.10035 0.22693 0.0
H668 H 0.26567 0.06624 0.35434 0.0
H669 H 0.28841 0.06626 0.49876 0.0
H670 H 0.37223 0.05721 0.27612 0.0
H671 H 0.40247 0.07451 0.30372 0.0
H672 H 0.37864 0.08991 0.23376 0.0
H673 H 0.37698 0.1301 0.34447 0.0
H674 H 0.40112 0.1144 0.41552 0.0
H675 H 0.3701 0.12542 0.4632 0.0
H676 H 0.32002 0.04944 0.60047 0.0
H677 H 0.35258 0.01438 0.62406 0.0
H678 H 0.40553 0.05116 0.43382 0.0
C679 C 0.32425 0.09347 0.28601 0.0
C680 C 0.29867 0.0825 0.27746 0.0
C681 C 0.28519 0.0749 0.3572 0.0
C682 C 0.29815 0.07487 0.44087 0.0
C683 C 0.32486 0.08174 0.44419 0.0
C684 C 0.33777 0.09146 0.36845 0.0
C685 C 0.36751 0.08921 0.37866 0.0
C686 C 0.38091 0.0769 0.29314 0.0
C687 C 0.37962 0.1164 0.40191 0.0
C688 C 0.3688 0.07139 0.46026 0.0
C689 C 0.34437 0.06989 0.50307 0.0
C690 C 0.33921 0.05083 0.56837 0.0
C691 C 0.35774 0.03077 0.58103 0.0
C692 C 0.38102 0.02992 0.52825 0.0
C693 C 0.38778 0.05177 0.47488 0.0
H694 H 0.57525 0.3046 0.08404 0.0
H695 H 0.51603 0.27835 0.27383 0.0
H696 H 0.52957 0.31313 0.38251 0.0
H697 H 0.62186 0.34384 0.25871 0.0
H698 H 0.62497 0.36952 0.176 0.0
H699 H 0.62325 0.33527 0.13943 0.0
H700 H 0.58404 0.34691 0.03488 0.0
H701 H 0.58509 0.38068 0.07257 0.0
H702 H 0.55491 0.36207 0.08396 0.0
H703 H 0.53507 0.35843 0.43969 0.0
H704 H 0.53287 0.40728 0.44038 0.0
H705 H 0.58298 0.40874 0.20216 0.0
C706 C 0.56651 0.30527 0.15125 0.0
C707 C 0.54444 0.28926 0.17028 0.0
C708 C 0.53309 0.29037 0.25797 0.0
C709 C 0.5406 0.31034 0.32002 0.0
C710 C 0.55932 0.32895 0.29285 0.0
C711 C 0.57258 0.32629 0.21054 0.0
C712 C 0.58547 0.35213 0.18378 0.0
C713 C 0.61568 0.35006 0.18991 0.0
C714 C 0.57681 0.36093 0.08835 0.0
C715 C 0.57472 0.37035 0.25748 0.0
C716 C 0.56104 0.35643 0.32271 0.0
C717 C 0.54641 0.36941 0.39065 0.0
C718 C 0.54507 0.39712 0.39023 0.0
C719 C 0.55768 0.41141 0.32085 0.0
C720 C 0.57335 0.39797 0.25585 0.0
H721 H 0.22602 0.44209 0.20566 0.0
H722 H 0.26471 0.50633 0.35004 0.0
H723 H 0.23439 0.50111 0.47814 0.0
H724 H 0.17054 0.46068 0.21797 0.0
H725 H 0.15149 0.43127 0.24009 0.0
H726 H 0.18333 0.42818 0.18966 0.0
H727 H 0.19828 0.39761 0.31844 0.0
H728 H 0.16596 0.40054 0.3697 0.0
H729 H 0.19503 0.40836 0.43532 0.0
H730 H 0.19143 0.50563 0.54325 0.0
H731 H 0.14518 0.51822 0.53352 0.0
H732 H 0.12969 0.44923 0.36267 0.0
C733 C 0.22886 0.4538 0.26714 0.0
C734 C 0.24726 0.47474 0.26794 0.0
C735 C 0.25081 0.49002 0.34821 0.0
C736 C 0.23355 0.48711 0.42168 0.0
C737 C 0.21301 0.46871 0.41415 0.0
C738 C 0.21122 0.4514 0.33998 0.0
C739 C 0.18425 0.43835 0.33596 0.0
C740 C 0.1717 0.43981 0.24042 0.0
C741 C 0.186 0.40951 0.36675 0.0
C742 C 0.16968 0.45515 0.40616 0.0
C743 C 0.18697 0.47116 0.45521 0.0
C744 C 0.17782 0.4926 0.50765 0.0
C745 C 0.15117 0.49968 0.50174 0.0
C746 C 0.1338 0.48518 0.44427 0.0
C747 C 0.1427 0.46109 0.40487 0.0
H748 H 0.94419 0.83824 0.13621 0.0
H749 H 0.97839 0.76768 1.0104 0.0
H750 H 0.97732 0.78846 0.8646 0.0
H751 H 0.91715 0.87106 0.90836 0.0
H752 H 0.92928 0.90253 0.9502 0.0
H753 H 0.91515 0.8792 0.02786 0.0
H754 H 0.95774 0.88158 0.12461 0.0
H755 H 0.97166 0.90462 0.04795 0.0
H756 H 0.98914 0.87437 0.07132 0.0
H757 H 0.99188 0.81931 0.75304 0.0
H758 H 0.02005 0.85481 0.69664 0.0
H759 H 0.98724 0.90816 0.90253 0.0
C760 C 0.95101 0.82694 0.07773 0.0
C761 C 0.96256 0.8017 0.08772 0.0
C762 C 0.96952 0.78709 1.00778 0.0
C763 C 0.96904 0.79891 0.92284 0.0
C764 C 0.96221 0.82555 0.91822 0.0
C765 C 0.95282 0.83941 0.99389 0.0
C766 C 0.95495 0.86904 0.98068 0.0
C767 C 0.9275 0.88116 0.96583 0.0
C768 C 0.96927 0.88315 0.0607 0.0
C769 C 0.971 0.86936 0.89371 0.0
C770 C 0.97301 0.84434 0.85484 0.0
C771 C 0.99003 0.83907 0.78203 0.0
C772 C 1.00656 0.85932 0.75189 0.0
C773 C 1.00665 0.88447 0.79619 0.0
C774 C 0.98755 0.88966 0.86478 0.0
H775 H 0.68771 0.97707 0.05628 0.0
H776 H 0.75852 0.01982 0.98154 0.0
H777 H 0.73769 0.03269 0.83955 0.0
H778 H 0.65751 0.96733 0.81281 0.0
H779 H 0.62526 0.97587 0.85662 0.0
H780 H 0.64804 0.95745 0.92513 0.0
H781 H 0.64434 0.99227 0.05494 0.0
H782 H 0.62121 1.01046 0.98966 0.0
H783 H 0.6507 0.02661 0.03142 0.0
H784 H 0.70635 0.05301 0.73446 0.0
H785 H 0.66905 0.08055 0.68827 0.0
H786 H 0.61693 0.03341 0.85607 0.0
C787 C 0.69913 0.98834 1.0083 0.0
C788 C 0.72454 0.99775 0.03127 0.0
C789 C 0.73911 1.012 0.96599 0.0
C790 C 0.72731 0.01952 0.8845 0.0
C791 C 0.70089 1.01296 0.86959 0.0
C792 C 0.68696 0.99743 0.92986 0.0
C793 C 0.65746 0.99956 0.9148 0.0
C794 C 0.64641 0.97351 0.87491 0.0
C795 C 0.64262 1.00776 1.00281 0.0
C796 C 0.65694 0.02113 0.84498 0.0
C797 C 0.68204 0.02719 0.81493 0.0
C798 C 0.68659 0.04825 0.75713 0.0
C799 C 0.66521 0.06424 0.73294 0.0
C800 C 0.63971 0.06007 0.77045 0.0
C801 C 0.63564 0.03739 0.82397 0.0
H802 H 0.61591 0.72268 0.16642 0.0
H803 H 0.56071 0.76531 1.00088 0.0
H804 H 0.56402 0.73103 0.88262 0.0
H805 H 0.64657 0.6767 0.95523 0.0
H806 H 0.64752 0.64964 0.03316 0.0
H807 H 0.65622 0.68264 0.07153 0.0
H808 H 0.62176 0.67919 0.20026 0.0
H809 H 0.61264 0.64684 0.16208 0.0
H810 H 0.58773 0.67229 0.17192 0.0
H811 H 0.55213 0.68767 0.83461 0.0
H812 H 0.53106 0.64506 0.85825 0.0
H813 H 0.59268 0.62366 0.04571 0.0
C814 C 0.60597 0.72529 0.10227 0.0
C815 C 0.58746 0.74598 0.09383 0.0
C816 C 0.57492 0.74952 1.00947 0.0
C817 C 0.57664 0.72985 0.94159 0.0
C818 C 0.59095 0.70685 0.9592 0.0
C819 C 0.60651 0.70489 0.03635 0.0
C820 C 0.61382 0.67622 0.05326 0.0
C821 C 0.64275 0.671 0.02665 0.0
C822 C 0.6086 0.6682 0.15261 0.0
C823 C 0.59539 0.66232 0.98697 0.0
C824 C 0.58388 0.68024 0.92879 0.0
C825 C 0.56186 0.67331 0.87663 0.0
C826 C 0.54994 0.64872 0.89001 0.0
C827 C 0.56024 0.63095 0.9539 0.0
C828 C 0.58443 0.63705 0.99686 0.0
H829 H 0.79561 0.54079 0.02711 0.0
H830 H 0.80136 0.61885 0.14875 0.0
H831 H 0.83474 0.63114 0.03533 0.0
H832 H 0.8536 0.52726 0.02853 0.0
H833 H 0.85849 0.50953 0.92222 0.0
H834 H 0.82626 0.51151 0.97037 0.0
H835 H 0.80854 0.53185 0.82264 0.0
H836 H 0.84122 0.52992 0.77364 0.0
H837 H 0.82386 0.56105 0.77767 0.0
H838 H 0.87681 0.62964 0.95794 0.0
H839 H 0.92248 0.61388 0.94161 0.0
H840 H 0.89357 0.53494 0.87927 0.0
C841 C 0.80266 0.561 0.02453 0.0
C842 C 0.79578 0.5791 0.09432 0.0
C843 C 0.80604 0.60504 0.09389 0.0
C844 C 0.825 0.61211 0.02933 0.0
C845 C 0.83371 0.59291 0.9665 0.0
C846 C 0.8224 0.56784 0.96239 0.0
C847 C 0.83972 0.54861 0.90884 0.0
C848 C 0.84485 0.5228 0.96079 0.0
C849 C 0.82761 0.54251 0.81515 0.0
C850 C 0.8644 0.56528 0.89902 0.0
C851 C 0.85978 0.59136 0.92521 0.0
C852 C 0.88047 0.60943 0.93568 0.0
C853 C 0.90646 0.60021 0.92743 0.0
C854 C 0.91157 0.57294 0.91208 0.0
C855 C 0.8903 0.5559 0.8903 0.0
H856 H 0.06706 0.19787 0.96961 0.0
H857 H 0.98765 0.22944 0.99162 0.0
H858 H 0.9706 0.18993 0.90932 0.0
H859 H 0.05694 0.16732 0.73445 0.0
H860 H 0.07734 0.13907 0.75676 0.0
H861 H 0.08435 0.17061 0.81104 0.0
H862 H 0.08189 0.14993 0.9685 0.0
H863 H 0.07591 0.11846 0.91362 0.0
H864 H 0.05319 0.13103 0.99947 0.0
H865 H 0.96116 0.14485 0.84496 0.0
H866 H 0.95946 0.09974 0.78305 0.0
H867 H 0.04522 0.0959 0.78286 0.0
C868 C 0.04615 0.19679 0.95479 0.0
C869 C 0.02873 0.21723 0.98717 0.0
C870 C 1.00151 0.21463 0.96693 0.0
C871 C 0.99162 0.19202 0.92054 0.0
C872 C 1.00913 0.17207 0.89198 0.0
C873 C 0.03595 0.17453 0.90559 0.0
C874 C 0.05023 0.14986 0.8675 0.0
C875 C 0.06828 0.15715 0.7877 0.0
C876 C 0.06621 0.13649 0.94197 0.0
C877 C 0.02708 0.13243 0.83516 0.0
C878 C 1.00367 0.14603 0.85023 0.0
C879 C 0.9794 0.13429 0.83154 0.0
C880 C 0.97873 0.1083 0.79619 0.0
C881 C 1.00209 0.09353 0.77716 0.0
C882 C 0.02684 0.10614 0.79661 0.0
H883 H 0.33516 0.0169 0.0286 0.0
H884 H 0.30807 0.08445 0.87833 0.0
H885 H 0.34762 0.08097 0.77865 0.0
H886 H 0.40253 0.03129 0.02646 0.0
H887 H 0.41407 0.99774 1.00956 0.0
H888 H 0.38285 1.00395 0.06478 0.0
H889 H 0.3587 0.97416 0.9472 0.0
H890 H 0.38989 0.96702 0.8928 0.0
H891 H 0.36295 0.98015 0.82774 0.0
H892 H 0.39347 0.07262 0.70513 0.0
H893 H 0.43688 0.05614 0.65026 0.0
H894 H 0.43291 0.99211 0.84113 0.0
C895 C 0.33716 0.03045 0.97289 0.0
C896 C 0.31811 0.05069 0.96036 0.0
C897 C 0.32194 0.06844 0.88812 0.0
C898 C 0.34458 0.06676 0.83175 0.0
C899 C 0.3633 0.04699 0.84739 0.0
C900 C 0.35941 0.02869 0.91479 0.0
C901 C 0.38239 1.00925 0.91741 0.0
C902 C 0.3963 1.01065 1.01004 0.0
C903 C 0.37291 0.98097 0.89494 0.0
C904 C 0.40012 0.01968 0.84237 0.0
C905 C 0.38893 0.04169 0.80345 0.0
C906 C 0.40218 0.05529 0.73511 0.0
C907 C 0.42704 0.04592 0.70474 0.0
C908 C 0.43873 0.02312 0.74236 0.0
C909 C 0.42473 1.00975 0.81145 0.0
H910 H 0.5383 0.32368 0.85973 0.0
H911 H 0.45491 0.31521 0.91946 0.0
H912 H 0.44629 0.35836 0.84766 0.0
H913 H 0.54335 0.39009 0.91314 0.0
H914 H 0.56629 0.39849 0.82439 0.0
H915 H 0.56548 0.36533 0.86677 0.0
H916 H 0.55746 0.34652 0.70437 0.0
H917 H 0.55866 0.37963 0.6609 0.0
H918 H 0.53033 0.35893 0.63853 0.0
H919 H 0.448 0.40592 0.78916 0.0
H920 H 0.45921 0.45109 0.74097 0.0
H921 H 0.54136 0.42798 0.71315 0.0
C922 C 0.51806 0.33046 0.85491 0.0
C923 C 0.4972 0.3157 0.8946 0.0
C924 C 0.47113 0.32566 0.88814 0.0
C925 C 0.46612 0.35037 0.84808 0.0
C926 C 0.48731 0.36487 0.81324 0.0
C927 C 0.51274 0.35496 0.81462 0.0
C928 C 0.53231 0.37503 0.77771 0.0
C929 C 0.55307 0.38268 0.84979 0.0
C930 C 0.54547 0.36439 0.69018 0.0
C931 C 0.51413 0.39818 0.75802 0.0
C932 C 0.48824 0.39191 0.7788 0.0
C933 C 0.46822 0.41077 0.77205 0.0
C934 C 0.47485 0.43658 0.74525 0.0
C935 C 0.50134 0.44379 0.72539 0.0
C936 C 0.521 0.42378 0.72899 0.0
H937 H 0.2054 0.47007 0.96944 0.0
H938 H 0.23687 0.54926 0.9392 0.0
H939 H 0.19787 0.561 0.84707 0.0
H940 H 0.17412 0.46537 0.73917 0.0
H941 H 0.1464 0.44684 0.78129 0.0
H942 H 0.17832 0.44376 0.83412 0.0
H943 H 0.15876 0.45817 0.99322 0.0
H944 H 0.12753 0.45789 0.937 0.0
H945 H 0.138 0.48719 0.99913 0.0
H946 H 0.15306 0.5651 0.76729 0.0
H947 H 0.10764 0.56177 0.70966 0.0
H948 H 0.10373 0.48013 0.79531 0.0
C949 C 0.20436 0.48983 0.94249 0.0
C950 C 0.22457 0.50871 0.96239 0.0
C951 C 0.22216 0.53422 0.92459 0.0
C952 C 0.19985 0.54113 0.8724 0.0
C953 C 0.17995 0.5223 0.85706 0.0
C954 C 0.18223 0.49703 0.89009 0.0
C955 C 0.15763 0.48077 0.86753 0.0
C956 C 0.16454 0.45782 0.80162 0.0
C957 C 0.1447 0.47049 0.95453 0.0
C958 C 0.14035 0.50122 0.82102 0.0
C959 C 0.15396 0.52485 0.81375 0.0
C960 C 0.14233 0.54667 0.77308 0.0
C961 C 0.11623 0.54455 0.74056 0.0
C962 C 0.10126 0.5209 0.74938 0.0
C963 C 0.114 0.49877 0.78898 0.0
H964 H 0.96689 0.84773 0.40041 0.0
H965 H 0.04792 0.82151 0.36659 0.0
H966 H 0.06338 0.8632 0.43963 0.0
H967 H 0.97709 0.91573 0.35599 0.0
H968 H 0.95396 0.92745 0.4417 0.0
H969 H 0.94979 0.8952 0.3901 0.0
H970 H 0.94937 0.87605 0.55137 0.0
H971 H 0.95453 0.90865 0.60044 0.0
H972 H 0.97692 0.88222 0.62541 0.0
H973 H 0.07042 0.90987 0.49694 0.0
H974 H 0.0695 0.95531 0.55674 0.0
H975 H 0.98384 0.95254 0.5717 0.0
C976 C 0.9879 0.85046 0.41047 0.0
C977 C 1.00617 0.83084 0.37771 0.0
C978 C 0.03344 0.83564 0.39181 0.0
C979 C 0.04241 0.85952 0.43275 0.0
C980 C 0.02398 0.8786 0.4616 0.0
C981 C 0.99723 0.87409 0.45344 0.0
C982 C 0.98175 0.89822 0.48966 0.0
C983 C 0.96465 0.90985 0.41459 0.0
C984 C 0.96462 0.89084 0.57158 0.0
C985 C 1.00398 0.91734 0.51756 0.0
C986 C 0.0281 0.9054 0.49944 0.0
C987 C 0.05164 0.91909 0.51293 0.0
C988 C 0.05081 0.94522 0.54708 0.0
C989 C 0.02667 0.95815 0.57024 0.0
C990 C 1.00274 0.94371 0.55491 0.0
H991 H 0.69535 0.97999 0.42286 0.0
H992 H 0.69412 0.055 0.28539 0.0
H993 H 0.65085 0.06548 0.3551 0.0
H994 H 0.62952 0.96467 0.39917 0.0
H995 H 0.62335 0.95119 0.50997 0.0
H996 H 0.65607 0.94996 0.46175 0.0
H997 H 0.67576 0.97496 0.59958 0.0
H998 H 0.64351 0.97531 0.65191 0.0
H999 H 0.66123 1.00586 0.63701 0.0
H1000 H 0.60532 0.06605 0.42683 0.0
H1001 H 0.5636 0.05912 0.51123 0.0
H1002 H 0.59355 0.98464 0.60914 0.0
C1003 C 0.68647 0.99909 0.41071 0.0
C1004 C 0.69865 0.01701 0.35005 0.0
C1005 C 0.68567 0.0413 0.33315 0.0
C1006 C 0.66087 0.0473 0.37186 0.0
C1007 C 0.649 0.02896 0.42873 0.0
C1008 C 0.66165 1.00564 0.45034 0.0
C1009 C 0.64405 0.98923 0.51219 0.0
C1010 C 0.63786 0.96214 0.46816 0.0
C1011 C 0.65692 0.98615 0.60574 0.0
C1012 C 0.61932 1.00648 0.51922 0.0
C1013 C 0.62268 0.02933 0.47041 0.0
C1014 C 0.60259 0.04824 0.46544 0.0
C1015 C 0.57878 0.04403 0.51285 0.0
C1016 C 0.57487 0.02099 0.56453 0.0
C1017 C 0.59564 1.00211 0.5682 0.0
H1018 H 0.53991 0.69261 0.27448 0.0
H1019 H 0.53656 0.74989 0.49783 0.0
H1020 H 0.52614 0.7135 0.60295 0.0
H1021 H 0.48915 0.64819 0.35149 0.0
H1022 H 0.50649 0.6187 0.31512 0.0
H1023 H 0.51135 0.64916 0.25562 0.0
H1024 H 0.56154 0.64644 0.28134 0.0
H1025 H 0.55737 0.61581 0.33999 0.0
H1026 H 0.57421 0.64318 0.39485 0.0
H1027 H 0.51727 0.66916 0.68538 0.0
H1028 H 0.51296 0.62276 0.735 0.0
H1029 H 0.52625 0.59506 0.45885 0.0
C1030 C 0.53724 0.6978 0.34554 0.0
C1031 C 0.53949 0.72455 0.3772 0.0
C1032 C 0.53483 0.72988 0.47083 0.0
C1033 C 0.52905 0.7092 0.53136 0.0
C1034 C 0.528 0.68307 0.49784 0.0
C1035 C 0.53202 0.67743 0.40678 0.0
C1036 C 0.53116 0.64774 0.38757 0.0
C1037 C 0.50817 0.64054 0.32365 0.0
C1038 C 0.55765 0.63772 0.3487 0.0
C1039 C 0.52636 0.63735 0.48223 0.0
C1040 C 0.5242 0.65797 0.54495 0.0
C1041 C 0.5193 0.65301 0.63651 0.0
C1042 C 0.51706 0.62651 0.66447 0.0
C1043 C 0.52041 0.60501 0.60223 0.0
C1044 C 0.52456 0.6108 0.50938 0.0
H1045 H 0.83605 0.58145 0.39461 0.0
H1046 H 0.80454 0.50188 0.41221 0.0
H1047 H 0.84341 0.48893 0.50286 0.0
H1048 H 0.90313 0.56493 0.36247 0.0
H1049 H 0.91421 0.59293 0.43023 0.0
H1050 H 0.88286 0.59417 0.37467 0.0
H1051 H 0.86304 0.60588 0.53517 0.0
H1052 H 0.89494 0.60197 0.58741 0.0
H1053 H 0.8672 0.58283 0.62604 0.0
H1054 H 0.88815 0.48369 0.58164 0.0
H1055 H 0.93351 0.48623 0.63948 0.0
H1056 H 0.93767 0.56888 0.56609 0.0
C1057 C 0.83705 0.56135 0.41853 0.0
C1058 C 0.81687 0.54272 0.39547 0.0
C1059 C 0.81922 0.51673 0.42937 0.0
C1060 C 0.84145 0.50913 0.48066 0.0
C1061 C 0.86134 0.52774 0.49898 0.0
C1062 C 0.85912 0.55345 0.46992 0.0
C1063 C 0.88372 0.56937 0.49525 0.0
C1064 C 0.89676 0.58096 0.41046 0.0
C1065 C 0.8768 0.59131 0.56511 0.0
C1066 C 0.90096 0.54824 0.53802 0.0
C1067 C 0.88732 0.52455 0.54164 0.0
C1068 C 0.89892 0.50217 0.57856 0.0
C1069 C 0.92505 0.5038 0.61105 0.0
C1070 C 0.94008 0.52748 0.60557 0.0
C1071 C 0.92735 0.55017 0.56976 0.0
loop_
_geom_bond_atom_site_label_1
_geom_bond_atom_site_label_2
_geom_bond_distance
_geom_bond_site_symmetry_2
_ccdc_geom_bond_type
H0 C3 0.929 . S
H1 C6 0.929 . S
H2 C8 0.930 . S
C3 H0 0.929 . S
C3 C4 1.398 . S
C3 C5 1.396 . S
C4 C3 1.398 . S
C4 C8 1.407 . S
C5 C3 1.396 . S
C5 C6 1.394 . S
C6 H1 0.929 . S
C6 C5 1.394 . S
C6 C7 1.382 . S
C7 C6 1.382 . S
C7 C8 1.392 . S
C7 N9 1.420 . S
C8 H2 0.930 . S
C8 C4 1.407 . S
C8 C7 1.392 . S
N9 C7 1.420 . S
N9 C10 1.244 . S
C10 N9 1.244 . S
H11 C14 0.929 . S
H12 C17 0.929 . S
H13 C19 0.930 . S
C14 H11 0.929 . S
C14 C15 1.398 . S
C14 C16 1.396 . S
C15 C14 1.398 . S
C15 C19 1.407 . S
C16 C14 1.396 . S
C16 C17 1.394 . S
C17 H12 0.929 . S
C17 C16 1.394 . S
C17 C18 1.382 . S
C18 C17 1.382 . S
C18 C19 1.392 . S
C18 N20 1.420 . S
C19 H13 0.930 . S
C19 C15 1.407 . S
C19 C18 1.392 . S
N20 C18 1.420 . S
N20 C21 1.244 . S
C21 N20 1.244 . S
H22 C25 0.929 . S
H23 C28 0.929 . S
H24 C30 0.930 . S
C25 H22 0.929 . S
C25 C26 1.398 . S
C25 C27 1.396 . S
C26 C25 1.398 . S
C26 C30 1.407 . S
C27 C25 1.396 . S
C27 C28 1.394 . S
C28 H23 0.929 . S
C28 C27 1.394 . S
C28 C29 1.382 . S
C29 C28 1.382 . S
C29 C30 1.392 . S
C29 N31 1.420 . S
C30 H24 0.930 . S
C30 C26 1.407 . S
C30 C29 1.392 . S
N31 C29 1.420 . S
N31 C32 1.244 . S
C32 N31 1.244 . S
H33 C36 0.929 . S
H34 C39 0.929 . S
H35 C41 0.930 . S
C36 H33 0.929 . S
C36 C37 1.398 . S
C36 C38 1.396 . S
C37 C36 1.398 . S
C37 C41 1.407 . S
C38 C36 1.396 . S
C38 C39 1.394 . S
C39 H34 0.929 . S
C39 C38 1.394 . S
C39 C40 1.382 . S
C40 C39 1.382 . S
C40 C41 1.392 . S
C40 N42 1.420 . S
C41 H35 0.930 . S
C41 C37 1.407 . S
C41 C40 1.392 . S
N42 C40 1.420 . S
N42 C43 1.244 . S
C43 N42 1.244 . S
H44 C47 0.929 . S
H45 C50 0.929 . S
H46 C52 0.930 . S
C47 H44 0.929 . S
C47 C48 1.398 . S
C47 C49 1.396 1_556 S
C48 C47 1.398 . S
C48 C52 1.407 . S
C49 C47 1.396 1_554 S
C49 C50 1.394 . S
C50 H45 0.929 . S
C50 C49 1.394 . S
C50 C51 1.382 . S
C51 C50 1.382 . S
C51 C52 1.392 1_554 S
C51 N53 1.420 . S
C52 H46 0.930 . S
C52 C48 1.407 . S
C52 C51 1.392 1_556 S
N53 C51 1.420 . S
N53 C54 1.244 . S
C54 N53 1.244 . S
H55 C58 0.929 . S
H56 C61 0.929 . S
H57 C63 0.930 . S
C58 H55 0.929 . S
C58 C59 1.398 . S
C58 C60 1.396 1_556 S
C59 C58 1.398 . S
C59 C63 1.407 . S
C60 C58 1.396 1_554 S
C60 C61 1.394 . S
C61 H56 0.929 . S
C61 C60 1.394 . S
C61 C62 1.382 . S
C62 C61 1.382 . S
C62 C63 1.392 1_554 S
C62 N64 1.420 . S
C63 H57 0.930 . S
C63 C59 1.407 . S
C63 C62 1.392 1_556 S
N64 C62 1.420 . S
N64 C65 1.244 . S
C65 N64 1.244 . S
H66 C69 0.929 . S
H67 C72 0.929 . S
H68 C74 0.930 . S
C69 H66 0.929 . S
C69 C70 1.398 . S
C69 C71 1.396 1_556 S
C70 C69 1.398 . S
C70 C74 1.407 . S
C71 C69 1.396 1_554 S
C71 C72 1.394 . S
C72 H67 0.929 . S
C72 C71 1.394 . S
C72 C73 1.380 1_554 S
C73 C72 1.380 1_556 S
C73 C74 1.394 . S
C73 N75 1.420 1_556 S
C74 H68 0.930 . S
C74 C70 1.407 . S
C74 C73 1.394 . S
N75 C73 1.420 1_554 S
N75 C76 1.244 . S
C76 N75 1.244 . S
H77 C80 0.929 . S
H78 C83 0.929 . S
H79 C85 0.930 . S
C80 H77 0.929 . S
C80 C81 1.398 . S
C80 C82 1.396 1_556 S
C81 C80 1.398 . S
C81 C85 1.407 . S
C82 C80 1.396 1_554 S
C82 C83 1.394 . S
C83 H78 0.929 . S
C83 C82 1.394 . S
C83 C84 1.382 . S
C84 C83 1.382 . S
C84 C85 1.392 1_554 S
C84 N86 1.420 . S
C85 H79 0.930 . S
C85 C81 1.407 . S
C85 C84 1.392 1_556 S
N86 C84 1.420 . S
N86 C87 1.244 . S
C87 N86 1.244 . S
Tb88 N119 2.660 1_565 S
Tb88 N126 2.590 1_565 S
Tb88 O132 2.546 . S
Tb88 O133 2.610 1_455 S
Tb88 O135 2.320 1_455 S
Tb88 O136 2.552 . S
Tb88 O137 2.413 . S
Tb88 O139 2.362 1_565 S
Tb88 O140 2.421 . S
Tb88 C152 2.833 . S
C89 C92 1.432 1_545 S
C89 C93 1.408 1_545 S
C89 N96 1.359 . S
C90 C92 1.417 . S
C90 C94 1.432 . S
C90 C102 1.410 . S
C91 C93 1.466 . S
C91 C94 1.317 . S
C91 H114 0.929 . S
C92 C89 1.432 1_565 S
C92 C90 1.417 . S
C92 N100 1.369 . S
C93 C89 1.408 1_565 S
C93 C91 1.466 . S
C93 C98 1.369 1_565 S
C94 C90 1.432 . S
C94 C91 1.317 . S
C94 H106 0.930 . S
C95 C97 1.392 . S
C95 C98 1.370 . S
C95 H107 0.931 . S
N96 C89 1.359 . S
N96 C97 1.327 . S
N96 Tb99 2.600 . S
C97 C95 1.392 . S
C97 N96 1.327 . S
C97 H104 0.930 . S
C98 C93 1.369 1_545 S
C98 C95 1.370 . S
C98 H117 0.930 . S
Tb99 N96 2.600 . S
Tb99 N100 2.638 1_545 S
Tb99 O133 2.362 1_545 S
Tb99 O134 2.421 . S
Tb99 O138 2.546 . S
Tb99 O139 2.610 1_655 S
Tb99 O141 2.320 1_655 S
Tb99 O142 2.552 1_655 S
Tb99 O143 2.413 . S
Tb99 C163 2.833 . S
N100 C92 1.369 . S
N100 Tb99 2.638 1_565 S
N100 C101 1.321 1_655 S
C101 N100 1.321 1_455 S
C101 C103 1.407 . S
C101 H108 0.930 . S
C102 C90 1.410 . S
C102 C103 1.345 1_655 S
C102 H110 0.930 . S
C103 C101 1.407 . S
C103 C102 1.345 1_455 S
C103 H105 0.930 . S
H104 C97 0.930 . S
H105 C103 0.930 . S
H106 C94 0.930 . S
H107 C95 0.931 . S
H108 C101 0.930 . S
H109 C123 0.930 1_655 S
H110 C102 0.930 . S
H111 C129 0.930 . S
H112 C120 0.930 1_655 S
H113 C127 0.931 . S
H114 C91 0.929 . S
H115 C121 0.930 . S
H116 C154 0.930 . S
H117 C98 0.930 . S
H118 C153 0.929 . S
N119 Tb88 2.660 1_545 S
N119 C120 1.305 . S
N119 C124 1.360 . S
C120 H112 0.930 1_455 S
C120 N119 1.305 . S
C120 C123 1.407 1_556 S
C121 H115 0.930 . S
C121 C122 1.410 . S
C121 C123 1.345 . S
C122 C121 1.410 . S
C122 C124 1.417 1_554 S
C122 C154 1.432 . S
C123 H109 0.930 1_455 S
C123 C120 1.407 1_554 S
C123 C121 1.345 . S
C124 N119 1.360 . S
C124 C122 1.417 1_556 S
C124 C128 1.432 . S
H125 C130 0.930 . S
N126 Tb88 2.590 1_545 S
N126 C128 1.382 . S
N126 C129 1.311 1_545 S
C127 H113 0.931 . S
C127 C129 1.392 . S
C127 C130 1.370 1_565 S
C128 C124 1.432 . S
C128 N126 1.382 . S
C128 C131 1.414 . S
C129 H111 0.930 . S
C129 N126 1.311 1_565 S
C129 C127 1.392 . S
C130 H125 0.930 . S
C130 C127 1.370 1_545 S
C130 C131 1.385 . S
C131 C128 1.414 . S
C131 C130 1.385 . S
C131 C153 1.444 1_556 S
O132 Tb88 2.546 . S
O132 C152 1.251 . S
O133 Tb88 2.610 1_655 S
O133 Tb99 2.362 1_565 S
O133 C144 1.283 . S
O134 Tb99 2.421 . S
O134 C151 1.262 . S
O135 Tb88 2.320 1_655 S
O135 C151 1.260 1_565 S
O136 Tb88 2.552 . S
O136 C144 1.243 1_455 S
O137 Tb88 2.413 . S
O137 C152 1.256 . S
O138 Tb99 2.546 . S
O138 C163 1.251 . S
O139 Tb88 2.362 1_545 S
O139 Tb99 2.610 1_455 S
O139 C155 1.283 . S
O140 Tb88 2.421 . S
O140 C162 1.262 1_565 S
O141 Tb99 2.320 1_455 S
O141 C162 1.260 . S
O142 Tb99 2.552 1_455 S
O142 C155 1.243 . S
O143 Tb99 2.413 . S
O143 C163 1.256 . S
C144 O133 1.283 . S
C144 O136 1.243 1_655 S
C145 C147 1.382 . S
C145 C149 1.393 . S
C145 C152 1.500 . S
C146 C147 1.400 . S
C146 C148 1.384 1_556 S
C147 C145 1.382 . S
C147 C146 1.400 . S
C147 H164 0.959 . S
C148 C146 1.384 1_554 S
C148 C150 1.392 1_554 S
C148 H165 0.931 . S
C149 C145 1.393 . S
C149 C150 1.401 . S
C149 H166 0.930 . S
C150 C148 1.392 1_556 S
C150 C149 1.401 . S
C150 H167 0.930 . S
C151 O134 1.262 . S
C151 O135 1.260 1_545 S
C152 Tb88 2.833 . S
C152 O132 1.251 . S
C152 O137 1.256 . S
C152 C145 1.500 . S
C153 H118 0.929 . S
C153 C131 1.444 1_554 S
C153 C154 1.317 . S
C154 H116 0.930 . S
C154 C122 1.432 . S
C154 C153 1.317 . S
C155 O139 1.283 . S
C155 O142 1.243 . S
C156 C157 1.382 . S
C156 C160 1.393 . S
C156 C163 1.500 . S
C157 C156 1.382 . S
C157 C158 1.400 . S
C157 H168 0.930 1_655 S
C158 C157 1.400 . S
C158 C159 1.384 . S
C159 C158 1.384 . S
C159 C161 1.392 . S
C159 H169 0.931 . S
C160 C156 1.393 . S
C160 C161 1.401 . S
C160 H170 0.930 . S
C161 C159 1.392 . S
C161 C160 1.401 . S
C161 H171 0.930 . S
C162 O140 1.262 1_545 S
C162 O141 1.260 . S
C163 Tb99 2.833 . S
C163 O138 1.251 . S
C163 O143 1.256 . S
C163 C156 1.500 . S
H164 C147 0.959 . S
H165 C148 0.931 . S
H166 C149 0.930 . S
H167 C150 0.930 . S
H168 C157 0.930 1_455 S
H169 C159 0.931 . S
H170 C160 0.930 . S
H171 C161 0.930 . S
Tb172 N203 2.660 . S
Tb172 N210 2.600 . S
Tb172 O216 2.546 . S
Tb172 O217 2.610 1_545 S
Tb172 O219 2.320 1_545 S
Tb172 O220 2.552 . S
Tb172 O221 2.413 . S
Tb172 O223 2.362 . S
Tb172 O224 2.421 . S
Tb172 C236 2.833 . S
C173 C176 1.432 . S
C173 C177 1.414 . S
C173 N180 1.359 . S
C174 C176 1.417 . S
C174 C178 1.432 . S
C174 C186 1.410 . S
C175 C177 1.444 . S
C175 C178 1.317 . S
C175 H198 0.929 . S
C176 C173 1.432 . S
C176 C174 1.417 . S
C176 N184 1.360 . S
C177 C173 1.414 . S
C177 C175 1.444 . S
C177 C182 1.385 . S
C178 C174 1.432 . S
C178 C175 1.317 . S
C178 H190 0.930 . S
C179 C181 1.392 . S
C179 C182 1.370 . S
C179 H191 0.931 . S
N180 C173 1.359 . S
N180 C181 1.327 . S
N180 Tb183 2.600 . S
C181 C179 1.392 . S
C181 N180 1.327 . S
C181 H188 0.930 . S
C182 C177 1.385 . S
C182 C179 1.370 . S
C182 H201 0.930 . S
Tb183 N180 2.600 . S
Tb183 N184 2.660 . S
Tb183 O217 2.362 . S
Tb183 O218 2.421 . S
Tb183 O222 2.546 . S
Tb183 O223 2.610 1_565 S
Tb183 O225 2.320 1_565 S
Tb183 O226 2.552 1_565 S
Tb183 O227 2.413 . S
Tb183 C247 2.833 . S
N184 C176 1.360 . S
N184 Tb183 2.660 . S
N184 C185 1.305 1_565 S
C185 N184 1.305 1_545 S
C185 C187 1.407 . S
C185 H192 0.930 . S
C186 C174 1.410 . S
C186 C187 1.345 1_565 S
C186 H194 0.930 . S
C187 C185 1.407 . S
C187 C186 1.345 1_545 S
C187 H189 0.930 . S
H188 C181 0.930 . S
H189 C187 0.930 . S
H190 C178 0.930 . S
H191 C179 0.931 . S
H192 C185 0.930 . S
H193 C207 0.930 1_565 S
H194 C186 0.930 . S
H195 C213 0.930 . S
H196 C204 0.930 1_565 S
H197 C211 0.931 . S
H198 C175 0.929 . S
H199 C205 0.930 . S
H200 C238 0.930 . S
H201 C182 0.930 . S
H202 C237 0.929 . S
N203 Tb172 2.660 . S
N203 C204 1.305 . S
N203 C208 1.360 . S
C204 H196 0.930 1_545 S
C204 N203 1.305 . S
C204 C207 1.407 1_556 S
C205 H199 0.930 . S
C205 C206 1.410 . S
C205 C207 1.345 . S
C206 C205 1.410 . S
C206 C208 1.417 1_554 S
C206 C238 1.432 . S
C207 H193 0.930 1_545 S
C207 C204 1.407 1_554 S
C207 C205 1.345 . S
C208 N203 1.360 . S
C208 C206 1.417 1_556 S
C208 C212 1.432 . S
H209 C214 0.930 . S
N210 Tb172 2.600 . S
N210 C212 1.359 . S
N210 C213 1.327 . S
C211 H197 0.931 . S
C211 C213 1.392 . S
C211 C214 1.370 . S
C212 C208 1.432 . S
C212 N210 1.359 . S
C212 C215 1.414 . S
C213 H195 0.930 . S
C213 N210 1.327 . S
C213 C211 1.392 . S
C214 H209 0.930 . S
C214 C211 1.370 . S
C214 C215 1.385 . S
C215 C212 1.414 . S
C215 C214 1.385 . S
C215 C237 1.444 1_556 S
O216 Tb172 2.546 . S
O216 C236 1.251 . S
O217 Tb172 2.610 1_565 S
O217 Tb183 2.362 . S
O217 C228 1.283 . S
O218 Tb183 2.421 . S
O218 C235 1.262 . S
O219 Tb172 2.320 1_565 S
O219 C235 1.260 . S
O220 Tb172 2.552 . S
O220 C228 1.243 1_545 S
O221 Tb172 2.413 . S
O221 C236 1.256 . S
O222 Tb183 2.546 . S
O222 C247 1.251 . S
O223 Tb172 2.362 . S
O223 Tb183 2.610 1_545 S
O223 C239 1.283 . S
O224 Tb172 2.421 . S
O224 C246 1.262 . S
O225 Tb183 2.320 1_545 S
O225 C246 1.260 . S
O226 Tb183 2.552 1_545 S
O226 C239 1.243 . S
O227 Tb183 2.413 . S
O227 C247 1.256 . S
C228 O217 1.283 . S
C228 O220 1.243 1_565 S
C229 C231 1.382 . S
C229 C233 1.393 . S
C229 C236 1.500 . S
C230 C231 1.400 . S
C230 C232 1.384 1_556 S
C231 C229 1.382 . S
C231 C230 1.400 . S
C231 H248 0.930 . S
C232 C230 1.384 1_554 S
C232 C234 1.392 1_554 S
C232 H249 0.931 . S
C233 C229 1.393 . S
C233 C234 1.401 . S
C233 H250 0.930 . S
C234 C232 1.392 1_556 S
C234 C233 1.401 . S
C234 H251 0.930 . S
C235 O218 1.262 . S
C235 O219 1.260 . S
C236 Tb172 2.833 . S
C236 O216 1.251 . S
C236 O221 1.256 . S
C236 C229 1.500 . S
C237 H202 0.929 . S
C237 C215 1.444 1_554 S
C237 C238 1.317 . S
C238 H200 0.930 . S
C238 C206 1.432 . S
C238 C237 1.317 . S
C239 O223 1.283 . S
C239 O226 1.243 . S
C240 C241 1.382 . S
C240 C244 1.393 . S
C240 C247 1.500 . S
C241 C240 1.382 . S
C241 C242 1.400 . S
C241 H252 0.930 1_565 S
C242 C241 1.400 . S
C242 C243 1.384 . S
C243 C242 1.384 . S
C243 C245 1.392 . S
C243 H253 0.931 . S
C244 C240 1.393 . S
C244 C245 1.401 . S
C244 H254 0.930 . S
C245 C243 1.392 . S
C245 C244 1.401 . S
C245 H255 0.930 . S
C246 O224 1.262 . S
C246 O225 1.260 . S
C247 Tb183 2.833 . S
C247 O222 1.251 . S
C247 O227 1.256 . S
C247 C240 1.500 . S
H248 C231 0.930 . S
H249 C232 0.931 . S
H250 C233 0.930 . S
H251 C234 0.930 . S
H252 C241 0.930 1_545 S
H253 C243 0.931 . S
H254 C244 0.930 . S
H255 C245 0.930 . S
Tb256 N287 2.660 . S
Tb256 N294 2.600 . S
Tb256 O300 2.546 . S
Tb256 O301 2.610 . S
Tb256 O303 2.320 . S
Tb256 O304 2.552 . S
Tb256 O305 2.413 . S
Tb256 O307 2.362 . S
Tb256 O308 2.421 . S
Tb256 C320 2.833 . S
C257 C260 1.432 . S
C257 C261 1.414 . S
C257 N264 1.359 . S
C258 C260 1.417 . S
C258 C262 1.432 . S
C258 C270 1.410 . S
C259 C261 1.444 . S
C259 C262 1.317 . S
C259 H282 0.929 . S
C260 C257 1.432 . S
C260 C258 1.417 . S
C260 N268 1.360 . S
C261 C257 1.414 . S
C261 C259 1.444 . S
C261 C266 1.385 . S
C262 C258 1.432 . S
C262 C259 1.317 . S
C262 H274 0.930 . S
C263 C265 1.392 . S
C263 C266 1.370 . S
C263 H275 0.931 . S
N264 C257 1.359 . S
N264 C265 1.327 . S
N264 Tb267 2.600 . S
C265 C263 1.392 . S
C265 N264 1.327 . S
C265 H272 0.930 . S
C266 C261 1.385 . S
C266 C263 1.370 . S
C266 H285 0.930 . S
Tb267 N264 2.600 . S
Tb267 N268 2.660 . S
Tb267 O301 2.362 . S
Tb267 O302 2.421 . S
Tb267 O306 2.546 . S
Tb267 O307 2.610 . S
Tb267 O309 2.320 . S
Tb267 O310 2.552 . S
Tb267 O311 2.413 . S
Tb267 C331 2.833 . S
N268 C260 1.360 . S
N268 Tb267 2.660 . S
N268 C269 1.305 . S
C269 N268 1.305 . S
C269 C271 1.407 . S
C269 H276 0.930 . S
C270 C258 1.410 . S
C270 C271 1.345 . S
C270 H278 0.930 . S
C271 C269 1.407 . S
C271 C270 1.345 . S
C271 H273 0.930 . S
H272 C265 0.930 . S
H273 C271 0.930 . S
H274 C262 0.930 . S
H275 C263 0.931 . S
H276 C269 0.930 . S
H277 C291 0.930 . S
H278 C270 0.930 . S
H279 C297 0.930 . S
H280 C288 0.930 . S
H281 C295 0.931 . S
H282 C259 0.929 . S
H283 C289 0.930 . S
H284 C322 0.930 . S
H285 C266 0.930 . S
H286 C321 0.929 . S
N287 Tb256 2.660 . S
N287 C288 1.305 . S
N287 C292 1.360 . S
C288 H280 0.930 . S
C288 N287 1.305 . S
C288 C291 1.407 . S
C289 H283 0.930 . S
C289 C290 1.410 . S
C289 C291 1.345 . S
C290 C289 1.410 . S
C290 C292 1.417 . S
C290 C322 1.432 . S
C291 H277 0.930 . S
C291 C288 1.407 . S
C291 C289 1.345 . S
C292 N287 1.360 . S
C292 C290 1.417 . S
C292 C296 1.432 . S
H293 C298 0.930 . S
N294 Tb256 2.600 . S
N294 C296 1.359 . S
N294 C297 1.327 . S
C295 H281 0.931 . S
C295 C297 1.392 . S
C295 C298 1.370 . S
C296 C292 1.432 . S
C296 N294 1.359 . S
C296 C299 1.414 . S
C297 H279 0.930 . S
C297 N294 1.327 . S
C297 C295 1.392 . S
C298 H293 0.930 . S
C298 C295 1.370 . S
C298 C299 1.385 . S
C299 C296 1.414 . S
C299 C298 1.385 . S
C299 C321 1.444 . S
O300 Tb256 2.546 . S
O300 C320 1.251 . S
O301 Tb256 2.610 . S
O301 Tb267 2.362 . S
O301 C312 1.283 . S
O302 Tb267 2.421 . S
O302 C319 1.262 . S
O303 Tb256 2.320 . S
O303 C319 1.260 . S
O304 Tb256 2.552 . S
O304 C312 1.243 . S
O305 Tb256 2.413 . S
O305 C320 1.256 . S
O306 Tb267 2.546 . S
O306 C331 1.251 . S
O307 Tb256 2.362 . S
O307 Tb267 2.610 . S
O307 C323 1.283 . S
O308 Tb256 2.421 . S
O308 C330 1.262 . S
O309 Tb267 2.320 . S
O309 C330 1.260 . S
O310 Tb267 2.552 . S
O310 C323 1.243 . S
O311 Tb267 2.413 . S
O311 C331 1.256 . S
C312 O301 1.283 . S
C312 O304 1.243 . S
C313 C315 1.382 . S
C313 C317 1.393 . S
C313 C320 1.500 . S
C314 C315 1.400 . S
C314 C316 1.384 . S
C315 C313 1.382 . S
C315 C314 1.400 . S
C315 H332 0.930 . S
C316 C314 1.384 . S
C316 C318 1.392 . S
C316 H333 0.931 . S
C317 C313 1.393 . S
C317 C318 1.401 . S
C317 H334 0.930 . S
C318 C316 1.392 . S
C318 C317 1.401 . S
C318 H335 0.930 . S
C319 O302 1.262 . S
C319 O303 1.260 . S
C320 Tb256 2.833 . S
C320 O300 1.251 . S
C320 O305 1.256 . S
C320 C313 1.500 . S
C321 H286 0.929 . S
C321 C299 1.444 . S
C321 C322 1.317 . S
C322 H284 0.930 . S
C322 C290 1.432 . S
C322 C321 1.317 . S
C323 O307 1.283 . S
C323 O310 1.243 . S
C324 C325 1.382 . S
C324 C328 1.393 1_556 S
C324 C331 1.500 . S
C325 C324 1.382 . S
C325 C326 1.400 1_556 S
C325 H336 0.930 . S
C326 C325 1.400 1_554 S
C326 C327 1.384 . S
C327 C326 1.384 . S
C327 C329 1.392 . S
C327 H337 0.931 . S
C328 C324 1.393 1_554 S
C328 C329 1.401 . S
C328 H338 0.930 . S
C329 C327 1.392 . S
C329 C328 1.401 . S
C329 H339 0.930 . S
C330 O308 1.262 . S
C330 O309 1.260 . S
C331 Tb267 2.833 . S
C331 O306 1.251 . S
C331 O311 1.256 . S
C331 C324 1.500 . S
H332 C315 0.930 . S
H333 C316 0.931 . S
H334 C317 0.930 . S
H335 C318 0.930 . S
H336 C325 0.930 . S
H337 C327 0.931 . S
H338 C328 0.930 . S
H339 C329 0.930 . S
Tb340 N371 2.660 . S
Tb340 N378 2.600 . S
Tb340 O384 2.546 . S
Tb340 O385 2.610 . S
Tb340 O387 2.320 . S
Tb340 O388 2.552 . S
Tb340 O389 2.413 . S
Tb340 O391 2.362 . S
Tb340 O392 2.421 1_455 S
Tb340 C404 2.833 . S
C341 C344 1.432 . S
C341 C345 1.414 . S
C341 N348 1.359 . S
C342 C344 1.417 . S
C342 C346 1.432 . S
C342 C354 1.410 . S
C343 C345 1.444 . S
C343 C346 1.317 . S
C343 H366 0.929 . S
C344 C341 1.432 . S
C344 C342 1.417 . S
C344 N352 1.360 . S
C345 C341 1.414 . S
C345 C343 1.444 . S
C345 C350 1.385 1_655 S
C346 C342 1.432 . S
C346 C343 1.317 . S
C346 H358 0.930 . S
C347 C349 1.392 . S
C347 C350 1.370 . S
C347 H359 0.931 . S
N348 C341 1.359 . S
N348 C349 1.327 1_655 S
N348 Tb351 2.600 . S
C349 C347 1.392 . S
C349 N348 1.327 1_455 S
C349 H356 0.930 . S
C350 C345 1.385 1_455 S
C350 C347 1.370 . S
C350 H369 0.930 . S
Tb351 N348 2.600 . S
Tb351 N352 2.660 . S
Tb351 O385 2.362 1_655 S
Tb351 O386 2.421 1_655 S
Tb351 O390 2.546 . S
Tb351 O391 2.610 1_655 S
Tb351 O393 2.320 . S
Tb351 O394 2.552 . S
Tb351 O395 2.413 . S
Tb351 C415 2.833 . S
N352 C344 1.360 . S
N352 Tb351 2.660 . S
N352 C353 1.305 . S
C353 N352 1.305 . S
C353 C355 1.407 . S
C353 H360 0.930 . S
C354 C342 1.410 . S
C354 C355 1.345 . S
C354 H362 0.930 . S
C355 C353 1.407 . S
C355 C354 1.345 . S
C355 H357 0.930 . S
H356 C349 0.930 . S
H357 C355 0.930 . S
H358 C346 0.930 . S
H359 C347 0.931 . S
H360 C353 0.930 . S
H361 C375 0.930 . S
H362 C354 0.930 . S
H363 C381 0.927 1_655 S
H364 C372 0.930 . S
H365 C379 0.931 . S
H366 C343 0.929 . S
H367 C373 0.930 . S
H368 C406 0.930 . S
H369 C350 0.930 . S
H370 C405 0.929 . S
N371 Tb340 2.660 . S
N371 C372 1.305 . S
N371 C376 1.360 . S
C372 H364 0.930 . S
C372 N371 1.305 . S
C372 C375 1.407 . S
C373 H367 0.930 . S
C373 C374 1.410 . S
C373 C375 1.345 . S
C374 C373 1.410 . S
C374 C376 1.417 . S
C374 C406 1.432 . S
C375 H361 0.930 . S
C375 C372 1.407 . S
C375 C373 1.345 . S
C376 N371 1.360 . S
C376 C374 1.417 . S
C376 C380 1.432 . S
H377 C382 0.930 . S
N378 Tb340 2.600 . S
N378 C380 1.359 . S
N378 C381 1.330 . S
C379 H365 0.931 . S
C379 C381 1.392 1_655 S
C379 C382 1.370 1_655 S
C380 C376 1.432 . S
C380 N378 1.359 . S
C380 C383 1.414 . S
C381 H363 0.927 1_455 S
C381 N378 1.330 . S
C381 C379 1.392 1_455 S
C382 H377 0.930 . S
C382 C379 1.370 1_455 S
C382 C383 1.385 . S
C383 C380 1.414 . S
C383 C382 1.385 . S
C383 C405 1.444 . S
O384 Tb340 2.546 . S
O384 C404 1.251 . S
O385 Tb340 2.610 . S
O385 Tb351 2.362 1_455 S
O385 C396 1.283 . S
O386 Tb351 2.421 1_455 S
O386 C403 1.262 . S
O387 Tb340 2.320 . S
O387 C403 1.260 . S
O388 Tb340 2.552 . S
O388 C396 1.243 . S
O389 Tb340 2.413 . S
O389 C404 1.256 . S
O390 Tb351 2.546 . S
O390 C415 1.251 . S
O391 Tb340 2.362 . S
O391 Tb351 2.610 1_455 S
O391 C407 1.283 1_455 S
O392 Tb340 2.421 1_655 S
O392 C414 1.262 . S
O393 Tb351 2.320 . S
O393 C414 1.260 . S
O394 Tb351 2.552 . S
O394 C407 1.243 . S
O395 Tb351 2.413 . S
O395 C415 1.256 . S
C396 O385 1.283 . S
C396 O388 1.243 . S
C397 C399 1.382 . S
C397 C401 1.393 . S
C397 C404 1.500 . S
C398 C399 1.400 . S
C398 C400 1.384 . S
C399 C397 1.382 . S
C399 C398 1.400 . S
C399 H416 0.930 . S
C400 C398 1.384 . S
C400 C402 1.392 . S
C400 H417 0.931 . S
C401 C397 1.393 . S
C401 C402 1.401 . S
C401 H418 0.930 . S
C402 C400 1.392 . S
C402 C401 1.401 . S
C402 H419 0.930 . S
C403 O386 1.262 . S
C403 O387 1.260 . S
C404 Tb340 2.833 . S
C404 O384 1.251 . S
C404 O389 1.256 . S
C404 C397 1.500 . S
C405 H370 0.929 . S
C405 C383 1.444 . S
C405 C406 1.317 . S
C406 H368 0.930 . S
C406 C374 1.432 . S
C406 C405 1.317 . S
C407 O391 1.283 1_655 S
C407 O394 1.243 . S
C408 C409 1.382 . S
C408 C412 1.393 1_556 S
C408 C415 1.500 . S
C409 C408 1.382 . S
C409 C410 1.400 1_556 S
C409 H420 0.930 . S
C410 C409 1.400 1_554 S
C410 C411 1.384 . S
C411 C410 1.384 . S
C411 C413 1.392 . S
C411 H421 0.931 . S
C412 C408 1.393 1_554 S
C412 C413 1.401 . S
C412 H422 0.930 . S
C413 C411 1.392 . S
C413 C412 1.401 . S
C413 H423 0.930 . S
C414 O392 1.262 . S
C414 O393 1.260 . S
C415 Tb351 2.833 . S
C415 O390 1.251 . S
C415 O395 1.256 . S
C415 C408 1.500 . S
H416 C399 0.930 . S
H417 C400 0.931 . S
H418 C401 0.930 . S
H419 C402 0.930 . S
H420 C409 0.930 . S
H421 C411 0.931 . S
H422 C412 0.930 . S
H423 C413 0.930 . S
H424 C436 0.930 . S
H425 C438 0.930 . S
H426 C439 0.930 . S
H427 C443 0.959 1_565 S
H428 C443 0.956 1_565 S
H429 C443 0.961 . S
H430 C444 0.960 . S
H431 C444 0.961 . S
H432 C444 0.959 . S
H433 C447 0.929 . S
H434 C448 0.931 . S
H435 C450 0.930 . S
C436 H424 0.930 . S
C436 C437 1.399 . S
C436 C441 1.399 . S
C437 C436 1.399 . S
C437 C438 1.376 . S
C438 H425 0.930 . S
C438 C437 1.376 . S
C438 C439 1.388 . S
C439 H426 0.930 . S
C439 C438 1.388 . S
C439 C440 1.390 . S
C440 C439 1.390 . S
C440 C441 1.394 . S
C440 C446 1.465 . S
C441 C436 1.399 . S
C441 C440 1.394 . S
C441 C442 1.516 . S
C442 C441 1.516 . S
C442 C443 1.502 . S
C442 C444 1.561 . S
C442 C445 1.526 . S
C443 H427 0.959 1_545 S
C443 H428 0.956 1_545 S
C443 H429 0.961 . S
C443 C442 1.502 . S
C444 H430 0.960 . S
C444 H431 0.961 . S
C444 H432 0.959 . S
C444 C442 1.561 . S
C445 C442 1.526 . S
C445 C446 1.396 . S
C445 C450 1.390 . S
C446 C440 1.465 . S
C446 C445 1.396 . S
C446 C447 1.399 . S
C447 H433 0.929 . S
C447 C446 1.399 . S
C447 C448 1.385 . S
C448 H434 0.931 . S
C448 C447 1.385 . S
C448 C449 1.389 . S
C449 C448 1.389 . S
C449 C450 1.387 . S
C450 H435 0.930 . S
C450 C445 1.390 . S
C450 C449 1.387 . S
H451 C463 0.930 . S
H452 C465 0.930 . S
H453 C466 0.930 . S
H454 C470 0.959 . S
H455 C470 0.959 . S
H456 C470 0.961 . S
H457 C471 0.960 . S
H458 C471 0.961 . S
H459 C471 0.959 . S
H460 C474 0.929 . S
H461 C475 0.931 . S
H462 C477 0.930 . S
C463 H451 0.930 . S
C463 C464 1.399 . S
C463 C468 1.399 . S
C464 C463 1.399 . S
C464 C465 1.376 . S
C465 H452 0.930 . S
C465 C464 1.376 . S
C465 C466 1.388 . S
C466 H453 0.930 . S
C466 C465 1.388 . S
C466 C467 1.390 . S
C467 C466 1.390 . S
C467 C468 1.394 . S
C467 C473 1.465 . S
C468 C463 1.399 . S
C468 C467 1.394 . S
C468 C469 1.516 . S
C469 C468 1.516 . S
C469 C470 1.502 . S
C469 C471 1.561 . S
C469 C472 1.526 . S
C470 H454 0.959 . S
C470 H455 0.959 . S
C470 H456 0.961 . S
C470 C469 1.502 . S
C471 H457 0.960 . S
C471 H458 0.961 . S
C471 H459 0.959 . S
C471 C469 1.561 . S
C472 C469 1.526 . S
C472 C473 1.396 . S
C472 C477 1.390 . S
C473 C467 1.465 . S
C473 C472 1.396 . S
C473 C474 1.399 . S
C474 H460 0.929 . S
C474 C473 1.399 . S
C474 C475 1.385 . S
C475 H461 0.931 . S
C475 C474 1.385 . S
C475 C476 1.389 . S
C476 C475 1.389 . S
C476 C477 1.387 . S
C477 H462 0.930 . S
C477 C472 1.390 . S
C477 C476 1.387 . S
H478 C490 0.930 . S
H479 C492 0.930 . S
H480 C493 0.930 . S
H481 C497 0.959 . S
H482 C497 0.959 . S
H483 C497 0.961 . S
H484 C498 0.960 . S
H485 C498 0.961 . S
H486 C498 0.959 . S
H487 C501 0.929 . S
H488 C502 0.931 . S
H489 C504 0.930 . S
C490 H478 0.930 . S
C490 C491 1.399 . S
C490 C495 1.399 . S
C491 C490 1.399 . S
C491 C492 1.376 . S
C492 H479 0.930 . S
C492 C491 1.376 . S
C492 C493 1.388 . S
C493 H480 0.930 . S
C493 C492 1.388 . S
C493 C494 1.390 . S
C494 C493 1.390 . S
C494 C495 1.394 . S
C494 C500 1.465 . S
C495 C490 1.399 . S
C495 C494 1.394 . S
C495 C496 1.516 . S
C496 C495 1.516 . S
C496 C497 1.502 . S
C496 C498 1.561 . S
C496 C499 1.526 . S
C497 H481 0.959 . S
C497 H482 0.959 . S
C497 H483 0.961 . S
C497 C496 1.502 . S
C498 H484 0.960 . S
C498 H485 0.961 . S
C498 H486 0.959 . S
C498 C496 1.561 . S
C499 C496 1.526 . S
C499 C500 1.396 . S
C499 C504 1.390 . S
C500 C494 1.465 . S
C500 C499 1.396 . S
C500 C501 1.399 . S
C501 H487 0.929 . S
C501 C500 1.399 . S
C501 C502 1.385 . S
C502 H488 0.931 . S
C502 C501 1.385 . S
C502 C503 1.389 . S
C503 C502 1.389 . S
C503 C504 1.387 . S
C504 H489 0.930 . S
C504 C499 1.390 . S
C504 C503 1.387 . S
H505 C517 0.930 . S
H506 C519 0.930 . S
H507 C520 0.930 . S
H508 C524 0.959 . S
H509 C524 0.959 . S
H510 C524 0.961 . S
H511 C525 0.960 . S
H512 C525 0.961 . S
H513 C525 0.959 . S
H514 C528 0.929 1_655 S
H515 C529 0.931 1_655 S
H516 C531 0.930 . S
C517 H505 0.930 . S
C517 C518 1.399 . S
C517 C522 1.399 . S
C518 C517 1.399 . S
C518 C519 1.376 . S
C519 H506 0.930 . S
C519 C518 1.376 . S
C519 C520 1.388 . S
C520 H507 0.930 . S
C520 C519 1.388 . S
C520 C521 1.390 . S
C521 C520 1.390 . S
C521 C522 1.394 . S
C521 C527 1.465 . S
C522 C517 1.399 . S
C522 C521 1.394 . S
C522 C523 1.516 . S
C523 C522 1.516 . S
C523 C524 1.502 . S
C523 C525 1.561 . S
C523 C526 1.526 . S
C524 H508 0.959 . S
C524 H509 0.959 . S
C524 H510 0.961 . S
C524 C523 1.502 . S
C525 H511 0.960 . S
C525 H512 0.961 . S
C525 H513 0.959 . S
C525 C523 1.561 . S
C526 C523 1.526 . S
C526 C527 1.396 . S
C526 C531 1.390 . S
C527 C521 1.465 . S
C527 C526 1.396 . S
C527 C528 1.399 . S
C528 H514 0.929 1_455 S
C528 C527 1.399 . S
C528 C529 1.385 . S
C529 H515 0.931 1_455 S
C529 C528 1.385 . S
C529 C530 1.389 . S
C530 C529 1.389 . S
C530 C531 1.387 . S
C531 H516 0.930 . S
C531 C526 1.390 . S
C531 C530 1.387 . S
H532 C544 0.930 1_545 S
H533 C546 0.930 . S
H534 C547 0.930 . S
H535 C551 0.959 . S
H536 C551 0.959 . S
H537 C551 0.961 1_554 S
H538 C552 0.960 . S
H539 C552 0.961 . S
H540 C552 0.959 . S
H541 C555 0.929 . S
H542 C556 0.931 . S
H543 C558 0.930 . S
C544 H532 0.930 1_565 S
C544 C545 1.399 . S
C544 C549 1.399 . S
C545 C544 1.399 . S
C545 C546 1.376 . S
C546 H533 0.930 . S
C546 C545 1.376 . S
C546 C547 1.388 . S
C547 H534 0.930 . S
C547 C546 1.388 . S
C547 C548 1.390 . S
C548 C547 1.390 . S
C548 C549 1.394 . S
C548 C554 1.465 1_554 S
C549 C544 1.399 . S
C549 C548 1.394 . S
C549 C550 1.516 1_565 S
C550 C549 1.516 1_545 S
C550 C551 1.502 1_554 S
C550 C552 1.561 . S
C550 C553 1.526 1_544 S
C551 H535 0.959 . S
C551 H536 0.959 . S
C551 H537 0.961 1_556 S
C551 C550 1.502 1_556 S
C552 H538 0.960 . S
C552 H539 0.961 . S
C552 H540 0.959 . S
C552 C550 1.561 . S
C553 C550 1.526 1_566 S
C553 C554 1.396 . S
C553 C558 1.390 1_565 S
C554 C548 1.465 1_556 S
C554 C553 1.396 . S
C554 C555 1.399 . S
C555 H541 0.929 . S
C555 C554 1.399 . S
C555 C556 1.385 . S
C556 H542 0.931 . S
C556 C555 1.385 . S
C556 C557 1.389 . S
C557 C556 1.389 . S
C557 C558 1.387 1_565 S
C558 H543 0.930 . S
C558 C553 1.390 1_545 S
C558 C557 1.387 1_545 S
H559 C571 0.930 . S
H560 C573 0.930 . S
H561 C574 0.930 1_556 S
H562 C578 0.959 . S
H563 C578 0.959 . S
H564 C578 0.961 . S
H565 C579 0.960 . S
H566 C579 0.961 . S
H567 C579 0.959 . S
H568 C582 0.929 . S
H569 C583 0.931 . S
H570 C585 0.930 . S
C571 H559 0.930 . S
C571 C572 1.399 . S
C571 C576 1.399 . S
C572 C571 1.399 . S
C572 C573 1.376 . S
C573 H560 0.930 . S
C573 C572 1.376 . S
C573 C574 1.388 . S
C574 H561 0.930 1_554 S
C574 C573 1.388 . S
C574 C575 1.390 . S
C575 C574 1.390 . S
C575 C576 1.394 . S
C575 C581 1.465 1_554 S
C576 C571 1.399 . S
C576 C575 1.394 . S
C576 C577 1.516 . S
C577 C576 1.516 . S
C577 C578 1.502 . S
C577 C579 1.561 . S
C577 C580 1.526 1_554 S
C578 H562 0.959 . S
C578 H563 0.959 . S
C578 H564 0.961 . S
C578 C577 1.502 . S
C579 H565 0.960 . S
C579 H566 0.961 . S
C579 H567 0.959 . S
C579 C577 1.561 . S
C580 C577 1.526 1_556 S
C580 C581 1.396 . S
C580 C585 1.390 . S
C581 C575 1.465 1_556 S
C581 C580 1.396 . S
C581 C582 1.399 . S
C582 H568 0.929 . S
C582 C581 1.399 . S
C582 C583 1.385 . S
C583 H569 0.931 . S
C583 C582 1.385 . S
C583 C584 1.389 . S
C584 C583 1.389 . S
C584 C585 1.387 . S
C585 H570 0.930 . S
C585 C580 1.390 . S
C585 C584 1.387 . S
H586 C598 0.930 . S
H587 C600 0.930 . S
H588 C601 0.930 1_556 S
H589 C605 0.959 . S
H590 C605 0.959 . S
H591 C605 0.961 . S
H592 C606 0.960 . S
H593 C606 0.961 1_556 S
H594 C606 0.959 1_556 S
H595 C609 0.929 . S
H596 C610 0.931 . S
H597 C612 0.930 . S
C598 H586 0.930 . S
C598 C599 1.399 . S
C598 C603 1.399 . S
C599 C598 1.399 . S
C599 C600 1.376 . S
C600 H587 0.930 . S
C600 C599 1.376 . S
C600 C601 1.388 . S
C601 H588 0.930 1_554 S
C601 C600 1.388 . S
C601 C602 1.390 . S
C602 C601 1.390 . S
C602 C603 1.394 . S
C602 C608 1.465 1_554 S
C603 C598 1.399 . S
C603 C602 1.394 . S
C603 C604 1.516 . S
C604 C603 1.516 . S
C604 C605 1.502 . S
C604 C606 1.561 . S
C604 C607 1.526 1_554 S
C605 H589 0.959 . S
C605 H590 0.959 . S
C605 H591 0.961 . S
C605 C604 1.502 . S
C606 H592 0.960 . S
C606 H593 0.961 1_554 S
C606 H594 0.959 1_554 S
C606 C604 1.561 . S
C607 C604 1.526 1_556 S
C607 C608 1.396 . S
C607 C612 1.390 . S
C608 C602 1.465 1_556 S
C608 C607 1.396 . S
C608 C609 1.399 . S
C609 H595 0.929 . S
C609 C608 1.399 . S
C609 C610 1.385 . S
C610 H596 0.931 . S
C610 C609 1.385 . S
C610 C611 1.389 . S
C611 C610 1.389 . S
C611 C612 1.387 . S
C612 H597 0.930 . S
C612 C607 1.390 . S
C612 C611 1.387 . S
H613 C625 0.930 . S
H614 C627 0.930 . S
H615 C628 0.930 . S
H616 C632 0.959 1_556 S
H617 C632 0.959 . S
H618 C632 0.961 . S
H619 C633 0.960 . S
H620 C633 0.961 . S
H621 C633 0.959 1_655 S
H622 C636 0.929 . S
H623 C637 0.931 . S
H624 C639 0.897 1_455 S
C625 H613 0.930 . S
C625 C626 1.399 . S
C625 C630 1.399 . S
C626 C625 1.399 . S
C626 C627 1.376 . S
C627 H614 0.930 . S
C627 C626 1.376 . S
C627 C628 1.388 . S
C628 H615 0.930 . S
C628 C627 1.388 . S
C628 C629 1.390 . S
C629 C628 1.390 . S
C629 C630 1.394 . S
C629 C635 1.465 1_554 S
C630 C625 1.399 . S
C630 C629 1.394 . S
C630 C631 1.494 1_655 S
C631 C630 1.494 1_455 S
C631 C632 1.526 . S
C631 C633 1.567 . S
C631 C634 1.514 1_454 S
C632 H616 0.959 1_554 S
C632 H617 0.959 . S
C632 H618 0.961 . S
C632 C631 1.526 . S
C633 H619 0.960 . S
C633 H620 0.961 . S
C633 H621 0.959 1_455 S
C633 C631 1.567 . S
C634 C631 1.514 1_656 S
C634 C635 1.396 . S
C634 C639 1.404 . S
C635 C629 1.465 1_556 S
C635 C634 1.396 . S
C635 C636 1.399 . S
C636 H622 0.929 . S
C636 C635 1.399 . S
C636 C637 1.385 . S
C637 H623 0.931 . S
C637 C636 1.385 . S
C637 C638 1.389 . S
C638 C637 1.389 . S
C638 C639 1.406 . S
C639 H624 0.897 1_655 S
C639 C634 1.404 . S
C639 C638 1.406 . S
H640 C652 0.930 . S
H641 C654 0.930 . S
H642 C655 0.930 . S
H643 C659 0.959 . S
H644 C659 0.959 . S
H645 C659 0.961 1_556 S
H646 C660 0.960 . S
H647 C660 0.961 . S
H648 C660 0.959 . S
H649 C663 0.929 . S
H650 C664 0.931 . S
H651 C666 0.930 . S
C652 H640 0.930 . S
C652 C653 1.399 . S
C652 C657 1.399 . S
C653 C652 1.399 . S
C653 C654 1.376 . S
C654 H641 0.930 . S
C654 C653 1.376 . S
C654 C655 1.388 . S
C655 H642 0.930 . S
C655 C654 1.388 . S
C655 C656 1.390 . S
C656 C655 1.390 . S
C656 C657 1.394 . S
C656 C662 1.465 . S
C657 C652 1.399 . S
C657 C656 1.394 . S
C657 C658 1.516 . S
C658 C657 1.516 . S
C658 C659 1.502 . S
C658 C660 1.561 . S
C658 C661 1.526 . S
C659 H643 0.959 . S
C659 H644 0.959 . S
C659 H645 0.961 1_554 S
C659 C658 1.502 . S
C660 H646 0.960 . S
C660 H647 0.961 . S
C660 H648 0.959 . S
C660 C658 1.561 . S
C661 C658 1.526 . S
C661 C662 1.396 . S
C661 C666 1.390 . S
C662 C656 1.465 . S
C662 C661 1.396 . S
C662 C663 1.399 . S
C663 H649 0.929 . S
C663 C662 1.399 . S
C663 C664 1.385 . S
C664 H650 0.931 . S
C664 C663 1.385 . S
C664 C665 1.389 . S
C665 C664 1.389 . S
C665 C666 1.387 . S
C666 H651 0.930 . S
C666 C661 1.390 . S
C666 C665 1.387 . S
H667 C679 0.930 . S
H668 C681 0.930 . S
H669 C682 0.930 . S
H670 C686 0.959 . S
H671 C686 0.959 . S
H672 C686 0.961 . S
H673 C687 0.960 . S
H674 C687 0.961 . S
H675 C687 0.959 . S
H676 C690 0.929 . S
H677 C691 0.931 . S
H678 C693 0.930 . S
C679 H667 0.930 . S
C679 C680 1.399 . S
C679 C684 1.399 . S
C680 C679 1.399 . S
C680 C681 1.376 . S
C681 H668 0.930 . S
C681 C680 1.376 . S
C681 C682 1.388 . S
C682 H669 0.930 . S
C682 C681 1.388 . S
C682 C683 1.390 . S
C683 C682 1.390 . S
C683 C684 1.394 . S
C683 C689 1.465 . S
C684 C679 1.399 . S
C684 C683 1.394 . S
C684 C685 1.516 . S
C685 C684 1.516 . S
C685 C686 1.502 . S
C685 C687 1.561 . S
C685 C688 1.526 . S
C686 H670 0.959 . S
C686 H671 0.959 . S
C686 H672 0.961 . S
C686 C685 1.502 . S
C687 H673 0.960 . S
C687 H674 0.961 . S
C687 H675 0.959 . S
C687 C685 1.561 . S
C688 C685 1.526 . S
C688 C689 1.396 . S
C688 C693 1.390 . S
C689 C683 1.465 . S
C689 C688 1.396 . S
C689 C690 1.399 1_545 S
C690 H676 0.929 . S
C690 C689 1.399 1_565 S
C690 C691 1.385 . S
C691 H677 0.931 . S
C691 C690 1.385 . S
C691 C692 1.389 1_565 S
C692 C691 1.389 1_545 S
C692 C693 1.387 . S
C693 H678 0.930 . S
C693 C688 1.390 . S
C693 C692 1.387 . S
H694 C706 0.930 . S
H695 C708 0.930 . S
H696 C709 0.930 . S
H697 C713 0.959 . S
H698 C713 0.959 . S
H699 C713 0.961 . S
H700 C714 0.960 1_556 S
H701 C714 0.961 . S
H702 C714 0.959 . S
H703 C717 0.929 . S
H704 C718 0.931 . S
H705 C720 0.930 . S
C706 H694 0.930 . S
C706 C707 1.399 . S
C706 C711 1.399 . S
C707 C706 1.399 . S
C707 C708 1.376 . S
C708 H695 0.930 . S
C708 C707 1.376 . S
C708 C709 1.388 . S
C709 H696 0.930 . S
C709 C708 1.388 . S
C709 C710 1.390 . S
C710 C709 1.390 . S
C710 C711 1.394 . S
C710 C716 1.465 . S
C711 C706 1.399 . S
C711 C710 1.394 . S
C711 C712 1.516 . S
C712 C711 1.516 . S
C712 C713 1.502 . S
C712 C714 1.561 . S
C712 C715 1.526 . S
C713 H697 0.959 . S
C713 H698 0.959 . S
C713 H699 0.961 . S
C713 C712 1.502 . S
C714 H700 0.960 1_554 S
C714 H701 0.961 . S
C714 H702 0.959 . S
C714 C712 1.561 . S
C715 C712 1.526 . S
C715 C716 1.396 . S
C715 C720 1.390 . S
C716 C710 1.465 . S
C716 C715 1.396 . S
C716 C717 1.399 . S
C717 H703 0.929 . S
C717 C716 1.399 . S
C717 C718 1.385 . S
C718 H704 0.931 . S
C718 C717 1.385 . S
C718 C719 1.389 . S
C719 C718 1.389 . S
C719 C720 1.387 . S
C720 H705 0.930 . S
C720 C715 1.390 . S
C720 C719 1.387 . S
H721 C733 0.930 . S
H722 C735 0.930 . S
H723 C736 0.930 . S
H724 C740 0.959 . S
H725 C740 0.959 . S
H726 C740 0.961 . S
H727 C741 0.960 . S
H728 C741 0.961 . S
H729 C741 0.959 . S
H730 C744 0.929 . S
H731 C745 0.931 . S
H732 C747 0.930 . S
C733 H721 0.930 . S
C733 C734 1.399 . S
C733 C738 1.399 . S
C734 C733 1.399 . S
C734 C735 1.376 . S
C735 H722 0.930 . S
C735 C734 1.376 . S
C735 C736 1.388 . S
C736 H723 0.930 . S
C736 C735 1.388 . S
C736 C737 1.390 . S
C737 C736 1.390 . S
C737 C738 1.394 . S
C737 C743 1.465 . S
C738 C733 1.399 . S
C738 C737 1.394 . S
C738 C739 1.516 . S
C739 C738 1.516 . S
C739 C740 1.502 . S
C739 C741 1.561 . S
C739 C742 1.526 . S
C740 H724 0.959 . S
C740 H725 0.959 . S
C740 H726 0.961 . S
C740 C739 1.502 . S
C741 H727 0.960 . S
C741 H728 0.961 . S
C741 H729 0.959 . S
C741 C739 1.561 . S
C742 C739 1.526 . S
C742 C743 1.396 . S
C742 C747 1.390 . S
C743 C737 1.465 . S
C743 C742 1.396 . S
C743 C744 1.399 . S
C744 H730 0.929 . S
C744 C743 1.399 . S
C744 C745 1.385 . S
C745 H731 0.931 . S
C745 C744 1.385 . S
C745 C746 1.389 . S
C746 C745 1.389 . S
C746 C747 1.387 . S
C747 H732 0.930 . S
C747 C742 1.390 . S
C747 C746 1.387 . S
H748 C760 0.930 . S
H749 C762 0.930 . S
H750 C763 0.930 . S
H751 C767 0.959 . S
H752 C767 0.959 . S
H753 C767 0.961 . S
H754 C768 0.960 . S
H755 C768 0.961 . S
H756 C768 0.959 . S
H757 C771 0.929 . S
H758 C772 0.931 . S
H759 C774 0.930 . S
C760 H748 0.930 . S
C760 C761 1.399 . S
C760 C765 1.399 . S
C761 C760 1.399 . S
C761 C762 1.376 . S
C762 H749 0.930 . S
C762 C761 1.376 . S
C762 C763 1.388 . S
C763 H750 0.930 . S
C763 C762 1.388 . S
C763 C764 1.390 . S
C764 C763 1.390 . S
C764 C765 1.394 . S
C764 C770 1.465 . S
C765 C760 1.399 . S
C765 C764 1.394 . S
C765 C766 1.516 . S
C766 C765 1.516 . S
C766 C767 1.502 . S
C766 C768 1.561 . S
C766 C769 1.526 . S
C767 H751 0.959 . S
C767 H752 0.959 . S
C767 H753 0.961 . S
C767 C766 1.502 . S
C768 H754 0.960 . S
C768 H755 0.961 . S
C768 H756 0.959 . S
C768 C766 1.561 . S
C769 C766 1.526 . S
C769 C770 1.396 . S
C769 C774 1.390 . S
C770 C764 1.465 . S
C770 C769 1.396 . S
C770 C771 1.399 1_654 S
C771 H757 0.929 . S
C771 C770 1.399 1_456 S
C771 C772 1.385 . S
C772 H758 0.931 . S
C772 C771 1.385 . S
C772 C773 1.389 . S
C773 C772 1.389 . S
C773 C774 1.387 1_456 S
C774 H759 0.930 . S
C774 C769 1.390 . S
C774 C773 1.387 1_654 S
H775 C787 0.930 . S
H776 C789 0.930 . S
H777 C790 0.930 . S
H778 C794 0.959 . S
H779 C794 0.959 . S
H780 C794 0.961 . S
H781 C795 0.960 . S
H782 C795 0.961 . S
H783 C795 0.959 . S
H784 C798 0.929 . S
H785 C799 0.931 . S
H786 C801 0.930 . S
C787 H775 0.930 . S
C787 C788 1.399 . S
C787 C792 1.399 . S
C788 C787 1.399 . S
C788 C789 1.376 . S
C789 H776 0.930 . S
C789 C788 1.376 . S
C789 C790 1.388 . S
C790 H777 0.930 . S
C790 C789 1.388 . S
C790 C791 1.390 . S
C791 C790 1.390 . S
C791 C792 1.394 . S
C791 C797 1.465 . S
C792 C787 1.399 . S
C792 C791 1.394 . S
C792 C793 1.516 . S
C793 C792 1.516 . S
C793 C794 1.502 . S
C793 C795 1.561 1_565 S
C793 C796 1.526 . S
C794 H778 0.959 . S
C794 H779 0.959 . S
C794 H780 0.961 . S
C794 C793 1.502 . S
C795 H781 0.960 . S
C795 H782 0.961 . S
C795 H783 0.959 . S
C795 C793 1.561 1_545 S
C796 C793 1.526 . S
C796 C797 1.396 . S
C796 C801 1.390 1_565 S
C797 C791 1.465 . S
C797 C796 1.396 . S
C797 C798 1.399 1_564 S
C798 H784 0.929 . S
C798 C797 1.399 1_546 S
C798 C799 1.385 . S
C799 H785 0.931 . S
C799 C798 1.385 . S
C799 C800 1.389 . S
C800 C799 1.389 . S
C800 C801 1.387 1_556 S
C801 H786 0.930 . S
C801 C796 1.390 1_545 S
C801 C800 1.387 1_554 S
H802 C814 0.930 . S
H803 C816 0.930 . S
H804 C817 0.930 . S
H805 C821 0.959 . S
H806 C821 0.959 . S
H807 C821 0.961 . S
H808 C822 0.960 . S
H809 C822 0.961 . S
H810 C822 0.959 . S
H811 C825 0.929 . S
H812 C826 0.931 . S
H813 C828 0.930 . S
C814 H802 0.930 . S
C814 C815 1.399 . S
C814 C819 1.399 . S
C815 C814 1.399 . S
C815 C816 1.376 . S
C816 H803 0.930 . S
C816 C815 1.376 . S
C816 C817 1.388 . S
C817 H804 0.930 . S
C817 C816 1.388 . S
C817 C818 1.390 . S
C818 C817 1.390 . S
C818 C819 1.394 . S
C818 C824 1.465 . S
C819 C814 1.399 . S
C819 C818 1.394 . S
C819 C820 1.516 . S
C820 C819 1.516 . S
C820 C821 1.502 1_554 S
C820 C822 1.561 . S
C820 C823 1.526 . S
C821 H805 0.959 . S
C821 H806 0.959 . S
C821 H807 0.961 . S
C821 C820 1.502 1_556 S
C822 H808 0.960 . S
C822 H809 0.961 . S
C822 H810 0.959 . S
C822 C820 1.561 . S
C823 C820 1.526 . S
C823 C824 1.396 . S
C823 C828 1.390 1_554 S
C824 C818 1.465 . S
C824 C823 1.396 . S
C824 C825 1.399 . S
C825 H811 0.929 . S
C825 C824 1.399 . S
C825 C826 1.385 . S
C826 H812 0.931 . S
C826 C825 1.385 . S
C826 C827 1.389 . S
C827 C826 1.389 . S
C827 C828 1.387 1_554 S
C828 H813 0.930 . S
C828 C823 1.390 1_556 S
C828 C827 1.387 1_556 S
H829 C841 0.930 . S
H830 C843 0.930 . S
H831 C844 0.930 . S
H832 C848 0.959 . S
H833 C848 0.959 1_556 S
H834 C848 0.961 . S
H835 C849 0.960 . S
H836 C849 0.961 . S
H837 C849 0.959 . S
H838 C852 0.929 . S
H839 C853 0.931 . S
H840 C855 0.930 . S
C841 H829 0.930 . S
C841 C842 1.399 . S
C841 C846 1.399 . S
C842 C841 1.399 . S
C842 C843 1.376 . S
C843 H830 0.930 . S
C843 C842 1.376 . S
C843 C844 1.388 . S
C844 H831 0.930 . S
C844 C843 1.388 . S
C844 C845 1.390 . S
C845 C844 1.390 . S
C845 C846 1.394 . S
C845 C851 1.465 . S
C846 C841 1.399 . S
C846 C845 1.394 . S
C846 C847 1.516 . S
C847 C846 1.516 . S
C847 C848 1.502 . S
C847 C849 1.561 1_554 S
C847 C850 1.526 . S
C848 H832 0.959 . S
C848 H833 0.959 1_554 S
C848 H834 0.961 . S
C848 C847 1.502 . S
C849 H835 0.960 . S
C849 H836 0.961 . S
C849 H837 0.959 . S
C849 C847 1.561 1_556 S
C850 C847 1.526 . S
C850 C851 1.396 . S
C850 C855 1.390 1_554 S
C851 C845 1.465 . S
C851 C850 1.396 . S
C851 C852 1.399 . S
C852 H838 0.929 . S
C852 C851 1.399 . S
C852 C853 1.385 . S
C853 H839 0.931 . S
C853 C852 1.385 . S
C853 C854 1.389 . S
C854 C853 1.389 . S
C854 C855 1.387 1_554 S
C855 H840 0.930 . S
C855 C850 1.390 1_556 S
C855 C854 1.387 1_556 S
H856 C868 0.930 . S
H857 C870 0.930 . S
H858 C871 0.930 . S
H859 C875 0.959 . S
H860 C875 0.959 . S
H861 C875 0.961 . S
H862 C876 0.960 1_554 S
H863 C876 0.961 . S
H864 C876 0.959 . S
H865 C879 0.929 . S
H866 C880 0.931 . S
H867 C882 0.930 . S
C868 H856 0.930 . S
C868 C869 1.399 . S
C868 C873 1.399 . S
C869 C868 1.399 . S
C869 C870 1.376 . S
C870 H857 0.930 . S
C870 C869 1.376 . S
C870 C871 1.388 . S
C871 H858 0.930 . S
C871 C870 1.388 . S
C871 C872 1.390 . S
C872 C871 1.390 . S
C872 C873 1.394 . S
C872 C878 1.465 . S
C873 C868 1.399 . S
C873 C872 1.394 . S
C873 C874 1.516 . S
C874 C873 1.516 . S
C874 C875 1.502 . S
C874 C876 1.561 . S
C874 C877 1.526 . S
C875 H859 0.959 . S
C875 H860 0.959 . S
C875 H861 0.961 . S
C875 C874 1.502 . S
C876 H862 0.960 1_556 S
C876 H863 0.961 . S
C876 H864 0.959 . S
C876 C874 1.561 . S
C877 C874 1.526 . S
C877 C878 1.396 . S
C877 C882 1.390 . S
C878 C872 1.465 . S
C878 C877 1.396 . S
C878 C879 1.399 . S
C879 H865 0.929 . S
C879 C878 1.399 . S
C879 C880 1.385 . S
C880 H866 0.931 . S
C880 C879 1.385 . S
C880 C881 1.389 . S
C881 C880 1.389 . S
C881 C882 1.387 . S
C882 H867 0.930 . S
C882 C877 1.390 . S
C882 C881 1.387 . S
H883 C895 0.930 . S
H884 C897 0.930 . S
H885 C898 0.930 . S
H886 C902 0.959 . S
H887 C902 0.959 . S
H888 C902 0.961 . S
H889 C903 0.960 . S
H890 C903 0.961 . S
H891 C903 0.959 . S
H892 C906 0.929 . S
H893 C907 0.931 . S
H894 C909 0.930 . S
C895 H883 0.930 . S
C895 C896 1.399 . S
C895 C900 1.399 . S
C896 C895 1.399 . S
C896 C897 1.376 . S
C897 H884 0.930 . S
C897 C896 1.376 . S
C897 C898 1.388 . S
C898 H885 0.930 . S
C898 C897 1.388 . S
C898 C899 1.390 . S
C899 C898 1.390 . S
C899 C900 1.394 . S
C899 C905 1.465 . S
C900 C895 1.399 . S
C900 C899 1.394 . S
C900 C901 1.516 . S
C901 C900 1.516 . S
C901 C902 1.502 . S
C901 C903 1.561 . S
C901 C904 1.526 . S
C902 H886 0.959 . S
C902 H887 0.959 . S
C902 H888 0.961 . S
C902 C901 1.502 . S
C903 H889 0.960 . S
C903 H890 0.961 . S
C903 H891 0.959 . S
C903 C901 1.561 . S
C904 C901 1.526 . S
C904 C905 1.396 . S
C904 C909 1.390 . S
C905 C899 1.465 . S
C905 C904 1.396 . S
C905 C906 1.399 . S
C906 H892 0.929 . S
C906 C905 1.399 . S
C906 C907 1.385 . S
C907 H893 0.931 . S
C907 C906 1.385 . S
C907 C908 1.389 . S
C908 C907 1.389 . S
C908 C909 1.387 . S
C909 H894 0.930 . S
C909 C904 1.390 . S
C909 C908 1.387 . S
H910 C922 0.930 . S
H911 C924 0.930 . S
H912 C925 0.930 . S
H913 C929 0.959 . S
H914 C929 0.959 . S
H915 C929 0.961 . S
H916 C930 0.960 . S
H917 C930 0.961 . S
H918 C930 0.959 . S
H919 C933 0.929 . S
H920 C934 0.931 . S
H921 C936 0.930 . S
C922 H910 0.930 . S
C922 C923 1.399 . S
C922 C927 1.399 . S
C923 C922 1.399 . S
C923 C924 1.376 . S
C924 H911 0.930 . S
C924 C923 1.376 . S
C924 C925 1.388 . S
C925 H912 0.930 . S
C925 C924 1.388 . S
C925 C926 1.390 . S
C926 C925 1.390 . S
C926 C927 1.394 . S
C926 C932 1.465 . S
C927 C922 1.399 . S
C927 C926 1.394 . S
C927 C928 1.516 . S
C928 C927 1.516 . S
C928 C929 1.502 . S
C928 C930 1.561 . S
C928 C931 1.526 . S
C929 H913 0.959 . S
C929 H914 0.959 . S
C929 H915 0.961 . S
C929 C928 1.502 . S
C930 H916 0.960 . S
C930 H917 0.961 . S
C930 H918 0.959 . S
C930 C928 1.561 . S
C931 C928 1.526 . S
C931 C932 1.396 . S
C931 C936 1.390 . S
C932 C926 1.465 . S
C932 C931 1.396 . S
C932 C933 1.399 . S
C933 H919 0.929 . S
C933 C932 1.399 . S
C933 C934 1.385 . S
C934 H920 0.931 . S
C934 C933 1.385 . S
C934 C935 1.389 . S
C935 C934 1.389 . S
C935 C936 1.387 . S
C936 H921 0.930 . S
C936 C931 1.390 . S
C936 C935 1.387 . S
H937 C949 0.930 . S
H938 C951 0.930 . S
H939 C952 0.930 . S
H940 C956 0.959 . S
H941 C956 0.959 . S
H942 C956 0.961 . S
H943 C957 0.960 1_554 S
H944 C957 0.961 . S
H945 C957 0.959 . S
H946 C960 0.929 . S
H947 C961 0.931 . S
H948 C963 0.930 . S
C949 H937 0.930 . S
C949 C950 1.399 . S
C949 C954 1.399 . S
C950 C949 1.399 . S
C950 C951 1.376 . S
C951 H938 0.930 . S
C951 C950 1.376 . S
C951 C952 1.388 . S
C952 H939 0.930 . S
C952 C951 1.388 . S
C952 C953 1.390 . S
C953 C952 1.390 . S
C953 C954 1.394 . S
C953 C959 1.465 . S
C954 C949 1.399 . S
C954 C953 1.394 . S
C954 C955 1.516 . S
C955 C954 1.516 . S
C955 C956 1.502 . S
C955 C957 1.561 . S
C955 C958 1.526 . S
C956 H940 0.959 . S
C956 H941 0.959 . S
C956 H942 0.961 . S
C956 C955 1.502 . S
C957 H943 0.960 1_556 S
C957 H944 0.961 . S
C957 H945 0.959 . S
C957 C955 1.561 . S
C958 C955 1.526 . S
C958 C959 1.396 . S
C958 C963 1.390 . S
C959 C953 1.465 . S
C959 C958 1.396 . S
C959 C960 1.399 . S
C960 H946 0.929 . S
C960 C959 1.399 . S
C960 C961 1.385 . S
C961 H947 0.931 . S
C961 C960 1.385 . S
C961 C962 1.389 . S
C962 C961 1.389 . S
C962 C963 1.387 . S
C963 H948 0.930 . S
C963 C958 1.390 . S
C963 C962 1.387 . S
H964 C976 0.930 . S
H965 C978 0.930 . S
H966 C979 0.898 1_455 S
H967 C983 0.959 . S
H968 C983 0.959 . S
H969 C983 0.961 . S
H970 C984 0.960 . S
H971 C984 0.961 . S
H972 C984 0.959 . S
H973 C987 0.929 1_455 S
H974 C988 0.931 1_455 S
H975 C990 0.930 . S
C976 H964 0.930 . S
C976 C977 1.399 . S
C976 C981 1.399 . S
C977 C976 1.399 . S
C977 C978 1.376 . S
C978 H965 0.930 . S
C978 C977 1.376 . S
C978 C979 1.388 . S
C979 H966 0.898 1_655 S
C979 C978 1.388 . S
C979 C980 1.390 . S
C980 C979 1.390 . S
C980 C981 1.394 . S
C980 C986 1.465 . S
C981 C976 1.399 . S
C981 C980 1.394 . S
C981 C982 1.516 . S
C982 C981 1.516 . S
C982 C983 1.502 . S
C982 C984 1.561 . S
C982 C985 1.526 . S
C983 H967 0.959 . S
C983 H968 0.959 . S
C983 H969 0.961 . S
C983 C982 1.502 . S
C984 H970 0.960 . S
C984 H971 0.961 . S
C984 H972 0.959 . S
C984 C982 1.561 . S
C985 C982 1.526 . S
C985 C986 1.396 . S
C985 C990 1.390 . S
C986 C980 1.465 . S
C986 C985 1.396 . S
C986 C987 1.399 . S
C987 H973 0.929 1_655 S
C987 C986 1.399 . S
C987 C988 1.385 . S
C988 H974 0.931 1_655 S
C988 C987 1.385 . S
C988 C989 1.389 . S
C989 C988 1.389 . S
C989 C990 1.387 . S
C990 H975 0.930 . S
C990 C985 1.390 . S
C990 C989 1.387 . S
H991 C1003 0.930 . S
H992 C1005 0.930 . S
H993 C1006 0.930 1_545 S
H994 C1010 0.959 . S
H995 C1010 0.959 . S
H996 C1010 0.961 . S
H997 C1011 0.960 . S
H998 C1011 0.961 . S
H999 C1011 0.959 . S
H1000 C1014 0.929 . S
H1001 C1015 0.931 . S
H1002 C1017 0.930 . S
C1003 H991 0.930 . S
C1003 C1004 1.399 . S
C1003 C1008 1.399 . S
C1004 C1003 1.399 . S
C1004 C1005 1.376 . S
C1005 H992 0.930 . S
C1005 C1004 1.376 . S
C1005 C1006 1.388 . S
C1006 H993 0.930 1_565 S
C1006 C1005 1.388 . S
C1006 C1007 1.390 . S
C1007 C1006 1.390 . S
C1007 C1008 1.394 . S
C1007 C1013 1.465 . S
C1008 C1003 1.399 . S
C1008 C1007 1.394 . S
C1008 C1009 1.516 . S
C1009 C1008 1.516 . S
C1009 C1010 1.502 . S
C1009 C1011 1.561 . S
C1009 C1012 1.526 . S
C1010 H994 0.959 . S
C1010 H995 0.959 . S
C1010 H996 0.961 . S
C1010 C1009 1.502 . S
C1011 H997 0.960 . S
C1011 H998 0.961 . S
C1011 H999 0.959 . S
C1011 C1009 1.561 . S
C1012 C1009 1.526 . S
C1012 C1013 1.396 . S
C1012 C1017 1.390 . S
C1013 C1007 1.465 . S
C1013 C1012 1.396 . S
C1013 C1014 1.399 1_565 S
C1014 H1000 0.929 . S
C1014 C1013 1.399 1_545 S
C1014 C1015 1.385 . S
C1015 H1001 0.931 . S
C1015 C1014 1.385 . S
C1015 C1016 1.389 1_545 S
C1016 C1015 1.389 1_565 S
C1016 C1017 1.387 . S
C1017 H1002 0.930 . S
C1017 C1012 1.390 . S
C1017 C1016 1.387 . S
H1018 C1030 0.930 . S
H1019 C1032 0.930 . S
H1020 C1033 0.930 . S
H1021 C1037 0.959 . S
H1022 C1037 0.959 . S
H1023 C1037 0.961 . S
H1024 C1038 0.960 . S
H1025 C1038 0.961 . S
H1026 C1038 0.959 . S
H1027 C1041 0.929 . S
H1028 C1042 0.931 . S
H1029 C1044 0.930 . S
C1030 H1018 0.930 . S
C1030 C1031 1.399 . S
C1030 C1035 1.399 . S
C1031 C1030 1.399 . S
C1031 C1032 1.376 . S
C1032 H1019 0.930 . S
C1032 C1031 1.376 . S
C1032 C1033 1.388 . S
C1033 H1020 0.930 . S
C1033 C1032 1.388 . S
C1033 C1034 1.390 . S
C1034 C1033 1.390 . S
C1034 C1035 1.394 . S
C1034 C1040 1.465 . S
C1035 C1030 1.399 . S
C1035 C1034 1.394 . S
C1035 C1036 1.516 . S
C1036 C1035 1.516 . S
C1036 C1037 1.502 . S
C1036 C1038 1.561 . S
C1036 C1039 1.526 . S
C1037 H1021 0.959 . S
C1037 H1022 0.959 . S
C1037 H1023 0.961 . S
C1037 C1036 1.502 . S
C1038 H1024 0.960 . S
C1038 H1025 0.961 . S
C1038 H1026 0.959 . S
C1038 C1036 1.561 . S
C1039 C1036 1.526 . S
C1039 C1040 1.396 . S
C1039 C1044 1.390 . S
C1040 C1034 1.465 . S
C1040 C1039 1.396 . S
C1040 C1041 1.399 . S
C1041 H1027 0.929 . S
C1041 C1040 1.399 . S
C1041 C1042 1.385 . S
C1042 H1028 0.931 . S
C1042 C1041 1.385 . S
C1042 C1043 1.389 . S
C1043 C1042 1.389 . S
C1043 C1044 1.387 . S
C1044 H1029 0.930 . S
C1044 C1039 1.390 . S
C1044 C1043 1.387 . S
H1045 C1057 0.930 . S
H1046 C1059 0.930 . S
H1047 C1060 0.930 . S
H1048 C1064 0.959 . S
H1049 C1064 0.959 . S
H1050 C1064 0.961 . S
H1051 C1065 0.960 . S
H1052 C1065 0.961 . S
H1053 C1065 0.959 . S
H1054 C1068 0.929 . S
H1055 C1069 0.931 . S
H1056 C1071 0.930 . S
C1057 H1045 0.930 . S
C1057 C1058 1.399 . S
C1057 C1062 1.399 . S
C1058 C1057 1.399 . S
C1058 C1059 1.376 . S
C1059 H1046 0.930 . S
C1059 C1058 1.376 . S
C1059 C1060 1.388 . S
C1060 H1047 0.930 . S
C1060 C1059 1.388 . S
C1060 C1061 1.390 . S
C1061 C1060 1.390 . S
C1061 C1062 1.394 . S
C1061 C1067 1.465 . S
C1062 C1057 1.399 . S
C1062 C1061 1.394 . S
C1062 C1063 1.516 . S
C1063 C1062 1.516 . S
C1063 C1064 1.502 . S
C1063 C1065 1.561 . S
C1063 C1066 1.526 . S
C1064 H1048 0.959 . S
C1064 H1049 0.959 . S
C1064 H1050 0.961 . S
C1064 C1063 1.502 . S
C1065 H1051 0.960 . S
C1065 H1052 0.961 . S
C1065 H1053 0.959 . S
C1065 C1063 1.561 . S
C1066 C1063 1.526 . S
C1066 C1067 1.396 . S
C1066 C1071 1.390 . S
C1067 C1061 1.465 . S
C1067 C1066 1.396 . S
C1067 C1068 1.399 . S
C1068 H1054 0.929 . S
C1068 C1067 1.399 . S
C1068 C1069 1.385 . S
C1069 H1055 0.931 . S
C1069 C1068 1.385 . S
C1069 C1070 1.389 . S
C1070 C1069 1.389 . S
C1070 C1071 1.387 . S
C1071 H1056 0.930 . S
C1071 C1066 1.390 . S
C1071 C1070 1.387 . S
C437 C76 1.890 . S
C449 C162 1.917 . S
C476 C246 1.924 . S
C464 C87 1.914 . S
C503 C312 1.900 . S
C491 C54 1.993 . S
C530 C396 1.884 . S
C518 C65 1.977 . S
C557 C151 1.942 1_565 S
C545 C32 1.888 . S
C572 C43 1.867 . S
C584 C235 1.978 . S
C599 C10 1.935 . S
C611 C323 1.964 . S
C626 C21 1.971 . S
C638 C407 1.905 . S
C665 C158 0.671 1_455 S
C653 C60 0.736 . S
C692 C242 0.581 1_545 S
C680 C71 0.670 . S
C719 C314 0.694 . S
C707 C82 0.698 . S
C734 C49 0.605 . S
C746 C398 0.586 . S
C761 C16 0.629 . S
C773 C146 0.600 . S
C800 C230 0.615 . S
C788 C27 0.652 . S
C827 C326 0.498 . S
C815 C38 0.499 . S
C842 C5 0.646 . S
C854 C410 0.587 . S
C869 C59 2.039 . S
C881 C155 2.035 . S
C896 C70 1.934 . S
C908 C239 2.071 . S
C935 C319 2.071 . S
C923 C81 1.853 . S
C962 C403 2.077 . S
C950 C48 1.919 . S
C977 C15 1.968 . S
C989 C144 2.065 . S
C1016 C228 2.040 . S
C1004 C26 1.935 . S
C1043 C330 2.067 . S
C1031 C37 1.920 . S
C1058 C4 1.934 . S
C1070 C414 2.079 . S
