# Generated by pormake.
# Topology pyr, (3,6)-cn, num edge types: 1
# Building blocks:
#     Node 0, Type 0, BuildingBlock: BETDIP_clean_linker_0, # of connection points: 3
#     Node 1, Type 0, BuildingBlock: BETDIP_clean_linker_0, # of connection points: 3
#     Node 2, Type 0, BuildingBlock: BETDIP_clean_linker_0, # of connection points: 3
#     Node 3, Type 0, BuildingBlock: BETDIP_clean_linker_0, # of connection points: 3
#     Node 4, Type 0, BuildingBlock: BETDIP_clean_linker_0, # of connection points: 3
#     Node 5, Type 0, BuildingBlock: BETDIP_clean_linker_0, # of connection points: 3
#     Node 6, Type 0, BuildingBlock: BETDIP_clean_linker_0, # of connection points: 3
#     Node 7, Type 0, BuildingBlock: BETDIP_clean_linker_0, # of connection points: 3
#     Node 8, Type 1, BuildingBlock: BETFEN_clean_sbu_0, # of connection points: 6
#     Node 9, Type 1, BuildingBlock: BETFEN_clean_sbu_0, # of connection points: 6
#     Node 10, Type 1, BuildingBlock: BETFEN_clean_sbu_0, # of connection points: 6
#     Node 11, Type 1, BuildingBlock: BETFEN_clean_sbu_0, # of connection points: 6
#     Edge 12, Type (0, 1), BuildingBlock: KIFKEQ_clean_linker_1, # of connection points: 2
#     Edge 13, Type (0, 1), BuildingBlock: KIFKEQ_clean_linker_1, # of connection points: 2
#     Edge 14, Type (0, 1), BuildingBlock: KIFKEQ_clean_linker_1, # of connection points: 2
#     Edge 15, Type (0, 1), BuildingBlock: KIFKEQ_clean_linker_1, # of connection points: 2
#     Edge 16, Type (0, 1), BuildingBlock: KIFKEQ_clean_linker_1, # of connection points: 2
#     Edge 17, Type (0, 1), BuildingBlock: KIFKEQ_clean_linker_1, # of connection points: 2
#     Edge 18, Type (0, 1), BuildingBlock: KIFKEQ_clean_linker_1, # of connection points: 2
#     Edge 19, Type (0, 1), BuildingBlock: KIFKEQ_clean_linker_1, # of connection points: 2
#     Edge 20, Type (0, 1), BuildingBlock: KIFKEQ_clean_linker_1, # of connection points: 2
#     Edge 21, Type (0, 1), BuildingBlock: KIFKEQ_clean_linker_1, # of connection points: 2
#     Edge 22, Type (0, 1), BuildingBlock: KIFKEQ_clean_linker_1, # of connection points: 2
#     Edge 23, Type (0, 1), BuildingBlock: KIFKEQ_clean_linker_1, # of connection points: 2
#     Edge 24, Type (0, 1), BuildingBlock: KIFKEQ_clean_linker_1, # of connection points: 2
#     Edge 25, Type (0, 1), BuildingBlock: KIFKEQ_clean_linker_1, # of connection points: 2
#     Edge 26, Type (0, 1), BuildingBlock: KIFKEQ_clean_linker_1, # of connection points: 2
#     Edge 27, Type (0, 1), BuildingBlock: KIFKEQ_clean_linker_1, # of connection points: 2
#     Edge 28, Type (0, 1), BuildingBlock: KIFKEQ_clean_linker_1, # of connection points: 2
#     Edge 29, Type (0, 1), BuildingBlock: KIFKEQ_clean_linker_1, # of connection points: 2
#     Edge 30, Type (0, 1), BuildingBlock: KIFKEQ_clean_linker_1, # of connection points: 2
#     Edge 31, Type (0, 1), BuildingBlock: KIFKEQ_clean_linker_1, # of connection points: 2
#     Edge 32, Type (0, 1), BuildingBlock: KIFKEQ_clean_linker_1, # of connection points: 2
#     Edge 33, Type (0, 1), BuildingBlock: KIFKEQ_clean_linker_1, # of connection points: 2
#     Edge 34, Type (0, 1), BuildingBlock: KIFKEQ_clean_linker_1, # of connection points: 2
#     Edge 35, Type (0, 1), BuildingBlock: KIFKEQ_clean_linker_1, # of connection points: 2
# Relax obj value: 0.175
# Max RMSD: 0.300
# Mean RMSD: 0.155
data_MOF--net-pyr--node1-BETFEN_clean_sbu_0--node2-BETDIP_clean_linker_0--edge1-KIFKEQ_clean_linker_1
_symmetry_space_group_name_H-M    P1
_symmetry_Int_Tables_number       1
_symmetry_cell_setting            triclinic
loop_
_symmetry_equiv_pos_as_xyz
'x, y, z'
_cell_length_a     37.323448
_cell_length_b     40.929081
_cell_length_c     39.25613
_cell_angle_alpha  92.773938
_cell_angle_beta   97.425727
_cell_angle_gamma 117.08411
loop_
_atom_site_label
_atom_site_type_symbol
_atom_site_fract_x
_atom_site_fract_y
_atom_site_fract_z
_atom_type_partial_charge
H0 H 0.37973 0.39003 0.29948 0.0
H1 H 0.41871 0.35163 0.21479 0.0
H2 H 0.39612 0.29293 0.30384 0.0
H3 H 0.3955 0.38394 0.18436 0.0
C4 C 0.38816 0.40114 0.20102 0.0
C5 C 0.38914 0.37098 0.28843 0.0
C6 C 0.38676 0.34106 0.30574 0.0
C7 C 0.40037 0.37496 0.25563 0.0
C8 C 0.41084 0.34933 0.2404 0.0
C9 C 0.40942 0.31956 0.2577 0.0
C10 C 0.39823 0.31624 0.29068 0.0
N11 N 0.39644 0.40274 0.2376 0.0
H12 H 0.27093 0.86848 0.72909 0.0
H13 H 0.27469 0.8172 0.63211 0.0
H14 H 0.35831 0.82821 0.72375 0.0
H15 H 0.25246 0.86001 0.61235 0.0
C16 C 0.23179 0.85967 0.6296 0.0
C17 C 0.28398 0.8548 0.71433 0.0
C18 C 0.31626 0.84948 0.73061 0.0
C19 C 0.26909 0.84375 0.6789 0.0
C20 C 0.28616 0.82619 0.65948 0.0
C21 C 0.31849 0.82052 0.67568 0.0
C22 C 0.33309 0.83209 0.71122 0.0
N23 N 0.23733 0.85131 0.66396 0.0
H24 H 0.6723 0.3919 0.82207 0.0
H25 H 0.56575 0.28526 0.81276 0.0
H26 H 0.66234 0.32119 0.90094 0.0
H27 H 0.65728 0.37358 0.76113 0.0
C28 C 0.62595 0.3691 0.75847 0.0
C29 C 0.65528 0.36581 0.83177 0.0
C30 C 0.67108 0.3595 0.86364 0.0
C31 C 0.61717 0.33922 0.81307 0.0
C32 C 0.59508 0.3058 0.82691 0.0
C33 C 0.61109 0.29902 0.85895 0.0
C34 C 0.64904 0.32626 0.87683 0.0
N35 N 0.60056 0.34649 0.78111 0.0
H36 H 0.81688 0.61491 0.33359 0.0
H37 H 0.91153 0.72172 0.31857 0.0
H38 H 0.83539 0.71387 0.39377 0.0
H39 H 0.90122 0.6938 0.26493 0.0
C40 C 0.89513 0.66557 0.26778 0.0
C41 C 0.83295 0.64469 0.33995 0.0
C42 C 0.82257 0.66163 0.36654 0.0
C43 C 0.86437 0.66601 0.32165 0.0
C44 C 0.88621 0.70477 0.33104 0.0
C45 C 0.87546 0.72202 0.35686 0.0
C46 C 0.84356 0.70033 0.374 0.0
N47 N 0.87386 0.64774 0.29474 0.0
H48 H 0.62408 0.68255 0.8557 0.0
H49 H 0.68593 0.65692 0.78185 0.0
H50 H 0.72865 0.76968 0.82393 0.0
H51 H 0.60956 0.57241 0.79647 0.0
C52 C 0.63283 0.59791 0.81161 0.0
C53 C 0.64863 0.69167 0.84071 0.0
C54 C 0.67669 0.72937 0.84321 0.0
C55 C 0.65243 0.66541 0.81936 0.0
C56 C 0.68376 0.67701 0.79933 0.0
C57 C 0.71161 0.71464 0.80112 0.0
C58 C 0.70816 0.74048 0.82347 0.0
N59 N 0.62347 0.62753 0.81737 0.0
H60 H 0.74037 0.16082 0.33923 0.0
H61 H 0.73509 0.21241 0.43553 0.0
H62 H 0.65416 0.20265 0.34256 0.0
H63 H 0.80861 0.18514 0.36619 0.0
C64 C 0.80284 0.175 0.39103 0.0
C65 C 0.72781 0.17514 0.35371 0.0
C66 C 0.69578 0.18056 0.33677 0.0
C67 C 0.74221 0.18658 0.38943 0.0
C68 C 0.72427 0.20372 0.40802 0.0
C69 C 0.6923 0.20942 0.39121 0.0
C70 C 0.6783 0.19767 0.35571 0.0
N71 N 0.77314 0.17943 0.40735 0.0
H72 H 0.37545 0.65975 0.23551 0.0
H73 H 0.48392 0.76488 0.24384 0.0
H74 H 0.38337 0.73442 0.1604 0.0
H75 H 0.39643 0.68282 0.29971 0.0
C76 C 0.4257 0.68324 0.2992 0.0
C77 C 0.39236 0.68609 0.22615 0.0
C78 C 0.37541 0.69405 0.1957 0.0
C79 C 0.43172 0.71138 0.24372 0.0
C80 C 0.45376 0.74517 0.23045 0.0
C81 C 0.43581 0.75403 0.20077 0.0
C82 C 0.39705 0.72801 0.18352 0.0
N83 N 0.44941 0.70263 0.27416 0.0
H84 H 0.12421 0.31768 0.74373 0.0
H85 H 0.21102 0.42748 0.72802 0.0
H86 H 0.19056 0.33398 0.65891 0.0
H87 H 0.17836 0.44596 0.7617 0.0
C88 C 0.16267 0.42482 0.77777 0.0
C89 C 0.14611 0.33581 0.72885 0.0
C90 C 0.15515 0.32074 0.70009 0.0
C91 C 0.16521 0.37425 0.73896 0.0
C92 C 0.19498 0.39798 0.72029 0.0
C93 C 0.20414 0.38345 0.69119 0.0
C94 C 0.18376 0.34505 0.68139 0.0
N95 N 0.15382 0.38748 0.7681 0.0
Pr96 Pr 0.97378 0.99017 0.53952 0.0
Pr97 Pr 0.05241 0.04922 0.52187 0.0
C98 C 0.90936 0.92773 0.55047 0.0
C99 C 0.89836 0.902 0.57659 0.0
C100 C 0.92244 0.91134 0.60955 0.0
C101 C 0.91007 0.88757 0.63492 0.0
C102 C 0.87353 0.85405 0.62761 0.0
C103 C 0.85031 0.84436 0.59411 0.0
C104 C 0.86265 0.8682 0.56884 0.0
C105 C 1.01201 0.05488 0.58655 0.0
C106 C 0.06089 0.98767 0.5658 0.0
C107 C 0.11889 0.11235 0.51592 0.0
C108 C 0.14052 0.14016 0.49355 0.0
C109 C 0.14498 0.12975 0.4604 0.0
C110 C 0.17124 0.15624 0.44198 0.0
C111 C 0.19339 0.19354 0.45635 0.0
C112 C 0.18705 0.20414 0.48869 0.0
C113 C 0.16091 0.1776 0.50717 0.0
C114 C 1.01454 0.98521 0.47386 0.0
C115 C 0.96465 0.05041 0.4935 0.0
O116 O 0.93664 0.92775 0.5327 0.0
O117 O 0.91444 0.96087 0.55969 0.0
O118 O 0.02995 0.03879 0.57372 0.0
O119 O 0.97283 0.03652 0.57654 0.0
O120 O 0.07985 0.02292 0.56168 0.0
O121 O 0.02098 0.96812 0.55632 0.0
O122 O 0.08687 0.11202 0.52642 0.0
O123 O 0.11593 0.07946 0.50975 0.0
O124 O 0.99634 1.00044 0.48765 0.0
O125 O 0.05384 1.00502 0.48216 0.0
O126 O 0.9454 0.01558 0.49927 0.0
O127 O 1.00468 0.0701 0.50276 0.0
H128 H 0.95034 0.93729 0.61582 0.0
H129 H 0.92879 0.8956 0.66037 0.0
H130 H 0.82178 0.81901 0.58778 0.0
H131 H 0.84378 0.86062 0.54346 0.0
H132 H 0.12937 0.10103 0.44925 0.0
H133 H 0.17503 0.14741 0.41682 0.0
H134 H 0.20382 0.23263 0.50045 0.0
H135 H 0.15799 0.18612 0.5328 0.0
Pr136 Pr 0.48869 0.02376 0.03383 0.0
Pr137 Pr 0.56204 0.02403 1.01888 0.0
C138 C 0.42575 0.02502 0.05969 0.0
C139 C 0.42231 0.05089 0.08479 0.0
C140 C 0.39396 0.06384 0.07538 0.0
C141 C 0.39432 0.09269 0.09612 0.0
C142 C 0.42289 0.10891 0.12679 0.0
C143 C 0.45015 0.09489 0.137 0.0
C144 C 0.45006 0.06624 0.11603 0.0
C145 C 0.52187 0.07113 0.98416 0.0
C146 C 0.5735 0.07851 0.08782 0.0
C147 C 0.63114 0.02885 1.0008 0.0
C148 C 0.63813 1.00016 0.98359 0.0
C149 C 0.60459 0.96804 0.96585 0.0
C150 C 0.6101 0.93921 0.95147 0.0
C151 C 0.64928 0.94181 0.95469 0.0
C152 C 0.68293 0.97411 0.97245 0.0
C153 C 0.67735 1.00312 0.98682 0.0
C154 C 0.51638 0.96204 0.05148 0.0
C155 C 0.47796 0.97227 0.96609 0.0
O156 O 0.44368 1.00586 0.07141 0.0
O157 O 0.43673 0.03806 0.03105 0.0
O158 O 0.54239 0.06972 1.01191 0.0
O159 O 0.48395 0.04645 0.98073 0.0
O160 O 0.59233 0.06633 0.06866 0.0
O161 O 0.53421 0.068 0.07933 0.0
O162 O 0.60731 0.03905 0.9819 0.0
O163 O 0.62264 0.02353 0.03194 0.0
O164 O 0.52324 0.9947 0.06027 0.0
O165 O 0.53168 0.96038 0.02406 0.0
O166 O 0.46084 0.97087 0.99362 0.0
O167 O 0.51639 0.99651 0.96704 0.0
H168 H 0.3725 0.05253 0.05129 0.0
H169 H 0.37266 0.10272 0.08792 0.0
H170 H 0.4726 0.10707 0.16044 0.0
H171 H 0.47259 0.05703 0.12368 0.0
H172 H 0.57394 0.96498 0.96362 0.0
H173 H 0.58349 0.91448 0.93853 0.0
H174 H 0.7135 0.97696 0.97514 0.0
H175 H 0.70349 0.02758 1.00078 0.0
Pr176 Pr 0.53124 0.56529 0.55247 0.0
Pr177 Pr 0.5002 0.48229 0.51406 0.0
C178 C 0.53842 0.63157 0.57502 0.0
C179 C 0.51204 0.64857 0.58202 0.0
C180 C 0.50404 0.65218 0.61563 0.0
C181 C 0.48079 0.66968 0.62277 0.0
C182 C 0.46519 0.68432 0.59654 0.0
C183 C 0.47271 0.68028 0.5628 0.0
C184 C 0.49596 0.66271 0.55564 0.0
C185 C 0.55606 0.51979 0.58851 0.0
C186 C 0.43708 0.49705 0.55768 0.0
C187 C 0.49435 0.4144 0.50406 0.0
C188 C 0.51415 0.39507 0.48803 0.0
C189 C 0.49147 0.35734 0.47588 0.0
C190 C 0.51098 0.33736 0.4653 0.0
C191 C 0.55367 0.35471 0.46695 0.0
C192 C 0.57601 0.39295 0.47783 0.0
C193 C 0.55644 0.41294 0.48813 0.0
C194 C 0.4828 0.52622 0.46821 0.0
C195 C 0.58993 0.55178 0.50261 0.0
O196 O 0.53771 0.62154 0.54263 0.0
O197 O 0.54106 0.60846 0.59593 0.0
O198 O 0.52139 0.50989 0.5705 0.0
O199 O 0.57946 0.55523 0.5893 0.0
O200 O 0.44414 0.4721 0.5411 0.0
O201 O 0.46322 0.53291 0.56224 0.0
O202 O 0.51664 0.43862 0.53101 0.0
O203 O 0.47165 0.42481 0.48375 0.0
O204 O 0.49939 0.53483 0.49952 0.0
O205 O 0.47345 0.49187 0.45899 0.0
O206 O 0.58125 0.57635 0.51774 0.0
O207 O 0.5671 0.51561 0.50211 0.0
H208 H 0.51609 0.64179 0.63661 0.0
H209 H 0.47513 0.67183 0.64895 0.0
H210 H 0.4616 0.69161 0.54208 0.0
H211 H 0.5018 0.66072 0.52949 0.0
H212 H 0.45881 0.34306 0.47556 0.0
H213 H 0.49263 0.30817 0.45632 0.0
H214 H 0.6089 0.40727 0.47975 0.0
H215 H 0.57463 0.44209 0.49743 0.0
Pr216 Pr 0.02378 0.56049 1.00784 0.0
Pr217 Pr 0.02337 0.50085 0.04986 0.0
C218 C 1.00644 0.607 0.97112 0.0
C219 C 0.96874 0.60808 0.95705 0.0
C220 C 0.96934 0.63179 0.93236 0.0
C221 C 0.93299 0.63101 0.91699 0.0
C222 C 0.89551 0.60644 0.92612 0.0
C223 C 0.89521 0.58297 0.95123 0.0
C224 C 0.93156 0.58375 0.96653 0.0
C225 C 0.1002 0.57865 0.04642 0.0
C226 C 0.98876 0.5531 0.08277 0.0
C227 C 0.04159 0.45435 0.08565 0.0
C228 C 0.07778 0.44882 0.09308 0.0
C229 C 0.0762 0.41993 0.11153 0.0
C230 C 0.11137 0.41604 0.1207 0.0
C231 C 0.1487 0.44112 0.11164 0.0
C232 C 0.14982 0.46957 0.09237 0.0
C233 C 0.1146 0.47338 0.08316 0.0
C234 C 0.9468 0.48299 1.01194 0.0
C235 C 0.05502 0.50645 0.97368 0.0
O236 O 1.01088 0.57986 0.95697 0.0
O237 O 0.01664 0.6124 1.00481 0.0
O238 O 0.06667 0.56284 0.05695 0.0
O239 O 0.09551 0.58853 1.01598 0.0
O240 O 1.00769 0.5334 0.09112 0.0
O241 O 0.98496 0.56147 0.05081 0.0
O242 O 0.04557 0.48563 0.09979 0.0
O243 O 0.02277 0.44553 0.05354 0.0
O244 O 0.98011 0.49847 1.0009 0.0
O245 O 0.95188 0.4735 0.04255 0.0
O246 O 0.03521 0.52549 0.96599 0.0
O247 O 0.06072 0.49901 1.00576 0.0
H248 H 0.99783 0.65056 0.92465 0.0
H249 H 0.9342 0.64968 0.89801 0.0
H250 H 0.86678 0.56341 0.95846 0.0
H251 H 0.9306 0.56496 0.98533 0.0
H252 H 0.04794 0.40073 0.11928 0.0
H253 H 0.10939 0.39352 0.13507 0.0
H254 H 0.17815 0.48953 0.0853 0.0
H255 H 0.11626 0.49592 0.06893 0.0
H256 H 0.40919 0.3174 0.36505 0.0
H257 H 0.31596 0.34198 0.31444 0.0
H258 H 0.36579 0.28731 0.40732 0.0
H259 H 0.2728 0.31208 0.35656 0.0
H260 H 0.2082 0.26428 0.44672 0.0
H261 H 0.26089 0.30851 0.41745 0.0
H262 H 0.30242 0.2278 0.39735 0.0
H263 H 0.25068 0.18421 0.427 0.0
C264 C 0.37985 0.31712 0.36345 0.0
C265 C 0.36579 0.33163 0.33619 0.0
C266 C 0.35498 0.29982 0.38754 0.0
C267 C 0.3156 0.29675 0.38483 0.0
C268 C 0.30304 0.31415 0.35943 0.0
C269 C 0.32789 0.33141 0.33532 0.0
C270 C 0.2289 0.25624 0.43628 0.0
C271 C 0.22508 0.22068 0.43879 0.0
C272 C 0.25893 0.28147 0.4195 0.0
C273 C 0.28596 0.27171 0.40533 0.0
C274 C 0.28253 0.2364 0.40849 0.0
C275 C 0.25244 0.21119 0.42497 0.0
H276 H 0.33191 0.81369 0.783 0.0
H277 H 0.34326 0.91975 0.76003 0.0
H278 H 0.36904 0.8411 0.84197 0.0
H279 H 0.38082 0.94711 0.81856 0.0
H280 H 0.49711 0.98482 0.90197 0.0
H281 H 0.45433 0.95304 0.84643 0.0
H282 H 0.35991 0.87869 0.89875 0.0
H283 H 0.40252 0.91112 0.95493 0.0
C284 C 0.34198 0.84271 0.79075 0.0
C285 C 0.33478 0.86468 0.76714 0.0
C286 C 0.36299 0.85827 0.82437 0.0
C287 C 0.37779 0.89613 0.83452 0.0
C288 C 0.36974 0.91785 0.81117 0.0
C289 C 0.34812 0.90219 0.77787 0.0
C290 C 0.4674 0.96152 0.9018 0.0
C291 C 0.4531 0.9505 0.93284 0.0
C292 C 0.44288 0.94353 0.86998 0.0
C293 C 0.40386 0.91374 0.8685 0.0
C294 C 0.38995 0.90169 0.8994 0.0
C295 C 0.41426 0.92022 0.9314 0.0
H296 H 0.55181 0.37061 0.74365 0.0
H297 H 0.6707 0.41149 0.71404 0.0
H298 H 0.53417 0.40606 0.70197 0.0
H299 H 0.65315 0.44616 0.67229 0.0
H300 H 0.62814 0.53714 0.63054 0.0
H301 H 0.64299 0.49981 0.67108 0.0
H302 H 0.51996 0.41134 0.64037 0.0
H303 H 0.50495 0.4492 0.60027 0.0
C304 C 0.57401 0.38687 0.72806 0.0
C305 C 0.61271 0.38831 0.73221 0.0
C306 C 0.56391 0.40713 0.70405 0.0
C307 C 0.59234 0.42937 0.6838 0.0
C308 C 0.63069 0.43005 0.68775 0.0
C309 C 0.64067 0.40989 0.71156 0.0
C310 C 0.60431 0.50967 0.63232 0.0
C311 C 0.56547 0.49613 0.61196 0.0
C312 C 0.61284 0.4881 0.6555 0.0
C313 C 0.58275 0.45232 0.65909 0.0
C314 C 0.54381 0.4388 0.63867 0.0
C315 C 0.53532 0.4604 0.61538 0.0
H316 H 0.93024 0.69398 0.21295 0.0
H317 H 0.88687 0.59428 0.26234 0.0
H318 H 0.95089 0.66545 0.16885 0.0
H319 H 0.90712 0.56514 0.21762 0.0
H320 H 0.99069 0.54199 0.15158 0.0
H321 H 0.9665 0.56694 0.19603 0.0
H322 H 0.92401 0.61942 0.11955 0.0
H323 H 0.9487 0.59506 0.07537 0.0
C324 C 0.9249 0.66577 0.21426 0.0
C325 C 0.90678 0.64646 0.24117 0.0
C326 C 0.93652 0.64924 0.18875 0.0
C327 C 0.93052 0.61274 0.18925 0.0
C328 C 0.91255 0.59336 0.21639 0.0
C329 C 0.9007 0.60998 0.24198 0.0
C330 C 0.97603 0.55872 0.14416 0.0
C331 C 0.97198 0.5666 0.10973 0.0
C332 C 0.96189 0.5729 0.16972 0.0
C333 C 0.94343 0.59554 0.16168 0.0
C334 C 0.93866 0.60271 0.12706 0.0
C335 C 0.95267 0.58849 0.10154 0.0
H336 H 0.46551 0.32634 0.21573 0.0
H337 H 0.36584 0.24497 0.25898 0.0
H338 H 0.47233 0.27651 0.18495 0.0
H339 H 0.3739 0.19584 0.22945 0.0
H340 H 0.42598 0.11969 0.19652 0.0
H341 H 0.42692 0.17237 0.22981 0.0
H342 H 0.42596 0.22364 0.13634 0.0
H343 H 0.42504 0.17108 0.10313 0.0
C344 C 0.44523 0.29798 0.21883 0.0
C345 C 0.41538 0.28979 0.24011 0.0
C346 C 0.44926 0.26953 0.20133 0.0
C347 C 0.42385 0.23242 0.20512 0.0
C348 C 0.39441 0.22425 0.22663 0.0
C349 C 0.38999 0.25252 0.24368 0.0
C350 C 0.42632 0.1424 0.18323 0.0
C351 C 0.42506 0.14126 0.14728 0.0
C352 C 0.42671 0.17239 0.20218 0.0
C353 C 0.42649 0.20198 0.18558 0.0
C354 C 0.42646 0.20131 0.14979 0.0
C355 C 0.4255 0.17112 0.13079 0.0
H356 H 0.17063 0.8585 0.66241 0.0
H357 H 0.23071 0.89756 0.57491 0.0
H358 H 0.12861 0.88914 0.64818 0.0
H359 H 0.18874 0.92839 0.56074 0.0
H360 H 0.14366 0.01497 0.57398 0.0
H361 H 0.18331 0.98254 0.58908 0.0
H362 H 0.07329 0.8856 0.60064 0.0
H363 H 0.03331 0.91796 0.58535 0.0
C364 C 0.17472 0.87348 0.64003 0.0
C365 C 0.20411 0.87584 0.61981 0.0
C366 C 0.15053 0.8909 0.63183 0.0
C367 C 0.1556 0.91139 0.60352 0.0
C368 C 0.18452 0.91318 0.58298 0.0
C369 C 0.20832 0.89536 0.59092 0.0
C370 C 0.12787 0.98687 0.58008 0.0
C371 C 0.08525 0.96908 0.57845 0.0
C372 C 0.1506 0.96819 0.58842 0.0
C373 C 0.13137 0.93142 0.59573 0.0
C374 C 0.08895 0.91396 0.59521 0.0
C375 C 0.06608 0.9325 0.58642 0.0
H376 H 0.74474 0.38899 0.84181 0.0
H377 H 0.68765 0.39061 0.93016 0.0
H378 H 0.81206 0.42457 0.87775 0.0
H379 H 0.75461 0.42747 0.96593 0.0
H380 H 0.87256 0.4369 0.02711 0.0
H381 H 0.80629 0.41354 0.99043 0.0
H382 H 0.86347 0.48017 0.9119 0.0
H383 H 0.93029 0.50237 0.94841 0.0
C384 C 0.74673 0.39797 0.86872 0.0
C385 C 0.71124 0.38684 0.8834 0.0
C386 C 0.78524 0.41842 0.88935 0.0
C387 C 0.78886 0.4284 0.92496 0.0
C388 C 0.75306 0.41943 0.93887 0.0
C389 C 0.7147 0.3986 0.91839 0.0
C390 C 0.87094 0.44669 1.00208 0.0
C391 C 0.90653 0.47108 0.99042 0.0
C392 C 0.83286 0.43359 0.98111 0.0
C393 C 0.82936 0.44495 0.94809 0.0
C394 C 0.86503 0.47037 0.93691 0.0
C395 C 0.90327 0.48319 0.95783 0.0
H396 H 0.82588 0.67146 0.43642 0.0
H397 H 0.74583 0.60284 0.34365 0.0
H398 H 0.77095 0.643 0.46959 0.0
H399 H 0.69053 0.57382 0.37722 0.0
H400 H 0.61021 0.51155 0.45774 0.0
H401 H 0.66686 0.53455 0.42518 0.0
H402 H 0.70685 0.64562 0.47245 0.0
H403 H 0.65056 0.62284 0.50492 0.0
C404 C 0.79652 0.65015 0.42305 0.0
C405 C 0.79019 0.63996 0.38714 0.0
C406 C 0.76495 0.63384 0.44214 0.0
C407 C 0.72602 0.60654 0.42605 0.0
C408 C 0.72015 0.59475 0.39049 0.0
C409 C 0.75187 0.61131 0.37123 0.0
C410 C 0.63126 0.54087 0.46141 0.0
C411 C 0.62572 0.56529 0.48415 0.0
C412 C 0.66358 0.55406 0.4425 0.0
C413 C 0.69155 0.59194 0.44617 0.0
C414 C 0.68626 0.61622 0.46924 0.0
C415 C 0.65378 0.60313 0.48782 0.0
H416 H 0.34811 0.38509 0.13472 0.0
H417 H 0.36322 0.44637 0.23281 0.0
H418 H 0.29247 0.39808 0.11158 0.0
H419 H 0.30839 0.45993 0.20962 0.0
H420 H 0.17355 0.42709 0.17511 0.0
H421 H 0.23493 0.42179 0.19479 0.0
H422 H 0.2721 0.44532 0.09525 0.0
H423 H 0.20958 0.44935 0.07504 0.0
C424 C 0.34007 0.40198 0.15104 0.0
C425 C 0.3595 0.41425 0.18563 0.0
C426 C 0.30832 0.4095 0.13781 0.0
C427 C 0.2956 0.42953 0.15897 0.0
C428 C 0.31685 0.44369 0.19293 0.0
C429 C 0.34842 0.43609 0.20616 0.0
C430 C 0.19459 0.43081 0.15728 0.0
C431 C 0.18655 0.4384 0.12344 0.0
C432 C 0.23011 0.42832 0.16873 0.0
C433 C 0.25857 0.43343 0.14666 0.0
C434 C 0.25066 0.4411 0.1128 0.0
C435 C 0.21505 0.44369 0.10133 0.0
H436 H 0.60052 0.29097 0.9261 0.0
H437 H 0.57559 0.22713 0.82725 0.0
H438 H 0.57963 0.23503 0.95438 0.0
H439 H 0.55378 0.17056 0.85573 0.0
H440 H 0.48307 0.07527 0.922 0.0
H441 H 0.50112 0.12872 0.88975 0.0
H442 H 0.60891 0.1919 0.96673 0.0
H443 H 0.59088 0.13833 0.99891 0.0
C444 C 0.59013 0.26486 0.91029 0.0
C445 C 0.59025 0.2637 0.87438 0.0
C446 C 0.5784 0.23278 0.9266 0.0
C447 C 0.56589 0.19835 0.90751 0.0
C448 C 0.56344 0.19667 0.87125 0.0
C449 C 0.57562 0.22903 0.85486 0.0
C450 C 0.51086 0.10049 0.93186 0.0
C451 C 0.53546 0.10261 0.96313 0.0
C452 C 0.52124 0.13109 0.91329 0.0
C453 C 0.55622 0.16478 0.92577 0.0
C454 C 0.5814 0.16655 0.95661 0.0
C455 C 0.57128 0.13578 0.97495 0.0
H456 H 0.95643 0.76482 0.38312 0.0
H457 H 0.84398 0.77033 0.35535 0.0
H458 H 0.99011 0.82927 0.40903 0.0
H459 H 0.87773 0.8353 0.37933 0.0
H460 H 0.93352 0.93477 0.46251 0.0
H461 H 0.90124 0.87264 0.43152 0.0
H462 H 0.01713 0.89175 0.40387 0.0
H463 H 0.04956 0.95298 0.43682 0.0
C464 C 0.93929 0.78026 0.38173 0.0
C465 C 0.89767 0.76267 0.36725 0.0
C466 C 0.95854 0.81733 0.39654 0.0
C467 C 0.93675 0.8379 0.39678 0.0
C468 C 0.89547 0.82045 0.38065 0.0
C469 C 0.87613 0.78327 0.36644 0.0
C470 C 0.95201 0.92563 0.44976 0.0
C471 C 0.99412 0.94867 0.45235 0.0
C472 C 0.93345 0.89 0.43161 0.0
C473 C 0.95637 0.87665 0.41496 0.0
C474 C 0.99841 0.9004 0.41681 0.0
C475 C 0.01704 0.93577 0.43547 0.0
H476 H 0.39915 0.8486 0.67281 0.0
H477 H 0.28271 0.75336 0.63557 0.0
H478 H 0.43399 0.81681 0.64975 0.0
H479 H 0.31762 0.72082 0.61299 0.0
H480 H 0.3967 0.68215 0.5583 0.0
H481 H 0.36067 0.71698 0.57211 0.0
H482 H 0.44602 0.76691 0.66777 0.0
H483 H 0.48269 0.73349 0.65342 0.0
C484 C 0.38103 0.82092 0.65929 0.0
C485 C 0.33831 0.80326 0.65623 0.0
C486 C 0.40095 0.80258 0.6463 0.0
C487 C 0.37868 0.76594 0.63018 0.0
C488 C 0.3357 0.74904 0.62521 0.0
C489 C 0.31567 0.76761 0.63808 0.0
C490 C 0.40795 0.70087 0.5821 0.0
C491 C 0.44258 0.70494 0.60478 0.0
C492 C 0.38708 0.72057 0.59015 0.0
C493 C 0.40056 0.74494 0.62094 0.0
C494 C 0.43514 0.74889 0.64354 0.0
C495 C 0.45587 0.72926 0.63555 0.0
H496 H 0.69859 0.69504 0.73156 0.0
H497 H 0.79241 0.76497 0.81709 0.0
H498 H 0.74407 0.72562 0.69108 0.0
H499 H 0.83844 0.79525 0.77666 0.0
H500 H 0.87271 0.87659 0.69385 0.0
H501 H 0.83955 0.83845 0.73712 0.0
H502 H 0.8053 0.74 0.66749 0.0
H503 H 0.83832 0.77846 0.62385 0.0
C504 C 0.72943 0.71617 0.74174 0.0
C505 C 0.74185 0.72792 0.77741 0.0
C506 C 0.75558 0.73373 0.71854 0.0
C507 C 0.79477 0.76327 0.73058 0.0
C508 C 0.80814 0.77315 0.76648 0.0
C509 C 0.7819 0.75574 0.78964 0.0
C510 C 0.85897 0.84682 0.68803 0.0
C511 C 0.85792 0.83056 0.65534 0.0
C512 C 0.83998 0.82488 0.71292 0.0
C513 C 0.81958 0.78609 0.70577 0.0
C514 C 0.82018 0.76979 0.67362 0.0
C515 C 0.83909 0.79179 0.64865 0.0
H516 H 0.61638 0.14133 0.30553 0.0
H517 H 0.73938 0.19183 0.28373 0.0
H518 H 0.58961 0.12172 0.2441 0.0
H519 H 0.71268 0.1731 0.22186 0.0
H520 H 0.6488 0.09223 0.12095 0.0
H521 H 0.67994 0.11955 0.18035 0.0
H522 H 0.58007 0.14355 0.19043 0.0
H523 H 0.54816 0.11498 0.13129 0.0
C524 C 0.63766 0.14853 0.28745 0.0
C525 C 0.67993 0.16809 0.29934 0.0
C526 C 0.62235 0.13755 0.25219 0.0
C527 C 0.64893 0.14613 0.22788 0.0
C528 C 0.69132 0.1657 0.23985 0.0
C529 C 0.70666 0.17642 0.27524 0.0
C530 C 0.63378 0.10389 0.13562 0.0
C531 C 0.59575 0.10104 0.12149 0.0
C532 C 0.65175 0.11969 0.16974 0.0
C533 C 0.63227 0.13331 0.19043 0.0
C534 C 0.59543 0.13248 0.17554 0.0
C535 C 0.57728 0.11638 0.14151 0.0
H536 H 0.39642 0.6627 0.35833 0.0
H537 H 0.48494 0.66026 0.29909 0.0
H538 H 0.41348 0.6275 0.40019 0.0
H539 H 0.50158 0.6242 0.3408 0.0
H540 H 0.47147 0.51771 0.39775 0.0
H541 H 0.46235 0.5587 0.35807 0.0
H542 H 0.47255 0.6328 0.4451 0.0
H543 H 0.48214 0.59185 0.48482 0.0
C544 C 0.41987 0.65491 0.35447 0.0
C545 C 0.43945 0.66442 0.32551 0.0
C546 C 0.42972 0.63482 0.37852 0.0
C547 C 0.45888 0.62297 0.3739 0.0
C548 C 0.47884 0.63278 0.34504 0.0
C549 C 0.46953 0.65361 0.32127 0.0
C550 C 0.47196 0.54285 0.40842 0.0
C551 C 0.47763 0.55159 0.44445 0.0
C552 C 0.46705 0.56648 0.38568 0.0
C553 C 0.46687 0.59914 0.39834 0.0
C554 C 0.47248 0.60785 0.43446 0.0
C555 C 0.47817 0.58451 0.45724 0.0
H556 H 0.1692 0.4921 0.79665 0.0
H557 H 0.12209 0.38211 0.82676 0.0
H558 H 0.14427 0.51126 0.8443 0.0
H559 H 0.09668 0.40118 0.87456 0.0
H560 H 0.09216 0.46142 0.97698 0.0
H561 H 0.1183 0.44089 0.93074 0.0
H562 H 0.08014 0.5016 0.86072 0.0
H563 H 0.05446 0.52222 0.90665 0.0
C564 C 0.15344 0.47196 0.81348 0.0
C565 C 0.14753 0.43556 0.8077 0.0
C566 C 0.1389 0.48289 0.84076 0.0
C567 C 0.1181 0.45779 0.86335 0.0
C568 C 0.11276 0.4214 0.85793 0.0
C569 C 0.12714 0.41037 0.83036 0.0
C570 C 0.08939 0.47042 0.95173 0.0
C571 C 0.07122 0.49365 0.94576 0.0
C572 C 0.10418 0.45844 0.92509 0.0
C573 C 0.10159 0.46963 0.89185 0.0
C574 C 0.08333 0.49278 0.886 0.0
C575 C 0.06832 0.50449 0.91244 0.0
H576 H 0.60637 0.73318 0.84859 0.0
H577 H 0.73651 0.78991 0.88539 0.0
H578 H 0.59971 0.78337 0.87828 0.0
H579 H 0.73008 0.84075 0.914 0.0
H580 H 0.69692 0.91239 0.98423 0.0
H581 H 0.70274 0.85894 0.96067 0.0
H582 H 0.61895 0.84715 0.86836 0.0
H583 H 0.61316 0.90033 0.89184 0.0
C584 C 0.63346 0.75611 0.86342 0.0
C585 C 0.672 0.75772 0.86445 0.0
C586 C 0.62974 0.78508 0.88006 0.0
C587 C 0.66445 0.81626 0.89809 0.0
C588 C 0.70274 0.81709 0.90043 0.0
C589 C 0.70646 0.78812 0.88378 0.0
C590 C 0.68009 0.89856 0.95877 0.0
C591 C 0.65448 0.91049 0.93993 0.0
C592 C 0.68331 0.8679 0.94534 0.0
C593 C 0.66097 0.84859 0.91281 0.0
C594 C 0.63581 0.86087 0.89384 0.0
C595 C 0.63261 0.89144 0.90724 0.0
H596 H 0.86674 0.17153 0.36885 0.0
H597 H 0.7929 0.13869 0.44918 0.0
H598 H 0.90589 0.14133 0.39315 0.0
H599 H 0.8321 0.10842 0.47358 0.0
H600 H 0.88156 0.0233 0.48121 0.0
H601 H 0.84273 0.05386 0.45721 0.0
H602 H 0.95495 0.14863 0.44592 0.0
H603 H 0.99386 0.11816 0.46982 0.0
C604 C 0.85908 0.15801 0.39185 0.0
C605 C 0.82694 0.1576 0.40718 0.0
C606 C 0.88156 0.14083 0.40583 0.0
C607 C 0.87211 0.12246 0.4353 0.0
C608 C 0.83988 0.12205 0.45067 0.0
C609 C 0.81762 0.13961 0.43685 0.0
C610 C 0.89799 0.05057 0.47344 0.0
C611 C 0.94087 0.0682 0.47738 0.0
C612 C 0.87572 0.0682 0.45995 0.0
C613 C 0.89575 0.10372 0.44976 0.0
C614 C 0.93858 0.12115 0.45328 0.0
C615 C 0.96088 0.1037 0.46708 0.0
H616 H 0.30184 0.6667 0.21764 0.0
H617 H 0.35804 0.66319 0.1292 0.0
H618 H 0.23429 0.6335 0.18144 0.0
H619 H 0.29085 0.62869 0.09317 0.0
H620 H 0.17526 0.62388 0.03201 0.0
H621 H 0.24111 0.64541 0.06904 0.0
H622 H 0.18147 0.57883 0.14667 0.0
H623 H 0.11522 0.55844 0.10985 0.0
C624 C 0.29953 0.65773 0.19066 0.0
C625 C 0.33487 0.66759 0.17603 0.0
C626 C 0.26091 0.63869 0.16988 0.0
C627 C 0.25707 0.62893 0.13416 0.0
C628 C 0.29262 0.63661 0.1203 0.0
C629 C 0.33108 0.65601 0.14094 0.0
C630 C 0.17626 0.61374 0.05692 0.0
C631 C 0.14018 0.5898 0.0682 0.0
C632 C 0.21407 0.62579 0.07809 0.0
C633 C 0.21676 0.61383 0.11093 0.0
C634 C 0.18055 0.58902 0.1218 0.0
C635 C 0.14263 0.57722 0.10067 0.0
H636 H 0.19792 0.38072 0.62083 0.0
H637 H 0.2819 0.43951 0.71526 0.0
H638 H 0.25228 0.41088 0.58733 0.0
H639 H 0.33655 0.47016 0.68154 0.0
H640 H 0.41944 0.53636 0.60566 0.0
H641 H 0.36198 0.51339 0.63717 0.0
H642 H 0.31381 0.40511 0.58015 0.0
H643 H 0.37102 0.42791 0.54864 0.0
C644 C 0.22796 0.40041 0.63445 0.0
C645 C 0.23562 0.40726 0.67085 0.0
C646 C 0.2592 0.41763 0.61521 0.0
C647 C 0.29904 0.4425 0.6317 0.0
C648 C 0.30621 0.45121 0.66794 0.0
C649 C 0.27485 0.43374 0.68731 0.0
C650 C 0.39635 0.50774 0.59948 0.0
C651 C 0.4 0.48404 0.57445 0.0
C652 C 0.36355 0.49452 0.61782 0.0
C653 C 0.33321 0.45738 0.6113 0.0
C654 C 0.33631 0.43398 0.58563 0.0
C655 C 0.36929 0.44705 0.56759 0.0
H656 H 0.68182 0.63843 0.87259 0.0
H657 H 0.66997 0.55948 0.78926 0.0
H658 H 0.74556 0.64064 0.89948 0.0
H659 H 0.73357 0.56092 0.81674 0.0
H660 H 0.87152 0.60689 0.85742 0.0
H661 H 0.80799 0.60488 0.82962 0.0
H662 H 0.76813 0.59951 0.92867 0.0
H663 H 0.83205 0.60244 0.95658 0.0
C664 C 0.69311 0.62187 0.85978 0.0
C665 C 0.67152 0.5994 0.82838 0.0
C666 C 0.72934 0.62275 0.87547 0.0
C667 C 0.74462 0.60104 0.86017 0.0
C668 C 0.7228 0.57831 0.82889 0.0
C669 C 0.68639 0.57732 0.81328 0.0
C670 C 0.84931 0.60558 0.87327 0.0
C671 C 0.85681 0.60495 0.9092 0.0
C672 C 0.81278 0.60403 0.85731 0.0
C673 C 0.78311 0.60204 0.87697 0.0
C674 C 0.7906 0.60138 0.91289 0.0
C675 C 0.82702 0.60272 0.92882 0.0
H676 H 0.50521 0.78317 0.17152 0.0
H677 H 0.40853 0.80494 0.19671 0.0
H678 H 0.52737 0.8356 0.13735 0.0
H679 H 0.42993 0.85674 0.16252 0.0
H680 H 0.49452 0.964 0.11528 0.0
H681 H 0.48094 0.91788 0.15582 0.0
H682 H 0.50096 0.84846 0.08231 0.0
H683 H 0.51508 0.89482 0.0421 0.0
C684 C 0.4895 0.79985 0.17055 0.0
C685 C 0.45548 0.79028 0.18707 0.0
C686 C 0.5017 0.82953 0.15055 0.0
C687 C 0.48022 0.85034 0.14678 0.0
C688 C 0.44753 0.84176 0.16495 0.0
C689 C 0.43525 0.81207 0.18465 0.0
C690 C 0.49589 0.93882 0.10776 0.0
C691 C 0.50578 0.93309 0.07539 0.0
C692 C 0.48809 0.91232 0.13101 0.0
C693 C 0.49008 0.87938 0.12257 0.0
C694 C 0.49987 0.87369 0.09008 0.0
C695 C 0.50752 0.90013 0.0668 0.0
H696 H 0.18833 0.27957 0.67301 0.0
H697 H 0.07568 0.26858 0.70143 0.0
H698 H 0.15389 0.21582 0.6474 0.0
H699 H 0.04188 0.20338 0.67877 0.0
H700 H 0.97994 0.10135 0.59823 0.0
H701 H 1.01438 0.16384 0.62823 0.0
H702 H 0.12541 0.15424 0.65247 0.0
H703 H 0.09118 0.09251 0.62023 0.0
C704 C 0.15616 0.26353 0.67407 0.0
C705 C 0.13475 0.27989 0.68871 0.0
C706 C 0.13641 0.22639 0.65985 0.0
C707 C 0.09467 0.20387 0.66051 0.0
C708 C 0.07372 0.21974 0.6768 0.0
C709 C 0.09337 0.25721 0.69046 0.0
C710 C 1.0117 0.11263 0.6101 0.0
C711 C 0.03288 0.09206 0.60683 0.0
C712 C 0.03152 0.14852 0.62767 0.0
C713 C 0.073 0.16469 0.64311 0.0
C714 C 0.09382 0.14346 0.64045 0.0
C715 C 0.07413 0.10781 0.6222 0.0
H716 H 0.73045 0.2773 0.42971 0.0
H717 H 0.61165 0.18476 0.39302 0.0
H718 H 0.69803 0.31261 0.45149 0.0
H719 H 0.57925 0.21979 0.4146 0.0
H720 H 0.5361 0.28466 0.48173 0.0
H721 H 0.57092 0.24888 0.46842 0.0
H722 H 0.65541 0.33962 0.4215 0.0
H723 H 0.62006 0.3752 0.43394 0.0
C724 C 0.69748 0.26429 0.42705 0.0
C725 C 0.6735 0.2284 0.40971 0.0
C726 C 0.67892 0.28456 0.43914 0.0
C727 C 0.63608 0.26907 0.43449 0.0
C728 C 0.61229 0.23243 0.41876 0.0
C729 C 0.63079 0.21241 0.40634 0.0
C730 C 0.56177 0.29691 0.46818 0.0
C731 C 0.575 0.33283 0.45872 0.0
C732 C 0.58191 0.27645 0.46081 0.0
C733 C 0.61603 0.2915 0.44408 0.0
C734 C 0.62963 0.32751 0.43496 0.0
C735 C 0.60928 0.34787 0.44206 0.0
loop_
_geom_bond_atom_site_label_1
_geom_bond_atom_site_label_2
_geom_bond_distance
_geom_bond_site_symmetry_2
_ccdc_geom_bond_type
H0 C5 0.930 . S
H1 C8 0.930 . S
H2 C10 0.930 . S
H3 C4 1.016 . S
C4 H3 1.016 . S
C4 N11 1.286 . S
C5 H0 0.930 . S
C5 C6 1.397 . S
C5 C7 1.361 . S
C6 C5 1.397 . S
C6 C10 1.390 . S
C7 C5 1.361 . S
C7 C8 1.393 . S
C7 N11 1.413 . S
C8 H1 0.930 . S
C8 C7 1.393 . S
C8 C9 1.399 . S
C9 C8 1.399 . S
C9 C10 1.381 . S
C10 H2 0.930 . S
C10 C6 1.390 . S
C10 C9 1.381 . S
N11 C4 1.286 . S
N11 C7 1.413 . S
H12 C17 0.930 . S
H13 C20 0.930 . S
H14 C22 0.930 . S
H15 C16 1.016 . S
C16 H15 1.016 . S
C16 N23 1.286 . S
C17 H12 0.930 . S
C17 C18 1.397 . S
C17 C19 1.361 . S
C18 C17 1.397 . S
C18 C22 1.390 . S
C19 C17 1.361 . S
C19 C20 1.393 . S
C19 N23 1.413 . S
C20 H13 0.930 . S
C20 C19 1.393 . S
C20 C21 1.399 . S
C21 C20 1.399 . S
C21 C22 1.381 . S
C22 H14 0.930 . S
C22 C18 1.390 . S
C22 C21 1.381 . S
N23 C16 1.286 . S
N23 C19 1.413 . S
H24 C29 0.930 . S
H25 C32 0.930 . S
H26 C34 0.930 . S
H27 C28 1.016 . S
C28 H27 1.016 . S
C28 N35 1.286 . S
C29 H24 0.930 . S
C29 C30 1.397 . S
C29 C31 1.361 . S
C30 C29 1.397 . S
C30 C34 1.390 . S
C31 C29 1.361 . S
C31 C32 1.393 . S
C31 N35 1.413 . S
C32 H25 0.930 . S
C32 C31 1.393 . S
C32 C33 1.399 . S
C33 C32 1.399 . S
C33 C34 1.381 . S
C34 H26 0.930 . S
C34 C30 1.390 . S
C34 C33 1.381 . S
N35 C28 1.286 . S
N35 C31 1.413 . S
H36 C41 0.930 . S
H37 C44 0.930 . S
H38 C46 0.930 . S
H39 C40 1.016 . S
C40 H39 1.016 . S
C40 N47 1.286 . S
C41 H36 0.930 . S
C41 C42 1.397 . S
C41 C43 1.361 . S
C42 C41 1.397 . S
C42 C46 1.390 . S
C43 C41 1.361 . S
C43 C44 1.393 . S
C43 N47 1.413 . S
C44 H37 0.930 . S
C44 C43 1.393 . S
C44 C45 1.399 . S
C45 C44 1.399 . S
C45 C46 1.381 . S
C46 H38 0.930 . S
C46 C42 1.390 . S
C46 C45 1.381 . S
N47 C40 1.286 . S
N47 C43 1.413 . S
H48 C53 0.930 . S
H49 C56 0.930 . S
H50 C58 0.930 . S
H51 C52 1.016 . S
C52 H51 1.016 . S
C52 N59 1.286 . S
C53 H48 0.930 . S
C53 C54 1.397 . S
C53 C55 1.361 . S
C54 C53 1.397 . S
C54 C58 1.390 . S
C55 C53 1.361 . S
C55 C56 1.393 . S
C55 N59 1.413 . S
C56 H49 0.930 . S
C56 C55 1.393 . S
C56 C57 1.399 . S
C57 C56 1.399 . S
C57 C58 1.381 . S
C58 H50 0.930 . S
C58 C54 1.390 . S
C58 C57 1.381 . S
N59 C52 1.286 . S
N59 C55 1.413 . S
H60 C65 0.930 . S
H61 C68 0.930 . S
H62 C70 0.930 . S
H63 C64 1.016 . S
C64 H63 1.016 . S
C64 N71 1.286 . S
C65 H60 0.930 . S
C65 C66 1.397 . S
C65 C67 1.361 . S
C66 C65 1.397 . S
C66 C70 1.390 . S
C67 C65 1.361 . S
C67 C68 1.393 . S
C67 N71 1.413 . S
C68 H61 0.930 . S
C68 C67 1.393 . S
C68 C69 1.399 . S
C69 C68 1.399 . S
C69 C70 1.381 . S
C70 H62 0.930 . S
C70 C66 1.390 . S
C70 C69 1.381 . S
N71 C64 1.286 . S
N71 C67 1.413 . S
H72 C77 0.930 . S
H73 C80 0.930 . S
H74 C82 0.930 . S
H75 C76 1.016 . S
C76 H75 1.016 . S
C76 N83 1.286 . S
C77 H72 0.930 . S
C77 C78 1.397 . S
C77 C79 1.361 . S
C78 C77 1.397 . S
C78 C82 1.390 . S
C79 C77 1.361 . S
C79 C80 1.393 . S
C79 N83 1.413 . S
C80 H73 0.930 . S
C80 C79 1.393 . S
C80 C81 1.399 . S
C81 C80 1.399 . S
C81 C82 1.381 . S
C82 H74 0.930 . S
C82 C78 1.390 . S
C82 C81 1.381 . S
N83 C76 1.286 . S
N83 C79 1.413 . S
H84 C89 0.930 . S
H85 C92 0.930 . S
H86 C94 0.930 . S
H87 C88 1.016 . S
C88 H87 1.016 . S
C88 N95 1.286 . S
C89 H84 0.930 . S
C89 C90 1.397 . S
C89 C91 1.361 . S
C90 C89 1.397 . S
C90 C94 1.390 . S
C91 C89 1.361 . S
C91 C92 1.393 . S
C91 N95 1.413 . S
C92 H85 0.930 . S
C92 C91 1.393 . S
C92 C93 1.399 . S
C93 C92 1.399 . S
C93 C94 1.381 . S
C94 H86 0.930 . S
C94 C90 1.390 . S
C94 C93 1.381 . S
N95 C88 1.286 . S
N95 C91 1.413 . S
Pr96 C98 2.880 . S
Pr96 O116 2.562 . S
Pr96 O117 2.490 . S
Pr96 O118 2.695 1_665 S
Pr96 O119 2.512 1_665 S
Pr96 O121 2.437 1_655 S
Pr96 O124 2.436 . S
Pr96 O126 2.438 1_565 S
Pr97 C107 2.880 . S
Pr97 O118 2.436 . S
Pr97 O120 2.438 1_545 S
Pr97 O122 2.562 . S
Pr97 O123 2.490 . S
Pr97 O124 2.695 1_445 S
Pr97 O125 2.511 1_445 S
Pr97 O127 2.437 1_455 S
C98 Pr96 2.880 . S
C98 C99 1.491 . S
C98 O116 1.254 . S
C98 O117 1.225 . S
C99 C98 1.491 . S
C99 C100 1.392 . S
C99 C104 1.356 . S
C100 C99 1.392 . S
C100 C101 1.368 . S
C100 H128 0.929 . S
C101 C100 1.368 . S
C101 C102 1.386 . S
C101 H129 0.929 . S
C102 C101 1.386 . S
C102 C103 1.373 . S
C103 C102 1.373 . S
C103 C104 1.409 . S
C103 H130 0.931 . S
C104 C99 1.356 . S
C104 C103 1.409 . S
C104 H131 0.930 . S
C105 O118 1.270 . S
C105 O119 1.248 . S
C106 O120 1.267 . S
C106 O121 1.278 . S
C107 Pr97 2.880 . S
C107 C108 1.491 . S
C107 O122 1.254 . S
C107 O123 1.225 . S
C108 C107 1.491 . S
C108 C109 1.392 . S
C108 C113 1.356 . S
C109 C108 1.392 . S
C109 C110 1.368 . S
C109 H132 0.929 . S
C110 C109 1.368 . S
C110 C111 1.386 . S
C110 H133 0.929 . S
C111 C110 1.386 . S
C111 C112 1.373 . S
C112 C111 1.373 . S
C112 C113 1.409 . S
C112 H134 0.931 . S
C113 C108 1.356 . S
C113 C112 1.409 . S
C113 H135 0.930 . S
C114 O124 1.270 . S
C114 O125 1.252 . S
C115 O126 1.267 . S
C115 O127 1.278 . S
O116 Pr96 2.562 . S
O116 C98 1.254 . S
O117 Pr96 2.490 . S
O117 C98 1.225 . S
O118 Pr96 2.695 1_445 S
O118 Pr97 2.436 . S
O118 C105 1.270 . S
O119 Pr96 2.512 1_445 S
O119 C105 1.248 . S
O120 Pr97 2.438 1_565 S
O120 C106 1.267 . S
O121 Pr96 2.437 1_455 S
O121 C106 1.278 . S
O122 Pr97 2.562 . S
O122 C107 1.254 . S
O123 Pr97 2.490 . S
O123 C107 1.225 . S
O124 Pr96 2.436 . S
O124 Pr97 2.695 1_665 S
O124 C114 1.270 . S
O125 Pr97 2.511 1_665 S
O125 C114 1.252 . S
O126 Pr96 2.438 1_545 S
O126 C115 1.267 . S
O127 Pr97 2.437 1_655 S
O127 C115 1.278 . S
H128 C100 0.929 . S
H129 C101 0.929 . S
H130 C103 0.931 . S
H131 C104 0.930 . S
H132 C109 0.929 . S
H133 C110 0.929 . S
H134 C112 0.931 . S
H135 C113 0.930 . S
Pr136 C138 2.880 . S
Pr136 O156 2.562 . S
Pr136 O157 2.490 . S
Pr136 O158 2.695 1_554 S
Pr136 O159 2.512 1_554 S
Pr136 O161 2.437 . S
Pr136 O164 2.436 1_545 S
Pr136 O166 2.438 1_544 S
Pr137 C147 2.880 1_554 S
Pr137 O158 2.436 1_564 S
Pr137 O160 2.438 1_565 S
Pr137 O162 2.562 1_554 S
Pr137 O163 2.490 1_554 S
Pr137 O164 2.695 . S
Pr137 O165 2.512 . S
Pr137 O167 2.437 1_554 S
C138 Pr136 2.880 . S
C138 C139 1.491 . S
C138 O156 1.254 . S
C138 O157 1.225 . S
C139 C138 1.491 . S
C139 C140 1.392 . S
C139 C144 1.356 . S
C140 C139 1.392 . S
C140 C141 1.368 . S
C140 H168 0.929 . S
C141 C140 1.368 . S
C141 C142 1.386 . S
C141 H169 0.929 . S
C142 C141 1.386 . S
C142 C143 1.373 . S
C143 C142 1.373 . S
C143 C144 1.409 . S
C143 H170 0.931 . S
C144 C139 1.356 . S
C144 C143 1.409 . S
C144 H171 0.930 . S
C145 O158 1.270 . S
C145 O159 1.248 . S
C146 O160 1.267 . S
C146 O161 1.278 . S
C147 Pr137 2.880 1_556 S
C147 C148 1.491 . S
C147 O162 1.254 . S
C147 O163 1.225 . S
C148 C147 1.491 . S
C148 C149 1.392 . S
C148 C153 1.356 . S
C149 C148 1.392 . S
C149 C150 1.368 . S
C149 H172 0.929 . S
C150 C149 1.368 . S
C150 C151 1.386 . S
C150 H173 0.929 . S
C151 C150 1.386 . S
C151 C152 1.373 . S
C152 C151 1.373 . S
C152 C153 1.409 . S
C152 H174 0.931 . S
C153 C148 1.356 . S
C153 C152 1.409 . S
C153 H175 0.930 . S
C154 O164 1.270 . S
C154 O165 1.248 . S
C155 O166 1.267 . S
C155 O167 1.278 . S
O156 Pr136 2.562 . S
O156 C138 1.254 . S
O157 Pr136 2.490 . S
O157 C138 1.225 . S
O158 Pr136 2.695 1_556 S
O158 Pr137 2.436 1_546 S
O158 C145 1.270 . S
O159 Pr136 2.512 1_556 S
O159 C145 1.248 . S
O160 Pr137 2.438 1_545 S
O160 C146 1.267 . S
O161 Pr136 2.437 . S
O161 C146 1.278 . S
O162 Pr137 2.562 1_556 S
O162 C147 1.254 . S
O163 Pr137 2.490 1_556 S
O163 C147 1.225 . S
O164 Pr136 2.436 1_565 S
O164 Pr137 2.695 . S
O164 C154 1.270 . S
O165 Pr137 2.512 . S
O165 C154 1.248 . S
O166 Pr136 2.438 1_566 S
O166 C155 1.267 . S
O167 Pr137 2.437 1_556 S
O167 C155 1.278 . S
H168 C140 0.929 . S
H169 C141 0.929 . S
H170 C143 0.931 . S
H171 C144 0.930 . S
H172 C149 0.929 . S
H173 C150 0.929 . S
H174 C152 0.931 . S
H175 C153 0.930 . S
Pr176 C178 2.880 . S
Pr176 O196 2.562 . S
Pr176 O197 2.490 . S
Pr176 O198 2.695 . S
Pr176 O199 2.512 . S
Pr176 O201 2.437 . S
Pr176 O204 2.436 . S
Pr176 O206 2.438 . S
Pr177 C187 2.880 . S
Pr177 O198 2.436 . S
Pr177 O200 2.438 . S
Pr177 O202 2.562 . S
Pr177 O203 2.490 . S
Pr177 O204 2.695 . S
Pr177 O205 2.512 . S
Pr177 O207 2.437 . S
C178 Pr176 2.880 . S
C178 C179 1.491 . S
C178 O196 1.254 . S
C178 O197 1.225 . S
C179 C178 1.491 . S
C179 C180 1.392 . S
C179 C184 1.356 . S
C180 C179 1.392 . S
C180 C181 1.368 . S
C180 H208 0.929 . S
C181 C180 1.368 . S
C181 C182 1.386 . S
C181 H209 0.929 . S
C182 C181 1.386 . S
C182 C183 1.373 . S
C183 C182 1.373 . S
C183 C184 1.409 . S
C183 H210 0.931 . S
C184 C179 1.356 . S
C184 C183 1.409 . S
C184 H211 0.930 . S
C185 O198 1.270 . S
C185 O199 1.248 . S
C186 O200 1.267 . S
C186 O201 1.278 . S
C187 Pr177 2.880 . S
C187 C188 1.491 . S
C187 O202 1.254 . S
C187 O203 1.225 . S
C188 C187 1.491 . S
C188 C189 1.392 . S
C188 C193 1.356 . S
C189 C188 1.392 . S
C189 C190 1.368 . S
C189 H212 0.929 . S
C190 C189 1.368 . S
C190 C191 1.386 . S
C190 H213 0.929 . S
C191 C190 1.386 . S
C191 C192 1.373 . S
C192 C191 1.373 . S
C192 C193 1.409 . S
C192 H214 0.931 . S
C193 C188 1.356 . S
C193 C192 1.409 . S
C193 H215 0.930 . S
C194 O204 1.270 . S
C194 O205 1.248 . S
C195 O206 1.267 . S
C195 O207 1.278 . S
O196 Pr176 2.562 . S
O196 C178 1.254 . S
O197 Pr176 2.490 . S
O197 C178 1.225 . S
O198 Pr176 2.695 . S
O198 Pr177 2.436 . S
O198 C185 1.270 . S
O199 Pr176 2.512 . S
O199 C185 1.248 . S
O200 Pr177 2.438 . S
O200 C186 1.267 . S
O201 Pr176 2.437 . S
O201 C186 1.278 . S
O202 Pr177 2.562 . S
O202 C187 1.254 . S
O203 Pr177 2.490 . S
O203 C187 1.225 . S
O204 Pr176 2.436 . S
O204 Pr177 2.695 . S
O204 C194 1.270 . S
O205 Pr177 2.512 . S
O205 C194 1.248 . S
O206 Pr176 2.438 . S
O206 C195 1.267 . S
O207 Pr177 2.437 . S
O207 C195 1.278 . S
H208 C180 0.929 . S
H209 C181 0.929 . S
H210 C183 0.931 . S
H211 C184 0.930 . S
H212 C189 0.929 . S
H213 C190 0.929 . S
H214 C192 0.931 . S
H215 C193 0.930 . S
Pr216 C218 2.880 1_455 S
Pr216 O236 2.562 1_455 S
Pr216 O237 2.490 . S
Pr216 O238 2.695 1_556 S
Pr216 O239 2.512 1_556 S
Pr216 O241 2.437 1_456 S
Pr216 O244 2.436 1_455 S
Pr216 O246 2.438 . S
Pr217 C227 2.880 . S
Pr217 O238 2.436 . S
Pr217 O240 2.438 1_455 S
Pr217 O242 2.562 . S
Pr217 O243 2.490 . S
Pr217 O244 2.695 1_454 S
Pr217 O245 2.512 1_454 S
Pr217 O247 2.437 1_554 S
C218 Pr216 2.880 1_655 S
C218 C219 1.491 . S
C218 O236 1.254 . S
C218 O237 1.225 1_655 S
C219 C218 1.491 . S
C219 C220 1.392 . S
C219 C224 1.356 . S
C220 C219 1.392 . S
C220 C221 1.368 . S
C220 H248 0.929 1_655 S
C221 C220 1.368 . S
C221 C222 1.386 . S
C221 H249 0.929 . S
C222 C221 1.386 . S
C222 C223 1.373 . S
C223 C222 1.373 . S
C223 C224 1.409 . S
C223 H250 0.931 . S
C224 C219 1.356 . S
C224 C223 1.409 . S
C224 H251 0.930 . S
C225 O238 1.270 . S
C225 O239 1.248 . S
C226 O240 1.267 . S
C226 O241 1.278 . S
C227 Pr217 2.880 . S
C227 C228 1.491 . S
C227 O242 1.254 . S
C227 O243 1.225 . S
C228 C227 1.491 . S
C228 C229 1.392 . S
C228 C233 1.356 . S
C229 C228 1.392 . S
C229 C230 1.368 . S
C229 H252 0.929 . S
C230 C229 1.368 . S
C230 C231 1.386 . S
C230 H253 0.929 . S
C231 C230 1.386 . S
C231 C232 1.373 . S
C232 C231 1.373 . S
C232 C233 1.409 . S
C232 H254 0.931 . S
C233 C228 1.356 . S
C233 C232 1.409 . S
C233 H255 0.930 . S
C234 O244 1.270 . S
C234 O245 1.248 . S
C235 O246 1.267 . S
C235 O247 1.278 . S
O236 Pr216 2.562 1_655 S
O236 C218 1.254 . S
O237 Pr216 2.490 . S
O237 C218 1.225 1_455 S
O238 Pr216 2.695 1_554 S
O238 Pr217 2.436 . S
O238 C225 1.270 . S
O239 Pr216 2.512 1_554 S
O239 C225 1.248 . S
O240 Pr217 2.438 1_655 S
O240 C226 1.267 . S
O241 Pr216 2.437 1_654 S
O241 C226 1.278 . S
O242 Pr217 2.562 . S
O242 C227 1.254 . S
O243 Pr217 2.490 . S
O243 C227 1.225 . S
O244 Pr216 2.436 1_655 S
O244 Pr217 2.695 1_656 S
O244 C234 1.270 . S
O245 Pr217 2.512 1_656 S
O245 C234 1.248 . S
O246 Pr216 2.438 . S
O246 C235 1.267 . S
O247 Pr217 2.437 1_556 S
O247 C235 1.278 . S
H248 C220 0.929 1_455 S
H249 C221 0.929 . S
H250 C223 0.931 . S
H251 C224 0.930 . S
H252 C229 0.929 . S
H253 C230 0.929 . S
H254 C232 0.931 . S
H255 C233 0.930 . S
H256 C264 0.950 . S
H257 C269 0.950 . S
H258 C266 0.950 . S
H259 C268 0.950 . S
H260 C270 0.950 . S
H261 C272 0.950 . S
H262 C274 0.950 . S
H263 C275 0.950 . S
C264 H256 0.950 . S
C264 C265 1.386 . S
C264 C266 1.391 . S
C265 C264 1.386 . S
C265 C269 1.393 . S
C266 H258 0.950 . S
C266 C264 1.391 . S
C266 C267 1.400 . S
C267 C266 1.400 . S
C267 C268 1.398 . S
C267 C273 1.491 . S
C268 H259 0.950 . S
C268 C267 1.398 . S
C268 C269 1.391 . S
C269 H257 0.950 . S
C269 C265 1.393 . S
C269 C268 1.391 . S
C270 H260 0.950 . S
C270 C271 1.386 . S
C270 C272 1.391 . S
C271 C270 1.386 . S
C271 C275 1.393 . S
C272 H261 0.950 . S
C272 C270 1.391 . S
C272 C273 1.400 . S
C273 C267 1.491 . S
C273 C272 1.400 . S
C273 C274 1.398 . S
C274 H262 0.950 . S
C274 C273 1.398 . S
C274 C275 1.391 . S
C275 H263 0.950 . S
C275 C271 1.393 . S
C275 C274 1.391 . S
H276 C284 0.950 . S
H277 C289 0.950 . S
H278 C286 0.950 . S
H279 C288 0.950 . S
H280 C290 0.950 . S
H281 C292 0.950 . S
H282 C294 0.950 . S
H283 C295 0.950 . S
C284 H276 0.950 . S
C284 C285 1.386 . S
C284 C286 1.391 . S
C285 C284 1.386 . S
C285 C289 1.393 . S
C286 H278 0.950 . S
C286 C284 1.391 . S
C286 C287 1.400 . S
C287 C286 1.400 . S
C287 C288 1.398 . S
C287 C293 1.491 . S
C288 H279 0.950 . S
C288 C287 1.398 . S
C288 C289 1.391 . S
C289 H277 0.950 . S
C289 C285 1.393 . S
C289 C288 1.391 . S
C290 H280 0.950 . S
C290 C291 1.386 . S
C290 C292 1.391 . S
C291 C290 1.386 . S
C291 C295 1.393 . S
C292 H281 0.950 . S
C292 C290 1.391 . S
C292 C293 1.400 . S
C293 C287 1.491 . S
C293 C292 1.400 . S
C293 C294 1.398 . S
C294 H282 0.950 . S
C294 C293 1.398 . S
C294 C295 1.391 . S
C295 H283 0.950 . S
C295 C291 1.393 . S
C295 C294 1.391 . S
H296 C304 0.950 . S
H297 C309 0.950 . S
H298 C306 0.950 . S
H299 C308 0.950 . S
H300 C310 0.950 . S
H301 C312 0.950 . S
H302 C314 0.950 . S
H303 C315 0.950 . S
C304 H296 0.950 . S
C304 C305 1.386 . S
C304 C306 1.391 . S
C305 C304 1.386 . S
C305 C309 1.393 . S
C306 H298 0.950 . S
C306 C304 1.391 . S
C306 C307 1.400 . S
C307 C306 1.400 . S
C307 C308 1.398 . S
C307 C313 1.491 . S
C308 H299 0.950 . S
C308 C307 1.398 . S
C308 C309 1.391 . S
C309 H297 0.950 . S
C309 C305 1.393 . S
C309 C308 1.391 . S
C310 H300 0.950 . S
C310 C311 1.386 . S
C310 C312 1.391 . S
C311 C310 1.386 . S
C311 C315 1.393 . S
C312 H301 0.950 . S
C312 C310 1.391 . S
C312 C313 1.400 . S
C313 C307 1.491 . S
C313 C312 1.400 . S
C313 C314 1.398 . S
C314 H302 0.950 . S
C314 C313 1.398 . S
C314 C315 1.391 . S
C315 H303 0.950 . S
C315 C311 1.393 . S
C315 C314 1.391 . S
H316 C324 0.950 . S
H317 C329 0.950 . S
H318 C326 0.950 . S
H319 C328 0.950 . S
H320 C330 0.950 . S
H321 C332 0.950 . S
H322 C334 0.950 . S
H323 C335 0.950 . S
C324 H316 0.950 . S
C324 C325 1.386 . S
C324 C326 1.391 . S
C325 C324 1.386 . S
C325 C329 1.393 . S
C326 H318 0.950 . S
C326 C324 1.391 . S
C326 C327 1.400 . S
C327 C326 1.400 . S
C327 C328 1.398 . S
C327 C333 1.491 . S
C328 H319 0.950 . S
C328 C327 1.398 . S
C328 C329 1.391 . S
C329 H317 0.950 . S
C329 C325 1.393 . S
C329 C328 1.391 . S
C330 H320 0.950 . S
C330 C331 1.386 . S
C330 C332 1.391 . S
C331 C330 1.386 . S
C331 C335 1.393 . S
C332 H321 0.950 . S
C332 C330 1.391 . S
C332 C333 1.400 . S
C333 C327 1.491 . S
C333 C332 1.400 . S
C333 C334 1.398 . S
C334 H322 0.950 . S
C334 C333 1.398 . S
C334 C335 1.391 . S
C335 H323 0.950 . S
C335 C331 1.393 . S
C335 C334 1.391 . S
H336 C344 0.950 . S
H337 C349 0.950 . S
H338 C346 0.950 . S
H339 C348 0.950 . S
H340 C350 0.950 . S
H341 C352 0.950 . S
H342 C354 0.950 . S
H343 C355 0.950 . S
C344 H336 0.950 . S
C344 C345 1.386 . S
C344 C346 1.391 . S
C345 C344 1.386 . S
C345 C349 1.393 . S
C346 H338 0.950 . S
C346 C344 1.391 . S
C346 C347 1.400 . S
C347 C346 1.400 . S
C347 C348 1.398 . S
C347 C353 1.491 . S
C348 H339 0.950 . S
C348 C347 1.398 . S
C348 C349 1.391 . S
C349 H337 0.950 . S
C349 C345 1.393 . S
C349 C348 1.391 . S
C350 H340 0.950 . S
C350 C351 1.386 . S
C350 C352 1.391 . S
C351 C350 1.386 . S
C351 C355 1.393 . S
C352 H341 0.950 . S
C352 C350 1.391 . S
C352 C353 1.400 . S
C353 C347 1.491 . S
C353 C352 1.400 . S
C353 C354 1.398 . S
C354 H342 0.950 . S
C354 C353 1.398 . S
C354 C355 1.391 . S
C355 H343 0.950 . S
C355 C351 1.393 . S
C355 C354 1.391 . S
H356 C364 0.950 . S
H357 C369 0.950 . S
H358 C366 0.950 . S
H359 C368 0.950 . S
H360 C370 0.950 . S
H361 C372 0.950 . S
H362 C374 0.950 . S
H363 C375 0.950 . S
C364 H356 0.950 . S
C364 C365 1.386 . S
C364 C366 1.391 . S
C365 C364 1.386 . S
C365 C369 1.393 . S
C366 H358 0.950 . S
C366 C364 1.391 . S
C366 C367 1.400 . S
C367 C366 1.400 . S
C367 C368 1.398 . S
C367 C373 1.491 . S
C368 H359 0.950 . S
C368 C367 1.398 . S
C368 C369 1.391 . S
C369 H357 0.950 . S
C369 C365 1.393 . S
C369 C368 1.391 . S
C370 H360 0.950 . S
C370 C371 1.386 . S
C370 C372 1.391 . S
C371 C370 1.386 . S
C371 C375 1.393 . S
C372 H361 0.950 . S
C372 C370 1.391 . S
C372 C373 1.400 . S
C373 C367 1.491 . S
C373 C372 1.400 . S
C373 C374 1.398 . S
C374 H362 0.950 . S
C374 C373 1.398 . S
C374 C375 1.391 . S
C375 H363 0.950 . S
C375 C371 1.393 . S
C375 C374 1.391 . S
H376 C384 0.950 . S
H377 C389 0.950 . S
H378 C386 0.950 . S
H379 C388 0.950 . S
H380 C390 0.950 . S
H381 C392 0.950 . S
H382 C394 0.950 . S
H383 C395 0.950 . S
C384 H376 0.950 . S
C384 C385 1.386 . S
C384 C386 1.391 . S
C385 C384 1.386 . S
C385 C389 1.393 . S
C386 H378 0.950 . S
C386 C384 1.391 . S
C386 C387 1.400 . S
C387 C386 1.400 . S
C387 C388 1.398 . S
C387 C393 1.491 . S
C388 H379 0.950 . S
C388 C387 1.398 . S
C388 C389 1.391 . S
C389 H377 0.950 . S
C389 C385 1.393 . S
C389 C388 1.391 . S
C390 H380 0.950 . S
C390 C391 1.386 . S
C390 C392 1.391 . S
C391 C390 1.386 . S
C391 C395 1.393 . S
C392 H381 0.950 . S
C392 C390 1.391 . S
C392 C393 1.400 . S
C393 C387 1.491 . S
C393 C392 1.400 . S
C393 C394 1.398 . S
C394 H382 0.950 . S
C394 C393 1.398 . S
C394 C395 1.391 . S
C395 H383 0.950 . S
C395 C391 1.393 . S
C395 C394 1.391 . S
H396 C404 0.950 . S
H397 C409 0.950 . S
H398 C406 0.950 . S
H399 C408 0.950 . S
H400 C410 0.950 . S
H401 C412 0.950 . S
H402 C414 0.950 . S
H403 C415 0.950 . S
C404 H396 0.950 . S
C404 C405 1.386 . S
C404 C406 1.391 . S
C405 C404 1.386 . S
C405 C409 1.393 . S
C406 H398 0.950 . S
C406 C404 1.391 . S
C406 C407 1.400 . S
C407 C406 1.400 . S
C407 C408 1.398 . S
C407 C413 1.491 . S
C408 H399 0.950 . S
C408 C407 1.398 . S
C408 C409 1.391 . S
C409 H397 0.950 . S
C409 C405 1.393 . S
C409 C408 1.391 . S
C410 H400 0.950 . S
C410 C411 1.386 . S
C410 C412 1.391 . S
C411 C410 1.386 . S
C411 C415 1.393 . S
C412 H401 0.950 . S
C412 C410 1.391 . S
C412 C413 1.400 . S
C413 C407 1.491 . S
C413 C412 1.400 . S
C413 C414 1.398 . S
C414 H402 0.950 . S
C414 C413 1.398 . S
C414 C415 1.391 . S
C415 H403 0.950 . S
C415 C411 1.393 . S
C415 C414 1.391 . S
H416 C424 0.950 . S
H417 C429 0.950 . S
H418 C426 0.950 . S
H419 C428 0.950 . S
H420 C430 0.950 . S
H421 C432 0.950 . S
H422 C434 0.950 . S
H423 C435 0.950 . S
C424 H416 0.950 . S
C424 C425 1.386 . S
C424 C426 1.391 . S
C425 C424 1.386 . S
C425 C429 1.393 . S
C426 H418 0.950 . S
C426 C424 1.391 . S
C426 C427 1.400 . S
C427 C426 1.400 . S
C427 C428 1.398 . S
C427 C433 1.491 . S
C428 H419 0.950 . S
C428 C427 1.398 . S
C428 C429 1.391 . S
C429 H417 0.950 . S
C429 C425 1.393 . S
C429 C428 1.391 . S
C430 H420 0.950 . S
C430 C431 1.386 . S
C430 C432 1.391 . S
C431 C430 1.386 . S
C431 C435 1.393 . S
C432 H421 0.950 . S
C432 C430 1.391 . S
C432 C433 1.400 . S
C433 C427 1.491 . S
C433 C432 1.400 . S
C433 C434 1.398 . S
C434 H422 0.950 . S
C434 C433 1.398 . S
C434 C435 1.391 . S
C435 H423 0.950 . S
C435 C431 1.393 . S
C435 C434 1.391 . S
H436 C444 0.950 . S
H437 C449 0.950 . S
H438 C446 0.950 . S
H439 C448 0.950 . S
H440 C450 0.950 . S
H441 C452 0.950 . S
H442 C454 0.950 . S
H443 C455 0.950 . S
C444 H436 0.950 . S
C444 C445 1.386 . S
C444 C446 1.391 . S
C445 C444 1.386 . S
C445 C449 1.393 . S
C446 H438 0.950 . S
C446 C444 1.391 . S
C446 C447 1.400 . S
C447 C446 1.400 . S
C447 C448 1.398 . S
C447 C453 1.491 . S
C448 H439 0.950 . S
C448 C447 1.398 . S
C448 C449 1.391 . S
C449 H437 0.950 . S
C449 C445 1.393 . S
C449 C448 1.391 . S
C450 H440 0.950 . S
C450 C451 1.386 . S
C450 C452 1.391 . S
C451 C450 1.386 . S
C451 C455 1.393 . S
C452 H441 0.950 . S
C452 C450 1.391 . S
C452 C453 1.400 . S
C453 C447 1.491 . S
C453 C452 1.400 . S
C453 C454 1.398 . S
C454 H442 0.950 . S
C454 C453 1.398 . S
C454 C455 1.391 . S
C455 H443 0.950 . S
C455 C451 1.393 . S
C455 C454 1.391 . S
H456 C464 0.950 . S
H457 C469 0.950 . S
H458 C466 0.950 . S
H459 C468 0.950 . S
H460 C470 0.950 . S
H461 C472 0.950 . S
H462 C474 0.950 . S
H463 C475 0.950 . S
C464 H456 0.950 . S
C464 C465 1.386 . S
C464 C466 1.391 . S
C465 C464 1.386 . S
C465 C469 1.393 . S
C466 H458 0.950 . S
C466 C464 1.391 . S
C466 C467 1.400 . S
C467 C466 1.400 . S
C467 C468 1.398 . S
C467 C473 1.491 . S
C468 H459 0.950 . S
C468 C467 1.398 . S
C468 C469 1.391 . S
C469 H457 0.950 . S
C469 C465 1.393 . S
C469 C468 1.391 . S
C470 H460 0.950 . S
C470 C471 1.386 . S
C470 C472 1.391 . S
C471 C470 1.386 . S
C471 C475 1.393 . S
C472 H461 0.950 . S
C472 C470 1.391 . S
C472 C473 1.400 . S
C473 C467 1.491 . S
C473 C472 1.400 . S
C473 C474 1.398 . S
C474 H462 0.950 . S
C474 C473 1.398 . S
C474 C475 1.391 . S
C475 H463 0.950 . S
C475 C471 1.393 . S
C475 C474 1.391 . S
H476 C484 0.950 . S
H477 C489 0.950 . S
H478 C486 0.950 . S
H479 C488 0.950 . S
H480 C490 0.950 . S
H481 C492 0.950 . S
H482 C494 0.950 . S
H483 C495 0.950 . S
C484 H476 0.950 . S
C484 C485 1.386 . S
C484 C486 1.391 . S
C485 C484 1.386 . S
C485 C489 1.393 . S
C486 H478 0.950 . S
C486 C484 1.391 . S
C486 C487 1.400 . S
C487 C486 1.400 . S
C487 C488 1.398 . S
C487 C493 1.491 . S
C488 H479 0.950 . S
C488 C487 1.398 . S
C488 C489 1.391 . S
C489 H477 0.950 . S
C489 C485 1.393 . S
C489 C488 1.391 . S
C490 H480 0.950 . S
C490 C491 1.386 . S
C490 C492 1.391 . S
C491 C490 1.386 . S
C491 C495 1.393 . S
C492 H481 0.950 . S
C492 C490 1.391 . S
C492 C493 1.400 . S
C493 C487 1.491 . S
C493 C492 1.400 . S
C493 C494 1.398 . S
C494 H482 0.950 . S
C494 C493 1.398 . S
C494 C495 1.391 . S
C495 H483 0.950 . S
C495 C491 1.393 . S
C495 C494 1.391 . S
H496 C504 0.950 . S
H497 C509 0.950 . S
H498 C506 0.950 . S
H499 C508 0.950 . S
H500 C510 0.950 . S
H501 C512 0.950 . S
H502 C514 0.950 . S
H503 C515 0.950 . S
C504 H496 0.950 . S
C504 C505 1.386 . S
C504 C506 1.391 . S
C505 C504 1.386 . S
C505 C509 1.393 . S
C506 H498 0.950 . S
C506 C504 1.391 . S
C506 C507 1.400 . S
C507 C506 1.400 . S
C507 C508 1.398 . S
C507 C513 1.491 . S
C508 H499 0.950 . S
C508 C507 1.398 . S
C508 C509 1.391 . S
C509 H497 0.950 . S
C509 C505 1.393 . S
C509 C508 1.391 . S
C510 H500 0.950 . S
C510 C511 1.386 . S
C510 C512 1.391 . S
C511 C510 1.386 . S
C511 C515 1.393 . S
C512 H501 0.950 . S
C512 C510 1.391 . S
C512 C513 1.400 . S
C513 C507 1.491 . S
C513 C512 1.400 . S
C513 C514 1.398 . S
C514 H502 0.950 . S
C514 C513 1.398 . S
C514 C515 1.391 . S
C515 H503 0.950 . S
C515 C511 1.393 . S
C515 C514 1.391 . S
H516 C524 0.950 . S
H517 C529 0.950 . S
H518 C526 0.950 . S
H519 C528 0.950 . S
H520 C530 0.950 . S
H521 C532 0.950 . S
H522 C534 0.950 . S
H523 C535 0.950 . S
C524 H516 0.950 . S
C524 C525 1.386 . S
C524 C526 1.391 . S
C525 C524 1.386 . S
C525 C529 1.393 . S
C526 H518 0.950 . S
C526 C524 1.391 . S
C526 C527 1.400 . S
C527 C526 1.400 . S
C527 C528 1.398 . S
C527 C533 1.491 . S
C528 H519 0.950 . S
C528 C527 1.398 . S
C528 C529 1.391 . S
C529 H517 0.950 . S
C529 C525 1.393 . S
C529 C528 1.391 . S
C530 H520 0.950 . S
C530 C531 1.386 . S
C530 C532 1.391 . S
C531 C530 1.386 . S
C531 C535 1.393 . S
C532 H521 0.950 . S
C532 C530 1.391 . S
C532 C533 1.400 . S
C533 C527 1.491 . S
C533 C532 1.400 . S
C533 C534 1.398 . S
C534 H522 0.950 . S
C534 C533 1.398 . S
C534 C535 1.391 . S
C535 H523 0.950 . S
C535 C531 1.393 . S
C535 C534 1.391 . S
H536 C544 0.950 . S
H537 C549 0.950 . S
H538 C546 0.950 . S
H539 C548 0.950 . S
H540 C550 0.950 . S
H541 C552 0.950 . S
H542 C554 0.950 . S
H543 C555 0.950 . S
C544 H536 0.950 . S
C544 C545 1.386 . S
C544 C546 1.391 . S
C545 C544 1.386 . S
C545 C549 1.393 . S
C546 H538 0.950 . S
C546 C544 1.391 . S
C546 C547 1.400 . S
C547 C546 1.400 . S
C547 C548 1.398 . S
C547 C553 1.491 . S
C548 H539 0.950 . S
C548 C547 1.398 . S
C548 C549 1.391 . S
C549 H537 0.950 . S
C549 C545 1.393 . S
C549 C548 1.391 . S
C550 H540 0.950 . S
C550 C551 1.386 . S
C550 C552 1.391 . S
C551 C550 1.386 . S
C551 C555 1.393 . S
C552 H541 0.950 . S
C552 C550 1.391 . S
C552 C553 1.400 . S
C553 C547 1.491 . S
C553 C552 1.400 . S
C553 C554 1.398 . S
C554 H542 0.950 . S
C554 C553 1.398 . S
C554 C555 1.391 . S
C555 H543 0.950 . S
C555 C551 1.393 . S
C555 C554 1.391 . S
H556 C564 0.950 . S
H557 C569 0.950 . S
H558 C566 0.950 . S
H559 C568 0.950 . S
H560 C570 0.950 . S
H561 C572 0.950 . S
H562 C574 0.950 . S
H563 C575 0.950 . S
C564 H556 0.950 . S
C564 C565 1.386 . S
C564 C566 1.391 . S
C565 C564 1.386 . S
C565 C569 1.393 . S
C566 H558 0.950 . S
C566 C564 1.391 . S
C566 C567 1.400 . S
C567 C566 1.400 . S
C567 C568 1.398 . S
C567 C573 1.491 . S
C568 H559 0.950 . S
C568 C567 1.398 . S
C568 C569 1.391 . S
C569 H557 0.950 . S
C569 C565 1.393 . S
C569 C568 1.391 . S
C570 H560 0.950 . S
C570 C571 1.386 . S
C570 C572 1.391 . S
C571 C570 1.386 . S
C571 C575 1.393 . S
C572 H561 0.950 . S
C572 C570 1.391 . S
C572 C573 1.400 . S
C573 C567 1.491 . S
C573 C572 1.400 . S
C573 C574 1.398 . S
C574 H562 0.950 . S
C574 C573 1.398 . S
C574 C575 1.391 . S
C575 H563 0.950 . S
C575 C571 1.393 . S
C575 C574 1.391 . S
H576 C584 0.950 . S
H577 C589 0.950 . S
H578 C586 0.950 . S
H579 C588 0.950 . S
H580 C590 0.950 . S
H581 C592 0.950 . S
H582 C594 0.950 . S
H583 C595 0.950 . S
C584 H576 0.950 . S
C584 C585 1.386 . S
C584 C586 1.391 . S
C585 C584 1.386 . S
C585 C589 1.393 . S
C586 H578 0.950 . S
C586 C584 1.391 . S
C586 C587 1.400 . S
C587 C586 1.400 . S
C587 C588 1.398 . S
C587 C593 1.491 . S
C588 H579 0.950 . S
C588 C587 1.398 . S
C588 C589 1.391 . S
C589 H577 0.950 . S
C589 C585 1.393 . S
C589 C588 1.391 . S
C590 H580 0.950 . S
C590 C591 1.386 . S
C590 C592 1.391 . S
C591 C590 1.386 . S
C591 C595 1.393 . S
C592 H581 0.950 . S
C592 C590 1.391 . S
C592 C593 1.400 . S
C593 C587 1.491 . S
C593 C592 1.400 . S
C593 C594 1.398 . S
C594 H582 0.950 . S
C594 C593 1.398 . S
C594 C595 1.391 . S
C595 H583 0.950 . S
C595 C591 1.393 . S
C595 C594 1.391 . S
H596 C604 0.950 . S
H597 C609 0.950 . S
H598 C606 0.950 . S
H599 C608 0.950 . S
H600 C610 0.950 . S
H601 C612 0.950 . S
H602 C614 0.950 . S
H603 C615 0.950 . S
C604 H596 0.950 . S
C604 C605 1.386 . S
C604 C606 1.391 . S
C605 C604 1.386 . S
C605 C609 1.393 . S
C606 H598 0.950 . S
C606 C604 1.391 . S
C606 C607 1.400 . S
C607 C606 1.400 . S
C607 C608 1.398 . S
C607 C613 1.491 . S
C608 H599 0.950 . S
C608 C607 1.398 . S
C608 C609 1.391 . S
C609 H597 0.950 . S
C609 C605 1.393 . S
C609 C608 1.391 . S
C610 H600 0.950 . S
C610 C611 1.386 . S
C610 C612 1.391 . S
C611 C610 1.386 . S
C611 C615 1.393 . S
C612 H601 0.950 . S
C612 C610 1.391 . S
C612 C613 1.400 . S
C613 C607 1.491 . S
C613 C612 1.400 . S
C613 C614 1.398 . S
C614 H602 0.950 . S
C614 C613 1.398 . S
C614 C615 1.391 . S
C615 H603 0.950 . S
C615 C611 1.393 . S
C615 C614 1.391 . S
H616 C624 0.950 . S
H617 C629 0.950 . S
H618 C626 0.950 . S
H619 C628 0.950 . S
H620 C630 0.950 . S
H621 C632 0.950 . S
H622 C634 0.950 . S
H623 C635 0.950 . S
C624 H616 0.950 . S
C624 C625 1.386 . S
C624 C626 1.391 . S
C625 C624 1.386 . S
C625 C629 1.393 . S
C626 H618 0.950 . S
C626 C624 1.391 . S
C626 C627 1.400 . S
C627 C626 1.400 . S
C627 C628 1.398 . S
C627 C633 1.491 . S
C628 H619 0.950 . S
C628 C627 1.398 . S
C628 C629 1.391 . S
C629 H617 0.950 . S
C629 C625 1.393 . S
C629 C628 1.391 . S
C630 H620 0.950 . S
C630 C631 1.386 . S
C630 C632 1.391 . S
C631 C630 1.386 . S
C631 C635 1.393 . S
C632 H621 0.950 . S
C632 C630 1.391 . S
C632 C633 1.400 . S
C633 C627 1.491 . S
C633 C632 1.400 . S
C633 C634 1.398 . S
C634 H622 0.950 . S
C634 C633 1.398 . S
C634 C635 1.391 . S
C635 H623 0.950 . S
C635 C631 1.393 . S
C635 C634 1.391 . S
H636 C644 0.950 . S
H637 C649 0.950 . S
H638 C646 0.950 . S
H639 C648 0.950 . S
H640 C650 0.950 . S
H641 C652 0.950 . S
H642 C654 0.950 . S
H643 C655 0.950 . S
C644 H636 0.950 . S
C644 C645 1.386 . S
C644 C646 1.391 . S
C645 C644 1.386 . S
C645 C649 1.393 . S
C646 H638 0.950 . S
C646 C644 1.391 . S
C646 C647 1.400 . S
C647 C646 1.400 . S
C647 C648 1.398 . S
C647 C653 1.491 . S
C648 H639 0.950 . S
C648 C647 1.398 . S
C648 C649 1.391 . S
C649 H637 0.950 . S
C649 C645 1.393 . S
C649 C648 1.391 . S
C650 H640 0.950 . S
C650 C651 1.386 . S
C650 C652 1.391 . S
C651 C650 1.386 . S
C651 C655 1.393 . S
C652 H641 0.950 . S
C652 C650 1.391 . S
C652 C653 1.400 . S
C653 C647 1.491 . S
C653 C652 1.400 . S
C653 C654 1.398 . S
C654 H642 0.950 . S
C654 C653 1.398 . S
C654 C655 1.391 . S
C655 H643 0.950 . S
C655 C651 1.393 . S
C655 C654 1.391 . S
H656 C664 0.950 . S
H657 C669 0.950 . S
H658 C666 0.950 . S
H659 C668 0.950 . S
H660 C670 0.950 . S
H661 C672 0.950 . S
H662 C674 0.950 . S
H663 C675 0.950 . S
C664 H656 0.950 . S
C664 C665 1.386 . S
C664 C666 1.391 . S
C665 C664 1.386 . S
C665 C669 1.393 . S
C666 H658 0.950 . S
C666 C664 1.391 . S
C666 C667 1.400 . S
C667 C666 1.400 . S
C667 C668 1.398 . S
C667 C673 1.491 . S
C668 H659 0.950 . S
C668 C667 1.398 . S
C668 C669 1.391 . S
C669 H657 0.950 . S
C669 C665 1.393 . S
C669 C668 1.391 . S
C670 H660 0.950 . S
C670 C671 1.386 . S
C670 C672 1.391 . S
C671 C670 1.386 . S
C671 C675 1.393 . S
C672 H661 0.950 . S
C672 C670 1.391 . S
C672 C673 1.400 . S
C673 C667 1.491 . S
C673 C672 1.400 . S
C673 C674 1.398 . S
C674 H662 0.950 . S
C674 C673 1.398 . S
C674 C675 1.391 . S
C675 H663 0.950 . S
C675 C671 1.393 . S
C675 C674 1.391 . S
H676 C684 0.950 . S
H677 C689 0.950 . S
H678 C686 0.950 . S
H679 C688 0.950 . S
H680 C690 0.950 . S
H681 C692 0.950 . S
H682 C694 0.950 . S
H683 C695 0.950 . S
C684 H676 0.950 . S
C684 C685 1.386 . S
C684 C686 1.391 . S
C685 C684 1.386 . S
C685 C689 1.393 . S
C686 H678 0.950 . S
C686 C684 1.391 . S
C686 C687 1.400 . S
C687 C686 1.400 . S
C687 C688 1.398 . S
C687 C693 1.491 . S
C688 H679 0.950 . S
C688 C687 1.398 . S
C688 C689 1.391 . S
C689 H677 0.950 . S
C689 C685 1.393 . S
C689 C688 1.391 . S
C690 H680 0.950 . S
C690 C691 1.386 . S
C690 C692 1.391 . S
C691 C690 1.386 . S
C691 C695 1.393 . S
C692 H681 0.950 . S
C692 C690 1.391 . S
C692 C693 1.400 . S
C693 C687 1.491 . S
C693 C692 1.400 . S
C693 C694 1.398 . S
C694 H682 0.950 . S
C694 C693 1.398 . S
C694 C695 1.391 . S
C695 H683 0.950 . S
C695 C691 1.393 . S
C695 C694 1.391 . S
H696 C704 0.950 . S
H697 C709 0.950 . S
H698 C706 0.950 . S
H699 C708 0.950 . S
H700 C710 0.950 . S
H701 C712 0.950 . S
H702 C714 0.950 . S
H703 C715 0.950 . S
C704 H696 0.950 . S
C704 C705 1.386 . S
C704 C706 1.391 . S
C705 C704 1.386 . S
C705 C709 1.393 . S
C706 H698 0.950 . S
C706 C704 1.391 . S
C706 C707 1.400 . S
C707 C706 1.400 . S
C707 C708 1.398 . S
C707 C713 1.491 . S
C708 H699 0.950 . S
C708 C707 1.398 . S
C708 C709 1.391 . S
C709 H697 0.950 . S
C709 C705 1.393 . S
C709 C708 1.391 . S
C710 H700 0.950 . S
C710 C711 1.386 . S
C710 C712 1.391 . S
C711 C710 1.386 . S
C711 C715 1.393 . S
C712 H701 0.950 . S
C712 C710 1.391 . S
C712 C713 1.400 . S
C713 C707 1.491 . S
C713 C712 1.400 . S
C713 C714 1.398 . S
C714 H702 0.950 . S
C714 C713 1.398 . S
C714 C715 1.391 . S
C715 H703 0.950 . S
C715 C711 1.393 . S
C715 C714 1.391 . S
H716 C724 0.950 . S
H717 C729 0.950 . S
H718 C726 0.950 . S
H719 C728 0.950 . S
H720 C730 0.950 . S
H721 C732 0.950 . S
H722 C734 0.950 . S
H723 C735 0.950 . S
C724 H716 0.950 . S
C724 C725 1.386 . S
C724 C726 1.391 . S
C725 C724 1.386 . S
C725 C729 1.393 . S
C726 H718 0.950 . S
C726 C724 1.391 . S
C726 C727 1.400 . S
C727 C726 1.400 . S
C727 C728 1.398 . S
C727 C733 1.491 . S
C728 H719 0.950 . S
C728 C727 1.398 . S
C728 C729 1.391 . S
C729 H717 0.950 . S
C729 C725 1.393 . S
C729 C728 1.391 . S
C730 H720 0.950 . S
C730 C731 1.386 . S
C730 C732 1.391 . S
C731 C730 1.386 . S
C731 C735 1.393 . S
C732 H721 0.950 . S
C732 C730 1.391 . S
C732 C733 1.400 . S
C733 C727 1.491 . S
C733 C732 1.400 . S
C733 C734 1.398 . S
C734 H722 0.950 . S
C734 C733 1.398 . S
C734 C735 1.391 . S
C735 H723 0.950 . S
C735 C731 1.393 . S
C735 C734 1.391 . S
C265 C6 1.021 . S
C271 C111 1.037 . S
C285 C18 1.678 . S
C291 C155 1.677 . S
C311 C185 2.256 . S
C305 C28 2.257 . S
C325 C40 2.121 . S
C331 C226 2.108 . S
C351 C142 1.058 . S
C345 C9 1.042 . S
C371 C106 2.451 . S
C365 C16 2.406 . S
C391 C234 1.093 . S
C385 C30 1.081 . S
C411 C195 1.797 . S
C405 C42 1.834 . S
C425 C4 1.074 . S
C431 C231 1.073 . S
C451 C145 2.138 . S
C445 C33 2.160 . S
C465 C45 1.833 . S
C471 C114 1.809 . S
C485 C21 2.134 . S
C491 C182 2.140 . S
C511 C102 1.060 . S
C505 C57 1.056 . S
C525 C66 1.635 . S
C531 C146 1.660 . S
C545 C76 2.307 . S
C551 C194 2.309 . S
C565 C88 2.029 . S
C571 C235 2.003 . S
C585 C54 1.054 . S
C591 C151 1.085 . S
C611 C115 2.533 . S
C605 C64 2.519 . S
C631 C225 0.996 . S
C625 C78 0.981 . S
C651 C186 1.831 . S
C645 C93 1.872 . S
C665 C52 1.172 . S
C671 C222 1.185 . S
C691 C154 2.096 . S
C685 C81 2.138 . S
C711 C105 1.781 . S
C705 C90 1.802 . S
C725 C69 2.120 . S
C731 C191 2.140 . S
