# Generated by pormake.
# Topology hwx, (6,3)-cn, num edge types: 1
# Building blocks:
#     Node 0, Type 0, BuildingBlock: OJICUG_clean_sbu_0, # of connection points: 6
#     Node 1, Type 0, BuildingBlock: OJICUG_clean_sbu_0, # of connection points: 6
#     Node 2, Type 0, BuildingBlock: OJICUG_clean_sbu_0, # of connection points: 6
#     Node 3, Type 0, BuildingBlock: OJICUG_clean_sbu_0, # of connection points: 6
#     Node 4, Type 1, BuildingBlock: BELTOD_clean_linker_0, # of connection points: 3
#     Node 5, Type 1, BuildingBlock: BELTOD_clean_linker_0, # of connection points: 3
#     Node 6, Type 1, BuildingBlock: BELTOD_clean_linker_0, # of connection points: 3
#     Node 7, Type 1, BuildingBlock: BELTOD_clean_linker_0, # of connection points: 3
#     Node 8, Type 1, BuildingBlock: BELTOD_clean_linker_0, # of connection points: 3
#     Node 9, Type 1, BuildingBlock: BELTOD_clean_linker_0, # of connection points: 3
#     Node 10, Type 1, BuildingBlock: BELTOD_clean_linker_0, # of connection points: 3
#     Node 11, Type 1, BuildingBlock: BELTOD_clean_linker_0, # of connection points: 3
#     Edge 12, Type (0, 1), BuildingBlock: XIVTED_clean_linker_0, # of connection points: 2
#     Edge 13, Type (0, 1), BuildingBlock: XIVTED_clean_linker_0, # of connection points: 2
#     Edge 14, Type (0, 1), BuildingBlock: XIVTED_clean_linker_0, # of connection points: 2
#     Edge 15, Type (0, 1), BuildingBlock: XIVTED_clean_linker_0, # of connection points: 2
#     Edge 16, Type (0, 1), BuildingBlock: XIVTED_clean_linker_0, # of connection points: 2
#     Edge 17, Type (0, 1), BuildingBlock: XIVTED_clean_linker_0, # of connection points: 2
#     Edge 18, Type (0, 1), BuildingBlock: XIVTED_clean_linker_0, # of connection points: 2
#     Edge 19, Type (0, 1), BuildingBlock: XIVTED_clean_linker_0, # of connection points: 2
#     Edge 20, Type (0, 1), BuildingBlock: XIVTED_clean_linker_0, # of connection points: 2
#     Edge 21, Type (0, 1), BuildingBlock: XIVTED_clean_linker_0, # of connection points: 2
#     Edge 22, Type (0, 1), BuildingBlock: XIVTED_clean_linker_0, # of connection points: 2
#     Edge 23, Type (0, 1), BuildingBlock: XIVTED_clean_linker_0, # of connection points: 2
#     Edge 24, Type (0, 1), BuildingBlock: XIVTED_clean_linker_0, # of connection points: 2
#     Edge 25, Type (0, 1), BuildingBlock: XIVTED_clean_linker_0, # of connection points: 2
#     Edge 26, Type (0, 1), BuildingBlock: XIVTED_clean_linker_0, # of connection points: 2
#     Edge 27, Type (0, 1), BuildingBlock: XIVTED_clean_linker_0, # of connection points: 2
#     Edge 28, Type (0, 1), BuildingBlock: XIVTED_clean_linker_0, # of connection points: 2
#     Edge 29, Type (0, 1), BuildingBlock: XIVTED_clean_linker_0, # of connection points: 2
#     Edge 30, Type (0, 1), BuildingBlock: XIVTED_clean_linker_0, # of connection points: 2
#     Edge 31, Type (0, 1), BuildingBlock: XIVTED_clean_linker_0, # of connection points: 2
#     Edge 32, Type (0, 1), BuildingBlock: XIVTED_clean_linker_0, # of connection points: 2
#     Edge 33, Type (0, 1), BuildingBlock: XIVTED_clean_linker_0, # of connection points: 2
#     Edge 34, Type (0, 1), BuildingBlock: XIVTED_clean_linker_0, # of connection points: 2
#     Edge 35, Type (0, 1), BuildingBlock: XIVTED_clean_linker_0, # of connection points: 2
# Relax obj value: 0.069
# Max RMSD: 0.096
# Mean RMSD: 0.086
data_MOF--net-hwx--node1-OJICUG_clean_sbu_0--node2-BELTOD_clean_linker_0--edge1-XIVTED_clean_linker_0
_symmetry_space_group_name_H-M    P1
_symmetry_Int_Tables_number       1
_symmetry_cell_setting            triclinic
loop_
_symmetry_equiv_pos_as_xyz
'x, y, z'
_cell_length_a     56.908249
_cell_length_b     56.924533
_cell_length_c     25.349222
_cell_angle_alpha  89.41769
_cell_angle_beta   90.645501
_cell_angle_gamma 90.00749
loop_
_atom_site_label
_atom_site_type_symbol
_atom_site_fract_x
_atom_site_fract_y
_atom_site_fract_z
_atom_type_partial_charge
Sc0 Sc 0.21214 0.20468 0.06757 0.0
Sc1 Sc 0.16812 0.17114 0.00481 0.0
Sc2 Sc 0.20455 0.20909 0.93071 0.0
O3 O 0.19491 0.19496 0.00101 0.0
C4 C 0.20967 0.25345 0.00658 0.0
C5 C 0.15852 0.20261 0.10501 0.0
C6 C 0.14911 0.20856 0.91913 0.0
C7 C 0.20521 0.15009 0.0883 0.0
C8 C 0.2543 0.20112 0.98537 0.0
C9 C 0.19432 0.15536 0.90147 0.0
O10 O 0.20986 0.24149 0.04913 0.0
O11 O 0.15107 0.18979 0.06753 0.0
O12 O 0.16901 0.2179 0.91111 0.0
O13 O 0.21679 0.16902 0.09263 0.0
O14 O 0.24135 0.20206 0.94419 0.0
O15 O 0.18295 0.15031 0.94295 0.0
O16 O 0.24614 0.20252 0.03173 0.0
O17 O 0.18646 0.14847 0.0608 0.0
O18 O 0.20181 0.17591 0.89093 0.0
O19 O 0.18001 0.20829 0.11065 0.0
O20 O 0.20855 0.24408 0.96132 0.0
O21 O 0.14623 0.19066 0.94892 0.0
Sc22 Sc 0.27653 0.70682 0.43275 0.0
Sc23 Sc 0.32623 0.68437 0.50082 0.0
Sc24 Sc 0.27802 0.70635 0.57149 0.0
O25 O 0.29358 0.69908 0.50168 0.0
C26 C 0.2661 0.75199 0.502 0.0
C27 C 0.32949 0.72043 0.40428 0.0
C28 C 0.33144 0.72064 0.59521 0.0
C29 C 0.29934 0.65716 0.40793 0.0
C30 C 0.23372 0.6895 0.50388 0.0
C31 C 0.30182 0.65662 0.59598 0.0
O32 O 0.26857 0.742 0.45774 0.0
O33 O 0.33906 0.70852 0.44138 0.0
O34 O 0.30953 0.72158 0.60389 0.0
O35 O 0.28338 0.67259 0.40106 0.0
O36 O 0.24433 0.69258 0.54762 0.0
O37 O 0.31727 0.65859 0.56031 0.0
O38 O 0.24317 0.69395 0.45975 0.0
O39 O 0.31592 0.65927 0.44169 0.0
O40 O 0.28643 0.67233 0.60427 0.0
O41 O 0.30742 0.72086 0.39645 0.0
O42 O 0.26842 0.74118 0.54588 0.0
O43 O 0.34021 0.70787 0.55959 0.0
Sc44 Sc 0.76694 0.76236 0.93775 0.0
Sc45 Sc 0.80127 0.80336 0.00738 0.0
Sc46 Sc 0.76407 0.76473 0.07665 0.0
O47 O 0.77743 0.77681 0.00729 0.0
C48 C 0.71886 0.76505 0.00019 0.0
C49 C 0.77031 0.8168 0.90628 0.0
C50 C 0.76515 0.81998 0.09535 0.0
C51 C 0.8218 0.76911 0.91976 0.0
C52 C 0.77105 0.71726 0.01357 0.0
C53 C 0.81787 0.77357 0.10815 0.0
O54 O 0.73038 0.76532 0.95752 0.0
O55 O 0.78337 0.82238 0.94514 0.0
O56 O 0.75668 0.79966 0.10434 0.0
O57 O 0.80259 0.75829 0.91112 0.0
O58 O 0.77043 0.7286 0.05647 0.0
O59 O 0.82197 0.7874 0.06968 0.0
O60 O 0.76896 0.72705 0.96849 0.0
O61 O 0.82358 0.78596 0.9521 0.0
O62 O 0.79777 0.76456 0.11625 0.0
O63 O 0.76366 0.79584 0.898 0.0
O64 O 0.72866 0.7638 0.04548 0.0
O65 O 0.78149 0.82367 0.06248 0.0
Sc66 Sc 0.70412 0.2761 0.56598 0.0
Sc67 Sc 0.68383 0.32546 0.49377 0.0
Sc68 Sc 0.70486 0.2756 0.42742 0.0
O69 O 0.69754 0.29239 0.49569 0.0
C70 C 0.74991 0.26452 0.50004 0.0
C71 C 0.71832 0.32922 0.59258 0.0
C72 C 0.72048 0.32824 0.39972 0.0
C73 C 0.65471 0.3 0.58588 0.0
C74 C 0.68724 0.23241 0.49693 0.0
C75 C 0.65581 0.30012 0.3999 0.0
O76 O 0.73961 0.268 0.5436 0.0
O77 O 0.70799 0.33855 0.55291 0.0
O78 O 0.72069 0.3062 0.39272 0.0
O79 O 0.6693 0.28334 0.59347 0.0
O80 O 0.69033 0.24254 0.45274 0.0
O81 O 0.65811 0.31618 0.43419 0.0
O82 O 0.6918 0.24231 0.54048 0.0
O83 O 0.6581 0.3167 0.55296 0.0
O84 O 0.67112 0.28417 0.39323 0.0
O85 O 0.7175 0.30733 0.60245 0.0
O86 O 0.73942 0.26587 0.45549 0.0
O87 O 0.70809 0.33792 0.43481 0.0
P88 P 0.32762 0.47772 0.00641 0.0
H89 H 0.35849 0.49848 0.08664 0.0
H90 H 0.35137 0.52654 0.15687 0.0
H91 H 0.2776 0.52812 0.11405 0.0
H92 H 0.28509 0.50063 0.04285 0.0
H93 H 0.31399 0.44392 0.92629 0.0
H94 H 0.28832 0.40957 0.92763 0.0
H95 H 0.27193 0.42323 0.09069 0.0
H96 H 0.29848 0.45674 0.08965 0.0
H97 H 0.36064 0.5039 0.9411 0.0
H98 H 0.28618 0.48995 0.94275 0.0
O99 O 0.35502 0.46735 0.0102 0.0
H100 H 0.35513 0.53032 0.86538 0.0
H101 H 0.28053 0.51597 0.8664 0.0
C102 C 0.32225 0.49731 0.06006 0.0
C103 C 0.34077 0.50476 0.09263 0.0
C104 C 0.33663 0.52072 0.13299 0.0
C105 C 0.31387 0.52953 0.14132 0.0
C106 C 0.29537 0.52192 0.10842 0.0
C107 C 0.29958 0.50608 0.06793 0.0
C108 C 0.30772 0.45319 0.00742 0.0
C109 C 0.30471 0.43958 0.96216 0.0
C110 C 0.28987 0.42004 0.96292 0.0
C111 C 0.27784 0.41371 0.00916 0.0
C112 C 0.28101 0.42746 0.05451 0.0
C113 C 0.29603 0.44685 0.05379 0.0
C114 C 0.32389 0.49465 0.94676 0.0
C115 C 0.34317 0.50613 0.92439 0.0
C116 C 0.33999 0.52118 0.88102 0.0
C117 C 0.31739 0.52519 0.85974 0.0
C118 C 0.29814 0.5134 0.88209 0.0
C119 C 0.30136 0.49836 0.92544 0.0
P120 P 0.99752 0.75561 0.52156 0.0
H121 H 0.00591 0.7643 0.63332 0.0
H122 H 0.98142 0.75896 0.71112 0.0
H123 H 0.92801 0.72605 0.61406 0.0
H124 H 0.95311 0.7303 0.5376 0.0
H125 H 0.03599 0.75641 0.44792 0.0
H126 H 0.07195 0.73337 0.44158 0.0
H127 H 0.04858 0.68852 0.56926 0.0
H128 H 0.01269 0.71189 0.57568 0.0
H129 H 0.95797 0.7857 0.49719 0.0
H130 H 0.99302 0.72736 0.42446 0.0
O131 O 0.00851 0.78254 0.52931 0.0
H132 H 0.92856 0.78605 0.42613 0.0
H133 H 0.9638 0.72797 0.35254 0.0
C134 C 0.98099 0.74837 0.57956 0.0
C135 C 0.98906 0.75563 0.62914 0.0
C136 C 0.97496 0.75268 0.67349 0.0
C137 C 0.95247 0.74253 0.66881 0.0
C138 C 0.94521 0.73386 0.61943 0.0
C139 C 0.95946 0.73657 0.57533 0.0
C140 C 0.02184 0.736 0.51248 0.0
C141 C 0.03846 0.74138 0.47394 0.0
C142 C 0.05893 0.72806 0.47015 0.0
C143 C 0.06318 0.70912 0.50506 0.0
C144 C 0.04593 0.70315 0.54221 0.0
C145 C 0.02537 0.71648 0.54582 0.0
C146 C 0.97775 0.75669 0.46578 0.0
C147 C 0.9595 0.77318 0.4655 0.0
C148 C 0.94265 0.77327 0.42517 0.0
C149 C 0.94393 0.75698 0.38407 0.0
C150 C 0.96256 0.74079 0.38368 0.0
C151 C 0.97926 0.74047 0.42467 0.0
P152 P 0.83667 0.46879 0.99659 0.0
H153 H 0.85395 0.45211 0.89467 0.0
H154 H 0.83462 0.43122 0.82187 0.0
H155 H 0.76868 0.43458 0.90402 0.0
H156 H 0.78785 0.45568 0.97585 0.0
H157 H 0.83657 0.50279 0.08201 0.0
H158 H 0.82457 0.54378 0.0863 0.0
H159 H 0.81135 0.54413 0.91784 0.0
H160 H 0.82214 0.50273 0.91465 0.0
H161 H 0.85508 0.42893 0.05804 0.0
H162 H 0.79548 0.4756 0.06285 0.0
O163 O 0.86578 0.46604 0.99228 0.0
H164 H 0.83974 0.40698 0.13373 0.0
H165 H 0.77984 0.45362 0.13746 0.0
C166 C 0.82246 0.45488 0.9413 0.0
C167 C 0.83532 0.44843 0.89686 0.0
C168 C 0.82426 0.43665 0.85519 0.0
C169 C 0.80024 0.43106 0.85773 0.0
C170 C 0.7873 0.43834 0.90149 0.0
C171 C 0.79827 0.45034 0.94265 0.0
C172 C 0.82947 0.49953 0.99838 0.0
C173 C 0.83088 0.51166 0.0461 0.0
C174 C 0.82424 0.53524 0.04835 0.0
C175 C 0.81668 0.54732 0.0025 0.0
C176 C 0.8164 0.53528 0.95423 0.0
C177 C 0.82272 0.51159 0.95224 0.0
C178 C 0.82669 0.45417 0.05555 0.0
C179 C 0.83888 0.43465 0.07585 0.0
C180 C 0.82998 0.42202 0.11882 0.0
C181 C 0.8086 0.4286 0.14183 0.0
C182 C 0.79659 0.44835 0.12151 0.0
C183 C 0.8055 0.46092 0.07866 0.0
P184 P 0.00224 0.30102 0.49943 0.0
H185 H 0.02181 0.32099 0.40251 0.0
H186 H 0.04541 0.30406 0.33234 0.0
H187 H 0.04147 0.23606 0.40897 0.0
H188 H 0.01788 0.25313 0.47913 0.0
H189 H 0.96272 0.31741 0.55967 0.0
H190 H 0.92124 0.30641 0.56143 0.0
H191 H 0.93321 0.25609 0.43801 0.0
H192 H 0.97448 0.26756 0.43564 0.0
H193 H 0.04447 0.31484 0.55641 0.0
H194 H 0.98904 0.26387 0.57504 0.0
O195 O 0.00456 0.33023 0.49662 0.0
H196 H 0.06373 0.2998 0.63633 0.0
H197 H 0.00769 0.24925 0.65607 0.0
C198 C 0.01837 0.28834 0.44622 0.0
C199 C 0.02597 0.30244 0.40416 0.0
C200 C 0.03948 0.29276 0.36416 0.0
C201 C 0.04535 0.26877 0.36536 0.0
C202 C 0.03707 0.25456 0.40683 0.0
C203 C 0.02375 0.26431 0.44707 0.0
C204 C 0.9716 0.29348 0.4973 0.0
C205 C 0.95633 0.30415 0.53271 0.0
C206 C 0.93271 0.29766 0.53406 0.0
C207 C 0.92397 0.28028 0.50004 0.0
C208 C 0.93936 0.26968 0.46437 0.0
C209 C 0.96302 0.2762 0.4631 0.0
C210 C 0.01513 0.29082 0.56048 0.0
C211 C 0.03623 0.3007 0.57833 0.0
C212 C 0.04714 0.29214 0.62422 0.0
C213 C 0.03713 0.27345 0.65303 0.0
C214 C 0.01593 0.26357 0.63478 0.0
C215 C 0.00511 0.27209 0.58867 0.0
P216 P 0.74817 0.99429 0.49199 0.0
H217 H 0.76768 0.99484 0.38582 0.0
H218 H 0.76186 0.96912 0.31037 0.0
H219 H 0.70657 0.93274 0.39355 0.0
H220 H 0.71281 0.95841 0.46933 0.0
H221 H 0.74997 0.03299 0.56506 0.0
H222 H 0.72789 0.06957 0.5709 0.0
H223 H 0.68294 0.0474 0.44212 0.0
H224 H 0.70531 0.01086 0.43627 0.0
H225 H 0.77236 0.95046 0.51106 0.0
H226 H 0.7222 0.99326 0.59287 0.0
O227 O 0.7757 0.00412 0.4873 0.0
H228 H 0.77163 0.92166 0.58309 0.0
H229 H 0.72167 0.96456 0.66557 0.0
C230 C 0.74104 0.97812 0.43343 0.0
C231 C 0.75412 0.98152 0.38755 0.0
C232 C 0.75062 0.96691 0.34426 0.0
C233 C 0.73391 0.9487 0.34619 0.0
C234 C 0.71986 0.94632 0.39122 0.0
C235 C 0.72335 0.96101 0.43444 0.0
C236 C 0.72939 0.01933 0.50011 0.0
C237 C 0.73512 0.03586 0.53867 0.0
C238 C 0.72235 0.05669 0.54218 0.0
C239 C 0.70366 0.06141 0.50689 0.0
C240 C 0.69738 0.04435 0.46953 0.0
C241 C 0.71013 0.02342 0.46626 0.0
C242 C 0.74742 0.97398 0.54669 0.0
C243 C 0.76123 0.95367 0.54464 0.0
C244 C 0.7607 0.93718 0.58562 0.0
C245 C 0.7465 0.94086 0.62973 0.0
C246 C 0.73285 0.9614 0.63208 0.0
C247 C 0.73317 0.97779 0.59057 0.0
P248 P 0.47537 0.31475 0.98926 0.0
H249 H 0.47643 0.33739 0.88518 0.0
H250 H 0.50266 0.33321 0.81003 0.0
H251 H 0.54321 0.28155 0.89805 0.0
H252 H 0.51654 0.28529 0.97189 0.0
H253 H 0.43911 0.30148 0.0634 0.0
H254 H 0.40692 0.27314 0.05968 0.0
H255 H 0.42978 0.25116 0.90581 0.0
H256 H 0.46168 0.27975 0.90946 0.0
H257 H 0.50269 0.34884 0.04878 0.0
H258 H 0.48679 0.2749 0.05927 0.0
O259 O 0.4625 0.34108 0.98706 0.0
H260 H 0.52957 0.345 0.12422 0.0
H261 H 0.51319 0.27097 0.13548 0.0
C262 C 0.49491 0.31208 0.93448 0.0
C263 C 0.49104 0.32526 0.88824 0.0
C264 C 0.50607 0.32287 0.84538 0.0
C265 C 0.52513 0.30713 0.84808 0.0
C266 C 0.52859 0.29365 0.89433 0.0
C267 C 0.51351 0.29599 0.93695 0.0
C268 C 0.45283 0.29265 0.98696 0.0
C269 C 0.4373 0.29039 0.02912 0.0
C270 C 0.41903 0.27406 0.02707 0.0
C271 C 0.41588 0.2598 0.98252 0.0
C272 C 0.43168 0.26197 0.94051 0.0
C273 C 0.45 0.27829 0.9427 0.0
C274 C 0.49242 0.31228 0.04917 0.0
C275 C 0.50457 0.3319 0.06816 0.0
C276 C 0.51989 0.32967 0.11137 0.0
C277 C 0.52348 0.30768 0.13598 0.0
C278 C 0.51095 0.28811 0.11719 0.0
C279 C 0.49564 0.29038 0.07397 0.0
P280 P 0.29618 0.00524 0.51141 0.0
H281 H 0.31335 0.03079 0.60416 0.0
H282 H 0.29281 0.04997 0.6764 0.0
H283 H 0.22652 0.02478 0.61482 0.0
H284 H 0.24717 0.00515 0.5433 0.0
H285 H 0.31802 0.96421 0.56068 0.0
H286 H 0.30853 0.92229 0.55875 0.0
H287 H 0.24941 0.93704 0.45516 0.0
H288 H 0.259 0.97887 0.45726 0.0
H289 H 0.26511 0.04601 0.49147 0.0
H290 H 0.30554 0.99709 0.4003 0.0
O291 O 0.3252 0.00886 0.51703 0.0
H292 H 0.24955 0.06364 0.41065 0.0
H293 H 0.29031 0.01533 0.31859 0.0
C294 C 0.28173 0.01669 0.56834 0.0
C295 C 0.29446 0.029 0.60675 0.0
C296 C 0.28274 0.03986 0.64807 0.0
C297 C 0.25812 0.03885 0.65089 0.0
C298 C 0.24551 0.02583 0.61331 0.0
C299 C 0.25727 0.0146 0.57266 0.0
C300 C 0.2896 0.97448 0.50804 0.0
C301 C 0.30314 0.95836 0.53724 0.0
C302 C 0.29758 0.93448 0.53646 0.0
C303 C 0.27828 0.92642 0.50659 0.0
C304 C 0.26459 0.94272 0.47782 0.0
C305 C 0.27008 0.96661 0.47895 0.0
C306 C 0.28614 0.01984 0.45198 0.0
C307 C 0.27058 0.03889 0.45421 0.0
C308 C 0.26163 0.049 0.40788 0.0
C309 C 0.26844 0.04057 0.3585 0.0
C310 C 0.2847 0.02205 0.35624 0.0
C311 C 0.29341 0.01169 0.40276 0.0
P312 P 0.47173 0.83445 -0.00085 0.0
H313 H 0.46609 0.84764 0.10976 0.0
H314 H 0.44393 0.82987 0.18263 0.0
H315 H 0.42155 0.77393 0.07978 0.0
H316 H 0.44386 0.79142 0.00785 0.0
H317 H 0.51552 0.85603 0.96463 0.0
H318 H 0.55617 0.84197 0.9635 0.0
H319 H 0.53408 0.77618 0.03357 0.0
H320 H 0.49361 0.79035 0.03471 0.0
H321 H 0.42329 0.83835 0.96308 0.0
H322 H 0.48872 0.81308 0.90083 0.0
O323 O 0.47105 0.86362 0.0049 0.0
H324 H 0.40231 0.82291 0.88667 0.0
H325 H 0.4681 0.79858 0.82303 0.0
C326 C 0.45596 0.82127 0.05302 0.0
C327 C 0.45636 0.83158 0.10301 0.0
C328 C 0.44386 0.82136 0.1446 0.0
C329 C 0.43077 0.80073 0.13651 0.0
C330 C 0.43109 0.7901 0.08677 0.0
C331 C 0.44377 0.80014 0.04558 0.0
C332 C 0.50169 0.82447 0.00097 0.0
C333 C 0.51951 0.83868 0.98022 0.0
C334 C 0.54266 0.83054 0.97915 0.0
C335 C 0.54831 0.80801 0.9987 0.0
C336 C 0.53032 0.79376 0.01904 0.0
C337 C 0.50717 0.80186 0.01974 0.0
C338 C 0.45747 0.82656 0.9381 0.0
C339 C 0.4332 0.8299 0.93234 0.0
C340 C 0.42124 0.82117 0.88832 0.0
C341 C 0.43344 0.80924 0.84866 0.0
C342 C 0.45804 0.80715 0.8533 0.0
C343 C 0.46992 0.81564 0.89774 0.0
H344 H 0.16559 0.23803 0.17524 0.0
H345 H 0.04032 0.22745 0.3114 0.0
H346 H 0.11269 0.18904 0.12171 0.0
H347 H 0.08609 0.28742 0.32783 0.0
H348 H 0.06747 0.21096 0.24698 0.0
H349 H 0.1376 0.25407 0.23713 0.0
C350 C 0.1481 0.23055 0.17658 0.0
C351 C 0.14152 0.2121 0.14316 0.0
C352 C 0.07146 0.22778 0.26452 0.0
C353 C 0.10929 0.23051 0.21426 0.0
C354 C 0.05606 0.23713 0.30139 0.0
C355 C 0.06097 0.25885 0.32485 0.0
C356 C 0.09204 0.2401 0.2517 0.0
C357 C 0.08151 0.27076 0.31025 0.0
C358 C 0.13207 0.23983 0.21182 0.0
C359 C 0.11851 0.20329 0.14662 0.0
N360 N 0.09634 0.26117 0.27489 0.0
N361 N 0.10323 0.21252 0.18175 0.0
H362 H 0.2711 0.64489 0.67456 0.0
H363 H 0.34442 0.53233 0.77192 0.0
H364 H 0.33355 0.62022 0.59711 0.0
H365 H 0.28231 0.55785 0.84899 0.0
H366 H 0.33946 0.56288 0.70418 0.0
H367 H 0.27352 0.61144 0.73507 0.0
C368 C 0.28528 0.63241 0.67004 0.0
C369 C 0.30226 0.63555 0.63079 0.0
C370 C 0.32684 0.56169 0.73574 0.0
C371 C 0.30514 0.59712 0.70034 0.0
C372 C 0.32972 0.54432 0.77454 0.0
C373 C 0.31381 0.54256 0.81632 0.0
C374 C 0.30796 0.57749 0.73881 0.0
C375 C 0.29487 0.55836 0.81725 0.0
C376 C 0.28664 0.61327 0.70469 0.0
C377 C 0.32012 0.61863 0.62684 0.0
N378 N 0.29256 0.57522 0.77928 0.0
N379 N 0.32117 0.60023 0.66137 0.0
H380 H 0.86521 0.78049 0.09563 0.0
H381 H 0.89654 0.75647 0.39739 0.0
H382 H 0.81438 0.75511 0.2079 0.0
H383 H 0.94941 0.75701 0.27685 0.0
H384 H 0.86602 0.75818 0.32878 0.0
H385 H 0.89634 0.77408 0.16158 0.0
C386 C 0.86059 0.77349 0.13403 0.0
C387 C 0.83711 0.76845 0.14633 0.0
C388 C 0.88428 0.75776 0.31726 0.0
C389 C 0.87262 0.76126 0.22193 0.0
C390 C 0.90167 0.75691 0.35636 0.0
C391 C 0.92545 0.75673 0.34259 0.0
C392 C 0.89073 0.75879 0.264 0.0
C393 C 0.93122 0.75706 0.28894 0.0
C394 C 0.87839 0.76975 0.17153 0.0
C395 C 0.83221 0.75925 0.19662 0.0
N396 N 0.91395 0.75833 0.25148 0.0
N397 N 0.84978 0.75618 0.23273 0.0
H398 H 0.73201 0.31818 0.69321 0.0
H399 H 0.80158 0.43691 0.75001 0.0
H400 H 0.73422 0.37458 0.57811 0.0
H401 H 0.77317 0.39223 0.87204 0.0
H402 H 0.78209 0.41228 0.68326 0.0
H403 H 0.75255 0.34308 0.75612 0.0
C404 C 0.7369 0.33578 0.68099 0.0
C405 C 0.73129 0.34431 0.63023 0.0
C406 C 0.78012 0.40798 0.72469 0.0
C407 C 0.75496 0.37294 0.70242 0.0
C408 C 0.79129 0.4219 0.76264 0.0
C409 C 0.78883 0.41662 0.8165 0.0
C410 C 0.76685 0.38845 0.74091 0.0
C411 C 0.77528 0.39706 0.83094 0.0
C412 C 0.74854 0.35003 0.71711 0.0
C413 C 0.73806 0.36735 0.61691 0.0
N414 N 0.76492 0.38363 0.79339 0.0
N415 N 0.74965 0.38088 0.65279 0.0
H416 H 0.61974 0.33225 0.39674 0.0
H417 H 0.55524 0.27203 0.1507 0.0
H418 H 0.64354 0.26839 0.32371 0.0
H419 H 0.53242 0.33725 0.21883 0.0
H420 H 0.58586 0.26892 0.21844 0.0
H421 H 0.58606 0.33302 0.33617 0.0
C422 C 0.61788 0.31833 0.36819 0.0
C423 C 0.63466 0.30031 0.3652 0.0
C424 C 0.5741 0.28387 0.2188 0.0
C425 C 0.59608 0.30113 0.29567 0.0
C426 C 0.55647 0.28556 0.18032 0.0
C427 C 0.54123 0.30496 0.17899 0.0
C428 C 0.5766 0.30171 0.25631 0.0
C429 C 0.54397 0.32216 0.21791 0.0
C430 C 0.59862 0.3188 0.33357 0.0
C431 C 0.63119 0.28272 0.3274 0.0
N432 N 0.56137 0.32017 0.25488 0.0
N433 N 0.61236 0.28364 0.29406 0.0
H434 H 0.19787 0.1588 0.79473 0.0
H435 H 0.26496 0.03981 0.75795 0.0
H436 H 0.20407 0.10926 0.92407 0.0
H437 H 0.22332 0.07059 0.632 0.0
H438 H 0.24614 0.06648 0.82046 0.0
H439 H 0.2105 0.12819 0.73419 0.0
C440 C 0.20175 0.14141 0.81026 0.0
C441 C 0.19997 0.13649 0.86435 0.0
C442 C 0.24094 0.06712 0.77924 0.0
C443 C 0.2148 0.10165 0.79568 0.0
C444 C 0.2517 0.05204 0.7437 0.0
C445 C 0.24559 0.05308 0.69 0.0
C446 C 0.2245 0.08367 0.76047 0.0
C447 C 0.22835 0.06918 0.67324 0.0
C448 C 0.20885 0.12397 0.77574 0.0
C449 C 0.20512 0.11367 0.88252 0.0
N450 N 0.21863 0.08411 0.70826 0.0
N451 N 0.21269 0.09712 0.8483 0.0
H452 H 0.31582 0.74319 0.31367 0.0
H453 H 0.44316 0.79182 0.23987 0.0
H454 H 0.37724 0.72867 0.41036 0.0
H455 H 0.38521 0.78659 0.12947 0.0
H456 H 0.41859 0.7735 0.30809 0.0
H457 H 0.34041 0.76416 0.25123 0.0
C458 C 0.33449 0.74445 0.322 0.0
C459 C 0.34446 0.73396 0.36736 0.0
C460 C 0.41131 0.77641 0.26891 0.0
C461 C 0.37281 0.75812 0.29549 0.0
C462 C 0.42524 0.78694 0.23018 0.0
C463 C 0.4162 0.79054 0.17899 0.0
C464 C 0.38815 0.7698 0.25636 0.0
C465 C 0.39294 0.78384 0.16827 0.0
C466 C 0.34854 0.75641 0.28611 0.0
C467 C 0.3688 0.73633 0.37579 0.0
N468 N 0.37973 0.77384 0.20661 0.0
N469 N 0.38218 0.74817 0.34012 0.0
H470 H 0.74889 0.81137 0.80981 0.0
H471 H 0.75053 0.94839 0.73599 0.0
H472 H 0.77561 0.86457 0.91502 0.0
H473 H 0.74202 0.89331 0.62171 0.0
H474 H 0.75325 0.91848 0.80617 0.0
H475 H 0.73983 0.84193 0.74459 0.0
C476 C 0.75271 0.82948 0.81943 0.0
C477 C 0.76327 0.83535 0.86787 0.0
C478 C 0.75065 0.91298 0.76575 0.0
C479 C 0.75286 0.87044 0.7932 0.0
C480 C 0.74896 0.93001 0.72583 0.0
C481 C 0.74625 0.92324 0.67306 0.0
C482 C 0.74938 0.88908 0.75272 0.0
C483 C 0.74445 0.89922 0.66187 0.0
C484 C 0.74758 0.84691 0.78205 0.0
C485 C 0.76771 0.85917 0.87803 0.0
N486 N 0.7461 0.883 0.70135 0.0
N487 N 0.76256 0.87584 0.84092 0.0
H488 H 0.86512 0.79 0.92188 0.0
H489 H 0.91923 0.70949 0.69702 0.0
H490 H 0.82685 0.73309 0.84907 0.0
H491 H 0.94722 0.77698 0.74246 0.0
H492 H 0.88873 0.71362 0.76358 0.0
H493 H 0.89888 0.78084 0.8677 0.0
C494 C 0.86381 0.77547 0.89475 0.0
C495 C 0.84292 0.76249 0.88965 0.0
C496 C 0.90173 0.72737 0.75919 0.0
C497 C 0.88171 0.75191 0.82737 0.0
C498 C 0.91911 0.72509 0.7211 0.0
C499 C 0.9358 0.74301 0.7136 0.0
C500 C 0.90112 0.74762 0.79027 0.0
C501 C 0.93501 0.76255 0.74695 0.0
C502 C 0.88313 0.77028 0.86375 0.0
C503 C 0.84247 0.74374 0.854 0.0
N504 N 0.91789 0.76438 0.78351 0.0
N505 N 0.86154 0.73909 0.82398 0.0
H506 H 0.75058 0.31384 0.32305 0.0
H507 H 0.78548 0.44378 0.22979 0.0
H508 H 0.7243 0.37649 0.397 0.0
H509 H 0.8074 0.38064 0.15128 0.0
H510 H 0.76538 0.41961 0.29563 0.0
H511 H 0.7739 0.33823 0.26427 0.0
C512 C 0.74969 0.33274 0.32707 0.0
C513 C 0.73525 0.34309 0.36495 0.0
C514 C 0.77472 0.41105 0.26417 0.0
C515 C 0.7621 0.37123 0.29736 0.0
C516 C 0.78613 0.42484 0.22646 0.0
C517 C 0.79806 0.41424 0.18472 0.0
C518 C 0.77521 0.38648 0.26013 0.0
C519 C 0.79865 0.38961 0.18297 0.0
C520 C 0.76308 0.34668 0.2934 0.0
C521 C 0.73506 0.36771 0.3683 0.0
N522 N 0.78728 0.3766 0.21992 0.0
N523 N 0.74821 0.38094 0.33478 0.0
H524 H 0.14287 0.25419 0.89021 0.0
H525 H 0.04144 0.22726 0.68452 0.0
H526 H 0.1094 0.18628 0.88256 0.0
H527 H 0.06081 0.2976 0.73016 0.0
H528 H 0.06487 0.21172 0.75834 0.0
H529 H 0.11201 0.27041 0.83333 0.0
C530 C 0.12884 0.24274 0.87688 0.0
C531 C 0.12877 0.21882 0.89063 0.0
C532 C 0.06373 0.23056 0.75253 0.0
C533 C 0.09351 0.23721 0.82482 0.0
C534 C 0.05029 0.23948 0.71048 0.0
C535 C 0.04937 0.2638 0.7006 0.0
C536 C 0.07654 0.24605 0.78459 0.0
C537 C 0.06146 0.27871 0.73535 0.0
C538 C 0.11118 0.25203 0.84454 0.0
C539 C 0.11007 0.20482 0.87277 0.0
N540 N 0.07474 0.26959 0.77536 0.0
N541 N 0.09335 0.21415 0.83997 0.0
H542 H 0.32756 0.61812 0.4147 0.0
H543 H 0.2849 0.56803 0.13694 0.0
H544 H 0.27128 0.64889 0.32139 0.0
H545 H 0.33319 0.53115 0.24107 0.0
H546 H 0.27916 0.59739 0.20492 0.0
H547 H 0.32943 0.58574 0.35254 0.0
C548 C 0.31549 0.61803 0.38136 0.0
C549 C 0.29935 0.63641 0.37314 0.0
C550 C 0.29091 0.58281 0.21304 0.0
C551 C 0.30153 0.59938 0.3016 0.0
C552 C 0.29411 0.56593 0.1743 0.0
C553 C 0.30961 0.54707 0.18315 0.0
C554 C 0.30341 0.58096 0.26098 0.0
C555 C 0.32138 0.54558 0.23209 0.0
C556 C 0.31657 0.59949 0.3459 0.0
C557 C 0.28407 0.63519 0.32934 0.0
N558 N 0.31812 0.56236 0.26904 0.0
N559 N 0.28567 0.61711 0.29503 0.0
H560 H 0.32013 0.75926 0.65279 0.0
H561 H 0.44311 0.76718 0.80116 0.0
H562 H 0.37884 0.71515 0.61251 0.0
H563 H 0.39363 0.82475 0.79613 0.0
H564 H 0.4196 0.74704 0.73458 0.0
H565 H 0.34616 0.78235 0.70923 0.0
C566 C 0.33851 0.75442 0.65581 0.0
C567 C 0.34729 0.73513 0.62813 0.0
C568 C 0.41403 0.76418 0.74774 0.0
C569 C 0.37716 0.76149 0.69287 0.0
C570 C 0.42754 0.77582 0.78558 0.0
C571 C 0.42036 0.79775 0.80473 0.0
C572 C 0.39298 0.77432 0.72936 0.0
C573 C 0.39966 0.8077 0.78356 0.0
C574 C 0.35338 0.76771 0.68779 0.0
C575 C 0.37132 0.72986 0.63314 0.0
N576 N 0.38659 0.79581 0.74744 0.0
N577 N 0.38539 0.74283 0.66534 0.0
H578 H 0.77387 0.86668 0.07806 0.0
H579 H 0.73593 0.95613 0.23907 0.0
H580 H 0.73656 0.81948 0.18205 0.0
H581 H 0.72956 0.901 0.35619 0.0
H582 H 0.73937 0.92636 0.17096 0.0
H583 H 0.76242 0.89944 0.13266 0.0
C584 C 0.76295 0.86322 0.11201 0.0
C585 C 0.75632 0.8402 0.12561 0.0
C586 C 0.73741 0.92072 0.21155 0.0
C587 C 0.74257 0.87794 0.18808 0.0
C588 C 0.73527 0.93775 0.25043 0.0
C589 C 0.73282 0.93106 0.30352 0.0
C590 C 0.73739 0.89681 0.226 0.0
C591 C 0.7314 0.90699 0.31579 0.0
C592 C 0.75614 0.88207 0.14296 0.0
C593 C 0.74213 0.83689 0.17005 0.0
N594 N 0.73392 0.89075 0.27739 0.0
N595 N 0.736 0.85553 0.20007 0.0
H596 H 0.62313 0.33603 0.59671 0.0
H597 H 0.54585 0.2673 0.81002 0.0
H598 H 0.63733 0.26496 0.64926 0.0
H599 H 0.54228 0.34235 0.78453 0.0
H600 H 0.57552 0.26484 0.7415 0.0
H601 H 0.58939 0.33717 0.65542 0.0
C602 C 0.61908 0.3206 0.62023 0.0
C603 C 0.63325 0.30043 0.61834 0.0
C604 C 0.56815 0.28182 0.75075 0.0
C605 C 0.59464 0.30166 0.68555 0.0
C606 C 0.55129 0.28328 0.79005 0.0
C607 C 0.54172 0.30511 0.80355 0.0
C608 C 0.57547 0.30233 0.7245 0.0
C609 C 0.54903 0.32512 0.77528 0.0
C610 C 0.59985 0.3213 0.65386 0.0
C611 C 0.62708 0.28097 0.64974 0.0
N612 N 0.56556 0.32326 0.7373 0.0
N613 N 0.60829 0.2821 0.68214 0.0
H614 H 0.17988 0.11365 0.13087 0.0
H615 H 0.29272 0.05626 0.27271 0.0
H616 H 0.25061 0.13967 0.11315 0.0
H617 H 0.22258 0.05017 0.33412 0.0
H618 H 0.27697 0.07883 0.19738 0.0
H619 H 0.19507 0.08232 0.18934 0.0
C620 C 0.1986 0.11252 0.13859 0.0
C621 C 0.214 0.12941 0.1179 0.0
C622 C 0.26501 0.07229 0.22707 0.0
C623 C 0.23139 0.09376 0.18386 0.0
C624 C 0.27396 0.05935 0.26979 0.0
C625 C 0.25892 0.05166 0.30981 0.0
C626 C 0.24086 0.07731 0.22421 0.0
C627 C 0.23476 0.05617 0.30438 0.0
C628 C 0.20723 0.09476 0.17201 0.0
C629 C 0.23811 0.1272 0.12905 0.0
N630 N 0.22647 0.06883 0.26247 0.0
N631 N 0.24606 0.10977 0.16145 0.0
H632 H 0.21835 0.27966 0.09482 0.0
H633 H 0.24862 0.39641 0.93153 0.0
H634 H 0.20968 0.28594 0.92569 0.0
H635 H 0.27324 0.38187 0.09036 0.0
H636 H 0.22715 0.35919 0.93272 0.0
H637 H 0.23054 0.32068 0.09767 0.0
C638 C 0.21868 0.2897 0.05832 0.0
C639 C 0.21335 0.27915 0.00978 0.0
C640 C 0.2371 0.36431 0.96742 0.0
C641 C 0.22743 0.32616 0.01293 0.0
C642 C 0.24948 0.38547 0.9667 0.0
C643 C 0.263 0.39224 0.01072 0.0
C644 C 0.23812 0.34986 0.01257 0.0
C645 C 0.26294 0.37758 0.05563 0.0
C646 C 0.22574 0.31313 0.06002 0.0
C647 C 0.21393 0.29321 0.96393 0.0
N648 N 0.25083 0.35704 0.05526 0.0
N649 N 0.22109 0.31594 0.96656 0.0
H650 H 0.20465 0.68072 0.41922 0.0
H651 H 0.0898 0.69602 0.59109 0.0
H652 H 0.20493 0.68402 0.58941 0.0
H653 H 0.08988 0.69585 0.42082 0.0
H654 H 0.1307 0.68319 0.59166 0.0
H655 H 0.16192 0.67785 0.41985 0.0
C656 C 0.1958 0.68048 0.45683 0.0
C657 C 0.20846 0.68314 0.5043 0.0
C658 C 0.12168 0.6856 0.55415 0.0
C659 C 0.15939 0.68005 0.50517 0.0
C660 C 0.09824 0.69277 0.55378 0.0
C661 C 0.08648 0.69737 0.50578 0.0
C662 C 0.13352 0.68313 0.5062 0.0
C663 C 0.09843 0.69304 0.45872 0.0
C664 C 0.17135 0.67886 0.45712 0.0
C665 C 0.19595 0.68236 0.55176 0.0
N666 N 0.12138 0.68647 0.46011 0.0
N667 N 0.1721 0.68127 0.55093 0.0
H668 H 0.79147 0.69157 0.09381 0.0
H669 H 0.78114 0.56895 0.94598 0.0
H670 H 0.76126 0.68479 0.93767 0.0
H671 H 0.83401 0.58265 0.06548 0.0
H672 H 0.7687 0.60988 0.95052 0.0
H673 H 0.80167 0.64976 0.09294 0.0
C674 C 0.78675 0.68125 0.05961 0.0
C675 C 0.77559 0.6917 0.01564 0.0
C676 C 0.78301 0.60386 0.97572 0.0
C677 C 0.78716 0.64399 0.01452 0.0
C678 C 0.79029 0.58052 0.97292 0.0
C679 C 0.80882 0.57222 0.00515 0.0
C680 C 0.79409 0.61901 0.01149 0.0
C681 C 0.81946 0.58805 0.04033 0.0
C682 C 0.79272 0.65746 0.05903 0.0
C683 C 0.77002 0.6775 0.97227 0.0
N684 N 0.81192 0.61066 0.04263 0.0
N685 N 0.77583 0.65437 0.97283 0.0
H686 H 0.77878 0.2571 0.4159 0.0
H687 H 0.89632 0.27357 0.58672 0.0
H688 H 0.78 0.26404 0.58551 0.0
H689 H 0.89433 0.27156 0.41654 0.0
H690 H 0.85425 0.26518 0.58787 0.0
H691 H 0.82159 0.25682 0.41652 0.0
C692 C 0.788 0.25828 0.45339 0.0
C693 C 0.77568 0.2609 0.50069 0.0
C694 C 0.86304 0.26641 0.55028 0.0
C695 C 0.82482 0.26077 0.5015 0.0
C696 C 0.88703 0.27134 0.54958 0.0
C697 C 0.89881 0.27353 0.50143 0.0
C698 C 0.85069 0.26368 0.50247 0.0
C699 C 0.886 0.26993 0.45458 0.0
C700 C 0.81249 0.25818 0.45365 0.0
C701 C 0.78868 0.26218 0.54801 0.0
N702 N 0.86259 0.26537 0.45627 0.0
N703 N 0.81254 0.26235 0.54714 0.0
H704 H 0.67882 0.20353 0.41261 0.0
H705 H 0.69034 0.08815 0.59098 0.0
H706 H 0.68084 0.20359 0.58303 0.0
H707 H 0.69198 0.08854 0.4208 0.0
H708 H 0.6788 0.1295 0.58864 0.0
H709 H 0.67527 0.16083 0.41489 0.0
C710 C 0.67815 0.19465 0.45056 0.0
C711 C 0.68065 0.20721 0.4977 0.0
C712 C 0.68132 0.12045 0.55177 0.0
C713 C 0.67678 0.15822 0.50048 0.0
C714 C 0.68798 0.09686 0.5531 0.0
C715 C 0.6925 0.08497 0.50605 0.0
C716 C 0.67934 0.1323 0.50304 0.0
C717 C 0.68868 0.09698 0.45806 0.0
C718 C 0.67616 0.17022 0.4518 0.0
C719 C 0.67936 0.19468 0.54563 0.0
N720 N 0.68268 0.12008 0.45782 0.0
N721 N 0.67788 0.17086 0.54575 0.0
H722 H 0.27975 0.20834 0.89519 0.0
H723 H 0.39762 0.23119 0.05949 0.0
H724 H 0.2879 0.19436 0.0622 0.0
H725 H 0.38702 0.25248 0.89706 0.0
H726 H 0.36042 0.20981 0.05606 0.0
H727 H 0.32187 0.21616 0.89016 0.0
C728 C 0.29043 0.20646 0.93063 0.0
C729 C 0.28015 0.20119 0.97944 0.0
C730 C 0.36638 0.2189 0.02094 0.0
C731 C 0.32832 0.21033 0.97396 0.0
C732 C 0.38756 0.23119 0.02296 0.0
C733 C 0.39524 0.24397 0.97877 0.0
C734 C 0.35269 0.21949 0.97449 0.0
C735 C 0.38178 0.24289 0.93209 0.0
C736 C 0.31448 0.21104 0.92774 0.0
C737 C 0.29495 0.19884 0.0239 0.0
N738 N 0.361 0.23115 0.93139 0.0
N739 N 0.31821 0.20375 0.02023 0.0
H740 H 0.2618 0.78016 0.58834 0.0
H741 H 0.26644 0.89981 0.42092 0.0
H742 H 0.2624 0.78271 0.41791 0.0
H743 H 0.27706 0.8954 0.58955 0.0
H744 H 0.25896 0.85748 0.41949 0.0
H745 H 0.26105 0.8229 0.58958 0.0
C746 C 0.26151 0.78965 0.55109 0.0
C747 C 0.26245 0.77773 0.50291 0.0
C748 C 0.2628 0.86581 0.45682 0.0
C749 C 0.26176 0.82683 0.50422 0.0
C750 C 0.26697 0.88996 0.4577 0.0
C751 C 0.27256 0.90106 0.50539 0.0
C752 C 0.26414 0.85272 0.50402 0.0
C753 C 0.2732 0.88746 0.55182 0.0
C754 C 0.26116 0.81411 0.55189 0.0
C755 C 0.26188 0.7911 0.45601 0.0
N756 N 0.26911 0.86399 0.54995 0.0
N757 N 0.26177 0.81495 0.45786 0.0
H758 H 0.69153 0.77597 0.91347 0.0
H759 H 0.57241 0.78458 0.07707 0.0
H760 H 0.68715 0.76107 0.08053 0.0
H761 H 0.58009 0.81181 0.9187 0.0
H762 H 0.61325 0.77127 0.07581 0.0
H763 H 0.64945 0.78434 0.91154 0.0
C764 C 0.68172 0.77421 0.94967 0.0
C765 C 0.693 0.76794 0.99734 0.0
C766 C 0.60599 0.78011 0.04128 0.0
C767 C 0.64479 0.77764 0.99532 0.0
C768 C 0.58266 0.7876 0.04189 0.0
C769 C 0.57289 0.79941 0.998 0.0
C770 C 0.61963 0.78432 0.99635 0.0
C771 C 0.58703 0.80307 0.95365 0.0
C772 C 0.6577 0.77911 0.94854 0.0
C773 C 0.67929 0.76599 0.04294 0.0
N774 N 0.60969 0.79555 0.95397 0.0
N775 N 0.65594 0.77091 0.04082 0.0
loop_
_geom_bond_atom_site_label_1
_geom_bond_atom_site_label_2
_geom_bond_distance
_geom_bond_site_symmetry_2
_ccdc_geom_bond_type
Sc0 O3 2.025 . S
Sc0 O10 2.105 . S
Sc0 O13 2.105 . S
Sc0 O16 2.105 . S
Sc0 O19 2.105 . S
Sc1 O3 2.025 . S
Sc1 O11 2.105 . S
Sc1 O15 2.105 1_554 S
Sc1 O17 2.105 . S
Sc1 O21 2.105 1_554 S
Sc2 O3 2.025 1_556 S
Sc2 O12 2.105 . S
Sc2 O14 2.105 . S
Sc2 O18 2.105 . S
Sc2 O20 2.105 . S
O3 Sc0 2.025 . S
O3 Sc1 2.025 . S
O3 Sc2 2.025 1_554 S
C4 O10 1.268 . S
C4 O20 1.268 1_554 S
C5 O11 1.268 . S
C5 O19 1.268 . S
C6 O12 1.268 . S
C6 O21 1.268 . S
C7 O13 1.268 . S
C7 O17 1.268 . S
C8 O14 1.268 1_554 S
C8 O16 1.268 . S
C9 O15 1.268 . S
C9 O18 1.268 . S
O10 Sc0 2.105 . S
O10 C4 1.268 . S
O11 Sc1 2.105 . S
O11 C5 1.268 . S
O12 Sc2 2.105 . S
O12 C6 1.268 . S
O13 Sc0 2.105 . S
O13 C7 1.268 . S
O14 Sc2 2.105 . S
O14 C8 1.268 1_556 S
O15 Sc1 2.105 1_556 S
O15 C9 1.268 . S
O16 Sc0 2.105 . S
O16 C8 1.268 . S
O17 Sc1 2.105 . S
O17 C7 1.268 . S
O18 Sc2 2.105 . S
O18 C9 1.268 . S
O19 Sc0 2.105 . S
O19 C5 1.268 . S
O20 Sc2 2.105 . S
O20 C4 1.268 1_556 S
O21 Sc1 2.105 1_556 S
O21 C6 1.268 . S
Sc22 O25 2.025 . S
Sc22 O32 2.105 . S
Sc22 O35 2.105 . S
Sc22 O38 2.105 . S
Sc22 O41 2.105 . S
Sc23 O25 2.025 . S
Sc23 O33 2.105 . S
Sc23 O37 2.105 . S
Sc23 O39 2.105 . S
Sc23 O43 2.105 . S
Sc24 O25 2.025 . S
Sc24 O34 2.105 . S
Sc24 O36 2.105 . S
Sc24 O40 2.105 . S
Sc24 O42 2.105 . S
O25 Sc22 2.025 . S
O25 Sc23 2.025 . S
O25 Sc24 2.025 . S
C26 O32 1.268 . S
C26 O42 1.268 . S
C27 O33 1.268 . S
C27 O41 1.268 . S
C28 O34 1.268 . S
C28 O43 1.268 . S
C29 O35 1.268 . S
C29 O39 1.268 . S
C30 O36 1.268 . S
C30 O38 1.268 . S
C31 O37 1.268 . S
C31 O40 1.268 . S
O32 Sc22 2.105 . S
O32 C26 1.268 . S
O33 Sc23 2.105 . S
O33 C27 1.268 . S
O34 Sc24 2.105 . S
O34 C28 1.268 . S
O35 Sc22 2.105 . S
O35 C29 1.268 . S
O36 Sc24 2.105 . S
O36 C30 1.268 . S
O37 Sc23 2.105 . S
O37 C31 1.268 . S
O38 Sc22 2.105 . S
O38 C30 1.268 . S
O39 Sc23 2.105 . S
O39 C29 1.268 . S
O40 Sc24 2.105 . S
O40 C31 1.268 . S
O41 Sc22 2.105 . S
O41 C27 1.268 . S
O42 Sc24 2.105 . S
O42 C26 1.268 . S
O43 Sc23 2.105 . S
O43 C28 1.268 . S
Sc44 O47 2.025 1_556 S
Sc44 O54 2.105 . S
Sc44 O57 2.105 . S
Sc44 O60 2.105 . S
Sc44 O63 2.105 . S
Sc45 O47 2.025 . S
Sc45 O55 2.105 1_554 S
Sc45 O59 2.105 . S
Sc45 O61 2.105 1_554 S
Sc45 O65 2.105 . S
Sc46 O47 2.025 . S
Sc46 O56 2.105 . S
Sc46 O58 2.105 . S
Sc46 O62 2.105 . S
Sc46 O64 2.105 . S
O47 Sc44 2.025 1_554 S
O47 Sc45 2.025 . S
O47 Sc46 2.025 . S
C48 O54 1.268 1_554 S
C48 O64 1.268 . S
C49 O55 1.268 . S
C49 O63 1.268 . S
C50 O56 1.268 . S
C50 O65 1.268 . S
C51 O57 1.268 . S
C51 O61 1.268 . S
C52 O58 1.268 . S
C52 O60 1.268 1_554 S
C53 O59 1.268 . S
C53 O62 1.268 . S
O54 Sc44 2.105 . S
O54 C48 1.268 1_556 S
O55 Sc45 2.105 1_556 S
O55 C49 1.268 . S
O56 Sc46 2.105 . S
O56 C50 1.268 . S
O57 Sc44 2.105 . S
O57 C51 1.268 . S
O58 Sc46 2.105 . S
O58 C52 1.268 . S
O59 Sc45 2.105 . S
O59 C53 1.268 . S
O60 Sc44 2.105 . S
O60 C52 1.268 1_556 S
O61 Sc45 2.105 1_556 S
O61 C51 1.268 . S
O62 Sc46 2.105 . S
O62 C53 1.268 . S
O63 Sc44 2.105 . S
O63 C49 1.268 . S
O64 Sc46 2.105 . S
O64 C48 1.268 . S
O65 Sc45 2.105 . S
O65 C50 1.268 . S
Sc66 O69 2.025 . S
Sc66 O76 2.105 . S
Sc66 O79 2.105 . S
Sc66 O82 2.105 . S
Sc66 O85 2.105 . S
Sc67 O69 2.025 . S
Sc67 O77 2.105 . S
Sc67 O81 2.105 . S
Sc67 O83 2.105 . S
Sc67 O87 2.105 . S
Sc68 O69 2.025 . S
Sc68 O78 2.105 . S
Sc68 O80 2.105 . S
Sc68 O84 2.105 . S
Sc68 O86 2.105 . S
O69 Sc66 2.025 . S
O69 Sc67 2.025 . S
O69 Sc68 2.025 . S
C70 O76 1.268 . S
C70 O86 1.268 . S
C71 O77 1.268 . S
C71 O85 1.268 . S
C72 O78 1.268 . S
C72 O87 1.268 . S
C73 O79 1.268 . S
C73 O83 1.268 . S
C74 O80 1.268 . S
C74 O82 1.268 . S
C75 O81 1.268 . S
C75 O84 1.268 . S
O76 Sc66 2.105 . S
O76 C70 1.268 . S
O77 Sc67 2.105 . S
O77 C71 1.268 . S
O78 Sc68 2.105 . S
O78 C72 1.268 . S
O79 Sc66 2.105 . S
O79 C73 1.268 . S
O80 Sc68 2.105 . S
O80 C74 1.268 . S
O81 Sc67 2.105 . S
O81 C75 1.268 . S
O82 Sc66 2.105 . S
O82 C74 1.268 . S
O83 Sc67 2.105 . S
O83 C73 1.268 . S
O84 Sc68 2.105 . S
O84 C75 1.268 . S
O85 Sc66 2.105 . S
O85 C71 1.268 . S
O86 Sc68 2.105 . S
O86 C70 1.268 . S
O87 Sc67 2.105 . S
O87 C72 1.268 . S
P88 O99 1.490 . S
P88 C102 1.812 . S
P88 C108 1.803 . S
P88 C114 1.819 1_554 S
H89 C103 0.941 . S
H90 C104 0.939 . S
H91 C106 0.940 . S
H92 C107 0.940 . S
H93 C109 0.939 . S
H94 C110 0.942 . S
H95 C112 0.940 . S
H96 C113 0.939 . S
H97 C115 0.941 . S
H98 C119 0.939 . S
O99 P88 1.490 . S
H100 C116 0.939 . S
H101 C118 0.940 . S
C102 P88 1.812 . S
C102 C103 1.389 . S
C102 C107 1.391 . S
C103 H89 0.941 . S
C103 C102 1.389 . S
C103 C104 1.397 . S
C104 H90 0.939 . S
C104 C103 1.397 . S
C104 C105 1.378 . S
C105 C104 1.378 . S
C105 C106 1.378 . S
C106 H91 0.940 . S
C106 C105 1.378 . S
C106 C107 1.396 . S
C107 H92 0.940 . S
C107 C102 1.391 . S
C107 C106 1.396 . S
C108 P88 1.803 . S
C108 C109 1.378 1_554 S
C108 C113 1.400 . S
C109 H93 0.939 . S
C109 C108 1.378 1_556 S
C109 C110 1.361 . S
C110 H94 0.942 . S
C110 C109 1.361 . S
C110 C111 1.369 1_556 S
C111 C110 1.369 1_554 S
C111 C112 1.404 . S
C112 H95 0.940 . S
C112 C111 1.404 . S
C112 C113 1.389 . S
C113 H96 0.939 . S
C113 C108 1.400 . S
C113 C112 1.389 . S
C114 P88 1.819 1_556 S
C114 C115 1.391 . S
C114 C119 1.391 . S
C115 H97 0.941 . S
C115 C114 1.391 . S
C115 C116 1.396 . S
C116 H100 0.939 . S
C116 C115 1.396 . S
C116 C117 1.397 . S
C117 C116 1.397 . S
C117 C118 1.385 . S
C118 H101 0.940 . S
C118 C117 1.385 . S
C118 C119 1.388 . S
C119 H98 0.939 . S
C119 C114 1.391 . S
C119 C118 1.388 . S
P120 O131 1.490 . S
P120 C134 1.812 . S
P120 C140 1.803 1_655 S
P120 C146 1.819 . S
H121 C135 0.941 . S
H122 C136 0.939 . S
H123 C138 0.940 . S
H124 C139 0.940 . S
H125 C141 0.939 . S
H126 C142 0.942 . S
H127 C144 0.940 . S
H128 C145 0.939 . S
H129 C147 0.941 . S
H130 C151 0.939 . S
O131 P120 1.490 . S
H132 C148 0.939 . S
H133 C150 0.940 . S
C134 P120 1.812 . S
C134 C135 1.389 . S
C134 C139 1.391 . S
C135 H121 0.941 . S
C135 C134 1.389 . S
C135 C136 1.397 . S
C136 H122 0.939 . S
C136 C135 1.397 . S
C136 C137 1.378 . S
C137 C136 1.378 . S
C137 C138 1.378 . S
C138 H123 0.940 . S
C138 C137 1.378 . S
C138 C139 1.396 . S
C139 H124 0.940 . S
C139 C134 1.391 . S
C139 C138 1.396 . S
C140 P120 1.803 1_455 S
C140 C141 1.378 . S
C140 C145 1.400 . S
C141 H125 0.939 . S
C141 C140 1.378 . S
C141 C142 1.361 . S
C142 H126 0.942 . S
C142 C141 1.361 . S
C142 C143 1.369 . S
C143 C142 1.369 . S
C143 C144 1.404 . S
C144 H127 0.940 . S
C144 C143 1.404 . S
C144 C145 1.389 . S
C145 H128 0.939 . S
C145 C140 1.400 . S
C145 C144 1.389 . S
C146 P120 1.819 . S
C146 C147 1.391 . S
C146 C151 1.391 . S
C147 H129 0.941 . S
C147 C146 1.391 . S
C147 C148 1.396 . S
C148 H132 0.939 . S
C148 C147 1.396 . S
C148 C149 1.397 . S
C149 C148 1.397 . S
C149 C150 1.385 . S
C150 H133 0.940 . S
C150 C149 1.385 . S
C150 C151 1.388 . S
C151 H130 0.939 . S
C151 C146 1.391 . S
C151 C150 1.388 . S
P152 O163 1.490 . S
P152 C166 1.812 . S
P152 C172 1.803 . S
P152 C178 1.819 1_556 S
H153 C167 0.941 . S
H154 C168 0.939 . S
H155 C170 0.940 . S
H156 C171 0.940 . S
H157 C173 0.939 . S
H158 C174 0.942 . S
H159 C176 0.940 . S
H160 C177 0.939 . S
H161 C179 0.941 . S
H162 C183 0.939 . S
O163 P152 1.490 . S
H164 C180 0.939 . S
H165 C182 0.940 . S
C166 P152 1.812 . S
C166 C167 1.389 . S
C166 C171 1.391 . S
C167 H153 0.941 . S
C167 C166 1.389 . S
C167 C168 1.397 . S
C168 H154 0.939 . S
C168 C167 1.397 . S
C168 C169 1.378 . S
C169 C168 1.378 . S
C169 C170 1.378 . S
C170 H155 0.940 . S
C170 C169 1.378 . S
C170 C171 1.396 . S
C171 H156 0.940 . S
C171 C166 1.391 . S
C171 C170 1.396 . S
C172 P152 1.803 . S
C172 C173 1.378 1_556 S
C172 C177 1.400 . S
C173 H157 0.939 . S
C173 C172 1.378 1_554 S
C173 C174 1.361 . S
C174 H158 0.942 . S
C174 C173 1.361 . S
C174 C175 1.369 . S
C175 C174 1.369 . S
C175 C176 1.404 1_554 S
C176 H159 0.940 . S
C176 C175 1.404 1_556 S
C176 C177 1.389 . S
C177 H160 0.939 . S
C177 C172 1.400 . S
C177 C176 1.389 . S
C178 P152 1.819 1_554 S
C178 C179 1.391 . S
C178 C183 1.391 . S
C179 H161 0.941 . S
C179 C178 1.391 . S
C179 C180 1.396 . S
C180 H164 0.939 . S
C180 C179 1.396 . S
C180 C181 1.397 . S
C181 C180 1.397 . S
C181 C182 1.385 . S
C182 H165 0.940 . S
C182 C181 1.385 . S
C182 C183 1.388 . S
C183 H162 0.939 . S
C183 C178 1.391 . S
C183 C182 1.388 . S
P184 O195 1.490 . S
P184 C198 1.812 . S
P184 C204 1.803 1_455 S
P184 C210 1.819 . S
H185 C199 0.941 . S
H186 C200 0.939 . S
H187 C202 0.940 . S
H188 C203 0.940 . S
H189 C205 0.939 . S
H190 C206 0.942 . S
H191 C208 0.940 . S
H192 C209 0.939 . S
H193 C211 0.941 . S
H194 C215 0.939 . S
O195 P184 1.490 . S
H196 C212 0.939 . S
H197 C214 0.940 . S
C198 P184 1.812 . S
C198 C199 1.389 . S
C198 C203 1.391 . S
C199 H185 0.941 . S
C199 C198 1.389 . S
C199 C200 1.397 . S
C200 H186 0.939 . S
C200 C199 1.397 . S
C200 C201 1.378 . S
C201 C200 1.378 . S
C201 C202 1.378 . S
C202 H187 0.940 . S
C202 C201 1.378 . S
C202 C203 1.396 . S
C203 H188 0.940 . S
C203 C198 1.391 . S
C203 C202 1.396 . S
C204 P184 1.803 1_655 S
C204 C205 1.378 . S
C204 C209 1.400 . S
C205 H189 0.939 . S
C205 C204 1.378 . S
C205 C206 1.361 . S
C206 H190 0.942 . S
C206 C205 1.361 . S
C206 C207 1.369 . S
C207 C206 1.369 . S
C207 C208 1.404 . S
C208 H191 0.940 . S
C208 C207 1.404 . S
C208 C209 1.389 . S
C209 H192 0.939 . S
C209 C204 1.400 . S
C209 C208 1.389 . S
C210 P184 1.819 . S
C210 C211 1.391 . S
C210 C215 1.391 . S
C211 H193 0.941 . S
C211 C210 1.391 . S
C211 C212 1.396 . S
C212 H196 0.939 . S
C212 C211 1.396 . S
C212 C213 1.397 . S
C213 C212 1.397 . S
C213 C214 1.385 . S
C214 H197 0.940 . S
C214 C213 1.385 . S
C214 C215 1.388 . S
C215 H194 0.939 . S
C215 C210 1.391 . S
C215 C214 1.388 . S
P216 O227 1.490 . S
P216 C230 1.812 . S
P216 C236 1.803 1_565 S
P216 C242 1.819 . S
H217 C231 0.941 . S
H218 C232 0.939 . S
H219 C234 0.940 . S
H220 C235 0.940 . S
H221 C237 0.939 . S
H222 C238 0.942 . S
H223 C240 0.940 . S
H224 C241 0.939 . S
H225 C243 0.941 . S
H226 C247 0.939 . S
O227 P216 1.490 . S
H228 C244 0.939 . S
H229 C246 0.940 . S
C230 P216 1.812 . S
C230 C231 1.389 . S
C230 C235 1.391 . S
C231 H217 0.941 . S
C231 C230 1.389 . S
C231 C232 1.397 . S
C232 H218 0.939 . S
C232 C231 1.397 . S
C232 C233 1.378 . S
C233 C232 1.378 . S
C233 C234 1.378 . S
C234 H219 0.940 . S
C234 C233 1.378 . S
C234 C235 1.396 . S
C235 H220 0.940 . S
C235 C230 1.391 . S
C235 C234 1.396 . S
C236 P216 1.803 1_545 S
C236 C237 1.378 . S
C236 C241 1.400 . S
C237 H221 0.939 . S
C237 C236 1.378 . S
C237 C238 1.361 . S
C238 H222 0.942 . S
C238 C237 1.361 . S
C238 C239 1.369 . S
C239 C238 1.369 . S
C239 C240 1.404 . S
C240 H223 0.940 . S
C240 C239 1.404 . S
C240 C241 1.389 . S
C241 H224 0.939 . S
C241 C236 1.400 . S
C241 C240 1.389 . S
C242 P216 1.819 . S
C242 C243 1.391 . S
C242 C247 1.391 . S
C243 H225 0.941 . S
C243 C242 1.391 . S
C243 C244 1.396 . S
C244 H228 0.939 . S
C244 C243 1.396 . S
C244 C245 1.397 . S
C245 C244 1.397 . S
C245 C246 1.385 . S
C246 H229 0.940 . S
C246 C245 1.385 . S
C246 C247 1.388 . S
C247 H226 0.939 . S
C247 C242 1.391 . S
C247 C246 1.388 . S
P248 O259 1.490 . S
P248 C262 1.812 . S
P248 C268 1.803 . S
P248 C274 1.819 1_556 S
H249 C263 0.941 . S
H250 C264 0.939 . S
H251 C266 0.940 . S
H252 C267 0.940 . S
H253 C269 0.939 . S
H254 C270 0.942 . S
H255 C272 0.940 . S
H256 C273 0.939 . S
H257 C275 0.941 . S
H258 C279 0.939 . S
O259 P248 1.490 . S
H260 C276 0.939 . S
H261 C278 0.940 . S
C262 P248 1.812 . S
C262 C263 1.389 . S
C262 C267 1.391 . S
C263 H249 0.941 . S
C263 C262 1.389 . S
C263 C264 1.397 . S
C264 H250 0.939 . S
C264 C263 1.397 . S
C264 C265 1.378 . S
C265 C264 1.378 . S
C265 C266 1.378 . S
C266 H251 0.940 . S
C266 C265 1.378 . S
C266 C267 1.396 . S
C267 H252 0.940 . S
C267 C262 1.391 . S
C267 C266 1.396 . S
C268 P248 1.803 . S
C268 C269 1.378 1_556 S
C268 C273 1.400 . S
C269 H253 0.939 . S
C269 C268 1.378 1_554 S
C269 C270 1.361 . S
C270 H254 0.942 . S
C270 C269 1.361 . S
C270 C271 1.369 . S
C271 C270 1.369 . S
C271 C272 1.404 1_554 S
C272 H255 0.940 . S
C272 C271 1.404 1_556 S
C272 C273 1.389 . S
C273 H256 0.939 . S
C273 C268 1.400 . S
C273 C272 1.389 . S
C274 P248 1.819 1_554 S
C274 C275 1.391 . S
C274 C279 1.391 . S
C275 H257 0.941 . S
C275 C274 1.391 . S
C275 C276 1.396 . S
C276 H260 0.939 . S
C276 C275 1.396 . S
C276 C277 1.397 . S
C277 C276 1.397 . S
C277 C278 1.385 . S
C278 H261 0.940 . S
C278 C277 1.385 . S
C278 C279 1.388 . S
C279 H258 0.939 . S
C279 C274 1.391 . S
C279 C278 1.388 . S
P280 O291 1.490 . S
P280 C294 1.812 . S
P280 C300 1.803 1_545 S
P280 C306 1.819 . S
H281 C295 0.941 . S
H282 C296 0.939 . S
H283 C298 0.940 . S
H284 C299 0.940 . S
H285 C301 0.939 . S
H286 C302 0.942 . S
H287 C304 0.940 . S
H288 C305 0.939 . S
H289 C307 0.941 . S
H290 C311 0.939 . S
O291 P280 1.490 . S
H292 C308 0.939 . S
H293 C310 0.940 . S
C294 P280 1.812 . S
C294 C295 1.389 . S
C294 C299 1.391 . S
C295 H281 0.941 . S
C295 C294 1.389 . S
C295 C296 1.397 . S
C296 H282 0.939 . S
C296 C295 1.397 . S
C296 C297 1.378 . S
C297 C296 1.378 . S
C297 C298 1.378 . S
C298 H283 0.940 . S
C298 C297 1.378 . S
C298 C299 1.396 . S
C299 H284 0.940 . S
C299 C294 1.391 . S
C299 C298 1.396 . S
C300 P280 1.803 1_565 S
C300 C301 1.378 . S
C300 C305 1.400 . S
C301 H285 0.939 . S
C301 C300 1.378 . S
C301 C302 1.361 . S
C302 H286 0.942 . S
C302 C301 1.361 . S
C302 C303 1.369 . S
C303 C302 1.369 . S
C303 C304 1.404 . S
C304 H287 0.940 . S
C304 C303 1.404 . S
C304 C305 1.389 . S
C305 H288 0.939 . S
C305 C300 1.400 . S
C305 C304 1.389 . S
C306 P280 1.819 . S
C306 C307 1.391 . S
C306 C311 1.391 . S
C307 H289 0.941 . S
C307 C306 1.391 . S
C307 C308 1.396 . S
C308 H292 0.939 . S
C308 C307 1.396 . S
C308 C309 1.397 . S
C309 C308 1.397 . S
C309 C310 1.385 . S
C310 H293 0.940 . S
C310 C309 1.385 . S
C310 C311 1.388 . S
C311 H290 0.939 . S
C311 C306 1.391 . S
C311 C310 1.388 . S
P312 O323 1.490 . S
P312 C326 1.812 . S
P312 C332 1.803 . S
P312 C338 1.819 1_554 S
H313 C327 0.941 . S
H314 C328 0.939 . S
H315 C330 0.940 . S
H316 C331 0.940 . S
H317 C333 0.939 . S
H318 C334 0.942 . S
H319 C336 0.940 . S
H320 C337 0.939 . S
H321 C339 0.941 . S
H322 C343 0.939 . S
O323 P312 1.490 . S
H324 C340 0.939 . S
H325 C342 0.940 . S
C326 P312 1.812 . S
C326 C327 1.389 . S
C326 C331 1.391 . S
C327 H313 0.941 . S
C327 C326 1.389 . S
C327 C328 1.397 . S
C328 H314 0.939 . S
C328 C327 1.397 . S
C328 C329 1.378 . S
C329 C328 1.378 . S
C329 C330 1.378 . S
C330 H315 0.940 . S
C330 C329 1.378 . S
C330 C331 1.396 . S
C331 H316 0.940 . S
C331 C326 1.391 . S
C331 C330 1.396 . S
C332 P312 1.803 . S
C332 C333 1.378 1_554 S
C332 C337 1.400 . S
C333 H317 0.939 . S
C333 C332 1.378 1_556 S
C333 C334 1.361 . S
C334 H318 0.942 . S
C334 C333 1.361 . S
C334 C335 1.369 1_556 S
C335 C334 1.369 1_554 S
C335 C336 1.404 . S
C336 H319 0.940 . S
C336 C335 1.404 . S
C336 C337 1.389 . S
C337 H320 0.939 . S
C337 C332 1.400 . S
C337 C336 1.389 . S
C338 P312 1.819 1_556 S
C338 C339 1.391 . S
C338 C343 1.391 . S
C339 H321 0.941 . S
C339 C338 1.391 . S
C339 C340 1.396 . S
C340 H324 0.939 . S
C340 C339 1.396 . S
C340 C341 1.397 . S
C341 C340 1.397 . S
C341 C342 1.385 . S
C342 H325 0.940 . S
C342 C341 1.385 . S
C342 C343 1.388 . S
C343 H322 0.939 . S
C343 C338 1.391 . S
C343 C342 1.388 . S
H344 C350 0.930 . S
H345 C354 0.930 . S
H346 C359 0.929 . S
H347 C357 0.929 . S
H348 C352 0.929 . S
H349 C358 0.929 . S
C350 H344 0.930 . S
C350 C351 1.367 . S
C350 C358 1.378 . S
C351 C350 1.367 . S
C351 C359 1.433 . S
C352 H348 0.929 . S
C352 C354 1.378 . S
C352 C356 1.350 . S
C353 C356 1.463 . S
C353 C358 1.350 . S
C353 N361 1.427 . S
C354 H345 0.930 . S
C354 C352 1.378 . S
C354 C355 1.367 . S
C355 C354 1.367 . S
C355 C357 1.433 . S
C356 C352 1.350 . S
C356 C353 1.463 . S
C356 N360 1.427 . S
C357 H347 0.929 . S
C357 C355 1.433 . S
C357 N360 1.384 . S
C358 H349 0.929 . S
C358 C350 1.378 . S
C358 C353 1.350 . S
C359 H346 0.929 . S
C359 C351 1.433 . S
C359 N361 1.384 . S
N360 C356 1.427 . S
N360 C357 1.384 . S
N361 C353 1.427 . S
N361 C359 1.384 . S
H362 C368 0.930 . S
H363 C372 0.930 . S
H364 C377 0.929 . S
H365 C375 0.929 . S
H366 C370 0.929 . S
H367 C376 0.929 . S
C368 H362 0.930 . S
C368 C369 1.367 . S
C368 C376 1.378 . S
C369 C368 1.367 . S
C369 C377 1.433 . S
C370 H366 0.929 . S
C370 C372 1.378 . S
C370 C374 1.350 . S
C371 C374 1.463 . S
C371 C376 1.350 . S
C371 N379 1.427 . S
C372 H363 0.930 . S
C372 C370 1.378 . S
C372 C373 1.367 . S
C373 C372 1.367 . S
C373 C375 1.433 . S
C374 C370 1.350 . S
C374 C371 1.463 . S
C374 N378 1.427 . S
C375 H365 0.929 . S
C375 C373 1.433 . S
C375 N378 1.384 . S
C376 H367 0.929 . S
C376 C368 1.378 . S
C376 C371 1.350 . S
C377 H364 0.929 . S
C377 C369 1.433 . S
C377 N379 1.384 . S
N378 C374 1.427 . S
N378 C375 1.384 . S
N379 C371 1.427 . S
N379 C377 1.384 . S
H380 C386 0.930 . S
H381 C390 0.930 . S
H382 C395 0.929 . S
H383 C393 0.929 . S
H384 C388 0.929 . S
H385 C394 0.929 . S
C386 H380 0.930 . S
C386 C387 1.367 . S
C386 C394 1.378 . S
C387 C386 1.367 . S
C387 C395 1.433 . S
C388 H384 0.929 . S
C388 C390 1.378 . S
C388 C392 1.350 . S
C389 C392 1.463 . S
C389 C394 1.350 . S
C389 N397 1.427 . S
C390 H381 0.930 . S
C390 C388 1.378 . S
C390 C391 1.367 . S
C391 C390 1.367 . S
C391 C393 1.433 . S
C392 C388 1.350 . S
C392 C389 1.463 . S
C392 N396 1.427 . S
C393 H383 0.929 . S
C393 C391 1.433 . S
C393 N396 1.384 . S
C394 H385 0.929 . S
C394 C386 1.378 . S
C394 C389 1.350 . S
C395 H382 0.929 . S
C395 C387 1.433 . S
C395 N397 1.384 . S
N396 C392 1.427 . S
N396 C393 1.384 . S
N397 C389 1.427 . S
N397 C395 1.384 . S
H398 C404 0.930 . S
H399 C408 0.930 . S
H400 C413 0.929 . S
H401 C411 0.929 . S
H402 C406 0.929 . S
H403 C412 0.929 . S
C404 H398 0.930 . S
C404 C405 1.367 . S
C404 C412 1.378 . S
C405 C404 1.367 . S
C405 C413 1.433 . S
C406 H402 0.929 . S
C406 C408 1.378 . S
C406 C410 1.350 . S
C407 C410 1.463 . S
C407 C412 1.350 . S
C407 N415 1.427 . S
C408 H399 0.930 . S
C408 C406 1.378 . S
C408 C409 1.367 . S
C409 C408 1.367 . S
C409 C411 1.433 . S
C410 C406 1.350 . S
C410 C407 1.463 . S
C410 N414 1.427 . S
C411 H401 0.929 . S
C411 C409 1.433 . S
C411 N414 1.384 . S
C412 H403 0.929 . S
C412 C404 1.378 . S
C412 C407 1.350 . S
C413 H400 0.929 . S
C413 C405 1.433 . S
C413 N415 1.384 . S
N414 C410 1.427 . S
N414 C411 1.384 . S
N415 C407 1.427 . S
N415 C413 1.384 . S
H416 C422 0.930 . S
H417 C426 0.930 . S
H418 C431 0.929 . S
H419 C429 0.929 . S
H420 C424 0.929 . S
H421 C430 0.929 . S
C422 H416 0.930 . S
C422 C423 1.367 . S
C422 C430 1.378 . S
C423 C422 1.367 . S
C423 C431 1.433 . S
C424 H420 0.929 . S
C424 C426 1.378 . S
C424 C428 1.350 . S
C425 C428 1.463 . S
C425 C430 1.350 . S
C425 N433 1.427 . S
C426 H417 0.930 . S
C426 C424 1.378 . S
C426 C427 1.367 . S
C427 C426 1.367 . S
C427 C429 1.433 . S
C428 C424 1.350 . S
C428 C425 1.463 . S
C428 N432 1.427 . S
C429 H419 0.929 . S
C429 C427 1.433 . S
C429 N432 1.384 . S
C430 H421 0.929 . S
C430 C422 1.378 . S
C430 C425 1.350 . S
C431 H418 0.929 . S
C431 C423 1.433 . S
C431 N433 1.384 . S
N432 C428 1.427 . S
N432 C429 1.384 . S
N433 C425 1.427 . S
N433 C431 1.384 . S
H434 C440 0.930 . S
H435 C444 0.930 . S
H436 C449 0.929 . S
H437 C447 0.929 . S
H438 C442 0.929 . S
H439 C448 0.929 . S
C440 H434 0.930 . S
C440 C441 1.367 . S
C440 C448 1.378 . S
C441 C440 1.367 . S
C441 C449 1.433 . S
C442 H438 0.929 . S
C442 C444 1.378 . S
C442 C446 1.350 . S
C443 C446 1.463 . S
C443 C448 1.350 . S
C443 N451 1.427 . S
C444 H435 0.930 . S
C444 C442 1.378 . S
C444 C445 1.367 . S
C445 C444 1.367 . S
C445 C447 1.433 . S
C446 C442 1.350 . S
C446 C443 1.463 . S
C446 N450 1.427 . S
C447 H437 0.929 . S
C447 C445 1.433 . S
C447 N450 1.384 . S
C448 H439 0.929 . S
C448 C440 1.378 . S
C448 C443 1.350 . S
C449 H436 0.929 . S
C449 C441 1.433 . S
C449 N451 1.384 . S
N450 C446 1.427 . S
N450 C447 1.384 . S
N451 C443 1.427 . S
N451 C449 1.384 . S
H452 C458 0.930 . S
H453 C462 0.930 . S
H454 C467 0.929 . S
H455 C465 0.929 . S
H456 C460 0.929 . S
H457 C466 0.929 . S
C458 H452 0.930 . S
C458 C459 1.367 . S
C458 C466 1.378 . S
C459 C458 1.367 . S
C459 C467 1.433 . S
C460 H456 0.929 . S
C460 C462 1.378 . S
C460 C464 1.350 . S
C461 C464 1.463 . S
C461 C466 1.350 . S
C461 N469 1.427 . S
C462 H453 0.930 . S
C462 C460 1.378 . S
C462 C463 1.367 . S
C463 C462 1.367 . S
C463 C465 1.433 . S
C464 C460 1.350 . S
C464 C461 1.463 . S
C464 N468 1.427 . S
C465 H455 0.929 . S
C465 C463 1.433 . S
C465 N468 1.384 . S
C466 H457 0.929 . S
C466 C458 1.378 . S
C466 C461 1.350 . S
C467 H454 0.929 . S
C467 C459 1.433 . S
C467 N469 1.384 . S
N468 C464 1.427 . S
N468 C465 1.384 . S
N469 C461 1.427 . S
N469 C467 1.384 . S
H470 C476 0.930 . S
H471 C480 0.930 . S
H472 C485 0.929 . S
H473 C483 0.929 . S
H474 C478 0.929 . S
H475 C484 0.929 . S
C476 H470 0.930 . S
C476 C477 1.367 . S
C476 C484 1.378 . S
C477 C476 1.367 . S
C477 C485 1.433 . S
C478 H474 0.929 . S
C478 C480 1.378 . S
C478 C482 1.350 . S
C479 C482 1.463 . S
C479 C484 1.350 . S
C479 N487 1.427 . S
C480 H471 0.930 . S
C480 C478 1.378 . S
C480 C481 1.367 . S
C481 C480 1.367 . S
C481 C483 1.433 . S
C482 C478 1.350 . S
C482 C479 1.463 . S
C482 N486 1.427 . S
C483 H473 0.929 . S
C483 C481 1.433 . S
C483 N486 1.384 . S
C484 H475 0.929 . S
C484 C476 1.378 . S
C484 C479 1.350 . S
C485 H472 0.929 . S
C485 C477 1.433 . S
C485 N487 1.384 . S
N486 C482 1.427 . S
N486 C483 1.384 . S
N487 C479 1.427 . S
N487 C485 1.384 . S
H488 C494 0.930 . S
H489 C498 0.930 . S
H490 C503 0.929 . S
H491 C501 0.929 . S
H492 C496 0.929 . S
H493 C502 0.929 . S
C494 H488 0.930 . S
C494 C495 1.367 . S
C494 C502 1.378 . S
C495 C494 1.367 . S
C495 C503 1.433 . S
C496 H492 0.929 . S
C496 C498 1.378 . S
C496 C500 1.350 . S
C497 C500 1.463 . S
C497 C502 1.350 . S
C497 N505 1.427 . S
C498 H489 0.930 . S
C498 C496 1.378 . S
C498 C499 1.367 . S
C499 C498 1.367 . S
C499 C501 1.433 . S
C500 C496 1.350 . S
C500 C497 1.463 . S
C500 N504 1.427 . S
C501 H491 0.929 . S
C501 C499 1.433 . S
C501 N504 1.384 . S
C502 H493 0.929 . S
C502 C494 1.378 . S
C502 C497 1.350 . S
C503 H490 0.929 . S
C503 C495 1.433 . S
C503 N505 1.384 . S
N504 C500 1.427 . S
N504 C501 1.384 . S
N505 C497 1.427 . S
N505 C503 1.384 . S
H506 C512 0.930 . S
H507 C516 0.930 . S
H508 C521 0.929 . S
H509 C519 0.929 . S
H510 C514 0.929 . S
H511 C520 0.929 . S
C512 H506 0.930 . S
C512 C513 1.367 . S
C512 C520 1.378 . S
C513 C512 1.367 . S
C513 C521 1.433 . S
C514 H510 0.929 . S
C514 C516 1.378 . S
C514 C518 1.350 . S
C515 C518 1.463 . S
C515 C520 1.350 . S
C515 N523 1.427 . S
C516 H507 0.930 . S
C516 C514 1.378 . S
C516 C517 1.367 . S
C517 C516 1.367 . S
C517 C519 1.433 . S
C518 C514 1.350 . S
C518 C515 1.463 . S
C518 N522 1.427 . S
C519 H509 0.929 . S
C519 C517 1.433 . S
C519 N522 1.384 . S
C520 H511 0.929 . S
C520 C512 1.378 . S
C520 C515 1.350 . S
C521 H508 0.929 . S
C521 C513 1.433 . S
C521 N523 1.384 . S
N522 C518 1.427 . S
N522 C519 1.384 . S
N523 C515 1.427 . S
N523 C521 1.384 . S
H524 C530 0.930 . S
H525 C534 0.930 . S
H526 C539 0.929 . S
H527 C537 0.929 . S
H528 C532 0.929 . S
H529 C538 0.929 . S
C530 H524 0.930 . S
C530 C531 1.367 . S
C530 C538 1.378 . S
C531 C530 1.367 . S
C531 C539 1.433 . S
C532 H528 0.929 . S
C532 C534 1.378 . S
C532 C536 1.350 . S
C533 C536 1.463 . S
C533 C538 1.350 . S
C533 N541 1.427 . S
C534 H525 0.930 . S
C534 C532 1.378 . S
C534 C535 1.367 . S
C535 C534 1.367 . S
C535 C537 1.433 . S
C536 C532 1.350 . S
C536 C533 1.463 . S
C536 N540 1.427 . S
C537 H527 0.929 . S
C537 C535 1.433 . S
C537 N540 1.384 . S
C538 H529 0.929 . S
C538 C530 1.378 . S
C538 C533 1.350 . S
C539 H526 0.929 . S
C539 C531 1.433 . S
C539 N541 1.384 . S
N540 C536 1.427 . S
N540 C537 1.384 . S
N541 C533 1.427 . S
N541 C539 1.384 . S
H542 C548 0.930 . S
H543 C552 0.930 . S
H544 C557 0.929 . S
H545 C555 0.929 . S
H546 C550 0.929 . S
H547 C556 0.929 . S
C548 H542 0.930 . S
C548 C549 1.367 . S
C548 C556 1.378 . S
C549 C548 1.367 . S
C549 C557 1.433 . S
C550 H546 0.929 . S
C550 C552 1.378 . S
C550 C554 1.350 . S
C551 C554 1.463 . S
C551 C556 1.350 . S
C551 N559 1.427 . S
C552 H543 0.930 . S
C552 C550 1.378 . S
C552 C553 1.367 . S
C553 C552 1.367 . S
C553 C555 1.433 . S
C554 C550 1.350 . S
C554 C551 1.463 . S
C554 N558 1.427 . S
C555 H545 0.929 . S
C555 C553 1.433 . S
C555 N558 1.384 . S
C556 H547 0.929 . S
C556 C548 1.378 . S
C556 C551 1.350 . S
C557 H544 0.929 . S
C557 C549 1.433 . S
C557 N559 1.384 . S
N558 C554 1.427 . S
N558 C555 1.384 . S
N559 C551 1.427 . S
N559 C557 1.384 . S
H560 C566 0.930 . S
H561 C570 0.930 . S
H562 C575 0.929 . S
H563 C573 0.929 . S
H564 C568 0.929 . S
H565 C574 0.929 . S
C566 H560 0.930 . S
C566 C567 1.367 . S
C566 C574 1.378 . S
C567 C566 1.367 . S
C567 C575 1.433 . S
C568 H564 0.929 . S
C568 C570 1.378 . S
C568 C572 1.350 . S
C569 C572 1.463 . S
C569 C574 1.350 . S
C569 N577 1.427 . S
C570 H561 0.930 . S
C570 C568 1.378 . S
C570 C571 1.367 . S
C571 C570 1.367 . S
C571 C573 1.433 . S
C572 C568 1.350 . S
C572 C569 1.463 . S
C572 N576 1.427 . S
C573 H563 0.929 . S
C573 C571 1.433 . S
C573 N576 1.384 . S
C574 H565 0.929 . S
C574 C566 1.378 . S
C574 C569 1.350 . S
C575 H562 0.929 . S
C575 C567 1.433 . S
C575 N577 1.384 . S
N576 C572 1.427 . S
N576 C573 1.384 . S
N577 C569 1.427 . S
N577 C575 1.384 . S
H578 C584 0.930 . S
H579 C588 0.930 . S
H580 C593 0.929 . S
H581 C591 0.929 . S
H582 C586 0.929 . S
H583 C592 0.929 . S
C584 H578 0.930 . S
C584 C585 1.367 . S
C584 C592 1.378 . S
C585 C584 1.367 . S
C585 C593 1.433 . S
C586 H582 0.929 . S
C586 C588 1.378 . S
C586 C590 1.350 . S
C587 C590 1.463 . S
C587 C592 1.350 . S
C587 N595 1.427 . S
C588 H579 0.930 . S
C588 C586 1.378 . S
C588 C589 1.367 . S
C589 C588 1.367 . S
C589 C591 1.433 . S
C590 C586 1.350 . S
C590 C587 1.463 . S
C590 N594 1.427 . S
C591 H581 0.929 . S
C591 C589 1.433 . S
C591 N594 1.384 . S
C592 H583 0.929 . S
C592 C584 1.378 . S
C592 C587 1.350 . S
C593 H580 0.929 . S
C593 C585 1.433 . S
C593 N595 1.384 . S
N594 C590 1.427 . S
N594 C591 1.384 . S
N595 C587 1.427 . S
N595 C593 1.384 . S
H596 C602 0.930 . S
H597 C606 0.930 . S
H598 C611 0.929 . S
H599 C609 0.929 . S
H600 C604 0.929 . S
H601 C610 0.929 . S
C602 H596 0.930 . S
C602 C603 1.367 . S
C602 C610 1.378 . S
C603 C602 1.367 . S
C603 C611 1.433 . S
C604 H600 0.929 . S
C604 C606 1.378 . S
C604 C608 1.350 . S
C605 C608 1.463 . S
C605 C610 1.350 . S
C605 N613 1.427 . S
C606 H597 0.930 . S
C606 C604 1.378 . S
C606 C607 1.367 . S
C607 C606 1.367 . S
C607 C609 1.433 . S
C608 C604 1.350 . S
C608 C605 1.463 . S
C608 N612 1.427 . S
C609 H599 0.929 . S
C609 C607 1.433 . S
C609 N612 1.384 . S
C610 H601 0.929 . S
C610 C602 1.378 . S
C610 C605 1.350 . S
C611 H598 0.929 . S
C611 C603 1.433 . S
C611 N613 1.384 . S
N612 C608 1.427 . S
N612 C609 1.384 . S
N613 C605 1.427 . S
N613 C611 1.384 . S
H614 C620 0.930 . S
H615 C624 0.930 . S
H616 C629 0.929 . S
H617 C627 0.929 . S
H618 C622 0.929 . S
H619 C628 0.929 . S
C620 H614 0.930 . S
C620 C621 1.367 . S
C620 C628 1.378 . S
C621 C620 1.367 . S
C621 C629 1.433 . S
C622 H618 0.929 . S
C622 C624 1.378 . S
C622 C626 1.350 . S
C623 C626 1.463 . S
C623 C628 1.350 . S
C623 N631 1.427 . S
C624 H615 0.930 . S
C624 C622 1.378 . S
C624 C625 1.367 . S
C625 C624 1.367 . S
C625 C627 1.433 . S
C626 C622 1.350 . S
C626 C623 1.463 . S
C626 N630 1.427 . S
C627 H617 0.929 . S
C627 C625 1.433 . S
C627 N630 1.384 . S
C628 H619 0.929 . S
C628 C620 1.378 . S
C628 C623 1.350 . S
C629 H616 0.929 . S
C629 C621 1.433 . S
C629 N631 1.384 . S
N630 C626 1.427 . S
N630 C627 1.384 . S
N631 C623 1.427 . S
N631 C629 1.384 . S
H632 C638 0.930 . S
H633 C642 0.930 . S
H634 C647 0.929 . S
H635 C645 0.929 . S
H636 C640 0.929 . S
H637 C646 0.929 . S
C638 H632 0.930 . S
C638 C639 1.367 . S
C638 C646 1.378 . S
C639 C638 1.367 . S
C639 C647 1.433 1_554 S
C640 H636 0.929 . S
C640 C642 1.378 . S
C640 C644 1.354 . S
C641 C644 1.462 1_554 S
C641 C646 1.350 . S
C641 N649 1.427 1_554 S
C642 H633 0.930 . S
C642 C640 1.378 . S
C642 C643 1.365 . S
C643 C642 1.365 . S
C643 C645 1.435 1_556 S
C644 C640 1.354 . S
C644 C641 1.462 1_556 S
C644 N648 1.424 1_556 S
C645 H635 0.929 . S
C645 C643 1.435 1_554 S
C645 N648 1.384 . S
C646 H637 0.929 . S
C646 C638 1.378 . S
C646 C641 1.350 . S
C647 H634 0.929 . S
C647 C639 1.433 1_556 S
C647 N649 1.384 . S
N648 C644 1.424 1_554 S
N648 C645 1.384 . S
N649 C641 1.427 1_556 S
N649 C647 1.384 . S
H650 C656 0.930 . S
H651 C660 0.930 . S
H652 C665 0.929 . S
H653 C663 0.929 . S
H654 C658 0.929 . S
H655 C664 0.929 . S
C656 H650 0.930 . S
C656 C657 1.367 . S
C656 C664 1.378 . S
C657 C656 1.367 . S
C657 C665 1.433 . S
C658 H654 0.929 . S
C658 C660 1.378 . S
C658 C662 1.350 . S
C659 C662 1.463 . S
C659 C664 1.350 . S
C659 N667 1.427 . S
C660 H651 0.930 . S
C660 C658 1.378 . S
C660 C661 1.367 . S
C661 C660 1.367 . S
C661 C663 1.433 . S
C662 C658 1.350 . S
C662 C659 1.463 . S
C662 N666 1.427 . S
C663 H653 0.929 . S
C663 C661 1.433 . S
C663 N666 1.384 . S
C664 H655 0.929 . S
C664 C656 1.378 . S
C664 C659 1.350 . S
C665 H652 0.929 . S
C665 C657 1.433 . S
C665 N667 1.384 . S
N666 C662 1.427 . S
N666 C663 1.384 . S
N667 C659 1.427 . S
N667 C665 1.384 . S
H668 C674 0.930 . S
H669 C678 0.930 . S
H670 C683 0.929 . S
H671 C681 0.929 . S
H672 C676 0.929 . S
H673 C682 0.929 . S
C674 H668 0.930 . S
C674 C675 1.367 . S
C674 C682 1.378 . S
C675 C674 1.367 . S
C675 C683 1.433 . S
C676 H672 0.929 . S
C676 C678 1.378 . S
C676 C680 1.350 . S
C677 C680 1.463 . S
C677 C682 1.350 . S
C677 N685 1.427 . S
C678 H669 0.930 . S
C678 C676 1.378 . S
C678 C679 1.367 . S
C679 C678 1.367 . S
C679 C681 1.433 . S
C680 C676 1.350 . S
C680 C677 1.463 . S
C680 N684 1.427 . S
C681 H671 0.929 . S
C681 C679 1.433 . S
C681 N684 1.384 . S
C682 H673 0.929 . S
C682 C674 1.378 . S
C682 C677 1.350 . S
C683 H670 0.929 . S
C683 C675 1.433 . S
C683 N685 1.384 . S
N684 C680 1.427 . S
N684 C681 1.384 . S
N685 C677 1.427 . S
N685 C683 1.384 . S
H686 C692 0.930 . S
H687 C696 0.930 . S
H688 C701 0.929 . S
H689 C699 0.929 . S
H690 C694 0.929 . S
H691 C700 0.929 . S
C692 H686 0.930 . S
C692 C693 1.367 . S
C692 C700 1.378 . S
C693 C692 1.367 . S
C693 C701 1.433 . S
C694 H690 0.929 . S
C694 C696 1.378 . S
C694 C698 1.350 . S
C695 C698 1.463 . S
C695 C700 1.350 . S
C695 N703 1.427 . S
C696 H687 0.930 . S
C696 C694 1.378 . S
C696 C697 1.367 . S
C697 C696 1.367 . S
C697 C699 1.433 . S
C698 C694 1.350 . S
C698 C695 1.463 . S
C698 N702 1.427 . S
C699 H689 0.929 . S
C699 C697 1.433 . S
C699 N702 1.384 . S
C700 H691 0.929 . S
C700 C692 1.378 . S
C700 C695 1.350 . S
C701 H688 0.929 . S
C701 C693 1.433 . S
C701 N703 1.384 . S
N702 C698 1.427 . S
N702 C699 1.384 . S
N703 C695 1.427 . S
N703 C701 1.384 . S
H704 C710 0.930 . S
H705 C714 0.930 . S
H706 C719 0.929 . S
H707 C717 0.929 . S
H708 C712 0.929 . S
H709 C718 0.929 . S
C710 H704 0.930 . S
C710 C711 1.367 . S
C710 C718 1.378 . S
C711 C710 1.367 . S
C711 C719 1.433 . S
C712 H708 0.929 . S
C712 C714 1.378 . S
C712 C716 1.350 . S
C713 C716 1.463 . S
C713 C718 1.350 . S
C713 N721 1.427 . S
C714 H705 0.930 . S
C714 C712 1.378 . S
C714 C715 1.367 . S
C715 C714 1.367 . S
C715 C717 1.433 . S
C716 C712 1.350 . S
C716 C713 1.463 . S
C716 N720 1.427 . S
C717 H707 0.929 . S
C717 C715 1.433 . S
C717 N720 1.384 . S
C718 H709 0.929 . S
C718 C710 1.378 . S
C718 C713 1.350 . S
C719 H706 0.929 . S
C719 C711 1.433 . S
C719 N721 1.384 . S
N720 C716 1.427 . S
N720 C717 1.384 . S
N721 C713 1.427 . S
N721 C719 1.384 . S
H722 C728 0.930 . S
H723 C732 0.930 . S
H724 C737 0.929 . S
H725 C735 0.929 . S
H726 C730 0.929 . S
H727 C736 0.929 . S
C728 H722 0.930 . S
C728 C729 1.367 1_556 S
C728 C736 1.378 . S
C729 C728 1.367 1_554 S
C729 C737 1.433 . S
C730 H726 0.929 . S
C730 C732 1.378 . S
C730 C734 1.350 . S
C731 C734 1.463 . S
C731 C736 1.350 1_554 S
C731 N739 1.427 . S
C732 H723 0.930 . S
C732 C730 1.378 . S
C732 C733 1.367 . S
C733 C732 1.367 . S
C733 C735 1.433 1_554 S
C734 C730 1.350 . S
C734 C731 1.463 . S
C734 N738 1.427 1_554 S
C735 H725 0.929 . S
C735 C733 1.433 1_556 S
C735 N738 1.384 . S
C736 H727 0.929 . S
C736 C728 1.378 . S
C736 C731 1.350 1_556 S
C737 H724 0.929 . S
C737 C729 1.433 . S
C737 N739 1.384 . S
N738 C734 1.427 1_556 S
N738 C735 1.384 . S
N739 C731 1.427 . S
N739 C737 1.384 . S
H740 C746 0.930 . S
H741 C750 0.930 . S
H742 C755 0.929 . S
H743 C753 0.929 . S
H744 C748 0.929 . S
H745 C754 0.929 . S
C746 H740 0.930 . S
C746 C747 1.367 . S
C746 C754 1.378 . S
C747 C746 1.367 . S
C747 C755 1.433 . S
C748 H744 0.929 . S
C748 C750 1.378 . S
C748 C752 1.350 . S
C749 C752 1.463 . S
C749 C754 1.350 . S
C749 N757 1.427 . S
C750 H741 0.930 . S
C750 C748 1.378 . S
C750 C751 1.367 . S
C751 C750 1.367 . S
C751 C753 1.433 . S
C752 C748 1.350 . S
C752 C749 1.463 . S
C752 N756 1.427 . S
C753 H743 0.929 . S
C753 C751 1.433 . S
C753 N756 1.384 . S
C754 H745 0.929 . S
C754 C746 1.378 . S
C754 C749 1.350 . S
C755 H742 0.929 . S
C755 C747 1.433 . S
C755 N757 1.384 . S
N756 C752 1.427 . S
N756 C753 1.384 . S
N757 C749 1.427 . S
N757 C755 1.384 . S
H758 C764 0.930 . S
H759 C768 0.930 . S
H760 C773 0.929 . S
H761 C771 0.929 . S
H762 C766 0.929 . S
H763 C772 0.929 . S
C764 H758 0.930 . S
C764 C765 1.361 1_556 S
C764 C772 1.378 . S
C765 C764 1.361 1_554 S
C765 C773 1.439 . S
C766 H762 0.929 . S
C766 C768 1.378 . S
C766 C770 1.350 . S
C767 C770 1.462 1_556 S
C767 C772 1.351 . S
C767 N775 1.426 1_556 S
C768 H759 0.930 . S
C768 C766 1.378 . S
C768 C769 1.367 . S
C769 C768 1.367 . S
C769 C771 1.433 1_554 S
C770 C766 1.350 . S
C770 C767 1.462 1_554 S
C770 N774 1.427 1_554 S
C771 H761 0.929 . S
C771 C769 1.433 1_556 S
C771 N774 1.384 . S
C772 H763 0.929 . S
C772 C764 1.378 . S
C772 C767 1.351 . S
C773 H760 0.929 . S
C773 C765 1.439 . S
C773 N775 1.384 . S
N774 C770 1.427 1_556 S
N774 C771 1.384 . S
N775 C767 1.426 1_554 S
N775 C773 1.384 . S
C351 C5 1.449 . S
C355 C201 1.464 . S
C369 C31 1.465 . S
C373 C117 1.402 . S
C391 C149 1.412 . S
C387 C53 1.454 . S
C405 C71 1.439 . S
C409 C169 1.459 . S
C427 C277 1.418 . S
C423 C75 1.459 . S
C445 C297 1.463 . S
C441 C9 1.443 . S
C463 C329 1.458 . S
C459 C27 1.437 . S
C481 C245 1.408 . S
C477 C49 1.450 . S
C495 C51 1.448 . S
C499 C137 1.418 . S
C513 C72 1.456 . S
C517 C181 1.469 . S
C531 C6 1.454 . S
C535 C213 1.468 . S
C553 C105 1.401 . S
C549 C29 1.447 . S
C567 C28 1.459 . S
C571 C341 1.473 . S
C589 C233 1.418 . S
C585 C50 1.444 . S
C607 C265 1.415 . S
C603 C73 1.440 . S
C621 C7 1.451 . S
C625 C309 1.467 . S
C643 C111 1.448 1_556 S
C639 C4 1.493 . S
C661 C143 1.437 . S
C657 C30 1.496 . S
C675 C52 1.497 . S
C679 C175 1.499 . S
C693 C70 1.495 . S
C697 C207 1.498 . S
C715 C239 1.449 . S
C711 C74 1.492 . S
C729 C8 1.493 . S
C733 C271 1.447 . S
C747 C26 1.496 . S
C751 C303 1.499 . S
C765 C48 1.496 . S
C769 C335 1.497 . S
