# Generated by pormake.
# Topology eea, (3,6)-cn, num edge types: 1
# Building blocks:
#     Node 0, Type 0, BuildingBlock: ESEHIV_clean_linker_0, # of connection points: 3
#     Node 1, Type 0, BuildingBlock: ESEHIV_clean_linker_0, # of connection points: 3
#     Node 2, Type 0, BuildingBlock: ESEHIV_clean_linker_0, # of connection points: 3
#     Node 3, Type 0, BuildingBlock: ESEHIV_clean_linker_0, # of connection points: 3
#     Node 4, Type 0, BuildingBlock: ESEHIV_clean_linker_0, # of connection points: 3
#     Node 5, Type 0, BuildingBlock: ESEHIV_clean_linker_0, # of connection points: 3
#     Node 6, Type 0, BuildingBlock: ESEHIV_clean_linker_0, # of connection points: 3
#     Node 7, Type 0, BuildingBlock: ESEHIV_clean_linker_0, # of connection points: 3
#     Node 8, Type 0, BuildingBlock: ESEHIV_clean_linker_0, # of connection points: 3
#     Node 9, Type 0, BuildingBlock: ESEHIV_clean_linker_0, # of connection points: 3
#     Node 10, Type 0, BuildingBlock: ESEHIV_clean_linker_0, # of connection points: 3
#     Node 11, Type 0, BuildingBlock: ESEHIV_clean_linker_0, # of connection points: 3
#     Node 12, Type 0, BuildingBlock: ESEHIV_clean_linker_0, # of connection points: 3
#     Node 13, Type 0, BuildingBlock: ESEHIV_clean_linker_0, # of connection points: 3
#     Node 14, Type 0, BuildingBlock: ESEHIV_clean_linker_0, # of connection points: 3
#     Node 15, Type 0, BuildingBlock: ESEHIV_clean_linker_0, # of connection points: 3
#     Node 16, Type 0, BuildingBlock: ESEHIV_clean_linker_0, # of connection points: 3
#     Node 17, Type 0, BuildingBlock: ESEHIV_clean_linker_0, # of connection points: 3
#     Node 18, Type 1, BuildingBlock: KUMJIN_clean_sbu_0, # of connection points: 6
#     Node 19, Type 1, BuildingBlock: KUMJIN_clean_sbu_0, # of connection points: 6
#     Node 20, Type 1, BuildingBlock: KUMJIN_clean_sbu_0, # of connection points: 6
#     Node 21, Type 1, BuildingBlock: KUMJIN_clean_sbu_0, # of connection points: 6
#     Node 22, Type 1, BuildingBlock: KUMJIN_clean_sbu_0, # of connection points: 6
#     Node 23, Type 1, BuildingBlock: KUMJIN_clean_sbu_0, # of connection points: 6
#     Node 24, Type 1, BuildingBlock: KUMJIN_clean_sbu_0, # of connection points: 6
#     Node 25, Type 1, BuildingBlock: KUMJIN_clean_sbu_0, # of connection points: 6
#     Node 26, Type 1, BuildingBlock: KUMJIN_clean_sbu_0, # of connection points: 6
#     Edge 27, Type (0, 1), BuildingBlock: EZIPEK_clean_linker_0, # of connection points: 2
#     Edge 28, Type (0, 1), BuildingBlock: EZIPEK_clean_linker_0, # of connection points: 2
#     Edge 29, Type (0, 1), BuildingBlock: EZIPEK_clean_linker_0, # of connection points: 2
#     Edge 30, Type (0, 1), BuildingBlock: EZIPEK_clean_linker_0, # of connection points: 2
#     Edge 31, Type (0, 1), BuildingBlock: EZIPEK_clean_linker_0, # of connection points: 2
#     Edge 32, Type (0, 1), BuildingBlock: EZIPEK_clean_linker_0, # of connection points: 2
#     Edge 33, Type (0, 1), BuildingBlock: EZIPEK_clean_linker_0, # of connection points: 2
#     Edge 34, Type (0, 1), BuildingBlock: EZIPEK_clean_linker_0, # of connection points: 2
#     Edge 35, Type (0, 1), BuildingBlock: EZIPEK_clean_linker_0, # of connection points: 2
#     Edge 36, Type (0, 1), BuildingBlock: EZIPEK_clean_linker_0, # of connection points: 2
#     Edge 37, Type (0, 1), BuildingBlock: EZIPEK_clean_linker_0, # of connection points: 2
#     Edge 38, Type (0, 1), BuildingBlock: EZIPEK_clean_linker_0, # of connection points: 2
#     Edge 39, Type (0, 1), BuildingBlock: EZIPEK_clean_linker_0, # of connection points: 2
#     Edge 40, Type (0, 1), BuildingBlock: EZIPEK_clean_linker_0, # of connection points: 2
#     Edge 41, Type (0, 1), BuildingBlock: EZIPEK_clean_linker_0, # of connection points: 2
#     Edge 42, Type (0, 1), BuildingBlock: EZIPEK_clean_linker_0, # of connection points: 2
#     Edge 43, Type (0, 1), BuildingBlock: EZIPEK_clean_linker_0, # of connection points: 2
#     Edge 44, Type (0, 1), BuildingBlock: EZIPEK_clean_linker_0, # of connection points: 2
#     Edge 45, Type (0, 1), BuildingBlock: EZIPEK_clean_linker_0, # of connection points: 2
#     Edge 46, Type (0, 1), BuildingBlock: EZIPEK_clean_linker_0, # of connection points: 2
#     Edge 47, Type (0, 1), BuildingBlock: EZIPEK_clean_linker_0, # of connection points: 2
#     Edge 48, Type (0, 1), BuildingBlock: EZIPEK_clean_linker_0, # of connection points: 2
#     Edge 49, Type (0, 1), BuildingBlock: EZIPEK_clean_linker_0, # of connection points: 2
#     Edge 50, Type (0, 1), BuildingBlock: EZIPEK_clean_linker_0, # of connection points: 2
#     Edge 51, Type (0, 1), BuildingBlock: EZIPEK_clean_linker_0, # of connection points: 2
#     Edge 52, Type (0, 1), BuildingBlock: EZIPEK_clean_linker_0, # of connection points: 2
#     Edge 53, Type (0, 1), BuildingBlock: EZIPEK_clean_linker_0, # of connection points: 2
#     Edge 54, Type (0, 1), BuildingBlock: EZIPEK_clean_linker_0, # of connection points: 2
#     Edge 55, Type (0, 1), BuildingBlock: EZIPEK_clean_linker_0, # of connection points: 2
#     Edge 56, Type (0, 1), BuildingBlock: EZIPEK_clean_linker_0, # of connection points: 2
#     Edge 57, Type (0, 1), BuildingBlock: EZIPEK_clean_linker_0, # of connection points: 2
#     Edge 58, Type (0, 1), BuildingBlock: EZIPEK_clean_linker_0, # of connection points: 2
#     Edge 59, Type (0, 1), BuildingBlock: EZIPEK_clean_linker_0, # of connection points: 2
#     Edge 60, Type (0, 1), BuildingBlock: EZIPEK_clean_linker_0, # of connection points: 2
#     Edge 61, Type (0, 1), BuildingBlock: EZIPEK_clean_linker_0, # of connection points: 2
#     Edge 62, Type (0, 1), BuildingBlock: EZIPEK_clean_linker_0, # of connection points: 2
#     Edge 63, Type (0, 1), BuildingBlock: EZIPEK_clean_linker_0, # of connection points: 2
#     Edge 64, Type (0, 1), BuildingBlock: EZIPEK_clean_linker_0, # of connection points: 2
#     Edge 65, Type (0, 1), BuildingBlock: EZIPEK_clean_linker_0, # of connection points: 2
#     Edge 66, Type (0, 1), BuildingBlock: EZIPEK_clean_linker_0, # of connection points: 2
#     Edge 67, Type (0, 1), BuildingBlock: EZIPEK_clean_linker_0, # of connection points: 2
#     Edge 68, Type (0, 1), BuildingBlock: EZIPEK_clean_linker_0, # of connection points: 2
#     Edge 69, Type (0, 1), BuildingBlock: EZIPEK_clean_linker_0, # of connection points: 2
#     Edge 70, Type (0, 1), BuildingBlock: EZIPEK_clean_linker_0, # of connection points: 2
#     Edge 71, Type (0, 1), BuildingBlock: EZIPEK_clean_linker_0, # of connection points: 2
#     Edge 72, Type (0, 1), BuildingBlock: EZIPEK_clean_linker_0, # of connection points: 2
#     Edge 73, Type (0, 1), BuildingBlock: EZIPEK_clean_linker_0, # of connection points: 2
#     Edge 74, Type (0, 1), BuildingBlock: EZIPEK_clean_linker_0, # of connection points: 2
#     Edge 75, Type (0, 1), BuildingBlock: EZIPEK_clean_linker_0, # of connection points: 2
#     Edge 76, Type (0, 1), BuildingBlock: EZIPEK_clean_linker_0, # of connection points: 2
#     Edge 77, Type (0, 1), BuildingBlock: EZIPEK_clean_linker_0, # of connection points: 2
#     Edge 78, Type (0, 1), BuildingBlock: EZIPEK_clean_linker_0, # of connection points: 2
#     Edge 79, Type (0, 1), BuildingBlock: EZIPEK_clean_linker_0, # of connection points: 2
#     Edge 80, Type (0, 1), BuildingBlock: EZIPEK_clean_linker_0, # of connection points: 2
# Relax obj value: 0.007
# Max RMSD: 0.109
# Mean RMSD: 0.092
data_MOF--net-eea--node1-KUMJIN_clean_sbu_0--node2-ESEHIV_clean_linker_0--edge1-EZIPEK_clean_linker_0
_symmetry_space_group_name_H-M    P1
_symmetry_Int_Tables_number       1
_symmetry_cell_setting            triclinic
loop_
_symmetry_equiv_pos_as_xyz
'x, y, z'
_cell_length_a     33.494148
_cell_length_b     34.691535
_cell_length_c     54.273195
_cell_angle_alpha  89.674955
_cell_angle_beta   89.922014
_cell_angle_gamma 120.00584
loop_
_atom_site_label
_atom_site_type_symbol
_atom_site_fract_x
_atom_site_fract_y
_atom_site_fract_z
_atom_type_partial_charge
H0 H 0.29921 0.19985 0.44256 0.0
H1 H 0.30375 0.07939 0.44009 0.0
H2 H 0.23755 0.10928 0.38208 0.0
C3 C 0.29381 0.17167 0.43184 0.0
C4 C 0.27461 0.1639 0.40785 0.0
C5 C 0.3057 0.1423 0.44322 0.0
C6 C 0.2948 0.10235 0.43152 0.0
C7 C 0.26992 0.09078 0.40951 0.0
C8 C 0.25926 0.12092 0.39814 0.0
H9 H 0.80722 0.07556 0.44727 0.0
H10 H 0.93579 0.19956 0.4456 0.0
H11 H 0.89852 0.10842 0.38502 0.0
C12 C 0.83911 0.09859 0.43794 0.0
C13 C 0.849 0.08763 0.41475 0.0
C14 C 0.8699 0.13921 0.44907 0.0
C15 C 0.91149 0.16845 0.43696 0.0
C16 C 0.92231 0.15726 0.414 0.0
C17 C 0.89045 0.11719 0.40275 0.0
H18 H 0.81439 0.74658 0.44447 0.0
H19 H 0.93986 0.74085 0.44195 0.0
H20 H 0.89994 0.79078 0.37945 0.0
C21 C 0.84522 0.75233 0.43475 0.0
C22 C 0.85325 0.76939 0.41055 0.0
C23 C 0.876 0.74145 0.44626 0.0
C24 C 0.91588 0.74912 0.43335 0.0
C25 C 0.92508 0.76761 0.40943 0.0
C26 C 0.8934 0.77726 0.39802 0.0
H27 H 0.06989 0.27148 0.60145 0.0
H28 H 0.19837 0.2715 0.59861 0.0
H29 H 0.10803 0.21455 0.66131 0.0
C30 C 0.09446 0.26375 0.60982 0.0
C31 C 0.08464 0.24276 0.63308 0.0
C32 C 0.13581 0.27498 0.59732 0.0
C33 C 0.16679 0.26372 0.60824 0.0
C34 C 0.15674 0.24122 0.63107 0.0
C35 C 0.11598 0.2317 0.64368 0.0
H36 H 0.72752 0.92815 0.5942 0.0
H37 H 0.7323 0.80645 0.59542 0.0
H38 H 0.78838 0.89811 0.65577 0.0
C39 C 0.7372 0.9061 0.60325 0.0
C40 C 0.75887 0.91763 0.62629 0.0
C41 C 0.7272 0.86588 0.59203 0.0
C42 C 0.74005 0.83764 0.60391 0.0
C43 C 0.76251 0.8493 0.62681 0.0
C44 C 0.77156 0.88921 0.63798 0.0
H45 H 0.06834 0.80088 0.59445 0.0
H46 H 0.20062 0.91829 0.59409 0.0
H47 H 0.10353 0.89567 0.65208 0.0
C48 C 0.09348 0.8313 0.60337 0.0
C49 C 0.0822 0.84435 0.6255 0.0
C50 C 0.13645 0.85863 0.59214 0.0
C51 C 0.16943 0.89734 0.6042 0.0
C52 C 0.16086 0.90949 0.62767 0.0
C53 C 0.11497 0.88447 0.6365 0.0
H54 H 0.97603 0.5443 0.77557 0.0
H55 H 0.97868 0.424 0.77684 0.0
H56 H 0.91711 0.45302 0.71649 0.0
C57 C 0.97167 0.51579 0.76537 0.0
C58 C 0.95456 0.50793 0.741 0.0
C59 C 0.98097 0.48561 0.77774 0.0
C60 C 0.97313 0.44672 0.76588 0.0
C61 C 0.95436 0.43597 0.74198 0.0
C62 C 0.94128 0.46538 0.73129 0.0
H63 H 0.48087 0.40858 0.77662 0.0
H64 H 0.60395 0.53753 0.77594 0.0
H65 H 0.5726 0.45012 0.71408 0.0
C66 C 0.5122 0.43336 0.76753 0.0
C67 C 0.5229 0.42496 0.74381 0.0
C68 C 0.54122 0.47392 0.77934 0.0
C69 C 0.5815 0.50597 0.76716 0.0
C70 C 0.59316 0.49721 0.74377 0.0
C71 C 0.56386 0.45669 0.73223 0.0
H72 H 0.46885 0.07502 0.77467 0.0
H73 H 0.59905 0.07828 0.77659 0.0
H74 H 0.56451 0.13303 0.71417 0.0
C75 C 0.50171 0.08387 0.76621 0.0
C76 C 0.51267 0.10453 0.74285 0.0
C77 C 0.53232 0.07361 0.77848 0.0
C78 C 0.57507 0.08576 0.7673 0.0
C79 C 0.58737 0.10801 0.74435 0.0
C80 C 0.55561 0.11658 0.73202 0.0
H81 H 0.72448 0.57839 0.93608 0.0
H82 H 0.85499 0.58262 0.93301 0.0
H83 H 0.77331 0.5389 0.99942 0.0
C84 C 0.75077 0.57366 0.94489 0.0
C85 C 0.74454 0.55809 0.96936 0.0
C86 C 0.79073 0.58284 0.93172 0.0
C87 C 0.82435 0.57614 0.9432 0.0
C88 C 0.81828 0.56032 0.96759 0.0
C89 C 0.77837 0.55151 0.98067 0.0
H90 H 0.38977 0.25677 0.92496 0.0
H91 H 0.40305 0.13965 0.92159 0.0
H92 H 0.45028 0.22394 0.98542 0.0
C93 C 0.40033 0.23476 0.93325 0.0
C94 C 0.42136 0.24491 0.9564 0.0
C95 C 0.39376 0.19698 0.92049 0.0
C96 C 0.40804 0.16895 0.9313 0.0
C97 C 0.42771 0.17821 0.95494 0.0
C98 C 0.43462 0.21641 0.96732 0.0
H99 H 0.7254 0.12712 0.92746 0.0
H100 H 0.85274 0.25197 0.92432 0.0
H101 H 0.76567 0.21658 0.98885 0.0
C102 C 0.74967 0.15855 0.93583 0.0
C103 C 0.74079 0.16855 0.95954 0.0
C104 C 0.78988 0.18843 0.92299 0.0
C105 C 0.82148 0.22881 0.93409 0.0
C106 C 0.81291 0.23922 0.95786 0.0
C107 C 0.77236 0.20896 0.97048 0.0
H108 H 0.59895 0.85557 0.11454 0.0
H109 H 0.59861 0.73138 0.11959 0.0
H110 H 0.53857 0.75895 0.0568 0.0
C111 C 0.58942 0.82313 0.10716 0.0
C112 C 0.56612 0.80989 0.08456 0.0
C113 C 0.60119 0.7949 0.11999 0.0
C114 C 0.58925 0.7532 0.11001 0.0
C115 C 0.56721 0.74049 0.08711 0.0
C116 C 0.55537 0.76869 0.07458 0.0
H117 H 0.14862 0.73285 0.11145 0.0
H118 H 0.26872 0.86346 0.1077 0.0
H119 H 0.23612 0.77311 0.04712 0.0
C120 C 0.17907 0.75762 0.1017 0.0
C121 C 0.18884 0.74828 0.07804 0.0
C122 C 0.20738 0.79933 0.11244 0.0
C123 C 0.24668 0.83113 0.09957 0.0
C124 C 0.25776 0.82151 0.07627 0.0
C125 C 0.22834 0.78026 0.06536 0.0
H126 H 0.14035 0.41249 0.11383 0.0
H127 H 0.26481 0.40508 0.1098 0.0
H128 H 0.22372 0.45567 0.0481 0.0
C129 C 0.17113 0.41848 0.10395 0.0
C130 C 0.17841 0.43509 0.07971 0.0
C131 C 0.2017 0.40684 0.11496 0.0
C132 C 0.24104 0.41408 0.10165 0.0
C133 C 0.24965 0.43271 0.07778 0.0
C134 C 0.21798 0.44271 0.06679 0.0
H135 H 0.40147 0.91304 0.25984 0.0
H136 H 0.53249 0.91785 0.26146 0.0
H137 H 0.44165 0.86769 0.32424 0.0
C138 C 0.42614 0.90667 0.26925 0.0
C139 C 0.41658 0.88899 0.29338 0.0
C140 C 0.46815 0.91752 0.25755 0.0
C141 C 0.4999 0.90934 0.27014 0.0
C142 C 0.49027 0.89092 0.29403 0.0
C143 C 0.44871 0.88101 0.30562 0.0
H144 H 0.05534 0.58465 0.26001 0.0
H145 H 0.04766 0.45702 0.26485 0.0
H146 H 0.10998 0.55194 0.32329 0.0
C147 C 0.06209 0.56123 0.26987 0.0
C148 C 0.08359 0.57283 0.29297 0.0
C149 C 0.04862 0.51935 0.2596 0.0
C150 C 0.05765 0.4893 0.27263 0.0
C151 C 0.08028 0.50116 0.29549 0.0
C152 C 0.09276 0.54278 0.30561 0.0
H153 H 0.39955 0.45857 0.26823 0.0
H154 H 0.5211 0.58808 0.26306 0.0
H155 H 0.43735 0.54967 0.3288 0.0
C156 C 0.42277 0.49071 0.27625 0.0
C157 C 0.41338 0.50086 0.29981 0.0
C158 C 0.4616 0.52195 0.26282 0.0
C159 C 0.4912 0.56363 0.27332 0.0
C160 C 0.48309 0.57349 0.29723 0.0
C161 C 0.44412 0.54198 0.31047 0.0
Eu162 Eu 0.47789 0.96158 0.98824 0.0
C163 C 0.57909 0.13298 0.05264 0.0
C164 C 0.65955 0.15737 0.04561 0.0
C165 C 0.63566 0.21203 0.05261 0.0
C166 C 0.61309 0.12313 0.04729 0.0
C167 C 0.58994 0.17747 0.05592 0.0
C168 C 0.67048 0.20198 0.04748 0.0
C169 C 0.5105 0.14993 0.06753 0.0
N170 N 0.53558 0.09867 0.0559 0.0
C171 C 0.5016 0.10638 0.06418 0.0
C172 C 0.55474 0.18571 0.06305 0.0
Eu173 Eu 0.52137 0.02585 0.04674 0.0
N174 N 0.60116 0.07972 0.04589 0.0
C175 C 0.63444 0.06811 0.04593 0.0
C176 C 0.69367 0.14558 0.04338 0.0
C177 C 0.68111 0.10068 0.04432 0.0
H178 H 0.46716 0.07894 0.06737 0.0
H179 H 0.70727 0.09109 0.0437 0.0
H180 H 0.70588 0.2288 0.04587 0.0
H181 H 0.48321 0.15588 0.07348 0.0
H182 H 0.62502 0.03379 0.04713 0.0
H183 H 0.2904 0.87989 0.99531 0.0
H184 H 0.72979 0.17079 0.04205 0.0
H185 H 0.5414 0.91755 0.96636 0.0
H186 H 0.37006 0.943 0.99163 0.0
H187 H 0.53263 0.84379 0.95919 0.0
H188 H 0.64466 0.24649 0.05475 0.0
H189 H 0.2762 0.80271 0.99475 0.0
H190 H 0.30781 0.75121 0.98855 0.0
H191 H 0.56159 0.21941 0.06572 0.0
H192 H 0.37374 0.74145 0.97813 0.0
N193 N 0.40049 0.90252 0.99015 0.0
C194 C 0.36414 0.90967 0.99163 0.0
C195 C 0.31115 0.83041 0.9932 0.0
C196 C 0.34831 0.82326 0.9896 0.0
C197 C 0.31902 0.87388 0.99352 0.0
C198 C 0.39309 0.86056 0.98769 0.0
H199 H 0.45746 0.77578 0.96667 0.0
N200 N 0.47207 0.892 0.9786 0.0
C201 C 0.50354 0.84648 0.96564 0.0
C202 C 0.42996 0.85509 0.98152 0.0
C203 C 0.50834 0.88835 0.96976 0.0
C204 C 0.46106 0.80817 0.9699 0.0
C205 C 0.4234 0.81215 0.97756 0.0
O206 O 0.51282 0.98812 0.95303 0.0
O207 O 0.53597 0.0201 1.00699 0.0
O208 O 0.50239 0.0662 0.0214 0.0
O209 O 0.45673 0.01493 0.99138 0.0
O210 O 0.55343 0.98741 0.98143 0.0
O211 O 0.43981 0.96298 0.95549 0.0
O212 O 0.49102 0.01542 0.08379 0.0
O213 O 0.46248 0.96844 0.02788 0.0
O214 O 0.49533 0.92009 1.01341 0.0
O215 O 0.54078 0.97119 0.04357 0.0
O216 O 0.44612 0.00186 0.05346 0.0
O217 O 0.54767 0.0038 0.07732 0.0
C218 C 0.5701 0.02042 0.99643 0.0
C219 C 0.47161 0.96173 0.9162 0.0
C220 C 0.48396 0.97353 0.87151 0.0
C221 C 0.48208 0.98945 0.89518 0.0
C222 C 0.47469 0.92942 0.86932 0.0
C223 C 0.46155 0.91764 0.91334 0.0
C224 C 0.46307 0.90166 0.89002 0.0
C225 C 0.4745 0.05451 1.00219 0.0
C226 C 0.47599 0.98038 0.94111 0.0
C227 C 0.37937 0.77473 0.98084 0.0
C228 C 0.34185 0.78028 0.98683 0.0
C229 C 0.42876 0.96881 0.03851 0.0
C230 C 0.53719 0.02085 0.11826 0.0
C231 C 0.51512 0.99484 0.13941 0.0
C232 C 0.53388 0.00967 0.16308 0.0
C233 C 0.57458 0.05103 0.16521 0.0
C234 C 0.57747 0.06217 0.12094 0.0
C235 C 0.59597 0.0771 0.14432 0.0
C236 C 0.52245 0.93149 0.03288 0.0
C237 C 0.51885 0.00368 0.09354 0.0
H238 H 0.48987 0.02357 0.89726 0.0
H239 H 0.47615 0.91635 0.85147 0.0
H240 H 0.45337 0.89584 0.92916 0.0
H241 H 0.45573 0.86771 0.888 0.0
H242 H 0.48386 0.96293 0.13747 0.0
H243 H 0.58973 0.0632 0.18313 0.0
H244 H 0.59481 0.08262 0.10493 0.0
H245 H 0.62722 0.10894 0.14625 0.0
Eu246 Eu 0.03389 0.50521 0.99109 0.0
C247 C 0.8506 0.41925 0.05134 0.0
C248 C 0.82081 0.46919 0.04483 0.0
C249 C 0.7678 0.38978 0.04949 0.0
C250 C 0.85826 0.46155 0.04698 0.0
C251 C 0.80528 0.38301 0.05356 0.0
C252 C 0.77559 0.43289 0.04512 0.0
C253 C 0.83746 0.33794 0.06727 0.0
N254 N 0.88762 0.41428 0.05561 0.0
C255 C 0.88166 0.37514 0.0651 0.0
C256 C 0.79908 0.34163 0.06093 0.0
Eu257 Eu 0.96178 0.47748 0.0489 0.0
N258 N 0.90238 0.49571 0.04686 0.0
C259 C 0.91121 0.53852 0.04773 0.0
C260 C 0.82995 0.51317 0.04362 0.0
C261 C 0.87533 0.54802 0.04576 0.0
H262 H 0.91115 0.37245 0.07056 0.0
H263 H 0.88276 0.58218 0.04576 0.0
H264 H 0.74646 0.43802 0.04292 0.0
H265 H 0.83302 0.3066 0.07399 0.0
H266 H 0.94596 0.56532 0.04967 0.0
H267 H 0.12303 0.40984 0.99424 0.0
H268 H 0.80219 0.52053 0.04203 0.0
H269 H 0.07783 0.61122 0.97174 0.0
H270 H 0.05637 0.42163 0.98965 0.0
H271 H 0.15407 0.67953 0.9674 0.0
H272 H 0.7327 0.36226 0.0507 0.0
H273 H 0.20166 0.47468 0.99848 0.0
H274 H 0.25322 0.55796 0.99709 0.0
H275 H 0.76484 0.31292 0.06285 0.0
H276 H 0.26203 0.63171 0.98857 0.0
N277 N 0.09647 0.49172 0.9929 0.0
C278 C 0.09043 0.44991 0.99195 0.0
C279 C 0.17247 0.47988 0.99662 0.0
C280 C 0.17875 0.52284 0.99502 0.0
C281 C 0.12818 0.44322 0.99422 0.0
C282 C 0.13955 0.5276 0.99256 0.0
H283 H 0.22517 0.67722 0.97679 0.0
N284 N 0.10574 0.57113 0.98375 0.0
C285 C 0.15183 0.6486 0.97319 0.0
C286 C 0.14443 0.56871 0.98754 0.0
C287 C 0.1088 0.60988 0.97548 0.0
C288 C 0.19189 0.64719 0.97856 0.0
C289 C 0.18857 0.60672 0.98541 0.0
O290 O 0.02393 0.52173 0.9535 0.0
O291 O 0.97337 0.50273 1.01008 0.0
O292 O 0.92564 0.41889 0.02295 0.0
O293 O 0.9841 0.43024 0.9948 0.0
O294 O 0.99607 0.54085 0.97863 0.0
O295 O 0.02321 0.45987 0.96087 0.0
O296 O 0.98158 0.46316 0.08462 0.0
O297 O 0.02502 0.48379 0.03089 0.0
O298 O 0.07167 0.56288 0.01671 0.0
O299 O 0.01711 0.55217 0.04705 0.0
O300 O 0.99085 0.432 0.0558 0.0
O301 O 0.96411 0.51486 0.08194 0.0
C302 C 0.96529 0.52711 0.99572 0.0
C303 C 0.04852 0.49284 0.92134 0.0
C304 C 0.05264 0.49764 0.8764 0.0
C305 C 0.02945 0.49464 0.8986 0.0
C306 C 0.09582 0.50014 0.87732 0.0
C307 C 0.09197 0.49606 0.92191 0.0
C308 C 0.11549 0.49981 0.89996 0.0
C309 C 0.94211 0.40615 1.00438 0.0
C310 C 0.02191 0.48634 0.94408 0.0
C311 C 0.22777 0.6028 0.98969 0.0
C312 C 0.22282 0.56087 0.99454 0.0
C313 C 0.02619 0.45146 0.04134 0.0
C314 C 0.9509 0.47659 0.12021 0.0
C315 C 0.97554 0.49038 0.14245 0.0
C316 C 0.95356 0.47144 0.1651 0.0
C317 C 0.9065 0.43897 0.16513 0.0
C318 C 0.90371 0.44508 0.12076 0.0
C319 C 0.8817 0.42639 0.14313 0.0
C320 C 0.05825 0.57613 0.03617 0.0
C321 C 0.97569 0.49224 0.09659 0.0
H322 H 0.99601 0.49247 0.8981 0.0
H323 H 0.11423 0.5023 0.86047 0.0
H324 H 0.10746 0.49523 0.93926 0.0
H325 H 0.14885 0.50197 0.90047 0.0
H326 H 0.012 0.51489 0.14212 0.0
H327 H 0.88889 0.42365 0.18226 0.0
H328 H 0.88409 0.43438 0.1039 0.0
H329 H 0.84538 0.40167 0.1434 0.0
Eu330 Eu 0.50732 0.47465 0.05152 0.0
C331 C 0.44301 0.57787 0.98283 0.0
C332 C 0.35981 0.53422 0.98476 0.0
C333 C 0.39747 0.61439 0.97884 0.0
C334 C 0.40338 0.53733 0.98596 0.0
C335 C 0.44054 0.6167 0.97838 0.0
C336 C 0.35714 0.57315 0.98197 0.0
C337 C 0.52216 0.65536 0.96939 0.0
N338 N 0.48377 0.57854 0.98178 0.0
C339 C 0.52258 0.61575 0.9736 0.0
C340 C 0.48111 0.6561 0.97232 0.0
Eu341 Eu 0.48297 0.51129 0.99121 0.0
N342 N 0.40739 0.50044 0.98793 0.0
C343 C 0.36934 0.45922 0.98592 0.0
C344 C 0.32038 0.49195 0.98508 0.0
C345 C 0.32523 0.45425 0.98505 0.0
H346 H 0.55408 0.61501 0.97071 0.0
H347 H 0.29508 0.42136 0.9843 0.0
H348 H 0.32408 0.57152 0.98107 0.0
H349 H 0.55336 0.68514 0.96368 0.0
H350 H 0.37288 0.43002 0.98542 0.0
H351 H 0.69493 0.56917 0.06079 0.0
H352 H 0.28624 0.48807 0.98423 0.0
H353 H 0.43911 0.36963 0.0711 0.0
H354 H 0.61612 0.55794 0.05965 0.0
H355 H 0.44242 0.30038 0.07644 0.0
H356 H 0.39483 0.64391 0.97572 0.0
H357 H 0.70672 0.50429 0.0585 0.0
H358 H 0.67153 0.42092 0.05907 0.0
H359 H 0.4807 0.68667 0.96876 0.0
H360 H 0.60217 0.34702 0.06325 0.0
N361 N 0.58383 0.4879 0.05519 0.0
C362 C 0.62086 0.52949 0.05832 0.0
C363 C 0.6721 0.49927 0.05779 0.0
C364 C 0.63365 0.4564 0.05703 0.0
C365 C 0.66557 0.53593 0.05917 0.0
C366 C 0.5894 0.45182 0.05607 0.0
H367 H 0.51636 0.30166 0.07031 0.0
N368 N 0.50919 0.40834 0.05998 0.0
C369 C 0.47304 0.33099 0.07105 0.0
C370 C 0.55063 0.41048 0.05851 0.0
C371 C 0.47113 0.37007 0.06782 0.0
C372 C 0.5148 0.33184 0.06753 0.0
C373 C 0.55462 0.37224 0.06194 0.0
O374 O 0.46647 0.45817 0.08538 0.0
O375 O 0.45868 0.48919 0.03017 0.0
O376 O 0.50534 0.56902 0.01728 0.0
O377 O 0.5399 0.55039 0.04931 0.0
O378 O 0.42957 0.43501 0.05384 0.0
O379 O 0.53709 0.51135 0.08568 0.0
O380 O 0.52336 0.52423 0.95733 0.0
O381 O 0.53146 0.4971 1.01276 0.0
O382 O 0.48526 0.41741 0.02528 0.0
O383 O 0.44919 0.43538 0.99382 0.0
O384 O 0.5608 0.55042 0.98854 0.0
O385 O 0.45122 0.4751 0.95713 0.0
C386 C 0.42044 0.45821 0.03862 0.0
C387 C 0.50612 0.47109 0.12288 0.0
C388 C 0.4989 0.46929 0.16775 0.0
C389 C 0.49716 0.48727 0.14468 0.0
C390 C 0.51001 0.43523 0.16866 0.0
C391 C 0.51838 0.43796 0.1243 0.0
C392 C 0.52014 0.42006 0.14708 0.0
C393 C 0.52893 0.57788 0.03805 0.0
C394 C 0.50013 0.4872 0.09879 0.0
C395 C 0.59838 0.37608 0.06099 0.0
C396 C 0.63789 0.41817 0.05856 0.0
C397 C 0.56973 0.52766 1.00416 0.0
C398 C 0.48452 0.51393 0.91971 0.0
C399 C 0.49533 0.49893 0.89795 0.0
C400 C 0.49545 0.51816 0.87492 0.0
C401 C 0.48438 0.55225 0.87404 0.0
C402 C 0.4723 0.54707 0.91818 0.0
C403 C 0.47242 0.56619 0.89548 0.0
C404 C 0.46055 0.40804 1.00493 0.0
C405 C 0.48863 0.49679 0.94395 0.0
H406 H 0.48817 0.51324 0.14372 0.0
H407 H 0.51136 0.42077 0.18617 0.0
H408 H 0.52617 0.42562 0.10784 0.0
H409 H 0.52919 0.39419 0.14801 0.0
H410 H 0.5043 0.47296 0.89895 0.0
H411 H 0.48447 0.56772 0.85662 0.0
H412 H 0.46307 0.55848 0.93451 0.0
H413 H 0.46341 0.59209 0.89452 0.0
Eu414 Eu 0.14782 0.29856 0.32584 0.0
C415 C 0.261 0.46327 0.38456 0.0
C416 C 0.33813 0.47419 0.38158 0.0
C417 C 0.32699 0.53805 0.37975 0.0
C418 C 0.28988 0.44553 0.38323 0.0
C419 C 0.27964 0.50993 0.38405 0.0
C420 C 0.35623 0.52019 0.37852 0.0
C421 C 0.20526 0.49822 0.39659 0.0
N422 N 0.2155 0.43536 0.38914 0.0
C423 C 0.18852 0.45237 0.39708 0.0
C424 C 0.2507 0.52709 0.38935 0.0
Eu425 Eu 0.18911 0.35759 0.38556 0.0
N426 N 0.27142 0.40089 0.38644 0.0
C427 C 0.29977 0.38411 0.39178 0.0
C428 C 0.36697 0.45622 0.38468 0.0
C429 C 0.34771 0.41128 0.39068 0.0
H430 H 0.15307 0.43037 0.40253 0.0
H431 H 0.36976 0.39739 0.39429 0.0
H432 H 0.39306 0.54247 0.3766 0.0
H433 H 0.18307 0.51122 0.40178 0.0
H434 H 0.28626 0.34988 0.39706 0.0
H435 H 0.96127 0.21809 0.33665 0.0
H436 H 0.40412 0.47713 0.38369 0.0
H437 H 0.20996 0.25791 0.29979 0.0
H438 H 0.04149 0.28068 0.33451 0.0
H439 H 0.19897 0.18658 0.28448 0.0
H440 H 0.34169 0.57384 0.37875 0.0
H441 H 0.94511 0.14128 0.32915 0.0
H442 H 0.97478 0.09072 0.316 0.0
H443 H 0.26371 0.56266 0.38915 0.0
H444 H 0.03941 0.08236 0.30099 0.0
N445 N 0.07037 0.23982 0.32766 0.0
C446 C 0.03471 0.24738 0.33162 0.0
C447 C 0.98032 0.16868 0.3285 0.0
C448 C 0.01675 0.16163 0.32234 0.0
C449 C 0.98928 0.21195 0.33267 0.0
C450 C 0.06198 0.19847 0.32192 0.0
H451 H 0.12272 0.11824 0.28825 0.0
N452 N 0.14092 0.23035 0.31283 0.0
C453 C 0.17046 0.188 0.29293 0.0
C454 C 0.09831 0.19367 0.31388 0.0
C455 C 0.17664 0.22838 0.30185 0.0
C456 C 0.12737 0.1495 0.29509 0.0
C457 C 0.0905 0.15204 0.3055 0.0
O458 O 0.18372 0.33019 0.29131 0.0
O459 O 0.20423 0.35739 0.34551 0.0
O460 O 0.15406 0.38981 0.3645 0.0
O461 O 0.12219 0.34808 0.32887 0.0
O462 O 0.22394 0.32509 0.32051 0.0
O463 O 0.11019 0.29962 0.29294 0.0
O464 O 0.15158 0.36038 0.41829 0.0
O465 O 0.12654 0.30773 0.36385 0.0
O466 O 0.16863 0.25684 0.34989 0.0
O467 O 0.21432 0.30835 0.37963 0.0
O468 O 0.13518 0.28969 0.3989 0.0
O469 O 0.20944 0.34925 0.42223 0.0
C470 C 0.23882 0.35801 0.33549 0.0
C471 C 0.14411 0.30165 0.25405 0.0
C472 C 0.15777 0.31301 0.20949 0.0
C473 C 0.15699 0.32973 0.23307 0.0
C474 C 0.14599 0.26818 0.20732 0.0
C475 C 0.1306 0.25663 0.25108 0.0
C476 C 0.13204 0.24018 0.22793 0.0
C477 C 0.13151 0.38204 0.34341 0.0
C478 C 0.14663 0.31983 0.27895 0.0
C479 C 0.04598 0.11474 0.30701 0.0
C480 C 0.00918 0.11949 0.31556 0.0
C481 C 0.10871 0.27715 0.38013 0.0
C482 C 0.18975 0.37562 0.45746 0.0
C483 C 0.1712 0.35072 0.47935 0.0
C484 C 0.1886 0.36983 0.5026 0.0
C485 C 0.22376 0.4147 0.50349 0.0
C486 C 0.22442 0.42036 0.45889 0.0
C487 C 0.24099 0.43982 0.48184 0.0
C488 C 0.19621 0.2684 0.36944 0.0
C489 C 0.17701 0.35268 0.43355 0.0
H490 H 0.16647 0.36434 0.23506 0.0
H491 H 0.14655 0.25458 0.18949 0.0
H492 H 0.11898 0.23412 0.26663 0.0
H493 H 0.12209 0.20549 0.22593 0.0
H494 H 0.1447 0.31597 0.47829 0.0
H495 H 0.23805 0.43025 0.52102 0.0
H496 H 0.23952 0.4398 0.44229 0.0
H497 H 0.26808 0.47428 0.48284 0.0
Eu498 Eu 0.70555 0.8473 0.3263 0.0
C499 C 0.52568 0.74356 0.38922 0.0
C500 C 0.48251 0.78102 0.38086 0.0
C501 C 0.44191 0.70114 0.38834 0.0
C502 C 0.52489 0.78194 0.38336 0.0
C503 C 0.48421 0.70284 0.39228 0.0
C504 C 0.44106 0.74019 0.38264 0.0
C505 C 0.52937 0.66937 0.4047 0.0
N506 N 0.56726 0.74644 0.39268 0.0
C507 C 0.56959 0.71054 0.40148 0.0
C508 C 0.48653 0.6653 0.39971 0.0
Eu509 Eu 0.63394 0.8168 0.38428 0.0
N510 N 0.56553 0.82076 0.38187 0.0
C511 C 0.56609 0.86025 0.38134 0.0
C512 C 0.48314 0.8214 0.37769 0.0
C513 C 0.5251 0.8613 0.37866 0.0
H514 H 0.60252 0.71322 0.40516 0.0
H515 H 0.5259 0.89284 0.37745 0.0
H516 H 0.40816 0.73865 0.38041 0.0
H517 H 0.53145 0.64075 0.41096 0.0
H518 H 0.59836 0.89092 0.38302 0.0
H519 H 0.79603 0.75303 0.33092 0.0
H520 H 0.45148 0.8223 0.37561 0.0
H521 H 0.74936 0.95103 0.30311 0.0
H522 H 0.72897 0.76418 0.32668 0.0
H523 H 0.82491 0.01975 0.29898 0.0
H524 H 0.40966 0.67005 0.3903 0.0
H525 H 0.87455 0.81841 0.33425 0.0
H526 H 0.92556 0.90179 0.33254 0.0
H527 H 0.45544 0.63335 0.4022 0.0
H528 H 0.9336 0.97501 0.32354 0.0
N529 N 0.76858 0.83431 0.32858 0.0
C530 C 0.76291 0.79259 0.32819 0.0
C531 C 0.84515 0.82327 0.33238 0.0
C532 C 0.85101 0.86605 0.33059 0.0
C533 C 0.80093 0.78632 0.33045 0.0
C534 C 0.81153 0.87041 0.32815 0.0
H535 H 0.89618 0.01927 0.3104 0.0
N536 N 0.77717 0.91314 0.31868 0.0
C537 C 0.8229 0.98964 0.30613 0.0
C538 C 0.816 0.91135 0.32315 0.0
C539 C 0.7801 0.95077 0.30873 0.0
C540 C 0.86303 0.98925 0.31263 0.0
C541 C 0.86002 0.94943 0.32059 0.0
O542 O 0.68106 0.85667 0.29079 0.0
O543 O 0.64186 0.8397 0.34467 0.0
O544 O 0.59862 0.75779 0.35924 0.0
O545 O 0.65265 0.772 0.32791 0.0
O546 O 0.67434 0.89094 0.3193 0.0
O547 O 0.70759 0.81164 0.29348 0.0
O548 O 0.66129 0.81499 0.42041 0.0
O549 O 0.69503 0.82129 0.36489 0.0
O550 O 0.74016 0.90591 0.35212 0.0
O551 O 0.68076 0.89238 0.38012 0.0
O552 O 0.67458 0.78411 0.39684 0.0
O553 O 0.62615 0.85232 0.41562 0.0
C554 C 0.63959 0.87149 0.33412 0.0
C555 C 0.71431 0.84747 0.25504 0.0
C556 C 0.7077 0.85244 0.21051 0.0
C557 C 0.68821 0.83259 0.23338 0.0
C558 C 0.75389 0.88699 0.20958 0.0
C559 C 0.76066 0.88119 0.25372 0.0
C560 C 0.7803 0.90081 0.23104 0.0
C561 C 0.61235 0.74624 0.33922 0.0
C562 C 0.69131 0.83039 0.27891 0.0
C563 C 0.89946 0.946 0.32497 0.0
C564 C 0.89492 0.90431 0.33001 0.0
C565 C 0.70505 0.79855 0.37952 0.0
C566 C 0.62195 0.8194 0.4548 0.0
C567 C 0.64691 0.83452 0.47682 0.0
C568 C 0.6274 0.81274 0.49931 0.0
C569 C 0.5823 0.77611 0.49951 0.0
C570 C 0.57663 0.78345 0.45544 0.0
C571 C 0.55693 0.76199 0.47773 0.0
C572 C 0.72267 0.91771 0.37058 0.0
C573 C 0.64548 0.83799 0.4312 0.0
H574 H 0.65238 0.80644 0.23435 0.0
H575 H 0.76953 0.90297 0.1922 0.0
H576 H 0.78137 0.8928 0.27019 0.0
H577 H 0.81595 0.92718 0.23014 0.0
H578 H 0.68202 0.86224 0.47638 0.0
H579 H 0.5667 0.75863 0.51657 0.0
H580 H 0.55684 0.77141 0.43871 0.0
H581 H 0.52214 0.73392 0.47807 0.0
Eu582 Eu 0.18845 0.8152 0.38183 0.0
C583 C 0.11036 0.90761 0.31505 0.0
C584 C 0.02786 0.86179 0.32034 0.0
C585 C 0.06193 0.94134 0.31317 0.0
C586 C 0.07224 0.86663 0.31981 0.0
C587 C 0.10552 0.94516 0.31069 0.0
C588 C 0.02311 0.89963 0.31796 0.0
C589 C 0.18508 0.9849 0.29735 0.0
N590 N 0.15153 0.90963 0.31204 0.0
C591 C 0.18777 0.94644 0.30157 0.0
C592 C 0.14405 0.98461 0.30252 0.0
Eu593 Eu 0.15518 0.8448 0.32206 0.0
N594 N 0.07817 0.8308 0.32132 0.0
C595 C 0.04093 0.78885 0.32025 0.0
C596 C 0.98956 0.81885 0.32175 0.0
C597 C 0.99611 0.78218 0.32095 0.0
H598 H 0.21899 0.94623 0.29687 0.0
H599 H 0.96672 0.74876 0.32098 0.0
H600 H 0.98939 0.89662 0.31854 0.0
H601 H 0.21445 0.01453 0.28988 0.0
H602 H 0.04564 0.76033 0.31942 0.0
H603 H 0.37568 0.92538 0.38613 0.0
H604 H 0.95486 0.81365 0.32222 0.0
H605 H 0.13219 0.7107 0.40401 0.0
H606 H 0.29441 0.9062 0.38762 0.0
H607 H 0.14461 0.64647 0.40882 0.0
H608 H 0.05753 0.96991 0.31022 0.0
H609 H 0.39563 0.86591 0.38256 0.0
H610 H 0.36871 0.78396 0.38329 0.0
H611 H 0.14181 0.01422 0.29894 0.0
H612 H 0.30524 0.70716 0.38962 0.0
N613 N 0.26794 0.8366 0.38344 0.0
C614 C 0.30229 0.87984 0.38571 0.0
C615 C 0.35976 0.85729 0.38303 0.0
C616 C 0.3244 0.81282 0.38316 0.0
C617 C 0.34863 0.89091 0.38513 0.0
C618 C 0.27832 0.80353 0.38381 0.0
H619 H 0.22137 0.65552 0.39984 0.0
N620 N 0.19992 0.75426 0.39065 0.0
C621 C 0.17249 0.67828 0.40252 0.0
C622 C 0.24291 0.76068 0.3875 0.0
C623 C 0.16546 0.71456 0.39965 0.0
C624 C 0.21581 0.68349 0.39736 0.0
C625 C 0.25209 0.72546 0.39048 0.0
O626 O 0.15521 0.79326 0.418 0.0
O627 O 0.13596 0.82577 0.36177 0.0
O628 O 0.18073 0.90587 0.34599 0.0
O629 O 0.21787 0.89046 0.37801 0.0
O630 O 0.11106 0.77462 0.38732 0.0
O631 O 0.21328 0.85959 0.41344 0.0
O632 O 0.19207 0.85572 0.28714 0.0
O633 O 0.20695 0.83285 0.34201 0.0
O634 O 0.16303 0.755 0.35722 0.0
O635 O 0.12328 0.76935 0.32626 0.0
O636 O 0.23262 0.88456 0.31674 0.0
O637 O 0.12012 0.80621 0.28919 0.0
C638 C 0.09924 0.7956 0.37201 0.0
C639 C 0.20171 0.82663 0.4529 0.0
C640 C 0.19944 0.82982 0.49782 0.0
C641 C 0.18067 0.82988 0.47462 0.0
C642 C 0.2389 0.82541 0.49897 0.0
C643 C 0.24072 0.82169 0.45443 0.0
C644 C 0.25909 0.82098 0.47741 0.0
C645 C 0.20694 0.91723 0.36589 0.0
C646 C 0.18368 0.83028 0.42886 0.0
C647 C 0.29748 0.73385 0.38778 0.0
C648 C 0.33364 0.77756 0.38414 0.0
C649 C 0.24395 0.86303 0.33199 0.0
C650 C 0.14935 0.84285 0.25086 0.0
C651 C 0.16104 0.82876 0.22915 0.0
C652 C 0.15935 0.84693 0.20615 0.0
C653 C 0.14555 0.8791 0.2052 0.0
C654 C 0.13422 0.87388 0.2494 0.0
C655 C 0.13254 0.89201 0.22668 0.0
C656 C 0.13598 0.74327 0.33766 0.0
C657 C 0.15607 0.82727 0.27493 0.0
H658 H 0.15042 0.83358 0.4735 0.0
H659 H 0.25405 0.82543 0.5166 0.0
H660 H 0.2572 0.81891 0.43788 0.0
H661 H 0.28938 0.81746 0.4785 0.0
H662 H 0.17224 0.80439 0.23015 0.0
H663 H 0.14428 0.89375 0.18775 0.0
H664 H 0.12416 0.88443 0.2658 0.0
H665 H 0.12135 0.91635 0.22573 0.0
Eu666 Eu 0.83412 0.64528 0.65972 0.0
C667 C 0.91635 0.79288 0.74603 0.0
C668 C 0.99153 0.80165 0.75415 0.0
C669 C 0.97287 0.85643 0.76946 0.0
C670 C 0.94704 0.77738 0.74378 0.0
C671 C 0.92917 0.83292 0.75858 0.0
C672 C 0.00389 0.8407 0.76736 0.0
C673 C 0.85442 0.82345 0.74899 0.0
N674 N 0.87434 0.76938 0.73542 0.0
C675 C 0.84298 0.78359 0.73715 0.0
C676 C 0.89768 0.84821 0.75981 0.0
Eu677 Eu 0.85414 0.69789 0.7205 0.0
N678 N 0.9347 0.74059 0.72986 0.0
C679 C 0.96668 0.72805 0.72468 0.0
C680 C 0.02295 0.78697 0.75015 0.0
C681 C 0.01067 0.75043 0.73505 0.0
H682 H 0.80847 0.76339 0.73007 0.0
H683 H 0.03532 0.73975 0.73108 0.0
H684 H 0.03779 0.85959 0.77549 0.0
H685 H 0.8295 0.83456 0.75022 0.0
H686 H 0.95943 0.70124 0.71229 0.0
H687 H 0.64683 0.54104 0.656 0.0
H688 H 0.05734 0.80461 0.75782 0.0
H689 H 0.91488 0.62085 0.64191 0.0
H690 H 0.7214 0.61092 0.65888 0.0
H691 H 0.92006 0.5557 0.62831 0.0
H692 H 0.98317 0.88705 0.77932 0.0
H693 H 0.64547 0.4699 0.64927 0.0
H694 H 0.68955 0.43054 0.64017 0.0
H695 H 0.9063 0.87886 0.76922 0.0
H696 H 0.76386 0.43486 0.63165 0.0
N697 N 0.76144 0.57957 0.65636 0.0
C698 C 0.72105 0.58006 0.6567 0.0
C699 C 0.67819 0.50046 0.65106 0.0
C700 C 0.71989 0.50074 0.64839 0.0
C701 C 0.67881 0.54051 0.65481 0.0
C702 C 0.76153 0.54143 0.65107 0.0
H703 H 0.84972 0.48158 0.62643 0.0
N704 N 0.84253 0.58372 0.6485 0.0
C705 C 0.88705 0.55181 0.63354 0.0
C706 C 0.80329 0.54368 0.64658 0.0
C707 C 0.88401 0.58859 0.64134 0.0
C708 C 0.84725 0.51003 0.63249 0.0
C709 C 0.80463 0.50558 0.63885 0.0
O710 O 0.87163 0.66811 0.62488 0.0
O711 O 0.87823 0.70813 0.68106 0.0
O712 O 0.83352 0.73687 0.69422 0.0
O713 O 0.80201 0.69 0.66022 0.0
O714 O 0.91217 0.68703 0.65874 0.0
O715 O 0.79984 0.64922 0.62595 0.0
O716 O 0.82934 0.70164 0.7574 0.0
O717 O 0.80395 0.64051 0.69779 0.0
O718 O 0.8567 0.60682 0.6849 0.0
O719 O 0.88308 0.65107 0.71963 0.0
O720 O 0.77845 0.67288 0.71896 0.0
O721 O 0.83707 0.64562 0.74817 0.0
C722 C 0.91787 0.71953 0.67254 0.0
C723 C 0.8313 0.64369 0.58737 0.0
C724 C 0.83936 0.65306 0.54239 0.0
C725 C 0.83938 0.67019 0.566 0.0
C726 C 0.83077 0.60914 0.54059 0.0
C727 C 0.82187 0.59975 0.58485 0.0
C728 C 0.82166 0.58266 0.56163 0.0
C729 C 0.81089 0.72605 0.67292 0.0
C730 C 0.83651 0.6632 0.61215 0.0
C731 C 0.76345 0.46461 0.63722 0.0
C732 C 0.72116 0.46214 0.64211 0.0
C733 C 0.76681 0.63913 0.7048 0.0
C734 C 0.85123 0.66975 0.78954 0.0
C735 C 0.82545 0.6492 0.81109 0.0
C736 C 0.84824 0.65309 0.83361 0.0
C737 C 0.89655 0.67777 0.83439 0.0
C738 C 0.89951 0.69394 0.7909 0.0
C739 C 0.92197 0.69801 0.81313 0.0
C740 C 0.87655 0.61611 0.70687 0.0
C741 C 0.82824 0.66584 0.76565 0.0
H742 H 0.84653 0.70417 0.56773 0.0
H743 H 0.83072 0.59519 0.52277 0.0
H744 H 0.81534 0.57879 0.60081 0.0
H745 H 0.81476 0.54879 0.55994 0.0
H746 H 0.78813 0.63023 0.81037 0.0
H747 H 0.91459 0.68112 0.8515 0.0
H748 H 0.92004 0.70916 0.7747 0.0
H749 H 0.95925 0.71671 0.81384 0.0
Eu750 Eu 0.36923 0.18154 0.65337 0.0
C751 C 0.19494 0.10789 0.72391 0.0
C752 C 0.16543 0.15811 0.71739 0.0
C753 C 0.11416 0.08281 0.73218 0.0
C754 C 0.20195 0.14892 0.71654 0.0
C755 C 0.15125 0.07468 0.73245 0.0
C756 C 0.12128 0.12449 0.72467 0.0
C757 C 0.18529 0.02978 0.74327 0.0
N758 N 0.23165 0.10147 0.72427 0.0
C759 C 0.22784 0.06363 0.73444 0.0
C760 C 0.14664 0.03506 0.74197 0.0
Eu761 Eu 0.30387 0.16168 0.71189 0.0
N762 N 0.24539 0.18105 0.7106 0.0
C763 C 0.25539 0.224 0.70726 0.0
C764 C 0.17495 0.20145 0.71221 0.0
C765 C 0.22031 0.23472 0.7076 0.0
H766 H 0.25756 0.05936 0.73559 0.0
H767 H 0.22833 0.26867 0.70436 0.0
H768 H 0.09291 0.131 0.72554 0.0
H769 H 0.18231 -0.00039 0.75098 0.0
H770 H 0.29035 0.2501 0.70382 0.0
H771 H 0.41933 0.05275 0.65314 0.0
H772 H 0.14795 0.20994 0.71267 0.0
H773 H 0.43863 0.2892 0.63418 0.0
H774 H 0.36602 0.08108 0.64872 0.0
H775 H 0.52159 0.34477 0.63329 0.0
H776 H 0.08026 0.05764 0.73852 0.0
H777 H 0.50211 0.10454 0.66049 0.0
H778 H 0.5669 0.18294 0.6636 0.0
H779 H 0.11374 0.00882 0.74884 0.0
H780 H 0.59506 0.26286 0.65815 0.0
N781 N 0.41724 0.14917 0.6546 0.0
C782 C 0.40172 0.1046 0.65221 0.0
C783 C 0.47875 0.11746 0.65854 0.0
C784 C 0.49509 0.16324 0.65885 0.0
C785 C 0.43209 0.08815 0.65438 0.0
C786 C 0.46328 0.17845 0.65619 0.0
H787 H 0.57864 0.32325 0.64607 0.0
N788 N 0.44827 0.23736 0.64896 0.0
C789 C 0.51017 0.31103 0.63934 0.0
C790 C 0.47919 0.22372 0.6534 0.0
C791 C 0.46321 0.27944 0.63988 0.0
C792 C 0.5422 0.29876 0.64661 0.0
C793 C 0.52704 0.2544 0.65299 0.0
O794 O 0.37239 0.21601 0.6187 0.0
O795 O 0.31596 0.1915 0.6739 0.0
O796 O 0.2612 0.10227 0.68688 0.0
O797 O 0.31763 0.10788 0.65959 0.0
O798 O 0.3026 0.17324 0.63769 0.0
O799 O 0.36529 0.15001 0.6185 0.0
O800 O 0.32263 0.14942 0.7486 0.0
O801 O 0.36594 0.16583 0.69341 0.0
O802 O 0.4046 0.24571 0.6758 0.0
O803 O 0.35435 0.2357 0.7083 0.0
O804 O 0.33475 0.11776 0.72016 0.0
O805 O 0.31558 0.20716 0.74216 0.0
C806 C 0.2864 0.18177 0.65692 0.0
C807 C 0.39707 0.1936 0.58287 0.0
C808 C 0.39902 0.18761 0.53813 0.0
C809 C 0.37529 0.18595 0.55988 0.0
C810 C 0.44547 0.19872 0.53963 0.0
C811 C 0.44352 0.205 0.58402 0.0
C812 C 0.46768 0.20798 0.56242 0.0
C813 C 0.27472 0.08667 0.66825 0.0
C814 C 0.36882 0.18318 0.60528 0.0
C815 C 0.55831 0.23958 0.65777 0.0
C816 C 0.54232 0.19409 0.66078 0.0
C817 C 0.36889 0.13549 0.70497 0.0
C818 C 0.29846 0.17571 0.78217 0.0
C819 C 0.3218 0.17695 0.80386 0.0
C820 C 0.30134 0.17352 0.827 0.0
C821 C 0.25658 0.16733 0.82817 0.0
C822 C 0.25358 0.16903 0.78362 0.0
C823 C 0.23272 0.16463 0.80656 0.0
C824 C 0.39307 0.25968 0.69583 0.0
C825 C 0.32238 0.18335 0.75842 0.0
H826 H 0.33918 0.17653 0.55898 0.0
H827 H 0.46438 0.19995 0.52315 0.0
H828 H 0.46065 0.21025 0.60158 0.0
H829 H 0.50341 0.21637 0.56341 0.0
H830 H 0.35645 0.18202 0.8028 0.0
H831 H 0.24026 0.16475 0.84583 0.0
H832 H 0.23498 0.16789 0.76711 0.0
H833 H 0.19822 0.15978 0.8076 0.0
Eu834 Eu 0.85394 0.15628 0.71725 0.0
C835 C 0.76982 0.24449 0.64867 0.0
C836 C 0.68767 0.19931 0.65599 0.0
C837 C 0.72001 0.27591 0.64204 0.0
C838 C 0.73225 0.20457 0.65593 0.0
C839 C 0.76387 0.28008 0.64071 0.0
C840 C 0.68199 0.23563 0.64978 0.0
C841 C 0.84397 0.31933 0.62823 0.0
N842 N 0.8117 0.24736 0.64753 0.0
C843 C 0.84834 0.28349 0.63675 0.0
C844 C 0.80175 0.31798 0.63061 0.0
Eu845 Eu 0.81523 0.18319 0.65882 0.0
N846 N 0.73875 0.16976 0.66086 0.0
C847 C 0.70182 0.12791 0.66378 0.0
C848 C 0.64994 0.1571 0.66098 0.0
C849 C 0.657 0.12108 0.66439 0.0
H850 H 0.88095 0.28467 0.63458 0.0
H851 H 0.62794 0.08801 0.66744 0.0
H852 H 0.64813 0.23234 0.64984 0.0
H853 H 0.8732 0.34804 0.61994 0.0
H854 H 0.70681 0.09974 0.66625 0.0
H855 H 0.02702 0.29919 0.73723 0.0
H856 H 0.61515 0.15154 0.66122 0.0
H857 H 0.82877 0.04799 0.72446 0.0
H858 H 0.94324 0.25749 0.73878 0.0
H859 H 0.86682 0.00404 0.71766 0.0
H860 H 0.71484 0.30307 0.63632 0.0
H861 H 0.07017 0.26341 0.72214 0.0
H862 H 0.06874 0.19422 0.70805 0.0
H863 H 0.79849 0.34584 0.62407 0.0
H864 H 0.02463 0.11312 0.70227 0.0
N865 N 0.9364 0.19891 0.72209 0.0
C866 C 0.96041 0.24138 0.73104 0.0
C867 C 0.03282 0.24487 0.72239 0.0
C868 C 0.00853 0.20006 0.71578 0.0
C869 C 0.00861 0.26518 0.7308 0.0
C870 C 0.95977 0.17737 0.71646 0.0
H871 H 0.94977 0.04178 0.70705 0.0
N872 N 0.88873 0.11045 0.71618 0.0
C873 C 0.88641 0.03994 0.71597 0.0
C874 C 0.93514 0.13181 0.7133 0.0
C875 C 0.865 0.06516 0.71979 0.0
C876 C 0.93314 0.06134 0.70995 0.0
C877 C 0.95846 0.10784 0.7094 0.0
O878 O 0.80755 0.10249 0.74205 0.0
O879 O 0.79268 0.1509 0.69624 0.0
O880 O 0.83869 0.24379 0.68387 0.0
O881 O 0.87729 0.23006 0.71567 0.0
O882 O 0.80231 0.1746 0.7319 0.0
O883 O 0.86511 0.16371 0.75729 0.0
O884 O 0.8502 0.18798 0.62379 0.0
O885 O 0.86939 0.17327 0.67752 0.0
O886 O 0.82518 0.09663 0.69165 0.0
O887 O 0.78326 0.10808 0.66127 0.0
O888 O 0.89234 0.22647 0.6534 0.0
O889 O 0.77647 0.14905 0.62567 0.0
C890 C 0.77552 0.16365 0.71314 0.0
C891 C 0.81469 0.10587 0.78672 0.0
C892 C 0.8027 0.11401 0.83042 0.0
C893 C 0.81928 0.13316 0.80696 0.0
C894 C 0.78264 0.0678 0.83353 0.0
C895 C 0.79409 0.05968 0.79027 0.0
C896 C 0.77847 0.04088 0.81358 0.0
C897 C 0.86379 0.25567 0.7044 0.0
C898 C 0.8291 0.12466 0.76167 0.0
C899 C 0.00646 0.1309 0.7062 0.0
C900 C 0.03151 0.177 0.70945 0.0
C901 C 0.90529 0.2053 0.66788 0.0
C902 C 0.81009 0.18291 0.58727 0.0
C903 C 0.82245 0.16884 0.56574 0.0
C904 C 0.82392 0.18879 0.54278 0.0
C905 C 0.81318 0.2231 0.54174 0.0
C906 C 0.79735 0.21567 0.58551 0.0
C907 C 0.79939 0.23596 0.56293 0.0
C908 C 0.7975 0.08327 0.67244 0.0
C909 C 0.81256 0.1646 0.61144 0.0
H910 H 0.83455 0.1688 0.80442 0.0
H911 H 0.76983 0.05254 0.85144 0.0
H912 H 0.79008 0.03808 0.77499 0.0
H913 H 0.76273 0.00525 0.81615 0.0
H914 H 0.83129 0.14278 0.56684 0.0
H915 H 0.81446 0.2392 0.52436 0.0
H916 H 0.78593 0.22571 0.60153 0.0
H917 H 0.79015 0.26168 0.56184 0.0
C918 C 0.30025 0.89311 0.0526 0.0
C919 C 0.30009 0.85585 0.06341 0.0
C920 C 0.38406 0.89261 0.05852 0.0
C921 C 0.38419 0.92896 0.04617 0.0
N922 N 0.3449 0.97123 0.04238 0.0
N923 N 0.34035 0.8166 0.07348 0.0
C924 C 0.34291 0.93134 0.04614 0.0
C925 C 0.3415 0.85442 0.06521 0.0
N926 N 0.25937 0.89159 0.04803 0.0
N927 N 0.42433 0.89726 0.06742 0.0
H928 H 0.31014 0.78848 0.07941 0.0
H929 H 0.36871 0.81192 0.07256 0.0
H930 H 0.45602 0.92608 0.0651 0.0
H931 H 0.42567 0.8748 0.07974 0.0
H932 H 0.25685 0.91555 0.03757 0.0
H933 H 0.22749 0.86409 0.05259 0.0
H934 H 0.31665 0.97583 0.04445 0.0
H935 H 0.37578 0.00112 0.04038 0.0
C936 C 0.14252 0.48162 0.06966 0.0
C937 C 0.14221 0.44093 0.06732 0.0
C938 C 0.06888 0.40919 0.0449 0.0
C939 C 0.06828 0.44961 0.04824 0.0
N940 N 0.09545 0.51569 0.07304 0.0
N941 N 0.1038 0.36415 0.05494 0.0
C942 C 0.10278 0.48377 0.06296 0.0
C943 C 0.10496 0.40413 0.05553 0.0
N944 N 0.1806 0.51827 0.07861 0.0
N945 N 0.03523 0.37594 0.03117 0.0
H946 H 0.13076 0.35995 0.0613 0.0
H947 H 0.07545 0.33447 0.04932 0.0
H948 H 0.00915 0.37911 0.02273 0.0
H949 H 0.0352 0.34708 0.02607 0.0
H950 H 0.18413 0.54989 0.07843 0.0
H951 H 0.21013 0.51776 0.08419 0.0
H952 H 0.11677 0.53766 0.08649 0.0
H953 H 0.0662 0.51803 0.06964 0.0
C954 C 0.58626 0.70076 0.05491 0.0
C955 C 0.55879 0.69863 0.07535 0.0
C956 C 0.51573 0.61727 0.07297 0.0
C957 C 0.54012 0.61964 0.05098 0.0
N958 N 0.59422 0.66403 0.0191 0.0
N959 N 0.49309 0.6561 0.10182 0.0
C960 C 0.57404 0.66153 0.04135 0.0
C961 C 0.52248 0.65719 0.08394 0.0
N962 N 0.625 0.74008 0.04898 0.0
N963 N 0.48597 0.5769 0.08341 0.0
H964 H 0.49707 0.68465 0.11037 0.0
H965 H 0.46267 0.6274 0.1068 0.0
H966 H 0.47718 0.54666 0.07518 0.0
H967 H 0.47189 0.57324 0.10097 0.0
H968 H 0.6492 0.74277 0.036 0.0
H969 H 0.6353 0.7695 0.05862 0.0
H970 H 0.61488 0.6938 1.00969 0.0
H971 H 0.58755 0.63599 1.00911 0.0
C972 C 0.85504 0.32293 0.95932 0.0
C973 C 0.84667 0.28192 0.96968 0.0
C974 C 0.8985 0.32205 1.00394 0.0
C975 C 0.9103 0.36317 0.99229 0.0
N976 N 0.90632 0.4024 0.95622 0.0
N977 N 0.86752 0.2427 0.99912 0.0
C978 C 0.89072 0.36349 0.96911 0.0
C979 C 0.87033 0.28151 0.99128 0.0
N980 N 0.82747 0.32331 0.94088 0.0
N981 N 0.91396 0.32154 0.02711 0.0
H982 H 0.84824 0.21254 0.99 0.0
H983 H 0.88774 0.24115 1.01323 0.0
H984 H 0.9362 0.35047 0.0365 0.0
H985 H 0.90206 0.29268 0.03769 0.0
H986 H 0.8287 0.35228 0.93452 0.0
H987 H 0.80018 0.29438 0.93358 0.0
H988 H 0.89706 0.40368 0.93804 0.0
H989 H 0.93137 0.43317 0.96286 0.0
C990 C 0.66272 0.50426 0.98167 0.0
C991 C 0.70162 0.5476 0.98288 0.0
C992 C 0.65591 0.57374 1.00499 0.0
C993 C 0.61611 0.53068 1.00307 0.0
N994 N 0.58628 0.45231 0.99648 0.0
N995 N 0.73891 0.62091 1.00035 0.0
C996 C 0.62099 0.49506 0.99363 0.0
C997 C 0.69936 0.58149 0.99611 0.0
N998 N 0.6651 0.47224 0.96821 0.0
N999 N 0.65179 0.60738 1.01526 0.0
H1000 H 0.77108 0.62783 0.99369 0.0
H1001 H 0.74072 0.64554 1.01192 0.0
H1002 H 0.62231 0.60124 0.02492 0.0
H1003 H 0.67694 0.64087 1.01418 0.0
H1004 H 0.63642 0.44181 0.96379 0.0
H1005 H 0.69547 0.47718 0.95996 0.0
H1006 H 0.58916 0.42455 0.99231 0.0
H1007 H 0.55645 0.44464 1.0059 0.0
C1008 C 0.40412 0.1055 0.97611 0.0
C1009 C 0.43965 0.14706 0.96736 0.0
C1010 C 0.49738 0.1325 0.98621 0.0
C1011 C 0.46231 0.08774 0.99182 0.0
N1012 N 0.38125 0.03171 0.99049 0.0
N1013 N 0.52046 0.19766 0.96046 0.0
C1014 C 0.41547 0.07429 0.98613 0.0
C1015 C 0.48633 0.15994 0.9715 0.0
N1016 N 0.35943 0.09659 0.97603 0.0
N1017 N 0.54126 0.14976 0.99489 0.0
H1018 H 0.51384 0.21854 0.94943 0.0
H1019 H 0.55496 0.20592 0.96028 0.0
H1020 H 0.55371 0.13163 1.00395 0.0
H1021 H 0.56525 0.1837 0.99438 0.0
H1022 H 0.33253 0.0691 0.98484 0.0
H1023 H 0.3497 0.11885 0.96922 0.0
H1024 H 0.34821 0.01815 0.98319 0.0
H1025 H 0.38636 0.00943 1.00076 0.0
C1026 C 0.65793 0.13677 0.97205 0.0
C1027 C 0.69904 0.1348 0.97299 0.0
C1028 C 0.65606 0.05835 0.98873 0.0
C1029 C 0.6148 0.06079 0.98934 0.0
N1030 N 0.57522 0.09468 0.96968 0.0
N1031 N 0.73959 0.09821 0.98725 0.0
C1032 C 0.61525 0.09829 0.9782 0.0
C1033 C 0.69877 0.09699 0.98298 0.0
N1034 N 0.65949 0.17542 0.96513 0.0
N1035 N 0.65412 0.01821 0.99095 0.0
H1036 H 0.77151 0.12605 0.98314 0.0
H1037 H 0.74195 0.07361 0.99714 0.0
H1038 H 0.6233 0.98809 0.99172 0.0
H1039 H 0.68253 0.01399 0.98848 0.0
H1040 H 0.63133 0.18031 0.9668 0.0
H1041 H 0.68995 0.20389 0.95981 0.0
H1042 H 0.57427 0.11821 0.95806 0.0
H1043 H 0.54337 0.06594 0.97154 0.0
C1044 C 0.89607 0.58652 0.98626 0.0
C1045 C 0.85306 0.55082 0.97874 0.0
C1046 C 0.87989 0.49824 0.98811 0.0
C1047 C 0.92485 0.53441 0.9934 0.0
N1048 N 0.97741 0.61407 0.99164 0.0
N1049 N 0.80454 0.47294 0.97003 0.0
C1050 C 0.93335 0.57888 0.99091 0.0
C1051 C 0.84487 0.50665 0.97932 0.0
N1052 N 0.90119 0.62785 0.98922 0.0
N1053 N 0.87083 0.45563 0.99073 0.0
H1054 H 0.77779 0.47753 0.96376 0.0
H1055 H 0.79844 0.4409 0.96686 0.0
H1056 H 0.89648 0.44852 0.99463 0.0
H1057 H 0.83792 0.42778 0.99068 0.0
H1058 H 0.93013 0.6542 0.99727 0.0
H1059 H 0.87458 0.63456 0.98586 0.0
H1060 H 0.98598 0.64651 0.98701 0.0
H1061 H 0.00616 0.61073 0.9949 0.0
C1062 C 0.46722 0.32777 0.96011 0.0
C1063 C 0.43086 0.28647 0.96888 0.0
C1064 C 0.41534 0.32432 1.00233 0.0
C1065 C 0.44896 0.366 0.99229 0.0
N1066 N 0.50329 0.408 0.95982 0.0
N1067 N 0.3655 0.24515 0.99576 0.0
C1068 C 0.47362 0.36788 0.97055 0.0
C1069 C 0.40358 0.28463 0.98932 0.0
N1070 N 0.49701 0.32855 0.94257 0.0
N1071 N 0.39504 0.32253 0.02445 0.0
H1072 H 0.35596 0.21534 0.98671 0.0
H1073 H 0.34127 0.24246 1.00872 0.0
H1074 H 0.4015 0.35093 0.03401 0.0
H1075 H 0.37452 0.29312 0.03418 0.0
H1076 H 0.52733 0.35724 0.93746 0.0
H1077 H 0.49371 0.29983 0.93459 0.0
H1078 H 0.5175 0.41122 0.94233 0.0
H1079 H 0.5118 0.43843 0.9677 0.0
C1080 C 0.11331 0.69755 0.05769 0.0
C1081 C 0.15647 0.7051 0.06636 0.0
C1082 C 0.13823 0.6311 0.05227 0.0
C1083 C 0.09232 0.62094 0.04636 0.0
N1084 N 0.03608 0.64515 0.04463 0.0
N1085 N 0.2077 0.6772 0.07553 0.0
C1086 C 0.07982 0.65431 0.04961 0.0
C1087 C 0.16837 0.67146 0.06454 0.0
N1088 N 0.10513 0.73238 0.05613 0.0
N1089 N 0.15391 0.60288 0.04603 0.0
H1090 H 0.23095 0.7064 0.08452 0.0
H1091 H 0.21528 0.65168 0.07766 0.0
H1092 H 0.13348 0.57139 0.03879 0.0
H1093 H 0.18864 0.61204 0.0465 0.0
H1094 H 0.07653 0.73049 0.04743 0.0
H1095 H 0.12912 0.76463 0.06151 0.0
H1096 H 0.02284 0.66532 0.05001 0.0
H1097 H 0.01228 0.61631 0.03589 0.0
C1098 C 0.29186 0.40668 0.05028 0.0
C1099 C 0.29179 0.44124 0.06401 0.0
C1100 C 0.37131 0.49239 0.05075 0.0
C1101 C 0.37456 0.45611 0.04096 0.0
N1102 N 0.33633 0.37902 0.02933 0.0
N1103 N 0.3318 0.51677 0.07857 0.0
C1104 C 0.33406 0.41338 0.04001 0.0
C1105 C 0.33149 0.48414 0.06441 0.0
N1106 N 0.25139 0.36774 0.04679 0.0
N1107 N 0.40536 0.53488 0.04632 0.0
H1108 H 0.30299 0.51245 0.08836 0.0
H1109 H 0.36153 0.54694 0.08213 0.0
H1110 H 0.43306 0.54175 0.03515 0.0
H1111 H 0.40317 0.56289 0.05086 0.0
H1112 H 0.24791 0.34278 0.03493 0.0
H1113 H 0.22013 0.36158 0.05444 0.0
H1114 H 0.31077 0.34575 0.03095 0.0
H1115 H 0.36472 0.38429 0.01886 0.0
C1116 C 0.50843 0.82851 0.06694 0.0
C1117 C 0.55498 0.84011 0.07046 0.0
C1118 C 0.58044 0.91009 0.04811 0.0
C1119 C 0.53367 0.898 0.04361 0.0
N1120 N 0.45362 0.8383 0.04306 0.0
N1121 N 0.63488 0.88622 0.05919 0.0
C1122 C 0.49781 0.85488 0.05109 0.0
C1123 C 0.59092 0.87932 0.05958 0.0
N1124 N 0.4742 0.79336 0.0797 0.0
N1125 N 0.61523 0.95094 0.04112 0.0
H1126 H 0.64384 0.86409 0.06705 0.0
H1127 H 0.6617 0.91162 0.04911 0.0
H1128 H 0.60942 0.97194 0.03004 0.0
H1129 H 0.64918 0.96448 0.04704 0.0
H1130 H 0.44017 0.78657 0.08014 0.0
H1131 H 0.4805 0.7735 0.09176 0.0
H1132 H 0.42838 0.80495 0.04518 0.0
H1133 H 0.4423 0.85624 0.0328 0.0
C1134 C 0.98141 0.231 0.39581 0.0
C1135 C 0.96828 0.18665 0.40243 0.0
C1136 C 0.04366 0.19955 0.38834 0.0
C1137 C 0.05874 0.24542 0.38455 0.0
N1138 N 0.04456 0.30626 0.39195 0.0
N1139 N 0.99051 0.13113 0.40945 0.0
C1140 C 0.02831 0.26163 0.39019 0.0
C1141 C 1.0002 0.17135 0.39968 0.0
N1142 N 0.94902 0.24387 0.39456 0.0
N1143 N 0.07109 0.18285 0.38137 0.0
H1144 H 0.96001 0.11006 0.41886 0.0
H1145 H 0.01455 0.12049 0.41043 0.0
H1146 H 0.10388 0.20283 0.37419 0.0
H1147 H 0.05982 0.14892 0.3807 0.0
H1148 H 0.95622 0.27474 0.38754 0.0
H1149 H 0.91413 0.2221 0.39814 0.0
H1150 H 0.02476 0.31935 0.39879 0.0
H1151 H 0.07873 0.33017 0.38848 0.0
C1152 C 0.82578 0.82212 0.39752 0.0
C1153 C 0.8187 0.77833 0.39838 0.0
C1154 C 0.73928 0.74875 0.384 0.0
C1155 C 0.74649 0.79279 0.38179 0.0
N1156 N 0.7985 0.87182 0.38503 0.0
N1157 N 0.7733 0.70143 0.38691 0.0
C1158 C 0.79057 0.82959 0.38787 0.0
C1159 C 0.7769 0.74217 0.38979 0.0
N1160 N 0.86528 0.85632 0.4072 0.0
N1161 N 0.69587 0.71286 0.38185 0.0
H1162 H 0.80013 0.69544 0.39109 0.0
H1163 H 0.74558 0.67491 0.37817 0.0
H1164 H 0.6671 0.71559 0.37751 0.0
H1165 H 0.68766 0.68044 0.38623 0.0
H1166 H 0.87062 0.88818 0.41009 0.0
H1167 H 0.89214 0.85229 0.41391 0.0
H1168 H 0.83084 0.9003 0.38602 0.0
H1169 H 0.7727 0.87806 0.37983 0.0
C1170 C 0.21674 0.00783 0.40927 0.0
C1171 C 0.25387 0.04634 0.39834 0.0
C1172 C 0.25646 0.00116 0.36445 0.0
C1173 C 0.22266 0.96194 0.37668 0.0
N1174 N 0.17383 0.92746 0.41232 0.0
N1175 N 0.31392 0.07939 0.36762 0.0
C1176 C 0.20393 0.96515 0.39963 0.0
C1177 C 0.27499 0.04295 0.37645 0.0
N1178 N 0.19225 0.0122 0.42816 0.0
N1179 N 0.27071 -0.00128 0.34126 0.0
H1180 H 0.32859 0.11056 0.37592 0.0
H1181 H 0.33399 0.078 0.35337 0.0
H1182 H 0.2598 0.96868 0.33238 0.0
H1183 H 0.29071 0.02645 0.33017 0.0
H1184 H 0.16164 0.98594 0.43511 0.0
H1185 H 0.20009 0.04293 0.43544 0.0
H1186 H 0.16388 0.92764 0.43048 0.0
H1187 H 0.16079 0.89553 0.40532 0.0
C1188 C 0.55975 0.62579 0.31626 0.0
C1189 C 0.51578 0.6172 0.30837 0.0
C1190 C 0.53286 0.69059 0.32303 0.0
C1191 C 0.57916 0.70156 0.32854 0.0
N1192 N 0.6373 0.67967 0.32818 0.0
N1193 N 0.46318 0.64386 0.30007 0.0
C1194 C 0.59282 0.66925 0.32431 0.0
C1195 C 0.50304 0.6502 0.31069 0.0
N1196 N 0.56923 0.59175 0.31709 0.0
N1197 N 0.51664 0.71822 0.32963 0.0
H1198 H 0.44034 0.61478 0.29086 0.0
H1199 H 0.45479 0.6689 0.29837 0.0
H1200 H 0.53693 0.74976 0.33684 0.0
H1201 H 0.48177 0.70858 0.32944 0.0
H1202 H 0.59856 0.59435 0.32528 0.0
H1203 H 0.54573 0.55942 0.31159 0.0
H1204 H 0.65092 0.66013 0.32217 0.0
H1205 H 0.6614 0.70907 0.33632 0.0
C1206 C 0.37271 0.91597 0.31883 0.0
C1207 C 0.37368 0.88065 0.30641 0.0
C1208 C 0.29413 0.82951 0.32 0.0
C1209 C 0.29033 0.86606 0.32899 0.0
N1210 N 0.32741 0.94421 0.33817 0.0
N1211 N 0.33505 0.8041 0.29377 0.0
C1212 C 0.33026 0.9093 0.32875 0.0
C1213 C 0.33443 0.83742 0.3068 0.0
N1214 N 0.4127 0.95567 0.32162 0.0
N1215 N 0.25995 0.7871 0.32457 0.0
H1216 H 0.36423 0.8083 0.28443 0.0
H1217 H 0.30583 0.77333 0.29062 0.0
H1218 H 0.23146 0.78035 0.33503 0.0
H1219 H 0.26241 0.75897 0.32078 0.0
H1220 H 0.41565 0.98128 0.33275 0.0
H1221 H 0.44418 0.96197 0.31422 0.0
H1222 H 0.35222 0.97748 0.33542 0.0
H1223 H 0.29939 0.93933 0.34881 0.0
C1224 C 0.05804 0.43116 0.32003 0.0
C1225 C 0.0927 0.47085 0.3087 0.0
C1226 C 0.15224 0.45744 0.32608 0.0
C1227 C 0.11772 0.41463 0.33446 0.0
N1228 N 0.03726 0.36049 0.33945 0.0
N1229 N 0.17254 0.51826 0.29744 0.0
C1230 C 0.07042 0.40141 0.33135 0.0
C1231 C 0.13975 0.48315 0.31089 0.0
N1232 N 0.01359 0.42278 0.32084 0.0
N1233 N 0.19711 0.47409 0.33277 0.0
H1234 H 0.16485 0.53748 0.28565 0.0
H1235 H 0.20667 0.5256 0.29609 0.0
H1236 H 0.20833 0.45615 0.34313 0.0
H1237 H 0.22261 0.50708 0.32977 0.0
H1238 H 0.98748 0.39689 0.331 0.0
H1239 H 1.00339 0.44393 0.31289 0.0
H1240 H 1.00254 0.34602 0.33491 0.0
H1241 H 0.04515 0.34047 0.35026 0.0
C1242 C 0.36838 0.43033 0.32447 0.0
C1243 C 0.37047 0.46797 0.31285 0.0
C1244 C 0.28705 0.43547 0.31791 0.0
C1245 C 0.28454 0.39803 0.3303 0.0
N1246 N 0.32126 0.35542 0.34076 0.0
N1247 N 0.33422 0.5112 0.30334 0.0
C1248 C 0.32493 0.39436 0.33239 0.0
C1249 C 0.33063 0.47213 0.3113 0.0
N1250 N 0.40841 0.42993 0.32875 0.0
N1251 N 0.24788 0.43383 0.30939 0.0
H1252 H 0.36508 0.5383 0.29723 0.0
H1253 H 0.30731 0.518 0.30485 0.0
H1254 H 0.21487 0.40727 0.31257 0.0
H1255 H 0.24823 0.45707 0.29702 0.0
H1256 H 0.41046 0.40607 0.33951 0.0
H1257 H 0.44063 0.45586 0.32322 0.0
H1258 H 0.34778 0.34809 0.33983 0.0
H1259 H 0.29071 0.3291 0.34781 0.0
C1260 C 0.52411 0.84283 0.30496 0.0
C1261 C 0.52516 0.88394 0.30721 0.0
C1262 C 0.59645 0.91347 0.33135 0.0
C1263 C 0.59713 0.87314 0.32759 0.0
N1264 N 0.56965 0.80696 0.30283 0.0
N1265 N 0.56371 0.9601 0.3206 0.0
C1266 C 0.56291 0.83955 0.31245 0.0
C1267 C 0.56175 0.91977 0.31992 0.0
N1268 N 0.48624 0.80684 0.29533 0.0
N1269 N 0.62869 0.94546 0.34626 0.0
H1270 H 0.53772 0.96519 0.31356 0.0
H1271 H 0.59199 0.98924 0.32686 0.0
H1272 H 0.65343 0.94119 0.35546 0.0
H1273 H 0.62834 0.97401 0.35164 0.0
H1274 H 0.48185 0.77488 0.29569 0.0
H1275 H 0.45757 0.80818 0.28898 0.0
H1276 H 0.5489 0.78547 0.28906 0.0
H1277 H 0.59781 0.80329 0.30713 0.0
C1278 C 0.13246 0.65639 0.29362 0.0
C1279 C 0.09648 0.61659 0.30416 0.0
C1280 C 0.08977 0.65924 0.3382 0.0
C1281 C 0.12218 0.69947 0.32631 0.0
N1282 N 0.17074 0.73674 0.29098 0.0
N1283 N 0.0348 0.58064 0.33388 0.0
C1284 C 0.14221 0.69814 0.30341 0.0
C1285 C 0.07346 0.61814 0.32576 0.0
N1286 N 0.15887 0.65427 0.27501 0.0
N1287 N 0.07488 0.66004 0.3615 0.0
H1288 H 0.02123 0.55004 0.32502 0.0
H1289 H 0.01369 0.58077 0.34795 0.0
H1290 H 0.08482 0.68945 0.37092 0.0
H1291 H 0.05563 0.63153 0.37219 0.0
H1292 H 0.18887 0.68183 0.26847 0.0
H1293 H 0.15329 0.62433 0.26758 0.0
H1294 H 0.18156 0.73757 0.27289 0.0
H1295 H 0.18149 0.76822 0.29812 0.0
C1296 C 0.80942 0.00417 0.41427 0.0
C1297 C 0.81624 0.04426 0.40337 0.0
C1298 C 0.76331 0.00173 0.37003 0.0
C1299 C 0.75316 0.96146 0.38221 0.0
N1300 N 0.76053 0.92447 0.41835 0.0
N1301 N 0.79356 0.08123 0.37344 0.0
C1302 C 0.77423 0.96274 0.40513 0.0
C1303 C 0.79152 0.04309 0.38192 0.0
N1304 N 0.83802 0.00558 0.43265 0.0
N1305 N 0.74642 0.00064 0.34703 0.0
H1306 H 0.81344 0.11208 0.3818 0.0
H1307 H 0.77247 0.08172 0.35951 0.0
H1308 H 0.72409 0.97106 0.33821 0.0
H1309 H 0.75711 0.02882 0.33601 0.0
H1310 H 0.83803 0.97742 0.43941 0.0
H1311 H 0.86487 0.03526 0.43954 0.0
H1312 H 0.77079 0.92407 0.43641 0.0
H1313 H 0.73606 0.89319 0.41203 0.0
C1314 C 0.96988 0.74148 0.38406 0.0
C1315 C 0.96808 0.77657 0.39623 0.0
C1316 C 0.0481 0.82826 0.38352 0.0
C1317 C 0.05258 0.79192 0.37486 0.0
N1318 N 0.01634 0.71398 0.36526 0.0
N1319 N 0.0058 0.85307 0.40905 0.0
C1320 C 0.01284 0.74854 0.37469 0.0
C1321 C 0.00715 0.81998 0.39614 0.0
N1322 N 0.93016 0.70167 0.38096 0.0
N1323 N 0.08235 0.8708 0.37925 0.0
H1324 H 0.97625 0.84864 0.41805 0.0
H1325 H 0.03479 0.8839 0.41243 0.0
H1326 H 0.11161 0.87793 0.36936 0.0
H1327 H 0.0794 0.89875 0.38276 0.0
H1328 H 0.92783 0.67601 0.3701 0.0
H1329 H 0.89829 0.69536 0.38779 0.0
H1330 H 0.9916 0.68061 0.36769 0.0
H1331 H 0.0448 0.71925 0.35489 0.0
C1332 C 0.24276 0.18777 0.37131 0.0
C1333 C 0.26476 0.19728 0.39459 0.0
C1334 C 0.23796 0.24975 0.40202 0.0
C1335 C 0.21271 0.23801 0.37964 0.0
N1336 N 0.17587 0.17834 0.35028 0.0
N1337 N 0.3094 0.26283 0.4191 0.0
C1338 C 0.21115 0.20254 0.36593 0.0
C1339 C 0.27011 0.23565 0.40656 0.0
N1340 N 0.25601 0.1695 0.35317 0.0
N1341 N 0.22821 0.27058 0.42025 0.0
H1342 H 0.33782 0.25805 0.41861 0.0
H1343 H 0.31557 0.29297 0.42659 0.0
H1344 H 0.19865 0.27335 0.41964 0.0
H1345 H 0.24498 0.27795 0.43723 0.0
H1346 H 0.24317 0.16523 0.33527 0.0
H1347 H 0.28403 0.16443 0.35543 0.0
H1348 H 0.17215 0.15002 0.34153 0.0
H1349 H 0.14656 0.18132 0.35001 0.0
C1350 C 0.67583 0.52621 0.73154 0.0
C1351 C 0.63622 0.53081 0.73118 0.0
C1352 C 0.68073 0.60384 0.7114 0.0
C1353 C 0.72045 0.59853 0.71007 0.0
N1354 N 0.74982 0.54733 0.7138 0.0
N1355 N 0.59756 0.56812 0.71511 0.0
C1356 C 0.71619 0.55746 0.71847 0.0
C1357 C 0.63759 0.56766 0.71918 0.0
N1358 N 0.67557 0.49276 0.74514 0.0
N1359 N 0.68422 0.64411 0.70648 0.0
H1360 H 0.5654 0.54249 0.72094 0.0
H1361 H 0.5958 0.59175 0.70394 0.0
H1362 H 0.71443 0.67212 0.70073 0.0
H1363 H 0.65784 0.65092 0.71016 0.0
H1364 H 0.70518 0.49109 0.74882 0.0
H1365 H 0.64648 0.46873 0.75459 0.0
H1366 H 0.74595 0.51608 0.71726 0.0
H1367 H 0.77893 0.5676 0.70359 0.0
C1368 C 0.43845 0.07803 0.71948 0.0
C1369 C 0.47877 0.11364 0.72989 0.0
C1370 C 0.4536 0.16586 0.71636 0.0
C1371 C 0.41005 0.12958 0.7091 0.0
N1372 N 0.36037 0.05013 0.70499 0.0
N1373 N 0.52256 0.19095 0.74097 0.0
C1374 C 0.4024 0.08538 0.71109 0.0
C1375 C 0.48592 0.15746 0.72889 0.0
N1376 N 0.43518 0.03736 0.71697 0.0
N1377 N 0.46485 0.20851 0.71103 0.0
H1378 H 0.54718 0.18637 0.7502 0.0
H1379 H 0.52648 0.22235 0.74371 0.0
H1380 H 0.4431 0.21619 0.70146 0.0
H1381 H 0.49771 0.23584 0.71335 0.0
H1382 H 0.40909 0.01125 0.70714 0.0
H1383 H 0.46096 0.03093 0.72281 0.0
H1384 H 0.3504 0.01719 0.70916 0.0
H1385 H 0.33459 0.05389 0.69649 0.0
C1386 C 0.93929 0.35548 0.74327 0.0
C1387 C 0.941 0.3914 0.72981 0.0
C1388 C 0.88564 0.33745 0.7008 0.0
C1389 C 0.88171 0.30154 0.71513 0.0
N1390 N 0.88888 0.28043 0.75674 0.0
N1391 N 0.93815 0.41241 0.68768 0.0
C1392 C 0.90374 0.31166 0.73842 0.0
C1393 C 0.92089 0.38131 0.70605 0.0
N1394 N 0.97592 0.36155 0.75702 0.0
N1395 N 0.8517 0.33131 0.68497 0.0
H1396 H 0.96793 0.4432 0.6902 0.0
H1397 H 0.926 0.40516 0.66962 0.0
H1398 H 0.8203 0.30169 0.68495 0.0
H1399 H 0.85175 0.35793 0.67589 0.0
H1400 H 0.97695 0.33514 0.76571 0.0
H1401 H 0.0074 0.39134 0.75614 0.0
H1402 H 0.9031 0.28788 0.77437 0.0
H1403 H 0.85925 0.24935 0.75499 0.0
C1404 C 0.23816 0.98325 0.63006 0.0
C1405 C 0.19665 0.9509 0.6414 0.0
C1406 C 0.20354 0.00782 0.6704 0.0
C1407 C 0.24252 0.04124 0.65745 0.0
N1408 N 0.28016 0.05971 0.61767 0.0
N1409 N 0.16458 0.93065 0.68236 0.0
C1410 C 0.25538 0.02869 0.63524 0.0
C1411 C 0.18636 0.96244 0.66464 0.0
N1412 N 0.26537 0.97094 0.61773 0.0
N1413 N 0.17847 0.01856 0.68567 0.0
H1414 H 0.15742 0.89801 0.67978 0.0
H1415 H 0.15951 0.93832 0.70025 0.0
H1416 H 0.18312 0.05045 0.68615 0.0
H1417 H 0.14788 0.99435 0.69391 0.0
H1418 H 0.29763 0.99421 0.61064 0.0
H1419 H 0.25868 0.93813 0.61827 0.0
H1420 H 0.28849 0.05131 0.60075 0.0
H1421 H 0.28463 0.09163 0.61856 0.0
C1422 C 0.03589 0.26373 0.65893 0.0
C1423 C 0.04022 0.23084 0.64577 0.0
C1424 C 0.959 0.17666 0.65485 0.0
C1425 C 0.95268 0.21118 0.6649 0.0
N1426 N 0.98545 0.28873 0.67539 0.0
N1427 N 0.00535 0.15689 0.62916 0.0
C1428 C 0.9914 0.255 0.66671 0.0
C1429 C 1.00172 0.18743 0.6434 0.0
N1430 N 0.07457 0.30315 0.66435 0.0
N1431 N 0.92454 0.13342 0.65634 0.0
H1432 H 0.03614 0.16311 0.62088 0.0
H1433 H 0.97723 0.12668 0.62391 0.0
H1434 H 0.89338 0.1239 0.66491 0.0
H1435 H 0.92862 0.10647 0.65181 0.0
H1436 H 0.07462 0.32667 0.6762 0.0
H1437 H 0.1075 0.3107 0.65869 0.0
H1438 H 0.01054 0.32223 0.67413 0.0
H1439 H 0.95455 0.28337 0.68312 0.0
C1440 C 0.82219 0.83168 0.6432 0.0
C1441 C 0.77524 0.81876 0.63944 0.0
C1442 C 0.75205 0.74398 0.6547 0.0
C1443 C 0.79845 0.75804 0.66147 0.0
N1444 N 0.87782 0.81817 0.66402 0.0
N1445 N 0.69515 0.76612 0.64735 0.0
C1446 C 0.83348 0.80292 0.65653 0.0
C1447 C 0.74011 0.77597 0.64691 0.0
N1448 N 0.85611 0.87032 0.63284 0.0
N1449 N 0.7192 0.70005 0.6549 0.0
H1450 H 0.68497 0.78901 0.64236 0.0
H1451 H 0.66868 0.73695 0.65516 0.0
H1452 H 0.72564 0.67514 0.66044 0.0
H1453 H 0.68648 0.68802 0.64739 0.0
H1454 H 0.89072 0.87906 0.63245 0.0
H1455 H 0.84929 0.89182 0.62252 0.0
H1456 H 0.90291 0.85177 0.66389 0.0
H1457 H 0.88941 0.79796 0.67158 0.0
C1458 C 0.03433 0.80649 0.66323 0.0
C1459 C 0.0362 0.81645 0.63771 0.0
C1460 C 0.95123 0.77633 0.63776 0.0
C1461 C 0.95142 0.76559 0.66304 0.0
N1462 N 0.99184 0.81363 0.69588 0.0
N1463 N 0.99492 0.82273 0.60274 0.0
C1464 C 0.99245 0.79114 0.67577 0.0
C1465 C 0.99405 0.80493 0.62538 0.0
N1466 N 0.07222 0.81325 0.67601 0.0
N1467 N 0.91009 0.76058 0.62614 0.0
H1468 H 0.02546 0.8456 0.59395 0.0
H1469 H 0.96555 0.81799 0.59358 0.0
H1470 H 0.87924 0.74464 0.63603 0.0
H1471 H 0.9066 0.7629 0.60722 0.0
H1472 H 0.07044 0.80675 0.69491 0.0
H1473 H 0.10327 0.82113 0.66738 0.0
H1474 H 0.0222 0.83743 0.70434 0.0
H1475 H 0.96143 0.81306 0.70084 0.0
C1476 C 0.17365 0.17951 0.64138 0.0
C1477 C 0.18818 0.22564 0.64086 0.0
C1478 C 0.26699 0.24302 0.65084 0.0
C1479 C 0.25179 0.19696 0.65391 0.0
N1480 N 0.1892 0.12105 0.65329 0.0
N1481 N 0.24643 0.30083 0.65021 0.0
C1482 C 0.20456 0.16522 0.64974 0.0
C1483 C 0.23419 0.25722 0.6472 0.0
N1484 N 0.13146 0.1494 0.63212 0.0
N1485 N 0.31301 0.27319 0.65007 0.0
H1486 H 0.22314 0.31226 0.64802 0.0
H1487 H 0.2782 0.32457 0.65728 0.0
H1488 H 0.33788 0.26375 0.65157 0.0
H1489 H 0.32631 0.30659 0.64541 0.0
H1490 H 0.12091 0.11601 0.62925 0.0
H1491 H 0.10821 0.15829 0.62514 0.0
H1492 H 0.15444 0.09688 0.65437 0.0
H1493 H 0.21139 0.1089 0.65642 0.0
C1494 C 0.80179 0.00107 0.62768 0.0
C1495 C 0.76853 0.95988 0.63819 0.0
C1496 C 0.75815 -0.00083 0.67281 0.0
C1497 C 0.78703 0.04049 0.66078 0.0
N1498 N 0.83311 0.08052 0.62519 0.0
N1499 N 0.70862 0.91953 0.66832 0.0
C1500 C 0.80759 0.0413 0.63765 0.0
C1501 C 0.74487 0.95884 0.66009 0.0
N1502 N 0.82956 0.0019 0.60893 0.0
N1503 N 0.74416 -0.00184 0.69654 0.0
H1504 H 0.69743 0.88935 0.65932 0.0
H1505 H 0.68695 0.9175 0.68267 0.0
H1506 H 0.75381 0.02681 0.70663 0.0
H1507 H 0.72705 0.96906 0.70701 0.0
H1508 H 0.85799 0.031 0.60241 0.0
H1509 H 0.827 0.97317 0.60139 0.0
H1510 H 0.84349 0.08238 0.60691 0.0
H1511 H 0.84198 0.11128 0.63264 0.0
C1512 C 0.48311 0.34163 0.74054 0.0
C1513 C 0.49083 0.38285 0.73095 0.0
C1514 C 0.4405 0.34399 0.69595 0.0
C1515 C 0.42797 0.30241 0.70723 0.0
N1516 N 0.43311 0.262 0.74257 0.0
N1517 N 0.47041 0.42292 0.70184 0.0
C1518 C 0.4479 0.30135 0.73025 0.0
C1519 C 0.46787 0.38399 0.70922 0.0
N1520 N 0.51074 0.34087 0.75884 0.0
N1521 N 0.42661 0.34553 0.67255 0.0
H1522 H 0.48912 0.45273 0.71135 0.0
H1523 H 0.45044 0.42477 0.68769 0.0
H1524 H 0.40638 0.31706 0.66241 0.0
H1525 H 0.43875 0.37493 0.66243 0.0
H1526 H 0.51013 0.31191 0.76466 0.0
H1527 H 0.53754 0.36969 0.76654 0.0
H1528 H 0.44208 0.26017 0.76074 0.0
H1529 H 0.40952 0.23115 0.73538 0.0
C1530 C 0.64509 0.09035 0.72533 0.0
C1531 C 0.63405 0.12263 0.73351 0.0
C1532 C 0.71265 0.18177 0.72264 0.0
C1533 C 0.72544 0.14927 0.71723 0.0
N1534 N 0.70451 0.07179 0.71783 0.0
N1535 N 0.65913 0.19915 0.74308 0.0
C1536 C 0.69176 0.1033 0.71977 0.0
C1537 C 0.66822 0.16843 0.7328 0.0
N1538 N 0.6107 0.0473 0.72226 0.0
N1539 N 0.74285 0.22559 0.71783 0.0
H1540 H 0.62735 0.19086 0.75089 0.0
H1541 H 0.68416 0.23228 0.7458 0.0
H1542 H 0.77582 0.23662 0.71108 0.0
H1543 H 0.7339 0.25032 0.71838 0.0
H1544 H 0.61581 0.02323 0.71379 0.0
H1545 H 0.57613 0.03671 0.72595 0.0
H1546 H 0.68295 0.03841 0.72245 0.0
H1547 H 0.73788 0.07972 0.71343 0.0
C1548 C 0.91381 0.52875 0.70757 0.0
C1549 C 0.94427 0.54109 0.72776 0.0
C1550 C 0.93231 0.60433 0.73476 0.0
C1551 C 0.89631 0.58795 0.71671 0.0
N1552 N 0.84274 0.52186 0.69432 0.0
N1553 N 1.00367 0.60786 0.74637 0.0
C1554 C 0.88433 0.5467 0.70534 0.0
C1555 C 0.9601 0.58423 0.73719 0.0
N1556 N 0.91817 0.50626 0.68826 0.0
N1557 N 0.93718 0.63515 0.75175 0.0
H1558 H 0.02641 0.59551 0.74576 0.0
H1559 H 0.01863 0.64124 0.75133 0.0
H1560 H 0.91175 0.64309 0.75521 0.0
H1561 H 0.96178 0.64593 0.76569 0.0
H1562 H 0.89781 0.49863 0.67253 0.0
H1563 H 0.94659 0.50167 0.68669 0.0
H1564 H 0.83221 0.49011 0.68751 0.0
H1565 H 0.81677 0.52985 0.69551 0.0
C1566 C 0.4852 0.98167 0.22849 0.0
C1567 C 0.48014 0.93888 0.23241 0.0
C1568 C 0.50966 0.94158 0.19044 0.0
C1569 C 0.51142 0.98284 0.18597 0.0
N1570 N 0.48914 0.03588 0.19877 0.0
N1571 N 0.477 0.87368 0.21487 0.0
C1572 C 0.49539 0.00082 0.2044 0.0
C1573 C 0.48908 0.91745 0.21265 0.0
N1574 N 0.48296 0.00535 0.24796 0.0
N1575 N 0.52964 0.92635 0.17413 0.0
H1576 H 0.46093 0.85472 0.23059 0.0
H1577 H 0.47863 0.85512 0.20029 0.0
H1578 H 0.54566 0.94316 0.15787 0.0
H1579 H 0.53392 0.89912 0.17778 0.0
H1580 H 0.49124 0.0385 0.2465 0.0
H1581 H 0.4774 0.99359 0.26607 0.0
H1582 H 0.47331 0.0476 0.21073 0.0
H1583 H 0.49532 0.05015 0.1812 0.0
C1584 C 0.98265 0.50725 0.23207 0.0
C1585 C 0.02464 0.50707 0.23525 0.0
C1586 C 0.01807 0.47954 0.19299 0.0
C1587 C 0.97936 0.48519 0.18892 0.0
N1588 N 0.93246 0.51552 0.20323 0.0
N1589 N 0.08783 0.50295 0.21643 0.0
C1590 C 0.96392 0.50237 0.20807 0.0
C1591 C 0.04402 0.49609 0.21503 0.0
N1592 N 0.95951 0.51027 0.25205 0.0
N1593 N 0.02902 0.45673 0.17643 0.0
H1594 H 0.10868 0.51655 0.23185 0.0
H1595 H 0.10507 0.4995 0.20135 0.0
H1596 H 0.00993 0.44248 0.16055 0.0
H1597 H 0.05415 0.44802 0.17978 0.0
H1598 H 0.92662 0.50633 0.25088 0.0
H1599 H 0.97085 0.51183 0.2701 0.0
H1600 H 0.92338 0.5321 0.21605 0.0
H1601 H 0.91931 0.5143 0.18566 0.0
C1602 C 0.5137 0.51078 0.23364 0.0
C1603 C 0.47175 0.5106 0.23791 0.0
C1604 C 0.44618 0.48157 0.19622 0.0
C1605 C 0.49004 0.48618 0.19121 0.0
N1606 N 0.56948 0.51673 0.20332 0.0
N1607 N 0.4028 0.50593 0.22099 0.0
C1608 C 0.52505 0.50443 0.20937 0.0
C1609 C 0.43936 0.49905 0.21849 0.0
N1610 N 0.54174 0.51471 0.25289 0.0
N1611 N 0.41037 0.45879 0.18035 0.0
H1612 H 0.39743 0.51997 0.2367 0.0
H1613 H 0.38061 0.50197 0.20656 0.0
H1614 H 0.41342 0.44435 0.16419 0.0
H1615 H 0.37659 0.45058 0.18442 0.0
H1616 H 0.5704 0.51069 0.25096 0.0
H1617 H 0.53372 0.51711 0.27117 0.0
H1618 H 0.59702 0.53403 0.2153 0.0
H1619 H 0.5795 0.51397 0.1855 0.0
C1620 C 0.96922 0.46069 0.82205 0.0
C1621 C 0.99677 0.49279 0.80394 0.0
C1622 C 0.05521 0.53355 0.83542 0.0
C1623 C 0.0316 0.49719 0.85206 0.0
N1624 N 0.96905 0.42211 0.85927 0.0
N1625 N 0.06953 0.55726 0.79272 0.0
C1626 C 0.98915 0.45972 0.84495 0.0
C1627 C 0.04065 0.52883 0.81045 0.0
N1628 N 0.9238 0.43139 0.81746 0.0
N1629 N 0.09095 0.57291 0.84357 0.0
H1630 H 0.06081 0.5545 0.77414 0.0
H1631 H 0.10372 0.58113 0.79616 0.0
H1632 H 0.10172 0.57794 0.86188 0.0
H1633 H 0.10656 0.60176 0.8328 0.0
H1634 H 0.90111 0.40994 0.83086 0.0
H1635 H 0.90775 0.43193 0.8011 0.0
H1636 H 0.94061 0.39243 0.85359 0.0
H1637 H 0.98336 0.41894 0.87566 0.0
C1638 C 0.55927 0.49238 0.82455 0.0
C1639 C 0.52889 0.48313 0.80433 0.0
C1640 C 0.47302 0.48649 0.83224 0.0
C1641 C 0.50625 0.50278 0.85138 0.0
N1642 N 0.58474 0.5286 0.86404 0.0
N1643 N 0.46041 0.48075 0.78826 0.0
C1644 C 0.55043 0.50761 0.84713 0.0
C1645 C 0.48663 0.48264 0.80799 0.0
N1646 N 0.5958 0.48537 0.8225 0.0
N1647 N 0.42809 0.4737 0.83732 0.0
H1648 H 0.47008 0.48014 0.77006 0.0
H1649 H 0.43162 0.48466 0.78986 0.0
H1650 H 0.41646 0.47457 0.85503 0.0
H1651 H 0.40171 0.45775 0.82452 0.0
H1652 H 0.6164 0.48753 0.8374 0.0
H1653 H 0.60261 0.47291 0.80658 0.0
H1654 H 0.6188 0.53704 0.86065 0.0
H1655 H 0.58029 0.54141 0.88048 0.0
C1656 C 0.54756 0.0681 0.82396 0.0
C1657 C 0.51921 0.0494 0.80288 0.0
C1658 C 0.46355 0.98718 0.82878 0.0
C1659 C 0.4952 0.00204 0.84869 0.0
N1660 N 0.57199 0.0534 0.86317 0.0
N1661 N 0.45463 0.98513 0.78455 0.0
C1662 C 0.53851 0.04175 0.84578 0.0
C1663 C 0.4783 0.00729 0.80511 0.0
N1664 N 0.58227 0.11148 0.82352 0.0
N1665 N 0.41891 0.95441 0.83256 0.0
H1666 H 0.4655 0.99723 0.76672 0.0
H1667 H 0.42712 0.95252 0.7851 0.0
H1668 H 0.4063 0.94 0.84982 0.0
H1669 H 0.39343 0.9452 0.81921 0.0
H1670 H 0.60119 0.12789 0.83909 0.0
H1671 H 0.58888 0.13238 0.80832 0.0
H1672 H 0.60567 0.07947 0.86067 0.0
H1673 H 0.56756 0.03448 0.87899 0.0
C1674 C 0.14825 0.33942 0.56953 0.0
C1675 C 0.1465 0.29785 0.57255 0.0
C1676 C 0.17454 0.30415 0.52995 0.0
C1677 C 0.17144 0.34318 0.52613 0.0
N1678 N 0.14281 0.39038 0.54093 0.0
N1679 N 0.14585 0.23521 0.55291 0.0
C1680 C 0.15438 0.35845 0.54552 0.0
C1681 C 0.15593 0.27852 0.55191 0.0
N1682 N 0.14644 0.36206 0.58962 0.0
N1683 N 0.19732 0.29254 0.51334 0.0
H1684 H 0.13031 0.2147 0.56821 0.0
H1685 H 0.14819 0.21842 0.53761 0.0
H1686 H 0.21355 0.31137 0.49763 0.0
H1687 H 0.2043 0.26685 0.51655 0.0
H1688 H 0.15202 0.39439 0.58851 0.0
H1689 H 0.14438 0.35065 0.60765 0.0
H1690 H 0.12629 0.39973 0.55388 0.0
H1691 H 0.14505 0.40387 0.52341 0.0
C1692 C 0.65746 0.84772 0.56624 0.0
C1693 C 0.70216 0.85286 0.56808 0.0
C1694 C 0.69615 0.82752 0.52543 0.0
C1695 C 0.65407 0.82778 0.52274 0.0
N1696 N 0.60089 0.84907 0.5392 0.0
N1697 N 0.76832 0.85738 0.54742 0.0
C1698 C 0.63655 0.84116 0.54275 0.0
C1699 C 0.72283 0.84563 0.54707 0.0
N1700 N 0.63401 0.8472 0.58698 0.0
N1701 N 0.70979 0.8083 0.50792 0.0
H1702 H 0.78947 0.87209 0.56262 0.0
H1703 H 0.7861 0.85676 0.53179 0.0
H1704 H 0.69044 0.79306 0.49225 0.0
H1705 H 0.73785 0.80344 0.51023 0.0
H1706 H 0.59962 0.83927 0.58674 0.0
H1707 H 0.64714 0.84992 0.6047 0.0
H1708 H 0.58981 0.86295 0.55267 0.0
H1709 H 0.58571 0.84632 0.52205 0.0
C1710 C 0.15128 0.80984 0.56332 0.0
C1711 C 0.1472 0.84819 0.56713 0.0
C1712 C 0.17765 0.87496 0.52552 0.0
C1713 C 0.17861 0.83511 0.52104 0.0
N1714 N 0.15472 0.75976 0.53357 0.0
N1715 N 0.14441 0.91076 0.54944 0.0
C1716 C 0.16175 0.80099 0.53931 0.0
C1717 C 0.15651 0.87867 0.54742 0.0
N1718 N 0.14747 0.78299 0.58276 0.0
N1719 N 0.19905 0.91028 0.50961 0.0
H1720 H 0.12783 0.91378 0.56498 0.0
H1721 H 0.14643 0.93118 0.53477 0.0
H1722 H 0.21643 0.90978 0.49378 0.0
H1723 H 0.20345 0.94159 0.5134 0.0
H1724 H 0.15506 0.75738 0.58142 0.0
H1725 H 0.14081 0.7887 0.60073 0.0
H1726 H 0.13835 0.73245 0.54544 0.0
H1727 H 0.16087 0.75172 0.51601 0.0
C1728 C 0.67209 0.81288 0.14462 0.0
C1729 C 0.62828 0.8099 0.14327 0.0
C1730 C 0.63915 0.84018 0.18502 0.0
C1731 C 0.67982 0.83728 0.18748 0.0
N1732 N 0.72857 0.81044 0.1712 0.0
N1733 N 0.56586 0.81207 0.16436 0.0
C1734 C 0.69444 0.82056 0.16773 0.0
C1735 C 0.61051 0.82107 0.16411 0.0
N1736 N 0.69338 0.81027 0.12371 0.0
N1737 N 0.62871 0.86269 0.20206 0.0
H1738 H 0.54327 0.79675 0.14976 0.0
H1739 H 0.55 0.81571 0.18001 0.0
H1740 H 0.64962 0.87862 0.21715 0.0
H1741 H 0.60189 0.86943 0.1998 0.0
H1742 H 0.7272 0.81645 0.12351 0.0
H1743 H 0.67932 0.80686 0.10618 0.0
H1744 H 0.73732 0.79418 0.15801 0.0
H1745 H 0.74468 0.81387 0.18813 0.0
C1746 C 0.22573 0.82226 0.15704 0.0
C1747 C 0.1949 0.81023 0.13684 0.0
C1748 C 0.13803 0.8137 0.1638 0.0
C1749 C 0.17131 0.83223 0.18282 0.0
N1750 N 0.25049 0.86218 0.19552 0.0
N1751 N 0.12551 0.80474 0.1199 0.0
C1752 C 0.21623 0.83867 0.17894 0.0
C1753 C 0.15202 0.80874 0.1399 0.0
N1754 N 0.26331 0.81676 0.15566 0.0
N1755 N 0.09273 0.79965 0.16866 0.0
H1756 H 0.13552 0.80343 0.10187 0.0
H1757 H 0.0961 0.80772 0.12101 0.0
H1758 H 0.08074 0.80111 0.18618 0.0
H1759 H 0.06655 0.78215 0.15597 0.0
H1760 H 0.28438 0.82102 0.17071 0.0
H1761 H 0.27069 0.80355 0.14025 0.0
H1762 H 0.28486 0.87156 0.19228 0.0
H1763 H 0.24556 0.87616 0.21136 0.0
C1764 C 0.14822 0.34413 0.14344 0.0
C1765 C 0.1906 0.3844 0.13977 0.0
C1766 C 0.21285 0.37843 0.18226 0.0
C1767 C 0.16847 0.34077 0.18651 0.0
N1768 N 0.08983 0.29623 0.17282 0.0
N1769 N 0.25883 0.44516 0.15781 0.0
C1770 C 0.13487 0.32638 0.16761 0.0
C1771 C 0.22167 0.40319 0.15983 0.0
N1772 N 0.12167 0.32131 0.12375 0.0
N1773 N 0.24725 0.38951 0.19901 0.0
H1774 H 0.26569 0.46479 0.14202 0.0
H1775 H 0.2801 0.46204 0.17261 0.0
H1776 H 0.24253 0.37189 0.2154 0.0
H1777 H 0.28143 0.41372 0.19562 0.0
H1778 H 0.09267 0.28972 0.12537 0.0
H1779 H 0.13139 0.33144 0.10554 0.0
H1780 H 0.06332 0.28772 0.16021 0.0
H1781 H 0.07838 0.28358 0.19053 0.0
C1782 C 0.79359 0.56944 0.8864 0.0
C1783 C 0.79743 0.59871 0.90561 0.0
C1784 C 0.81942 0.65889 0.87526 0.0
C1785 C 0.8229 0.63176 0.85691 0.0
N1786 N 0.8151 0.56163 0.84478 0.0
N1787 N 0.81641 0.67217 0.91889 0.0
C1788 C 0.80985 0.58689 0.86232 0.0
C1789 C 0.81037 0.64357 0.90015 0.0
N1790 N 0.77385 0.52485 0.89119 0.0
N1791 N 0.82481 0.69934 0.86875 0.0
H1792 H 0.80996 0.66224 0.93732 0.0
H1793 H 0.83089 0.70637 0.91643 0.0
H1794 H 0.83147 0.71125 0.85064 0.0
H1795 H 0.81849 0.71911 0.88067 0.0
H1796 H 0.76592 0.50111 0.87758 0.0
H1797 H 0.76156 0.51108 0.90862 0.0
H1798 H 0.81176 0.53064 0.84839 0.0
H1799 H 0.82545 0.5728 0.82675 0.0
C1800 C 0.32896 0.14938 0.89133 0.0
C1801 C 0.37244 0.18788 0.89559 0.0
C1802 C 0.36877 0.21774 0.8552 0.0
C1803 C 0.32717 0.17769 0.85009 0.0
N1804 N 0.27448 0.10092 0.86087 0.0
N1805 N 0.4393 0.25252 0.8788 0.0
C1806 C 0.30938 0.14205 0.86741 0.0
C1807 C 0.39416 0.22008 0.87658 0.0
N1808 N 0.30511 0.12101 0.9103 0.0
N1809 N 0.3829 0.25442 0.84045 0.0
H1810 H 0.45938 0.25444 0.89394 0.0
H1811 H 0.45799 0.27439 0.86451 0.0
H1812 H 0.36438 0.25499 0.82517 0.0
H1813 H 0.41051 0.28561 0.84486 0.0
H1814 H 0.27121 0.0951 0.90863 0.0
H1815 H 0.31741 0.12575 0.92829 0.0
H1816 H 0.26323 0.07279 0.87202 0.0
H1817 H 0.26007 0.094 0.84329 0.0
C1818 C 0.83204 0.16324 0.89455 0.0
C1819 C 0.79855 0.17647 0.89794 0.0
C1820 C 0.77111 0.15378 0.85562 0.0
C1821 C 0.80517 0.14133 0.85212 0.0
N1822 N 0.87473 0.14388 0.8658 0.0
N1823 N 0.74375 0.19424 0.88023 0.0
C1824 C 0.8379 0.14937 0.87083 0.0
C1825 C 0.77051 0.17492 0.87794 0.0
N1826 N 0.85646 0.16151 0.91428 0.0
N1827 N 0.73801 0.1435 0.83812 0.0
H1828 H 0.74278 0.21019 0.89628 0.0
H1829 H 0.72586 0.19805 0.86562 0.0
H1830 H 0.73794 0.12904 0.82132 0.0
H1831 H 0.70898 0.14661 0.84087 0.0
H1832 H 0.87741 0.14728 0.91358 0.0
H1833 H 0.85318 0.17122 0.93197 0.0
H1834 H 0.90229 0.15331 0.87779 0.0
H1835 H 0.87984 0.13371 0.84859 0.0
C1836 C 0.30939 0.12501 0.48827 0.0
C1837 C 0.32956 0.15371 0.46761 0.0
C1838 C 0.39145 0.20739 0.49417 0.0
C1839 C 0.37478 0.17604 0.51387 0.0
N1840 N 0.3234 0.10032 0.52737 0.0
N1841 N 0.39607 0.21791 0.44998 0.0
C1842 C 0.33529 0.13343 0.51029 0.0
C1843 C 0.37245 0.19372 0.47028 0.0
N1844 N 0.26488 0.09077 0.48733 0.0
N1845 N 0.42426 0.25065 0.49836 0.0
H1846 H 0.38449 0.20812 0.43203 0.0
H1847 H 0.42945 0.24505 0.45086 0.0
H1848 H 0.43786 0.26246 0.51577 0.0
H1849 H 0.43427 0.27567 0.48508 0.0
H1850 H 0.24734 0.07151 0.50269 0.0
H1851 H 0.24391 0.08476 0.472 0.0
H1852 H 0.29747 0.06756 0.52444 0.0
H1853 H 0.34254 0.10433 0.54326 0.0
C1854 C 0.8874 0.15954 0.49409 0.0
C1855 C 0.85818 0.15105 0.47342 0.0
C1856 C 0.80289 0.15802 0.49992 0.0
C1857 C 0.83521 0.17338 0.51949 0.0
N1858 N 0.91257 0.19676 0.53332 0.0
N1859 N 0.79263 0.1524 0.4558 0.0
C1860 C 0.87873 0.17631 0.51611 0.0
C1861 C 0.81712 0.15312 0.47608 0.0
N1862 N 0.92243 0.15018 0.49308 0.0
N1863 N 0.75814 0.14681 0.5042 0.0
H1864 H 0.80297 0.15106 0.43784 0.0
H1865 H 0.76488 0.15804 0.45671 0.0
H1866 H 0.74579 0.14808 0.52166 0.0
H1867 H 0.73235 0.13161 0.49101 0.0
H1868 H 0.94191 0.15182 0.50841 0.0
H1869 H 0.92888 0.13631 0.47764 0.0
H1870 H 0.94629 0.20361 0.53051 0.0
H1871 H 0.90829 0.21082 0.54931 0.0
C1872 C 0.82444 0.67985 0.47609 0.0
C1873 C 0.86571 0.72083 0.47161 0.0
C1874 C 0.8904 0.71862 0.51411 0.0
C1875 C 0.84733 0.6797 0.5191 0.0
N1876 N 0.76875 0.6312 0.50648 0.0
N1877 N 0.9325 0.78465 0.48857 0.0
C1878 C 0.81289 0.66292 0.50058 0.0
C1879 C 0.89706 0.74191 0.49132 0.0
N1880 N 0.79732 0.65564 0.45687 0.0
N1881 N 0.9258 0.73231 0.53049 0.0
H1882 H 0.93773 0.8032 0.47248 0.0
H1883 H 0.95369 0.8031 0.50307 0.0
H1884 H 0.92288 0.71588 0.5471 0.0
H1885 H 0.95927 0.75761 0.52657 0.0
H1886 H 0.76935 0.62353 0.459 0.0
H1887 H 0.80552 0.66542 0.4385 0.0
H1888 H 0.74136 0.62076 0.49423 0.0
H1889 H 0.75868 0.61899 0.52438 0.0
loop_
_geom_bond_atom_site_label_1
_geom_bond_atom_site_label_2
_geom_bond_distance
_geom_bond_site_symmetry_2
_ccdc_geom_bond_type
H0 C3 0.931 . S
H1 C6 0.928 . S
H2 C8 0.930 . S
C3 H0 0.931 . S
C3 C4 1.413 . S
C3 C5 1.360 . S
C4 C3 1.413 . S
C4 C8 1.429 . S
C5 C3 1.360 . S
C5 C6 1.372 . S
C6 H1 0.928 . S
C6 C5 1.372 . S
C6 C7 1.404 . S
C7 C6 1.404 . S
C7 C8 1.391 . S
C8 H2 0.930 . S
C8 C4 1.429 . S
C8 C7 1.391 . S
H9 C12 0.931 . S
H10 C15 0.928 . S
H11 C17 0.930 . S
C12 H9 0.931 . S
C12 C13 1.413 . S
C12 C14 1.360 . S
C13 C12 1.413 . S
C13 C17 1.429 . S
C14 C12 1.360 . S
C14 C15 1.372 . S
C15 H10 0.928 . S
C15 C14 1.372 . S
C15 C16 1.404 . S
C16 C15 1.404 . S
C16 C17 1.391 . S
C17 H11 0.930 . S
C17 C13 1.429 . S
C17 C16 1.391 . S
H18 C21 0.931 . S
H19 C24 0.928 . S
H20 C26 0.930 . S
C21 H18 0.931 . S
C21 C22 1.413 . S
C21 C23 1.360 . S
C22 C21 1.413 . S
C22 C26 1.429 . S
C23 C21 1.360 . S
C23 C24 1.372 . S
C24 H19 0.928 . S
C24 C23 1.372 . S
C24 C25 1.404 . S
C25 C24 1.404 . S
C25 C26 1.391 . S
C26 H20 0.930 . S
C26 C22 1.429 . S
C26 C25 1.391 . S
H27 C30 0.931 . S
H28 C33 0.928 . S
H29 C35 0.930 . S
C30 H27 0.931 . S
C30 C31 1.413 . S
C30 C32 1.360 . S
C31 C30 1.413 . S
C31 C35 1.429 . S
C32 C30 1.360 . S
C32 C33 1.372 . S
C33 H28 0.928 . S
C33 C32 1.372 . S
C33 C34 1.404 . S
C34 C33 1.404 . S
C34 C35 1.391 . S
C35 H29 0.930 . S
C35 C31 1.429 . S
C35 C34 1.391 . S
H36 C39 0.931 . S
H37 C42 0.928 . S
H38 C44 0.930 . S
C39 H36 0.931 . S
C39 C40 1.413 . S
C39 C41 1.360 . S
C40 C39 1.413 . S
C40 C44 1.429 . S
C41 C39 1.360 . S
C41 C42 1.372 . S
C42 H37 0.928 . S
C42 C41 1.372 . S
C42 C43 1.404 . S
C43 C42 1.404 . S
C43 C44 1.391 . S
C44 H38 0.930 . S
C44 C40 1.429 . S
C44 C43 1.391 . S
H45 C48 0.931 . S
H46 C51 0.928 . S
H47 C53 0.930 . S
C48 H45 0.931 . S
C48 C49 1.413 . S
C48 C50 1.360 . S
C49 C48 1.413 . S
C49 C53 1.429 . S
C50 C48 1.360 . S
C50 C51 1.372 . S
C51 H46 0.928 . S
C51 C50 1.372 . S
C51 C52 1.404 . S
C52 C51 1.404 . S
C52 C53 1.391 . S
C53 H47 0.930 . S
C53 C49 1.429 . S
C53 C52 1.391 . S
H54 C57 0.931 . S
H55 C60 0.928 . S
H56 C62 0.930 . S
C57 H54 0.931 . S
C57 C58 1.413 . S
C57 C59 1.360 . S
C58 C57 1.413 . S
C58 C62 1.429 . S
C59 C57 1.360 . S
C59 C60 1.372 . S
C60 H55 0.928 . S
C60 C59 1.372 . S
C60 C61 1.404 . S
C61 C60 1.404 . S
C61 C62 1.391 . S
C62 H56 0.930 . S
C62 C58 1.429 . S
C62 C61 1.391 . S
H63 C66 0.931 . S
H64 C69 0.928 . S
H65 C71 0.930 . S
C66 H63 0.931 . S
C66 C67 1.413 . S
C66 C68 1.360 . S
C67 C66 1.413 . S
C67 C71 1.429 . S
C68 C66 1.360 . S
C68 C69 1.372 . S
C69 H64 0.928 . S
C69 C68 1.372 . S
C69 C70 1.404 . S
C70 C69 1.404 . S
C70 C71 1.391 . S
C71 H65 0.930 . S
C71 C67 1.429 . S
C71 C70 1.391 . S
H72 C75 0.931 . S
H73 C78 0.928 . S
H74 C80 0.930 . S
C75 H72 0.931 . S
C75 C76 1.413 . S
C75 C77 1.360 . S
C76 C75 1.413 . S
C76 C80 1.429 . S
C77 C75 1.360 . S
C77 C78 1.372 . S
C78 H73 0.928 . S
C78 C77 1.372 . S
C78 C79 1.404 . S
C79 C78 1.404 . S
C79 C80 1.391 . S
C80 H74 0.930 . S
C80 C76 1.429 . S
C80 C79 1.391 . S
H81 C84 0.931 . S
H82 C87 0.928 . S
H83 C89 0.930 . S
C84 H81 0.931 . S
C84 C85 1.413 . S
C84 C86 1.360 . S
C85 C84 1.413 . S
C85 C89 1.429 . S
C86 C84 1.360 . S
C86 C87 1.372 . S
C87 H82 0.928 . S
C87 C86 1.372 . S
C87 C88 1.404 . S
C88 C87 1.404 . S
C88 C89 1.391 . S
C89 H83 0.930 . S
C89 C85 1.429 . S
C89 C88 1.391 . S
H90 C93 0.931 . S
H91 C96 0.928 . S
H92 C98 0.930 . S
C93 H90 0.931 . S
C93 C94 1.413 . S
C93 C95 1.360 . S
C94 C93 1.413 . S
C94 C98 1.429 . S
C95 C93 1.360 . S
C95 C96 1.372 . S
C96 H91 0.928 . S
C96 C95 1.372 . S
C96 C97 1.404 . S
C97 C96 1.404 . S
C97 C98 1.391 . S
C98 H92 0.930 . S
C98 C94 1.429 . S
C98 C97 1.391 . S
H99 C102 0.931 . S
H100 C105 0.928 . S
H101 C107 0.930 . S
C102 H99 0.931 . S
C102 C103 1.413 . S
C102 C104 1.360 . S
C103 C102 1.413 . S
C103 C107 1.429 . S
C104 C102 1.360 . S
C104 C105 1.372 . S
C105 H100 0.928 . S
C105 C104 1.372 . S
C105 C106 1.404 . S
C106 C105 1.404 . S
C106 C107 1.391 . S
C107 H101 0.930 . S
C107 C103 1.429 . S
C107 C106 1.391 . S
H108 C111 0.931 . S
H109 C114 0.928 . S
H110 C116 0.930 . S
C111 H108 0.931 . S
C111 C112 1.413 . S
C111 C113 1.360 . S
C112 C111 1.413 . S
C112 C116 1.429 . S
C113 C111 1.360 . S
C113 C114 1.372 . S
C114 H109 0.928 . S
C114 C113 1.372 . S
C114 C115 1.404 . S
C115 C114 1.404 . S
C115 C116 1.391 . S
C116 H110 0.930 . S
C116 C112 1.429 . S
C116 C115 1.391 . S
H117 C120 0.931 . S
H118 C123 0.928 . S
H119 C125 0.930 . S
C120 H117 0.931 . S
C120 C121 1.413 . S
C120 C122 1.360 . S
C121 C120 1.413 . S
C121 C125 1.429 . S
C122 C120 1.360 . S
C122 C123 1.372 . S
C123 H118 0.928 . S
C123 C122 1.372 . S
C123 C124 1.404 . S
C124 C123 1.404 . S
C124 C125 1.391 . S
C125 H119 0.930 . S
C125 C121 1.429 . S
C125 C124 1.391 . S
H126 C129 0.931 . S
H127 C132 0.928 . S
H128 C134 0.930 . S
C129 H126 0.931 . S
C129 C130 1.413 . S
C129 C131 1.360 . S
C130 C129 1.413 . S
C130 C134 1.429 . S
C131 C129 1.360 . S
C131 C132 1.372 . S
C132 H127 0.928 . S
C132 C131 1.372 . S
C132 C133 1.404 . S
C133 C132 1.404 . S
C133 C134 1.391 . S
C134 H128 0.930 . S
C134 C130 1.429 . S
C134 C133 1.391 . S
H135 C138 0.931 . S
H136 C141 0.928 . S
H137 C143 0.930 . S
C138 H135 0.931 . S
C138 C139 1.413 . S
C138 C140 1.360 . S
C139 C138 1.413 . S
C139 C143 1.429 . S
C140 C138 1.360 . S
C140 C141 1.372 . S
C141 H136 0.928 . S
C141 C140 1.372 . S
C141 C142 1.404 . S
C142 C141 1.404 . S
C142 C143 1.391 . S
C143 H137 0.930 . S
C143 C139 1.429 . S
C143 C142 1.391 . S
H144 C147 0.931 . S
H145 C150 0.928 . S
H146 C152 0.930 . S
C147 H144 0.931 . S
C147 C148 1.413 . S
C147 C149 1.360 . S
C148 C147 1.413 . S
C148 C152 1.429 . S
C149 C147 1.360 . S
C149 C150 1.372 . S
C150 H145 0.928 . S
C150 C149 1.372 . S
C150 C151 1.404 . S
C151 C150 1.404 . S
C151 C152 1.391 . S
C152 H146 0.930 . S
C152 C148 1.429 . S
C152 C151 1.391 . S
H153 C156 0.931 . S
H154 C159 0.928 . S
H155 C161 0.930 . S
C156 H153 0.931 . S
C156 C157 1.413 . S
C156 C158 1.360 . S
C157 C156 1.413 . S
C157 C161 1.429 . S
C158 C156 1.360 . S
C158 C159 1.372 . S
C159 H154 0.928 . S
C159 C158 1.372 . S
C159 C160 1.404 . S
C160 C159 1.404 . S
C160 C161 1.391 . S
C161 H155 0.930 . S
C161 C157 1.429 . S
C161 C160 1.391 . S
Eu162 N193 2.657 . S
Eu162 N200 2.609 . S
Eu162 O206 2.558 . S
Eu162 O207 2.612 1_565 S
Eu162 O209 2.339 1_565 S
Eu162 O210 2.563 1_565 S
Eu162 O211 2.419 . S
Eu162 O213 2.380 1_556 S
Eu162 O214 2.432 . S
Eu162 C226 2.848 . S
C163 C166 1.429 . S
C163 C167 1.411 . S
C163 N170 1.377 . S
C164 C166 1.420 . S
C164 C168 1.423 . S
C164 C176 1.392 . S
C165 C167 1.420 . S
C165 C168 1.351 . S
C165 H188 0.931 . S
C166 C163 1.429 . S
C166 C164 1.420 . S
C166 N174 1.362 . S
C167 C163 1.411 . S
C167 C165 1.420 . S
C167 C172 1.395 . S
C168 C164 1.423 . S
C168 C165 1.351 . S
C168 H180 0.930 . S
C169 C171 1.400 . S
C169 C172 1.386 . S
C169 H181 0.930 . S
N170 C163 1.377 . S
N170 C171 1.321 . S
N170 Eu173 2.609 . S
C171 C169 1.400 . S
C171 N170 1.321 . S
C171 H178 0.930 . S
C172 C167 1.395 . S
C172 C169 1.386 . S
C172 H191 0.930 . S
Eu173 N170 2.609 . S
Eu173 N174 2.657 . S
Eu173 O207 2.380 1_554 S
Eu173 O208 2.432 . S
Eu173 O212 2.558 . S
Eu173 O213 2.612 1_545 S
Eu173 O215 2.339 1_545 S
Eu173 O216 2.563 1_545 S
Eu173 O217 2.419 . S
Eu173 C237 2.848 . S
N174 C166 1.362 . S
N174 Eu173 2.657 . S
N174 C175 1.334 . S
C175 N174 1.334 . S
C175 C177 1.413 . S
C175 H182 0.929 . S
C176 C164 1.392 . S
C176 C177 1.367 . S
C176 H184 0.930 . S
C177 C175 1.413 . S
C177 C176 1.367 . S
C177 H179 0.930 . S
H178 C171 0.930 . S
H179 C177 0.930 . S
H180 C168 0.930 . S
H181 C169 0.930 . S
H182 C175 0.929 . S
H183 C197 0.930 . S
H184 C176 0.930 . S
H185 C203 0.930 . S
H186 C194 0.929 . S
H187 C201 0.930 . S
H188 C165 0.931 . S
H189 C195 0.930 . S
H190 C228 0.930 . S
H191 C172 0.930 . S
H192 C227 0.931 . S
N193 Eu162 2.657 . S
N193 C194 1.334 . S
N193 C198 1.362 . S
C194 H186 0.929 . S
C194 N193 1.334 . S
C194 C197 1.413 . S
C195 H189 0.930 . S
C195 C196 1.392 . S
C195 C197 1.367 . S
C196 C195 1.392 . S
C196 C198 1.420 . S
C196 C228 1.423 . S
C197 H183 0.930 . S
C197 C194 1.413 . S
C197 C195 1.367 . S
C198 N193 1.362 . S
C198 C196 1.420 . S
C198 C202 1.429 . S
H199 C204 0.930 . S
N200 Eu162 2.609 . S
N200 C202 1.377 . S
N200 C203 1.321 . S
C201 H187 0.930 . S
C201 C203 1.400 . S
C201 C204 1.386 . S
C202 C198 1.429 . S
C202 N200 1.377 . S
C202 C205 1.411 . S
C203 H185 0.930 . S
C203 N200 1.321 . S
C203 C201 1.400 . S
C204 H199 0.930 . S
C204 C201 1.386 . S
C204 C205 1.395 . S
C205 C202 1.411 . S
C205 C204 1.395 . S
C205 C227 1.420 . S
O206 Eu162 2.558 . S
O206 C226 1.257 . S
O207 Eu162 2.612 1_545 S
O207 Eu173 2.380 1_556 S
O207 C218 1.276 . S
O208 Eu173 2.432 . S
O208 C225 1.264 1_554 S
O209 Eu162 2.339 1_545 S
O209 C225 1.254 . S
O210 Eu162 2.563 1_545 S
O210 C218 1.235 . S
O211 Eu162 2.419 . S
O211 C226 1.249 . S
O212 Eu173 2.558 . S
O212 C237 1.257 . S
O213 Eu162 2.380 1_554 S
O213 Eu173 2.612 1_565 S
O213 C229 1.276 . S
O214 Eu162 2.432 . S
O214 C236 1.264 1_556 S
O215 Eu173 2.339 1_565 S
O215 C236 1.254 . S
O216 Eu173 2.563 1_565 S
O216 C229 1.235 . S
O217 Eu173 2.419 . S
O217 C237 1.249 . S
C218 O207 1.276 . S
C218 O210 1.235 . S
C219 C221 1.393 1_565 S
C219 C223 1.395 . S
C219 C226 1.492 . S
C220 C221 1.392 . S
C220 C222 1.386 1_545 S
C221 C219 1.393 1_545 S
C221 C220 1.392 . S
C221 H238 0.930 . S
C222 C220 1.386 1_565 S
C222 C224 1.395 . S
C222 H239 0.930 . S
C223 C219 1.395 . S
C223 C224 1.379 . S
C223 H240 0.930 . S
C224 C222 1.395 . S
C224 C223 1.379 . S
C224 H241 0.930 . S
C225 O208 1.264 1_556 S
C225 O209 1.254 . S
C226 Eu162 2.848 . S
C226 O206 1.257 . S
C226 O211 1.249 . S
C226 C219 1.492 . S
C227 H192 0.931 . S
C227 C205 1.420 . S
C227 C228 1.351 . S
C228 H190 0.930 . S
C228 C196 1.423 . S
C228 C227 1.351 . S
C229 O213 1.276 . S
C229 O216 1.235 . S
C230 C231 1.393 1_545 S
C230 C234 1.395 . S
C230 C237 1.492 . S
C231 C230 1.393 1_565 S
C231 C232 1.392 . S
C231 H242 0.930 . S
C232 C231 1.392 . S
C232 C233 1.386 1_565 S
C233 C232 1.386 1_545 S
C233 C235 1.395 . S
C233 H243 0.930 . S
C234 C230 1.395 . S
C234 C235 1.379 . S
C234 H244 0.930 . S
C235 C233 1.395 . S
C235 C234 1.379 . S
C235 H245 0.930 . S
C236 O214 1.264 1_554 S
C236 O215 1.254 . S
C237 Eu173 2.848 . S
C237 O212 1.257 . S
C237 O217 1.249 . S
C237 C230 1.492 . S
H238 C221 0.930 . S
H239 C222 0.930 . S
H240 C223 0.930 . S
H241 C224 0.930 . S
H242 C231 0.930 . S
H243 C233 0.930 . S
H244 C234 0.930 . S
H245 C235 0.930 . S
Eu246 N277 2.657 . S
Eu246 N284 2.609 . S
Eu246 O290 2.558 . S
Eu246 O291 2.612 1_455 S
Eu246 O293 2.339 1_455 S
Eu246 O294 2.563 1_455 S
Eu246 O295 2.419 . S
Eu246 O297 2.380 1_556 S
Eu246 O298 2.432 . S
Eu246 C310 2.848 . S
C247 C250 1.429 . S
C247 C251 1.411 . S
C247 N254 1.377 . S
C248 C250 1.420 . S
C248 C252 1.423 . S
C248 C260 1.392 . S
C249 C251 1.420 . S
C249 C252 1.351 . S
C249 H272 0.931 . S
C250 C247 1.429 . S
C250 C248 1.420 . S
C250 N258 1.362 . S
C251 C247 1.411 . S
C251 C249 1.420 . S
C251 C256 1.395 . S
C252 C248 1.423 . S
C252 C249 1.351 . S
C252 H264 0.930 . S
C253 C255 1.400 . S
C253 C256 1.386 . S
C253 H265 0.930 . S
N254 C247 1.377 . S
N254 C255 1.321 . S
N254 Eu257 2.609 . S
C255 C253 1.400 . S
C255 N254 1.321 . S
C255 H262 0.930 . S
C256 C251 1.395 . S
C256 C253 1.386 . S
C256 H275 0.930 . S
Eu257 N254 2.609 . S
Eu257 N258 2.657 . S
Eu257 O291 2.380 1_554 S
Eu257 O292 2.432 . S
Eu257 O296 2.558 . S
Eu257 O297 2.612 1_655 S
Eu257 O299 2.339 1_655 S
Eu257 O300 2.563 1_655 S
Eu257 O301 2.419 . S
Eu257 C321 2.848 . S
N258 C250 1.362 . S
N258 Eu257 2.657 . S
N258 C259 1.334 . S
C259 N258 1.334 . S
C259 C261 1.413 . S
C259 H266 0.929 . S
C260 C248 1.392 . S
C260 C261 1.367 . S
C260 H268 0.930 . S
C261 C259 1.413 . S
C261 C260 1.367 . S
C261 H263 0.930 . S
H262 C255 0.930 . S
H263 C261 0.930 . S
H264 C252 0.930 . S
H265 C253 0.930 . S
H266 C259 0.929 . S
H267 C281 0.930 . S
H268 C260 0.930 . S
H269 C287 0.930 . S
H270 C278 0.929 . S
H271 C285 0.930 . S
H272 C249 0.931 . S
H273 C279 0.930 . S
H274 C312 0.930 . S
H275 C256 0.930 . S
H276 C311 0.931 . S
N277 Eu246 2.657 . S
N277 C278 1.334 . S
N277 C282 1.362 . S
C278 H270 0.929 . S
C278 N277 1.334 . S
C278 C281 1.413 . S
C279 H273 0.930 . S
C279 C280 1.392 . S
C279 C281 1.367 . S
C280 C279 1.392 . S
C280 C282 1.420 . S
C280 C312 1.423 . S
C281 H267 0.930 . S
C281 C278 1.413 . S
C281 C279 1.367 . S
C282 N277 1.362 . S
C282 C280 1.420 . S
C282 C286 1.429 . S
H283 C288 0.930 . S
N284 Eu246 2.609 . S
N284 C286 1.377 . S
N284 C287 1.321 . S
C285 H271 0.930 . S
C285 C287 1.400 . S
C285 C288 1.386 . S
C286 C282 1.429 . S
C286 N284 1.377 . S
C286 C289 1.411 . S
C287 H269 0.930 . S
C287 N284 1.321 . S
C287 C285 1.400 . S
C288 H283 0.930 . S
C288 C285 1.386 . S
C288 C289 1.395 . S
C289 C286 1.411 . S
C289 C288 1.395 . S
C289 C311 1.420 . S
O290 Eu246 2.558 . S
O290 C310 1.257 . S
O291 Eu246 2.612 1_655 S
O291 Eu257 2.380 1_556 S
O291 C302 1.276 . S
O292 Eu257 2.432 . S
O292 C309 1.264 1_554 S
O293 Eu246 2.339 1_655 S
O293 C309 1.254 . S
O294 Eu246 2.563 1_655 S
O294 C302 1.235 . S
O295 Eu246 2.419 . S
O295 C310 1.249 . S
O296 Eu257 2.558 . S
O296 C321 1.257 . S
O297 Eu246 2.380 1_554 S
O297 Eu257 2.612 1_455 S
O297 C313 1.276 . S
O298 Eu246 2.432 . S
O298 C320 1.264 1_556 S
O299 Eu257 2.339 1_455 S
O299 C320 1.254 . S
O300 Eu257 2.563 1_455 S
O300 C313 1.235 . S
O301 Eu257 2.419 . S
O301 C321 1.249 . S
C302 O291 1.276 . S
C302 O294 1.235 . S
C303 C305 1.393 1_455 S
C303 C307 1.395 . S
C303 C310 1.492 . S
C304 C305 1.392 . S
C304 C306 1.386 1_655 S
C305 C303 1.393 1_655 S
C305 C304 1.392 . S
C305 H322 0.930 . S
C306 C304 1.386 1_455 S
C306 C308 1.395 . S
C306 H323 0.930 . S
C307 C303 1.395 . S
C307 C308 1.379 . S
C307 H324 0.930 . S
C308 C306 1.395 . S
C308 C307 1.379 . S
C308 H325 0.930 . S
C309 O292 1.264 1_556 S
C309 O293 1.254 . S
C310 Eu246 2.848 . S
C310 O290 1.257 . S
C310 O295 1.249 . S
C310 C303 1.492 . S
C311 H276 0.931 . S
C311 C289 1.420 . S
C311 C312 1.351 . S
C312 H274 0.930 . S
C312 C280 1.423 . S
C312 C311 1.351 . S
C313 O297 1.276 . S
C313 O300 1.235 . S
C314 C315 1.393 1_655 S
C314 C318 1.395 . S
C314 C321 1.492 . S
C315 C314 1.393 1_455 S
C315 C316 1.392 . S
C315 H326 0.930 . S
C316 C315 1.392 . S
C316 C317 1.386 1_455 S
C317 C316 1.386 1_655 S
C317 C319 1.395 . S
C317 H327 0.930 . S
C318 C314 1.395 . S
C318 C319 1.379 . S
C318 H328 0.930 . S
C319 C317 1.395 . S
C319 C318 1.379 . S
C319 H329 0.930 . S
C320 O298 1.264 1_554 S
C320 O299 1.254 . S
C321 Eu257 2.848 . S
C321 O296 1.257 . S
C321 O301 1.249 . S
C321 C314 1.492 . S
H322 C305 0.930 . S
H323 C306 0.930 . S
H324 C307 0.930 . S
H325 C308 0.930 . S
H326 C315 0.930 . S
H327 C317 0.930 . S
H328 C318 0.930 . S
H329 C319 0.930 . S
Eu330 N361 2.657 . S
Eu330 N368 2.609 . S
Eu330 O374 2.558 . S
Eu330 O375 2.612 . S
Eu330 O377 2.339 . S
Eu330 O378 2.563 . S
Eu330 O379 2.419 . S
Eu330 O381 2.380 1_554 S
Eu330 O382 2.432 . S
Eu330 C394 2.848 . S
C331 C334 1.429 . S
C331 C335 1.411 . S
C331 N338 1.377 . S
C332 C334 1.420 . S
C332 C336 1.423 . S
C332 C344 1.392 . S
C333 C335 1.420 . S
C333 C336 1.351 . S
C333 H356 0.931 . S
C334 C331 1.429 . S
C334 C332 1.420 . S
C334 N342 1.362 . S
C335 C331 1.411 . S
C335 C333 1.420 . S
C335 C340 1.395 . S
C336 C332 1.423 . S
C336 C333 1.351 . S
C336 H348 0.930 . S
C337 C339 1.400 . S
C337 C340 1.386 . S
C337 H349 0.930 . S
N338 C331 1.377 . S
N338 C339 1.321 . S
N338 Eu341 2.609 . S
C339 C337 1.400 . S
C339 N338 1.321 . S
C339 H346 0.930 . S
C340 C335 1.395 . S
C340 C337 1.386 . S
C340 H359 0.930 . S
Eu341 N338 2.609 . S
Eu341 N342 2.657 . S
Eu341 O375 2.380 1_556 S
Eu341 O376 2.432 . S
Eu341 O380 2.558 . S
Eu341 O381 2.612 . S
Eu341 O383 2.339 . S
Eu341 O384 2.563 . S
Eu341 O385 2.419 . S
Eu341 C405 2.848 . S
N342 C334 1.362 . S
N342 Eu341 2.657 . S
N342 C343 1.334 . S
C343 N342 1.334 . S
C343 C345 1.413 . S
C343 H350 0.929 . S
C344 C332 1.392 . S
C344 C345 1.367 . S
C344 H352 0.930 . S
C345 C343 1.413 . S
C345 C344 1.367 . S
C345 H347 0.930 . S
H346 C339 0.930 . S
H347 C345 0.930 . S
H348 C336 0.930 . S
H349 C337 0.930 . S
H350 C343 0.929 . S
H351 C365 0.930 . S
H352 C344 0.930 . S
H353 C371 0.930 . S
H354 C362 0.929 . S
H355 C369 0.930 . S
H356 C333 0.931 . S
H357 C363 0.930 . S
H358 C396 0.930 . S
H359 C340 0.930 . S
H360 C395 0.931 . S
N361 Eu330 2.657 . S
N361 C362 1.334 . S
N361 C366 1.362 . S
C362 H354 0.929 . S
C362 N361 1.334 . S
C362 C365 1.413 . S
C363 H357 0.930 . S
C363 C364 1.392 . S
C363 C365 1.367 . S
C364 C363 1.392 . S
C364 C366 1.420 . S
C364 C396 1.423 . S
C365 H351 0.930 . S
C365 C362 1.413 . S
C365 C363 1.367 . S
C366 N361 1.362 . S
C366 C364 1.420 . S
C366 C370 1.429 . S
H367 C372 0.930 . S
N368 Eu330 2.609 . S
N368 C370 1.377 . S
N368 C371 1.321 . S
C369 H355 0.930 . S
C369 C371 1.400 . S
C369 C372 1.386 . S
C370 C366 1.429 . S
C370 N368 1.377 . S
C370 C373 1.411 . S
C371 H353 0.930 . S
C371 N368 1.321 . S
C371 C369 1.400 . S
C372 H367 0.930 . S
C372 C369 1.386 . S
C372 C373 1.395 . S
C373 C370 1.411 . S
C373 C372 1.395 . S
C373 C395 1.420 . S
O374 Eu330 2.558 . S
O374 C394 1.257 . S
O375 Eu330 2.612 . S
O375 Eu341 2.380 1_554 S
O375 C386 1.276 . S
O376 Eu341 2.432 . S
O376 C393 1.264 1_556 S
O377 Eu330 2.339 . S
O377 C393 1.254 . S
O378 Eu330 2.563 . S
O378 C386 1.235 . S
O379 Eu330 2.419 . S
O379 C394 1.249 . S
O380 Eu341 2.558 . S
O380 C405 1.257 . S
O381 Eu330 2.380 1_556 S
O381 Eu341 2.612 . S
O381 C397 1.276 . S
O382 Eu330 2.432 . S
O382 C404 1.264 1_554 S
O383 Eu341 2.339 . S
O383 C404 1.254 . S
O384 Eu341 2.563 . S
O384 C397 1.235 . S
O385 Eu341 2.419 . S
O385 C405 1.249 . S
C386 O375 1.276 . S
C386 O378 1.235 . S
C387 C389 1.393 . S
C387 C391 1.395 . S
C387 C394 1.492 . S
C388 C389 1.392 . S
C388 C390 1.386 . S
C389 C387 1.393 . S
C389 C388 1.392 . S
C389 H406 0.930 . S
C390 C388 1.386 . S
C390 C392 1.395 . S
C390 H407 0.930 . S
C391 C387 1.395 . S
C391 C392 1.379 . S
C391 H408 0.930 . S
C392 C390 1.395 . S
C392 C391 1.379 . S
C392 H409 0.930 . S
C393 O376 1.264 1_554 S
C393 O377 1.254 . S
C394 Eu330 2.848 . S
C394 O374 1.257 . S
C394 O379 1.249 . S
C394 C387 1.492 . S
C395 H360 0.931 . S
C395 C373 1.420 . S
C395 C396 1.351 . S
C396 H358 0.930 . S
C396 C364 1.423 . S
C396 C395 1.351 . S
C397 O381 1.276 . S
C397 O384 1.235 . S
C398 C399 1.393 . S
C398 C402 1.395 . S
C398 C405 1.492 . S
C399 C398 1.393 . S
C399 C400 1.392 . S
C399 H410 0.930 . S
C400 C399 1.392 . S
C400 C401 1.386 . S
C401 C400 1.386 . S
C401 C403 1.395 . S
C401 H411 0.930 . S
C402 C398 1.395 . S
C402 C403 1.379 . S
C402 H412 0.930 . S
C403 C401 1.395 . S
C403 C402 1.379 . S
C403 H413 0.930 . S
C404 O382 1.264 1_556 S
C404 O383 1.254 . S
C405 Eu341 2.848 . S
C405 O380 1.257 . S
C405 O385 1.249 . S
C405 C398 1.492 . S
H406 C389 0.930 . S
H407 C390 0.930 . S
H408 C391 0.930 . S
H409 C392 0.930 . S
H410 C399 0.930 . S
H411 C401 0.930 . S
H412 C402 0.930 . S
H413 C403 0.930 . S
Eu414 N445 2.657 . S
Eu414 N452 2.609 . S
Eu414 O458 2.558 . S
Eu414 O459 2.612 . S
Eu414 O461 2.339 . S
Eu414 O462 2.563 . S
Eu414 O463 2.419 . S
Eu414 O465 2.380 . S
Eu414 O466 2.432 . S
Eu414 C478 2.848 . S
C415 C418 1.429 . S
C415 C419 1.411 . S
C415 N422 1.377 . S
C416 C418 1.420 . S
C416 C420 1.423 . S
C416 C428 1.392 . S
C417 C419 1.420 . S
C417 C420 1.351 . S
C417 H440 0.931 . S
C418 C415 1.429 . S
C418 C416 1.420 . S
C418 N426 1.362 . S
C419 C415 1.411 . S
C419 C417 1.420 . S
C419 C424 1.395 . S
C420 C416 1.423 . S
C420 C417 1.351 . S
C420 H432 0.930 . S
C421 C423 1.400 . S
C421 C424 1.386 . S
C421 H433 0.930 . S
N422 C415 1.377 . S
N422 C423 1.321 . S
N422 Eu425 2.609 . S
C423 C421 1.400 . S
C423 N422 1.321 . S
C423 H430 0.930 . S
C424 C419 1.395 . S
C424 C421 1.386 . S
C424 H443 0.930 . S
Eu425 N422 2.609 . S
Eu425 N426 2.657 . S
Eu425 O459 2.380 . S
Eu425 O460 2.432 . S
Eu425 O464 2.558 . S
Eu425 O465 2.612 . S
Eu425 O467 2.339 . S
Eu425 O468 2.563 . S
Eu425 O469 2.419 . S
Eu425 C489 2.848 . S
N426 C418 1.362 . S
N426 Eu425 2.657 . S
N426 C427 1.334 . S
C427 N426 1.334 . S
C427 C429 1.413 . S
C427 H434 0.929 . S
C428 C416 1.392 . S
C428 C429 1.367 . S
C428 H436 0.930 . S
C429 C427 1.413 . S
C429 C428 1.367 . S
C429 H431 0.930 . S
H430 C423 0.930 . S
H431 C429 0.930 . S
H432 C420 0.930 . S
H433 C421 0.930 . S
H434 C427 0.929 . S
H435 C449 0.930 . S
H436 C428 0.930 . S
H437 C455 0.930 . S
H438 C446 0.929 . S
H439 C453 0.930 . S
H440 C417 0.931 . S
H441 C447 0.930 . S
H442 C480 0.930 . S
H443 C424 0.930 . S
H444 C479 0.931 . S
N445 Eu414 2.657 . S
N445 C446 1.334 . S
N445 C450 1.362 . S
C446 H438 0.929 . S
C446 N445 1.334 . S
C446 C449 1.413 1_455 S
C447 H441 0.930 . S
C447 C448 1.392 . S
C447 C449 1.367 . S
C448 C447 1.392 . S
C448 C450 1.420 1_655 S
C448 C480 1.423 . S
C449 H435 0.930 . S
C449 C446 1.413 1_655 S
C449 C447 1.367 . S
C450 N445 1.362 . S
C450 C448 1.420 1_455 S
C450 C454 1.429 . S
H451 C456 0.930 . S
N452 Eu414 2.609 . S
N452 C454 1.377 . S
N452 C455 1.321 . S
C453 H439 0.930 . S
C453 C455 1.400 . S
C453 C456 1.386 . S
C454 C450 1.429 . S
C454 N452 1.377 . S
C454 C457 1.411 . S
C455 H437 0.930 . S
C455 N452 1.321 . S
C455 C453 1.400 . S
C456 H451 0.930 . S
C456 C453 1.386 . S
C456 C457 1.395 . S
C457 C454 1.411 . S
C457 C456 1.395 . S
C457 C479 1.420 1_455 S
O458 Eu414 2.558 . S
O458 C478 1.257 . S
O459 Eu414 2.612 . S
O459 Eu425 2.380 . S
O459 C470 1.276 . S
O460 Eu425 2.432 . S
O460 C477 1.264 . S
O461 Eu414 2.339 . S
O461 C477 1.254 . S
O462 Eu414 2.563 . S
O462 C470 1.235 . S
O463 Eu414 2.419 . S
O463 C478 1.249 . S
O464 Eu425 2.558 . S
O464 C489 1.257 . S
O465 Eu414 2.380 . S
O465 Eu425 2.612 . S
O465 C481 1.276 . S
O466 Eu414 2.432 . S
O466 C488 1.264 . S
O467 Eu425 2.339 . S
O467 C488 1.254 . S
O468 Eu425 2.563 . S
O468 C481 1.235 . S
O469 Eu425 2.419 . S
O469 C489 1.249 . S
C470 O459 1.276 . S
C470 O462 1.235 . S
C471 C473 1.393 . S
C471 C475 1.395 . S
C471 C478 1.492 . S
C472 C473 1.392 . S
C472 C474 1.386 . S
C473 C471 1.393 . S
C473 C472 1.392 . S
C473 H490 0.930 . S
C474 C472 1.386 . S
C474 C476 1.395 . S
C474 H491 0.930 . S
C475 C471 1.395 . S
C475 C476 1.379 . S
C475 H492 0.930 . S
C476 C474 1.395 . S
C476 C475 1.379 . S
C476 H493 0.930 . S
C477 O460 1.264 . S
C477 O461 1.254 . S
C478 Eu414 2.848 . S
C478 O458 1.257 . S
C478 O463 1.249 . S
C478 C471 1.492 . S
C479 H444 0.931 . S
C479 C457 1.420 1_655 S
C479 C480 1.351 . S
C480 H442 0.930 . S
C480 C448 1.423 . S
C480 C479 1.351 . S
C481 O465 1.276 . S
C481 O468 1.235 . S
C482 C483 1.393 . S
C482 C486 1.395 . S
C482 C489 1.492 . S
C483 C482 1.393 . S
C483 C484 1.392 . S
C483 H494 0.930 . S
C484 C483 1.392 . S
C484 C485 1.386 . S
C485 C484 1.386 . S
C485 C487 1.395 . S
C485 H495 0.930 . S
C486 C482 1.395 . S
C486 C487 1.379 . S
C486 H496 0.930 . S
C487 C485 1.395 . S
C487 C486 1.379 . S
C487 H497 0.930 . S
C488 O466 1.264 . S
C488 O467 1.254 . S
C489 Eu425 2.848 . S
C489 O464 1.257 . S
C489 O469 1.249 . S
C489 C482 1.492 . S
H490 C473 0.930 . S
H491 C474 0.930 . S
H492 C475 0.930 . S
H493 C476 0.930 . S
H494 C483 0.930 . S
H495 C485 0.930 . S
H496 C486 0.930 . S
H497 C487 0.930 . S
Eu498 N529 2.657 . S
Eu498 N536 2.609 . S
Eu498 O542 2.558 . S
Eu498 O543 2.612 . S
Eu498 O545 2.339 . S
Eu498 O546 2.563 . S
Eu498 O547 2.419 . S
Eu498 O549 2.380 . S
Eu498 O550 2.432 . S
Eu498 C562 2.848 . S
C499 C502 1.429 . S
C499 C503 1.411 . S
C499 N506 1.377 . S
C500 C502 1.420 . S
C500 C504 1.423 . S
C500 C512 1.392 . S
C501 C503 1.420 . S
C501 C504 1.351 . S
C501 H524 0.931 . S
C502 C499 1.429 . S
C502 C500 1.420 . S
C502 N510 1.362 . S
C503 C499 1.411 . S
C503 C501 1.420 . S
C503 C508 1.395 . S
C504 C500 1.423 . S
C504 C501 1.351 . S
C504 H516 0.930 . S
C505 C507 1.400 . S
C505 C508 1.386 . S
C505 H517 0.930 . S
N506 C499 1.377 . S
N506 C507 1.321 . S
N506 Eu509 2.609 . S
C507 C505 1.400 . S
C507 N506 1.321 . S
C507 H514 0.930 . S
C508 C503 1.395 . S
C508 C505 1.386 . S
C508 H527 0.930 . S
Eu509 N506 2.609 . S
Eu509 N510 2.657 . S
Eu509 O543 2.380 . S
Eu509 O544 2.432 . S
Eu509 O548 2.558 . S
Eu509 O549 2.612 . S
Eu509 O551 2.339 . S
Eu509 O552 2.563 . S
Eu509 O553 2.419 . S
Eu509 C573 2.848 . S
N510 C502 1.362 . S
N510 Eu509 2.657 . S
N510 C511 1.334 . S
C511 N510 1.334 . S
C511 C513 1.413 . S
C511 H518 0.929 . S
C512 C500 1.392 . S
C512 C513 1.367 . S
C512 H520 0.930 . S
C513 C511 1.413 . S
C513 C512 1.367 . S
C513 H515 0.930 . S
H514 C507 0.930 . S
H515 C513 0.930 . S
H516 C504 0.930 . S
H517 C505 0.930 . S
H518 C511 0.929 . S
H519 C533 0.930 . S
H520 C512 0.930 . S
H521 C539 0.930 . S
H522 C530 0.929 . S
H523 C537 0.930 . S
H524 C501 0.931 . S
H525 C531 0.930 . S
H526 C564 0.930 . S
H527 C508 0.930 . S
H528 C563 0.931 . S
N529 Eu498 2.657 . S
N529 C530 1.334 . S
N529 C534 1.362 . S
C530 H522 0.929 . S
C530 N529 1.334 . S
C530 C533 1.413 . S
C531 H525 0.930 . S
C531 C532 1.392 . S
C531 C533 1.367 . S
C532 C531 1.392 . S
C532 C534 1.420 . S
C532 C564 1.423 . S
C533 H519 0.930 . S
C533 C530 1.413 . S
C533 C531 1.367 . S
C534 N529 1.362 . S
C534 C532 1.420 . S
C534 C538 1.429 . S
H535 C540 0.930 . S
N536 Eu498 2.609 . S
N536 C538 1.377 . S
N536 C539 1.321 . S
C537 H523 0.930 . S
C537 C539 1.400 . S
C537 C540 1.386 . S
C538 C534 1.429 . S
C538 N536 1.377 . S
C538 C541 1.411 . S
C539 H521 0.930 . S
C539 N536 1.321 . S
C539 C537 1.400 . S
C540 H535 0.930 . S
C540 C537 1.386 . S
C540 C541 1.395 . S
C541 C538 1.411 . S
C541 C540 1.395 . S
C541 C563 1.420 . S
O542 Eu498 2.558 . S
O542 C562 1.257 . S
O543 Eu498 2.612 . S
O543 Eu509 2.380 . S
O543 C554 1.276 . S
O544 Eu509 2.432 . S
O544 C561 1.264 . S
O545 Eu498 2.339 . S
O545 C561 1.254 . S
O546 Eu498 2.563 . S
O546 C554 1.235 . S
O547 Eu498 2.419 . S
O547 C562 1.249 . S
O548 Eu509 2.558 . S
O548 C573 1.257 . S
O549 Eu498 2.380 . S
O549 Eu509 2.612 . S
O549 C565 1.276 . S
O550 Eu498 2.432 . S
O550 C572 1.264 . S
O551 Eu509 2.339 . S
O551 C572 1.254 . S
O552 Eu509 2.563 . S
O552 C565 1.235 . S
O553 Eu509 2.419 . S
O553 C573 1.249 . S
C554 O543 1.276 . S
C554 O546 1.235 . S
C555 C557 1.393 . S
C555 C559 1.395 . S
C555 C562 1.492 . S
C556 C557 1.392 . S
C556 C558 1.386 . S
C557 C555 1.393 . S
C557 C556 1.392 . S
C557 H574 0.930 . S
C558 C556 1.386 . S
C558 C560 1.395 . S
C558 H575 0.930 . S
C559 C555 1.395 . S
C559 C560 1.379 . S
C559 H576 0.930 . S
C560 C558 1.395 . S
C560 C559 1.379 . S
C560 H577 0.930 . S
C561 O544 1.264 . S
C561 O545 1.254 . S
C562 Eu498 2.848 . S
C562 O542 1.257 . S
C562 O547 1.249 . S
C562 C555 1.492 . S
C563 H528 0.931 . S
C563 C541 1.420 . S
C563 C564 1.351 . S
C564 H526 0.930 . S
C564 C532 1.423 . S
C564 C563 1.351 . S
C565 O549 1.276 . S
C565 O552 1.235 . S
C566 C567 1.393 . S
C566 C570 1.395 . S
C566 C573 1.492 . S
C567 C566 1.393 . S
C567 C568 1.392 . S
C567 H578 0.930 . S
C568 C567 1.392 . S
C568 C569 1.386 . S
C569 C568 1.386 . S
C569 C571 1.395 . S
C569 H579 0.930 . S
C570 C566 1.395 . S
C570 C571 1.379 . S
C570 H580 0.930 . S
C571 C569 1.395 . S
C571 C570 1.379 . S
C571 H581 0.930 . S
C572 O550 1.264 . S
C572 O551 1.254 . S
C573 Eu509 2.848 . S
C573 O548 1.257 . S
C573 O553 1.249 . S
C573 C566 1.492 . S
H574 C557 0.930 . S
H575 C558 0.930 . S
H576 C559 0.930 . S
H577 C560 0.930 . S
H578 C567 0.930 . S
H579 C569 0.930 . S
H580 C570 0.930 . S
H581 C571 0.930 . S
Eu582 N613 2.657 . S
Eu582 N620 2.609 . S
Eu582 O626 2.558 . S
Eu582 O627 2.612 . S
Eu582 O629 2.339 . S
Eu582 O630 2.563 . S
Eu582 O631 2.419 . S
Eu582 O633 2.380 . S
Eu582 O634 2.432 . S
Eu582 C646 2.848 . S
C583 C586 1.429 . S
C583 C587 1.411 . S
C583 N590 1.377 . S
C584 C586 1.420 1_655 S
C584 C588 1.423 . S
C584 C596 1.392 . S
C585 C587 1.420 1_655 S
C585 C588 1.351 . S
C585 H608 0.931 . S
C586 C583 1.429 . S
C586 C584 1.420 1_455 S
C586 N594 1.362 . S
C587 C583 1.411 . S
C587 C585 1.420 1_455 S
C587 C592 1.395 . S
C588 C584 1.423 . S
C588 C585 1.351 . S
C588 H600 0.930 . S
C589 C591 1.400 . S
C589 C592 1.386 . S
C589 H601 0.930 . S
N590 C583 1.377 . S
N590 C591 1.321 . S
N590 Eu593 2.609 . S
C591 C589 1.400 . S
C591 N590 1.321 . S
C591 H598 0.930 . S
C592 C587 1.395 . S
C592 C589 1.386 . S
C592 H611 0.930 . S
Eu593 N590 2.609 . S
Eu593 N594 2.657 . S
Eu593 O627 2.380 . S
Eu593 O628 2.432 . S
Eu593 O632 2.558 . S
Eu593 O633 2.612 . S
Eu593 O635 2.339 . S
Eu593 O636 2.563 . S
Eu593 O637 2.419 . S
Eu593 C657 2.848 . S
N594 C586 1.362 . S
N594 Eu593 2.657 . S
N594 C595 1.334 . S
C595 N594 1.334 . S
C595 C597 1.413 1_455 S
C595 H602 0.929 . S
C596 C584 1.392 . S
C596 C597 1.367 . S
C596 H604 0.930 . S
C597 C595 1.413 1_655 S
C597 C596 1.367 . S
C597 H599 0.930 . S
H598 C591 0.930 . S
H599 C597 0.930 . S
H600 C588 0.930 . S
H601 C589 0.930 . S
H602 C595 0.929 . S
H603 C617 0.930 . S
H604 C596 0.930 . S
H605 C623 0.930 . S
H606 C614 0.929 . S
H607 C621 0.930 . S
H608 C585 0.931 . S
H609 C615 0.930 . S
H610 C648 0.930 . S
H611 C592 0.930 . S
H612 C647 0.931 . S
N613 Eu582 2.657 . S
N613 C614 1.334 . S
N613 C618 1.362 . S
C614 H606 0.929 . S
C614 N613 1.334 . S
C614 C617 1.413 . S
C615 H609 0.930 . S
C615 C616 1.392 . S
C615 C617 1.367 . S
C616 C615 1.392 . S
C616 C618 1.420 . S
C616 C648 1.423 . S
C617 H603 0.930 . S
C617 C614 1.413 . S
C617 C615 1.367 . S
C618 N613 1.362 . S
C618 C616 1.420 . S
C618 C622 1.429 . S
H619 C624 0.930 . S
N620 Eu582 2.609 . S
N620 C622 1.377 . S
N620 C623 1.321 . S
C621 H607 0.930 . S
C621 C623 1.400 . S
C621 C624 1.386 . S
C622 C618 1.429 . S
C622 N620 1.377 . S
C622 C625 1.411 . S
C623 H605 0.930 . S
C623 N620 1.321 . S
C623 C621 1.400 . S
C624 H619 0.930 . S
C624 C621 1.386 . S
C624 C625 1.395 . S
C625 C622 1.411 . S
C625 C624 1.395 . S
C625 C647 1.420 . S
O626 Eu582 2.558 . S
O626 C646 1.257 . S
O627 Eu582 2.612 . S
O627 Eu593 2.380 . S
O627 C638 1.276 . S
O628 Eu593 2.432 . S
O628 C645 1.264 . S
O629 Eu582 2.339 . S
O629 C645 1.254 . S
O630 Eu582 2.563 . S
O630 C638 1.235 . S
O631 Eu582 2.419 . S
O631 C646 1.249 . S
O632 Eu593 2.558 . S
O632 C657 1.257 . S
O633 Eu582 2.380 . S
O633 Eu593 2.612 . S
O633 C649 1.276 . S
O634 Eu582 2.432 . S
O634 C656 1.264 . S
O635 Eu593 2.339 . S
O635 C656 1.254 . S
O636 Eu593 2.563 . S
O636 C649 1.235 . S
O637 Eu593 2.419 . S
O637 C657 1.249 . S
C638 O627 1.276 . S
C638 O630 1.235 . S
C639 C641 1.393 . S
C639 C643 1.395 . S
C639 C646 1.492 . S
C640 C641 1.392 . S
C640 C642 1.386 . S
C641 C639 1.393 . S
C641 C640 1.392 . S
C641 H658 0.930 . S
C642 C640 1.386 . S
C642 C644 1.395 . S
C642 H659 0.930 . S
C643 C639 1.395 . S
C643 C644 1.379 . S
C643 H660 0.930 . S
C644 C642 1.395 . S
C644 C643 1.379 . S
C644 H661 0.930 . S
C645 O628 1.264 . S
C645 O629 1.254 . S
C646 Eu582 2.848 . S
C646 O626 1.257 . S
C646 O631 1.249 . S
C646 C639 1.492 . S
C647 H612 0.931 . S
C647 C625 1.420 . S
C647 C648 1.351 . S
C648 H610 0.930 . S
C648 C616 1.423 . S
C648 C647 1.351 . S
C649 O633 1.276 . S
C649 O636 1.235 . S
C650 C651 1.393 . S
C650 C654 1.395 . S
C650 C657 1.492 . S
C651 C650 1.393 . S
C651 C652 1.392 . S
C651 H662 0.930 . S
C652 C651 1.392 . S
C652 C653 1.386 . S
C653 C652 1.386 . S
C653 C655 1.395 . S
C653 H663 0.930 . S
C654 C650 1.395 . S
C654 C655 1.379 . S
C654 H664 0.930 . S
C655 C653 1.395 . S
C655 C654 1.379 . S
C655 H665 0.930 . S
C656 O634 1.264 . S
C656 O635 1.254 . S
C657 Eu593 2.848 . S
C657 O632 1.257 . S
C657 O637 1.249 . S
C657 C650 1.492 . S
H658 C641 0.930 . S
H659 C642 0.930 . S
H660 C643 0.930 . S
H661 C644 0.930 . S
H662 C651 0.930 . S
H663 C653 0.930 . S
H664 C654 0.930 . S
H665 C655 0.930 . S
Eu666 N697 2.657 . S
Eu666 N704 2.609 . S
Eu666 O710 2.558 . S
Eu666 O711 2.612 . S
Eu666 O713 2.339 . S
Eu666 O714 2.563 . S
Eu666 O715 2.419 . S
Eu666 O717 2.380 . S
Eu666 O718 2.432 . S
Eu666 C730 2.848 . S
C667 C670 1.429 . S
C667 C671 1.411 . S
C667 N674 1.377 . S
C668 C670 1.420 1_455 S
C668 C672 1.423 . S
C668 C680 1.392 . S
C669 C671 1.420 1_455 S
C669 C672 1.351 . S
C669 H692 0.931 . S
C670 C667 1.429 . S
C670 C668 1.420 1_655 S
C670 N678 1.362 . S
C671 C667 1.411 . S
C671 C669 1.420 1_655 S
C671 C676 1.395 . S
C672 C668 1.423 . S
C672 C669 1.351 . S
C672 H684 0.930 . S
C673 C675 1.400 . S
C673 C676 1.386 . S
C673 H685 0.930 . S
N674 C667 1.377 . S
N674 C675 1.321 . S
N674 Eu677 2.609 . S
C675 C673 1.400 . S
C675 N674 1.321 . S
C675 H682 0.930 . S
C676 C671 1.395 . S
C676 C673 1.386 . S
C676 H695 0.930 . S
Eu677 N674 2.609 . S
Eu677 N678 2.657 . S
Eu677 O711 2.380 . S
Eu677 O712 2.432 . S
Eu677 O716 2.558 . S
Eu677 O717 2.612 . S
Eu677 O719 2.339 . S
Eu677 O720 2.563 . S
Eu677 O721 2.419 . S
Eu677 C741 2.848 . S
N678 C670 1.362 . S
N678 Eu677 2.657 . S
N678 C679 1.334 . S
C679 N678 1.334 . S
C679 C681 1.413 1_655 S
C679 H686 0.929 . S
C680 C668 1.392 . S
C680 C681 1.367 . S
C680 H688 0.930 . S
C681 C679 1.413 1_455 S
C681 C680 1.367 . S
C681 H683 0.930 . S
H682 C675 0.930 . S
H683 C681 0.930 . S
H684 C672 0.930 . S
H685 C673 0.930 . S
H686 C679 0.929 . S
H687 C701 0.930 . S
H688 C680 0.930 . S
H689 C707 0.930 . S
H690 C698 0.929 . S
H691 C705 0.930 . S
H692 C669 0.931 . S
H693 C699 0.930 . S
H694 C732 0.930 . S
H695 C676 0.930 . S
H696 C731 0.931 . S
N697 Eu666 2.657 . S
N697 C698 1.334 . S
N697 C702 1.362 . S
C698 H690 0.929 . S
C698 N697 1.334 . S
C698 C701 1.413 . S
C699 H693 0.930 . S
C699 C700 1.392 . S
C699 C701 1.367 . S
C700 C699 1.392 . S
C700 C702 1.420 . S
C700 C732 1.423 . S
C701 H687 0.930 . S
C701 C698 1.413 . S
C701 C699 1.367 . S
C702 N697 1.362 . S
C702 C700 1.420 . S
C702 C706 1.429 . S
H703 C708 0.930 . S
N704 Eu666 2.609 . S
N704 C706 1.377 . S
N704 C707 1.321 . S
C705 H691 0.930 . S
C705 C707 1.400 . S
C705 C708 1.386 . S
C706 C702 1.429 . S
C706 N704 1.377 . S
C706 C709 1.411 . S
C707 H689 0.930 . S
C707 N704 1.321 . S
C707 C705 1.400 . S
C708 H703 0.930 . S
C708 C705 1.386 . S
C708 C709 1.395 . S
C709 C706 1.411 . S
C709 C708 1.395 . S
C709 C731 1.420 . S
O710 Eu666 2.558 . S
O710 C730 1.257 . S
O711 Eu666 2.612 . S
O711 Eu677 2.380 . S
O711 C722 1.276 . S
O712 Eu677 2.432 . S
O712 C729 1.264 . S
O713 Eu666 2.339 . S
O713 C729 1.254 . S
O714 Eu666 2.563 . S
O714 C722 1.235 . S
O715 Eu666 2.419 . S
O715 C730 1.249 . S
O716 Eu677 2.558 . S
O716 C741 1.257 . S
O717 Eu666 2.380 . S
O717 Eu677 2.612 . S
O717 C733 1.276 . S
O718 Eu666 2.432 . S
O718 C740 1.264 . S
O719 Eu677 2.339 . S
O719 C740 1.254 . S
O720 Eu677 2.563 . S
O720 C733 1.235 . S
O721 Eu677 2.419 . S
O721 C741 1.249 . S
C722 O711 1.276 . S
C722 O714 1.235 . S
C723 C725 1.393 . S
C723 C727 1.395 . S
C723 C730 1.492 . S
C724 C725 1.392 . S
C724 C726 1.386 . S
C725 C723 1.393 . S
C725 C724 1.392 . S
C725 H742 0.930 . S
C726 C724 1.386 . S
C726 C728 1.395 . S
C726 H743 0.930 . S
C727 C723 1.395 . S
C727 C728 1.379 . S
C727 H744 0.930 . S
C728 C726 1.395 . S
C728 C727 1.379 . S
C728 H745 0.930 . S
C729 O712 1.264 . S
C729 O713 1.254 . S
C730 Eu666 2.848 . S
C730 O710 1.257 . S
C730 O715 1.249 . S
C730 C723 1.492 . S
C731 H696 0.931 . S
C731 C709 1.420 . S
C731 C732 1.351 . S
C732 H694 0.930 . S
C732 C700 1.423 . S
C732 C731 1.351 . S
C733 O717 1.276 . S
C733 O720 1.235 . S
C734 C735 1.393 . S
C734 C738 1.395 . S
C734 C741 1.492 . S
C735 C734 1.393 . S
C735 C736 1.392 . S
C735 H746 0.930 . S
C736 C735 1.392 . S
C736 C737 1.386 . S
C737 C736 1.386 . S
C737 C739 1.395 . S
C737 H747 0.930 . S
C738 C734 1.395 . S
C738 C739 1.379 . S
C738 H748 0.930 . S
C739 C737 1.395 . S
C739 C738 1.379 . S
C739 H749 0.930 . S
C740 O718 1.264 . S
C740 O719 1.254 . S
C741 Eu677 2.848 . S
C741 O716 1.257 . S
C741 O721 1.249 . S
C741 C734 1.492 . S
H742 C725 0.930 . S
H743 C726 0.930 . S
H744 C727 0.930 . S
H745 C728 0.930 . S
H746 C735 0.930 . S
H747 C737 0.930 . S
H748 C738 0.930 . S
H749 C739 0.930 . S
Eu750 N781 2.657 . S
Eu750 N788 2.609 . S
Eu750 O794 2.558 . S
Eu750 O795 2.612 . S
Eu750 O797 2.339 . S
Eu750 O798 2.563 . S
Eu750 O799 2.419 . S
Eu750 O801 2.380 . S
Eu750 O802 2.432 . S
Eu750 C814 2.848 . S
C751 C754 1.429 . S
C751 C755 1.411 . S
C751 N758 1.377 . S
C752 C754 1.420 . S
C752 C756 1.423 . S
C752 C764 1.392 . S
C753 C755 1.420 . S
C753 C756 1.351 . S
C753 H776 0.931 . S
C754 C751 1.429 . S
C754 C752 1.420 . S
C754 N762 1.362 . S
C755 C751 1.411 . S
C755 C753 1.420 . S
C755 C760 1.395 . S
C756 C752 1.423 . S
C756 C753 1.351 . S
C756 H768 0.930 . S
C757 C759 1.400 . S
C757 C760 1.386 . S
C757 H769 0.930 . S
N758 C751 1.377 . S
N758 C759 1.321 . S
N758 Eu761 2.609 . S
C759 C757 1.400 . S
C759 N758 1.321 . S
C759 H766 0.930 . S
C760 C755 1.395 . S
C760 C757 1.386 . S
C760 H779 0.930 . S
Eu761 N758 2.609 . S
Eu761 N762 2.657 . S
Eu761 O795 2.380 . S
Eu761 O796 2.432 . S
Eu761 O800 2.558 . S
Eu761 O801 2.612 . S
Eu761 O803 2.339 . S
Eu761 O804 2.563 . S
Eu761 O805 2.419 . S
Eu761 C825 2.848 . S
N762 C754 1.362 . S
N762 Eu761 2.657 . S
N762 C763 1.334 . S
C763 N762 1.334 . S
C763 C765 1.413 . S
C763 H770 0.929 . S
C764 C752 1.392 . S
C764 C765 1.367 . S
C764 H772 0.930 . S
C765 C763 1.413 . S
C765 C764 1.367 . S
C765 H767 0.930 . S
H766 C759 0.930 . S
H767 C765 0.930 . S
H768 C756 0.930 . S
H769 C757 0.930 . S
H770 C763 0.929 . S
H771 C785 0.930 . S
H772 C764 0.930 . S
H773 C791 0.930 . S
H774 C782 0.929 . S
H775 C789 0.930 . S
H776 C753 0.931 . S
H777 C783 0.930 . S
H778 C816 0.930 . S
H779 C760 0.930 . S
H780 C815 0.931 . S
N781 Eu750 2.657 . S
N781 C782 1.334 . S
N781 C786 1.362 . S
C782 H774 0.929 . S
C782 N781 1.334 . S
C782 C785 1.413 . S
C783 H777 0.930 . S
C783 C784 1.392 . S
C783 C785 1.367 . S
C784 C783 1.392 . S
C784 C786 1.420 . S
C784 C816 1.423 . S
C785 H771 0.930 . S
C785 C782 1.413 . S
C785 C783 1.367 . S
C786 N781 1.362 . S
C786 C784 1.420 . S
C786 C790 1.429 . S
H787 C792 0.930 . S
N788 Eu750 2.609 . S
N788 C790 1.377 . S
N788 C791 1.321 . S
C789 H775 0.930 . S
C789 C791 1.400 . S
C789 C792 1.386 . S
C790 C786 1.429 . S
C790 N788 1.377 . S
C790 C793 1.411 . S
C791 H773 0.930 . S
C791 N788 1.321 . S
C791 C789 1.400 . S
C792 H787 0.930 . S
C792 C789 1.386 . S
C792 C793 1.395 . S
C793 C790 1.411 . S
C793 C792 1.395 . S
C793 C815 1.420 . S
O794 Eu750 2.558 . S
O794 C814 1.257 . S
O795 Eu750 2.612 . S
O795 Eu761 2.380 . S
O795 C806 1.276 . S
O796 Eu761 2.432 . S
O796 C813 1.264 . S
O797 Eu750 2.339 . S
O797 C813 1.254 . S
O798 Eu750 2.563 . S
O798 C806 1.235 . S
O799 Eu750 2.419 . S
O799 C814 1.249 . S
O800 Eu761 2.558 . S
O800 C825 1.257 . S
O801 Eu750 2.380 . S
O801 Eu761 2.612 . S
O801 C817 1.276 . S
O802 Eu750 2.432 . S
O802 C824 1.264 . S
O803 Eu761 2.339 . S
O803 C824 1.254 . S
O804 Eu761 2.563 . S
O804 C817 1.235 . S
O805 Eu761 2.419 . S
O805 C825 1.249 . S
C806 O795 1.276 . S
C806 O798 1.235 . S
C807 C809 1.393 . S
C807 C811 1.395 . S
C807 C814 1.492 . S
C808 C809 1.392 . S
C808 C810 1.386 . S
C809 C807 1.393 . S
C809 C808 1.392 . S
C809 H826 0.930 . S
C810 C808 1.386 . S
C810 C812 1.395 . S
C810 H827 0.930 . S
C811 C807 1.395 . S
C811 C812 1.379 . S
C811 H828 0.930 . S
C812 C810 1.395 . S
C812 C811 1.379 . S
C812 H829 0.930 . S
C813 O796 1.264 . S
C813 O797 1.254 . S
C814 Eu750 2.848 . S
C814 O794 1.257 . S
C814 O799 1.249 . S
C814 C807 1.492 . S
C815 H780 0.931 . S
C815 C793 1.420 . S
C815 C816 1.351 . S
C816 H778 0.930 . S
C816 C784 1.423 . S
C816 C815 1.351 . S
C817 O801 1.276 . S
C817 O804 1.235 . S
C818 C819 1.393 . S
C818 C822 1.395 . S
C818 C825 1.492 . S
C819 C818 1.393 . S
C819 C820 1.392 . S
C819 H830 0.930 . S
C820 C819 1.392 . S
C820 C821 1.386 . S
C821 C820 1.386 . S
C821 C823 1.395 . S
C821 H831 0.930 . S
C822 C818 1.395 . S
C822 C823 1.379 . S
C822 H832 0.930 . S
C823 C821 1.395 . S
C823 C822 1.379 . S
C823 H833 0.930 . S
C824 O802 1.264 . S
C824 O803 1.254 . S
C825 Eu761 2.848 . S
C825 O800 1.257 . S
C825 O805 1.249 . S
C825 C818 1.492 . S
H826 C809 0.930 . S
H827 C810 0.930 . S
H828 C811 0.930 . S
H829 C812 0.930 . S
H830 C819 0.930 . S
H831 C821 0.930 . S
H832 C822 0.930 . S
H833 C823 0.930 . S
Eu834 N865 2.657 . S
Eu834 N872 2.609 . S
Eu834 O878 2.558 . S
Eu834 O879 2.612 . S
Eu834 O881 2.339 . S
Eu834 O882 2.563 . S
Eu834 O883 2.419 . S
Eu834 O885 2.380 . S
Eu834 O886 2.432 . S
Eu834 C898 2.848 . S
C835 C838 1.429 . S
C835 C839 1.411 . S
C835 N842 1.377 . S
C836 C838 1.420 . S
C836 C840 1.423 . S
C836 C848 1.392 . S
C837 C839 1.420 . S
C837 C840 1.351 . S
C837 H860 0.931 . S
C838 C835 1.429 . S
C838 C836 1.420 . S
C838 N846 1.362 . S
C839 C835 1.411 . S
C839 C837 1.420 . S
C839 C844 1.395 . S
C840 C836 1.423 . S
C840 C837 1.351 . S
C840 H852 0.930 . S
C841 C843 1.400 . S
C841 C844 1.386 . S
C841 H853 0.930 . S
N842 C835 1.377 . S
N842 C843 1.321 . S
N842 Eu845 2.609 . S
C843 C841 1.400 . S
C843 N842 1.321 . S
C843 H850 0.930 . S
C844 C839 1.395 . S
C844 C841 1.386 . S
C844 H863 0.930 . S
Eu845 N842 2.609 . S
Eu845 N846 2.657 . S
Eu845 O879 2.380 . S
Eu845 O880 2.432 . S
Eu845 O884 2.558 . S
Eu845 O885 2.612 . S
Eu845 O887 2.339 . S
Eu845 O888 2.563 . S
Eu845 O889 2.419 . S
Eu845 C909 2.848 . S
N846 C838 1.362 . S
N846 Eu845 2.657 . S
N846 C847 1.334 . S
C847 N846 1.334 . S
C847 C849 1.413 . S
C847 H854 0.929 . S
C848 C836 1.392 . S
C848 C849 1.367 . S
C848 H856 0.930 . S
C849 C847 1.413 . S
C849 C848 1.367 . S
C849 H851 0.930 . S
H850 C843 0.930 . S
H851 C849 0.930 . S
H852 C840 0.930 . S
H853 C841 0.930 . S
H854 C847 0.929 . S
H855 C869 0.930 . S
H856 C848 0.930 . S
H857 C875 0.930 . S
H858 C866 0.929 . S
H859 C873 0.930 . S
H860 C837 0.931 . S
H861 C867 0.930 . S
H862 C900 0.930 . S
H863 C844 0.930 . S
H864 C899 0.931 . S
N865 Eu834 2.657 . S
N865 C866 1.334 . S
N865 C870 1.362 . S
C866 H858 0.929 . S
C866 N865 1.334 . S
C866 C869 1.413 1_655 S
C867 H861 0.930 . S
C867 C868 1.392 . S
C867 C869 1.367 . S
C868 C867 1.392 . S
C868 C870 1.420 1_455 S
C868 C900 1.423 . S
C869 H855 0.930 . S
C869 C866 1.413 1_455 S
C869 C867 1.367 . S
C870 N865 1.362 . S
C870 C868 1.420 1_655 S
C870 C874 1.429 . S
H871 C876 0.930 . S
N872 Eu834 2.609 . S
N872 C874 1.377 . S
N872 C875 1.321 . S
C873 H859 0.930 . S
C873 C875 1.400 . S
C873 C876 1.386 . S
C874 C870 1.429 . S
C874 N872 1.377 . S
C874 C877 1.411 . S
C875 H857 0.930 . S
C875 N872 1.321 . S
C875 C873 1.400 . S
C876 H871 0.930 . S
C876 C873 1.386 . S
C876 C877 1.395 . S
C877 C874 1.411 . S
C877 C876 1.395 . S
C877 C899 1.420 1_655 S
O878 Eu834 2.558 . S
O878 C898 1.257 . S
O879 Eu834 2.612 . S
O879 Eu845 2.380 . S
O879 C890 1.276 . S
O880 Eu845 2.432 . S
O880 C897 1.264 . S
O881 Eu834 2.339 . S
O881 C897 1.254 . S
O882 Eu834 2.563 . S
O882 C890 1.235 . S
O883 Eu834 2.419 . S
O883 C898 1.249 . S
O884 Eu845 2.558 . S
O884 C909 1.257 . S
O885 Eu834 2.380 . S
O885 Eu845 2.612 . S
O885 C901 1.276 . S
O886 Eu834 2.432 . S
O886 C908 1.264 . S
O887 Eu845 2.339 . S
O887 C908 1.254 . S
O888 Eu845 2.563 . S
O888 C901 1.235 . S
O889 Eu845 2.419 . S
O889 C909 1.249 . S
C890 O879 1.276 . S
C890 O882 1.235 . S
C891 C893 1.393 . S
C891 C895 1.395 . S
C891 C898 1.492 . S
C892 C893 1.392 . S
C892 C894 1.386 . S
C893 C891 1.393 . S
C893 C892 1.392 . S
C893 H910 0.930 . S
C894 C892 1.386 . S
C894 C896 1.395 . S
C894 H911 0.930 . S
C895 C891 1.395 . S
C895 C896 1.379 . S
C895 H912 0.930 . S
C896 C894 1.395 . S
C896 C895 1.379 . S
C896 H913 0.930 . S
C897 O880 1.264 . S
C897 O881 1.254 . S
C898 Eu834 2.848 . S
C898 O878 1.257 . S
C898 O883 1.249 . S
C898 C891 1.492 . S
C899 H864 0.931 . S
C899 C877 1.420 1_455 S
C899 C900 1.351 . S
C900 H862 0.930 . S
C900 C868 1.423 . S
C900 C899 1.351 . S
C901 O885 1.276 . S
C901 O888 1.235 . S
C902 C903 1.393 . S
C902 C906 1.395 . S
C902 C909 1.492 . S
C903 C902 1.393 . S
C903 C904 1.392 . S
C903 H914 0.930 . S
C904 C903 1.392 . S
C904 C905 1.386 . S
C905 C904 1.386 . S
C905 C907 1.395 . S
C905 H915 0.930 . S
C906 C902 1.395 . S
C906 C907 1.379 . S
C906 H916 0.930 . S
C907 C905 1.395 . S
C907 C906 1.379 . S
C907 H917 0.930 . S
C908 O886 1.264 . S
C908 O887 1.254 . S
C909 Eu845 2.848 . S
C909 O884 1.257 . S
C909 O889 1.249 . S
C909 C902 1.492 . S
H910 C893 0.930 . S
H911 C894 0.930 . S
H912 C895 0.930 . S
H913 C896 0.930 . S
H914 C903 0.930 . S
H915 C905 0.930 . S
H916 C906 0.930 . S
H917 C907 0.930 . S
C918 C919 1.363 . S
C918 C924 1.379 . S
C918 N926 1.356 . S
C919 C918 1.363 . S
C919 C925 1.363 . S
C920 C921 1.363 . S
C920 C925 1.379 . S
C920 N927 1.356 . S
C921 C920 1.363 . S
C921 C924 1.363 . S
N922 C924 1.356 . S
N922 H934 0.984 . S
N922 H935 0.985 . S
N923 C925 1.356 . S
N923 H928 0.984 . S
N923 H929 0.985 . S
C924 C918 1.379 . S
C924 C921 1.363 . S
C924 N922 1.356 . S
C925 C919 1.363 . S
C925 C920 1.379 . S
C925 N923 1.356 . S
N926 C918 1.356 . S
N926 H932 0.984 . S
N926 H933 0.984 . S
N927 C920 1.356 . S
N927 H930 0.984 . S
N927 H931 0.985 . S
H928 N923 0.984 . S
H929 N923 0.985 . S
H930 N927 0.984 . S
H931 N927 0.985 . S
H932 N926 0.984 . S
H933 N926 0.984 . S
H934 N922 0.984 . S
H935 N922 0.985 . S
C936 C937 1.363 . S
C936 C942 1.379 . S
C936 N944 1.356 . S
C937 C936 1.363 . S
C937 C943 1.363 . S
C938 C939 1.363 . S
C938 C943 1.379 . S
C938 N945 1.356 . S
C939 C938 1.363 . S
C939 C942 1.363 . S
N940 C942 1.323 1_556 S
N940 H952 1.014 . S
N940 H953 0.990 . S
N941 C943 1.356 . S
N941 H946 0.984 . S
N941 H947 0.985 . S
C942 C936 1.379 . S
C942 C939 1.363 . S
C942 N940 1.323 1_554 S
C943 C937 1.363 . S
C943 C938 1.379 . S
C943 N941 1.356 . S
N944 C936 1.356 . S
N944 H950 0.984 . S
N944 H951 0.984 . S
N945 C938 1.356 . S
N945 H948 0.984 . S
N945 H949 0.985 . S
H946 N941 0.984 . S
H947 N941 0.985 . S
H948 N945 0.984 . S
H949 N945 0.985 . S
H950 N944 0.984 . S
H951 N944 0.984 . S
H952 N940 1.014 . S
H953 N940 0.990 . S
C954 C955 1.363 . S
C954 C960 1.379 . S
C954 N962 1.356 . S
C955 C954 1.363 . S
C955 C961 1.363 . S
C956 C957 1.363 . S
C956 C961 1.379 . S
C956 N963 1.356 . S
C957 C956 1.363 . S
C957 C960 1.363 . S
N958 C960 1.356 1_556 S
N958 H970 0.984 . S
N958 H971 0.985 . S
N959 C961 1.356 . S
N959 H964 0.984 . S
N959 H965 0.985 . S
C960 C954 1.379 . S
C960 C957 1.363 . S
C960 N958 1.356 1_554 S
C961 C955 1.363 . S
C961 C956 1.379 . S
C961 N959 1.356 . S
N962 C954 1.356 . S
N962 H968 0.984 . S
N962 H969 0.984 . S
N963 C956 1.356 . S
N963 H966 0.984 . S
N963 H967 0.985 . S
H964 N959 0.984 . S
H965 N959 0.985 . S
H966 N963 0.984 . S
H967 N963 0.985 . S
H968 N962 0.984 . S
H969 N962 0.984 . S
H970 N958 0.984 . S
H971 N958 0.985 . S
C972 C973 1.363 . S
C972 C978 1.379 . S
C972 N980 1.356 . S
C973 C972 1.363 . S
C973 C979 1.363 . S
C974 C975 1.363 . S
C974 C979 1.379 . S
C974 N981 1.356 1_556 S
C975 C974 1.363 . S
C975 C978 1.363 . S
N976 C978 1.356 . S
N976 H988 0.984 . S
N976 H989 0.985 . S
N977 C979 1.356 . S
N977 H982 0.984 . S
N977 H983 0.985 1_556 S
C978 C972 1.379 . S
C978 C975 1.363 . S
C978 N976 1.356 . S
C979 C973 1.363 . S
C979 C974 1.379 . S
C979 N977 1.356 . S
N980 C972 1.356 . S
N980 H986 0.984 . S
N980 H987 0.984 . S
N981 C974 1.356 1_554 S
N981 H984 0.984 . S
N981 H985 0.985 . S
H982 N977 0.984 . S
H983 N977 0.985 1_554 S
H984 N981 0.984 . S
H985 N981 0.985 . S
H986 N980 0.984 . S
H987 N980 0.984 . S
H988 N976 0.984 . S
H989 N976 0.985 . S
C990 C991 1.363 . S
C990 C996 1.379 . S
C990 N998 1.356 . S
C991 C990 1.363 . S
C991 C997 1.363 . S
C992 C993 1.363 . S
C992 C997 1.379 . S
C992 N999 1.356 . S
C993 C992 1.363 . S
C993 C996 1.363 . S
N994 C996 1.356 1_554 S
N994 H1006 0.984 . S
N994 H1007 0.985 . S
N995 C997 1.356 . S
N995 H1000 0.984 . S
N995 H1001 0.985 . S
C996 C990 1.379 . S
C996 C993 1.363 . S
C996 N994 1.356 1_556 S
C997 C991 1.363 . S
C997 C992 1.379 . S
C997 N995 1.356 . S
N998 C990 1.356 . S
N998 H1004 0.984 . S
N998 H1005 0.984 . S
N999 C992 1.356 . S
N999 H1002 0.984 . S
N999 H1003 0.985 . S
H1000 N995 0.984 . S
H1001 N995 0.985 . S
H1002 N999 0.984 . S
H1003 N999 0.985 . S
H1004 N998 0.984 . S
H1005 N998 0.984 . S
H1006 N994 0.984 . S
H1007 N994 0.985 . S
C1008 C1009 1.363 . S
C1008 C1014 1.379 . S
C1008 N1016 1.356 . S
C1009 C1008 1.363 . S
C1009 C1015 1.363 . S
C1010 C1011 1.363 . S
C1010 C1015 1.379 . S
C1010 N1017 1.339 1_556 S
C1011 C1010 1.363 . S
C1011 C1014 1.363 . S
N1012 C1014 1.356 . S
N1012 H1024 0.984 . S
N1012 H1025 0.985 . S
N1013 C1015 1.356 . S
N1013 H1018 0.984 . S
N1013 H1019 0.985 . S
C1014 C1008 1.379 . S
C1014 C1011 1.363 . S
C1014 N1012 1.356 . S
C1015 C1009 1.363 . S
C1015 C1010 1.379 . S
C1015 N1013 1.356 . S
N1016 C1008 1.356 . S
N1016 H1022 0.984 . S
N1016 H1023 0.984 . S
N1017 C1010 1.339 1_554 S
N1017 H1020 0.990 . S
N1017 H1021 0.997 . S
H1018 N1013 0.984 . S
H1019 N1013 0.985 . S
H1020 N1017 0.990 . S
H1021 N1017 0.997 . S
H1022 N1016 0.984 . S
H1023 N1016 0.984 . S
H1024 N1012 0.984 . S
H1025 N1012 0.985 . S
C1026 C1027 1.363 . S
C1026 C1032 1.379 . S
C1026 N1034 1.356 . S
C1027 C1026 1.363 . S
C1027 C1033 1.363 . S
C1028 C1029 1.363 . S
C1028 C1033 1.379 . S
C1028 N1035 1.356 . S
C1029 C1028 1.363 . S
C1029 C1032 1.363 . S
N1030 C1032 1.356 1_554 S
N1030 H1042 0.984 . S
N1030 H1043 0.985 . S
N1031 C1033 1.356 . S
N1031 H1036 0.984 . S
N1031 H1037 0.985 . S
C1032 C1026 1.379 . S
C1032 C1029 1.363 . S
C1032 N1030 1.356 1_556 S
C1033 C1027 1.363 . S
C1033 C1028 1.379 . S
C1033 N1031 1.356 . S
N1034 C1026 1.356 . S
N1034 H1040 0.984 1_556 S
N1034 H1041 0.984 . S
N1035 C1028 1.356 . S
N1035 H1038 0.984 . S
N1035 H1039 0.985 . S
H1036 N1031 0.984 . S
H1037 N1031 0.985 . S
H1038 N1035 0.984 . S
H1039 N1035 0.985 . S
H1040 N1034 0.984 1_554 S
H1041 N1034 0.984 . S
H1042 N1030 0.984 . S
H1043 N1030 0.985 . S
C1044 C1045 1.363 . S
C1044 C1050 1.379 . S
C1044 N1052 1.356 . S
C1045 C1044 1.363 . S
C1045 C1051 1.363 . S
C1046 C1047 1.363 . S
C1046 C1051 1.379 . S
C1046 N1053 1.356 . S
C1047 C1046 1.363 . S
C1047 C1050 1.363 . S
N1048 C1050 1.356 . S
N1048 H1060 0.984 . S
N1048 H1061 0.985 . S
N1049 C1051 1.356 . S
N1049 H1054 0.984 . S
N1049 H1055 0.985 . S
C1050 C1044 1.379 . S
C1050 C1047 1.363 . S
C1050 N1048 1.356 . S
C1051 C1045 1.363 . S
C1051 C1046 1.379 . S
C1051 N1049 1.356 . S
N1052 C1044 1.356 . S
N1052 H1058 0.984 . S
N1052 H1059 0.984 . S
N1053 C1046 1.356 . S
N1053 H1056 0.984 . S
N1053 H1057 0.985 . S
H1054 N1049 0.984 . S
H1055 N1049 0.985 . S
H1056 N1053 0.984 . S
H1057 N1053 0.985 . S
H1058 N1052 0.984 . S
H1059 N1052 0.984 . S
H1060 N1048 0.984 . S
H1061 N1048 0.985 . S
C1062 C1063 1.363 . S
C1062 C1068 1.379 . S
C1062 N1070 1.356 . S
C1063 C1062 1.363 . S
C1063 C1069 1.363 . S
C1064 C1065 1.363 . S
C1064 C1069 1.379 . S
C1064 N1071 1.356 1_556 S
C1065 C1064 1.363 . S
C1065 C1068 1.363 . S
N1066 C1068 1.356 . S
N1066 H1078 0.984 . S
N1066 H1079 0.985 . S
N1067 C1069 1.356 . S
N1067 H1072 0.984 . S
N1067 H1073 0.985 1_556 S
C1068 C1062 1.379 . S
C1068 C1065 1.363 . S
C1068 N1066 1.356 . S
C1069 C1063 1.363 . S
C1069 C1064 1.379 . S
C1069 N1067 1.356 . S
N1070 C1062 1.356 . S
N1070 H1076 0.984 . S
N1070 H1077 0.984 . S
N1071 C1064 1.356 1_554 S
N1071 H1074 0.984 . S
N1071 H1075 0.985 . S
H1072 N1067 0.984 . S
H1073 N1067 0.985 1_554 S
H1074 N1071 0.984 . S
H1075 N1071 0.985 . S
H1076 N1070 0.984 . S
H1077 N1070 0.984 . S
H1078 N1066 0.984 . S
H1079 N1066 0.985 . S
C1080 C1081 1.363 . S
C1080 C1086 1.379 . S
C1080 N1088 1.356 . S
C1081 C1080 1.363 . S
C1081 C1087 1.363 . S
C1082 C1083 1.363 . S
C1082 C1087 1.379 . S
C1082 N1089 1.356 . S
C1083 C1082 1.363 . S
C1083 C1086 1.363 . S
N1084 C1086 1.356 . S
N1084 H1096 0.984 . S
N1084 H1097 0.985 . S
N1085 C1087 1.356 . S
N1085 H1090 0.984 . S
N1085 H1091 0.985 . S
C1086 C1080 1.379 . S
C1086 C1083 1.363 . S
C1086 N1084 1.356 . S
C1087 C1081 1.363 . S
C1087 C1082 1.379 . S
C1087 N1085 1.356 . S
N1088 C1080 1.356 . S
N1088 H1094 0.984 . S
N1088 H1095 0.984 . S
N1089 C1082 1.356 . S
N1089 H1092 0.984 . S
N1089 H1093 0.985 . S
H1090 N1085 0.984 . S
H1091 N1085 0.985 . S
H1092 N1089 0.984 . S
H1093 N1089 0.985 . S
H1094 N1088 0.984 . S
H1095 N1088 0.984 . S
H1096 N1084 0.984 . S
H1097 N1084 0.985 . S
C1098 C1099 1.363 . S
C1098 C1104 1.379 . S
C1098 N1106 1.356 . S
C1099 C1098 1.363 . S
C1099 C1105 1.363 . S
C1100 C1101 1.363 . S
C1100 C1105 1.379 . S
C1100 N1107 1.356 . S
C1101 C1100 1.363 . S
C1101 C1104 1.363 . S
N1102 C1104 1.356 . S
N1102 H1114 0.984 . S
N1102 H1115 0.985 . S
N1103 C1105 1.356 . S
N1103 H1108 0.984 . S
N1103 H1109 0.985 . S
C1104 C1098 1.379 . S
C1104 C1101 1.363 . S
C1104 N1102 1.356 . S
C1105 C1099 1.363 . S
C1105 C1100 1.379 . S
C1105 N1103 1.356 . S
N1106 C1098 1.356 . S
N1106 H1112 0.984 . S
N1106 H1113 0.984 . S
N1107 C1100 1.356 . S
N1107 H1110 0.984 . S
N1107 H1111 0.985 . S
H1108 N1103 0.984 . S
H1109 N1103 0.985 . S
H1110 N1107 0.984 . S
H1111 N1107 0.985 . S
H1112 N1106 0.984 . S
H1113 N1106 0.984 . S
H1114 N1102 0.984 . S
H1115 N1102 0.985 . S
C1116 C1117 1.363 . S
C1116 C1122 1.379 . S
C1116 N1124 1.356 . S
C1117 C1116 1.363 . S
C1117 C1123 1.363 . S
C1118 C1119 1.363 . S
C1118 C1123 1.379 . S
C1118 N1125 1.356 . S
C1119 C1118 1.363 . S
C1119 C1122 1.363 . S
N1120 C1122 1.356 . S
N1120 H1132 0.984 . S
N1120 H1133 0.985 . S
N1121 C1123 1.356 . S
N1121 H1126 0.984 . S
N1121 H1127 0.985 . S
C1122 C1116 1.379 . S
C1122 C1119 1.363 . S
C1122 N1120 1.356 . S
C1123 C1117 1.363 . S
C1123 C1118 1.379 . S
C1123 N1121 1.356 . S
N1124 C1116 1.356 . S
N1124 H1130 0.984 . S
N1124 H1131 0.984 . S
N1125 C1118 1.356 . S
N1125 H1128 0.984 . S
N1125 H1129 0.985 . S
H1126 N1121 0.984 . S
H1127 N1121 0.985 . S
H1128 N1125 0.984 . S
H1129 N1125 0.985 . S
H1130 N1124 0.984 . S
H1131 N1124 0.984 . S
H1132 N1120 0.984 . S
H1133 N1120 0.985 . S
C1134 C1135 1.363 . S
C1134 C1140 1.379 1_655 S
C1134 N1142 1.356 . S
C1135 C1134 1.363 . S
C1135 C1141 1.363 . S
C1136 C1137 1.363 . S
C1136 C1141 1.379 1_455 S
C1136 N1143 1.356 . S
C1137 C1136 1.363 . S
C1137 C1140 1.363 . S
N1138 C1140 1.356 . S
N1138 H1150 0.984 . S
N1138 H1151 0.985 . S
N1139 C1141 1.356 . S
N1139 H1144 0.984 . S
N1139 H1145 0.985 . S
C1140 C1134 1.379 1_455 S
C1140 C1137 1.363 . S
C1140 N1138 1.356 . S
C1141 C1135 1.363 . S
C1141 C1136 1.379 1_655 S
C1141 N1139 1.356 . S
N1142 C1134 1.356 . S
N1142 H1148 0.984 . S
N1142 H1149 0.984 . S
N1143 C1136 1.356 . S
N1143 H1146 0.984 . S
N1143 H1147 0.985 . S
H1144 N1139 0.984 . S
H1145 N1139 0.985 . S
H1146 N1143 0.984 . S
H1147 N1143 0.985 . S
H1148 N1142 0.984 . S
H1149 N1142 0.984 . S
H1150 N1138 0.984 . S
H1151 N1138 0.985 . S
C1152 C1153 1.363 . S
C1152 C1158 1.379 . S
C1152 N1160 1.356 . S
C1153 C1152 1.363 . S
C1153 C1159 1.363 . S
C1154 C1155 1.363 . S
C1154 C1159 1.379 . S
C1154 N1161 1.356 . S
C1155 C1154 1.363 . S
C1155 C1158 1.363 . S
N1156 C1158 1.356 . S
N1156 H1168 0.984 . S
N1156 H1169 0.985 . S
N1157 C1159 1.356 . S
N1157 H1162 0.984 . S
N1157 H1163 0.985 . S
C1158 C1152 1.379 . S
C1158 C1155 1.363 . S
C1158 N1156 1.356 . S
C1159 C1153 1.363 . S
C1159 C1154 1.379 . S
C1159 N1157 1.356 . S
N1160 C1152 1.356 . S
N1160 H1166 0.984 . S
N1160 H1167 0.984 . S
N1161 C1154 1.356 . S
N1161 H1164 0.984 . S
N1161 H1165 0.985 . S
H1162 N1157 0.984 . S
H1163 N1157 0.985 . S
H1164 N1161 0.984 . S
H1165 N1161 0.985 . S
H1166 N1160 0.984 . S
H1167 N1160 0.984 . S
H1168 N1156 0.984 . S
H1169 N1156 0.985 . S
C1170 C1171 1.363 . S
C1170 C1176 1.379 1_545 S
C1170 N1178 1.356 . S
C1171 C1170 1.363 . S
C1171 C1177 1.363 . S
C1172 C1173 1.363 . S
C1172 C1177 1.379 1_565 S
C1172 N1179 1.356 . S
C1173 C1172 1.363 . S
C1173 C1176 1.363 . S
N1174 C1176 1.356 . S
N1174 H1186 0.984 . S
N1174 H1187 0.985 . S
N1175 C1177 1.356 . S
N1175 H1180 0.984 . S
N1175 H1181 0.985 . S
C1176 C1170 1.379 1_565 S
C1176 C1173 1.363 . S
C1176 N1174 1.356 . S
C1177 C1171 1.363 . S
C1177 C1172 1.379 1_545 S
C1177 N1175 1.356 . S
N1178 C1170 1.356 . S
N1178 H1184 0.984 . S
N1178 H1185 0.984 . S
N1179 C1172 1.356 . S
N1179 H1182 0.984 . S
N1179 H1183 0.985 . S
H1180 N1175 0.984 . S
H1181 N1175 0.985 . S
H1182 N1179 0.984 . S
H1183 N1179 0.985 . S
H1184 N1178 0.984 . S
H1185 N1178 0.984 . S
H1186 N1174 0.984 . S
H1187 N1174 0.985 . S
C1188 C1189 1.363 . S
C1188 C1194 1.379 . S
C1188 N1196 1.356 . S
C1189 C1188 1.363 . S
C1189 C1195 1.363 . S
C1190 C1191 1.363 . S
C1190 C1195 1.379 . S
C1190 N1197 1.356 . S
C1191 C1190 1.363 . S
C1191 C1194 1.363 . S
N1192 C1194 1.356 . S
N1192 H1204 0.984 . S
N1192 H1205 0.985 . S
N1193 C1195 1.356 . S
N1193 H1198 0.984 . S
N1193 H1199 0.985 . S
C1194 C1188 1.379 . S
C1194 C1191 1.363 . S
C1194 N1192 1.356 . S
C1195 C1189 1.363 . S
C1195 C1190 1.379 . S
C1195 N1193 1.356 . S
N1196 C1188 1.356 . S
N1196 H1202 0.984 . S
N1196 H1203 0.984 . S
N1197 C1190 1.356 . S
N1197 H1200 0.984 . S
N1197 H1201 0.985 . S
H1198 N1193 0.984 . S
H1199 N1193 0.985 . S
H1200 N1197 0.984 . S
H1201 N1197 0.985 . S
H1202 N1196 0.984 . S
H1203 N1196 0.984 . S
H1204 N1192 0.984 . S
H1205 N1192 0.985 . S
C1206 C1207 1.363 . S
C1206 C1212 1.379 . S
C1206 N1214 1.356 . S
C1207 C1206 1.363 . S
C1207 C1213 1.363 . S
C1208 C1209 1.363 . S
C1208 C1213 1.379 . S
C1208 N1215 1.356 . S
C1209 C1208 1.363 . S
C1209 C1212 1.363 . S
N1210 C1212 1.356 . S
N1210 H1222 0.984 . S
N1210 H1223 0.985 . S
N1211 C1213 1.356 . S
N1211 H1216 0.984 . S
N1211 H1217 0.985 . S
C1212 C1206 1.379 . S
C1212 C1209 1.363 . S
C1212 N1210 1.356 . S
C1213 C1207 1.363 . S
C1213 C1208 1.379 . S
C1213 N1211 1.356 . S
N1214 C1206 1.356 . S
N1214 H1220 0.984 . S
N1214 H1221 0.984 . S
N1215 C1208 1.356 . S
N1215 H1218 0.984 . S
N1215 H1219 0.985 . S
H1216 N1211 0.984 . S
H1217 N1211 0.985 . S
H1218 N1215 0.984 . S
H1219 N1215 0.985 . S
H1220 N1214 0.984 . S
H1221 N1214 0.984 . S
H1222 N1210 0.984 . S
H1223 N1210 0.985 . S
C1224 C1225 1.363 . S
C1224 C1230 1.379 . S
C1224 N1232 1.356 . S
C1225 C1224 1.363 . S
C1225 C1231 1.363 . S
C1226 C1227 1.363 . S
C1226 C1231 1.379 . S
C1226 N1233 1.356 . S
C1227 C1226 1.363 . S
C1227 C1230 1.363 . S
N1228 C1230 1.356 . S
N1228 H1240 0.984 . S
N1228 H1241 0.985 . S
N1229 C1231 1.356 . S
N1229 H1234 0.984 . S
N1229 H1235 0.985 . S
C1230 C1224 1.379 . S
C1230 C1227 1.363 . S
C1230 N1228 1.356 . S
C1231 C1225 1.363 . S
C1231 C1226 1.379 . S
C1231 N1229 1.356 . S
N1232 C1224 1.356 . S
N1232 H1238 0.984 . S
N1232 H1239 0.984 . S
N1233 C1226 1.356 . S
N1233 H1236 0.984 . S
N1233 H1237 0.985 . S
H1234 N1229 0.984 . S
H1235 N1229 0.985 . S
H1236 N1233 0.984 . S
H1237 N1233 0.985 . S
H1238 N1232 0.984 . S
H1239 N1232 0.984 . S
H1240 N1228 0.984 . S
H1241 N1228 0.985 . S
C1242 C1243 1.363 . S
C1242 C1248 1.379 . S
C1242 N1250 1.356 . S
C1243 C1242 1.363 . S
C1243 C1249 1.363 . S
C1244 C1245 1.363 . S
C1244 C1249 1.379 . S
C1244 N1251 1.356 . S
C1245 C1244 1.363 . S
C1245 C1248 1.363 . S
N1246 C1248 1.356 . S
N1246 H1258 0.984 . S
N1246 H1259 0.985 . S
N1247 C1249 1.356 . S
N1247 H1252 0.984 . S
N1247 H1253 0.985 . S
C1248 C1242 1.379 . S
C1248 C1245 1.363 . S
C1248 N1246 1.356 . S
C1249 C1243 1.363 . S
C1249 C1244 1.379 . S
C1249 N1247 1.356 . S
N1250 C1242 1.356 . S
N1250 H1256 0.984 . S
N1250 H1257 0.984 . S
N1251 C1244 1.356 . S
N1251 H1254 0.984 . S
N1251 H1255 0.985 . S
H1252 N1247 0.984 . S
H1253 N1247 0.985 . S
H1254 N1251 0.984 . S
H1255 N1251 0.985 . S
H1256 N1250 0.984 . S
H1257 N1250 0.984 . S
H1258 N1246 0.984 . S
H1259 N1246 0.985 . S
C1260 C1261 1.363 . S
C1260 C1266 1.379 . S
C1260 N1268 1.356 . S
C1261 C1260 1.363 . S
C1261 C1267 1.363 . S
C1262 C1263 1.363 . S
C1262 C1267 1.379 . S
C1262 N1269 1.356 . S
C1263 C1262 1.363 . S
C1263 C1266 1.363 . S
N1264 C1266 1.356 . S
N1264 H1276 0.984 . S
N1264 H1277 0.985 . S
N1265 C1267 1.356 . S
N1265 H1270 0.984 . S
N1265 H1271 0.985 . S
C1266 C1260 1.379 . S
C1266 C1263 1.363 . S
C1266 N1264 1.356 . S
C1267 C1261 1.363 . S
C1267 C1262 1.379 . S
C1267 N1265 1.356 . S
N1268 C1260 1.356 . S
N1268 H1274 0.984 . S
N1268 H1275 0.984 . S
N1269 C1262 1.356 . S
N1269 H1272 0.984 . S
N1269 H1273 0.985 . S
H1270 N1265 0.984 . S
H1271 N1265 0.985 . S
H1272 N1269 0.984 . S
H1273 N1269 0.985 . S
H1274 N1268 0.984 . S
H1275 N1268 0.984 . S
H1276 N1264 0.984 . S
H1277 N1264 0.985 . S
C1278 C1279 1.363 . S
C1278 C1284 1.379 . S
C1278 N1286 1.356 . S
C1279 C1278 1.363 . S
C1279 C1285 1.363 . S
C1280 C1281 1.363 . S
C1280 C1285 1.379 . S
C1280 N1287 1.356 . S
C1281 C1280 1.363 . S
C1281 C1284 1.363 . S
N1282 C1284 1.356 . S
N1282 H1294 0.984 . S
N1282 H1295 0.985 . S
N1283 C1285 1.356 . S
N1283 H1288 0.984 . S
N1283 H1289 0.985 . S
C1284 C1278 1.379 . S
C1284 C1281 1.363 . S
C1284 N1282 1.356 . S
C1285 C1279 1.363 . S
C1285 C1280 1.379 . S
C1285 N1283 1.356 . S
N1286 C1278 1.356 . S
N1286 H1292 0.984 . S
N1286 H1293 0.984 . S
N1287 C1280 1.356 . S
N1287 H1290 0.984 . S
N1287 H1291 0.985 . S
H1288 N1283 0.984 . S
H1289 N1283 0.985 . S
H1290 N1287 0.984 . S
H1291 N1287 0.985 . S
H1292 N1286 0.984 . S
H1293 N1286 0.984 . S
H1294 N1282 0.984 . S
H1295 N1282 0.985 . S
C1296 C1297 1.363 . S
C1296 C1302 1.379 1_545 S
C1296 N1304 1.356 . S
C1297 C1296 1.363 . S
C1297 C1303 1.363 . S
C1298 C1299 1.363 . S
C1298 C1303 1.379 1_565 S
C1298 N1305 1.356 . S
C1299 C1298 1.363 . S
C1299 C1302 1.363 . S
N1300 C1302 1.356 . S
N1300 H1312 0.984 . S
N1300 H1313 0.985 . S
N1301 C1303 1.356 . S
N1301 H1306 0.984 . S
N1301 H1307 0.985 . S
C1302 C1296 1.379 1_565 S
C1302 C1299 1.363 . S
C1302 N1300 1.356 . S
C1303 C1297 1.363 . S
C1303 C1298 1.379 1_545 S
C1303 N1301 1.356 . S
N1304 C1296 1.356 . S
N1304 H1310 0.984 . S
N1304 H1311 0.984 . S
N1305 C1298 1.356 . S
N1305 H1308 0.984 . S
N1305 H1309 0.985 . S
H1306 N1301 0.984 . S
H1307 N1301 0.985 . S
H1308 N1305 0.984 . S
H1309 N1305 0.985 . S
H1310 N1304 0.984 . S
H1311 N1304 0.984 . S
H1312 N1300 0.984 . S
H1313 N1300 0.985 . S
C1314 C1315 1.363 . S
C1314 C1320 1.379 1_655 S
C1314 N1322 1.356 . S
C1315 C1314 1.363 . S
C1315 C1321 1.363 . S
C1316 C1317 1.363 . S
C1316 C1321 1.379 1_455 S
C1316 N1323 1.356 . S
C1317 C1316 1.363 . S
C1317 C1320 1.363 . S
N1318 C1320 1.356 . S
N1318 H1330 0.984 . S
N1318 H1331 0.985 . S
N1319 C1321 1.356 . S
N1319 H1324 0.984 . S
N1319 H1325 0.985 . S
C1320 C1314 1.379 1_455 S
C1320 C1317 1.363 . S
C1320 N1318 1.356 . S
C1321 C1315 1.363 . S
C1321 C1316 1.379 1_655 S
C1321 N1319 1.356 . S
N1322 C1314 1.356 . S
N1322 H1328 0.984 . S
N1322 H1329 0.984 . S
N1323 C1316 1.356 . S
N1323 H1326 0.984 . S
N1323 H1327 0.985 . S
H1324 N1319 0.984 . S
H1325 N1319 0.985 . S
H1326 N1323 0.984 . S
H1327 N1323 0.985 . S
H1328 N1322 0.984 . S
H1329 N1322 0.984 . S
H1330 N1318 0.984 . S
H1331 N1318 0.985 . S
C1332 C1333 1.363 . S
C1332 C1338 1.379 . S
C1332 N1340 1.356 . S
C1333 C1332 1.363 . S
C1333 C1339 1.363 . S
C1334 C1335 1.363 . S
C1334 C1339 1.379 . S
C1334 N1341 1.356 . S
C1335 C1334 1.363 . S
C1335 C1338 1.363 . S
N1336 C1338 1.356 . S
N1336 H1348 0.984 . S
N1336 H1349 0.985 . S
N1337 C1339 1.356 . S
N1337 H1342 0.984 . S
N1337 H1343 0.985 . S
C1338 C1332 1.379 . S
C1338 C1335 1.363 . S
C1338 N1336 1.356 . S
C1339 C1333 1.363 . S
C1339 C1334 1.379 . S
C1339 N1337 1.356 . S
N1340 C1332 1.356 . S
N1340 H1346 0.984 . S
N1340 H1347 0.984 . S
N1341 C1334 1.356 . S
N1341 H1344 0.984 . S
N1341 H1345 0.985 . S
H1342 N1337 0.984 . S
H1343 N1337 0.985 . S
H1344 N1341 0.984 . S
H1345 N1341 0.985 . S
H1346 N1340 0.984 . S
H1347 N1340 0.984 . S
H1348 N1336 0.984 . S
H1349 N1336 0.985 . S
C1350 C1351 1.363 . S
C1350 C1356 1.379 . S
C1350 N1358 1.356 . S
C1351 C1350 1.363 . S
C1351 C1357 1.363 . S
C1352 C1353 1.363 . S
C1352 C1357 1.379 . S
C1352 N1359 1.356 . S
C1353 C1352 1.363 . S
C1353 C1356 1.363 . S
N1354 C1356 1.356 . S
N1354 H1366 0.984 . S
N1354 H1367 0.985 . S
N1355 C1357 1.356 . S
N1355 H1360 0.984 . S
N1355 H1361 0.985 . S
C1356 C1350 1.379 . S
C1356 C1353 1.363 . S
C1356 N1354 1.356 . S
C1357 C1351 1.363 . S
C1357 C1352 1.379 . S
C1357 N1355 1.356 . S
N1358 C1350 1.356 . S
N1358 H1364 0.984 . S
N1358 H1365 0.984 . S
N1359 C1352 1.356 . S
N1359 H1362 0.984 . S
N1359 H1363 0.985 . S
H1360 N1355 0.984 . S
H1361 N1355 0.985 . S
H1362 N1359 0.984 . S
H1363 N1359 0.985 . S
H1364 N1358 0.984 . S
H1365 N1358 0.984 . S
H1366 N1354 0.984 . S
H1367 N1354 0.985 . S
C1368 C1369 1.363 . S
C1368 C1374 1.379 . S
C1368 N1376 1.356 . S
C1369 C1368 1.363 . S
C1369 C1375 1.363 . S
C1370 C1371 1.363 . S
C1370 C1375 1.379 . S
C1370 N1377 1.356 . S
C1371 C1370 1.363 . S
C1371 C1374 1.363 . S
N1372 C1374 1.356 . S
N1372 H1384 0.984 . S
N1372 H1385 0.985 . S
N1373 C1375 1.356 . S
N1373 H1378 0.984 . S
N1373 H1379 0.985 . S
C1374 C1368 1.379 . S
C1374 C1371 1.363 . S
C1374 N1372 1.356 . S
C1375 C1369 1.363 . S
C1375 C1370 1.379 . S
C1375 N1373 1.356 . S
N1376 C1368 1.356 . S
N1376 H1382 0.984 . S
N1376 H1383 0.984 . S
N1377 C1370 1.356 . S
N1377 H1380 0.984 . S
N1377 H1381 0.985 . S
H1378 N1373 0.984 . S
H1379 N1373 0.985 . S
H1380 N1377 0.984 . S
H1381 N1377 0.985 . S
H1382 N1376 0.984 . S
H1383 N1376 0.984 . S
H1384 N1372 0.984 . S
H1385 N1372 0.985 . S
C1386 C1387 1.363 . S
C1386 C1392 1.379 . S
C1386 N1394 1.356 . S
C1387 C1386 1.363 . S
C1387 C1393 1.363 . S
C1388 C1389 1.363 . S
C1388 C1393 1.379 . S
C1388 N1395 1.356 . S
C1389 C1388 1.363 . S
C1389 C1392 1.363 . S
N1390 C1392 1.356 . S
N1390 H1402 0.984 . S
N1390 H1403 0.985 . S
N1391 C1393 1.356 . S
N1391 H1396 0.984 . S
N1391 H1397 0.985 . S
C1392 C1386 1.379 . S
C1392 C1389 1.363 . S
C1392 N1390 1.356 . S
C1393 C1387 1.363 . S
C1393 C1388 1.379 . S
C1393 N1391 1.356 . S
N1394 C1386 1.356 . S
N1394 H1400 0.984 . S
N1394 H1401 0.984 . S
N1395 C1388 1.356 . S
N1395 H1398 0.984 . S
N1395 H1399 0.985 . S
H1396 N1391 0.984 . S
H1397 N1391 0.985 . S
H1398 N1395 0.984 . S
H1399 N1395 0.985 . S
H1400 N1394 0.984 . S
H1401 N1394 0.984 . S
H1402 N1390 0.984 . S
H1403 N1390 0.985 . S
C1404 C1405 1.363 . S
C1404 C1410 1.379 1_565 S
C1404 N1412 1.356 . S
C1405 C1404 1.363 . S
C1405 C1411 1.363 . S
C1406 C1407 1.363 . S
C1406 C1411 1.379 1_545 S
C1406 N1413 1.356 . S
C1407 C1406 1.363 . S
C1407 C1410 1.363 . S
N1408 C1410 1.356 . S
N1408 H1420 0.984 . S
N1408 H1421 0.985 . S
N1409 C1411 1.356 . S
N1409 H1414 0.984 . S
N1409 H1415 0.985 . S
C1410 C1404 1.379 1_545 S
C1410 C1407 1.363 . S
C1410 N1408 1.356 . S
C1411 C1405 1.363 . S
C1411 C1406 1.379 1_565 S
C1411 N1409 1.356 . S
N1412 C1404 1.356 . S
N1412 H1418 0.984 . S
N1412 H1419 0.984 . S
N1413 C1406 1.356 . S
N1413 H1416 0.984 . S
N1413 H1417 0.985 . S
H1414 N1409 0.984 . S
H1415 N1409 0.985 . S
H1416 N1413 0.984 . S
H1417 N1413 0.985 . S
H1418 N1412 0.984 . S
H1419 N1412 0.984 . S
H1420 N1408 0.984 . S
H1421 N1408 0.985 . S
C1422 C1423 1.363 . S
C1422 C1428 1.379 1_455 S
C1422 N1430 1.356 . S
C1423 C1422 1.363 . S
C1423 C1429 1.363 1_455 S
C1424 C1425 1.363 . S
C1424 C1429 1.379 . S
C1424 N1431 1.356 . S
C1425 C1424 1.363 . S
C1425 C1428 1.363 . S
N1426 C1428 1.356 . S
N1426 H1438 0.984 . S
N1426 H1439 0.985 . S
N1427 C1429 1.356 1_455 S
N1427 H1432 0.984 . S
N1427 H1433 0.985 1_455 S
C1428 C1422 1.379 1_655 S
C1428 C1425 1.363 . S
C1428 N1426 1.356 . S
C1429 C1423 1.363 1_655 S
C1429 C1424 1.379 . S
C1429 N1427 1.356 1_655 S
N1430 C1422 1.356 . S
N1430 H1436 0.984 . S
N1430 H1437 0.984 . S
N1431 C1424 1.356 . S
N1431 H1434 0.984 . S
N1431 H1435 0.985 . S
H1432 N1427 0.984 . S
H1433 N1427 0.985 1_655 S
H1434 N1431 0.984 . S
H1435 N1431 0.985 . S
H1436 N1430 0.984 . S
H1437 N1430 0.984 . S
H1438 N1426 0.984 . S
H1439 N1426 0.985 . S
C1440 C1441 1.363 . S
C1440 C1446 1.379 . S
C1440 N1448 1.356 . S
C1441 C1440 1.363 . S
C1441 C1447 1.363 . S
C1442 C1443 1.363 . S
C1442 C1447 1.379 . S
C1442 N1449 1.356 . S
C1443 C1442 1.363 . S
C1443 C1446 1.363 . S
N1444 C1446 1.356 . S
N1444 H1456 0.984 . S
N1444 H1457 0.985 . S
N1445 C1447 1.356 . S
N1445 H1450 0.984 . S
N1445 H1451 0.985 . S
C1446 C1440 1.379 . S
C1446 C1443 1.363 . S
C1446 N1444 1.356 . S
C1447 C1441 1.363 . S
C1447 C1442 1.379 . S
C1447 N1445 1.356 . S
N1448 C1440 1.356 . S
N1448 H1454 0.984 . S
N1448 H1455 0.984 . S
N1449 C1442 1.356 . S
N1449 H1452 0.984 . S
N1449 H1453 0.985 . S
H1450 N1445 0.984 . S
H1451 N1445 0.985 . S
H1452 N1449 0.984 . S
H1453 N1449 0.985 . S
H1454 N1448 0.984 . S
H1455 N1448 0.984 . S
H1456 N1444 0.984 . S
H1457 N1444 0.985 . S
C1458 C1459 1.363 . S
C1458 C1464 1.379 1_455 S
C1458 N1466 1.356 . S
C1459 C1458 1.363 . S
C1459 C1465 1.363 1_455 S
C1460 C1461 1.363 . S
C1460 C1465 1.379 . S
C1460 N1467 1.356 . S
C1461 C1460 1.363 . S
C1461 C1464 1.363 . S
N1462 C1464 1.356 . S
N1462 H1474 0.984 . S
N1462 H1475 0.985 . S
N1463 C1465 1.356 1_455 S
N1463 H1468 0.984 . S
N1463 H1469 0.985 1_455 S
C1464 C1458 1.379 1_655 S
C1464 C1461 1.363 . S
C1464 N1462 1.356 . S
C1465 C1459 1.363 1_655 S
C1465 C1460 1.379 . S
C1465 N1463 1.356 1_655 S
N1466 C1458 1.356 . S
N1466 H1472 0.984 . S
N1466 H1473 0.984 . S
N1467 C1460 1.356 . S
N1467 H1470 0.984 . S
N1467 H1471 0.985 . S
H1468 N1463 0.984 . S
H1469 N1463 0.985 1_655 S
H1470 N1467 0.984 . S
H1471 N1467 0.985 . S
H1472 N1466 0.984 . S
H1473 N1466 0.984 . S
H1474 N1462 0.984 . S
H1475 N1462 0.985 . S
C1476 C1477 1.363 . S
C1476 C1482 1.379 . S
C1476 N1484 1.356 . S
C1477 C1476 1.363 . S
C1477 C1483 1.363 . S
C1478 C1479 1.363 . S
C1478 C1483 1.379 . S
C1478 N1485 1.356 . S
C1479 C1478 1.363 . S
C1479 C1482 1.363 . S
N1480 C1482 1.356 . S
N1480 H1492 0.984 . S
N1480 H1493 0.985 . S
N1481 C1483 1.356 . S
N1481 H1486 0.984 . S
N1481 H1487 0.985 . S
C1482 C1476 1.379 . S
C1482 C1479 1.363 . S
C1482 N1480 1.356 . S
C1483 C1477 1.363 . S
C1483 C1478 1.379 . S
C1483 N1481 1.356 . S
N1484 C1476 1.356 . S
N1484 H1490 0.984 . S
N1484 H1491 0.984 . S
N1485 C1478 1.356 . S
N1485 H1488 0.984 . S
N1485 H1489 0.985 . S
H1486 N1481 0.984 . S
H1487 N1481 0.985 . S
H1488 N1485 0.984 . S
H1489 N1485 0.985 . S
H1490 N1484 0.984 . S
H1491 N1484 0.984 . S
H1492 N1480 0.984 . S
H1493 N1480 0.985 . S
C1494 C1495 1.363 . S
C1494 C1500 1.379 1_565 S
C1494 N1502 1.356 . S
C1495 C1494 1.363 . S
C1495 C1501 1.363 . S
C1496 C1497 1.363 . S
C1496 C1501 1.379 1_545 S
C1496 N1503 1.356 . S
C1497 C1496 1.363 . S
C1497 C1500 1.363 . S
N1498 C1500 1.356 . S
N1498 H1510 0.984 . S
N1498 H1511 0.985 . S
N1499 C1501 1.356 . S
N1499 H1504 0.984 . S
N1499 H1505 0.985 . S
C1500 C1494 1.379 1_545 S
C1500 C1497 1.363 . S
C1500 N1498 1.356 . S
C1501 C1495 1.363 . S
C1501 C1496 1.379 1_565 S
C1501 N1499 1.356 . S
N1502 C1494 1.356 . S
N1502 H1508 0.984 . S
N1502 H1509 0.984 . S
N1503 C1496 1.356 . S
N1503 H1506 0.984 . S
N1503 H1507 0.985 . S
H1504 N1499 0.984 . S
H1505 N1499 0.985 . S
H1506 N1503 0.984 . S
H1507 N1503 0.985 . S
H1508 N1502 0.984 . S
H1509 N1502 0.984 . S
H1510 N1498 0.984 . S
H1511 N1498 0.985 . S
C1512 C1513 1.363 . S
C1512 C1518 1.379 . S
C1512 N1520 1.356 . S
C1513 C1512 1.363 . S
C1513 C1519 1.363 . S
C1514 C1515 1.363 . S
C1514 C1519 1.379 . S
C1514 N1521 1.356 . S
C1515 C1514 1.363 . S
C1515 C1518 1.363 . S
N1516 C1518 1.356 . S
N1516 H1528 0.984 . S
N1516 H1529 0.985 . S
N1517 C1519 1.356 . S
N1517 H1522 0.984 . S
N1517 H1523 0.985 . S
C1518 C1512 1.379 . S
C1518 C1515 1.363 . S
C1518 N1516 1.356 . S
C1519 C1513 1.363 . S
C1519 C1514 1.379 . S
C1519 N1517 1.356 . S
N1520 C1512 1.356 . S
N1520 H1526 0.984 . S
N1520 H1527 0.984 . S
N1521 C1514 1.356 . S
N1521 H1524 0.984 . S
N1521 H1525 0.985 . S
H1522 N1517 0.984 . S
H1523 N1517 0.985 . S
H1524 N1521 0.984 . S
H1525 N1521 0.985 . S
H1526 N1520 0.984 . S
H1527 N1520 0.984 . S
H1528 N1516 0.984 . S
H1529 N1516 0.985 . S
C1530 C1531 1.363 . S
C1530 C1536 1.379 . S
C1530 N1538 1.356 . S
C1531 C1530 1.363 . S
C1531 C1537 1.363 . S
C1532 C1533 1.363 . S
C1532 C1537 1.379 . S
C1532 N1539 1.356 . S
C1533 C1532 1.363 . S
C1533 C1536 1.363 . S
N1534 C1536 1.356 . S
N1534 H1546 0.984 . S
N1534 H1547 0.985 . S
N1535 C1537 1.356 . S
N1535 H1540 0.984 . S
N1535 H1541 0.985 . S
C1536 C1530 1.379 . S
C1536 C1533 1.363 . S
C1536 N1534 1.356 . S
C1537 C1531 1.363 . S
C1537 C1532 1.379 . S
C1537 N1535 1.356 . S
N1538 C1530 1.356 . S
N1538 H1544 0.984 . S
N1538 H1545 0.984 . S
N1539 C1532 1.356 . S
N1539 H1542 0.984 . S
N1539 H1543 0.985 . S
H1540 N1535 0.984 . S
H1541 N1535 0.985 . S
H1542 N1539 0.984 . S
H1543 N1539 0.985 . S
H1544 N1538 0.984 . S
H1545 N1538 0.984 . S
H1546 N1534 0.984 . S
H1547 N1534 0.985 . S
C1548 C1549 1.363 . S
C1548 C1554 1.379 . S
C1548 N1556 1.356 . S
C1549 C1548 1.363 . S
C1549 C1555 1.363 . S
C1550 C1551 1.363 . S
C1550 C1555 1.379 . S
C1550 N1557 1.356 . S
C1551 C1550 1.363 . S
C1551 C1554 1.363 . S
N1552 C1554 1.356 . S
N1552 H1564 0.984 . S
N1552 H1565 0.985 . S
N1553 C1555 1.356 . S
N1553 H1558 0.984 . S
N1553 H1559 0.985 . S
C1554 C1548 1.379 . S
C1554 C1551 1.363 . S
C1554 N1552 1.356 . S
C1555 C1549 1.363 . S
C1555 C1550 1.379 . S
C1555 N1553 1.356 . S
N1556 C1548 1.356 . S
N1556 H1562 0.984 . S
N1556 H1563 0.984 . S
N1557 C1550 1.356 . S
N1557 H1560 0.984 . S
N1557 H1561 0.985 . S
H1558 N1553 0.984 . S
H1559 N1553 0.985 . S
H1560 N1557 0.984 . S
H1561 N1557 0.985 . S
H1562 N1556 0.984 . S
H1563 N1556 0.984 . S
H1564 N1552 0.984 . S
H1565 N1552 0.985 . S
C1566 C1567 1.363 . S
C1566 C1572 1.379 . S
C1566 N1574 1.356 . S
C1567 C1566 1.363 . S
C1567 C1573 1.363 . S
C1568 C1569 1.363 . S
C1568 C1573 1.379 . S
C1568 N1575 1.356 . S
C1569 C1568 1.363 . S
C1569 C1572 1.363 . S
N1570 C1572 1.356 1_545 S
N1570 H1582 0.984 . S
N1570 H1583 0.985 . S
N1571 C1573 1.356 . S
N1571 H1576 0.984 . S
N1571 H1577 0.985 . S
C1572 C1566 1.379 . S
C1572 C1569 1.363 . S
C1572 N1570 1.356 1_565 S
C1573 C1567 1.363 . S
C1573 C1568 1.379 . S
C1573 N1571 1.356 . S
N1574 C1566 1.356 . S
N1574 H1580 0.984 . S
N1574 H1581 0.984 . S
N1575 C1568 1.356 . S
N1575 H1578 0.984 . S
N1575 H1579 0.985 . S
H1576 N1571 0.984 . S
H1577 N1571 0.985 . S
H1578 N1575 0.984 . S
H1579 N1575 0.985 . S
H1580 N1574 0.984 . S
H1581 N1574 0.984 . S
H1582 N1570 0.984 . S
H1583 N1570 0.985 . S
C1584 C1585 1.363 . S
C1584 C1590 1.379 . S
C1584 N1592 1.356 . S
C1585 C1584 1.363 . S
C1585 C1591 1.363 . S
C1586 C1587 1.363 . S
C1586 C1591 1.379 . S
C1586 N1593 1.356 . S
C1587 C1586 1.363 . S
C1587 C1590 1.363 . S
N1588 C1590 1.356 . S
N1588 H1600 0.984 . S
N1588 H1601 0.985 . S
N1589 C1591 1.356 . S
N1589 H1594 0.984 . S
N1589 H1595 0.985 . S
C1590 C1584 1.379 . S
C1590 C1587 1.363 . S
C1590 N1588 1.356 . S
C1591 C1585 1.363 . S
C1591 C1586 1.379 . S
C1591 N1589 1.356 . S
N1592 C1584 1.356 . S
N1592 H1598 0.984 . S
N1592 H1599 0.984 . S
N1593 C1586 1.356 . S
N1593 H1596 0.984 . S
N1593 H1597 0.985 . S
H1594 N1589 0.984 . S
H1595 N1589 0.985 . S
H1596 N1593 0.984 . S
H1597 N1593 0.985 . S
H1598 N1592 0.984 . S
H1599 N1592 0.984 . S
H1600 N1588 0.984 . S
H1601 N1588 0.985 . S
C1602 C1603 1.363 . S
C1602 C1608 1.379 . S
C1602 N1610 1.356 . S
C1603 C1602 1.363 . S
C1603 C1609 1.363 . S
C1604 C1605 1.363 . S
C1604 C1609 1.379 . S
C1604 N1611 1.356 . S
C1605 C1604 1.363 . S
C1605 C1608 1.363 . S
N1606 C1608 1.356 . S
N1606 H1618 0.984 . S
N1606 H1619 0.985 . S
N1607 C1609 1.356 . S
N1607 H1612 0.984 . S
N1607 H1613 0.985 . S
C1608 C1602 1.379 . S
C1608 C1605 1.363 . S
C1608 N1606 1.356 . S
C1609 C1603 1.363 . S
C1609 C1604 1.379 . S
C1609 N1607 1.356 . S
N1610 C1602 1.356 . S
N1610 H1616 0.984 . S
N1610 H1617 0.984 . S
N1611 C1604 1.356 . S
N1611 H1614 0.984 . S
N1611 H1615 0.985 . S
H1612 N1607 0.984 . S
H1613 N1607 0.985 . S
H1614 N1611 0.984 . S
H1615 N1611 0.985 . S
H1616 N1610 0.984 . S
H1617 N1610 0.984 . S
H1618 N1606 0.984 . S
H1619 N1606 0.985 . S
C1620 C1621 1.363 . S
C1620 C1626 1.379 . S
C1620 N1628 1.356 . S
C1621 C1620 1.363 . S
C1621 C1627 1.363 . S
C1622 C1623 1.363 . S
C1622 C1627 1.379 . S
C1622 N1629 1.356 1_655 S
C1623 C1622 1.363 . S
C1623 C1626 1.363 . S
N1624 C1626 1.356 . S
N1624 H1636 0.984 . S
N1624 H1637 0.985 . S
N1625 C1627 1.356 . S
N1625 H1630 0.984 . S
N1625 H1631 0.985 1_655 S
C1626 C1620 1.379 . S
C1626 C1623 1.363 . S
C1626 N1624 1.356 . S
C1627 C1621 1.363 . S
C1627 C1622 1.379 . S
C1627 N1625 1.356 . S
N1628 C1620 1.356 . S
N1628 H1634 0.984 . S
N1628 H1635 0.984 . S
N1629 C1622 1.356 1_455 S
N1629 H1632 0.984 . S
N1629 H1633 0.985 . S
H1630 N1625 0.984 . S
H1631 N1625 0.985 1_455 S
H1632 N1629 0.984 . S
H1633 N1629 0.985 . S
H1634 N1628 0.984 . S
H1635 N1628 0.984 . S
H1636 N1624 0.984 . S
H1637 N1624 0.985 . S
C1638 C1639 1.363 . S
C1638 C1644 1.379 . S
C1638 N1646 1.356 . S
C1639 C1638 1.363 . S
C1639 C1645 1.363 . S
C1640 C1641 1.363 . S
C1640 C1645 1.379 . S
C1640 N1647 1.356 . S
C1641 C1640 1.363 . S
C1641 C1644 1.363 . S
N1642 C1644 1.356 . S
N1642 H1654 0.984 . S
N1642 H1655 0.985 . S
N1643 C1645 1.356 . S
N1643 H1648 0.984 . S
N1643 H1649 0.985 . S
C1644 C1638 1.379 . S
C1644 C1641 1.363 . S
C1644 N1642 1.356 . S
C1645 C1639 1.363 . S
C1645 C1640 1.379 . S
C1645 N1643 1.356 . S
N1646 C1638 1.356 . S
N1646 H1652 0.984 . S
N1646 H1653 0.984 . S
N1647 C1640 1.356 . S
N1647 H1650 0.984 . S
N1647 H1651 0.985 . S
H1648 N1643 0.984 . S
H1649 N1643 0.985 . S
H1650 N1647 0.984 . S
H1651 N1647 0.985 . S
H1652 N1646 0.984 . S
H1653 N1646 0.984 . S
H1654 N1642 0.984 . S
H1655 N1642 0.985 . S
C1656 C1657 1.363 . S
C1656 C1662 1.379 . S
C1656 N1664 1.356 . S
C1657 C1656 1.363 . S
C1657 C1663 1.363 . S
C1658 C1659 1.363 . S
C1658 C1663 1.379 . S
C1658 N1665 1.356 1_545 S
C1659 C1658 1.363 . S
C1659 C1662 1.363 . S
N1660 C1662 1.356 . S
N1660 H1672 0.984 . S
N1660 H1673 0.985 . S
N1661 C1663 1.356 . S
N1661 H1666 0.984 . S
N1661 H1667 0.985 . S
C1662 C1656 1.379 . S
C1662 C1659 1.363 . S
C1662 N1660 1.356 . S
C1663 C1657 1.363 . S
C1663 C1658 1.379 . S
C1663 N1661 1.356 . S
N1664 C1656 1.356 . S
N1664 H1670 0.984 . S
N1664 H1671 0.984 . S
N1665 C1658 1.356 1_565 S
N1665 H1668 0.984 . S
N1665 H1669 0.985 . S
H1666 N1661 0.984 . S
H1667 N1661 0.985 . S
H1668 N1665 0.984 . S
H1669 N1665 0.985 . S
H1670 N1664 0.984 . S
H1671 N1664 0.984 . S
H1672 N1660 0.984 . S
H1673 N1660 0.985 . S
C1674 C1675 1.363 . S
C1674 C1680 1.379 . S
C1674 N1682 1.356 . S
C1675 C1674 1.363 . S
C1675 C1681 1.363 . S
C1676 C1677 1.363 . S
C1676 C1681 1.379 . S
C1676 N1683 1.356 . S
C1677 C1676 1.363 . S
C1677 C1680 1.363 . S
N1678 C1680 1.356 . S
N1678 H1690 0.984 . S
N1678 H1691 0.985 . S
N1679 C1681 1.356 . S
N1679 H1684 0.984 . S
N1679 H1685 0.985 . S
C1680 C1674 1.379 . S
C1680 C1677 1.363 . S
C1680 N1678 1.356 . S
C1681 C1675 1.363 . S
C1681 C1676 1.379 . S
C1681 N1679 1.356 . S
N1682 C1674 1.356 . S
N1682 H1688 0.984 . S
N1682 H1689 0.984 . S
N1683 C1676 1.356 . S
N1683 H1686 0.984 . S
N1683 H1687 0.985 . S
H1684 N1679 0.984 . S
H1685 N1679 0.985 . S
H1686 N1683 0.984 . S
H1687 N1683 0.985 . S
H1688 N1682 0.984 . S
H1689 N1682 0.984 . S
H1690 N1678 0.984 . S
H1691 N1678 0.985 . S
C1692 C1693 1.363 . S
C1692 C1698 1.379 . S
C1692 N1700 1.356 . S
C1693 C1692 1.363 . S
C1693 C1699 1.363 . S
C1694 C1695 1.363 . S
C1694 C1699 1.379 . S
C1694 N1701 1.356 . S
C1695 C1694 1.363 . S
C1695 C1698 1.363 . S
N1696 C1698 1.356 . S
N1696 H1708 0.984 . S
N1696 H1709 0.985 . S
N1697 C1699 1.356 . S
N1697 H1702 0.984 . S
N1697 H1703 0.985 . S
C1698 C1692 1.379 . S
C1698 C1695 1.363 . S
C1698 N1696 1.356 . S
C1699 C1693 1.363 . S
C1699 C1694 1.379 . S
C1699 N1697 1.356 . S
N1700 C1692 1.356 . S
N1700 H1706 0.984 . S
N1700 H1707 0.984 . S
N1701 C1694 1.356 . S
N1701 H1704 0.984 . S
N1701 H1705 0.985 . S
H1702 N1697 0.984 . S
H1703 N1697 0.985 . S
H1704 N1701 0.984 . S
H1705 N1701 0.985 . S
H1706 N1700 0.984 . S
H1707 N1700 0.984 . S
H1708 N1696 0.984 . S
H1709 N1696 0.985 . S
C1710 C1711 1.363 . S
C1710 C1716 1.379 . S
C1710 N1718 1.356 . S
C1711 C1710 1.363 . S
C1711 C1717 1.363 . S
C1712 C1713 1.363 . S
C1712 C1717 1.379 . S
C1712 N1719 1.356 . S
C1713 C1712 1.363 . S
C1713 C1716 1.363 . S
N1714 C1716 1.356 . S
N1714 H1726 0.984 . S
N1714 H1727 0.985 . S
N1715 C1717 1.356 . S
N1715 H1720 0.984 . S
N1715 H1721 0.985 . S
C1716 C1710 1.379 . S
C1716 C1713 1.363 . S
C1716 N1714 1.356 . S
C1717 C1711 1.363 . S
C1717 C1712 1.379 . S
C1717 N1715 1.356 . S
N1718 C1710 1.356 . S
N1718 H1724 0.984 . S
N1718 H1725 0.984 . S
N1719 C1712 1.356 . S
N1719 H1722 0.984 . S
N1719 H1723 0.985 . S
H1720 N1715 0.984 . S
H1721 N1715 0.985 . S
H1722 N1719 0.984 . S
H1723 N1719 0.985 . S
H1724 N1718 0.984 . S
H1725 N1718 0.984 . S
H1726 N1714 0.984 . S
H1727 N1714 0.985 . S
C1728 C1729 1.363 . S
C1728 C1734 1.379 . S
C1728 N1736 1.356 . S
C1729 C1728 1.363 . S
C1729 C1735 1.363 . S
C1730 C1731 1.363 . S
C1730 C1735 1.379 . S
C1730 N1737 1.356 . S
C1731 C1730 1.363 . S
C1731 C1734 1.363 . S
N1732 C1734 1.356 . S
N1732 H1744 0.984 . S
N1732 H1745 0.985 . S
N1733 C1735 1.356 . S
N1733 H1738 0.984 . S
N1733 H1739 0.985 . S
C1734 C1728 1.379 . S
C1734 C1731 1.363 . S
C1734 N1732 1.356 . S
C1735 C1729 1.363 . S
C1735 C1730 1.379 . S
C1735 N1733 1.356 . S
N1736 C1728 1.356 . S
N1736 H1742 0.984 . S
N1736 H1743 0.984 . S
N1737 C1730 1.356 . S
N1737 H1740 0.984 . S
N1737 H1741 0.985 . S
H1738 N1733 0.984 . S
H1739 N1733 0.985 . S
H1740 N1737 0.984 . S
H1741 N1737 0.985 . S
H1742 N1736 0.984 . S
H1743 N1736 0.984 . S
H1744 N1732 0.984 . S
H1745 N1732 0.985 . S
C1746 C1747 1.363 . S
C1746 C1752 1.379 . S
C1746 N1754 1.356 . S
C1747 C1746 1.363 . S
C1747 C1753 1.363 . S
C1748 C1749 1.363 . S
C1748 C1753 1.379 . S
C1748 N1755 1.356 . S
C1749 C1748 1.363 . S
C1749 C1752 1.363 . S
N1750 C1752 1.356 . S
N1750 H1762 0.984 . S
N1750 H1763 0.985 . S
N1751 C1753 1.356 . S
N1751 H1756 0.984 . S
N1751 H1757 0.985 . S
C1752 C1746 1.379 . S
C1752 C1749 1.363 . S
C1752 N1750 1.356 . S
C1753 C1747 1.363 . S
C1753 C1748 1.379 . S
C1753 N1751 1.356 . S
N1754 C1746 1.356 . S
N1754 H1760 0.984 . S
N1754 H1761 0.984 . S
N1755 C1748 1.356 . S
N1755 H1758 0.984 . S
N1755 H1759 0.985 . S
H1756 N1751 0.984 . S
H1757 N1751 0.985 . S
H1758 N1755 0.984 . S
H1759 N1755 0.985 . S
H1760 N1754 0.984 . S
H1761 N1754 0.984 . S
H1762 N1750 0.984 . S
H1763 N1750 0.985 . S
C1764 C1765 1.363 . S
C1764 C1770 1.379 . S
C1764 N1772 1.356 . S
C1765 C1764 1.363 . S
C1765 C1771 1.363 . S
C1766 C1767 1.363 . S
C1766 C1771 1.379 . S
C1766 N1773 1.356 . S
C1767 C1766 1.363 . S
C1767 C1770 1.363 . S
N1768 C1770 1.356 . S
N1768 H1780 0.984 . S
N1768 H1781 0.985 . S
N1769 C1771 1.356 . S
N1769 H1774 0.984 . S
N1769 H1775 0.985 . S
C1770 C1764 1.379 . S
C1770 C1767 1.363 . S
C1770 N1768 1.356 . S
C1771 C1765 1.363 . S
C1771 C1766 1.379 . S
C1771 N1769 1.356 . S
N1772 C1764 1.356 . S
N1772 H1778 0.984 . S
N1772 H1779 0.984 . S
N1773 C1766 1.356 . S
N1773 H1776 0.984 . S
N1773 H1777 0.985 . S
H1774 N1769 0.984 . S
H1775 N1769 0.985 . S
H1776 N1773 0.984 . S
H1777 N1773 0.985 . S
H1778 N1772 0.984 . S
H1779 N1772 0.984 . S
H1780 N1768 0.984 . S
H1781 N1768 0.985 . S
C1782 C1783 1.363 . S
C1782 C1788 1.379 . S
C1782 N1790 1.356 . S
C1783 C1782 1.363 . S
C1783 C1789 1.363 . S
C1784 C1785 1.363 . S
C1784 C1789 1.379 . S
C1784 N1791 1.356 . S
C1785 C1784 1.363 . S
C1785 C1788 1.363 . S
N1786 C1788 1.356 . S
N1786 H1798 0.984 . S
N1786 H1799 0.985 . S
N1787 C1789 1.356 . S
N1787 H1792 0.984 . S
N1787 H1793 0.985 . S
C1788 C1782 1.379 . S
C1788 C1785 1.363 . S
C1788 N1786 1.356 . S
C1789 C1783 1.363 . S
C1789 C1784 1.379 . S
C1789 N1787 1.356 . S
N1790 C1782 1.356 . S
N1790 H1796 0.984 . S
N1790 H1797 0.984 . S
N1791 C1784 1.356 . S
N1791 H1794 0.984 . S
N1791 H1795 0.985 . S
H1792 N1787 0.984 . S
H1793 N1787 0.985 . S
H1794 N1791 0.984 . S
H1795 N1791 0.985 . S
H1796 N1790 0.984 . S
H1797 N1790 0.984 . S
H1798 N1786 0.984 . S
H1799 N1786 0.985 . S
C1800 C1801 1.363 . S
C1800 C1806 1.379 . S
C1800 N1808 1.356 . S
C1801 C1800 1.363 . S
C1801 C1807 1.363 . S
C1802 C1803 1.363 . S
C1802 C1807 1.379 . S
C1802 N1809 1.356 . S
C1803 C1802 1.363 . S
C1803 C1806 1.363 . S
N1804 C1806 1.356 . S
N1804 H1816 0.984 . S
N1804 H1817 0.985 . S
N1805 C1807 1.356 . S
N1805 H1810 0.984 . S
N1805 H1811 0.985 . S
C1806 C1800 1.379 . S
C1806 C1803 1.363 . S
C1806 N1804 1.356 . S
C1807 C1801 1.363 . S
C1807 C1802 1.379 . S
C1807 N1805 1.356 . S
N1808 C1800 1.356 . S
N1808 H1814 0.984 . S
N1808 H1815 0.984 . S
N1809 C1802 1.356 . S
N1809 H1812 0.984 . S
N1809 H1813 0.985 . S
H1810 N1805 0.984 . S
H1811 N1805 0.985 . S
H1812 N1809 0.984 . S
H1813 N1809 0.985 . S
H1814 N1808 0.984 . S
H1815 N1808 0.984 . S
H1816 N1804 0.984 . S
H1817 N1804 0.985 . S
C1818 C1819 1.363 . S
C1818 C1824 1.379 . S
C1818 N1826 1.356 . S
C1819 C1818 1.363 . S
C1819 C1825 1.363 . S
C1820 C1821 1.363 . S
C1820 C1825 1.379 . S
C1820 N1827 1.356 . S
C1821 C1820 1.363 . S
C1821 C1824 1.363 . S
N1822 C1824 1.356 . S
N1822 H1834 0.984 . S
N1822 H1835 0.985 . S
N1823 C1825 1.356 . S
N1823 H1828 0.984 . S
N1823 H1829 0.985 . S
C1824 C1818 1.379 . S
C1824 C1821 1.363 . S
C1824 N1822 1.356 . S
C1825 C1819 1.363 . S
C1825 C1820 1.379 . S
C1825 N1823 1.356 . S
N1826 C1818 1.356 . S
N1826 H1832 0.984 . S
N1826 H1833 0.984 . S
N1827 C1820 1.356 . S
N1827 H1830 0.984 . S
N1827 H1831 0.985 . S
H1828 N1823 0.984 . S
H1829 N1823 0.985 . S
H1830 N1827 0.984 . S
H1831 N1827 0.985 . S
H1832 N1826 0.984 . S
H1833 N1826 0.984 . S
H1834 N1822 0.984 . S
H1835 N1822 0.985 . S
C1836 C1837 1.363 . S
C1836 C1842 1.379 . S
C1836 N1844 1.356 . S
C1837 C1836 1.363 . S
C1837 C1843 1.363 . S
C1838 C1839 1.363 . S
C1838 C1843 1.379 . S
C1838 N1845 1.356 . S
C1839 C1838 1.363 . S
C1839 C1842 1.363 . S
N1840 C1842 1.356 . S
N1840 H1852 0.984 . S
N1840 H1853 0.985 . S
N1841 C1843 1.356 . S
N1841 H1846 0.984 . S
N1841 H1847 0.985 . S
C1842 C1836 1.379 . S
C1842 C1839 1.363 . S
C1842 N1840 1.356 . S
C1843 C1837 1.363 . S
C1843 C1838 1.379 . S
C1843 N1841 1.356 . S
N1844 C1836 1.356 . S
N1844 H1850 0.984 . S
N1844 H1851 0.984 . S
N1845 C1838 1.356 . S
N1845 H1848 0.984 . S
N1845 H1849 0.985 . S
H1846 N1841 0.984 . S
H1847 N1841 0.985 . S
H1848 N1845 0.984 . S
H1849 N1845 0.985 . S
H1850 N1844 0.984 . S
H1851 N1844 0.984 . S
H1852 N1840 0.984 . S
H1853 N1840 0.985 . S
C1854 C1855 1.363 . S
C1854 C1860 1.379 . S
C1854 N1862 1.356 . S
C1855 C1854 1.363 . S
C1855 C1861 1.363 . S
C1856 C1857 1.363 . S
C1856 C1861 1.379 . S
C1856 N1863 1.356 . S
C1857 C1856 1.363 . S
C1857 C1860 1.363 . S
N1858 C1860 1.356 . S
N1858 H1870 0.984 . S
N1858 H1871 0.985 . S
N1859 C1861 1.356 . S
N1859 H1864 0.984 . S
N1859 H1865 0.985 . S
C1860 C1854 1.379 . S
C1860 C1857 1.363 . S
C1860 N1858 1.356 . S
C1861 C1855 1.363 . S
C1861 C1856 1.379 . S
C1861 N1859 1.356 . S
N1862 C1854 1.356 . S
N1862 H1868 0.984 . S
N1862 H1869 0.984 . S
N1863 C1856 1.356 . S
N1863 H1866 0.984 . S
N1863 H1867 0.985 . S
H1864 N1859 0.984 . S
H1865 N1859 0.985 . S
H1866 N1863 0.984 . S
H1867 N1863 0.985 . S
H1868 N1862 0.984 . S
H1869 N1862 0.984 . S
H1870 N1858 0.984 . S
H1871 N1858 0.985 . S
C1872 C1873 1.363 . S
C1872 C1878 1.379 . S
C1872 N1880 1.356 . S
C1873 C1872 1.363 . S
C1873 C1879 1.363 . S
C1874 C1875 1.363 . S
C1874 C1879 1.379 . S
C1874 N1881 1.356 . S
C1875 C1874 1.363 . S
C1875 C1878 1.363 . S
N1876 C1878 1.356 . S
N1876 H1888 0.984 . S
N1876 H1889 0.985 . S
N1877 C1879 1.356 . S
N1877 H1882 0.984 . S
N1877 H1883 0.985 . S
C1878 C1872 1.379 . S
C1878 C1875 1.363 . S
C1878 N1876 1.356 . S
C1879 C1873 1.363 . S
C1879 C1874 1.379 . S
C1879 N1877 1.356 . S
N1880 C1872 1.356 . S
N1880 H1886 0.984 . S
N1880 H1887 0.984 . S
N1881 C1874 1.356 . S
N1881 H1884 0.984 . S
N1881 H1885 0.985 . S
H1882 N1877 0.984 . S
H1883 N1877 0.985 . S
H1884 N1881 0.984 . S
H1885 N1881 0.985 . S
H1886 N1880 0.984 . S
H1887 N1880 0.984 . S
H1888 N1876 0.984 . S
H1889 N1876 0.985 . S
C919 C124 1.462 . S
C921 C229 1.385 . S
C937 C130 1.501 . S
C939 C313 1.430 . S
C955 C115 1.486 . S
C957 C393 1.444 . S
C973 C106 1.465 . S
C975 C309 1.425 . S
C993 C397 1.382 . S
C991 C85 1.458 . S
C1009 C97 1.435 . S
C1011 C225 1.393 . S
C1029 C218 1.402 . S
C1027 C103 1.481 . S
C1047 C302 1.411 . S
C1045 C88 1.480 . S
C1063 C94 1.484 . S
C1065 C404 1.443 . S
C1081 C121 1.462 . S
C1083 C320 1.423 . S
C1099 C133 1.437 . S
C1101 C386 1.362 . S
C1119 C236 1.412 . S
C1117 C112 1.454 . S
C1137 C481 1.385 . S
C1135 C16 1.462 . S
C1153 C22 1.501 . S
C1155 C565 1.430 . S
C1171 C7 1.486 . S
C1173 C645 1.444 . S
C1189 C160 1.465 . S
C1191 C561 1.425 . S
C1207 C139 1.458 . S
C1209 C649 1.382 . S
C1225 C151 1.435 . S
C1227 C477 1.393 . S
C1243 C157 1.481 . S
C1245 C470 1.402 . S
C1261 C142 1.480 . S
C1263 C554 1.411 . S
C1281 C656 1.443 . S
C1279 C148 1.484 . S
C1297 C13 1.462 . S
C1299 C572 1.423 . S
C1317 C638 1.362 . S
C1315 C25 1.437 . S
C1333 C4 1.454 . S
C1335 C488 1.412 . S
C1353 C733 1.385 . S
C1351 C70 1.462 . S
C1369 C76 1.501 . S
C1371 C817 1.430 . S
C1389 C897 1.444 . S
C1387 C61 1.486 . S
C1407 C813 1.424 . S
C1405 C52 1.464 . S
C1425 C901 1.382 . S
C1423 C31 1.458 . S
C1441 C43 1.435 . S
C1443 C729 1.393 . S
C1459 C49 1.481 . S
C1461 C722 1.402 . S
C1477 C34 1.480 . S
C1479 C806 1.411 . S
C1497 C908 1.442 . S
C1495 C40 1.484 . S
C1513 C67 1.462 . S
C1515 C824 1.423 . S
C1531 C79 1.438 . S
C1533 C890 1.363 . S
C1549 C58 1.454 . S
C1551 C740 1.412 . S
C1567 C140 1.508 . S
C1569 C232 1.406 . S
C1587 C316 1.385 . S
C1585 C149 1.515 . S
C1603 C158 1.517 . S
C1605 C388 1.397 . S
C1621 C59 1.529 . S
C1623 C304 1.396 . S
C1639 C68 1.505 . S
C1641 C400 1.387 . S
C1659 C220 1.408 . S
C1657 C77 1.508 . S
C1675 C32 1.508 . S
C1677 C484 1.406 . S
C1693 C41 1.515 . S
C1695 C568 1.384 . S
C1711 C50 1.517 . S
C1713 C640 1.397 . S
C1729 C113 1.529 . S
C1731 C556 1.396 . S
C1749 C652 1.386 . S
C1747 C122 1.505 . S
C1765 C131 1.508 . S
C1767 C472 1.408 . S
C1783 C86 1.508 . S
C1785 C736 1.406 . S
C1801 C95 1.515 . S
C1803 C820 1.385 . S
C1821 C892 1.397 . S
C1819 C104 1.517 . S
C1837 C5 1.529 . S
C1839 C808 1.396 . S
C1855 C14 1.505 . S
C1857 C904 1.387 . S
C1873 C23 1.508 . S
C1875 C724 1.408 . S
