# Generated by pormake.
# Topology ptr, (4,4)-cn, num edge types: 1
# Building blocks:
#     Node 0, Type 0, BuildingBlock: AZAVOO_clean_sbu_0, # of connection points: 4
#     Node 1, Type 0, BuildingBlock: AZAVOO_clean_sbu_0, # of connection points: 4
#     Node 2, Type 0, BuildingBlock: AZAVOO_clean_sbu_0, # of connection points: 4
#     Node 3, Type 0, BuildingBlock: AZAVOO_clean_sbu_0, # of connection points: 4
#     Node 4, Type 0, BuildingBlock: AZAVOO_clean_sbu_0, # of connection points: 4
#     Node 5, Type 0, BuildingBlock: AZAVOO_clean_sbu_0, # of connection points: 4
#     Node 6, Type 0, BuildingBlock: AZAVOO_clean_sbu_0, # of connection points: 4
#     Node 7, Type 0, BuildingBlock: AZAVOO_clean_sbu_0, # of connection points: 4
#     Node 8, Type 0, BuildingBlock: AZAVOO_clean_sbu_0, # of connection points: 4
#     Node 9, Type 0, BuildingBlock: AZAVOO_clean_sbu_0, # of connection points: 4
#     Node 10, Type 0, BuildingBlock: AZAVOO_clean_sbu_0, # of connection points: 4
#     Node 11, Type 0, BuildingBlock: AZAVOO_clean_sbu_0, # of connection points: 4
#     Node 12, Type 0, BuildingBlock: AZAVOO_clean_sbu_0, # of connection points: 4
#     Node 13, Type 0, BuildingBlock: AZAVOO_clean_sbu_0, # of connection points: 4
#     Node 14, Type 0, BuildingBlock: AZAVOO_clean_sbu_0, # of connection points: 4
#     Node 15, Type 0, BuildingBlock: AZAVOO_clean_sbu_0, # of connection points: 4
#     Node 16, Type 0, BuildingBlock: AZAVOO_clean_sbu_0, # of connection points: 4
#     Node 17, Type 0, BuildingBlock: AZAVOO_clean_sbu_0, # of connection points: 4
#     Node 18, Type 1, BuildingBlock: MUDLON_clean_linker_0, # of connection points: 4
#     Node 19, Type 1, BuildingBlock: MUDLON_clean_linker_0, # of connection points: 4
#     Node 20, Type 1, BuildingBlock: MUDLON_clean_linker_0, # of connection points: 4
#     Node 21, Type 1, BuildingBlock: MUDLON_clean_linker_0, # of connection points: 4
#     Node 22, Type 1, BuildingBlock: MUDLON_clean_linker_0, # of connection points: 4
#     Node 23, Type 1, BuildingBlock: MUDLON_clean_linker_0, # of connection points: 4
#     Node 24, Type 1, BuildingBlock: MUDLON_clean_linker_0, # of connection points: 4
#     Node 25, Type 1, BuildingBlock: MUDLON_clean_linker_0, # of connection points: 4
#     Node 26, Type 1, BuildingBlock: MUDLON_clean_linker_0, # of connection points: 4
#     Node 27, Type 1, BuildingBlock: MUDLON_clean_linker_0, # of connection points: 4
#     Node 28, Type 1, BuildingBlock: MUDLON_clean_linker_0, # of connection points: 4
#     Node 29, Type 1, BuildingBlock: MUDLON_clean_linker_0, # of connection points: 4
#     Node 30, Type 1, BuildingBlock: MUDLON_clean_linker_0, # of connection points: 4
#     Node 31, Type 1, BuildingBlock: MUDLON_clean_linker_0, # of connection points: 4
#     Node 32, Type 1, BuildingBlock: MUDLON_clean_linker_0, # of connection points: 4
#     Node 33, Type 1, BuildingBlock: MUDLON_clean_linker_0, # of connection points: 4
#     Node 34, Type 1, BuildingBlock: MUDLON_clean_linker_0, # of connection points: 4
#     Node 35, Type 1, BuildingBlock: MUDLON_clean_linker_0, # of connection points: 4
#     Edge 36, Type (0, 1), BuildingBlock: MIFKUJ_clean_linker_0, # of connection points: 2
#     Edge 37, Type (0, 1), BuildingBlock: MIFKUJ_clean_linker_0, # of connection points: 2
#     Edge 38, Type (0, 1), BuildingBlock: MIFKUJ_clean_linker_0, # of connection points: 2
#     Edge 39, Type (0, 1), BuildingBlock: MIFKUJ_clean_linker_0, # of connection points: 2
#     Edge 40, Type (0, 1), BuildingBlock: MIFKUJ_clean_linker_0, # of connection points: 2
#     Edge 41, Type (0, 1), BuildingBlock: MIFKUJ_clean_linker_0, # of connection points: 2
#     Edge 42, Type (0, 1), BuildingBlock: MIFKUJ_clean_linker_0, # of connection points: 2
#     Edge 43, Type (0, 1), BuildingBlock: MIFKUJ_clean_linker_0, # of connection points: 2
#     Edge 44, Type (0, 1), BuildingBlock: MIFKUJ_clean_linker_0, # of connection points: 2
#     Edge 45, Type (0, 1), BuildingBlock: MIFKUJ_clean_linker_0, # of connection points: 2
#     Edge 46, Type (0, 1), BuildingBlock: MIFKUJ_clean_linker_0, # of connection points: 2
#     Edge 47, Type (0, 1), BuildingBlock: MIFKUJ_clean_linker_0, # of connection points: 2
#     Edge 48, Type (0, 1), BuildingBlock: MIFKUJ_clean_linker_0, # of connection points: 2
#     Edge 49, Type (0, 1), BuildingBlock: MIFKUJ_clean_linker_0, # of connection points: 2
#     Edge 50, Type (0, 1), BuildingBlock: MIFKUJ_clean_linker_0, # of connection points: 2
#     Edge 51, Type (0, 1), BuildingBlock: MIFKUJ_clean_linker_0, # of connection points: 2
#     Edge 52, Type (0, 1), BuildingBlock: MIFKUJ_clean_linker_0, # of connection points: 2
#     Edge 53, Type (0, 1), BuildingBlock: MIFKUJ_clean_linker_0, # of connection points: 2
#     Edge 54, Type (0, 1), BuildingBlock: MIFKUJ_clean_linker_0, # of connection points: 2
#     Edge 55, Type (0, 1), BuildingBlock: MIFKUJ_clean_linker_0, # of connection points: 2
#     Edge 56, Type (0, 1), BuildingBlock: MIFKUJ_clean_linker_0, # of connection points: 2
#     Edge 57, Type (0, 1), BuildingBlock: MIFKUJ_clean_linker_0, # of connection points: 2
#     Edge 58, Type (0, 1), BuildingBlock: MIFKUJ_clean_linker_0, # of connection points: 2
#     Edge 59, Type (0, 1), BuildingBlock: MIFKUJ_clean_linker_0, # of connection points: 2
#     Edge 60, Type (0, 1), BuildingBlock: MIFKUJ_clean_linker_0, # of connection points: 2
#     Edge 61, Type (0, 1), BuildingBlock: MIFKUJ_clean_linker_0, # of connection points: 2
#     Edge 62, Type (0, 1), BuildingBlock: MIFKUJ_clean_linker_0, # of connection points: 2
#     Edge 63, Type (0, 1), BuildingBlock: MIFKUJ_clean_linker_0, # of connection points: 2
#     Edge 64, Type (0, 1), BuildingBlock: MIFKUJ_clean_linker_0, # of connection points: 2
#     Edge 65, Type (0, 1), BuildingBlock: MIFKUJ_clean_linker_0, # of connection points: 2
#     Edge 66, Type (0, 1), BuildingBlock: MIFKUJ_clean_linker_0, # of connection points: 2
#     Edge 67, Type (0, 1), BuildingBlock: MIFKUJ_clean_linker_0, # of connection points: 2
#     Edge 68, Type (0, 1), BuildingBlock: MIFKUJ_clean_linker_0, # of connection points: 2
#     Edge 69, Type (0, 1), BuildingBlock: MIFKUJ_clean_linker_0, # of connection points: 2
#     Edge 70, Type (0, 1), BuildingBlock: MIFKUJ_clean_linker_0, # of connection points: 2
#     Edge 71, Type (0, 1), BuildingBlock: MIFKUJ_clean_linker_0, # of connection points: 2
#     Edge 72, Type (0, 1), BuildingBlock: MIFKUJ_clean_linker_0, # of connection points: 2
#     Edge 73, Type (0, 1), BuildingBlock: MIFKUJ_clean_linker_0, # of connection points: 2
#     Edge 74, Type (0, 1), BuildingBlock: MIFKUJ_clean_linker_0, # of connection points: 2
#     Edge 75, Type (0, 1), BuildingBlock: MIFKUJ_clean_linker_0, # of connection points: 2
#     Edge 76, Type (0, 1), BuildingBlock: MIFKUJ_clean_linker_0, # of connection points: 2
#     Edge 77, Type (0, 1), BuildingBlock: MIFKUJ_clean_linker_0, # of connection points: 2
#     Edge 78, Type (0, 1), BuildingBlock: MIFKUJ_clean_linker_0, # of connection points: 2
#     Edge 79, Type (0, 1), BuildingBlock: MIFKUJ_clean_linker_0, # of connection points: 2
#     Edge 80, Type (0, 1), BuildingBlock: MIFKUJ_clean_linker_0, # of connection points: 2
#     Edge 81, Type (0, 1), BuildingBlock: MIFKUJ_clean_linker_0, # of connection points: 2
#     Edge 82, Type (0, 1), BuildingBlock: MIFKUJ_clean_linker_0, # of connection points: 2
#     Edge 83, Type (0, 1), BuildingBlock: MIFKUJ_clean_linker_0, # of connection points: 2
#     Edge 84, Type (0, 1), BuildingBlock: MIFKUJ_clean_linker_0, # of connection points: 2
#     Edge 85, Type (0, 1), BuildingBlock: MIFKUJ_clean_linker_0, # of connection points: 2
#     Edge 86, Type (0, 1), BuildingBlock: MIFKUJ_clean_linker_0, # of connection points: 2
#     Edge 87, Type (0, 1), BuildingBlock: MIFKUJ_clean_linker_0, # of connection points: 2
#     Edge 88, Type (0, 1), BuildingBlock: MIFKUJ_clean_linker_0, # of connection points: 2
#     Edge 89, Type (0, 1), BuildingBlock: MIFKUJ_clean_linker_0, # of connection points: 2
#     Edge 90, Type (0, 1), BuildingBlock: MIFKUJ_clean_linker_0, # of connection points: 2
#     Edge 91, Type (0, 1), BuildingBlock: MIFKUJ_clean_linker_0, # of connection points: 2
#     Edge 92, Type (0, 1), BuildingBlock: MIFKUJ_clean_linker_0, # of connection points: 2
#     Edge 93, Type (0, 1), BuildingBlock: MIFKUJ_clean_linker_0, # of connection points: 2
#     Edge 94, Type (0, 1), BuildingBlock: MIFKUJ_clean_linker_0, # of connection points: 2
#     Edge 95, Type (0, 1), BuildingBlock: MIFKUJ_clean_linker_0, # of connection points: 2
#     Edge 96, Type (0, 1), BuildingBlock: MIFKUJ_clean_linker_0, # of connection points: 2
#     Edge 97, Type (0, 1), BuildingBlock: MIFKUJ_clean_linker_0, # of connection points: 2
#     Edge 98, Type (0, 1), BuildingBlock: MIFKUJ_clean_linker_0, # of connection points: 2
#     Edge 99, Type (0, 1), BuildingBlock: MIFKUJ_clean_linker_0, # of connection points: 2
#     Edge 100, Type (0, 1), BuildingBlock: MIFKUJ_clean_linker_0, # of connection points: 2
#     Edge 101, Type (0, 1), BuildingBlock: MIFKUJ_clean_linker_0, # of connection points: 2
#     Edge 102, Type (0, 1), BuildingBlock: MIFKUJ_clean_linker_0, # of connection points: 2
#     Edge 103, Type (0, 1), BuildingBlock: MIFKUJ_clean_linker_0, # of connection points: 2
#     Edge 104, Type (0, 1), BuildingBlock: MIFKUJ_clean_linker_0, # of connection points: 2
#     Edge 105, Type (0, 1), BuildingBlock: MIFKUJ_clean_linker_0, # of connection points: 2
#     Edge 106, Type (0, 1), BuildingBlock: MIFKUJ_clean_linker_0, # of connection points: 2
#     Edge 107, Type (0, 1), BuildingBlock: MIFKUJ_clean_linker_0, # of connection points: 2
# Relax obj value: 0.069
# Max RMSD: 0.223
# Mean RMSD: 0.107
data_MOF--net-ptr--node1-AZAVOO_clean_sbu_0--node2-MUDLON_clean_linker_0--edge1-MIFKUJ_clean_linker_0
_symmetry_space_group_name_H-M    P1
_symmetry_Int_Tables_number       1
_symmetry_cell_setting            triclinic
loop_
_symmetry_equiv_pos_as_xyz
'x, y, z'
_cell_length_a     129.74304
_cell_length_b     127.98794
_cell_length_c     73.063605
_cell_angle_alpha  90.875624
_cell_angle_beta   90.892915
_cell_angle_gamma 120.00909
loop_
_atom_site_label
_atom_site_type_symbol
_atom_site_fract_x
_atom_site_fract_y
_atom_site_fract_z
_atom_type_partial_charge
Mg0 Mg 0.00662 0.35918 0.98381 0.0
O1 O 0.00417 0.36876 0.00902 0.0
O2 O 0.98876 0.37135 0.00209 0.0
Mg3 Mg 0.98136 0.36353 0.97352 0.0
C4 C 0.99707 0.37261 0.01309 0.0
C5 C 0.02797 0.36234 0.00923 0.0
O6 O 0.03 0.37345 0.01083 0.0
O7 O 0.99041 0.34135 0.9912 0.0
O8 O 0.97541 0.34433 0.98329 0.0
O9 O 0.01866 0.37697 0.97156 0.0
O10 O 0.99917 0.36677 0.96685 0.0
C11 C 0.97929 0.33759 0.98935 0.0
C12 C 0.00921 0.37643 0.9644 0.0
O13 O 0.01898 0.35458 -0.00019 0.0
Mg14 Mg 0.64224 0.64243 0.0467 0.0
O15 O 0.62876 0.63262 0.02306 0.0
O16 O 0.6113 0.63036 0.03172 0.0
Mg17 Mg 0.61338 0.63751 0.06127 0.0
C18 C 0.61776 0.62906 0.01992 0.0
C19 C 0.66805 0.65389 0.03559 0.0
O20 O 0.66879 0.65728 0.05286 0.0
O21 O 0.64261 0.65995 0.04034 0.0
O22 O 0.62551 0.65697 0.05183 0.0
O23 O 0.63799 0.62477 0.05818 0.0
O24 O 0.62866 0.63468 0.06534 0.0
C25 C 0.63544 0.6637 0.04426 0.0
C26 C 0.62952 0.62513 0.06683 0.0
O27 O 0.65781 0.64733 0.02814 0.0
Mg28 Mg 0.36016 0.99318 0.98458 0.0
O29 O 0.37284 0.99661 0.00897 0.0
O30 O 0.39105 0.01098 0.00144 0.0
Mg31 Mg 0.38988 0.01677 0.97231 0.0
C32 C 0.38392 0.00342 0.01278 0.0
C33 C 0.3427 0.97415 0.01221 0.0
O34 O 0.35105 0.9712 0.01295 0.0
O35 O 0.36036 0.01062 0.99118 0.0
O36 O 0.37824 0.02472 0.98195 0.0
O37 O 0.36422 0.97947 0.97328 0.0
O38 O 0.37414 0.99885 0.96674 0.0
C39 C 0.36807 0.02163 0.98859 0.0
C40 C 0.37301 0.98828 0.96516 0.0
O41 O 0.34409 0.98279 0.00225 0.0
Mg42 Mg 0.99295 0.64398 0.03258 0.0
O43 O 0.99727 0.63539 0.00803 0.0
O44 O 0.01342 0.6343 0.01587 0.0
Mg45 Mg 0.01993 0.64287 0.04433 0.0
C46 C 0.00505 0.63236 0.00447 0.0
C47 C 0.97231 0.64833 0.02407 0.0
O48 O 0.97319 0.64897 0.04205 0.0
O49 O 0.00805 0.66273 0.02566 0.0
O50 O 0.02406 0.66126 0.0332 0.0
O51 O 0.98245 0.62573 0.04462 0.0
O52 O 0.00161 0.6382 0.05039 0.0
C53 C 0.01932 0.66723 0.0271 0.0
C54 C 0.99234 0.62777 0.05245 0.0
O55 O 0.97951 0.6463 0.0152 0.0
Mg56 Mg 0.36762 0.3617 0.98671 0.0
O57 O 0.3803 0.37022 0.01186 0.0
O58 O 0.39812 0.37349 0.00324 0.0
Mg59 Mg 0.39709 0.36777 0.97325 0.0
C60 C 0.39131 0.37392 0.01529 0.0
C61 C 0.34291 0.35635 0.99512 0.0
O62 O 0.34456 0.35967 0.97799 0.0
O63 O 0.36703 0.34379 0.99075 0.0
O64 O 0.38484 0.34794 0.98076 0.0
O65 O 0.37212 0.37991 0.9774 0.0
O66 O 0.38183 0.37057 0.96928 0.0
C67 C 0.37463 0.34056 0.98699 0.0
C68 C 0.38087 0.38011 0.96881 0.0
O69 O 0.35127 0.35601 0.00388 0.0
Mg70 Mg 0.63997 0.00985 0.04242 0.0
O71 O 0.62743 0.00492 0.01701 0.0
O72 O 0.6101 0.98894 0.02452 0.0
Mg73 Mg 0.61128 0.98402 0.054 0.0
C74 C 0.61667 0.99681 0.01306 0.0
C75 C 0.66597 0.02221 0.03139 0.0
O76 O 0.66587 0.01633 0.04604 0.0
O77 O 0.642 0.99346 0.03707 0.0
O78 O 0.62458 0.97802 0.04535 0.0
O79 O 0.63405 0.02238 0.05283 0.0
O80 O 0.6253 0.00296 0.05898 0.0
C81 C 0.63511 0.98221 0.03943 0.0
C82 C 0.62537 0.01306 0.06022 0.0
O83 O 0.65629 0.02141 0.02572 0.0
Mg84 Mg 0.67426 0.6948 0.31866 0.0
O85 O 0.67072 0.70371 0.34354 0.0
O86 O 0.65462 0.7051 0.33639 0.0
Mg87 Mg 0.64843 0.698 0.30706 0.0
C88 C 0.66297 0.70671 0.34758 0.0
C89 C 0.68657 0.68096 0.33358 0.0
O90 O 0.67862 0.67282 0.32208 0.0
O91 O 0.65819 0.67648 0.32485 0.0
O92 O 0.64288 0.67873 0.31591 0.0
O93 O 0.68597 0.71295 0.30734 0.0
O94 O 0.66665 0.702 0.30128 0.0
C95 C 0.64703 0.67226 0.32213 0.0
C96 C 0.67649 0.71201 0.29956 0.0
O97 O 0.68688 0.691 0.33578 0.0
Mg98 Mg 0.30191 0.97993 0.37829 0.0
O99 O 0.28848 0.97173 0.35402 0.0
O100 O 0.27157 0.97064 0.3629 0.0
Mg101 Mg 0.27417 0.97819 0.39221 0.0
C102 C 0.27765 0.96889 0.35093 0.0
C103 C 0.31698 0.9743 0.35155 0.0
O104 O 0.30736 0.96362 0.35224 0.0
O105 O 0.30462 0.99848 0.37269 0.0
O106 O 0.28789 0.99728 0.38271 0.0
O107 O 0.29551 0.96164 0.38891 0.0
O108 O 0.28796 0.97316 0.39654 0.0
C109 C 0.29822 0.00326 0.37588 0.0
C110 C 0.28751 0.96289 0.39746 0.0
O111 O 0.3173 0.98315 0.36021 0.0
Mg112 Mg 0.02677 0.32352 0.31979 0.0
O113 O 0.04062 0.32853 0.34308 0.0
O114 O 0.05823 0.34258 0.33288 0.0
Mg115 Mg 0.0556 0.34647 0.30322 0.0
C116 C 0.05179 0.33573 0.34548 0.0
C117 C 0.00208 0.31405 0.33556 0.0
O118 O 0.00178 0.31999 0.32124 0.0
O119 O 0.02695 0.34117 0.32462 0.0
O120 O 0.04426 0.3547 0.31289 0.0
O121 O 0.03065 0.30941 0.30942 0.0
O122 O 0.03984 0.32833 0.30057 0.0
C123 C 0.03443 0.35198 0.32045 0.0
C124 C 0.03885 0.31781 0.29985 0.0
O125 O 0.01159 0.31389 0.33934 0.0
Mg126 Mg 0.66074 0.97162 0.36299 0.0
O127 O 0.66675 0.96345 0.33986 0.0
O128 O 0.68147 0.96118 0.35179 0.0
Mg129 Mg 0.68507 0.96792 0.38147 0.0
C130 C 0.67455 0.96018 0.33842 0.0
C131 C 0.6469 0.98353 0.34828 0.0
O132 O 0.65118 0.9892 0.36413 0.0
O133 O 0.67723 0.99007 0.35965 0.0
O134 O 0.6916 0.98721 0.37153 0.0
O135 O 0.64783 0.95328 0.37233 0.0
O136 O 0.66647 0.9638 0.38259 0.0
C137 C 0.68812 0.99392 0.36406 0.0
C138 C 0.6564 0.95385 0.38242 0.0
O139 O 0.64975 0.97584 0.34295 0.0
Mg140 Mg 0.03345 0.69837 0.32139 0.0
O141 O 0.04771 0.70657 0.34465 0.0
O142 O 0.06481 0.71003 0.33231 0.0
Mg143 Mg 0.06163 0.70404 0.30218 0.0
C144 C 0.0589 0.71038 0.3459 0.0
C145 C 0.01072 0.69575 0.3367 0.0
O146 O 0.01263 0.70231 0.32214 0.0
O147 O 0.03297 0.68041 0.32388 0.0
O148 O 0.04974 0.68426 0.31017 0.0
O149 O 0.03754 0.71674 0.31285 0.0
O150 O 0.04656 0.70725 0.30222 0.0
C151 C 0.04006 0.67702 0.31796 0.0
C152 C 0.0457 0.71684 0.30277 0.0
O153 O 0.01822 0.69254 0.34113 0.0
Mg154 Mg 0.30468 0.34071 0.37206 0.0
O155 O 0.29266 0.33737 0.34661 0.0
O156 O 0.27434 0.32283 0.35338 0.0
Mg157 Mg 0.27462 0.31682 0.38251 0.0
C158 C 0.28165 0.33045 0.3423 0.0
C159 C 0.32802 0.36257 0.35864 0.0
O160 O 0.32488 0.36792 0.37103 0.0
O161 O 0.30479 0.32332 0.36611 0.0
O162 O 0.28654 0.30907 0.3737 0.0
O163 O 0.30022 0.35428 0.38279 0.0
O164 O 0.29005 0.33485 0.38878 0.0
C165 C 0.29696 0.31226 0.36804 0.0
C166 C 0.29113 0.34541 0.39026 0.0
O167 O 0.32135 0.35131 0.35543 0.0
Mg168 Mg 0.34311 0.02861 0.65329 0.0
O169 O 0.33743 0.03655 0.677 0.0
O170 O 0.32259 0.03899 0.66602 0.0
Mg171 Mg 0.31852 0.03241 0.63614 0.0
C172 C 0.32971 0.03987 0.67902 0.0
C173 C 0.36494 0.03207 0.67683 0.0
O174 O 0.36908 0.04306 0.67088 0.0
O175 O 0.32661 0.01016 0.65698 0.0
O176 O 0.31228 0.01294 0.64483 0.0
O177 O 0.3557 0.04717 0.64366 0.0
O178 O 0.33696 0.03635 0.63419 0.0
C179 C 0.31575 0.00618 0.65217 0.0
C180 C 0.34688 0.0464 0.63403 0.0
O181 O 0.35425 0.02408 0.67272 0.0
Mg182 Mg 0.97044 0.31301 0.71039 0.0
O183 O 0.9563 0.30326 0.68739 0.0
O184 O 0.93958 0.30259 0.69633 0.0
Mg185 Mg 0.943 0.31197 0.72442 0.0
C186 C 0.94536 0.30015 0.68468 0.0
C187 C 0.99565 0.32359 0.69479 0.0
O188 O 0.99754 0.33149 0.70798 0.0
O189 O 0.97289 0.33114 0.70194 0.0
O190 O 0.95636 0.33023 0.71229 0.0
O191 O 0.96439 0.2955 0.72398 0.0
O192 O 0.9571 0.30753 0.72957 0.0
C193 C 0.96643 0.33592 0.70461 0.0
C194 C 0.95668 0.29739 0.7322 0.0
O195 O 0.98513 0.31489 0.69174 0.0
Mg196 Mg 0.69772 0.65488 0.648 0.0
O197 O 0.71218 0.66256 0.67079 0.0
O198 O 0.7288 0.67701 0.65845 0.0
Mg199 Mg 0.72512 0.67797 0.62794 0.0
C200 C 0.72313 0.67078 0.67211 0.0
C201 C 0.67304 0.63839 0.66128 0.0
O202 O 0.6723 0.6363 0.64351 0.0
O203 O 0.6963 0.6718 0.64946 0.0
O204 O 0.71256 0.68526 0.63519 0.0
O205 O 0.7027 0.64109 0.64064 0.0
O206 O 0.71055 0.65911 0.62851 0.0
C207 C 0.70279 0.68229 0.64314 0.0
C208 C 0.71038 0.64901 0.62987 0.0
O209 O 0.68307 0.64598 0.66851 0.0
Mg210 Mg 0.33037 0.313 0.7 0.0
O211 O 0.3355 0.30544 0.67498 0.0
O212 O 0.35074 0.30319 0.68457 0.0
Mg213 Mg 0.35476 0.30828 0.71492 0.0
C214 C 0.34343 0.30251 0.67203 0.0
C215 C 0.31011 0.31123 0.67373 0.0
O216 O 0.30688 0.29973 0.67384 0.0
O217 O 0.34708 0.33137 0.69721 0.0
O218 O 0.36137 0.32809 0.70808 0.0
O219 O 0.31729 0.29435 0.70846 0.0
O220 O 0.33624 0.30416 0.71729 0.0
C221 C 0.35796 0.33512 0.70164 0.0
C222 C 0.32606 0.29435 0.71717 0.0
O223 O 0.31958 0.31882 0.68237 0.0
Mg224 Mg 0.69837 0.02795 0.65229 0.0
O225 O 0.71207 0.03564 0.67633 0.0
O226 O 0.72911 0.03781 0.66576 0.0
Mg227 Mg 0.7265 0.03184 0.63565 0.0
C228 C 0.72303 0.0387 0.67865 0.0
C229 C 0.67276 0.01797 0.66317 0.0
O230 O 0.67205 0.01541 0.64555 0.0
O231 O 0.69662 0.00946 0.65548 0.0
O232 O 0.71353 0.01226 0.64353 0.0
O233 O 0.70364 0.04647 0.6433 0.0
O234 O 0.71209 0.03611 0.63387 0.0
C235 C 0.70344 0.00546 0.65061 0.0
C236 C 0.7118 0.04603 0.63391 0.0
O237 O 0.68296 0.02321 0.67114 0.0
Mg238 Mg 0.97425 0.68452 0.70074 0.0
O239 O 0.96021 0.67834 0.67717 0.0
O240 O 0.94285 0.6645 0.68844 0.0
Mg241 Mg 0.94565 0.66164 0.71838 0.0
C242 C 0.94904 0.67088 0.67528 0.0
C243 C 0.99473 0.70507 0.67909 0.0
O244 O 0.99081 0.71136 0.6879 0.0
O245 O 0.97472 0.66703 0.69808 0.0
O246 O 0.95713 0.6535 0.70919 0.0
O247 O 0.96979 0.69855 0.70941 0.0
O248 O 0.96109 0.68003 0.71984 0.0
C249 C 0.96712 0.65625 0.70223 0.0
C250 C 0.96171 0.69039 0.71941 0.0
O251 O 0.98944 0.6937 0.6809 0.0
H252 H 0.23342 0.36358 0.14192 0.0
N253 N 0.21668 0.34526 0.12201 0.0
H254 H 0.24164 0.36285 0.17197 0.0
H255 H 0.20835 0.32543 0.14373 0.0
H256 H 0.21668 0.32453 0.17326 0.0
H257 H 0.2181 0.32476 0.11626 0.0
H258 H 0.23144 0.32258 0.09545 0.0
H259 H 0.22977 0.36047 0.0966 0.0
H260 H 0.24326 0.35838 0.07573 0.0
H261 H 0.20665 0.35884 0.12081 0.0
H262 H 0.19864 0.32196 0.11509 0.0
H263 H 0.18557 0.35232 0.11628 0.0
H264 H 0.17752 0.31523 0.11167 0.0
H265 H 0.12806 0.33378 0.13119 0.0
H266 H 0.11733 0.33127 0.15912 0.0
H267 H 0.10687 0.29346 0.15886 0.0
H268 H 0.11826 0.29623 0.13106 0.0
H269 H 0.10923 0.30309 0.0923 0.0
H270 H 0.09849 0.31048 0.07393 0.0
H271 H 0.1281 0.34689 0.08099 0.0
H272 H 0.13854 0.33945 0.09997 0.0
H273 H 0.14687 0.33586 0.13103 0.0
H274 H 0.16787 0.34257 0.1323 0.0
H275 H 0.16219 0.31454 0.09283 0.0
N276 N 0.12935 0.3161 0.11143 0.0
H277 H 0.14079 0.30737 0.09242 0.0
C278 C 0.22029 0.34463 0.14053 0.0
C279 C 0.22962 0.35509 0.1489 0.0
C280 C 0.23436 0.35461 0.16595 0.0
C281 C 0.22989 0.3436 0.17497 0.0
C282 C 0.22026 0.33319 0.16682 0.0
C283 C 0.2155 0.33369 0.1498 0.0
C284 C 0.22299 0.34286 0.10804 0.0
C285 C 0.22335 0.33206 0.10725 0.0
C286 C 0.23105 0.33084 0.0954 0.0
C287 C 0.23847 0.34034 0.08408 0.0
C288 C 0.23758 0.35085 0.08417 0.0
C289 C 0.22992 0.35208 0.09609 0.0
C290 C 0.20422 0.34094 0.11855 0.0
C291 C 0.2003 0.34932 0.11866 0.0
C292 C 0.18824 0.34554 0.11622 0.0
C293 C 0.17976 0.33321 0.11385 0.0
C294 C 0.18376 0.32481 0.1133 0.0
C295 C 0.19588 0.32864 0.1155 0.0
C296 C 0.12405 0.31517 0.12902 0.0
C297 C 0.12373 0.325 0.13728 0.0
C298 C 0.11742 0.32351 0.1532 0.0
C299 C 0.11107 0.31212 0.16109 0.0
C300 C 0.11173 0.30238 0.15321 0.0
C301 C 0.11819 0.30392 0.13732 0.0
C302 C 0.12466 0.32062 0.09753 0.0
C303 C 0.11352 0.31262 0.08946 0.0
C304 C 0.1074 0.31689 0.07893 0.0
C305 C 0.11237 0.32932 0.07607 0.0
C306 C 0.12391 0.33728 0.08318 0.0
C307 C 0.12998 0.333 0.09389 0.0
C308 C 0.14208 0.32089 0.11179 0.0
C309 C 0.14999 0.33103 0.12269 0.0
C310 C 0.16215 0.33501 0.12324 0.0
C311 C 0.1668 0.32912 0.11268 0.0
C312 C 0.15893 0.31918 0.10141 0.0
C313 C 0.14671 0.31512 0.10104 0.0
H314 H 0.71001 0.81053 0.13494 0.0
N315 N 0.69563 0.8167 0.11826 0.0
H316 H 0.70687 0.80011 0.16385 0.0
H317 H 0.67785 0.81198 0.14219 0.0
H318 H 0.6747 0.80171 0.17128 0.0
H319 H 0.67175 0.80063 0.11315 0.0
H320 H 0.66284 0.78331 0.09223 0.0
H321 H 0.70645 0.81131 0.09236 0.0
H322 H 0.69773 0.7933 0.07233 0.0
H323 H 0.71388 0.8386 0.12499 0.0
H324 H 0.6767 0.81998 0.10874 0.0
H325 H 0.71406 0.85777 0.12529 0.0
H326 H 0.67691 0.83901 0.10824 0.0
H327 H 0.71307 0.91014 0.14669 0.0
H328 H 0.70983 0.91809 0.17541 0.0
H329 H 0.67181 0.89668 0.16552 0.0
H330 H 0.6751 0.88912 0.13689 0.0
H331 H 0.67436 0.88456 0.10619 0.0
H332 H 0.66705 0.89356 0.08424 0.0
H333 H 0.70291 0.92351 0.07904 0.0
H334 H 0.70986 0.91489 0.10246 0.0
H335 H 0.71358 0.89155 0.10947 0.0
H336 H 0.7132 0.87229 0.10663 0.0
H337 H 0.6778 0.85412 0.12844 0.0
N338 N 0.69677 0.89552 0.12195 0.0
H339 H 0.67808 0.87323 0.13038 0.0
C340 C 0.6942 0.812 0.13641 0.0
C341 C 0.70241 0.8088 0.14301 0.0
C342 C 0.70061 0.8029 0.15955 0.0
C343 C 0.69051 0.80005 0.16987 0.0
C344 C 0.68249 0.80365 0.16355 0.0
C345 C 0.68431 0.80958 0.14697 0.0
C346 C 0.68982 0.80749 0.10408 0.0
C347 C 0.67746 0.79946 0.10374 0.0
C348 C 0.67238 0.78933 0.09197 0.0
C349 C 0.67956 0.7867 0.08074 0.0
C350 C 0.69186 0.79504 0.08055 0.0
C351 C 0.69689 0.80534 0.09204 0.0
C352 C 0.69538 0.82781 0.11675 0.0
C353 C 0.70582 0.83867 0.12118 0.0
C354 C 0.7059 0.84962 0.12124 0.0
C355 C 0.6955 0.84998 0.11675 0.0
C356 C 0.68505 0.83908 0.11203 0.0
C357 C 0.68495 0.82811 0.11214 0.0
C358 C 0.69441 0.89902 0.13958 0.0
C359 C 0.70405 0.90708 0.15088 0.0
C360 C 0.70217 0.91158 0.16729 0.0
C361 C 0.69055 0.90808 0.17272 0.0
C362 C 0.68088 0.89973 0.16161 0.0
C363 C 0.68277 0.89528 0.14521 0.0
C364 C 0.69261 0.8993 0.10641 0.0
C365 C 0.68064 0.89308 0.10038 0.0
C366 C 0.6765 0.89819 0.08751 0.0
C367 C 0.68432 0.90946 0.08002 0.0
C368 C 0.69651 0.91506 0.08493 0.0
C369 C 0.70056 0.91009 0.09814 0.0
C370 C 0.69598 0.88391 0.12032 0.0
C371 C 0.70574 0.88337 0.11354 0.0
C372 C 0.70552 0.87237 0.11206 0.0
C373 C 0.6955 0.86162 0.11746 0.0
C374 C 0.68562 0.86216 0.12396 0.0
C375 C 0.68581 0.87317 0.12527 0.0
H376 H 0.13231 0.78802 0.13215 0.0
N377 N 0.13362 0.80588 0.11256 0.0
H378 H 0.12168 0.78018 0.16049 0.0
H379 H 0.12136 0.81472 0.13131 0.0
H380 H 0.11127 0.80745 0.16008 0.0
H381 H 0.11492 0.80787 0.09894 0.0
H382 H 0.1006 0.79482 0.07515 0.0
H383 H 0.13557 0.79043 0.09058 0.0
H384 H 0.12113 0.77697 0.06742 0.0
H385 H 0.15653 0.81323 0.11684 0.0
H386 H 0.13217 0.82625 0.10685 0.0
H387 H 0.17303 0.83397 0.11995 0.0
H388 H 0.14839 0.84699 0.1111 0.0
H389 H 0.21612 0.88697 0.15062 0.0
H390 H 0.22519 0.89548 0.18053 0.0
H391 H 0.20356 0.91233 0.18474 0.0
H392 H 0.1942 0.9034 0.15485 0.0
H393 H 0.21032 0.91251 0.11715 0.0
H394 H 0.228 0.92151 0.09841 0.0
H395 H 0.22832 0.88789 0.09828 0.0
H396 H 0.21093 0.87914 0.11758 0.0
H397 H 0.19627 0.87004 0.14842 0.0
H398 H 0.18019 0.84977 0.1418 0.0
H399 H 0.16611 0.86323 0.10016 0.0
N400 N 0.19992 0.89089 0.13185 0.0
H401 H 0.18205 0.8838 0.10765 0.0
C402 C 0.12775 0.80199 0.12972 0.0
C403 C 0.12777 0.7923 0.13829 0.0
C404 C 0.12176 0.78792 0.15455 0.0
C405 C 0.11567 0.79323 0.16271 0.0
C406 C 0.11575 0.80304 0.15412 0.0
C407 C 0.12164 0.80732 0.1377 0.0
C408 C 0.12636 0.80014 0.09642 0.0
C409 C 0.11655 0.80145 0.09164 0.0
C410 C 0.10827 0.79385 0.07817 0.0
C411 C 0.10959 0.78472 0.06941 0.0
C412 C 0.11984 0.78397 0.07356 0.0
C413 C 0.12812 0.79163 0.08687 0.0
C414 C 0.14315 0.81818 0.11185 0.0
C415 C 0.15479 0.8206 0.11522 0.0
C416 C 0.16416 0.83247 0.11724 0.0
C417 C 0.16204 0.84221 0.1162 0.0
C418 C 0.1504 0.83976 0.11195 0.0
C419 C 0.14105 0.82785 0.10966 0.0
C420 C 0.20438 0.89451 0.15047 0.0
C421 C 0.21314 0.8923 0.15807 0.0
C422 C 0.21843 0.89729 0.17515 0.0
C423 C 0.21521 0.90471 0.18497 0.0
C424 C 0.20617 0.90656 0.17765 0.0
C425 C 0.20082 0.90149 0.16057 0.0
C426 C 0.20927 0.89519 0.1187 0.0
C427 C 0.21411 0.90705 0.11278 0.0
C428 C 0.22418 0.91214 0.10202 0.0
C429 C 0.22961 0.90543 0.09686 0.0
C430 C 0.22447 0.89337 0.10223 0.0
C431 C 0.21443 0.8883 0.11311 0.0
C432 C 0.19034 0.87862 0.12868 0.0
C433 C 0.18973 0.86879 0.13801 0.0
C434 C 0.18053 0.85705 0.13399 0.0
C435 C 0.17184 0.85478 0.12033 0.0
C436 C 0.17252 0.86461 0.11094 0.0
C437 C 0.18165 0.87638 0.11514 0.0
H438 H 0.35392 0.21785 0.86863 0.0
N439 N 0.33937 0.19866 0.88737 0.0
H440 H 0.34899 0.22625 0.84244 0.0
H441 H 0.31754 0.18893 0.87005 0.0
H442 H 0.31256 0.19682 0.8431 0.0
H443 H 0.32274 0.20402 0.89992 0.0
H444 H 0.32605 0.21874 0.92407 0.0
H445 H 0.35689 0.20755 0.91256 0.0
H446 H 0.35995 0.22162 0.93784 0.0
H447 H 0.34643 0.1864 0.86665 0.0
H448 H 0.32212 0.18198 0.90935 0.0
H449 H 0.33979 0.16496 0.86702 0.0
H450 H 0.31613 0.16068 0.91102 0.0
H451 H 0.33544 0.11175 0.88247 0.0
H452 H 0.33738 0.1021 0.85468 0.0
H453 H 0.30014 0.08803 0.84137 0.0
H454 H 0.29831 0.09808 0.86905 0.0
H455 H 0.30218 0.09058 0.91116 0.0
H456 H 0.30863 0.0822 0.93565 0.0
H457 H 0.34257 0.11531 0.93927 0.0
H458 H 0.33634 0.12335 0.91448 0.0
H459 H 0.33672 0.13036 0.88486 0.0
H460 H 0.34191 0.15124 0.88379 0.0
H461 H 0.30594 0.14135 0.8979 0.0
N462 N 0.31515 0.11114 0.8942 0.0
H463 H 0.30109 0.12033 0.90036 0.0
C464 C 0.33617 0.20275 0.87112 0.0
C465 C 0.34491 0.2132 0.86298 0.0
C466 C 0.34206 0.21791 0.84791 0.0
C467 C 0.33037 0.21216 0.84045 0.0
C468 C 0.32162 0.20156 0.84854 0.0
C469 C 0.32446 0.19695 0.86384 0.0
C470 C 0.3398 0.20503 0.90408 0.0
C471 C 0.33083 0.20774 0.90825 0.0
C472 C 0.3327 0.2161 0.92229 0.0
C473 C 0.34344 0.22168 0.93271 0.0
C474 C 0.35177 0.21787 0.92972 0.0
C475 C 0.35001 0.20973 0.91541 0.0
C476 C 0.33497 0.18586 0.88812 0.0
C477 C 0.33975 0.18078 0.87627 0.0
C478 C 0.33601 0.16852 0.87667 0.0
C479 C 0.32758 0.16102 0.88934 0.0
C480 C 0.32257 0.16609 0.90099 0.0
C481 C 0.32611 0.17836 0.90022 0.0
C482 C 0.31672 0.1058 0.87769 0.0
C483 C 0.32774 0.10682 0.87344 0.0
C484 C 0.32884 0.10125 0.85759 0.0
C485 C 0.31891 0.09435 0.8459 0.0
C486 C 0.30791 0.09327 0.85021 0.0
C487 C 0.30686 0.09902 0.86591 0.0
C488 C 0.31867 0.10755 0.91075 0.0
C489 C 0.31093 0.0961 0.9175 0.0
C490 C 0.31462 0.09136 0.93158 0.0
C491 C 0.32619 0.09804 0.93935 0.0
C492 C 0.33369 0.10982 0.93336 0.0
C493 C 0.33005 0.11449 0.91913 0.0
C494 C 0.31849 0.12369 0.89297 0.0
C495 C 0.32993 0.13259 0.8879 0.0
C496 C 0.33286 0.14464 0.88705 0.0
C497 C 0.32434 0.1481 0.8906 0.0
C498 C 0.31283 0.13913 0.89537 0.0
C499 C 0.30999 0.12708 0.89665 0.0
H500 H 0.78401 0.11096 0.88374 0.0
N501 N 0.80292 0.1103 0.9 0.0
H502 H 0.77421 0.10156 0.85468 0.0
H503 H 0.80927 0.09882 0.87595 0.0
H504 H 0.79919 0.08897 0.84679 0.0
H505 H 0.79568 0.08971 0.91714 0.0
H506 H 0.77919 0.08002 0.93821 0.0
H507 H 0.79067 0.12054 0.91504 0.0
H508 H 0.77437 0.11104 0.93627 0.0
H509 H 0.80294 0.12927 0.88216 0.0
H510 H 0.82232 0.12042 0.92161 0.0
H511 H 0.81737 0.15043 0.88624 0.0
H512 H 0.83665 0.14193 0.92651 0.0
H513 H 0.86336 0.2193 0.89926 0.0
H514 H 0.87313 0.22947 0.87144 0.0
H515 H 0.87854 0.19967 0.85709 0.0
H516 H 0.86955 0.19005 0.88544 0.0
H517 H 0.88361 0.20261 0.91547 0.0
H518 H 0.89885 0.21639 0.93753 0.0
H519 H 0.87239 0.22132 0.96548 0.0
H520 H 0.85735 0.208 0.94266 0.0
H521 H 0.83752 0.18813 0.9093 0.0
H522 H 0.82333 0.16649 0.90741 0.0
H523 H 0.85242 0.15929 0.91312 0.0
N524 N 0.86099 0.19897 0.91212 0.0
H525 H 0.86644 0.18099 0.91598 0.0
C526 C 0.79747 0.10563 0.88209 0.0
C527 C 0.7875 0.1063 0.87578 0.0
C528 C 0.78181 0.1008 0.85914 0.0
C529 C 0.78581 0.09437 0.84847 0.0
C530 C 0.79593 0.09393 0.85459 0.0
C531 C 0.80168 0.09952 0.87124 0.0
C532 C 0.79443 0.1058 0.91449 0.0
C533 C 0.7912 0.09449 0.92158 0.0
C534 C 0.78181 0.089 0.93363 0.0
C535 C 0.77542 0.09474 0.93879 0.0
C536 C 0.77901 0.10633 0.93234 0.0
C537 C 0.78842 0.11182 0.92031 0.0
C538 C 0.81155 0.12306 0.90148 0.0
C539 C 0.81027 0.13178 0.89172 0.0
C540 C 0.81853 0.14403 0.89426 0.0
C541 C 0.82816 0.14796 0.90685 0.0
C542 C 0.82945 0.13926 0.91655 0.0
C543 C 0.82124 0.12696 0.91382 0.0
C544 C 0.86557 0.20388 0.89447 0.0
C545 C 0.86654 0.21493 0.88997 0.0
C546 C 0.87207 0.22068 0.87396 0.0
C547 C 0.87663 0.2154 0.86188 0.0
C548 C 0.87532 0.20412 0.86615 0.0
C549 C 0.86999 0.19849 0.88236 0.0
C550 C 0.86938 0.20451 0.92725 0.0
C551 C 0.88104 0.20646 0.92656 0.0
C552 C 0.88976 0.21432 0.9393 0.0
C553 C 0.88692 0.22021 0.95309 0.0
C554 C 0.87497 0.21723 0.95475 0.0
C555 C 0.86632 0.20952 0.94186 0.0
C556 C 0.85297 0.18615 0.91261 0.0
C557 C 0.84077 0.18184 0.91038 0.0
C558 C 0.83271 0.16947 0.90909 0.0
C559 C 0.83672 0.1611 0.90975 0.0
C560 C 0.84898 0.16545 0.91264 0.0
C561 C 0.85704 0.17786 0.91419 0.0
H562 H 0.79828 0.71482 0.87748 0.0
N563 N 0.80274 0.70041 0.89766 0.0
H564 H 0.78922 0.7107 0.84662 0.0
H565 H 0.79723 0.68063 0.87581 0.0
H566 H 0.7881 0.67639 0.84501 0.0
H567 H 0.78466 0.67711 0.90171 0.0
H568 H 0.76801 0.67049 0.92219 0.0
H569 H 0.79999 0.71344 0.92373 0.0
H570 H 0.78322 0.70686 0.94432 0.0
H571 H 0.82485 0.71769 0.89242 0.0
H572 H 0.80437 0.68117 0.91072 0.0
H573 H 0.84314 0.717 0.89697 0.0
H574 H 0.82264 0.68059 0.91634 0.0
H575 H 0.90038 0.71739 0.90148 0.0
H576 H 0.91035 0.72056 0.87216 0.0
H577 H 0.87903 0.68945 0.84882 0.0
H578 H 0.86917 0.68644 0.87787 0.0
H579 H 0.8733 0.67611 0.90244 0.0
H580 H 0.88126 0.66502 0.91866 0.0
H581 H 0.89893 0.69463 0.95805 0.0
H582 H 0.89086 0.70563 0.94174 0.0
H583 H 0.87523 0.71725 0.91958 0.0
H584 H 0.85636 0.71715 0.91905 0.0
H585 H 0.8381 0.67955 0.90159 0.0
N586 N 0.87903 0.69951 0.90989 0.0
H587 H 0.8569 0.6796 0.90343 0.0
C588 C 0.79838 0.69806 0.87894 0.0
C589 C 0.79621 0.7065 0.87033 0.0
C590 C 0.79108 0.70414 0.85273 0.0
C591 C 0.78792 0.6932 0.84345 0.0
C592 C 0.79033 0.68483 0.85193 0.0
C593 C 0.79558 0.68726 0.86949 0.0
C594 C 0.79359 0.69585 0.91113 0.0
C595 C 0.78454 0.68366 0.91109 0.0
C596 C 0.77496 0.67988 0.92276 0.0
C597 C 0.77424 0.68818 0.93473 0.0
C598 C 0.78356 0.70024 0.93534 0.0
C599 C 0.79313 0.70402 0.9236 0.0
C600 C 0.81326 0.69961 0.90139 0.0
C601 C 0.82434 0.70959 0.89771 0.0
C602 C 0.8348 0.70919 0.9005 0.0
C603 C 0.83444 0.69878 0.90726 0.0
C604 C 0.82328 0.68873 0.91098 0.0
C605 C 0.81278 0.6891 0.90794 0.0
C606 C 0.88406 0.70175 0.89194 0.0
C607 C 0.89564 0.71139 0.88991 0.0
C608 C 0.90132 0.71314 0.87323 0.0
C609 C 0.89547 0.70523 0.8582 0.0
C610 C 0.88371 0.69579 0.86006 0.0
C611 C 0.87806 0.69403 0.87678 0.0
C612 C 0.88153 0.69176 0.9209 0.0
C613 C 0.87863 0.6801 0.9148 0.0
C614 C 0.88327 0.6738 0.92402 0.0
C615 C 0.89082 0.67899 0.93953 0.0
C616 C 0.89306 0.69032 0.94624 0.0
C617 C 0.88847 0.69663 0.93696 0.0
C618 C 0.86753 0.69854 0.91131 0.0
C619 C 0.8671 0.70896 0.91596 0.0
C620 C 0.85631 0.70889 0.91542 0.0
C621 C 0.84568 0.69841 0.90987 0.0
C622 C 0.84606 0.68779 0.90599 0.0
C623 C 0.85687 0.68782 0.90686 0.0
H624 H 0.76727 0.61723 0.44631 0.0
N625 N 0.78822 0.63524 0.43646 0.0
H626 H 0.7579 0.61458 0.47611 0.0
H627 H 0.79847 0.6492 0.46767 0.0
H628 H 0.78926 0.64662 0.49717 0.0
H629 H 0.79095 0.65763 0.44331 0.0
H630 H 0.78052 0.66621 0.42704 0.0
H631 H 0.77741 0.6281 0.40383 0.0
H632 H 0.76749 0.63699 0.38671 0.0
H633 H 0.79361 0.61835 0.42854 0.0
H634 H 0.80953 0.65641 0.44074 0.0
H635 H 0.81322 0.62011 0.4297 0.0
H636 H 0.82913 0.65818 0.44338 0.0
H637 H 0.87067 0.62692 0.47532 0.0
H638 H 0.88004 0.63218 0.50595 0.0
H639 H 0.88336 0.66741 0.50269 0.0
H640 H 0.87381 0.66196 0.47207 0.0
H641 H 0.88389 0.66413 0.44418 0.0
H642 H 0.90118 0.67006 0.42535 0.0
H643 H 0.8893 0.63254 0.41317 0.0
H644 H 0.87185 0.62664 0.43208 0.0
H645 H 0.84569 0.62298 0.4584 0.0
H646 H 0.82675 0.62209 0.45246 0.0
H647 H 0.84544 0.65791 0.43043 0.0
N648 N 0.86733 0.64101 0.45278 0.0
H649 H 0.86435 0.65894 0.43751 0.0
C650 C 0.78357 0.63332 0.45469 0.0
C651 C 0.77216 0.62355 0.45748 0.0
C652 C 0.76682 0.62209 0.47444 0.0
C653 C 0.77286 0.6304 0.48896 0.0
C654 C 0.78445 0.63997 0.48633 0.0
C655 C 0.78974 0.64147 0.46936 0.0
C656 C 0.78475 0.64206 0.42494 0.0
C657 C 0.78602 0.65317 0.43081 0.0
C658 C 0.78007 0.65812 0.42138 0.0
C659 C 0.7729 0.65216 0.40574 0.0
C660 C 0.77261 0.64164 0.39901 0.0
C661 C 0.77841 0.63662 0.40861 0.0
C662 C 0.80008 0.63715 0.43486 0.0
C663 C 0.80139 0.6271 0.4314 0.0
C664 C 0.81261 0.62813 0.43234 0.0
C665 C 0.8228 0.63923 0.43716 0.0
C666 C 0.82154 0.64948 0.43962 0.0
C667 C 0.81029 0.64847 0.43829 0.0
C668 C 0.87163 0.64404 0.47146 0.0
C669 C 0.87325 0.63569 0.48139 0.0
C670 C 0.87857 0.63871 0.49886 0.0
C671 C 0.88247 0.65023 0.50668 0.0
C672 C 0.88055 0.65852 0.4969 0.0
C673 C 0.87508 0.65542 0.47945 0.0
C674 C 0.87646 0.64489 0.43938 0.0
C675 C 0.88475 0.65716 0.43705 0.0
C676 C 0.89468 0.66056 0.42628 0.0
C677 C 0.89661 0.65176 0.41785 0.0
C678 C 0.88808 0.63951 0.41962 0.0
C679 C 0.87808 0.63613 0.43025 0.0
C680 C 0.85643 0.6409 0.44824 0.0
C681 C 0.84566 0.63061 0.45223 0.0
C682 C 0.83483 0.6301 0.44863 0.0
C683 C 0.83447 0.63986 0.44066 0.0
C684 C 0.84533 0.65024 0.43667 0.0
C685 C 0.85621 0.6508 0.44057 0.0
H686 H 0.38128 0.14902 0.4719 0.0
N687 N 0.36644 0.1557 0.45822 0.0
H688 H 0.37913 0.13795 0.49992 0.0
H689 H 0.34974 0.15065 0.4843 0.0
H690 H 0.34758 0.1397 0.51245 0.0
H691 H 0.34331 0.13709 0.45666 0.0
H692 H 0.33482 0.12021 0.43491 0.0
H693 H 0.37609 0.15376 0.42735 0.0
H694 H 0.36738 0.13709 0.40463 0.0
H695 H 0.38189 0.17747 0.47171 0.0
H696 H 0.3473 0.15754 0.44485 0.0
H697 H 0.37994 0.19542 0.47298 0.0
H698 H 0.34568 0.17557 0.44474 0.0
H699 H 0.37451 0.25215 0.4738 0.0
H700 H 0.37223 0.26166 0.50165 0.0
H701 H 0.33961 0.22879 0.51261 0.0
H702 H 0.34194 0.2194 0.48498 0.0
H703 H 0.33564 0.2223 0.45566 0.0
H704 H 0.32624 0.22811 0.43206 0.0
H705 H 0.35996 0.24773 0.40523 0.0
H706 H 0.36942 0.24228 0.42963 0.0
H707 H 0.379 0.22882 0.45692 0.0
H708 H 0.3806 0.21063 0.45579 0.0
H709 H 0.34247 0.18891 0.46184 0.0
N710 N 0.35952 0.23038 0.45973 0.0
H711 H 0.34096 0.20708 0.46132 0.0
C712 C 0.36571 0.15064 0.47599 0.0
C713 C 0.37405 0.1472 0.4809 0.0
C714 C 0.37282 0.14092 0.49693 0.0
C715 C 0.36316 0.13792 0.50838 0.0
C716 C 0.35504 0.14178 0.50381 0.0
C717 C 0.35631 0.14809 0.48778 0.0
C718 C 0.36048 0.14663 0.44383 0.0
C719 C 0.34863 0.13724 0.44532 0.0
C720 C 0.3437 0.12761 0.43263 0.0
C721 C 0.35043 0.12718 0.418 0.0
C722 C 0.36202 0.13698 0.41591 0.0
C723 C 0.36699 0.14657 0.42876 0.0
C724 C 0.36488 0.16613 0.45809 0.0
C725 C 0.37395 0.17701 0.46586 0.0
C726 C 0.37284 0.18731 0.4664 0.0
C727 C 0.36269 0.18707 0.4588 0.0
C728 C 0.35356 0.17613 0.451 0.0
C729 C 0.35456 0.16574 0.45085 0.0
C730 C 0.35845 0.2351 0.47722 0.0
C731 C 0.36698 0.24697 0.4824 0.0
C732 C 0.36566 0.25236 0.49828 0.0
C733 C 0.35569 0.24599 0.50923 0.0
C734 C 0.3473 0.23398 0.5043 0.0
C735 C 0.34868 0.22856 0.48849 0.0
C736 C 0.35332 0.23207 0.44457 0.0
C737 C 0.34101 0.22773 0.44465 0.0
C738 C 0.3356 0.23099 0.43095 0.0
C739 C 0.34236 0.23851 0.41678 0.0
C740 C 0.35453 0.24214 0.41613 0.0
C741 C 0.35994 0.23898 0.42995 0.0
C742 C 0.35995 0.21936 0.45956 0.0
C743 C 0.37102 0.2201 0.45798 0.0
C744 C 0.3719 0.20967 0.45751 0.0
C745 C 0.36168 0.1982 0.45895 0.0
C746 C 0.35054 0.19751 0.46049 0.0
C747 C 0.34966 0.20796 0.46054 0.0
H748 H 0.80239 0.11797 0.46567 0.0
N749 N 0.80336 0.13563 0.44596 0.0
H750 H 0.7916 0.10986 0.49378 0.0
H751 H 0.79071 0.14409 0.46457 0.0
H752 H 0.78058 0.13667 0.4932 0.0
H753 H 0.78416 0.13654 0.43183 0.0
H754 H 0.76998 0.12267 0.40862 0.0
H755 H 0.80592 0.12019 0.42489 0.0
H756 H 0.79155 0.10581 0.40254 0.0
H757 H 0.8265 0.14425 0.45052 0.0
H758 H 0.80063 0.15519 0.43935 0.0
H759 H 0.84215 0.16538 0.45366 0.0
H760 H 0.81594 0.17627 0.44375 0.0
H761 H 0.88285 0.21905 0.48386 0.0
H762 H 0.89211 0.22701 0.51382 0.0
H763 H 0.86886 0.24173 0.52176 0.0
H764 H 0.85928 0.23326 0.49182 0.0
H765 H 0.87321 0.24368 0.45286 0.0
H766 H 0.89014 0.25453 0.43291 0.0
H767 H 0.89519 0.22362 0.43101 0.0
H768 H 0.87839 0.21293 0.45117 0.0
H769 H 0.86324 0.20154 0.48291 0.0
H770 H 0.84831 0.18095 0.47544 0.0
H771 H 0.83313 0.19331 0.43383 0.0
N772 N 0.8655 0.22212 0.46704 0.0
H773 H 0.84787 0.21419 0.44221 0.0
C774 C 0.79751 0.13169 0.46312 0.0
C775 C 0.79768 0.1221 0.47173 0.0
C776 C 0.79158 0.11756 0.48788 0.0
C777 C 0.78525 0.12265 0.49592 0.0
C778 C 0.78522 0.13241 0.48734 0.0
C779 C 0.79116 0.13679 0.471 0.0
C780 C 0.79618 0.12945 0.42993 0.0
C781 C 0.78608 0.1302 0.42492 0.0
C782 C 0.77785 0.12209 0.41183 0.0
C783 C 0.77947 0.11295 0.40377 0.0
C784 C 0.79 0.11277 0.4081 0.0
C785 C 0.79826 0.12097 0.42097 0.0
C786 C 0.81241 0.14813 0.44498 0.0
C787 C 0.82424 0.15125 0.44863 0.0
C788 C 0.83312 0.16334 0.45068 0.0
C789 C 0.8303 0.1726 0.44943 0.0
C790 C 0.8185 0.16944 0.44478 0.0
C791 C 0.80965 0.15732 0.44241 0.0
C792 C 0.87026 0.2255 0.48557 0.0
C793 C 0.87957 0.2238 0.49211 0.0
C794 C 0.88496 0.22847 0.50925 0.0
C795 C 0.88134 0.23513 0.52017 0.0
C796 C 0.8718 0.23653 0.51383 0.0
C797 C 0.86632 0.23173 0.49672 0.0
C798 C 0.87454 0.22755 0.45349 0.0
C799 C 0.87787 0.23921 0.44786 0.0
C800 C 0.88751 0.24536 0.43644 0.0
C801 C 0.89403 0.23994 0.43045 0.0
C802 C 0.89043 0.22808 0.43559 0.0
C803 C 0.88077 0.22193 0.44701 0.0
C804 C 0.85667 0.20961 0.46326 0.0
C805 C 0.85673 0.19999 0.47228 0.0
C806 C 0.84818 0.18806 0.46778 0.0
C807 C 0.8395 0.18537 0.4539 0.0
C808 C 0.83954 0.19499 0.44477 0.0
C809 C 0.84799 0.20694 0.44948 0.0
H810 H 0.03084 0.55616 0.20722 0.0
N811 N 0.01463 0.53848 0.22682 0.0
H812 H 0.02759 0.56472 0.17957 0.0
H813 H 0.99344 0.52996 0.20801 0.0
H814 H 0.98986 0.53897 0.18116 0.0
H815 H 0.99405 0.53761 0.23767 0.0
H816 H 0.99268 0.55071 0.26094 0.0
H817 H 0.03121 0.55221 0.25186 0.0
H818 H 0.02984 0.56526 0.27548 0.0
H819 H 0.02413 0.52799 0.20733 0.0
H820 H 0.99687 0.52021 0.24661 0.0
H821 H 0.0187 0.50685 0.2063 0.0
H822 H 0.992 0.49928 0.24677 0.0
H823 H 0.01434 0.45283 0.21565 0.0
H824 H 0.01763 0.44445 0.18762 0.0
H825 H 0.98106 0.43128 0.17033 0.0
H826 H 0.97803 0.44016 0.19815 0.0
H827 H 0.97874 0.43043 0.24003 0.0
H828 H 0.98316 0.42025 0.26433 0.0
H829 H 0.01796 0.45185 0.27272 0.0
H830 H 0.01368 0.46168 0.24808 0.0
H831 H 0.01539 0.47149 0.22079 0.0
H832 H 0.0202 0.49236 0.22217 0.0
H833 H 0.98315 0.48083 0.23105 0.0
N834 N 0.99343 0.45151 0.2257 0.0
H835 H 0.97864 0.45985 0.23111 0.0
C836 C 0.0124 0.54261 0.20978 0.0
C837 C 0.02192 0.5523 0.20138 0.0
C838 C 0.01999 0.55724 0.1857 0.0
C839 C 0.00841 0.55272 0.17824 0.0
C840 C 0.9989 0.54268 0.18638 0.0
C841 C 0.0009 0.5376 0.2019 0.0
C842 C 0.01283 0.54406 0.24284 0.0
C843 C 0.00187 0.54344 0.24602 0.0
C844 C 0.00107 0.55092 0.25937 0.0
C845 C 0.01117 0.55905 0.26991 0.0
C846 C 0.02188 0.55899 0.26767 0.0
C847 C 0.02269 0.55159 0.25418 0.0
C848 C 0.01102 0.52582 0.22702 0.0
C849 C 0.01705 0.52173 0.21588 0.0
C850 C 0.014 0.50962 0.21549 0.0
C851 C 0.00498 0.50126 0.22663 0.0
C852 C 0.99889 0.50536 0.2378 0.0
C853 C 0.00177 0.51746 0.23786 0.0
C854 C 0.99591 0.4472 0.20891 0.0
C855 C 0.00709 0.44833 0.2057 0.0
C856 C 0.00892 0.44339 0.18973 0.0
C857 C 0.99961 0.43715 0.17668 0.0
C858 C 0.98849 0.43619 0.17989 0.0
C859 C 0.9867 0.44119 0.19581 0.0
C860 C 0.99579 0.44679 0.24208 0.0
C861 C 0.98722 0.43522 0.24738 0.0
C862 C 0.98976 0.42945 0.26135 0.0
C863 C 0.00097 0.4352 0.27042 0.0
C864 C 0.00932 0.44708 0.2658 0.0
C865 C 0.00681 0.45278 0.2517 0.0
C866 C 0.99663 0.46405 0.22616 0.0
C867 C 0.00831 0.4734 0.22332 0.0
C868 C 0.01102 0.48542 0.22384 0.0
C869 C 0.00207 0.4884 0.22663 0.0
C870 C 0.99035 0.47898 0.22923 0.0
C871 C 0.98771 0.46696 0.22912 0.0
H872 H 0.56982 0.52467 0.23499 0.0
N873 N 0.54886 0.51871 0.24893 0.0
H874 H 0.57821 0.53558 0.20687 0.0
H875 H 0.53686 0.52395 0.22255 0.0
H876 H 0.54502 0.53449 0.1944 0.0
H877 H 0.54434 0.53745 0.25081 0.0
H878 H 0.55468 0.55518 0.27088 0.0
H879 H 0.56142 0.52068 0.27913 0.0
H880 H 0.57134 0.53816 0.30018 0.0
H881 H 0.54466 0.49627 0.24943 0.0
H882 H 0.52698 0.51716 0.25057 0.0
H883 H 0.52543 0.47766 0.24811 0.0
H884 H 0.50769 0.49868 0.24783 0.0
H885 H 0.46564 0.42194 0.21886 0.0
H886 H 0.45586 0.41492 0.18868 0.0
H887 H 0.45429 0.44769 0.18371 0.0
H888 H 0.46426 0.45472 0.21391 0.0
H889 H 0.45422 0.44953 0.24229 0.0
H890 H 0.43718 0.44041 0.26227 0.0
H891 H 0.44872 0.4162 0.28217 0.0
H892 H 0.46579 0.42538 0.26194 0.0
H893 H 0.49126 0.44749 0.22365 0.0
H894 H 0.51009 0.46631 0.22727 0.0
H895 H 0.49306 0.48106 0.26096 0.0
N896 N 0.47035 0.44197 0.23708 0.0
H897 H 0.47417 0.46257 0.25627 0.0
C898 C 0.55274 0.52344 0.23096 0.0
C899 C 0.5643 0.52659 0.22597 0.0
C900 C 0.56906 0.53279 0.20988 0.0
C901 C 0.56229 0.53597 0.19845 0.0
C902 C 0.55051 0.53232 0.20304 0.0
C903 C 0.54578 0.52616 0.21914 0.0
C904 C 0.5523 0.52779 0.26327 0.0
C905 C 0.55001 0.5374 0.26176 0.0
C906 C 0.55593 0.54757 0.27341 0.0
C907 C 0.56408 0.54827 0.287 0.0
C908 C 0.56541 0.53812 0.28956 0.0
C909 C 0.55963 0.52803 0.27771 0.0
C910 C 0.53728 0.50807 0.24982 0.0
C911 C 0.53658 0.49681 0.24936 0.0
C912 C 0.52556 0.48619 0.24835 0.0
C913 C 0.51492 0.4866 0.24741 0.0
C914 C 0.51564 0.49795 0.24858 0.0
C915 C 0.52671 0.50858 0.24998 0.0
C916 C 0.4656 0.43876 0.2186 0.0
C917 C 0.46333 0.42766 0.21111 0.0
C918 C 0.45778 0.4237 0.19389 0.0
C919 C 0.45429 0.43076 0.18386 0.0
C920 C 0.45678 0.44203 0.19122 0.0
C921 C 0.46248 0.44605 0.20842 0.0
C922 C 0.46132 0.43814 0.2507 0.0
C923 C 0.45323 0.44242 0.25117 0.0
C924 C 0.44351 0.43723 0.26267 0.0
C925 C 0.44159 0.42755 0.27372 0.0
C926 C 0.44992 0.42357 0.27368 0.0
C927 C 0.4597 0.42885 0.26228 0.0
C928 C 0.48121 0.45345 0.23959 0.0
C929 C 0.49158 0.45483 0.2317 0.0
C930 C 0.5024 0.46558 0.23401 0.0
C931 C 0.50322 0.47524 0.24466 0.0
C932 C 0.4928 0.47391 0.25251 0.0
C933 C 0.4819 0.46319 0.24989 0.0
H934 H 0.52289 0.96312 0.203 0.0
N935 N 0.51575 0.97282 0.22845 0.0
H936 H 0.53477 0.97287 0.17643 0.0
H937 H 0.52218 0.99552 0.21724 0.0
H938 H 0.5338 0.00534 0.19028 0.0
H939 H 0.53248 0.99386 0.24554 0.0
H940 H 0.5488 0.99612 0.26543 0.0
H941 H 0.51713 0.95523 0.24484 0.0
H942 H 0.53329 0.95736 0.26516 0.0
H943 H 0.49496 0.95708 0.21348 0.0
H944 H 0.51173 0.98809 0.25023 0.0
H945 H 0.47611 0.95672 0.21578 0.0
H946 H 0.49268 0.98744 0.25356 0.0
H947 H 0.42112 0.9552 0.2069 0.0
H948 H 0.41497 0.95952 0.17742 0.0
H949 H 0.44258 0.9969 0.18399 0.0
H950 H 0.44878 0.99242 0.21305 0.0
H951 H 0.43977 0.99197 0.24157 0.0
H952 H 0.42653 0.99399 0.26283 0.0
H953 H 0.41063 0.95612 0.27498 0.0
H954 H 0.42336 0.95409 0.25262 0.0
H955 H 0.44138 0.95202 0.23142 0.0
H956 H 0.46025 0.95226 0.23438 0.0
H957 H 0.47892 0.9913 0.23797 0.0
N958 N 0.43802 0.97073 0.23006 0.0
H959 H 0.45982 0.99078 0.23655 0.0
C960 C 0.52165 0.97855 0.21197 0.0
C961 C 0.52512 0.97227 0.2001 0.0
C962 C 0.53184 0.97786 0.18487 0.0
C963 C 0.53519 0.98989 0.18114 0.0
C964 C 0.53144 0.99611 0.19285 0.0
C965 C 0.52474 0.99049 0.20818 0.0
C966 C 0.5236 0.97433 0.24365 0.0
C967 C 0.53239 0.98584 0.25019 0.0
C968 C 0.54174 0.98711 0.26158 0.0
C969 C 0.54246 0.97692 0.26661 0.0
C970 C 0.53313 0.9654 0.26122 0.0
C971 C 0.52381 0.96414 0.24982 0.0
C972 C 0.50468 0.97247 0.23179 0.0
C973 C 0.49446 0.96365 0.2224 0.0
C974 C 0.48367 0.96343 0.22386 0.0
C975 C 0.48276 0.97197 0.23505 0.0
C976 C 0.49304 0.98078 0.2447 0.0
C977 C 0.50393 0.98109 0.24298 0.0
C978 C 0.43538 0.97343 0.21214 0.0
C979 C 0.42591 0.96427 0.20179 0.0
C980 C 0.42237 0.96679 0.18506 0.0
C981 C 0.42824 0.97858 0.1784 0.0
C982 C 0.43795 0.9877 0.18861 0.0
C983 C 0.44149 0.98515 0.20532 0.0
C984 C 0.43229 0.97278 0.24523 0.0
C985 C 0.4335 0.98414 0.24892 0.0
C986 C 0.42596 0.98529 0.26125 0.0
C987 C 0.41728 0.97515 0.27036 0.0
C988 C 0.41692 0.96404 0.26779 0.0
C989 C 0.42428 0.96287 0.25521 0.0
C990 C 0.44926 0.97135 0.23326 0.0
C991 C 0.44957 0.96059 0.23308 0.0
C992 C 0.46039 0.96079 0.23459 0.0
C993 C 0.47121 0.97182 0.23592 0.0
C994 C 0.47081 0.98262 0.23696 0.0
C995 C 0.4599 0.98238 0.23584 0.0
H996 H 0.4376 0.95778 0.78698 0.0
N997 N 0.45872 0.97601 0.7785 0.0
H998 H 0.42688 0.95538 0.81538 0.0
H999 H 0.46783 0.98998 0.80997 0.0
H1000 H 0.45726 0.98761 0.83818 0.0
H1001 H 0.46351 0.9993 0.78333 0.0
H1002 H 0.45377 0.00851 0.7667 0.0
H1003 H 0.44616 0.96789 0.74741 0.0
H1004 H 0.43648 0.97712 0.73044 0.0
H1005 H 0.46381 0.95901 0.76982 0.0
H1006 H 0.48026 0.99674 0.78493 0.0
H1007 H 0.48322 0.96033 0.771 0.0
H1008 H 0.4996 0.99801 0.78754 0.0
H1009 H 0.54198 0.9648 0.81001 0.0
H1010 H 0.55162 0.96831 0.8403 0.0
H1011 H 0.55251 0.00245 0.84521 0.0
H1012 H 0.54279 0.99879 0.81483 0.0
H1013 H 0.55462 0.00318 0.7877 0.0
H1014 H 0.57163 0.01035 0.76774 0.0
H1015 H 0.55747 0.9742 0.74521 0.0
H1016 H 0.5404 0.9671 0.76524 0.0
H1017 H 0.51552 0.96176 0.79754 0.0
H1018 H 0.49671 0.96144 0.79321 0.0
H1019 H 0.51573 0.99792 0.77367 0.0
N1020 N 0.53722 0.97962 0.79161 0.0
H1021 H 0.53453 0.99836 0.7792 0.0
C1022 C 0.45351 0.97398 0.79629 0.0
C1023 C 0.44201 0.96416 0.79828 0.0
C1024 C 0.4359 0.96285 0.81442 0.0
C1025 C 0.44125 0.97133 0.82895 0.0
C1026 C 0.45298 0.98086 0.82729 0.0
C1027 C 0.45904 0.98222 0.81108 0.0
C1028 C 0.45554 0.98286 0.76657 0.0
C1029 C 0.45795 0.99456 0.77146 0.0
C1030 C 0.45234 0.99982 0.76193 0.0
C1031 C 0.44421 0.99347 0.74741 0.0
C1032 C 0.44253 0.98215 0.74176 0.0
C1033 C 0.44814 0.97692 0.75128 0.0
C1034 C 0.47052 0.97766 0.77757 0.0
C1035 C 0.47164 0.96759 0.7734 0.0
C1036 C 0.48275 0.96835 0.77433 0.0
C1037 C 0.49302 0.97921 0.77983 0.0
C1038 C 0.49194 0.98949 0.78323 0.0
C1039 C 0.48081 0.98875 0.78193 0.0
C1040 C 0.54171 0.98151 0.81022 0.0
C1041 C 0.54409 0.97294 0.81779 0.0
C1042 C 0.54957 0.97496 0.83507 0.0
C1043 C 0.55284 0.98567 0.84511 0.0
C1044 C 0.55019 0.99417 0.83769 0.0
C1045 C 0.5446 0.99207 0.8204 0.0
C1046 C 0.54624 0.98454 0.77799 0.0
C1047 C 0.55503 0.99683 0.77825 0.0
C1048 C 0.5648 0.00092 0.76689 0.0
C1049 C 0.56594 0.99282 0.75504 0.0
C1050 C 0.5568 0.98068 0.75408 0.0
C1051 C 0.54706 0.9766 0.7655 0.0
C1052 C 0.5264 0.97996 0.78851 0.0
C1053 C 0.51559 0.96967 0.79233 0.0
C1054 C 0.50484 0.96949 0.78964 0.0
C1055 C 0.50461 0.97959 0.78276 0.0
C1056 C 0.51552 0.98999 0.77907 0.0
C1057 C 0.52632 0.99023 0.78208 0.0
H1058 H 0.97153 0.54061 0.81378 0.0
N1059 N 0.98836 0.54059 0.79363 0.0
H1060 H 0.97412 0.55279 0.84144 0.0
H1061 H 0.0095 0.55567 0.81156 0.0
H1062 H 0.01227 0.5682 0.83893 0.0
H1063 H 0.00798 0.56013 0.78004 0.0
H1064 H 0.00794 0.5735 0.75665 0.0
H1065 H 0.97003 0.5373 0.77278 0.0
H1066 H 0.96969 0.55093 0.75017 0.0
H1067 H 0.98503 0.52357 0.81717 0.0
H1068 H 0.00344 0.53977 0.76753 0.0
H1069 H 0.99298 0.5099 0.81636 0.0
H1070 H 0.01102 0.52595 0.76649 0.0
H1071 H 0.0009 0.4613 0.79762 0.0
H1072 H 0.99951 0.45003 0.82481 0.0
H1073 H 0.03369 0.47912 0.84442 0.0
H1074 H 0.03518 0.49021 0.81659 0.0
H1075 H 0.03375 0.47568 0.77395 0.0
H1076 H 0.02841 0.45987 0.75056 0.0
H1077 H 0.99441 0.45785 0.74184 0.0
H1078 H 0.99952 0.47308 0.76573 0.0
H1079 H 0.99755 0.47849 0.79816 0.0
H1080 H 0.99044 0.4928 0.79916 0.0
H1081 H 0.02462 0.52086 0.78113 0.0
N1082 N 0.01977 0.4831 0.78828 0.0
H1083 H 0.03157 0.50625 0.77964 0.0
C1084 C 0.99028 0.54726 0.81065 0.0
C1085 C 0.98042 0.54654 0.81936 0.0
C1086 C 0.98194 0.55358 0.83503 0.0
C1087 C 0.99341 0.56157 0.84229 0.0
C1088 C 0.00331 0.56209 0.83376 0.0
C1089 C 0.00176 0.55499 0.81806 0.0
C1090 C 0.98897 0.54763 0.77801 0.0
C1091 C 0.99964 0.55792 0.77323 0.0
C1092 C 0.99957 0.56563 0.75994 0.0
C1093 C 0.9888 0.56342 0.75154 0.0
C1094 C 0.97822 0.55287 0.75598 0.0
C1095 C 0.97835 0.54506 0.76899 0.0
C1096 C 0.99376 0.53304 0.7928 0.0
C1097 C 0.99086 0.5243 0.80619 0.0
C1098 C 0.99531 0.51638 0.8056 0.0
C1099 C 0.00265 0.51681 0.79134 0.0
C1100 C 0.00557 0.52551 0.77786 0.0
C1101 C 0.00117 0.5335 0.77851 0.0
C1102 C 0.01825 0.47661 0.80497 0.0
C1103 C 0.00808 0.46531 0.80776 0.0
C1104 C 0.00726 0.4589 0.82347 0.0
C1105 C 0.0165 0.46364 0.83684 0.0
C1106 C 0.02649 0.47511 0.83427 0.0
C1107 C 0.02733 0.4815 0.81847 0.0
C1108 C 0.01711 0.47561 0.77186 0.0
C1109 C 0.02524 0.47199 0.7667 0.0
C1110 C 0.02218 0.46297 0.75323 0.0
C1111 C 0.01089 0.45743 0.74442 0.0
C1112 C 0.00307 0.46169 0.74864 0.0
C1113 C 0.00607 0.47058 0.7623 0.0
C1114 C 0.01517 0.49131 0.78882 0.0
C1115 C 0.00355 0.48769 0.79443 0.0
C1116 C 0.9995 0.49594 0.7951 0.0
C1117 C 0.00698 0.50803 0.79035 0.0
C1118 C 0.01857 0.5116 0.78469 0.0
C1119 C 0.02259 0.5033 0.78391 0.0
H1120 H 0.45629 0.46338 0.79338 0.0
N1121 N 0.45931 0.4855 0.7849 0.0
H1122 H 0.44858 0.4527 0.82162 0.0
H1123 H 0.45342 0.49339 0.81469 0.0
H1124 H 0.44615 0.48295 0.84353 0.0
H1125 H 0.43657 0.47624 0.77508 0.0
H1126 H 0.42497 0.45958 0.75344 0.0
H1127 H 0.46874 0.47727 0.75775 0.0
H1128 H 0.45728 0.46098 0.7359 0.0
H1129 H 0.47669 0.47935 0.78821 0.0
H1130 H 0.47068 0.50939 0.78324 0.0
H1131 H 0.49796 0.4931 0.79128 0.0
H1132 H 0.49198 0.5234 0.78787 0.0
H1133 H 0.56595 0.54403 0.82271 0.0
H1134 H 0.57393 0.55472 0.85194 0.0
H1135 H 0.54406 0.5608 0.85557 0.0
H1136 H 0.53665 0.5508 0.82566 0.0
H1137 H 0.55113 0.56421 0.79877 0.0
H1138 H 0.56496 0.57878 0.77731 0.0
H1139 H 0.57231 0.55166 0.75561 0.0
H1140 H 0.55852 0.53715 0.77728 0.0
H1141 H 0.5336 0.51951 0.81684 0.0
H1142 H 0.5123 0.50603 0.81186 0.0
H1143 H 0.51093 0.53227 0.77676 0.0
N1144 N 0.54714 0.54134 0.80379 0.0
H1145 H 0.53192 0.54602 0.7831 0.0
C1146 C 0.45528 0.47917 0.80184 0.0
C1147 C 0.45412 0.46774 0.80424 0.0
C1148 C 0.4498 0.46167 0.82053 0.0
C1149 C 0.44672 0.46694 0.8349 0.0
C1150 C 0.44823 0.47853 0.83264 0.0
C1151 C 0.45244 0.48454 0.81625 0.0
C1152 C 0.45351 0.47787 0.76878 0.0
C1153 C 0.44119 0.47314 0.76628 0.0
C1154 C 0.43457 0.46361 0.7538 0.0
C1155 C 0.44015 0.45871 0.74319 0.0
C1156 C 0.45264 0.46426 0.7443 0.0
C1157 C 0.45925 0.47369 0.75697 0.0
C1158 C 0.47207 0.49335 0.78502 0.0
C1159 C 0.47996 0.48894 0.78763 0.0
C1160 C 0.49219 0.49688 0.78973 0.0
C1161 C 0.49682 0.50946 0.79004 0.0
C1162 C 0.48887 0.51382 0.78737 0.0
C1163 C 0.47666 0.50584 0.78477 0.0
C1164 C 0.55068 0.54649 0.82208 0.0
C1165 C 0.56108 0.54757 0.82996 0.0
C1166 C 0.56558 0.55364 0.84676 0.0
C1167 C 0.55965 0.55864 0.85629 0.0
C1168 C 0.549 0.55726 0.84856 0.0
C1169 C 0.54463 0.55137 0.83154 0.0
C1170 C 0.55393 0.54961 0.78973 0.0
C1171 C 0.55562 0.56136 0.78928 0.0
C1172 C 0.56352 0.56968 0.77704 0.0
C1173 C 0.56975 0.56636 0.7649 0.0
C1174 C 0.56755 0.55443 0.76471 0.0
C1175 C 0.55973 0.54616 0.77708 0.0
C1176 C 0.53448 0.53372 0.80028 0.0
C1177 C 0.52866 0.52235 0.80816 0.0
C1178 C 0.51647 0.51459 0.80508 0.0
C1179 C 0.5098 0.51791 0.79363 0.0
C1180 C 0.51566 0.52939 0.78581 0.0
C1181 C 0.52781 0.53727 0.78929 0.0
H1182 H 0.66303 0.87372 0.55422 0.0
N1183 N 0.64482 0.8525 0.56693 0.0
H1184 H 0.66307 0.88334 0.52595 0.0
H1185 H 0.62817 0.84378 0.54017 0.0
H1186 H 0.6284 0.85309 0.51099 0.0
H1187 H 0.63256 0.86158 0.58258 0.0
H1188 H 0.64022 0.87908 0.60343 0.0
H1189 H 0.66656 0.86318 0.58548 0.0
H1190 H 0.67403 0.88016 0.60705 0.0
H1191 H 0.66442 0.85438 0.54975 0.0
H1192 H 0.63528 0.83168 0.5842 0.0
H1193 H 0.67078 0.83955 0.54919 0.0
H1194 H 0.6421 0.81699 0.58474 0.0
H1195 H 0.68971 0.78881 0.54848 0.0
H1196 H 0.68911 0.77853 0.51976 0.0
H1197 H 0.65508 0.77527 0.50571 0.0
H1198 H 0.65542 0.78475 0.53484 0.0
H1199 H 0.65267 0.77032 0.5643 0.0
H1200 H 0.64969 0.75451 0.58551 0.0
H1201 H 0.68345 0.77891 0.61247 0.0
H1202 H 0.68623 0.79471 0.59138 0.0
H1203 H 0.68631 0.81618 0.56357 0.0
H1204 H 0.67988 0.8311 0.56629 0.0
H1205 H 0.6432 0.80223 0.56682 0.0
N1206 N 0.67287 0.79238 0.56208 0.0
H1207 H 0.64983 0.78749 0.56527 0.0
C1208 C 0.64545 0.85805 0.54954 0.0
C1209 C 0.65539 0.86914 0.54498 0.0
C1210 C 0.65547 0.87458 0.52857 0.0
C1211 C 0.64574 0.86902 0.51607 0.0
C1212 C 0.63597 0.85775 0.52039 0.0
C1213 C 0.63583 0.85236 0.53698 0.0
C1214 C 0.6489 0.86103 0.58229 0.0
C1215 C 0.64153 0.86544 0.58823 0.0
C1216 C 0.64594 0.87543 0.60024 0.0
C1217 C 0.65783 0.88118 0.60677 0.0
C1218 C 0.66492 0.87615 0.60197 0.0
C1219 C 0.66058 0.86628 0.58972 0.0
C1220 C 0.64914 0.84405 0.56677 0.0
C1221 C 0.65936 0.84621 0.55726 0.0
C1222 C 0.66313 0.83773 0.55717 0.0
C1223 C 0.65698 0.827 0.56692 0.0
C1224 C 0.64694 0.82501 0.57677 0.0
C1225 C 0.64306 0.83342 0.5766 0.0
C1226 C 0.67273 0.7877 0.5439 0.0
C1227 C 0.6822 0.78598 0.53906 0.0
C1228 C 0.68185 0.78014 0.52256 0.0
C1229 C 0.67202 0.776 0.5103 0.0
C1230 C 0.66269 0.77809 0.51491 0.0
C1231 C 0.66296 0.78372 0.53159 0.0
C1232 C 0.66975 0.78369 0.57627 0.0
C1233 C 0.65925 0.77238 0.57513 0.0
C1234 C 0.65759 0.76332 0.58719 0.0
C1235 C 0.66637 0.76542 0.60057 0.0
C1236 C 0.67644 0.77702 0.60247 0.0
C1237 C 0.67809 0.78605 0.5904 0.0
C1238 C 0.6686 0.80078 0.564 0.0
C1239 C 0.6769 0.81313 0.56439 0.0
C1240 C 0.67317 0.82162 0.56579 0.0
C1241 C 0.66098 0.81792 0.56655 0.0
C1242 C 0.65266 0.80546 0.56647 0.0
C1243 C 0.65644 0.79698 0.56539 0.0
H1244 H 0.23635 0.86141 0.55559 0.0
N1245 N 0.21731 0.85383 0.57601 0.0
H1246 H 0.24066 0.87277 0.52742 0.0
H1247 H 0.20193 0.85877 0.55709 0.0
H1248 H 0.20606 0.86997 0.52874 0.0
H1249 H 0.20898 0.86881 0.58698 0.0
H1250 H 0.21889 0.88587 0.60831 0.0
H1251 H 0.23585 0.85918 0.59799 0.0
H1252 H 0.24647 0.87689 0.61833 0.0
H1253 H 0.21356 0.8328 0.56306 0.0
H1254 H 0.19624 0.84903 0.59227 0.0
H1255 H 0.19496 0.81353 0.56183 0.0
H1256 H 0.17786 0.8298 0.5918 0.0
H1257 H 0.13237 0.75253 0.55517 0.0
H1258 H 0.12276 0.74382 0.52529 0.0
H1259 H 0.13054 0.77906 0.508 0.0
H1260 H 0.1399 0.78768 0.53781 0.0
H1261 H 0.12407 0.78198 0.56367 0.0
H1262 H 0.1062 0.77495 0.58159 0.0
H1263 H 0.11757 0.75512 0.61572 0.0
H1264 H 0.13552 0.76222 0.5976 0.0
H1265 H 0.16228 0.77802 0.57395 0.0
H1266 H 0.18108 0.79698 0.57853 0.0
H1267 H 0.16242 0.81677 0.57102 0.0
N1268 N 0.1408 0.77501 0.56744 0.0
H1269 H 0.14372 0.79784 0.56738 0.0
C1270 C 0.21889 0.85928 0.55841 0.0
C1271 C 0.22965 0.86311 0.5496 0.0
C1272 C 0.23205 0.86954 0.53348 0.0
C1273 C 0.2237 0.87228 0.52584 0.0
C1274 C 0.21273 0.86811 0.5344 0.0
C1275 C 0.21033 0.86166 0.55055 0.0
C1276 C 0.22154 0.86249 0.59112 0.0
C1277 C 0.21683 0.87013 0.59439 0.0
C1278 C 0.2227 0.88011 0.60637 0.0
C1279 C 0.23366 0.88298 0.61487 0.0
C1280 C 0.23801 0.87497 0.61229 0.0
C1281 C 0.23196 0.86482 0.60061 0.0
C1282 C 0.20644 0.84243 0.57773 0.0
C1283 C 0.20581 0.83215 0.56954 0.0
C1284 C 0.19517 0.82112 0.56893 0.0
C1285 C 0.18484 0.82007 0.57668 0.0
C1286 C 0.18555 0.83031 0.58538 0.0
C1287 C 0.1962 0.84139 0.5858 0.0
C1288 C 0.13697 0.77074 0.5488 0.0
C1289 C 0.1322 0.7584 0.54479 0.0
C1290 C 0.12665 0.75344 0.52783 0.0
C1291 C 0.12589 0.76078 0.51442 0.0
C1292 C 0.1311 0.77323 0.51808 0.0
C1293 C 0.1365 0.77817 0.53517 0.0
C1294 C 0.13118 0.77264 0.5794 0.0
C1295 C 0.12292 0.77641 0.57531 0.0
C1296 C 0.11267 0.77236 0.58556 0.0
C1297 C 0.11045 0.76442 0.59998 0.0
C1298 C 0.11899 0.76113 0.60455 0.0
C1299 C 0.12926 0.76523 0.59435 0.0
C1300 C 0.15161 0.78645 0.57019 0.0
C1301 C 0.16229 0.78648 0.5734 0.0
C1302 C 0.17302 0.79733 0.5759 0.0
C1303 C 0.17332 0.80846 0.57506 0.0
C1304 C 0.16255 0.8084 0.57204 0.0
C1305 C 0.1518 0.79753 0.56976 0.0
H1306 H 0.20755 0.33632 0.55986 0.0
N1307 N 0.20433 0.35392 0.5759 0.0
H1308 H 0.21564 0.33687 0.52994 0.0
H1309 H 0.20972 0.37054 0.55061 0.0
H1310 H 0.21742 0.37096 0.52004 0.0
H1311 H 0.22654 0.36876 0.58739 0.0
H1312 H 0.23957 0.3637 0.60474 0.0
H1313 H 0.19693 0.333 0.59569 0.0
H1314 H 0.20974 0.32809 0.61347 0.0
H1315 H 0.18725 0.33058 0.56688 0.0
H1316 H 0.19257 0.36484 0.58678 0.0
H1317 H 0.16585 0.32227 0.56664 0.0
H1318 H 0.17106 0.35685 0.58539 0.0
H1319 H 0.0992 0.30377 0.544 0.0
H1320 H 0.09191 0.30692 0.51469 0.0
H1321 H 0.11757 0.34506 0.51955 0.0
H1322 H 0.12502 0.34172 0.54858 0.0
H1323 H 0.11557 0.34061 0.57727 0.0
H1324 H 0.10132 0.34131 0.5979 0.0
H1325 H 0.08676 0.30341 0.60834 0.0
H1326 H 0.10093 0.30274 0.58722 0.0
H1327 H 0.12987 0.31508 0.54617 0.0
H1328 H 0.15118 0.32305 0.54945 0.0
H1329 H 0.15232 0.34396 0.59728 0.0
N1330 N 0.11606 0.3203 0.5662 0.0
H1331 H 0.13121 0.33658 0.59331 0.0
C1332 C 0.20816 0.35351 0.55758 0.0
C1333 C 0.20959 0.34388 0.55125 0.0
C1334 C 0.21414 0.34416 0.53399 0.0
C1335 C 0.21721 0.35397 0.52251 0.0
C1336 C 0.21533 0.36336 0.52861 0.0
C1337 C 0.21087 0.36312 0.546 0.0
C1338 C 0.21076 0.35133 0.58983 0.0
C1339 C 0.22275 0.35996 0.59343 0.0
C1340 C 0.2302 0.35703 0.60339 0.0
C1341 C 0.22577 0.34539 0.61025 0.0
C1342 C 0.21353 0.33704 0.60794 0.0
C1343 C 0.20612 0.33992 0.59777 0.0
C1344 C 0.19157 0.34835 0.57717 0.0
C1345 C 0.18382 0.33632 0.57136 0.0
C1346 C 0.17151 0.33161 0.57096 0.0
C1347 C 0.16663 0.33889 0.57578 0.0
C1348 C 0.17441 0.35088 0.58183 0.0
C1349 C 0.18673 0.3555 0.58259 0.0
C1350 C 0.11259 0.32246 0.54843 0.0
C1351 C 0.1033 0.31277 0.53859 0.0
C1352 C 0.0991 0.31462 0.52197 0.0
C1353 C 0.10408 0.32627 0.51486 0.0
C1354 C 0.1136 0.33597 0.52457 0.0
C1355 C 0.11782 0.33409 0.54121 0.0
C1356 C 0.10927 0.32156 0.58067 0.0
C1357 C 0.10943 0.33249 0.58417 0.0
C1358 C 0.10132 0.3329 0.59609 0.0
C1359 C 0.09284 0.32239 0.60464 0.0
C1360 C 0.09307 0.31162 0.60175 0.0
C1361 C 0.10121 0.31123 0.58987 0.0
C1362 C 0.12877 0.32527 0.56914 0.0
C1363 C 0.13472 0.32147 0.55728 0.0
C1364 C 0.14694 0.32594 0.55935 0.0
C1365 C 0.15356 0.33414 0.57372 0.0
C1366 C 0.14759 0.33783 0.58585 0.0
C1367 C 0.13536 0.33351 0.58357 0.0
H1368 H 0.98601 0.38496 0.02381 0.0
H1369 H 0.98906 0.39644 0.0522 0.0
H1370 H 0.01486 0.3869 0.07103 0.0
H1371 H 0.01191 0.37532 0.04239 0.0
H1372 H 0.99803 0.3845 0.09771 0.0
H1373 H 0.02517 0.41411 0.05733 0.0
H1374 H 0.03144 0.42513 0.02851 0.0
H1375 H 0.00607 0.43703 0.03526 0.0
H1376 H 0.99951 0.42593 0.06399 0.0
H1377 H 0.01231 0.42532 0.17378 0.0
H1378 H 0.01449 0.41525 0.14667 0.0
H1379 H 0.99254 0.42528 0.11509 0.0
H1380 H 0.99085 0.43591 0.14183 0.0
H1381 H 0.01047 0.42796 0.09551 0.0
H1382 H 0.98161 0.39657 0.13322 0.0
H1383 H 0.97447 0.38508 0.16151 0.0
H1384 H 0.00225 0.37617 0.15939 0.0
H1385 H 0.00965 0.38775 0.1312 0.0
C1386 C 0.99232 0.38523 0.03395 0.0
C1387 C 0.99874 0.37921 0.03076 0.0
C1388 C 0.99409 0.39186 0.05016 0.0
C1389 C 0.00228 0.39263 0.06361 0.0
C1390 C 0.00854 0.38645 0.06075 0.0
C1391 C 0.00685 0.37986 0.04438 0.0
C1392 C 0.00417 0.39992 0.08058 0.0
C1393 C 0.00099 0.39406 0.09734 0.0
C1394 C 0.00781 0.41234 0.07997 0.0
C1395 C 0.01179 0.41911 0.06276 0.0
C1396 C 0.02086 0.41901 0.0526 0.0
C1397 C 0.02448 0.42528 0.03629 0.0
C1398 C 0.01914 0.43176 0.03004 0.0
C1399 C 0.0102 0.432 0.04012 0.0
C1400 C 0.00654 0.42573 0.05643 0.0
C1401 C 0.00811 0.42558 0.16099 0.0
C1402 C 0.00134 0.43138 0.16005 0.0
C1403 C 0.00925 0.41968 0.14555 0.0
C1404 C 0.00352 0.41933 0.1289 0.0
C1405 C 0.99701 0.42537 0.1278 0.0
C1406 C 0.99594 0.43134 0.14318 0.0
C1407 C 0.00404 0.41249 0.11265 0.0
C1408 C 0.00768 0.41844 0.096 0.0
C1409 C 0.00073 0.40014 0.11335 0.0
C1410 C 0.99626 0.39314 0.13023 0.0
C1411 C 0.98624 0.39224 0.13887 0.0
C1412 C 0.98214 0.3857 0.15487 0.0
C1413 C 0.98792 0.37993 0.16228 0.0
C1414 C 0.9978 0.38066 0.15366 0.0
C1415 C 0.00194 0.38721 0.13767 0.0
H1416 H 0.98473 0.37487 0.17467 0.0
H1417 H 0.02195 0.4366 0.01741 0.0
H1418 H 0.62847 0.60343 0.07098 0.0
H1419 H 0.61567 0.58724 0.09127 0.0
H1420 H 0.59894 0.60755 0.10813 0.0
H1421 H 0.61183 0.62385 0.08815 0.0
H1422 H 0.60574 0.59966 0.13696 0.0
H1423 H 0.58419 0.58238 0.08039 0.0
H1424 H 0.5816 0.5755 0.04808 0.0
H1425 H 0.59273 0.55008 0.0618 0.0
H1426 H 0.59557 0.55694 0.09418 0.0
H1427 H 0.55996 0.55508 0.18806 0.0
H1428 H 0.57012 0.56906 0.16359 0.0
H1429 H 0.58769 0.54916 0.14906 0.0
H1430 H 0.57724 0.53486 0.17329 0.0
H1431 H 0.58025 0.55648 0.11864 0.0
H1432 H 0.60217 0.57404 0.17492 0.0
H1433 H 0.60507 0.58108 0.20717 0.0
H1434 H 0.59348 0.60619 0.19377 0.0
H1435 H 0.59031 0.59915 0.16147 0.0
C1436 C 0.62198 0.6044 0.07887 0.0
C1437 C 0.62116 0.61493 0.07795 0.0
C1438 C 0.61463 0.59511 0.09039 0.0
C1439 C 0.60629 0.59615 0.10111 0.0
C1440 C 0.60531 0.60655 0.09995 0.0
C1441 C 0.61265 0.61585 0.08846 0.0
C1442 C 0.59911 0.58676 0.11438 0.0
C1443 C 0.60001 0.59025 0.13289 0.0
C1444 C 0.59193 0.57443 0.10914 0.0
C1445 C 0.5902 0.57026 0.08969 0.0
C1446 C 0.58619 0.5754 0.0765 0.0
C1447 C 0.58465 0.57148 0.05817 0.0
C1448 C 0.58703 0.56238 0.05288 0.0
C1449 C 0.59091 0.55714 0.06592 0.0
C1450 C 0.59247 0.56103 0.08426 0.0
C1451 C 0.56579 0.55351 0.17944 0.0
C1452 C 0.56781 0.54386 0.18265 0.0
C1453 C 0.57167 0.56158 0.16556 0.0
C1454 C 0.57977 0.56023 0.15469 0.0
C1455 C 0.5815 0.55037 0.15736 0.0
C1456 C 0.57561 0.54228 0.17129 0.0
C1457 C 0.58681 0.56944 0.14113 0.0
C1458 C 0.58594 0.56591 0.12263 0.0
C1459 C 0.59405 0.58176 0.14635 0.0
C1460 C 0.59589 0.58598 0.1658 0.0
C1461 C 0.60013 0.58098 0.17888 0.0
C1462 C 0.60184 0.58499 0.19717 0.0
C1463 C 0.59945 0.59407 0.20253 0.0
C1464 C 0.59532 0.59915 0.1896 0.0
C1465 C 0.59357 0.59516 0.1713 0.0
H1466 H 0.60082 0.5972 0.21667 0.0
H1467 H 0.58583 0.55936 0.03869 0.0
H1468 H 0.37152 0.9893 0.0413 0.0
H1469 H 0.37959 0.98622 0.06981 0.0
H1470 H 0.41522 0.01132 0.0532 0.0
H1471 H 0.40726 0.01442 0.02456 0.0
H1472 H 0.41329 0.99045 0.06553 0.0
H1473 H 0.40269 0.01946 0.08611 0.0
H1474 H 0.38946 0.02793 0.09029 0.0
H1475 H 0.36552 0.99698 0.12066 0.0
H1476 H 0.37852 0.98824 0.11644 0.0
H1477 H 0.44159 0.99349 0.15115 0.0
H1478 H 0.43446 0.99865 0.12346 0.0
H1479 H 0.39815 0.97516 0.13894 0.0
H1480 H 0.40521 0.97033 0.16697 0.0
H1481 H 0.40102 0.99606 0.12719 0.0
H1482 H 0.41099 0.96664 0.10571 0.0
H1483 H 0.42391 0.95784 0.10131 0.0
H1484 H 0.44869 0.98917 0.07244 0.0
H1485 H 0.43598 0.99823 0.07688 0.0
C1486 C 0.38107 0.99425 0.04373 0.0
C1487 C 0.38873 0.00211 0.0306 0.0
C1488 C 0.38566 0.9925 0.06008 0.0
C1489 C 0.39799 0.9986 0.06366 0.0
C1490 C 0.40567 0.00653 0.05069 0.0
C1491 C 0.40109 0.00832 0.03436 0.0
C1492 C 0.4029 0.99634 0.08064 0.0
C1493 C 0.41076 0.99186 0.07904 0.0
C1494 C 0.39936 0.9979 0.09821 0.0
C1495 C 0.39153 0.00315 0.10081 0.0
C1496 C 0.39455 0.01441 0.09355 0.0
C1497 C 0.3871 0.01927 0.09595 0.0
C1498 C 0.37664 0.01298 0.10569 0.0
C1499 C 0.37362 0.00183 0.1131 0.0
C1500 C 0.38103 0.99693 0.11072 0.0
C1501 C 0.43209 0.98949 0.14872 0.0
C1502 C 0.42397 0.98145 0.16124 0.0
C1503 C 0.42802 0.99236 0.13281 0.0
C1504 C 0.41576 0.98719 0.12903 0.0
C1505 C 0.40764 0.97923 0.14155 0.0
C1506 C 0.4117 0.97638 0.15747 0.0
C1507 C 0.41137 0.99011 0.1121 0.0
C1508 C 0.40359 0.9947 0.1137 0.0
C1509 C 0.41495 0.98861 0.09451 0.0
C1510 C 0.42259 0.98317 0.0918 0.0
C1511 C 0.41924 0.9717 0.09855 0.0
C1512 C 0.42652 0.96665 0.09603 0.0
C1513 C 0.43713 0.97296 0.08665 0.0
C1514 C 0.44048 0.98431 0.07973 0.0
C1515 C 0.43323 0.9894 0.08224 0.0
H1516 H 0.44276 0.96904 0.0847 0.0
H1517 H 0.37088 0.01675 0.10754 0.0
H1518 H 0.38888 0.0034 0.94071 0.0
H1519 H 0.40125 0.99929 0.92044 0.0
H1520 H 0.38883 0.96473 0.94519 0.0
H1521 H 0.37603 0.96862 0.96505 0.0
H1522 H 0.41886 0.99544 0.92344 0.0
H1523 H 0.3866 0.94424 0.91328 0.0
H1524 H 0.36512 0.92951 0.91481 0.0
H1525 H 0.3569 0.9573 0.90259 0.0
H1526 H 0.37832 0.97214 0.90078 0.0
H1527 H 0.44796 0.97404 0.86524 0.0
H1528 H 0.43697 0.97534 0.89135 0.0
H1529 H 0.40808 0.96963 0.85472 0.0
H1530 H 0.41887 0.96804 0.82878 0.0
H1531 H 0.39927 0.95812 0.88442 0.0
H1532 H 0.42997 0.99826 0.87025 0.0
H1533 H 0.45057 0.01449 0.86534 0.0
H1534 H 0.46039 0.01142 0.92056 0.0
H1535 H 0.43987 0.99505 0.92571 0.0
C1536 C 0.38885 0.99497 0.94195 0.0
C1537 C 0.38139 0.98627 0.95432 0.0
C1538 C 0.39596 0.99264 0.93038 0.0
C1539 C 0.39584 0.98162 0.93107 0.0
C1540 C 0.38887 0.97318 0.94412 0.0
C1541 C 0.3816 0.97543 0.95551 0.0
C1542 C 0.40254 0.9788 0.91746 0.0
C1543 C 0.4146 0.98723 0.91502 0.0
C1544 C 0.39695 0.96818 0.90624 0.0
C1545 C 0.38405 0.95931 0.90712 0.0
C1546 C 0.3802 0.94719 0.91088 0.0
C1547 C 0.36804 0.93882 0.9118 0.0
C1548 C 0.35965 0.94248 0.90887 0.0
C1549 C 0.36341 0.95449 0.90494 0.0
C1550 C 0.37555 0.96288 0.90398 0.0
C1551 C 0.43921 0.97294 0.86285 0.0
C1552 C 0.43426 0.97095 0.84501 0.0
C1553 C 0.43295 0.97371 0.87773 0.0
C1554 C 0.42177 0.97275 0.87496 0.0
C1555 C 0.41667 0.97035 0.85722 0.0
C1556 C 0.42284 0.96943 0.8424 0.0
C1557 C 0.41555 0.97482 0.89026 0.0
C1558 C 0.40359 0.96623 0.89306 0.0
C1559 C 0.42111 0.9855 0.90135 0.0
C1560 C 0.43344 0.99534 0.89829 0.0
C1561 C 0.43655 0.00099 0.8813 0.0
C1562 C 0.4482 0.01022 0.87848 0.0
C1563 C 0.45679 0.01396 0.89261 0.0
C1564 C 0.45373 0.0085 0.90961 0.0
C1565 C 0.4421 0.99925 0.91249 0.0
H1566 H 0.46581 0.02111 0.89041 0.0
H1567 H 0.35025 0.93599 0.9096 0.0
H1568 H 0.99085 0.37936 0.95168 0.0
H1569 H 0.99207 0.39548 0.93295 0.0
H1570 H 0.03037 0.41231 0.93358 0.0
H1571 H 0.02923 0.39644 0.95312 0.0
H1572 H 0.02443 0.42905 0.93587 0.0
H1573 H 0.0125 0.3942 0.89676 0.0
H1574 H 0.00015 0.37288 0.88666 0.0
H1575 H 0.96949 0.37724 0.8821 0.0
H1576 H 0.98163 0.39855 0.89241 0.0
H1577 H 0.03463 0.46159 0.8529 0.0
H1578 H 0.03327 0.44827 0.87748 0.0
H1579 H 0.9957 0.43548 0.88124 0.0
H1580 H 0.99702 0.44903 0.85702 0.0
H1581 H 0.00092 0.41709 0.87741 0.0
H1582 H 0.01396 0.45286 0.91483 0.0
H1583 H 0.02705 0.47425 0.92391 0.0
H1584 H 0.05664 0.46825 0.9302 0.0
H1585 H 0.04375 0.44685 0.9209 0.0
C1586 C 0.99954 0.38654 0.94808 0.0
C1587 C 0.00993 0.38657 0.95388 0.0
C1588 C 0.00023 0.39574 0.93722 0.0
C1589 C 0.0113 0.40499 0.93151 0.0
C1590 C 0.02172 0.40525 0.93775 0.0
C1591 C 0.02105 0.39615 0.94888 0.0
C1592 C 0.01198 0.41412 0.91851 0.0
C1593 C 0.01939 0.42643 0.923 0.0
C1594 C 0.00525 0.41073 0.90182 0.0
C1595 C 0.99795 0.39793 0.89554 0.0
C1596 C 0.00311 0.39058 0.89373 0.0
C1597 C 0.99615 0.37851 0.88794 0.0
C1598 C 0.98404 0.3737 0.88379 0.0
C1599 C 0.97886 0.38097 0.88535 0.0
C1600 C 0.98578 0.39305 0.89115 0.0
C1601 C 0.02613 0.45617 0.85924 0.0
C1602 C 0.01592 0.45636 0.8529 0.0
C1603 C 0.02537 0.44853 0.87325 0.0
C1604 C 0.01439 0.44091 0.88119 0.0
C1605 C 0.00425 0.44127 0.87524 0.0
C1606 C 0.00501 0.44897 0.86132 0.0
C1607 C 0.01334 0.43198 0.89479 0.0
C1608 C 0.0059 0.4197 0.89035 0.0
C1609 C 0.02015 0.43541 0.91136 0.0
C1610 C 0.02791 0.44827 0.917 0.0
C1611 C 0.02328 0.45613 0.918 0.0
C1612 C 0.03066 0.46825 0.92321 0.0
C1613 C 0.04268 0.47262 0.92758 0.0
C1614 C 0.04733 0.46486 0.92679 0.0
C1615 C 0.03999 0.45273 0.92156 0.0
H1616 H 0.04838 0.48201 0.93162 0.0
H1617 H 0.97866 0.36435 0.87932 0.0
H1618 H 0.62424 0.61591 0.99818 0.0
H1619 H 0.61416 0.60435 0.97025 0.0
H1620 H 0.58877 0.61672 0.97364 0.0
H1621 H 0.59846 0.62775 0.00219 0.0
H1622 H 0.57731 0.59462 0.96504 0.0
H1623 H 0.61227 0.62748 0.9413 0.0
H1624 H 0.63373 0.64178 0.93842 0.0
H1625 H 0.63959 0.61247 0.92447 0.0
H1626 H 0.61818 0.59797 0.92751 0.0
H1627 H 0.55903 0.57867 0.86905 0.0
H1628 H 0.56836 0.59062 0.89706 0.0
H1629 H 0.58213 0.5672 0.91061 0.0
H1630 H 0.57222 0.55468 0.88332 0.0
H1631 H 0.59916 0.59536 0.9095 0.0
H1632 H 0.56296 0.56276 0.93491 0.0
H1633 H 0.54116 0.5498 0.93612 0.0
H1634 H 0.53755 0.58108 0.9446 0.0
H1635 H 0.55934 0.59424 0.94316 0.0
C1636 C 0.61657 0.61624 0.99287 0.0
C1637 C 0.61216 0.62276 0.00233 0.0
C1638 C 0.61083 0.60967 0.97683 0.0
C1639 C 0.60079 0.60979 0.96958 0.0
C1640 C 0.59648 0.61645 0.97892 0.0
C1641 C 0.60205 0.62279 0.99521 0.0
C1642 C 0.59454 0.60263 0.95266 0.0
C1643 C 0.58212 0.59496 0.95284 0.0
C1644 C 0.60074 0.60293 0.93668 0.0
C1645 C 0.61363 0.61163 0.9348 0.0
C1646 C 0.61815 0.62407 0.93775 0.0
C1647 C 0.6303 0.63222 0.93607 0.0
C1648 C 0.63802 0.62803 0.93131 0.0
C1649 C 0.6336 0.6157 0.92818 0.0
C1650 C 0.62145 0.60751 0.92986 0.0
C1651 C 0.56378 0.57584 0.87814 0.0
C1652 C 0.56486 0.56566 0.87377 0.0
C1653 C 0.56921 0.58278 0.89406 0.0
C1654 C 0.57595 0.5798 0.90575 0.0
C1655 C 0.57701 0.56966 0.90161 0.0
C1656 C 0.5714 0.56257 0.88591 0.0
C1657 C 0.58212 0.58741 0.92215 0.0
C1658 C 0.59446 0.59514 0.92177 0.0
C1659 C 0.57584 0.58739 0.93775 0.0
C1660 C 0.56276 0.57948 0.9387 0.0
C1661 C 0.55751 0.56688 0.93684 0.0
C1662 C 0.54516 0.5595 0.93761 0.0
C1663 C 0.53797 0.56462 0.94037 0.0
C1664 C 0.54313 0.57713 0.94243 0.0
C1665 C 0.55548 0.58455 0.94164 0.0
H1666 H 0.52841 0.55888 0.94097 0.0
H1667 H 0.64743 0.63435 0.93002 0.0
H1668 H 0.01852 0.62251 0.99376 0.0
H1669 H 0.01672 0.6114 0.96542 0.0
H1670 H 0.98799 0.61669 0.94671 0.0
H1671 H 0.98956 0.62766 0.97532 0.0
H1672 H 0.98256 0.59396 0.94074 0.0
H1673 H 0.01605 0.63261 0.92884 0.0
H1674 H 0.03566 0.65071 0.93503 0.0
H1675 H 0.05211 0.62877 0.93586 0.0
H1676 H 0.03257 0.61052 0.92993 0.0
H1677 H 0.98158 0.57381 0.84936 0.0
H1678 H 0.98376 0.58641 0.87622 0.0
H1679 H 0.01112 0.58014 0.8985 0.0
H1680 H 0.0089 0.56737 0.87172 0.0
H1681 H 0.01715 0.60388 0.90186 0.0
H1682 H 0.98343 0.5652 0.91471 0.0
H1683 H 0.96379 0.54719 0.90834 0.0
H1684 H 0.94774 0.56945 0.90542 0.0
H1685 H 0.96733 0.58763 0.91152 0.0
C1686 C 0.01186 0.6214 0.98361 0.0
C1687 C 0.00421 0.62603 0.98684 0.0
C1688 C 0.01088 0.61508 0.96734 0.0
C1689 C 0.00233 0.61335 0.95381 0.0
C1690 C 0.99468 0.61795 0.95694 0.0
C1691 C 0.99561 0.62424 0.97329 0.0
C1692 C 0.00117 0.60639 0.93669 0.0
C1693 C 0.99008 0.59626 0.93207 0.0
C1694 C 0.01104 0.60921 0.9256 0.0
C1695 C 0.02282 0.62018 0.9291 0.0
C1696 C 0.02384 0.63164 0.93048 0.0
C1697 C 0.03494 0.64193 0.93392 0.0
C1698 C 0.04512 0.64089 0.93588 0.0
C1699 C 0.04422 0.62956 0.93436 0.0
C1700 C 0.03313 0.61924 0.93094 0.0
C1701 C 0.98799 0.575 0.86005 0.0
C1702 C 0.99499 0.56948 0.85846 0.0
C1703 C 0.98925 0.58224 0.87536 0.0
C1704 C 0.99751 0.58409 0.88945 0.0
C1705 C 0.00469 0.57882 0.88777 0.0
C1706 C 0.00343 0.57155 0.87244 0.0
C1707 C 0.99857 0.59146 0.906 0.0
C1708 C 0.00963 0.60164 0.9105 0.0
C1709 C 0.98867 0.58871 0.91696 0.0
C1710 C 0.97687 0.57779 0.91339 0.0
C1711 C 0.97573 0.56627 0.91257 0.0
C1712 C 0.96461 0.55602 0.90903 0.0
C1713 C 0.95453 0.55718 0.90643 0.0
C1714 C 0.95556 0.56857 0.90741 0.0
C1715 C 0.96667 0.57885 0.91092 0.0
H1716 H 0.94592 0.54924 0.90369 0.0
H1717 H 0.05371 0.64887 0.93854 0.0
H1718 H 0.38018 0.40085 0.96401 0.0
H1719 H 0.39278 0.41764 0.94449 0.0
H1720 H 0.41306 0.4004 0.93088 0.0
H1721 H 0.40044 0.38352 0.95021 0.0
H1722 H 0.42718 0.4259 0.93712 0.0
H1723 H 0.39215 0.39661 0.90239 0.0
H1724 H 0.37053 0.38368 0.8967 0.0
H1725 H 0.36639 0.41494 0.89767 0.0
H1726 H 0.38799 0.42805 0.90363 0.0
H1727 H 0.45269 0.45198 0.85299 0.0
H1728 H 0.44268 0.43923 0.87873 0.0
H1729 H 0.41934 0.45412 0.88158 0.0
H1730 H 0.42879 0.46633 0.85508 0.0
H1731 H 0.40684 0.43099 0.88279 0.0
H1732 H 0.44195 0.46069 0.91475 0.0
H1733 H 0.46349 0.47388 0.92085 0.0
H1734 H 0.46764 0.4428 0.92587 0.0
H1735 H 0.44614 0.42941 0.91955 0.0
C1736 C 0.38741 0.40069 0.95706 0.0
C1737 C 0.38927 0.39082 0.9586 0.0
C1738 C 0.39459 0.41029 0.94591 0.0
C1739 C 0.40378 0.41019 0.93617 0.0
C1740 C 0.40602 0.40064 0.93834 0.0
C1741 C 0.39878 0.39099 0.94937 0.0
C1742 C 0.41045 0.41957 0.92266 0.0
C1743 C 0.4228 0.427 0.92515 0.0
C1744 C 0.40462 0.42115 0.90735 0.0
C1745 C 0.39165 0.41329 0.90367 0.0
C1746 C 0.38661 0.40072 0.90155 0.0
C1747 C 0.37437 0.39336 0.89824 0.0
C1748 C 0.36708 0.39848 0.89688 0.0
C1749 C 0.37204 0.41098 0.89876 0.0
C1750 C 0.38428 0.41838 0.9021 0.0
C1751 C 0.4454 0.45254 0.85904 0.0
C1752 C 0.44151 0.46014 0.85183 0.0
C1753 C 0.4398 0.44536 0.87397 0.0
C1754 C 0.43033 0.4458 0.88227 0.0
C1755 C 0.42665 0.45364 0.87545 0.0
C1756 C 0.43215 0.46072 0.86038 0.0
C1757 C 0.42369 0.43743 0.8971 0.0
C1758 C 0.4113 0.43009 0.89484 0.0
C1759 C 0.4295 0.43603 0.91267 0.0
C1760 C 0.44244 0.44405 0.91652 0.0
C1761 C 0.44746 0.45667 0.91701 0.0
C1762 C 0.45967 0.46418 0.92054 0.0
C1763 C 0.46693 0.45918 0.92371 0.0
C1764 C 0.462 0.44666 0.9234 0.0
C1765 C 0.4498 0.4391 0.91987 0.0
H1766 H 0.47638 0.46501 0.92643 0.0
H1767 H 0.3576 0.39277 0.89431 0.0
H1768 H 0.59595 0.97876 0.99778 0.0
H1769 H 0.58672 0.97846 0.96836 0.0
H1770 H 0.61598 0.01388 0.95739 0.0
H1771 H 0.62537 0.01429 0.98704 0.0
H1772 H 0.59343 0.01135 0.95022 0.0
H1773 H 0.61461 0.99096 0.93491 0.0
H1774 H 0.62127 0.97612 0.93855 0.0
H1775 H 0.58514 0.94712 0.93224 0.0
H1776 H 0.57824 0.9618 0.92882 0.0
H1777 H 0.57255 0.00661 0.85704 0.0
H1778 H 0.58452 0.00995 0.88506 0.0
H1779 H 0.56015 0.97355 0.90109 0.0
H1780 H 0.54822 0.97015 0.87309 0.0
H1781 H 0.58245 0.97825 0.90429 0.0
H1782 H 0.56104 0.99838 0.9221 0.0
H1783 H 0.55406 0.01301 0.91918 0.0
H1784 H 0.59022 0.04226 0.92125 0.0
H1785 H 0.59743 0.02777 0.92393 0.0
C1786 C 0.60048 0.98649 0.98914 0.0
C1787 C 0.61142 0.99655 0.99478 0.0
C1788 C 0.5952 0.98628 0.97228 0.0
C1789 C 0.60071 0.9961 0.96066 0.0
C1790 C 0.61161 0.00619 0.96618 0.0
C1791 C 0.61698 0.00638 0.98306 0.0
C1792 C 0.59485 0.99576 0.94292 0.0
C1793 C 0.59122 0.00426 0.93998 0.0
C1794 C 0.59178 0.98636 0.92979 0.0
C1795 C 0.5959 0.97749 0.93174 0.0
C1796 C 0.60807 0.98142 0.93443 0.0
C1797 C 0.6119 0.97303 0.93644 0.0
C1798 C 0.60363 0.96068 0.93566 0.0
C1799 C 0.59153 0.95669 0.93284 0.0
C1800 C 0.58766 0.96504 0.93085 0.0
C1801 C 0.56964 0.9994 0.86671 0.0
C1802 C 0.55946 0.98811 0.86286 0.0
C1803 C 0.5765 0.00131 0.88269 0.0
C1804 C 0.57322 0.992 0.89521 0.0
C1805 C 0.5629 0.98083 0.89158 0.0
C1806 C 0.55609 0.9789 0.87558 0.0
C1807 C 0.58075 0.99367 0.91172 0.0
C1808 C 0.58474 0.98542 0.91441 0.0
C1809 C 0.58409 0.00327 0.92462 0.0
C1810 C 0.57978 0.01198 0.923 0.0
C1811 C 0.56751 0.00792 0.92177 0.0
C1812 C 0.56351 0.01619 0.92019 0.0
C1813 C 0.57169 0.02856 0.91997 0.0
C1814 C 0.58389 0.03268 0.92138 0.0
C1815 C 0.58794 0.02444 0.92295 0.0
H1816 H 0.56858 0.03495 0.91875 0.0
H1817 H 0.60661 0.9542 0.93722 0.0
H1818 H 0.60221 0.99541 0.06365 0.0
H1819 H 0.58693 0.99645 0.08124 0.0
H1820 H 0.6116 0.03376 0.09557 0.0
H1821 H 0.627 0.03279 0.07773 0.0
H1822 H 0.60034 0.01847 0.12573 0.0
H1823 H 0.58972 0.02904 0.06922 0.0
H1824 H 0.58512 0.02725 0.03607 0.0
H1825 H 0.55478 0.99206 0.04296 0.0
H1826 H 0.5593 0.99354 0.07612 0.0
H1827 H 0.55394 0.01313 0.18051 0.0
H1828 H 0.56892 0.02201 0.15703 0.0
H1829 H 0.5501 0.98917 0.12419 0.0
H1830 H 0.53473 0.98055 0.147 0.0
H1831 H 0.55992 0.00752 0.10258 0.0
H1832 H 0.57307 0.99456 0.15589 0.0
H1833 H 0.57782 0.99462 0.18875 0.0
H1834 H 0.60339 0.03248 0.18748 0.0
H1835 H 0.59868 0.03267 0.15465 0.0
C1836 C 0.6044 0.00384 0.07045 0.0
C1837 C 0.61584 0.01397 0.06952 0.0
C1838 C 0.59561 0.00447 0.08034 0.0
C1839 C 0.59814 0.0152 0.0896 0.0
C1840 C 0.60948 0.02543 0.08841 0.0
C1841 C 0.61824 0.02486 0.07823 0.0
C1842 C 0.58917 0.01525 0.10178 0.0
C1843 C 0.59159 0.01642 0.12069 0.0
C1844 C 0.57772 0.0123 0.09511 0.0
C1845 C 0.57489 0.01139 0.07518 0.0
C1846 C 0.58211 0.02088 0.06366 0.0
C1847 C 0.57951 0.01993 0.04486 0.0
C1848 C 0.56967 0.00954 0.03741 0.0
C1849 C 0.5624 0.0001 0.04875 0.0
C1850 C 0.56496 0.001 0.06756 0.0
C1851 C 0.55278 0.00793 0.16803 0.0
C1852 C 0.54324 0.99602 0.16579 0.0
C1853 C 0.56143 0.01299 0.1547 0.0
C1854 C 0.5608 0.00614 0.13907 0.0
C1855 C 0.55084 0.9946 0.1362 0.0
C1856 C 0.54212 0.98962 0.14937 0.0
C1857 C 0.57096 0.01035 0.12659 0.0
C1858 C 0.56876 0.00994 0.10764 0.0
C1859 C 0.58259 0.01378 0.1332 0.0
C1860 C 0.58541 0.01367 0.15291 0.0
C1861 C 0.57964 0.00291 0.16267 0.0
C1862 C 0.58233 0.0029 0.18127 0.0
C1863 C 0.59087 0.01356 0.19021 0.0
C1864 C 0.59676 0.02424 0.18055 0.0
C1865 C 0.59408 0.02431 0.16195 0.0
H1866 H 0.59294 0.01354 0.2046 0.0
H1867 H 0.56767 0.00882 0.02285 0.0
H1868 H 0.01049 0.63088 0.07516 0.0
H1869 H 0.012 0.61572 0.09281 0.0
H1870 H 0.97782 0.58823 0.0708 0.0
H1871 H 0.97609 0.60355 0.05338 0.0
H1872 H 0.97909 0.58531 0.10594 0.0
H1873 H 0.00411 0.59013 0.05657 0.0
H1874 H 0.01981 0.60097 0.03426 0.0
H1875 H 0.04609 0.61617 0.07796 0.0
H1876 H 0.03052 0.60558 0.10057 0.0
H1877 H 0.99196 0.54246 0.14963 0.0
H1878 H 0.98799 0.55287 0.12503 0.0
H1879 H 0.01616 0.58704 0.14649 0.0
H1880 H 0.01982 0.57692 0.17155 0.0
H1881 H 0.01625 0.58317 0.10722 0.0
H1882 H 0.98971 0.58009 0.15612 0.0
H1883 H 0.97363 0.56871 0.17765 0.0
H1884 H 0.94969 0.54888 0.13264 0.0
H1885 H 0.9657 0.56005 0.11086 0.0
C1886 C 0.00332 0.6216 0.07392 0.0
C1887 C 0.99321 0.61839 0.06277 0.0
C1888 C 0.00422 0.61291 0.08397 0.0
C1889 C 0.99514 0.60077 0.08284 0.0
C1890 C 0.98497 0.59753 0.0718 0.0
C1891 C 0.984 0.60628 0.06185 0.0
C1892 C 0.99621 0.59166 0.09383 0.0
C1893 C 0.9871 0.58464 0.10589 0.0
C1894 C 0.00667 0.59079 0.09385 0.0
C1895 C 0.01612 0.5971 0.08029 0.0
C1896 C 0.01323 0.59584 0.06144 0.0
C1897 C 0.02211 0.60194 0.04873 0.0
C1898 C 0.03394 0.60926 0.05469 0.0
C1899 C 0.03692 0.61049 0.07336 0.0
C1900 C 0.02807 0.60443 0.08613 0.0
C1901 C 0.99726 0.5522 0.14924 0.0
C1902 C 0.00625 0.55881 0.16264 0.0
C1903 C 0.99502 0.5581 0.13508 0.0
C1904 C 0.00182 0.5707 0.13396 0.0
C1905 C 0.01091 0.5773 0.14704 0.0
C1906 C 0.01303 0.57145 0.16132 0.0
C1907 C 0.99932 0.57719 0.11957 0.0
C1908 C 0.00815 0.58368 0.10691 0.0
C1909 C 0.98855 0.57744 0.1188 0.0
C1910 C 0.97893 0.57079 0.13189 0.0
C1911 C 0.98105 0.57323 0.15083 0.0
C1912 C 0.97194 0.56683 0.16308 0.0
C1913 C 0.96065 0.55805 0.15652 0.0
C1914 C 0.95844 0.55567 0.1377 0.0
C1915 C 0.96753 0.56203 0.1254 0.0
H1916 H 0.95361 0.55311 0.16602 0.0
H1917 H 0.0408 0.61398 0.04483 0.0
H1918 H 0.38214 0.382 0.04209 0.0
H1919 H 0.3916 0.39169 0.07165 0.0
H1920 H 0.42171 0.38742 0.05939 0.0
H1921 H 0.41242 0.37781 0.02997 0.0
H1922 H 0.41382 0.38099 0.09479 0.0
H1923 H 0.42368 0.41393 0.05377 0.0
H1924 H 0.4189 0.42565 0.03225 0.0
H1925 H 0.39911 0.43159 0.07363 0.0
H1926 H 0.40363 0.41975 0.09534 0.0
H1927 H 0.4595 0.42013 0.15562 0.0
H1928 H 0.4476 0.41063 0.1277 0.0
H1929 H 0.4221 0.42097 0.14429 0.0
H1930 H 0.43411 0.43067 0.17219 0.0
H1931 H 0.42551 0.42368 0.10835 0.0
H1932 H 0.41658 0.39224 0.15016 0.0
H1933 H 0.4209 0.38038 0.17209 0.0
H1934 H 0.43789 0.37109 0.13005 0.0
H1935 H 0.43384 0.38304 0.10792 0.0
C1936 C 0.39074 0.38305 0.04575 0.0
C1937 C 0.39655 0.37918 0.03363 0.0
C1938 C 0.39614 0.38863 0.0626 0.0
C1939 C 0.40739 0.39034 0.06762 0.0
C1940 C 0.41304 0.38619 0.05576 0.0
C1941 C 0.40772 0.38074 0.03891 0.0
C1942 C 0.41346 0.3966 0.08508 0.0
C1943 C 0.41645 0.39034 0.09772 0.0
C1944 C 0.41655 0.40868 0.08911 0.0
C1945 C 0.41387 0.41584 0.0761 0.0
C1946 C 0.41822 0.41765 0.05823 0.0
C1947 C 0.41557 0.42433 0.04601 0.0
C1948 C 0.40867 0.42933 0.05155 0.0
C1949 C 0.40443 0.42769 0.06935 0.0
C1950 C 0.40704 0.421 0.08162 0.0
C1951 C 0.45138 0.42042 0.15327 0.0
C1952 C 0.44768 0.42605 0.16614 0.0
C1953 C 0.44457 0.41497 0.13735 0.0
C1954 C 0.43382 0.41485 0.1341 0.0
C1955 C 0.43034 0.42089 0.14656 0.0
C1956 C 0.43721 0.42646 0.16245 0.0
C1957 C 0.42612 0.40815 0.11792 0.0
C1958 C 0.42278 0.41429 0.10555 0.0
C1959 C 0.4226 0.3959 0.11419 0.0
C1960 C 0.42498 0.38862 0.12742 0.0
C1961 C 0.42131 0.38773 0.14562 0.0
C1962 C 0.4237 0.38099 0.15808 0.0
C1963 C 0.42969 0.37501 0.15247 0.0
C1964 C 0.43327 0.37573 0.13438 0.0
C1965 C 0.43091 0.38248 0.12186 0.0
H1966 H 0.43153 0.36979 0.16214 0.0
H1967 H 0.40663 0.43451 0.04207 0.0
H1968 H 0.64533 0.70763 0.36602 0.0
H1969 H 0.64725 0.71914 0.39405 0.0
H1970 H 0.68495 0.73175 0.39698 0.0
H1971 H 0.68296 0.71978 0.36931 0.0
H1972 H 0.67701 0.72775 0.42972 0.0
H1973 H 0.67326 0.74946 0.3801 0.0
H1974 H 0.66442 0.75262 0.35209 0.0
H1975 H 0.63239 0.74344 0.38056 0.0
H1976 H 0.64098 0.74007 0.40869 0.0
H1977 H 0.69027 0.77914 0.48803 0.0
H1978 H 0.68906 0.76706 0.46099 0.0
H1979 H 0.65103 0.74557 0.46607 0.0
H1980 H 0.65214 0.75707 0.49369 0.0
H1981 H 0.66 0.75492 0.42927 0.0
H1982 H 0.66497 0.73318 0.47923 0.0
H1983 H 0.67523 0.73151 0.50677 0.0
H1984 H 0.70704 0.74291 0.47642 0.0
H1985 H 0.69701 0.74483 0.44876 0.0
C1986 C 0.65402 0.71278 0.37271 0.0
C1987 C 0.66401 0.71287 0.36538 0.0
C1988 C 0.65512 0.71942 0.38868 0.0
C1989 C 0.66631 0.72659 0.39739 0.0
C1990 C 0.67624 0.72635 0.39047 0.0
C1991 C 0.67509 0.71951 0.37465 0.0
C1992 C 0.66764 0.73447 0.4135 0.0
C1993 C 0.67342 0.7338 0.42948 0.0
C1994 C 0.66292 0.74236 0.41333 0.0
C1995 C 0.65772 0.7444 0.39645 0.0
C1996 C 0.6643 0.74803 0.38035 0.0
C1997 C 0.65934 0.74987 0.36446 0.0
C1998 C 0.64784 0.7482 0.36454 0.0
C1999 C 0.64129 0.74472 0.38052 0.0
C2000 C 0.6462 0.74285 0.39645 0.0
C2001 C 0.68164 0.77176 0.4836 0.0
C2002 C 0.6713 0.76912 0.49319 0.0
C2003 C 0.68098 0.76492 0.46805 0.0
C2004 C 0.66996 0.75543 0.46162 0.0
C2005 C 0.6596 0.75291 0.47082 0.0
C2006 C 0.66027 0.75959 0.48654 0.0
C2007 C 0.66922 0.74805 0.44534 0.0
C2008 C 0.66358 0.74886 0.42937 0.0
C2009 C 0.67428 0.74051 0.4454 0.0
C2010 C 0.68028 0.73928 0.46199 0.0
C2011 C 0.67418 0.73544 0.47848 0.0
C2012 C 0.67995 0.73443 0.4941 0.0
C2013 C 0.69179 0.73714 0.49336 0.0
C2014 C 0.69787 0.74084 0.47698 0.0
C2015 C 0.69215 0.74188 0.46133 0.0
H2016 H 0.69623 0.73635 0.50547 0.0
H2017 H 0.64401 0.74963 0.35222 0.0
H2018 H 0.27011 0.96292 0.4182 0.0
H2019 H 0.25588 0.94669 0.43721 0.0
H2020 H 0.26992 0.92407 0.41949 0.0
H2021 H 0.28397 0.94012 0.40019 0.0
H2022 H 0.24599 0.91112 0.42191 0.0
H2023 H 0.27937 0.94018 0.45969 0.0
H2024 H 0.29322 0.96046 0.47277 0.0
H2025 H 0.26391 0.9623 0.49586 0.0
H2026 H 0.24987 0.94208 0.4827 0.0
H2027 H 0.23532 0.87169 0.49521 0.0
H2028 H 0.24277 0.88632 0.47083 0.0
H2029 H 0.22649 0.9052 0.49541 0.0
H2030 H 0.21938 0.89085 0.52023 0.0
H2031 H 0.2491 0.92029 0.48865 0.0
H2032 H 0.21597 0.88958 0.45421 0.0
H2033 H 0.20252 0.8691 0.44152 0.0
H2034 H 0.23144 0.86999 0.41245 0.0
H2035 H 0.24511 0.89041 0.42517 0.0
C2036 C 0.27005 0.95443 0.41814 0.0
C2037 C 0.27823 0.95284 0.40779 0.0
C2038 C 0.26194 0.94518 0.42906 0.0
C2039 C 0.26195 0.93423 0.42994 0.0
C2040 C 0.26976 0.93245 0.41902 0.0
C2041 C 0.27783 0.94166 0.40807 0.0
C2042 C 0.25441 0.92491 0.44308 0.0
C2043 C 0.24669 0.91309 0.43652 0.0
C2044 C 0.25513 0.92756 0.46209 0.0
C2045 C 0.26356 0.93969 0.47004 0.0
C2046 C 0.27587 0.94495 0.46744 0.0
C2047 C 0.28376 0.95643 0.47488 0.0
C2048 C 0.27945 0.96268 0.48509 0.0
C2049 C 0.26724 0.95746 0.48792 0.0
C2050 C 0.25931 0.94599 0.48048 0.0
C2051 C 0.23325 0.87891 0.49536 0.0
C2052 C 0.22682 0.88014 0.50972 0.0
C2053 C 0.2374 0.88719 0.48129 0.0
C2054 C 0.23511 0.89681 0.48121 0.0
C2055 C 0.22832 0.89782 0.49517 0.0
C2056 C 0.22419 0.88955 0.50927 0.0
C2057 C 0.24075 0.90641 0.46755 0.0
C2058 C 0.24818 0.91832 0.47403 0.0
C2059 C 0.23979 0.9038 0.4485 0.0
C2060 C 0.23159 0.89151 0.44076 0.0
C2061 C 0.21948 0.88538 0.44523 0.0
C2062 C 0.21182 0.87378 0.438 0.0
C2063 C 0.21613 0.86824 0.42622 0.0
C2064 C 0.22811 0.87429 0.42159 0.0
C2065 C 0.23582 0.88589 0.42878 0.0
H2066 H 0.21018 0.85925 0.42064 0.0
H2067 H 0.28556 0.97156 0.49084 0.0
H2068 H 0.04115 0.32297 0.37605 0.0
H2069 H 0.05074 0.32287 0.405 0.0
H2070 H 0.08495 0.34881 0.38442 0.0
H2071 H 0.07547 0.3489 0.35532 0.0
H2072 H 0.08577 0.33043 0.40067 0.0
H2073 H 0.07154 0.35745 0.41565 0.0
H2074 H 0.0567 0.36405 0.41792 0.0
H2075 H 0.0358 0.33467 0.45314 0.0
H2076 H 0.05043 0.32778 0.45088 0.0
H2077 H 0.11632 0.34097 0.48668 0.0
H2078 H 0.10807 0.34405 0.45827 0.0
H2079 H 0.07256 0.31895 0.47542 0.0
H2080 H 0.0807 0.31619 0.5041 0.0
H2081 H 0.07333 0.33829 0.46078 0.0
H2082 H 0.08683 0.31061 0.44436 0.0
H2083 H 0.10146 0.30374 0.44191 0.0
H2084 H 0.12355 0.33422 0.40925 0.0
H2085 H 0.10911 0.34135 0.41172 0.0
C2086 C 0.05071 0.32871 0.37766 0.0
C2087 C 0.05753 0.33595 0.36331 0.0
C2088 C 0.05617 0.32867 0.39428 0.0
C2089 C 0.06854 0.33592 0.39692 0.0
C2090 C 0.07538 0.34317 0.38267 0.0
C2091 C 0.06993 0.34322 0.36605 0.0
C2092 C 0.07438 0.33564 0.41437 0.0
C2093 C 0.08319 0.33235 0.4138 0.0
C2094 C 0.07084 0.3379 0.43151 0.0
C2095 C 0.06203 0.34204 0.43296 0.0
C2096 C 0.06373 0.35234 0.42376 0.0
C2097 C 0.05537 0.35614 0.42507 0.0
C2098 C 0.0453 0.34977 0.43563 0.0
C2099 C 0.04359 0.33959 0.44495 0.0
C2100 C 0.05193 0.33574 0.44368 0.0
C2101 C 0.10675 0.3362 0.48448 0.0
C2102 C 0.09917 0.32826 0.49761 0.0
C2103 C 0.10206 0.33789 0.46817 0.0
C2104 C 0.08971 0.33161 0.46462 0.0
C2105 C 0.08212 0.32386 0.47784 0.0
C2106 C 0.0868 0.32219 0.49415 0.0
C2107 C 0.08464 0.33298 0.44709 0.0
C2108 C 0.07596 0.33646 0.44764 0.0
C2109 C 0.08829 0.33087 0.42993 0.0
C2110 C 0.09696 0.32658 0.4284 0.0
C2111 C 0.09485 0.3159 0.43678 0.0
C2112 C 0.1031 0.31195 0.43537 0.0
C2113 C 0.11345 0.31856 0.42548 0.0
C2114 C 0.11555 0.32912 0.41693 0.0
C2115 C 0.10733 0.33311 0.41833 0.0
H2116 H 0.11982 0.31549 0.42439 0.0
H2117 H 0.03883 0.35273 0.43663 0.0
H2118 H 0.053 0.33186 0.273 0.0
H2119 H 0.06474 0.3273 0.25195 0.0
H2120 H 0.05443 0.29403 0.27935 0.0
H2121 H 0.04237 0.29839 0.30041 0.0
H2122 H 0.08182 0.31233 0.26817 0.0
H2123 H 0.04101 0.28707 0.24632 0.0
H2124 H 0.02084 0.28322 0.23843 0.0
H2125 H 0.03527 0.31115 0.19886 0.0
H2126 H 0.05556 0.3153 0.20673 0.0
H2127 H 0.10737 0.29824 0.19142 0.0
H2128 H 0.09437 0.29565 0.21704 0.0
H2129 H 0.08447 0.31978 0.19189 0.0
H2130 H 0.09684 0.32188 0.16602 0.0
H2131 H 0.06563 0.30139 0.20441 0.0
H2132 H 0.10571 0.32871 0.22779 0.0
H2133 H 0.1265 0.33468 0.23593 0.0
H2134 H 0.11431 0.30504 0.27242 0.0
H2135 H 0.09344 0.29881 0.26431 0.0
C2136 C 0.05332 0.32363 0.27473 0.0
C2137 C 0.04674 0.31545 0.28831 0.0
C2138 C 0.06002 0.32105 0.26269 0.0
C2139 C 0.06038 0.31034 0.26414 0.0
C2140 C 0.05423 0.30235 0.2781 0.0
C2141 C 0.04734 0.30484 0.29003 0.0
C2142 C 0.06668 0.30737 0.25021 0.0
C2143 C 0.07821 0.30963 0.2543 0.0
C2144 C 0.062 0.30411 0.23213 0.0
C2145 C 0.04981 0.30156 0.22723 0.0
C2146 C 0.03989 0.29246 0.23605 0.0
C2147 C 0.02843 0.29021 0.23156 0.0
C2148 C 0.02677 0.29695 0.21818 0.0
C2149 C 0.03657 0.30594 0.20923 0.0
C2150 C 0.04805 0.30824 0.21369 0.0
C2151 C 0.10232 0.30288 0.1913 0.0
C2152 C 0.10326 0.31039 0.17677 0.0
C2153 C 0.09498 0.30148 0.20601 0.0
C2154 C 0.08854 0.30762 0.20648 0.0
C2155 C 0.08935 0.31495 0.19186 0.0
C2156 C 0.09657 0.31627 0.17716 0.0
C2157 C 0.08099 0.30668 0.22213 0.0
C2158 C 0.06919 0.30373 0.21834 0.0
C2159 C 0.08551 0.30948 0.24042 0.0
C2160 C 0.09804 0.3132 0.24526 0.0
C2161 C 0.10747 0.32341 0.23743 0.0
C2162 C 0.11926 0.32685 0.24206 0.0
C2163 C 0.12172 0.32021 0.25463 0.0
C2164 C 0.1124 0.31015 0.26265 0.0
C2165 C 0.10059 0.30666 0.25804 0.0
H2166 H 0.13086 0.32289 0.25821 0.0
H2167 H 0.01789 0.2952 0.21472 0.0
H2168 H 0.65824 0.71247 0.281 0.0
H2169 H 0.6594 0.72851 0.26198 0.0
H2170 H 0.69697 0.75018 0.27495 0.0
H2171 H 0.69584 0.73427 0.29439 0.0
H2172 H 0.68647 0.76394 0.27415 0.0
H2173 H 0.68732 0.7336 0.23536 0.0
H2174 H 0.67992 0.71298 0.22288 0.0
H2175 H 0.64747 0.71123 0.20456 0.0
H2176 H 0.65462 0.73179 0.21716 0.0
H2177 H 0.70623 0.80175 0.19688 0.0
H2178 H 0.70247 0.78778 0.22168 0.0
H2179 H 0.66534 0.76756 0.20515 0.0
H2180 H 0.66912 0.78124 0.17994 0.0
H2181 H 0.67437 0.75311 0.20874 0.0
H2182 H 0.67447 0.78444 0.2453 0.0
H2183 H 0.68224 0.80519 0.25745 0.0
H2184 H 0.71319 0.80538 0.27959 0.0
H2185 H 0.70569 0.78468 0.26735 0.0
C2186 C 0.66672 0.7207 0.28005 0.0
C2187 C 0.67696 0.72206 0.28916 0.0
C2188 C 0.66738 0.72985 0.26908 0.0
C2189 C 0.67831 0.74047 0.26683 0.0
C2190 C 0.68845 0.74205 0.27647 0.0
C2191 C 0.68779 0.73292 0.28751 0.0
C2192 C 0.67931 0.74961 0.25364 0.0
C2193 C 0.68392 0.76161 0.25981 0.0
C2194 C 0.67575 0.74652 0.23502 0.0
C2195 C 0.67145 0.73417 0.22737 0.0
C2196 C 0.67857 0.72878 0.22879 0.0
C2197 C 0.67443 0.71711 0.22168 0.0
C2198 C 0.66322 0.71078 0.21298 0.0
C2199 C 0.65614 0.71613 0.21133 0.0
C2200 C 0.66024 0.72779 0.21844 0.0
C2201 C 0.69725 0.79438 0.1986 0.0
C2202 C 0.68799 0.79258 0.18638 0.0
C2203 C 0.69508 0.78647 0.21291 0.0
C2204 C 0.6836 0.77666 0.21535 0.0
C2205 C 0.67426 0.77509 0.20355 0.0
C2206 C 0.67642 0.78298 0.18923 0.0
C2207 C 0.68155 0.76749 0.22919 0.0
C2208 C 0.67679 0.75546 0.22311 0.0
C2209 C 0.68502 0.77059 0.24784 0.0
C2210 C 0.68956 0.78303 0.25527 0.0
C2211 C 0.68298 0.78893 0.25263 0.0
C2212 C 0.68733 0.80068 0.25956 0.0
C2213 C 0.69822 0.8066 0.26925 0.0
C2214 C 0.70476 0.80078 0.27207 0.0
C2215 C 0.70046 0.78903 0.26516 0.0
H2216 H 0.70157 0.8157 0.2746 0.0
H2217 H 0.66003 0.70175 0.20748 0.0
H2218 H 0.25425 0.95966 0.34077 0.0
H2219 H 0.2442 0.94879 0.31242 0.0
H2220 H 0.27732 0.95339 0.29261 0.0
H2221 H 0.28754 0.96435 0.32102 0.0
H2222 H 0.2644 0.95781 0.2662 0.0
H2223 H 0.25771 0.92697 0.30856 0.0
H2224 H 0.25163 0.91633 0.33771 0.0
H2225 H 0.21605 0.90969 0.32854 0.0
H2226 H 0.22197 0.92045 0.29945 0.0
H2227 H 0.2391 0.91519 0.19271 0.0
H2228 H 0.24989 0.92586 0.22078 0.0
H2229 H 0.21707 0.91973 0.24423 0.0
H2230 H 0.20609 0.90855 0.2164 0.0
H2231 H 0.23031 0.91598 0.2688 0.0
H2232 H 0.23699 0.94715 0.22687 0.0
H2233 H 0.243 0.95792 0.19782 0.0
H2234 H 0.27848 0.96411 0.20623 0.0
H2235 H 0.27262 0.95321 0.23522 0.0
C2236 C 0.25946 0.95844 0.33039 0.0
C2237 C 0.27172 0.96285 0.33325 0.0
C2238 C 0.25366 0.95217 0.31421 0.0
C2239 C 0.25998 0.95016 0.30053 0.0
C2240 C 0.27228 0.95482 0.30305 0.0
C2241 C 0.27809 0.96106 0.31931 0.0
C2242 C 0.25367 0.94307 0.28369 0.0
C2243 C 0.25706 0.9486 0.26671 0.0
C2244 C 0.24393 0.93116 0.28446 0.0
C2245 C 0.24032 0.92462 0.30191 0.0
C2246 C 0.24862 0.92333 0.31283 0.0
C2247 C 0.24519 0.91726 0.32933 0.0
C2248 C 0.23347 0.91236 0.335 0.0
C2249 C 0.22513 0.9135 0.32415 0.0
C2250 C 0.22852 0.91957 0.30764 0.0
C2251 C 0.23412 0.91593 0.20392 0.0
C2252 C 0.22171 0.91099 0.20229 0.0
C2253 C 0.24034 0.92218 0.21989 0.0
C2254 C 0.23432 0.92376 0.23451 0.0
C2255 C 0.22191 0.91867 0.23308 0.0
C2256 C 0.21566 0.91237 0.21711 0.0
C2257 C 0.24098 0.93074 0.25126 0.0
C2258 C 0.23766 0.92518 0.26825 0.0
C2259 C 0.25077 0.94264 0.2505 0.0
C2260 C 0.25433 0.94926 0.23312 0.0
C2261 C 0.24605 0.95072 0.22245 0.0
C2262 C 0.24943 0.95687 0.20601 0.0
C2263 C 0.26111 0.96167 0.20016 0.0
C2264 C 0.26943 0.96037 0.21076 0.0
C2265 C 0.26609 0.95422 0.22721 0.0
H2266 H 0.26371 0.96642 0.18742 0.0
H2267 H 0.23083 0.90767 0.34778 0.0
H2268 H 0.66148 0.95592 0.30632 0.0
H2269 H 0.66369 0.94732 0.27746 0.0
H2270 H 0.69239 0.94402 0.30186 0.0
H2271 H 0.69038 0.95269 0.33051 0.0
H2272 H 0.69801 0.95326 0.2685 0.0
H2273 H 0.66466 0.91958 0.2959 0.0
H2274 H 0.64485 0.9088 0.30957 0.0
H2275 H 0.62885 0.91261 0.26011 0.0
H2276 H 0.6486 0.92357 0.24623 0.0
H2277 H 0.70218 0.91274 0.20611 0.0
H2278 H 0.69902 0.92191 0.23348 0.0
H2279 H 0.67109 0.92454 0.2049 0.0
H2280 H 0.67427 0.9155 0.17743 0.0
H2281 H 0.66467 0.91626 0.23924 0.0
H2282 H 0.69809 0.94922 0.21141 0.0
H2283 H 0.71794 0.95979 0.19785 0.0
H2284 H 0.73387 0.95722 0.24828 0.0
H2285 H 0.71408 0.94648 0.26207 0.0
C2286 C 0.66826 0.95337 0.30554 0.0
C2287 C 0.67573 0.955 0.32079 0.0
C2288 C 0.66949 0.94841 0.28905 0.0
C2289 C 0.67816 0.94495 0.28755 0.0
C2290 C 0.68566 0.94665 0.30269 0.0
C2291 C 0.68445 0.95158 0.31911 0.0
C2292 C 0.67954 0.93959 0.27026 0.0
C2293 C 0.69075 0.9451 0.2622 0.0
C2294 C 0.67 0.92911 0.2618 0.0
C2295 C 0.65812 0.92251 0.27011 0.0
C2296 C 0.65693 0.91821 0.288 0.0
C2297 C 0.64571 0.91205 0.29577 0.0
C2298 C 0.6356 0.91006 0.28573 0.0
C2299 C 0.63669 0.91419 0.26788 0.0
C2300 C 0.64789 0.92036 0.26005 0.0
C2301 C 0.69543 0.91535 0.2056 0.0
C2302 C 0.6885 0.91339 0.18956 0.0
C2303 C 0.69361 0.92056 0.22127 0.0
C2304 C 0.68489 0.92401 0.22117 0.0
C2305 C 0.67785 0.92192 0.20529 0.0
C2306 C 0.67966 0.91671 0.18962 0.0
C2307 C 0.68317 0.92986 0.23762 0.0
C2308 C 0.67191 0.92445 0.24549 0.0
C2309 C 0.69267 0.94043 0.24594 0.0
C2310 C 0.70459 0.94695 0.23772 0.0
C2311 C 0.70582 0.95083 0.21957 0.0
C2312 C 0.71706 0.95686 0.21185 0.0
C2313 C 0.72716 0.95915 0.22218 0.0
C2314 C 0.72604 0.95543 0.24029 0.0
C2315 C 0.71481 0.94938 0.24807 0.0
H2316 H 0.73585 0.96382 0.21618 0.0
H2317 H 0.62692 0.90529 0.29177 0.0
H2318 H 0.04113 0.73408 0.29017 0.0
H2319 H 0.05325 0.75039 0.26941 0.0
H2320 H 0.08014 0.74 0.27072 0.0
H2321 H 0.0681 0.7237 0.29124 0.0
H2322 H 0.08917 0.76583 0.27229 0.0
H2323 H 0.06123 0.72932 0.23744 0.0
H2324 H 0.04109 0.71273 0.22894 0.0
H2325 H 0.03056 0.73844 0.21397 0.0
H2326 H 0.05062 0.75519 0.22264 0.0
H2327 H 0.12187 0.78419 0.19201 0.0
H2328 H 0.11004 0.77434 0.21848 0.0
H2329 H 0.08283 0.78185 0.19934 0.0
H2330 H 0.09423 0.79095 0.17209 0.0
H2331 H 0.07284 0.75993 0.20871 0.0
H2332 H 0.10134 0.79652 0.23843 0.0
H2333 H 0.1212 0.81353 0.24715 0.0
H2334 H 0.1304 0.7891 0.27239 0.0
H2335 H 0.11066 0.77192 0.26359 0.0
C2336 C 0.04971 0.7354 0.28624 0.0
C2337 C 0.0536 0.7275 0.2921 0.0
C2338 C 0.0566 0.7447 0.2744 0.0
C2339 C 0.06753 0.74632 0.26849 0.0
C2340 C 0.07172 0.73887 0.27514 0.0
C2341 C 0.06477 0.72948 0.28673 0.0
C2342 C 0.07417 0.75502 0.25417 0.0
C2343 C 0.08566 0.76459 0.25835 0.0
C2344 C 0.06938 0.75356 0.23619 0.0
C2345 C 0.05736 0.74349 0.23091 0.0
C2346 C 0.05459 0.73143 0.2325 0.0
C2347 C 0.04319 0.722 0.22762 0.0
C2348 C 0.03454 0.72453 0.22098 0.0
C2349 C 0.03727 0.73649 0.21916 0.0
C2350 C 0.04864 0.74596 0.22405 0.0
C2351 C 0.11335 0.78371 0.19334 0.0
C2352 C 0.10899 0.7883 0.17978 0.0
C2353 C 0.10667 0.77825 0.2087 0.0
C2354 C 0.0956 0.7775 0.2111 0.0
C2355 C 0.09136 0.78237 0.19785 0.0
C2356 C 0.09796 0.78768 0.18234 0.0
C2357 C 0.08806 0.77075 0.22662 0.0
C2358 C 0.07636 0.76146 0.22267 0.0
C2359 C 0.09263 0.7726 0.24486 0.0
C2360 C 0.10453 0.78291 0.25024 0.0
C2361 C 0.10763 0.79476 0.24573 0.0
C2362 C 0.11886 0.80444 0.25071 0.0
C2363 C 0.12706 0.80239 0.2603 0.0
C2364 C 0.12403 0.79067 0.26496 0.0
C2365 C 0.11281 0.78096 0.26001 0.0
H2366 H 0.13575 0.8099 0.26414 0.0
H2367 H 0.02572 0.71722 0.21721 0.0
H2368 H 0.25859 0.31847 0.3294 0.0
H2369 H 0.25079 0.32092 0.30029 0.0
H2370 H 0.28628 0.34726 0.28475 0.0
H2371 H 0.29421 0.34506 0.31416 0.0
H2372 H 0.27105 0.35494 0.27736 0.0
H2373 H 0.27201 0.3187 0.26544 0.0
H2374 H 0.26828 0.29817 0.27113 0.0
H2375 H 0.23057 0.28459 0.26897 0.0
H2376 H 0.23408 0.30508 0.26352 0.0
H2377 H 0.25368 0.35495 0.18403 0.0
H2378 H 0.26308 0.35307 0.21203 0.0
H2379 H 0.22854 0.3284 0.23296 0.0
H2380 H 0.21902 0.3304 0.20512 0.0
H2381 H 0.24432 0.32008 0.23655 0.0
H2382 H 0.24374 0.35679 0.24957 0.0
H2383 H 0.24778 0.37739 0.24353 0.0
H2384 H 0.2853 0.39009 0.24296 0.0
H2385 H 0.28148 0.36953 0.24874 0.0
C2386 C 0.26479 0.32474 0.31979 0.0
C2387 C 0.27705 0.33155 0.32415 0.0
C2388 C 0.2603 0.32609 0.30308 0.0
C2389 C 0.26796 0.33416 0.29024 0.0
C2390 C 0.28021 0.34096 0.29446 0.0
C2391 C 0.28473 0.33965 0.31125 0.0
C2392 C 0.26306 0.33575 0.27268 0.0
C2393 C 0.26538 0.34735 0.26827 0.0
C2394 C 0.25547 0.3258 0.261 0.0
C2395 C 0.25332 0.31345 0.26423 0.0
C2396 C 0.26292 0.31135 0.26632 0.0
C2397 C 0.26085 0.29972 0.26948 0.0
C2398 C 0.2492 0.29008 0.27045 0.0
C2399 C 0.23959 0.29206 0.26823 0.0
C2400 C 0.24162 0.30368 0.26508 0.0
C2401 C 0.24805 0.34929 0.19471 0.0
C2402 C 0.23558 0.34285 0.19234 0.0
C2403 C 0.25346 0.34818 0.21067 0.0
C2404 C 0.2465 0.34064 0.22459 0.0
C2405 C 0.23406 0.33424 0.22233 0.0
C2406 C 0.22864 0.33537 0.2064 0.0
C2407 C 0.25221 0.33924 0.24138 0.0
C2408 C 0.25005 0.32767 0.24561 0.0
C2409 C 0.26 0.34922 0.25282 0.0
C2410 C 0.26231 0.3616 0.2494 0.0
C2411 C 0.25285 0.36396 0.248 0.0
C2412 C 0.2551 0.37563 0.24466 0.0
C2413 C 0.26679 0.38504 0.24281 0.0
C2414 C 0.27625 0.3828 0.24436 0.0
C2415 C 0.27405 0.37113 0.24769 0.0
H2416 H 0.26851 0.39407 0.24022 0.0
H2417 H 0.24761 0.28108 0.2729 0.0
H2418 H 0.29199 0.36683 0.39753 0.0
H2419 H 0.27826 0.37019 0.41596 0.0
H2420 H 0.2567 0.33187 0.42351 0.0
H2421 H 0.27042 0.32843 0.40541 0.0
H2422 H 0.24336 0.34386 0.41639 0.0
H2423 H 0.27578 0.34752 0.45554 0.0
H2424 H 0.29695 0.35614 0.46451 0.0
H2425 H 0.30105 0.39155 0.46821 0.0
H2426 H 0.27992 0.38314 0.45901 0.0
H2427 H 0.21236 0.33554 0.49797 0.0
H2428 H 0.2239 0.3362 0.47163 0.0
H2429 H 0.24642 0.37469 0.47993 0.0
H2430 H 0.23541 0.37397 0.50709 0.0
H2431 H 0.25958 0.36526 0.47621 0.0
H2432 H 0.22663 0.36162 0.44171 0.0
H2433 H 0.20558 0.35346 0.43243 0.0
H2434 H 0.20236 0.31915 0.4191 0.0
H2435 H 0.22335 0.32704 0.42854 0.0
C2436 C 0.28425 0.3591 0.40293 0.0
C2437 C 0.28231 0.34735 0.40003 0.0
C2438 C 0.27642 0.36105 0.41343 0.0
C2439 C 0.26651 0.35127 0.42109 0.0
C2440 C 0.26428 0.33951 0.4176 0.0
C2441 C 0.27216 0.33757 0.40728 0.0
C2442 C 0.25896 0.35331 0.43395 0.0
C2443 C 0.24684 0.34849 0.42952 0.0
C2444 C 0.26365 0.35969 0.45076 0.0
C2445 C 0.27632 0.36473 0.45638 0.0
C2446 C 0.28122 0.35716 0.45811 0.0
C2447 C 0.29321 0.362 0.46327 0.0
C2448 C 0.30035 0.37439 0.46687 0.0
C2449 C 0.29551 0.38196 0.46538 0.0
C2450 C 0.28353 0.37716 0.4602 0.0
C2451 C 0.21975 0.34416 0.4942 0.0
C2452 C 0.22302 0.35468 0.50482 0.0
C2453 C 0.22624 0.34456 0.47891 0.0
C2454 C 0.23599 0.35552 0.47364 0.0
C2455 C 0.23893 0.36613 0.4837 0.0
C2456 C 0.23253 0.36571 0.49915 0.0
C2457 C 0.2438 0.35565 0.45889 0.0
C2458 C 0.25603 0.36084 0.46297 0.0
C2459 C 0.2392 0.34971 0.44168 0.0
C2460 C 0.22656 0.34491 0.43596 0.0
C2461 C 0.22141 0.35231 0.43693 0.0
C2462 C 0.20949 0.34773 0.43162 0.0
C2463 C 0.20263 0.33579 0.42521 0.0
C2464 C 0.20769 0.3284 0.42407 0.0
C2465 C 0.21961 0.33293 0.42937 0.0
H2466 H 0.1934 0.33227 0.42111 0.0
H2467 H 0.30963 0.37813 0.47086 0.0
H2468 H 0.67328 0.95067 0.40052 0.0
H2469 H 0.67001 0.93389 0.41976 0.0
H2470 H 0.6322 0.91689 0.40888 0.0
H2471 H 0.63539 0.93352 0.38924 0.0
H2472 H 0.63956 0.91981 0.44704 0.0
H2473 H 0.64516 0.90429 0.39012 0.0
H2474 H 0.65567 0.90522 0.36183 0.0
H2475 H 0.68613 0.9106 0.39365 0.0
H2476 H 0.67587 0.90989 0.42214 0.0
H2477 H 0.62677 0.86928 0.49923 0.0
H2478 H 0.62712 0.8811 0.47316 0.0
H2479 H 0.66497 0.89548 0.4691 0.0
H2480 H 0.66455 0.88299 0.49421 0.0
H2481 H 0.656 0.89264 0.43652 0.0
H2482 H 0.6525 0.91076 0.49246 0.0
H2483 H 0.64354 0.91148 0.52164 0.0
H2484 H 0.61107 0.90317 0.49299 0.0
H2485 H 0.61979 0.90225 0.46365 0.0
C2486 C 0.66429 0.94331 0.40197 0.0
C2487 C 0.65461 0.94343 0.39328 0.0
C2488 C 0.66244 0.93372 0.41297 0.0
C2489 C 0.65087 0.92415 0.41564 0.0
C2490 C 0.64119 0.92419 0.40691 0.0
C2491 C 0.64305 0.93368 0.39568 0.0
C2492 C 0.64887 0.91449 0.42839 0.0
C2493 C 0.64294 0.91369 0.44461 0.0
C2494 C 0.65362 0.90681 0.42539 0.0
C2495 C 0.65978 0.90714 0.40827 0.0
C2496 C 0.65414 0.90577 0.39109 0.0
C2497 C 0.66005 0.90624 0.37501 0.0
C2498 C 0.67157 0.90799 0.37594 0.0
C2499 C 0.67721 0.90925 0.39295 0.0
C2500 C 0.67134 0.90881 0.40907 0.0
C2501 C 0.63513 0.8747 0.49253 0.0
C2502 C 0.64567 0.87529 0.49908 0.0
C2503 C 0.63534 0.8816 0.47774 0.0
C2504 C 0.64613 0.88945 0.46946 0.0
C2505 C 0.65655 0.88959 0.47535 0.0
C2506 C 0.65631 0.88255 0.48991 0.0
C2507 C 0.64674 0.89799 0.45536 0.0
C2508 C 0.65246 0.89862 0.43889 0.0
C2509 C 0.64201 0.90572 0.45829 0.0
C2510 C 0.63675 0.9063 0.4759 0.0
C2511 C 0.64342 0.909 0.49241 0.0
C2512 C 0.63839 0.90946 0.50897 0.0
C2513 C 0.62673 0.90734 0.50918 0.0
C2514 C 0.62009 0.90479 0.49281 0.0
C2515 C 0.62507 0.9043 0.47621 0.0
H2516 H 0.62285 0.9077 0.52201 0.0
H2517 H 0.67613 0.90836 0.36348 0.0
H2518 H 0.08262 0.72601 0.35123 0.0
H2519 H 0.09355 0.73434 0.38012 0.0
H2520 H 0.06097 0.71455 0.4095 0.0
H2521 H 0.04985 0.70655 0.38041 0.0
H2522 H 0.07339 0.73581 0.42452 0.0
H2523 H 0.08239 0.70533 0.40684 0.0
H2524 H 0.08881 0.69424 0.38647 0.0
H2525 H 0.12337 0.72582 0.38312 0.0
H2526 H 0.11711 0.73715 0.40329 0.0
H2527 H 0.10346 0.74154 0.5104 0.0
H2528 H 0.0918 0.73287 0.4819 0.0
H2529 H 0.12118 0.75906 0.45096 0.0
H2530 H 0.13285 0.76788 0.4795 0.0
H2531 H 0.11008 0.73394 0.43766 0.0
H2532 H 0.09996 0.76409 0.45607 0.0
H2533 H 0.09295 0.77398 0.4778 0.0
H2534 H 0.05954 0.74101 0.48141 0.0
H2535 H 0.06643 0.73088 0.45991 0.0
C2536 C 0.07776 0.7234 0.36383 0.0
C2537 C 0.06538 0.71553 0.36355 0.0
C2538 C 0.08404 0.72814 0.38038 0.0
C2539 C 0.07815 0.72485 0.39706 0.0
C2540 C 0.06573 0.71717 0.39682 0.0
C2541 C 0.05939 0.71259 0.3802 0.0
C2542 C 0.08499 0.72953 0.41468 0.0
C2543 C 0.0813 0.73522 0.42747 0.0
C2544 C 0.09542 0.72891 0.41854 0.0
C2545 C 0.09924 0.72212 0.40645 0.0
C2546 C 0.09133 0.70993 0.40166 0.0
C2547 C 0.09495 0.7036 0.39016 0.0
C2548 C 0.10648 0.70933 0.38347 0.0
C2549 C 0.11443 0.72139 0.3883 0.0
C2550 C 0.11086 0.72777 0.39978 0.0
C2551 C 0.10745 0.74538 0.4975 0.0
C2552 C 0.11905 0.75535 0.4971 0.0
C2553 C 0.10077 0.74048 0.48128 0.0
C2554 C 0.10563 0.74537 0.46439 0.0
C2555 C 0.11729 0.75519 0.4639 0.0
C2556 C 0.12391 0.76023 0.48016 0.0
C2557 C 0.09851 0.74025 0.44724 0.0
C2558 C 0.10214 0.73447 0.43462 0.0
C2559 C 0.08793 0.74058 0.44371 0.0
C2560 C 0.08376 0.74669 0.45653 0.0
C2561 C 0.09116 0.75892 0.46163 0.0
C2562 C 0.0872 0.76458 0.47388 0.0
C2563 C 0.07582 0.75812 0.48102 0.0
C2564 C 0.06836 0.746 0.47589 0.0
C2565 C 0.07228 0.7403 0.46366 0.0
H2566 H 0.07278 0.76251 0.4905 0.0
H2567 H 0.10926 0.70441 0.37457 0.0
H2568 H 0.33811 0.0377 0.71261 0.0
H2569 H 0.33607 0.04566 0.7422 0.0
H2570 H 0.31806 0.06205 0.71524 0.0
H2571 H 0.31965 0.05377 0.68588 0.0
H2572 H 0.34384 0.06685 0.75648 0.0
H2573 H 0.29774 0.06286 0.74134 0.0
H2574 H 0.27919 0.04957 0.72372 0.0
H2575 H 0.28665 0.0205 0.7263 0.0
H2576 H 0.30516 0.03355 0.74414 0.0
H2577 H 0.3353 0.10407 0.8192 0.0
H2578 H 0.33712 0.09382 0.79195 0.0
H2579 H 0.30714 0.06029 0.80869 0.0
H2580 H 0.30502 0.07068 0.83553 0.0
H2581 H 0.30493 0.06175 0.77462 0.0
H2582 H 0.33711 0.0668 0.81289 0.0
H2583 H 0.35508 0.07763 0.83284 0.0
H2584 H 0.37438 0.10003 0.78829 0.0
H2585 H 0.35647 0.08944 0.76814 0.0
C2586 C 0.3337 0.04298 0.71302 0.0
C2587 C 0.32893 0.04499 0.69692 0.0
C2588 C 0.33255 0.04754 0.72994 0.0
C2589 C 0.32671 0.05427 0.73104 0.0
C2590 C 0.3223 0.0566 0.71487 0.0
C2591 C 0.32327 0.0519 0.69805 0.0
C2592 C 0.32525 0.05895 0.749 0.0
C2593 C 0.33533 0.0657 0.76047 0.0
C2594 C 0.31408 0.05719 0.75452 0.0
C2595 C 0.30289 0.04923 0.74395 0.0
C2596 C 0.29539 0.05362 0.73822 0.0
C2597 C 0.28489 0.04613 0.72818 0.0
C2598 C 0.28176 0.03421 0.72385 0.0
C2599 C 0.28911 0.02975 0.7296 0.0
C2600 C 0.29961 0.03719 0.73966 0.0
C2601 C 0.32913 0.0945 0.81703 0.0
C2602 C 0.32003 0.08815 0.82943 0.0
C2603 C 0.33021 0.08863 0.80153 0.0
C2604 C 0.32241 0.0762 0.79838 0.0
C2605 C 0.31328 0.06987 0.81077 0.0
C2606 C 0.31206 0.0758 0.82609 0.0
C2607 C 0.32358 0.0699 0.78193 0.0
C2608 C 0.31344 0.06285 0.77072 0.0
C2609 C 0.3346 0.07102 0.777 0.0
C2610 C 0.34542 0.07739 0.78905 0.0
C2611 C 0.34517 0.07409 0.80738 0.0
C2612 C 0.35534 0.08018 0.81872 0.0
C2613 C 0.36586 0.08953 0.81185 0.0
C2614 C 0.36623 0.09279 0.7936 0.0
C2615 C 0.35607 0.08674 0.78221 0.0
H2616 H 0.37373 0.09424 0.82065 0.0
H2617 H 0.27363 0.02843 0.71606 0.0
H2618 H 0.95375 0.27534 0.74055 0.0
H2619 H 0.93894 0.2603 0.76039 0.0
H2620 H 0.92379 0.28321 0.7692 0.0
H2621 H 0.93886 0.29846 0.75012 0.0
H2622 H 0.9258 0.27501 0.80006 0.0
H2623 H 0.9101 0.25727 0.74124 0.0
H2624 H 0.91041 0.24991 0.71002 0.0
H2625 H 0.91774 0.22328 0.73188 0.0
H2626 H 0.91774 0.23067 0.76328 0.0
H2627 H 0.87243 0.23012 0.83966 0.0
H2628 H 0.88497 0.24285 0.8154 0.0
H2629 H 0.90814 0.22803 0.82198 0.0
H2630 H 0.89615 0.21578 0.84698 0.0
H2631 H 0.90111 0.23156 0.78265 0.0
H2632 H 0.91817 0.25156 0.8419 0.0
H2633 H 0.91681 0.25918 0.87246 0.0
H2634 H 0.90501 0.28177 0.84782 0.0
H2635 H 0.90612 0.27412 0.81712 0.0
C2636 C 0.94723 0.27715 0.74665 0.0
C2637 C 0.94743 0.28807 0.74361 0.0
C2638 C 0.93872 0.26851 0.7579 0.0
C2639 C 0.93013 0.27054 0.76609 0.0
C2640 C 0.93029 0.28142 0.76299 0.0
C2641 C 0.93889 0.29011 0.75195 0.0
C2642 C 0.92128 0.26158 0.77852 0.0
C2643 C 0.9203 0.26556 0.79608 0.0
C2644 C 0.91416 0.24919 0.77347 0.0
C2645 C 0.91404 0.24461 0.75463 0.0
C2646 C 0.91187 0.24991 0.7394 0.0
C2647 C 0.91198 0.24572 0.72166 0.0
C2648 C 0.9141 0.23614 0.71896 0.0
C2649 C 0.9161 0.23071 0.734 0.0
C2650 C 0.91606 0.2349 0.75178 0.0
C2651 C 0.88021 0.22956 0.83605 0.0
C2652 C 0.88332 0.22199 0.84553 0.0
C2653 C 0.88726 0.23674 0.82202 0.0
C2654 C 0.89744 0.23634 0.81698 0.0
C2655 C 0.90024 0.22836 0.82563 0.0
C2656 C 0.89332 0.22133 0.83989 0.0
C2657 C 0.90576 0.24508 0.80397 0.0
C2658 C 0.90662 0.24105 0.78642 0.0
C2659 C 0.91263 0.25747 0.80883 0.0
C2660 C 0.91209 0.26217 0.82726 0.0
C2661 C 0.91518 0.25806 0.84302 0.0
C2662 C 0.91447 0.2624 0.86036 0.0
C2663 C 0.91079 0.27093 0.86208 0.0
C2664 C 0.90784 0.27515 0.84647 0.0
C2665 C 0.90851 0.27082 0.8291 0.0
H2666 H 0.91026 0.27428 0.87552 0.0
H2667 H 0.91418 0.23291 0.70521 0.0
H2668 H 0.71625 0.6565 0.70214 0.0
H2669 H 0.72728 0.65997 0.7311 0.0
H2670 H 0.7555 0.69372 0.71162 0.0
H2671 H 0.74471 0.69014 0.68242 0.0
H2672 H 0.76474 0.68226 0.72769 0.0
H2673 H 0.73484 0.69213 0.74347 0.0
H2674 H 0.71449 0.68882 0.74587 0.0
H2675 H 0.70494 0.6582 0.77943 0.0
H2676 H 0.7252 0.66123 0.77703 0.0
H2677 H 0.79341 0.70792 0.81411 0.0
H2678 H 0.78239 0.70359 0.78485 0.0
H2679 H 0.75731 0.66787 0.80263 0.0
H2680 H 0.76824 0.67218 0.83199 0.0
H2681 H 0.74645 0.67995 0.78771 0.0
H2682 H 0.77711 0.67096 0.77216 0.0
H2683 H 0.79778 0.67516 0.77 0.0
H2684 H 0.80623 0.70542 0.7362 0.0
H2685 H 0.78564 0.70151 0.73837 0.0
C2686 C 0.72478 0.66469 0.70404 0.0
C2687 C 0.72958 0.67305 0.68996 0.0
C2688 C 0.73106 0.66669 0.72065 0.0
C2689 C 0.74217 0.67719 0.72366 0.0
C2690 C 0.74696 0.68555 0.70963 0.0
C2691 C 0.74076 0.6835 0.69294 0.0
C2692 C 0.74892 0.67937 0.74126 0.0
C2693 C 0.76077 0.68192 0.74079 0.0
C2694 C 0.74369 0.67867 0.75842 0.0
C2695 C 0.73151 0.67684 0.75992 0.0
C2696 C 0.72838 0.68464 0.75125 0.0
C2697 C 0.71686 0.68282 0.75263 0.0
C2698 C 0.70842 0.67328 0.76275 0.0
C2699 C 0.71148 0.66557 0.77157 0.0
C2700 C 0.72298 0.66734 0.77022 0.0
C2701 C 0.78556 0.69914 0.81175 0.0
C2702 C 0.78169 0.69037 0.82531 0.0
C2703 C 0.77932 0.69666 0.79502 0.0
C2704 C 0.76908 0.68539 0.79156 0.0
C2705 C 0.76521 0.67661 0.80504 0.0
C2706 C 0.77151 0.67905 0.82172 0.0
C2707 C 0.76223 0.68288 0.77406 0.0
C2708 C 0.75037 0.68028 0.77458 0.0
C2709 C 0.76749 0.68366 0.75696 0.0
C2710 C 0.77986 0.686 0.75557 0.0
C2711 C 0.7834 0.67857 0.76439 0.0
C2712 C 0.7951 0.68089 0.76314 0.0
C2713 C 0.80332 0.69057 0.75301 0.0
C2714 C 0.79985 0.69793 0.74406 0.0
C2715 C 0.78817 0.69566 0.74528 0.0
H2716 H 0.81237 0.69235 0.75206 0.0
H2717 H 0.6995 0.67189 0.7638 0.0
H2718 H 0.71378 0.62964 0.63253 0.0
H2719 H 0.72626 0.62483 0.6134 0.0
H2720 H 0.73749 0.65762 0.58392 0.0
H2721 H 0.72531 0.66259 0.60318 0.0
H2722 H 0.72441 0.62007 0.57842 0.0
H2723 H 0.76459 0.66846 0.56764 0.0
H2724 H 0.77643 0.68743 0.58556 0.0
H2725 H 0.76689 0.66781 0.63545 0.0
H2726 H 0.75513 0.6487 0.61783 0.0
H2727 H 0.75032 0.62628 0.49309 0.0
H2728 H 0.74101 0.62718 0.52134 0.0
H2729 H 0.77244 0.63398 0.55239 0.0
H2730 H 0.78189 0.63325 0.52399 0.0
H2731 H 0.76604 0.64932 0.5627 0.0
H2732 H 0.74593 0.60684 0.55536 0.0
H2733 H 0.73465 0.58703 0.5394 0.0
H2734 H 0.70537 0.59312 0.52975 0.0
H2735 H 0.71654 0.61305 0.54543 0.0
C2736 C 0.71905 0.6359 0.62213 0.0
C2737 C 0.71859 0.64651 0.61939 0.0
C2738 C 0.72615 0.63313 0.6112 0.0
C2739 C 0.73291 0.64092 0.59735 0.0
C2740 C 0.73258 0.65159 0.59478 0.0
C2741 C 0.72555 0.65441 0.60577 0.0
C2742 C 0.73966 0.63756 0.58466 0.0
C2743 C 0.73355 0.62641 0.57511 0.0
C2744 C 0.7517 0.64568 0.58069 0.0
C2745 C 0.75891 0.65714 0.59139 0.0
C2746 C 0.76507 0.66818 0.58242 0.0
C2747 C 0.77176 0.67896 0.59253 0.0
C2748 C 0.77239 0.67883 0.61163 0.0
C2749 C 0.76636 0.66791 0.62065 0.0
C2750 C 0.75968 0.6571 0.61061 0.0
C2751 C 0.75515 0.6277 0.50597 0.0
C2752 C 0.76682 0.62967 0.50634 0.0
C2753 C 0.74982 0.6282 0.52213 0.0
C2754 C 0.75597 0.63051 0.53904 0.0
C2755 C 0.76752 0.63219 0.53951 0.0
C2756 C 0.77291 0.63178 0.5233 0.0
C2757 C 0.75061 0.63206 0.55594 0.0
C2758 C 0.75698 0.64287 0.56626 0.0
C2759 C 0.73891 0.6235 0.56091 0.0
C2760 C 0.73211 0.61148 0.55151 0.0
C2761 C 0.73712 0.60399 0.54974 0.0
C2762 C 0.73074 0.59273 0.54075 0.0
C2763 C 0.71931 0.58883 0.53355 0.0
C2764 C 0.71422 0.59616 0.53535 0.0
C2765 C 0.72057 0.60744 0.54431 0.0
H2766 H 0.71438 0.58011 0.52659 0.0
H2767 H 0.77756 0.68719 0.61943 0.0
H2768 H 0.36651 0.06887 0.63177 0.0
H2769 H 0.36882 0.08539 0.61265 0.0
H2770 H 0.33234 0.0638 0.59337 0.0
H2771 H 0.33008 0.04716 0.61196 0.0
H2772 H 0.34633 0.07353 0.56569 0.0
H2773 H 0.3414 0.08807 0.62379 0.0
H2774 H 0.34561 0.09389 0.65655 0.0
H2775 H 0.38129 0.12113 0.6445 0.0
H2776 H 0.37735 0.11536 0.61167 0.0
H2777 H 0.34211 0.11876 0.51863 0.0
H2778 H 0.339 0.10436 0.54245 0.0
H2779 H 0.37641 0.12434 0.5572 0.0
H2780 H 0.37957 0.13898 0.53359 0.0
H2781 H 0.36187 0.1158 0.58763 0.0
H2782 H 0.36672 0.1006 0.52963 0.0
H2783 H 0.36229 0.09479 0.49689 0.0
H2784 H 0.32626 0.06861 0.50916 0.0
H2785 H 0.33044 0.0744 0.54197 0.0
C2786 C 0.35895 0.06768 0.62357 0.0
C2787 C 0.34809 0.0567 0.62346 0.0
C2788 C 0.36026 0.07716 0.61273 0.0
C2789 C 0.35071 0.07589 0.6017 0.0
C2790 C 0.33982 0.065 0.60178 0.0
C2791 C 0.33852 0.0555 0.61252 0.0
C2792 C 0.35223 0.08562 0.5893 0.0
C2793 C 0.34954 0.08272 0.57058 0.0
C2794 C 0.35672 0.09769 0.59556 0.0
C2795 C 0.35911 0.1012 0.61529 0.0
C2796 C 0.35017 0.09524 0.62814 0.0
C2797 C 0.3525 0.09854 0.64671 0.0
C2798 C 0.36372 0.10785 0.6526 0.0
C2799 C 0.37261 0.1139 0.63992 0.0
C2800 C 0.37033 0.11063 0.62132 0.0
C2801 C 0.34964 0.12026 0.5272 0.0
C2802 C 0.3611 0.12998 0.52416 0.0
C2803 C 0.34786 0.11197 0.54072 0.0
C2804 C 0.3575 0.11321 0.55141 0.0
C2805 C 0.36886 0.12321 0.54904 0.0
C2806 C 0.37066 0.13151 0.53547 0.0
C2807 C 0.35586 0.10364 0.56417 0.0
C2808 C 0.35859 0.10657 0.58286 0.0
C2809 C 0.35136 0.09157 0.55793 0.0
C2810 C 0.34886 0.08802 0.53823 0.0
C2811 C 0.35783 0.09367 0.52533 0.0
C2812 C 0.35537 0.09037 0.50676 0.0
C2813 C 0.34399 0.08136 0.50094 0.0
C2814 C 0.33506 0.0756 0.51369 0.0
C2815 C 0.33747 0.07888 0.53227 0.0
H2816 H 0.3421 0.07882 0.48656 0.0
H2817 H 0.3655 0.1104 0.66699 0.0
H2818 H 0.9215 0.28916 0.67652 0.0
H2819 H 0.91096 0.2775 0.64891 0.0
H2820 H 0.94411 0.28361 0.62685 0.0
H2821 H 0.9548 0.29536 0.65449 0.0
H2822 H 0.93037 0.28759 0.60186 0.0
H2823 H 0.9252 0.25677 0.6434 0.0
H2824 H 0.91955 0.24556 0.6721 0.0
H2825 H 0.88344 0.23746 0.6637 0.0
H2826 H 0.88891 0.2488 0.63511 0.0
H2827 H 0.90536 0.24628 0.52721 0.0
H2828 H 0.91623 0.2565 0.55543 0.0
H2829 H 0.88329 0.24847 0.58058 0.0
H2830 H 0.87223 0.23765 0.55261 0.0
H2831 H 0.89725 0.24524 0.60413 0.0
H2832 H 0.90223 0.27656 0.56382 0.0
H2833 H 0.90747 0.28778 0.53512 0.0
H2834 H 0.94348 0.29517 0.54144 0.0
H2835 H 0.93842 0.28385 0.57007 0.0
C2836 C 0.92659 0.28806 0.66582 0.0
C2837 C 0.93902 0.29321 0.66775 0.0
C2838 C 0.92052 0.28132 0.65008 0.0
C2839 C 0.92674 0.27959 0.63593 0.0
C2840 C 0.93915 0.28481 0.63766 0.0
C2841 C 0.94524 0.29151 0.65348 0.0
C2842 C 0.92027 0.27252 0.61917 0.0
C2843 C 0.92326 0.27827 0.6023 0.0
C2844 C 0.91077 0.26047 0.61986 0.0
C2845 C 0.90749 0.25374 0.63717 0.0
C2846 C 0.91608 0.25271 0.64776 0.0
C2847 C 0.9129 0.24631 0.66399 0.0
C2848 C 0.90114 0.24081 0.66972 0.0
C2849 C 0.89254 0.24173 0.65925 0.0
C2850 C 0.89567 0.24814 0.64302 0.0
C2851 C 0.90037 0.24648 0.53882 0.0
C2852 C 0.88789 0.24112 0.5376 0.0
C2853 C 0.90663 0.25248 0.55489 0.0
C2854 C 0.9006 0.25343 0.57003 0.0
C2855 C 0.88814 0.2479 0.56903 0.0
C2856 C 0.88184 0.24181 0.55297 0.0
C2857 C 0.90733 0.26032 0.58681 0.0
C2858 C 0.90439 0.25455 0.60367 0.0
C2859 C 0.91683 0.27239 0.58615 0.0
C2860 C 0.91991 0.27926 0.56899 0.0
C2861 C 0.91125 0.2805 0.55902 0.0
C2862 C 0.91418 0.28689 0.54278 0.0
C2863 C 0.92579 0.29216 0.53643 0.0
C2864 C 0.93449 0.29107 0.54636 0.0
C2865 C 0.93159 0.28468 0.5626 0.0
H2866 H 0.92805 0.2971 0.52385 0.0
H2867 H 0.89868 0.2358 0.68223 0.0
H2868 H 0.36209 0.30105 0.65834 0.0
H2869 H 0.36306 0.29231 0.62901 0.0
H2870 H 0.32746 0.28446 0.6148 0.0
H2871 H 0.32641 0.2933 0.6443 0.0
H2872 H 0.33134 0.26474 0.60933 0.0
H2873 H 0.34931 0.30622 0.59345 0.0
H2874 H 0.36315 0.32811 0.59724 0.0
H2875 H 0.39295 0.32236 0.5937 0.0
H2876 H 0.37929 0.30041 0.59016 0.0
H2877 H 0.33518 0.2454 0.51902 0.0
H2878 H 0.3322 0.2556 0.54526 0.0
H2879 H 0.369 0.27028 0.56216 0.0
H2880 H 0.37206 0.26024 0.53575 0.0
H2881 H 0.36307 0.28709 0.56483 0.0
H2882 H 0.34578 0.24598 0.58365 0.0
H2883 H 0.33244 0.22394 0.581 0.0
H2884 H 0.30197 0.22876 0.58019 0.0
H2885 H 0.31515 0.25085 0.5826 0.0
C2886 C 0.35447 0.29755 0.64897 0.0
C2887 C 0.34416 0.29786 0.65368 0.0
C2888 C 0.35507 0.2926 0.63217 0.0
C2889 C 0.34537 0.28781 0.61971 0.0
C2890 C 0.33506 0.28815 0.62424 0.0
C2891 C 0.33449 0.29324 0.64104 0.0
C2892 C 0.34596 0.28206 0.6023 0.0
C2893 C 0.33811 0.26966 0.59938 0.0
C2894 C 0.35501 0.28844 0.58963 0.0
C2895 C 0.36327 0.30165 0.59168 0.0
C2896 C 0.35881 0.30961 0.59363 0.0
C2897 C 0.36663 0.32203 0.5957 0.0
C2898 C 0.37892 0.32662 0.59575 0.0
C2899 C 0.38343 0.31879 0.59368 0.0
C2900 C 0.37565 0.30636 0.59161 0.0
C2901 C 0.3426 0.25071 0.52844 0.0
C2902 C 0.35384 0.25197 0.5254 0.0
C2903 C 0.34089 0.25654 0.54342 0.0
C2904 C 0.35034 0.2636 0.55583 0.0
C2905 C 0.36158 0.2649 0.55276 0.0
C2906 C 0.36332 0.25916 0.53769 0.0
C2907 C 0.34856 0.2697 0.57194 0.0
C2908 C 0.3562 0.28217 0.57464 0.0
C2909 C 0.33939 0.26336 0.5845 0.0
C2910 C 0.33145 0.25007 0.58309 0.0
C2911 C 0.33624 0.24235 0.58276 0.0
C2912 C 0.32871 0.22984 0.58133 0.0
C2913 C 0.31637 0.22495 0.58037 0.0
C2914 C 0.31153 0.23256 0.5809 0.0
C2915 C 0.31903 0.24507 0.58231 0.0
H2916 H 0.31055 0.21527 0.57927 0.0
H2917 H 0.38495 0.33624 0.59736 0.0
H2918 H 0.70906 0.06452 0.62173 0.0
H2919 H 0.72209 0.08056 0.60126 0.0
H2920 H 0.74671 0.06721 0.60192 0.0
H2921 H 0.7337 0.05109 0.62206 0.0
H2922 H 0.75734 0.09382 0.60448 0.0
H2923 H 0.72867 0.05807 0.56868 0.0
H2924 H 0.70827 0.04219 0.55979 0.0
H2925 H 0.69945 0.06921 0.54518 0.0
H2926 H 0.71977 0.08526 0.55425 0.0
H2927 H 0.79109 0.11316 0.52511 0.0
H2928 H 0.77893 0.10294 0.5511 0.0
H2929 H 0.75208 0.11098 0.53191 0.0
H2930 H 0.76373 0.12032 0.50503 0.0
H2931 H 0.74174 0.08915 0.54063 0.0
H2932 H 0.77059 0.12501 0.57169 0.0
H2933 H 0.79055 0.14156 0.58111 0.0
H2934 H 0.79868 0.11614 0.60555 0.0
H2935 H 0.77883 0.09941 0.59606 0.0
C2936 C 0.71734 0.06512 0.61773 0.0
C2937 C 0.7203 0.05646 0.62334 0.0
C2938 C 0.72475 0.07427 0.60606 0.0
C2939 C 0.7353 0.075 0.60009 0.0
C2940 C 0.73859 0.06678 0.60644 0.0
C2941 C 0.7311 0.05751 0.61784 0.0
C2942 C 0.74241 0.08361 0.58596 0.0
C2943 C 0.75401 0.09284 0.59047 0.0
C2944 C 0.73784 0.0825 0.56791 0.0
C2945 C 0.72567 0.07285 0.56235 0.0
C2946 C 0.72234 0.06062 0.56373 0.0
C2947 C 0.71081 0.05159 0.55863 0.0
C2948 C 0.70256 0.05469 0.55198 0.0
C2949 C 0.70584 0.06682 0.55037 0.0
C2950 C 0.71736 0.07589 0.55548 0.0
C2951 C 0.78256 0.1127 0.5263 0.0
C2952 C 0.77839 0.11751 0.5128 0.0
C2953 C 0.7757 0.10703 0.54141 0.0
C2954 C 0.76464 0.10633 0.54368 0.0
C2955 C 0.7606 0.11144 0.53053 0.0
C2956 C 0.76736 0.11691 0.51522 0.0
C2957 C 0.7569 0.09941 0.55893 0.0
C2958 C 0.74513 0.09041 0.55464 0.0
C2959 C 0.76128 0.1009 0.57725 0.0
C2960 C 0.77324 0.11094 0.58304 0.0
C2961 C 0.77666 0.12293 0.57896 0.0
C2962 C 0.78795 0.13235 0.58433 0.0
C2963 C 0.79588 0.1299 0.59389 0.0
C2964 C 0.79253 0.11803 0.59814 0.0
C2965 C 0.78125 0.10857 0.59279 0.0
H2966 H 0.80462 0.1372 0.59804 0.0
H2967 H 0.69363 0.04768 0.54803 0.0
H2968 H 0.92665 0.65337 0.66455 0.0
H2969 H 0.91637 0.65115 0.63533 0.0
H2970 H 0.94707 0.68304 0.61607 0.0
H2971 H 0.95754 0.68537 0.64544 0.0
H2972 H 0.92516 0.68229 0.60883 0.0
H2973 H 0.94238 0.65715 0.60027 0.0
H2974 H 0.94713 0.64136 0.60833 0.0
H2975 H 0.90987 0.61494 0.60762 0.0
H2976 H 0.90489 0.63061 0.59981 0.0
H2977 H 0.90314 0.67101 0.51579 0.0
H2978 H 0.91505 0.67573 0.54419 0.0
H2979 H 0.88863 0.6419 0.56621 0.0
H2980 H 0.87678 0.63709 0.53775 0.0
H2981 H 0.90994 0.64467 0.57106 0.0
H2982 H 0.89246 0.66959 0.58131 0.0
H2983 H 0.88732 0.68521 0.57404 0.0
H2984 H 0.92444 0.71181 0.57224 0.0
H2985 H 0.9298 0.6963 0.57925 0.0
C2986 C 0.93126 0.65994 0.65414 0.0
C2987 C 0.94295 0.66954 0.65735 0.0
C2988 C 0.92536 0.65862 0.63741 0.0
C2989 C 0.93099 0.66688 0.62351 0.0
C2990 C 0.94259 0.67656 0.62665 0.0
C2991 C 0.94857 0.67784 0.64339 0.0
C2992 C 0.92463 0.66528 0.60576 0.0
C2993 C 0.92199 0.67417 0.60037 0.0
C2994 C 0.9203 0.65455 0.59501 0.0
C2995 C 0.92326 0.64508 0.5996 0.0
C2996 C 0.9352 0.64799 0.60198 0.0
C2997 C 0.93793 0.63906 0.60647 0.0
C2998 C 0.9288 0.62716 0.60852 0.0
C2999 C 0.91693 0.62416 0.60604 0.0
C3000 C 0.91415 0.63307 0.60156 0.0
C3001 C 0.89978 0.66469 0.52683 0.0
C3002 C 0.88904 0.65368 0.52456 0.0
C3003 C 0.9066 0.66739 0.54305 0.0
C3004 C 0.90272 0.65919 0.55739 0.0
C3005 C 0.89183 0.64833 0.55531 0.0
C3006 C 0.88507 0.6456 0.53906 0.0
C3007 C 0.91023 0.66159 0.57421 0.0
C3008 C 0.91314 0.65284 0.57942 0.0
C3009 C 0.91473 0.67241 0.58482 0.0
C3010 C 0.91153 0.68175 0.58061 0.0
C3011 C 0.89952 0.67874 0.57921 0.0
C3012 C 0.89657 0.68759 0.57516 0.0
C3013 C 0.90555 0.69949 0.57262 0.0
C3014 C 0.9175 0.70258 0.57417 0.0
C3015 C 0.9205 0.69377 0.5782 0.0
H3016 H 0.90325 0.70632 0.5695 0.0
H3017 H 0.93094 0.62025 0.61201 0.0
H3018 H 0.94628 0.67628 0.74515 0.0
H3019 H 0.93362 0.68077 0.76405 0.0
H3020 H 0.94562 0.71432 0.73635 0.0
H3021 H 0.95861 0.70999 0.71761 0.0
H3022 H 0.94626 0.71817 0.77139 0.0
H3023 H 0.91685 0.69031 0.72956 0.0
H3024 H 0.90581 0.6716 0.71076 0.0
H3025 H 0.895 0.65072 0.75939 0.0
H3026 H 0.90612 0.66928 0.77849 0.0
H3027 H 0.88725 0.70312 0.82275 0.0
H3028 H 0.89741 0.70312 0.79475 0.0
H3029 H 0.92809 0.70917 0.82718 0.0
H3030 H 0.91807 0.70928 0.85505 0.0
H3031 H 0.90428 0.68813 0.78399 0.0
H3032 H 0.95319 0.72442 0.80487 0.0
H3033 H 0.96371 0.74396 0.82177 0.0
H3034 H 0.93435 0.74977 0.81108 0.0
H3035 H 0.92372 0.73036 0.79388 0.0
C3036 C 0.94612 0.68454 0.74288 0.0
C3037 C 0.95342 0.69277 0.72985 0.0
C3038 C 0.93882 0.68708 0.75365 0.0
C3039 C 0.93852 0.6978 0.75145 0.0
C3040 C 0.94568 0.70597 0.73825 0.0
C3041 C 0.95307 0.70348 0.72754 0.0
C3042 C 0.93131 0.70075 0.76382 0.0
C3043 C 0.93705 0.71166 0.77402 0.0
C3044 C 0.91918 0.69241 0.76687 0.0
C3045 C 0.91237 0.6812 0.75546 0.0
C3046 C 0.91218 0.68172 0.73625 0.0
C3047 C 0.9059 0.67114 0.72554 0.0
C3048 C 0.89972 0.65998 0.73387 0.0
C3049 C 0.89978 0.65937 0.75295 0.0
C3050 C 0.90606 0.66993 0.76373 0.0
C3051 C 0.89621 0.70456 0.82386 0.0
C3052 C 0.90188 0.70625 0.84109 0.0
C3053 C 0.902 0.70457 0.80786 0.0
C3054 C 0.91356 0.70629 0.80883 0.0
C3055 C 0.91928 0.70813 0.82603 0.0
C3056 C 0.91354 0.70818 0.84197 0.0
C3057 C 0.91941 0.7053 0.79212 0.0
C3058 C 0.91342 0.69475 0.78111 0.0
C3059 C 0.93121 0.71411 0.78802 0.0
C3060 C 0.93763 0.72588 0.79816 0.0
C3061 C 0.949 0.7299 0.80602 0.0
C3062 C 0.95498 0.74095 0.81568 0.0
C3063 C 0.94969 0.74809 0.81753 0.0
C3064 C 0.93842 0.74421 0.80969 0.0
C3065 C 0.93241 0.73318 0.8 0.0
H3066 H 0.95433 0.75664 0.82503 0.0
H3067 H 0.89487 0.6518 0.72555 0.0
H3068 H 0.34303 0.28854 0.72666 0.0
H3069 H 0.34042 0.27135 0.74417 0.0
H3070 H 0.30279 0.25848 0.74699 0.0
H3071 H 0.30531 0.27565 0.72913 0.0
H3072 H 0.31518 0.26104 0.78161 0.0
H3073 H 0.30974 0.24264 0.72206 0.0
H3074 H 0.31481 0.24152 0.68998 0.0
H3075 H 0.34783 0.24437 0.7078 0.0
H3076 H 0.34305 0.24569 0.73999 0.0
H3077 H 0.30972 0.21276 0.8339 0.0
H3078 H 0.30566 0.22317 0.80963 0.0
H3079 H 0.34043 0.23496 0.78798 0.0
H3080 H 0.34417 0.22377 0.81122 0.0
H3081 H 0.32596 0.2307 0.761 0.0
H3082 H 0.33394 0.25281 0.81857 0.0
H3083 H 0.33073 0.2557 0.85101 0.0
H3084 H 0.29519 0.24785 0.83749 0.0
H3085 H 0.29815 0.24478 0.80498 0.0
C3086 C 0.33419 0.28205 0.73085 0.0
C3087 C 0.3244 0.28351 0.7266 0.0
C3088 C 0.3327 0.27217 0.74077 0.0
C3089 C 0.32141 0.26365 0.74679 0.0
C3090 C 0.31156 0.26496 0.74238 0.0
C3091 C 0.31303 0.27474 0.73216 0.0
C3092 C 0.32015 0.25387 0.75873 0.0
C3093 C 0.31726 0.2542 0.77704 0.0
C3094 C 0.3232 0.24522 0.7528 0.0
C3095 C 0.32607 0.24434 0.73345 0.0
C3096 C 0.31813 0.24312 0.71914 0.0
C3097 C 0.32094 0.24244 0.70093 0.0
C3098 C 0.33165 0.2429 0.69685 0.0
C3099 C 0.33955 0.24402 0.71098 0.0
C3100 C 0.33678 0.24472 0.72921 0.0
C3101 C 0.31639 0.21729 0.82371 0.0
C3102 C 0.32737 0.21756 0.82476 0.0
C3103 C 0.31411 0.22339 0.80995 0.0
C3104 C 0.32286 0.23014 0.79724 0.0
C3105 C 0.33356 0.22992 0.7977 0.0
C3106 C 0.33576 0.22364 0.81121 0.0
C3107 C 0.32125 0.23801 0.7841 0.0
C3108 C 0.32364 0.23735 0.76555 0.0
C3109 C 0.31799 0.24656 0.78989 0.0
C3110 C 0.31621 0.24842 0.8094 0.0
C3111 C 0.32541 0.25162 0.82255 0.0
C3112 C 0.32364 0.2533 0.84094 0.0
C3113 C 0.31275 0.25192 0.84632 0.0
C3114 C 0.30361 0.24889 0.8333 0.0
C3115 C 0.30533 0.24718 0.8149 0.0
H3116 H 0.3114 0.25323 0.86056 0.0
H3117 H 0.33381 0.24237 0.68275 0.0
H3118 H 0.74666 0.04838 0.6875 0.0
H3119 H 0.75674 0.05698 0.71686 0.0
H3120 H 0.7233 0.0489 0.74026 0.0
H3121 H 0.71311 0.04046 0.71069 0.0
H3122 H 0.74022 0.07104 0.75015 0.0
H3123 H 0.73659 0.03201 0.75002 0.0
H3124 H 0.73837 0.01495 0.73774 0.0
H3125 H 0.77635 0.0376 0.73631 0.0
H3126 H 0.77479 0.05485 0.74835 0.0
H3127 H 0.7617 0.08157 0.84234 0.0
H3128 H 0.75085 0.07165 0.81389 0.0
H3129 H 0.78401 0.08232 0.78738 0.0
H3130 H 0.79501 0.09252 0.81576 0.0
H3131 H 0.76678 0.05838 0.77975 0.0
H3132 H 0.77002 0.09751 0.77935 0.0
H3133 H 0.76795 0.11429 0.79212 0.0
H3134 H 0.73015 0.09086 0.79513 0.0
H3135 H 0.73202 0.07389 0.78262 0.0
C3136 C 0.74139 0.04836 0.69887 0.0
C3137 C 0.72904 0.04367 0.69671 0.0
C3138 C 0.74719 0.05324 0.71571 0.0
C3139 C 0.74075 0.05343 0.73085 0.0
C3140 C 0.72843 0.04882 0.72877 0.0
C3141 C 0.72262 0.04397 0.71186 0.0
C3142 C 0.74699 0.05874 0.74868 0.0
C3143 C 0.74586 0.06812 0.75677 0.0
C3144 C 0.75457 0.05512 0.75713 0.0
C3145 C 0.75556 0.04476 0.74994 0.0
C3146 C 0.74531 0.03338 0.74696 0.0
C3147 C 0.74628 0.02367 0.74006 0.0
C3148 C 0.75746 0.0252 0.73621 0.0
C3149 C 0.7677 0.03643 0.73929 0.0
C3150 C 0.76677 0.04618 0.74617 0.0
C3151 C 0.76672 0.08193 0.83042 0.0
C3152 C 0.77924 0.08797 0.83129 0.0
C3153 C 0.76049 0.0762 0.8142 0.0
C3154 C 0.76663 0.07637 0.79849 0.0
C3155 C 0.77911 0.0821 0.79938 0.0
C3156 C 0.78537 0.08789 0.81561 0.0
C3157 C 0.76001 0.07067 0.7811 0.0
C3158 C 0.76108 0.06123 0.77312 0.0
C3159 C 0.75232 0.07418 0.7728 0.0
C3160 C 0.75117 0.0844 0.78022 0.0
C3161 C 0.76128 0.09591 0.78288 0.0
C3162 C 0.76014 0.10546 0.79004 0.0
C3163 C 0.74893 0.10364 0.79448 0.0
C3164 C 0.73883 0.09226 0.79171 0.0
C3165 C 0.73992 0.08267 0.78457 0.0
H3166 H 0.74807 0.11105 0.80002 0.0
H3167 H 0.7582 0.01767 0.73087 0.0
H3168 H 0.04712 0.3759 0.03236 0.0
H3169 H 0.06192 0.37085 0.04357 0.0
H3170 H 0.04337 0.3366 0.01416 0.0
H3171 H 0.02838 0.34142 0.00339 0.0
H3172 H 0.05015 0.33344 0.04619 0.0
H3173 H 0.06926 0.36126 0.99809 0.0
H3174 H 0.07652 0.38028 0.98166 0.0
H3175 H 0.09894 0.40017 0.02803 0.0
H3176 H 0.09169 0.38128 0.04483 0.0
H3177 H 0.09643 0.31932 0.04699 0.0
H3178 H 0.08261 0.32557 0.03539 0.0
H3179 H 0.09804 0.35614 0.0731 0.0
H3180 H 0.1116 0.34977 0.08528 0.0
H3181 H 0.0932 0.36142 0.03719 0.0
H3182 H 0.07377 0.33291 0.08484 0.0
H3183 H 0.06671 0.31354 0.10014 0.0
H3184 H 0.04493 0.29451 0.05279 0.0
H3185 H 0.05202 0.31377 0.03709 0.0
C3186 C 0.04616 0.36726 0.02837 0.0
C3187 C 0.0366 0.35909 0.01692 0.0
C3188 C 0.05467 0.36442 0.03469 0.0
C3189 C 0.05389 0.35343 0.02944 0.0
C3190 C 0.04419 0.34514 0.01836 0.0
C3191 C 0.03563 0.34793 0.0122 0.0
C3192 C 0.06316 0.35052 0.03542 0.0
C3193 C 0.05954 0.33951 0.04399 0.0
C3194 C 0.07546 0.35851 0.03286 0.0
C3195 C 0.07984 0.36987 0.02279 0.0
C3196 C 0.07567 0.3697 0.00484 0.0
C3197 C 0.0798 0.38046 0.99545 0.0
C3198 C 0.08816 0.39143 0.00381 0.0
C3199 C 0.09245 0.39167 0.02157 0.0
C3200 C 0.08834 0.38094 0.03103 0.0
C3201 C 0.09691 0.32738 0.05283 0.0
C3202 C 0.10509 0.33397 0.0672 0.0
C3203 C 0.08904 0.33096 0.04612 0.0
C3204 C 0.08925 0.34124 0.05354 0.0
C3205 C 0.09777 0.34819 0.06719 0.0
C3206 C 0.10557 0.34456 0.07405 0.0
C3207 C 0.08014 0.34436 0.04777 0.0
C3208 C 0.08379 0.35539 0.03932 0.0
C3209 C 0.06787 0.33635 0.05025 0.0
C3210 C 0.06352 0.32477 0.05973 0.0
C3211 C 0.06756 0.32459 0.07763 0.0
C3212 C 0.06353 0.31363 0.08639 0.0
C3213 C 0.0554 0.3028 0.07742 0.0
C3214 C 0.05124 0.3029 0.0597 0.0
C3215 C 0.05526 0.31384 0.05088 0.0
H3216 H 0.05229 0.29432 0.08422 0.0
H3217 H 0.09135 0.39974 0.99652 0.0
H3218 H 0.65219 0.67937 0.02083 0.0
H3219 H 0.65931 0.70097 0.01811 0.0
H3220 H 0.63456 0.69853 0.05896 0.0
H3221 H 0.62703 0.67697 0.06098 0.0
H3222 H 0.63575 0.7134 0.0349 0.0
H3223 H 0.66589 0.70784 0.06804 0.0
H3224 H 0.68019 0.7005 0.07028 0.0
H3225 H 0.69841 0.72112 0.02365 0.0
H3226 H 0.68416 0.72851 0.02109 0.0
H3227 H 0.66181 0.76479 0.09184 0.0
H3228 H 0.65413 0.74517 0.07681 0.0
H3229 H 0.67839 0.76145 0.03275 0.0
H3230 H 0.68585 0.78143 0.0473 0.0
H3231 H 0.67866 0.74125 0.04893 0.0
H3232 H 0.65094 0.75068 0.02187 0.0
H3233 H 0.6367 0.75811 0.02094 0.0
H3234 H 0.61386 0.73027 0.05713 0.0
H3235 H 0.62805 0.72279 0.05851 0.0
C3236 C 0.64817 0.68344 0.02904 0.0
C3237 C 0.63911 0.67649 0.04123 0.0
C3238 C 0.65229 0.6958 0.02754 0.0
C3239 C 0.64766 0.70147 0.03862 0.0
C3240 C 0.63829 0.69441 0.05025 0.0
C3241 C 0.63401 0.68205 0.05144 0.0
C3242 C 0.65288 0.71481 0.03916 0.0
C3243 C 0.64513 0.71948 0.03796 0.0
C3244 C 0.66521 0.72286 0.04244 0.0
C3245 C 0.6739 0.71862 0.04426 0.0
C3246 C 0.67293 0.71078 0.05825 0.0
C3247 C 0.68103 0.70661 0.05958 0.0
C3248 C 0.69019 0.71031 0.04708 0.0
C3249 C 0.69131 0.71824 0.0333 0.0
C3250 C 0.68323 0.72243 0.03192 0.0
C3251 C 0.66532 0.76436 0.07868 0.0
C3252 C 0.67442 0.77482 0.07076 0.0
C3253 C 0.66095 0.75307 0.07016 0.0
C3254 C 0.66562 0.75188 0.05361 0.0
C3255 C 0.67466 0.76221 0.04552 0.0
C3256 C 0.67894 0.77361 0.05393 0.0
C3257 C 0.6614 0.73965 0.04563 0.0
C3258 C 0.66933 0.73521 0.04539 0.0
C3259 C 0.64923 0.73179 0.0412 0.0
C3260 C 0.6406 0.7362 0.04035 0.0
C3261 C 0.64292 0.74619 0.02973 0.0
C3262 C 0.63485 0.7504 0.02911 0.0
C3263 C 0.62439 0.74467 0.03898 0.0
C3264 C 0.62196 0.7347 0.04948 0.0
C3265 C 0.63001 0.73045 0.05016 0.0
H3266 H 0.61815 0.74795 0.03848 0.0
H3267 H 0.69643 0.70705 0.0481 0.0
H3268 H 0.33683 0.95556 0.03559 0.0
H3269 H 0.3178 0.94338 0.05047 0.0
H3270 H 0.30405 0.96435 0.02526 0.0
H3271 H 0.32305 0.9767 0.01073 0.0
H3272 H 0.29781 0.96058 0.05969 0.0
H3273 H 0.29685 0.93608 0.00844 0.0
H3274 H 0.30417 0.92537 0.98901 0.0
H3275 H 0.3024 0.90351 0.03419 0.0
H3276 H 0.29521 0.91421 0.05397 0.0
H3277 H 0.23606 0.92162 0.06922 0.0
H3278 H 0.25552 0.93275 0.05526 0.0
H3279 H 0.26832 0.91352 0.08774 0.0
H3280 H 0.249 0.90258 0.10218 0.0
H3281 H 0.27527 0.91603 0.05084 0.0
H3282 H 0.27549 0.94046 0.10165 0.0
H3283 H 0.26765 0.95102 0.12029 0.0
H3284 H 0.2704 0.97302 0.07476 0.0
H3285 H 0.27809 0.96245 0.05575 0.0
C3286 C 0.32976 0.9576 0.03328 0.0
C3287 C 0.33143 0.96706 0.02191 0.0
C3288 C 0.31888 0.9506 0.04172 0.0
C3289 C 0.30945 0.95285 0.03876 0.0
C3290 C 0.31119 0.96244 0.02772 0.0
C3291 C 0.32207 0.96948 0.01939 0.0
C3292 C 0.29771 0.94521 0.04703 0.0
C3293 C 0.29284 0.95086 0.05757 0.0
C3294 C 0.29131 0.93248 0.0446 0.0
C3295 C 0.29562 0.92603 0.03273 0.0
C3296 C 0.29811 0.92905 0.01427 0.0
C3297 C 0.30222 0.92298 0.00319 0.0
C3298 C 0.30378 0.91379 0.01037 0.0
C3299 C 0.30121 0.91064 0.02865 0.0
C3300 C 0.29711 0.9167 0.0398 0.0
C3301 C 0.24301 0.91976 0.07343 0.0
C3302 C 0.24098 0.91127 0.08694 0.0
C3303 C 0.2541 0.92609 0.06538 0.0
C3304 C 0.26336 0.92403 0.07063 0.0
C3305 C 0.26126 0.91521 0.0835 0.0
C3306 C 0.25019 0.90893 0.09167 0.0
C3307 C 0.27539 0.93145 0.06325 0.0
C3308 C 0.28029 0.92575 0.05295 0.0
C3309 C 0.28179 0.94414 0.06578 0.0
C3310 C 0.27726 0.95058 0.07723 0.0
C3311 C 0.27434 0.94748 0.09557 0.0
C3312 C 0.26993 0.95348 0.10621 0.0
C3313 C 0.2685 0.96266 0.0987 0.0
C3314 C 0.2715 0.96589 0.08055 0.0
C3315 C 0.27589 0.9599 0.06984 0.0
H3316 H 0.26509 0.9673 0.10696 0.0
H3317 H 0.30696 0.90909 0.00177 0.0
H3318 H 0.34877 0.01937 0.00678 0.0
H3319 H 0.34161 0.03376 0.0078 0.0
H3320 H 0.37224 0.05918 0.97818 0.0
H3321 H 0.37963 0.04502 0.97754 0.0
H3322 H 0.36603 0.07085 0.00235 0.0
H3323 H 0.34573 0.03888 0.95592 0.0
H3324 H 0.33369 0.01765 0.94519 0.0
H3325 H 0.3053 0.01293 0.97984 0.0
H3326 H 0.31726 0.03411 0.99092 0.0
H3327 H 0.34831 0.10041 0.94032 0.0
H3328 H 0.35513 0.08911 0.95826 0.0
H3329 H 0.32131 0.07083 0.98472 0.0
H3330 H 0.31442 0.08237 0.96698 0.0
H3331 H 0.3271 0.05526 0.96957 0.0
H3332 H 0.34633 0.08931 0.00992 0.0
H3333 H 0.35855 0.11081 0.01901 0.0
H3334 H 0.38909 0.11213 0.99473 0.0
H3335 H 0.37702 0.09068 0.98524 0.0
C3336 C 0.3541 0.02811 0.00077 0.0
C3337 C 0.36468 0.03096 0.99179 0.0
C3338 C 0.34999 0.03632 0.00136 0.0
C3339 C 0.35626 0.04744 0.99272 0.0
C3340 C 0.36723 0.05064 0.98489 0.0
C3341 C 0.37142 0.04249 0.98447 0.0
C3342 C 0.3509 0.0552 0.99001 0.0
C3343 C 0.35752 0.06747 0.9952 0.0
C3344 C 0.33963 0.0507 0.98114 0.0
C3345 C 0.33243 0.03801 0.97441 0.0
C3346 C 0.33695 0.03328 0.96133 0.0
C3347 C 0.33014 0.02127 0.95518 0.0
C3348 C 0.31875 0.01394 0.96188 0.0
C3349 C 0.31414 0.01862 0.9747 0.0
C3350 C 0.32092 0.03062 0.98092 0.0
C3351 C 0.34242 0.09431 0.95038 0.0
C3352 C 0.33079 0.09231 0.95216 0.0
C3353 C 0.34635 0.08782 0.96065 0.0
C3354 C 0.33877 0.07919 0.97296 0.0
C3355 C 0.32731 0.07747 0.97533 0.0
C3356 C 0.32337 0.08402 0.96509 0.0
C3357 C 0.34238 0.07102 0.98142 0.0
C3358 C 0.33545 0.05863 0.97723 0.0
C3359 C 0.35339 0.07546 0.99106 0.0
C3360 C 0.36073 0.08837 0.99679 0.0
C3361 C 0.35563 0.0942 0.0064 0.0
C3362 C 0.36254 0.10638 0.01164 0.0
C3363 C 0.37459 0.11284 0.00743 0.0
C3364 C 0.37976 0.10711 0.99799 0.0
C3365 C 0.37289 0.09493 0.99271 0.0
H3366 H 0.37992 0.12227 0.0115 0.0
H3367 H 0.31349 0.00464 0.9571 0.0
H3368 H 0.98376 0.31933 0.99772 0.0
H3369 H 0.96923 0.29778 -0.00051 0.0
H3370 H 0.94065 0.30528 0.99046 0.0
H3371 H 0.95502 0.32675 0.98892 0.0
H3372 H 0.93455 0.28753 0.01497 0.0
H3373 H 0.95242 0.29744 0.95492 0.0
H3374 H 0.96929 0.30526 0.93401 0.0
H3375 H 0.97864 0.27954 0.95361 0.0
H3376 H 0.96189 0.27167 0.9748 0.0
H3377 H 0.88808 0.24142 0.96301 0.0
H3378 H 0.90467 0.25924 0.97736 0.0
H3379 H 0.92461 0.24066 0.98164 0.0
H3380 H 0.9078 0.22251 0.96745 0.0
H3381 H 0.93719 0.26198 0.9656 0.0
H3382 H 0.91595 0.249 0.02042 0.0
H3383 H 0.89862 0.24109 0.04037 0.0
H3384 H 0.89518 0.2722 0.03054 0.0
H3385 H 0.91238 0.28024 0.01031 0.0
C3386 C 0.97437 0.31642 0.99642 0.0
C3387 C 0.97058 0.32478 0.99293 0.0
C3388 C 0.96608 0.30409 0.9974 0.0
C3389 C 0.95386 0.29991 0.99485 0.0
C3390 C 0.95003 0.3083 0.99245 0.0
C3391 C 0.95828 0.32059 0.99147 0.0
C3392 C 0.94507 0.28681 0.99302 0.0
C3393 C 0.93511 0.28191 0.00421 0.0
C3394 C 0.94599 0.27938 0.97935 0.0
C3395 C 0.95602 0.28408 0.96659 0.0
C3396 C 0.95814 0.29352 0.95486 0.0
C3397 C 0.96766 0.29795 0.94295 0.0
C3398 C 0.97506 0.29293 0.94253 0.0
C3399 C 0.97292 0.28344 0.95399 0.0
C3400 C 0.96342 0.27899 0.96594 0.0
C3401 C 0.8958 0.24091 0.96752 0.0
C3402 C 0.89654 0.23045 0.9641 0.0
C3403 C 0.90533 0.25117 0.97573 0.0
C3404 C 0.91586 0.25127 0.98077 0.0
C3405 C 0.91655 0.24076 0.9779 0.0
C3406 C 0.90696 0.23042 0.96972 0.0
C3407 C 0.92643 0.26277 0.98715 0.0
C3408 C 0.93674 0.26742 0.97676 0.0
C3409 C 0.92579 0.26996 0.00153 0.0
C3410 C 0.91545 0.2652 0.01377 0.0
C3411 C 0.91146 0.25413 0.02241 0.0
C3412 C 0.90166 0.24962 0.03379 0.0
C3413 C 0.8958 0.25613 0.03671 0.0
C3414 C 0.89973 0.26717 0.02828 0.0
C3415 C 0.90953 0.27172 0.01687 0.0
H3416 H 0.88821 0.25262 0.04552 0.0
H3417 H 0.98243 0.29637 0.9333 0.0
H3418 H 0.69107 0.66715 0.04819 0.0
H3419 H 0.70916 0.67298 0.0313 0.0
H3420 H 0.68799 0.6549 0.98267 0.0
H3421 H 0.66979 0.64884 -0.00043 0.0
H3422 H 0.70551 0.64966 0.98811 0.0
H3423 H 0.70239 0.6856 0.98792 0.0
H3424 H 0.70036 0.70208 0.0021 0.0
H3425 H 0.73304 0.71421 0.03279 0.0
H3426 H 0.73517 0.69769 0.01905 0.0
H3427 H 0.75105 0.67422 0.92343 0.0
H3428 H 0.73324 0.66842 0.94106 0.0
H3429 H 0.75519 0.68788 0.98842 0.0
H3430 H 0.77311 0.69383 0.97071 0.0
H3431 H 0.73745 0.69244 0.98419 0.0
H3432 H 0.74073 0.65683 0.98512 0.0
H3433 H 0.74289 0.64019 0.97198 0.0
H3434 H 0.71019 0.6273 0.941 0.0
H3435 H 0.70791 0.64397 0.95376 0.0
C3436 C 0.69024 0.66443 0.03389 0.0
C3437 C 0.67899 0.65755 0.02521 0.0
C3438 C 0.7006 0.66781 0.02423 0.0
C3439 C 0.69992 0.66449 0.00567 0.0
C3440 C 0.6887 0.65757 0.99698 0.0
C3441 C 0.67832 0.65415 0.00665 0.0
C3442 C 0.71092 0.6681 0.9954 0.0
C3443 C 0.71242 0.65903 0.98702 0.0
C3444 C 0.72009 0.6803 0.99447 0.0
C3445 C 0.71889 0.69034 0.00257 0.0
C3446 C 0.7091 0.69173 0.99779 0.0
C3447 C 0.70794 0.70109 0.00574 0.0
C3448 C 0.71656 0.70917 0.01835 0.0
C3449 C 0.72637 0.70794 0.02302 0.0
C3450 C 0.72756 0.69858 0.01515 0.0
C3451 C 0.75209 0.67714 0.93767 0.0
C3452 C 0.76348 0.6844 0.94574 0.0
C3453 C 0.7419 0.67383 0.94773 0.0
C3454 C 0.74288 0.67757 0.96614 0.0
C3455 C 0.75423 0.68488 0.97423 0.0
C3456 C 0.76445 0.68827 0.96412 0.0
C3457 C 0.73202 0.674 0.97682 0.0
C3458 C 0.73054 0.68307 0.98528 0.0
C3459 C 0.72289 0.66179 0.97792 0.0
C3460 C 0.72421 0.65172 0.97028 0.0
C3461 C 0.73404 0.6505 0.9754 0.0
C3462 C 0.73528 0.64106 0.96804 0.0
C3463 C 0.7267 0.63271 0.95563 0.0
C3464 C 0.71684 0.63378 0.95059 0.0
C3465 C 0.71556 0.64322 0.9579 0.0
H3466 H 0.72767 0.62541 0.94994 0.0
H3467 H 0.71565 0.71641 0.02449 0.0
H3468 H 0.9672 0.64657 0.98717 0.0
H3469 H 0.95216 0.64975 0.97168 0.0
H3470 H 0.94183 0.65739 0.0238 0.0
H3471 H 0.95663 0.654 0.03938 0.0
H3472 H 0.92265 0.6434 0.00298 0.0
H3473 H 0.95992 0.68008 0.9951 0.0
H3474 H 0.98074 0.69226 0.98568 0.0
H3475 H 0.97017 0.67952 0.93007 0.0
H3476 H 0.94929 0.66712 0.93921 0.0
H3477 H 0.89474 0.67679 0.9759 0.0
H3478 H 0.90733 0.66943 0.98902 0.0
H3479 H 0.91414 0.66095 0.93477 0.0
H3480 H 0.90177 0.66851 0.92156 0.0
H3481 H 0.93452 0.67401 0.9549 0.0
H3482 H 0.89678 0.63855 0.96279 0.0
H3483 H 0.87601 0.62678 0.97259 0.0
H3484 H 0.88746 0.63764 0.02856 0.0
H3485 H 0.9083 0.64963 0.01907 0.0
C3486 C 0.96171 0.64891 0.99533 0.0
C3487 C 0.96316 0.65009 0.01451 0.0
C3488 C 0.95314 0.65075 0.98645 0.0
C3489 C 0.94595 0.65394 0.99657 0.0
C3490 C 0.94726 0.65493 0.01571 0.0
C3491 C 0.95577 0.65303 0.02459 0.0
C3492 C 0.93719 0.65648 0.98728 0.0
C3493 C 0.92526 0.65017 0.99258 0.0
C3494 C 0.94053 0.6651 0.9734 0.0
C3495 C 0.95307 0.67257 0.96787 0.0
C3496 C 0.96205 0.6798 0.98089 0.0
C3497 C 0.97386 0.68676 0.97559 0.0
C3498 C 0.97678 0.68664 0.9573 0.0
C3499 C 0.96789 0.67958 0.94424 0.0
C3500 C 0.95607 0.6726 0.94947 0.0
C3501 C 0.89885 0.67326 0.96679 0.0
C3502 C 0.89725 0.67322 0.9477 0.0
C3503 C 0.90597 0.66898 0.97429 0.0
C3504 C 0.91163 0.66458 0.96287 0.0
C3505 C 0.90984 0.66427 0.94384 0.0
C3506 C 0.90267 0.6685 0.93632 0.0
C3507 C 0.92001 0.66102 0.97072 0.0
C3508 C 0.93188 0.66715 0.96517 0.0
C3509 C 0.91662 0.65228 0.98443 0.0
C3510 C 0.9041 0.64507 0.99019 0.0
C3511 C 0.89486 0.63851 0.97717 0.0
C3512 C 0.88308 0.63178 0.98268 0.0
C3513 C 0.88041 0.63148 0.00118 0.0
C3514 C 0.88953 0.63789 0.01423 0.0
C3515 C 0.90134 0.64464 0.0088 0.0
H3516 H 0.87128 0.62627 0.00541 0.0
H3517 H 0.98593 0.69203 0.95322 0.0
H3518 H 0.38909 0.33085 0.984 0.0
H3519 H 0.38307 0.30956 0.98071 0.0
H3520 H 0.34652 0.29968 0.9892 0.0
H3521 H 0.35246 0.32106 0.99267 0.0
H3522 H 0.3533 0.28322 0.00473 0.0
H3523 H 0.35418 0.30188 0.94765 0.0
H3524 H 0.36313 0.31769 0.92465 0.0
H3525 H 0.39197 0.3106 0.91888 0.0
H3526 H 0.38328 0.29487 0.94207 0.0
H3527 H 0.32869 0.22632 0.95409 0.0
H3528 H 0.3335 0.24561 0.96872 0.0
H3529 H 0.37017 0.26058 0.95377 0.0
H3530 H 0.36536 0.24179 0.93818 0.0
H3531 H 0.36193 0.2742 0.94239 0.0
H3532 H 0.36079 0.25501 0.99911 0.0
H3533 H 0.35185 0.23931 0.02227 0.0
H3534 H 0.32344 0.24699 0.0287 0.0
H3535 H 0.33213 0.26264 0.00538 0.0
C3536 C 0.37979 0.32418 0.98551 0.0
C3537 C 0.37122 0.32768 0.98826 0.0
C3538 C 0.37638 0.31201 0.98368 0.0
C3539 C 0.36434 0.30308 0.98443 0.0
C3540 C 0.35586 0.30645 0.98856 0.0
C3541 C 0.35928 0.31868 0.99046 0.0
C3542 C 0.36057 0.29052 0.97861 0.0
C3543 C 0.35505 0.28116 0.99106 0.0
C3544 C 0.36295 0.28792 0.96082 0.0
C3545 C 0.36813 0.29728 0.94671 0.0
C3546 C 0.36247 0.30376 0.94157 0.0
C3547 C 0.36749 0.3127 0.92849 0.0
C3548 C 0.37813 0.31517 0.92034 0.0
C3549 C 0.38374 0.30869 0.92522 0.0
C3550 C 0.37877 0.29975 0.93832 0.0
C3551 C 0.33779 0.23369 0.954 0.0
C3552 C 0.34658 0.23245 0.94474 0.0
C3553 C 0.34056 0.24468 0.9626 0.0
C3554 C 0.35221 0.25457 0.96233 0.0
C3555 C 0.36111 0.2531 0.95412 0.0
C3556 C 0.35834 0.24222 0.94536 0.0
C3557 C 0.35496 0.2668 0.96866 0.0
C3558 C 0.36019 0.27615 0.95613 0.0
C3559 C 0.35228 0.26931 0.98634 0.0
C3560 C 0.34704 0.25991 0.00035 0.0
C3561 C 0.35258 0.25328 0.00534 0.0
C3562 C 0.34757 0.24441 0.01852 0.0
C3563 C 0.33706 0.24213 0.02691 0.0
C3564 C 0.33157 0.24875 0.02217 0.0
C3565 C 0.33654 0.25763 0.00898 0.0
H3566 H 0.3332 0.23526 0.03712 0.0
H3567 H 0.382 0.32209 0.91021 0.0
H3568 H 0.66968 0.03674 0.00219 0.0
H3569 H 0.68845 0.04944 0.98703 0.0
H3570 H 0.70644 0.03735 0.02384 0.0
H3571 H 0.68778 0.02481 0.03927 0.0
H3572 H 0.71925 0.06116 0.02004 0.0
H3573 H 0.69932 0.02645 0.9797 0.0
H3574 H 0.68276 0.01113 0.96028 0.0
H3575 H 0.6846 0.0389 0.92592 0.0
H3576 H 0.70107 0.05442 0.94529 0.0
H3577 H 0.77202 0.08089 0.96883 0.0
H3578 H 0.75351 0.06902 0.98517 0.0
H3579 H 0.73577 0.08213 0.94978 0.0
H3580 H 0.75412 0.09375 0.93311 0.0
H3581 H 0.72291 0.0579 0.95298 0.0
H3582 H 0.74323 0.0926 0.99352 0.0
H3583 H 0.75997 0.10767 0.01295 0.0
H3584 H 0.75764 0.07953 0.04694 0.0
H3585 H 0.74099 0.06427 0.02755 0.0
C3586 C 0.67763 0.03677 0.00704 0.0
C3587 C 0.67724 0.02975 0.02191 0.0
C3588 C 0.68834 0.044 0.99832 0.0
C3589 C 0.69883 0.04425 0.00419 0.0
C3590 C 0.69846 0.0373 0.01909 0.0
C3591 C 0.68777 0.03011 0.02785 0.0
C3592 C 0.7102 0.05182 0.9949 0.0
C3593 C 0.7201 0.06034 0.00541 0.0
C3594 C 0.71123 0.05091 0.97576 0.0
C3595 C 0.70135 0.0416 0.96406 0.0
C3596 C 0.69613 0.0293 0.96809 0.0
C3597 C 0.68677 0.02058 0.95707 0.0
C3598 C 0.68261 0.02404 0.9419 0.0
C3599 C 0.68782 0.03623 0.93769 0.0
C3600 C 0.69717 0.04499 0.94868 0.0
C3601 C 0.76418 0.08125 0.96457 0.0
C3602 C 0.76454 0.08828 0.94972 0.0
C3603 C 0.75364 0.07455 0.97399 0.0
C3604 C 0.74329 0.07477 0.96875 0.0
C3605 C 0.74366 0.08186 0.95406 0.0
C3606 C 0.75419 0.08859 0.94467 0.0
C3607 C 0.73195 0.06726 0.97812 0.0
C3608 C 0.72206 0.05873 0.96761 0.0
C3609 C 0.73095 0.06812 0.99726 0.0
C3610 C 0.74094 0.07728 0.00897 0.0
C3611 C 0.74635 0.08962 0.00505 0.0
C3612 C 0.75581 0.09819 0.01607 0.0
C3613 C 0.75988 0.09455 0.03114 0.0
C3614 C 0.75448 0.08233 0.03524 0.0
C3615 C 0.74503 0.07372 0.02425 0.0
H3616 H 0.76721 0.10121 0.03966 0.0
H3617 H 0.67537 0.01728 0.93339 0.0
H3618 H 0.6224 0.95796 0.03169 0.0
H3619 H 0.62994 0.94387 0.03048 0.0
H3620 H 0.66569 0.97345 0.04064 0.0
H3621 H 0.65827 0.9876 0.04086 0.0
H3622 H 0.66686 0.95805 0.0192 0.0
H3623 H 0.64684 0.95501 0.07574 0.0
H3624 H 0.62995 0.95161 0.0948 0.0
H3625 H 0.60899 0.91582 0.07146 0.0
H3626 H 0.62573 0.91908 0.0521 0.0
H3627 H 0.69272 0.93383 0.079 0.0
H3628 H 0.68383 0.94416 0.06352 0.0
H3629 H 0.65581 0.91024 0.04111 0.0
H3630 H 0.66506 0.89973 0.05561 0.0
H3631 H 0.64876 0.92488 0.06334 0.0
H3632 H 0.67205 0.92788 0.01167 0.0
H3633 H 0.69033 0.93229 0.99567 0.0
H3634 H 0.70681 0.96946 0.01343 0.0
H3635 H 0.68869 0.96524 0.02978 0.0
C3636 C 0.63189 0.96146 0.03338 0.0
C3637 C 0.63973 0.97386 0.03659 0.0
C3638 C 0.63619 0.9534 0.03276 0.0
C3639 C 0.64835 0.95754 0.03595 0.0
C3640 C 0.65626 0.97 0.03819 0.0
C3641 C 0.652 0.9781 0.03838 0.0
C3642 C 0.65279 0.94893 0.03835 0.0
C3643 C 0.66291 0.95081 0.02888 0.0
C3644 C 0.64752 0.93931 0.05071 0.0
C3645 C 0.63746 0.93734 0.06232 0.0
C3646 C 0.63859 0.94645 0.07459 0.0
C3647 C 0.62906 0.94454 0.08545 0.0
C3648 C 0.61839 0.93352 0.08429 0.0
C3649 C 0.61725 0.92437 0.0723 0.0
C3650 C 0.62675 0.92623 0.06139 0.0
C3651 C 0.68494 0.92852 0.07025 0.0
C3652 C 0.67964 0.91586 0.06869 0.0
C3653 C 0.67982 0.93448 0.06149 0.0
C3654 C 0.6692 0.92796 0.05118 0.0
C3655 C 0.66403 0.91541 0.04903 0.0
C3656 C 0.66929 0.90943 0.0575 0.0
C3657 C 0.66293 0.93421 0.04454 0.0
C3658 C 0.65251 0.93192 0.05331 0.0
C3659 C 0.6681 0.94362 0.03192 0.0
C3660 C 0.67902 0.94622 0.02205 0.0
C3661 C 0.6796 0.93698 0.01229 0.0
C3662 C 0.68993 0.93945 0.00313 0.0
C3663 C 0.69973 0.95114 0.00355 0.0
C3664 C 0.69921 0.9604 0.01311 0.0
C3665 C 0.6889 0.95798 0.02231 0.0
H3666 H 0.70772 0.95304 0.99645 0.0
H3667 H 0.61102 0.93206 0.09272 0.0
H3668 H 0.04088 0.67733 0.01114 0.0
H3669 H 0.05569 0.6988 0.01027 0.0
H3670 H 0.03095 0.70757 0.03531 0.0
H3671 H 0.01585 0.68611 0.03508 0.0
H3672 H 0.04453 0.72512 0.01435 0.0
H3673 H 0.0518 0.70337 0.06097 0.0
H3674 H 0.05499 0.68736 0.07334 0.0
H3675 H 0.0861 0.69942 0.04098 0.0
H3676 H 0.083 0.71541 0.02823 0.0
H3677 H 0.0855 0.77432 0.07388 0.0
H3678 H 0.06974 0.75616 0.05851 0.0
H3679 H 0.09555 0.75449 0.02403 0.0
H3680 H 0.11138 0.77302 0.03873 0.0
H3681 H 0.08223 0.73403 0.0462 0.0
H3682 H 0.07564 0.75844 0.00389 0.0
H3683 H 0.07197 0.77478 0.99474 0.0
H3684 H 0.03904 0.75821 0.02323 0.0
H3685 H 0.04259 0.74186 0.03279 0.0
C3686 C 0.03852 0.68388 0.016 0.0
C3687 C 0.0273 0.6801 0.02336 0.0
C3688 C 0.047 0.69614 0.01561 0.0
C3689 C 0.04459 0.70481 0.0233 0.0
C3690 C 0.03307 0.70108 0.02941 0.0
C3691 C 0.02444 0.68881 0.0293 0.0
C3692 C 0.05436 0.71746 0.02672 0.0
C3693 C 0.05275 0.72707 0.02138 0.0
C3694 C 0.06516 0.72006 0.03579 0.0
C3695 C 0.06709 0.71049 0.0435 0.0
C3696 C 0.05927 0.70255 0.05641 0.0
C3697 C 0.06107 0.69349 0.06349 0.0
C3698 C 0.07072 0.69235 0.05791 0.0
C3699 C 0.07862 0.7003 0.04526 0.0
C3700 C 0.07684 0.70936 0.03811 0.0
C3701 C 0.08783 0.77042 0.06256 0.0
C3702 C 0.09979 0.77511 0.05774 0.0
C3703 C 0.07877 0.75997 0.05382 0.0
C3704 C 0.0815 0.75397 0.0402 0.0
C3705 C 0.09329 0.75899 0.03456 0.0
C3706 C 0.10233 0.76953 0.0431 0.0
C3707 C 0.07239 0.74165 0.03384 0.0
C3708 C 0.0741 0.73209 0.03883 0.0
C3709 C 0.06162 0.73915 0.02493 0.0
C3710 C 0.05944 0.74896 0.01918 0.0
C3711 C 0.06767 0.75833 0.00834 0.0
C3712 C 0.06559 0.76759 0.00305 0.0
C3713 C 0.05529 0.76755 0.00843 0.0
C3714 C 0.04702 0.75823 0.01908 0.0
C3715 C 0.04905 0.74896 0.02442 0.0
H3716 H 0.0537 0.77472 0.00432 0.0
H3717 H 0.0721 0.68532 0.06341 0.0
H3718 H 0.32445 0.35817 0.9805 0.0
H3719 H 0.30607 0.35403 0.99512 0.0
H3720 H 0.31727 0.34376 0.04422 0.0
H3721 H 0.33579 0.34789 0.02963 0.0
H3722 H 0.29321 0.32804 0.03405 0.0
H3723 H 0.32003 0.3706 0.04352 0.0
H3724 H 0.33415 0.3913 0.03415 0.0
H3725 H 0.30712 0.39104 0.99914 0.0
H3726 H 0.29288 0.37026 0.00811 0.0
H3727 H 0.25352 0.33254 0.09549 0.0
H3728 H 0.27029 0.33358 0.07925 0.0
H3729 H 0.26153 0.34812 0.03247 0.0
H3730 H 0.24476 0.3472 0.04879 0.0
H3731 H 0.28428 0.3613 0.04116 0.0
H3732 H 0.25721 0.31905 0.0319 0.0
H3733 H 0.24297 0.29828 0.04078 0.0
H3734 H 0.27001 0.29767 0.07461 0.0
H3735 H 0.28438 0.31851 0.06613 0.0
C3736 C 0.32302 0.35499 0.99439 0.0
C3737 C 0.33163 0.35343 0.00395 0.0
C3738 C 0.31251 0.35265 0.00273 0.0
C3739 C 0.31037 0.3487 0.02079 0.0
C3740 C 0.31878 0.34682 0.03026 0.0
C3741 C 0.32936 0.34923 0.02194 0.0
C3742 C 0.29948 0.34687 0.02985 0.0
C3743 C 0.2913 0.33532 0.03584 0.0
C3744 C 0.29689 0.35632 0.03172 0.0
C3745 C 0.30543 0.36883 0.02635 0.0
C3746 C 0.31713 0.37492 0.03371 0.0
C3747 C 0.32514 0.38667 0.02849 0.0
C3748 C 0.32154 0.39247 0.01602 0.0
C3749 C 0.3099 0.38653 0.00878 0.0
C3750 C 0.30185 0.37477 0.01394 0.0
C3751 C 0.255 0.33571 0.08159 0.0
C3752 C 0.24781 0.33977 0.07339 0.0
C3753 C 0.2646 0.3363 0.07232 0.0
C3754 C 0.26712 0.34083 0.05458 0.0
C3755 C 0.25976 0.3446 0.04617 0.0
C3756 C 0.2502 0.34409 0.05549 0.0
C3757 C 0.27789 0.34242 0.04533 0.0
C3758 C 0.28611 0.35396 0.03933 0.0
C3759 C 0.28046 0.33293 0.0434 0.0
C3760 C 0.27185 0.32039 0.0485 0.0
C3761 C 0.2601 0.31452 0.04135 0.0
C3762 C 0.25201 0.30273 0.04629 0.0
C3763 C 0.25557 0.29667 0.05828 0.0
C3764 C 0.26726 0.30238 0.06533 0.0
C3765 C 0.27538 0.31418 0.06045 0.0
H3766 H 0.2493 0.28754 0.06209 0.0
H3767 H 0.32776 0.40156 0.012 0.0
H3768 H 0.70721 0.69734 0.35176 0.0
H3769 H 0.72252 0.6937 0.36522 0.0
H3770 H 0.70146 0.65598 0.34974 0.0
H3771 H 0.68618 0.65953 0.33617 0.0
H3772 H 0.71101 0.66009 0.3856 0.0
H3773 H 0.72397 0.6738 0.3243 0.0
H3774 H 0.72963 0.68816 0.29917 0.0
H3775 H 0.75784 0.7156 0.33301 0.0
H3776 H 0.75224 0.70144 0.35843 0.0
H3777 H 0.75023 0.638 0.39176 0.0
H3778 H 0.73653 0.64425 0.38037 0.0
H3779 H 0.76302 0.68155 0.39106 0.0
H3780 H 0.77716 0.67539 0.40153 0.0
H3781 H 0.75144 0.67947 0.35991 0.0
H3782 H 0.73989 0.66606 0.42044 0.0
H3783 H 0.73448 0.65231 0.44635 0.0
H3784 H 0.70392 0.62534 0.41574 0.0
H3785 H 0.70924 0.63886 0.38953 0.0
C3786 C 0.7058 0.68826 0.35134 0.0
C3787 C 0.6955 0.67873 0.34283 0.0
C3788 C 0.71457 0.6862 0.35897 0.0
C3789 C 0.71315 0.67459 0.35833 0.0
C3790 C 0.70273 0.66501 0.35034 0.0
C3791 C 0.69402 0.66707 0.34255 0.0
C3792 C 0.72259 0.67236 0.36566 0.0
C3793 C 0.71982 0.66424 0.37991 0.0
C3794 C 0.73421 0.67811 0.35862 0.0
C3795 C 0.7376 0.68661 0.34333 0.0
C3796 C 0.73131 0.68293 0.32643 0.0
C3797 C 0.73452 0.69102 0.31213 0.0
C3798 C 0.74406 0.7028 0.31451 0.0
C3799 C 0.75044 0.70649 0.33119 0.0
C3800 C 0.74726 0.69843 0.34555 0.0
C3801 C 0.75332 0.64756 0.39133 0.0
C3802 C 0.76487 0.65618 0.3976 0.0
C3803 C 0.74536 0.65112 0.38506 0.0
C3804 C 0.74862 0.66336 0.38525 0.0
C3805 C 0.76025 0.67204 0.39095 0.0
C3806 C 0.7683 0.66849 0.39707 0.0
C3807 C 0.7398 0.66698 0.37966 0.0
C3808 C 0.74268 0.67539 0.36577 0.0
C3809 C 0.72831 0.6616 0.38719 0.0
C3810 C 0.72502 0.65345 0.40296 0.0
C3811 C 0.73206 0.65716 0.41918 0.0
C3812 C 0.729 0.64941 0.43393 0.0
C3813 C 0.71887 0.63795 0.43268 0.0
C3814 C 0.71177 0.63422 0.41668 0.0
C3815 C 0.71479 0.64193 0.40188 0.0
H3816 H 0.71652 0.63196 0.44411 0.0
H3817 H 0.74654 0.70905 0.30342 0.0
H3818 H 0.32074 0.0195 0.36526 0.0
H3819 H 0.33006 0.04146 0.36534 0.0
H3820 H 0.29687 0.03883 0.38045 0.0
H3821 H 0.2874 0.01682 0.3804 0.0
H3822 H 0.31016 0.05764 0.35544 0.0
H3823 H 0.31555 0.04253 0.41324 0.0
H3824 H 0.32171 0.03083 0.43249 0.0
H3825 H 0.35745 0.05148 0.41363 0.0
H3826 H 0.35145 0.06319 0.39406 0.0
H3827 H 0.32738 0.11206 0.4056 0.0
H3828 H 0.31928 0.09197 0.39169 0.0
H3829 H 0.35471 0.09709 0.38889 0.0
H3830 H 0.36279 0.11681 0.404 0.0
H3831 H 0.34143 0.07725 0.40434 0.0
H3832 H 0.33696 0.0944 0.34958 0.0
H3833 H 0.33102 0.10612 0.33003 0.0
H3834 H 0.29431 0.08226 0.34198 0.0
H3835 H 0.30004 0.07048 0.36182 0.0
C3836 C 0.31533 0.02354 0.36828 0.0
C3837 C 0.30335 0.01638 0.37312 0.0
C3838 C 0.32068 0.03611 0.36829 0.0
C3839 C 0.31418 0.04174 0.37311 0.0
C3840 C 0.30203 0.03463 0.3767 0.0
C3841 C 0.29666 0.02205 0.37676 0.0
C3842 C 0.32032 0.05497 0.37649 0.0
C3843 C 0.31697 0.06198 0.36615 0.0
C3844 C 0.32939 0.06061 0.39019 0.0
C3845 C 0.33302 0.05363 0.40204 0.0
C3846 C 0.3247 0.0445 0.41309 0.0
C3847 C 0.32816 0.03788 0.42408 0.0
C3848 C 0.33995 0.04039 0.42424 0.0
C3849 C 0.34831 0.04954 0.41346 0.0
C3850 C 0.34489 0.05617 0.40243 0.0
C3851 C 0.33348 0.10896 0.40195 0.0
C3852 C 0.34574 0.11604 0.40622 0.0
C3853 C 0.32884 0.09751 0.3937 0.0
C3854 C 0.33638 0.09299 0.38915 0.0
C3855 C 0.3487 0.10036 0.39229 0.0
C3856 C 0.35333 0.11173 0.40079 0.0
C3857 C 0.33133 0.08013 0.38329 0.0
C3858 C 0.33481 0.07308 0.39332 0.0
C3859 C 0.32245 0.07454 0.36923 0.0
C3860 C 0.31895 0.0816 0.35731 0.0
C3861 C 0.32763 0.0917 0.34816 0.0
C3862 C 0.3243 0.09835 0.337 0.0
C3863 C 0.3123 0.09496 0.3348 0.0
C3864 C 0.3036 0.08489 0.34371 0.0
C3865 C 0.30689 0.07821 0.35489 0.0
H3866 H 0.30973 0.10012 0.32616 0.0
H3867 H 0.34262 0.03525 0.43275 0.0
H3868 H 0.99905 0.29929 0.36417 0.0
H3869 H 0.98073 0.28677 0.38052 0.0
H3870 H 0.96232 0.30026 0.34744 0.0
H3871 H 0.9806 0.3129 0.33115 0.0
H3872 H 0.95665 0.2992 0.38323 0.0
H3873 H 0.959 0.27293 0.33782 0.0
H3874 H 0.96848 0.26307 0.32148 0.0
H3875 H 0.97081 0.24694 0.37133 0.0
H3876 H 0.96149 0.25684 0.38803 0.0
H3877 H 0.89737 0.25494 0.40203 0.0
H3878 H 0.91584 0.26754 0.38604 0.0
H3879 H 0.9338 0.25342 0.41882 0.0
H3880 H 0.91541 0.24084 0.4349 0.0
H3881 H 0.93981 0.25482 0.38341 0.0
H3882 H 0.93733 0.2809 0.42883 0.0
H3883 H 0.92784 0.29071 0.44527 0.0
H3884 H 0.92581 0.30722 0.39565 0.0
H3885 H 0.93514 0.29736 0.37884 0.0
C3886 C 0.99112 0.29965 0.36045 0.0
C3887 C 0.99125 0.30703 0.34628 0.0
C3888 C 0.98065 0.29245 0.36975 0.0
C3889 C 0.97013 0.29247 0.365 0.0
C3890 C 0.97033 0.30009 0.35126 0.0
C3891 C 0.98079 0.30728 0.34194 0.0
C3892 C 0.95885 0.28437 0.37411 0.0
C3893 C 0.95288 0.28948 0.38309 0.0
C3894 C 0.95409 0.27172 0.37424 0.0
C3895 C 0.95966 0.26573 0.36421 0.0
C3896 C 0.96162 0.26736 0.34533 0.0
C3897 C 0.96695 0.26175 0.336 0.0
C3898 C 0.97027 0.25441 0.34537 0.0
C3899 C 0.96825 0.25264 0.36409 0.0
C3900 C 0.96293 0.25824 0.3735 0.0
C3901 C 0.90526 0.25453 0.40583 0.0
C3902 C 0.90494 0.24693 0.41977 0.0
C3903 C 0.91579 0.26172 0.39669 0.0
C3904 C 0.92622 0.26153 0.40143 0.0
C3905 C 0.92585 0.2537 0.41496 0.0
C3906 C 0.91532 0.24648 0.42408 0.0
C3907 C 0.93758 0.26964 0.39251 0.0
C3908 C 0.94357 0.26453 0.38357 0.0
C3909 C 0.94237 0.2823 0.39245 0.0
C3910 C 0.93682 0.2883 0.40254 0.0
C3911 C 0.93477 0.28655 0.42139 0.0
C3912 C 0.92944 0.29213 0.43078 0.0
C3913 C 0.9262 0.29956 0.4215 0.0
C3914 C 0.92831 0.30145 0.40282 0.0
C3915 C 0.93363 0.29587 0.39335 0.0
H3916 H 0.92207 0.30387 0.42879 0.0
H3917 H 0.9744 0.25008 0.33812 0.0
H3918 H 0.0146 0.35006 0.33656 0.0
H3919 H 0.00825 0.36511 0.33721 0.0
H3920 H 0.04047 0.39034 0.31065 0.0
H3921 H 0.04702 0.37553 0.31032 0.0
H3922 H 0.03426 0.40188 0.33521 0.0
H3923 H 0.01448 0.37171 0.28601 0.0
H3924 H 0.00189 0.35092 0.27376 0.0
H3925 H 0.97286 0.34699 0.30611 0.0
H3926 H 0.98535 0.36773 0.31871 0.0
H3927 H 0.02231 0.4359 0.27336 0.0
H3928 H 0.02713 0.42298 0.2912 0.0
H3929 H 0.99203 0.40565 0.3137 0.0
H3930 H 0.98715 0.4188 0.29604 0.0
H3931 H 0.99718 0.38958 0.29872 0.0
H3932 H 0.01617 0.42207 0.3418 0.0
H3933 H 0.02899 0.44311 0.35281 0.0
H3934 H 0.05963 0.44313 0.33141 0.0
H3935 H 0.04698 0.42215 0.32002 0.0
C3936 C 0.02043 0.35888 0.33113 0.0
C3937 C 0.03124 0.36151 0.32313 0.0
C3938 C 0.01677 0.36747 0.3315 0.0
C3939 C 0.02379 0.37877 0.32369 0.0
C3940 C 0.0349 0.38167 0.31674 0.0
C3941 C 0.0386 0.37314 0.31647 0.0
C3942 C 0.01918 0.38719 0.32102 0.0
C3943 C 0.02615 0.39922 0.32726 0.0
C3944 C 0.00841 0.38361 0.31113 0.0
C3945 C 0.00088 0.37119 0.30346 0.0
C3946 C 0.00544 0.36638 0.29059 0.0
C3947 C 0.99832 0.35461 0.28358 0.0
C3948 C 0.98659 0.34762 0.2892 0.0
C3949 C 0.98195 0.3524 0.3018 0.0
C3950 C 0.98904 0.36416 0.30888 0.0
C3951 C 0.01571 0.42964 0.28253 0.0
C3952 C 0.00432 0.4284 0.28323 0.0
C3953 C 0.0185 0.42222 0.29274 0.0
C3954 C 0.00998 0.41341 0.30391 0.0
C3955 C 0.99874 0.41241 0.30519 0.0
C3956 C 0.99595 0.41989 0.29501 0.0
C3957 C 0.01246 0.40441 0.31237 0.0
C3958 C 0.00511 0.39223 0.30716 0.0
C3959 C 0.02291 0.4079 0.32311 0.0
C3960 C 0.0306 0.42053 0.32998 0.0
C3961 C 0.02563 0.42658 0.33932 0.0
C3962 C 0.03287 0.4385 0.34565 0.0
C3963 C 0.04511 0.44446 0.3428 0.0
C3964 C 0.05014 0.4385 0.33362 0.0
C3965 C 0.04294 0.42658 0.32725 0.0
H3966 H 0.0507 0.45368 0.34771 0.0
H3967 H 0.98109 0.33851 0.28376 0.0
H3968 H 0.62272 0.6607 0.32296 0.0
H3969 H 0.60888 0.63897 0.3228 0.0
H3970 H 0.6384 0.63247 0.32653 0.0
H3971 H 0.65236 0.65423 0.32671 0.0
H3972 H 0.62289 0.62012 0.29772 0.0
H3973 H 0.6204 0.62613 0.36197 0.0
H3974 H 0.61754 0.63568 0.38949 0.0
H3975 H 0.58198 0.62493 0.37082 0.0
H3976 H 0.58468 0.61546 0.34304 0.0
H3977 H 0.58758 0.55754 0.29693 0.0
H3978 H 0.60152 0.5777 0.30884 0.0
H3979 H 0.57334 0.58626 0.30995 0.0
H3980 H 0.55907 0.56575 0.29908 0.0
H3981 H 0.58875 0.59732 0.33819 0.0
H3982 H 0.59136 0.593 0.27339 0.0
H3983 H 0.59371 0.58371 0.24513 0.0
H3984 H 0.62868 0.59213 0.26356 0.0
H3985 H 0.62643 0.60123 0.29215 0.0
C3986 C 0.62629 0.65467 0.32406 0.0
C3987 C 0.63867 0.65922 0.32471 0.0
C3988 C 0.61835 0.64224 0.32406 0.0
C3989 C 0.6226 0.63411 0.32469 0.0
C3990 C 0.63493 0.63861 0.32605 0.0
C3991 C 0.64289 0.65105 0.32621 0.0
C3992 C 0.61424 0.62096 0.32214 0.0
C3993 C 0.61558 0.61507 0.30679 0.0
C3994 C 0.60445 0.6145 0.33362 0.0
C3995 C 0.60279 0.62017 0.35034 0.0
C3996 C 0.612 0.62589 0.36365 0.0
C3997 C 0.6104 0.63127 0.37932 0.0
C3998 C 0.5996 0.63094 0.38188 0.0
C3999 C 0.59035 0.62519 0.36881 0.0
C4000 C 0.59191 0.6198 0.35311 0.0
C4001 C 0.58419 0.56351 0.30026 0.0
C4002 C 0.57215 0.55997 0.29682 0.0
C4003 C 0.59225 0.57513 0.30688 0.0
C4004 C 0.58855 0.5836 0.30985 0.0
C4005 C 0.57643 0.57992 0.30758 0.0
C4006 C 0.5683 0.56821 0.30117 0.0
C4007 C 0.59746 0.59649 0.31381 0.0
C4008 C 0.59617 0.60234 0.32928 0.0
C4009 C 0.60724 0.60301 0.3023 0.0
C4010 C 0.60867 0.59768 0.285 0.0
C4011 C 0.59952 0.59279 0.27148 0.0
C4012 C 0.60083 0.58756 0.2554 0.0
C4013 C 0.61133 0.58732 0.25256 0.0
C4014 C 0.62055 0.59231 0.26579 0.0
C4015 C 0.61925 0.5975 0.28194 0.0
H4016 H 0.61234 0.58327 0.24011 0.0
H4017 H 0.59837 0.63511 0.39402 0.0
H4018 H 0.3193 0.95716 0.33235 0.0
H4019 H 0.33747 0.95887 0.32016 0.0
H4020 H 0.35727 0.99614 0.33861 0.0
H4021 H 0.33905 0.99456 0.35065 0.0
H4022 H 0.36415 0.9932 0.30518 0.0
H4023 H 0.35887 0.97496 0.36313 0.0
H4024 H 0.34816 0.96047 0.38727 0.0
H4025 H 0.34329 0.93119 0.35182 0.0
H4026 H 0.35382 0.94549 0.32735 0.0
H4027 H 0.4195 0.9939 0.29248 0.0
H4028 H 0.40356 0.99531 0.30782 0.0
H4029 H 0.37811 0.9594 0.28807 0.0
H4030 H 0.39372 0.95804 0.27216 0.0
H4031 H 0.3758 0.96357 0.32525 0.0
H4032 H 0.37985 0.98232 0.26654 0.0
H4033 H 0.39094 0.99719 0.24303 0.0
H4034 H 0.39885 0.02616 0.28138 0.0
H4035 H 0.38794 0.01145 0.30521 0.0
C4036 C 0.32749 0.96576 0.3337 0.0
C4037 C 0.32774 0.97569 0.34262 0.0
C4038 C 0.33789 0.96671 0.3268 0.0
C4039 C 0.34877 0.97757 0.32881 0.0
C4040 C 0.34898 0.98766 0.33702 0.0
C4041 C 0.33856 0.98673 0.3439 0.0
C4042 C 0.35992 0.97824 0.32267 0.0
C4043 C 0.36681 0.98686 0.30981 0.0
C4044 C 0.36337 0.96994 0.32866 0.0
C4045 C 0.35705 0.96129 0.34335 0.0
C4046 C 0.35543 0.96542 0.36042 0.0
C4047 C 0.34941 0.95725 0.37418 0.0
C4048 C 0.34503 0.94492 0.37107 0.0
C4049 C 0.34668 0.94074 0.3542 0.0
C4050 C 0.35269 0.94888 0.34039 0.0
C4051 C 0.41051 0.98631 0.29133 0.0
C4052 C 0.40795 0.97584 0.28109 0.0
C4053 C 0.40143 0.98713 0.30018 0.0
C4054 C 0.38967 0.97746 0.29902 0.0
C4055 C 0.38715 0.96692 0.28924 0.0
C4056 C 0.39615 0.96614 0.28025 0.0
C4057 C 0.37983 0.97832 0.30748 0.0
C4058 C 0.3732 0.97 0.32082 0.0
C4059 C 0.3767 0.98696 0.30205 0.0
C4060 C 0.38321 0.99579 0.28772 0.0
C4061 C 0.38405 0.99186 0.27001 0.0
C4062 C 0.39028 0.00026 0.25662 0.0
C4063 C 0.39563 0.01261 0.26072 0.0
C4064 C 0.39472 0.01659 0.27823 0.0
C4065 C 0.38851 0.00823 0.29168 0.0
H4066 H 0.40045 0.0191 0.25033 0.0
H4067 H 0.34037 0.9386 0.38174 0.0
H4068 H 0.63877 0.99902 0.35635 0.0
H4069 H 0.62205 0.99971 0.34181 0.0
H4070 H 0.61733 0.97184 0.30297 0.0
H4071 H 0.63417 0.9712 0.31728 0.0
H4072 H 0.61401 0.98891 0.28672 0.0
H4073 H 0.60037 0.96484 0.34054 0.0
H4074 H 0.60056 0.96071 0.37336 0.0
H4075 H 0.59472 0.99005 0.3871 0.0
H4076 H 0.59466 0.99446 0.35435 0.0
H4077 H 0.55409 0.9647 0.2586 0.0
H4078 H 0.57263 0.96759 0.27225 0.0
H4079 H 0.5746 0.99557 0.30829 0.0
H4080 H 0.55578 0.99251 0.29494 0.0
H4081 H 0.57993 0.98015 0.32616 0.0
H4082 H 0.59191 0.0031 0.27177 0.0
H4083 H 0.59123 0.0067 0.23885 0.0
H4084 H 0.59992 0.97921 0.22593 0.0
H4085 H 0.60046 0.9753 0.25879 0.0
C4086 C 0.63428 0.99313 0.34457 0.0
C4087 C 0.63773 0.98496 0.33809 0.0
C4088 C 0.62469 0.99351 0.33632 0.0
C4089 C 0.61831 0.98567 0.32152 0.0
C4090 C 0.6221 0.97793 0.31443 0.0
C4091 C 0.63172 0.97757 0.32265 0.0
C4092 C 0.60731 0.98508 0.31404 0.0
C4093 C 0.60652 0.9869 0.2953 0.0
C4094 C 0.59764 0.98272 0.32533 0.0
C4095 C 0.59764 0.98006 0.34501 0.0
C4096 C 0.59922 0.97047 0.35057 0.0
C4097 C 0.59929 0.96807 0.36916 0.0
C4098 C 0.59769 0.97513 0.38231 0.0
C4099 C 0.59598 0.9846 0.3769 0.0
C4100 C 0.59592 0.98705 0.35833 0.0
C4101 C 0.55834 0.97134 0.26964 0.0
C4102 C 0.55341 0.97834 0.27576 0.0
C4103 C 0.56903 0.97309 0.27726 0.0
C4104 C 0.57508 0.98192 0.29109 0.0
C4105 C 0.57009 0.98876 0.29754 0.0
C4106 C 0.55938 0.98704 0.28987 0.0
C4107 C 0.58658 0.98388 0.29881 0.0
C4108 C 0.58747 0.98229 0.3176 0.0
C4109 C 0.59631 0.98643 0.28755 0.0
C4110 C 0.59613 0.98884 0.26776 0.0
C4111 C 0.59359 0.99776 0.26191 0.0
C4112 C 0.59325 -0.00014 0.24325 0.0
C4113 C 0.59551 0.99317 0.23029 0.0
C4114 C 0.59816 0.98438 0.23598 0.0
C4115 C 0.5985 0.98223 0.25463 0.0
H4116 H 0.59523 0.9948 0.21585 0.0
H4117 H 0.59774 0.97326 0.3967 0.0
H4118 H 0.0492 0.66536 0.29857 0.0
H4119 H 0.04264 0.64397 0.29786 0.0
H4120 H 0.01708 0.63803 0.33939 0.0
H4121 H 0.02328 0.65954 0.33954 0.0
H4122 H 0.04255 0.62875 0.31976 0.0
H4123 H 0.99309 0.60978 0.33327 0.0
H4124 H 0.97775 0.61581 0.33122 0.0
H4125 H 0.99609 0.63909 0.28696 0.0
H4126 H 0.01145 0.63312 0.28866 0.0
H4127 H 0.01969 0.56641 0.30516 0.0
H4128 H 0.0222 0.58446 0.32153 0.0
H4129 H 0.00559 0.59184 0.27573 0.0
H4130 H 0.00266 0.57367 0.25982 0.0
H4131 H 0.00017 0.59912 0.30506 0.0
H4132 H 0.03686 0.6037 0.28072 0.0
H4133 H 0.05279 0.59861 0.2779 0.0
H4134 H 0.06098 0.60575 0.33549 0.0
H4135 H 0.04499 0.61073 0.33867 0.0
C4136 C 0.04223 0.65956 0.30768 0.0
C4137 C 0.0367 0.66416 0.319 0.0
C4138 C 0.03851 0.64729 0.30731 0.0
C4139 C 0.02926 0.63931 0.31842 0.0
C4140 C 0.02407 0.64395 0.33041 0.0
C4141 C 0.02765 0.65625 0.33053 0.0
C4142 C 0.02486 0.62614 0.31653 0.0
C4143 C 0.03325 0.62225 0.31678 0.0
C4144 C 0.01274 0.61761 0.31261 0.0
C4145 C 0.00347 0.62112 0.31126 0.0
C4146 C 0.99381 0.61617 0.32308 0.0
C4147 C 0.98513 0.61957 0.32199 0.0
C4148 C 0.98597 0.62786 0.30901 0.0
C4149 C 0.99547 0.63271 0.29705 0.0
C4150 C 0.00417 0.62933 0.29808 0.0
C4151 C 0.01635 0.57177 0.29884 0.0
C4152 C 0.01104 0.56869 0.28121 0.0
C4153 C 0.01781 0.58208 0.30815 0.0
C4154 C 0.01431 0.58967 0.29972 0.0
C4155 C 0.00835 0.58616 0.28258 0.0
C4156 C 0.00668 0.57575 0.27347 0.0
C4157 C 0.01795 0.60188 0.30747 0.0
C4158 C 0.00942 0.60555 0.30851 0.0
C4159 C 0.03002 0.61036 0.31188 0.0
C4160 C 0.03966 0.60743 0.30997 0.0
C4161 C 0.04203 0.60411 0.29279 0.0
C4162 C 0.05106 0.60125 0.29113 0.0
C4163 C 0.05787 0.60182 0.30652 0.0
C4164 C 0.05568 0.60528 0.3236 0.0
C4165 C 0.04664 0.60812 0.32534 0.0
H4166 H 0.06486 0.5996 0.30521 0.0
H4167 H 0.97925 0.6305 0.3082 0.0
H4168 H 0.34351 0.38688 0.36076 0.0
H4169 H 0.36293 0.39809 0.34667 0.0
H4170 H 0.35803 0.3651 0.3217 0.0
H4171 H 0.33859 0.35378 0.33578 0.0
H4172 H 0.38012 0.37869 0.33862 0.0
H4173 H 0.3551 0.38482 0.29607 0.0
H4174 H 0.34042 0.39074 0.2868 0.0
H4175 H 0.36384 0.42684 0.30735 0.0
H4176 H 0.3786 0.42109 0.31697 0.0
H4177 H 0.42685 0.40325 0.2756 0.0
H4178 H 0.40787 0.39255 0.29094 0.0
H4179 H 0.41219 0.42652 0.31063 0.0
H4180 H 0.43116 0.4373 0.295 0.0
H4181 H 0.3905 0.41272 0.2972 0.0
H4182 H 0.4157 0.40702 0.33938 0.0
H4183 H 0.43047 0.40133 0.34915 0.0
H4184 H 0.40697 0.36483 0.33031 0.0
H4185 H 0.39213 0.37034 0.32018 0.0
C4186 C 0.34652 0.382 0.35219 0.0
C4187 C 0.3395 0.36944 0.34938 0.0
C4188 C 0.35761 0.38844 0.34411 0.0
C4189 C 0.36188 0.38243 0.33308 0.0
C4190 C 0.35488 0.3699 0.33018 0.0
C4191 C 0.34376 0.36346 0.33817 0.0
C4192 C 0.37375 0.3892 0.32484 0.0
C4193 C 0.38236 0.38603 0.32937 0.0
C4194 C 0.37675 0.399 0.31323 0.0
C4195 C 0.3679 0.40249 0.30741 0.0
C4196 C 0.35707 0.39399 0.29875 0.0
C4197 C 0.34875 0.39733 0.29341 0.0
C4198 C 0.35118 0.40915 0.29653 0.0
C4199 C 0.36196 0.41768 0.30496 0.0
C4200 C 0.37031 0.41439 0.31035 0.0
C4201 C 0.42386 0.40843 0.28346 0.0
C4202 C 0.43052 0.42111 0.2842 0.0
C4203 C 0.413 0.40231 0.29222 0.0
C4204 C 0.40866 0.40872 0.30214 0.0
C4205 C 0.41536 0.42138 0.30306 0.0
C4206 C 0.42619 0.42753 0.29414 0.0
C4207 C 0.39692 0.40221 0.31092 0.0
C4208 C 0.38831 0.40541 0.3065 0.0
C4209 C 0.39395 0.39248 0.32274 0.0
C4210 C 0.40284 0.38913 0.32887 0.0
C4211 C 0.41372 0.3978 0.33719 0.0
C4212 C 0.4221 0.39461 0.34282 0.0
C4213 C 0.41967 0.38274 0.34031 0.0
C4214 C 0.40885 0.37403 0.33222 0.0
C4215 C 0.40044 0.37718 0.32656 0.0
H4216 H 0.42617 0.38028 0.34468 0.0
H4217 H 0.34472 0.41172 0.29238 0.0
H4218 H 0.28226 0.28776 0.36468 0.0
H4219 H 0.28809 0.27232 0.36457 0.0
H4220 H 0.32511 0.30011 0.36575 0.0
H4221 H 0.31937 0.31556 0.36521 0.0
H4222 H 0.32233 0.28133 0.34613 0.0
H4223 H 0.30973 0.28742 0.40556 0.0
H4224 H 0.29561 0.28806 0.42716 0.0
H4225 H 0.27051 0.2508 0.41449 0.0
H4226 H 0.28444 0.25 0.39264 0.0
H4227 H 0.35272 0.26139 0.40372 0.0
H4228 H 0.34318 0.2706 0.38678 0.0
H4229 H 0.31015 0.23667 0.38468 0.0
H4230 H 0.31975 0.2272 0.40126 0.0
H4231 H 0.30795 0.255 0.3999 0.0
H4232 H 0.32366 0.24852 0.3454 0.0
H4233 H 0.33891 0.24864 0.32555 0.0
H4234 H 0.35942 0.2873 0.33051 0.0
H4235 H 0.34439 0.28741 0.35062 0.0
C4236 C 0.29164 0.29058 0.3646 0.0
C4237 C 0.30035 0.3029 0.36526 0.0
C4238 C 0.29496 0.28174 0.36456 0.0
C4239 C 0.30704 0.28506 0.36558 0.0
C4240 C 0.31573 0.29732 0.36502 0.0
C4241 C 0.31243 0.30616 0.36479 0.0
C4242 C 0.3107 0.27596 0.36909 0.0
C4243 C 0.3192 0.27556 0.35788 0.0
C4244 C 0.30641 0.26823 0.38418 0.0
C4245 C 0.29805 0.2687 0.39731 0.0
C4246 C 0.30116 0.2794 0.40729 0.0
C4247 C 0.2932 0.27978 0.41959 0.0
C4248 C 0.28215 0.26949 0.42215 0.0
C4249 C 0.27906 0.25877 0.41246 0.0
C4250 C 0.28698 0.25835 0.40012 0.0
C4251 C 0.34354 0.25572 0.39913 0.0
C4252 C 0.337 0.24354 0.40399 0.0
C4253 C 0.33809 0.26104 0.38944 0.0
C4254 C 0.32597 0.25431 0.3844 0.0
C4255 C 0.31952 0.24201 0.38844 0.0
C4256 C 0.325 0.23665 0.39803 0.0
C4257 C 0.31981 0.26057 0.37723 0.0
C4258 C 0.31086 0.26049 0.38783 0.0
C4259 C 0.32384 0.26796 0.36177 0.0
C4260 C 0.3329 0.26796 0.34961 0.0
C4261 C 0.33146 0.25705 0.34237 0.0
C4262 C 0.34006 0.25708 0.33105 0.0
C4263 C 0.35013 0.26797 0.32679 0.0
C4264 C 0.35161 0.27886 0.33382 0.0
C4265 C 0.34304 0.27889 0.34515 0.0
H4266 H 0.35678 0.26797 0.31802 0.0
H4267 H 0.276 0.2698 0.43168 0.0
H4268 H 0.71113 0.0033 0.35409 0.0
H4269 H 0.72652 0.0246 0.35382 0.0
H4270 H 0.70071 0.03469 0.36977 0.0
H4271 H 0.68513 0.0134 0.36877 0.0
H4272 H 0.71559 0.05122 0.34948 0.0
H4273 H 0.72005 0.03138 0.40155 0.0
H4274 H 0.72235 0.01595 0.41802 0.0
H4275 H 0.75513 0.02652 0.39086 0.0
H4276 H 0.75294 0.04192 0.37406 0.0
H4277 H 0.75533 0.10233 0.40826 0.0
H4278 H 0.73972 0.08355 0.39412 0.0
H4279 H 0.76571 0.08098 0.3613 0.0
H4280 H 0.78137 0.10019 0.37452 0.0
H4281 H 0.75162 0.06125 0.38728 0.0
H4282 H 0.74723 0.08366 0.33855 0.0
H4283 H 0.74423 0.09963 0.32554 0.0
H4284 H 0.71036 0.08486 0.35114 0.0
H4285 H 0.71324 0.0689 0.36454 0.0
C4286 C 0.70872 0.0101 0.3572 0.0
C4287 C 0.697 0.00674 0.36164 0.0
C4288 C 0.71753 0.02227 0.35717 0.0
C4289 C 0.71489 0.03128 0.36237 0.0
C4290 C 0.70302 0.02794 0.36582 0.0
C4291 C 0.69412 0.01577 0.36529 0.0
C4292 C 0.7246 0.04401 0.36548 0.0
C4293 C 0.72343 0.0534 0.35784 0.0
C4294 C 0.73491 0.04693 0.3763 0.0
C4295 C 0.73626 0.0377 0.3864 0.0
C4296 C 0.72771 0.03035 0.39901 0.0
C4297 C 0.729 0.02163 0.40841 0.0
C4298 C 0.73886 0.02023 0.40544 0.0
C4299 C 0.74748 0.02759 0.39311 0.0
C4300 C 0.74623 0.03632 0.38365 0.0
C4301 C 0.75774 0.0981 0.39751 0.0
C4302 C 0.76972 0.10278 0.39275 0.0
C4303 C 0.74877 0.08729 0.38952 0.0
C4304 C 0.7516 0.08089 0.37676 0.0
C4305 C 0.76338 0.08581 0.37118 0.0
C4306 C 0.77233 0.09674 0.3789 0.0
C4307 C 0.74259 0.06836 0.37129 0.0
C4308 C 0.74386 0.05902 0.37867 0.0
C4309 C 0.73226 0.06556 0.36075 0.0
C4310 C 0.7305 0.07514 0.35269 0.0
C4311 C 0.73919 0.08388 0.34156 0.0
C4312 C 0.7375 0.09292 0.33408 0.0
C4313 C 0.72712 0.09328 0.33755 0.0
C4314 C 0.7184 0.08458 0.34847 0.0
C4315 C 0.72005 0.07553 0.356 0.0
H4316 H 0.72583 0.10028 0.33174 0.0
H4317 H 0.73984 0.01347 0.41274 0.0
H4318 H 0.00184 0.67899 0.36366 0.0
H4319 H 0.98265 0.67119 0.37857 0.0
H4320 H 0.97528 0.69514 0.34731 0.0
H4321 H 0.99437 0.703 0.33247 0.0
H4322 H 0.96947 0.69461 0.38332 0.0
H4323 H 0.96321 0.66602 0.33419 0.0
H4324 H 0.96744 0.65179 0.31735 0.0
H4325 H 0.95988 0.63023 0.36509 0.0
H4326 H 0.95576 0.64443 0.3823 0.0
H4327 H 0.90782 0.66967 0.39323 0.0
H4328 H 0.92736 0.67669 0.38003 0.0
H4329 H 0.93068 0.64928 0.40883 0.0
H4330 H 0.91106 0.6421 0.42176 0.0
H4331 H 0.93904 0.65124 0.37574 0.0
H4332 H 0.94464 0.67884 0.42482 0.0
H4333 H 0.94082 0.693 0.4427 0.0
H4334 H 0.95017 0.71634 0.39682 0.0
H4335 H 0.95389 0.70223 0.37857 0.0
C4336 C 0.99617 0.68266 0.36009 0.0
C4337 C 0.99959 0.69157 0.34681 0.0
C4338 C 0.9852 0.67816 0.36855 0.0
C4339 C 0.9775 0.6825 0.36388 0.0
C4340 C 0.98108 0.69165 0.35108 0.0
C4341 C 0.99199 0.69611 0.34257 0.0
C4342 C 0.96557 0.67737 0.37192 0.0
C4343 C 0.96277 0.68515 0.38154 0.0
C4344 C 0.95697 0.66496 0.37 0.0
C4345 C 0.95931 0.65635 0.35959 0.0
C4346 C 0.96254 0.65829 0.34114 0.0
C4347 C 0.9649 0.65022 0.33152 0.0
C4348 C 0.96397 0.64013 0.34016 0.0
C4349 C 0.96062 0.63806 0.35842 0.0
C4350 C 0.95826 0.64611 0.36811 0.0
C4351 C 0.9127 0.66512 0.39664 0.0
C4352 C 0.90794 0.65537 0.40855 0.0
C4353 C 0.92387 0.66914 0.38916 0.0
C4354 C 0.93059 0.66366 0.39373 0.0
C4355 C 0.92568 0.65367 0.40513 0.0
C4356 C 0.91445 0.64955 0.41247 0.0
C4357 C 0.94285 0.66852 0.38697 0.0
C4358 C 0.94574 0.66069 0.37763 0.0
C4359 C 0.95159 0.68087 0.38931 0.0
C4360 C 0.94944 0.68942 0.40028 0.0
C4361 C 0.94581 0.68695 0.4185 0.0
C4362 C 0.94367 0.69497 0.42871 0.0
C4363 C 0.94523 0.70554 0.42089 0.0
C4364 C 0.94896 0.70814 0.40286 0.0
C4365 C 0.95109 0.70014 0.39258 0.0
H4366 H 0.94357 0.71174 0.42881 0.0
H4367 H 0.96581 0.6339 0.3327 0.0
H4368 H 0.3886 0.04668 0.68535 0.0
H4369 H 0.40239 0.04086 0.69837 0.0
H4370 H 0.37359 0.00422 0.70263 0.0
H4371 H 0.35968 0.00998 0.68973 0.0
H4372 H 0.3884 0.01158 0.73285 0.0
H4373 H 0.39222 0.01178 0.66754 0.0
H4374 H 0.39555 0.02048 0.63685 0.0
H4375 H 0.43046 0.04853 0.65428 0.0
H4376 H 0.42727 0.04009 0.68517 0.0
H4377 H 0.42036 0.98062 0.73963 0.0
H4378 H 0.4075 0.98812 0.72849 0.0
H4379 H 0.43776 0.02412 0.72684 0.0
H4380 H 0.45081 0.01662 0.73772 0.0
H4381 H 0.42289 0.01807 0.69612 0.0
H4382 H 0.4193 0.01711 0.76121 0.0
H4383 H 0.4159 0.00805 0.79163 0.0
H4384 H 0.38045 0.98113 0.77446 0.0
H4385 H 0.3837 0.98992 0.74382 0.0
C4386 C 0.38515 0.0374 0.68921 0.0
C4387 C 0.37304 0.02877 0.68636 0.0
C4388 C 0.39307 0.03409 0.69658 0.0
C4389 C 0.38905 0.02207 0.7012 0.0
C4390 C 0.37689 0.01354 0.69909 0.0
C4391 C 0.36895 0.01684 0.69169 0.0
C4392 C 0.39759 0.01834 0.7077 0.0
C4393 C 0.39586 0.01288 0.72474 0.0
C4394 C 0.4075 0.02029 0.69729 0.0
C4395 C 0.40945 0.02538 0.67872 0.0
C4396 C 0.40057 0.01987 0.66488 0.0
C4397 C 0.40244 0.02474 0.64744 0.0
C4398 C 0.4132 0.03508 0.64363 0.0
C4399 C 0.42212 0.04054 0.65726 0.0
C4400 C 0.42029 0.03571 0.67473 0.0
C4401 C 0.42434 0.99011 0.73661 0.0
C4402 C 0.43663 0.99802 0.73949 0.0
C4403 C 0.41694 0.9944 0.73044 0.0
C4404 C 0.42165 0.0067 0.72707 0.0
C4405 C 0.43395 0.0146 0.72945 0.0
C4406 C 0.44137 0.01032 0.73573 0.0
C4407 C 0.41364 0.01125 0.72122 0.0
C4408 C 0.41546 0.01684 0.70428 0.0
C4409 C 0.40381 0.00939 0.73171 0.0
C4410 C 0.40179 0.00412 0.75016 0.0
C4411 C 0.41081 0.0092 0.76387 0.0
C4412 C 0.4089 0.00412 0.78116 0.0
C4413 C 0.39797 0.994 0.78497 0.0
C4414 C 0.38892 0.98896 0.77149 0.0
C4415 C 0.39078 0.99399 0.75416 0.0
H4416 H 0.39651 0.99008 0.79836 0.0
H4417 H 0.41463 0.03883 0.63012 0.0
H4418 H 0.98762 0.35153 0.68875 0.0
H4419 H 0.99641 0.37337 0.68594 0.0
H4420 H 0.96493 0.3713 0.70852 0.0
H4421 H 0.95597 0.34956 0.71087 0.0
H4422 H 0.97344 0.38792 0.68325 0.0
H4423 H 0.9899 0.37734 0.73562 0.0
H4424 H 0.0005 0.368 0.75015 0.0
H4425 H 0.03115 0.38959 0.71808 0.0
H4426 H 0.02066 0.39897 0.70321 0.0
H4427 H 0.98875 0.43733 0.74225 0.0
H4428 H 0.98264 0.41842 0.7258 0.0
H4429 H 0.01774 0.43314 0.70386 0.0
H4430 H 0.02391 0.4524 0.71992 0.0
H4431 H 0.01045 0.41179 0.7209 0.0
H4432 H 0.99478 0.42602 0.67487 0.0
H4433 H 0.98378 0.43544 0.6621 0.0
H4434 H 0.95127 0.40721 0.68352 0.0
H4435 H 0.96209 0.3977 0.69667 0.0
C4436 C 0.98248 0.35569 0.6928 0.0
C4437 C 0.97115 0.34879 0.70031 0.0
C4438 C 0.98754 0.36819 0.69122 0.0
C4439 C 0.98143 0.37401 0.69736 0.0
C4440 C 0.96984 0.36703 0.70373 0.0
C4441 C 0.96474 0.35456 0.70516 0.0
C4442 C 0.98736 0.38738 0.69891 0.0
C4443 C 0.98155 0.39316 0.69144 0.0
C4444 C 0.99813 0.39429 0.70914 0.0
C4445 C 0.00446 0.38873 0.71815 0.0
C4446 C 0.99887 0.38004 0.7316 0.0
C4447 C 0.00486 0.37474 0.7399 0.0
C4448 C 0.01648 0.37817 0.735 0.0
C4449 C 0.02214 0.38693 0.72183 0.0
C4450 C 0.01619 0.39223 0.71346 0.0
C4451 C 0.99511 0.43677 0.73346 0.0
C4452 C 0.00685 0.44646 0.73245 0.0
C4453 C 0.99159 0.42588 0.72407 0.0
C4454 C 0.9997 0.42439 0.71348 0.0
C4455 C 0.01133 0.43412 0.71194 0.0
C4456 C 0.01485 0.44509 0.72122 0.0
C4457 C 0.99628 0.41225 0.70584 0.0
C4458 C 0.00255 0.40667 0.71221 0.0
C4459 C 0.98587 0.40552 0.69477 0.0
C4460 C 0.97928 0.41117 0.68683 0.0
C4461 C 0.9853 0.42186 0.67697 0.0
C4462 C 0.97909 0.42721 0.66964 0.0
C4463 C 0.96683 0.42193 0.67201 0.0
C4464 C 0.96076 0.41128 0.68169 0.0
C4465 C 0.96693 0.4059 0.68905 0.0
H4466 H 0.96204 0.42609 0.66633 0.0
H4467 H 0.0211 0.37406 0.74144 0.0
H4468 H 0.65103 0.62036 0.65018 0.0
H4469 H 0.63322 0.61013 0.66834 0.0
H4470 H 0.65276 0.63225 0.71562 0.0
H4471 H 0.67077 0.64239 0.69757 0.0
H4472 H 0.63976 0.60958 0.7248 0.0
H4473 H 0.63246 0.63709 0.69218 0.0
H4474 H 0.63102 0.64775 0.6653 0.0
H4475 H 0.60323 0.61427 0.64179 0.0
H4476 H 0.60464 0.60337 0.6684 0.0
H4477 H 0.58738 0.58878 0.77581 0.0
H4478 H 0.60446 0.60299 0.75826 0.0
H4479 H 0.59083 0.57877 0.71113 0.0
H4480 H 0.57367 0.56448 0.72863 0.0
H4481 H 0.60089 0.60432 0.70341 0.0
H4482 H 0.61022 0.5771 0.73596 0.0
H4483 H 0.61187 0.56721 0.76366 0.0
H4484 H 0.63622 0.6018 0.78843 0.0
H4485 H 0.63456 0.6119 0.76096 0.0
C4486 C 0.65156 0.62308 0.66443 0.0
C4487 C 0.66231 0.6322 0.67244 0.0
C4488 C 0.64133 0.61727 0.67477 0.0
C4489 C 0.6416 0.62057 0.69325 0.0
C4490 C 0.65235 0.62961 0.70134 0.0
C4491 C 0.66262 0.63538 0.69102 0.0
C4492 C 0.63074 0.61422 0.70422 0.0
C4493 C 0.63132 0.60864 0.72028 0.0
C4494 C 0.61969 0.61287 0.69823 0.0
C4495 C 0.61872 0.61939 0.68224 0.0
C4496 C 0.6261 0.63198 0.68122 0.0
C4497 C 0.62528 0.63807 0.66604 0.0
C4498 C 0.61705 0.63169 0.65184 0.0
C4499 C 0.60961 0.61921 0.65281 0.0
C4500 C 0.6104 0.61307 0.66795 0.0
C4501 C 0.58789 0.5866 0.76159 0.0
C4502 C 0.57924 0.57551 0.75357 0.0
C4503 C 0.59766 0.59469 0.75163 0.0
C4504 C 0.5989 0.59186 0.73348 0.0
C4505 C 0.58999 0.58109 0.72513 0.0
C4506 C 0.58026 0.57292 0.73515 0.0
C4507 C 0.60997 0.59963 0.72372 0.0
C4508 C 0.60939 0.60543 0.70794 0.0
C4509 C 0.62107 0.60134 0.73007 0.0
C4510 C 0.62216 0.59526 0.7465 0.0
C4511 C 0.61584 0.5826 0.74738 0.0
C4512 C 0.61679 0.57695 0.76302 0.0
C4513 C 0.62411 0.58387 0.77782 0.0
C4514 C 0.63053 0.59645 0.77697 0.0
C4515 C 0.6296 0.60214 0.76137 0.0
H4516 H 0.62484 0.57948 0.78992 0.0
H4517 H 0.61644 0.63642 0.64009 0.0
H4518 H 0.6853 0.68158 0.66459 0.0
H4519 H 0.67739 0.69538 0.66434 0.0
H4520 H 0.70242 0.7163 0.62313 0.0
H4521 H 0.71064 0.70287 0.62383 0.0
H4522 H 0.70061 0.73085 0.64588 0.0
H4523 H 0.67223 0.69365 0.61316 0.0
H4524 H 0.65842 0.67167 0.61067 0.0
H4525 H 0.63795 0.67414 0.65441 0.0
H4526 H 0.65172 0.69613 0.65726 0.0
H4527 H 0.66023 0.74309 0.58691 0.0
H4528 H 0.66373 0.72807 0.60122 0.0
H4529 H 0.67548 0.74969 0.65119 0.0
H4530 H 0.67205 0.76491 0.63682 0.0
H4531 H 0.65771 0.71379 0.63017 0.0
H4532 H 0.70051 0.74983 0.66673 0.0
H4533 H 0.7148 0.7717 0.6657 0.0
H4534 H 0.70716 0.77122 0.60819 0.0
H4535 H 0.69298 0.74934 0.60884 0.0
C4536 C 0.68919 0.6892 0.65561 0.0
C4537 C 0.69855 0.69108 0.64413 0.0
C4538 C 0.68463 0.69705 0.65544 0.0
C4539 C 0.68917 0.70677 0.6435 0.0
C4540 C 0.69877 0.70888 0.63249 0.0
C4541 C 0.70345 0.70116 0.63287 0.0
C4542 C 0.68371 0.71452 0.64166 0.0
C4543 C 0.69119 0.7271 0.64268 0.0
C4544 C 0.67142 0.70967 0.63745 0.0
C4545 C 0.66307 0.69649 0.63555 0.0
C4546 C 0.66482 0.68949 0.6223 0.0
C4547 C 0.65699 0.67704 0.62082 0.0
C4548 C 0.64734 0.67151 0.63241 0.0
C4549 C 0.64545 0.67843 0.64546 0.0
C4550 C 0.65325 0.69089 0.647 0.0
C4551 C 0.66317 0.74449 0.60115 0.0
C4552 C 0.66599 0.75526 0.61067 0.0
C4553 C 0.66519 0.73587 0.60932 0.0
C4554 C 0.67006 0.73785 0.62716 0.0
C4555 C 0.67189 0.74808 0.6373 0.0
C4556 C 0.66995 0.75677 0.62907 0.0
C4557 C 0.67469 0.73007 0.63393 0.0
C4558 C 0.66705 0.71751 0.63388 0.0
C4559 C 0.6869 0.73491 0.63856 0.0
C4560 C 0.69559 0.74801 0.63791 0.0
C4561 C 0.70192 0.7544 0.65387 0.0
C4562 C 0.71 0.76679 0.65334 0.0
C4563 C 0.71185 0.77286 0.6369 0.0
C4564 C 0.70569 0.76653 0.62092 0.0
C4565 C 0.69763 0.75413 0.62136 0.0
H4566 H 0.71809 0.78245 0.63654 0.0
H4567 H 0.6413 0.66186 0.63127 0.0
H4568 H 0.31847 0.98904 0.6705 0.0
H4569 H 0.30424 0.96736 0.67149 0.0
H4570 H 0.2791 0.97224 0.63863 0.0
H4571 H 0.29301 0.99382 0.6381 0.0
H4572 H 0.26761 0.95645 0.66326 0.0
H4573 H 0.29828 0.96272 0.62036 0.0
H4574 H 0.3189 0.96968 0.61121 0.0
H4575 H 0.32193 0.94692 0.65095 0.0
H4576 H 0.30136 0.93993 0.66047 0.0
H4577 H 0.23561 0.90472 0.60669 0.0
H4578 H 0.24883 0.92441 0.62076 0.0
H4579 H 0.26263 0.90846 0.65831 0.0
H4580 H 0.24891 0.88843 0.64488 0.0
H4581 H 0.28024 0.9284 0.63857 0.0
H4582 H 0.24722 0.91917 0.67609 0.0
H4583 H 0.22619 0.91205 0.68273 0.0
H4584 H 0.22714 0.94032 0.65061 0.0
H4585 H 0.24813 0.94751 0.64354 0.0
C4586 C 0.30986 0.9855 0.66364 0.0
C4587 C 0.30694 0.99318 0.6541 0.0
C4588 C 0.30175 0.9731 0.66417 0.0
C4589 C 0.29065 0.96811 0.65489 0.0
C4590 C 0.28759 0.97584 0.64592 0.0
C4591 C 0.2956 0.98821 0.64557 0.0
C4592 C 0.28238 0.95485 0.65359 0.0
C4593 C 0.27038 0.95033 0.65785 0.0
C4594 C 0.28602 0.94675 0.64701 0.0
C4595 C 0.29836 0.95093 0.64128 0.0
C4596 C 0.30338 0.95927 0.62723 0.0
C4597 C 0.31505 0.96321 0.62196 0.0
C4598 C 0.32174 0.95878 0.63054 0.0
C4599 C 0.31675 0.95037 0.64436 0.0
C4600 C 0.30509 0.94641 0.64969 0.0
C4601 C 0.24112 0.90523 0.61833 0.0
C4602 C 0.24107 0.89486 0.62467 0.0
C4603 C 0.24877 0.91657 0.62627 0.0
C4604 C 0.25665 0.91788 0.64063 0.0
C4605 C 0.25658 0.90761 0.64724 0.0
C4606 C 0.24878 0.89619 0.63945 0.0
C4607 C 0.26546 0.93014 0.64764 0.0
C4608 C 0.27754 0.93447 0.64443 0.0
C4609 C 0.26186 0.93809 0.6549 0.0
C4610 C 0.24925 0.93385 0.65921 0.0
C4611 C 0.24292 0.92382 0.67033 0.0
C4612 C 0.23101 0.91978 0.67419 0.0
C4613 C 0.22533 0.92572 0.66708 0.0
C4614 C 0.23155 0.93573 0.65612 0.0
C4615 C 0.24347 0.93981 0.6522 0.0
H4616 H 0.2161 0.92257 0.67009 0.0
H4617 H 0.33077 0.96184 0.62644 0.0
H4618 H 0.99507 0.30764 0.66884 0.0
H4619 H 0.01199 0.30798 0.65402 0.0
H4620 H 0.03602 0.34117 0.68328 0.0
H4621 H 0.01915 0.34098 0.69806 0.0
H4622 H 0.04205 0.34159 0.64752 0.0
H4623 H 0.03265 0.315 0.69798 0.0
H4624 H 0.01962 0.2978 0.71702 0.0
H4625 H 0.01205 0.27336 0.67126 0.0
H4626 H 0.02491 0.29043 0.65187 0.0
H4627 H 0.09475 0.33953 0.62965 0.0
H4628 H 0.07861 0.34017 0.64558 0.0
H4629 H 0.05314 0.30622 0.61954 0.0
H4630 H 0.06918 0.30551 0.60364 0.0
H4631 H 0.04828 0.30664 0.65473 0.0
H4632 H 0.05715 0.33309 0.60401 0.0
H4633 H 0.07003 0.35018 0.5847 0.0
H4634 H 0.07844 0.37478 0.63053 0.0
H4635 H 0.06573 0.3578 0.65019 0.0
C4636 C 0.00394 0.31507 0.67203 0.0
C4637 C 0.00577 0.32424 0.68474 0.0
C4638 C 0.01361 0.31522 0.66361 0.0
C4639 C 0.02527 0.32451 0.66777 0.0
C4640 C 0.02709 0.3339 0.67994 0.0
C4641 C 0.01743 0.33375 0.6884 0.0
C4642 C 0.03558 0.32427 0.65972 0.0
C4643 C 0.04352 0.33403 0.64929 0.0
C4644 C 0.03735 0.3143 0.66178 0.0
C4645 C 0.02965 0.30401 0.67343 0.0
C4646 C 0.02813 0.30597 0.69194 0.0
C4647 C 0.02079 0.29624 0.7028 0.0
C4648 C 0.01499 0.2845 0.69534 0.0
C4649 C 0.01654 0.28246 0.67701 0.0
C4650 C 0.02386 0.29216 0.66609 0.0
C4651 C 0.08571 0.3322 0.62734 0.0
C4652 C 0.08325 0.32247 0.61538 0.0
C4653 C 0.07649 0.33259 0.63644 0.0
C4654 C 0.06464 0.32332 0.63357 0.0
C4655 C 0.06221 0.31346 0.62199 0.0
C4656 C 0.07141 0.31304 0.61296 0.0
C4657 C 0.05472 0.32391 0.64238 0.0
C4658 C 0.04685 0.31422 0.65298 0.0
C4659 C 0.05299 0.33393 0.64043 0.0
C4660 C 0.06059 0.34416 0.62862 0.0
C4661 C 0.06182 0.34213 0.61001 0.0
C4662 C 0.06908 0.3518 0.59899 0.0
C4663 C 0.07508 0.36355 0.6064 0.0
C4664 C 0.07381 0.36567 0.62482 0.0
C4665 C 0.06657 0.35602 0.6359 0.0
H4666 H 0.08069 0.37103 0.59785 0.0
H4667 H 0.00931 0.27698 0.70377 0.0
H4668 H 0.28929 0.29751 0.65409 0.0
H4669 H 0.27531 0.30367 0.64291 0.0
H4670 H 0.29878 0.33991 0.66369 0.0
H4671 H 0.31279 0.33384 0.67496 0.0
H4672 H 0.27576 0.33125 0.67396 0.0
H4673 H 0.29629 0.33399 0.6185 0.0
H4674 H 0.30416 0.32663 0.59409 0.0
H4675 H 0.26875 0.29821 0.57987 0.0
H4676 H 0.26068 0.30531 0.60437 0.0
H4677 H 0.24566 0.3588 0.63242 0.0
H4678 H 0.26019 0.35322 0.64286 0.0
H4679 H 0.23901 0.31791 0.61733 0.0
H4680 H 0.22484 0.32364 0.60594 0.0
H4681 H 0.26122 0.32638 0.60948 0.0
H4682 H 0.24052 0.32297 0.66485 0.0
H4683 H 0.23229 0.32974 0.68955 0.0
H4684 H 0.2674 0.35855 0.70436 0.0
H4685 H 0.27582 0.35205 0.67959 0.0
C4686 C 0.29154 0.30682 0.65612 0.0
C4687 C 0.30215 0.31517 0.66545 0.0
C4688 C 0.28355 0.31034 0.64969 0.0
C4689 C 0.28603 0.32226 0.65244 0.0
C4690 C 0.2967 0.33066 0.66146 0.0
C4691 C 0.30471 0.32718 0.66781 0.0
C4692 C 0.27728 0.32587 0.64653 0.0
C4693 C 0.27269 0.33035 0.65981 0.0
C4694 C 0.27306 0.32438 0.62817 0.0
C4695 C 0.27789 0.32012 0.61339 0.0
C4696 C 0.29019 0.32611 0.61027 0.0
C4697 C 0.29469 0.322 0.5964 0.0
C4698 C 0.28696 0.31194 0.58547 0.0
C4699 C 0.27472 0.30599 0.58836 0.0
C4700 C 0.27018 0.31007 0.60223 0.0
C4701 C 0.2441 0.34985 0.62898 0.0
C4702 C 0.23403 0.34168 0.61834 0.0
C4703 C 0.25236 0.34663 0.63514 0.0
C4704 C 0.25065 0.3351 0.63104 0.0
C4705 C 0.24052 0.32686 0.6207 0.0
C4706 C 0.23232 0.33011 0.6144 0.0
C4707 C 0.25961 0.33173 0.63693 0.0
C4708 C 0.26426 0.32729 0.62364 0.0
C4709 C 0.26382 0.33317 0.65532 0.0
C4710 C 0.25878 0.33709 0.67024 0.0
C4711 C 0.24647 0.33081 0.67328 0.0
C4712 C 0.24178 0.33459 0.68731 0.0
C4713 C 0.24932 0.34459 0.69848 0.0
C4714 C 0.26157 0.35082 0.69568 0.0
C4715 C 0.26631 0.34708 0.68166 0.0
H4716 H 0.24567 0.3475 0.70934 0.0
H4717 H 0.29046 0.30877 0.57473 0.0
H4718 H 0.71542 0.99373 0.64132 0.0
H4719 H 0.70754 0.97203 0.63884 0.0
H4720 H 0.67404 0.96564 0.65976 0.0
H4721 H 0.68184 0.98746 0.66232 0.0
H4722 H 0.68179 0.94906 0.67248 0.0
H4723 H 0.67504 0.96458 0.61678 0.0
H4724 H 0.68086 0.97863 0.59123 0.0
H4725 H 0.70624 0.96842 0.57447 0.0
H4726 H 0.7007 0.95443 0.60012 0.0
H4727 H 0.64755 0.88904 0.63224 0.0
H4728 H 0.6554 0.90967 0.64423 0.0
H4729 H 0.68812 0.92086 0.61598 0.0
H4730 H 0.68015 0.90058 0.60316 0.0
H4731 H 0.67961 0.93495 0.60814 0.0
H4732 H 0.68632 0.91917 0.66356 0.0
H4733 H 0.68079 0.9053 0.68933 0.0
H4734 H 0.65569 0.91574 0.70673 0.0
H4735 H 0.66096 0.92956 0.6809 0.0
C4736 C 0.70643 0.98777 0.64569 0.0
C4737 C 0.69921 0.99237 0.65176 0.0
C4738 C 0.70196 0.97535 0.64428 0.0
C4739 C 0.69018 0.96727 0.64891 0.0
C4740 C 0.68316 0.97176 0.65612 0.0
C4741 C 0.68763 0.98423 0.65749 0.0
C4742 C 0.68493 0.95425 0.64434 0.0
C4743 C 0.68116 0.9459 0.65842 0.0
C4744 C 0.68426 0.95022 0.62601 0.0
C4745 C 0.68754 0.95855 0.61048 0.0
C4746 C 0.68193 0.9654 0.60774 0.0
C4747 C 0.68517 0.97334 0.59322 0.0
C4748 C 0.69393 0.97444 0.58126 0.0
C4749 C 0.69946 0.96757 0.58376 0.0
C4750 C 0.69627 0.95963 0.59828 0.0
C4751 C 0.65644 0.89588 0.62866 0.0
C4752 C 0.66316 0.89311 0.61662 0.0
C4753 C 0.66097 0.90765 0.63571 0.0
C4754 C 0.67237 0.91682 0.63103 0.0
C4755 C 0.6793 0.91394 0.61977 0.0
C4756 C 0.67475 0.90225 0.6126 0.0
C4757 C 0.67671 0.92964 0.63631 0.0
C4758 C 0.68023 0.93801 0.62226 0.0
C4759 C 0.67713 0.93361 0.65466 0.0
C4760 C 0.67394 0.9253 0.67017 0.0
C4761 C 0.67954 0.91843 0.67278 0.0
C4762 C 0.67647 0.9106 0.68742 0.0
C4763 C 0.66787 0.90962 0.69962 0.0
C4764 C 0.66234 0.9165 0.69724 0.0
C4765 C 0.66537 0.92434 0.68262 0.0
H4766 H 0.6655 0.90355 0.71095 0.0
H4767 H 0.69642 0.98059 0.57003 0.0
H4768 H 0.00661 0.69502 0.66254 0.0
H4769 H 0.02612 0.70556 0.64861 0.0
H4770 H 0.02784 0.73967 0.65896 0.0
H4771 H 0.00828 0.7292 0.67283 0.0
H4772 H 0.0361 0.73831 0.62486 0.0
H4773 H 0.04215 0.73095 0.68745 0.0
H4774 H 0.03879 0.71843 0.71448 0.0
H4775 H 0.05048 0.6971 0.68505 0.0
H4776 H 0.05374 0.70939 0.65775 0.0
H4777 H 0.09828 0.77539 0.61239 0.0
H4778 H 0.0785 0.76574 0.62572 0.0
H4779 H 0.07655 0.73113 0.62106 0.0
H4780 H 0.09631 0.74074 0.60799 0.0
H4781 H 0.06839 0.73321 0.65275 0.0
H4782 H 0.06206 0.73996 0.59011 0.0
H4783 H 0.06522 0.75203 0.5626 0.0
H4784 H 0.05388 0.77392 0.59126 0.0
H4785 H 0.0508 0.76208 0.61903 0.0
C4786 C 0.01107 0.70475 0.66169 0.0
C4787 C 0.00593 0.71128 0.66894 0.0
C4788 C 0.02224 0.71076 0.65378 0.0
C4789 C 0.02849 0.7234 0.65302 0.0
C4790 C 0.02317 0.72991 0.65949 0.0
C4791 C 0.01201 0.72391 0.66745 0.0
C4792 C 0.04077 0.72985 0.64614 0.0
C4793 C 0.04321 0.73733 0.63108 0.0
C4794 C 0.04997 0.72837 0.65406 0.0
C4795 C 0.04808 0.72102 0.6705 0.0
C4796 C 0.04391 0.72353 0.6867 0.0
C4797 C 0.04204 0.71649 0.70208 0.0
C4798 C 0.04439 0.70696 0.70147 0.0
C4799 C 0.04865 0.70447 0.6855 0.0
C4800 C 0.05052 0.71148 0.67007 0.0
C4801 C 0.09362 0.76573 0.61426 0.0
C4802 C 0.09884 0.75882 0.60917 0.0
C4803 C 0.08232 0.76022 0.62182 0.0
C4804 C 0.07597 0.74768 0.62414 0.0
C4805 C 0.08128 0.74082 0.61942 0.0
C4806 C 0.0926 0.74633 0.61202 0.0
C4807 C 0.06374 0.74162 0.63133 0.0
C4808 C 0.0613 0.73423 0.6465 0.0
C4809 C 0.05453 0.74312 0.62341 0.0
C4810 C 0.05632 0.75021 0.6067 0.0
C4811 C 0.06032 0.74741 0.59058 0.0
C4812 C 0.06209 0.7542 0.57494 0.0
C4813 C 0.05978 0.76376 0.57519 0.0
C4814 C 0.05568 0.76653 0.59109 0.0
C4815 C 0.05391 0.75977 0.60678 0.0
H4816 H 0.06115 0.76901 0.56307 0.0
H4817 H 0.04294 0.70152 0.71339 0.0
H4818 H 0.95252 0.63288 0.69117 0.0
H4819 H 0.95697 0.61643 0.69166 0.0
H4820 H 0.99288 0.6415 0.71072 0.0
H4821 H 0.98866 0.65808 0.70892 0.0
H4822 H 0.99371 0.62537 0.69112 0.0
H4823 H 0.96884 0.62365 0.74047 0.0
H4824 H 0.95122 0.62263 0.75458 0.0
H4825 H 0.92853 0.58899 0.72592 0.0
H4826 H 0.94602 0.58989 0.71147 0.0
H4827 H 0.00244 0.58812 0.75469 0.0
H4828 H 0.99981 0.60304 0.73823 0.0
H4829 H 0.97101 0.57472 0.70602 0.0
H4830 H 0.97398 0.55963 0.72163 0.0
H4831 H 0.96575 0.59082 0.72803 0.0
H4832 H 0.99301 0.59205 0.68347 0.0
H4833 H 0.01178 0.59382 0.67301 0.0
H4834 H 0.03145 0.62944 0.69735 0.0
H4835 H 0.01281 0.62782 0.70821 0.0
C4836 C 0.96142 0.63488 0.69511 0.0
C4837 C 0.97022 0.64668 0.7002 0.0
C4838 C 0.96395 0.62548 0.6955 0.0
C4839 C 0.97516 0.62763 0.70181 0.0
C4840 C 0.98415 0.63957 0.70589 0.0
C4841 C 0.98173 0.64904 0.70492 0.0
C4842 C 0.97723 0.61742 0.70558 0.0
C4843 C 0.98761 0.61785 0.69925 0.0
C4844 C 0.96923 0.60749 0.71603 0.0
C4845 C 0.95871 0.60691 0.72473 0.0
C4846 C 0.96008 0.61608 0.73709 0.0
C4847 C 0.95012 0.61552 0.74516 0.0
C4848 C 0.93876 0.60577 0.7411 0.0
C4849 C 0.93733 0.59655 0.72901 0.0
C4850 C 0.94726 0.59708 0.72089 0.0
C4851 C 0.99584 0.585 0.74365 0.0
C4852 C 0.98836 0.57258 0.73967 0.0
C4853 C 0.99432 0.59359 0.73431 0.0
C4854 C 0.98522 0.58996 0.72096 0.0
C4855 C 0.97808 0.57767 0.71632 0.0
C4856 C 0.97973 0.56906 0.72541 0.0
C4857 C 0.98223 0.59888 0.71374 0.0
C4858 C 0.97171 0.59823 0.71957 0.0
C4859 C 0.99027 0.60874 0.70335 0.0
C4860 C 0.0015 0.60977 0.69678 0.0
C4861 C 0.00134 0.60022 0.68674 0.0
C4862 C 0.01196 0.60121 0.6807 0.0
C4863 C 0.0228 0.61173 0.68454 0.0
C4864 C 0.02304 0.6213 0.69439 0.0
C4865 C 0.01245 0.62035 0.70047 0.0
H4866 H 0.03101 0.61248 0.67986 0.0
H4867 H 0.93106 0.60535 0.74736 0.0
H4868 H 0.38212 0.34594 0.70614 0.0
H4869 H 0.3965 0.36748 0.70813 0.0
H4870 H 0.36849 0.37549 0.69681 0.0
H4871 H 0.35397 0.35386 0.69454 0.0
H4872 H 0.38987 0.39153 0.68023 0.0
H4873 H 0.37641 0.37553 0.7398 0.0
H4874 H 0.37211 0.36133 0.76484 0.0
H4875 H 0.40899 0.37132 0.76864 0.0
H4876 H 0.41349 0.38547 0.74342 0.0
H4877 H 0.41902 0.45065 0.72368 0.0
H4878 H 0.40564 0.43014 0.71181 0.0
H4879 H 0.43151 0.41988 0.72722 0.0
H4880 H 0.44463 0.44006 0.7399 0.0
H4881 H 0.41076 0.40503 0.74079 0.0
H4882 H 0.42444 0.42176 0.68181 0.0
H4883 H 0.42864 0.43594 0.65677 0.0
H4884 H 0.39153 0.42492 0.65192 0.0
H4885 H 0.38713 0.41079 0.67711 0.0
C4886 C 0.37899 0.35224 0.70383 0.0
C4887 C 0.36684 0.34815 0.70047 0.0
C4888 C 0.38725 0.36457 0.70496 0.0
C4889 C 0.38352 0.37307 0.70293 0.0
C4890 C 0.37154 0.36906 0.69847 0.0
C4891 C 0.36325 0.35669 0.69725 0.0
C4892 C 0.39197 0.38602 0.70708 0.0
C4893 C 0.39437 0.39454 0.69351 0.0
C4894 C 0.39793 0.38989 0.72434 0.0
C4895 C 0.39526 0.38147 0.73961 0.0
C4896 C 0.38359 0.37463 0.74589 0.0
C4897 C 0.38112 0.36661 0.76012 0.0
C4898 C 0.39027 0.3654 0.7683 0.0
C4899 C 0.40191 0.37225 0.76228 0.0
C4900 C 0.40443 0.38028 0.74803 0.0
C4901 C 0.42191 0.44406 0.72441 0.0
C4902 C 0.4329 0.44703 0.7329 0.0
C4903 C 0.41429 0.43236 0.71742 0.0
C4904 C 0.41757 0.42346 0.71861 0.0
C4905 C 0.42879 0.42659 0.72616 0.0
C4906 C 0.43635 0.43822 0.73325 0.0
C4907 C 0.40892 0.41062 0.71383 0.0
C4908 C 0.40637 0.40209 0.72742 0.0
C4909 C 0.40285 0.40681 0.69662 0.0
C4910 C 0.40548 0.4153 0.68148 0.0
C4911 C 0.41719 0.42244 0.67551 0.0
C4912 C 0.4196 0.43045 0.66127 0.0
C4913 C 0.41036 0.43135 0.65279 0.0
C4914 C 0.39868 0.42422 0.65851 0.0
C4915 C 0.39622 0.4162 0.67276 0.0
H4916 H 0.41225 0.43756 0.64176 0.0
H4917 H 0.38833 0.35918 0.77932 0.0
H4918 H 0.64986 0.0066 0.64986 0.0
H4919 H 0.63206 0.00317 0.66571 0.0
H4920 H 0.65327 0.0203 0.71471 0.0
H4921 H 0.67116 0.02362 0.69899 0.0
H4922 H 0.63299 0.00019 0.72255 0.0
H4923 H 0.64367 0.03528 0.68766 0.0
H4924 H 0.64906 0.04761 0.66008 0.0
H4925 H 0.61546 0.02243 0.63432 0.0
H4926 H 0.60993 0.00985 0.66167 0.0
H4927 H 0.58877 0.00688 0.76793 0.0
H4928 H 0.60714 0.012 0.75221 0.0
H4929 H 0.58667 0.99247 0.70381 0.0
H4930 H 0.56822 0.98745 0.7194 0.0
H4931 H 0.60687 0.01449 0.69619 0.0
H4932 H 0.59663 0.97922 0.73131 0.0
H4933 H 0.59137 0.96731 0.75934 0.0
H4934 H 0.62451 0.99356 0.78517 0.0
H4935 H 0.6299 0.00572 0.75736 0.0
C4936 C 0.65076 0.00961 0.66403 0.0
C4937 C 0.66194 0.01544 0.67314 0.0
C4938 C 0.64057 0.0077 0.67304 0.0
C4939 C 0.64137 0.01166 0.69129 0.0
C4940 C 0.65247 0.01722 0.70058 0.0
C4941 C 0.66268 0.01912 0.69158 0.0
C4942 C 0.63058 0.00991 0.70065 0.0
C4943 C 0.62738 0.00349 0.71693 0.0
C4944 C 0.62314 0.01402 0.69313 0.0
C4945 C 0.62643 0.02156 0.67665 0.0
C4946 C 0.63747 0.03232 0.67606 0.0
C4947 C 0.64054 0.03936 0.66048 0.0
C4948 C 0.63262 0.03579 0.64544 0.0
C4949 C 0.62159 0.02518 0.64597 0.0
C4950 C 0.61848 0.01809 0.66151 0.0
C4951 C 0.58818 0.00386 0.75383 0.0
C4952 C 0.57705 0.99675 0.74489 0.0
C4953 C 0.59867 0.0067 0.74493 0.0
C4954 C 0.59824 0.00249 0.72694 0.0
C4955 C 0.58718 0.99577 0.71773 0.0
C4956 C 0.57666 0.99286 0.72666 0.0
C4957 C 0.6093 0.00474 0.71799 0.0
C4958 C 0.61252 0.01125 0.7018 0.0
C4959 C 0.6168 0.00077 0.72564 0.0
C4960 C 0.61361 0.99344 0.74232 0.0
C4961 C 0.60276 0.9825 0.74302 0.0
C4962 C 0.59976 0.9757 0.75886 0.0
C4963 C 0.60758 0.97969 0.77404 0.0
C4964 C 0.61845 0.99048 0.7734 0.0
C4965 C 0.62148 0.99733 0.7576 0.0
H4966 H 0.60525 0.97441 0.78629 0.0
H4967 H 0.63501 0.04126 0.63339 0.0
loop_
_geom_bond_atom_site_label_1
_geom_bond_atom_site_label_2
_geom_bond_distance
_geom_bond_site_symmetry_2
_ccdc_geom_bond_type
Mg0 O1 1.974 1_556 S
Mg0 O7 1.979 1_456 S
Mg0 O9 2.141 . S
Mg0 O10 2.283 1_455 S
Mg0 O13 1.995 1_556 S
O1 Mg0 1.974 1_554 S
O1 C4 1.250 1_455 S
O2 Mg3 2.028 1_554 S
O2 C4 1.248 . S
Mg3 O2 2.028 1_556 S
Mg3 O8 2.032 . S
Mg3 O10 2.079 . S
C4 O1 1.250 1_655 S
C4 O2 1.248 . S
C5 O6 1.264 . S
C5 O13 1.249 . S
O6 C5 1.264 . S
O7 Mg0 1.979 1_654 S
O7 C11 1.246 1_554 S
O8 Mg3 2.032 . S
O8 C11 1.259 . S
O9 Mg0 2.141 . S
O9 C12 1.252 . S
O10 Mg0 2.283 1_655 S
O10 Mg3 2.079 . S
O10 C12 1.273 1_655 S
C11 O7 1.246 1_556 S
C11 O8 1.259 . S
C12 O9 1.252 . S
C12 O10 1.273 1_455 S
O13 Mg0 1.995 1_554 S
O13 C5 1.249 . S
Mg14 O15 2.028 1_554 S
Mg14 O21 1.986 . S
Mg14 O23 2.114 . S
Mg14 O24 2.251 . S
Mg14 O27 2.010 . S
O15 Mg14 2.028 1_556 S
O15 C18 1.250 . S
O16 Mg17 2.086 . S
O16 C18 1.214 1_554 S
Mg17 O16 2.086 . S
Mg17 O22 2.032 . S
Mg17 O24 2.079 . S
C18 O15 1.250 . S
C18 O16 1.214 1_556 S
C19 O20 1.264 . S
C19 O27 1.249 . S
O20 C19 1.264 . S
O21 Mg14 1.986 . S
O21 C25 1.246 . S
O22 Mg17 2.032 . S
O22 C25 1.259 . S
O23 Mg14 2.114 . S
O23 C26 1.252 . S
O24 Mg14 2.251 . S
O24 Mg17 2.079 . S
O24 C26 1.273 . S
C25 O21 1.246 . S
C25 O22 1.259 . S
C26 O23 1.252 . S
C26 O24 1.273 . S
O27 Mg14 2.010 . S
O27 C19 1.249 . S
Mg28 O29 2.014 . S
Mg28 O35 1.985 1_565 S
Mg28 O37 2.116 1_554 S
Mg28 O38 2.255 1_564 S
Mg28 O41 2.008 . S
O29 Mg28 2.014 . S
O29 C32 1.242 1_565 S
O30 Mg31 2.028 1_554 S
O30 C32 1.248 . S
Mg31 O30 2.028 1_556 S
Mg31 O36 2.032 . S
Mg31 O38 2.079 . S
C32 O29 1.242 1_545 S
C32 O30 1.248 . S
C33 O34 1.301 . S
C33 O41 1.249 . S
O34 C33 1.301 . S
O35 Mg28 1.985 1_545 S
O35 C39 1.252 . S
O36 Mg31 2.032 . S
O36 C39 1.258 1_556 S
O37 Mg28 2.116 1_556 S
O37 C40 1.252 . S
O38 Mg28 2.255 1_546 S
O38 Mg31 2.079 . S
O38 C40 1.273 1_545 S
C39 O35 1.252 . S
C39 O36 1.258 1_554 S
C40 O37 1.252 . S
C40 O38 1.273 1_565 S
O41 Mg28 2.008 . S
O41 C33 1.249 . S
Mg42 O43 2.059 1_554 S
Mg42 O49 1.986 1_655 S
Mg42 O51 2.114 . S
Mg42 O52 2.251 1_655 S
Mg42 O55 2.010 . S
O43 Mg42 2.059 1_556 S
O43 C46 1.169 1_655 S
O44 Mg45 2.028 . S
O44 C46 1.248 1_554 S
Mg45 O44 2.028 . S
Mg45 O50 2.032 . S
Mg45 O52 2.079 . S
C46 O43 1.169 1_455 S
C46 O44 1.248 1_556 S
C47 O48 1.264 . S
C47 O55 1.249 . S
O48 C47 1.264 . S
O49 Mg42 1.986 1_455 S
O49 C53 1.246 . S
O50 Mg45 2.032 . S
O50 C53 1.259 . S
O51 Mg42 2.114 . S
O51 C54 1.252 . S
O52 Mg42 2.251 1_455 S
O52 Mg45 2.079 . S
O52 C54 1.273 1_455 S
C53 O49 1.246 . S
C53 O50 1.259 . S
C54 O51 1.252 . S
C54 O52 1.273 1_655 S
O55 Mg42 2.010 . S
O55 C47 1.249 . S
Mg56 O57 2.028 . S
Mg56 O63 1.986 . S
Mg56 O65 2.114 1_554 S
Mg56 O66 2.251 1_554 S
Mg56 O69 2.010 . S
O57 Mg56 2.028 . S
O57 C60 1.250 . S
O58 Mg59 2.028 1_554 S
O58 C60 1.248 . S
Mg59 O58 2.028 1_556 S
Mg59 O64 2.033 . S
Mg59 O66 2.079 . S
C60 O57 1.250 . S
C60 O58 1.248 . S
C61 O62 1.264 . S
C61 O69 1.249 . S
O62 C61 1.264 . S
O63 Mg56 1.986 . S
O63 C67 1.256 . S
O64 Mg59 2.033 . S
O64 C67 1.256 1_556 S
O65 Mg56 2.114 1_556 S
O65 C68 1.252 . S
O66 Mg56 2.251 1_556 S
O66 Mg59 2.079 . S
O66 C68 1.273 . S
C67 O63 1.256 . S
C67 O64 1.256 1_554 S
C68 O65 1.252 . S
C68 O66 1.273 . S
O69 Mg56 2.010 . S
O69 C61 1.249 . S
Mg70 O71 2.080 . S
Mg70 O77 1.986 1_545 S
Mg70 O79 2.114 . S
Mg70 O80 2.251 1_545 S
Mg70 O83 2.010 . S
O71 Mg70 2.080 . S
O71 C74 1.232 1_544 S
O72 Mg73 2.028 . S
O72 C74 1.248 1_554 S
Mg73 O72 2.028 . S
Mg73 O78 2.032 . S
Mg73 O80 2.079 . S
C74 O71 1.232 1_566 S
C74 O72 1.248 1_556 S
C75 O76 1.264 . S
C75 O83 1.249 . S
O76 C75 1.264 . S
O77 Mg70 1.986 1_565 S
O77 C81 1.246 . S
O78 Mg73 2.032 . S
O78 C81 1.259 . S
O79 Mg70 2.114 . S
O79 C82 1.252 . S
O80 Mg70 2.251 1_565 S
O80 Mg73 2.079 . S
O80 C82 1.273 1_565 S
C81 O77 1.246 . S
C81 O78 1.259 . S
C82 O79 1.252 . S
C82 O80 1.273 1_545 S
O83 Mg70 2.010 . S
O83 C75 1.249 . S
Mg84 O85 2.028 . S
Mg84 O91 1.986 . S
Mg84 O93 2.114 . S
Mg84 O94 2.251 . S
Mg84 O97 2.010 . S
O85 Mg84 2.028 . S
O85 C88 1.250 . S
O86 Mg87 2.028 . S
O86 C88 1.248 . S
Mg87 O86 2.028 . S
Mg87 O92 2.032 . S
Mg87 O94 2.079 . S
C88 O85 1.250 . S
C88 O86 1.248 . S
C89 O90 1.264 . S
C89 O97 1.249 . S
O90 C89 1.264 . S
O91 Mg84 1.986 . S
O91 C95 1.246 . S
O92 Mg87 2.032 . S
O92 C95 1.259 . S
O93 Mg84 2.114 . S
O93 C96 1.252 . S
O94 Mg84 2.251 . S
O94 Mg87 2.079 . S
O94 C96 1.273 . S
C95 O91 1.246 . S
C95 O92 1.259 . S
C96 O93 1.252 . S
C96 O94 1.273 . S
O97 Mg84 2.010 . S
O97 C89 1.249 . S
Mg98 O99 2.028 . S
Mg98 O105 1.986 . S
Mg98 O107 2.114 . S
Mg98 O108 2.251 . S
Mg98 O111 2.010 . S
O99 Mg98 2.028 . S
O99 C102 1.250 . S
O100 Mg101 2.028 . S
O100 C102 1.248 . S
Mg101 O100 2.028 . S
Mg101 O106 2.032 . S
Mg101 O108 2.079 . S
C102 O99 1.250 . S
C102 O100 1.248 . S
C103 O104 1.264 . S
C103 O111 1.249 . S
O104 C103 1.264 . S
O105 Mg98 1.986 . S
O105 C109 1.246 . S
O106 Mg101 2.032 . S
O106 C109 1.259 . S
O107 Mg98 2.114 . S
O107 C110 1.252 . S
O108 Mg98 2.251 . S
O108 Mg101 2.079 . S
O108 C110 1.273 . S
C109 O105 1.246 . S
C109 O106 1.259 . S
C110 O107 1.252 . S
C110 O108 1.273 . S
O111 Mg98 2.010 . S
O111 C103 1.249 . S
Mg112 O113 2.028 . S
Mg112 O119 1.986 . S
Mg112 O121 2.114 . S
Mg112 O122 2.251 . S
Mg112 O125 2.010 . S
O113 Mg112 2.028 . S
O113 C116 1.250 . S
O114 Mg115 2.028 . S
O114 C116 1.248 . S
Mg115 O114 2.028 . S
Mg115 O120 2.032 . S
Mg115 O122 2.079 . S
C116 O113 1.250 . S
C116 O114 1.248 . S
C117 O118 1.264 . S
C117 O125 1.249 1_655 S
O118 C117 1.264 . S
O119 Mg112 1.986 . S
O119 C123 1.246 . S
O120 Mg115 2.032 . S
O120 C123 1.259 . S
O121 Mg112 2.114 . S
O121 C124 1.252 . S
O122 Mg112 2.251 . S
O122 Mg115 2.079 . S
O122 C124 1.273 . S
C123 O119 1.246 . S
C123 O120 1.259 . S
C124 O121 1.252 . S
C124 O122 1.273 . S
O125 Mg112 2.010 . S
O125 C117 1.249 1_455 S
Mg126 O127 2.028 . S
Mg126 O133 1.986 . S
Mg126 O135 2.114 . S
Mg126 O136 2.251 . S
Mg126 O139 2.010 . S
O127 Mg126 2.028 . S
O127 C130 1.250 . S
O128 Mg129 2.028 . S
O128 C130 1.248 . S
Mg129 O128 2.028 . S
Mg129 O134 2.032 . S
Mg129 O136 2.079 . S
C130 O127 1.250 . S
C130 O128 1.248 . S
C131 O132 1.264 . S
C131 O139 1.249 . S
O132 C131 1.264 . S
O133 Mg126 1.986 . S
O133 C137 1.246 . S
O134 Mg129 2.032 . S
O134 C137 1.259 . S
O135 Mg126 2.114 . S
O135 C138 1.252 . S
O136 Mg126 2.251 . S
O136 Mg129 2.079 . S
O136 C138 1.273 . S
C137 O133 1.246 . S
C137 O134 1.259 . S
C138 O135 1.252 . S
C138 O136 1.273 . S
O139 Mg126 2.010 . S
O139 C131 1.249 . S
Mg140 O141 2.028 . S
Mg140 O147 1.986 . S
Mg140 O149 2.114 . S
Mg140 O150 2.251 . S
Mg140 O153 2.010 . S
O141 Mg140 2.028 . S
O141 C144 1.250 . S
O142 Mg143 2.028 . S
O142 C144 1.248 . S
Mg143 O142 2.028 . S
Mg143 O148 2.032 . S
Mg143 O150 2.079 . S
C144 O141 1.250 . S
C144 O142 1.248 . S
C145 O146 1.264 . S
C145 O153 1.249 1_655 S
O146 C145 1.264 . S
O147 Mg140 1.986 . S
O147 C151 1.246 . S
O148 Mg143 2.032 . S
O148 C151 1.259 . S
O149 Mg140 2.114 . S
O149 C152 1.252 . S
O150 Mg140 2.251 . S
O150 Mg143 2.079 . S
O150 C152 1.273 . S
C151 O147 1.246 . S
C151 O148 1.259 . S
C152 O149 1.252 . S
C152 O150 1.273 . S
O153 Mg140 2.010 . S
O153 C145 1.249 1_455 S
Mg154 O155 2.028 . S
Mg154 O161 1.986 . S
Mg154 O163 2.114 . S
Mg154 O164 2.251 . S
Mg154 O167 2.010 . S
O155 Mg154 2.028 . S
O155 C158 1.250 . S
O156 Mg157 2.028 . S
O156 C158 1.248 . S
Mg157 O156 2.028 . S
Mg157 O162 2.032 . S
Mg157 O164 2.079 . S
C158 O155 1.250 . S
C158 O156 1.248 . S
C159 O160 1.264 . S
C159 O167 1.249 . S
O160 C159 1.264 . S
O161 Mg154 1.986 . S
O161 C165 1.246 . S
O162 Mg157 2.032 . S
O162 C165 1.259 . S
O163 Mg154 2.114 . S
O163 C166 1.252 . S
O164 Mg154 2.251 . S
O164 Mg157 2.079 . S
O164 C166 1.273 . S
C165 O161 1.246 . S
C165 O162 1.259 . S
C166 O163 1.252 . S
C166 O164 1.273 . S
O167 Mg154 2.010 . S
O167 C159 1.249 . S
Mg168 O169 2.028 . S
Mg168 O175 1.986 . S
Mg168 O177 2.114 . S
Mg168 O178 2.251 . S
Mg168 O181 2.010 . S
O169 Mg168 2.028 . S
O169 C172 1.250 . S
O170 Mg171 2.028 . S
O170 C172 1.248 . S
Mg171 O170 2.028 . S
Mg171 O176 2.032 . S
Mg171 O178 2.079 . S
C172 O169 1.250 . S
C172 O170 1.248 . S
C173 O174 1.264 . S
C173 O181 1.249 . S
O174 C173 1.264 . S
O175 Mg168 1.986 . S
O175 C179 1.246 . S
O176 Mg171 2.032 . S
O176 C179 1.259 . S
O177 Mg168 2.114 . S
O177 C180 1.252 . S
O178 Mg168 2.251 . S
O178 Mg171 2.079 . S
O178 C180 1.273 . S
C179 O175 1.246 . S
C179 O176 1.259 . S
C180 O177 1.252 . S
C180 O178 1.273 . S
O181 Mg168 2.010 . S
O181 C173 1.249 . S
Mg182 O183 2.028 . S
Mg182 O189 1.986 . S
Mg182 O191 2.114 . S
Mg182 O192 2.251 . S
Mg182 O195 2.010 . S
O183 Mg182 2.028 . S
O183 C186 1.250 . S
O184 Mg185 2.028 . S
O184 C186 1.248 . S
Mg185 O184 2.028 . S
Mg185 O190 2.032 . S
Mg185 O192 2.079 . S
C186 O183 1.250 . S
C186 O184 1.248 . S
C187 O188 1.264 . S
C187 O195 1.249 1_455 S
O188 C187 1.264 . S
O189 Mg182 1.986 . S
O189 C193 1.246 . S
O190 Mg185 2.032 . S
O190 C193 1.259 . S
O191 Mg182 2.114 . S
O191 C194 1.252 . S
O192 Mg182 2.251 . S
O192 Mg185 2.079 . S
O192 C194 1.273 . S
C193 O189 1.246 . S
C193 O190 1.259 . S
C194 O191 1.252 . S
C194 O192 1.273 . S
O195 Mg182 2.010 . S
O195 C187 1.249 1_655 S
Mg196 O197 2.028 . S
Mg196 O203 1.986 . S
Mg196 O205 2.114 . S
Mg196 O206 2.251 . S
Mg196 O209 2.010 . S
O197 Mg196 2.028 . S
O197 C200 1.250 . S
O198 Mg199 2.028 . S
O198 C200 1.248 . S
Mg199 O198 2.028 . S
Mg199 O204 2.032 . S
Mg199 O206 2.079 . S
C200 O197 1.250 . S
C200 O198 1.248 . S
C201 O202 1.264 . S
C201 O209 1.249 . S
O202 C201 1.264 . S
O203 Mg196 1.986 . S
O203 C207 1.246 . S
O204 Mg199 2.032 . S
O204 C207 1.259 . S
O205 Mg196 2.114 . S
O205 C208 1.252 . S
O206 Mg196 2.251 . S
O206 Mg199 2.079 . S
O206 C208 1.273 . S
C207 O203 1.246 . S
C207 O204 1.259 . S
C208 O205 1.252 . S
C208 O206 1.273 . S
O209 Mg196 2.010 . S
O209 C201 1.249 . S
Mg210 O211 2.028 . S
Mg210 O217 1.986 . S
Mg210 O219 2.114 . S
Mg210 O220 2.251 . S
Mg210 O223 2.010 . S
O211 Mg210 2.028 . S
O211 C214 1.250 . S
O212 Mg213 2.028 . S
O212 C214 1.248 . S
Mg213 O212 2.028 . S
Mg213 O218 2.032 . S
Mg213 O220 2.079 . S
C214 O211 1.250 . S
C214 O212 1.248 . S
C215 O216 1.264 . S
C215 O223 1.249 . S
O216 C215 1.264 . S
O217 Mg210 1.986 . S
O217 C221 1.246 . S
O218 Mg213 2.032 . S
O218 C221 1.259 . S
O219 Mg210 2.114 . S
O219 C222 1.252 . S
O220 Mg210 2.251 . S
O220 Mg213 2.079 . S
O220 C222 1.273 . S
C221 O217 1.246 . S
C221 O218 1.259 . S
C222 O219 1.252 . S
C222 O220 1.273 . S
O223 Mg210 2.010 . S
O223 C215 1.249 . S
Mg224 O225 2.028 . S
Mg224 O231 1.986 . S
Mg224 O233 2.114 . S
Mg224 O234 2.251 . S
Mg224 O237 2.010 . S
O225 Mg224 2.028 . S
O225 C228 1.250 . S
O226 Mg227 2.028 . S
O226 C228 1.248 . S
Mg227 O226 2.028 . S
Mg227 O232 2.032 . S
Mg227 O234 2.079 . S
C228 O225 1.250 . S
C228 O226 1.248 . S
C229 O230 1.264 . S
C229 O237 1.249 . S
O230 C229 1.264 . S
O231 Mg224 1.986 . S
O231 C235 1.246 . S
O232 Mg227 2.032 . S
O232 C235 1.259 . S
O233 Mg224 2.114 . S
O233 C236 1.252 . S
O234 Mg224 2.251 . S
O234 Mg227 2.079 . S
O234 C236 1.273 . S
C235 O231 1.246 . S
C235 O232 1.259 . S
C236 O233 1.252 . S
C236 O234 1.273 . S
O237 Mg224 2.010 . S
O237 C229 1.249 . S
Mg238 O239 2.028 . S
Mg238 O245 1.986 . S
Mg238 O247 2.114 . S
Mg238 O248 2.251 . S
Mg238 O251 2.010 . S
O239 Mg238 2.028 . S
O239 C242 1.250 . S
O240 Mg241 2.028 . S
O240 C242 1.248 . S
Mg241 O240 2.028 . S
Mg241 O246 2.032 . S
Mg241 O248 2.079 . S
C242 O239 1.250 . S
C242 O240 1.248 . S
C243 O244 1.264 . S
C243 O251 1.249 1_455 S
O244 C243 1.264 . S
O245 Mg238 1.986 . S
O245 C249 1.246 . S
O246 Mg241 2.032 . S
O246 C249 1.259 . S
O247 Mg238 2.114 . S
O247 C250 1.252 . S
O248 Mg238 2.251 . S
O248 Mg241 2.079 . S
O248 C250 1.273 . S
C249 O245 1.246 . S
C249 O246 1.259 . S
C250 O247 1.252 . S
C250 O248 1.273 . S
O251 Mg238 2.010 . S
O251 C243 1.249 1_655 S
H252 C279 0.929 . S
N253 C278 1.433 . S
N253 C284 1.435 . S
N253 C290 1.423 . S
H254 C280 0.930 . S
H255 C283 0.931 . S
H256 C282 0.929 . S
H257 C285 0.930 . S
H258 C286 0.932 . S
H259 C289 0.929 . S
H260 C288 0.931 . S
H261 C291 0.929 . S
H262 C295 0.932 . S
H263 C292 0.931 . S
H264 C294 0.929 . S
H265 C297 0.929 . S
H266 C298 0.930 . S
H267 C300 0.929 . S
H268 C301 0.931 . S
H269 C303 0.930 . S
H270 C304 0.932 . S
H271 C306 0.931 . S
H272 C307 0.929 . S
H273 C309 0.929 . S
H274 C310 0.931 . S
H275 C312 0.929 . S
N276 C296 1.433 . S
N276 C302 1.435 . S
N276 C308 1.423 . S
H277 C313 0.932 . S
C278 N253 1.433 . S
C278 C279 1.363 . S
C278 C283 1.370 . S
C279 H252 0.929 . S
C279 C278 1.363 . S
C279 C280 1.385 . S
C280 H254 0.930 . S
C280 C279 1.385 . S
C280 C281 1.357 . S
C281 C280 1.357 . S
C281 C282 1.406 . S
C282 H256 0.929 . S
C282 C281 1.406 . S
C282 C283 1.391 . S
C283 H255 0.931 . S
C283 C278 1.370 . S
C283 C282 1.391 . S
C284 N253 1.435 . S
C284 C285 1.358 . S
C284 C289 1.371 . S
C285 H257 0.930 . S
C285 C284 1.358 . S
C285 C286 1.405 . S
C286 H258 0.932 . S
C286 C285 1.405 . S
C286 C287 1.383 . S
C287 C286 1.383 . S
C287 C288 1.393 . S
C288 H260 0.931 . S
C288 C287 1.393 . S
C288 C289 1.382 . S
C289 H259 0.929 . S
C289 C284 1.371 . S
C289 C288 1.382 . S
C290 N253 1.423 . S
C290 C291 1.362 . S
C290 C295 1.388 . S
C291 H261 0.929 . S
C291 C290 1.362 . S
C291 C292 1.376 . S
C292 H263 0.931 . S
C292 C291 1.376 . S
C292 C293 1.396 . S
C293 C292 1.396 . S
C293 C294 1.348 . S
C293 C311 1.472 . S
C294 H264 0.929 . S
C294 C293 1.348 . S
C294 C295 1.443 . S
C295 H262 0.932 . S
C295 C290 1.388 . S
C295 C294 1.443 . S
C296 N276 1.433 . S
C296 C297 1.363 . S
C296 C301 1.370 . S
C297 H265 0.929 . S
C297 C296 1.363 . S
C297 C298 1.385 . S
C298 H266 0.930 . S
C298 C297 1.385 . S
C298 C299 1.357 . S
C299 C298 1.357 . S
C299 C300 1.406 . S
C300 H267 0.929 . S
C300 C299 1.406 . S
C300 C301 1.391 . S
C301 H268 0.931 . S
C301 C296 1.370 . S
C301 C300 1.391 . S
C302 N276 1.435 . S
C302 C303 1.358 . S
C302 C307 1.371 . S
C303 H269 0.930 . S
C303 C302 1.358 . S
C303 C304 1.405 . S
C304 H270 0.932 . S
C304 C303 1.405 . S
C304 C305 1.383 . S
C305 C304 1.383 . S
C305 C306 1.393 . S
C306 H271 0.931 . S
C306 C305 1.393 . S
C306 C307 1.382 . S
C307 H272 0.929 . S
C307 C302 1.371 . S
C307 C306 1.382 . S
C308 N276 1.423 . S
C308 C309 1.362 . S
C308 C313 1.388 . S
C309 H273 0.929 . S
C309 C308 1.362 . S
C309 C310 1.376 . S
C310 H274 0.931 . S
C310 C309 1.376 . S
C310 C311 1.396 . S
C311 C293 1.472 . S
C311 C310 1.396 . S
C311 C312 1.348 . S
C312 H275 0.929 . S
C312 C311 1.348 . S
C312 C313 1.443 . S
C313 H277 0.932 . S
C313 C308 1.388 . S
C313 C312 1.443 . S
H314 C341 0.929 . S
N315 C340 1.433 . S
N315 C346 1.435 . S
N315 C352 1.423 . S
H316 C342 0.930 . S
H317 C345 0.931 . S
H318 C344 0.929 . S
H319 C347 0.930 . S
H320 C348 0.932 . S
H321 C351 0.929 . S
H322 C350 0.931 . S
H323 C353 0.929 . S
H324 C357 0.932 . S
H325 C354 0.931 . S
H326 C356 0.929 . S
H327 C359 0.929 . S
H328 C360 0.930 . S
H329 C362 0.929 . S
H330 C363 0.931 . S
H331 C365 0.930 . S
H332 C366 0.932 . S
H333 C368 0.931 . S
H334 C369 0.929 . S
H335 C371 0.929 . S
H336 C372 0.931 . S
H337 C374 0.929 . S
N338 C358 1.433 . S
N338 C364 1.435 . S
N338 C370 1.423 . S
H339 C375 0.932 . S
C340 N315 1.433 . S
C340 C341 1.363 . S
C340 C345 1.370 . S
C341 H314 0.929 . S
C341 C340 1.363 . S
C341 C342 1.385 . S
C342 H316 0.930 . S
C342 C341 1.385 . S
C342 C343 1.357 . S
C343 C342 1.357 . S
C343 C344 1.406 . S
C344 H318 0.929 . S
C344 C343 1.406 . S
C344 C345 1.391 . S
C345 H317 0.931 . S
C345 C340 1.370 . S
C345 C344 1.391 . S
C346 N315 1.435 . S
C346 C347 1.358 . S
C346 C351 1.371 . S
C347 H319 0.930 . S
C347 C346 1.358 . S
C347 C348 1.405 . S
C348 H320 0.932 . S
C348 C347 1.405 . S
C348 C349 1.383 . S
C349 C348 1.383 . S
C349 C350 1.393 . S
C350 H322 0.931 . S
C350 C349 1.393 . S
C350 C351 1.382 . S
C351 H321 0.929 . S
C351 C346 1.371 . S
C351 C350 1.382 . S
C352 N315 1.423 . S
C352 C353 1.362 . S
C352 C357 1.388 . S
C353 H323 0.929 . S
C353 C352 1.362 . S
C353 C354 1.376 . S
C354 H325 0.931 . S
C354 C353 1.376 . S
C354 C355 1.396 . S
C355 C354 1.396 . S
C355 C356 1.348 . S
C355 C373 1.472 . S
C356 H326 0.929 . S
C356 C355 1.348 . S
C356 C357 1.443 . S
C357 H324 0.932 . S
C357 C352 1.388 . S
C357 C356 1.443 . S
C358 N338 1.433 . S
C358 C359 1.363 . S
C358 C363 1.370 . S
C359 H327 0.929 . S
C359 C358 1.363 . S
C359 C360 1.385 . S
C360 H328 0.930 . S
C360 C359 1.385 . S
C360 C361 1.357 . S
C361 C360 1.357 . S
C361 C362 1.406 . S
C362 H329 0.929 . S
C362 C361 1.406 . S
C362 C363 1.391 . S
C363 H330 0.931 . S
C363 C358 1.370 . S
C363 C362 1.391 . S
C364 N338 1.435 . S
C364 C365 1.358 . S
C364 C369 1.371 . S
C365 H331 0.930 . S
C365 C364 1.358 . S
C365 C366 1.405 . S
C366 H332 0.932 . S
C366 C365 1.405 . S
C366 C367 1.383 . S
C367 C366 1.383 . S
C367 C368 1.393 . S
C368 H333 0.931 . S
C368 C367 1.393 . S
C368 C369 1.382 . S
C369 H334 0.929 . S
C369 C364 1.371 . S
C369 C368 1.382 . S
C370 N338 1.423 . S
C370 C371 1.362 . S
C370 C375 1.388 . S
C371 H335 0.929 . S
C371 C370 1.362 . S
C371 C372 1.376 . S
C372 H336 0.931 . S
C372 C371 1.376 . S
C372 C373 1.396 . S
C373 C355 1.472 . S
C373 C372 1.396 . S
C373 C374 1.348 . S
C374 H337 0.929 . S
C374 C373 1.348 . S
C374 C375 1.443 . S
C375 H339 0.932 . S
C375 C370 1.388 . S
C375 C374 1.443 . S
H376 C403 0.929 . S
N377 C402 1.433 . S
N377 C408 1.435 . S
N377 C414 1.423 . S
H378 C404 0.930 . S
H379 C407 0.931 . S
H380 C406 0.929 . S
H381 C409 0.930 . S
H382 C410 0.932 . S
H383 C413 0.929 . S
H384 C412 0.931 . S
H385 C415 0.929 . S
H386 C419 0.932 . S
H387 C416 0.931 . S
H388 C418 0.929 . S
H389 C421 0.929 . S
H390 C422 0.930 . S
H391 C424 0.929 . S
H392 C425 0.931 . S
H393 C427 0.930 . S
H394 C428 0.932 . S
H395 C430 0.931 . S
H396 C431 0.929 . S
H397 C433 0.929 . S
H398 C434 0.931 . S
H399 C436 0.929 . S
N400 C420 1.433 . S
N400 C426 1.435 . S
N400 C432 1.423 . S
H401 C437 0.932 . S
C402 N377 1.433 . S
C402 C403 1.363 . S
C402 C407 1.370 . S
C403 H376 0.929 . S
C403 C402 1.363 . S
C403 C404 1.385 . S
C404 H378 0.930 . S
C404 C403 1.385 . S
C404 C405 1.357 . S
C405 C404 1.357 . S
C405 C406 1.406 . S
C406 H380 0.929 . S
C406 C405 1.406 . S
C406 C407 1.391 . S
C407 H379 0.931 . S
C407 C402 1.370 . S
C407 C406 1.391 . S
C408 N377 1.435 . S
C408 C409 1.358 . S
C408 C413 1.371 . S
C409 H381 0.930 . S
C409 C408 1.358 . S
C409 C410 1.405 . S
C410 H382 0.932 . S
C410 C409 1.405 . S
C410 C411 1.383 . S
C411 C410 1.383 . S
C411 C412 1.393 . S
C412 H384 0.931 . S
C412 C411 1.393 . S
C412 C413 1.382 . S
C413 H383 0.929 . S
C413 C408 1.371 . S
C413 C412 1.382 . S
C414 N377 1.423 . S
C414 C415 1.362 . S
C414 C419 1.388 . S
C415 H385 0.929 . S
C415 C414 1.362 . S
C415 C416 1.376 . S
C416 H387 0.931 . S
C416 C415 1.376 . S
C416 C417 1.396 . S
C417 C416 1.396 . S
C417 C418 1.348 . S
C417 C435 1.472 . S
C418 H388 0.929 . S
C418 C417 1.348 . S
C418 C419 1.443 . S
C419 H386 0.932 . S
C419 C414 1.388 . S
C419 C418 1.443 . S
C420 N400 1.433 . S
C420 C421 1.363 . S
C420 C425 1.370 . S
C421 H389 0.929 . S
C421 C420 1.363 . S
C421 C422 1.385 . S
C422 H390 0.930 . S
C422 C421 1.385 . S
C422 C423 1.357 . S
C423 C422 1.357 . S
C423 C424 1.406 . S
C424 H391 0.929 . S
C424 C423 1.406 . S
C424 C425 1.391 . S
C425 H392 0.931 . S
C425 C420 1.370 . S
C425 C424 1.391 . S
C426 N400 1.435 . S
C426 C427 1.358 . S
C426 C431 1.371 . S
C427 H393 0.930 . S
C427 C426 1.358 . S
C427 C428 1.405 . S
C428 H394 0.932 . S
C428 C427 1.405 . S
C428 C429 1.383 . S
C429 C428 1.383 . S
C429 C430 1.393 . S
C430 H395 0.931 . S
C430 C429 1.393 . S
C430 C431 1.382 . S
C431 H396 0.929 . S
C431 C426 1.371 . S
C431 C430 1.382 . S
C432 N400 1.423 . S
C432 C433 1.362 . S
C432 C437 1.388 . S
C433 H397 0.929 . S
C433 C432 1.362 . S
C433 C434 1.376 . S
C434 H398 0.931 . S
C434 C433 1.376 . S
C434 C435 1.396 . S
C435 C417 1.472 . S
C435 C434 1.396 . S
C435 C436 1.348 . S
C436 H399 0.929 . S
C436 C435 1.348 . S
C436 C437 1.443 . S
C437 H401 0.932 . S
C437 C432 1.388 . S
C437 C436 1.443 . S
H438 C465 0.929 . S
N439 C464 1.433 . S
N439 C470 1.435 . S
N439 C476 1.423 . S
H440 C466 0.930 . S
H441 C469 0.931 . S
H442 C468 0.929 . S
H443 C471 0.930 . S
H444 C472 0.932 . S
H445 C475 0.929 . S
H446 C474 0.931 . S
H447 C477 0.929 . S
H448 C481 0.932 . S
H449 C478 0.931 . S
H450 C480 0.929 . S
H451 C483 0.929 . S
H452 C484 0.930 . S
H453 C486 0.929 . S
H454 C487 0.931 . S
H455 C489 0.930 . S
H456 C490 0.932 . S
H457 C492 0.931 . S
H458 C493 0.929 . S
H459 C495 0.929 . S
H460 C496 0.931 . S
H461 C498 0.929 . S
N462 C482 1.433 . S
N462 C488 1.435 . S
N462 C494 1.423 . S
H463 C499 0.932 . S
C464 N439 1.433 . S
C464 C465 1.363 . S
C464 C469 1.370 . S
C465 H438 0.929 . S
C465 C464 1.363 . S
C465 C466 1.385 . S
C466 H440 0.930 . S
C466 C465 1.385 . S
C466 C467 1.357 . S
C467 C466 1.357 . S
C467 C468 1.406 . S
C468 H442 0.929 . S
C468 C467 1.406 . S
C468 C469 1.391 . S
C469 H441 0.931 . S
C469 C464 1.370 . S
C469 C468 1.391 . S
C470 N439 1.435 . S
C470 C471 1.358 . S
C470 C475 1.371 . S
C471 H443 0.930 . S
C471 C470 1.358 . S
C471 C472 1.405 . S
C472 H444 0.932 . S
C472 C471 1.405 . S
C472 C473 1.383 . S
C473 C472 1.383 . S
C473 C474 1.393 . S
C474 H446 0.931 . S
C474 C473 1.393 . S
C474 C475 1.382 . S
C475 H445 0.929 . S
C475 C470 1.371 . S
C475 C474 1.382 . S
C476 N439 1.423 . S
C476 C477 1.362 . S
C476 C481 1.388 . S
C477 H447 0.929 . S
C477 C476 1.362 . S
C477 C478 1.376 . S
C478 H449 0.931 . S
C478 C477 1.376 . S
C478 C479 1.396 . S
C479 C478 1.396 . S
C479 C480 1.348 . S
C479 C497 1.472 . S
C480 H450 0.929 . S
C480 C479 1.348 . S
C480 C481 1.443 . S
C481 H448 0.932 . S
C481 C476 1.388 . S
C481 C480 1.443 . S
C482 N462 1.433 . S
C482 C483 1.363 . S
C482 C487 1.370 . S
C483 H451 0.929 . S
C483 C482 1.363 . S
C483 C484 1.385 . S
C484 H452 0.930 . S
C484 C483 1.385 . S
C484 C485 1.357 . S
C485 C484 1.357 . S
C485 C486 1.406 . S
C486 H453 0.929 . S
C486 C485 1.406 . S
C486 C487 1.391 . S
C487 H454 0.931 . S
C487 C482 1.370 . S
C487 C486 1.391 . S
C488 N462 1.435 . S
C488 C489 1.358 . S
C488 C493 1.371 . S
C489 H455 0.930 . S
C489 C488 1.358 . S
C489 C490 1.405 . S
C490 H456 0.932 . S
C490 C489 1.405 . S
C490 C491 1.383 . S
C491 C490 1.383 . S
C491 C492 1.393 . S
C492 H457 0.931 . S
C492 C491 1.393 . S
C492 C493 1.382 . S
C493 H458 0.929 . S
C493 C488 1.371 . S
C493 C492 1.382 . S
C494 N462 1.423 . S
C494 C495 1.362 . S
C494 C499 1.388 . S
C495 H459 0.929 . S
C495 C494 1.362 . S
C495 C496 1.376 . S
C496 H460 0.931 . S
C496 C495 1.376 . S
C496 C497 1.396 . S
C497 C479 1.472 . S
C497 C496 1.396 . S
C497 C498 1.348 . S
C498 H461 0.929 . S
C498 C497 1.348 . S
C498 C499 1.443 . S
C499 H463 0.932 . S
C499 C494 1.388 . S
C499 C498 1.443 . S
H500 C527 0.929 . S
N501 C526 1.433 . S
N501 C532 1.435 . S
N501 C538 1.423 . S
H502 C528 0.930 . S
H503 C531 0.931 . S
H504 C530 0.929 . S
H505 C533 0.930 . S
H506 C534 0.932 . S
H507 C537 0.929 . S
H508 C536 0.931 . S
H509 C539 0.929 . S
H510 C543 0.932 . S
H511 C540 0.931 . S
H512 C542 0.929 . S
H513 C545 0.929 . S
H514 C546 0.930 . S
H515 C548 0.929 . S
H516 C549 0.931 . S
H517 C551 0.930 . S
H518 C552 0.932 . S
H519 C554 0.931 . S
H520 C555 0.929 . S
H521 C557 0.929 . S
H522 C558 0.931 . S
H523 C560 0.929 . S
N524 C544 1.433 . S
N524 C550 1.435 . S
N524 C556 1.423 . S
H525 C561 0.932 . S
C526 N501 1.433 . S
C526 C527 1.363 . S
C526 C531 1.370 . S
C527 H500 0.929 . S
C527 C526 1.363 . S
C527 C528 1.385 . S
C528 H502 0.930 . S
C528 C527 1.385 . S
C528 C529 1.357 . S
C529 C528 1.357 . S
C529 C530 1.406 . S
C530 H504 0.929 . S
C530 C529 1.406 . S
C530 C531 1.391 . S
C531 H503 0.931 . S
C531 C526 1.370 . S
C531 C530 1.391 . S
C532 N501 1.435 . S
C532 C533 1.358 . S
C532 C537 1.371 . S
C533 H505 0.930 . S
C533 C532 1.358 . S
C533 C534 1.405 . S
C534 H506 0.932 . S
C534 C533 1.405 . S
C534 C535 1.383 . S
C535 C534 1.383 . S
C535 C536 1.393 . S
C536 H508 0.931 . S
C536 C535 1.393 . S
C536 C537 1.382 . S
C537 H507 0.929 . S
C537 C532 1.371 . S
C537 C536 1.382 . S
C538 N501 1.423 . S
C538 C539 1.362 . S
C538 C543 1.388 . S
C539 H509 0.929 . S
C539 C538 1.362 . S
C539 C540 1.376 . S
C540 H511 0.931 . S
C540 C539 1.376 . S
C540 C541 1.396 . S
C541 C540 1.396 . S
C541 C542 1.348 . S
C541 C559 1.472 . S
C542 H512 0.929 . S
C542 C541 1.348 . S
C542 C543 1.443 . S
C543 H510 0.932 . S
C543 C538 1.388 . S
C543 C542 1.443 . S
C544 N524 1.433 . S
C544 C545 1.363 . S
C544 C549 1.370 . S
C545 H513 0.929 . S
C545 C544 1.363 . S
C545 C546 1.385 . S
C546 H514 0.930 . S
C546 C545 1.385 . S
C546 C547 1.357 . S
C547 C546 1.357 . S
C547 C548 1.406 . S
C548 H515 0.929 . S
C548 C547 1.406 . S
C548 C549 1.391 . S
C549 H516 0.931 . S
C549 C544 1.370 . S
C549 C548 1.391 . S
C550 N524 1.435 . S
C550 C551 1.358 . S
C550 C555 1.371 . S
C551 H517 0.930 . S
C551 C550 1.358 . S
C551 C552 1.405 . S
C552 H518 0.932 . S
C552 C551 1.405 . S
C552 C553 1.383 . S
C553 C552 1.383 . S
C553 C554 1.393 . S
C554 H519 0.931 . S
C554 C553 1.393 . S
C554 C555 1.382 . S
C555 H520 0.929 . S
C555 C550 1.371 . S
C555 C554 1.382 . S
C556 N524 1.423 . S
C556 C557 1.362 . S
C556 C561 1.388 . S
C557 H521 0.929 . S
C557 C556 1.362 . S
C557 C558 1.376 . S
C558 H522 0.931 . S
C558 C557 1.376 . S
C558 C559 1.396 . S
C559 C541 1.472 . S
C559 C558 1.396 . S
C559 C560 1.348 . S
C560 H523 0.929 . S
C560 C559 1.348 . S
C560 C561 1.443 . S
C561 H525 0.932 . S
C561 C556 1.388 . S
C561 C560 1.443 . S
H562 C589 0.929 . S
N563 C588 1.433 . S
N563 C594 1.435 . S
N563 C600 1.423 . S
H564 C590 0.930 . S
H565 C593 0.931 . S
H566 C592 0.929 . S
H567 C595 0.930 . S
H568 C596 0.932 . S
H569 C599 0.929 . S
H570 C598 0.931 . S
H571 C601 0.929 . S
H572 C605 0.932 . S
H573 C602 0.931 . S
H574 C604 0.929 . S
H575 C607 0.929 . S
H576 C608 0.930 . S
H577 C610 0.929 . S
H578 C611 0.931 . S
H579 C613 0.930 . S
H580 C614 0.932 . S
H581 C616 0.931 . S
H582 C617 0.929 . S
H583 C619 0.929 . S
H584 C620 0.931 . S
H585 C622 0.929 . S
N586 C606 1.433 . S
N586 C612 1.435 . S
N586 C618 1.423 . S
H587 C623 0.932 . S
C588 N563 1.433 . S
C588 C589 1.363 . S
C588 C593 1.370 . S
C589 H562 0.929 . S
C589 C588 1.363 . S
C589 C590 1.385 . S
C590 H564 0.930 . S
C590 C589 1.385 . S
C590 C591 1.357 . S
C591 C590 1.357 . S
C591 C592 1.406 . S
C592 H566 0.929 . S
C592 C591 1.406 . S
C592 C593 1.391 . S
C593 H565 0.931 . S
C593 C588 1.370 . S
C593 C592 1.391 . S
C594 N563 1.435 . S
C594 C595 1.358 . S
C594 C599 1.371 . S
C595 H567 0.930 . S
C595 C594 1.358 . S
C595 C596 1.405 . S
C596 H568 0.932 . S
C596 C595 1.405 . S
C596 C597 1.383 . S
C597 C596 1.383 . S
C597 C598 1.393 . S
C598 H570 0.931 . S
C598 C597 1.393 . S
C598 C599 1.382 . S
C599 H569 0.929 . S
C599 C594 1.371 . S
C599 C598 1.382 . S
C600 N563 1.423 . S
C600 C601 1.362 . S
C600 C605 1.388 . S
C601 H571 0.929 . S
C601 C600 1.362 . S
C601 C602 1.376 . S
C602 H573 0.931 . S
C602 C601 1.376 . S
C602 C603 1.396 . S
C603 C602 1.396 . S
C603 C604 1.348 . S
C603 C621 1.472 . S
C604 H574 0.929 . S
C604 C603 1.348 . S
C604 C605 1.443 . S
C605 H572 0.932 . S
C605 C600 1.388 . S
C605 C604 1.443 . S
C606 N586 1.433 . S
C606 C607 1.363 . S
C606 C611 1.370 . S
C607 H575 0.929 . S
C607 C606 1.363 . S
C607 C608 1.385 . S
C608 H576 0.930 . S
C608 C607 1.385 . S
C608 C609 1.357 . S
C609 C608 1.357 . S
C609 C610 1.406 . S
C610 H577 0.929 . S
C610 C609 1.406 . S
C610 C611 1.391 . S
C611 H578 0.931 . S
C611 C606 1.370 . S
C611 C610 1.391 . S
C612 N586 1.435 . S
C612 C613 1.358 . S
C612 C617 1.371 . S
C613 H579 0.930 . S
C613 C612 1.358 . S
C613 C614 1.405 . S
C614 H580 0.932 . S
C614 C613 1.405 . S
C614 C615 1.383 . S
C615 C614 1.383 . S
C615 C616 1.393 . S
C616 H581 0.931 . S
C616 C615 1.393 . S
C616 C617 1.382 . S
C617 H582 0.929 . S
C617 C612 1.371 . S
C617 C616 1.382 . S
C618 N586 1.423 . S
C618 C619 1.362 . S
C618 C623 1.388 . S
C619 H583 0.929 . S
C619 C618 1.362 . S
C619 C620 1.376 . S
C620 H584 0.931 . S
C620 C619 1.376 . S
C620 C621 1.396 . S
C621 C603 1.472 . S
C621 C620 1.396 . S
C621 C622 1.348 . S
C622 H585 0.929 . S
C622 C621 1.348 . S
C622 C623 1.443 . S
C623 H587 0.932 . S
C623 C618 1.388 . S
C623 C622 1.443 . S
H624 C651 0.929 . S
N625 C650 1.433 . S
N625 C656 1.435 . S
N625 C662 1.423 . S
H626 C652 0.930 . S
H627 C655 0.931 . S
H628 C654 0.929 . S
H629 C657 0.930 . S
H630 C658 0.932 . S
H631 C661 0.929 . S
H632 C660 0.931 . S
H633 C663 0.929 . S
H634 C667 0.932 . S
H635 C664 0.931 . S
H636 C666 0.929 . S
H637 C669 0.929 . S
H638 C670 0.930 . S
H639 C672 0.929 . S
H640 C673 0.931 . S
H641 C675 0.930 . S
H642 C676 0.932 . S
H643 C678 0.931 . S
H644 C679 0.929 . S
H645 C681 0.929 . S
H646 C682 0.931 . S
H647 C684 0.929 . S
N648 C668 1.433 . S
N648 C674 1.435 . S
N648 C680 1.423 . S
H649 C685 0.932 . S
C650 N625 1.433 . S
C650 C651 1.363 . S
C650 C655 1.370 . S
C651 H624 0.929 . S
C651 C650 1.363 . S
C651 C652 1.385 . S
C652 H626 0.930 . S
C652 C651 1.385 . S
C652 C653 1.357 . S
C653 C652 1.357 . S
C653 C654 1.406 . S
C654 H628 0.929 . S
C654 C653 1.406 . S
C654 C655 1.391 . S
C655 H627 0.931 . S
C655 C650 1.370 . S
C655 C654 1.391 . S
C656 N625 1.435 . S
C656 C657 1.358 . S
C656 C661 1.371 . S
C657 H629 0.930 . S
C657 C656 1.358 . S
C657 C658 1.405 . S
C658 H630 0.932 . S
C658 C657 1.405 . S
C658 C659 1.383 . S
C659 C658 1.383 . S
C659 C660 1.393 . S
C660 H632 0.931 . S
C660 C659 1.393 . S
C660 C661 1.382 . S
C661 H631 0.929 . S
C661 C656 1.371 . S
C661 C660 1.382 . S
C662 N625 1.423 . S
C662 C663 1.362 . S
C662 C667 1.388 . S
C663 H633 0.929 . S
C663 C662 1.362 . S
C663 C664 1.376 . S
C664 H635 0.931 . S
C664 C663 1.376 . S
C664 C665 1.396 . S
C665 C664 1.396 . S
C665 C666 1.348 . S
C665 C683 1.472 . S
C666 H636 0.929 . S
C666 C665 1.348 . S
C666 C667 1.443 . S
C667 H634 0.932 . S
C667 C662 1.388 . S
C667 C666 1.443 . S
C668 N648 1.433 . S
C668 C669 1.363 . S
C668 C673 1.370 . S
C669 H637 0.929 . S
C669 C668 1.363 . S
C669 C670 1.385 . S
C670 H638 0.930 . S
C670 C669 1.385 . S
C670 C671 1.357 . S
C671 C670 1.357 . S
C671 C672 1.406 . S
C672 H639 0.929 . S
C672 C671 1.406 . S
C672 C673 1.391 . S
C673 H640 0.931 . S
C673 C668 1.370 . S
C673 C672 1.391 . S
C674 N648 1.435 . S
C674 C675 1.358 . S
C674 C679 1.371 . S
C675 H641 0.930 . S
C675 C674 1.358 . S
C675 C676 1.405 . S
C676 H642 0.932 . S
C676 C675 1.405 . S
C676 C677 1.383 . S
C677 C676 1.383 . S
C677 C678 1.393 . S
C678 H643 0.931 . S
C678 C677 1.393 . S
C678 C679 1.382 . S
C679 H644 0.929 . S
C679 C674 1.371 . S
C679 C678 1.382 . S
C680 N648 1.423 . S
C680 C681 1.362 . S
C680 C685 1.388 . S
C681 H645 0.929 . S
C681 C680 1.362 . S
C681 C682 1.376 . S
C682 H646 0.931 . S
C682 C681 1.376 . S
C682 C683 1.396 . S
C683 C665 1.472 . S
C683 C682 1.396 . S
C683 C684 1.348 . S
C684 H647 0.929 . S
C684 C683 1.348 . S
C684 C685 1.443 . S
C685 H649 0.932 . S
C685 C680 1.388 . S
C685 C684 1.443 . S
H686 C713 0.929 . S
N687 C712 1.433 . S
N687 C718 1.435 . S
N687 C724 1.423 . S
H688 C714 0.930 . S
H689 C717 0.931 . S
H690 C716 0.929 . S
H691 C719 0.930 . S
H692 C720 0.932 . S
H693 C723 0.929 . S
H694 C722 0.931 . S
H695 C725 0.929 . S
H696 C729 0.932 . S
H697 C726 0.931 . S
H698 C728 0.929 . S
H699 C731 0.929 . S
H700 C732 0.930 . S
H701 C734 0.929 . S
H702 C735 0.931 . S
H703 C737 0.930 . S
H704 C738 0.932 . S
H705 C740 0.931 . S
H706 C741 0.929 . S
H707 C743 0.929 . S
H708 C744 0.931 . S
H709 C746 0.929 . S
N710 C730 1.433 . S
N710 C736 1.435 . S
N710 C742 1.423 . S
H711 C747 0.932 . S
C712 N687 1.433 . S
C712 C713 1.363 . S
C712 C717 1.370 . S
C713 H686 0.929 . S
C713 C712 1.363 . S
C713 C714 1.385 . S
C714 H688 0.930 . S
C714 C713 1.385 . S
C714 C715 1.357 . S
C715 C714 1.357 . S
C715 C716 1.406 . S
C716 H690 0.929 . S
C716 C715 1.406 . S
C716 C717 1.391 . S
C717 H689 0.931 . S
C717 C712 1.370 . S
C717 C716 1.391 . S
C718 N687 1.435 . S
C718 C719 1.358 . S
C718 C723 1.371 . S
C719 H691 0.930 . S
C719 C718 1.358 . S
C719 C720 1.405 . S
C720 H692 0.932 . S
C720 C719 1.405 . S
C720 C721 1.383 . S
C721 C720 1.383 . S
C721 C722 1.393 . S
C722 H694 0.931 . S
C722 C721 1.393 . S
C722 C723 1.382 . S
C723 H693 0.929 . S
C723 C718 1.371 . S
C723 C722 1.382 . S
C724 N687 1.423 . S
C724 C725 1.362 . S
C724 C729 1.388 . S
C725 H695 0.929 . S
C725 C724 1.362 . S
C725 C726 1.376 . S
C726 H697 0.931 . S
C726 C725 1.376 . S
C726 C727 1.396 . S
C727 C726 1.396 . S
C727 C728 1.348 . S
C727 C745 1.472 . S
C728 H698 0.929 . S
C728 C727 1.348 . S
C728 C729 1.443 . S
C729 H696 0.932 . S
C729 C724 1.388 . S
C729 C728 1.443 . S
C730 N710 1.433 . S
C730 C731 1.363 . S
C730 C735 1.370 . S
C731 H699 0.929 . S
C731 C730 1.363 . S
C731 C732 1.385 . S
C732 H700 0.930 . S
C732 C731 1.385 . S
C732 C733 1.357 . S
C733 C732 1.357 . S
C733 C734 1.406 . S
C734 H701 0.929 . S
C734 C733 1.406 . S
C734 C735 1.391 . S
C735 H702 0.931 . S
C735 C730 1.370 . S
C735 C734 1.391 . S
C736 N710 1.435 . S
C736 C737 1.358 . S
C736 C741 1.371 . S
C737 H703 0.930 . S
C737 C736 1.358 . S
C737 C738 1.405 . S
C738 H704 0.932 . S
C738 C737 1.405 . S
C738 C739 1.383 . S
C739 C738 1.383 . S
C739 C740 1.393 . S
C740 H705 0.931 . S
C740 C739 1.393 . S
C740 C741 1.382 . S
C741 H706 0.929 . S
C741 C736 1.371 . S
C741 C740 1.382 . S
C742 N710 1.423 . S
C742 C743 1.362 . S
C742 C747 1.388 . S
C743 H707 0.929 . S
C743 C742 1.362 . S
C743 C744 1.376 . S
C744 H708 0.931 . S
C744 C743 1.376 . S
C744 C745 1.396 . S
C745 C727 1.472 . S
C745 C744 1.396 . S
C745 C746 1.348 . S
C746 H709 0.929 . S
C746 C745 1.348 . S
C746 C747 1.443 . S
C747 H711 0.932 . S
C747 C742 1.388 . S
C747 C746 1.443 . S
H748 C775 0.929 . S
N749 C774 1.433 . S
N749 C780 1.435 . S
N749 C786 1.423 . S
H750 C776 0.930 . S
H751 C779 0.931 . S
H752 C778 0.929 . S
H753 C781 0.930 . S
H754 C782 0.932 . S
H755 C785 0.929 . S
H756 C784 0.931 . S
H757 C787 0.929 . S
H758 C791 0.932 . S
H759 C788 0.931 . S
H760 C790 0.929 . S
H761 C793 0.929 . S
H762 C794 0.930 . S
H763 C796 0.929 . S
H764 C797 0.931 . S
H765 C799 0.930 . S
H766 C800 0.932 . S
H767 C802 0.931 . S
H768 C803 0.929 . S
H769 C805 0.929 . S
H770 C806 0.931 . S
H771 C808 0.929 . S
N772 C792 1.433 . S
N772 C798 1.435 . S
N772 C804 1.423 . S
H773 C809 0.932 . S
C774 N749 1.433 . S
C774 C775 1.363 . S
C774 C779 1.370 . S
C775 H748 0.929 . S
C775 C774 1.363 . S
C775 C776 1.385 . S
C776 H750 0.930 . S
C776 C775 1.385 . S
C776 C777 1.357 . S
C777 C776 1.357 . S
C777 C778 1.406 . S
C778 H752 0.929 . S
C778 C777 1.406 . S
C778 C779 1.391 . S
C779 H751 0.931 . S
C779 C774 1.370 . S
C779 C778 1.391 . S
C780 N749 1.435 . S
C780 C781 1.358 . S
C780 C785 1.371 . S
C781 H753 0.930 . S
C781 C780 1.358 . S
C781 C782 1.405 . S
C782 H754 0.932 . S
C782 C781 1.405 . S
C782 C783 1.383 . S
C783 C782 1.383 . S
C783 C784 1.393 . S
C784 H756 0.931 . S
C784 C783 1.393 . S
C784 C785 1.382 . S
C785 H755 0.929 . S
C785 C780 1.371 . S
C785 C784 1.382 . S
C786 N749 1.423 . S
C786 C787 1.362 . S
C786 C791 1.388 . S
C787 H757 0.929 . S
C787 C786 1.362 . S
C787 C788 1.376 . S
C788 H759 0.931 . S
C788 C787 1.376 . S
C788 C789 1.396 . S
C789 C788 1.396 . S
C789 C790 1.348 . S
C789 C807 1.472 . S
C790 H760 0.929 . S
C790 C789 1.348 . S
C790 C791 1.443 . S
C791 H758 0.932 . S
C791 C786 1.388 . S
C791 C790 1.443 . S
C792 N772 1.433 . S
C792 C793 1.363 . S
C792 C797 1.370 . S
C793 H761 0.929 . S
C793 C792 1.363 . S
C793 C794 1.385 . S
C794 H762 0.930 . S
C794 C793 1.385 . S
C794 C795 1.357 . S
C795 C794 1.357 . S
C795 C796 1.406 . S
C796 H763 0.929 . S
C796 C795 1.406 . S
C796 C797 1.391 . S
C797 H764 0.931 . S
C797 C792 1.370 . S
C797 C796 1.391 . S
C798 N772 1.435 . S
C798 C799 1.358 . S
C798 C803 1.371 . S
C799 H765 0.930 . S
C799 C798 1.358 . S
C799 C800 1.405 . S
C800 H766 0.932 . S
C800 C799 1.405 . S
C800 C801 1.383 . S
C801 C800 1.383 . S
C801 C802 1.393 . S
C802 H767 0.931 . S
C802 C801 1.393 . S
C802 C803 1.382 . S
C803 H768 0.929 . S
C803 C798 1.371 . S
C803 C802 1.382 . S
C804 N772 1.423 . S
C804 C805 1.362 . S
C804 C809 1.388 . S
C805 H769 0.929 . S
C805 C804 1.362 . S
C805 C806 1.376 . S
C806 H770 0.931 . S
C806 C805 1.376 . S
C806 C807 1.396 . S
C807 C789 1.472 . S
C807 C806 1.396 . S
C807 C808 1.348 . S
C808 H771 0.929 . S
C808 C807 1.348 . S
C808 C809 1.443 . S
C809 H773 0.932 . S
C809 C804 1.388 . S
C809 C808 1.443 . S
H810 C837 0.929 . S
N811 C836 1.433 . S
N811 C842 1.435 . S
N811 C848 1.423 . S
H812 C838 0.930 . S
H813 C841 0.931 . S
H814 C840 0.929 . S
H815 C843 0.930 . S
H816 C844 0.932 . S
H817 C847 0.929 . S
H818 C846 0.931 . S
H819 C849 0.929 . S
H820 C853 0.932 1_655 S
H821 C850 0.931 . S
H822 C852 0.939 . S
H823 C855 0.929 . S
H824 C856 0.930 . S
H825 C858 0.929 . S
H826 C859 0.931 . S
H827 C861 0.930 . S
H828 C862 0.932 . S
H829 C864 0.931 . S
H830 C865 0.929 . S
H831 C867 0.929 . S
H832 C868 0.931 . S
H833 C870 0.980 . S
N834 C854 1.433 . S
N834 C860 1.435 . S
N834 C866 1.423 . S
H835 C871 0.932 1_655 S
C836 N811 1.433 . S
C836 C837 1.363 . S
C836 C841 1.370 1_455 S
C837 H810 0.929 . S
C837 C836 1.363 . S
C837 C838 1.385 . S
C838 H812 0.930 . S
C838 C837 1.385 . S
C838 C839 1.357 1_455 S
C839 C838 1.357 1_655 S
C839 C840 1.406 . S
C840 H814 0.929 . S
C840 C839 1.406 . S
C840 C841 1.391 . S
C841 H813 0.931 . S
C841 C836 1.370 1_655 S
C841 C840 1.391 . S
C842 N811 1.435 . S
C842 C843 1.358 1_455 S
C842 C847 1.371 . S
C843 H815 0.930 . S
C843 C842 1.358 1_655 S
C843 C844 1.405 . S
C844 H816 0.932 . S
C844 C843 1.405 . S
C844 C845 1.383 1_655 S
C845 C844 1.383 1_455 S
C845 C846 1.393 . S
C846 H818 0.931 . S
C846 C845 1.393 . S
C846 C847 1.382 . S
C847 H817 0.929 . S
C847 C842 1.371 . S
C847 C846 1.382 . S
C848 N811 1.423 . S
C848 C849 1.362 . S
C848 C853 1.388 . S
C849 H819 0.929 . S
C849 C848 1.362 . S
C849 C850 1.376 . S
C850 H821 0.931 . S
C850 C849 1.376 . S
C850 C851 1.396 . S
C851 C850 1.396 . S
C851 C852 1.348 . S
C851 C869 1.472 . S
C852 H822 0.939 . S
C852 C851 1.348 . S
C852 C853 1.443 . S
C853 H820 0.932 1_455 S
C853 C848 1.388 . S
C853 C852 1.443 . S
C854 N834 1.433 . S
C854 C855 1.363 . S
C854 C859 1.370 1_455 S
C855 H823 0.929 . S
C855 C854 1.363 . S
C855 C856 1.385 . S
C856 H824 0.930 . S
C856 C855 1.385 . S
C856 C857 1.357 1_455 S
C857 C856 1.357 1_655 S
C857 C858 1.406 . S
C858 H825 0.929 . S
C858 C857 1.406 . S
C858 C859 1.391 . S
C859 H826 0.931 . S
C859 C854 1.370 1_655 S
C859 C858 1.391 . S
C860 N834 1.435 . S
C860 C861 1.358 1_455 S
C860 C865 1.371 . S
C861 H827 0.930 . S
C861 C860 1.358 1_655 S
C861 C862 1.405 . S
C862 H828 0.932 . S
C862 C861 1.405 . S
C862 C863 1.383 1_655 S
C863 C862 1.383 1_455 S
C863 C864 1.393 . S
C864 H829 0.931 . S
C864 C863 1.393 . S
C864 C865 1.382 . S
C865 H830 0.929 . S
C865 C860 1.371 . S
C865 C864 1.382 . S
C866 N834 1.423 . S
C866 C867 1.362 . S
C866 C871 1.388 . S
C867 H831 0.929 . S
C867 C866 1.362 . S
C867 C868 1.376 . S
C868 H832 0.931 . S
C868 C867 1.376 . S
C868 C869 1.396 . S
C869 C851 1.472 . S
C869 C868 1.396 . S
C869 C870 1.348 . S
C870 H833 0.980 . S
C870 C869 1.348 . S
C870 C871 1.443 . S
C871 H835 0.932 1_455 S
C871 C866 1.388 . S
C871 C870 1.443 . S
H872 C899 0.929 . S
N873 C898 1.433 . S
N873 C904 1.435 . S
N873 C910 1.423 . S
H874 C900 0.930 . S
H875 C903 0.931 . S
H876 C902 0.929 . S
H877 C905 0.930 . S
H878 C906 0.932 . S
H879 C909 0.929 . S
H880 C908 0.931 . S
H881 C911 0.929 . S
H882 C915 0.932 . S
H883 C912 0.931 . S
H884 C914 0.929 . S
H885 C917 0.929 . S
H886 C918 0.930 . S
H887 C920 0.929 . S
H888 C921 0.931 . S
H889 C923 0.930 . S
H890 C924 0.932 . S
H891 C926 0.931 . S
H892 C927 0.929 . S
H893 C929 0.929 . S
H894 C930 0.931 . S
H895 C932 0.929 . S
N896 C916 1.433 . S
N896 C922 1.435 . S
N896 C928 1.423 . S
H897 C933 0.932 . S
C898 N873 1.433 . S
C898 C899 1.363 . S
C898 C903 1.370 . S
C899 H872 0.929 . S
C899 C898 1.363 . S
C899 C900 1.385 . S
C900 H874 0.930 . S
C900 C899 1.385 . S
C900 C901 1.357 . S
C901 C900 1.357 . S
C901 C902 1.406 . S
C902 H876 0.929 . S
C902 C901 1.406 . S
C902 C903 1.391 . S
C903 H875 0.931 . S
C903 C898 1.370 . S
C903 C902 1.391 . S
C904 N873 1.435 . S
C904 C905 1.358 . S
C904 C909 1.371 . S
C905 H877 0.930 . S
C905 C904 1.358 . S
C905 C906 1.405 . S
C906 H878 0.932 . S
C906 C905 1.405 . S
C906 C907 1.383 . S
C907 C906 1.383 . S
C907 C908 1.393 . S
C908 H880 0.931 . S
C908 C907 1.393 . S
C908 C909 1.382 . S
C909 H879 0.929 . S
C909 C904 1.371 . S
C909 C908 1.382 . S
C910 N873 1.423 . S
C910 C911 1.362 . S
C910 C915 1.388 . S
C911 H881 0.929 . S
C911 C910 1.362 . S
C911 C912 1.376 . S
C912 H883 0.931 . S
C912 C911 1.376 . S
C912 C913 1.396 . S
C913 C912 1.396 . S
C913 C914 1.348 . S
C913 C931 1.472 . S
C914 H884 0.929 . S
C914 C913 1.348 . S
C914 C915 1.443 . S
C915 H882 0.932 . S
C915 C910 1.388 . S
C915 C914 1.443 . S
C916 N896 1.433 . S
C916 C917 1.363 . S
C916 C921 1.370 . S
C917 H885 0.929 . S
C917 C916 1.363 . S
C917 C918 1.385 . S
C918 H886 0.930 . S
C918 C917 1.385 . S
C918 C919 1.357 . S
C919 C918 1.357 . S
C919 C920 1.406 . S
C920 H887 0.929 . S
C920 C919 1.406 . S
C920 C921 1.391 . S
C921 H888 0.931 . S
C921 C916 1.370 . S
C921 C920 1.391 . S
C922 N896 1.435 . S
C922 C923 1.358 . S
C922 C927 1.371 . S
C923 H889 0.930 . S
C923 C922 1.358 . S
C923 C924 1.405 . S
C924 H890 0.932 . S
C924 C923 1.405 . S
C924 C925 1.383 . S
C925 C924 1.383 . S
C925 C926 1.393 . S
C926 H891 0.931 . S
C926 C925 1.393 . S
C926 C927 1.382 . S
C927 H892 0.929 . S
C927 C922 1.371 . S
C927 C926 1.382 . S
C928 N896 1.423 . S
C928 C929 1.362 . S
C928 C933 1.388 . S
C929 H893 0.929 . S
C929 C928 1.362 . S
C929 C930 1.376 . S
C930 H894 0.931 . S
C930 C929 1.376 . S
C930 C931 1.396 . S
C931 C913 1.472 . S
C931 C930 1.396 . S
C931 C932 1.348 . S
C932 H895 0.929 . S
C932 C931 1.348 . S
C932 C933 1.443 . S
C933 H897 0.932 . S
C933 C928 1.388 . S
C933 C932 1.443 . S
H934 C961 0.929 . S
N935 C960 1.433 . S
N935 C966 1.435 . S
N935 C972 1.423 . S
H936 C962 0.930 . S
H937 C965 0.931 . S
H938 C964 0.929 . S
H939 C967 0.930 . S
H940 C968 0.932 . S
H941 C971 0.929 . S
H942 C970 0.931 . S
H943 C973 0.929 . S
H944 C977 0.932 1_545 S
H945 C974 0.931 . S
H946 C976 0.991 . S
H947 C979 0.929 . S
H948 C980 0.930 . S
H949 C982 0.929 . S
H950 C983 0.931 . S
H951 C985 0.930 . S
H952 C986 0.932 . S
H953 C988 0.931 . S
H954 C989 0.929 . S
H955 C991 0.929 . S
H956 C992 0.931 . S
H957 C994 0.943 . S
N958 C978 1.433 . S
N958 C984 1.435 . S
N958 C990 1.423 . S
H959 C995 0.932 1_545 S
C960 N935 1.433 . S
C960 C961 1.363 . S
C960 C965 1.370 1_565 S
C961 H934 0.929 . S
C961 C960 1.363 . S
C961 C962 1.385 . S
C962 H936 0.930 . S
C962 C961 1.385 . S
C962 C963 1.357 1_565 S
C963 C962 1.357 1_545 S
C963 C964 1.406 . S
C964 H938 0.929 . S
C964 C963 1.406 . S
C964 C965 1.391 . S
C965 H937 0.931 . S
C965 C960 1.370 1_545 S
C965 C964 1.391 . S
C966 N935 1.435 . S
C966 C967 1.358 1_565 S
C966 C971 1.371 . S
C967 H939 0.930 . S
C967 C966 1.358 1_545 S
C967 C968 1.405 . S
C968 H940 0.932 . S
C968 C967 1.405 . S
C968 C969 1.383 1_545 S
C969 C968 1.383 1_565 S
C969 C970 1.393 . S
C970 H942 0.931 . S
C970 C969 1.393 . S
C970 C971 1.382 . S
C971 H941 0.929 . S
C971 C966 1.371 . S
C971 C970 1.382 . S
C972 N935 1.423 . S
C972 C973 1.362 . S
C972 C977 1.388 . S
C973 H943 0.929 . S
C973 C972 1.362 . S
C973 C974 1.376 . S
C974 H945 0.931 . S
C974 C973 1.376 . S
C974 C975 1.396 . S
C975 C974 1.396 . S
C975 C976 1.348 . S
C975 C993 1.472 . S
C976 H946 0.991 . S
C976 C975 1.348 . S
C976 C977 1.443 . S
C977 H944 0.932 1_565 S
C977 C972 1.388 . S
C977 C976 1.443 . S
C978 N958 1.433 . S
C978 C979 1.363 . S
C978 C983 1.370 1_565 S
C979 H947 0.929 . S
C979 C978 1.363 . S
C979 C980 1.385 . S
C980 H948 0.930 . S
C980 C979 1.385 . S
C980 C981 1.357 1_565 S
C981 C980 1.357 1_545 S
C981 C982 1.406 . S
C982 H949 0.929 . S
C982 C981 1.406 . S
C982 C983 1.391 . S
C983 H950 0.931 . S
C983 C978 1.370 1_545 S
C983 C982 1.391 . S
C984 N958 1.435 . S
C984 C985 1.358 1_565 S
C984 C989 1.371 . S
C985 H951 0.930 . S
C985 C984 1.358 1_545 S
C985 C986 1.405 . S
C986 H952 0.932 . S
C986 C985 1.405 . S
C986 C987 1.383 1_545 S
C987 C986 1.383 1_565 S
C987 C988 1.393 . S
C988 H953 0.931 . S
C988 C987 1.393 . S
C988 C989 1.382 . S
C989 H954 0.929 . S
C989 C984 1.371 . S
C989 C988 1.382 . S
C990 N958 1.423 . S
C990 C991 1.362 . S
C990 C995 1.388 . S
C991 H955 0.929 . S
C991 C990 1.362 . S
C991 C992 1.376 . S
C992 H956 0.931 . S
C992 C991 1.376 . S
C992 C993 1.396 . S
C993 C975 1.472 . S
C993 C992 1.396 . S
C993 C994 1.348 . S
C994 H957 0.943 . S
C994 C993 1.348 . S
C994 C995 1.443 . S
C995 H959 0.932 1_565 S
C995 C990 1.388 . S
C995 C994 1.443 . S
H996 C1023 0.929 . S
N997 C1022 1.433 . S
N997 C1028 1.435 . S
N997 C1034 1.423 . S
H998 C1024 0.930 . S
H999 C1027 0.930 . S
H1000 C1026 0.950 . S
H1001 C1029 0.930 . S
H1002 C1030 0.932 . S
H1003 C1033 0.929 . S
H1004 C1032 0.931 . S
H1005 C1035 0.929 . S
H1006 C1039 1.000 . S
H1007 C1036 0.931 . S
H1008 C1038 0.917 1_545 S
H1009 C1041 0.929 . S
H1010 C1042 0.930 . S
H1011 C1044 0.929 . S
H1012 C1045 1.015 . S
H1013 C1047 0.930 . S
H1014 C1048 0.932 . S
H1015 C1050 0.931 . S
H1016 C1051 0.929 . S
H1017 C1053 0.929 . S
H1018 C1054 0.931 . S
H1019 C1056 0.894 1_545 S
N1020 C1040 1.433 . S
N1020 C1046 1.435 . S
N1020 C1052 1.423 . S
H1021 C1057 0.972 . S
C1022 N997 1.433 . S
C1022 C1023 1.363 . S
C1022 C1027 1.363 1_565 S
C1023 H996 0.929 . S
C1023 C1022 1.363 . S
C1023 C1024 1.385 . S
C1024 H998 0.930 . S
C1024 C1023 1.385 . S
C1024 C1025 1.357 . S
C1025 C1024 1.357 . S
C1025 C1026 1.414 1_565 S
C1026 H1000 0.950 . S
C1026 C1025 1.414 1_545 S
C1026 C1027 1.385 . S
C1027 H999 0.930 . S
C1027 C1022 1.363 1_545 S
C1027 C1026 1.385 . S
C1028 N997 1.435 . S
C1028 C1029 1.358 1_565 S
C1028 C1033 1.371 . S
C1029 H1001 0.930 . S
C1029 C1028 1.358 1_545 S
C1029 C1030 1.405 . S
C1030 H1002 0.932 . S
C1030 C1029 1.405 . S
C1030 C1031 1.383 . S
C1031 C1030 1.383 . S
C1031 C1032 1.393 1_545 S
C1032 H1004 0.931 . S
C1032 C1031 1.393 1_565 S
C1032 C1033 1.382 . S
C1033 H1003 0.929 . S
C1033 C1028 1.371 . S
C1033 C1032 1.382 . S
C1034 N997 1.423 . S
C1034 C1035 1.362 . S
C1034 C1039 1.368 1_565 S
C1035 H1005 0.929 . S
C1035 C1034 1.362 . S
C1035 C1036 1.376 . S
C1036 H1007 0.931 . S
C1036 C1035 1.376 . S
C1036 C1037 1.396 . S
C1037 C1036 1.396 . S
C1037 C1038 1.397 . S
C1037 C1055 1.472 . S
C1038 H1008 0.917 1_565 S
C1038 C1037 1.397 . S
C1038 C1039 1.366 1_565 S
C1039 H1006 1.000 . S
C1039 C1034 1.368 1_545 S
C1039 C1038 1.366 1_545 S
C1040 N1020 1.433 . S
C1040 C1041 1.363 . S
C1040 C1045 1.307 1_565 S
C1041 H1009 0.929 . S
C1041 C1040 1.363 . S
C1041 C1042 1.385 . S
C1042 H1010 0.930 . S
C1042 C1041 1.385 . S
C1042 C1043 1.357 . S
C1043 C1042 1.357 . S
C1043 C1044 1.406 1_565 S
C1044 H1011 0.929 . S
C1044 C1043 1.406 1_545 S
C1044 C1045 1.378 . S
C1045 H1012 1.015 . S
C1045 C1040 1.307 1_545 S
C1045 C1044 1.378 . S
C1046 N1020 1.435 . S
C1046 C1047 1.358 1_565 S
C1046 C1051 1.371 . S
C1047 H1013 0.930 . S
C1047 C1046 1.358 1_545 S
C1047 C1048 1.405 . S
C1048 H1014 0.932 . S
C1048 C1047 1.405 . S
C1048 C1049 1.383 . S
C1049 C1048 1.383 . S
C1049 C1050 1.393 1_545 S
C1050 H1015 0.931 . S
C1050 C1049 1.393 1_565 S
C1050 C1051 1.382 . S
C1051 H1016 0.929 . S
C1051 C1046 1.371 . S
C1051 C1050 1.382 . S
C1052 N1020 1.423 . S
C1052 C1053 1.362 . S
C1052 C1057 1.313 1_565 S
C1053 H1017 0.929 . S
C1053 C1052 1.362 . S
C1053 C1054 1.376 . S
C1054 H1018 0.931 . S
C1054 C1053 1.376 . S
C1054 C1055 1.396 . S
C1055 C1037 1.472 . S
C1055 C1054 1.396 . S
C1055 C1056 1.363 . S
C1056 H1019 0.894 1_565 S
C1056 C1055 1.363 . S
C1056 C1057 1.510 1_565 S
C1057 H1021 0.972 . S
C1057 C1052 1.313 1_545 S
C1057 C1056 1.510 1_545 S
H1058 C1085 0.929 . S
N1059 C1084 1.433 . S
N1059 C1090 1.435 . S
N1059 C1096 1.423 . S
H1060 C1086 0.930 . S
H1061 C1089 0.931 . S
H1062 C1088 0.929 . S
H1063 C1091 0.930 . S
H1064 C1092 0.932 . S
H1065 C1095 0.929 . S
H1066 C1094 0.931 . S
H1067 C1097 0.929 . S
H1068 C1101 0.932 1_455 S
H1069 C1098 0.931 . S
H1070 C1100 0.994 . S
H1071 C1103 0.929 . S
H1072 C1104 0.930 . S
H1073 C1106 0.929 . S
H1074 C1107 0.931 . S
H1075 C1109 0.930 . S
H1076 C1110 0.932 . S
H1077 C1112 0.931 . S
H1078 C1113 0.929 . S
H1079 C1115 0.929 . S
H1080 C1116 0.931 . S
H1081 C1118 0.943 . S
N1082 C1102 1.433 . S
N1082 C1108 1.435 . S
N1082 C1114 1.423 . S
H1083 C1119 0.932 1_455 S
C1084 N1059 1.433 . S
C1084 C1085 1.363 . S
C1084 C1089 1.370 1_655 S
C1085 H1058 0.929 . S
C1085 C1084 1.363 . S
C1085 C1086 1.385 . S
C1086 H1060 0.930 . S
C1086 C1085 1.385 . S
C1086 C1087 1.357 1_655 S
C1087 C1086 1.357 1_455 S
C1087 C1088 1.406 . S
C1088 H1062 0.929 . S
C1088 C1087 1.406 . S
C1088 C1089 1.391 . S
C1089 H1061 0.931 . S
C1089 C1084 1.370 1_455 S
C1089 C1088 1.391 . S
C1090 N1059 1.435 . S
C1090 C1091 1.358 1_655 S
C1090 C1095 1.371 . S
C1091 H1063 0.930 . S
C1091 C1090 1.358 1_455 S
C1091 C1092 1.405 . S
C1092 H1064 0.932 . S
C1092 C1091 1.405 . S
C1092 C1093 1.383 1_455 S
C1093 C1092 1.383 1_655 S
C1093 C1094 1.393 . S
C1094 H1066 0.931 . S
C1094 C1093 1.393 . S
C1094 C1095 1.382 . S
C1095 H1065 0.929 . S
C1095 C1090 1.371 . S
C1095 C1094 1.382 . S
C1096 N1059 1.423 . S
C1096 C1097 1.362 . S
C1096 C1101 1.388 . S
C1097 H1067 0.929 . S
C1097 C1096 1.362 . S
C1097 C1098 1.376 . S
C1098 H1069 0.931 . S
C1098 C1097 1.376 . S
C1098 C1099 1.396 . S
C1099 C1098 1.396 . S
C1099 C1100 1.348 . S
C1099 C1117 1.472 . S
C1100 H1070 0.994 . S
C1100 C1099 1.348 . S
C1100 C1101 1.443 . S
C1101 H1068 0.932 1_655 S
C1101 C1096 1.388 . S
C1101 C1100 1.443 . S
C1102 N1082 1.433 . S
C1102 C1103 1.363 . S
C1102 C1107 1.370 1_655 S
C1103 H1071 0.929 . S
C1103 C1102 1.363 . S
C1103 C1104 1.385 . S
C1104 H1072 0.930 . S
C1104 C1103 1.385 . S
C1104 C1105 1.357 1_655 S
C1105 C1104 1.357 1_455 S
C1105 C1106 1.406 . S
C1106 H1073 0.929 . S
C1106 C1105 1.406 . S
C1106 C1107 1.391 . S
C1107 H1074 0.931 . S
C1107 C1102 1.370 1_455 S
C1107 C1106 1.391 . S
C1108 N1082 1.435 . S
C1108 C1109 1.358 1_655 S
C1108 C1113 1.371 . S
C1109 H1075 0.930 . S
C1109 C1108 1.358 1_455 S
C1109 C1110 1.405 . S
C1110 H1076 0.932 . S
C1110 C1109 1.405 . S
C1110 C1111 1.383 1_455 S
C1111 C1110 1.383 1_655 S
C1111 C1112 1.393 . S
C1112 H1077 0.931 . S
C1112 C1111 1.393 . S
C1112 C1113 1.382 . S
C1113 H1078 0.929 . S
C1113 C1108 1.371 . S
C1113 C1112 1.382 . S
C1114 N1082 1.423 . S
C1114 C1115 1.362 . S
C1114 C1119 1.388 . S
C1115 H1079 0.929 . S
C1115 C1114 1.362 . S
C1115 C1116 1.376 . S
C1116 H1080 0.931 . S
C1116 C1115 1.376 . S
C1116 C1117 1.396 . S
C1117 C1099 1.472 . S
C1117 C1116 1.396 . S
C1117 C1118 1.348 . S
C1118 H1081 0.943 . S
C1118 C1117 1.348 . S
C1118 C1119 1.443 . S
C1119 H1083 0.932 1_655 S
C1119 C1114 1.388 . S
C1119 C1118 1.443 . S
H1120 C1147 0.929 . S
N1121 C1146 1.433 . S
N1121 C1152 1.435 . S
N1121 C1158 1.423 . S
H1122 C1148 0.930 . S
H1123 C1151 0.931 . S
H1124 C1150 0.929 . S
H1125 C1153 0.930 . S
H1126 C1154 0.932 . S
H1127 C1157 0.929 . S
H1128 C1156 0.931 . S
H1129 C1159 0.929 . S
H1130 C1163 0.932 . S
H1131 C1160 0.931 . S
H1132 C1162 0.929 . S
H1133 C1165 0.929 . S
H1134 C1166 0.930 . S
H1135 C1168 0.929 . S
H1136 C1169 0.931 . S
H1137 C1171 0.930 . S
H1138 C1172 0.932 . S
H1139 C1174 0.931 . S
H1140 C1175 0.929 . S
H1141 C1177 0.929 . S
H1142 C1178 0.931 . S
H1143 C1180 0.929 . S
N1144 C1164 1.433 . S
N1144 C1170 1.435 . S
N1144 C1176 1.423 . S
H1145 C1181 0.932 . S
C1146 N1121 1.433 . S
C1146 C1147 1.363 . S
C1146 C1151 1.370 . S
C1147 H1120 0.929 . S
C1147 C1146 1.363 . S
C1147 C1148 1.385 . S
C1148 H1122 0.930 . S
C1148 C1147 1.385 . S
C1148 C1149 1.357 . S
C1149 C1148 1.357 . S
C1149 C1150 1.406 . S
C1150 H1124 0.929 . S
C1150 C1149 1.406 . S
C1150 C1151 1.391 . S
C1151 H1123 0.931 . S
C1151 C1146 1.370 . S
C1151 C1150 1.391 . S
C1152 N1121 1.435 . S
C1152 C1153 1.358 . S
C1152 C1157 1.371 . S
C1153 H1125 0.930 . S
C1153 C1152 1.358 . S
C1153 C1154 1.405 . S
C1154 H1126 0.932 . S
C1154 C1153 1.405 . S
C1154 C1155 1.383 . S
C1155 C1154 1.383 . S
C1155 C1156 1.393 . S
C1156 H1128 0.931 . S
C1156 C1155 1.393 . S
C1156 C1157 1.382 . S
C1157 H1127 0.929 . S
C1157 C1152 1.371 . S
C1157 C1156 1.382 . S
C1158 N1121 1.423 . S
C1158 C1159 1.362 . S
C1158 C1163 1.388 . S
C1159 H1129 0.929 . S
C1159 C1158 1.362 . S
C1159 C1160 1.376 . S
C1160 H1131 0.931 . S
C1160 C1159 1.376 . S
C1160 C1161 1.396 . S
C1161 C1160 1.396 . S
C1161 C1162 1.348 . S
C1161 C1179 1.472 . S
C1162 H1132 0.929 . S
C1162 C1161 1.348 . S
C1162 C1163 1.443 . S
C1163 H1130 0.932 . S
C1163 C1158 1.388 . S
C1163 C1162 1.443 . S
C1164 N1144 1.433 . S
C1164 C1165 1.363 . S
C1164 C1169 1.370 . S
C1165 H1133 0.929 . S
C1165 C1164 1.363 . S
C1165 C1166 1.385 . S
C1166 H1134 0.930 . S
C1166 C1165 1.385 . S
C1166 C1167 1.357 . S
C1167 C1166 1.357 . S
C1167 C1168 1.406 . S
C1168 H1135 0.929 . S
C1168 C1167 1.406 . S
C1168 C1169 1.391 . S
C1169 H1136 0.931 . S
C1169 C1164 1.370 . S
C1169 C1168 1.391 . S
C1170 N1144 1.435 . S
C1170 C1171 1.358 . S
C1170 C1175 1.371 . S
C1171 H1137 0.930 . S
C1171 C1170 1.358 . S
C1171 C1172 1.405 . S
C1172 H1138 0.932 . S
C1172 C1171 1.405 . S
C1172 C1173 1.383 . S
C1173 C1172 1.383 . S
C1173 C1174 1.393 . S
C1174 H1139 0.931 . S
C1174 C1173 1.393 . S
C1174 C1175 1.382 . S
C1175 H1140 0.929 . S
C1175 C1170 1.371 . S
C1175 C1174 1.382 . S
C1176 N1144 1.423 . S
C1176 C1177 1.362 . S
C1176 C1181 1.388 . S
C1177 H1141 0.929 . S
C1177 C1176 1.362 . S
C1177 C1178 1.376 . S
C1178 H1142 0.931 . S
C1178 C1177 1.376 . S
C1178 C1179 1.396 . S
C1179 C1161 1.472 . S
C1179 C1178 1.396 . S
C1179 C1180 1.348 . S
C1180 H1143 0.929 . S
C1180 C1179 1.348 . S
C1180 C1181 1.443 . S
C1181 H1145 0.932 . S
C1181 C1176 1.388 . S
C1181 C1180 1.443 . S
H1182 C1209 0.929 . S
N1183 C1208 1.433 . S
N1183 C1214 1.435 . S
N1183 C1220 1.423 . S
H1184 C1210 0.930 . S
H1185 C1213 0.931 . S
H1186 C1212 0.929 . S
H1187 C1215 0.930 . S
H1188 C1216 0.932 . S
H1189 C1219 0.929 . S
H1190 C1218 0.931 . S
H1191 C1221 0.929 . S
H1192 C1225 0.932 . S
H1193 C1222 0.931 . S
H1194 C1224 0.929 . S
H1195 C1227 0.929 . S
H1196 C1228 0.930 . S
H1197 C1230 0.929 . S
H1198 C1231 0.931 . S
H1199 C1233 0.930 . S
H1200 C1234 0.932 . S
H1201 C1236 0.931 . S
H1202 C1237 0.929 . S
H1203 C1239 0.929 . S
H1204 C1240 0.931 . S
H1205 C1242 0.929 . S
N1206 C1226 1.433 . S
N1206 C1232 1.435 . S
N1206 C1238 1.423 . S
H1207 C1243 0.932 . S
C1208 N1183 1.433 . S
C1208 C1209 1.363 . S
C1208 C1213 1.370 . S
C1209 H1182 0.929 . S
C1209 C1208 1.363 . S
C1209 C1210 1.385 . S
C1210 H1184 0.930 . S
C1210 C1209 1.385 . S
C1210 C1211 1.357 . S
C1211 C1210 1.357 . S
C1211 C1212 1.406 . S
C1212 H1186 0.929 . S
C1212 C1211 1.406 . S
C1212 C1213 1.391 . S
C1213 H1185 0.931 . S
C1213 C1208 1.370 . S
C1213 C1212 1.391 . S
C1214 N1183 1.435 . S
C1214 C1215 1.358 . S
C1214 C1219 1.371 . S
C1215 H1187 0.930 . S
C1215 C1214 1.358 . S
C1215 C1216 1.405 . S
C1216 H1188 0.932 . S
C1216 C1215 1.405 . S
C1216 C1217 1.383 . S
C1217 C1216 1.383 . S
C1217 C1218 1.393 . S
C1218 H1190 0.931 . S
C1218 C1217 1.393 . S
C1218 C1219 1.382 . S
C1219 H1189 0.929 . S
C1219 C1214 1.371 . S
C1219 C1218 1.382 . S
C1220 N1183 1.423 . S
C1220 C1221 1.362 . S
C1220 C1225 1.388 . S
C1221 H1191 0.929 . S
C1221 C1220 1.362 . S
C1221 C1222 1.376 . S
C1222 H1193 0.931 . S
C1222 C1221 1.376 . S
C1222 C1223 1.396 . S
C1223 C1222 1.396 . S
C1223 C1224 1.348 . S
C1223 C1241 1.472 . S
C1224 H1194 0.929 . S
C1224 C1223 1.348 . S
C1224 C1225 1.443 . S
C1225 H1192 0.932 . S
C1225 C1220 1.388 . S
C1225 C1224 1.443 . S
C1226 N1206 1.433 . S
C1226 C1227 1.363 . S
C1226 C1231 1.370 . S
C1227 H1195 0.929 . S
C1227 C1226 1.363 . S
C1227 C1228 1.385 . S
C1228 H1196 0.930 . S
C1228 C1227 1.385 . S
C1228 C1229 1.357 . S
C1229 C1228 1.357 . S
C1229 C1230 1.406 . S
C1230 H1197 0.929 . S
C1230 C1229 1.406 . S
C1230 C1231 1.391 . S
C1231 H1198 0.931 . S
C1231 C1226 1.370 . S
C1231 C1230 1.391 . S
C1232 N1206 1.435 . S
C1232 C1233 1.358 . S
C1232 C1237 1.371 . S
C1233 H1199 0.930 . S
C1233 C1232 1.358 . S
C1233 C1234 1.405 . S
C1234 H1200 0.932 . S
C1234 C1233 1.405 . S
C1234 C1235 1.383 . S
C1235 C1234 1.383 . S
C1235 C1236 1.393 . S
C1236 H1201 0.931 . S
C1236 C1235 1.393 . S
C1236 C1237 1.382 . S
C1237 H1202 0.929 . S
C1237 C1232 1.371 . S
C1237 C1236 1.382 . S
C1238 N1206 1.423 . S
C1238 C1239 1.362 . S
C1238 C1243 1.388 . S
C1239 H1203 0.929 . S
C1239 C1238 1.362 . S
C1239 C1240 1.376 . S
C1240 H1204 0.931 . S
C1240 C1239 1.376 . S
C1240 C1241 1.396 . S
C1241 C1223 1.472 . S
C1241 C1240 1.396 . S
C1241 C1242 1.348 . S
C1242 H1205 0.929 . S
C1242 C1241 1.348 . S
C1242 C1243 1.443 . S
C1243 H1207 0.932 . S
C1243 C1238 1.388 . S
C1243 C1242 1.443 . S
H1244 C1271 0.929 . S
N1245 C1270 1.433 . S
N1245 C1276 1.435 . S
N1245 C1282 1.423 . S
H1246 C1272 0.930 . S
H1247 C1275 0.931 . S
H1248 C1274 0.929 . S
H1249 C1277 0.930 . S
H1250 C1278 0.932 . S
H1251 C1281 0.929 . S
H1252 C1280 0.931 . S
H1253 C1283 0.929 . S
H1254 C1287 0.932 . S
H1255 C1284 0.931 . S
H1256 C1286 0.929 . S
H1257 C1289 0.929 . S
H1258 C1290 0.930 . S
H1259 C1292 0.929 . S
H1260 C1293 0.931 . S
H1261 C1295 0.930 . S
H1262 C1296 0.932 . S
H1263 C1298 0.931 . S
H1264 C1299 0.929 . S
H1265 C1301 0.929 . S
H1266 C1302 0.931 . S
H1267 C1304 0.929 . S
N1268 C1288 1.433 . S
N1268 C1294 1.435 . S
N1268 C1300 1.423 . S
H1269 C1305 0.932 . S
C1270 N1245 1.433 . S
C1270 C1271 1.363 . S
C1270 C1275 1.370 . S
C1271 H1244 0.929 . S
C1271 C1270 1.363 . S
C1271 C1272 1.385 . S
C1272 H1246 0.930 . S
C1272 C1271 1.385 . S
C1272 C1273 1.357 . S
C1273 C1272 1.357 . S
C1273 C1274 1.406 . S
C1274 H1248 0.929 . S
C1274 C1273 1.406 . S
C1274 C1275 1.391 . S
C1275 H1247 0.931 . S
C1275 C1270 1.370 . S
C1275 C1274 1.391 . S
C1276 N1245 1.435 . S
C1276 C1277 1.358 . S
C1276 C1281 1.371 . S
C1277 H1249 0.930 . S
C1277 C1276 1.358 . S
C1277 C1278 1.405 . S
C1278 H1250 0.932 . S
C1278 C1277 1.405 . S
C1278 C1279 1.383 . S
C1279 C1278 1.383 . S
C1279 C1280 1.393 . S
C1280 H1252 0.931 . S
C1280 C1279 1.393 . S
C1280 C1281 1.382 . S
C1281 H1251 0.929 . S
C1281 C1276 1.371 . S
C1281 C1280 1.382 . S
C1282 N1245 1.423 . S
C1282 C1283 1.362 . S
C1282 C1287 1.388 . S
C1283 H1253 0.929 . S
C1283 C1282 1.362 . S
C1283 C1284 1.376 . S
C1284 H1255 0.931 . S
C1284 C1283 1.376 . S
C1284 C1285 1.396 . S
C1285 C1284 1.396 . S
C1285 C1286 1.348 . S
C1285 C1303 1.472 . S
C1286 H1256 0.929 . S
C1286 C1285 1.348 . S
C1286 C1287 1.443 . S
C1287 H1254 0.932 . S
C1287 C1282 1.388 . S
C1287 C1286 1.443 . S
C1288 N1268 1.433 . S
C1288 C1289 1.363 . S
C1288 C1293 1.370 . S
C1289 H1257 0.929 . S
C1289 C1288 1.363 . S
C1289 C1290 1.385 . S
C1290 H1258 0.930 . S
C1290 C1289 1.385 . S
C1290 C1291 1.357 . S
C1291 C1290 1.357 . S
C1291 C1292 1.406 . S
C1292 H1259 0.929 . S
C1292 C1291 1.406 . S
C1292 C1293 1.391 . S
C1293 H1260 0.931 . S
C1293 C1288 1.370 . S
C1293 C1292 1.391 . S
C1294 N1268 1.435 . S
C1294 C1295 1.358 . S
C1294 C1299 1.371 . S
C1295 H1261 0.930 . S
C1295 C1294 1.358 . S
C1295 C1296 1.405 . S
C1296 H1262 0.932 . S
C1296 C1295 1.405 . S
C1296 C1297 1.383 . S
C1297 C1296 1.383 . S
C1297 C1298 1.393 . S
C1298 H1263 0.931 . S
C1298 C1297 1.393 . S
C1298 C1299 1.382 . S
C1299 H1264 0.929 . S
C1299 C1294 1.371 . S
C1299 C1298 1.382 . S
C1300 N1268 1.423 . S
C1300 C1301 1.362 . S
C1300 C1305 1.388 . S
C1301 H1265 0.929 . S
C1301 C1300 1.362 . S
C1301 C1302 1.376 . S
C1302 H1266 0.931 . S
C1302 C1301 1.376 . S
C1302 C1303 1.396 . S
C1303 C1285 1.472 . S
C1303 C1302 1.396 . S
C1303 C1304 1.348 . S
C1304 H1267 0.929 . S
C1304 C1303 1.348 . S
C1304 C1305 1.443 . S
C1305 H1269 0.932 . S
C1305 C1300 1.388 . S
C1305 C1304 1.443 . S
H1306 C1333 0.929 . S
N1307 C1332 1.433 . S
N1307 C1338 1.435 . S
N1307 C1344 1.423 . S
H1308 C1334 0.930 . S
H1309 C1337 0.931 . S
H1310 C1336 0.929 . S
H1311 C1339 0.930 . S
H1312 C1340 0.932 . S
H1313 C1343 0.929 . S
H1314 C1342 0.931 . S
H1315 C1345 0.929 . S
H1316 C1349 0.932 . S
H1317 C1346 0.931 . S
H1318 C1348 0.929 . S
H1319 C1351 0.929 . S
H1320 C1352 0.930 . S
H1321 C1354 0.929 . S
H1322 C1355 0.931 . S
H1323 C1357 0.930 . S
H1324 C1358 0.932 . S
H1325 C1360 0.931 . S
H1326 C1361 0.929 . S
H1327 C1363 0.929 . S
H1328 C1364 0.931 . S
H1329 C1366 0.929 . S
N1330 C1350 1.433 . S
N1330 C1356 1.435 . S
N1330 C1362 1.423 . S
H1331 C1367 0.932 . S
C1332 N1307 1.433 . S
C1332 C1333 1.363 . S
C1332 C1337 1.370 . S
C1333 H1306 0.929 . S
C1333 C1332 1.363 . S
C1333 C1334 1.385 . S
C1334 H1308 0.930 . S
C1334 C1333 1.385 . S
C1334 C1335 1.357 . S
C1335 C1334 1.357 . S
C1335 C1336 1.406 . S
C1336 H1310 0.929 . S
C1336 C1335 1.406 . S
C1336 C1337 1.391 . S
C1337 H1309 0.931 . S
C1337 C1332 1.370 . S
C1337 C1336 1.391 . S
C1338 N1307 1.435 . S
C1338 C1339 1.358 . S
C1338 C1343 1.371 . S
C1339 H1311 0.930 . S
C1339 C1338 1.358 . S
C1339 C1340 1.405 . S
C1340 H1312 0.932 . S
C1340 C1339 1.405 . S
C1340 C1341 1.383 . S
C1341 C1340 1.383 . S
C1341 C1342 1.393 . S
C1342 H1314 0.931 . S
C1342 C1341 1.393 . S
C1342 C1343 1.382 . S
C1343 H1313 0.929 . S
C1343 C1338 1.371 . S
C1343 C1342 1.382 . S
C1344 N1307 1.423 . S
C1344 C1345 1.362 . S
C1344 C1349 1.388 . S
C1345 H1315 0.929 . S
C1345 C1344 1.362 . S
C1345 C1346 1.376 . S
C1346 H1317 0.931 . S
C1346 C1345 1.376 . S
C1346 C1347 1.396 . S
C1347 C1346 1.396 . S
C1347 C1348 1.348 . S
C1347 C1365 1.472 . S
C1348 H1318 0.929 . S
C1348 C1347 1.348 . S
C1348 C1349 1.443 . S
C1349 H1316 0.932 . S
C1349 C1344 1.388 . S
C1349 C1348 1.443 . S
C1350 N1330 1.433 . S
C1350 C1351 1.363 . S
C1350 C1355 1.370 . S
C1351 H1319 0.929 . S
C1351 C1350 1.363 . S
C1351 C1352 1.385 . S
C1352 H1320 0.930 . S
C1352 C1351 1.385 . S
C1352 C1353 1.357 . S
C1353 C1352 1.357 . S
C1353 C1354 1.406 . S
C1354 H1321 0.929 . S
C1354 C1353 1.406 . S
C1354 C1355 1.391 . S
C1355 H1322 0.931 . S
C1355 C1350 1.370 . S
C1355 C1354 1.391 . S
C1356 N1330 1.435 . S
C1356 C1357 1.358 . S
C1356 C1361 1.371 . S
C1357 H1323 0.930 . S
C1357 C1356 1.358 . S
C1357 C1358 1.405 . S
C1358 H1324 0.932 . S
C1358 C1357 1.405 . S
C1358 C1359 1.383 . S
C1359 C1358 1.383 . S
C1359 C1360 1.393 . S
C1360 H1325 0.931 . S
C1360 C1359 1.393 . S
C1360 C1361 1.382 . S
C1361 H1326 0.929 . S
C1361 C1356 1.371 . S
C1361 C1360 1.382 . S
C1362 N1330 1.423 . S
C1362 C1363 1.362 . S
C1362 C1367 1.388 . S
C1363 H1327 0.929 . S
C1363 C1362 1.362 . S
C1363 C1364 1.376 . S
C1364 H1328 0.931 . S
C1364 C1363 1.376 . S
C1364 C1365 1.396 . S
C1365 C1347 1.472 . S
C1365 C1364 1.396 . S
C1365 C1366 1.348 . S
C1366 H1329 0.929 . S
C1366 C1365 1.348 . S
C1366 C1367 1.443 . S
C1367 H1331 0.932 . S
C1367 C1362 1.388 . S
C1367 C1366 1.443 . S
H1368 C1386 0.950 . S
H1369 C1388 0.937 . S
H1370 C1390 0.952 . S
H1371 C1391 0.936 . S
H1372 C1393 0.950 . S
H1373 C1396 0.950 . S
H1374 C1397 0.950 . S
H1375 C1399 0.950 . S
H1376 C1400 0.950 . S
H1377 C1401 0.951 . S
H1378 C1403 0.951 . S
H1379 C1405 0.950 . S
H1380 C1406 0.950 . S
H1381 C1408 0.950 . S
H1382 C1411 0.950 . S
H1383 C1412 0.950 . S
H1384 C1414 0.950 . S
H1385 C1415 0.950 . S
C1386 H1368 0.950 . S
C1386 C1387 1.350 . S
C1386 C1388 1.382 . S
C1387 C1386 1.350 . S
C1387 C1391 1.383 . S
C1388 H1369 0.937 . S
C1388 C1386 1.382 . S
C1388 C1389 1.363 . S
C1389 C1388 1.363 . S
C1389 C1390 1.412 . S
C1389 C1392 1.480 . S
C1390 H1370 0.952 . S
C1390 C1389 1.412 . S
C1390 C1391 1.363 . S
C1391 H1371 0.936 . S
C1391 C1387 1.383 . S
C1391 C1390 1.363 . S
C1392 C1389 1.480 . S
C1392 C1393 1.437 . S
C1392 C1394 1.382 1_655 S
C1393 H1372 0.950 . S
C1393 C1392 1.437 . S
C1393 C1409 1.377 . S
C1394 C1392 1.382 1_455 S
C1394 C1395 1.524 . S
C1394 C1408 1.377 . S
C1395 C1394 1.524 . S
C1395 C1396 1.397 . S
C1395 C1400 1.363 . S
C1396 H1373 0.950 . S
C1396 C1395 1.397 . S
C1396 C1397 1.334 . S
C1397 H1374 0.950 . S
C1397 C1396 1.334 . S
C1397 C1398 1.287 . S
C1398 C1397 1.287 . S
C1398 C1399 1.524 . S
C1398 H1417 0.913 . S
C1399 H1375 0.950 . S
C1399 C1398 1.524 . S
C1399 C1400 1.415 . S
C1400 H1376 0.950 . S
C1400 C1395 1.363 . S
C1400 C1399 1.415 . S
C1401 H1377 0.951 . S
C1401 C1402 1.366 . S
C1401 C1403 1.388 . S
C1402 C1401 1.366 . S
C1402 C1406 1.385 . S
C1403 H1378 0.951 . S
C1403 C1401 1.388 . S
C1403 C1404 1.366 . S
C1404 C1403 1.366 . S
C1404 C1405 1.414 . S
C1404 C1407 1.499 . S
C1405 H1379 0.950 . S
C1405 C1404 1.414 . S
C1405 C1406 1.374 . S
C1406 H1380 0.950 . S
C1406 C1402 1.385 . S
C1406 C1405 1.374 . S
C1407 C1404 1.499 . S
C1407 C1408 1.373 1_655 S
C1407 C1409 1.389 . S
C1408 H1381 0.950 . S
C1408 C1394 1.377 . S
C1408 C1407 1.373 1_455 S
C1409 C1393 1.377 . S
C1409 C1407 1.389 . S
C1409 C1410 1.524 . S
C1410 C1409 1.524 . S
C1410 C1411 1.397 . S
C1410 C1415 1.363 . S
C1411 H1382 0.950 . S
C1411 C1410 1.397 . S
C1411 C1412 1.334 . S
C1412 H1383 0.950 . S
C1412 C1411 1.334 . S
C1412 C1413 1.287 . S
C1413 C1412 1.287 . S
C1413 C1414 1.524 . S
C1413 H1416 0.999 . S
C1414 H1384 0.950 . S
C1414 C1413 1.524 . S
C1414 C1415 1.415 . S
C1415 H1385 0.950 . S
C1415 C1410 1.363 . S
C1415 C1414 1.415 . S
H1416 C1413 0.999 . S
H1417 C1398 0.913 . S
H1418 C1436 0.951 . S
H1419 C1438 0.951 . S
H1420 C1440 0.950 . S
H1421 C1441 0.950 . S
H1422 C1443 0.950 . S
H1423 C1446 0.950 . S
H1424 C1447 0.950 . S
H1425 C1449 0.950 . S
H1426 C1450 0.950 . S
H1427 C1451 0.951 . S
H1428 C1453 0.951 . S
H1429 C1455 0.950 . S
H1430 C1456 0.950 . S
H1431 C1458 0.950 . S
H1432 C1461 0.950 . S
H1433 C1462 0.950 . S
H1434 C1464 0.950 . S
H1435 C1465 0.950 . S
C1436 H1418 0.951 . S
C1436 C1437 1.366 . S
C1436 C1438 1.388 . S
C1437 C1436 1.366 . S
C1437 C1441 1.385 . S
C1438 H1419 0.951 . S
C1438 C1436 1.388 . S
C1438 C1439 1.366 . S
C1439 C1438 1.366 . S
C1439 C1440 1.414 . S
C1439 C1442 1.499 . S
C1440 H1420 0.950 . S
C1440 C1439 1.414 . S
C1440 C1441 1.374 . S
C1441 H1421 0.950 . S
C1441 C1437 1.385 . S
C1441 C1440 1.374 . S
C1442 C1439 1.499 . S
C1442 C1443 1.373 . S
C1442 C1444 1.389 . S
C1443 H1422 0.950 . S
C1443 C1442 1.373 . S
C1443 C1459 1.377 . S
C1444 C1442 1.389 . S
C1444 C1445 1.524 . S
C1444 C1458 1.377 . S
C1445 C1444 1.524 . S
C1445 C1446 1.397 . S
C1445 C1450 1.363 . S
C1446 H1423 0.950 . S
C1446 C1445 1.397 . S
C1446 C1447 1.334 . S
C1447 H1424 0.950 . S
C1447 C1446 1.334 . S
C1447 C1448 1.287 . S
C1448 C1447 1.287 . S
C1448 C1449 1.524 . S
C1448 H1467 0.913 . S
C1449 H1425 0.950 . S
C1449 C1448 1.524 . S
C1449 C1450 1.415 . S
C1450 H1426 0.950 . S
C1450 C1445 1.363 . S
C1450 C1449 1.415 . S
C1451 H1427 0.951 . S
C1451 C1452 1.366 . S
C1451 C1453 1.388 . S
C1452 C1451 1.366 . S
C1452 C1456 1.385 . S
C1453 H1428 0.951 . S
C1453 C1451 1.388 . S
C1453 C1454 1.366 . S
C1454 C1453 1.366 . S
C1454 C1455 1.414 . S
C1454 C1457 1.499 . S
C1455 H1429 0.950 . S
C1455 C1454 1.414 . S
C1455 C1456 1.374 . S
C1456 H1430 0.950 . S
C1456 C1452 1.385 . S
C1456 C1455 1.374 . S
C1457 C1454 1.499 . S
C1457 C1458 1.373 . S
C1457 C1459 1.389 . S
C1458 H1431 0.950 . S
C1458 C1444 1.377 . S
C1458 C1457 1.373 . S
C1459 C1443 1.377 . S
C1459 C1457 1.389 . S
C1459 C1460 1.524 . S
C1460 C1459 1.524 . S
C1460 C1461 1.397 . S
C1460 C1465 1.363 . S
C1461 H1432 0.950 . S
C1461 C1460 1.397 . S
C1461 C1462 1.334 . S
C1462 H1433 0.950 . S
C1462 C1461 1.334 . S
C1462 C1463 1.287 . S
C1463 C1462 1.287 . S
C1463 C1464 1.524 . S
C1463 H1466 0.999 . S
C1464 H1434 0.950 . S
C1464 C1463 1.524 . S
C1464 C1465 1.415 . S
C1465 H1435 0.950 . S
C1465 C1460 1.363 . S
C1465 C1464 1.415 . S
H1466 C1463 0.999 . S
H1467 C1448 0.913 . S
H1468 C1486 0.951 . S
H1469 C1488 0.951 . S
H1470 C1490 0.950 . S
H1471 C1491 0.950 . S
H1472 C1493 0.950 . S
H1473 C1496 0.950 . S
H1474 C1497 0.950 . S
H1475 C1499 0.950 . S
H1476 C1500 0.950 . S
H1477 C1501 0.951 . S
H1478 C1503 0.951 . S
H1479 C1505 0.950 . S
H1480 C1506 0.950 . S
H1481 C1508 0.950 . S
H1482 C1511 0.950 . S
H1483 C1512 0.950 . S
H1484 C1514 0.950 . S
H1485 C1515 0.950 . S
C1486 H1468 0.951 . S
C1486 C1487 1.366 . S
C1486 C1488 1.388 . S
C1487 C1486 1.366 . S
C1487 C1491 1.385 . S
C1488 H1469 0.951 . S
C1488 C1486 1.388 . S
C1488 C1489 1.366 . S
C1489 C1488 1.366 . S
C1489 C1490 1.414 . S
C1489 C1492 1.499 . S
C1490 H1470 0.950 . S
C1490 C1489 1.414 . S
C1490 C1491 1.374 . S
C1491 H1471 0.950 . S
C1491 C1487 1.385 . S
C1491 C1490 1.374 . S
C1492 C1489 1.499 . S
C1492 C1493 1.373 1_545 S
C1492 C1494 1.389 . S
C1493 H1472 0.950 . S
C1493 C1492 1.373 1_565 S
C1493 C1509 1.377 . S
C1494 C1492 1.389 . S
C1494 C1495 1.524 . S
C1494 C1508 1.377 . S
C1495 C1494 1.524 . S
C1495 C1496 1.397 . S
C1495 C1500 1.363 . S
C1496 H1473 0.950 . S
C1496 C1495 1.397 . S
C1496 C1497 1.334 . S
C1497 H1474 0.950 . S
C1497 C1496 1.334 . S
C1497 C1498 1.287 . S
C1498 C1497 1.287 . S
C1498 C1499 1.524 . S
C1498 H1517 0.913 . S
C1499 H1475 0.950 . S
C1499 C1498 1.524 . S
C1499 C1500 1.415 . S
C1500 H1476 0.950 . S
C1500 C1495 1.363 . S
C1500 C1499 1.415 . S
C1501 H1477 0.951 . S
C1501 C1502 1.366 . S
C1501 C1503 1.388 . S
C1502 C1501 1.366 . S
C1502 C1506 1.385 . S
C1503 H1478 0.951 . S
C1503 C1501 1.388 . S
C1503 C1504 1.366 . S
C1504 C1503 1.366 . S
C1504 C1505 1.414 . S
C1504 C1507 1.499 . S
C1505 H1479 0.950 . S
C1505 C1504 1.414 . S
C1505 C1506 1.374 . S
C1506 H1480 0.950 . S
C1506 C1502 1.385 . S
C1506 C1505 1.374 . S
C1507 C1504 1.499 . S
C1507 C1508 1.373 . S
C1507 C1509 1.389 1_545 S
C1508 H1481 0.950 . S
C1508 C1494 1.377 . S
C1508 C1507 1.373 . S
C1509 C1493 1.377 . S
C1509 C1507 1.389 1_565 S
C1509 C1510 1.524 . S
C1510 C1509 1.524 . S
C1510 C1511 1.397 . S
C1510 C1515 1.363 . S
C1511 H1482 0.950 . S
C1511 C1510 1.397 . S
C1511 C1512 1.334 . S
C1512 H1483 0.950 . S
C1512 C1511 1.334 . S
C1512 C1513 1.287 . S
C1513 C1512 1.287 . S
C1513 C1514 1.524 . S
C1513 H1516 0.999 . S
C1514 H1484 0.950 . S
C1514 C1513 1.524 . S
C1514 C1515 1.415 . S
C1515 H1485 0.950 . S
C1515 C1510 1.363 . S
C1515 C1514 1.415 . S
H1516 C1513 0.999 . S
H1517 C1498 0.913 . S
H1518 C1536 0.951 . S
H1519 C1538 0.951 . S
H1520 C1540 0.950 . S
H1521 C1541 0.950 . S
H1522 C1543 0.950 . S
H1523 C1546 0.950 . S
H1524 C1547 0.950 . S
H1525 C1549 0.950 . S
H1526 C1550 0.950 . S
H1527 C1551 0.951 . S
H1528 C1553 0.951 . S
H1529 C1555 0.950 . S
H1530 C1556 0.950 . S
H1531 C1558 0.950 . S
H1532 C1561 0.950 . S
H1533 C1562 0.950 . S
H1534 C1564 0.950 . S
H1535 C1565 0.950 . S
C1536 H1518 0.951 . S
C1536 C1537 1.366 . S
C1536 C1538 1.388 . S
C1537 C1536 1.366 . S
C1537 C1541 1.385 . S
C1538 H1519 0.951 . S
C1538 C1536 1.388 . S
C1538 C1539 1.366 . S
C1539 C1538 1.366 . S
C1539 C1540 1.414 . S
C1539 C1542 1.499 . S
C1540 H1520 0.950 . S
C1540 C1539 1.414 . S
C1540 C1541 1.374 . S
C1541 H1521 0.950 . S
C1541 C1537 1.385 . S
C1541 C1540 1.374 . S
C1542 C1539 1.499 . S
C1542 C1543 1.373 1_565 S
C1542 C1544 1.389 . S
C1543 H1522 0.950 . S
C1543 C1542 1.373 1_545 S
C1543 C1559 1.377 . S
C1544 C1542 1.389 . S
C1544 C1545 1.524 . S
C1544 C1558 1.377 . S
C1545 C1544 1.524 . S
C1545 C1546 1.397 . S
C1545 C1550 1.363 . S
C1546 H1523 0.950 . S
C1546 C1545 1.397 . S
C1546 C1547 1.334 . S
C1547 H1524 0.950 . S
C1547 C1546 1.334 . S
C1547 C1548 1.287 . S
C1548 C1547 1.287 . S
C1548 C1549 1.524 . S
C1548 H1567 0.913 . S
C1549 H1525 0.950 . S
C1549 C1548 1.524 . S
C1549 C1550 1.415 . S
C1550 H1526 0.950 . S
C1550 C1545 1.363 . S
C1550 C1549 1.415 . S
C1551 H1527 0.951 . S
C1551 C1552 1.366 . S
C1551 C1553 1.388 . S
C1552 C1551 1.366 . S
C1552 C1556 1.385 . S
C1553 H1528 0.951 . S
C1553 C1551 1.388 . S
C1553 C1554 1.366 . S
C1554 C1553 1.366 . S
C1554 C1555 1.414 . S
C1554 C1557 1.499 . S
C1555 H1529 0.950 . S
C1555 C1554 1.414 . S
C1555 C1556 1.374 . S
C1556 H1530 0.950 . S
C1556 C1552 1.385 . S
C1556 C1555 1.374 . S
C1557 C1554 1.499 . S
C1557 C1558 1.373 . S
C1557 C1559 1.389 1_565 S
C1558 H1531 0.950 . S
C1558 C1544 1.377 . S
C1558 C1557 1.373 . S
C1559 C1543 1.377 . S
C1559 C1557 1.389 1_545 S
C1559 C1560 1.524 . S
C1560 C1559 1.524 . S
C1560 C1561 1.397 . S
C1560 C1565 1.363 . S
C1561 H1532 0.950 . S
C1561 C1560 1.397 . S
C1561 C1562 1.334 . S
C1562 H1533 0.950 . S
C1562 C1561 1.334 . S
C1562 C1563 1.287 . S
C1563 C1562 1.287 . S
C1563 C1564 1.524 . S
C1563 H1566 0.999 . S
C1564 H1534 0.950 . S
C1564 C1563 1.524 . S
C1564 C1565 1.415 . S
C1565 H1535 0.950 . S
C1565 C1560 1.363 . S
C1565 C1564 1.415 . S
H1566 C1563 0.999 . S
H1567 C1548 0.913 . S
H1568 C1586 0.951 1_655 S
H1569 C1588 0.951 1_655 S
H1570 C1590 0.950 . S
H1571 C1591 0.950 . S
H1572 C1593 0.950 . S
H1573 C1596 0.950 . S
H1574 C1597 0.950 . S
H1575 C1599 0.950 . S
H1576 C1600 0.950 . S
H1577 C1601 0.951 . S
H1578 C1603 0.951 . S
H1579 C1605 0.964 . S
H1580 C1606 1.034 . S
H1581 C1608 0.950 . S
H1582 C1611 0.950 . S
H1583 C1612 0.950 . S
H1584 C1614 0.950 . S
H1585 C1615 0.950 . S
C1586 H1568 0.951 1_455 S
C1586 C1587 1.366 . S
C1586 C1588 1.388 . S
C1587 C1586 1.366 . S
C1587 C1591 1.385 . S
C1588 H1569 0.951 1_455 S
C1588 C1586 1.388 . S
C1588 C1589 1.366 . S
C1589 C1588 1.366 . S
C1589 C1590 1.414 . S
C1589 C1592 1.499 . S
C1590 H1570 0.950 . S
C1590 C1589 1.414 . S
C1590 C1591 1.374 . S
C1591 H1571 0.950 . S
C1591 C1587 1.385 . S
C1591 C1590 1.374 . S
C1592 C1589 1.499 . S
C1592 C1593 1.373 . S
C1592 C1594 1.389 1_455 S
C1593 H1572 0.950 . S
C1593 C1592 1.373 . S
C1593 C1609 1.377 . S
C1594 C1592 1.389 1_655 S
C1594 C1595 1.524 . S
C1594 C1608 1.377 . S
C1595 C1594 1.524 . S
C1595 C1596 1.397 . S
C1595 C1600 1.363 . S
C1596 H1573 0.950 . S
C1596 C1595 1.397 . S
C1596 C1597 1.334 . S
C1597 H1574 0.950 . S
C1597 C1596 1.334 . S
C1597 C1598 1.287 . S
C1598 C1597 1.287 . S
C1598 C1599 1.524 . S
C1598 H1617 0.913 . S
C1599 H1575 0.950 . S
C1599 C1598 1.524 . S
C1599 C1600 1.415 . S
C1600 H1576 0.950 . S
C1600 C1595 1.363 . S
C1600 C1599 1.415 . S
C1601 H1577 0.951 . S
C1601 C1602 1.366 . S
C1601 C1603 1.388 . S
C1602 C1601 1.366 . S
C1602 C1606 1.343 1_455 S
C1603 H1578 0.951 . S
C1603 C1601 1.388 . S
C1603 C1604 1.366 . S
C1604 C1603 1.366 . S
C1604 C1605 1.391 1_455 S
C1604 C1607 1.499 . S
C1605 H1579 0.964 . S
C1605 C1604 1.391 1_655 S
C1605 C1606 1.348 . S
C1606 H1580 1.034 . S
C1606 C1602 1.343 1_655 S
C1606 C1605 1.348 . S
C1607 C1604 1.499 . S
C1607 C1608 1.373 1_455 S
C1607 C1609 1.389 . S
C1608 H1581 0.950 . S
C1608 C1594 1.377 . S
C1608 C1607 1.373 1_655 S
C1609 C1593 1.377 . S
C1609 C1607 1.389 . S
C1609 C1610 1.524 . S
C1610 C1609 1.524 . S
C1610 C1611 1.397 . S
C1610 C1615 1.363 . S
C1611 H1582 0.950 . S
C1611 C1610 1.397 . S
C1611 C1612 1.334 . S
C1612 H1583 0.950 . S
C1612 C1611 1.334 . S
C1612 C1613 1.287 . S
C1613 C1612 1.287 . S
C1613 C1614 1.524 . S
C1613 H1616 0.999 . S
C1614 H1584 0.950 . S
C1614 C1613 1.524 . S
C1614 C1615 1.415 . S
C1615 H1585 0.950 . S
C1615 C1610 1.363 . S
C1615 C1614 1.415 . S
H1616 C1613 0.999 . S
H1617 C1598 0.913 . S
H1618 C1636 0.951 . S
H1619 C1638 0.951 . S
H1620 C1640 0.950 . S
H1621 C1641 0.950 . S
H1622 C1643 0.950 . S
H1623 C1646 0.950 . S
H1624 C1647 0.950 . S
H1625 C1649 0.950 . S
H1626 C1650 0.950 . S
H1627 C1651 0.951 . S
H1628 C1653 0.951 . S
H1629 C1655 0.950 . S
H1630 C1656 0.950 . S
H1631 C1658 0.950 . S
H1632 C1661 0.950 . S
H1633 C1662 0.950 . S
H1634 C1664 0.950 . S
H1635 C1665 0.950 . S
C1636 H1618 0.951 . S
C1636 C1637 1.366 . S
C1636 C1638 1.388 . S
C1637 C1636 1.366 . S
C1637 C1641 1.385 . S
C1638 H1619 0.951 . S
C1638 C1636 1.388 . S
C1638 C1639 1.366 . S
C1639 C1638 1.366 . S
C1639 C1640 1.414 . S
C1639 C1642 1.499 . S
C1640 H1620 0.950 . S
C1640 C1639 1.414 . S
C1640 C1641 1.374 . S
C1641 H1621 0.950 . S
C1641 C1637 1.385 . S
C1641 C1640 1.374 . S
C1642 C1639 1.499 . S
C1642 C1643 1.373 . S
C1642 C1644 1.389 . S
C1643 H1622 0.950 . S
C1643 C1642 1.373 . S
C1643 C1659 1.377 . S
C1644 C1642 1.389 . S
C1644 C1645 1.524 . S
C1644 C1658 1.377 . S
C1645 C1644 1.524 . S
C1645 C1646 1.397 . S
C1645 C1650 1.363 . S
C1646 H1623 0.950 . S
C1646 C1645 1.397 . S
C1646 C1647 1.334 . S
C1647 H1624 0.950 . S
C1647 C1646 1.334 . S
C1647 C1648 1.287 . S
C1648 C1647 1.287 . S
C1648 C1649 1.524 . S
C1648 H1667 0.913 . S
C1649 H1625 0.950 . S
C1649 C1648 1.524 . S
C1649 C1650 1.415 . S
C1650 H1626 0.950 . S
C1650 C1645 1.363 . S
C1650 C1649 1.415 . S
C1651 H1627 0.951 . S
C1651 C1652 1.366 . S
C1651 C1653 1.388 . S
C1652 C1651 1.366 . S
C1652 C1656 1.385 . S
C1653 H1628 0.951 . S
C1653 C1651 1.388 . S
C1653 C1654 1.366 . S
C1654 C1653 1.366 . S
C1654 C1655 1.414 . S
C1654 C1657 1.499 . S
C1655 H1629 0.950 . S
C1655 C1654 1.414 . S
C1655 C1656 1.374 . S
C1656 H1630 0.950 . S
C1656 C1652 1.385 . S
C1656 C1655 1.374 . S
C1657 C1654 1.499 . S
C1657 C1658 1.373 . S
C1657 C1659 1.389 . S
C1658 H1631 0.950 . S
C1658 C1644 1.377 . S
C1658 C1657 1.373 . S
C1659 C1643 1.377 . S
C1659 C1657 1.389 . S
C1659 C1660 1.524 . S
C1660 C1659 1.524 . S
C1660 C1661 1.397 . S
C1660 C1665 1.363 . S
C1661 H1632 0.950 . S
C1661 C1660 1.397 . S
C1661 C1662 1.334 . S
C1662 H1633 0.950 . S
C1662 C1661 1.334 . S
C1662 C1663 1.287 . S
C1663 C1662 1.287 . S
C1663 C1664 1.524 . S
C1663 H1666 0.999 . S
C1664 H1634 0.950 . S
C1664 C1663 1.524 . S
C1664 C1665 1.415 . S
C1665 H1635 0.950 . S
C1665 C1660 1.363 . S
C1665 C1664 1.415 . S
H1666 C1663 0.999 . S
H1667 C1648 0.913 . S
H1668 C1686 0.951 . S
H1669 C1688 0.951 . S
H1670 C1690 0.950 . S
H1671 C1691 0.950 . S
H1672 C1693 0.950 . S
H1673 C1696 0.950 . S
H1674 C1697 0.950 . S
H1675 C1699 0.950 . S
H1676 C1700 0.950 . S
H1677 C1701 0.951 . S
H1678 C1703 0.951 . S
H1679 C1705 0.950 . S
H1680 C1706 0.950 . S
H1681 C1708 0.950 . S
H1682 C1711 0.950 . S
H1683 C1712 0.950 . S
H1684 C1714 0.950 . S
H1685 C1715 0.950 . S
C1686 H1668 0.951 . S
C1686 C1687 1.366 . S
C1686 C1688 1.388 . S
C1687 C1686 1.366 . S
C1687 C1691 1.385 1_455 S
C1688 H1669 0.951 . S
C1688 C1686 1.388 . S
C1688 C1689 1.366 . S
C1689 C1688 1.366 . S
C1689 C1690 1.414 1_455 S
C1689 C1692 1.499 . S
C1690 H1670 0.950 . S
C1690 C1689 1.414 1_655 S
C1690 C1691 1.374 . S
C1691 H1671 0.950 . S
C1691 C1687 1.385 1_655 S
C1691 C1690 1.374 . S
C1692 C1689 1.499 . S
C1692 C1693 1.373 1_455 S
C1692 C1694 1.389 . S
C1693 H1672 0.950 . S
C1693 C1692 1.373 1_655 S
C1693 C1709 1.377 . S
C1694 C1692 1.389 . S
C1694 C1695 1.524 . S
C1694 C1708 1.377 . S
C1695 C1694 1.524 . S
C1695 C1696 1.397 . S
C1695 C1700 1.363 . S
C1696 H1673 0.950 . S
C1696 C1695 1.397 . S
C1696 C1697 1.334 . S
C1697 H1674 0.950 . S
C1697 C1696 1.334 . S
C1697 C1698 1.287 . S
C1698 C1697 1.287 . S
C1698 C1699 1.524 . S
C1698 H1717 0.913 . S
C1699 H1675 0.950 . S
C1699 C1698 1.524 . S
C1699 C1700 1.415 . S
C1700 H1676 0.950 . S
C1700 C1695 1.363 . S
C1700 C1699 1.415 . S
C1701 H1677 0.951 . S
C1701 C1702 1.366 1_655 S
C1701 C1703 1.388 . S
C1702 C1701 1.366 1_455 S
C1702 C1706 1.385 . S
C1703 H1678 0.951 . S
C1703 C1701 1.388 . S
C1703 C1704 1.366 1_655 S
C1704 C1703 1.366 1_455 S
C1704 C1705 1.414 . S
C1704 C1707 1.499 . S
C1705 H1679 0.950 . S
C1705 C1704 1.414 . S
C1705 C1706 1.374 . S
C1706 H1680 0.950 . S
C1706 C1702 1.385 . S
C1706 C1705 1.374 . S
C1707 C1704 1.499 . S
C1707 C1708 1.373 . S
C1707 C1709 1.389 1_455 S
C1708 H1681 0.950 . S
C1708 C1694 1.377 . S
C1708 C1707 1.373 . S
C1709 C1693 1.377 . S
C1709 C1707 1.389 1_655 S
C1709 C1710 1.524 . S
C1710 C1709 1.524 . S
C1710 C1711 1.397 . S
C1710 C1715 1.363 . S
C1711 H1682 0.950 . S
C1711 C1710 1.397 . S
C1711 C1712 1.334 . S
C1712 H1683 0.950 . S
C1712 C1711 1.334 . S
C1712 C1713 1.287 . S
C1713 C1712 1.287 . S
C1713 C1714 1.524 . S
C1713 H1716 0.999 . S
C1714 H1684 0.950 . S
C1714 C1713 1.524 . S
C1714 C1715 1.415 . S
C1715 H1685 0.950 . S
C1715 C1710 1.363 . S
C1715 C1714 1.415 . S
H1716 C1713 0.999 . S
H1717 C1698 0.913 . S
H1718 C1736 0.951 . S
H1719 C1738 0.951 . S
H1720 C1740 0.950 . S
H1721 C1741 0.950 . S
H1722 C1743 0.950 . S
H1723 C1746 0.950 . S
H1724 C1747 0.950 . S
H1725 C1749 0.950 . S
H1726 C1750 0.950 . S
H1727 C1751 0.951 . S
H1728 C1753 0.951 . S
H1729 C1755 0.950 . S
H1730 C1756 0.950 . S
H1731 C1758 0.950 . S
H1732 C1761 0.950 . S
H1733 C1762 0.950 . S
H1734 C1764 0.950 . S
H1735 C1765 0.950 . S
C1736 H1718 0.951 . S
C1736 C1737 1.366 . S
C1736 C1738 1.388 . S
C1737 C1736 1.366 . S
C1737 C1741 1.385 . S
C1738 H1719 0.951 . S
C1738 C1736 1.388 . S
C1738 C1739 1.366 . S
C1739 C1738 1.366 . S
C1739 C1740 1.414 . S
C1739 C1742 1.499 . S
C1740 H1720 0.950 . S
C1740 C1739 1.414 . S
C1740 C1741 1.374 . S
C1741 H1721 0.950 . S
C1741 C1737 1.385 . S
C1741 C1740 1.374 . S
C1742 C1739 1.499 . S
C1742 C1743 1.373 . S
C1742 C1744 1.389 . S
C1743 H1722 0.950 . S
C1743 C1742 1.373 . S
C1743 C1759 1.377 . S
C1744 C1742 1.389 . S
C1744 C1745 1.524 . S
C1744 C1758 1.377 . S
C1745 C1744 1.524 . S
C1745 C1746 1.397 . S
C1745 C1750 1.363 . S
C1746 H1723 0.950 . S
C1746 C1745 1.397 . S
C1746 C1747 1.334 . S
C1747 H1724 0.950 . S
C1747 C1746 1.334 . S
C1747 C1748 1.287 . S
C1748 C1747 1.287 . S
C1748 C1749 1.524 . S
C1748 H1767 0.913 . S
C1749 H1725 0.950 . S
C1749 C1748 1.524 . S
C1749 C1750 1.415 . S
C1750 H1726 0.950 . S
C1750 C1745 1.363 . S
C1750 C1749 1.415 . S
C1751 H1727 0.951 . S
C1751 C1752 1.366 . S
C1751 C1753 1.388 . S
C1752 C1751 1.366 . S
C1752 C1756 1.385 . S
C1753 H1728 0.951 . S
C1753 C1751 1.388 . S
C1753 C1754 1.366 . S
C1754 C1753 1.366 . S
C1754 C1755 1.414 . S
C1754 C1757 1.499 . S
C1755 H1729 0.950 . S
C1755 C1754 1.414 . S
C1755 C1756 1.374 . S
C1756 H1730 0.950 . S
C1756 C1752 1.385 . S
C1756 C1755 1.374 . S
C1757 C1754 1.499 . S
C1757 C1758 1.373 . S
C1757 C1759 1.389 . S
C1758 H1731 0.950 . S
C1758 C1744 1.377 . S
C1758 C1757 1.373 . S
C1759 C1743 1.377 . S
C1759 C1757 1.389 . S
C1759 C1760 1.524 . S
C1760 C1759 1.524 . S
C1760 C1761 1.397 . S
C1760 C1765 1.363 . S
C1761 H1732 0.950 . S
C1761 C1760 1.397 . S
C1761 C1762 1.334 . S
C1762 H1733 0.950 . S
C1762 C1761 1.334 . S
C1762 C1763 1.287 . S
C1763 C1762 1.287 . S
C1763 C1764 1.524 . S
C1763 H1766 0.999 . S
C1764 H1734 0.950 . S
C1764 C1763 1.524 . S
C1764 C1765 1.415 . S
C1765 H1735 0.950 . S
C1765 C1760 1.363 . S
C1765 C1764 1.415 . S
H1766 C1763 0.999 . S
H1767 C1748 0.913 . S
H1768 C1786 0.951 . S
H1769 C1788 0.951 . S
H1770 C1790 0.950 . S
H1771 C1791 0.950 . S
H1772 C1793 0.950 . S
H1773 C1796 0.950 . S
H1774 C1797 0.950 . S
H1775 C1799 0.950 . S
H1776 C1800 0.950 . S
H1777 C1801 0.951 . S
H1778 C1803 0.951 . S
H1779 C1805 0.950 . S
H1780 C1806 0.950 . S
H1781 C1808 0.950 . S
H1782 C1811 0.950 . S
H1783 C1812 0.950 . S
H1784 C1814 0.950 . S
H1785 C1815 0.950 . S
C1786 H1768 0.951 . S
C1786 C1787 1.366 . S
C1786 C1788 1.388 . S
C1787 C1786 1.366 . S
C1787 C1791 1.385 1_565 S
C1788 H1769 0.951 . S
C1788 C1786 1.388 . S
C1788 C1789 1.366 . S
C1789 C1788 1.366 . S
C1789 C1790 1.414 1_565 S
C1789 C1792 1.499 . S
C1790 H1770 0.950 . S
C1790 C1789 1.414 1_545 S
C1790 C1791 1.374 . S
C1791 H1771 0.950 . S
C1791 C1787 1.385 1_545 S
C1791 C1790 1.374 . S
C1792 C1789 1.499 . S
C1792 C1793 1.373 1_565 S
C1792 C1794 1.389 . S
C1793 H1772 0.950 . S
C1793 C1792 1.373 1_545 S
C1793 C1809 1.377 . S
C1794 C1792 1.389 . S
C1794 C1795 1.524 . S
C1794 C1808 1.377 . S
C1795 C1794 1.524 . S
C1795 C1796 1.397 . S
C1795 C1800 1.363 . S
C1796 H1773 0.950 . S
C1796 C1795 1.397 . S
C1796 C1797 1.334 . S
C1797 H1774 0.950 . S
C1797 C1796 1.334 . S
C1797 C1798 1.287 . S
C1798 C1797 1.287 . S
C1798 C1799 1.524 . S
C1798 H1817 0.913 . S
C1799 H1775 0.950 . S
C1799 C1798 1.524 . S
C1799 C1800 1.415 . S
C1800 H1776 0.950 . S
C1800 C1795 1.363 . S
C1800 C1799 1.415 . S
C1801 H1777 0.951 . S
C1801 C1802 1.366 1_545 S
C1801 C1803 1.388 . S
C1802 C1801 1.366 1_565 S
C1802 C1806 1.385 . S
C1803 H1778 0.951 . S
C1803 C1801 1.388 . S
C1803 C1804 1.366 1_545 S
C1804 C1803 1.366 1_565 S
C1804 C1805 1.414 . S
C1804 C1807 1.499 . S
C1805 H1779 0.950 . S
C1805 C1804 1.414 . S
C1805 C1806 1.374 . S
C1806 H1780 0.950 . S
C1806 C1802 1.385 . S
C1806 C1805 1.374 . S
C1807 C1804 1.499 . S
C1807 C1808 1.373 . S
C1807 C1809 1.389 1_565 S
C1808 H1781 0.950 . S
C1808 C1794 1.377 . S
C1808 C1807 1.373 . S
C1809 C1793 1.377 . S
C1809 C1807 1.389 1_545 S
C1809 C1810 1.524 . S
C1810 C1809 1.524 . S
C1810 C1811 1.397 . S
C1810 C1815 1.363 . S
C1811 H1782 0.950 . S
C1811 C1810 1.397 . S
C1811 C1812 1.334 . S
C1812 H1783 0.950 . S
C1812 C1811 1.334 . S
C1812 C1813 1.287 . S
C1813 C1812 1.287 . S
C1813 C1814 1.524 . S
C1813 H1816 0.999 . S
C1814 H1784 0.950 . S
C1814 C1813 1.524 . S
C1814 C1815 1.415 . S
C1815 H1785 0.950 . S
C1815 C1810 1.363 . S
C1815 C1814 1.415 . S
H1816 C1813 0.999 . S
H1817 C1798 0.913 . S
H1818 C1836 0.951 . S
H1819 C1838 0.951 . S
H1820 C1840 0.950 . S
H1821 C1841 0.950 . S
H1822 C1843 0.950 1_565 S
H1823 C1846 0.950 . S
H1824 C1847 0.950 . S
H1825 C1849 0.950 . S
H1826 C1850 0.950 . S
H1827 C1851 0.951 . S
H1828 C1853 0.951 . S
H1829 C1855 0.950 . S
H1830 C1856 0.944 . S
H1831 C1858 0.950 . S
H1832 C1861 0.950 . S
H1833 C1862 0.950 . S
H1834 C1864 0.950 . S
H1835 C1865 0.952 1_545 S
C1836 H1818 0.951 . S
C1836 C1837 1.366 . S
C1836 C1838 1.388 . S
C1837 C1836 1.366 . S
C1837 C1841 1.385 . S
C1838 H1819 0.951 . S
C1838 C1836 1.388 . S
C1838 C1839 1.366 . S
C1839 C1838 1.366 . S
C1839 C1840 1.414 . S
C1839 C1842 1.499 . S
C1840 H1820 0.950 . S
C1840 C1839 1.414 . S
C1840 C1841 1.374 . S
C1841 H1821 0.950 . S
C1841 C1837 1.385 . S
C1841 C1840 1.374 . S
C1842 C1839 1.499 . S
C1842 C1843 1.373 . S
C1842 C1844 1.389 . S
C1843 H1822 0.950 1_545 S
C1843 C1842 1.373 . S
C1843 C1859 1.361 . S
C1844 C1842 1.389 . S
C1844 C1845 1.524 . S
C1844 C1858 1.377 . S
C1845 C1844 1.524 . S
C1845 C1846 1.397 . S
C1845 C1850 1.363 . S
C1846 H1823 0.950 . S
C1846 C1845 1.397 . S
C1846 C1847 1.334 . S
C1847 H1824 0.950 . S
C1847 C1846 1.334 . S
C1847 C1848 1.287 . S
C1848 C1847 1.287 . S
C1848 C1849 1.524 . S
C1848 H1867 0.913 . S
C1849 H1825 0.950 . S
C1849 C1848 1.524 . S
C1849 C1850 1.415 . S
C1850 H1826 0.950 . S
C1850 C1845 1.363 . S
C1850 C1849 1.415 . S
C1851 H1827 0.951 . S
C1851 C1852 1.366 . S
C1851 C1853 1.388 . S
C1852 C1851 1.366 . S
C1852 C1856 1.385 . S
C1853 H1828 0.951 . S
C1853 C1851 1.388 . S
C1853 C1854 1.366 . S
C1854 C1853 1.366 . S
C1854 C1855 1.414 . S
C1854 C1857 1.499 . S
C1855 H1829 0.950 . S
C1855 C1854 1.414 . S
C1855 C1856 1.374 . S
C1856 H1830 0.944 . S
C1856 C1852 1.385 . S
C1856 C1855 1.374 . S
C1857 C1854 1.499 . S
C1857 C1858 1.373 . S
C1857 C1859 1.438 . S
C1858 H1831 0.950 . S
C1858 C1844 1.377 . S
C1858 C1857 1.373 . S
C1859 C1843 1.361 . S
C1859 C1857 1.438 . S
C1859 C1860 1.489 1_545 S
C1860 C1859 1.489 1_565 S
C1860 C1861 1.397 . S
C1860 C1865 1.363 . S
C1861 H1832 0.950 . S
C1861 C1860 1.397 . S
C1861 C1862 1.334 . S
C1862 H1833 0.950 . S
C1862 C1861 1.334 . S
C1862 C1863 1.287 . S
C1863 C1862 1.287 . S
C1863 C1864 1.524 . S
C1863 H1866 0.999 . S
C1864 H1834 0.950 . S
C1864 C1863 1.524 . S
C1864 C1865 1.415 . S
C1865 H1835 0.952 1_565 S
C1865 C1860 1.363 . S
C1865 C1864 1.415 . S
H1866 C1863 0.999 . S
H1867 C1848 0.913 . S
H1868 C1886 0.951 . S
H1869 C1888 0.951 . S
H1870 C1890 0.950 . S
H1871 C1891 0.950 . S
H1872 C1893 0.950 . S
H1873 C1896 0.950 . S
H1874 C1897 0.950 . S
H1875 C1899 0.950 . S
H1876 C1900 0.950 . S
H1877 C1901 0.951 . S
H1878 C1903 0.951 . S
H1879 C1905 0.950 . S
H1880 C1906 0.950 . S
H1881 C1908 0.950 . S
H1882 C1911 0.950 . S
H1883 C1912 0.950 . S
H1884 C1914 0.950 . S
H1885 C1915 0.950 . S
C1886 H1868 0.951 . S
C1886 C1887 1.366 . S
C1886 C1888 1.388 . S
C1887 C1886 1.366 . S
C1887 C1891 1.385 . S
C1888 H1869 0.951 . S
C1888 C1886 1.388 . S
C1888 C1889 1.366 . S
C1889 C1888 1.366 . S
C1889 C1890 1.414 . S
C1889 C1892 1.499 . S
C1890 H1870 0.950 . S
C1890 C1889 1.414 . S
C1890 C1891 1.374 . S
C1891 H1871 0.950 . S
C1891 C1887 1.385 . S
C1891 C1890 1.374 . S
C1892 C1889 1.499 . S
C1892 C1893 1.373 . S
C1892 C1894 1.389 1_655 S
C1893 H1872 0.950 . S
C1893 C1892 1.373 . S
C1893 C1909 1.377 . S
C1894 C1892 1.389 1_455 S
C1894 C1895 1.524 . S
C1894 C1908 1.377 . S
C1895 C1894 1.524 . S
C1895 C1896 1.397 . S
C1895 C1900 1.363 . S
C1896 H1873 0.950 . S
C1896 C1895 1.397 . S
C1896 C1897 1.334 . S
C1897 H1874 0.950 . S
C1897 C1896 1.334 . S
C1897 C1898 1.287 . S
C1898 C1897 1.287 . S
C1898 C1899 1.524 . S
C1898 H1917 0.913 . S
C1899 H1875 0.950 . S
C1899 C1898 1.524 . S
C1899 C1900 1.415 . S
C1900 H1876 0.950 . S
C1900 C1895 1.363 . S
C1900 C1899 1.415 . S
C1901 H1877 0.951 . S
C1901 C1902 1.366 . S
C1901 C1903 1.388 . S
C1902 C1901 1.366 . S
C1902 C1906 1.385 . S
C1903 H1878 0.951 . S
C1903 C1901 1.388 . S
C1903 C1904 1.366 . S
C1904 C1903 1.366 . S
C1904 C1905 1.414 . S
C1904 C1907 1.499 . S
C1905 H1879 0.950 . S
C1905 C1904 1.414 . S
C1905 C1906 1.374 . S
C1906 H1880 0.950 . S
C1906 C1902 1.385 . S
C1906 C1905 1.374 . S
C1907 C1904 1.499 . S
C1907 C1908 1.373 1_655 S
C1907 C1909 1.389 . S
C1908 H1881 0.950 . S
C1908 C1894 1.377 . S
C1908 C1907 1.373 1_455 S
C1909 C1893 1.377 . S
C1909 C1907 1.389 . S
C1909 C1910 1.524 . S
C1910 C1909 1.524 . S
C1910 C1911 1.397 . S
C1910 C1915 1.363 . S
C1911 H1882 0.950 . S
C1911 C1910 1.397 . S
C1911 C1912 1.334 . S
C1912 H1883 0.950 . S
C1912 C1911 1.334 . S
C1912 C1913 1.287 . S
C1913 C1912 1.287 . S
C1913 C1914 1.524 . S
C1913 H1916 0.999 . S
C1914 H1884 0.950 . S
C1914 C1913 1.524 . S
C1914 C1915 1.415 . S
C1915 H1885 0.950 . S
C1915 C1910 1.363 . S
C1915 C1914 1.415 . S
H1916 C1913 0.999 . S
H1917 C1898 0.913 . S
H1918 C1936 0.951 . S
H1919 C1938 0.951 . S
H1920 C1940 0.950 . S
H1921 C1941 0.950 . S
H1922 C1943 0.950 . S
H1923 C1946 0.950 . S
H1924 C1947 0.950 . S
H1925 C1949 0.950 . S
H1926 C1950 0.950 . S
H1927 C1951 0.951 . S
H1928 C1953 0.951 . S
H1929 C1955 0.950 . S
H1930 C1956 0.950 . S
H1931 C1958 0.950 . S
H1932 C1961 0.950 . S
H1933 C1962 0.950 . S
H1934 C1964 0.950 . S
H1935 C1965 0.950 . S
C1936 H1918 0.951 . S
C1936 C1937 1.366 . S
C1936 C1938 1.388 . S
C1937 C1936 1.366 . S
C1937 C1941 1.385 . S
C1938 H1919 0.951 . S
C1938 C1936 1.388 . S
C1938 C1939 1.366 . S
C1939 C1938 1.366 . S
C1939 C1940 1.414 . S
C1939 C1942 1.499 . S
C1940 H1920 0.950 . S
C1940 C1939 1.414 . S
C1940 C1941 1.374 . S
C1941 H1921 0.950 . S
C1941 C1937 1.385 . S
C1941 C1940 1.374 . S
C1942 C1939 1.499 . S
C1942 C1943 1.373 . S
C1942 C1944 1.389 . S
C1943 H1922 0.950 . S
C1943 C1942 1.373 . S
C1943 C1959 1.377 . S
C1944 C1942 1.389 . S
C1944 C1945 1.524 . S
C1944 C1958 1.377 . S
C1945 C1944 1.524 . S
C1945 C1946 1.397 . S
C1945 C1950 1.363 . S
C1946 H1923 0.950 . S
C1946 C1945 1.397 . S
C1946 C1947 1.334 . S
C1947 H1924 0.950 . S
C1947 C1946 1.334 . S
C1947 C1948 1.287 . S
C1948 C1947 1.287 . S
C1948 C1949 1.524 . S
C1948 H1967 0.913 . S
C1949 H1925 0.950 . S
C1949 C1948 1.524 . S
C1949 C1950 1.415 . S
C1950 H1926 0.950 . S
C1950 C1945 1.363 . S
C1950 C1949 1.415 . S
C1951 H1927 0.951 . S
C1951 C1952 1.366 . S
C1951 C1953 1.388 . S
C1952 C1951 1.366 . S
C1952 C1956 1.385 . S
C1953 H1928 0.951 . S
C1953 C1951 1.388 . S
C1953 C1954 1.366 . S
C1954 C1953 1.366 . S
C1954 C1955 1.414 . S
C1954 C1957 1.499 . S
C1955 H1929 0.950 . S
C1955 C1954 1.414 . S
C1955 C1956 1.374 . S
C1956 H1930 0.950 . S
C1956 C1952 1.385 . S
C1956 C1955 1.374 . S
C1957 C1954 1.499 . S
C1957 C1958 1.373 . S
C1957 C1959 1.389 . S
C1958 H1931 0.950 . S
C1958 C1944 1.377 . S
C1958 C1957 1.373 . S
C1959 C1943 1.377 . S
C1959 C1957 1.389 . S
C1959 C1960 1.524 . S
C1960 C1959 1.524 . S
C1960 C1961 1.397 . S
C1960 C1965 1.363 . S
C1961 H1932 0.950 . S
C1961 C1960 1.397 . S
C1961 C1962 1.334 . S
C1962 H1933 0.950 . S
C1962 C1961 1.334 . S
C1962 C1963 1.287 . S
C1963 C1962 1.287 . S
C1963 C1964 1.524 . S
C1963 H1966 0.999 . S
C1964 H1934 0.950 . S
C1964 C1963 1.524 . S
C1964 C1965 1.415 . S
C1965 H1935 0.950 . S
C1965 C1960 1.363 . S
C1965 C1964 1.415 . S
H1966 C1963 0.999 . S
H1967 C1948 0.913 . S
H1968 C1986 0.951 . S
H1969 C1988 0.951 . S
H1970 C1990 0.950 . S
H1971 C1991 0.950 . S
H1972 C1993 0.950 . S
H1973 C1996 0.950 . S
H1974 C1997 0.950 . S
H1975 C1999 0.950 . S
H1976 C2000 0.950 . S
H1977 C2001 0.951 . S
H1978 C2003 0.951 . S
H1979 C2005 0.950 . S
H1980 C2006 0.950 . S
H1981 C2008 0.950 . S
H1982 C2011 0.950 . S
H1983 C2012 0.950 . S
H1984 C2014 0.950 . S
H1985 C2015 0.950 . S
C1986 H1968 0.951 . S
C1986 C1987 1.366 . S
C1986 C1988 1.388 . S
C1987 C1986 1.366 . S
C1987 C1991 1.385 . S
C1988 H1969 0.951 . S
C1988 C1986 1.388 . S
C1988 C1989 1.366 . S
C1989 C1988 1.366 . S
C1989 C1990 1.414 . S
C1989 C1992 1.499 . S
C1990 H1970 0.950 . S
C1990 C1989 1.414 . S
C1990 C1991 1.374 . S
C1991 H1971 0.950 . S
C1991 C1987 1.385 . S
C1991 C1990 1.374 . S
C1992 C1989 1.499 . S
C1992 C1993 1.373 . S
C1992 C1994 1.389 . S
C1993 H1972 0.950 . S
C1993 C1992 1.373 . S
C1993 C2009 1.377 . S
C1994 C1992 1.389 . S
C1994 C1995 1.524 . S
C1994 C2008 1.377 . S
C1995 C1994 1.524 . S
C1995 C1996 1.397 . S
C1995 C2000 1.363 . S
C1996 H1973 0.950 . S
C1996 C1995 1.397 . S
C1996 C1997 1.334 . S
C1997 H1974 0.950 . S
C1997 C1996 1.334 . S
C1997 C1998 1.287 . S
C1998 C1997 1.287 . S
C1998 C1999 1.524 . S
C1998 H2017 0.913 . S
C1999 H1975 0.950 . S
C1999 C1998 1.524 . S
C1999 C2000 1.415 . S
C2000 H1976 0.950 . S
C2000 C1995 1.363 . S
C2000 C1999 1.415 . S
C2001 H1977 0.951 . S
C2001 C2002 1.366 . S
C2001 C2003 1.388 . S
C2002 C2001 1.366 . S
C2002 C2006 1.385 . S
C2003 H1978 0.951 . S
C2003 C2001 1.388 . S
C2003 C2004 1.366 . S
C2004 C2003 1.366 . S
C2004 C2005 1.414 . S
C2004 C2007 1.499 . S
C2005 H1979 0.950 . S
C2005 C2004 1.414 . S
C2005 C2006 1.374 . S
C2006 H1980 0.950 . S
C2006 C2002 1.385 . S
C2006 C2005 1.374 . S
C2007 C2004 1.499 . S
C2007 C2008 1.373 . S
C2007 C2009 1.389 . S
C2008 H1981 0.950 . S
C2008 C1994 1.377 . S
C2008 C2007 1.373 . S
C2009 C1993 1.377 . S
C2009 C2007 1.389 . S
C2009 C2010 1.524 . S
C2010 C2009 1.524 . S
C2010 C2011 1.397 . S
C2010 C2015 1.363 . S
C2011 H1982 0.950 . S
C2011 C2010 1.397 . S
C2011 C2012 1.334 . S
C2012 H1983 0.950 . S
C2012 C2011 1.334 . S
C2012 C2013 1.287 . S
C2013 C2012 1.287 . S
C2013 C2014 1.524 . S
C2013 H2016 0.999 . S
C2014 H1984 0.950 . S
C2014 C2013 1.524 . S
C2014 C2015 1.415 . S
C2015 H1985 0.950 . S
C2015 C2010 1.363 . S
C2015 C2014 1.415 . S
H2016 C2013 0.999 . S
H2017 C1998 0.913 . S
H2018 C2036 0.951 . S
H2019 C2038 0.951 . S
H2020 C2040 0.950 . S
H2021 C2041 0.950 . S
H2022 C2043 0.950 . S
H2023 C2046 0.950 . S
H2024 C2047 0.950 . S
H2025 C2049 0.950 . S
H2026 C2050 0.950 . S
H2027 C2051 0.951 . S
H2028 C2053 0.951 . S
H2029 C2055 0.950 . S
H2030 C2056 0.950 . S
H2031 C2058 0.950 . S
H2032 C2061 0.950 . S
H2033 C2062 0.950 . S
H2034 C2064 0.950 . S
H2035 C2065 0.950 . S
C2036 H2018 0.951 . S
C2036 C2037 1.366 . S
C2036 C2038 1.388 . S
C2037 C2036 1.366 . S
C2037 C2041 1.385 . S
C2038 H2019 0.951 . S
C2038 C2036 1.388 . S
C2038 C2039 1.366 . S
C2039 C2038 1.366 . S
C2039 C2040 1.414 . S
C2039 C2042 1.499 . S
C2040 H2020 0.950 . S
C2040 C2039 1.414 . S
C2040 C2041 1.374 . S
C2041 H2021 0.950 . S
C2041 C2037 1.385 . S
C2041 C2040 1.374 . S
C2042 C2039 1.499 . S
C2042 C2043 1.373 . S
C2042 C2044 1.389 . S
C2043 H2022 0.950 . S
C2043 C2042 1.373 . S
C2043 C2059 1.377 . S
C2044 C2042 1.389 . S
C2044 C2045 1.524 . S
C2044 C2058 1.377 . S
C2045 C2044 1.524 . S
C2045 C2046 1.397 . S
C2045 C2050 1.363 . S
C2046 H2023 0.950 . S
C2046 C2045 1.397 . S
C2046 C2047 1.334 . S
C2047 H2024 0.950 . S
C2047 C2046 1.334 . S
C2047 C2048 1.287 . S
C2048 C2047 1.287 . S
C2048 C2049 1.524 . S
C2048 H2067 0.913 . S
C2049 H2025 0.950 . S
C2049 C2048 1.524 . S
C2049 C2050 1.415 . S
C2050 H2026 0.950 . S
C2050 C2045 1.363 . S
C2050 C2049 1.415 . S
C2051 H2027 0.951 . S
C2051 C2052 1.366 . S
C2051 C2053 1.388 . S
C2052 C2051 1.366 . S
C2052 C2056 1.385 . S
C2053 H2028 0.951 . S
C2053 C2051 1.388 . S
C2053 C2054 1.366 . S
C2054 C2053 1.366 . S
C2054 C2055 1.414 . S
C2054 C2057 1.499 . S
C2055 H2029 0.950 . S
C2055 C2054 1.414 . S
C2055 C2056 1.374 . S
C2056 H2030 0.950 . S
C2056 C2052 1.385 . S
C2056 C2055 1.374 . S
C2057 C2054 1.499 . S
C2057 C2058 1.373 . S
C2057 C2059 1.389 . S
C2058 H2031 0.950 . S
C2058 C2044 1.377 . S
C2058 C2057 1.373 . S
C2059 C2043 1.377 . S
C2059 C2057 1.389 . S
C2059 C2060 1.524 . S
C2060 C2059 1.524 . S
C2060 C2061 1.397 . S
C2060 C2065 1.363 . S
C2061 H2032 0.950 . S
C2061 C2060 1.397 . S
C2061 C2062 1.334 . S
C2062 H2033 0.950 . S
C2062 C2061 1.334 . S
C2062 C2063 1.287 . S
C2063 C2062 1.287 . S
C2063 C2064 1.524 . S
C2063 H2066 0.999 . S
C2064 H2034 0.950 . S
C2064 C2063 1.524 . S
C2064 C2065 1.415 . S
C2065 H2035 0.950 . S
C2065 C2060 1.363 . S
C2065 C2064 1.415 . S
H2066 C2063 0.999 . S
H2067 C2048 0.913 . S
H2068 C2086 0.951 . S
H2069 C2088 0.951 . S
H2070 C2090 0.950 . S
H2071 C2091 0.950 . S
H2072 C2093 0.950 . S
H2073 C2096 0.950 . S
H2074 C2097 0.950 . S
H2075 C2099 0.950 . S
H2076 C2100 0.950 . S
H2077 C2101 0.951 . S
H2078 C2103 0.951 . S
H2079 C2105 0.950 . S
H2080 C2106 0.950 . S
H2081 C2108 0.950 . S
H2082 C2111 0.950 . S
H2083 C2112 0.950 . S
H2084 C2114 0.950 . S
H2085 C2115 0.950 . S
C2086 H2068 0.951 . S
C2086 C2087 1.366 . S
C2086 C2088 1.388 . S
C2087 C2086 1.366 . S
C2087 C2091 1.385 . S
C2088 H2069 0.951 . S
C2088 C2086 1.388 . S
C2088 C2089 1.366 . S
C2089 C2088 1.366 . S
C2089 C2090 1.414 . S
C2089 C2092 1.499 . S
C2090 H2070 0.950 . S
C2090 C2089 1.414 . S
C2090 C2091 1.374 . S
C2091 H2071 0.950 . S
C2091 C2087 1.385 . S
C2091 C2090 1.374 . S
C2092 C2089 1.499 . S
C2092 C2093 1.373 . S
C2092 C2094 1.389 . S
C2093 H2072 0.950 . S
C2093 C2092 1.373 . S
C2093 C2109 1.377 . S
C2094 C2092 1.389 . S
C2094 C2095 1.524 . S
C2094 C2108 1.377 . S
C2095 C2094 1.524 . S
C2095 C2096 1.397 . S
C2095 C2100 1.363 . S
C2096 H2073 0.950 . S
C2096 C2095 1.397 . S
C2096 C2097 1.334 . S
C2097 H2074 0.950 . S
C2097 C2096 1.334 . S
C2097 C2098 1.287 . S
C2098 C2097 1.287 . S
C2098 C2099 1.524 . S
C2098 H2117 0.913 . S
C2099 H2075 0.950 . S
C2099 C2098 1.524 . S
C2099 C2100 1.415 . S
C2100 H2076 0.950 . S
C2100 C2095 1.363 . S
C2100 C2099 1.415 . S
C2101 H2077 0.951 . S
C2101 C2102 1.366 . S
C2101 C2103 1.388 . S
C2102 C2101 1.366 . S
C2102 C2106 1.385 . S
C2103 H2078 0.951 . S
C2103 C2101 1.388 . S
C2103 C2104 1.366 . S
C2104 C2103 1.366 . S
C2104 C2105 1.414 . S
C2104 C2107 1.499 . S
C2105 H2079 0.950 . S
C2105 C2104 1.414 . S
C2105 C2106 1.374 . S
C2106 H2080 0.950 . S
C2106 C2102 1.385 . S
C2106 C2105 1.374 . S
C2107 C2104 1.499 . S
C2107 C2108 1.373 . S
C2107 C2109 1.389 . S
C2108 H2081 0.950 . S
C2108 C2094 1.377 . S
C2108 C2107 1.373 . S
C2109 C2093 1.377 . S
C2109 C2107 1.389 . S
C2109 C2110 1.524 . S
C2110 C2109 1.524 . S
C2110 C2111 1.397 . S
C2110 C2115 1.363 . S
C2111 H2082 0.950 . S
C2111 C2110 1.397 . S
C2111 C2112 1.334 . S
C2112 H2083 0.950 . S
C2112 C2111 1.334 . S
C2112 C2113 1.287 . S
C2113 C2112 1.287 . S
C2113 C2114 1.524 . S
C2113 H2116 0.999 . S
C2114 H2084 0.950 . S
C2114 C2113 1.524 . S
C2114 C2115 1.415 . S
C2115 H2085 0.950 . S
C2115 C2110 1.363 . S
C2115 C2114 1.415 . S
H2116 C2113 0.999 . S
H2117 C2098 0.913 . S
H2118 C2136 0.951 . S
H2119 C2138 0.951 . S
H2120 C2140 0.950 . S
H2121 C2141 0.950 . S
H2122 C2143 0.950 . S
H2123 C2146 0.950 . S
H2124 C2147 0.950 . S
H2125 C2149 0.950 . S
H2126 C2150 0.950 . S
H2127 C2151 0.951 . S
H2128 C2153 0.951 . S
H2129 C2155 0.950 . S
H2130 C2156 0.950 . S
H2131 C2158 0.950 . S
H2132 C2161 0.950 . S
H2133 C2162 0.950 . S
H2134 C2164 0.950 . S
H2135 C2165 0.950 . S
C2136 H2118 0.951 . S
C2136 C2137 1.366 . S
C2136 C2138 1.388 . S
C2137 C2136 1.366 . S
C2137 C2141 1.385 . S
C2138 H2119 0.951 . S
C2138 C2136 1.388 . S
C2138 C2139 1.366 . S
C2139 C2138 1.366 . S
C2139 C2140 1.414 . S
C2139 C2142 1.499 . S
C2140 H2120 0.950 . S
C2140 C2139 1.414 . S
C2140 C2141 1.374 . S
C2141 H2121 0.950 . S
C2141 C2137 1.385 . S
C2141 C2140 1.374 . S
C2142 C2139 1.499 . S
C2142 C2143 1.373 . S
C2142 C2144 1.389 . S
C2143 H2122 0.950 . S
C2143 C2142 1.373 . S
C2143 C2159 1.377 . S
C2144 C2142 1.389 . S
C2144 C2145 1.524 . S
C2144 C2158 1.377 . S
C2145 C2144 1.524 . S
C2145 C2146 1.397 . S
C2145 C2150 1.363 . S
C2146 H2123 0.950 . S
C2146 C2145 1.397 . S
C2146 C2147 1.334 . S
C2147 H2124 0.950 . S
C2147 C2146 1.334 . S
C2147 C2148 1.287 . S
C2148 C2147 1.287 . S
C2148 C2149 1.524 . S
C2148 H2167 0.913 . S
C2149 H2125 0.950 . S
C2149 C2148 1.524 . S
C2149 C2150 1.415 . S
C2150 H2126 0.950 . S
C2150 C2145 1.363 . S
C2150 C2149 1.415 . S
C2151 H2127 0.951 . S
C2151 C2152 1.366 . S
C2151 C2153 1.388 . S
C2152 C2151 1.366 . S
C2152 C2156 1.385 . S
C2153 H2128 0.951 . S
C2153 C2151 1.388 . S
C2153 C2154 1.366 . S
C2154 C2153 1.366 . S
C2154 C2155 1.414 . S
C2154 C2157 1.499 . S
C2155 H2129 0.950 . S
C2155 C2154 1.414 . S
C2155 C2156 1.374 . S
C2156 H2130 0.950 . S
C2156 C2152 1.385 . S
C2156 C2155 1.374 . S
C2157 C2154 1.499 . S
C2157 C2158 1.373 . S
C2157 C2159 1.389 . S
C2158 H2131 0.950 . S
C2158 C2144 1.377 . S
C2158 C2157 1.373 . S
C2159 C2143 1.377 . S
C2159 C2157 1.389 . S
C2159 C2160 1.524 . S
C2160 C2159 1.524 . S
C2160 C2161 1.397 . S
C2160 C2165 1.363 . S
C2161 H2132 0.950 . S
C2161 C2160 1.397 . S
C2161 C2162 1.334 . S
C2162 H2133 0.950 . S
C2162 C2161 1.334 . S
C2162 C2163 1.287 . S
C2163 C2162 1.287 . S
C2163 C2164 1.524 . S
C2163 H2166 0.999 . S
C2164 H2134 0.950 . S
C2164 C2163 1.524 . S
C2164 C2165 1.415 . S
C2165 H2135 0.950 . S
C2165 C2160 1.363 . S
C2165 C2164 1.415 . S
H2166 C2163 0.999 . S
H2167 C2148 0.913 . S
H2168 C2186 0.951 . S
H2169 C2188 0.951 . S
H2170 C2190 0.950 . S
H2171 C2191 0.950 . S
H2172 C2193 0.950 . S
H2173 C2196 0.950 . S
H2174 C2197 0.950 . S
H2175 C2199 0.950 . S
H2176 C2200 0.950 . S
H2177 C2201 0.951 . S
H2178 C2203 0.951 . S
H2179 C2205 0.950 . S
H2180 C2206 0.950 . S
H2181 C2208 0.950 . S
H2182 C2211 0.950 . S
H2183 C2212 0.950 . S
H2184 C2214 0.950 . S
H2185 C2215 0.950 . S
C2186 H2168 0.951 . S
C2186 C2187 1.366 . S
C2186 C2188 1.388 . S
C2187 C2186 1.366 . S
C2187 C2191 1.385 . S
C2188 H2169 0.951 . S
C2188 C2186 1.388 . S
C2188 C2189 1.366 . S
C2189 C2188 1.366 . S
C2189 C2190 1.414 . S
C2189 C2192 1.499 . S
C2190 H2170 0.950 . S
C2190 C2189 1.414 . S
C2190 C2191 1.374 . S
C2191 H2171 0.950 . S
C2191 C2187 1.385 . S
C2191 C2190 1.374 . S
C2192 C2189 1.499 . S
C2192 C2193 1.373 . S
C2192 C2194 1.389 . S
C2193 H2172 0.950 . S
C2193 C2192 1.373 . S
C2193 C2209 1.377 . S
C2194 C2192 1.389 . S
C2194 C2195 1.524 . S
C2194 C2208 1.377 . S
C2195 C2194 1.524 . S
C2195 C2196 1.397 . S
C2195 C2200 1.363 . S
C2196 H2173 0.950 . S
C2196 C2195 1.397 . S
C2196 C2197 1.334 . S
C2197 H2174 0.950 . S
C2197 C2196 1.334 . S
C2197 C2198 1.287 . S
C2198 C2197 1.287 . S
C2198 C2199 1.524 . S
C2198 H2217 0.913 . S
C2199 H2175 0.950 . S
C2199 C2198 1.524 . S
C2199 C2200 1.415 . S
C2200 H2176 0.950 . S
C2200 C2195 1.363 . S
C2200 C2199 1.415 . S
C2201 H2177 0.951 . S
C2201 C2202 1.366 . S
C2201 C2203 1.388 . S
C2202 C2201 1.366 . S
C2202 C2206 1.385 . S
C2203 H2178 0.951 . S
C2203 C2201 1.388 . S
C2203 C2204 1.366 . S
C2204 C2203 1.366 . S
C2204 C2205 1.414 . S
C2204 C2207 1.499 . S
C2205 H2179 0.950 . S
C2205 C2204 1.414 . S
C2205 C2206 1.374 . S
C2206 H2180 0.950 . S
C2206 C2202 1.385 . S
C2206 C2205 1.374 . S
C2207 C2204 1.499 . S
C2207 C2208 1.373 . S
C2207 C2209 1.389 . S
C2208 H2181 0.950 . S
C2208 C2194 1.377 . S
C2208 C2207 1.373 . S
C2209 C2193 1.377 . S
C2209 C2207 1.389 . S
C2209 C2210 1.524 . S
C2210 C2209 1.524 . S
C2210 C2211 1.397 . S
C2210 C2215 1.363 . S
C2211 H2182 0.950 . S
C2211 C2210 1.397 . S
C2211 C2212 1.334 . S
C2212 H2183 0.950 . S
C2212 C2211 1.334 . S
C2212 C2213 1.287 . S
C2213 C2212 1.287 . S
C2213 C2214 1.524 . S
C2213 H2216 0.999 . S
C2214 H2184 0.950 . S
C2214 C2213 1.524 . S
C2214 C2215 1.415 . S
C2215 H2185 0.950 . S
C2215 C2210 1.363 . S
C2215 C2214 1.415 . S
H2216 C2213 0.999 . S
H2217 C2198 0.913 . S
H2218 C2236 0.951 . S
H2219 C2238 0.951 . S
H2220 C2240 0.950 . S
H2221 C2241 0.950 . S
H2222 C2243 0.950 . S
H2223 C2246 0.950 . S
H2224 C2247 0.950 . S
H2225 C2249 0.950 . S
H2226 C2250 0.950 . S
H2227 C2251 0.951 . S
H2228 C2253 0.951 . S
H2229 C2255 0.950 . S
H2230 C2256 0.950 . S
H2231 C2258 0.950 . S
H2232 C2261 0.950 . S
H2233 C2262 0.950 . S
H2234 C2264 0.950 . S
H2235 C2265 0.950 . S
C2236 H2218 0.951 . S
C2236 C2237 1.366 . S
C2236 C2238 1.388 . S
C2237 C2236 1.366 . S
C2237 C2241 1.385 . S
C2238 H2219 0.951 . S
C2238 C2236 1.388 . S
C2238 C2239 1.366 . S
C2239 C2238 1.366 . S
C2239 C2240 1.414 . S
C2239 C2242 1.499 . S
C2240 H2220 0.950 . S
C2240 C2239 1.414 . S
C2240 C2241 1.374 . S
C2241 H2221 0.950 . S
C2241 C2237 1.385 . S
C2241 C2240 1.374 . S
C2242 C2239 1.499 . S
C2242 C2243 1.373 . S
C2242 C2244 1.389 . S
C2243 H2222 0.950 . S
C2243 C2242 1.373 . S
C2243 C2259 1.377 . S
C2244 C2242 1.389 . S
C2244 C2245 1.524 . S
C2244 C2258 1.377 . S
C2245 C2244 1.524 . S
C2245 C2246 1.397 . S
C2245 C2250 1.363 . S
C2246 H2223 0.950 . S
C2246 C2245 1.397 . S
C2246 C2247 1.334 . S
C2247 H2224 0.950 . S
C2247 C2246 1.334 . S
C2247 C2248 1.287 . S
C2248 C2247 1.287 . S
C2248 C2249 1.524 . S
C2248 H2267 0.913 . S
C2249 H2225 0.950 . S
C2249 C2248 1.524 . S
C2249 C2250 1.415 . S
C2250 H2226 0.950 . S
C2250 C2245 1.363 . S
C2250 C2249 1.415 . S
C2251 H2227 0.951 . S
C2251 C2252 1.366 . S
C2251 C2253 1.388 . S
C2252 C2251 1.366 . S
C2252 C2256 1.385 . S
C2253 H2228 0.951 . S
C2253 C2251 1.388 . S
C2253 C2254 1.366 . S
C2254 C2253 1.366 . S
C2254 C2255 1.414 . S
C2254 C2257 1.499 . S
C2255 H2229 0.950 . S
C2255 C2254 1.414 . S
C2255 C2256 1.374 . S
C2256 H2230 0.950 . S
C2256 C2252 1.385 . S
C2256 C2255 1.374 . S
C2257 C2254 1.499 . S
C2257 C2258 1.373 . S
C2257 C2259 1.389 . S
C2258 H2231 0.950 . S
C2258 C2244 1.377 . S
C2258 C2257 1.373 . S
C2259 C2243 1.377 . S
C2259 C2257 1.389 . S
C2259 C2260 1.524 . S
C2260 C2259 1.524 . S
C2260 C2261 1.397 . S
C2260 C2265 1.363 . S
C2261 H2232 0.950 . S
C2261 C2260 1.397 . S
C2261 C2262 1.334 . S
C2262 H2233 0.950 . S
C2262 C2261 1.334 . S
C2262 C2263 1.287 . S
C2263 C2262 1.287 . S
C2263 C2264 1.524 . S
C2263 H2266 0.999 . S
C2264 H2234 0.950 . S
C2264 C2263 1.524 . S
C2264 C2265 1.415 . S
C2265 H2235 0.950 . S
C2265 C2260 1.363 . S
C2265 C2264 1.415 . S
H2266 C2263 0.999 . S
H2267 C2248 0.913 . S
H2268 C2286 0.951 . S
H2269 C2288 0.951 . S
H2270 C2290 0.950 . S
H2271 C2291 0.950 . S
H2272 C2293 0.950 . S
H2273 C2296 0.950 . S
H2274 C2297 0.950 . S
H2275 C2299 0.950 . S
H2276 C2300 0.950 . S
H2277 C2301 0.951 . S
H2278 C2303 0.951 . S
H2279 C2305 0.950 . S
H2280 C2306 0.950 . S
H2281 C2308 0.950 . S
H2282 C2311 0.950 . S
H2283 C2312 0.950 . S
H2284 C2314 0.950 . S
H2285 C2315 0.950 . S
C2286 H2268 0.951 . S
C2286 C2287 1.366 . S
C2286 C2288 1.388 . S
C2287 C2286 1.366 . S
C2287 C2291 1.385 . S
C2288 H2269 0.951 . S
C2288 C2286 1.388 . S
C2288 C2289 1.366 . S
C2289 C2288 1.366 . S
C2289 C2290 1.414 . S
C2289 C2292 1.499 . S
C2290 H2270 0.950 . S
C2290 C2289 1.414 . S
C2290 C2291 1.374 . S
C2291 H2271 0.950 . S
C2291 C2287 1.385 . S
C2291 C2290 1.374 . S
C2292 C2289 1.499 . S
C2292 C2293 1.373 . S
C2292 C2294 1.389 . S
C2293 H2272 0.950 . S
C2293 C2292 1.373 . S
C2293 C2309 1.377 . S
C2294 C2292 1.389 . S
C2294 C2295 1.524 . S
C2294 C2308 1.377 . S
C2295 C2294 1.524 . S
C2295 C2296 1.397 . S
C2295 C2300 1.363 . S
C2296 H2273 0.950 . S
C2296 C2295 1.397 . S
C2296 C2297 1.334 . S
C2297 H2274 0.950 . S
C2297 C2296 1.334 . S
C2297 C2298 1.287 . S
C2298 C2297 1.287 . S
C2298 C2299 1.524 . S
C2298 H2317 0.913 . S
C2299 H2275 0.950 . S
C2299 C2298 1.524 . S
C2299 C2300 1.415 . S
C2300 H2276 0.950 . S
C2300 C2295 1.363 . S
C2300 C2299 1.415 . S
C2301 H2277 0.951 . S
C2301 C2302 1.366 . S
C2301 C2303 1.388 . S
C2302 C2301 1.366 . S
C2302 C2306 1.385 . S
C2303 H2278 0.951 . S
C2303 C2301 1.388 . S
C2303 C2304 1.366 . S
C2304 C2303 1.366 . S
C2304 C2305 1.414 . S
C2304 C2307 1.499 . S
C2305 H2279 0.950 . S
C2305 C2304 1.414 . S
C2305 C2306 1.374 . S
C2306 H2280 0.950 . S
C2306 C2302 1.385 . S
C2306 C2305 1.374 . S
C2307 C2304 1.499 . S
C2307 C2308 1.373 . S
C2307 C2309 1.389 . S
C2308 H2281 0.950 . S
C2308 C2294 1.377 . S
C2308 C2307 1.373 . S
C2309 C2293 1.377 . S
C2309 C2307 1.389 . S
C2309 C2310 1.524 . S
C2310 C2309 1.524 . S
C2310 C2311 1.397 . S
C2310 C2315 1.363 . S
C2311 H2282 0.950 . S
C2311 C2310 1.397 . S
C2311 C2312 1.334 . S
C2312 H2283 0.950 . S
C2312 C2311 1.334 . S
C2312 C2313 1.287 . S
C2313 C2312 1.287 . S
C2313 C2314 1.524 . S
C2313 H2316 0.999 . S
C2314 H2284 0.950 . S
C2314 C2313 1.524 . S
C2314 C2315 1.415 . S
C2315 H2285 0.950 . S
C2315 C2310 1.363 . S
C2315 C2314 1.415 . S
H2316 C2313 0.999 . S
H2317 C2298 0.913 . S
H2318 C2336 0.951 . S
H2319 C2338 0.951 . S
H2320 C2340 0.950 . S
H2321 C2341 0.950 . S
H2322 C2343 0.950 . S
H2323 C2346 0.950 . S
H2324 C2347 0.950 . S
H2325 C2349 0.950 . S
H2326 C2350 0.950 . S
H2327 C2351 0.951 . S
H2328 C2353 0.951 . S
H2329 C2355 0.950 . S
H2330 C2356 0.950 . S
H2331 C2358 0.950 . S
H2332 C2361 0.950 . S
H2333 C2362 0.950 . S
H2334 C2364 0.950 . S
H2335 C2365 0.950 . S
C2336 H2318 0.951 . S
C2336 C2337 1.366 . S
C2336 C2338 1.388 . S
C2337 C2336 1.366 . S
C2337 C2341 1.385 . S
C2338 H2319 0.951 . S
C2338 C2336 1.388 . S
C2338 C2339 1.366 . S
C2339 C2338 1.366 . S
C2339 C2340 1.414 . S
C2339 C2342 1.499 . S
C2340 H2320 0.950 . S
C2340 C2339 1.414 . S
C2340 C2341 1.374 . S
C2341 H2321 0.950 . S
C2341 C2337 1.385 . S
C2341 C2340 1.374 . S
C2342 C2339 1.499 . S
C2342 C2343 1.373 . S
C2342 C2344 1.389 . S
C2343 H2322 0.950 . S
C2343 C2342 1.373 . S
C2343 C2359 1.377 . S
C2344 C2342 1.389 . S
C2344 C2345 1.524 . S
C2344 C2358 1.377 . S
C2345 C2344 1.524 . S
C2345 C2346 1.397 . S
C2345 C2350 1.363 . S
C2346 H2323 0.950 . S
C2346 C2345 1.397 . S
C2346 C2347 1.334 . S
C2347 H2324 0.950 . S
C2347 C2346 1.334 . S
C2347 C2348 1.287 . S
C2348 C2347 1.287 . S
C2348 C2349 1.524 . S
C2348 H2367 0.913 . S
C2349 H2325 0.950 . S
C2349 C2348 1.524 . S
C2349 C2350 1.415 . S
C2350 H2326 0.950 . S
C2350 C2345 1.363 . S
C2350 C2349 1.415 . S
C2351 H2327 0.951 . S
C2351 C2352 1.366 . S
C2351 C2353 1.388 . S
C2352 C2351 1.366 . S
C2352 C2356 1.385 . S
C2353 H2328 0.951 . S
C2353 C2351 1.388 . S
C2353 C2354 1.366 . S
C2354 C2353 1.366 . S
C2354 C2355 1.414 . S
C2354 C2357 1.499 . S
C2355 H2329 0.950 . S
C2355 C2354 1.414 . S
C2355 C2356 1.374 . S
C2356 H2330 0.950 . S
C2356 C2352 1.385 . S
C2356 C2355 1.374 . S
C2357 C2354 1.499 . S
C2357 C2358 1.373 . S
C2357 C2359 1.389 . S
C2358 H2331 0.950 . S
C2358 C2344 1.377 . S
C2358 C2357 1.373 . S
C2359 C2343 1.377 . S
C2359 C2357 1.389 . S
C2359 C2360 1.524 . S
C2360 C2359 1.524 . S
C2360 C2361 1.397 . S
C2360 C2365 1.363 . S
C2361 H2332 0.950 . S
C2361 C2360 1.397 . S
C2361 C2362 1.334 . S
C2362 H2333 0.950 . S
C2362 C2361 1.334 . S
C2362 C2363 1.287 . S
C2363 C2362 1.287 . S
C2363 C2364 1.524 . S
C2363 H2366 0.999 . S
C2364 H2334 0.950 . S
C2364 C2363 1.524 . S
C2364 C2365 1.415 . S
C2365 H2335 0.950 . S
C2365 C2360 1.363 . S
C2365 C2364 1.415 . S
H2366 C2363 0.999 . S
H2367 C2348 0.913 . S
H2368 C2386 0.951 . S
H2369 C2388 0.951 . S
H2370 C2390 0.950 . S
H2371 C2391 0.950 . S
H2372 C2393 0.950 . S
H2373 C2396 0.950 . S
H2374 C2397 0.950 . S
H2375 C2399 0.950 . S
H2376 C2400 0.950 . S
H2377 C2401 0.951 . S
H2378 C2403 0.951 . S
H2379 C2405 0.950 . S
H2380 C2406 0.950 . S
H2381 C2408 0.950 . S
H2382 C2411 0.950 . S
H2383 C2412 0.950 . S
H2384 C2414 0.950 . S
H2385 C2415 0.950 . S
C2386 H2368 0.951 . S
C2386 C2387 1.366 . S
C2386 C2388 1.388 . S
C2387 C2386 1.366 . S
C2387 C2391 1.385 . S
C2388 H2369 0.951 . S
C2388 C2386 1.388 . S
C2388 C2389 1.366 . S
C2389 C2388 1.366 . S
C2389 C2390 1.414 . S
C2389 C2392 1.499 . S
C2390 H2370 0.950 . S
C2390 C2389 1.414 . S
C2390 C2391 1.374 . S
C2391 H2371 0.950 . S
C2391 C2387 1.385 . S
C2391 C2390 1.374 . S
C2392 C2389 1.499 . S
C2392 C2393 1.373 . S
C2392 C2394 1.389 . S
C2393 H2372 0.950 . S
C2393 C2392 1.373 . S
C2393 C2409 1.377 . S
C2394 C2392 1.389 . S
C2394 C2395 1.524 . S
C2394 C2408 1.377 . S
C2395 C2394 1.524 . S
C2395 C2396 1.397 . S
C2395 C2400 1.363 . S
C2396 H2373 0.950 . S
C2396 C2395 1.397 . S
C2396 C2397 1.334 . S
C2397 H2374 0.950 . S
C2397 C2396 1.334 . S
C2397 C2398 1.287 . S
C2398 C2397 1.287 . S
C2398 C2399 1.524 . S
C2398 H2417 0.913 . S
C2399 H2375 0.950 . S
C2399 C2398 1.524 . S
C2399 C2400 1.415 . S
C2400 H2376 0.950 . S
C2400 C2395 1.363 . S
C2400 C2399 1.415 . S
C2401 H2377 0.951 . S
C2401 C2402 1.366 . S
C2401 C2403 1.388 . S
C2402 C2401 1.366 . S
C2402 C2406 1.385 . S
C2403 H2378 0.951 . S
C2403 C2401 1.388 . S
C2403 C2404 1.366 . S
C2404 C2403 1.366 . S
C2404 C2405 1.414 . S
C2404 C2407 1.499 . S
C2405 H2379 0.950 . S
C2405 C2404 1.414 . S
C2405 C2406 1.374 . S
C2406 H2380 0.950 . S
C2406 C2402 1.385 . S
C2406 C2405 1.374 . S
C2407 C2404 1.499 . S
C2407 C2408 1.373 . S
C2407 C2409 1.389 . S
C2408 H2381 0.950 . S
C2408 C2394 1.377 . S
C2408 C2407 1.373 . S
C2409 C2393 1.377 . S
C2409 C2407 1.389 . S
C2409 C2410 1.524 . S
C2410 C2409 1.524 . S
C2410 C2411 1.397 . S
C2410 C2415 1.363 . S
C2411 H2382 0.950 . S
C2411 C2410 1.397 . S
C2411 C2412 1.334 . S
C2412 H2383 0.950 . S
C2412 C2411 1.334 . S
C2412 C2413 1.287 . S
C2413 C2412 1.287 . S
C2413 C2414 1.524 . S
C2413 H2416 0.999 . S
C2414 H2384 0.950 . S
C2414 C2413 1.524 . S
C2414 C2415 1.415 . S
C2415 H2385 0.950 . S
C2415 C2410 1.363 . S
C2415 C2414 1.415 . S
H2416 C2413 0.999 . S
H2417 C2398 0.913 . S
H2418 C2436 0.951 . S
H2419 C2438 0.951 . S
H2420 C2440 0.950 . S
H2421 C2441 0.950 . S
H2422 C2443 0.950 . S
H2423 C2446 0.950 . S
H2424 C2447 0.950 . S
H2425 C2449 0.950 . S
H2426 C2450 0.950 . S
H2427 C2451 0.951 . S
H2428 C2453 0.951 . S
H2429 C2455 0.950 . S
H2430 C2456 0.950 . S
H2431 C2458 0.950 . S
H2432 C2461 0.950 . S
H2433 C2462 0.950 . S
H2434 C2464 0.950 . S
H2435 C2465 0.950 . S
C2436 H2418 0.951 . S
C2436 C2437 1.366 . S
C2436 C2438 1.388 . S
C2437 C2436 1.366 . S
C2437 C2441 1.385 . S
C2438 H2419 0.951 . S
C2438 C2436 1.388 . S
C2438 C2439 1.366 . S
C2439 C2438 1.366 . S
C2439 C2440 1.414 . S
C2439 C2442 1.499 . S
C2440 H2420 0.950 . S
C2440 C2439 1.414 . S
C2440 C2441 1.374 . S
C2441 H2421 0.950 . S
C2441 C2437 1.385 . S
C2441 C2440 1.374 . S
C2442 C2439 1.499 . S
C2442 C2443 1.373 . S
C2442 C2444 1.389 . S
C2443 H2422 0.950 . S
C2443 C2442 1.373 . S
C2443 C2459 1.377 . S
C2444 C2442 1.389 . S
C2444 C2445 1.524 . S
C2444 C2458 1.377 . S
C2445 C2444 1.524 . S
C2445 C2446 1.397 . S
C2445 C2450 1.363 . S
C2446 H2423 0.950 . S
C2446 C2445 1.397 . S
C2446 C2447 1.334 . S
C2447 H2424 0.950 . S
C2447 C2446 1.334 . S
C2447 C2448 1.287 . S
C2448 C2447 1.287 . S
C2448 C2449 1.524 . S
C2448 H2467 0.913 . S
C2449 H2425 0.950 . S
C2449 C2448 1.524 . S
C2449 C2450 1.415 . S
C2450 H2426 0.950 . S
C2450 C2445 1.363 . S
C2450 C2449 1.415 . S
C2451 H2427 0.951 . S
C2451 C2452 1.366 . S
C2451 C2453 1.388 . S
C2452 C2451 1.366 . S
C2452 C2456 1.385 . S
C2453 H2428 0.951 . S
C2453 C2451 1.388 . S
C2453 C2454 1.366 . S
C2454 C2453 1.366 . S
C2454 C2455 1.414 . S
C2454 C2457 1.499 . S
C2455 H2429 0.950 . S
C2455 C2454 1.414 . S
C2455 C2456 1.374 . S
C2456 H2430 0.950 . S
C2456 C2452 1.385 . S
C2456 C2455 1.374 . S
C2457 C2454 1.499 . S
C2457 C2458 1.373 . S
C2457 C2459 1.389 . S
C2458 H2431 0.950 . S
C2458 C2444 1.377 . S
C2458 C2457 1.373 . S
C2459 C2443 1.377 . S
C2459 C2457 1.389 . S
C2459 C2460 1.524 . S
C2460 C2459 1.524 . S
C2460 C2461 1.397 . S
C2460 C2465 1.363 . S
C2461 H2432 0.950 . S
C2461 C2460 1.397 . S
C2461 C2462 1.334 . S
C2462 H2433 0.950 . S
C2462 C2461 1.334 . S
C2462 C2463 1.287 . S
C2463 C2462 1.287 . S
C2463 C2464 1.524 . S
C2463 H2466 0.999 . S
C2464 H2434 0.950 . S
C2464 C2463 1.524 . S
C2464 C2465 1.415 . S
C2465 H2435 0.950 . S
C2465 C2460 1.363 . S
C2465 C2464 1.415 . S
H2466 C2463 0.999 . S
H2467 C2448 0.913 . S
H2468 C2486 0.951 . S
H2469 C2488 0.951 . S
H2470 C2490 0.950 . S
H2471 C2491 0.950 . S
H2472 C2493 0.950 . S
H2473 C2496 0.950 . S
H2474 C2497 0.950 . S
H2475 C2499 0.950 . S
H2476 C2500 0.950 . S
H2477 C2501 0.951 . S
H2478 C2503 0.951 . S
H2479 C2505 0.950 . S
H2480 C2506 0.950 . S
H2481 C2508 0.950 . S
H2482 C2511 0.950 . S
H2483 C2512 0.950 . S
H2484 C2514 0.950 . S
H2485 C2515 0.950 . S
C2486 H2468 0.951 . S
C2486 C2487 1.366 . S
C2486 C2488 1.388 . S
C2487 C2486 1.366 . S
C2487 C2491 1.385 . S
C2488 H2469 0.951 . S
C2488 C2486 1.388 . S
C2488 C2489 1.366 . S
C2489 C2488 1.366 . S
C2489 C2490 1.414 . S
C2489 C2492 1.499 . S
C2490 H2470 0.950 . S
C2490 C2489 1.414 . S
C2490 C2491 1.374 . S
C2491 H2471 0.950 . S
C2491 C2487 1.385 . S
C2491 C2490 1.374 . S
C2492 C2489 1.499 . S
C2492 C2493 1.373 . S
C2492 C2494 1.389 . S
C2493 H2472 0.950 . S
C2493 C2492 1.373 . S
C2493 C2509 1.377 . S
C2494 C2492 1.389 . S
C2494 C2495 1.524 . S
C2494 C2508 1.377 . S
C2495 C2494 1.524 . S
C2495 C2496 1.397 . S
C2495 C2500 1.363 . S
C2496 H2473 0.950 . S
C2496 C2495 1.397 . S
C2496 C2497 1.334 . S
C2497 H2474 0.950 . S
C2497 C2496 1.334 . S
C2497 C2498 1.287 . S
C2498 C2497 1.287 . S
C2498 C2499 1.524 . S
C2498 H2517 0.913 . S
C2499 H2475 0.950 . S
C2499 C2498 1.524 . S
C2499 C2500 1.415 . S
C2500 H2476 0.950 . S
C2500 C2495 1.363 . S
C2500 C2499 1.415 . S
C2501 H2477 0.951 . S
C2501 C2502 1.366 . S
C2501 C2503 1.388 . S
C2502 C2501 1.366 . S
C2502 C2506 1.385 . S
C2503 H2478 0.951 . S
C2503 C2501 1.388 . S
C2503 C2504 1.366 . S
C2504 C2503 1.366 . S
C2504 C2505 1.414 . S
C2504 C2507 1.499 . S
C2505 H2479 0.950 . S
C2505 C2504 1.414 . S
C2505 C2506 1.374 . S
C2506 H2480 0.950 . S
C2506 C2502 1.385 . S
C2506 C2505 1.374 . S
C2507 C2504 1.499 . S
C2507 C2508 1.373 . S
C2507 C2509 1.389 . S
C2508 H2481 0.950 . S
C2508 C2494 1.377 . S
C2508 C2507 1.373 . S
C2509 C2493 1.377 . S
C2509 C2507 1.389 . S
C2509 C2510 1.524 . S
C2510 C2509 1.524 . S
C2510 C2511 1.397 . S
C2510 C2515 1.363 . S
C2511 H2482 0.950 . S
C2511 C2510 1.397 . S
C2511 C2512 1.334 . S
C2512 H2483 0.950 . S
C2512 C2511 1.334 . S
C2512 C2513 1.287 . S
C2513 C2512 1.287 . S
C2513 C2514 1.524 . S
C2513 H2516 0.999 . S
C2514 H2484 0.950 . S
C2514 C2513 1.524 . S
C2514 C2515 1.415 . S
C2515 H2485 0.950 . S
C2515 C2510 1.363 . S
C2515 C2514 1.415 . S
H2516 C2513 0.999 . S
H2517 C2498 0.913 . S
H2518 C2536 0.951 . S
H2519 C2538 0.951 . S
H2520 C2540 0.950 . S
H2521 C2541 0.950 . S
H2522 C2543 0.950 . S
H2523 C2546 0.950 . S
H2524 C2547 0.950 . S
H2525 C2549 0.950 . S
H2526 C2550 0.950 . S
H2527 C2551 0.951 . S
H2528 C2553 0.951 . S
H2529 C2555 0.950 . S
H2530 C2556 0.950 . S
H2531 C2558 0.950 . S
H2532 C2561 0.950 . S
H2533 C2562 0.950 . S
H2534 C2564 0.950 . S
H2535 C2565 0.950 . S
C2536 H2518 0.951 . S
C2536 C2537 1.366 . S
C2536 C2538 1.388 . S
C2537 C2536 1.366 . S
C2537 C2541 1.385 . S
C2538 H2519 0.951 . S
C2538 C2536 1.388 . S
C2538 C2539 1.366 . S
C2539 C2538 1.366 . S
C2539 C2540 1.414 . S
C2539 C2542 1.499 . S
C2540 H2520 0.950 . S
C2540 C2539 1.414 . S
C2540 C2541 1.374 . S
C2541 H2521 0.950 . S
C2541 C2537 1.385 . S
C2541 C2540 1.374 . S
C2542 C2539 1.499 . S
C2542 C2543 1.373 . S
C2542 C2544 1.389 . S
C2543 H2522 0.950 . S
C2543 C2542 1.373 . S
C2543 C2559 1.377 . S
C2544 C2542 1.389 . S
C2544 C2545 1.524 . S
C2544 C2558 1.377 . S
C2545 C2544 1.524 . S
C2545 C2546 1.397 . S
C2545 C2550 1.363 . S
C2546 H2523 0.950 . S
C2546 C2545 1.397 . S
C2546 C2547 1.334 . S
C2547 H2524 0.950 . S
C2547 C2546 1.334 . S
C2547 C2548 1.287 . S
C2548 C2547 1.287 . S
C2548 C2549 1.524 . S
C2548 H2567 0.913 . S
C2549 H2525 0.950 . S
C2549 C2548 1.524 . S
C2549 C2550 1.415 . S
C2550 H2526 0.950 . S
C2550 C2545 1.363 . S
C2550 C2549 1.415 . S
C2551 H2527 0.951 . S
C2551 C2552 1.366 . S
C2551 C2553 1.388 . S
C2552 C2551 1.366 . S
C2552 C2556 1.385 . S
C2553 H2528 0.951 . S
C2553 C2551 1.388 . S
C2553 C2554 1.366 . S
C2554 C2553 1.366 . S
C2554 C2555 1.414 . S
C2554 C2557 1.499 . S
C2555 H2529 0.950 . S
C2555 C2554 1.414 . S
C2555 C2556 1.374 . S
C2556 H2530 0.950 . S
C2556 C2552 1.385 . S
C2556 C2555 1.374 . S
C2557 C2554 1.499 . S
C2557 C2558 1.373 . S
C2557 C2559 1.389 . S
C2558 H2531 0.950 . S
C2558 C2544 1.377 . S
C2558 C2557 1.373 . S
C2559 C2543 1.377 . S
C2559 C2557 1.389 . S
C2559 C2560 1.524 . S
C2560 C2559 1.524 . S
C2560 C2561 1.397 . S
C2560 C2565 1.363 . S
C2561 H2532 0.950 . S
C2561 C2560 1.397 . S
C2561 C2562 1.334 . S
C2562 H2533 0.950 . S
C2562 C2561 1.334 . S
C2562 C2563 1.287 . S
C2563 C2562 1.287 . S
C2563 C2564 1.524 . S
C2563 H2566 0.999 . S
C2564 H2534 0.950 . S
C2564 C2563 1.524 . S
C2564 C2565 1.415 . S
C2565 H2535 0.950 . S
C2565 C2560 1.363 . S
C2565 C2564 1.415 . S
H2566 C2563 0.999 . S
H2567 C2548 0.913 . S
H2568 C2586 0.951 . S
H2569 C2588 0.951 . S
H2570 C2590 0.950 . S
H2571 C2591 0.950 . S
H2572 C2593 0.950 . S
H2573 C2596 0.950 . S
H2574 C2597 0.950 . S
H2575 C2599 0.950 . S
H2576 C2600 0.950 . S
H2577 C2601 0.951 . S
H2578 C2603 0.951 . S
H2579 C2605 0.950 . S
H2580 C2606 0.950 . S
H2581 C2608 0.950 . S
H2582 C2611 0.950 . S
H2583 C2612 0.950 . S
H2584 C2614 0.950 . S
H2585 C2615 0.950 . S
C2586 H2568 0.951 . S
C2586 C2587 1.366 . S
C2586 C2588 1.388 . S
C2587 C2586 1.366 . S
C2587 C2591 1.385 . S
C2588 H2569 0.951 . S
C2588 C2586 1.388 . S
C2588 C2589 1.366 . S
C2589 C2588 1.366 . S
C2589 C2590 1.414 . S
C2589 C2592 1.499 . S
C2590 H2570 0.950 . S
C2590 C2589 1.414 . S
C2590 C2591 1.374 . S
C2591 H2571 0.950 . S
C2591 C2587 1.385 . S
C2591 C2590 1.374 . S
C2592 C2589 1.499 . S
C2592 C2593 1.373 . S
C2592 C2594 1.389 . S
C2593 H2572 0.950 . S
C2593 C2592 1.373 . S
C2593 C2609 1.377 . S
C2594 C2592 1.389 . S
C2594 C2595 1.524 . S
C2594 C2608 1.377 . S
C2595 C2594 1.524 . S
C2595 C2596 1.397 . S
C2595 C2600 1.363 . S
C2596 H2573 0.950 . S
C2596 C2595 1.397 . S
C2596 C2597 1.334 . S
C2597 H2574 0.950 . S
C2597 C2596 1.334 . S
C2597 C2598 1.287 . S
C2598 C2597 1.287 . S
C2598 C2599 1.524 . S
C2598 H2617 0.913 . S
C2599 H2575 0.950 . S
C2599 C2598 1.524 . S
C2599 C2600 1.415 . S
C2600 H2576 0.950 . S
C2600 C2595 1.363 . S
C2600 C2599 1.415 . S
C2601 H2577 0.951 . S
C2601 C2602 1.366 . S
C2601 C2603 1.388 . S
C2602 C2601 1.366 . S
C2602 C2606 1.385 . S
C2603 H2578 0.951 . S
C2603 C2601 1.388 . S
C2603 C2604 1.366 . S
C2604 C2603 1.366 . S
C2604 C2605 1.414 . S
C2604 C2607 1.499 . S
C2605 H2579 0.950 . S
C2605 C2604 1.414 . S
C2605 C2606 1.374 . S
C2606 H2580 0.950 . S
C2606 C2602 1.385 . S
C2606 C2605 1.374 . S
C2607 C2604 1.499 . S
C2607 C2608 1.373 . S
C2607 C2609 1.389 . S
C2608 H2581 0.950 . S
C2608 C2594 1.377 . S
C2608 C2607 1.373 . S
C2609 C2593 1.377 . S
C2609 C2607 1.389 . S
C2609 C2610 1.524 . S
C2610 C2609 1.524 . S
C2610 C2611 1.397 . S
C2610 C2615 1.363 . S
C2611 H2582 0.950 . S
C2611 C2610 1.397 . S
C2611 C2612 1.334 . S
C2612 H2583 0.950 . S
C2612 C2611 1.334 . S
C2612 C2613 1.287 . S
C2613 C2612 1.287 . S
C2613 C2614 1.524 . S
C2613 H2616 0.999 . S
C2614 H2584 0.950 . S
C2614 C2613 1.524 . S
C2614 C2615 1.415 . S
C2615 H2585 0.950 . S
C2615 C2610 1.363 . S
C2615 C2614 1.415 . S
H2616 C2613 0.999 . S
H2617 C2598 0.913 . S
H2618 C2636 0.951 . S
H2619 C2638 0.951 . S
H2620 C2640 0.950 . S
H2621 C2641 0.950 . S
H2622 C2643 0.950 . S
H2623 C2646 0.950 . S
H2624 C2647 0.950 . S
H2625 C2649 0.950 . S
H2626 C2650 0.950 . S
H2627 C2651 0.951 . S
H2628 C2653 0.951 . S
H2629 C2655 0.950 . S
H2630 C2656 0.950 . S
H2631 C2658 0.950 . S
H2632 C2661 0.950 . S
H2633 C2662 0.950 . S
H2634 C2664 0.950 . S
H2635 C2665 0.950 . S
C2636 H2618 0.951 . S
C2636 C2637 1.366 . S
C2636 C2638 1.388 . S
C2637 C2636 1.366 . S
C2637 C2641 1.385 . S
C2638 H2619 0.951 . S
C2638 C2636 1.388 . S
C2638 C2639 1.366 . S
C2639 C2638 1.366 . S
C2639 C2640 1.414 . S
C2639 C2642 1.499 . S
C2640 H2620 0.950 . S
C2640 C2639 1.414 . S
C2640 C2641 1.374 . S
C2641 H2621 0.950 . S
C2641 C2637 1.385 . S
C2641 C2640 1.374 . S
C2642 C2639 1.499 . S
C2642 C2643 1.373 . S
C2642 C2644 1.389 . S
C2643 H2622 0.950 . S
C2643 C2642 1.373 . S
C2643 C2659 1.377 . S
C2644 C2642 1.389 . S
C2644 C2645 1.524 . S
C2644 C2658 1.377 . S
C2645 C2644 1.524 . S
C2645 C2646 1.397 . S
C2645 C2650 1.363 . S
C2646 H2623 0.950 . S
C2646 C2645 1.397 . S
C2646 C2647 1.334 . S
C2647 H2624 0.950 . S
C2647 C2646 1.334 . S
C2647 C2648 1.287 . S
C2648 C2647 1.287 . S
C2648 C2649 1.524 . S
C2648 H2667 0.913 . S
C2649 H2625 0.950 . S
C2649 C2648 1.524 . S
C2649 C2650 1.415 . S
C2650 H2626 0.950 . S
C2650 C2645 1.363 . S
C2650 C2649 1.415 . S
C2651 H2627 0.951 . S
C2651 C2652 1.366 . S
C2651 C2653 1.388 . S
C2652 C2651 1.366 . S
C2652 C2656 1.385 . S
C2653 H2628 0.951 . S
C2653 C2651 1.388 . S
C2653 C2654 1.366 . S
C2654 C2653 1.366 . S
C2654 C2655 1.414 . S
C2654 C2657 1.499 . S
C2655 H2629 0.950 . S
C2655 C2654 1.414 . S
C2655 C2656 1.374 . S
C2656 H2630 0.950 . S
C2656 C2652 1.385 . S
C2656 C2655 1.374 . S
C2657 C2654 1.499 . S
C2657 C2658 1.373 . S
C2657 C2659 1.389 . S
C2658 H2631 0.950 . S
C2658 C2644 1.377 . S
C2658 C2657 1.373 . S
C2659 C2643 1.377 . S
C2659 C2657 1.389 . S
C2659 C2660 1.524 . S
C2660 C2659 1.524 . S
C2660 C2661 1.397 . S
C2660 C2665 1.363 . S
C2661 H2632 0.950 . S
C2661 C2660 1.397 . S
C2661 C2662 1.334 . S
C2662 H2633 0.950 . S
C2662 C2661 1.334 . S
C2662 C2663 1.287 . S
C2663 C2662 1.287 . S
C2663 C2664 1.524 . S
C2663 H2666 0.999 . S
C2664 H2634 0.950 . S
C2664 C2663 1.524 . S
C2664 C2665 1.415 . S
C2665 H2635 0.950 . S
C2665 C2660 1.363 . S
C2665 C2664 1.415 . S
H2666 C2663 0.999 . S
H2667 C2648 0.913 . S
H2668 C2686 0.951 . S
H2669 C2688 0.951 . S
H2670 C2690 0.950 . S
H2671 C2691 0.950 . S
H2672 C2693 0.950 . S
H2673 C2696 0.950 . S
H2674 C2697 0.950 . S
H2675 C2699 0.950 . S
H2676 C2700 0.950 . S
H2677 C2701 0.951 . S
H2678 C2703 0.951 . S
H2679 C2705 0.950 . S
H2680 C2706 0.950 . S
H2681 C2708 0.950 . S
H2682 C2711 0.950 . S
H2683 C2712 0.950 . S
H2684 C2714 0.950 . S
H2685 C2715 0.950 . S
C2686 H2668 0.951 . S
C2686 C2687 1.366 . S
C2686 C2688 1.388 . S
C2687 C2686 1.366 . S
C2687 C2691 1.385 . S
C2688 H2669 0.951 . S
C2688 C2686 1.388 . S
C2688 C2689 1.366 . S
C2689 C2688 1.366 . S
C2689 C2690 1.414 . S
C2689 C2692 1.499 . S
C2690 H2670 0.950 . S
C2690 C2689 1.414 . S
C2690 C2691 1.374 . S
C2691 H2671 0.950 . S
C2691 C2687 1.385 . S
C2691 C2690 1.374 . S
C2692 C2689 1.499 . S
C2692 C2693 1.373 . S
C2692 C2694 1.389 . S
C2693 H2672 0.950 . S
C2693 C2692 1.373 . S
C2693 C2709 1.377 . S
C2694 C2692 1.389 . S
C2694 C2695 1.524 . S
C2694 C2708 1.377 . S
C2695 C2694 1.524 . S
C2695 C2696 1.397 . S
C2695 C2700 1.363 . S
C2696 H2673 0.950 . S
C2696 C2695 1.397 . S
C2696 C2697 1.334 . S
C2697 H2674 0.950 . S
C2697 C2696 1.334 . S
C2697 C2698 1.287 . S
C2698 C2697 1.287 . S
C2698 C2699 1.524 . S
C2698 H2717 0.913 . S
C2699 H2675 0.950 . S
C2699 C2698 1.524 . S
C2699 C2700 1.415 . S
C2700 H2676 0.950 . S
C2700 C2695 1.363 . S
C2700 C2699 1.415 . S
C2701 H2677 0.951 . S
C2701 C2702 1.366 . S
C2701 C2703 1.388 . S
C2702 C2701 1.366 . S
C2702 C2706 1.385 . S
C2703 H2678 0.951 . S
C2703 C2701 1.388 . S
C2703 C2704 1.366 . S
C2704 C2703 1.366 . S
C2704 C2705 1.414 . S
C2704 C2707 1.499 . S
C2705 H2679 0.950 . S
C2705 C2704 1.414 . S
C2705 C2706 1.374 . S
C2706 H2680 0.950 . S
C2706 C2702 1.385 . S
C2706 C2705 1.374 . S
C2707 C2704 1.499 . S
C2707 C2708 1.373 . S
C2707 C2709 1.389 . S
C2708 H2681 0.950 . S
C2708 C2694 1.377 . S
C2708 C2707 1.373 . S
C2709 C2693 1.377 . S
C2709 C2707 1.389 . S
C2709 C2710 1.524 . S
C2710 C2709 1.524 . S
C2710 C2711 1.397 . S
C2710 C2715 1.363 . S
C2711 H2682 0.950 . S
C2711 C2710 1.397 . S
C2711 C2712 1.334 . S
C2712 H2683 0.950 . S
C2712 C2711 1.334 . S
C2712 C2713 1.287 . S
C2713 C2712 1.287 . S
C2713 C2714 1.524 . S
C2713 H2716 0.999 . S
C2714 H2684 0.950 . S
C2714 C2713 1.524 . S
C2714 C2715 1.415 . S
C2715 H2685 0.950 . S
C2715 C2710 1.363 . S
C2715 C2714 1.415 . S
H2716 C2713 0.999 . S
H2717 C2698 0.913 . S
H2718 C2736 0.951 . S
H2719 C2738 0.951 . S
H2720 C2740 0.950 . S
H2721 C2741 0.950 . S
H2722 C2743 0.950 . S
H2723 C2746 0.950 . S
H2724 C2747 0.950 . S
H2725 C2749 0.950 . S
H2726 C2750 0.950 . S
H2727 C2751 0.951 . S
H2728 C2753 0.951 . S
H2729 C2755 0.950 . S
H2730 C2756 0.950 . S
H2731 C2758 0.950 . S
H2732 C2761 0.950 . S
H2733 C2762 0.950 . S
H2734 C2764 0.950 . S
H2735 C2765 0.950 . S
C2736 H2718 0.951 . S
C2736 C2737 1.366 . S
C2736 C2738 1.388 . S
C2737 C2736 1.366 . S
C2737 C2741 1.385 . S
C2738 H2719 0.951 . S
C2738 C2736 1.388 . S
C2738 C2739 1.366 . S
C2739 C2738 1.366 . S
C2739 C2740 1.414 . S
C2739 C2742 1.499 . S
C2740 H2720 0.950 . S
C2740 C2739 1.414 . S
C2740 C2741 1.374 . S
C2741 H2721 0.950 . S
C2741 C2737 1.385 . S
C2741 C2740 1.374 . S
C2742 C2739 1.499 . S
C2742 C2743 1.373 . S
C2742 C2744 1.389 . S
C2743 H2722 0.950 . S
C2743 C2742 1.373 . S
C2743 C2759 1.377 . S
C2744 C2742 1.389 . S
C2744 C2745 1.524 . S
C2744 C2758 1.377 . S
C2745 C2744 1.524 . S
C2745 C2746 1.397 . S
C2745 C2750 1.363 . S
C2746 H2723 0.950 . S
C2746 C2745 1.397 . S
C2746 C2747 1.334 . S
C2747 H2724 0.950 . S
C2747 C2746 1.334 . S
C2747 C2748 1.287 . S
C2748 C2747 1.287 . S
C2748 C2749 1.524 . S
C2748 H2767 0.913 . S
C2749 H2725 0.950 . S
C2749 C2748 1.524 . S
C2749 C2750 1.415 . S
C2750 H2726 0.950 . S
C2750 C2745 1.363 . S
C2750 C2749 1.415 . S
C2751 H2727 0.951 . S
C2751 C2752 1.366 . S
C2751 C2753 1.388 . S
C2752 C2751 1.366 . S
C2752 C2756 1.385 . S
C2753 H2728 0.951 . S
C2753 C2751 1.388 . S
C2753 C2754 1.366 . S
C2754 C2753 1.366 . S
C2754 C2755 1.414 . S
C2754 C2757 1.499 . S
C2755 H2729 0.950 . S
C2755 C2754 1.414 . S
C2755 C2756 1.374 . S
C2756 H2730 0.950 . S
C2756 C2752 1.385 . S
C2756 C2755 1.374 . S
C2757 C2754 1.499 . S
C2757 C2758 1.373 . S
C2757 C2759 1.389 . S
C2758 H2731 0.950 . S
C2758 C2744 1.377 . S
C2758 C2757 1.373 . S
C2759 C2743 1.377 . S
C2759 C2757 1.389 . S
C2759 C2760 1.524 . S
C2760 C2759 1.524 . S
C2760 C2761 1.397 . S
C2760 C2765 1.363 . S
C2761 H2732 0.950 . S
C2761 C2760 1.397 . S
C2761 C2762 1.334 . S
C2762 H2733 0.950 . S
C2762 C2761 1.334 . S
C2762 C2763 1.287 . S
C2763 C2762 1.287 . S
C2763 C2764 1.524 . S
C2763 H2766 0.999 . S
C2764 H2734 0.950 . S
C2764 C2763 1.524 . S
C2764 C2765 1.415 . S
C2765 H2735 0.950 . S
C2765 C2760 1.363 . S
C2765 C2764 1.415 . S
H2766 C2763 0.999 . S
H2767 C2748 0.913 . S
H2768 C2786 0.951 . S
H2769 C2788 0.951 . S
H2770 C2790 0.950 . S
H2771 C2791 0.950 . S
H2772 C2793 0.950 . S
H2773 C2796 0.950 . S
H2774 C2797 0.950 . S
H2775 C2799 0.950 . S
H2776 C2800 0.950 . S
H2777 C2801 0.951 . S
H2778 C2803 0.951 . S
H2779 C2805 0.950 . S
H2780 C2806 0.950 . S
H2781 C2808 0.950 . S
H2782 C2811 0.950 . S
H2783 C2812 0.950 . S
H2784 C2814 0.950 . S
H2785 C2815 0.950 . S
C2786 H2768 0.951 . S
C2786 C2787 1.366 . S
C2786 C2788 1.388 . S
C2787 C2786 1.366 . S
C2787 C2791 1.385 . S
C2788 H2769 0.951 . S
C2788 C2786 1.388 . S
C2788 C2789 1.366 . S
C2789 C2788 1.366 . S
C2789 C2790 1.414 . S
C2789 C2792 1.499 . S
C2790 H2770 0.950 . S
C2790 C2789 1.414 . S
C2790 C2791 1.374 . S
C2791 H2771 0.950 . S
C2791 C2787 1.385 . S
C2791 C2790 1.374 . S
C2792 C2789 1.499 . S
C2792 C2793 1.373 . S
C2792 C2794 1.389 . S
C2793 H2772 0.950 . S
C2793 C2792 1.373 . S
C2793 C2809 1.377 . S
C2794 C2792 1.389 . S
C2794 C2795 1.524 . S
C2794 C2808 1.377 . S
C2795 C2794 1.524 . S
C2795 C2796 1.397 . S
C2795 C2800 1.363 . S
C2796 H2773 0.950 . S
C2796 C2795 1.397 . S
C2796 C2797 1.334 . S
C2797 H2774 0.950 . S
C2797 C2796 1.334 . S
C2797 C2798 1.287 . S
C2798 C2797 1.287 . S
C2798 C2799 1.524 . S
C2798 H2817 0.913 . S
C2799 H2775 0.950 . S
C2799 C2798 1.524 . S
C2799 C2800 1.415 . S
C2800 H2776 0.950 . S
C2800 C2795 1.363 . S
C2800 C2799 1.415 . S
C2801 H2777 0.951 . S
C2801 C2802 1.366 . S
C2801 C2803 1.388 . S
C2802 C2801 1.366 . S
C2802 C2806 1.385 . S
C2803 H2778 0.951 . S
C2803 C2801 1.388 . S
C2803 C2804 1.366 . S
C2804 C2803 1.366 . S
C2804 C2805 1.414 . S
C2804 C2807 1.499 . S
C2805 H2779 0.950 . S
C2805 C2804 1.414 . S
C2805 C2806 1.374 . S
C2806 H2780 0.950 . S
C2806 C2802 1.385 . S
C2806 C2805 1.374 . S
C2807 C2804 1.499 . S
C2807 C2808 1.373 . S
C2807 C2809 1.389 . S
C2808 H2781 0.950 . S
C2808 C2794 1.377 . S
C2808 C2807 1.373 . S
C2809 C2793 1.377 . S
C2809 C2807 1.389 . S
C2809 C2810 1.524 . S
C2810 C2809 1.524 . S
C2810 C2811 1.397 . S
C2810 C2815 1.363 . S
C2811 H2782 0.950 . S
C2811 C2810 1.397 . S
C2811 C2812 1.334 . S
C2812 H2783 0.950 . S
C2812 C2811 1.334 . S
C2812 C2813 1.287 . S
C2813 C2812 1.287 . S
C2813 C2814 1.524 . S
C2813 H2816 0.999 . S
C2814 H2784 0.950 . S
C2814 C2813 1.524 . S
C2814 C2815 1.415 . S
C2815 H2785 0.950 . S
C2815 C2810 1.363 . S
C2815 C2814 1.415 . S
H2816 C2813 0.999 . S
H2817 C2798 0.913 . S
H2818 C2836 0.951 . S
H2819 C2838 0.951 . S
H2820 C2840 0.950 . S
H2821 C2841 0.950 . S
H2822 C2843 0.950 . S
H2823 C2846 0.950 . S
H2824 C2847 0.950 . S
H2825 C2849 0.950 . S
H2826 C2850 0.950 . S
H2827 C2851 0.951 . S
H2828 C2853 0.951 . S
H2829 C2855 0.950 . S
H2830 C2856 0.950 . S
H2831 C2858 0.950 . S
H2832 C2861 0.950 . S
H2833 C2862 0.950 . S
H2834 C2864 0.950 . S
H2835 C2865 0.950 . S
C2836 H2818 0.951 . S
C2836 C2837 1.366 . S
C2836 C2838 1.388 . S
C2837 C2836 1.366 . S
C2837 C2841 1.385 . S
C2838 H2819 0.951 . S
C2838 C2836 1.388 . S
C2838 C2839 1.366 . S
C2839 C2838 1.366 . S
C2839 C2840 1.414 . S
C2839 C2842 1.499 . S
C2840 H2820 0.950 . S
C2840 C2839 1.414 . S
C2840 C2841 1.374 . S
C2841 H2821 0.950 . S
C2841 C2837 1.385 . S
C2841 C2840 1.374 . S
C2842 C2839 1.499 . S
C2842 C2843 1.373 . S
C2842 C2844 1.389 . S
C2843 H2822 0.950 . S
C2843 C2842 1.373 . S
C2843 C2859 1.377 . S
C2844 C2842 1.389 . S
C2844 C2845 1.524 . S
C2844 C2858 1.377 . S
C2845 C2844 1.524 . S
C2845 C2846 1.397 . S
C2845 C2850 1.363 . S
C2846 H2823 0.950 . S
C2846 C2845 1.397 . S
C2846 C2847 1.334 . S
C2847 H2824 0.950 . S
C2847 C2846 1.334 . S
C2847 C2848 1.287 . S
C2848 C2847 1.287 . S
C2848 C2849 1.524 . S
C2848 H2867 0.913 . S
C2849 H2825 0.950 . S
C2849 C2848 1.524 . S
C2849 C2850 1.415 . S
C2850 H2826 0.950 . S
C2850 C2845 1.363 . S
C2850 C2849 1.415 . S
C2851 H2827 0.951 . S
C2851 C2852 1.366 . S
C2851 C2853 1.388 . S
C2852 C2851 1.366 . S
C2852 C2856 1.385 . S
C2853 H2828 0.951 . S
C2853 C2851 1.388 . S
C2853 C2854 1.366 . S
C2854 C2853 1.366 . S
C2854 C2855 1.414 . S
C2854 C2857 1.499 . S
C2855 H2829 0.950 . S
C2855 C2854 1.414 . S
C2855 C2856 1.374 . S
C2856 H2830 0.950 . S
C2856 C2852 1.385 . S
C2856 C2855 1.374 . S
C2857 C2854 1.499 . S
C2857 C2858 1.373 . S
C2857 C2859 1.389 . S
C2858 H2831 0.950 . S
C2858 C2844 1.377 . S
C2858 C2857 1.373 . S
C2859 C2843 1.377 . S
C2859 C2857 1.389 . S
C2859 C2860 1.524 . S
C2860 C2859 1.524 . S
C2860 C2861 1.397 . S
C2860 C2865 1.363 . S
C2861 H2832 0.950 . S
C2861 C2860 1.397 . S
C2861 C2862 1.334 . S
C2862 H2833 0.950 . S
C2862 C2861 1.334 . S
C2862 C2863 1.287 . S
C2863 C2862 1.287 . S
C2863 C2864 1.524 . S
C2863 H2866 0.999 . S
C2864 H2834 0.950 . S
C2864 C2863 1.524 . S
C2864 C2865 1.415 . S
C2865 H2835 0.950 . S
C2865 C2860 1.363 . S
C2865 C2864 1.415 . S
H2866 C2863 0.999 . S
H2867 C2848 0.913 . S
H2868 C2886 0.951 . S
H2869 C2888 0.951 . S
H2870 C2890 0.950 . S
H2871 C2891 0.950 . S
H2872 C2893 0.950 . S
H2873 C2896 0.950 . S
H2874 C2897 0.950 . S
H2875 C2899 0.950 . S
H2876 C2900 0.950 . S
H2877 C2901 0.951 . S
H2878 C2903 0.951 . S
H2879 C2905 0.950 . S
H2880 C2906 0.950 . S
H2881 C2908 0.950 . S
H2882 C2911 0.950 . S
H2883 C2912 0.950 . S
H2884 C2914 0.950 . S
H2885 C2915 0.950 . S
C2886 H2868 0.951 . S
C2886 C2887 1.366 . S
C2886 C2888 1.388 . S
C2887 C2886 1.366 . S
C2887 C2891 1.385 . S
C2888 H2869 0.951 . S
C2888 C2886 1.388 . S
C2888 C2889 1.366 . S
C2889 C2888 1.366 . S
C2889 C2890 1.414 . S
C2889 C2892 1.499 . S
C2890 H2870 0.950 . S
C2890 C2889 1.414 . S
C2890 C2891 1.374 . S
C2891 H2871 0.950 . S
C2891 C2887 1.385 . S
C2891 C2890 1.374 . S
C2892 C2889 1.499 . S
C2892 C2893 1.373 . S
C2892 C2894 1.389 . S
C2893 H2872 0.950 . S
C2893 C2892 1.373 . S
C2893 C2909 1.377 . S
C2894 C2892 1.389 . S
C2894 C2895 1.524 . S
C2894 C2908 1.377 . S
C2895 C2894 1.524 . S
C2895 C2896 1.397 . S
C2895 C2900 1.363 . S
C2896 H2873 0.950 . S
C2896 C2895 1.397 . S
C2896 C2897 1.334 . S
C2897 H2874 0.950 . S
C2897 C2896 1.334 . S
C2897 C2898 1.287 . S
C2898 C2897 1.287 . S
C2898 C2899 1.524 . S
C2898 H2917 0.913 . S
C2899 H2875 0.950 . S
C2899 C2898 1.524 . S
C2899 C2900 1.415 . S
C2900 H2876 0.950 . S
C2900 C2895 1.363 . S
C2900 C2899 1.415 . S
C2901 H2877 0.951 . S
C2901 C2902 1.366 . S
C2901 C2903 1.388 . S
C2902 C2901 1.366 . S
C2902 C2906 1.385 . S
C2903 H2878 0.951 . S
C2903 C2901 1.388 . S
C2903 C2904 1.366 . S
C2904 C2903 1.366 . S
C2904 C2905 1.414 . S
C2904 C2907 1.499 . S
C2905 H2879 0.950 . S
C2905 C2904 1.414 . S
C2905 C2906 1.374 . S
C2906 H2880 0.950 . S
C2906 C2902 1.385 . S
C2906 C2905 1.374 . S
C2907 C2904 1.499 . S
C2907 C2908 1.373 . S
C2907 C2909 1.389 . S
C2908 H2881 0.950 . S
C2908 C2894 1.377 . S
C2908 C2907 1.373 . S
C2909 C2893 1.377 . S
C2909 C2907 1.389 . S
C2909 C2910 1.524 . S
C2910 C2909 1.524 . S
C2910 C2911 1.397 . S
C2910 C2915 1.363 . S
C2911 H2882 0.950 . S
C2911 C2910 1.397 . S
C2911 C2912 1.334 . S
C2912 H2883 0.950 . S
C2912 C2911 1.334 . S
C2912 C2913 1.287 . S
C2913 C2912 1.287 . S
C2913 C2914 1.524 . S
C2913 H2916 0.999 . S
C2914 H2884 0.950 . S
C2914 C2913 1.524 . S
C2914 C2915 1.415 . S
C2915 H2885 0.950 . S
C2915 C2910 1.363 . S
C2915 C2914 1.415 . S
H2916 C2913 0.999 . S
H2917 C2898 0.913 . S
H2918 C2936 0.951 . S
H2919 C2938 0.951 . S
H2920 C2940 0.950 . S
H2921 C2941 0.950 . S
H2922 C2943 0.950 . S
H2923 C2946 0.950 . S
H2924 C2947 0.950 . S
H2925 C2949 0.950 . S
H2926 C2950 0.950 . S
H2927 C2951 0.951 . S
H2928 C2953 0.951 . S
H2929 C2955 0.950 . S
H2930 C2956 0.950 . S
H2931 C2958 0.950 . S
H2932 C2961 0.950 . S
H2933 C2962 0.950 . S
H2934 C2964 0.950 . S
H2935 C2965 0.950 . S
C2936 H2918 0.951 . S
C2936 C2937 1.366 . S
C2936 C2938 1.388 . S
C2937 C2936 1.366 . S
C2937 C2941 1.385 . S
C2938 H2919 0.951 . S
C2938 C2936 1.388 . S
C2938 C2939 1.366 . S
C2939 C2938 1.366 . S
C2939 C2940 1.414 . S
C2939 C2942 1.499 . S
C2940 H2920 0.950 . S
C2940 C2939 1.414 . S
C2940 C2941 1.374 . S
C2941 H2921 0.950 . S
C2941 C2937 1.385 . S
C2941 C2940 1.374 . S
C2942 C2939 1.499 . S
C2942 C2943 1.373 . S
C2942 C2944 1.389 . S
C2943 H2922 0.950 . S
C2943 C2942 1.373 . S
C2943 C2959 1.377 . S
C2944 C2942 1.389 . S
C2944 C2945 1.524 . S
C2944 C2958 1.377 . S
C2945 C2944 1.524 . S
C2945 C2946 1.397 . S
C2945 C2950 1.363 . S
C2946 H2923 0.950 . S
C2946 C2945 1.397 . S
C2946 C2947 1.334 . S
C2947 H2924 0.950 . S
C2947 C2946 1.334 . S
C2947 C2948 1.287 . S
C2948 C2947 1.287 . S
C2948 C2949 1.524 . S
C2948 H2967 0.913 . S
C2949 H2925 0.950 . S
C2949 C2948 1.524 . S
C2949 C2950 1.415 . S
C2950 H2926 0.950 . S
C2950 C2945 1.363 . S
C2950 C2949 1.415 . S
C2951 H2927 0.951 . S
C2951 C2952 1.366 . S
C2951 C2953 1.388 . S
C2952 C2951 1.366 . S
C2952 C2956 1.385 . S
C2953 H2928 0.951 . S
C2953 C2951 1.388 . S
C2953 C2954 1.366 . S
C2954 C2953 1.366 . S
C2954 C2955 1.414 . S
C2954 C2957 1.499 . S
C2955 H2929 0.950 . S
C2955 C2954 1.414 . S
C2955 C2956 1.374 . S
C2956 H2930 0.950 . S
C2956 C2952 1.385 . S
C2956 C2955 1.374 . S
C2957 C2954 1.499 . S
C2957 C2958 1.373 . S
C2957 C2959 1.389 . S
C2958 H2931 0.950 . S
C2958 C2944 1.377 . S
C2958 C2957 1.373 . S
C2959 C2943 1.377 . S
C2959 C2957 1.389 . S
C2959 C2960 1.524 . S
C2960 C2959 1.524 . S
C2960 C2961 1.397 . S
C2960 C2965 1.363 . S
C2961 H2932 0.950 . S
C2961 C2960 1.397 . S
C2961 C2962 1.334 . S
C2962 H2933 0.950 . S
C2962 C2961 1.334 . S
C2962 C2963 1.287 . S
C2963 C2962 1.287 . S
C2963 C2964 1.524 . S
C2963 H2966 0.999 . S
C2964 H2934 0.950 . S
C2964 C2963 1.524 . S
C2964 C2965 1.415 . S
C2965 H2935 0.950 . S
C2965 C2960 1.363 . S
C2965 C2964 1.415 . S
H2966 C2963 0.999 . S
H2967 C2948 0.913 . S
H2968 C2986 0.951 . S
H2969 C2988 0.951 . S
H2970 C2990 0.950 . S
H2971 C2991 0.950 . S
H2972 C2993 0.950 . S
H2973 C2996 0.950 . S
H2974 C2997 0.950 . S
H2975 C2999 0.950 . S
H2976 C3000 0.950 . S
H2977 C3001 0.951 . S
H2978 C3003 0.951 . S
H2979 C3005 0.950 . S
H2980 C3006 0.950 . S
H2981 C3008 0.950 . S
H2982 C3011 0.950 . S
H2983 C3012 0.950 . S
H2984 C3014 0.950 . S
H2985 C3015 0.950 . S
C2986 H2968 0.951 . S
C2986 C2987 1.366 . S
C2986 C2988 1.388 . S
C2987 C2986 1.366 . S
C2987 C2991 1.385 . S
C2988 H2969 0.951 . S
C2988 C2986 1.388 . S
C2988 C2989 1.366 . S
C2989 C2988 1.366 . S
C2989 C2990 1.414 . S
C2989 C2992 1.499 . S
C2990 H2970 0.950 . S
C2990 C2989 1.414 . S
C2990 C2991 1.374 . S
C2991 H2971 0.950 . S
C2991 C2987 1.385 . S
C2991 C2990 1.374 . S
C2992 C2989 1.499 . S
C2992 C2993 1.373 . S
C2992 C2994 1.389 . S
C2993 H2972 0.950 . S
C2993 C2992 1.373 . S
C2993 C3009 1.377 . S
C2994 C2992 1.389 . S
C2994 C2995 1.524 . S
C2994 C3008 1.377 . S
C2995 C2994 1.524 . S
C2995 C2996 1.397 . S
C2995 C3000 1.363 . S
C2996 H2973 0.950 . S
C2996 C2995 1.397 . S
C2996 C2997 1.334 . S
C2997 H2974 0.950 . S
C2997 C2996 1.334 . S
C2997 C2998 1.287 . S
C2998 C2997 1.287 . S
C2998 C2999 1.524 . S
C2998 H3017 0.913 . S
C2999 H2975 0.950 . S
C2999 C2998 1.524 . S
C2999 C3000 1.415 . S
C3000 H2976 0.950 . S
C3000 C2995 1.363 . S
C3000 C2999 1.415 . S
C3001 H2977 0.951 . S
C3001 C3002 1.366 . S
C3001 C3003 1.388 . S
C3002 C3001 1.366 . S
C3002 C3006 1.385 . S
C3003 H2978 0.951 . S
C3003 C3001 1.388 . S
C3003 C3004 1.366 . S
C3004 C3003 1.366 . S
C3004 C3005 1.414 . S
C3004 C3007 1.499 . S
C3005 H2979 0.950 . S
C3005 C3004 1.414 . S
C3005 C3006 1.374 . S
C3006 H2980 0.950 . S
C3006 C3002 1.385 . S
C3006 C3005 1.374 . S
C3007 C3004 1.499 . S
C3007 C3008 1.373 . S
C3007 C3009 1.389 . S
C3008 H2981 0.950 . S
C3008 C2994 1.377 . S
C3008 C3007 1.373 . S
C3009 C2993 1.377 . S
C3009 C3007 1.389 . S
C3009 C3010 1.524 . S
C3010 C3009 1.524 . S
C3010 C3011 1.397 . S
C3010 C3015 1.363 . S
C3011 H2982 0.950 . S
C3011 C3010 1.397 . S
C3011 C3012 1.334 . S
C3012 H2983 0.950 . S
C3012 C3011 1.334 . S
C3012 C3013 1.287 . S
C3013 C3012 1.287 . S
C3013 C3014 1.524 . S
C3013 H3016 0.999 . S
C3014 H2984 0.950 . S
C3014 C3013 1.524 . S
C3014 C3015 1.415 . S
C3015 H2985 0.950 . S
C3015 C3010 1.363 . S
C3015 C3014 1.415 . S
H3016 C3013 0.999 . S
H3017 C2998 0.913 . S
H3018 C3036 0.951 . S
H3019 C3038 0.951 . S
H3020 C3040 0.950 . S
H3021 C3041 0.950 . S
H3022 C3043 0.950 . S
H3023 C3046 0.950 . S
H3024 C3047 0.950 . S
H3025 C3049 0.950 . S
H3026 C3050 0.950 . S
H3027 C3051 0.951 . S
H3028 C3053 0.951 . S
H3029 C3055 0.950 . S
H3030 C3056 0.950 . S
H3031 C3058 0.950 . S
H3032 C3061 0.950 . S
H3033 C3062 0.950 . S
H3034 C3064 0.950 . S
H3035 C3065 0.950 . S
C3036 H3018 0.951 . S
C3036 C3037 1.366 . S
C3036 C3038 1.388 . S
C3037 C3036 1.366 . S
C3037 C3041 1.385 . S
C3038 H3019 0.951 . S
C3038 C3036 1.388 . S
C3038 C3039 1.366 . S
C3039 C3038 1.366 . S
C3039 C3040 1.414 . S
C3039 C3042 1.499 . S
C3040 H3020 0.950 . S
C3040 C3039 1.414 . S
C3040 C3041 1.374 . S
C3041 H3021 0.950 . S
C3041 C3037 1.385 . S
C3041 C3040 1.374 . S
C3042 C3039 1.499 . S
C3042 C3043 1.373 . S
C3042 C3044 1.389 . S
C3043 H3022 0.950 . S
C3043 C3042 1.373 . S
C3043 C3059 1.377 . S
C3044 C3042 1.389 . S
C3044 C3045 1.524 . S
C3044 C3058 1.377 . S
C3045 C3044 1.524 . S
C3045 C3046 1.397 . S
C3045 C3050 1.363 . S
C3046 H3023 0.950 . S
C3046 C3045 1.397 . S
C3046 C3047 1.334 . S
C3047 H3024 0.950 . S
C3047 C3046 1.334 . S
C3047 C3048 1.287 . S
C3048 C3047 1.287 . S
C3048 C3049 1.524 . S
C3048 H3067 0.913 . S
C3049 H3025 0.950 . S
C3049 C3048 1.524 . S
C3049 C3050 1.415 . S
C3050 H3026 0.950 . S
C3050 C3045 1.363 . S
C3050 C3049 1.415 . S
C3051 H3027 0.951 . S
C3051 C3052 1.366 . S
C3051 C3053 1.388 . S
C3052 C3051 1.366 . S
C3052 C3056 1.385 . S
C3053 H3028 0.951 . S
C3053 C3051 1.388 . S
C3053 C3054 1.366 . S
C3054 C3053 1.366 . S
C3054 C3055 1.414 . S
C3054 C3057 1.499 . S
C3055 H3029 0.950 . S
C3055 C3054 1.414 . S
C3055 C3056 1.374 . S
C3056 H3030 0.950 . S
C3056 C3052 1.385 . S
C3056 C3055 1.374 . S
C3057 C3054 1.499 . S
C3057 C3058 1.373 . S
C3057 C3059 1.389 . S
C3058 H3031 0.950 . S
C3058 C3044 1.377 . S
C3058 C3057 1.373 . S
C3059 C3043 1.377 . S
C3059 C3057 1.389 . S
C3059 C3060 1.524 . S
C3060 C3059 1.524 . S
C3060 C3061 1.397 . S
C3060 C3065 1.363 . S
C3061 H3032 0.950 . S
C3061 C3060 1.397 . S
C3061 C3062 1.334 . S
C3062 H3033 0.950 . S
C3062 C3061 1.334 . S
C3062 C3063 1.287 . S
C3063 C3062 1.287 . S
C3063 C3064 1.524 . S
C3063 H3066 0.999 . S
C3064 H3034 0.950 . S
C3064 C3063 1.524 . S
C3064 C3065 1.415 . S
C3065 H3035 0.950 . S
C3065 C3060 1.363 . S
C3065 C3064 1.415 . S
H3066 C3063 0.999 . S
H3067 C3048 0.913 . S
H3068 C3086 0.951 . S
H3069 C3088 0.951 . S
H3070 C3090 0.950 . S
H3071 C3091 0.950 . S
H3072 C3093 0.950 . S
H3073 C3096 0.950 . S
H3074 C3097 0.950 . S
H3075 C3099 0.950 . S
H3076 C3100 0.950 . S
H3077 C3101 0.951 . S
H3078 C3103 0.951 . S
H3079 C3105 0.950 . S
H3080 C3106 0.950 . S
H3081 C3108 0.950 . S
H3082 C3111 0.950 . S
H3083 C3112 0.950 . S
H3084 C3114 0.950 . S
H3085 C3115 0.950 . S
C3086 H3068 0.951 . S
C3086 C3087 1.366 . S
C3086 C3088 1.388 . S
C3087 C3086 1.366 . S
C3087 C3091 1.385 . S
C3088 H3069 0.951 . S
C3088 C3086 1.388 . S
C3088 C3089 1.366 . S
C3089 C3088 1.366 . S
C3089 C3090 1.414 . S
C3089 C3092 1.499 . S
C3090 H3070 0.950 . S
C3090 C3089 1.414 . S
C3090 C3091 1.374 . S
C3091 H3071 0.950 . S
C3091 C3087 1.385 . S
C3091 C3090 1.374 . S
C3092 C3089 1.499 . S
C3092 C3093 1.373 . S
C3092 C3094 1.389 . S
C3093 H3072 0.950 . S
C3093 C3092 1.373 . S
C3093 C3109 1.377 . S
C3094 C3092 1.389 . S
C3094 C3095 1.524 . S
C3094 C3108 1.377 . S
C3095 C3094 1.524 . S
C3095 C3096 1.397 . S
C3095 C3100 1.363 . S
C3096 H3073 0.950 . S
C3096 C3095 1.397 . S
C3096 C3097 1.334 . S
C3097 H3074 0.950 . S
C3097 C3096 1.334 . S
C3097 C3098 1.287 . S
C3098 C3097 1.287 . S
C3098 C3099 1.524 . S
C3098 H3117 0.913 . S
C3099 H3075 0.950 . S
C3099 C3098 1.524 . S
C3099 C3100 1.415 . S
C3100 H3076 0.950 . S
C3100 C3095 1.363 . S
C3100 C3099 1.415 . S
C3101 H3077 0.951 . S
C3101 C3102 1.366 . S
C3101 C3103 1.388 . S
C3102 C3101 1.366 . S
C3102 C3106 1.385 . S
C3103 H3078 0.951 . S
C3103 C3101 1.388 . S
C3103 C3104 1.366 . S
C3104 C3103 1.366 . S
C3104 C3105 1.414 . S
C3104 C3107 1.499 . S
C3105 H3079 0.950 . S
C3105 C3104 1.414 . S
C3105 C3106 1.374 . S
C3106 H3080 0.950 . S
C3106 C3102 1.385 . S
C3106 C3105 1.374 . S
C3107 C3104 1.499 . S
C3107 C3108 1.373 . S
C3107 C3109 1.389 . S
C3108 H3081 0.950 . S
C3108 C3094 1.377 . S
C3108 C3107 1.373 . S
C3109 C3093 1.377 . S
C3109 C3107 1.389 . S
C3109 C3110 1.524 . S
C3110 C3109 1.524 . S
C3110 C3111 1.397 . S
C3110 C3115 1.363 . S
C3111 H3082 0.950 . S
C3111 C3110 1.397 . S
C3111 C3112 1.334 . S
C3112 H3083 0.950 . S
C3112 C3111 1.334 . S
C3112 C3113 1.287 . S
C3113 C3112 1.287 . S
C3113 C3114 1.524 . S
C3113 H3116 0.999 . S
C3114 H3084 0.950 . S
C3114 C3113 1.524 . S
C3114 C3115 1.415 . S
C3115 H3085 0.950 . S
C3115 C3110 1.363 . S
C3115 C3114 1.415 . S
H3116 C3113 0.999 . S
H3117 C3098 0.913 . S
H3118 C3136 0.951 . S
H3119 C3138 0.951 . S
H3120 C3140 0.950 . S
H3121 C3141 0.950 . S
H3122 C3143 0.950 . S
H3123 C3146 0.950 . S
H3124 C3147 0.950 . S
H3125 C3149 0.950 . S
H3126 C3150 0.950 . S
H3127 C3151 0.951 . S
H3128 C3153 0.951 . S
H3129 C3155 0.950 . S
H3130 C3156 0.950 . S
H3131 C3158 0.950 . S
H3132 C3161 0.950 . S
H3133 C3162 0.950 . S
H3134 C3164 0.950 . S
H3135 C3165 0.950 . S
C3136 H3118 0.951 . S
C3136 C3137 1.366 . S
C3136 C3138 1.388 . S
C3137 C3136 1.366 . S
C3137 C3141 1.385 . S
C3138 H3119 0.951 . S
C3138 C3136 1.388 . S
C3138 C3139 1.366 . S
C3139 C3138 1.366 . S
C3139 C3140 1.414 . S
C3139 C3142 1.499 . S
C3140 H3120 0.950 . S
C3140 C3139 1.414 . S
C3140 C3141 1.374 . S
C3141 H3121 0.950 . S
C3141 C3137 1.385 . S
C3141 C3140 1.374 . S
C3142 C3139 1.499 . S
C3142 C3143 1.373 . S
C3142 C3144 1.389 . S
C3143 H3122 0.950 . S
C3143 C3142 1.373 . S
C3143 C3159 1.377 . S
C3144 C3142 1.389 . S
C3144 C3145 1.524 . S
C3144 C3158 1.377 . S
C3145 C3144 1.524 . S
C3145 C3146 1.397 . S
C3145 C3150 1.363 . S
C3146 H3123 0.950 . S
C3146 C3145 1.397 . S
C3146 C3147 1.334 . S
C3147 H3124 0.950 . S
C3147 C3146 1.334 . S
C3147 C3148 1.287 . S
C3148 C3147 1.287 . S
C3148 C3149 1.524 . S
C3148 H3167 0.913 . S
C3149 H3125 0.950 . S
C3149 C3148 1.524 . S
C3149 C3150 1.415 . S
C3150 H3126 0.950 . S
C3150 C3145 1.363 . S
C3150 C3149 1.415 . S
C3151 H3127 0.951 . S
C3151 C3152 1.366 . S
C3151 C3153 1.388 . S
C3152 C3151 1.366 . S
C3152 C3156 1.385 . S
C3153 H3128 0.951 . S
C3153 C3151 1.388 . S
C3153 C3154 1.366 . S
C3154 C3153 1.366 . S
C3154 C3155 1.414 . S
C3154 C3157 1.499 . S
C3155 H3129 0.950 . S
C3155 C3154 1.414 . S
C3155 C3156 1.374 . S
C3156 H3130 0.950 . S
C3156 C3152 1.385 . S
C3156 C3155 1.374 . S
C3157 C3154 1.499 . S
C3157 C3158 1.373 . S
C3157 C3159 1.389 . S
C3158 H3131 0.950 . S
C3158 C3144 1.377 . S
C3158 C3157 1.373 . S
C3159 C3143 1.377 . S
C3159 C3157 1.389 . S
C3159 C3160 1.524 . S
C3160 C3159 1.524 . S
C3160 C3161 1.397 . S
C3160 C3165 1.363 . S
C3161 H3132 0.950 . S
C3161 C3160 1.397 . S
C3161 C3162 1.334 . S
C3162 H3133 0.950 . S
C3162 C3161 1.334 . S
C3162 C3163 1.287 . S
C3163 C3162 1.287 . S
C3163 C3164 1.524 . S
C3163 H3166 0.999 . S
C3164 H3134 0.950 . S
C3164 C3163 1.524 . S
C3164 C3165 1.415 . S
C3165 H3135 0.950 . S
C3165 C3160 1.363 . S
C3165 C3164 1.415 . S
H3166 C3163 0.999 . S
H3167 C3148 0.913 . S
H3168 C3186 0.951 . S
H3169 C3188 0.951 . S
H3170 C3190 0.950 . S
H3171 C3191 0.950 . S
H3172 C3193 0.950 . S
H3173 C3196 0.950 . S
H3174 C3197 0.950 . S
H3175 C3199 0.950 . S
H3176 C3200 0.950 . S
H3177 C3201 0.951 . S
H3178 C3203 0.951 . S
H3179 C3205 0.950 . S
H3180 C3206 0.950 . S
H3181 C3208 0.950 . S
H3182 C3211 0.950 . S
H3183 C3212 0.950 . S
H3184 C3214 0.950 . S
H3185 C3215 0.950 . S
C3186 H3168 0.951 . S
C3186 C3187 1.366 . S
C3186 C3188 1.388 . S
C3187 C3186 1.366 . S
C3187 C3191 1.385 . S
C3188 H3169 0.951 . S
C3188 C3186 1.388 . S
C3188 C3189 1.366 . S
C3189 C3188 1.366 . S
C3189 C3190 1.414 . S
C3189 C3192 1.499 . S
C3190 H3170 0.950 . S
C3190 C3189 1.414 . S
C3190 C3191 1.374 . S
C3191 H3171 0.950 . S
C3191 C3187 1.385 . S
C3191 C3190 1.374 . S
C3192 C3189 1.499 . S
C3192 C3193 1.373 . S
C3192 C3194 1.389 . S
C3193 H3172 0.950 . S
C3193 C3192 1.373 . S
C3193 C3209 1.377 . S
C3194 C3192 1.389 . S
C3194 C3195 1.524 . S
C3194 C3208 1.377 . S
C3195 C3194 1.524 . S
C3195 C3196 1.397 . S
C3195 C3200 1.363 . S
C3196 H3173 0.950 . S
C3196 C3195 1.397 . S
C3196 C3197 1.334 1_554 S
C3197 H3174 0.950 . S
C3197 C3196 1.334 1_556 S
C3197 C3198 1.287 . S
C3198 C3197 1.287 . S
C3198 C3199 1.524 1_556 S
C3198 H3217 0.913 . S
C3199 H3175 0.950 . S
C3199 C3198 1.524 1_554 S
C3199 C3200 1.415 . S
C3200 H3176 0.950 . S
C3200 C3195 1.363 . S
C3200 C3199 1.415 . S
C3201 H3177 0.951 . S
C3201 C3202 1.366 . S
C3201 C3203 1.388 . S
C3202 C3201 1.366 . S
C3202 C3206 1.385 . S
C3203 H3178 0.951 . S
C3203 C3201 1.388 . S
C3203 C3204 1.366 . S
C3204 C3203 1.366 . S
C3204 C3205 1.414 . S
C3204 C3207 1.499 . S
C3205 H3179 0.950 . S
C3205 C3204 1.414 . S
C3205 C3206 1.374 . S
C3206 H3180 0.950 . S
C3206 C3202 1.385 . S
C3206 C3205 1.374 . S
C3207 C3204 1.499 . S
C3207 C3208 1.373 . S
C3207 C3209 1.389 . S
C3208 H3181 0.950 . S
C3208 C3194 1.377 . S
C3208 C3207 1.373 . S
C3209 C3193 1.377 . S
C3209 C3207 1.389 . S
C3209 C3210 1.524 . S
C3210 C3209 1.524 . S
C3210 C3211 1.397 . S
C3210 C3215 1.363 . S
C3211 H3182 0.950 . S
C3211 C3210 1.397 . S
C3211 C3212 1.334 . S
C3212 H3183 0.950 . S
C3212 C3211 1.334 . S
C3212 C3213 1.287 . S
C3213 C3212 1.287 . S
C3213 C3214 1.524 . S
C3213 H3216 0.999 . S
C3214 H3184 0.950 . S
C3214 C3213 1.524 . S
C3214 C3215 1.415 . S
C3215 H3185 0.950 . S
C3215 C3210 1.363 . S
C3215 C3214 1.415 . S
H3216 C3213 0.999 . S
H3217 C3198 0.913 . S
H3218 C3236 0.951 . S
H3219 C3238 0.951 . S
H3220 C3240 0.950 . S
H3221 C3241 0.950 . S
H3222 C3243 0.950 . S
H3223 C3246 0.950 . S
H3224 C3247 0.950 . S
H3225 C3249 0.950 . S
H3226 C3250 0.950 . S
H3227 C3251 0.951 . S
H3228 C3253 0.951 . S
H3229 C3255 0.950 . S
H3230 C3256 0.950 . S
H3231 C3258 0.950 . S
H3232 C3261 0.950 . S
H3233 C3262 0.950 . S
H3234 C3264 0.950 . S
H3235 C3265 0.950 . S
C3236 H3218 0.951 . S
C3236 C3237 1.366 . S
C3236 C3238 1.388 . S
C3237 C3236 1.366 . S
C3237 C3241 1.385 . S
C3238 H3219 0.951 . S
C3238 C3236 1.388 . S
C3238 C3239 1.366 . S
C3239 C3238 1.366 . S
C3239 C3240 1.414 . S
C3239 C3242 1.499 . S
C3240 H3220 0.950 . S
C3240 C3239 1.414 . S
C3240 C3241 1.374 . S
C3241 H3221 0.950 . S
C3241 C3237 1.385 . S
C3241 C3240 1.374 . S
C3242 C3239 1.499 . S
C3242 C3243 1.373 . S
C3242 C3244 1.389 . S
C3243 H3222 0.950 . S
C3243 C3242 1.373 . S
C3243 C3259 1.377 . S
C3244 C3242 1.389 . S
C3244 C3245 1.524 . S
C3244 C3258 1.377 . S
C3245 C3244 1.524 . S
C3245 C3246 1.397 . S
C3245 C3250 1.363 . S
C3246 H3223 0.950 . S
C3246 C3245 1.397 . S
C3246 C3247 1.334 . S
C3247 H3224 0.950 . S
C3247 C3246 1.334 . S
C3247 C3248 1.287 . S
C3248 C3247 1.287 . S
C3248 C3249 1.524 . S
C3248 H3267 0.913 . S
C3249 H3225 0.950 . S
C3249 C3248 1.524 . S
C3249 C3250 1.415 . S
C3250 H3226 0.950 . S
C3250 C3245 1.363 . S
C3250 C3249 1.415 . S
C3251 H3227 0.951 . S
C3251 C3252 1.366 . S
C3251 C3253 1.388 . S
C3252 C3251 1.366 . S
C3252 C3256 1.385 . S
C3253 H3228 0.951 . S
C3253 C3251 1.388 . S
C3253 C3254 1.366 . S
C3254 C3253 1.366 . S
C3254 C3255 1.414 . S
C3254 C3257 1.499 . S
C3255 H3229 0.950 . S
C3255 C3254 1.414 . S
C3255 C3256 1.374 . S
C3256 H3230 0.950 . S
C3256 C3252 1.385 . S
C3256 C3255 1.374 . S
C3257 C3254 1.499 . S
C3257 C3258 1.373 . S
C3257 C3259 1.389 . S
C3258 H3231 0.950 . S
C3258 C3244 1.377 . S
C3258 C3257 1.373 . S
C3259 C3243 1.377 . S
C3259 C3257 1.389 . S
C3259 C3260 1.524 . S
C3260 C3259 1.524 . S
C3260 C3261 1.397 . S
C3260 C3265 1.363 . S
C3261 H3232 0.950 . S
C3261 C3260 1.397 . S
C3261 C3262 1.334 . S
C3262 H3233 0.950 . S
C3262 C3261 1.334 . S
C3262 C3263 1.287 . S
C3263 C3262 1.287 . S
C3263 C3264 1.524 . S
C3263 H3266 0.999 . S
C3264 H3234 0.950 . S
C3264 C3263 1.524 . S
C3264 C3265 1.415 . S
C3265 H3235 0.950 . S
C3265 C3260 1.363 . S
C3265 C3264 1.415 . S
H3266 C3263 0.999 . S
H3267 C3248 0.913 . S
H3268 C3286 0.951 . S
H3269 C3288 0.951 . S
H3270 C3290 0.950 . S
H3271 C3291 0.950 . S
H3272 C3293 0.950 . S
H3273 C3296 0.950 . S
H3274 C3297 0.950 . S
H3275 C3299 0.950 . S
H3276 C3300 0.950 . S
H3277 C3301 0.951 . S
H3278 C3303 0.951 . S
H3279 C3305 0.950 . S
H3280 C3306 0.950 . S
H3281 C3308 0.950 . S
H3282 C3311 0.950 . S
H3283 C3312 0.950 . S
H3284 C3314 0.950 . S
H3285 C3315 0.950 . S
C3286 H3268 0.951 . S
C3286 C3287 1.366 . S
C3286 C3288 1.388 . S
C3287 C3286 1.366 . S
C3287 C3291 1.385 . S
C3288 H3269 0.951 . S
C3288 C3286 1.388 . S
C3288 C3289 1.366 . S
C3289 C3288 1.366 . S
C3289 C3290 1.414 . S
C3289 C3292 1.499 . S
C3290 H3270 0.950 . S
C3290 C3289 1.414 . S
C3290 C3291 1.374 . S
C3291 H3271 0.950 . S
C3291 C3287 1.385 . S
C3291 C3290 1.374 . S
C3292 C3289 1.499 . S
C3292 C3293 1.373 . S
C3292 C3294 1.389 . S
C3293 H3272 0.950 . S
C3293 C3292 1.373 . S
C3293 C3309 1.377 . S
C3294 C3292 1.389 . S
C3294 C3295 1.524 . S
C3294 C3308 1.377 . S
C3295 C3294 1.524 . S
C3295 C3296 1.397 . S
C3295 C3300 1.363 . S
C3296 H3273 0.950 . S
C3296 C3295 1.397 . S
C3296 C3297 1.334 1_554 S
C3297 H3274 0.950 . S
C3297 C3296 1.334 1_556 S
C3297 C3298 1.274 1_556 S
C3298 C3297 1.274 1_554 S
C3298 C3299 1.565 . S
C3298 H3317 0.885 1_554 S
C3299 H3275 0.950 . S
C3299 C3298 1.565 . S
C3299 C3300 1.415 . S
C3300 H3276 0.950 . S
C3300 C3295 1.363 . S
C3300 C3299 1.415 . S
C3301 H3277 0.951 . S
C3301 C3302 1.366 . S
C3301 C3303 1.388 . S
C3302 C3301 1.366 . S
C3302 C3306 1.385 . S
C3303 H3278 0.951 . S
C3303 C3301 1.388 . S
C3303 C3304 1.366 . S
C3304 C3303 1.366 . S
C3304 C3305 1.414 . S
C3304 C3307 1.499 . S
C3305 H3279 0.950 . S
C3305 C3304 1.414 . S
C3305 C3306 1.374 . S
C3306 H3280 0.950 . S
C3306 C3302 1.385 . S
C3306 C3305 1.374 . S
C3307 C3304 1.499 . S
C3307 C3308 1.373 . S
C3307 C3309 1.389 . S
C3308 H3281 0.950 . S
C3308 C3294 1.377 . S
C3308 C3307 1.373 . S
C3309 C3293 1.377 . S
C3309 C3307 1.389 . S
C3309 C3310 1.524 . S
C3310 C3309 1.524 . S
C3310 C3311 1.397 . S
C3310 C3315 1.363 . S
C3311 H3282 0.950 . S
C3311 C3310 1.397 . S
C3311 C3312 1.334 . S
C3312 H3283 0.950 . S
C3312 C3311 1.334 . S
C3312 C3313 1.287 . S
C3313 C3312 1.287 . S
C3313 C3314 1.524 . S
C3313 H3316 0.999 . S
C3314 H3284 0.950 . S
C3314 C3313 1.524 . S
C3314 C3315 1.415 . S
C3315 H3285 0.950 . S
C3315 C3310 1.363 . S
C3315 C3314 1.415 . S
H3316 C3313 0.999 . S
H3317 C3298 0.885 1_556 S
H3318 C3336 0.946 1_554 S
H3319 C3338 0.951 . S
H3320 C3340 0.950 . S
H3321 C3341 0.950 . S
H3322 C3343 0.950 . S
H3323 C3346 0.950 . S
H3324 C3347 0.950 . S
H3325 C3349 0.950 . S
H3326 C3350 0.950 . S
H3327 C3351 0.951 . S
H3328 C3353 0.951 . S
H3329 C3355 0.950 . S
H3330 C3356 0.950 . S
H3331 C3358 0.950 . S
H3332 C3361 0.953 . S
H3333 C3362 0.950 . S
H3334 C3364 0.950 . S
H3335 C3365 0.950 . S
C3336 H3318 0.946 1_556 S
C3336 C3337 1.367 . S
C3336 C3338 1.391 . S
C3337 C3336 1.367 . S
C3337 C3341 1.385 . S
C3338 H3319 0.951 . S
C3338 C3336 1.391 . S
C3338 C3339 1.366 . S
C3339 C3338 1.366 . S
C3339 C3340 1.414 . S
C3339 C3342 1.499 . S
C3340 H3320 0.950 . S
C3340 C3339 1.414 . S
C3340 C3341 1.374 . S
C3341 H3321 0.950 . S
C3341 C3337 1.385 . S
C3341 C3340 1.374 . S
C3342 C3339 1.499 . S
C3342 C3343 1.373 . S
C3342 C3344 1.389 . S
C3343 H3322 0.950 . S
C3343 C3342 1.373 . S
C3343 C3359 1.377 . S
C3344 C3342 1.389 . S
C3344 C3345 1.524 . S
C3344 C3358 1.377 . S
C3345 C3344 1.524 . S
C3345 C3346 1.397 . S
C3345 C3350 1.363 . S
C3346 H3323 0.950 . S
C3346 C3345 1.397 . S
C3346 C3347 1.334 . S
C3347 H3324 0.950 . S
C3347 C3346 1.334 . S
C3347 C3348 1.287 . S
C3348 C3347 1.287 . S
C3348 C3349 1.524 . S
C3348 H3367 0.913 . S
C3349 H3325 0.950 . S
C3349 C3348 1.524 . S
C3349 C3350 1.415 . S
C3350 H3326 0.950 . S
C3350 C3345 1.363 . S
C3350 C3349 1.415 . S
C3351 H3327 0.951 . S
C3351 C3352 1.366 . S
C3351 C3353 1.388 . S
C3352 C3351 1.366 . S
C3352 C3356 1.385 . S
C3353 H3328 0.951 . S
C3353 C3351 1.388 . S
C3353 C3354 1.366 . S
C3354 C3353 1.366 . S
C3354 C3355 1.414 . S
C3354 C3357 1.499 . S
C3355 H3329 0.950 . S
C3355 C3354 1.414 . S
C3355 C3356 1.374 . S
C3356 H3330 0.950 . S
C3356 C3352 1.385 . S
C3356 C3355 1.374 . S
C3357 C3354 1.499 . S
C3357 C3358 1.373 . S
C3357 C3359 1.389 . S
C3358 H3331 0.950 . S
C3358 C3344 1.377 . S
C3358 C3357 1.373 . S
C3359 C3343 1.377 . S
C3359 C3357 1.389 . S
C3359 C3360 1.524 . S
C3360 C3359 1.524 . S
C3360 C3361 1.397 . S
C3360 C3365 1.363 . S
C3361 H3332 0.953 . S
C3361 C3360 1.397 . S
C3361 C3362 1.334 1_556 S
C3362 H3333 0.950 . S
C3362 C3361 1.334 1_554 S
C3362 C3363 1.287 . S
C3363 C3362 1.287 . S
C3363 C3364 1.524 1_554 S
C3363 H3366 0.999 . S
C3364 H3334 0.950 . S
C3364 C3363 1.524 1_556 S
C3364 C3365 1.415 . S
C3365 H3335 0.950 . S
C3365 C3360 1.363 . S
C3365 C3364 1.415 . S
H3366 C3363 0.999 . S
H3367 C3348 0.913 . S
H3368 C3386 0.951 . S
H3369 C3388 0.951 . S
H3370 C3390 0.950 . S
H3371 C3391 0.950 . S
H3372 C3393 0.992 . S
H3373 C3396 0.950 . S
H3374 C3397 0.950 . S
H3375 C3399 0.950 . S
H3376 C3400 0.950 . S
H3377 C3401 0.951 . S
H3378 C3403 0.951 . S
H3379 C3405 0.950 . S
H3380 C3406 0.950 . S
H3381 C3408 0.950 . S
H3382 C3411 0.950 . S
H3383 C3412 0.950 . S
H3384 C3414 0.950 . S
H3385 C3415 0.941 1_556 S
C3386 H3368 0.951 . S
C3386 C3387 1.366 . S
C3386 C3388 1.388 . S
C3387 C3386 1.366 . S
C3387 C3391 1.385 . S
C3388 H3369 0.951 . S
C3388 C3386 1.388 . S
C3388 C3389 1.366 . S
C3389 C3388 1.366 . S
C3389 C3390 1.414 . S
C3389 C3392 1.499 . S
C3390 H3370 0.950 . S
C3390 C3389 1.414 . S
C3390 C3391 1.374 . S
C3391 H3371 0.950 . S
C3391 C3387 1.385 . S
C3391 C3390 1.374 . S
C3392 C3389 1.499 . S
C3392 C3393 1.373 . S
C3392 C3394 1.389 . S
C3393 H3372 0.992 . S
C3393 C3392 1.373 . S
C3393 C3409 1.377 . S
C3394 C3392 1.389 . S
C3394 C3395 1.524 . S
C3394 C3408 1.377 . S
C3395 C3394 1.524 . S
C3395 C3396 1.397 . S
C3395 C3400 1.363 . S
C3396 H3373 0.950 . S
C3396 C3395 1.397 . S
C3396 C3397 1.334 . S
C3397 H3374 0.950 . S
C3397 C3396 1.334 . S
C3397 C3398 1.287 . S
C3398 C3397 1.287 . S
C3398 C3399 1.524 . S
C3398 H3417 0.913 . S
C3399 H3375 0.950 . S
C3399 C3398 1.524 . S
C3399 C3400 1.415 . S
C3400 H3376 0.950 . S
C3400 C3395 1.363 . S
C3400 C3399 1.415 . S
C3401 H3377 0.951 . S
C3401 C3402 1.366 . S
C3401 C3403 1.388 . S
C3402 C3401 1.366 . S
C3402 C3406 1.385 . S
C3403 H3378 0.951 . S
C3403 C3401 1.388 . S
C3403 C3404 1.366 . S
C3404 C3403 1.366 . S
C3404 C3405 1.414 . S
C3404 C3407 1.499 . S
C3405 H3379 0.950 . S
C3405 C3404 1.414 . S
C3405 C3406 1.374 . S
C3406 H3380 0.950 . S
C3406 C3402 1.385 . S
C3406 C3405 1.374 . S
C3407 C3404 1.499 . S
C3407 C3408 1.373 . S
C3407 C3409 1.389 . S
C3408 H3381 0.950 . S
C3408 C3394 1.377 . S
C3408 C3407 1.373 . S
C3409 C3393 1.377 . S
C3409 C3407 1.389 . S
C3409 C3410 1.524 . S
C3410 C3409 1.524 . S
C3410 C3411 1.397 1_556 S
C3410 C3415 1.363 1_556 S
C3411 H3382 0.950 . S
C3411 C3410 1.397 1_554 S
C3411 C3412 1.334 . S
C3412 H3383 0.950 . S
C3412 C3411 1.334 . S
C3412 C3413 1.287 . S
C3413 C3412 1.287 . S
C3413 C3414 1.524 . S
C3413 H3416 0.999 . S
C3414 H3384 0.950 . S
C3414 C3413 1.524 . S
C3414 C3415 1.415 . S
C3415 H3385 0.941 1_554 S
C3415 C3410 1.363 1_554 S
C3415 C3414 1.415 . S
H3416 C3413 0.999 . S
H3417 C3398 0.913 . S
H3418 C3436 0.951 . S
H3419 C3438 0.951 . S
H3420 C3440 0.950 . S
H3421 C3441 0.950 . S
H3422 C3443 0.950 . S
H3423 C3446 0.950 1_556 S
H3424 C3447 0.950 . S
H3425 C3449 0.950 . S
H3426 C3450 0.950 . S
H3427 C3451 0.951 . S
H3428 C3453 0.951 . S
H3429 C3455 0.950 . S
H3430 C3456 0.950 . S
H3431 C3458 0.950 . S
H3432 C3461 0.950 . S
H3433 C3462 0.950 . S
H3434 C3464 0.950 . S
H3435 C3465 0.950 . S
C3436 H3418 0.951 . S
C3436 C3437 1.366 1_554 S
C3436 C3438 1.388 . S
C3437 C3436 1.366 1_556 S
C3437 C3441 1.385 . S
C3438 H3419 0.951 . S
C3438 C3436 1.388 . S
C3438 C3439 1.366 1_554 S
C3439 C3438 1.366 1_556 S
C3439 C3440 1.414 . S
C3439 C3442 1.499 . S
C3440 H3420 0.950 . S
C3440 C3439 1.414 . S
C3440 C3441 1.374 . S
C3441 H3421 0.950 . S
C3441 C3437 1.385 . S
C3441 C3440 1.374 . S
C3442 C3439 1.499 . S
C3442 C3443 1.373 . S
C3442 C3444 1.389 . S
C3443 H3422 0.950 . S
C3443 C3442 1.373 . S
C3443 C3459 1.377 . S
C3444 C3442 1.389 . S
C3444 C3445 1.524 1_556 S
C3444 C3458 1.377 . S
C3445 C3444 1.524 1_554 S
C3445 C3446 1.397 . S
C3445 C3450 1.363 . S
C3446 H3423 0.950 1_554 S
C3446 C3445 1.397 . S
C3446 C3447 1.334 . S
C3447 H3424 0.950 . S
C3447 C3446 1.334 . S
C3447 C3448 1.287 . S
C3448 C3447 1.287 . S
C3448 C3449 1.524 . S
C3448 H3467 0.913 . S
C3449 H3425 0.950 . S
C3449 C3448 1.524 . S
C3449 C3450 1.415 . S
C3450 H3426 0.950 . S
C3450 C3445 1.363 . S
C3450 C3449 1.415 . S
C3451 H3427 0.951 . S
C3451 C3452 1.366 . S
C3451 C3453 1.388 . S
C3452 C3451 1.366 . S
C3452 C3456 1.385 . S
C3453 H3428 0.951 . S
C3453 C3451 1.388 . S
C3453 C3454 1.366 . S
C3454 C3453 1.366 . S
C3454 C3455 1.414 . S
C3454 C3457 1.499 . S
C3455 H3429 0.950 . S
C3455 C3454 1.414 . S
C3455 C3456 1.374 . S
C3456 H3430 0.950 . S
C3456 C3452 1.385 . S
C3456 C3455 1.374 . S
C3457 C3454 1.499 . S
C3457 C3458 1.373 . S
C3457 C3459 1.389 . S
C3458 H3431 0.950 . S
C3458 C3444 1.377 . S
C3458 C3457 1.373 . S
C3459 C3443 1.377 . S
C3459 C3457 1.389 . S
C3459 C3460 1.524 . S
C3460 C3459 1.524 . S
C3460 C3461 1.397 . S
C3460 C3465 1.363 . S
C3461 H3432 0.950 . S
C3461 C3460 1.397 . S
C3461 C3462 1.334 . S
C3462 H3433 0.950 . S
C3462 C3461 1.334 . S
C3462 C3463 1.287 . S
C3463 C3462 1.287 . S
C3463 C3464 1.524 . S
C3463 H3466 0.999 . S
C3464 H3434 0.950 . S
C3464 C3463 1.524 . S
C3464 C3465 1.415 . S
C3465 H3435 0.950 . S
C3465 C3460 1.363 . S
C3465 C3464 1.415 . S
H3466 C3463 0.999 . S
H3467 C3448 0.913 . S
H3468 C3486 0.951 . S
H3469 C3488 0.951 . S
H3470 C3490 0.950 . S
H3471 C3491 0.950 . S
H3472 C3493 0.950 . S
H3473 C3496 0.950 1_554 S
H3474 C3497 0.950 1_554 S
H3475 C3499 0.950 . S
H3476 C3500 0.950 . S
H3477 C3501 0.951 . S
H3478 C3503 0.951 . S
H3479 C3505 0.950 . S
H3480 C3506 0.950 . S
H3481 C3508 0.950 . S
H3482 C3511 0.950 . S
H3483 C3512 0.950 . S
H3484 C3514 0.950 . S
H3485 C3515 0.950 . S
C3486 H3468 0.951 . S
C3486 C3487 1.366 . S
C3486 C3488 1.388 . S
C3487 C3486 1.366 . S
C3487 C3491 1.385 1_556 S
C3488 H3469 0.951 . S
C3488 C3486 1.388 . S
C3488 C3489 1.366 . S
C3489 C3488 1.366 . S
C3489 C3490 1.414 1_556 S
C3489 C3492 1.499 . S
C3490 H3470 0.950 . S
C3490 C3489 1.414 1_554 S
C3490 C3491 1.374 . S
C3491 H3471 0.950 . S
C3491 C3487 1.385 1_554 S
C3491 C3490 1.374 . S
C3492 C3489 1.499 . S
C3492 C3493 1.373 . S
C3492 C3494 1.389 . S
C3493 H3472 0.950 . S
C3493 C3492 1.373 . S
C3493 C3509 1.377 . S
C3494 C3492 1.389 . S
C3494 C3495 1.524 . S
C3494 C3508 1.377 . S
C3495 C3494 1.524 . S
C3495 C3496 1.397 . S
C3495 C3500 1.363 . S
C3496 H3473 0.950 1_556 S
C3496 C3495 1.397 . S
C3496 C3497 1.334 . S
C3497 H3474 0.950 1_556 S
C3497 C3496 1.334 . S
C3497 C3498 1.287 . S
C3498 C3497 1.287 . S
C3498 C3499 1.524 . S
C3498 H3517 0.913 . S
C3499 H3475 0.950 . S
C3499 C3498 1.524 . S
C3499 C3500 1.415 . S
C3500 H3476 0.950 . S
C3500 C3495 1.363 . S
C3500 C3499 1.415 . S
C3501 H3477 0.951 . S
C3501 C3502 1.366 . S
C3501 C3503 1.388 . S
C3502 C3501 1.366 . S
C3502 C3506 1.385 . S
C3503 H3478 0.951 . S
C3503 C3501 1.388 . S
C3503 C3504 1.366 . S
C3504 C3503 1.366 . S
C3504 C3505 1.414 . S
C3504 C3507 1.499 . S
C3505 H3479 0.950 . S
C3505 C3504 1.414 . S
C3505 C3506 1.374 . S
C3506 H3480 0.950 . S
C3506 C3502 1.385 . S
C3506 C3505 1.374 . S
C3507 C3504 1.499 . S
C3507 C3508 1.373 . S
C3507 C3509 1.389 . S
C3508 H3481 0.950 . S
C3508 C3494 1.377 . S
C3508 C3507 1.373 . S
C3509 C3493 1.377 . S
C3509 C3507 1.389 . S
C3509 C3510 1.524 . S
C3510 C3509 1.524 . S
C3510 C3511 1.397 . S
C3510 C3515 1.363 . S
C3511 H3482 0.950 . S
C3511 C3510 1.397 . S
C3511 C3512 1.334 . S
C3512 H3483 0.950 . S
C3512 C3511 1.334 . S
C3512 C3513 1.287 . S
C3513 C3512 1.287 . S
C3513 C3514 1.524 . S
C3513 H3516 0.999 . S
C3514 H3484 0.950 . S
C3514 C3513 1.524 . S
C3514 C3515 1.415 . S
C3515 H3485 0.950 . S
C3515 C3510 1.363 . S
C3515 C3514 1.415 . S
H3516 C3513 0.999 . S
H3517 C3498 0.913 . S
H3518 C3536 0.951 . S
H3519 C3538 0.951 . S
H3520 C3540 0.950 . S
H3521 C3541 0.950 . S
H3522 C3543 0.957 . S
H3523 C3546 0.950 . S
H3524 C3547 0.950 . S
H3525 C3549 0.950 . S
H3526 C3550 0.950 . S
H3527 C3551 0.951 . S
H3528 C3553 0.951 . S
H3529 C3555 0.950 . S
H3530 C3556 0.950 . S
H3531 C3558 0.950 . S
H3532 C3561 0.950 . S
H3533 C3562 0.950 . S
H3534 C3564 0.950 . S
H3535 C3565 0.950 1_556 S
C3536 H3518 0.951 . S
C3536 C3537 1.366 . S
C3536 C3538 1.388 . S
C3537 C3536 1.366 . S
C3537 C3541 1.385 . S
C3538 H3519 0.951 . S
C3538 C3536 1.388 . S
C3538 C3539 1.366 . S
C3539 C3538 1.366 . S
C3539 C3540 1.414 . S
C3539 C3542 1.499 . S
C3540 H3520 0.950 . S
C3540 C3539 1.414 . S
C3540 C3541 1.374 . S
C3541 H3521 0.950 . S
C3541 C3537 1.385 . S
C3541 C3540 1.374 . S
C3542 C3539 1.499 . S
C3542 C3543 1.373 . S
C3542 C3544 1.389 . S
C3543 H3522 0.957 . S
C3543 C3542 1.373 . S
C3543 C3559 1.377 . S
C3544 C3542 1.389 . S
C3544 C3545 1.524 . S
C3544 C3558 1.377 . S
C3545 C3544 1.524 . S
C3545 C3546 1.397 . S
C3545 C3550 1.363 . S
C3546 H3523 0.950 . S
C3546 C3545 1.397 . S
C3546 C3547 1.334 . S
C3547 H3524 0.950 . S
C3547 C3546 1.334 . S
C3547 C3548 1.287 . S
C3548 C3547 1.287 . S
C3548 C3549 1.524 . S
C3548 H3567 0.913 . S
C3549 H3525 0.950 . S
C3549 C3548 1.524 . S
C3549 C3550 1.415 . S
C3550 H3526 0.950 . S
C3550 C3545 1.363 . S
C3550 C3549 1.415 . S
C3551 H3527 0.951 . S
C3551 C3552 1.366 . S
C3551 C3553 1.388 . S
C3552 C3551 1.366 . S
C3552 C3556 1.385 . S
C3553 H3528 0.951 . S
C3553 C3551 1.388 . S
C3553 C3554 1.366 . S
C3554 C3553 1.366 . S
C3554 C3555 1.414 . S
C3554 C3557 1.499 . S
C3555 H3529 0.950 . S
C3555 C3554 1.414 . S
C3555 C3556 1.374 . S
C3556 H3530 0.950 . S
C3556 C3552 1.385 . S
C3556 C3555 1.374 . S
C3557 C3554 1.499 . S
C3557 C3558 1.373 . S
C3557 C3559 1.389 . S
C3558 H3531 0.950 . S
C3558 C3544 1.377 . S
C3558 C3557 1.373 . S
C3559 C3543 1.377 . S
C3559 C3557 1.389 . S
C3559 C3560 1.524 . S
C3560 C3559 1.524 . S
C3560 C3561 1.397 1_556 S
C3560 C3565 1.363 1_556 S
C3561 H3532 0.950 . S
C3561 C3560 1.397 1_554 S
C3561 C3562 1.334 . S
C3562 H3533 0.950 . S
C3562 C3561 1.334 . S
C3562 C3563 1.287 . S
C3563 C3562 1.287 . S
C3563 C3564 1.524 . S
C3563 H3566 0.999 . S
C3564 H3534 0.950 . S
C3564 C3563 1.524 . S
C3564 C3565 1.415 . S
C3565 H3535 0.950 1_554 S
C3565 C3560 1.363 1_554 S
C3565 C3564 1.415 . S
H3566 C3563 0.999 . S
H3567 C3548 0.913 . S
H3568 C3586 0.951 . S
H3569 C3588 0.951 . S
H3570 C3590 0.950 . S
H3571 C3591 0.950 . S
H3572 C3593 0.950 1_554 S
H3573 C3596 0.950 . S
H3574 C3597 0.950 . S
H3575 C3599 0.950 . S
H3576 C3600 0.950 . S
H3577 C3601 0.951 . S
H3578 C3603 0.951 . S
H3579 C3605 0.950 . S
H3580 C3606 0.950 . S
H3581 C3608 0.950 . S
H3582 C3611 0.950 . S
H3583 C3612 0.950 . S
H3584 C3614 0.950 . S
H3585 C3615 0.950 . S
C3586 H3568 0.951 . S
C3586 C3587 1.366 1_556 S
C3586 C3588 1.388 . S
C3587 C3586 1.366 1_554 S
C3587 C3591 1.385 . S
C3588 H3569 0.951 . S
C3588 C3586 1.388 . S
C3588 C3589 1.366 . S
C3589 C3588 1.366 . S
C3589 C3590 1.414 1_556 S
C3589 C3592 1.499 . S
C3590 H3570 0.950 . S
C3590 C3589 1.414 1_554 S
C3590 C3591 1.374 . S
C3591 H3571 0.950 . S
C3591 C3587 1.385 . S
C3591 C3590 1.374 . S
C3592 C3589 1.499 . S
C3592 C3593 1.373 . S
C3592 C3594 1.389 . S
C3593 H3572 0.950 1_556 S
C3593 C3592 1.373 . S
C3593 C3609 1.377 . S
C3594 C3592 1.389 . S
C3594 C3595 1.524 . S
C3594 C3608 1.377 . S
C3595 C3594 1.524 . S
C3595 C3596 1.397 . S
C3595 C3600 1.363 . S
C3596 H3573 0.950 . S
C3596 C3595 1.397 . S
C3596 C3597 1.334 . S
C3597 H3574 0.950 . S
C3597 C3596 1.334 . S
C3597 C3598 1.287 . S
C3598 C3597 1.287 . S
C3598 C3599 1.524 . S
C3598 H3617 0.913 . S
C3599 H3575 0.950 . S
C3599 C3598 1.524 . S
C3599 C3600 1.415 . S
C3600 H3576 0.950 . S
C3600 C3595 1.363 . S
C3600 C3599 1.415 . S
C3601 H3577 0.951 . S
C3601 C3602 1.366 . S
C3601 C3603 1.388 . S
C3602 C3601 1.366 . S
C3602 C3606 1.385 . S
C3603 H3578 0.951 . S
C3603 C3601 1.388 . S
C3603 C3604 1.366 . S
C3604 C3603 1.366 . S
C3604 C3605 1.414 . S
C3604 C3607 1.499 . S
C3605 H3579 0.950 . S
C3605 C3604 1.414 . S
C3605 C3606 1.374 . S
C3606 H3580 0.950 . S
C3606 C3602 1.385 . S
C3606 C3605 1.374 . S
C3607 C3604 1.499 . S
C3607 C3608 1.373 . S
C3607 C3609 1.389 . S
C3608 H3581 0.950 . S
C3608 C3594 1.377 . S
C3608 C3607 1.373 . S
C3609 C3593 1.377 . S
C3609 C3607 1.389 . S
C3609 C3610 1.524 1_556 S
C3610 C3609 1.524 1_554 S
C3610 C3611 1.397 1_554 S
C3610 C3615 1.363 . S
C3611 H3582 0.950 . S
C3611 C3610 1.397 1_556 S
C3611 C3612 1.334 1_556 S
C3612 H3583 0.950 . S
C3612 C3611 1.334 1_554 S
C3612 C3613 1.287 . S
C3613 C3612 1.287 . S
C3613 C3614 1.524 . S
C3613 H3616 0.999 . S
C3614 H3584 0.950 . S
C3614 C3613 1.524 . S
C3614 C3615 1.415 . S
C3615 H3585 0.950 . S
C3615 C3610 1.363 . S
C3615 C3614 1.415 . S
H3616 C3613 0.999 . S
H3617 C3598 0.913 . S
H3618 C3636 0.951 . S
H3619 C3638 0.951 . S
H3620 C3640 0.950 . S
H3621 C3641 0.950 . S
H3622 C3643 0.950 . S
H3623 C3646 0.950 . S
H3624 C3647 0.950 . S
H3625 C3649 0.950 . S
H3626 C3650 0.950 . S
H3627 C3651 0.951 . S
H3628 C3653 0.951 . S
H3629 C3655 0.950 . S
H3630 C3656 0.950 . S
H3631 C3658 0.950 . S
H3632 C3661 0.950 . S
H3633 C3662 0.950 . S
H3634 C3664 0.950 . S
H3635 C3665 0.950 . S
C3636 H3618 0.951 . S
C3636 C3637 1.366 . S
C3636 C3638 1.388 . S
C3637 C3636 1.366 . S
C3637 C3641 1.385 . S
C3638 H3619 0.951 . S
C3638 C3636 1.388 . S
C3638 C3639 1.366 . S
C3639 C3638 1.366 . S
C3639 C3640 1.414 . S
C3639 C3642 1.499 . S
C3640 H3620 0.950 . S
C3640 C3639 1.414 . S
C3640 C3641 1.374 . S
C3641 H3621 0.950 . S
C3641 C3637 1.385 . S
C3641 C3640 1.374 . S
C3642 C3639 1.499 . S
C3642 C3643 1.373 . S
C3642 C3644 1.389 . S
C3643 H3622 0.950 . S
C3643 C3642 1.373 . S
C3643 C3659 1.377 . S
C3644 C3642 1.389 . S
C3644 C3645 1.524 . S
C3644 C3658 1.377 . S
C3645 C3644 1.524 . S
C3645 C3646 1.397 . S
C3645 C3650 1.363 . S
C3646 H3623 0.950 . S
C3646 C3645 1.397 . S
C3646 C3647 1.334 . S
C3647 H3624 0.950 . S
C3647 C3646 1.334 . S
C3647 C3648 1.287 . S
C3648 C3647 1.287 . S
C3648 C3649 1.524 . S
C3648 H3667 0.913 . S
C3649 H3625 0.950 . S
C3649 C3648 1.524 . S
C3649 C3650 1.415 . S
C3650 H3626 0.950 . S
C3650 C3645 1.363 . S
C3650 C3649 1.415 . S
C3651 H3627 0.951 . S
C3651 C3652 1.366 . S
C3651 C3653 1.388 . S
C3652 C3651 1.366 . S
C3652 C3656 1.385 . S
C3653 H3628 0.951 . S
C3653 C3651 1.388 . S
C3653 C3654 1.366 . S
C3654 C3653 1.366 . S
C3654 C3655 1.414 . S
C3654 C3657 1.499 . S
C3655 H3629 0.950 . S
C3655 C3654 1.414 . S
C3655 C3656 1.374 . S
C3656 H3630 0.950 . S
C3656 C3652 1.385 . S
C3656 C3655 1.374 . S
C3657 C3654 1.499 . S
C3657 C3658 1.373 . S
C3657 C3659 1.389 . S
C3658 H3631 0.950 . S
C3658 C3644 1.377 . S
C3658 C3657 1.373 . S
C3659 C3643 1.377 . S
C3659 C3657 1.389 . S
C3659 C3660 1.524 . S
C3660 C3659 1.524 . S
C3660 C3661 1.397 . S
C3660 C3665 1.363 . S
C3661 H3632 0.950 . S
C3661 C3660 1.397 . S
C3661 C3662 1.334 . S
C3662 H3633 0.950 . S
C3662 C3661 1.334 . S
C3662 C3663 1.287 . S
C3663 C3662 1.287 . S
C3663 C3664 1.524 . S
C3663 H3666 0.999 . S
C3664 H3634 0.950 . S
C3664 C3663 1.524 . S
C3664 C3665 1.415 . S
C3665 H3635 0.950 . S
C3665 C3660 1.363 . S
C3665 C3664 1.415 . S
H3666 C3663 0.999 . S
H3667 C3648 0.913 . S
H3668 C3686 0.951 . S
H3669 C3688 0.951 . S
H3670 C3690 0.950 . S
H3671 C3691 0.950 . S
H3672 C3693 0.950 . S
H3673 C3696 0.950 . S
H3674 C3697 0.950 . S
H3675 C3699 0.950 . S
H3676 C3700 0.950 . S
H3677 C3701 0.951 . S
H3678 C3703 0.951 . S
H3679 C3705 0.950 . S
H3680 C3706 0.950 . S
H3681 C3708 0.950 . S
H3682 C3711 0.950 . S
H3683 C3712 0.950 . S
H3684 C3714 0.950 . S
H3685 C3715 0.950 . S
C3686 H3668 0.951 . S
C3686 C3687 1.366 . S
C3686 C3688 1.388 . S
C3687 C3686 1.366 . S
C3687 C3691 1.385 . S
C3688 H3669 0.951 . S
C3688 C3686 1.388 . S
C3688 C3689 1.366 . S
C3689 C3688 1.366 . S
C3689 C3690 1.414 . S
C3689 C3692 1.499 . S
C3690 H3670 0.950 . S
C3690 C3689 1.414 . S
C3690 C3691 1.374 . S
C3691 H3671 0.950 . S
C3691 C3687 1.385 . S
C3691 C3690 1.374 . S
C3692 C3689 1.499 . S
C3692 C3693 1.373 . S
C3692 C3694 1.389 . S
C3693 H3672 0.950 . S
C3693 C3692 1.373 . S
C3693 C3709 1.377 . S
C3694 C3692 1.389 . S
C3694 C3695 1.524 . S
C3694 C3708 1.377 . S
C3695 C3694 1.524 . S
C3695 C3696 1.397 . S
C3695 C3700 1.363 . S
C3696 H3673 0.950 . S
C3696 C3695 1.397 . S
C3696 C3697 1.334 . S
C3697 H3674 0.950 . S
C3697 C3696 1.334 . S
C3697 C3698 1.287 . S
C3698 C3697 1.287 . S
C3698 C3699 1.524 . S
C3698 H3717 0.913 . S
C3699 H3675 0.950 . S
C3699 C3698 1.524 . S
C3699 C3700 1.415 . S
C3700 H3676 0.950 . S
C3700 C3695 1.363 . S
C3700 C3699 1.415 . S
C3701 H3677 0.951 . S
C3701 C3702 1.366 . S
C3701 C3703 1.388 . S
C3702 C3701 1.366 . S
C3702 C3706 1.385 . S
C3703 H3678 0.951 . S
C3703 C3701 1.388 . S
C3703 C3704 1.366 . S
C3704 C3703 1.366 . S
C3704 C3705 1.414 . S
C3704 C3707 1.499 . S
C3705 H3679 0.950 . S
C3705 C3704 1.414 . S
C3705 C3706 1.374 . S
C3706 H3680 0.950 . S
C3706 C3702 1.385 . S
C3706 C3705 1.374 . S
C3707 C3704 1.499 . S
C3707 C3708 1.373 . S
C3707 C3709 1.389 . S
C3708 H3681 0.950 . S
C3708 C3694 1.377 . S
C3708 C3707 1.373 . S
C3709 C3693 1.377 . S
C3709 C3707 1.389 . S
C3709 C3710 1.524 . S
C3710 C3709 1.524 . S
C3710 C3711 1.397 . S
C3710 C3715 1.363 . S
C3711 H3682 0.950 . S
C3711 C3710 1.397 . S
C3711 C3712 1.334 . S
C3712 H3683 0.950 . S
C3712 C3711 1.334 . S
C3712 C3713 1.287 . S
C3713 C3712 1.287 . S
C3713 C3714 1.524 . S
C3713 H3716 0.999 . S
C3714 H3684 0.950 . S
C3714 C3713 1.524 . S
C3714 C3715 1.415 . S
C3715 H3685 0.950 . S
C3715 C3710 1.363 . S
C3715 C3714 1.415 . S
H3716 C3713 0.999 . S
H3717 C3698 0.913 . S
H3718 C3736 0.951 . S
H3719 C3738 0.951 . S
H3720 C3740 0.950 . S
H3721 C3741 0.950 . S
H3722 C3743 0.950 . S
H3723 C3746 0.950 . S
H3724 C3747 0.950 . S
H3725 C3749 0.950 . S
H3726 C3750 0.950 . S
H3727 C3751 0.951 . S
H3728 C3753 0.951 . S
H3729 C3755 0.950 . S
H3730 C3756 0.950 . S
H3731 C3758 0.950 . S
H3732 C3761 0.950 . S
H3733 C3762 0.950 . S
H3734 C3764 0.950 . S
H3735 C3765 0.950 . S
C3736 H3718 0.951 . S
C3736 C3737 1.366 . S
C3736 C3738 1.388 . S
C3737 C3736 1.366 . S
C3737 C3741 1.385 . S
C3738 H3719 0.951 . S
C3738 C3736 1.388 . S
C3738 C3739 1.366 . S
C3739 C3738 1.366 . S
C3739 C3740 1.414 . S
C3739 C3742 1.499 . S
C3740 H3720 0.950 . S
C3740 C3739 1.414 . S
C3740 C3741 1.374 . S
C3741 H3721 0.950 . S
C3741 C3737 1.385 . S
C3741 C3740 1.374 . S
C3742 C3739 1.499 . S
C3742 C3743 1.373 . S
C3742 C3744 1.389 . S
C3743 H3722 0.950 . S
C3743 C3742 1.373 . S
C3743 C3759 1.377 . S
C3744 C3742 1.389 . S
C3744 C3745 1.524 . S
C3744 C3758 1.377 . S
C3745 C3744 1.524 . S
C3745 C3746 1.397 . S
C3745 C3750 1.363 . S
C3746 H3723 0.950 . S
C3746 C3745 1.397 . S
C3746 C3747 1.334 . S
C3747 H3724 0.950 . S
C3747 C3746 1.334 . S
C3747 C3748 1.287 . S
C3748 C3747 1.287 . S
C3748 C3749 1.524 . S
C3748 H3767 0.913 . S
C3749 H3725 0.950 . S
C3749 C3748 1.524 . S
C3749 C3750 1.415 . S
C3750 H3726 0.950 . S
C3750 C3745 1.363 . S
C3750 C3749 1.415 . S
C3751 H3727 0.951 . S
C3751 C3752 1.366 . S
C3751 C3753 1.388 . S
C3752 C3751 1.366 . S
C3752 C3756 1.385 . S
C3753 H3728 0.951 . S
C3753 C3751 1.388 . S
C3753 C3754 1.366 . S
C3754 C3753 1.366 . S
C3754 C3755 1.414 . S
C3754 C3757 1.499 . S
C3755 H3729 0.950 . S
C3755 C3754 1.414 . S
C3755 C3756 1.374 . S
C3756 H3730 0.950 . S
C3756 C3752 1.385 . S
C3756 C3755 1.374 . S
C3757 C3754 1.499 . S
C3757 C3758 1.373 . S
C3757 C3759 1.389 . S
C3758 H3731 0.950 . S
C3758 C3744 1.377 . S
C3758 C3757 1.373 . S
C3759 C3743 1.377 . S
C3759 C3757 1.389 . S
C3759 C3760 1.524 . S
C3760 C3759 1.524 . S
C3760 C3761 1.397 . S
C3760 C3765 1.363 . S
C3761 H3732 0.950 . S
C3761 C3760 1.397 . S
C3761 C3762 1.334 . S
C3762 H3733 0.950 . S
C3762 C3761 1.334 . S
C3762 C3763 1.287 . S
C3763 C3762 1.287 . S
C3763 C3764 1.524 . S
C3763 H3766 0.999 . S
C3764 H3734 0.950 . S
C3764 C3763 1.524 . S
C3764 C3765 1.415 . S
C3765 H3735 0.950 . S
C3765 C3760 1.363 . S
C3765 C3764 1.415 . S
H3766 C3763 0.999 . S
H3767 C3748 0.913 . S
H3768 C3786 0.951 . S
H3769 C3788 0.951 . S
H3770 C3790 0.950 . S
H3771 C3791 0.950 . S
H3772 C3793 0.950 . S
H3773 C3796 0.950 . S
H3774 C3797 0.950 . S
H3775 C3799 0.950 . S
H3776 C3800 0.950 . S
H3777 C3801 0.951 . S
H3778 C3803 0.951 . S
H3779 C3805 0.950 . S
H3780 C3806 0.950 . S
H3781 C3808 0.950 . S
H3782 C3811 0.950 . S
H3783 C3812 0.950 . S
H3784 C3814 0.950 . S
H3785 C3815 0.950 . S
C3786 H3768 0.951 . S
C3786 C3787 1.366 . S
C3786 C3788 1.388 . S
C3787 C3786 1.366 . S
C3787 C3791 1.385 . S
C3788 H3769 0.951 . S
C3788 C3786 1.388 . S
C3788 C3789 1.366 . S
C3789 C3788 1.366 . S
C3789 C3790 1.414 . S
C3789 C3792 1.499 . S
C3790 H3770 0.950 . S
C3790 C3789 1.414 . S
C3790 C3791 1.374 . S
C3791 H3771 0.950 . S
C3791 C3787 1.385 . S
C3791 C3790 1.374 . S
C3792 C3789 1.499 . S
C3792 C3793 1.373 . S
C3792 C3794 1.389 . S
C3793 H3772 0.950 . S
C3793 C3792 1.373 . S
C3793 C3809 1.377 . S
C3794 C3792 1.389 . S
C3794 C3795 1.524 . S
C3794 C3808 1.377 . S
C3795 C3794 1.524 . S
C3795 C3796 1.397 . S
C3795 C3800 1.363 . S
C3796 H3773 0.950 . S
C3796 C3795 1.397 . S
C3796 C3797 1.334 . S
C3797 H3774 0.950 . S
C3797 C3796 1.334 . S
C3797 C3798 1.287 . S
C3798 C3797 1.287 . S
C3798 C3799 1.524 . S
C3798 H3817 0.913 . S
C3799 H3775 0.950 . S
C3799 C3798 1.524 . S
C3799 C3800 1.415 . S
C3800 H3776 0.950 . S
C3800 C3795 1.363 . S
C3800 C3799 1.415 . S
C3801 H3777 0.951 . S
C3801 C3802 1.366 . S
C3801 C3803 1.388 . S
C3802 C3801 1.366 . S
C3802 C3806 1.385 . S
C3803 H3778 0.951 . S
C3803 C3801 1.388 . S
C3803 C3804 1.366 . S
C3804 C3803 1.366 . S
C3804 C3805 1.414 . S
C3804 C3807 1.499 . S
C3805 H3779 0.950 . S
C3805 C3804 1.414 . S
C3805 C3806 1.374 . S
C3806 H3780 0.950 . S
C3806 C3802 1.385 . S
C3806 C3805 1.374 . S
C3807 C3804 1.499 . S
C3807 C3808 1.373 . S
C3807 C3809 1.389 . S
C3808 H3781 0.950 . S
C3808 C3794 1.377 . S
C3808 C3807 1.373 . S
C3809 C3793 1.377 . S
C3809 C3807 1.389 . S
C3809 C3810 1.524 . S
C3810 C3809 1.524 . S
C3810 C3811 1.397 . S
C3810 C3815 1.363 . S
C3811 H3782 0.950 . S
C3811 C3810 1.397 . S
C3811 C3812 1.334 . S
C3812 H3783 0.950 . S
C3812 C3811 1.334 . S
C3812 C3813 1.287 . S
C3813 C3812 1.287 . S
C3813 C3814 1.524 . S
C3813 H3816 0.999 . S
C3814 H3784 0.950 . S
C3814 C3813 1.524 . S
C3814 C3815 1.415 . S
C3815 H3785 0.950 . S
C3815 C3810 1.363 . S
C3815 C3814 1.415 . S
H3816 C3813 0.999 . S
H3817 C3798 0.913 . S
H3818 C3836 0.951 . S
H3819 C3838 0.951 . S
H3820 C3840 0.950 . S
H3821 C3841 0.950 . S
H3822 C3843 0.950 . S
H3823 C3846 0.950 . S
H3824 C3847 0.950 . S
H3825 C3849 0.950 . S
H3826 C3850 0.950 . S
H3827 C3851 0.951 . S
H3828 C3853 0.951 . S
H3829 C3855 0.950 . S
H3830 C3856 0.950 . S
H3831 C3858 0.950 . S
H3832 C3861 0.950 . S
H3833 C3862 0.950 . S
H3834 C3864 0.950 . S
H3835 C3865 0.950 . S
C3836 H3818 0.951 . S
C3836 C3837 1.366 . S
C3836 C3838 1.388 . S
C3837 C3836 1.366 . S
C3837 C3841 1.385 . S
C3838 H3819 0.951 . S
C3838 C3836 1.388 . S
C3838 C3839 1.366 . S
C3839 C3838 1.366 . S
C3839 C3840 1.414 . S
C3839 C3842 1.499 . S
C3840 H3820 0.950 . S
C3840 C3839 1.414 . S
C3840 C3841 1.374 . S
C3841 H3821 0.950 . S
C3841 C3837 1.385 . S
C3841 C3840 1.374 . S
C3842 C3839 1.499 . S
C3842 C3843 1.373 . S
C3842 C3844 1.389 . S
C3843 H3822 0.950 . S
C3843 C3842 1.373 . S
C3843 C3859 1.377 . S
C3844 C3842 1.389 . S
C3844 C3845 1.524 . S
C3844 C3858 1.377 . S
C3845 C3844 1.524 . S
C3845 C3846 1.397 . S
C3845 C3850 1.363 . S
C3846 H3823 0.950 . S
C3846 C3845 1.397 . S
C3846 C3847 1.334 . S
C3847 H3824 0.950 . S
C3847 C3846 1.334 . S
C3847 C3848 1.287 . S
C3848 C3847 1.287 . S
C3848 C3849 1.524 . S
C3848 H3867 0.913 . S
C3849 H3825 0.950 . S
C3849 C3848 1.524 . S
C3849 C3850 1.415 . S
C3850 H3826 0.950 . S
C3850 C3845 1.363 . S
C3850 C3849 1.415 . S
C3851 H3827 0.951 . S
C3851 C3852 1.366 . S
C3851 C3853 1.388 . S
C3852 C3851 1.366 . S
C3852 C3856 1.385 . S
C3853 H3828 0.951 . S
C3853 C3851 1.388 . S
C3853 C3854 1.366 . S
C3854 C3853 1.366 . S
C3854 C3855 1.414 . S
C3854 C3857 1.499 . S
C3855 H3829 0.950 . S
C3855 C3854 1.414 . S
C3855 C3856 1.374 . S
C3856 H3830 0.950 . S
C3856 C3852 1.385 . S
C3856 C3855 1.374 . S
C3857 C3854 1.499 . S
C3857 C3858 1.373 . S
C3857 C3859 1.389 . S
C3858 H3831 0.950 . S
C3858 C3844 1.377 . S
C3858 C3857 1.373 . S
C3859 C3843 1.377 . S
C3859 C3857 1.389 . S
C3859 C3860 1.524 . S
C3860 C3859 1.524 . S
C3860 C3861 1.397 . S
C3860 C3865 1.363 . S
C3861 H3832 0.950 . S
C3861 C3860 1.397 . S
C3861 C3862 1.334 . S
C3862 H3833 0.950 . S
C3862 C3861 1.334 . S
C3862 C3863 1.287 . S
C3863 C3862 1.287 . S
C3863 C3864 1.524 . S
C3863 H3866 0.999 . S
C3864 H3834 0.950 . S
C3864 C3863 1.524 . S
C3864 C3865 1.415 . S
C3865 H3835 0.950 . S
C3865 C3860 1.363 . S
C3865 C3864 1.415 . S
H3866 C3863 0.999 . S
H3867 C3848 0.913 . S
H3868 C3886 0.951 . S
H3869 C3888 0.951 . S
H3870 C3890 0.950 . S
H3871 C3891 0.950 . S
H3872 C3893 0.950 . S
H3873 C3896 0.950 . S
H3874 C3897 0.950 . S
H3875 C3899 0.950 . S
H3876 C3900 0.950 . S
H3877 C3901 0.951 . S
H3878 C3903 0.951 . S
H3879 C3905 0.950 . S
H3880 C3906 0.950 . S
H3881 C3908 0.950 . S
H3882 C3911 0.950 . S
H3883 C3912 0.950 . S
H3884 C3914 0.950 . S
H3885 C3915 0.950 . S
C3886 H3868 0.951 . S
C3886 C3887 1.366 . S
C3886 C3888 1.388 . S
C3887 C3886 1.366 . S
C3887 C3891 1.385 . S
C3888 H3869 0.951 . S
C3888 C3886 1.388 . S
C3888 C3889 1.366 . S
C3889 C3888 1.366 . S
C3889 C3890 1.414 . S
C3889 C3892 1.499 . S
C3890 H3870 0.950 . S
C3890 C3889 1.414 . S
C3890 C3891 1.374 . S
C3891 H3871 0.950 . S
C3891 C3887 1.385 . S
C3891 C3890 1.374 . S
C3892 C3889 1.499 . S
C3892 C3893 1.373 . S
C3892 C3894 1.389 . S
C3893 H3872 0.950 . S
C3893 C3892 1.373 . S
C3893 C3909 1.377 . S
C3894 C3892 1.389 . S
C3894 C3895 1.524 . S
C3894 C3908 1.377 . S
C3895 C3894 1.524 . S
C3895 C3896 1.397 . S
C3895 C3900 1.363 . S
C3896 H3873 0.950 . S
C3896 C3895 1.397 . S
C3896 C3897 1.334 . S
C3897 H3874 0.950 . S
C3897 C3896 1.334 . S
C3897 C3898 1.287 . S
C3898 C3897 1.287 . S
C3898 C3899 1.524 . S
C3898 H3917 0.913 . S
C3899 H3875 0.950 . S
C3899 C3898 1.524 . S
C3899 C3900 1.415 . S
C3900 H3876 0.950 . S
C3900 C3895 1.363 . S
C3900 C3899 1.415 . S
C3901 H3877 0.951 . S
C3901 C3902 1.366 . S
C3901 C3903 1.388 . S
C3902 C3901 1.366 . S
C3902 C3906 1.385 . S
C3903 H3878 0.951 . S
C3903 C3901 1.388 . S
C3903 C3904 1.366 . S
C3904 C3903 1.366 . S
C3904 C3905 1.414 . S
C3904 C3907 1.499 . S
C3905 H3879 0.950 . S
C3905 C3904 1.414 . S
C3905 C3906 1.374 . S
C3906 H3880 0.950 . S
C3906 C3902 1.385 . S
C3906 C3905 1.374 . S
C3907 C3904 1.499 . S
C3907 C3908 1.373 . S
C3907 C3909 1.389 . S
C3908 H3881 0.950 . S
C3908 C3894 1.377 . S
C3908 C3907 1.373 . S
C3909 C3893 1.377 . S
C3909 C3907 1.389 . S
C3909 C3910 1.524 . S
C3910 C3909 1.524 . S
C3910 C3911 1.397 . S
C3910 C3915 1.363 . S
C3911 H3882 0.950 . S
C3911 C3910 1.397 . S
C3911 C3912 1.334 . S
C3912 H3883 0.950 . S
C3912 C3911 1.334 . S
C3912 C3913 1.287 . S
C3913 C3912 1.287 . S
C3913 C3914 1.524 . S
C3913 H3916 0.999 . S
C3914 H3884 0.950 . S
C3914 C3913 1.524 . S
C3914 C3915 1.415 . S
C3915 H3885 0.950 . S
C3915 C3910 1.363 . S
C3915 C3914 1.415 . S
H3916 C3913 0.999 . S
H3917 C3898 0.913 . S
H3918 C3936 0.951 . S
H3919 C3938 0.951 . S
H3920 C3940 0.950 . S
H3921 C3941 0.950 . S
H3922 C3943 0.950 . S
H3923 C3946 0.950 . S
H3924 C3947 0.950 . S
H3925 C3949 0.950 . S
H3926 C3950 0.950 . S
H3927 C3951 0.951 . S
H3928 C3953 0.951 . S
H3929 C3955 0.950 . S
H3930 C3956 0.950 . S
H3931 C3958 0.959 1_655 S
H3932 C3961 0.950 . S
H3933 C3962 0.950 . S
H3934 C3964 0.950 . S
H3935 C3965 0.950 . S
C3936 H3918 0.951 . S
C3936 C3937 1.366 . S
C3936 C3938 1.388 . S
C3937 C3936 1.366 . S
C3937 C3941 1.385 . S
C3938 H3919 0.951 . S
C3938 C3936 1.388 . S
C3938 C3939 1.366 . S
C3939 C3938 1.366 . S
C3939 C3940 1.414 . S
C3939 C3942 1.499 . S
C3940 H3920 0.950 . S
C3940 C3939 1.414 . S
C3940 C3941 1.374 . S
C3941 H3921 0.950 . S
C3941 C3937 1.385 . S
C3941 C3940 1.374 . S
C3942 C3939 1.499 . S
C3942 C3943 1.373 . S
C3942 C3944 1.389 . S
C3943 H3922 0.950 . S
C3943 C3942 1.373 . S
C3943 C3959 1.377 . S
C3944 C3942 1.389 . S
C3944 C3945 1.524 . S
C3944 C3958 1.377 . S
C3945 C3944 1.524 . S
C3945 C3946 1.397 . S
C3945 C3950 1.363 1_455 S
C3946 H3923 0.950 . S
C3946 C3945 1.397 . S
C3946 C3947 1.334 . S
C3947 H3924 0.950 . S
C3947 C3946 1.334 . S
C3947 C3948 1.287 1_455 S
C3948 C3947 1.287 1_655 S
C3948 C3949 1.524 . S
C3948 H3967 0.913 . S
C3949 H3925 0.950 . S
C3949 C3948 1.524 . S
C3949 C3950 1.415 . S
C3950 H3926 0.950 . S
C3950 C3945 1.363 1_655 S
C3950 C3949 1.415 . S
C3951 H3927 0.951 . S
C3951 C3952 1.366 . S
C3951 C3953 1.388 . S
C3952 C3951 1.366 . S
C3952 C3956 1.385 1_455 S
C3953 H3928 0.951 . S
C3953 C3951 1.388 . S
C3953 C3954 1.366 . S
C3954 C3953 1.366 . S
C3954 C3955 1.414 1_455 S
C3954 C3957 1.499 . S
C3955 H3929 0.950 . S
C3955 C3954 1.414 1_655 S
C3955 C3956 1.374 . S
C3956 H3930 0.950 . S
C3956 C3952 1.385 1_655 S
C3956 C3955 1.374 . S
C3957 C3954 1.499 . S
C3957 C3958 1.373 . S
C3957 C3959 1.389 . S
C3958 H3931 0.959 1_455 S
C3958 C3944 1.377 . S
C3958 C3957 1.373 . S
C3959 C3943 1.377 . S
C3959 C3957 1.389 . S
C3959 C3960 1.524 . S
C3960 C3959 1.524 . S
C3960 C3961 1.397 . S
C3960 C3965 1.363 . S
C3961 H3932 0.950 . S
C3961 C3960 1.397 . S
C3961 C3962 1.334 . S
C3962 H3933 0.950 . S
C3962 C3961 1.334 . S
C3962 C3963 1.287 . S
C3963 C3962 1.287 . S
C3963 C3964 1.524 . S
C3963 H3966 0.999 . S
C3964 H3934 0.950 . S
C3964 C3963 1.524 . S
C3964 C3965 1.415 . S
C3965 H3935 0.950 . S
C3965 C3960 1.363 . S
C3965 C3964 1.415 . S
H3966 C3963 0.999 . S
H3967 C3948 0.913 . S
H3968 C3986 0.951 . S
H3969 C3988 0.951 . S
H3970 C3990 0.950 . S
H3971 C3991 0.950 . S
H3972 C3993 0.950 . S
H3973 C3996 0.950 . S
H3974 C3997 0.950 . S
H3975 C3999 0.950 . S
H3976 C4000 0.950 . S
H3977 C4001 0.951 . S
H3978 C4003 0.951 . S
H3979 C4005 0.950 . S
H3980 C4006 0.950 . S
H3981 C4008 0.950 . S
H3982 C4011 0.950 . S
H3983 C4012 0.950 . S
H3984 C4014 0.950 . S
H3985 C4015 0.950 . S
C3986 H3968 0.951 . S
C3986 C3987 1.366 . S
C3986 C3988 1.388 . S
C3987 C3986 1.366 . S
C3987 C3991 1.385 . S
C3988 H3969 0.951 . S
C3988 C3986 1.388 . S
C3988 C3989 1.366 . S
C3989 C3988 1.366 . S
C3989 C3990 1.414 . S
C3989 C3992 1.499 . S
C3990 H3970 0.950 . S
C3990 C3989 1.414 . S
C3990 C3991 1.374 . S
C3991 H3971 0.950 . S
C3991 C3987 1.385 . S
C3991 C3990 1.374 . S
C3992 C3989 1.499 . S
C3992 C3993 1.373 . S
C3992 C3994 1.389 . S
C3993 H3972 0.950 . S
C3993 C3992 1.373 . S
C3993 C4009 1.377 . S
C3994 C3992 1.389 . S
C3994 C3995 1.524 . S
C3994 C4008 1.377 . S
C3995 C3994 1.524 . S
C3995 C3996 1.397 . S
C3995 C4000 1.363 . S
C3996 H3973 0.950 . S
C3996 C3995 1.397 . S
C3996 C3997 1.334 . S
C3997 H3974 0.950 . S
C3997 C3996 1.334 . S
C3997 C3998 1.287 . S
C3998 C3997 1.287 . S
C3998 C3999 1.524 . S
C3998 H4017 0.913 . S
C3999 H3975 0.950 . S
C3999 C3998 1.524 . S
C3999 C4000 1.415 . S
C4000 H3976 0.950 . S
C4000 C3995 1.363 . S
C4000 C3999 1.415 . S
C4001 H3977 0.951 . S
C4001 C4002 1.366 . S
C4001 C4003 1.388 . S
C4002 C4001 1.366 . S
C4002 C4006 1.385 . S
C4003 H3978 0.951 . S
C4003 C4001 1.388 . S
C4003 C4004 1.366 . S
C4004 C4003 1.366 . S
C4004 C4005 1.414 . S
C4004 C4007 1.499 . S
C4005 H3979 0.950 . S
C4005 C4004 1.414 . S
C4005 C4006 1.374 . S
C4006 H3980 0.950 . S
C4006 C4002 1.385 . S
C4006 C4005 1.374 . S
C4007 C4004 1.499 . S
C4007 C4008 1.373 . S
C4007 C4009 1.389 . S
C4008 H3981 0.950 . S
C4008 C3994 1.377 . S
C4008 C4007 1.373 . S
C4009 C3993 1.377 . S
C4009 C4007 1.389 . S
C4009 C4010 1.524 . S
C4010 C4009 1.524 . S
C4010 C4011 1.397 . S
C4010 C4015 1.363 . S
C4011 H3982 0.950 . S
C4011 C4010 1.397 . S
C4011 C4012 1.334 . S
C4012 H3983 0.950 . S
C4012 C4011 1.334 . S
C4012 C4013 1.287 . S
C4013 C4012 1.287 . S
C4013 C4014 1.524 . S
C4013 H4016 0.999 . S
C4014 H3984 0.950 . S
C4014 C4013 1.524 . S
C4014 C4015 1.415 . S
C4015 H3985 0.950 . S
C4015 C4010 1.363 . S
C4015 C4014 1.415 . S
H4016 C4013 0.999 . S
H4017 C3998 0.913 . S
H4018 C4036 0.951 . S
H4019 C4038 0.951 . S
H4020 C4040 0.950 . S
H4021 C4041 0.950 . S
H4022 C4043 0.950 . S
H4023 C4046 0.950 . S
H4024 C4047 0.950 . S
H4025 C4049 0.950 . S
H4026 C4050 0.950 . S
H4027 C4051 0.951 . S
H4028 C4053 0.972 . S
H4029 C4055 0.950 . S
H4030 C4056 0.950 . S
H4031 C4058 0.950 . S
H4032 C4061 0.950 . S
H4033 C4062 0.950 . S
H4034 C4064 0.921 1_545 S
H4035 C4065 0.950 1_545 S
C4036 H4018 0.951 . S
C4036 C4037 1.366 . S
C4036 C4038 1.388 . S
C4037 C4036 1.366 . S
C4037 C4041 1.385 . S
C4038 H4019 0.951 . S
C4038 C4036 1.388 . S
C4038 C4039 1.366 . S
C4039 C4038 1.366 . S
C4039 C4040 1.414 . S
C4039 C4042 1.499 . S
C4040 H4020 0.950 . S
C4040 C4039 1.414 . S
C4040 C4041 1.374 . S
C4041 H4021 0.950 . S
C4041 C4037 1.385 . S
C4041 C4040 1.374 . S
C4042 C4039 1.499 . S
C4042 C4043 1.373 . S
C4042 C4044 1.389 . S
C4043 H4022 0.950 . S
C4043 C4042 1.373 . S
C4043 C4059 1.377 . S
C4044 C4042 1.389 . S
C4044 C4045 1.524 . S
C4044 C4058 1.377 . S
C4045 C4044 1.524 . S
C4045 C4046 1.397 . S
C4045 C4050 1.363 . S
C4046 H4023 0.950 . S
C4046 C4045 1.397 . S
C4046 C4047 1.334 . S
C4047 H4024 0.950 . S
C4047 C4046 1.334 . S
C4047 C4048 1.287 . S
C4048 C4047 1.287 . S
C4048 C4049 1.524 . S
C4048 H4067 0.913 . S
C4049 H4025 0.950 . S
C4049 C4048 1.524 . S
C4049 C4050 1.415 . S
C4050 H4026 0.950 . S
C4050 C4045 1.363 . S
C4050 C4049 1.415 . S
C4051 H4027 0.951 . S
C4051 C4052 1.366 1_545 S
C4051 C4053 1.381 . S
C4052 C4051 1.366 1_565 S
C4052 C4056 1.385 . S
C4053 H4028 0.972 . S
C4053 C4051 1.381 . S
C4053 C4054 1.352 1_545 S
C4054 C4053 1.352 1_565 S
C4054 C4055 1.414 . S
C4054 C4057 1.499 . S
C4055 H4029 0.950 . S
C4055 C4054 1.414 . S
C4055 C4056 1.374 . S
C4056 H4030 0.950 . S
C4056 C4052 1.385 . S
C4056 C4055 1.374 . S
C4057 C4054 1.499 . S
C4057 C4058 1.373 . S
C4057 C4059 1.389 . S
C4058 H4031 0.950 . S
C4058 C4044 1.377 . S
C4058 C4057 1.373 . S
C4059 C4043 1.377 . S
C4059 C4057 1.389 . S
C4059 C4060 1.524 . S
C4060 C4059 1.524 . S
C4060 C4061 1.397 . S
C4060 C4065 1.363 . S
C4061 H4032 0.950 . S
C4061 C4060 1.397 . S
C4061 C4062 1.334 . S
C4062 H4033 0.950 . S
C4062 C4061 1.334 . S
C4062 C4063 1.287 . S
C4063 C4062 1.287 . S
C4063 C4064 1.555 . S
C4063 H4066 0.999 . S
C4064 H4034 0.921 1_565 S
C4064 C4063 1.555 . S
C4064 C4065 1.418 . S
C4065 H4035 0.950 1_565 S
C4065 C4060 1.363 . S
C4065 C4064 1.418 . S
H4066 C4063 0.999 . S
H4067 C4048 0.913 . S
H4068 C4086 0.951 . S
H4069 C4088 0.951 . S
H4070 C4090 0.950 . S
H4071 C4091 0.950 . S
H4072 C4093 0.950 . S
H4073 C4096 0.950 . S
H4074 C4097 0.950 . S
H4075 C4099 0.950 . S
H4076 C4100 0.950 . S
H4077 C4101 0.951 . S
H4078 C4103 0.951 . S
H4079 C4105 0.950 1_545 S
H4080 C4106 0.983 . S
H4081 C4108 0.950 . S
H4082 C4111 0.950 . S
H4083 C4112 0.950 . S
H4084 C4114 0.950 . S
H4085 C4115 0.950 . S
C4086 H4068 0.951 . S
C4086 C4087 1.366 . S
C4086 C4088 1.388 . S
C4087 C4086 1.366 . S
C4087 C4091 1.385 . S
C4088 H4069 0.951 . S
C4088 C4086 1.388 . S
C4088 C4089 1.366 . S
C4089 C4088 1.366 . S
C4089 C4090 1.414 . S
C4089 C4092 1.499 . S
C4090 H4070 0.950 . S
C4090 C4089 1.414 . S
C4090 C4091 1.374 . S
C4091 H4071 0.950 . S
C4091 C4087 1.385 . S
C4091 C4090 1.374 . S
C4092 C4089 1.499 . S
C4092 C4093 1.373 . S
C4092 C4094 1.389 . S
C4093 H4072 0.950 . S
C4093 C4092 1.373 . S
C4093 C4109 1.377 . S
C4094 C4092 1.389 . S
C4094 C4095 1.524 . S
C4094 C4108 1.377 . S
C4095 C4094 1.524 . S
C4095 C4096 1.397 . S
C4095 C4100 1.363 . S
C4096 H4073 0.950 . S
C4096 C4095 1.397 . S
C4096 C4097 1.334 . S
C4097 H4074 0.950 . S
C4097 C4096 1.334 . S
C4097 C4098 1.287 . S
C4098 C4097 1.287 . S
C4098 C4099 1.524 . S
C4098 H4117 0.913 . S
C4099 H4075 0.950 . S
C4099 C4098 1.524 . S
C4099 C4100 1.415 . S
C4100 H4076 0.950 . S
C4100 C4095 1.363 . S
C4100 C4099 1.415 . S
C4101 H4077 0.951 . S
C4101 C4102 1.366 . S
C4101 C4103 1.388 . S
C4102 C4101 1.366 . S
C4102 C4106 1.377 1_565 S
C4103 H4078 0.951 . S
C4103 C4101 1.388 . S
C4103 C4104 1.366 . S
C4104 C4103 1.366 . S
C4104 C4105 1.414 . S
C4104 C4107 1.499 . S
C4105 H4079 0.950 1_565 S
C4105 C4104 1.414 . S
C4105 C4106 1.350 1_565 S
C4106 H4080 0.983 . S
C4106 C4102 1.377 1_545 S
C4106 C4105 1.350 1_545 S
C4107 C4104 1.499 . S
C4107 C4108 1.373 . S
C4107 C4109 1.389 . S
C4108 H4081 0.950 . S
C4108 C4094 1.377 . S
C4108 C4107 1.373 . S
C4109 C4093 1.377 . S
C4109 C4107 1.389 . S
C4109 C4110 1.524 . S
C4110 C4109 1.524 . S
C4110 C4111 1.397 1_565 S
C4110 C4115 1.363 . S
C4111 H4082 0.950 . S
C4111 C4110 1.397 1_545 S
C4111 C4112 1.334 . S
C4112 H4083 0.950 . S
C4112 C4111 1.334 . S
C4112 C4113 1.287 . S
C4113 C4112 1.287 . S
C4113 C4114 1.524 1_545 S
C4113 H4116 0.999 . S
C4114 H4084 0.950 . S
C4114 C4113 1.524 1_565 S
C4114 C4115 1.415 . S
C4115 H4085 0.950 . S
C4115 C4110 1.363 . S
C4115 C4114 1.415 . S
H4116 C4113 0.999 . S
H4117 C4098 0.913 . S
H4118 C4136 0.951 . S
H4119 C4138 0.951 . S
H4120 C4140 0.950 . S
H4121 C4141 0.950 . S
H4122 C4143 0.950 . S
H4123 C4146 0.950 . S
H4124 C4147 0.950 . S
H4125 C4149 0.948 1_455 S
H4126 C4150 0.950 . S
H4127 C4151 0.951 1_655 S
H4128 C4153 0.951 . S
H4129 C4155 0.950 . S
H4130 C4156 0.950 . S
H4131 C4158 0.950 . S
H4132 C4161 0.950 . S
H4133 C4162 0.950 . S
H4134 C4164 0.950 . S
H4135 C4165 0.950 . S
C4136 H4118 0.951 . S
C4136 C4137 1.366 . S
C4136 C4138 1.388 . S
C4137 C4136 1.366 . S
C4137 C4141 1.385 . S
C4138 H4119 0.951 . S
C4138 C4136 1.388 . S
C4138 C4139 1.366 . S
C4139 C4138 1.366 . S
C4139 C4140 1.414 . S
C4139 C4142 1.499 . S
C4140 H4120 0.950 . S
C4140 C4139 1.414 . S
C4140 C4141 1.374 . S
C4141 H4121 0.950 . S
C4141 C4137 1.385 . S
C4141 C4140 1.374 . S
C4142 C4139 1.499 . S
C4142 C4143 1.373 . S
C4142 C4144 1.389 . S
C4143 H4122 0.950 . S
C4143 C4142 1.373 . S
C4143 C4159 1.377 . S
C4144 C4142 1.389 . S
C4144 C4145 1.524 . S
C4144 C4158 1.377 . S
C4145 C4144 1.524 . S
C4145 C4146 1.397 1_455 S
C4145 C4150 1.363 . S
C4146 H4123 0.950 . S
C4146 C4145 1.397 1_655 S
C4146 C4147 1.334 . S
C4147 H4124 0.950 . S
C4147 C4146 1.334 . S
C4147 C4148 1.287 . S
C4148 C4147 1.287 . S
C4148 C4149 1.557 . S
C4148 H4167 0.913 . S
C4149 H4125 0.948 1_655 S
C4149 C4148 1.557 . S
C4149 C4150 1.385 1_655 S
C4150 H4126 0.950 . S
C4150 C4145 1.363 . S
C4150 C4149 1.385 1_455 S
C4151 H4127 0.951 1_455 S
C4151 C4152 1.366 . S
C4151 C4153 1.388 . S
C4152 C4151 1.366 . S
C4152 C4156 1.385 . S
C4153 H4128 0.951 . S
C4153 C4151 1.388 . S
C4153 C4154 1.366 . S
C4154 C4153 1.366 . S
C4154 C4155 1.414 . S
C4154 C4157 1.499 . S
C4155 H4129 0.950 . S
C4155 C4154 1.414 . S
C4155 C4156 1.374 . S
C4156 H4130 0.950 . S
C4156 C4152 1.385 . S
C4156 C4155 1.374 . S
C4157 C4154 1.499 . S
C4157 C4158 1.373 . S
C4157 C4159 1.389 . S
C4158 H4131 0.950 . S
C4158 C4144 1.377 . S
C4158 C4157 1.373 . S
C4159 C4143 1.377 . S
C4159 C4157 1.389 . S
C4159 C4160 1.524 . S
C4160 C4159 1.524 . S
C4160 C4161 1.397 . S
C4160 C4165 1.363 . S
C4161 H4132 0.950 . S
C4161 C4160 1.397 . S
C4161 C4162 1.334 . S
C4162 H4133 0.950 . S
C4162 C4161 1.334 . S
C4162 C4163 1.287 . S
C4163 C4162 1.287 . S
C4163 C4164 1.524 . S
C4163 H4166 0.999 . S
C4164 H4134 0.950 . S
C4164 C4163 1.524 . S
C4164 C4165 1.415 . S
C4165 H4135 0.950 . S
C4165 C4160 1.363 . S
C4165 C4164 1.415 . S
H4166 C4163 0.999 . S
H4167 C4148 0.913 . S
H4168 C4186 0.951 . S
H4169 C4188 0.951 . S
H4170 C4190 0.950 . S
H4171 C4191 0.950 . S
H4172 C4193 0.950 . S
H4173 C4196 0.950 . S
H4174 C4197 0.950 . S
H4175 C4199 0.950 . S
H4176 C4200 0.950 . S
H4177 C4201 0.951 . S
H4178 C4203 0.951 . S
H4179 C4205 0.950 . S
H4180 C4206 0.950 . S
H4181 C4208 0.950 . S
H4182 C4211 0.950 . S
H4183 C4212 0.950 . S
H4184 C4214 0.950 . S
H4185 C4215 0.950 . S
C4186 H4168 0.951 . S
C4186 C4187 1.366 . S
C4186 C4188 1.388 . S
C4187 C4186 1.366 . S
C4187 C4191 1.385 . S
C4188 H4169 0.951 . S
C4188 C4186 1.388 . S
C4188 C4189 1.366 . S
C4189 C4188 1.366 . S
C4189 C4190 1.414 . S
C4189 C4192 1.499 . S
C4190 H4170 0.950 . S
C4190 C4189 1.414 . S
C4190 C4191 1.374 . S
C4191 H4171 0.950 . S
C4191 C4187 1.385 . S
C4191 C4190 1.374 . S
C4192 C4189 1.499 . S
C4192 C4193 1.373 . S
C4192 C4194 1.389 . S
C4193 H4172 0.950 . S
C4193 C4192 1.373 . S
C4193 C4209 1.377 . S
C4194 C4192 1.389 . S
C4194 C4195 1.524 . S
C4194 C4208 1.377 . S
C4195 C4194 1.524 . S
C4195 C4196 1.397 . S
C4195 C4200 1.363 . S
C4196 H4173 0.950 . S
C4196 C4195 1.397 . S
C4196 C4197 1.334 . S
C4197 H4174 0.950 . S
C4197 C4196 1.334 . S
C4197 C4198 1.287 . S
C4198 C4197 1.287 . S
C4198 C4199 1.524 . S
C4198 H4217 0.913 . S
C4199 H4175 0.950 . S
C4199 C4198 1.524 . S
C4199 C4200 1.415 . S
C4200 H4176 0.950 . S
C4200 C4195 1.363 . S
C4200 C4199 1.415 . S
C4201 H4177 0.951 . S
C4201 C4202 1.366 . S
C4201 C4203 1.388 . S
C4202 C4201 1.366 . S
C4202 C4206 1.385 . S
C4203 H4178 0.951 . S
C4203 C4201 1.388 . S
C4203 C4204 1.366 . S
C4204 C4203 1.366 . S
C4204 C4205 1.414 . S
C4204 C4207 1.499 . S
C4205 H4179 0.950 . S
C4205 C4204 1.414 . S
C4205 C4206 1.374 . S
C4206 H4180 0.950 . S
C4206 C4202 1.385 . S
C4206 C4205 1.374 . S
C4207 C4204 1.499 . S
C4207 C4208 1.373 . S
C4207 C4209 1.389 . S
C4208 H4181 0.950 . S
C4208 C4194 1.377 . S
C4208 C4207 1.373 . S
C4209 C4193 1.377 . S
C4209 C4207 1.389 . S
C4209 C4210 1.524 . S
C4210 C4209 1.524 . S
C4210 C4211 1.397 . S
C4210 C4215 1.363 . S
C4211 H4182 0.950 . S
C4211 C4210 1.397 . S
C4211 C4212 1.334 . S
C4212 H4183 0.950 . S
C4212 C4211 1.334 . S
C4212 C4213 1.287 . S
C4213 C4212 1.287 . S
C4213 C4214 1.524 . S
C4213 H4216 0.999 . S
C4214 H4184 0.950 . S
C4214 C4213 1.524 . S
C4214 C4215 1.415 . S
C4215 H4185 0.950 . S
C4215 C4210 1.363 . S
C4215 C4214 1.415 . S
H4216 C4213 0.999 . S
H4217 C4198 0.913 . S
H4218 C4236 0.951 . S
H4219 C4238 0.951 . S
H4220 C4240 0.950 . S
H4221 C4241 0.950 . S
H4222 C4243 0.950 . S
H4223 C4246 0.950 . S
H4224 C4247 0.950 . S
H4225 C4249 0.950 . S
H4226 C4250 0.950 . S
H4227 C4251 0.951 . S
H4228 C4253 0.951 . S
H4229 C4255 0.950 . S
H4230 C4256 0.950 . S
H4231 C4258 0.950 . S
H4232 C4261 0.950 . S
H4233 C4262 0.950 . S
H4234 C4264 0.950 . S
H4235 C4265 0.950 . S
C4236 H4218 0.951 . S
C4236 C4237 1.366 . S
C4236 C4238 1.388 . S
C4237 C4236 1.366 . S
C4237 C4241 1.385 . S
C4238 H4219 0.951 . S
C4238 C4236 1.388 . S
C4238 C4239 1.366 . S
C4239 C4238 1.366 . S
C4239 C4240 1.414 . S
C4239 C4242 1.499 . S
C4240 H4220 0.950 . S
C4240 C4239 1.414 . S
C4240 C4241 1.374 . S
C4241 H4221 0.950 . S
C4241 C4237 1.385 . S
C4241 C4240 1.374 . S
C4242 C4239 1.499 . S
C4242 C4243 1.373 . S
C4242 C4244 1.389 . S
C4243 H4222 0.950 . S
C4243 C4242 1.373 . S
C4243 C4259 1.377 . S
C4244 C4242 1.389 . S
C4244 C4245 1.524 . S
C4244 C4258 1.377 . S
C4245 C4244 1.524 . S
C4245 C4246 1.397 . S
C4245 C4250 1.363 . S
C4246 H4223 0.950 . S
C4246 C4245 1.397 . S
C4246 C4247 1.334 . S
C4247 H4224 0.950 . S
C4247 C4246 1.334 . S
C4247 C4248 1.287 . S
C4248 C4247 1.287 . S
C4248 C4249 1.524 . S
C4248 H4267 0.913 . S
C4249 H4225 0.950 . S
C4249 C4248 1.524 . S
C4249 C4250 1.415 . S
C4250 H4226 0.950 . S
C4250 C4245 1.363 . S
C4250 C4249 1.415 . S
C4251 H4227 0.951 . S
C4251 C4252 1.366 . S
C4251 C4253 1.388 . S
C4252 C4251 1.366 . S
C4252 C4256 1.385 . S
C4253 H4228 0.951 . S
C4253 C4251 1.388 . S
C4253 C4254 1.366 . S
C4254 C4253 1.366 . S
C4254 C4255 1.414 . S
C4254 C4257 1.499 . S
C4255 H4229 0.950 . S
C4255 C4254 1.414 . S
C4255 C4256 1.374 . S
C4256 H4230 0.950 . S
C4256 C4252 1.385 . S
C4256 C4255 1.374 . S
C4257 C4254 1.499 . S
C4257 C4258 1.373 . S
C4257 C4259 1.389 . S
C4258 H4231 0.950 . S
C4258 C4244 1.377 . S
C4258 C4257 1.373 . S
C4259 C4243 1.377 . S
C4259 C4257 1.389 . S
C4259 C4260 1.524 . S
C4260 C4259 1.524 . S
C4260 C4261 1.397 . S
C4260 C4265 1.363 . S
C4261 H4232 0.950 . S
C4261 C4260 1.397 . S
C4261 C4262 1.334 . S
C4262 H4233 0.950 . S
C4262 C4261 1.334 . S
C4262 C4263 1.287 . S
C4263 C4262 1.287 . S
C4263 C4264 1.524 . S
C4263 H4266 0.999 . S
C4264 H4234 0.950 . S
C4264 C4263 1.524 . S
C4264 C4265 1.415 . S
C4265 H4235 0.950 . S
C4265 C4260 1.363 . S
C4265 C4264 1.415 . S
H4266 C4263 0.999 . S
H4267 C4248 0.913 . S
H4268 C4286 0.951 . S
H4269 C4288 0.951 . S
H4270 C4290 0.950 . S
H4271 C4291 0.950 . S
H4272 C4293 0.950 . S
H4273 C4296 0.950 . S
H4274 C4297 0.950 . S
H4275 C4299 0.950 . S
H4276 C4300 0.950 . S
H4277 C4301 0.951 . S
H4278 C4303 0.951 . S
H4279 C4305 0.950 . S
H4280 C4306 0.950 . S
H4281 C4308 0.950 . S
H4282 C4311 0.950 . S
H4283 C4312 0.950 . S
H4284 C4314 0.950 . S
H4285 C4315 0.950 . S
C4286 H4268 0.951 . S
C4286 C4287 1.366 . S
C4286 C4288 1.388 . S
C4287 C4286 1.366 . S
C4287 C4291 1.385 . S
C4288 H4269 0.951 . S
C4288 C4286 1.388 . S
C4288 C4289 1.366 . S
C4289 C4288 1.366 . S
C4289 C4290 1.414 . S
C4289 C4292 1.499 . S
C4290 H4270 0.950 . S
C4290 C4289 1.414 . S
C4290 C4291 1.374 . S
C4291 H4271 0.950 . S
C4291 C4287 1.385 . S
C4291 C4290 1.374 . S
C4292 C4289 1.499 . S
C4292 C4293 1.373 . S
C4292 C4294 1.389 . S
C4293 H4272 0.950 . S
C4293 C4292 1.373 . S
C4293 C4309 1.377 . S
C4294 C4292 1.389 . S
C4294 C4295 1.524 . S
C4294 C4308 1.377 . S
C4295 C4294 1.524 . S
C4295 C4296 1.397 . S
C4295 C4300 1.363 . S
C4296 H4273 0.950 . S
C4296 C4295 1.397 . S
C4296 C4297 1.334 . S
C4297 H4274 0.950 . S
C4297 C4296 1.334 . S
C4297 C4298 1.287 . S
C4298 C4297 1.287 . S
C4298 C4299 1.524 . S
C4298 H4317 0.913 . S
C4299 H4275 0.950 . S
C4299 C4298 1.524 . S
C4299 C4300 1.415 . S
C4300 H4276 0.950 . S
C4300 C4295 1.363 . S
C4300 C4299 1.415 . S
C4301 H4277 0.951 . S
C4301 C4302 1.366 . S
C4301 C4303 1.388 . S
C4302 C4301 1.366 . S
C4302 C4306 1.385 . S
C4303 H4278 0.951 . S
C4303 C4301 1.388 . S
C4303 C4304 1.366 . S
C4304 C4303 1.366 . S
C4304 C4305 1.414 . S
C4304 C4307 1.499 . S
C4305 H4279 0.950 . S
C4305 C4304 1.414 . S
C4305 C4306 1.374 . S
C4306 H4280 0.950 . S
C4306 C4302 1.385 . S
C4306 C4305 1.374 . S
C4307 C4304 1.499 . S
C4307 C4308 1.373 . S
C4307 C4309 1.389 . S
C4308 H4281 0.950 . S
C4308 C4294 1.377 . S
C4308 C4307 1.373 . S
C4309 C4293 1.377 . S
C4309 C4307 1.389 . S
C4309 C4310 1.524 . S
C4310 C4309 1.524 . S
C4310 C4311 1.397 . S
C4310 C4315 1.363 . S
C4311 H4282 0.950 . S
C4311 C4310 1.397 . S
C4311 C4312 1.334 . S
C4312 H4283 0.950 . S
C4312 C4311 1.334 . S
C4312 C4313 1.287 . S
C4313 C4312 1.287 . S
C4313 C4314 1.524 . S
C4313 H4316 0.999 . S
C4314 H4284 0.950 . S
C4314 C4313 1.524 . S
C4314 C4315 1.415 . S
C4315 H4285 0.950 . S
C4315 C4310 1.363 . S
C4315 C4314 1.415 . S
H4316 C4313 0.999 . S
H4317 C4298 0.913 . S
H4318 C4336 0.951 . S
H4319 C4338 0.951 . S
H4320 C4340 0.950 . S
H4321 C4341 0.950 . S
H4322 C4343 0.950 . S
H4323 C4346 0.950 . S
H4324 C4347 0.950 . S
H4325 C4349 0.950 . S
H4326 C4350 0.950 . S
H4327 C4351 0.951 . S
H4328 C4353 0.951 . S
H4329 C4355 0.950 . S
H4330 C4356 0.950 . S
H4331 C4358 0.950 . S
H4332 C4361 0.950 . S
H4333 C4362 0.950 . S
H4334 C4364 0.950 . S
H4335 C4365 0.950 . S
C4336 H4318 0.951 . S
C4336 C4337 1.366 . S
C4336 C4338 1.388 . S
C4337 C4336 1.366 . S
C4337 C4341 1.385 . S
C4338 H4319 0.951 . S
C4338 C4336 1.388 . S
C4338 C4339 1.366 . S
C4339 C4338 1.366 . S
C4339 C4340 1.414 . S
C4339 C4342 1.499 . S
C4340 H4320 0.950 . S
C4340 C4339 1.414 . S
C4340 C4341 1.374 . S
C4341 H4321 0.950 . S
C4341 C4337 1.385 . S
C4341 C4340 1.374 . S
C4342 C4339 1.499 . S
C4342 C4343 1.373 . S
C4342 C4344 1.389 . S
C4343 H4322 0.950 . S
C4343 C4342 1.373 . S
C4343 C4359 1.377 . S
C4344 C4342 1.389 . S
C4344 C4345 1.524 . S
C4344 C4358 1.377 . S
C4345 C4344 1.524 . S
C4345 C4346 1.397 . S
C4345 C4350 1.363 . S
C4346 H4323 0.950 . S
C4346 C4345 1.397 . S
C4346 C4347 1.334 . S
C4347 H4324 0.950 . S
C4347 C4346 1.334 . S
C4347 C4348 1.287 . S
C4348 C4347 1.287 . S
C4348 C4349 1.524 . S
C4348 H4367 0.913 . S
C4349 H4325 0.950 . S
C4349 C4348 1.524 . S
C4349 C4350 1.415 . S
C4350 H4326 0.950 . S
C4350 C4345 1.363 . S
C4350 C4349 1.415 . S
C4351 H4327 0.951 . S
C4351 C4352 1.366 . S
C4351 C4353 1.388 . S
C4352 C4351 1.366 . S
C4352 C4356 1.385 . S
C4353 H4328 0.951 . S
C4353 C4351 1.388 . S
C4353 C4354 1.366 . S
C4354 C4353 1.366 . S
C4354 C4355 1.414 . S
C4354 C4357 1.499 . S
C4355 H4329 0.950 . S
C4355 C4354 1.414 . S
C4355 C4356 1.374 . S
C4356 H4330 0.950 . S
C4356 C4352 1.385 . S
C4356 C4355 1.374 . S
C4357 C4354 1.499 . S
C4357 C4358 1.373 . S
C4357 C4359 1.389 . S
C4358 H4331 0.950 . S
C4358 C4344 1.377 . S
C4358 C4357 1.373 . S
C4359 C4343 1.377 . S
C4359 C4357 1.389 . S
C4359 C4360 1.524 . S
C4360 C4359 1.524 . S
C4360 C4361 1.397 . S
C4360 C4365 1.363 . S
C4361 H4332 0.950 . S
C4361 C4360 1.397 . S
C4361 C4362 1.334 . S
C4362 H4333 0.950 . S
C4362 C4361 1.334 . S
C4362 C4363 1.287 . S
C4363 C4362 1.287 . S
C4363 C4364 1.524 . S
C4363 H4366 0.999 . S
C4364 H4334 0.950 . S
C4364 C4363 1.524 . S
C4364 C4365 1.415 . S
C4365 H4335 0.950 . S
C4365 C4360 1.363 . S
C4365 C4364 1.415 . S
H4366 C4363 0.999 . S
H4367 C4348 0.913 . S
H4368 C4386 0.951 . S
H4369 C4388 0.951 . S
H4370 C4390 0.950 . S
H4371 C4391 0.950 . S
H4372 C4393 0.950 . S
H4373 C4396 0.950 . S
H4374 C4397 0.960 . S
H4375 C4399 0.950 . S
H4376 C4400 0.950 . S
H4377 C4401 0.951 . S
H4378 C4403 0.951 1_565 S
H4379 C4405 0.950 . S
H4380 C4406 0.950 . S
H4381 C4408 0.950 . S
H4382 C4411 0.950 . S
H4383 C4412 0.950 . S
H4384 C4414 0.950 . S
H4385 C4415 0.950 . S
C4386 H4368 0.951 . S
C4386 C4387 1.366 . S
C4386 C4388 1.388 . S
C4387 C4386 1.366 . S
C4387 C4391 1.385 . S
C4388 H4369 0.951 . S
C4388 C4386 1.388 . S
C4388 C4389 1.366 . S
C4389 C4388 1.366 . S
C4389 C4390 1.414 . S
C4389 C4392 1.499 . S
C4390 H4370 0.950 . S
C4390 C4389 1.414 . S
C4390 C4391 1.374 . S
C4391 H4371 0.950 . S
C4391 C4387 1.385 . S
C4391 C4390 1.374 . S
C4392 C4389 1.499 . S
C4392 C4393 1.373 . S
C4392 C4394 1.389 . S
C4393 H4372 0.950 . S
C4393 C4392 1.373 . S
C4393 C4409 1.377 . S
C4394 C4392 1.389 . S
C4394 C4395 1.524 . S
C4394 C4408 1.377 . S
C4395 C4394 1.524 . S
C4395 C4396 1.397 . S
C4395 C4400 1.363 . S
C4396 H4373 0.950 . S
C4396 C4395 1.397 . S
C4396 C4397 1.334 . S
C4397 H4374 0.960 . S
C4397 C4396 1.334 . S
C4397 C4398 1.287 . S
C4398 C4397 1.287 . S
C4398 C4399 1.524 . S
C4398 H4417 0.913 . S
C4399 H4375 0.950 . S
C4399 C4398 1.524 . S
C4399 C4400 1.415 . S
C4400 H4376 0.950 . S
C4400 C4395 1.363 . S
C4400 C4399 1.415 . S
C4401 H4377 0.951 . S
C4401 C4402 1.366 1_565 S
C4401 C4403 1.388 1_565 S
C4402 C4401 1.366 1_545 S
C4402 C4406 1.385 . S
C4403 H4378 0.951 1_545 S
C4403 C4401 1.388 1_545 S
C4403 C4404 1.366 . S
C4404 C4403 1.366 . S
C4404 C4405 1.414 . S
C4404 C4407 1.499 . S
C4405 H4379 0.950 . S
C4405 C4404 1.414 . S
C4405 C4406 1.374 . S
C4406 H4380 0.950 . S
C4406 C4402 1.385 . S
C4406 C4405 1.374 . S
C4407 C4404 1.499 . S
C4407 C4408 1.373 . S
C4407 C4409 1.389 . S
C4408 H4381 0.950 . S
C4408 C4394 1.377 . S
C4408 C4407 1.373 . S
C4409 C4393 1.377 . S
C4409 C4407 1.389 . S
C4409 C4410 1.524 . S
C4410 C4409 1.524 . S
C4410 C4411 1.397 . S
C4410 C4415 1.363 . S
C4411 H4382 0.950 . S
C4411 C4410 1.397 . S
C4411 C4412 1.334 . S
C4412 H4383 0.950 . S
C4412 C4411 1.334 . S
C4412 C4413 1.287 . S
C4413 C4412 1.287 . S
C4413 C4414 1.524 . S
C4413 H4416 0.999 . S
C4414 H4384 0.950 . S
C4414 C4413 1.524 . S
C4414 C4415 1.415 . S
C4415 H4385 0.950 . S
C4415 C4410 1.363 . S
C4415 C4414 1.415 . S
H4416 C4413 0.999 . S
H4417 C4398 0.913 . S
H4418 C4436 0.951 . S
H4419 C4438 1.023 . S
H4420 C4440 0.950 . S
H4421 C4441 0.950 . S
H4422 C4443 0.950 . S
H4423 C4446 0.950 . S
H4424 C4447 0.950 . S
H4425 C4449 0.950 . S
H4426 C4450 0.950 . S
H4427 C4451 0.951 . S
H4428 C4453 0.951 . S
H4429 C4455 0.950 . S
H4430 C4456 0.950 . S
H4431 C4458 0.950 1_455 S
H4432 C4461 0.950 . S
H4433 C4462 0.950 . S
H4434 C4464 0.950 . S
H4435 C4465 0.950 . S
C4436 H4418 0.951 . S
C4436 C4437 1.366 . S
C4436 C4438 1.388 . S
C4437 C4436 1.366 . S
C4437 C4441 1.385 . S
C4438 H4419 1.023 . S
C4438 C4436 1.388 . S
C4438 C4439 1.366 . S
C4439 C4438 1.366 . S
C4439 C4440 1.414 . S
C4439 C4442 1.499 . S
C4440 H4420 0.950 . S
C4440 C4439 1.414 . S
C4440 C4441 1.374 . S
C4441 H4421 0.950 . S
C4441 C4437 1.385 . S
C4441 C4440 1.374 . S
C4442 C4439 1.499 . S
C4442 C4443 1.373 . S
C4442 C4444 1.389 . S
C4443 H4422 0.950 . S
C4443 C4442 1.373 . S
C4443 C4459 1.377 . S
C4444 C4442 1.389 . S
C4444 C4445 1.554 . S
C4444 C4458 1.377 . S
C4445 C4444 1.554 . S
C4445 C4446 1.403 . S
C4445 C4450 1.331 1_655 S
C4446 H4423 0.950 . S
C4446 C4445 1.403 . S
C4446 C4447 1.334 . S
C4447 H4424 0.950 . S
C4447 C4446 1.334 . S
C4447 C4448 1.287 1_655 S
C4448 C4447 1.287 1_455 S
C4448 C4449 1.524 . S
C4448 H4467 0.913 . S
C4449 H4425 0.950 . S
C4449 C4448 1.524 . S
C4449 C4450 1.415 . S
C4450 H4426 0.950 . S
C4450 C4445 1.331 1_455 S
C4450 C4449 1.415 . S
C4451 H4427 0.951 . S
C4451 C4452 1.366 . S
C4451 C4453 1.388 . S
C4452 C4451 1.366 . S
C4452 C4456 1.385 1_655 S
C4453 H4428 0.951 . S
C4453 C4451 1.388 . S
C4453 C4454 1.366 . S
C4454 C4453 1.366 . S
C4454 C4455 1.414 1_655 S
C4454 C4457 1.499 . S
C4455 H4429 0.950 . S
C4455 C4454 1.414 1_455 S
C4455 C4456 1.374 . S
C4456 H4430 0.950 . S
C4456 C4452 1.385 1_455 S
C4456 C4455 1.374 . S
C4457 C4454 1.499 . S
C4457 C4458 1.373 . S
C4457 C4459 1.389 . S
C4458 H4431 0.950 1_655 S
C4458 C4444 1.377 . S
C4458 C4457 1.373 . S
C4459 C4443 1.377 . S
C4459 C4457 1.389 . S
C4459 C4460 1.524 . S
C4460 C4459 1.524 . S
C4460 C4461 1.397 . S
C4460 C4465 1.363 . S
C4461 H4432 0.950 . S
C4461 C4460 1.397 . S
C4461 C4462 1.334 . S
C4462 H4433 0.950 . S
C4462 C4461 1.334 . S
C4462 C4463 1.287 . S
C4463 C4462 1.287 . S
C4463 C4464 1.524 . S
C4463 H4466 0.999 . S
C4464 H4434 0.950 . S
C4464 C4463 1.524 . S
C4464 C4465 1.415 . S
C4465 H4435 0.950 . S
C4465 C4460 1.363 . S
C4465 C4464 1.415 . S
H4466 C4463 0.999 . S
H4467 C4448 0.913 . S
H4468 C4486 0.951 . S
H4469 C4488 0.951 . S
H4470 C4490 0.950 . S
H4471 C4491 0.950 . S
H4472 C4493 0.950 . S
H4473 C4496 0.950 . S
H4474 C4497 0.950 . S
H4475 C4499 0.950 . S
H4476 C4500 0.950 . S
H4477 C4501 0.951 . S
H4478 C4503 0.951 . S
H4479 C4505 0.950 . S
H4480 C4506 0.950 . S
H4481 C4508 0.950 . S
H4482 C4511 0.950 . S
H4483 C4512 0.950 . S
H4484 C4514 0.950 . S
H4485 C4515 0.950 . S
C4486 H4468 0.951 . S
C4486 C4487 1.366 . S
C4486 C4488 1.388 . S
C4487 C4486 1.366 . S
C4487 C4491 1.385 . S
C4488 H4469 0.951 . S
C4488 C4486 1.388 . S
C4488 C4489 1.366 . S
C4489 C4488 1.366 . S
C4489 C4490 1.414 . S
C4489 C4492 1.499 . S
C4490 H4470 0.950 . S
C4490 C4489 1.414 . S
C4490 C4491 1.374 . S
C4491 H4471 0.950 . S
C4491 C4487 1.385 . S
C4491 C4490 1.374 . S
C4492 C4489 1.499 . S
C4492 C4493 1.373 . S
C4492 C4494 1.389 . S
C4493 H4472 0.950 . S
C4493 C4492 1.373 . S
C4493 C4509 1.377 . S
C4494 C4492 1.389 . S
C4494 C4495 1.524 . S
C4494 C4508 1.377 . S
C4495 C4494 1.524 . S
C4495 C4496 1.397 . S
C4495 C4500 1.363 . S
C4496 H4473 0.950 . S
C4496 C4495 1.397 . S
C4496 C4497 1.334 . S
C4497 H4474 0.950 . S
C4497 C4496 1.334 . S
C4497 C4498 1.287 . S
C4498 C4497 1.287 . S
C4498 C4499 1.524 . S
C4498 H4517 0.913 . S
C4499 H4475 0.950 . S
C4499 C4498 1.524 . S
C4499 C4500 1.415 . S
C4500 H4476 0.950 . S
C4500 C4495 1.363 . S
C4500 C4499 1.415 . S
C4501 H4477 0.951 . S
C4501 C4502 1.366 . S
C4501 C4503 1.388 . S
C4502 C4501 1.366 . S
C4502 C4506 1.385 . S
C4503 H4478 0.951 . S
C4503 C4501 1.388 . S
C4503 C4504 1.366 . S
C4504 C4503 1.366 . S
C4504 C4505 1.414 . S
C4504 C4507 1.499 . S
C4505 H4479 0.950 . S
C4505 C4504 1.414 . S
C4505 C4506 1.374 . S
C4506 H4480 0.950 . S
C4506 C4502 1.385 . S
C4506 C4505 1.374 . S
C4507 C4504 1.499 . S
C4507 C4508 1.373 . S
C4507 C4509 1.389 . S
C4508 H4481 0.950 . S
C4508 C4494 1.377 . S
C4508 C4507 1.373 . S
C4509 C4493 1.377 . S
C4509 C4507 1.389 . S
C4509 C4510 1.524 . S
C4510 C4509 1.524 . S
C4510 C4511 1.397 . S
C4510 C4515 1.363 . S
C4511 H4482 0.950 . S
C4511 C4510 1.397 . S
C4511 C4512 1.334 . S
C4512 H4483 0.950 . S
C4512 C4511 1.334 . S
C4512 C4513 1.287 . S
C4513 C4512 1.287 . S
C4513 C4514 1.524 . S
C4513 H4516 0.999 . S
C4514 H4484 0.950 . S
C4514 C4513 1.524 . S
C4514 C4515 1.415 . S
C4515 H4485 0.950 . S
C4515 C4510 1.363 . S
C4515 C4514 1.415 . S
H4516 C4513 0.999 . S
H4517 C4498 0.913 . S
H4518 C4536 0.951 . S
H4519 C4538 0.951 . S
H4520 C4540 0.950 . S
H4521 C4541 0.950 . S
H4522 C4543 0.950 . S
H4523 C4546 0.950 . S
H4524 C4547 0.950 . S
H4525 C4549 0.950 . S
H4526 C4550 0.950 . S
H4527 C4551 0.951 . S
H4528 C4553 0.951 . S
H4529 C4555 0.950 . S
H4530 C4556 0.950 . S
H4531 C4558 0.950 . S
H4532 C4561 0.950 . S
H4533 C4562 0.950 . S
H4534 C4564 0.950 . S
H4535 C4565 0.950 . S
C4536 H4518 0.951 . S
C4536 C4537 1.366 . S
C4536 C4538 1.388 . S
C4537 C4536 1.366 . S
C4537 C4541 1.385 . S
C4538 H4519 0.951 . S
C4538 C4536 1.388 . S
C4538 C4539 1.366 . S
C4539 C4538 1.366 . S
C4539 C4540 1.414 . S
C4539 C4542 1.499 . S
C4540 H4520 0.950 . S
C4540 C4539 1.414 . S
C4540 C4541 1.374 . S
C4541 H4521 0.950 . S
C4541 C4537 1.385 . S
C4541 C4540 1.374 . S
C4542 C4539 1.499 . S
C4542 C4543 1.373 . S
C4542 C4544 1.389 . S
C4543 H4522 0.950 . S
C4543 C4542 1.373 . S
C4543 C4559 1.377 . S
C4544 C4542 1.389 . S
C4544 C4545 1.524 . S
C4544 C4558 1.377 . S
C4545 C4544 1.524 . S
C4545 C4546 1.397 . S
C4545 C4550 1.363 . S
C4546 H4523 0.950 . S
C4546 C4545 1.397 . S
C4546 C4547 1.334 . S
C4547 H4524 0.950 . S
C4547 C4546 1.334 . S
C4547 C4548 1.287 . S
C4548 C4547 1.287 . S
C4548 C4549 1.524 . S
C4548 H4567 0.913 . S
C4549 H4525 0.950 . S
C4549 C4548 1.524 . S
C4549 C4550 1.415 . S
C4550 H4526 0.950 . S
C4550 C4545 1.363 . S
C4550 C4549 1.415 . S
C4551 H4527 0.951 . S
C4551 C4552 1.366 . S
C4551 C4553 1.388 . S
C4552 C4551 1.366 . S
C4552 C4556 1.385 . S
C4553 H4528 0.951 . S
C4553 C4551 1.388 . S
C4553 C4554 1.366 . S
C4554 C4553 1.366 . S
C4554 C4555 1.414 . S
C4554 C4557 1.499 . S
C4555 H4529 0.950 . S
C4555 C4554 1.414 . S
C4555 C4556 1.374 . S
C4556 H4530 0.950 . S
C4556 C4552 1.385 . S
C4556 C4555 1.374 . S
C4557 C4554 1.499 . S
C4557 C4558 1.373 . S
C4557 C4559 1.389 . S
C4558 H4531 0.950 . S
C4558 C4544 1.377 . S
C4558 C4557 1.373 . S
C4559 C4543 1.377 . S
C4559 C4557 1.389 . S
C4559 C4560 1.524 . S
C4560 C4559 1.524 . S
C4560 C4561 1.397 . S
C4560 C4565 1.363 . S
C4561 H4532 0.950 . S
C4561 C4560 1.397 . S
C4561 C4562 1.334 . S
C4562 H4533 0.950 . S
C4562 C4561 1.334 . S
C4562 C4563 1.287 . S
C4563 C4562 1.287 . S
C4563 C4564 1.524 . S
C4563 H4566 0.999 . S
C4564 H4534 0.950 . S
C4564 C4563 1.524 . S
C4564 C4565 1.415 . S
C4565 H4535 0.950 . S
C4565 C4560 1.363 . S
C4565 C4564 1.415 . S
H4566 C4563 0.999 . S
H4567 C4548 0.913 . S
H4568 C4586 0.951 . S
H4569 C4588 0.951 . S
H4570 C4590 0.950 . S
H4571 C4591 0.950 . S
H4572 C4593 0.950 . S
H4573 C4596 0.950 . S
H4574 C4597 0.950 . S
H4575 C4599 0.950 . S
H4576 C4600 0.950 . S
H4577 C4601 0.951 . S
H4578 C4603 0.951 . S
H4579 C4605 0.950 . S
H4580 C4606 0.950 . S
H4581 C4608 0.950 . S
H4582 C4611 0.950 . S
H4583 C4612 0.950 . S
H4584 C4614 0.950 . S
H4585 C4615 0.950 . S
C4586 H4568 0.951 . S
C4586 C4587 1.366 . S
C4586 C4588 1.388 . S
C4587 C4586 1.366 . S
C4587 C4591 1.385 . S
C4588 H4569 0.951 . S
C4588 C4586 1.388 . S
C4588 C4589 1.366 . S
C4589 C4588 1.366 . S
C4589 C4590 1.414 . S
C4589 C4592 1.499 . S
C4590 H4570 0.950 . S
C4590 C4589 1.414 . S
C4590 C4591 1.374 . S
C4591 H4571 0.950 . S
C4591 C4587 1.385 . S
C4591 C4590 1.374 . S
C4592 C4589 1.499 . S
C4592 C4593 1.373 . S
C4592 C4594 1.389 . S
C4593 H4572 0.950 . S
C4593 C4592 1.373 . S
C4593 C4609 1.377 . S
C4594 C4592 1.389 . S
C4594 C4595 1.524 . S
C4594 C4608 1.377 . S
C4595 C4594 1.524 . S
C4595 C4596 1.397 . S
C4595 C4600 1.363 . S
C4596 H4573 0.950 . S
C4596 C4595 1.397 . S
C4596 C4597 1.334 . S
C4597 H4574 0.950 . S
C4597 C4596 1.334 . S
C4597 C4598 1.287 . S
C4598 C4597 1.287 . S
C4598 C4599 1.524 . S
C4598 H4617 0.913 . S
C4599 H4575 0.950 . S
C4599 C4598 1.524 . S
C4599 C4600 1.415 . S
C4600 H4576 0.950 . S
C4600 C4595 1.363 . S
C4600 C4599 1.415 . S
C4601 H4577 0.951 . S
C4601 C4602 1.366 . S
C4601 C4603 1.388 . S
C4602 C4601 1.366 . S
C4602 C4606 1.385 . S
C4603 H4578 0.951 . S
C4603 C4601 1.388 . S
C4603 C4604 1.366 . S
C4604 C4603 1.366 . S
C4604 C4605 1.414 . S
C4604 C4607 1.499 . S
C4605 H4579 0.950 . S
C4605 C4604 1.414 . S
C4605 C4606 1.374 . S
C4606 H4580 0.950 . S
C4606 C4602 1.385 . S
C4606 C4605 1.374 . S
C4607 C4604 1.499 . S
C4607 C4608 1.373 . S
C4607 C4609 1.389 . S
C4608 H4581 0.950 . S
C4608 C4594 1.377 . S
C4608 C4607 1.373 . S
C4609 C4593 1.377 . S
C4609 C4607 1.389 . S
C4609 C4610 1.524 . S
C4610 C4609 1.524 . S
C4610 C4611 1.397 . S
C4610 C4615 1.363 . S
C4611 H4582 0.950 . S
C4611 C4610 1.397 . S
C4611 C4612 1.334 . S
C4612 H4583 0.950 . S
C4612 C4611 1.334 . S
C4612 C4613 1.287 . S
C4613 C4612 1.287 . S
C4613 C4614 1.524 . S
C4613 H4616 0.999 . S
C4614 H4584 0.950 . S
C4614 C4613 1.524 . S
C4614 C4615 1.415 . S
C4615 H4585 0.950 . S
C4615 C4610 1.363 . S
C4615 C4614 1.415 . S
H4616 C4613 0.999 . S
H4617 C4598 0.913 . S
H4618 C4636 0.951 . S
H4619 C4638 0.951 . S
H4620 C4640 0.950 . S
H4621 C4641 0.950 . S
H4622 C4643 0.950 . S
H4623 C4646 0.950 . S
H4624 C4647 0.950 . S
H4625 C4649 0.950 . S
H4626 C4650 0.950 . S
H4627 C4651 0.951 . S
H4628 C4653 0.951 . S
H4629 C4655 0.950 . S
H4630 C4656 0.950 . S
H4631 C4658 0.950 . S
H4632 C4661 0.950 . S
H4633 C4662 0.950 . S
H4634 C4664 0.950 . S
H4635 C4665 0.950 . S
C4636 H4618 0.951 . S
C4636 C4637 1.366 . S
C4636 C4638 1.388 . S
C4637 C4636 1.366 . S
C4637 C4641 1.385 . S
C4638 H4619 0.951 . S
C4638 C4636 1.388 . S
C4638 C4639 1.366 . S
C4639 C4638 1.366 . S
C4639 C4640 1.414 . S
C4639 C4642 1.499 . S
C4640 H4620 0.950 . S
C4640 C4639 1.414 . S
C4640 C4641 1.374 . S
C4641 H4621 0.950 . S
C4641 C4637 1.385 . S
C4641 C4640 1.374 . S
C4642 C4639 1.499 . S
C4642 C4643 1.373 . S
C4642 C4644 1.389 . S
C4643 H4622 0.950 . S
C4643 C4642 1.373 . S
C4643 C4659 1.377 . S
C4644 C4642 1.389 . S
C4644 C4645 1.524 . S
C4644 C4658 1.377 . S
C4645 C4644 1.524 . S
C4645 C4646 1.397 . S
C4645 C4650 1.363 . S
C4646 H4623 0.950 . S
C4646 C4645 1.397 . S
C4646 C4647 1.334 . S
C4647 H4624 0.950 . S
C4647 C4646 1.334 . S
C4647 C4648 1.287 . S
C4648 C4647 1.287 . S
C4648 C4649 1.524 . S
C4648 H4667 0.913 . S
C4649 H4625 0.950 . S
C4649 C4648 1.524 . S
C4649 C4650 1.415 . S
C4650 H4626 0.950 . S
C4650 C4645 1.363 . S
C4650 C4649 1.415 . S
C4651 H4627 0.951 . S
C4651 C4652 1.366 . S
C4651 C4653 1.388 . S
C4652 C4651 1.366 . S
C4652 C4656 1.385 . S
C4653 H4628 0.951 . S
C4653 C4651 1.388 . S
C4653 C4654 1.366 . S
C4654 C4653 1.366 . S
C4654 C4655 1.414 . S
C4654 C4657 1.499 . S
C4655 H4629 0.950 . S
C4655 C4654 1.414 . S
C4655 C4656 1.374 . S
C4656 H4630 0.950 . S
C4656 C4652 1.385 . S
C4656 C4655 1.374 . S
C4657 C4654 1.499 . S
C4657 C4658 1.373 . S
C4657 C4659 1.389 . S
C4658 H4631 0.950 . S
C4658 C4644 1.377 . S
C4658 C4657 1.373 . S
C4659 C4643 1.377 . S
C4659 C4657 1.389 . S
C4659 C4660 1.524 . S
C4660 C4659 1.524 . S
C4660 C4661 1.397 . S
C4660 C4665 1.363 . S
C4661 H4632 0.950 . S
C4661 C4660 1.397 . S
C4661 C4662 1.334 . S
C4662 H4633 0.950 . S
C4662 C4661 1.334 . S
C4662 C4663 1.287 . S
C4663 C4662 1.287 . S
C4663 C4664 1.524 . S
C4663 H4666 0.999 . S
C4664 H4634 0.950 . S
C4664 C4663 1.524 . S
C4664 C4665 1.415 . S
C4665 H4635 0.950 . S
C4665 C4660 1.363 . S
C4665 C4664 1.415 . S
H4666 C4663 0.999 . S
H4667 C4648 0.913 . S
H4668 C4686 0.951 . S
H4669 C4688 0.951 . S
H4670 C4690 0.950 . S
H4671 C4691 0.950 . S
H4672 C4693 0.950 . S
H4673 C4696 0.950 . S
H4674 C4697 0.950 . S
H4675 C4699 0.950 . S
H4676 C4700 0.950 . S
H4677 C4701 0.951 . S
H4678 C4703 0.951 . S
H4679 C4705 0.950 . S
H4680 C4706 0.950 . S
H4681 C4708 0.950 . S
H4682 C4711 0.950 . S
H4683 C4712 0.950 . S
H4684 C4714 0.950 . S
H4685 C4715 0.950 . S
C4686 H4668 0.951 . S
C4686 C4687 1.366 . S
C4686 C4688 1.388 . S
C4687 C4686 1.366 . S
C4687 C4691 1.385 . S
C4688 H4669 0.951 . S
C4688 C4686 1.388 . S
C4688 C4689 1.366 . S
C4689 C4688 1.366 . S
C4689 C4690 1.414 . S
C4689 C4692 1.499 . S
C4690 H4670 0.950 . S
C4690 C4689 1.414 . S
C4690 C4691 1.374 . S
C4691 H4671 0.950 . S
C4691 C4687 1.385 . S
C4691 C4690 1.374 . S
C4692 C4689 1.499 . S
C4692 C4693 1.373 . S
C4692 C4694 1.389 . S
C4693 H4672 0.950 . S
C4693 C4692 1.373 . S
C4693 C4709 1.377 . S
C4694 C4692 1.389 . S
C4694 C4695 1.524 . S
C4694 C4708 1.377 . S
C4695 C4694 1.524 . S
C4695 C4696 1.397 . S
C4695 C4700 1.363 . S
C4696 H4673 0.950 . S
C4696 C4695 1.397 . S
C4696 C4697 1.334 . S
C4697 H4674 0.950 . S
C4697 C4696 1.334 . S
C4697 C4698 1.287 . S
C4698 C4697 1.287 . S
C4698 C4699 1.524 . S
C4698 H4717 0.913 . S
C4699 H4675 0.950 . S
C4699 C4698 1.524 . S
C4699 C4700 1.415 . S
C4700 H4676 0.950 . S
C4700 C4695 1.363 . S
C4700 C4699 1.415 . S
C4701 H4677 0.951 . S
C4701 C4702 1.366 . S
C4701 C4703 1.388 . S
C4702 C4701 1.366 . S
C4702 C4706 1.385 . S
C4703 H4678 0.951 . S
C4703 C4701 1.388 . S
C4703 C4704 1.366 . S
C4704 C4703 1.366 . S
C4704 C4705 1.414 . S
C4704 C4707 1.499 . S
C4705 H4679 0.950 . S
C4705 C4704 1.414 . S
C4705 C4706 1.374 . S
C4706 H4680 0.950 . S
C4706 C4702 1.385 . S
C4706 C4705 1.374 . S
C4707 C4704 1.499 . S
C4707 C4708 1.373 . S
C4707 C4709 1.389 . S
C4708 H4681 0.950 . S
C4708 C4694 1.377 . S
C4708 C4707 1.373 . S
C4709 C4693 1.377 . S
C4709 C4707 1.389 . S
C4709 C4710 1.524 . S
C4710 C4709 1.524 . S
C4710 C4711 1.397 . S
C4710 C4715 1.363 . S
C4711 H4682 0.950 . S
C4711 C4710 1.397 . S
C4711 C4712 1.334 . S
C4712 H4683 0.950 . S
C4712 C4711 1.334 . S
C4712 C4713 1.287 . S
C4713 C4712 1.287 . S
C4713 C4714 1.524 . S
C4713 H4716 0.999 . S
C4714 H4684 0.950 . S
C4714 C4713 1.524 . S
C4714 C4715 1.415 . S
C4715 H4685 0.950 . S
C4715 C4710 1.363 . S
C4715 C4714 1.415 . S
H4716 C4713 0.999 . S
H4717 C4698 0.913 . S
H4718 C4736 0.951 . S
H4719 C4738 0.951 . S
H4720 C4740 0.950 . S
H4721 C4741 0.950 . S
H4722 C4743 0.950 . S
H4723 C4746 0.950 . S
H4724 C4747 0.950 . S
H4725 C4749 0.950 . S
H4726 C4750 0.950 . S
H4727 C4751 0.951 . S
H4728 C4753 0.951 . S
H4729 C4755 0.950 . S
H4730 C4756 0.950 . S
H4731 C4758 0.950 . S
H4732 C4761 0.950 . S
H4733 C4762 0.950 . S
H4734 C4764 0.950 . S
H4735 C4765 0.950 . S
C4736 H4718 0.951 . S
C4736 C4737 1.366 . S
C4736 C4738 1.388 . S
C4737 C4736 1.366 . S
C4737 C4741 1.385 . S
C4738 H4719 0.951 . S
C4738 C4736 1.388 . S
C4738 C4739 1.366 . S
C4739 C4738 1.366 . S
C4739 C4740 1.414 . S
C4739 C4742 1.499 . S
C4740 H4720 0.950 . S
C4740 C4739 1.414 . S
C4740 C4741 1.374 . S
C4741 H4721 0.950 . S
C4741 C4737 1.385 . S
C4741 C4740 1.374 . S
C4742 C4739 1.499 . S
C4742 C4743 1.373 . S
C4742 C4744 1.389 . S
C4743 H4722 0.950 . S
C4743 C4742 1.373 . S
C4743 C4759 1.377 . S
C4744 C4742 1.389 . S
C4744 C4745 1.524 . S
C4744 C4758 1.377 . S
C4745 C4744 1.524 . S
C4745 C4746 1.397 . S
C4745 C4750 1.363 . S
C4746 H4723 0.950 . S
C4746 C4745 1.397 . S
C4746 C4747 1.334 . S
C4747 H4724 0.950 . S
C4747 C4746 1.334 . S
C4747 C4748 1.287 . S
C4748 C4747 1.287 . S
C4748 C4749 1.524 . S
C4748 H4767 0.913 . S
C4749 H4725 0.950 . S
C4749 C4748 1.524 . S
C4749 C4750 1.415 . S
C4750 H4726 0.950 . S
C4750 C4745 1.363 . S
C4750 C4749 1.415 . S
C4751 H4727 0.951 . S
C4751 C4752 1.366 . S
C4751 C4753 1.388 . S
C4752 C4751 1.366 . S
C4752 C4756 1.385 . S
C4753 H4728 0.951 . S
C4753 C4751 1.388 . S
C4753 C4754 1.366 . S
C4754 C4753 1.366 . S
C4754 C4755 1.414 . S
C4754 C4757 1.499 . S
C4755 H4729 0.950 . S
C4755 C4754 1.414 . S
C4755 C4756 1.374 . S
C4756 H4730 0.950 . S
C4756 C4752 1.385 . S
C4756 C4755 1.374 . S
C4757 C4754 1.499 . S
C4757 C4758 1.373 . S
C4757 C4759 1.389 . S
C4758 H4731 0.950 . S
C4758 C4744 1.377 . S
C4758 C4757 1.373 . S
C4759 C4743 1.377 . S
C4759 C4757 1.389 . S
C4759 C4760 1.524 . S
C4760 C4759 1.524 . S
C4760 C4761 1.397 . S
C4760 C4765 1.363 . S
C4761 H4732 0.950 . S
C4761 C4760 1.397 . S
C4761 C4762 1.334 . S
C4762 H4733 0.950 . S
C4762 C4761 1.334 . S
C4762 C4763 1.287 . S
C4763 C4762 1.287 . S
C4763 C4764 1.524 . S
C4763 H4766 0.999 . S
C4764 H4734 0.950 . S
C4764 C4763 1.524 . S
C4764 C4765 1.415 . S
C4765 H4735 0.950 . S
C4765 C4760 1.363 . S
C4765 C4764 1.415 . S
H4766 C4763 0.999 . S
H4767 C4748 0.913 . S
H4768 C4786 0.951 . S
H4769 C4788 0.951 . S
H4770 C4790 0.950 . S
H4771 C4791 0.950 . S
H4772 C4793 0.950 . S
H4773 C4796 0.950 . S
H4774 C4797 0.950 . S
H4775 C4799 0.950 . S
H4776 C4800 0.950 . S
H4777 C4801 0.951 . S
H4778 C4803 0.951 . S
H4779 C4805 0.950 . S
H4780 C4806 0.950 . S
H4781 C4808 0.950 . S
H4782 C4811 0.950 . S
H4783 C4812 0.950 . S
H4784 C4814 0.950 . S
H4785 C4815 0.950 . S
C4786 H4768 0.951 . S
C4786 C4787 1.366 . S
C4786 C4788 1.388 . S
C4787 C4786 1.366 . S
C4787 C4791 1.385 . S
C4788 H4769 0.951 . S
C4788 C4786 1.388 . S
C4788 C4789 1.366 . S
C4789 C4788 1.366 . S
C4789 C4790 1.414 . S
C4789 C4792 1.499 . S
C4790 H4770 0.950 . S
C4790 C4789 1.414 . S
C4790 C4791 1.374 . S
C4791 H4771 0.950 . S
C4791 C4787 1.385 . S
C4791 C4790 1.374 . S
C4792 C4789 1.499 . S
C4792 C4793 1.373 . S
C4792 C4794 1.389 . S
C4793 H4772 0.950 . S
C4793 C4792 1.373 . S
C4793 C4809 1.377 . S
C4794 C4792 1.389 . S
C4794 C4795 1.524 . S
C4794 C4808 1.377 . S
C4795 C4794 1.524 . S
C4795 C4796 1.397 . S
C4795 C4800 1.363 . S
C4796 H4773 0.950 . S
C4796 C4795 1.397 . S
C4796 C4797 1.334 . S
C4797 H4774 0.950 . S
C4797 C4796 1.334 . S
C4797 C4798 1.287 . S
C4798 C4797 1.287 . S
C4798 C4799 1.524 . S
C4798 H4817 0.913 . S
C4799 H4775 0.950 . S
C4799 C4798 1.524 . S
C4799 C4800 1.415 . S
C4800 H4776 0.950 . S
C4800 C4795 1.363 . S
C4800 C4799 1.415 . S
C4801 H4777 0.951 . S
C4801 C4802 1.366 . S
C4801 C4803 1.388 . S
C4802 C4801 1.366 . S
C4802 C4806 1.385 . S
C4803 H4778 0.951 . S
C4803 C4801 1.388 . S
C4803 C4804 1.366 . S
C4804 C4803 1.366 . S
C4804 C4805 1.414 . S
C4804 C4807 1.499 . S
C4805 H4779 0.950 . S
C4805 C4804 1.414 . S
C4805 C4806 1.374 . S
C4806 H4780 0.950 . S
C4806 C4802 1.385 . S
C4806 C4805 1.374 . S
C4807 C4804 1.499 . S
C4807 C4808 1.373 . S
C4807 C4809 1.389 . S
C4808 H4781 0.950 . S
C4808 C4794 1.377 . S
C4808 C4807 1.373 . S
C4809 C4793 1.377 . S
C4809 C4807 1.389 . S
C4809 C4810 1.524 . S
C4810 C4809 1.524 . S
C4810 C4811 1.397 . S
C4810 C4815 1.363 . S
C4811 H4782 0.950 . S
C4811 C4810 1.397 . S
C4811 C4812 1.334 . S
C4812 H4783 0.950 . S
C4812 C4811 1.334 . S
C4812 C4813 1.287 . S
C4813 C4812 1.287 . S
C4813 C4814 1.524 . S
C4813 H4816 0.999 . S
C4814 H4784 0.950 . S
C4814 C4813 1.524 . S
C4814 C4815 1.415 . S
C4815 H4785 0.950 . S
C4815 C4810 1.363 . S
C4815 C4814 1.415 . S
H4816 C4813 0.999 . S
H4817 C4798 0.913 . S
H4818 C4836 0.951 . S
H4819 C4838 0.951 . S
H4820 C4840 0.950 . S
H4821 C4841 0.950 . S
H4822 C4843 0.950 1_455 S
H4823 C4846 0.950 . S
H4824 C4847 0.950 . S
H4825 C4849 0.950 . S
H4826 C4850 0.950 . S
H4827 C4851 1.011 . S
H4828 C4853 0.949 1_455 S
H4829 C4855 0.950 . S
H4830 C4856 0.950 . S
H4831 C4858 0.950 . S
H4832 C4861 0.950 . S
H4833 C4862 0.950 . S
H4834 C4864 0.950 . S
H4835 C4865 0.950 . S
C4836 H4818 0.951 . S
C4836 C4837 1.366 . S
C4836 C4838 1.388 . S
C4837 C4836 1.366 . S
C4837 C4841 1.385 . S
C4838 H4819 0.951 . S
C4838 C4836 1.388 . S
C4838 C4839 1.366 . S
C4839 C4838 1.366 . S
C4839 C4840 1.414 . S
C4839 C4842 1.499 . S
C4840 H4820 0.950 . S
C4840 C4839 1.414 . S
C4840 C4841 1.374 . S
C4841 H4821 0.950 . S
C4841 C4837 1.385 . S
C4841 C4840 1.374 . S
C4842 C4839 1.499 . S
C4842 C4843 1.373 . S
C4842 C4844 1.389 . S
C4843 H4822 0.950 1_655 S
C4843 C4842 1.373 . S
C4843 C4859 1.377 . S
C4844 C4842 1.389 . S
C4844 C4845 1.524 . S
C4844 C4858 1.377 . S
C4845 C4844 1.524 . S
C4845 C4846 1.397 . S
C4845 C4850 1.363 . S
C4846 H4823 0.950 . S
C4846 C4845 1.397 . S
C4846 C4847 1.334 . S
C4847 H4824 0.950 . S
C4847 C4846 1.334 . S
C4847 C4848 1.287 . S
C4848 C4847 1.287 . S
C4848 C4849 1.524 . S
C4848 H4867 0.913 . S
C4849 H4825 0.950 . S
C4849 C4848 1.524 . S
C4849 C4850 1.415 . S
C4850 H4826 0.950 . S
C4850 C4845 1.363 . S
C4850 C4849 1.415 . S
C4851 H4827 1.011 . S
C4851 C4852 1.363 1_455 S
C4851 C4853 1.287 1_455 S
C4852 C4851 1.363 1_655 S
C4852 C4856 1.385 . S
C4853 H4828 0.949 1_655 S
C4853 C4851 1.287 1_655 S
C4853 C4854 1.433 . S
C4854 C4853 1.433 . S
C4854 C4855 1.414 . S
C4854 C4857 1.499 . S
C4855 H4829 0.950 . S
C4855 C4854 1.414 . S
C4855 C4856 1.374 . S
C4856 H4830 0.950 . S
C4856 C4852 1.385 . S
C4856 C4855 1.374 . S
C4857 C4854 1.499 . S
C4857 C4858 1.373 . S
C4857 C4859 1.389 . S
C4858 H4831 0.950 . S
C4858 C4844 1.377 . S
C4858 C4857 1.373 . S
C4859 C4843 1.377 . S
C4859 C4857 1.389 . S
C4859 C4860 1.524 1_655 S
C4860 C4859 1.524 1_455 S
C4860 C4861 1.397 . S
C4860 C4865 1.363 . S
C4861 H4832 0.950 . S
C4861 C4860 1.397 . S
C4861 C4862 1.334 . S
C4862 H4833 0.950 . S
C4862 C4861 1.334 . S
C4862 C4863 1.287 . S
C4863 C4862 1.287 . S
C4863 C4864 1.524 . S
C4863 H4866 0.999 . S
C4864 H4834 0.950 . S
C4864 C4863 1.524 . S
C4864 C4865 1.415 . S
C4865 H4835 0.950 . S
C4865 C4860 1.363 . S
C4865 C4864 1.415 . S
H4866 C4863 0.999 . S
H4867 C4848 0.913 . S
H4868 C4886 0.951 . S
H4869 C4888 0.951 . S
H4870 C4890 0.950 . S
H4871 C4891 0.950 . S
H4872 C4893 0.950 . S
H4873 C4896 0.950 . S
H4874 C4897 0.950 . S
H4875 C4899 0.950 . S
H4876 C4900 0.950 . S
H4877 C4901 0.951 . S
H4878 C4903 0.951 . S
H4879 C4905 0.950 . S
H4880 C4906 0.950 . S
H4881 C4908 0.950 . S
H4882 C4911 0.950 . S
H4883 C4912 0.950 . S
H4884 C4914 0.950 . S
H4885 C4915 0.950 . S
C4886 H4868 0.951 . S
C4886 C4887 1.366 . S
C4886 C4888 1.388 . S
C4887 C4886 1.366 . S
C4887 C4891 1.385 . S
C4888 H4869 0.951 . S
C4888 C4886 1.388 . S
C4888 C4889 1.366 . S
C4889 C4888 1.366 . S
C4889 C4890 1.414 . S
C4889 C4892 1.499 . S
C4890 H4870 0.950 . S
C4890 C4889 1.414 . S
C4890 C4891 1.374 . S
C4891 H4871 0.950 . S
C4891 C4887 1.385 . S
C4891 C4890 1.374 . S
C4892 C4889 1.499 . S
C4892 C4893 1.373 . S
C4892 C4894 1.389 . S
C4893 H4872 0.950 . S
C4893 C4892 1.373 . S
C4893 C4909 1.377 . S
C4894 C4892 1.389 . S
C4894 C4895 1.524 . S
C4894 C4908 1.377 . S
C4895 C4894 1.524 . S
C4895 C4896 1.397 . S
C4895 C4900 1.363 . S
C4896 H4873 0.950 . S
C4896 C4895 1.397 . S
C4896 C4897 1.334 . S
C4897 H4874 0.950 . S
C4897 C4896 1.334 . S
C4897 C4898 1.287 . S
C4898 C4897 1.287 . S
C4898 C4899 1.524 . S
C4898 H4917 0.913 . S
C4899 H4875 0.950 . S
C4899 C4898 1.524 . S
C4899 C4900 1.415 . S
C4900 H4876 0.950 . S
C4900 C4895 1.363 . S
C4900 C4899 1.415 . S
C4901 H4877 0.951 . S
C4901 C4902 1.366 . S
C4901 C4903 1.388 . S
C4902 C4901 1.366 . S
C4902 C4906 1.385 . S
C4903 H4878 0.951 . S
C4903 C4901 1.388 . S
C4903 C4904 1.366 . S
C4904 C4903 1.366 . S
C4904 C4905 1.414 . S
C4904 C4907 1.499 . S
C4905 H4879 0.950 . S
C4905 C4904 1.414 . S
C4905 C4906 1.374 . S
C4906 H4880 0.950 . S
C4906 C4902 1.385 . S
C4906 C4905 1.374 . S
C4907 C4904 1.499 . S
C4907 C4908 1.373 . S
C4907 C4909 1.389 . S
C4908 H4881 0.950 . S
C4908 C4894 1.377 . S
C4908 C4907 1.373 . S
C4909 C4893 1.377 . S
C4909 C4907 1.389 . S
C4909 C4910 1.524 . S
C4910 C4909 1.524 . S
C4910 C4911 1.397 . S
C4910 C4915 1.363 . S
C4911 H4882 0.950 . S
C4911 C4910 1.397 . S
C4911 C4912 1.334 . S
C4912 H4883 0.950 . S
C4912 C4911 1.334 . S
C4912 C4913 1.287 . S
C4913 C4912 1.287 . S
C4913 C4914 1.524 . S
C4913 H4916 0.999 . S
C4914 H4884 0.950 . S
C4914 C4913 1.524 . S
C4914 C4915 1.415 . S
C4915 H4885 0.950 . S
C4915 C4910 1.363 . S
C4915 C4914 1.415 . S
H4916 C4913 0.999 . S
H4917 C4898 0.913 . S
H4918 C4936 0.951 . S
H4919 C4938 0.951 . S
H4920 C4940 0.950 . S
H4921 C4941 0.950 . S
H4922 C4943 1.015 . S
H4923 C4946 0.950 . S
H4924 C4947 0.950 . S
H4925 C4949 0.950 . S
H4926 C4950 0.950 . S
H4927 C4951 0.951 . S
H4928 C4953 0.951 . S
H4929 C4955 0.950 . S
H4930 C4956 0.950 . S
H4931 C4958 0.950 . S
H4932 C4961 0.950 . S
H4933 C4962 0.950 . S
H4934 C4964 0.950 . S
H4935 C4965 0.950 . S
C4936 H4918 0.951 . S
C4936 C4937 1.366 . S
C4936 C4938 1.388 . S
C4937 C4936 1.366 . S
C4937 C4941 1.385 . S
C4938 H4919 0.951 . S
C4938 C4936 1.388 . S
C4938 C4939 1.366 . S
C4939 C4938 1.366 . S
C4939 C4940 1.414 . S
C4939 C4942 1.499 . S
C4940 H4920 0.950 . S
C4940 C4939 1.414 . S
C4940 C4941 1.374 . S
C4941 H4921 0.950 . S
C4941 C4937 1.385 . S
C4941 C4940 1.374 . S
C4942 C4939 1.499 . S
C4942 C4943 1.373 . S
C4942 C4944 1.389 . S
C4943 H4922 1.015 . S
C4943 C4942 1.373 . S
C4943 C4959 1.377 . S
C4944 C4942 1.389 . S
C4944 C4945 1.524 . S
C4944 C4958 1.377 . S
C4945 C4944 1.524 . S
C4945 C4946 1.397 . S
C4945 C4950 1.363 . S
C4946 H4923 0.950 . S
C4946 C4945 1.397 . S
C4946 C4947 1.334 . S
C4947 H4924 0.950 . S
C4947 C4946 1.334 . S
C4947 C4948 1.287 . S
C4948 C4947 1.287 . S
C4948 C4949 1.524 . S
C4948 H4967 0.913 . S
C4949 H4925 0.950 . S
C4949 C4948 1.524 . S
C4949 C4950 1.415 . S
C4950 H4926 0.950 . S
C4950 C4945 1.363 . S
C4950 C4949 1.415 . S
C4951 H4927 0.951 . S
C4951 C4952 1.366 . S
C4951 C4953 1.388 . S
C4952 C4951 1.366 . S
C4952 C4956 1.385 . S
C4953 H4928 0.951 . S
C4953 C4951 1.388 . S
C4953 C4954 1.366 . S
C4954 C4953 1.366 . S
C4954 C4955 1.414 . S
C4954 C4957 1.499 . S
C4955 H4929 0.950 . S
C4955 C4954 1.414 . S
C4955 C4956 1.374 . S
C4956 H4930 0.950 . S
C4956 C4952 1.385 . S
C4956 C4955 1.374 . S
C4957 C4954 1.499 . S
C4957 C4958 1.373 . S
C4957 C4959 1.389 . S
C4958 H4931 0.950 . S
C4958 C4944 1.377 . S
C4958 C4957 1.373 . S
C4959 C4943 1.377 . S
C4959 C4957 1.389 . S
C4959 C4960 1.524 1_545 S
C4960 C4959 1.524 1_565 S
C4960 C4961 1.397 . S
C4960 C4965 1.363 . S
C4961 H4932 0.950 . S
C4961 C4960 1.397 . S
C4961 C4962 1.334 . S
C4962 H4933 0.950 . S
C4962 C4961 1.334 . S
C4962 C4963 1.287 . S
C4963 C4962 1.287 . S
C4963 C4964 1.524 . S
C4963 H4966 0.999 . S
C4964 H4934 0.950 . S
C4964 C4963 1.524 . S
C4964 C4965 1.415 . S
C4965 H4935 0.950 . S
C4965 C4960 1.363 . S
C4965 C4964 1.415 . S
H4966 C4963 0.999 . S
H4967 C4948 0.913 . S
C1387 C4 1.576 . S
C1402 C857 1.563 . S
C1437 C26 1.595 . S
C1452 C901 1.540 . S
C1502 C981 1.484 . S
C1487 C32 1.511 . S
C1537 C40 1.515 . S
C1552 C1025 1.462 . S
C1587 C12 1.558 . S
C1602 C1105 1.505 . S
C1637 C18 1.545 . S
C1652 C1167 1.527 . S
C1687 C46 1.564 . S
C1702 C1087 1.543 . S
C1752 C1149 1.516 . S
C1737 C68 1.591 . S
C1802 C1043 1.523 . S
C1787 C74 1.532 . S
C1837 C82 1.496 . S
C1852 C963 1.438 . S
C1902 C839 1.517 . S
C1887 C54 1.581 . S
C1937 C60 1.543 . S
C1952 C919 1.543 . S
C1987 C88 1.630 . S
C2002 C1229 1.608 . S
C2037 C110 1.619 . S
C2052 C1273 1.563 . S
C2102 C1353 1.565 . S
C2087 C116 1.591 . S
C2137 C124 1.534 . S
C2152 C299 1.463 . S
C2187 C96 1.582 . S
C2202 C343 1.530 . S
C2237 C102 1.551 . S
C2252 C423 1.528 . S
C2287 C130 1.607 . S
C2302 C361 1.606 . S
C2337 C152 1.638 . S
C2352 C405 1.560 . S
C2402 C281 1.564 . S
C2387 C158 1.590 . S
C2452 C1335 1.484 . S
C2437 C166 1.557 . S
C2502 C1211 1.505 . S
C2487 C138 1.572 . S
C2552 C1291 1.580 . S
C2537 C144 1.578 . S
C2587 C172 1.619 . S
C2602 C485 1.596 . S
C2637 C194 1.627 . S
C2652 C547 1.549 . S
C2687 C200 1.590 . S
C2702 C591 1.591 . S
C2737 C208 1.547 . S
C2752 C653 1.494 . S
C2802 C715 1.535 . S
C2787 C180 1.587 . S
C2852 C795 1.551 . S
C2837 C186 1.571 . S
C2902 C733 1.638 . S
C2887 C214 1.637 . S
C2952 C777 1.545 . S
C2937 C236 1.624 . S
C2987 C242 1.575 . S
C3002 C671 1.576 . S
C3052 C609 1.470 . S
C3037 C250 1.522 . S
C3087 C222 1.584 . S
C3102 C467 1.516 . S
C3152 C529 1.540 . S
C3137 C228 1.562 . S
C3202 C305 1.303 . S
C3187 C5 1.154 . S
C3237 C25 1.299 . S
C3252 C349 1.238 . S
C3302 C429 1.303 . S
C3287 C33 1.163 . S
C3352 C491 1.165 . S
C3337 C39 1.202 1_556 S
C3402 C553 1.232 . S
C3387 C11 1.303 . S
C3452 C597 1.258 . S
C3437 C19 1.100 1_556 S
C3487 C47 1.177 1_556 S
C3502 C615 1.354 . S
C3537 C67 1.287 1_556 S
C3552 C473 1.221 . S
C3587 C75 1.141 . S
C3602 C535 1.283 . S
C3637 C81 1.250 . S
C3652 C367 1.201 . S
C3702 C411 1.206 . S
C3687 C53 1.272 . S
C3737 C61 1.095 . S
C3752 C287 1.241 . S
C3802 C659 1.302 . S
C3787 C89 1.136 . S
C3837 C109 1.353 1_545 S
C3852 C721 1.290 . S
C3887 C117 1.147 . S
C3902 C801 1.297 . S
C3952 C863 1.168 . S
C3937 C123 1.212 . S
C3987 C95 1.287 . S
C4002 C907 1.232 . S
C4037 C103 1.051 . S
C4052 C987 1.182 . S
C4087 C131 1.066 . S
C4102 C969 1.190 . S
C4137 C151 1.262 . S
C4152 C845 1.202 . S
C4202 C925 1.271 . S
C4187 C159 1.112 . S
C4237 C165 1.268 . S
C4252 C739 1.215 . S
C4287 C137 1.340 1_545 S
C4302 C783 1.268 . S
C4352 C677 1.288 . S
C4337 C145 1.126 . S
C4402 C1031 1.235 . S
C4387 C173 1.087 . S
C4437 C193 1.234 . S
C4452 C1111 1.178 . S
C4487 C201 1.108 . S
C4502 C1173 1.251 . S
C4552 C1235 1.186 . S
C4537 C207 1.246 . S
C4602 C1279 1.295 . S
C4587 C179 1.355 1_565 S
C4637 C187 1.131 . S
C4652 C1359 1.283 . S
C4687 C215 1.151 . S
C4702 C1341 1.305 . S
C4737 C235 1.346 1_565 S
C4752 C1217 1.270 . S
C4802 C1297 1.299 . S
C4787 C243 1.138 . S
C4852 C1093 1.140 . S
C4837 C249 1.181 . S
C4902 C1155 1.227 . S
C4887 C221 1.295 . S
C4937 C229 1.062 . S
C4952 C1049 1.205 . S
