# Generated by pormake.
# Topology pyr, (3,6)-cn, num edge types: 1
# Building blocks:
#     Node 0, Type 0, BuildingBlock: MIDCAF_clean_linker_0, # of connection points: 3
#     Node 1, Type 0, BuildingBlock: MIDCAF_clean_linker_0, # of connection points: 3
#     Node 2, Type 0, BuildingBlock: MIDCAF_clean_linker_0, # of connection points: 3
#     Node 3, Type 0, BuildingBlock: MIDCAF_clean_linker_0, # of connection points: 3
#     Node 4, Type 0, BuildingBlock: MIDCAF_clean_linker_0, # of connection points: 3
#     Node 5, Type 0, BuildingBlock: MIDCAF_clean_linker_0, # of connection points: 3
#     Node 6, Type 0, BuildingBlock: MIDCAF_clean_linker_0, # of connection points: 3
#     Node 7, Type 0, BuildingBlock: MIDCAF_clean_linker_0, # of connection points: 3
#     Node 8, Type 1, BuildingBlock: BETFEN_clean_sbu_0, # of connection points: 6
#     Node 9, Type 1, BuildingBlock: BETFEN_clean_sbu_0, # of connection points: 6
#     Node 10, Type 1, BuildingBlock: BETFEN_clean_sbu_0, # of connection points: 6
#     Node 11, Type 1, BuildingBlock: BETFEN_clean_sbu_0, # of connection points: 6
#     Edge 12, Type (0, 1), BuildingBlock: TEMPAE_clean_linker_10, # of connection points: 2
#     Edge 13, Type (0, 1), BuildingBlock: TEMPAE_clean_linker_10, # of connection points: 2
#     Edge 14, Type (0, 1), BuildingBlock: TEMPAE_clean_linker_10, # of connection points: 2
#     Edge 15, Type (0, 1), BuildingBlock: TEMPAE_clean_linker_10, # of connection points: 2
#     Edge 16, Type (0, 1), BuildingBlock: TEMPAE_clean_linker_10, # of connection points: 2
#     Edge 17, Type (0, 1), BuildingBlock: TEMPAE_clean_linker_10, # of connection points: 2
#     Edge 18, Type (0, 1), BuildingBlock: TEMPAE_clean_linker_10, # of connection points: 2
#     Edge 19, Type (0, 1), BuildingBlock: TEMPAE_clean_linker_10, # of connection points: 2
#     Edge 20, Type (0, 1), BuildingBlock: TEMPAE_clean_linker_10, # of connection points: 2
#     Edge 21, Type (0, 1), BuildingBlock: TEMPAE_clean_linker_10, # of connection points: 2
#     Edge 22, Type (0, 1), BuildingBlock: TEMPAE_clean_linker_10, # of connection points: 2
#     Edge 23, Type (0, 1), BuildingBlock: TEMPAE_clean_linker_10, # of connection points: 2
#     Edge 24, Type (0, 1), BuildingBlock: TEMPAE_clean_linker_10, # of connection points: 2
#     Edge 25, Type (0, 1), BuildingBlock: TEMPAE_clean_linker_10, # of connection points: 2
#     Edge 26, Type (0, 1), BuildingBlock: TEMPAE_clean_linker_10, # of connection points: 2
#     Edge 27, Type (0, 1), BuildingBlock: TEMPAE_clean_linker_10, # of connection points: 2
#     Edge 28, Type (0, 1), BuildingBlock: TEMPAE_clean_linker_10, # of connection points: 2
#     Edge 29, Type (0, 1), BuildingBlock: TEMPAE_clean_linker_10, # of connection points: 2
#     Edge 30, Type (0, 1), BuildingBlock: TEMPAE_clean_linker_10, # of connection points: 2
#     Edge 31, Type (0, 1), BuildingBlock: TEMPAE_clean_linker_10, # of connection points: 2
#     Edge 32, Type (0, 1), BuildingBlock: TEMPAE_clean_linker_10, # of connection points: 2
#     Edge 33, Type (0, 1), BuildingBlock: TEMPAE_clean_linker_10, # of connection points: 2
#     Edge 34, Type (0, 1), BuildingBlock: TEMPAE_clean_linker_10, # of connection points: 2
#     Edge 35, Type (0, 1), BuildingBlock: TEMPAE_clean_linker_10, # of connection points: 2
# Relax obj value: 0.132
# Max RMSD: 0.233
# Mean RMSD: 0.112
data_MOF--net-pyr--node1-BETFEN_clean_sbu_0--node2-MIDCAF_clean_linker_0--edge1-TEMPAE_clean_linker_10
_symmetry_space_group_name_H-M    P1
_symmetry_Int_Tables_number       1
_symmetry_cell_setting            triclinic
loop_
_symmetry_equiv_pos_as_xyz
'x, y, z'
_cell_length_a     45.290603
_cell_length_b     49.184136
_cell_length_c     46.535621
_cell_angle_alpha  91.031011
_cell_angle_beta   98.728886
_cell_angle_gamma 106.0605
loop_
_atom_site_label
_atom_site_type_symbol
_atom_site_fract_x
_atom_site_fract_y
_atom_site_fract_z
_atom_type_partial_charge
C0 C 0.26312 0.26899 0.33043 0.0
C1 C 0.27008 0.24503 0.34219 0.0
C2 C 0.29904 0.2405 0.34029 0.0
C3 C 0.32043 0.2595 0.3263 0.0
H4 H 0.39711 0.26559 0.28357 0.0
H5 H 0.42095 0.23839 0.25445 0.0
H6 H 0.40892 0.29001 0.18206 0.0
H7 H 0.38557 0.31757 0.21079 0.0
H8 H 0.34761 0.35569 0.20879 0.0
H9 H 0.31027 0.37118 0.17453 0.0
H10 H 0.25677 0.37585 0.24279 0.0
H11 H 0.29384 0.36031 0.27721 0.0
H12 H 0.27784 0.30597 0.30774 0.0
H13 H 0.24066 0.27266 0.33075 0.0
H14 H 0.30504 0.22223 0.34936 0.0
H15 H 0.34225 0.25516 0.32434 0.0
N16 N 0.35569 0.29275 0.28577 0.0
N17 N 0.36103 0.32867 0.25291 0.0
N18 N 0.32478 0.32381 0.28439 0.0
C19 C 0.36998 0.30654 0.26445 0.0
C20 C 0.33858 0.3376 0.26293 0.0
C21 C 0.33317 0.30148 0.29599 0.0
C22 C 0.38958 0.29376 0.24952 0.0
C23 C 0.40038 0.27169 0.26177 0.0
C24 C 0.41402 0.25622 0.24527 0.0
C25 C 0.41668 0.26257 0.21641 0.0
C26 C 0.40717 0.28521 0.20449 0.0
C27 C 0.39396 0.30093 0.22103 0.0
C28 C 0.32321 0.35604 0.24556 0.0
C29 C 0.32856 0.361 0.21684 0.0
C30 C 0.30717 0.3698 0.19715 0.0
C31 C 0.28039 0.37385 0.20601 0.0
C32 C 0.277 0.37216 0.23543 0.0
C33 C 0.29833 0.36345 0.25512 0.0
C34 C 0.31319 0.28338 0.31436 0.0
C35 C 0.28454 0.28812 0.31707 0.0
C36 C 0.17463 0.8491 0.68902 0.0
C37 C 0.16973 0.84852 0.65843 0.0
C38 C 0.184 0.8319 0.64325 0.0
C39 C 0.20314 0.81684 0.65836 0.0
H40 H 0.25591 0.75161 0.65355 0.0
H41 H 0.28425 0.72006 0.63609 0.0
H42 H 0.32746 0.71519 0.72419 0.0
H43 H 0.29934 0.74548 0.74185 0.0
H44 H 0.30466 0.78533 0.78877 0.0
H45 H 0.33917 0.81113 0.83156 0.0
H46 H 0.29583 0.87904 0.82074 0.0
H47 H 0.26152 0.85354 0.77729 0.0
H48 H 0.1971 0.83577 0.72759 0.0
H49 H 0.16454 0.86184 0.70163 0.0
H50 H 0.18051 0.83063 0.61968 0.0
H51 H 0.21428 0.80479 0.64608 0.0
N52 N 0.24113 0.78416 0.69394 0.0
N53 N 0.27347 0.78368 0.73826 0.0
N54 N 0.24338 0.81526 0.73391 0.0
C55 C 0.2622 0.77316 0.71049 0.0
C56 C 0.26447 0.8046 0.75018 0.0
C57 C 0.23127 0.80511 0.70592 0.0
C58 C 0.27545 0.75146 0.69904 0.0
C59 C 0.27098 0.74338 0.66919 0.0
C60 C 0.28716 0.72544 0.65922 0.0
C61 C 0.30795 0.71553 0.67897 0.0
C62 C 0.31153 0.72267 0.70868 0.0
C63 C 0.29535 0.74018 0.71863 0.0
C64 C 0.28069 0.81765 0.77922 0.0
C65 C 0.30205 0.80557 0.79567 0.0
C66 C 0.32177 0.82025 0.82035 0.0
C67 C 0.32048 0.84725 0.82916 0.0
C68 C 0.29765 0.85845 0.81402 0.0
C69 C 0.27787 0.84376 0.78928 0.0
C70 C 0.20866 0.81827 0.689 0.0
C71 C 0.1937 0.83424 0.704 0.0
C72 C 0.6359 0.22349 0.86443 0.0
C73 C 0.60439 0.20836 0.85671 0.0
C74 C 0.5863 0.21771 0.8336 0.0
C75 C 0.59957 0.24172 0.81883 0.0
H76 H 0.58637 0.31348 0.75716 0.0
H77 H 0.56665 0.34027 0.71824 0.0
H78 H 0.66076 0.37806 0.70333 0.0
H79 H 0.67996 0.35116 0.74086 0.0
H80 H 0.73235 0.36885 0.79795 0.0
H81 H 0.78276 0.39609 0.82478 0.0
H82 H 0.77287 0.33679 0.89251 0.0
H83 H 0.72327 0.30918 0.86547 0.0
H84 H 0.67349 0.25766 0.85686 0.0
H85 H 0.65056 0.2177 0.88249 0.0
H86 H 0.56193 0.2065 0.8269 0.0
H87 H 0.58508 0.24858 0.80142 0.0
N88 N 0.63231 0.29343 0.78943 0.0
N89 N 0.67801 0.33126 0.79099 0.0
N90 N 0.676 0.29739 0.82537 0.0
C91 C 0.64839 0.31763 0.77812 0.0
C92 C 0.69193 0.32134 0.81465 0.0
C93 C 0.64649 0.28309 0.81319 0.0
C94 C 0.63477 0.33026 0.75233 0.0
C95 C 0.60264 0.32709 0.74509 0.0
C96 C 0.59142 0.34268 0.723 0.0
C97 C 0.6121 0.36148 0.70757 0.0
C98 C 0.64398 0.36362 0.71427 0.0
C99 C 0.65507 0.34827 0.73615 0.0
C100 C 0.72355 0.33695 0.82963 0.0
C101 C 0.74107 0.36148 0.81842 0.0
C102 C 0.76992 0.37717 0.83387 0.0
C103 C 0.78178 0.36876 0.86092 0.0
C104 C 0.76469 0.34373 0.8716 0.0
C105 C 0.73602 0.32798 0.85612 0.0
C106 C 0.63118 0.25679 0.82692 0.0
C107 C 0.64904 0.24698 0.84973 0.0
C108 C 0.76562 0.63788 0.38238 0.0
C109 C 0.74136 0.61403 0.37049 0.0
C110 C 0.74211 0.60294 0.3424 0.0
C111 C 0.7668 0.61536 0.327 0.0
H112 H 0.82511 0.60983 0.25459 0.0
H113 H 0.84638 0.5896 0.21678 0.0
H114 H 0.92997 0.65977 0.23357 0.0
H115 H 0.90905 0.67957 0.27142 0.0
H116 H 0.90219 0.74328 0.30572 0.0
H117 H 0.92429 0.79113 0.32984 0.0
H118 H 0.87064 0.76532 0.39896 0.0
H119 H 0.84816 0.71919 0.37484 0.0
H120 H 0.80778 0.66841 0.37788 0.0
H121 H 0.76582 0.64752 0.40355 0.0
H122 H 0.72385 0.58453 0.33248 0.0
H123 H 0.76666 0.6065 0.30549 0.0
N124 N 0.82724 0.64354 0.30158 0.0
N125 N 0.86751 0.68638 0.30156 0.0
N126 N 0.83229 0.68202 0.33414 0.0
C127 C 0.85266 0.65915 0.29023 0.0
C128 C 0.85726 0.69796 0.32363 0.0
C129 C 0.81706 0.65509 0.32387 0.0
C130 C 0.86517 0.64648 0.26644 0.0
C131 C 0.84807 0.62095 0.25031 0.0
C132 C 0.86029 0.60939 0.22832 0.0
C133 C 0.8902 0.62278 0.22179 0.0
C134 C 0.90715 0.64834 0.23794 0.0
C135 C 0.8949 0.65995 0.25969 0.0
C136 C 0.87293 0.72715 0.33789 0.0
C137 C 0.89511 0.748 0.326 0.0
C138 C 0.90787 0.7755 0.33999 0.0
C139 C 0.89891 0.78277 0.36631 0.0
C140 C 0.87749 0.76144 0.37833 0.0
C141 C 0.86467 0.73446 0.36439 0.0
C142 C 0.79101 0.63936 0.33925 0.0
C143 C 0.78982 0.65012 0.36725 0.0
C144 C 0.64205 0.79109 0.82075 0.0
C145 C 0.62829 0.77772 0.84365 0.0
C146 C 0.63451 0.75293 0.8537 0.0
C147 C 0.65331 0.74076 0.83984 0.0
H148 H 0.70207 0.6838 0.849 0.0
H149 H 0.73648 0.66192 0.87906 0.0
H150 H 0.78593 0.65809 0.80735 0.0
H151 H 0.75204 0.68074 0.77725 0.0
H152 H 0.74492 0.72507 0.7236 0.0
H153 H 0.78264 0.75506 0.69697 0.0
H154 H 0.76655 0.82966 0.73462 0.0
H155 H 0.72811 0.7999 0.76014 0.0
H156 H 0.67098 0.78991 0.78925 0.0
H157 H 0.63833 0.8109 0.81353 0.0
H158 H 0.62449 0.74286 0.87187 0.0
H159 H 0.65755 0.72135 0.84761 0.0
N160 N 0.69258 0.71716 0.81013 0.0
N161 N 0.72406 0.7196 0.77422 0.0
N162 N 0.69733 0.7535 0.77802 0.0
C163 C 0.71192 0.7064 0.7969 0.0
C164 C 0.7166 0.74307 0.76461 0.0
C165 C 0.68509 0.74059 0.80061 0.0
C166 C 0.72507 0.68491 0.81107 0.0
C167 C 0.71961 0.67752 0.83924 0.0
C168 C 0.73925 0.66484 0.85651 0.0
C169 C 0.7643 0.65913 0.84569 0.0
C170 C 0.76717 0.66304 0.81633 0.0
C171 C 0.74768 0.67589 0.7991 0.0
C172 C 0.73396 0.76019 0.74406 0.0
C173 C 0.7489 0.74783 0.72549 0.0
C174 C 0.77051 0.76494 0.71046 0.0
C175 C 0.77778 0.79455 0.71428 0.0
C176 C 0.76116 0.80685 0.73116 0.0
C177 C 0.7392 0.78975 0.74581 0.0
C178 C 0.66606 0.7535 0.81601 0.0
C179 C 0.66081 0.7791 0.80701 0.0
C180 C 0.73995 0.17363 0.23907 0.0
C181 C 0.72368 0.18846 0.22001 0.0
C182 C 0.72741 0.21727 0.22697 0.0
C183 C 0.74559 0.23045 0.25305 0.0
H184 H 0.73186 0.27885 0.31231 0.0
H185 H 0.70553 0.31006 0.32979 0.0
H186 H 0.76389 0.31952 0.41407 0.0
H187 H 0.78988 0.28623 0.39668 0.0
H188 H 0.82839 0.22931 0.40601 0.0
H189 H 0.86215 0.20305 0.43193 0.0
H190 H 0.87557 0.17065 0.34952 0.0
H191 H 0.84219 0.19614 0.324 0.0
H192 H 0.76986 0.17465 0.27953 0.0
H193 H 0.73721 0.15128 0.23486 0.0
H194 H 0.71581 0.22955 0.21258 0.0
H195 H 0.7471 0.2524 0.25831 0.0
N196 N 0.76638 0.24829 0.31369 0.0
N197 N 0.79853 0.24792 0.35822 0.0
N198 N 0.79722 0.21738 0.31812 0.0
C199 C 0.77709 0.25852 0.34164 0.0
C200 C 0.80899 0.22739 0.34618 0.0
C201 C 0.77607 0.22785 0.30178 0.0
C202 C 0.76317 0.27971 0.35313 0.0
C203 C 0.73952 0.28746 0.33464 0.0
C204 C 0.72442 0.30586 0.34459 0.0
C205 C 0.73265 0.3177 0.37329 0.0
C206 C 0.75673 0.31057 0.39184 0.0
C207 C 0.77179 0.29165 0.38187 0.0
C208 C 0.83202 0.21455 0.36288 0.0
C209 C 0.83882 0.21679 0.39351 0.0
C210 C 0.85821 0.20176 0.40835 0.0
C211 C 0.87112 0.18422 0.39282 0.0
C212 C 0.86542 0.18324 0.36227 0.0
C213 C 0.84623 0.19807 0.34759 0.0
C214 C 0.7609 0.21525 0.27246 0.0
C215 C 0.75863 0.18698 0.26484 0.0
C216 C 0.27532 0.65149 0.21497 0.0
C217 C 0.2591 0.66399 0.19344 0.0
C218 C 0.27114 0.69286 0.18906 0.0
C219 C 0.29984 0.70851 0.20477 0.0
H220 H 0.36617 0.77814 0.20084 0.0
H221 H 0.38938 0.81832 0.17511 0.0
H222 H 0.48012 0.82249 0.22316 0.0
H223 H 0.45667 0.78063 0.2487 0.0
H224 H 0.4414 0.73389 0.31893 0.0
H225 H 0.4612 0.70683 0.35788 0.0
H226 H 0.40275 0.62873 0.31261 0.0
H227 H 0.38283 0.65517 0.2745 0.0
H228 H 0.31617 0.6565 0.24657 0.0
H229 H 0.26631 0.62933 0.219 0.0
H230 H 0.25911 0.70298 0.17252 0.0
H231 H 0.30906 0.73047 0.20014 0.0
N232 N 0.364 0.7359 0.22958 0.0
N233 N 0.40989 0.73721 0.26171 0.0
N234 N 0.36463 0.69907 0.26013 0.0
C235 C 0.39426 0.7493 0.24041 0.0
C236 C 0.39484 0.71188 0.27164 0.0
C237 C 0.34899 0.71094 0.23927 0.0
C238 C 0.40948 0.77583 0.22703 0.0
C239 C 0.39112 0.78743 0.20629 0.0
C240 C 0.40444 0.81089 0.19153 0.0
C241 C 0.43663 0.82398 0.19714 0.0
C242 C 0.45522 0.81281 0.21815 0.0
C243 C 0.44177 0.78897 0.23299 0.0
C244 C 0.41048 0.69672 0.29367 0.0
C245 C 0.43318 0.71096 0.31722 0.0
C246 C 0.44428 0.69554 0.33954 0.0
C247 C 0.43337 0.66573 0.33815 0.0
C248 C 0.41161 0.65165 0.31414 0.0
C249 C 0.4002 0.66689 0.29234 0.0
C250 C 0.3169 0.69559 0.2253 0.0
C251 C 0.30385 0.66713 0.23082 0.0
C252 C 0.17435 0.26137 0.69324 0.0
C253 C 0.14187 0.24927 0.68813 0.0
C254 C 0.1233 0.26451 0.69912 0.0
C255 C 0.13686 0.29126 0.71427 0.0
H256 H 0.14215 0.34668 0.79407 0.0
H257 H 0.12285 0.36619 0.83299 0.0
H258 H 0.18309 0.44934 0.8226 0.0
H259 H 0.20382 0.42912 0.78473 0.0
H260 H 0.24436 0.43262 0.71738 0.0
H261 H 0.2864 0.45396 0.6897 0.0
H262 H 0.30915 0.37449 0.68631 0.0
H263 H 0.26768 0.35347 0.71358 0.0
H264 H 0.21283 0.29688 0.71064 0.0
H265 H 0.1895 0.25058 0.68502 0.0
H266 H 0.09823 0.25583 0.69588 0.0
H267 H 0.12188 0.30266 0.72181 0.0
N268 N 0.17262 0.34587 0.75124 0.0
N269 N 0.21264 0.38855 0.75094 0.0
N270 N 0.21001 0.3488 0.72087 0.0
C271 C 0.18686 0.37336 0.76186 0.0
C272 C 0.22437 0.37616 0.73042 0.0
C273 C 0.18416 0.33349 0.73071 0.0
C274 C 0.1746 0.38615 0.78573 0.0
C275 C 0.15142 0.36917 0.8 0.0
C276 C 0.13998 0.38062 0.82247 0.0
C277 C 0.15072 0.40979 0.83143 0.0
C278 C 0.1741 0.42679 0.81714 0.0
C279 C 0.18595 0.41517 0.79493 0.0
C280 C 0.25252 0.39129 0.71776 0.0
C281 C 0.25876 0.41995 0.71119 0.0
C282 C 0.28266 0.43206 0.69503 0.0
C283 C 0.30124 0.41595 0.68556 0.0
C284 C 0.29568 0.3877 0.69331 0.0
C285 C 0.27169 0.37559 0.70894 0.0
C286 C 0.16928 0.30367 0.71831 0.0
C287 C 0.18777 0.28812 0.70789 0.0
Pr288 Pr 0.99996 1.0136 0.54259 0.0
Pr289 Pr 0.04027 0.01876 0.50992 0.0
C290 C 0.95964 0.99935 0.57994 0.0
C291 C 0.953 0.97603 0.59852 0.0
C292 C 0.93946 0.97886 0.62295 0.0
C293 C 0.93318 0.95657 0.64101 0.0
C294 C 0.94063 0.93142 0.63474 0.0
C295 C 0.95568 0.92927 0.61099 0.0
C296 C 0.96175 0.95151 0.59284 0.0
C297 C 0.04243 0.06778 0.55809 0.0
C298 C 0.05472 0.98248 0.56244 0.0
C299 C 0.07873 0.0312 0.47079 0.0
C300 C 0.08712 0.05551 0.45369 0.0
C301 C 0.09612 0.05222 0.42676 0.0
C302 C 0.10603 0.07586 0.4111 0.0
C303 C 0.10709 0.10271 0.42258 0.0
C304 C 0.09576 0.10566 0.44845 0.0
C305 C 0.0855 0.08199 0.46392 0.0
C306 C 0.99719 0.96497 0.49522 0.0
C307 C 0.98663 0.05191 0.49175 0.0
O308 O 0.95178 0.99269 0.55202 0.0
O309 O 0.98734 0.0168 0.58715 0.0
O310 O 0.05035 0.04536 0.55397 0.0
O311 O 1.01256 0.06268 0.55193 0.0
O312 O 0.06995 1.00137 0.54662 0.0
O313 O 0.02476 0.97925 0.5611 0.0
O314 O 0.08843 0.03574 0.49879 0.0
O315 O 0.04984 0.0162 0.46407 0.0
O316 O 0.98998 0.98793 0.49798 0.0
O317 O 0.02673 0.96912 0.50333 0.0
O318 O 0.97137 0.03295 0.50744 0.0
O319 O 1.0163 0.05404 0.49194 0.0
H320 H 0.93313 0.99798 0.62763 0.0
H321 H 0.92091 0.95843 0.65887 0.0
H322 H 0.96144 0.90998 0.6058 0.0
H323 H 0.97253 0.9493 0.57404 0.0
H324 H 0.09668 0.03166 0.4185 0.0
H325 H 0.11526 0.07354 0.39131 0.0
H326 H 0.09689 0.12643 0.45756 0.0
H327 H 0.07772 0.08454 0.48445 0.0
Pr328 Pr 0.49399 0.02419 0.03472 0.0
Pr329 Pr 0.54958 1.00733 1.0234 0.0
C330 C 0.44588 0.02821 0.059 0.0
C331 C 0.44272 0.05237 0.07574 0.0
C332 C 0.42986 0.07246 0.06162 0.0
C333 C 0.43227 0.098 0.07636 0.0
C334 C 0.4474 0.10353 0.10533 0.0
C335 C 0.4596 0.08327 0.11959 0.0
C336 C 0.45697 0.05775 0.10505 0.0
C337 C 0.52067 0.06259 0.99587 0.0
C338 C 0.56233 0.06064 0.06855 0.0
C339 C 0.59672 0.99229 1.00653 0.0
C340 C 0.5952 0.97057 0.98418 0.0
C341 C 0.59448 0.94308 0.99226 0.0
C342 C 0.58594 0.92086 0.97118 0.0
C343 C 0.57854 0.92603 0.94185 0.0
C344 C 0.58061 0.95353 0.9335 0.0
C345 C 0.58893 0.97575 0.95457 0.0
C346 C 0.52109 0.98037 0.06817 0.0
C347 C 0.48139 0.97579 0.98208 0.0
O348 O 0.46673 0.01639 0.07152 0.0
O349 O 0.44664 0.03149 0.0312 0.0
O350 O 0.53104 0.04281 1.00571 0.0
O351 O 0.49638 0.06389 1.00673 0.0
O352 O 0.57339 0.05108 0.04733 0.0
O353 O 0.53318 0.04983 0.07216 0.0
O354 O 0.5885 1.01443 0.99712 0.0
O355 O 0.58498 0.98274 0.02958 0.0
O356 O 0.50749 0.98312 0.0432 0.0
O357 O 0.55052 0.9939 0.07175 0.0
O358 O 0.46904 0.9895 0.99902 0.0
O359 O 0.51187 0.9796 0.98535 0.0
H360 H 0.41882 0.06882 0.039 0.0
H361 H 0.42223 0.11332 0.06526 0.0
H362 H 0.47143 0.0873 0.14196 0.0
H363 H 0.46721 0.04275 0.11654 0.0
H364 H 0.59934 0.93857 1.01493 0.0
H365 H 0.58549 0.89971 0.97769 0.0
H366 H 0.57568 0.95772 0.91076 0.0
H367 H 0.58936 0.99676 0.94768 0.0
Pr368 Pr 0.52744 0.54372 0.54427 0.0
Pr369 Pr 0.51126 0.48727 0.50835 0.0
C370 C 0.51977 0.59134 0.56698 0.0
C371 C 0.49597 0.59823 0.58187 0.0
C372 C 0.5051 0.61575 0.60761 0.0
C373 C 0.48296 0.62421 0.62067 0.0
C374 C 0.45132 0.61544 0.60804 0.0
C375 C 0.44206 0.59696 0.5829 0.0
C376 C 0.46413 0.58832 0.57 0.0
C377 C 0.55372 0.50385 0.57131 0.0
C378 C 0.46331 0.49064 0.5534 0.0
C379 C 0.5179 0.43981 0.48424 0.0
C380 C 0.5416 0.43307 0.46912 0.0
C381 C 0.5325 0.41769 0.4421 0.0
C382 C 0.55443 0.40965 0.42837 0.0
C383 C 0.58587 0.4164 0.44168 0.0
C384 C 0.59511 0.43284 0.46827 0.0
C385 C 0.57327 0.44126 0.48174 0.0
C386 C 0.48549 0.52775 0.48179 0.0
C387 C 0.57546 0.54009 0.49928 0.0
O388 O 0.51094 0.58271 0.53947 0.0
O389 O 0.53761 0.57751 0.5813 0.0
O390 O 0.52657 0.49898 0.5571 0.0
O391 O 0.56839 0.5309 0.57322 0.0
O392 O 0.47163 0.47294 0.53673 0.0
O393 O 0.47859 0.51803 0.55645 0.0
O394 O 0.52656 0.44757 0.51195 0.0
O395 O 0.50062 0.4544 0.47041 0.0
O396 O 0.51263 0.53193 0.49564 0.0
O397 O 0.47021 0.50087 0.48007 0.0
O398 O 0.56637 0.55792 0.51511 0.0
O399 O 0.56082 0.51254 0.49708 0.0
H400 H 0.52946 0.62346 0.6172 0.0
H401 H 0.49076 0.63856 0.63998 0.0
H402 H 0.41778 0.58954 0.57296 0.0
H403 H 0.45628 0.57439 0.55038 0.0
H404 H 0.50831 0.41149 0.43181 0.0
H405 H 0.54656 0.39771 0.40753 0.0
H406 H 0.61898 0.43832 0.47936 0.0
H407 H 0.58112 0.45354 0.50242 0.0
Pr408 Pr 0.02298 0.5407 1.00994 0.0
Pr409 Pr 1.01875 0.49247 0.04349 0.0
C410 C 1.01554 0.58544 0.98041 0.0
C411 C 0.99615 0.60448 0.98176 0.0
C412 C 0.99963 0.62747 0.96409 0.0
C413 C 0.97646 0.64132 0.95965 0.0
C414 C 0.94985 0.63209 0.97287 0.0
C415 C 0.9483 0.61142 0.99327 0.0
C416 C 0.97137 0.59755 0.99762 0.0
C417 C 0.07775 0.54727 0.04896 0.0
C418 C 0.9881 0.53803 0.06941 0.0
C419 C 0.02551 0.44721 0.07251 0.0
C420 C 0.04646 0.42939 0.07313 0.0
C421 C 0.04225 0.40598 0.09025 0.0
C422 C 0.06553 0.39231 0.09557 0.0
C423 C 0.09293 0.40198 0.08362 0.0
C424 C 0.09575 0.42364 0.06425 0.0
C425 C 0.07261 0.43741 0.05911 0.0
C426 C 0.96471 0.48634 1.00322 0.0
C427 C 0.05356 0.49506 0.98439 0.0
O428 O 1.00036 0.55921 0.97166 0.0
O429 O 0.03754 0.58758 1.00262 0.0
O430 O 0.05072 0.53779 0.05524 0.0
O431 O 0.07684 0.55172 1.02149 0.0
O432 O 0.99935 0.51667 0.0766 0.0
O433 O 0.99103 0.54869 0.04376 0.0
O434 O 0.03858 0.47336 0.0829 0.0
O435 O 1.00592 0.44517 0.04843 0.0
O436 O 0.99209 0.49531 0.99788 0.0
O437 O 0.96465 0.48192 0.03061 0.0
O438 O 0.04023 0.51497 0.97647 0.0
O439 O 0.05272 0.48593 1.01093 0.0
H440 H 1.01876 0.63309 0.95185 0.0
H441 H 0.97762 0.65699 0.94346 0.0
H442 H 0.92759 0.60373 1.00315 0.0
H443 H 0.96826 0.57975 1.01121 0.0
H444 H 0.0221 0.39956 0.1011 0.0
H445 H 0.06338 0.3759 0.11098 0.0
H446 H 0.11709 0.43169 0.0554 0.0
H447 H 0.07626 0.4556 0.04602 0.0
C448 C 0.24099 0.19545 0.35028 0.0
C449 C 0.2464 0.22471 0.35552 0.0
C450 C 0.21683 0.17627 0.36107 0.0
C451 C 0.19744 0.18684 0.37664 0.0
C452 C 0.20277 0.21623 0.38201 0.0
C453 C 0.2277 0.23483 0.37194 0.0
C454 C 0.21205 0.1448 0.35593 0.0
C455 C 0.18216 0.228 0.39837 0.0
C456 C 0.12042 0.1356 0.38397 0.0
C457 C 0.12752 0.12728 0.41205 0.0
C458 C 0.1428 0.15599 0.37232 0.0
C459 C 0.17278 0.16713 0.38907 0.0
C460 C 0.17967 0.15903 0.41771 0.0
C461 C 0.15665 0.13932 0.42902 0.0
C462 C 0.13477 0.16484 0.34191 0.0
C463 C 0.21172 0.17001 0.43579 0.0
H464 H 0.25519 0.18757 0.33732 0.0
H465 H 0.23232 0.25741 0.37665 0.0
H466 H 0.2132 0.1347 0.37705 0.0
H467 H 0.18858 0.13479 0.34324 0.0
H468 H 0.22973 0.14013 0.34399 0.0
H469 H 0.1885 0.25153 0.39914 0.0
H470 H 0.15746 0.21949 0.38791 0.0
H471 H 0.18389 0.22124 0.42102 0.0
H472 H 0.09779 0.12566 0.37104 0.0
H473 H 0.16193 0.13204 0.45057 0.0
H474 H 0.14836 0.1573 0.32719 0.0
H475 H 0.14115 0.1883 0.34177 0.0
H476 H 0.1096 0.15613 0.33303 0.0
H477 H 0.22892 0.16326 0.42488 0.0
H478 H 0.21273 0.16214 0.45805 0.0
H479 H 0.219 0.19351 0.43773 0.0
C480 C 0.3595 0.89293 0.84778 0.0
C481 C 0.3447 0.86468 0.85229 0.0
C482 C 0.38334 0.90965 0.86877 0.0
C483 C 0.39259 0.8978 0.89491 0.0
C484 C 0.37787 0.86923 0.89959 0.0
C485 C 0.35412 0.85292 0.87811 0.0
C486 C 0.39823 0.94017 0.86318 0.0
C487 C 0.38665 0.85615 0.92756 0.0
C488 C 0.46956 0.93882 0.94063 0.0
C489 C 0.45937 0.95502 0.95994 0.0
C490 C 0.448 0.91939 0.91969 0.0
C491 C 0.41571 0.91621 0.91825 0.0
C492 C 0.40532 0.93203 0.93811 0.0
C493 C 0.42721 0.95123 0.95858 0.0
C494 C 0.45973 0.90269 0.89876 0.0
C495 C 0.37106 0.92913 0.93741 0.0
H496 H 0.35268 0.90191 0.82759 0.0
H497 H 0.34259 0.83108 0.88166 0.0
H498 H 0.39307 0.95446 0.87923 0.0
H499 H 0.42391 0.94452 0.86602 0.0
H500 H 0.38975 0.94557 0.84095 0.0
H501 H 0.37428 0.8332 0.92707 0.0
H502 H 0.41211 0.85889 0.93182 0.0
H503 H 0.38094 0.86714 0.94611 0.0
H504 H 0.49428 0.94148 0.9417 0.0
H505 H 0.41885 0.96343 0.97349 0.0
H506 H 0.45327 0.90838 0.87617 0.0
H507 H 0.44856 0.87967 0.89966 0.0
H508 H 0.48542 0.90669 0.90355 0.0
H509 H 0.3612 0.93607 0.91645 0.0
H510 H 0.36682 0.94194 0.95545 0.0
H511 H 0.35809 0.90662 0.93887 0.0
C512 C 0.61525 0.3858 0.66046 0.0
C513 C 0.60132 0.37998 0.68554 0.0
C514 C 0.6081 0.40558 0.64114 0.0
C515 C 0.5862 0.41988 0.64673 0.0
C516 C 0.57124 0.41347 0.67144 0.0
C517 C 0.57897 0.39365 0.69052 0.0
C518 C 0.62433 0.41143 0.61491 0.0
C519 C 0.5476 0.42809 0.6781 0.0
C520 C 0.58894 0.49048 0.61248 0.0
C521 C 0.56357 0.48249 0.58968 0.0
C522 C 0.59657 0.47037 0.63125 0.0
C523 C 0.57887 0.44147 0.62669 0.0
C524 C 0.55382 0.43324 0.60315 0.0
C525 C 0.54619 0.45387 0.58531 0.0
C526 C 0.62317 0.48012 0.65634 0.0
C527 C 0.53479 0.40266 0.59695 0.0
H528 H 0.6321 0.375 0.65601 0.0
H529 H 0.56827 0.38962 0.70991 0.0
H530 H 0.60689 0.40771 0.5947 0.0
H531 H 0.63822 0.43398 0.61617 0.0
H532 H 0.6401 0.39794 0.61318 0.0
H533 H 0.53769 0.42049 0.69789 0.0
H534 H 0.55861 0.4513 0.68135 0.0
H535 H 0.52826 0.42449 0.65944 0.0
H536 H 0.60231 0.51257 0.61617 0.0
H537 H 0.5263 0.44754 0.56801 0.0
H538 H 0.64081 0.46862 0.65481 0.0
H539 H 0.61447 0.47512 0.67723 0.0
H540 H 0.63469 0.50326 0.65693 0.0
H541 H 0.55028 0.3891 0.59444 0.0
H542 H 0.51714 0.39953 0.57689 0.0
H543 H 0.52265 0.39522 0.61554 0.0
C544 C 0.88508 0.59597 0.1728 0.0
C545 C 0.90386 0.61029 0.19858 0.0
C546 C 0.89773 0.58445 0.15102 0.0
C547 C 0.93014 0.58709 0.15472 0.0
C548 C 0.94923 0.60158 0.18056 0.0
C549 C 0.93599 0.61281 0.202 0.0
C550 C 0.87627 0.56927 0.124 0.0
C551 C 0.98385 0.60516 0.18569 0.0
C552 C 0.96122 0.53488 0.11371 0.0
C553 C 0.97227 0.55033 0.0905 0.0
C554 C 0.94695 0.54627 0.13415 0.0
C555 C 0.94403 0.57421 0.13203 0.0
C556 C 0.95516 0.58994 0.10861 0.0
C557 C 0.96876 0.57779 0.08809 0.0
C558 C 0.93509 0.52832 0.15821 0.0
C559 C 0.95313 0.61988 0.10545 0.0
H560 H 0.86037 0.59405 0.16935 0.0
H561 H 0.95097 0.62327 0.22178 0.0
H562 H 0.88426 0.57925 0.1043 0.0
H563 H 0.8769 0.54691 0.12239 0.0
H564 H 0.8518 0.56952 0.12388 0.0
H565 H 0.99573 0.61739 0.20654 0.0
H566 H 0.9883 0.58408 0.18601 0.0
H567 H 0.99444 0.61624 0.16759 0.0
H568 H 0.96354 0.51363 0.11585 0.0
H569 H 0.9773 0.59012 0.07046 0.0
H570 H 0.90999 0.52629 0.15765 0.0
H571 H 0.94757 0.53873 0.17968 0.0
H572 H 0.93817 0.50675 0.15647 0.0
H573 H 0.92848 0.62016 0.10313 0.0
H574 H 0.96301 0.62947 0.08632 0.0
H575 H 0.96584 0.63331 0.12536 0.0
C576 C 0.40396 0.22774 0.17479 0.0
C577 C 0.42591 0.2435 0.19774 0.0
C578 C 0.41094 0.20698 0.15854 0.0
C579 C 0.44069 0.20259 0.16541 0.0
C580 C 0.46343 0.21944 0.18769 0.0
C581 C 0.45555 0.23966 0.20401 0.0
C582 C 0.38596 0.1887 0.13531 0.0
C583 C 0.4954 0.21516 0.19513 0.0
C584 C 0.43924 0.12766 0.14881 0.0
C585 C 0.44863 0.12955 0.12151 0.0
C586 C 0.43807 0.15174 0.16409 0.0
C587 C 0.44645 0.17813 0.1515 0.0
C588 C 0.45715 0.18042 0.12442 0.0
C589 C 0.45801 0.15584 0.10953 0.0
C590 C 0.42615 0.14859 0.19284 0.0
C591 C 0.46626 0.2085 0.11071 0.0
H592 H 0.38092 0.23082 0.17048 0.0
H593 H 0.47222 0.25211 0.22195 0.0
H594 H 0.39479 0.18875 0.11434 0.0
H595 H 0.37953 0.16643 0.14164 0.0
H596 H 0.36459 0.19592 0.13182 0.0
H597 H 0.51139 0.23218 0.21071 0.0
H598 H 0.49351 0.19451 0.205 0.0
H599 H 0.5058 0.21453 0.17511 0.0
H600 H 0.43164 0.10713 0.15773 0.0
H601 H 0.46557 0.15706 0.08844 0.0
H602 H 0.40333 0.15328 0.19049 0.0
H603 H 0.44238 0.16393 0.20983 0.0
H604 H 0.4231 0.12688 0.20053 0.0
H605 H 0.44509 0.2152 0.10305 0.0
H606 H 0.47831 0.20727 0.09184 0.0
H607 H 0.48169 0.22516 0.12694 0.0
C608 C 0.12437 0.8696 0.65323 0.0
C609 C 0.15083 0.86617 0.6429 0.0
C610 C 0.1079 0.88799 0.64048 0.0
C611 C 0.11765 0.90317 0.61637 0.0
C612 C 0.14381 0.89923 0.60532 0.0
C613 C 0.16011 0.88097 0.61875 0.0
C614 C 0.08043 0.89163 0.65327 0.0
C615 C 0.15489 0.91464 0.57948 0.0
C616 C 0.05891 0.93319 0.56876 0.0
C617 C 0.06987 0.96218 0.5773 0.0
C618 C 0.07443 0.91383 0.58094 0.0
C619 C 0.10087 0.9235 0.60307 0.0
C620 C 0.11142 0.95273 0.61232 0.0
C621 C 0.09624 0.97179 0.59884 0.0
C622 C 0.06293 0.88315 0.56964 0.0
C623 C 0.13865 0.96386 0.63659 0.0
H624 H 0.11655 0.85798 0.67153 0.0
H625 H 0.18068 0.8789 0.61075 0.0
H626 H 0.08452 0.91424 0.66027 0.0
H627 H 0.05912 0.88557 0.63656 0.0
H628 H 0.07605 0.87864 0.67229 0.0
H629 H 0.17454 0.90821 0.57256 0.0
H630 H 0.13546 0.91046 0.56083 0.0
H631 H 0.16261 0.93783 0.58494 0.0
H632 H 0.03877 0.9258 0.55179 0.0
H633 H 0.10474 0.99421 0.60543 0.0
H634 H 0.05597 0.86941 0.58751 0.0
H635 H 0.08198 0.8767 0.56156 0.0
H636 H 0.04274 0.87917 0.55171 0.0
H637 H 0.13415 0.95223 0.65642 0.0
H638 H 0.14319 0.98688 0.64208 0.0
H639 H 0.15997 0.96021 0.63032 0.0
C640 C 0.81655 0.4164 0.88099 0.0
C641 C 0.81082 0.38684 0.87889 0.0
C642 C 0.84239 0.43366 0.89976 0.0
C643 C 0.86289 0.42108 0.91705 0.0
C644 C 0.85777 0.39134 0.91449 0.0
C645 C 0.83186 0.37459 0.89536 0.0
C646 C 0.84714 0.4653 0.90181 0.0
C647 C 0.87917 0.37714 0.93253 0.0
C648 C 0.94267 0.46759 0.95193 0.0
C649 C 0.93808 0.47186 0.98062 0.0
C650 C 0.91842 0.45107 0.93097 0.0
C651 C 0.8888 0.43892 0.93882 0.0
C652 C 0.88384 0.44377 0.96757 0.0
C653 C 0.9086 0.46011 0.98817 0.0
C654 C 0.92467 0.44609 0.90064 0.0
C655 C 0.85251 0.43126 0.9767 0.0
H656 H 0.80021 0.42604 0.86872 0.0
H657 H 0.82788 0.35181 0.89353 0.0
H658 H 0.84455 0.4721 0.92393 0.0
H659 H 0.87107 0.47664 0.89842 0.0
H660 H 0.83023 0.47192 0.88558 0.0
H661 H 0.87291 0.35399 0.92682 0.0
H662 H 0.90362 0.38683 0.92952 0.0
H663 H 0.87813 0.38036 0.95597 0.0
H664 H 0.9655 0.47646 0.94605 0.0
H665 H 0.90502 0.46333 1.01034 0.0
H666 H 0.90835 0.45331 0.88437 0.0
H667 H 0.92059 0.42307 0.89567 0.0
H668 H 0.94891 0.45732 0.89795 0.0
H669 H 0.83432 0.4382 0.9625 0.0
H670 H 0.85232 0.43753 0.99971 0.0
H671 H 0.84607 0.40779 0.97405 0.0
C672 C 0.68443 0.59277 0.37582 0.0
C673 C 0.71615 0.60132 0.38818 0.0
C674 C 0.66092 0.58322 0.39324 0.0
C675 C 0.66914 0.58192 0.42382 0.0
C676 C 0.7011 0.5902 0.43624 0.0
C677 C 0.72398 0.59958 0.41841 0.0
C678 C 0.6272 0.5749 0.37901 0.0
C679 C 0.71126 0.58934 0.46856 0.0
C680 C 0.61042 0.58016 0.47597 0.0
C681 C 0.60042 0.55117 0.48106 0.0
C682 C 0.63216 0.59038 0.45705 0.0
C683 C 0.64465 0.5713 0.4429 0.0
C684 C 0.63473 0.54208 0.4481 0.0
C685 C 0.61277 0.53243 0.46685 0.0
C686 C 0.64165 0.62163 0.45206 0.0
C687 C 0.64735 0.52087 0.4338 0.0
H688 H 0.67792 0.59428 0.35264 0.0
H689 H 0.74831 0.60567 0.42831 0.0
H690 H 0.61577 0.55261 0.38314 0.0
H691 H 0.61473 0.58833 0.38867 0.0
H692 H 0.62448 0.57708 0.3551 0.0
H693 H 0.737 0.59627 0.47489 0.0
H694 H 0.7013 0.6033 0.48075 0.0
H695 H 0.70232 0.5675 0.47544 0.0
H696 H 0.60079 0.5949 0.48635 0.0
H697 H 0.60521 0.51 0.47032 0.0
H698 H 0.63633 0.62482 0.42851 0.0
H699 H 0.66715 0.63062 0.45884 0.0
H700 H 0.62957 0.63369 0.46426 0.0
H701 H 0.64156 0.5209 0.40977 0.0
H702 H 0.63781 0.49899 0.44043 0.0
H703 H 0.67311 0.52694 0.43949 0.0
C704 C 0.22445 0.35813 0.18474 0.0
C705 C 0.25426 0.37624 0.18424 0.0
C706 C 0.19892 0.36027 0.1649 0.0
C707 C 0.20347 0.38109 0.1442 0.0
C708 C 0.23375 0.3986 0.14274 0.0
C709 C 0.25896 0.39588 0.16284 0.0
C710 C 0.16691 0.34125 0.16708 0.0
C711 C 0.23924 0.42112 0.12099 0.0
C712 C 0.13472 0.37762 0.08517 0.0
C713 C 0.12123 0.39605 0.09801 0.0
C714 C 0.16216 0.3728 0.09971 0.0
C715 C 0.17604 0.38713 0.12721 0.0
C716 C 0.16263 0.40629 0.13971 0.0
C717 C 0.13526 0.41041 0.12492 0.0
C718 C 0.17595 0.35213 0.08604 0.0
C719 C 0.17677 0.42198 0.16899 0.0
H720 H 0.22107 0.34241 0.20089 0.0
H721 H 0.28215 0.40967 0.16244 0.0
H722 H 0.15259 0.35412 0.17461 0.0
H723 H 0.15488 0.33107 0.1454 0.0
H724 H 0.16784 0.32443 0.18252 0.0
H725 H 0.26444 0.43087 0.12068 0.0
H726 H 0.22772 0.41203 0.09879 0.0
H727 H 0.22883 0.43807 0.12654 0.0
H728 H 0.12368 0.36686 0.06413 0.0
H729 H 0.12467 0.42496 0.13437 0.0
H730 H 0.17519 0.33389 0.09987 0.0
H731 H 0.20079 0.36239 0.08474 0.0
H732 H 0.16332 0.344 0.06384 0.0
H733 H 0.17626 0.40662 0.1862 0.0
H734 H 0.1642 0.43723 0.17476 0.0
H735 H 0.20149 0.43377 0.16905 0.0
C736 C 0.60926 0.16634 0.8853 0.0
C737 C 0.59095 0.18378 0.87386 0.0
C738 C 0.59891 0.14573 0.90482 0.0
C739 C 0.56896 0.14158 0.91239 0.0
C740 C 0.54966 0.15797 0.89978 0.0
C741 C 0.56096 0.17902 0.88091 0.0
C742 C 0.62045 0.12906 0.91806 0.0
C743 C 0.51734 0.1538 0.90692 0.0
C744 C 0.53116 0.07302 0.94575 0.0
C745 C 0.53472 0.08222 0.97501 0.0
C746 C 0.54239 0.09205 0.92509 0.0
C747 C 0.55815 0.12075 0.93417 0.0
C748 C 0.5629 0.12973 0.96408 0.0
C749 C 0.55068 0.1104 0.9841 0.0
C750 C 0.53663 0.08166 0.89346 0.0
C751 C 0.5806 0.15982 0.97486 0.0
H752 H 0.63213 0.16914 0.87946 0.0
H753 H 0.54664 0.1924 0.87253 0.0
H754 H 0.62496 0.13273 0.94213 0.0
H755 H 0.60937 0.10604 0.91304 0.0
H756 H 0.64313 0.13497 0.91003 0.0
H757 H 0.50445 0.16682 0.89384 0.0
H758 H 0.50378 0.13116 0.90294 0.0
H759 H 0.51885 0.15963 0.93035 0.0
H760 H 0.51876 0.05111 0.93891 0.0
H761 H 0.55361 0.11727 1.00689 0.0
H762 H 0.55899 0.08586 0.88503 0.0
H763 H 0.52223 0.09339 0.88033 0.0
H764 H 0.52453 0.0586 0.89006 0.0
H765 H 0.60378 0.16567 0.96786 0.0
H766 H 0.58397 0.16293 0.99897 0.0
H767 H 0.56784 0.1746 0.96517 0.0
C768 C 0.94227 0.82868 0.3817 0.0
C769 C 0.91156 0.81197 0.38183 0.0
C770 C 0.95473 0.85485 0.39837 0.0
C771 C 0.93649 0.8645 0.41634 0.0
C772 C 0.90524 0.84823 0.41584 0.0
C773 C 0.8931 0.82272 0.3983 0.0
C774 C 0.98777 0.87189 0.39725 0.0
C775 C 0.88482 0.85717 0.43473 0.0
C776 C 0.98114 0.91255 0.48386 0.0
C777 C 0.97834 0.93931 0.4763 0.0
C778 C 0.967 0.88815 0.46497 0.0
C779 C 0.95055 0.89048 0.43705 0.0
C780 C 0.94762 0.91755 0.42926 0.0
C781 C 0.96113 0.94152 0.44912 0.0
C782 C 0.96993 0.85982 0.47487 0.0
C783 C 0.93144 0.92144 0.39945 0.0
H784 H 0.95701 0.821 0.36925 0.0
H785 H 0.869 0.81092 0.39794 0.0
H786 H 0.98872 0.89426 0.39325 0.0
H787 H 1.00263 0.87189 0.41851 0.0
H788 H 0.99776 0.86328 0.37998 0.0
H789 H 0.86095 0.84235 0.43175 0.0
H790 H 0.89543 0.85822 0.45799 0.0
H791 H 0.88303 0.87867 0.42974 0.0
H792 H 0.99468 0.91074 0.50468 0.0
H793 H 0.95954 0.96224 0.44277 0.0
H794 H 0.98335 0.85129 0.46075 0.0
H795 H 0.94651 0.84438 0.47285 0.0
H796 H 0.98178 0.86125 0.49781 0.0
H797 H 0.94469 0.91675 0.38271 0.0
H798 H 0.92946 0.94334 0.39725 0.0
H799 H 0.90779 0.90637 0.39468 0.0
C800 C 0.35902 0.71324 0.66781 0.0
C801 C 0.32781 0.69938 0.66898 0.0
C802 C 0.379 0.6982 0.65987 0.0
C803 C 0.36745 0.66856 0.65332 0.0
C804 C 0.3361 0.65435 0.65541 0.0
C805 C 0.31652 0.67004 0.66309 0.0
C806 C 0.41223 0.71413 0.65783 0.0
C807 C 0.32323 0.62269 0.64924 0.0
C808 C 0.40778 0.6378 0.60087 0.0
C809 C 0.42843 0.62714 0.61981 0.0
C810 C 0.3874 0.65079 0.61156 0.0
C811 C 0.38748 0.65298 0.64193 0.0
C812 C 0.40769 0.64158 0.66117 0.0
C813 C 0.4281 0.62893 0.64986 0.0
C814 C 0.36646 0.663 0.5904 0.0
C815 C 0.40823 0.64326 0.69367 0.0
H816 H 0.3677 0.73592 0.67302 0.0
H817 H 0.2925 0.6594 0.66476 0.0
H818 H 0.42861 0.70462 0.67145 0.0
H819 H 0.41624 0.71244 0.635 0.0
H820 H 0.41792 0.73693 0.66492 0.0
H821 H 0.29919 0.61459 0.65413 0.0
H822 H 0.32295 0.61716 0.62597 0.0
H823 H 0.3384 0.61164 0.66236 0.0
H824 H 0.40827 0.63683 0.57766 0.0
H825 H 0.4439 0.6205 0.66452 0.0
H826 H 0.37218 0.68624 0.59517 0.0
H827 H 0.34178 0.65373 0.59294 0.0
H828 H 0.36875 0.65902 0.56738 0.0
H829 H 0.41741 0.66569 0.70229 0.0
H830 H 0.423 0.63092 0.70529 0.0
H831 H 0.38428 0.63524 0.69872 0.0
C832 C 0.80353 0.83786 0.69096 0.0
C833 C 0.80489 0.81249 0.70344 0.0
C834 C 0.82983 0.85571 0.68209 0.0
C835 C 0.85772 0.84756 0.68556 0.0
C836 C 0.85929 0.82208 0.6982 0.0
C837 C 0.83278 0.80487 0.70726 0.0
C838 C 0.82769 0.88305 0.66875 0.0
C839 C 0.88879 0.81296 0.70184 0.0
C840 C 0.90815 0.8821 0.63253 0.0
C841 C 0.92711 0.90614 0.64951 0.0
C842 C 0.88681 0.86141 0.64473 0.0
C843 C 0.88473 0.86516 0.67443 0.0
C844 C 0.90604 0.88784 0.69232 0.0
C845 C 0.92733 0.90814 0.67955 0.0
C846 C 0.86429 0.83731 0.62515 0.0
C847 C 0.9042 0.89239 0.7241 0.0
H848 H 0.78189 0.84366 0.68806 0.0
H849 H 0.83401 0.78559 0.71768 0.0
H850 H 0.84587 0.90128 0.68083 0.0
H851 H 0.83193 0.88264 0.6459 0.0
H852 H 0.80457 0.88672 0.66885 0.0
H853 H 0.88608 0.79252 0.71237 0.0
H854 H 0.89573 0.81068 0.68026 0.0
H855 H 0.9081 0.82941 0.71519 0.0
H856 H 0.90781 0.88076 0.60919 0.0
H857 H 0.94232 0.92678 0.69252 0.0
H858 H 0.84103 0.84112 0.62104 0.0
H859 H 0.86162 0.81693 0.63573 0.0
H860 H 0.8719 0.83522 0.60382 0.0
H861 H 0.88388 0.9004 0.7259 0.0
H862 H 0.92547 0.90807 0.73582 0.0
H863 H 0.90077 0.87219 0.73508 0.0
C864 C 0.6731 0.17971 0.18567 0.0
C865 C 0.70141 0.17328 0.19412 0.0
C866 C 0.65053 0.16353 0.16326 0.0
C867 C 0.65595 0.1398 0.14974 0.0
C868 C 0.68478 0.13372 0.15741 0.0
C869 C 0.70739 0.1509 0.1791 0.0
C870 C 0.6204 0.17114 0.15481 0.0
C871 C 0.69125 0.10834 0.1437 0.0
C872 C 0.585 0.0795 0.11921 0.0
C873 C 0.584 0.0824 0.08931 0.0
C874 C 0.60856 0.09801 0.13918 0.0
C875 C 0.63078 0.12038 0.12882 0.0
C876 C 0.62912 0.12391 0.09858 0.0
C877 C 0.60598 0.1045 0.0791 0.0
C878 C 0.61026 0.09312 0.17126 0.0
C879 C 0.65188 0.14799 0.08685 0.0
H880 H 0.66796 0.19673 0.19721 0.0
H881 H 0.72952 0.14628 0.1848 0.0
H882 H 0.61481 0.17148 0.13078 0.0
H883 H 0.60103 0.15485 0.16194 0.0
H884 H 0.62135 0.19212 0.16479 0.0
H885 H 0.71513 0.10694 0.15178 0.0
H886 H 0.67425 0.08862 0.14855 0.0
H887 H 0.68833 0.10925 0.11969 0.0
H888 H 0.56827 0.06197 0.12687 0.0
H889 H 0.60507 0.1065 0.05583 0.0
H890 H 0.60795 0.11191 0.18326 0.0
H891 H 0.63329 0.09024 0.18016 0.0
H892 H 0.59178 0.0742 0.17558 0.0
H893 H 0.65143 0.16855 0.09673 0.0
H894 H 0.64661 0.14829 0.06277 0.0
H895 H 0.67591 0.14627 0.09288 0.0
C896 C 0.43653 0.65119 0.38968 0.0
C897 C 0.44362 0.64869 0.36164 0.0
C898 C 0.44218 0.63228 0.41084 0.0
C899 C 0.45576 0.61075 0.40388 0.0
C900 C 0.46381 0.60882 0.3758 0.0
C901 C 0.45732 0.62758 0.35497 0.0
C902 C 0.43286 0.63485 0.44034 0.0
C903 C 0.47889 0.58663 0.36759 0.0
C904 C 0.49756 0.57633 0.46344 0.0
C905 C 0.47625 0.54948 0.4636 0.0
C906 C 0.49082 0.59669 0.44476 0.0
C907 C 0.46189 0.59028 0.42585 0.0
C908 C 0.43977 0.56357 0.42664 0.0
C909 C 0.44726 0.54342 0.44543 0.0
C910 C 0.51522 0.6247 0.44453 0.0
C911 C 0.40851 0.55601 0.40707 0.0
H912 H 0.42543 0.66721 0.39467 0.0
H913 H 0.46262 0.62557 0.33321 0.0
H914 H 0.41553 0.61493 0.44419 0.0
H915 H 0.45338 0.63794 0.45772 0.0
H916 H 0.42267 0.65276 0.44238 0.0
H917 H 0.48466 0.58856 0.34521 0.0
H918 H 0.50059 0.58845 0.38315 0.0
H919 H 0.46306 0.56515 0.36892 0.0
H920 H 0.52003 0.58123 0.47743 0.0
H921 H 0.43067 0.52278 0.44552 0.0
H922 H 0.50533 0.6425 0.44815 0.0
H923 H 0.5228 0.62679 0.42289 0.0
H924 H 0.53602 0.62688 0.46144 0.0
H925 H 0.39667 0.57265 0.40966 0.0
H926 H 0.39308 0.53528 0.41173 0.0
H927 H 0.41179 0.55499 0.38397 0.0
C928 C 0.10702 0.40926 0.86078 0.0
C929 C 0.13739 0.42219 0.85516 0.0
C930 C 0.09428 0.42032 0.88272 0.0
C931 C 0.11162 0.44566 0.89939 0.0
C932 C 0.14212 0.45902 0.89392 0.0
C933 C 0.15467 0.44707 0.87236 0.0
C934 C 0.0619 0.40491 0.88784 0.0
C935 C 0.16154 0.48619 0.91078 0.0
C936 C 0.06621 0.4897 0.93379 0.0
C937 C 0.06912 0.48269 0.96307 0.0
C938 C 0.07988 0.47797 0.91314 0.0
C939 C 0.09736 0.45869 0.92163 0.0
C940 C 0.10061 0.45164 0.95123 0.0
C941 C 0.08643 0.46355 0.97143 0.0
C942 C 0.07542 0.48614 0.88201 0.0
C943 C 0.1189 0.43128 0.96155 0.0
H944 H 0.09262 0.39056 0.84769 0.0
H945 H 0.17828 0.45735 0.86926 0.0
H946 H 0.06233 0.40002 0.91106 0.0
H947 H 0.04627 0.41865 0.88305 0.0
H948 H 0.05186 0.38478 0.87412 0.0
H949 H 0.18473 0.49421 0.90402 0.0
H950 H 0.14918 0.50277 0.90761 0.0
H951 H 0.16493 0.48281 0.93442 0.0
H952 H 0.05285 0.50427 0.9268 0.0
H953 H 0.08896 0.45782 0.99386 0.0
H954 H 0.06368 0.46697 0.86727 0.0
H955 H 0.0984 0.49581 0.87543 0.0
H956 H 0.06131 0.50139 0.87876 0.0
H957 H 0.10784 0.4102 0.94986 0.0
H958 H 0.12035 0.42872 0.98535 0.0
H959 H 0.14287 0.43878 0.95644 0.0
C960 C 0.58488 0.79901 0.84006 0.0
C961 C 0.60856 0.79086 0.8575 0.0
C962 C 0.5714 0.81824 0.85121 0.0
C963 C 0.58213 0.82918 0.88028 0.0
C964 C 0.60382 0.81879 0.8988 0.0
C965 C 0.61687 0.79949 0.88704 0.0
C966 C 0.54841 0.82913 0.83107 0.0
C967 C 0.61582 0.83036 0.92999 0.0
C968 C 0.59488 0.90543 0.90117 0.0
C969 C 0.57318 0.90315 0.91992 0.0
C970 C 0.59655 0.88141 0.88613 0.0
C971 C 0.57549 0.85496 0.88982 0.0
C972 C 0.5513 0.85315 0.90619 0.0
C973 C 0.55059 0.87752 0.92149 0.0
C974 C 0.623 0.88396 0.86909 0.0
C975 C 0.52827 0.8252 0.9099 0.0
H976 H 0.57859 0.79193 0.81716 0.0
H977 H 0.63541 0.79311 0.90023 0.0
H978 H 0.52958 0.83211 0.84241 0.0
H979 H 0.56059 0.85007 0.82386 0.0
H980 H 0.53785 0.81455 0.8114 0.0
H981 H 0.62992 0.81776 0.94216 0.0
H982 H 0.63064 0.85255 0.93032 0.0
H983 H 0.59622 0.83064 0.94155 0.0
H984 H 0.6124 0.92546 0.90045 0.0
H985 H 0.53382 0.87623 0.93612 0.0
H986 H 0.61436 0.8725 0.84739 0.0
H987 H 0.64029 0.87421 0.88092 0.0
H988 H 0.63514 0.90641 0.86601 0.0
H989 H 0.52109 0.81176 0.88923 0.0
H990 H 0.50719 0.82828 0.91737 0.0
H991 H 0.53939 0.81355 0.92643 0.0
C992 C 0.91188 0.17616 0.43279 0.0
C993 C 0.88941 0.16595 0.40787 0.0
C994 C 0.92942 0.15894 0.44649 0.0
C995 C 0.92438 0.13077 0.43509 0.0
C996 C 0.90179 0.12044 0.4099 0.0
C997 C 0.88459 0.13802 0.39677 0.0
C998 C 0.95311 0.1708 0.47337 0.0
C999 C 0.89546 0.09062 0.39693 0.0
C1000 C 0.9849 0.09043 0.45678 0.0
C1001 C 0.97124 0.07237 0.4771 0.0
C1002 C 0.97014 0.10972 0.44309 0.0
C1003 C 0.94131 0.11143 0.45027 0.0
C1004 C 0.92778 0.09362 0.4712 0.0
C1005 C 0.9427 0.07425 0.4841 0.0
C1006 C 0.98512 0.12791 0.42054 0.0
C1007 C 0.89737 0.09494 0.4799 0.0
H1008 H 0.91601 0.19775 0.4414 0.0
H1009 H 0.86692 0.12967 0.37785 0.0
H1010 H 0.94663 0.15815 0.49212 0.0
H1011 H 0.97634 0.1692 0.47009 0.0
H1012 H 0.95499 0.19332 0.47899 0.0
H1013 H 0.87859 0.0864 0.37626 0.0
H1014 H 0.91745 0.08678 0.39265 0.0
H1015 H 0.88596 0.07516 0.41262 0.0
H1016 H 1.00694 0.08924 0.45128 0.0
H1017 H 0.93201 0.06068 0.49999 0.0
H1018 H 0.98881 0.15064 0.4267 0.0
H1019 H 0.9694 0.12301 0.39922 0.0
H1020 H 1.00786 0.12459 0.41785 0.0
H1021 H 0.89916 0.11692 0.48754 0.0
H1022 H 0.89058 0.08061 0.49743 0.0
H1023 H 0.87849 0.08897 0.46076 0.0
C1024 C 0.20417 0.65506 0.16755 0.0
C1025 C 0.23123 0.64627 0.17393 0.0
C1026 C 0.17819 0.63857 0.14823 0.0
C1027 C 0.17966 0.61302 0.13472 0.0
C1028 C 0.20694 0.60412 0.14118 0.0
C1029 C 0.23232 0.62079 0.16079 0.0
C1030 C 0.1494 0.64866 0.14195 0.0
C1031 C 0.20964 0.57732 0.12682 0.0
C1032 C 0.10542 0.55751 0.10033 0.0
C1033 C 0.10459 0.5628 0.07079 0.0
C1034 C 0.12966 0.57379 0.12149 0.0
C1035 C 0.15328 0.59609 0.11284 0.0
C1036 C 0.15244 0.60157 0.08302 0.0
C1037 C 0.12827 0.58467 0.06233 0.0
C1038 C 0.12999 0.56722 0.15307 0.0
C1039 C 0.17696 0.62541 0.07299 0.0
H1040 H 0.20331 0.67475 0.17777 0.0
H1041 H 0.25345 0.61424 0.16529 0.0
H1042 H 0.14514 0.65303 0.11862 0.0
H1043 H 0.12873 0.63186 0.14618 0.0
H1044 H 0.15144 0.66821 0.15536 0.0
H1045 H 0.23207 0.57286 0.13503 0.0
H1046 H 0.19028 0.55896 0.13062 0.0
H1047 H 0.20774 0.57916 0.10292 0.0
H1048 H 0.08702 0.5407 0.10689 0.0
H1049 H 0.12752 0.58911 0.03955 0.0
H1050 H 0.12978 0.58621 0.16619 0.0
H1051 H 0.15171 0.56175 0.16169 0.0
H1052 H 0.10976 0.54934 0.15623 0.0
H1053 H 0.17767 0.64587 0.0839 0.0
H1054 H 0.17263 0.62717 0.04904 0.0
H1055 H 0.20028 0.62206 0.07919 0.0
C1056 C 0.35452 0.42195 0.67154 0.0
C1057 C 0.32552 0.4278 0.66675 0.0
C1058 C 0.37692 0.43163 0.65319 0.0
C1059 C 0.37024 0.44731 0.62897 0.0
C1060 C 0.34102 0.45326 0.624 0.0
C1061 C 0.31922 0.44368 0.64296 0.0
C1062 C 0.40783 0.42509 0.65984 0.0
C1063 C 0.33257 0.46948 0.5983 0.0
C1064 C 0.43663 0.4961 0.59598 0.0
C1065 C 0.43854 0.47951 0.57177 0.0
C1066 C 0.41505 0.48573 0.61486 0.0
C1067 C 0.39403 0.45816 0.6093 0.0
C1068 C 0.39564 0.44128 0.5848 0.0
C1069 C 0.41803 0.45198 0.56659 0.0
C1070 C 0.41509 0.50424 0.64111 0.0
C1071 C 0.37362 0.41189 0.57777 0.0
H1072 H 0.35985 0.40991 0.68991 0.0
H1073 H 0.29681 0.448 0.63868 0.0
H1074 H 0.4107 0.41175 0.64159 0.0
H1075 H 0.42717 0.445 0.66204 0.0
H1076 H 0.41002 0.4138 0.68016 0.0
H1077 H 0.30879 0.47201 0.59703 0.0
H1078 H 0.34948 0.49083 0.59973 0.0
H1079 H 0.3339 0.45834 0.5778 0.0
H1080 H 0.45261 0.51718 0.60068 0.0
H1081 H 0.41935 0.4388 0.54819 0.0
H1082 H 0.41901 0.49315 0.66127 0.0
H1083 H 0.3921 0.50839 0.63999 0.0
H1084 H 0.43336 0.5249 0.64283 0.0
H1085 H 0.37736 0.39814 0.59579 0.0
H1086 H 0.37677 0.40191 0.55728 0.0
H1087 H 0.34916 0.41274 0.57569 0.0
C1088 C 0.78398 0.63493 0.88803 0.0
C1089 C 0.78997 0.65373 0.86601 0.0
C1090 C 0.80842 0.63151 0.90863 0.0
C1091 C 0.83931 0.64723 0.90687 0.0
C1092 C 0.84542 0.66643 0.88483 0.0
C1093 C 0.82061 0.66954 0.86472 0.0
C1094 C 0.80131 0.61085 0.93195 0.0
C1095 C 0.8782 0.68329 0.88214 0.0
C1096 C 0.9073 0.65574 0.96782 0.0
C1097 C 0.92067 0.63574 0.95786 0.0
C1098 C 0.87964 0.65897 0.95204 0.0
C1099 C 0.86569 0.64176 0.9261 0.0
C1100 C 0.87879 0.62087 0.91676 0.0
C1101 C 0.90619 0.61814 0.93286 0.0
C1102 C 0.86595 0.68132 0.96247 0.0
C1103 C 0.86475 0.60233 0.88906 0.0
H1104 H 0.76023 0.62286 0.88906 0.0
H1105 H 0.82517 0.68473 0.84819 0.0
H1106 H 0.81211 0.59347 0.92934 0.0
H1107 H 0.81152 0.62166 0.95379 0.0
H1108 H 0.77588 0.60142 0.93119 0.0
H1109 H 0.87876 0.69799 0.86425 0.0
H1110 H 0.88982 0.69584 0.90283 0.0
H1111 H 0.89205 0.66866 0.87792 0.0
H1112 H 0.91869 0.66901 0.98744 0.0
H1113 H 0.91677 0.60248 0.92567 0.0
H1114 H 0.84072 0.67213 0.96291 0.0
H1115 H 0.86824 0.69848 0.9471 0.0
H1116 H 0.8777 0.69079 0.98453 0.0
H1117 H 0.83968 0.59184 0.88895 0.0
H1118 H 0.87662 0.58572 0.88621 0.0
H1119 H 0.86653 0.6156 0.87002 0.0
C1120 C 0.47825 0.85123 0.16977 0.0
C1121 C 0.45022 0.84867 0.1803 0.0
C1122 C 0.48973 0.87312 0.15183 0.0
C1123 C 0.47281 0.89297 0.14422 0.0
C1124 C 0.44482 0.89081 0.15515 0.0
C1125 C 0.43401 0.86886 0.17314 0.0
C1126 C 0.51958 0.87462 0.14042 0.0
C1127 C 0.42607 0.91152 0.14759 0.0
C1128 C 0.51742 0.96295 0.11783 0.0
C1129 C 0.50739 0.95886 0.08772 0.0
C1130 C 0.50564 0.942 0.13655 0.0
C1131 C 0.4843 0.91593 0.12471 0.0
C1132 C 0.4741 0.91177 0.0942 0.0
C1133 C 0.48534 0.93354 0.07612 0.0
C1134 C 0.51611 0.94771 0.169 0.0
C1135 C 0.45197 0.88408 0.08058 0.0
H1136 H 0.49076 0.8356 0.17479 0.0
H1137 H 0.41262 0.86745 0.18153 0.0
H1138 H 0.51498 0.87248 0.11625 0.0
H1139 H 0.53673 0.89556 0.14691 0.0
H1140 H 0.53016 0.8578 0.14857 0.0
H1141 H 0.40541 0.90757 0.15875 0.0
H1142 H 0.44085 0.93354 0.15363 0.0
H1143 H 0.41795 0.91 0.12374 0.0
H1144 H 0.53431 0.98266 0.12674 0.0
H1145 H 0.47776 0.93032 0.05275 0.0
H1146 H 0.52881 0.93246 0.17747 0.0
H1147 H 0.49555 0.9446 0.18018 0.0
H1148 H 0.53154 0.96958 0.1748 0.0
H1149 H 0.46227 0.86645 0.08611 0.0
H1150 H 0.44656 0.88416 0.05649 0.0
H1151 H 0.42986 0.8796 0.08948 0.0
C1152 C 0.10134 0.21753 0.64897 0.0
C1153 C 0.12775 0.22143 0.67051 0.0
C1154 C 0.08897 0.19214 0.63112 0.0
C1155 C 0.10297 0.16965 0.63491 0.0
C1156 C 0.12933 0.17328 0.65696 0.0
C1157 C 0.14145 0.19903 0.67425 0.0
C1158 C 0.06103 0.18952 0.60788 0.0
C1159 C 0.14477 0.1499 0.6624 0.0
C1160 C 0.05078 0.09594 0.60543 0.0
C1161 C 0.06088 0.09212 0.57896 0.0
C1162 C 0.06502 0.1204 0.62425 0.0
C1163 C 0.08957 0.14224 0.6162 0.0
C1164 C 0.10028 0.13824 0.58967 0.0
C1165 C 0.086 0.11316 0.57151 0.0
C1166 C 0.0532 0.12312 0.6525 0.0
C1167 C 0.12605 0.16097 0.57992 0.0
H1168 H 0.09073 0.23468 0.64551 0.0
H1169 H 0.16163 0.20154 0.69097 0.0
H1170 H 0.06663 0.1849 0.58623 0.0
H1171 H 0.04137 0.17156 0.6119 0.0
H1172 H 0.05329 0.20909 0.6071 0.0
H1173 H 0.16427 0.15553 0.68106 0.0
H1174 H 0.12746 0.1302 0.66682 0.0
H1175 H 0.15395 0.14515 0.64269 0.0
H1176 H 0.03126 0.07982 0.61126 0.0
H1177 H 0.09362 0.11054 0.55091 0.0
H1178 H 0.04221 0.1407 0.65185 0.0
H1179 H 0.07285 0.12838 0.67099 0.0
H1180 H 0.03581 0.10338 0.65678 0.0
H1181 H 0.11865 0.18056 0.57669 0.0
H1182 H 0.13243 0.15444 0.55928 0.0
H1183 H 0.14706 0.16633 0.59698 0.0
C1184 C 0.70311 0.35406 0.36478 0.0
C1185 C 0.7147 0.33607 0.38374 0.0
C1186 C 0.68273 0.36858 0.37292 0.0
C1187 C 0.67456 0.36587 0.40107 0.0
C1188 C 0.68727 0.3489 0.42081 0.0
C1189 C 0.70691 0.33398 0.41182 0.0
C1190 C 0.66912 0.38603 0.35107 0.0
C1191 C 0.67937 0.34583 0.45118 0.0
C1192 C 0.63998 0.41993 0.43183 0.0
C1193 C 0.6084 0.40459 0.42906 0.0
C1194 C 0.66179 0.40772 0.42256 0.0
C1195 C 0.65167 0.37979 0.40955 0.0
C1196 C 0.61971 0.36466 0.40549 0.0
C1197 C 0.59858 0.37707 0.41565 0.0
C1198 C 0.69576 0.42439 0.42739 0.0
C1199 C 0.60787 0.33508 0.39099 0.0
H1200 H 0.70948 0.35641 0.34325 0.0
H1201 H 0.71526 0.31989 0.4265 0.0
H1202 H 0.64334 0.3778 0.34702 0.0
H1203 H 0.67503 0.40832 0.35987 0.0
H1204 H 0.67766 0.38577 0.32994 0.0
H1205 H 0.69271 0.3333 0.46447 0.0
H1206 H 0.68428 0.36705 0.46249 0.0
H1207 H 0.65415 0.3352 0.45002 0.0
H1208 H 0.64778 0.44141 0.44159 0.0
H1209 H 0.57445 0.36473 0.41382 0.0
H1210 H 0.70468 0.42637 0.40639 0.0
H1211 H 0.70959 0.41294 0.44165 0.0
H1212 H 0.69982 0.44597 0.4376 0.0
H1213 H 0.61528 0.33486 0.36934 0.0
H1214 H 0.58208 0.32688 0.38801 0.0
H1215 H 0.61802 0.3204 0.40429 0.0
loop_
_geom_bond_atom_site_label_1
_geom_bond_atom_site_label_2
_geom_bond_distance
_geom_bond_site_symmetry_2
_ccdc_geom_bond_type
C0 C1 1.384 . S
C0 H13 0.947 . S
C0 C35 1.382 . S
C1 C0 1.384 . S
C1 C2 1.378 . S
C2 C1 1.378 . S
C2 C3 1.378 . S
C2 H14 0.952 . S
C3 C2 1.378 . S
C3 H15 0.950 . S
C3 C34 1.383 . S
H4 C23 0.947 . S
H5 C24 0.946 . S
H6 C26 0.953 . S
H7 C27 0.945 . S
H8 C29 0.952 . S
H9 C30 0.949 . S
H10 C32 0.950 . S
H11 C33 0.948 . S
H12 C35 0.951 . S
H13 C0 0.947 . S
H14 C2 0.952 . S
H15 C3 0.950 . S
N16 C19 1.382 . S
N16 C21 1.363 . S
N17 C19 1.371 . S
N17 C20 1.372 . S
N18 C20 1.361 . S
N18 C21 1.377 . S
C19 N16 1.382 . S
C19 N17 1.371 . S
C19 C22 1.480 . S
C20 N17 1.372 . S
C20 N18 1.361 . S
C20 C28 1.457 . S
C21 N16 1.363 . S
C21 N18 1.377 . S
C21 C34 1.479 . S
C22 C19 1.480 . S
C22 C23 1.383 . S
C22 C27 1.385 . S
C23 H4 0.947 . S
C23 C22 1.383 . S
C23 C24 1.388 . S
C24 H5 0.946 . S
C24 C23 1.388 . S
C24 C25 1.384 . S
C25 C24 1.384 . S
C25 C26 1.377 . S
C26 H6 0.953 . S
C26 C25 1.377 . S
C26 C27 1.369 . S
C27 H7 0.945 . S
C27 C22 1.385 . S
C27 C26 1.369 . S
C28 C20 1.457 . S
C28 C29 1.372 . S
C28 C33 1.364 . S
C29 H8 0.952 . S
C29 C28 1.372 . S
C29 C30 1.389 . S
C30 H9 0.949 . S
C30 C29 1.389 . S
C30 C31 1.387 . S
C31 C30 1.387 . S
C31 C32 1.372 . S
C32 H10 0.950 . S
C32 C31 1.372 . S
C32 C33 1.379 . S
C33 H11 0.948 . S
C33 C28 1.364 . S
C33 C32 1.379 . S
C34 C3 1.383 . S
C34 C21 1.479 . S
C34 C35 1.398 . S
C35 C0 1.382 . S
C35 H12 0.951 . S
C35 C34 1.398 . S
C36 C37 1.384 . S
C36 H49 0.947 . S
C36 C71 1.382 . S
C37 C36 1.384 . S
C37 C38 1.378 . S
C38 C37 1.378 . S
C38 C39 1.378 . S
C38 H50 0.952 . S
C39 C38 1.378 . S
C39 H51 0.950 . S
C39 C70 1.383 . S
H40 C59 0.947 . S
H41 C60 0.946 . S
H42 C62 0.953 . S
H43 C63 0.945 . S
H44 C65 0.952 . S
H45 C66 0.949 . S
H46 C68 0.950 . S
H47 C69 0.948 . S
H48 C71 0.951 . S
H49 C36 0.947 . S
H50 C38 0.952 . S
H51 C39 0.950 . S
N52 C55 1.382 . S
N52 C57 1.363 . S
N53 C55 1.371 . S
N53 C56 1.372 . S
N54 C56 1.361 . S
N54 C57 1.377 . S
C55 N52 1.382 . S
C55 N53 1.371 . S
C55 C58 1.480 . S
C56 N53 1.372 . S
C56 N54 1.361 . S
C56 C64 1.457 . S
C57 N52 1.363 . S
C57 N54 1.377 . S
C57 C70 1.479 . S
C58 C55 1.480 . S
C58 C59 1.383 . S
C58 C63 1.385 . S
C59 H40 0.947 . S
C59 C58 1.383 . S
C59 C60 1.388 . S
C60 H41 0.946 . S
C60 C59 1.388 . S
C60 C61 1.384 . S
C61 C60 1.384 . S
C61 C62 1.377 . S
C62 H42 0.953 . S
C62 C61 1.377 . S
C62 C63 1.369 . S
C63 H43 0.945 . S
C63 C58 1.385 . S
C63 C62 1.369 . S
C64 C56 1.457 . S
C64 C65 1.372 . S
C64 C69 1.364 . S
C65 H44 0.952 . S
C65 C64 1.372 . S
C65 C66 1.389 . S
C66 H45 0.949 . S
C66 C65 1.389 . S
C66 C67 1.387 . S
C67 C66 1.387 . S
C67 C68 1.372 . S
C68 H46 0.950 . S
C68 C67 1.372 . S
C68 C69 1.379 . S
C69 H47 0.948 . S
C69 C64 1.364 . S
C69 C68 1.379 . S
C70 C39 1.383 . S
C70 C57 1.479 . S
C70 C71 1.398 . S
C71 C36 1.382 . S
C71 H48 0.951 . S
C71 C70 1.398 . S
C72 C73 1.384 . S
C72 H85 0.947 . S
C72 C107 1.382 . S
C73 C72 1.384 . S
C73 C74 1.378 . S
C74 C73 1.378 . S
C74 C75 1.378 . S
C74 H86 0.952 . S
C75 C74 1.378 . S
C75 H87 0.950 . S
C75 C106 1.383 . S
H76 C95 0.947 . S
H77 C96 0.946 . S
H78 C98 0.953 . S
H79 C99 0.945 . S
H80 C101 0.952 . S
H81 C102 0.949 . S
H82 C104 0.950 . S
H83 C105 0.948 . S
H84 C107 0.951 . S
H85 C72 0.947 . S
H86 C74 0.952 . S
H87 C75 0.950 . S
N88 C91 1.382 . S
N88 C93 1.363 . S
N89 C91 1.371 . S
N89 C92 1.372 . S
N90 C92 1.361 . S
N90 C93 1.377 . S
C91 N88 1.382 . S
C91 N89 1.371 . S
C91 C94 1.480 . S
C92 N89 1.372 . S
C92 N90 1.361 . S
C92 C100 1.457 . S
C93 N88 1.363 . S
C93 N90 1.377 . S
C93 C106 1.479 . S
C94 C91 1.480 . S
C94 C95 1.383 . S
C94 C99 1.385 . S
C95 H76 0.947 . S
C95 C94 1.383 . S
C95 C96 1.388 . S
C96 H77 0.946 . S
C96 C95 1.388 . S
C96 C97 1.384 . S
C97 C96 1.384 . S
C97 C98 1.377 . S
C98 H78 0.953 . S
C98 C97 1.377 . S
C98 C99 1.369 . S
C99 H79 0.945 . S
C99 C94 1.385 . S
C99 C98 1.369 . S
C100 C92 1.457 . S
C100 C101 1.372 . S
C100 C105 1.364 . S
C101 H80 0.952 . S
C101 C100 1.372 . S
C101 C102 1.389 . S
C102 H81 0.949 . S
C102 C101 1.389 . S
C102 C103 1.387 . S
C103 C102 1.387 . S
C103 C104 1.372 . S
C104 H82 0.950 . S
C104 C103 1.372 . S
C104 C105 1.379 . S
C105 H83 0.948 . S
C105 C100 1.364 . S
C105 C104 1.379 . S
C106 C75 1.383 . S
C106 C93 1.479 . S
C106 C107 1.398 . S
C107 C72 1.382 . S
C107 H84 0.951 . S
C107 C106 1.398 . S
C108 C109 1.384 . S
C108 H121 0.947 . S
C108 C143 1.382 . S
C109 C108 1.384 . S
C109 C110 1.378 . S
C110 C109 1.378 . S
C110 C111 1.378 . S
C110 H122 0.952 . S
C111 C110 1.378 . S
C111 H123 0.950 . S
C111 C142 1.383 . S
H112 C131 0.947 . S
H113 C132 0.946 . S
H114 C134 0.953 . S
H115 C135 0.945 . S
H116 C137 0.952 . S
H117 C138 0.949 . S
H118 C140 0.950 . S
H119 C141 0.948 . S
H120 C143 0.951 . S
H121 C108 0.947 . S
H122 C110 0.952 . S
H123 C111 0.950 . S
N124 C127 1.382 . S
N124 C129 1.363 . S
N125 C127 1.371 . S
N125 C128 1.372 . S
N126 C128 1.361 . S
N126 C129 1.377 . S
C127 N124 1.382 . S
C127 N125 1.371 . S
C127 C130 1.480 . S
C128 N125 1.372 . S
C128 N126 1.361 . S
C128 C136 1.457 . S
C129 N124 1.363 . S
C129 N126 1.377 . S
C129 C142 1.479 . S
C130 C127 1.480 . S
C130 C131 1.383 . S
C130 C135 1.385 . S
C131 H112 0.947 . S
C131 C130 1.383 . S
C131 C132 1.388 . S
C132 H113 0.946 . S
C132 C131 1.388 . S
C132 C133 1.384 . S
C133 C132 1.384 . S
C133 C134 1.377 . S
C134 H114 0.953 . S
C134 C133 1.377 . S
C134 C135 1.369 . S
C135 H115 0.945 . S
C135 C130 1.385 . S
C135 C134 1.369 . S
C136 C128 1.457 . S
C136 C137 1.372 . S
C136 C141 1.364 . S
C137 H116 0.952 . S
C137 C136 1.372 . S
C137 C138 1.389 . S
C138 H117 0.949 . S
C138 C137 1.389 . S
C138 C139 1.387 . S
C139 C138 1.387 . S
C139 C140 1.372 . S
C140 H118 0.950 . S
C140 C139 1.372 . S
C140 C141 1.379 . S
C141 H119 0.948 . S
C141 C136 1.364 . S
C141 C140 1.379 . S
C142 C111 1.383 . S
C142 C129 1.479 . S
C142 C143 1.398 . S
C143 C108 1.382 . S
C143 H120 0.951 . S
C143 C142 1.398 . S
C144 C145 1.384 . S
C144 H157 0.947 . S
C144 C179 1.382 . S
C145 C144 1.384 . S
C145 C146 1.378 . S
C146 C145 1.378 . S
C146 C147 1.378 . S
C146 H158 0.952 . S
C147 C146 1.378 . S
C147 H159 0.950 . S
C147 C178 1.383 . S
H148 C167 0.947 . S
H149 C168 0.946 . S
H150 C170 0.953 . S
H151 C171 0.945 . S
H152 C173 0.952 . S
H153 C174 0.949 . S
H154 C176 0.950 . S
H155 C177 0.948 . S
H156 C179 0.951 . S
H157 C144 0.947 . S
H158 C146 0.952 . S
H159 C147 0.950 . S
N160 C163 1.382 . S
N160 C165 1.363 . S
N161 C163 1.371 . S
N161 C164 1.372 . S
N162 C164 1.361 . S
N162 C165 1.377 . S
C163 N160 1.382 . S
C163 N161 1.371 . S
C163 C166 1.480 . S
C164 N161 1.372 . S
C164 N162 1.361 . S
C164 C172 1.457 . S
C165 N160 1.363 . S
C165 N162 1.377 . S
C165 C178 1.479 . S
C166 C163 1.480 . S
C166 C167 1.383 . S
C166 C171 1.385 . S
C167 H148 0.947 . S
C167 C166 1.383 . S
C167 C168 1.388 . S
C168 H149 0.946 . S
C168 C167 1.388 . S
C168 C169 1.384 . S
C169 C168 1.384 . S
C169 C170 1.377 . S
C170 H150 0.953 . S
C170 C169 1.377 . S
C170 C171 1.369 . S
C171 H151 0.945 . S
C171 C166 1.385 . S
C171 C170 1.369 . S
C172 C164 1.457 . S
C172 C173 1.372 . S
C172 C177 1.364 . S
C173 H152 0.952 . S
C173 C172 1.372 . S
C173 C174 1.389 . S
C174 H153 0.949 . S
C174 C173 1.389 . S
C174 C175 1.387 . S
C175 C174 1.387 . S
C175 C176 1.372 . S
C176 H154 0.950 . S
C176 C175 1.372 . S
C176 C177 1.379 . S
C177 H155 0.948 . S
C177 C172 1.364 . S
C177 C176 1.379 . S
C178 C147 1.383 . S
C178 C165 1.479 . S
C178 C179 1.398 . S
C179 C144 1.382 . S
C179 H156 0.951 . S
C179 C178 1.398 . S
C180 C181 1.384 . S
C180 H193 0.947 . S
C180 C215 1.382 . S
C181 C180 1.384 . S
C181 C182 1.378 . S
C182 C181 1.378 . S
C182 C183 1.378 . S
C182 H194 0.952 . S
C183 C182 1.378 . S
C183 H195 0.950 . S
C183 C214 1.383 . S
H184 C203 0.947 . S
H185 C204 0.946 . S
H186 C206 0.953 . S
H187 C207 0.945 . S
H188 C209 0.952 . S
H189 C210 0.949 . S
H190 C212 0.950 . S
H191 C213 0.948 . S
H192 C215 0.951 . S
H193 C180 0.947 . S
H194 C182 0.952 . S
H195 C183 0.950 . S
N196 C199 1.382 . S
N196 C201 1.363 . S
N197 C199 1.371 . S
N197 C200 1.372 . S
N198 C200 1.361 . S
N198 C201 1.377 . S
C199 N196 1.382 . S
C199 N197 1.371 . S
C199 C202 1.480 . S
C200 N197 1.372 . S
C200 N198 1.361 . S
C200 C208 1.457 . S
C201 N196 1.363 . S
C201 N198 1.377 . S
C201 C214 1.479 . S
C202 C199 1.480 . S
C202 C203 1.383 . S
C202 C207 1.385 . S
C203 H184 0.947 . S
C203 C202 1.383 . S
C203 C204 1.388 . S
C204 H185 0.946 . S
C204 C203 1.388 . S
C204 C205 1.384 . S
C205 C204 1.384 . S
C205 C206 1.377 . S
C206 H186 0.953 . S
C206 C205 1.377 . S
C206 C207 1.369 . S
C207 H187 0.945 . S
C207 C202 1.385 . S
C207 C206 1.369 . S
C208 C200 1.457 . S
C208 C209 1.372 . S
C208 C213 1.364 . S
C209 H188 0.952 . S
C209 C208 1.372 . S
C209 C210 1.389 . S
C210 H189 0.949 . S
C210 C209 1.389 . S
C210 C211 1.387 . S
C211 C210 1.387 . S
C211 C212 1.372 . S
C212 H190 0.950 . S
C212 C211 1.372 . S
C212 C213 1.379 . S
C213 H191 0.948 . S
C213 C208 1.364 . S
C213 C212 1.379 . S
C214 C183 1.383 . S
C214 C201 1.479 . S
C214 C215 1.398 . S
C215 C180 1.382 . S
C215 H192 0.951 . S
C215 C214 1.398 . S
C216 C217 1.384 . S
C216 H229 0.947 . S
C216 C251 1.382 . S
C217 C216 1.384 . S
C217 C218 1.378 . S
C218 C217 1.378 . S
C218 C219 1.378 . S
C218 H230 0.952 . S
C219 C218 1.378 . S
C219 H231 0.950 . S
C219 C250 1.383 . S
H220 C239 0.947 . S
H221 C240 0.946 . S
H222 C242 0.953 . S
H223 C243 0.945 . S
H224 C245 0.952 . S
H225 C246 0.949 . S
H226 C248 0.950 . S
H227 C249 0.948 . S
H228 C251 0.951 . S
H229 C216 0.947 . S
H230 C218 0.952 . S
H231 C219 0.950 . S
N232 C235 1.382 . S
N232 C237 1.363 . S
N233 C235 1.371 . S
N233 C236 1.372 . S
N234 C236 1.361 . S
N234 C237 1.377 . S
C235 N232 1.382 . S
C235 N233 1.371 . S
C235 C238 1.480 . S
C236 N233 1.372 . S
C236 N234 1.361 . S
C236 C244 1.457 . S
C237 N232 1.363 . S
C237 N234 1.377 . S
C237 C250 1.479 . S
C238 C235 1.480 . S
C238 C239 1.383 . S
C238 C243 1.385 . S
C239 H220 0.947 . S
C239 C238 1.383 . S
C239 C240 1.388 . S
C240 H221 0.946 . S
C240 C239 1.388 . S
C240 C241 1.384 . S
C241 C240 1.384 . S
C241 C242 1.377 . S
C242 H222 0.953 . S
C242 C241 1.377 . S
C242 C243 1.369 . S
C243 H223 0.945 . S
C243 C238 1.385 . S
C243 C242 1.369 . S
C244 C236 1.457 . S
C244 C245 1.372 . S
C244 C249 1.364 . S
C245 H224 0.952 . S
C245 C244 1.372 . S
C245 C246 1.389 . S
C246 H225 0.949 . S
C246 C245 1.389 . S
C246 C247 1.387 . S
C247 C246 1.387 . S
C247 C248 1.372 . S
C248 H226 0.950 . S
C248 C247 1.372 . S
C248 C249 1.379 . S
C249 H227 0.948 . S
C249 C244 1.364 . S
C249 C248 1.379 . S
C250 C219 1.383 . S
C250 C237 1.479 . S
C250 C251 1.398 . S
C251 C216 1.382 . S
C251 H228 0.951 . S
C251 C250 1.398 . S
C252 C253 1.384 . S
C252 H265 0.947 . S
C252 C287 1.382 . S
C253 C252 1.384 . S
C253 C254 1.378 . S
C254 C253 1.378 . S
C254 C255 1.378 . S
C254 H266 0.952 . S
C255 C254 1.378 . S
C255 H267 0.950 . S
C255 C286 1.383 . S
H256 C275 0.947 . S
H257 C276 0.946 . S
H258 C278 0.953 . S
H259 C279 0.945 . S
H260 C281 0.952 . S
H261 C282 0.949 . S
H262 C284 0.950 . S
H263 C285 0.948 . S
H264 C287 0.951 . S
H265 C252 0.947 . S
H266 C254 0.952 . S
H267 C255 0.950 . S
N268 C271 1.382 . S
N268 C273 1.363 . S
N269 C271 1.371 . S
N269 C272 1.372 . S
N270 C272 1.361 . S
N270 C273 1.377 . S
C271 N268 1.382 . S
C271 N269 1.371 . S
C271 C274 1.480 . S
C272 N269 1.372 . S
C272 N270 1.361 . S
C272 C280 1.457 . S
C273 N268 1.363 . S
C273 N270 1.377 . S
C273 C286 1.479 . S
C274 C271 1.480 . S
C274 C275 1.383 . S
C274 C279 1.385 . S
C275 H256 0.947 . S
C275 C274 1.383 . S
C275 C276 1.388 . S
C276 H257 0.946 . S
C276 C275 1.388 . S
C276 C277 1.384 . S
C277 C276 1.384 . S
C277 C278 1.377 . S
C278 H258 0.953 . S
C278 C277 1.377 . S
C278 C279 1.369 . S
C279 H259 0.945 . S
C279 C274 1.385 . S
C279 C278 1.369 . S
C280 C272 1.457 . S
C280 C281 1.372 . S
C280 C285 1.364 . S
C281 H260 0.952 . S
C281 C280 1.372 . S
C281 C282 1.389 . S
C282 H261 0.949 . S
C282 C281 1.389 . S
C282 C283 1.387 . S
C283 C282 1.387 . S
C283 C284 1.372 . S
C284 H262 0.950 . S
C284 C283 1.372 . S
C284 C285 1.379 . S
C285 H263 0.948 . S
C285 C280 1.364 . S
C285 C284 1.379 . S
C286 C255 1.383 . S
C286 C273 1.479 . S
C286 C287 1.398 . S
C287 C252 1.382 . S
C287 H264 0.951 . S
C287 C286 1.398 . S
Pr288 C290 2.880 . S
Pr288 O308 2.562 . S
Pr288 O309 2.490 . S
Pr288 O310 2.695 1_665 S
Pr288 O311 2.512 1_665 S
Pr288 O313 2.437 1_655 S
Pr288 O316 2.436 . S
Pr288 O318 2.438 1_565 S
Pr289 C299 2.880 . S
Pr289 O310 2.436 . S
Pr289 O312 2.438 1_545 S
Pr289 O314 2.562 . S
Pr289 O315 2.490 . S
Pr289 O316 2.695 1_445 S
Pr289 O317 2.511 1_445 S
Pr289 O319 2.437 1_455 S
C290 Pr288 2.880 . S
C290 C291 1.491 . S
C290 O308 1.254 . S
C290 O309 1.225 . S
C291 C290 1.491 . S
C291 C292 1.392 . S
C291 C296 1.356 . S
C292 C291 1.392 . S
C292 C293 1.368 . S
C292 H320 0.929 . S
C293 C292 1.368 . S
C293 C294 1.386 . S
C293 H321 0.929 . S
C294 C293 1.386 . S
C294 C295 1.373 . S
C295 C294 1.373 . S
C295 C296 1.409 . S
C295 H322 0.931 . S
C296 C291 1.356 . S
C296 C295 1.409 . S
C296 H323 0.930 . S
C297 O310 1.270 . S
C297 O311 1.248 . S
C298 O312 1.267 . S
C298 O313 1.278 . S
C299 Pr289 2.880 . S
C299 C300 1.491 . S
C299 O314 1.254 . S
C299 O315 1.225 . S
C300 C299 1.491 . S
C300 C301 1.392 . S
C300 C305 1.356 . S
C301 C300 1.392 . S
C301 C302 1.368 . S
C301 H324 0.929 . S
C302 C301 1.368 . S
C302 C303 1.386 . S
C302 H325 0.929 . S
C303 C302 1.386 . S
C303 C304 1.373 . S
C304 C303 1.373 . S
C304 C305 1.409 . S
C304 H326 0.931 . S
C305 C300 1.356 . S
C305 C304 1.409 . S
C305 H327 0.930 . S
C306 O316 1.270 . S
C306 O317 1.252 . S
C307 O318 1.267 . S
C307 O319 1.278 . S
O308 Pr288 2.562 . S
O308 C290 1.254 . S
O309 Pr288 2.490 . S
O309 C290 1.225 . S
O310 Pr288 2.695 1_445 S
O310 Pr289 2.436 . S
O310 C297 1.270 . S
O311 Pr288 2.512 1_445 S
O311 C297 1.248 . S
O312 Pr289 2.438 1_565 S
O312 C298 1.267 . S
O313 Pr288 2.437 1_455 S
O313 C298 1.278 . S
O314 Pr289 2.562 . S
O314 C299 1.254 . S
O315 Pr289 2.490 . S
O315 C299 1.225 . S
O316 Pr288 2.436 . S
O316 Pr289 2.695 1_665 S
O316 C306 1.270 . S
O317 Pr289 2.511 1_665 S
O317 C306 1.252 . S
O318 Pr288 2.438 1_545 S
O318 C307 1.267 . S
O319 Pr289 2.437 1_655 S
O319 C307 1.278 . S
H320 C292 0.929 . S
H321 C293 0.929 . S
H322 C295 0.931 . S
H323 C296 0.930 . S
H324 C301 0.929 . S
H325 C302 0.929 . S
H326 C304 0.931 . S
H327 C305 0.930 . S
Pr328 C330 2.902 . S
Pr328 O348 2.591 . S
Pr328 O349 2.501 . S
Pr328 O350 2.677 1_554 S
Pr328 O351 2.492 1_554 S
Pr328 O353 2.450 . S
Pr328 O356 2.448 1_545 S
Pr328 O358 2.417 1_544 S
Pr329 C339 2.880 1_554 S
Pr329 O350 2.436 1_564 S
Pr329 O352 2.438 1_565 S
Pr329 O354 2.562 1_554 S
Pr329 O355 2.490 1_554 S
Pr329 O356 2.695 . S
Pr329 O357 2.512 . S
Pr329 O359 2.437 1_554 S
C330 Pr328 2.902 . S
C330 C331 1.491 . S
C330 O348 1.254 . S
C330 O349 1.225 . S
C331 C330 1.491 . S
C331 C332 1.392 . S
C331 C336 1.356 . S
C332 C331 1.392 . S
C332 C333 1.368 . S
C332 H360 0.929 . S
C333 C332 1.368 . S
C333 C334 1.386 . S
C333 H361 0.929 . S
C334 C333 1.386 . S
C334 C335 1.373 . S
C335 C334 1.373 . S
C335 C336 1.409 . S
C335 H362 0.931 . S
C336 C331 1.356 . S
C336 C335 1.409 . S
C336 H363 0.930 . S
C337 O350 1.270 . S
C337 O351 1.248 . S
C338 O352 1.267 . S
C338 O353 1.278 . S
C339 Pr329 2.880 1_556 S
C339 C340 1.491 . S
C339 O354 1.254 . S
C339 O355 1.225 . S
C340 C339 1.491 . S
C340 C341 1.392 . S
C340 C345 1.356 . S
C341 C340 1.392 . S
C341 C342 1.368 . S
C341 H364 0.929 . S
C342 C341 1.368 . S
C342 C343 1.386 . S
C342 H365 0.929 . S
C343 C342 1.386 . S
C343 C344 1.373 . S
C344 C343 1.373 . S
C344 C345 1.409 . S
C344 H366 0.931 . S
C345 C340 1.356 . S
C345 C344 1.409 . S
C345 H367 0.930 . S
C346 O356 1.270 . S
C346 O357 1.248 . S
C347 O358 1.267 . S
C347 O359 1.278 . S
O348 Pr328 2.591 . S
O348 C330 1.254 . S
O349 Pr328 2.501 . S
O349 C330 1.225 . S
O350 Pr328 2.677 1_556 S
O350 Pr329 2.436 1_546 S
O350 C337 1.270 . S
O351 Pr328 2.492 1_556 S
O351 C337 1.248 . S
O352 Pr329 2.438 1_545 S
O352 C338 1.267 . S
O353 Pr328 2.450 . S
O353 C338 1.278 . S
O354 Pr329 2.562 1_556 S
O354 C339 1.254 . S
O355 Pr329 2.490 1_556 S
O355 C339 1.225 . S
O356 Pr328 2.448 1_565 S
O356 Pr329 2.695 . S
O356 C346 1.270 . S
O357 Pr329 2.512 . S
O357 C346 1.248 . S
O358 Pr328 2.417 1_566 S
O358 C347 1.267 . S
O359 Pr329 2.437 1_556 S
O359 C347 1.278 . S
H360 C332 0.929 . S
H361 C333 0.929 . S
H362 C335 0.931 . S
H363 C336 0.930 . S
H364 C341 0.929 . S
H365 C342 0.929 . S
H366 C344 0.931 . S
H367 C345 0.930 . S
Pr368 C370 2.880 . S
Pr368 O388 2.562 . S
Pr368 O389 2.490 . S
Pr368 O390 2.695 . S
Pr368 O391 2.512 . S
Pr368 O393 2.437 . S
Pr368 O396 2.436 . S
Pr368 O398 2.438 . S
Pr369 C379 2.880 . S
Pr369 O390 2.436 . S
Pr369 O392 2.438 . S
Pr369 O394 2.562 . S
Pr369 O395 2.490 . S
Pr369 O396 2.695 . S
Pr369 O397 2.512 . S
Pr369 O399 2.437 . S
C370 Pr368 2.880 . S
C370 C371 1.491 . S
C370 O388 1.254 . S
C370 O389 1.225 . S
C371 C370 1.491 . S
C371 C372 1.392 . S
C371 C376 1.356 . S
C372 C371 1.392 . S
C372 C373 1.368 . S
C372 H400 0.929 . S
C373 C372 1.368 . S
C373 C374 1.386 . S
C373 H401 0.929 . S
C374 C373 1.386 . S
C374 C375 1.373 . S
C375 C374 1.373 . S
C375 C376 1.409 . S
C375 H402 0.931 . S
C376 C371 1.356 . S
C376 C375 1.409 . S
C376 H403 0.930 . S
C377 O390 1.270 . S
C377 O391 1.248 . S
C378 O392 1.267 . S
C378 O393 1.278 . S
C379 Pr369 2.880 . S
C379 C380 1.491 . S
C379 O394 1.254 . S
C379 O395 1.225 . S
C380 C379 1.491 . S
C380 C381 1.392 . S
C380 C385 1.356 . S
C381 C380 1.392 . S
C381 C382 1.368 . S
C381 H404 0.929 . S
C382 C381 1.368 . S
C382 C383 1.386 . S
C382 H405 0.929 . S
C383 C382 1.386 . S
C383 C384 1.373 . S
C384 C383 1.373 . S
C384 C385 1.409 . S
C384 H406 0.931 . S
C385 C380 1.356 . S
C385 C384 1.409 . S
C385 H407 0.930 . S
C386 O396 1.270 . S
C386 O397 1.248 . S
C387 O398 1.267 . S
C387 O399 1.278 . S
O388 Pr368 2.562 . S
O388 C370 1.254 . S
O389 Pr368 2.490 . S
O389 C370 1.225 . S
O390 Pr368 2.695 . S
O390 Pr369 2.436 . S
O390 C377 1.270 . S
O391 Pr368 2.512 . S
O391 C377 1.248 . S
O392 Pr369 2.438 . S
O392 C378 1.267 . S
O393 Pr368 2.437 . S
O393 C378 1.278 . S
O394 Pr369 2.562 . S
O394 C379 1.254 . S
O395 Pr369 2.490 . S
O395 C379 1.225 . S
O396 Pr368 2.436 . S
O396 Pr369 2.695 . S
O396 C386 1.270 . S
O397 Pr369 2.512 . S
O397 C386 1.248 . S
O398 Pr368 2.438 . S
O398 C387 1.267 . S
O399 Pr369 2.437 . S
O399 C387 1.278 . S
H400 C372 0.929 . S
H401 C373 0.929 . S
H402 C375 0.931 . S
H403 C376 0.930 . S
H404 C381 0.929 . S
H405 C382 0.929 . S
H406 C384 0.931 . S
H407 C385 0.930 . S
Pr408 C410 2.892 . S
Pr408 O428 2.578 . S
Pr408 O429 2.497 . S
Pr408 O430 2.687 1_656 S
Pr408 O431 2.503 1_656 S
Pr408 O433 2.446 1_556 S
Pr408 O436 2.441 . S
Pr408 O438 2.425 1_655 S
Pr409 C419 2.880 . S
Pr409 O430 2.436 . S
Pr409 O432 2.438 1_455 S
Pr409 O434 2.562 . S
Pr409 O435 2.490 . S
Pr409 O436 2.695 1_454 S
Pr409 O437 2.512 1_454 S
Pr409 O439 2.437 1_554 S
C410 Pr408 2.892 . S
C410 C411 1.491 . S
C410 O428 1.254 . S
C410 O429 1.225 . S
C411 C410 1.491 . S
C411 C412 1.392 . S
C411 C416 1.356 . S
C412 C411 1.392 . S
C412 C413 1.368 . S
C412 H440 0.929 . S
C413 C412 1.368 . S
C413 C414 1.386 . S
C413 H441 0.929 . S
C414 C413 1.386 . S
C414 C415 1.373 . S
C415 C414 1.373 . S
C415 C416 1.409 . S
C415 H442 0.931 . S
C416 C411 1.356 . S
C416 C415 1.409 . S
C416 H443 0.930 . S
C417 O430 1.270 . S
C417 O431 1.248 . S
C418 O432 1.267 . S
C418 O433 1.278 . S
C419 Pr409 2.880 . S
C419 C420 1.491 . S
C419 O434 1.254 . S
C419 O435 1.225 . S
C420 C419 1.491 . S
C420 C421 1.392 . S
C420 C425 1.356 . S
C421 C420 1.392 . S
C421 C422 1.368 . S
C421 H444 0.929 . S
C422 C421 1.368 . S
C422 C423 1.386 . S
C422 H445 0.929 . S
C423 C422 1.386 . S
C423 C424 1.373 . S
C424 C423 1.373 . S
C424 C425 1.409 . S
C424 H446 0.931 . S
C425 C420 1.356 . S
C425 C424 1.409 . S
C425 H447 0.930 . S
C426 O436 1.270 . S
C426 O437 1.248 . S
C427 O438 1.267 . S
C427 O439 1.278 . S
O428 Pr408 2.578 . S
O428 C410 1.254 . S
O429 Pr408 2.497 . S
O429 C410 1.225 . S
O430 Pr408 2.687 1_454 S
O430 Pr409 2.436 . S
O430 C417 1.270 . S
O431 Pr408 2.503 1_454 S
O431 C417 1.248 . S
O432 Pr409 2.438 1_655 S
O432 C418 1.267 . S
O433 Pr408 2.446 1_554 S
O433 C418 1.278 . S
O434 Pr409 2.562 . S
O434 C419 1.254 . S
O435 Pr409 2.490 . S
O435 C419 1.225 . S
O436 Pr408 2.441 . S
O436 Pr409 2.695 1_656 S
O436 C426 1.270 . S
O437 Pr409 2.512 1_656 S
O437 C426 1.248 . S
O438 Pr408 2.425 1_455 S
O438 C427 1.267 . S
O439 Pr409 2.437 1_556 S
O439 C427 1.278 . S
H440 C412 0.929 . S
H441 C413 0.929 . S
H442 C415 0.931 . S
H443 C416 0.930 . S
H444 C421 0.929 . S
H445 C422 0.929 . S
H446 C424 0.931 . S
H447 C425 0.930 . S
C448 C449 1.391 . S
C448 C450 1.394 . S
C448 H464 0.931 . S
C449 C448 1.391 . S
C449 C453 1.376 . S
C450 C448 1.394 . S
C450 C451 1.369 . S
C450 C454 1.531 . S
C451 C450 1.369 . S
C451 C452 1.410 . S
C451 C459 1.503 . S
C452 C451 1.410 . S
C452 C453 1.392 . S
C452 C455 1.511 . S
C453 C449 1.376 . S
C453 C452 1.392 . S
C453 H465 0.929 . S
C454 C450 1.531 . S
C454 H466 0.960 . S
C454 H467 0.962 . S
C454 H468 0.960 . S
C455 C452 1.511 . S
C455 H469 0.961 . S
C455 H470 0.961 . S
C455 H471 0.961 . S
C456 C457 1.370 . S
C456 C458 1.363 . S
C456 H472 0.931 . S
C457 C456 1.370 . S
C457 C461 1.408 . S
C458 C456 1.363 . S
C458 C459 1.370 . S
C458 C462 1.524 . S
C459 C451 1.503 . S
C459 C458 1.370 . S
C459 C460 1.403 . S
C460 C459 1.403 . S
C460 C461 1.404 . S
C460 C463 1.539 . S
C461 C457 1.408 . S
C461 C460 1.404 . S
C461 H473 0.930 . S
C462 C458 1.524 . S
C462 H474 0.956 . S
C462 H475 0.961 . S
C462 H476 0.961 . S
C463 C460 1.539 . S
C463 H477 0.958 . S
C463 H478 0.961 . S
C463 H479 0.960 . S
H464 C448 0.931 . S
H465 C453 0.929 . S
H466 C454 0.960 . S
H467 C454 0.962 . S
H468 C454 0.960 . S
H469 C455 0.961 . S
H470 C455 0.961 . S
H471 C455 0.961 . S
H472 C456 0.931 . S
H473 C461 0.930 . S
H474 C462 0.956 . S
H475 C462 0.961 . S
H476 C462 0.961 . S
H477 C463 0.958 . S
H478 C463 0.961 . S
H479 C463 0.960 . S
C480 C481 1.391 . S
C480 C482 1.394 . S
C480 H496 0.931 . S
C481 C480 1.391 . S
C481 C485 1.376 . S
C482 C480 1.394 . S
C482 C483 1.369 . S
C482 C486 1.531 . S
C483 C482 1.369 . S
C483 C484 1.410 . S
C483 C491 1.503 . S
C484 C483 1.410 . S
C484 C485 1.392 . S
C484 C487 1.511 . S
C485 C481 1.376 . S
C485 C484 1.392 . S
C485 H497 0.929 . S
C486 C482 1.531 . S
C486 H498 0.960 . S
C486 H499 0.962 . S
C486 H500 0.960 . S
C487 C484 1.511 . S
C487 H501 0.961 . S
C487 H502 0.961 . S
C487 H503 0.961 . S
C488 C489 1.370 . S
C488 C490 1.363 . S
C488 H504 0.931 . S
C489 C488 1.370 . S
C489 C493 1.408 . S
C490 C488 1.363 . S
C490 C491 1.370 . S
C490 C494 1.524 . S
C491 C483 1.503 . S
C491 C490 1.370 . S
C491 C492 1.403 . S
C492 C491 1.403 . S
C492 C493 1.404 . S
C492 C495 1.539 . S
C493 C489 1.408 . S
C493 C492 1.404 . S
C493 H505 0.930 . S
C494 C490 1.524 . S
C494 H506 0.956 . S
C494 H507 0.961 . S
C494 H508 0.961 . S
C495 C492 1.539 . S
C495 H509 0.958 . S
C495 H510 0.961 . S
C495 H511 0.960 . S
H496 C480 0.931 . S
H497 C485 0.929 . S
H498 C486 0.960 . S
H499 C486 0.962 . S
H500 C486 0.960 . S
H501 C487 0.961 . S
H502 C487 0.961 . S
H503 C487 0.961 . S
H504 C488 0.931 . S
H505 C493 0.930 . S
H506 C494 0.956 . S
H507 C494 0.961 . S
H508 C494 0.961 . S
H509 C495 0.958 . S
H510 C495 0.961 . S
H511 C495 0.960 . S
C512 C513 1.391 . S
C512 C514 1.394 . S
C512 H528 0.931 . S
C513 C512 1.391 . S
C513 C517 1.376 . S
C514 C512 1.394 . S
C514 C515 1.369 . S
C514 C518 1.531 . S
C515 C514 1.369 . S
C515 C516 1.410 . S
C515 C523 1.503 . S
C516 C515 1.410 . S
C516 C517 1.392 . S
C516 C519 1.511 . S
C517 C513 1.376 . S
C517 C516 1.392 . S
C517 H529 0.929 . S
C518 C514 1.531 . S
C518 H530 0.960 . S
C518 H531 0.962 . S
C518 H532 0.960 . S
C519 C516 1.511 . S
C519 H533 0.961 . S
C519 H534 0.961 . S
C519 H535 0.961 . S
C520 C521 1.370 . S
C520 C522 1.363 . S
C520 H536 0.931 . S
C521 C520 1.370 . S
C521 C525 1.408 . S
C522 C520 1.363 . S
C522 C523 1.370 . S
C522 C526 1.524 . S
C523 C515 1.503 . S
C523 C522 1.370 . S
C523 C524 1.403 . S
C524 C523 1.403 . S
C524 C525 1.404 . S
C524 C527 1.539 . S
C525 C521 1.408 . S
C525 C524 1.404 . S
C525 H537 0.930 . S
C526 C522 1.524 . S
C526 H538 0.956 . S
C526 H539 0.961 . S
C526 H540 0.961 . S
C527 C524 1.539 . S
C527 H541 0.958 . S
C527 H542 0.961 . S
C527 H543 0.960 . S
H528 C512 0.931 . S
H529 C517 0.929 . S
H530 C518 0.960 . S
H531 C518 0.962 . S
H532 C518 0.960 . S
H533 C519 0.961 . S
H534 C519 0.961 . S
H535 C519 0.961 . S
H536 C520 0.931 . S
H537 C525 0.930 . S
H538 C526 0.956 . S
H539 C526 0.961 . S
H540 C526 0.961 . S
H541 C527 0.958 . S
H542 C527 0.961 . S
H543 C527 0.960 . S
C544 C545 1.391 . S
C544 C546 1.394 . S
C544 H560 0.931 . S
C545 C544 1.391 . S
C545 C549 1.376 . S
C546 C544 1.394 . S
C546 C547 1.369 . S
C546 C550 1.531 . S
C547 C546 1.369 . S
C547 C548 1.410 . S
C547 C555 1.503 . S
C548 C547 1.410 . S
C548 C549 1.392 . S
C548 C551 1.511 . S
C549 C545 1.376 . S
C549 C548 1.392 . S
C549 H561 0.929 . S
C550 C546 1.531 . S
C550 H562 0.960 . S
C550 H563 0.962 . S
C550 H564 0.960 . S
C551 C548 1.511 . S
C551 H565 0.961 . S
C551 H566 0.961 . S
C551 H567 0.961 . S
C552 C553 1.370 . S
C552 C554 1.363 . S
C552 H568 0.931 . S
C553 C552 1.370 . S
C553 C557 1.408 . S
C554 C552 1.363 . S
C554 C555 1.370 . S
C554 C558 1.524 . S
C555 C547 1.503 . S
C555 C554 1.370 . S
C555 C556 1.403 . S
C556 C555 1.403 . S
C556 C557 1.404 . S
C556 C559 1.539 . S
C557 C553 1.408 . S
C557 C556 1.404 . S
C557 H569 0.930 . S
C558 C554 1.524 . S
C558 H570 0.956 . S
C558 H571 0.961 . S
C558 H572 0.961 . S
C559 C556 1.539 . S
C559 H573 0.958 . S
C559 H574 0.961 . S
C559 H575 0.960 . S
H560 C544 0.931 . S
H561 C549 0.929 . S
H562 C550 0.960 . S
H563 C550 0.962 . S
H564 C550 0.960 . S
H565 C551 0.961 . S
H566 C551 0.961 . S
H567 C551 0.961 . S
H568 C552 0.931 . S
H569 C557 0.930 . S
H570 C558 0.956 . S
H571 C558 0.961 . S
H572 C558 0.961 . S
H573 C559 0.958 . S
H574 C559 0.961 . S
H575 C559 0.960 . S
C576 C577 1.391 . S
C576 C578 1.394 . S
C576 H592 0.931 . S
C577 C576 1.391 . S
C577 C581 1.376 . S
C578 C576 1.394 . S
C578 C579 1.369 . S
C578 C582 1.531 . S
C579 C578 1.369 . S
C579 C580 1.410 . S
C579 C587 1.503 . S
C580 C579 1.410 . S
C580 C581 1.392 . S
C580 C583 1.511 . S
C581 C577 1.376 . S
C581 C580 1.392 . S
C581 H593 0.929 . S
C582 C578 1.531 . S
C582 H594 0.960 . S
C582 H595 0.962 . S
C582 H596 0.960 . S
C583 C580 1.511 . S
C583 H597 0.961 . S
C583 H598 0.961 . S
C583 H599 0.961 . S
C584 C585 1.370 . S
C584 C586 1.363 . S
C584 H600 0.931 . S
C585 C584 1.370 . S
C585 C589 1.408 . S
C586 C584 1.363 . S
C586 C587 1.370 . S
C586 C590 1.524 . S
C587 C579 1.503 . S
C587 C586 1.370 . S
C587 C588 1.403 . S
C588 C587 1.403 . S
C588 C589 1.404 . S
C588 C591 1.539 . S
C589 C585 1.408 . S
C589 C588 1.404 . S
C589 H601 0.930 . S
C590 C586 1.524 . S
C590 H602 0.956 . S
C590 H603 0.961 . S
C590 H604 0.961 . S
C591 C588 1.539 . S
C591 H605 0.958 . S
C591 H606 0.961 . S
C591 H607 0.960 . S
H592 C576 0.931 . S
H593 C581 0.929 . S
H594 C582 0.960 . S
H595 C582 0.962 . S
H596 C582 0.960 . S
H597 C583 0.961 . S
H598 C583 0.961 . S
H599 C583 0.961 . S
H600 C584 0.931 . S
H601 C589 0.930 . S
H602 C590 0.956 . S
H603 C590 0.961 . S
H604 C590 0.961 . S
H605 C591 0.958 . S
H606 C591 0.961 . S
H607 C591 0.960 . S
C608 C609 1.391 . S
C608 C610 1.394 . S
C608 H624 0.931 . S
C609 C608 1.391 . S
C609 C613 1.376 . S
C610 C608 1.394 . S
C610 C611 1.369 . S
C610 C614 1.531 . S
C611 C610 1.369 . S
C611 C612 1.410 . S
C611 C619 1.503 . S
C612 C611 1.410 . S
C612 C613 1.392 . S
C612 C615 1.511 . S
C613 C609 1.376 . S
C613 C612 1.392 . S
C613 H625 0.929 . S
C614 C610 1.531 . S
C614 H626 0.960 . S
C614 H627 0.962 . S
C614 H628 0.960 . S
C615 C612 1.511 . S
C615 H629 0.961 . S
C615 H630 0.961 . S
C615 H631 0.961 . S
C616 C617 1.370 . S
C616 C618 1.363 . S
C616 H632 0.931 . S
C617 C616 1.370 . S
C617 C621 1.408 . S
C618 C616 1.363 . S
C618 C619 1.370 . S
C618 C622 1.524 . S
C619 C611 1.503 . S
C619 C618 1.370 . S
C619 C620 1.403 . S
C620 C619 1.403 . S
C620 C621 1.404 . S
C620 C623 1.539 . S
C621 C617 1.408 . S
C621 C620 1.404 . S
C621 H633 0.930 . S
C622 C618 1.524 . S
C622 H634 0.956 . S
C622 H635 0.961 . S
C622 H636 0.961 . S
C623 C620 1.539 . S
C623 H637 0.958 . S
C623 H638 0.961 . S
C623 H639 0.960 . S
H624 C608 0.931 . S
H625 C613 0.929 . S
H626 C614 0.960 . S
H627 C614 0.962 . S
H628 C614 0.960 . S
H629 C615 0.961 . S
H630 C615 0.961 . S
H631 C615 0.961 . S
H632 C616 0.931 . S
H633 C621 0.930 . S
H634 C622 0.956 . S
H635 C622 0.961 . S
H636 C622 0.961 . S
H637 C623 0.958 . S
H638 C623 0.961 . S
H639 C623 0.960 . S
C640 C641 1.391 . S
C640 C642 1.394 . S
C640 H656 0.931 . S
C641 C640 1.391 . S
C641 C645 1.376 . S
C642 C640 1.394 . S
C642 C643 1.369 . S
C642 C646 1.531 . S
C643 C642 1.369 . S
C643 C644 1.410 . S
C643 C651 1.503 . S
C644 C643 1.410 . S
C644 C645 1.392 . S
C644 C647 1.511 . S
C645 C641 1.376 . S
C645 C644 1.392 . S
C645 H657 0.929 . S
C646 C642 1.531 . S
C646 H658 0.960 . S
C646 H659 0.962 . S
C646 H660 0.960 . S
C647 C644 1.511 . S
C647 H661 0.961 . S
C647 H662 0.961 . S
C647 H663 0.961 . S
C648 C649 1.370 . S
C648 C650 1.363 . S
C648 H664 0.931 . S
C649 C648 1.370 . S
C649 C653 1.408 . S
C650 C648 1.363 . S
C650 C651 1.370 . S
C650 C654 1.524 . S
C651 C643 1.503 . S
C651 C650 1.370 . S
C651 C652 1.403 . S
C652 C651 1.403 . S
C652 C653 1.404 . S
C652 C655 1.539 . S
C653 C649 1.408 . S
C653 C652 1.404 . S
C653 H665 0.930 . S
C654 C650 1.524 . S
C654 H666 0.956 . S
C654 H667 0.961 . S
C654 H668 0.961 . S
C655 C652 1.539 . S
C655 H669 0.958 . S
C655 H670 0.961 . S
C655 H671 0.960 . S
H656 C640 0.931 . S
H657 C645 0.929 . S
H658 C646 0.960 . S
H659 C646 0.962 . S
H660 C646 0.960 . S
H661 C647 0.961 . S
H662 C647 0.961 . S
H663 C647 0.961 . S
H664 C648 0.931 . S
H665 C653 0.930 . S
H666 C654 0.956 . S
H667 C654 0.961 . S
H668 C654 0.961 . S
H669 C655 0.958 . S
H670 C655 0.961 . S
H671 C655 0.960 . S
C672 C673 1.391 . S
C672 C674 1.394 . S
C672 H688 0.931 . S
C673 C672 1.391 . S
C673 C677 1.376 . S
C674 C672 1.394 . S
C674 C675 1.369 . S
C674 C678 1.531 . S
C675 C674 1.369 . S
C675 C676 1.410 . S
C675 C683 1.503 . S
C676 C675 1.410 . S
C676 C677 1.392 . S
C676 C679 1.511 . S
C677 C673 1.376 . S
C677 C676 1.392 . S
C677 H689 0.929 . S
C678 C674 1.531 . S
C678 H690 0.960 . S
C678 H691 0.962 . S
C678 H692 0.960 . S
C679 C676 1.511 . S
C679 H693 0.961 . S
C679 H694 0.961 . S
C679 H695 0.961 . S
C680 C681 1.370 . S
C680 C682 1.363 . S
C680 H696 0.931 . S
C681 C680 1.370 . S
C681 C685 1.408 . S
C682 C680 1.363 . S
C682 C683 1.370 . S
C682 C686 1.524 . S
C683 C675 1.503 . S
C683 C682 1.370 . S
C683 C684 1.403 . S
C684 C683 1.403 . S
C684 C685 1.404 . S
C684 C687 1.539 . S
C685 C681 1.408 . S
C685 C684 1.404 . S
C685 H697 0.930 . S
C686 C682 1.524 . S
C686 H698 0.956 . S
C686 H699 0.961 . S
C686 H700 0.961 . S
C687 C684 1.539 . S
C687 H701 0.958 . S
C687 H702 0.961 . S
C687 H703 0.960 . S
H688 C672 0.931 . S
H689 C677 0.929 . S
H690 C678 0.960 . S
H691 C678 0.962 . S
H692 C678 0.960 . S
H693 C679 0.961 . S
H694 C679 0.961 . S
H695 C679 0.961 . S
H696 C680 0.931 . S
H697 C685 0.930 . S
H698 C686 0.956 . S
H699 C686 0.961 . S
H700 C686 0.961 . S
H701 C687 0.958 . S
H702 C687 0.961 . S
H703 C687 0.960 . S
C704 C705 1.391 . S
C704 C706 1.394 . S
C704 H720 0.931 . S
C705 C704 1.391 . S
C705 C709 1.376 . S
C706 C704 1.394 . S
C706 C707 1.369 . S
C706 C710 1.531 . S
C707 C706 1.369 . S
C707 C708 1.410 . S
C707 C715 1.503 . S
C708 C707 1.410 . S
C708 C709 1.392 . S
C708 C711 1.511 . S
C709 C705 1.376 . S
C709 C708 1.392 . S
C709 H721 0.929 . S
C710 C706 1.531 . S
C710 H722 0.960 . S
C710 H723 0.962 . S
C710 H724 0.960 . S
C711 C708 1.511 . S
C711 H725 0.961 . S
C711 H726 0.961 . S
C711 H727 0.961 . S
C712 C713 1.370 . S
C712 C714 1.363 . S
C712 H728 0.931 . S
C713 C712 1.370 . S
C713 C717 1.408 . S
C714 C712 1.363 . S
C714 C715 1.370 . S
C714 C718 1.524 . S
C715 C707 1.503 . S
C715 C714 1.370 . S
C715 C716 1.403 . S
C716 C715 1.403 . S
C716 C717 1.404 . S
C716 C719 1.539 . S
C717 C713 1.408 . S
C717 C716 1.404 . S
C717 H729 0.930 . S
C718 C714 1.524 . S
C718 H730 0.956 . S
C718 H731 0.961 . S
C718 H732 0.961 . S
C719 C716 1.539 . S
C719 H733 0.958 . S
C719 H734 0.961 . S
C719 H735 0.960 . S
H720 C704 0.931 . S
H721 C709 0.929 . S
H722 C710 0.960 . S
H723 C710 0.962 . S
H724 C710 0.960 . S
H725 C711 0.961 . S
H726 C711 0.961 . S
H727 C711 0.961 . S
H728 C712 0.931 . S
H729 C717 0.930 . S
H730 C718 0.956 . S
H731 C718 0.961 . S
H732 C718 0.961 . S
H733 C719 0.958 . S
H734 C719 0.961 . S
H735 C719 0.960 . S
C736 C737 1.391 . S
C736 C738 1.394 . S
C736 H752 0.931 . S
C737 C736 1.391 . S
C737 C741 1.376 . S
C738 C736 1.394 . S
C738 C739 1.369 . S
C738 C742 1.531 . S
C739 C738 1.369 . S
C739 C740 1.410 . S
C739 C747 1.503 . S
C740 C739 1.410 . S
C740 C741 1.392 . S
C740 C743 1.511 . S
C741 C737 1.376 . S
C741 C740 1.392 . S
C741 H753 0.929 . S
C742 C738 1.531 . S
C742 H754 0.960 . S
C742 H755 0.962 . S
C742 H756 0.960 . S
C743 C740 1.511 . S
C743 H757 0.961 . S
C743 H758 0.961 . S
C743 H759 0.961 . S
C744 C745 1.370 . S
C744 C746 1.363 . S
C744 H760 0.931 . S
C745 C744 1.370 . S
C745 C749 1.408 . S
C746 C744 1.363 . S
C746 C747 1.370 . S
C746 C750 1.524 . S
C747 C739 1.503 . S
C747 C746 1.370 . S
C747 C748 1.403 . S
C748 C747 1.403 . S
C748 C749 1.404 . S
C748 C751 1.539 . S
C749 C745 1.408 . S
C749 C748 1.404 . S
C749 H761 0.930 . S
C750 C746 1.524 . S
C750 H762 0.956 . S
C750 H763 0.961 . S
C750 H764 0.961 . S
C751 C748 1.539 . S
C751 H765 0.958 . S
C751 H766 0.961 . S
C751 H767 0.960 . S
H752 C736 0.931 . S
H753 C741 0.929 . S
H754 C742 0.960 . S
H755 C742 0.962 . S
H756 C742 0.960 . S
H757 C743 0.961 . S
H758 C743 0.961 . S
H759 C743 0.961 . S
H760 C744 0.931 . S
H761 C749 0.930 . S
H762 C750 0.956 . S
H763 C750 0.961 . S
H764 C750 0.961 . S
H765 C751 0.958 . S
H766 C751 0.961 . S
H767 C751 0.960 . S
C768 C769 1.391 . S
C768 C770 1.394 . S
C768 H784 0.931 . S
C769 C768 1.391 . S
C769 C773 1.376 . S
C770 C768 1.394 . S
C770 C771 1.369 . S
C770 C774 1.531 . S
C771 C770 1.369 . S
C771 C772 1.410 . S
C771 C779 1.503 . S
C772 C771 1.410 . S
C772 C773 1.392 . S
C772 C775 1.511 . S
C773 C769 1.376 . S
C773 C772 1.392 . S
C773 H785 0.929 . S
C774 C770 1.531 . S
C774 H786 0.960 . S
C774 H787 0.962 . S
C774 H788 0.960 . S
C775 C772 1.511 . S
C775 H789 0.961 . S
C775 H790 0.961 . S
C775 H791 0.961 . S
C776 C777 1.370 . S
C776 C778 1.363 . S
C776 H792 0.931 . S
C777 C776 1.370 . S
C777 C781 1.408 . S
C778 C776 1.363 . S
C778 C779 1.370 . S
C778 C782 1.524 . S
C779 C771 1.503 . S
C779 C778 1.370 . S
C779 C780 1.403 . S
C780 C779 1.403 . S
C780 C781 1.404 . S
C780 C783 1.539 . S
C781 C777 1.408 . S
C781 C780 1.404 . S
C781 H793 0.930 . S
C782 C778 1.524 . S
C782 H794 0.956 . S
C782 H795 0.961 . S
C782 H796 0.961 . S
C783 C780 1.539 . S
C783 H797 0.958 . S
C783 H798 0.961 . S
C783 H799 0.960 . S
H784 C768 0.931 . S
H785 C773 0.929 . S
H786 C774 0.960 . S
H787 C774 0.962 . S
H788 C774 0.960 . S
H789 C775 0.961 . S
H790 C775 0.961 . S
H791 C775 0.961 . S
H792 C776 0.931 . S
H793 C781 0.930 . S
H794 C782 0.956 . S
H795 C782 0.961 . S
H796 C782 0.961 . S
H797 C783 0.958 . S
H798 C783 0.961 . S
H799 C783 0.960 . S
C800 C801 1.391 . S
C800 C802 1.394 . S
C800 H816 0.931 . S
C801 C800 1.391 . S
C801 C805 1.376 . S
C802 C800 1.394 . S
C802 C803 1.369 . S
C802 C806 1.531 . S
C803 C802 1.369 . S
C803 C804 1.410 . S
C803 C811 1.503 . S
C804 C803 1.410 . S
C804 C805 1.392 . S
C804 C807 1.511 . S
C805 C801 1.376 . S
C805 C804 1.392 . S
C805 H817 0.929 . S
C806 C802 1.531 . S
C806 H818 0.960 . S
C806 H819 0.962 . S
C806 H820 0.960 . S
C807 C804 1.511 . S
C807 H821 0.961 . S
C807 H822 0.961 . S
C807 H823 0.961 . S
C808 C809 1.370 . S
C808 C810 1.363 . S
C808 H824 0.931 . S
C809 C808 1.370 . S
C809 C813 1.408 . S
C810 C808 1.363 . S
C810 C811 1.370 . S
C810 C814 1.524 . S
C811 C803 1.503 . S
C811 C810 1.370 . S
C811 C812 1.403 . S
C812 C811 1.403 . S
C812 C813 1.404 . S
C812 C815 1.539 . S
C813 C809 1.408 . S
C813 C812 1.404 . S
C813 H825 0.930 . S
C814 C810 1.524 . S
C814 H826 0.956 . S
C814 H827 0.961 . S
C814 H828 0.961 . S
C815 C812 1.539 . S
C815 H829 0.958 . S
C815 H830 0.961 . S
C815 H831 0.960 . S
H816 C800 0.931 . S
H817 C805 0.929 . S
H818 C806 0.960 . S
H819 C806 0.962 . S
H820 C806 0.960 . S
H821 C807 0.961 . S
H822 C807 0.961 . S
H823 C807 0.961 . S
H824 C808 0.931 . S
H825 C813 0.930 . S
H826 C814 0.956 . S
H827 C814 0.961 . S
H828 C814 0.961 . S
H829 C815 0.958 . S
H830 C815 0.961 . S
H831 C815 0.960 . S
C832 C833 1.391 . S
C832 C834 1.394 . S
C832 H848 0.931 . S
C833 C832 1.391 . S
C833 C837 1.376 . S
C834 C832 1.394 . S
C834 C835 1.369 . S
C834 C838 1.531 . S
C835 C834 1.369 . S
C835 C836 1.410 . S
C835 C843 1.503 . S
C836 C835 1.410 . S
C836 C837 1.392 . S
C836 C839 1.511 . S
C837 C833 1.376 . S
C837 C836 1.392 . S
C837 H849 0.929 . S
C838 C834 1.531 . S
C838 H850 0.960 . S
C838 H851 0.962 . S
C838 H852 0.960 . S
C839 C836 1.511 . S
C839 H853 0.961 . S
C839 H854 0.961 . S
C839 H855 0.961 . S
C840 C841 1.370 . S
C840 C842 1.363 . S
C840 H856 0.931 . S
C841 C840 1.370 . S
C841 C845 1.408 . S
C842 C840 1.363 . S
C842 C843 1.370 . S
C842 C846 1.524 . S
C843 C835 1.503 . S
C843 C842 1.370 . S
C843 C844 1.403 . S
C844 C843 1.403 . S
C844 C845 1.404 . S
C844 C847 1.539 . S
C845 C841 1.408 . S
C845 C844 1.404 . S
C845 H857 0.930 . S
C846 C842 1.524 . S
C846 H858 0.956 . S
C846 H859 0.961 . S
C846 H860 0.961 . S
C847 C844 1.539 . S
C847 H861 0.958 . S
C847 H862 0.961 . S
C847 H863 0.960 . S
H848 C832 0.931 . S
H849 C837 0.929 . S
H850 C838 0.960 . S
H851 C838 0.962 . S
H852 C838 0.960 . S
H853 C839 0.961 . S
H854 C839 0.961 . S
H855 C839 0.961 . S
H856 C840 0.931 . S
H857 C845 0.930 . S
H858 C846 0.956 . S
H859 C846 0.961 . S
H860 C846 0.961 . S
H861 C847 0.958 . S
H862 C847 0.961 . S
H863 C847 0.960 . S
C864 C865 1.391 . S
C864 C866 1.394 . S
C864 H880 0.931 . S
C865 C864 1.391 . S
C865 C869 1.376 . S
C866 C864 1.394 . S
C866 C867 1.369 . S
C866 C870 1.531 . S
C867 C866 1.369 . S
C867 C868 1.410 . S
C867 C875 1.503 . S
C868 C867 1.410 . S
C868 C869 1.392 . S
C868 C871 1.511 . S
C869 C865 1.376 . S
C869 C868 1.392 . S
C869 H881 0.929 . S
C870 C866 1.531 . S
C870 H882 0.960 . S
C870 H883 0.962 . S
C870 H884 0.960 . S
C871 C868 1.511 . S
C871 H885 0.961 . S
C871 H886 0.961 . S
C871 H887 0.961 . S
C872 C873 1.370 . S
C872 C874 1.363 . S
C872 H888 0.931 . S
C873 C872 1.370 . S
C873 C877 1.408 . S
C874 C872 1.363 . S
C874 C875 1.370 . S
C874 C878 1.524 . S
C875 C867 1.503 . S
C875 C874 1.370 . S
C875 C876 1.403 . S
C876 C875 1.403 . S
C876 C877 1.404 . S
C876 C879 1.539 . S
C877 C873 1.408 . S
C877 C876 1.404 . S
C877 H889 0.930 . S
C878 C874 1.524 . S
C878 H890 0.956 . S
C878 H891 0.961 . S
C878 H892 0.961 . S
C879 C876 1.539 . S
C879 H893 0.958 . S
C879 H894 0.961 . S
C879 H895 0.960 . S
H880 C864 0.931 . S
H881 C869 0.929 . S
H882 C870 0.960 . S
H883 C870 0.962 . S
H884 C870 0.960 . S
H885 C871 0.961 . S
H886 C871 0.961 . S
H887 C871 0.961 . S
H888 C872 0.931 . S
H889 C877 0.930 . S
H890 C878 0.956 . S
H891 C878 0.961 . S
H892 C878 0.961 . S
H893 C879 0.958 . S
H894 C879 0.961 . S
H895 C879 0.960 . S
C896 C897 1.391 . S
C896 C898 1.394 . S
C896 H912 0.931 . S
C897 C896 1.391 . S
C897 C901 1.376 . S
C898 C896 1.394 . S
C898 C899 1.369 . S
C898 C902 1.531 . S
C899 C898 1.369 . S
C899 C900 1.410 . S
C899 C907 1.503 . S
C900 C899 1.410 . S
C900 C901 1.392 . S
C900 C903 1.511 . S
C901 C897 1.376 . S
C901 C900 1.392 . S
C901 H913 0.929 . S
C902 C898 1.531 . S
C902 H914 0.960 . S
C902 H915 0.962 . S
C902 H916 0.960 . S
C903 C900 1.511 . S
C903 H917 0.961 . S
C903 H918 0.961 . S
C903 H919 0.961 . S
C904 C905 1.370 . S
C904 C906 1.363 . S
C904 H920 0.931 . S
C905 C904 1.370 . S
C905 C909 1.408 . S
C906 C904 1.363 . S
C906 C907 1.370 . S
C906 C910 1.524 . S
C907 C899 1.503 . S
C907 C906 1.370 . S
C907 C908 1.403 . S
C908 C907 1.403 . S
C908 C909 1.404 . S
C908 C911 1.539 . S
C909 C905 1.408 . S
C909 C908 1.404 . S
C909 H921 0.930 . S
C910 C906 1.524 . S
C910 H922 0.956 . S
C910 H923 0.961 . S
C910 H924 0.961 . S
C911 C908 1.539 . S
C911 H925 0.958 . S
C911 H926 0.961 . S
C911 H927 0.960 . S
H912 C896 0.931 . S
H913 C901 0.929 . S
H914 C902 0.960 . S
H915 C902 0.962 . S
H916 C902 0.960 . S
H917 C903 0.961 . S
H918 C903 0.961 . S
H919 C903 0.961 . S
H920 C904 0.931 . S
H921 C909 0.930 . S
H922 C910 0.956 . S
H923 C910 0.961 . S
H924 C910 0.961 . S
H925 C911 0.958 . S
H926 C911 0.961 . S
H927 C911 0.960 . S
C928 C929 1.391 . S
C928 C930 1.394 . S
C928 H944 0.931 . S
C929 C928 1.391 . S
C929 C933 1.376 . S
C930 C928 1.394 . S
C930 C931 1.369 . S
C930 C934 1.531 . S
C931 C930 1.369 . S
C931 C932 1.410 . S
C931 C939 1.503 . S
C932 C931 1.410 . S
C932 C933 1.392 . S
C932 C935 1.511 . S
C933 C929 1.376 . S
C933 C932 1.392 . S
C933 H945 0.929 . S
C934 C930 1.531 . S
C934 H946 0.960 . S
C934 H947 0.962 . S
C934 H948 0.960 . S
C935 C932 1.511 . S
C935 H949 0.961 . S
C935 H950 0.961 . S
C935 H951 0.961 . S
C936 C937 1.370 . S
C936 C938 1.363 . S
C936 H952 0.931 . S
C937 C936 1.370 . S
C937 C941 1.408 . S
C938 C936 1.363 . S
C938 C939 1.370 . S
C938 C942 1.524 . S
C939 C931 1.503 . S
C939 C938 1.370 . S
C939 C940 1.403 . S
C940 C939 1.403 . S
C940 C941 1.404 . S
C940 C943 1.539 . S
C941 C937 1.408 . S
C941 C940 1.404 . S
C941 H953 0.930 . S
C942 C938 1.524 . S
C942 H954 0.956 . S
C942 H955 0.961 . S
C942 H956 0.961 . S
C943 C940 1.539 . S
C943 H957 0.958 . S
C943 H958 0.961 . S
C943 H959 0.960 . S
H944 C928 0.931 . S
H945 C933 0.929 . S
H946 C934 0.960 . S
H947 C934 0.962 . S
H948 C934 0.960 . S
H949 C935 0.961 . S
H950 C935 0.961 . S
H951 C935 0.961 . S
H952 C936 0.931 . S
H953 C941 0.930 . S
H954 C942 0.956 . S
H955 C942 0.961 . S
H956 C942 0.961 . S
H957 C943 0.958 . S
H958 C943 0.961 . S
H959 C943 0.960 . S
C960 C961 1.391 . S
C960 C962 1.394 . S
C960 H976 0.931 . S
C961 C960 1.391 . S
C961 C965 1.376 . S
C962 C960 1.394 . S
C962 C963 1.369 . S
C962 C966 1.531 . S
C963 C962 1.369 . S
C963 C964 1.410 . S
C963 C971 1.503 . S
C964 C963 1.410 . S
C964 C965 1.392 . S
C964 C967 1.511 . S
C965 C961 1.376 . S
C965 C964 1.392 . S
C965 H977 0.929 . S
C966 C962 1.531 . S
C966 H978 0.960 . S
C966 H979 0.962 . S
C966 H980 0.960 . S
C967 C964 1.511 . S
C967 H981 0.961 . S
C967 H982 0.961 . S
C967 H983 0.961 . S
C968 C969 1.370 . S
C968 C970 1.363 . S
C968 H984 0.931 . S
C969 C968 1.370 . S
C969 C973 1.408 . S
C970 C968 1.363 . S
C970 C971 1.370 . S
C970 C974 1.524 . S
C971 C963 1.503 . S
C971 C970 1.370 . S
C971 C972 1.403 . S
C972 C971 1.403 . S
C972 C973 1.404 . S
C972 C975 1.539 . S
C973 C969 1.408 . S
C973 C972 1.404 . S
C973 H985 0.930 . S
C974 C970 1.524 . S
C974 H986 0.956 . S
C974 H987 0.961 . S
C974 H988 0.961 . S
C975 C972 1.539 . S
C975 H989 0.958 . S
C975 H990 0.961 . S
C975 H991 0.960 . S
H976 C960 0.931 . S
H977 C965 0.929 . S
H978 C966 0.960 . S
H979 C966 0.962 . S
H980 C966 0.960 . S
H981 C967 0.961 . S
H982 C967 0.961 . S
H983 C967 0.961 . S
H984 C968 0.931 . S
H985 C973 0.930 . S
H986 C974 0.956 . S
H987 C974 0.961 . S
H988 C974 0.961 . S
H989 C975 0.958 . S
H990 C975 0.961 . S
H991 C975 0.960 . S
C992 C993 1.391 . S
C992 C994 1.394 . S
C992 H1008 0.931 . S
C993 C992 1.391 . S
C993 C997 1.376 . S
C994 C992 1.394 . S
C994 C995 1.369 . S
C994 C998 1.531 . S
C995 C994 1.369 . S
C995 C996 1.410 . S
C995 C1003 1.503 . S
C996 C995 1.410 . S
C996 C997 1.392 . S
C996 C999 1.511 . S
C997 C993 1.376 . S
C997 C996 1.392 . S
C997 H1009 0.929 . S
C998 C994 1.531 . S
C998 H1010 0.960 . S
C998 H1011 0.962 . S
C998 H1012 0.960 . S
C999 C996 1.511 . S
C999 H1013 0.961 . S
C999 H1014 0.961 . S
C999 H1015 0.961 . S
C1000 C1001 1.370 . S
C1000 C1002 1.363 . S
C1000 H1016 0.931 . S
C1001 C1000 1.370 . S
C1001 C1005 1.408 . S
C1002 C1000 1.363 . S
C1002 C1003 1.370 . S
C1002 C1006 1.524 . S
C1003 C995 1.503 . S
C1003 C1002 1.370 . S
C1003 C1004 1.403 . S
C1004 C1003 1.403 . S
C1004 C1005 1.404 . S
C1004 C1007 1.539 . S
C1005 C1001 1.408 . S
C1005 C1004 1.404 . S
C1005 H1017 0.930 . S
C1006 C1002 1.524 . S
C1006 H1018 0.956 . S
C1006 H1019 0.961 . S
C1006 H1020 0.961 . S
C1007 C1004 1.539 . S
C1007 H1021 0.958 . S
C1007 H1022 0.961 . S
C1007 H1023 0.960 . S
H1008 C992 0.931 . S
H1009 C997 0.929 . S
H1010 C998 0.960 . S
H1011 C998 0.962 . S
H1012 C998 0.960 . S
H1013 C999 0.961 . S
H1014 C999 0.961 . S
H1015 C999 0.961 . S
H1016 C1000 0.931 . S
H1017 C1005 0.930 . S
H1018 C1006 0.956 . S
H1019 C1006 0.961 . S
H1020 C1006 0.961 . S
H1021 C1007 0.958 . S
H1022 C1007 0.961 . S
H1023 C1007 0.960 . S
C1024 C1025 1.391 . S
C1024 C1026 1.394 . S
C1024 H1040 0.931 . S
C1025 C1024 1.391 . S
C1025 C1029 1.376 . S
C1026 C1024 1.394 . S
C1026 C1027 1.369 . S
C1026 C1030 1.531 . S
C1027 C1026 1.369 . S
C1027 C1028 1.410 . S
C1027 C1035 1.503 . S
C1028 C1027 1.410 . S
C1028 C1029 1.392 . S
C1028 C1031 1.511 . S
C1029 C1025 1.376 . S
C1029 C1028 1.392 . S
C1029 H1041 0.929 . S
C1030 C1026 1.531 . S
C1030 H1042 0.960 . S
C1030 H1043 0.962 . S
C1030 H1044 0.960 . S
C1031 C1028 1.511 . S
C1031 H1045 0.961 . S
C1031 H1046 0.961 . S
C1031 H1047 0.961 . S
C1032 C1033 1.370 . S
C1032 C1034 1.363 . S
C1032 H1048 0.931 . S
C1033 C1032 1.370 . S
C1033 C1037 1.408 . S
C1034 C1032 1.363 . S
C1034 C1035 1.370 . S
C1034 C1038 1.524 . S
C1035 C1027 1.503 . S
C1035 C1034 1.370 . S
C1035 C1036 1.403 . S
C1036 C1035 1.403 . S
C1036 C1037 1.404 . S
C1036 C1039 1.539 . S
C1037 C1033 1.408 . S
C1037 C1036 1.404 . S
C1037 H1049 0.930 . S
C1038 C1034 1.524 . S
C1038 H1050 0.956 . S
C1038 H1051 0.961 . S
C1038 H1052 0.961 . S
C1039 C1036 1.539 . S
C1039 H1053 0.958 . S
C1039 H1054 0.961 . S
C1039 H1055 0.960 . S
H1040 C1024 0.931 . S
H1041 C1029 0.929 . S
H1042 C1030 0.960 . S
H1043 C1030 0.962 . S
H1044 C1030 0.960 . S
H1045 C1031 0.961 . S
H1046 C1031 0.961 . S
H1047 C1031 0.961 . S
H1048 C1032 0.931 . S
H1049 C1037 0.930 . S
H1050 C1038 0.956 . S
H1051 C1038 0.961 . S
H1052 C1038 0.961 . S
H1053 C1039 0.958 . S
H1054 C1039 0.961 . S
H1055 C1039 0.960 . S
C1056 C1057 1.391 . S
C1056 C1058 1.394 . S
C1056 H1072 0.931 . S
C1057 C1056 1.391 . S
C1057 C1061 1.376 . S
C1058 C1056 1.394 . S
C1058 C1059 1.369 . S
C1058 C1062 1.531 . S
C1059 C1058 1.369 . S
C1059 C1060 1.410 . S
C1059 C1067 1.503 . S
C1060 C1059 1.410 . S
C1060 C1061 1.392 . S
C1060 C1063 1.511 . S
C1061 C1057 1.376 . S
C1061 C1060 1.392 . S
C1061 H1073 0.929 . S
C1062 C1058 1.531 . S
C1062 H1074 0.960 . S
C1062 H1075 0.962 . S
C1062 H1076 0.960 . S
C1063 C1060 1.511 . S
C1063 H1077 0.961 . S
C1063 H1078 0.961 . S
C1063 H1079 0.961 . S
C1064 C1065 1.370 . S
C1064 C1066 1.363 . S
C1064 H1080 0.931 . S
C1065 C1064 1.370 . S
C1065 C1069 1.408 . S
C1066 C1064 1.363 . S
C1066 C1067 1.370 . S
C1066 C1070 1.524 . S
C1067 C1059 1.503 . S
C1067 C1066 1.370 . S
C1067 C1068 1.403 . S
C1068 C1067 1.403 . S
C1068 C1069 1.404 . S
C1068 C1071 1.539 . S
C1069 C1065 1.408 . S
C1069 C1068 1.404 . S
C1069 H1081 0.930 . S
C1070 C1066 1.524 . S
C1070 H1082 0.956 . S
C1070 H1083 0.961 . S
C1070 H1084 0.961 . S
C1071 C1068 1.539 . S
C1071 H1085 0.958 . S
C1071 H1086 0.961 . S
C1071 H1087 0.960 . S
H1072 C1056 0.931 . S
H1073 C1061 0.929 . S
H1074 C1062 0.960 . S
H1075 C1062 0.962 . S
H1076 C1062 0.960 . S
H1077 C1063 0.961 . S
H1078 C1063 0.961 . S
H1079 C1063 0.961 . S
H1080 C1064 0.931 . S
H1081 C1069 0.930 . S
H1082 C1070 0.956 . S
H1083 C1070 0.961 . S
H1084 C1070 0.961 . S
H1085 C1071 0.958 . S
H1086 C1071 0.961 . S
H1087 C1071 0.960 . S
C1088 C1089 1.391 . S
C1088 C1090 1.394 . S
C1088 H1104 0.931 . S
C1089 C1088 1.391 . S
C1089 C1093 1.376 . S
C1090 C1088 1.394 . S
C1090 C1091 1.369 . S
C1090 C1094 1.531 . S
C1091 C1090 1.369 . S
C1091 C1092 1.410 . S
C1091 C1099 1.503 . S
C1092 C1091 1.410 . S
C1092 C1093 1.392 . S
C1092 C1095 1.511 . S
C1093 C1089 1.376 . S
C1093 C1092 1.392 . S
C1093 H1105 0.929 . S
C1094 C1090 1.531 . S
C1094 H1106 0.960 . S
C1094 H1107 0.962 . S
C1094 H1108 0.960 . S
C1095 C1092 1.511 . S
C1095 H1109 0.961 . S
C1095 H1110 0.961 . S
C1095 H1111 0.961 . S
C1096 C1097 1.370 . S
C1096 C1098 1.363 . S
C1096 H1112 0.931 . S
C1097 C1096 1.370 . S
C1097 C1101 1.408 . S
C1098 C1096 1.363 . S
C1098 C1099 1.370 . S
C1098 C1102 1.524 . S
C1099 C1091 1.503 . S
C1099 C1098 1.370 . S
C1099 C1100 1.403 . S
C1100 C1099 1.403 . S
C1100 C1101 1.404 . S
C1100 C1103 1.539 . S
C1101 C1097 1.408 . S
C1101 C1100 1.404 . S
C1101 H1113 0.930 . S
C1102 C1098 1.524 . S
C1102 H1114 0.956 . S
C1102 H1115 0.961 . S
C1102 H1116 0.961 . S
C1103 C1100 1.539 . S
C1103 H1117 0.958 . S
C1103 H1118 0.961 . S
C1103 H1119 0.960 . S
H1104 C1088 0.931 . S
H1105 C1093 0.929 . S
H1106 C1094 0.960 . S
H1107 C1094 0.962 . S
H1108 C1094 0.960 . S
H1109 C1095 0.961 . S
H1110 C1095 0.961 . S
H1111 C1095 0.961 . S
H1112 C1096 0.931 . S
H1113 C1101 0.930 . S
H1114 C1102 0.956 . S
H1115 C1102 0.961 . S
H1116 C1102 0.961 . S
H1117 C1103 0.958 . S
H1118 C1103 0.961 . S
H1119 C1103 0.960 . S
C1120 C1121 1.391 . S
C1120 C1122 1.394 . S
C1120 H1136 0.931 . S
C1121 C1120 1.391 . S
C1121 C1125 1.376 . S
C1122 C1120 1.394 . S
C1122 C1123 1.369 . S
C1122 C1126 1.531 . S
C1123 C1122 1.369 . S
C1123 C1124 1.410 . S
C1123 C1131 1.503 . S
C1124 C1123 1.410 . S
C1124 C1125 1.392 . S
C1124 C1127 1.511 . S
C1125 C1121 1.376 . S
C1125 C1124 1.392 . S
C1125 H1137 0.929 . S
C1126 C1122 1.531 . S
C1126 H1138 0.960 . S
C1126 H1139 0.962 . S
C1126 H1140 0.960 . S
C1127 C1124 1.511 . S
C1127 H1141 0.961 . S
C1127 H1142 0.961 . S
C1127 H1143 0.961 . S
C1128 C1129 1.370 . S
C1128 C1130 1.363 . S
C1128 H1144 0.931 . S
C1129 C1128 1.370 . S
C1129 C1133 1.408 . S
C1130 C1128 1.363 . S
C1130 C1131 1.370 . S
C1130 C1134 1.524 . S
C1131 C1123 1.503 . S
C1131 C1130 1.370 . S
C1131 C1132 1.403 . S
C1132 C1131 1.403 . S
C1132 C1133 1.404 . S
C1132 C1135 1.539 . S
C1133 C1129 1.408 . S
C1133 C1132 1.404 . S
C1133 H1145 0.930 . S
C1134 C1130 1.524 . S
C1134 H1146 0.956 . S
C1134 H1147 0.961 . S
C1134 H1148 0.961 . S
C1135 C1132 1.539 . S
C1135 H1149 0.958 . S
C1135 H1150 0.961 . S
C1135 H1151 0.960 . S
H1136 C1120 0.931 . S
H1137 C1125 0.929 . S
H1138 C1126 0.960 . S
H1139 C1126 0.962 . S
H1140 C1126 0.960 . S
H1141 C1127 0.961 . S
H1142 C1127 0.961 . S
H1143 C1127 0.961 . S
H1144 C1128 0.931 . S
H1145 C1133 0.930 . S
H1146 C1134 0.956 . S
H1147 C1134 0.961 . S
H1148 C1134 0.961 . S
H1149 C1135 0.958 . S
H1150 C1135 0.961 . S
H1151 C1135 0.960 . S
C1152 C1153 1.391 . S
C1152 C1154 1.394 . S
C1152 H1168 0.931 . S
C1153 C1152 1.391 . S
C1153 C1157 1.376 . S
C1154 C1152 1.394 . S
C1154 C1155 1.369 . S
C1154 C1158 1.531 . S
C1155 C1154 1.369 . S
C1155 C1156 1.410 . S
C1155 C1163 1.503 . S
C1156 C1155 1.410 . S
C1156 C1157 1.392 . S
C1156 C1159 1.511 . S
C1157 C1153 1.376 . S
C1157 C1156 1.392 . S
C1157 H1169 0.929 . S
C1158 C1154 1.531 . S
C1158 H1170 0.960 . S
C1158 H1171 0.962 . S
C1158 H1172 0.960 . S
C1159 C1156 1.511 . S
C1159 H1173 0.961 . S
C1159 H1174 0.961 . S
C1159 H1175 0.961 . S
C1160 C1161 1.370 . S
C1160 C1162 1.363 . S
C1160 H1176 0.931 . S
C1161 C1160 1.370 . S
C1161 C1165 1.408 . S
C1162 C1160 1.363 . S
C1162 C1163 1.370 . S
C1162 C1166 1.524 . S
C1163 C1155 1.503 . S
C1163 C1162 1.370 . S
C1163 C1164 1.403 . S
C1164 C1163 1.403 . S
C1164 C1165 1.404 . S
C1164 C1167 1.539 . S
C1165 C1161 1.408 . S
C1165 C1164 1.404 . S
C1165 H1177 0.930 . S
C1166 C1162 1.524 . S
C1166 H1178 0.956 . S
C1166 H1179 0.961 . S
C1166 H1180 0.961 . S
C1167 C1164 1.539 . S
C1167 H1181 0.958 . S
C1167 H1182 0.961 . S
C1167 H1183 0.960 . S
H1168 C1152 0.931 . S
H1169 C1157 0.929 . S
H1170 C1158 0.960 . S
H1171 C1158 0.962 . S
H1172 C1158 0.960 . S
H1173 C1159 0.961 . S
H1174 C1159 0.961 . S
H1175 C1159 0.961 . S
H1176 C1160 0.931 . S
H1177 C1165 0.930 . S
H1178 C1166 0.956 . S
H1179 C1166 0.961 . S
H1180 C1166 0.961 . S
H1181 C1167 0.958 . S
H1182 C1167 0.961 . S
H1183 C1167 0.960 . S
C1184 C1185 1.391 . S
C1184 C1186 1.394 . S
C1184 H1200 0.931 . S
C1185 C1184 1.391 . S
C1185 C1189 1.376 . S
C1186 C1184 1.394 . S
C1186 C1187 1.369 . S
C1186 C1190 1.531 . S
C1187 C1186 1.369 . S
C1187 C1188 1.410 . S
C1187 C1195 1.503 . S
C1188 C1187 1.410 . S
C1188 C1189 1.392 . S
C1188 C1191 1.511 . S
C1189 C1185 1.376 . S
C1189 C1188 1.392 . S
C1189 H1201 0.929 . S
C1190 C1186 1.531 . S
C1190 H1202 0.960 . S
C1190 H1203 0.962 . S
C1190 H1204 0.960 . S
C1191 C1188 1.511 . S
C1191 H1205 0.961 . S
C1191 H1206 0.961 . S
C1191 H1207 0.961 . S
C1192 C1193 1.370 . S
C1192 C1194 1.363 . S
C1192 H1208 0.931 . S
C1193 C1192 1.370 . S
C1193 C1197 1.408 . S
C1194 C1192 1.363 . S
C1194 C1195 1.370 . S
C1194 C1198 1.524 . S
C1195 C1187 1.503 . S
C1195 C1194 1.370 . S
C1195 C1196 1.403 . S
C1196 C1195 1.403 . S
C1196 C1197 1.404 . S
C1196 C1199 1.539 . S
C1197 C1193 1.408 . S
C1197 C1196 1.404 . S
C1197 H1209 0.930 . S
C1198 C1194 1.524 . S
C1198 H1210 0.956 . S
C1198 H1211 0.961 . S
C1198 H1212 0.961 . S
C1199 C1196 1.539 . S
C1199 H1213 0.958 . S
C1199 H1214 0.961 . S
C1199 H1215 0.960 . S
H1200 C1184 0.931 . S
H1201 C1189 0.929 . S
H1202 C1190 0.960 . S
H1203 C1190 0.962 . S
H1204 C1190 0.960 . S
H1205 C1191 0.961 . S
H1206 C1191 0.961 . S
H1207 C1191 0.961 . S
H1208 C1192 0.931 . S
H1209 C1197 0.930 . S
H1210 C1198 0.956 . S
H1211 C1198 0.961 . S
H1212 C1198 0.961 . S
H1213 C1199 0.958 . S
H1214 C1199 0.961 . S
H1215 C1199 0.960 . S
C449 C1 1.108 . S
C457 C303 1.047 . S
C481 C67 1.651 . S
C489 C347 1.600 . S
C521 C377 2.155 . S
C513 C97 2.148 . S
C545 C133 2.779 . S
C553 C418 2.765 . S
C585 C334 0.754 . S
C577 C25 0.778 . S
C617 C298 2.541 . S
C609 C37 2.509 . S
C649 C426 1.167 . S
C641 C103 1.154 . S
C681 C387 2.257 . S
C673 C109 2.297 . S
C705 C31 1.052 . S
C713 C423 0.995 . S
C745 C337 2.029 . S
C737 C73 2.067 . S
C769 C139 2.115 . S
C777 C306 2.071 . S
C801 C61 1.912 . S
C809 C374 1.942 . S
C841 C294 1.078 . S
C833 C175 0.976 . S
C865 C181 1.642 . S
C873 C338 1.579 . S
C897 C247 2.114 . S
C905 C386 2.176 . S
C929 C277 2.784 . S
C937 C427 2.763 . S
C961 C145 0.803 . S
C969 C343 0.748 . S
C1001 C307 2.547 . S
C993 C211 2.513 . S
C1033 C417 1.150 . S
C1025 C217 1.118 . S
C1065 C378 2.278 . S
C1057 C283 2.267 . S
C1089 C169 1.026 . S
C1097 C414 0.995 . S
C1129 C346 2.050 . S
C1121 C241 2.053 . S
C1161 C297 2.063 . S
C1153 C253 2.086 . S
C1185 C205 1.934 . S
C1193 C383 1.945 . S
