# Generated by pormake.
# Topology llj, (12,3)-cn, num edge types: 1
# Building blocks:
#     Node 0, Type 0, BuildingBlock: QEWDON_clean_sbu_0, # of connection points: 12
#     Node 1, Type 0, BuildingBlock: QEWDON_clean_sbu_0, # of connection points: 12
#     Node 2, Type 1, BuildingBlock: QEWDON_clean_linker_0, # of connection points: 3
#     Node 3, Type 1, BuildingBlock: QEWDON_clean_linker_0, # of connection points: 3
#     Node 4, Type 1, BuildingBlock: QEWDON_clean_linker_0, # of connection points: 3
#     Node 5, Type 1, BuildingBlock: QEWDON_clean_linker_0, # of connection points: 3
#     Node 6, Type 1, BuildingBlock: QEWDON_clean_linker_0, # of connection points: 3
#     Node 7, Type 1, BuildingBlock: QEWDON_clean_linker_0, # of connection points: 3
#     Node 8, Type 1, BuildingBlock: QEWDON_clean_linker_0, # of connection points: 3
#     Node 9, Type 1, BuildingBlock: QEWDON_clean_linker_0, # of connection points: 3
#     Edge 10, Type (0, 1), BuildingBlock: UVAHIK_clean_linker_0, # of connection points: 2
#     Edge 11, Type (0, 1), BuildingBlock: UVAHIK_clean_linker_0, # of connection points: 2
#     Edge 12, Type (0, 1), BuildingBlock: UVAHIK_clean_linker_0, # of connection points: 2
#     Edge 13, Type (0, 1), BuildingBlock: UVAHIK_clean_linker_0, # of connection points: 2
#     Edge 14, Type (0, 1), BuildingBlock: UVAHIK_clean_linker_0, # of connection points: 2
#     Edge 15, Type (0, 1), BuildingBlock: UVAHIK_clean_linker_0, # of connection points: 2
#     Edge 16, Type (0, 1), BuildingBlock: UVAHIK_clean_linker_0, # of connection points: 2
#     Edge 17, Type (0, 1), BuildingBlock: UVAHIK_clean_linker_0, # of connection points: 2
#     Edge 18, Type (0, 1), BuildingBlock: UVAHIK_clean_linker_0, # of connection points: 2
#     Edge 19, Type (0, 1), BuildingBlock: UVAHIK_clean_linker_0, # of connection points: 2
#     Edge 20, Type (0, 1), BuildingBlock: UVAHIK_clean_linker_0, # of connection points: 2
#     Edge 21, Type (0, 1), BuildingBlock: UVAHIK_clean_linker_0, # of connection points: 2
#     Edge 22, Type (0, 1), BuildingBlock: UVAHIK_clean_linker_0, # of connection points: 2
#     Edge 23, Type (0, 1), BuildingBlock: UVAHIK_clean_linker_0, # of connection points: 2
#     Edge 24, Type (0, 1), BuildingBlock: UVAHIK_clean_linker_0, # of connection points: 2
#     Edge 25, Type (0, 1), BuildingBlock: UVAHIK_clean_linker_0, # of connection points: 2
#     Edge 26, Type (0, 1), BuildingBlock: UVAHIK_clean_linker_0, # of connection points: 2
#     Edge 27, Type (0, 1), BuildingBlock: UVAHIK_clean_linker_0, # of connection points: 2
#     Edge 28, Type (0, 1), BuildingBlock: UVAHIK_clean_linker_0, # of connection points: 2
#     Edge 29, Type (0, 1), BuildingBlock: UVAHIK_clean_linker_0, # of connection points: 2
#     Edge 30, Type (0, 1), BuildingBlock: UVAHIK_clean_linker_0, # of connection points: 2
#     Edge 31, Type (0, 1), BuildingBlock: UVAHIK_clean_linker_0, # of connection points: 2
#     Edge 32, Type (0, 1), BuildingBlock: UVAHIK_clean_linker_0, # of connection points: 2
#     Edge 33, Type (0, 1), BuildingBlock: UVAHIK_clean_linker_0, # of connection points: 2
# Relax obj value: 0.027
# Max RMSD: 0.179
# Mean RMSD: 0.154
data_MOF--net-llj--node1-QEWDON_clean_sbu_0--node2-QEWDON_clean_linker_0--edge1-UVAHIK_clean_linker_0
_symmetry_space_group_name_H-M    P1
_symmetry_Int_Tables_number       1
_symmetry_cell_setting            triclinic
loop_
_symmetry_equiv_pos_as_xyz
'x, y, z'
_cell_length_a     51.809104
_cell_length_b     51.796977
_cell_length_c     30.868098
_cell_angle_alpha  91.110481
_cell_angle_beta   91.027246
_cell_angle_gamma 90.195305
loop_
_atom_site_label
_atom_site_type_symbol
_atom_site_fract_x
_atom_site_fract_y
_atom_site_fract_z
_atom_type_partial_charge
Zn0 Zn 0.94576 0.06851 0.95863 0.0
Zn1 Zn 0.95742 0.06697 0.05913 0.0
O2 O 0.97532 0.0654 0.00232 0.0
H3 H 0.991 0.05618 0.99582 0.0
C4 C 0.91525 0.01872 0.91393 0.0
O5 O 0.91242 0.02494 0.95504 0.0
Zn6 Zn 0.04128 0.95676 0.04179 0.0
Zn7 Zn 0.03937 0.95184 0.93731 0.0
O8 O 0.01871 0.96209 0.98992 0.0
H9 H 0.00315 0.9723 0.98914 0.0
Zn10 Zn 0.93801 0.97477 0.95473 0.0
O11 O 0.95515 0.99428 0.00442 0.0
Zn12 Zn 0.95165 0.9722 0.05599 0.0
H13 H 0.96807 0.00755 0.00101 0.0
Zn14 Zn 0.05504 0.04599 0.94952 0.0
O15 O 0.03968 0.02732 -8e-05 0.0
H16 H 0.02538 0.01537 0.99682 0.0
Zn17 Zn 0.04703 0.04922 0.05247 0.0
C18 C 0.05693 0.00529 0.88199 0.0
O19 O 0.03226 0.0032 0.89055 0.0
O20 O 0.91564 0.08958 0.98342 0.0
O21 O 0.9264 0.09074 0.05358 0.0
O22 O 0.07304 0.93248 0.95244 0.0
O23 O 0.073 0.93615 0.02444 0.0
O24 O 0.91649 0.94345 0.97335 0.0
O25 O 0.92668 0.94209 0.0437 0.0
C26 C 0.0056 0.07645 0.10188 0.0
O27 O 0.07675 0.07793 0.96808 0.0
O28 O 0.07326 0.07725 0.03987 0.0
O29 O 0.01825 0.93939 0.88315 0.0
C30 C 0.91163 0.09729 0.02215 0.0
O31 O 0.95716 0.07702 0.89652 0.0
C32 C 0.99736 0.94066 0.08868 0.0
O33 O 0.92552 0.99721 0.90403 0.0
C34 C 0.08318 0.92792 0.98944 0.0
O35 O 0.07051 0.02226 0.90214 0.0
C36 C 0.93958 0.019 0.10482 0.0
O37 O 0.98172 0.08101 0.10622 0.0
O38 O 0.01266 0.06354 0.06889 0.0
C39 C 0.91439 0.93315 0.01033 0.0
O40 O 0.02129 0.93616 0.0848 0.0
O41 O 0.98764 0.95909 0.06733 0.0
C42 C 0.0596 0.00308 0.09906 0.0
O43 O 0.93882 0.99449 0.1057 0.0
O44 O 0.94855 0.02984 0.0717 0.0
C45 C 0.08259 0.08689 0.00575 0.0
O46 O 0.0607 0.02758 0.10127 0.0
O47 O 0.04984 0.99258 0.06494 0.0
C48 C 0.99395 0.93635 0.88529 0.0
O49 O 0.98248 0.94117 0.92216 0.0
C50 C 0.9765 0.06501 0.88157 0.0
O51 O 0.9872 0.04682 0.90485 0.0
Zn52 Zn 0.45331 0.5648 0.45801 0.0
Zn53 Zn 0.4563 0.55736 0.56187 0.0
O54 O 0.47663 0.55402 0.50784 0.0
H55 H 0.49122 0.54267 0.50432 0.0
C56 C 0.43034 0.51057 0.39141 0.0
O57 O 0.45518 0.51069 0.40086 0.0
Zn58 Zn 0.54015 0.45571 0.54242 0.0
Zn59 Zn 0.53332 0.45005 0.43911 0.0
O60 O 0.51553 0.46203 0.49364 0.0
H61 H 0.50211 0.47493 0.49401 0.0
Zn62 Zn 0.43098 0.47054 0.45601 0.0
O63 O 0.44972 0.48832 0.50604 0.0
Zn64 Zn 0.44848 0.4644 0.55562 0.0
H65 H 0.46227 0.50195 0.50262 0.0
Zn66 Zn 0.55776 0.55032 0.45769 0.0
O67 O 0.54169 0.5295 0.50447 0.0
H68 H 0.5293 0.51577 0.49916 0.0
Zn69 Zn 0.54793 0.54836 0.56043 0.0
C70 C 0.56266 0.50896 0.39398 0.0
O71 O 0.53891 0.50466 0.40632 0.0
O72 O 0.42053 0.58332 0.47829 0.0
O73 O 0.42354 0.57817 0.5496 0.0
O74 O 0.56589 0.42808 0.45039 0.0
O75 O 0.56904 0.43213 0.52222 0.0
O76 O 0.41069 0.43804 0.47265 0.0
O77 O 0.42323 0.43461 0.54162 0.0
C78 C 0.50261 0.57462 0.60733 0.0
O79 O 0.57745 0.58232 0.48141 0.0
O80 O 0.57268 0.57871 0.55271 0.0
O81 O 0.50895 0.43913 0.38825 0.0
C82 C 0.41186 0.587 0.51629 0.0
O83 O 0.47112 0.57906 0.40378 0.0
C84 C 0.49747 0.44092 0.59409 0.0
O85 O 0.4157 0.49464 0.40993 0.0
C86 C 0.57705 0.42286 0.48629 0.0
O87 O 0.57511 0.52803 0.41043 0.0
C88 C 0.4385 0.50885 0.61094 0.0
O89 O 0.47815 0.57656 0.60759 0.0
O90 O 0.51247 0.55977 0.57885 0.0
C91 C 0.40998 0.42651 0.50872 0.0
O92 O 0.52182 0.43902 0.59171 0.0
O93 O 0.48532 0.45281 0.56449 0.0
C94 C 0.56102 0.49948 0.59813 0.0
O95 O 0.43678 0.48433 0.60867 0.0
O96 O 0.44832 0.52053 0.57923 0.0
C97 C 0.58203 0.59017 0.5202 0.0
O98 O 0.56251 0.52373 0.6046 0.0
O99 O 0.55186 0.49107 0.56213 0.0
C100 C 0.48533 0.43434 0.39535 0.0
O101 O 0.47682 0.43642 0.4351 0.0
C102 C 0.49393 0.57194 0.39518 0.0
O103 O 0.50547 0.55529 0.4205 0.0
H104 H 0.35801 0.27523 0.05185 0.0
C105 C 0.36548 0.28484 0.02377 0.0
C106 C 0.37421 0.31048 0.02757 0.0
C107 C 0.36705 0.27126 0.98415 0.0
H108 H 0.39089 0.34232 0.99377 0.0
C109 C 0.38396 0.32258 0.99098 0.0
C110 C 0.38563 0.30922 0.95112 0.0
C111 C 0.37716 0.28346 0.94796 0.0
C112 C 0.359 0.24394 0.98119 0.0
H113 H 0.37874 0.27277 0.91758 0.0
C114 C 0.33349 0.23693 0.99015 0.0
C115 C 0.3259 0.21087 0.98845 0.0
C116 C 0.37693 0.22475 0.97027 0.0
H117 H 0.39671 0.22984 0.96331 0.0
C118 C 0.36955 0.19879 0.96916 0.0
H119 H 0.31956 0.25175 0.9983 0.0
C120 C 0.34419 0.19182 0.97836 0.0
H121 H 0.33872 0.17161 0.9767 0.0
H122 H 0.38349 0.18404 0.96102 0.0
H123 H 0.72434 0.37469 0.06779 0.0
C124 C 0.71309 0.37867 0.03873 0.0
C125 C 0.68708 0.38579 0.0419 0.0
C126 C 0.72483 0.37716 0.99822 0.0
H127 H 0.65268 0.39623 0.00624 0.0
C128 C 0.67277 0.39071 0.00391 0.0
C129 C 0.68434 0.38935 0.9631 0.0
C130 C 0.71052 0.38262 0.96056 0.0
C131 C 0.75224 0.37009 0.99549 0.0
H132 H 0.71989 0.38188 0.92944 0.0
C133 C 0.76009 0.34507 0.00589 0.0
C134 C 0.78622 0.33812 0.0038 0.0
C135 C 0.7706 0.38831 0.98297 0.0
H136 H 0.76478 0.40772 0.97482 0.0
C137 C 0.79668 0.38164 0.98158 0.0
H138 H 0.74582 0.33099 0.01538 0.0
C139 C 0.80452 0.35669 0.99204 0.0
H140 H 0.82477 0.35175 0.98998 0.0
H141 H 0.81083 0.39578 0.97214 0.0
H142 H 0.68471 0.68749 0.94718 0.0
C143 C 0.6719 0.68433 0.97397 0.0
C144 C 0.64532 0.68043 0.96607 0.0
C145 C 0.68212 0.68301 0.01632 0.0
H146 H 0.60873 0.67209 0.99511 0.0
C147 C 0.62914 0.67561 0.00109 0.0
C148 C 0.63918 0.67391 0.04346 0.0
C149 C 0.66572 0.67784 0.0508 0.0
C150 C 0.71026 0.68412 0.02449 0.0
H151 H 0.67389 0.67582 0.08314 0.0
C152 C 0.72402 0.70746 0.02174 0.0
C153 C 0.75047 0.70852 0.0333 0.0
C154 C 0.72313 0.66174 0.03766 0.0
H155 H 0.71277 0.64363 0.04006 0.0
C156 C 0.74942 0.66256 0.04803 0.0
H157 H 0.71397 0.72486 0.01239 0.0
C158 C 0.76301 0.68578 0.0461 0.0
H159 H 0.7834 0.68596 0.05454 0.0
H160 H 0.75924 0.64519 0.05803 0.0
H161 H 0.27099 0.65182 0.0705 0.0
C162 C 0.28058 0.64477 0.04169 0.0
C163 C 0.30571 0.63486 0.04486 0.0
C164 C 0.26752 0.64509 0.00149 0.0
H165 H 0.3368 0.61718 0.00955 0.0
C166 C 0.31761 0.62541 0.00732 0.0
C167 C 0.30471 0.62565 0.96702 0.0
C168 C 0.27965 0.63568 0.96415 0.0
C169 C 0.24061 0.65388 -0.00085 0.0
H170 H 0.26935 0.63553 0.93325 0.0
C171 C 0.23497 0.68034 -3e-05 0.0
C172 C 0.20921 0.68869 -0.00012 0.0
C173 C 0.22045 0.63573 0.99767 0.0
H174 H 0.22459 0.61524 0.99708 0.0
C175 C 0.19482 0.64397 0.99769 0.0
H176 H 0.25058 0.69435 0.00122 0.0
C177 C 0.18918 0.67032 -0.00096 0.0
H178 H 0.16918 0.67638 -0.00115 0.0
H179 H 0.17931 0.62992 0.99679 0.0
H180 H 0.86409 0.7769 0.5452 0.0
C181 C 0.86938 0.78501 0.51446 0.0
C182 C 0.87987 0.81004 0.51311 0.0
C183 C 0.8664 0.76997 0.47647 0.0
H184 H 0.89492 0.83923 0.47128 0.0
C185 C 0.88623 0.82022 0.47275 0.0
C186 C 0.88296 0.80545 0.43436 0.0
C187 C 0.87335 0.78015 0.43657 0.0
C188 C 0.85691 0.7432 0.47882 0.0
H189 H 0.87096 0.76845 0.40725 0.0
C190 C 0.83174 0.73818 0.49254 0.0
C191 C 0.82277 0.71263 0.4953 0.0
C192 C 0.87318 0.72257 0.46789 0.0
H193 H 0.89266 0.72616 0.45727 0.0
C194 C 0.86451 0.69716 0.47131 0.0
H195 H 0.81914 0.75414 0.50073 0.0
C196 C 0.83947 0.69216 0.48502 0.0
H197 H 0.83295 0.67231 0.48654 0.0
H198 H 0.87717 0.6813 0.46306 0.0
H199 H 0.22008 0.86154 0.56623 0.0
C200 C 0.21043 0.86678 0.53623 0.0
C201 C 0.18521 0.87666 0.53692 0.0
C202 C 0.22354 0.86432 0.49697 0.0
H203 H 0.15407 0.89218 0.49832 0.0
C204 C 0.1731 0.88356 0.49776 0.0
C205 C 0.18589 0.88097 0.45821 0.0
C206 C 0.21117 0.87135 0.45817 0.0
C207 C 0.25044 0.85506 0.49622 0.0
H208 H 0.22127 0.86911 0.42787 0.0
C209 C 0.25689 0.83087 0.51303 0.0
C210 C 0.28219 0.82126 0.50966 0.0
C211 C 0.26959 0.87005 0.47706 0.0
H212 H 0.26497 0.88877 0.464 0.0
C213 C 0.29482 0.86097 0.47461 0.0
H214 H 0.24204 0.81938 0.52781 0.0
C215 C 0.30111 0.83671 0.49048 0.0
H216 H 0.32064 0.82978 0.48658 0.0
H217 H 0.30948 0.87259 0.45966 0.0
H218 H 0.18355 0.18075 0.45986 0.0
C219 C 0.16853 0.17836 0.48348 0.0
C220 C 0.14297 0.17348 0.46951 0.0
C221 C 0.17493 0.1788 0.52788 0.0
H222 H 0.10419 0.16544 0.48955 0.0
C223 C 0.12381 0.1696 0.50038 0.0
C224 C 0.13001 0.16941 0.54482 0.0
C225 C 0.15565 0.17428 0.55826 0.0
C226 C 0.20213 0.1811 0.54283 0.0
H227 H 0.16095 0.17348 0.59234 0.0
C228 C 0.21668 0.20357 0.53564 0.0
C229 C 0.24203 0.206 0.55273 0.0
C230 C 0.21329 0.16083 0.5661 0.0
H231 H 0.2024 0.14336 0.57186 0.0
C232 C 0.23855 0.16287 0.58203 0.0
H233 H 0.20792 0.21942 0.51838 0.0
C234 C 0.25283 0.18528 0.57558 0.0
H235 H 0.27241 0.18637 0.58837 0.0
H236 H 0.24705 0.14709 0.59974 0.0
H237 H 0.76738 0.14876 0.56856 0.0
C238 C 0.77893 0.14386 0.54063 0.0
C239 C 0.80488 0.13687 0.5463 0.0
C240 C 0.76759 0.144 0.49911 0.0
H241 H 0.83949 0.12488 0.51419 0.0
C242 C 0.81948 0.13045 0.50981 0.0
C243 C 0.8082 0.12996 0.46802 0.0
C244 C 0.78214 0.13697 0.46294 0.0
C245 C 0.74006 0.15019 0.49407 0.0
H246 H 0.77289 0.13622 0.43116 0.0
C247 C 0.73212 0.176 0.4922 0.0
C248 C 0.70573 0.18203 0.49049 0.0
C249 C 0.72159 0.13034 0.49341 0.0
H250 H 0.7275 0.11033 0.495 0.0
C251 C 0.69532 0.13628 0.4915 0.0
H252 H 0.74643 0.19134 0.49308 0.0
C253 C 0.68737 0.16201 0.49037 0.0
H254 H 0.66692 0.16629 0.48907 0.0
H255 H 0.68109 0.12092 0.49123 0.0
C256 C 0.10725 0.1237 0.97541 0.0
C257 C 0.10261 0.10717 0.00992 0.0
C258 C 0.12855 0.1403 0.9767 0.0
C259 C 0.18335 0.16449 0.04817 0.0
H260 H 0.21754 0.16969 0.9379 0.0
C261 C 0.29257 0.18437 0.02517 0.0
C262 C 0.29872 0.20362 0.99562 0.0
C263 C 0.26693 0.17666 0.03016 0.0
C264 C 0.20804 0.16864 0.96882 0.0
H265 H 0.11584 0.09589 0.07379 0.0
H266 H 0.1537 0.1237 0.07523 0.0
H267 H 0.17542 0.14919 0.94063 0.0
H268 H 0.28316 0.23008 0.94843 0.0
H269 H 0.2383 0.216 0.95627 0.0
H270 H 0.21721 0.18257 0.07631 0.0
C271 C 0.14061 0.1246 0.04758 0.0
C272 C 0.18375 0.15706 0.97047 0.0
C273 C 0.11893 0.10847 0.04671 0.0
C274 C 0.27883 0.2153 0.97159 0.0
C275 C 0.25328 0.20723 0.97596 0.0
C276 C 0.20795 0.1756 0.04656 0.0
C277 C 0.14614 0.14023 0.01203 0.0
C278 C 0.17109 0.15461 0.01021 0.0
C279 C 0.24716 0.18772 0.00504 0.0
C280 C 0.22053 0.17759 0.00689 0.0
H281 H 0.09473 0.12337 0.94691 0.0
H282 H 0.13158 0.15264 0.94935 0.0
H283 H 0.1741 0.16344 0.07925 0.0
H284 H 0.30762 0.1752 0.04415 0.0
H285 H 0.26266 0.16142 0.05252 0.0
C286 C 0.89368 0.1346 0.06407 0.0
C287 C 0.89123 0.11659 0.02965 0.0
C288 C 0.87729 0.15593 0.06632 0.0
C289 C 0.83701 0.19487 0.99226 0.0
H290 H 0.82232 0.23348 0.0978 0.0
C291 C 0.78099 0.29059 0.99146 0.0
C292 C 0.79416 0.31126 0.01217 0.0
C293 C 0.78922 0.26525 0.9973 0.0
C294 C 0.82628 0.2228 0.06815 0.0
H295 H 0.86819 0.10524 0.97312 0.0
H296 H 0.83872 0.14162 0.97828 0.0
H297 H 0.84141 0.19049 0.10233 0.0
H298 H 0.8256 0.32172 0.05635 0.0
H299 H 0.83988 0.27718 0.06701 0.0
H300 H 0.82169 0.22716 0.95824 0.0
C301 C 0.85403 0.14008 0.00241 0.0
C302 C 0.8373 0.19825 0.07064 0.0
C303 C 0.87076 0.11908 -0.00036 0.0
C304 C 0.81525 0.30609 0.03983 0.0
C305 C 0.82325 0.28068 0.04621 0.0
C306 C 0.82561 0.21915 0.98984 0.0
C307 C 0.85779 0.15941 0.03464 0.0
C308 C 0.84327 0.18415 0.03267 0.0
C309 C 0.81053 0.2601 0.02446 0.0
C310 C 0.82057 0.23352 0.02769 0.0
H311 H 0.90932 0.13318 0.08767 0.0
H312 H 0.881 0.1704 0.09144 0.0
H313 H 0.84183 0.18504 0.96223 0.0
H314 H 0.76477 0.29409 0.96975 0.0
H315 H 0.7791 0.24967 0.98026 0.0
C316 C 0.88085 0.90262 0.97962 0.0
C317 C 0.89699 0.91056 0.01457 0.0
C318 C 0.86416 0.88159 0.98344 0.0
C319 C 0.85441 0.8224 0.04461 0.0
H320 H 0.78426 0.82641 -0.00078 0.0
C321 C 0.78152 0.73998 0.06836 0.0
C322 C 0.76507 0.73324 0.03324 0.0
C323 C 0.79649 0.76243 0.06767 0.0
C324 C 0.80387 0.82484 0.01162 0.0
H325 H 0.90829 0.90238 0.08095 0.0
H326 H 0.87914 0.86553 0.08746 0.0
H327 H 0.8128 0.86381 0.99517 0.0
H328 H 0.75101 0.74498 0.97017 0.0
H329 H 0.77752 0.78406 0.96845 0.0
H330 H 0.84578 0.78334 0.0603 0.0
C331 C 0.87951 0.87563 0.05709 0.0
C332 C 0.8202 0.84631 0.00939 0.0
C333 C 0.89612 0.89682 0.05339 0.0
C334 C 0.76341 0.74978 0.9978 0.0
C335 C 0.77858 0.7722 0.99692 0.0
C336 C 0.83815 0.80088 0.04659 0.0
C337 C 0.86328 0.86785 0.02217 0.0
C338 C 0.84568 0.8453 0.02574 0.0
C339 C 0.79554 0.77865 0.03167 0.0
C340 C 0.81266 0.80179 0.03006 0.0
H341 H 0.88101 0.91269 0.94921 0.0
H342 H 0.85217 0.87586 0.95577 0.0
H343 H 0.87404 0.82089 0.05693 0.0
H344 H 0.78284 0.72784 0.0965 0.0
H345 H 0.80883 0.76706 0.09545 0.0
C346 C 0.11948 0.90352 0.95519 0.0
C347 C 0.1053 0.91002 0.99218 0.0
C348 C 0.13752 0.88352 0.95631 0.0
C349 C 0.17041 0.83704 0.03116 0.0
H350 H 0.16697 0.79186 0.92953 0.0
C351 C 0.18676 0.72693 0.03189 0.0
C352 C 0.20316 0.71653 0.0004 0.0
C353 C 0.18018 0.75304 0.03138 0.0
C354 C 0.16842 0.80448 0.95789 0.0
H355 H 0.1 0.90161 0.06004 0.0
H356 H 0.13039 0.86626 0.06159 0.0
H357 H 0.14629 0.83389 0.92752 0.0
H358 H 0.22572 0.72498 0.94398 0.0
H359 H 0.21345 0.7707 0.94224 0.0
H360 H 0.19104 0.80646 0.06223 0.0
C361 C 0.12826 0.87685 0.03187 0.0
C362 C 0.15671 0.8287 0.95676 0.0
C363 C 0.11061 0.89712 0.03094 0.0
C364 C 0.21312 0.73267 0.96867 0.0
C365 C 0.20609 0.75869 0.96762 0.0
C366 C 0.18167 0.81258 0.03251 0.0
C367 C 0.14143 0.86926 0.99424 0.0
C368 C 0.15705 0.84512 0.99369 0.0
C369 C 0.18948 0.76904 -0.00112 0.0
C370 C 0.18036 0.79596 0.99612 0.0
H371 H 0.11607 0.91335 0.92496 0.0
H372 H 0.1478 0.87875 0.92701 0.0
H373 H 0.17165 0.84932 0.0599 0.0
H374 H 0.17897 0.71482 0.05675 0.0
H375 H 0.16713 0.76056 0.05555 0.0
C376 C 0.61801 0.61113 0.56294 0.0
C377 C 0.60081 0.61135 0.52729 0.0
C378 C 0.63912 0.62804 0.56498 0.0
C379 C 0.67901 0.66525 0.48936 0.0
H380 H 0.71627 0.68527 0.59485 0.0
C381 C 0.7754 0.72007 0.48526 0.0
C382 C 0.79565 0.70727 0.50665 0.0
C383 C 0.74977 0.71314 0.4924 0.0
C384 C 0.70594 0.67988 0.5652 0.0
H385 H 0.59049 0.63104 0.46825 0.0
H386 H 0.62625 0.66159 0.47305 0.0
H387 H 0.67331 0.66589 0.59934 0.0
H388 H 0.80505 0.67824 0.55396 0.0
H389 H 0.76008 0.66628 0.56681 0.0
H390 H 0.71161 0.67934 0.45535 0.0
C391 C 0.62443 0.64754 0.49833 0.0
C392 C 0.68141 0.66865 0.56768 0.0
C393 C 0.60375 0.63021 0.49573 0.0
C394 C 0.78976 0.68826 0.53684 0.0
C395 C 0.7641 0.6816 0.54446 0.0
C396 C 0.70324 0.67687 0.48693 0.0
C397 C 0.64312 0.64588 0.53185 0.0
C398 C 0.66781 0.66069 0.52976 0.0
C399 C 0.74392 0.69355 0.52152 0.0
C400 C 0.71714 0.68385 0.52477 0.0
H401 H 0.61619 0.59673 0.5877 0.0
H402 H 0.65307 0.62595 0.59119 0.0
H403 H 0.66965 0.65887 0.45939 0.0
H404 H 0.77941 0.73468 0.46163 0.0
H405 H 0.73452 0.72267 0.4744 0.0
C406 C 0.38032 0.61036 0.56376 0.0
C407 C 0.38939 0.60424 0.52213 0.0
C408 C 0.36192 0.62976 0.56958 0.0
C409 C 0.31705 0.67344 0.50944 0.0
H410 H 0.33543 0.72221 0.6018 0.0
C411 C 0.27116 0.77415 0.51558 0.0
C412 C 0.28861 0.79465 0.52348 0.0
C413 C 0.27833 0.74873 0.52406 0.0
C414 C 0.33002 0.70882 0.57581 0.0
H415 H 0.38488 0.61253 0.45373 0.0
H416 H 0.35353 0.64652 0.46391 0.0
H417 H 0.35664 0.68048 0.59839 0.0
H418 H 0.32668 0.80455 0.54921 0.0
H419 H 0.3396 0.76033 0.56202 0.0
H420 H 0.29196 0.70249 0.48486 0.0
C421 C 0.36023 0.63623 0.49214 0.0
C422 C 0.34191 0.68466 0.57422 0.0
C423 C 0.37845 0.61679 0.48629 0.0
C424 C 0.31293 0.78921 0.54195 0.0
C425 C 0.32019 0.76379 0.54998 0.0
C426 C 0.30538 0.69769 0.51074 0.0
C427 C 0.35227 0.6435 0.53394 0.0
C428 C 0.3362 0.667 0.54017 0.0
C429 C 0.30319 0.74316 0.54023 0.0
C430 C 0.31234 0.71601 0.54315 0.0
H431 H 0.38814 0.60088 0.59206 0.0
H432 H 0.35585 0.63454 0.60215 0.0
H433 H 0.31179 0.66011 0.48326 0.0
H434 H 0.25232 0.77755 0.50111 0.0
H435 H 0.26458 0.73339 0.51683 0.0
C436 C 0.37842 0.39424 0.4767 0.0
C437 C 0.39293 0.40361 0.51267 0.0
C438 C 0.36176 0.37316 0.48058 0.0
C439 C 0.34858 0.31709 0.54912 0.0
H440 H 0.28095 0.31847 0.49322 0.0
C441 C 0.27172 0.24027 0.58336 0.0
C442 C 0.25725 0.23013 0.54796 0.0
C443 C 0.28745 0.26193 0.57871 0.0
C444 C 0.29987 0.31765 0.50863 0.0
H445 H 0.40136 0.3979 0.58093 0.0
H446 H 0.37221 0.36123 0.5877 0.0
H447 H 0.31039 0.35495 0.48575 0.0
H448 H 0.24744 0.23525 0.48016 0.0
H449 H 0.27511 0.27316 0.47186 0.0
H450 H 0.33817 0.27983 0.57192 0.0
C451 C 0.3739 0.37007 0.55636 0.0
C452 C 0.31675 0.33857 0.50436 0.0
C453 C 0.39056 0.39119 0.55252 0.0
C454 C 0.25826 0.24269 0.50807 0.0
C455 C 0.27411 0.2644 0.50336 0.0
C456 C 0.33174 0.29621 0.55335 0.0
C457 C 0.35921 0.36087 0.52048 0.0
C458 C 0.34129 0.33857 0.52468 0.0
C459 C 0.28918 0.27404 0.53851 0.0
C460 C 0.30712 0.29625 0.53334 0.0
H461 H 0.37984 0.40322 0.44542 0.0
H462 H 0.35104 0.36633 0.45215 0.0
H463 H 0.36749 0.31625 0.56455 0.0
H464 H 0.27092 0.23139 0.61479 0.0
H465 H 0.29828 0.26919 0.60672 0.0
C466 C 0.61036 0.39602 0.44856 0.0
C467 C 0.5979 0.40343 0.48687 0.0
C468 C 0.62747 0.3752 0.44824 0.0
C469 C 0.66175 0.32864 0.52105 0.0
H470 H 0.65539 0.28306 0.42021 0.0
C471 C 0.68058 0.21883 0.52127 0.0
C472 C 0.69734 0.20922 0.48965 0.0
C473 C 0.67251 0.24451 0.52049 0.0
C474 C 0.65757 0.29578 0.44833 0.0
H475 H 0.5945 0.39553 0.55531 0.0
H476 H 0.62323 0.35879 0.55444 0.0
H477 H 0.63446 0.32507 0.41959 0.0
H478 H 0.71881 0.21855 0.43244 0.0
H479 H 0.70386 0.26348 0.43015 0.0
H480 H 0.68348 0.29826 0.55056 0.0
C481 C 0.62053 0.3693 0.52475 0.0
C482 C 0.64575 0.31997 0.44798 0.0
C483 C 0.60382 0.39037 0.52523 0.0
C484 C 0.70591 0.22565 0.45719 0.0
C485 C 0.69738 0.2512 0.45584 0.0
C486 C 0.67311 0.30422 0.52167 0.0
C487 C 0.63215 0.36102 0.48604 0.0
C488 C 0.64729 0.33659 0.48463 0.0
C489 C 0.68067 0.26082 0.48756 0.0
C490 C 0.67079 0.28748 0.48554 0.0
H491 H 0.60642 0.40592 0.41857 0.0
H492 H 0.63655 0.36988 0.41805 0.0
H493 H 0.66395 0.34106 0.54949 0.0
H494 H 0.67385 0.20649 0.5467 0.0
H495 H 0.65944 0.2515 0.54505 0.0
C496 C 0.02124 0.07957 0.17848 0.0
C497 C 0.02444 0.08563 0.13485 0.0
C498 C 0.03852 0.08925 0.21013 0.0
C499 C 0.08058 0.14397 0.23447 0.0
H500 H 0.10873 0.10064 0.32471 0.0
C501 C 0.11442 0.18026 0.40447 0.0
C502 C 0.13641 0.16884 0.4231 0.0
C503 C 0.10512 0.17192 0.36376 0.0
C504 C 0.10131 0.11294 0.29942 0.0
H505 H 0.04724 0.10712 0.08987 0.0
H506 H 0.07758 0.12423 0.14528 0.0
H507 H 0.08381 0.08104 0.26457 0.0
H508 H 0.16663 0.14067 0.41308 0.0
H509 H 0.15024 0.12592 0.34193 0.0
H510 H 0.09726 0.17599 0.27029 0.0
C511 C 0.06205 0.11163 0.15492 0.0
C512 C 0.08688 0.10175 0.26527 0.0
C513 C 0.04498 0.10161 0.12322 0.0
C514 C 0.14978 0.14997 0.39925 0.0
C515 C 0.14028 0.14136 0.35879 0.0
C516 C 0.0947 0.15523 0.26902 0.0
C517 C 0.05893 0.1056 0.1987 0.0
C518 C 0.07609 0.11719 0.23279 0.0
C519 C 0.11744 0.15175 0.34124 0.0
C520 C 0.10495 0.13984 0.3021 0.0
H521 H 0.00534 0.06743 0.18806 0.0
H522 H 0.03549 0.08456 0.24371 0.0
H523 H 0.07234 0.15632 0.20996 0.0
H524 H 0.10376 0.19483 0.42229 0.0
H525 H 0.08739 0.18016 0.35115 0.0
C526 C 0.91345 0.05485 0.13601 0.0
C527 C 0.93028 0.03407 0.14217 0.0
C528 C 0.90226 0.06732 0.1715 0.0
C529 C 0.88229 0.05371 0.28136 0.0
H530 H 0.87494 0.12793 0.29422 0.0
C531 C 0.83991 0.09934 0.43487 0.0
C532 C 0.82323 0.12051 0.43038 0.0
C533 C 0.85387 0.09005 0.39972 0.0
C534 C 0.87657 0.10716 0.2908 0.0
H535 H 0.94871 0.00978 0.1898 0.0
H536 H 0.92914 0.0315 0.2521 0.0
H537 H 0.89865 0.1099 0.23292 0.0
H538 H 0.80826 0.14858 0.38526 0.0
H539 H 0.83206 0.13177 0.32329 0.0
H540 H 0.85982 0.05071 0.33832 0.0
C541 C 0.92469 0.03832 0.21987 0.0
C542 C 0.89023 0.09687 0.25583 0.0
C543 C 0.93595 0.02598 0.18436 0.0
C544 C 0.82081 0.13213 0.38973 0.0
C545 C 0.83469 0.12269 0.35436 0.0
C546 C 0.86851 0.06393 0.31602 0.0
C547 C 0.90739 0.05884 0.21374 0.0
C548 C 0.89334 0.07004 0.25097 0.0
C549 C 0.8513 0.10145 0.35894 0.0
C550 C 0.8656 0.09078 0.32137 0.0
H551 H 0.90764 0.06031 0.10373 0.0
H552 H 0.88858 0.0827 0.16573 0.0
H553 H 0.88388 0.03292 0.27789 0.0
H554 H 0.84194 0.0896 0.46546 0.0
H555 H 0.86675 0.0739 0.40462 0.0
C556 C 0.95984 0.93345 0.13722 0.0
C557 C 0.98161 0.92389 0.116 0.0
C558 C 0.94646 0.91805 0.16605 0.0
C559 C 0.95722 0.86164 0.23544 0.0
H560 H 0.88364 0.86742 0.25428 0.0
C561 C 0.90599 0.80177 0.36378 0.0
C562 C 0.89064 0.81623 0.39235 0.0
C563 C 0.91482 0.81267 0.3257 0.0
C564 C 0.90421 0.86564 0.24932 0.0
H565 H 0.00585 0.89029 0.10666 0.0
H566 H 0.9822 0.86314 0.15594 0.0
H567 H 0.90307 0.89015 0.19422 0.0
H568 H 0.87159 0.85296 0.40267 0.0
H569 H 0.88701 0.87202 0.33604 0.0
H570 H 0.95836 0.83723 0.29054 0.0
C571 C 0.97575 0.88277 0.15133 0.0
C572 C 0.91537 0.87871 0.21506 0.0
C573 C 0.98924 0.89829 0.12293 0.0
C574 C 0.88357 0.84148 0.38137 0.0
C575 C 0.89219 0.85228 0.34309 0.0
C576 C 0.94603 0.8484 0.26932 0.0
C577 C 0.95454 0.89264 0.17406 0.0
C578 C 0.94209 0.87717 0.20809 0.0
C579 C 0.90826 0.83814 0.31525 0.0
C580 C 0.9195 0.85054 0.27699 0.0
H581 H 0.95388 0.95316 0.1332 0.0
H582 H 0.93048 0.92648 0.18341 0.0
H583 H 0.97792 0.86038 0.23172 0.0
H584 H 0.91185 0.78233 0.37156 0.0
H585 H 0.92705 0.80129 0.30466 0.0
C586 C 0.07569 0.00046 0.17543 0.0
C587 C 0.06983 0.98791 0.13566 0.0
C588 C 0.08737 0.98708 0.20925 0.0
C589 C 0.10163 0.92178 0.24959 0.0
H590 H 0.15612 0.9583 0.31336 0.0
C591 C 0.14678 0.88512 0.4096 0.0
C592 C 0.17324 0.88966 0.41749 0.0
C593 C 0.13443 0.89509 0.37301 0.0
C594 C 0.14119 0.94768 0.29558 0.0
H595 H 0.071 0.95125 0.10105 0.0
H596 H 0.0917 0.92787 0.15973 0.0
H597 H 0.13357 0.9795 0.25439 0.0
H598 H 0.20761 0.90767 0.39238 0.0
H599 H 0.18626 0.92438 0.32795 0.0
H600 H 0.1097 0.88974 0.29047 0.0
C601 C 0.08698 0.94804 0.16488 0.0
C602 C 0.12797 0.96 0.26216 0.0
C603 C 0.07515 0.96146 0.13107 0.0
C604 C 0.18726 0.90363 0.38715 0.0
C605 C 0.17494 0.9135 0.35048 0.0
C606 C 0.11494 0.9094 0.28306 0.0
C607 C 0.09364 0.96085 0.20409 0.0
C608 C 0.10788 0.9473 0.23902 0.0
C609 C 0.14829 0.90976 0.34339 0.0
C610 C 0.13479 0.92228 0.30656 0.0
H611 H 0.07157 0.02079 0.18037 0.0
H612 H 0.09167 0.9974 0.23939 0.0
H613 H 0.08618 0.91152 0.23251 0.0
H614 H 0.1355 0.87412 0.43205 0.0
H615 H 0.11386 0.892 0.3687 0.0
C616 C 0.05372 0.97265 0.82113 0.0
C617 C 0.06898 0.98786 0.84981 0.0
C618 C 0.06526 0.95628 0.79066 0.0
C619 C 0.12746 0.92485 0.76368 0.0
H620 H 0.09947 0.92468 0.64638 0.0
C621 C 0.18527 0.89429 0.61314 0.0
C622 C 0.17203 0.88188 0.57845 0.0
C623 C 0.17195 0.90273 0.64973 0.0
C624 C 0.10728 0.9241 0.67912 0.0
H625 H 0.1083 0.99778 0.86916 0.0
H626 H 0.12838 0.96968 0.81556 0.0
H627 H 0.0773 0.94834 0.70335 0.0
H628 H 0.13488 0.86686 0.55623 0.0
H629 H 0.11164 0.88156 0.62017 0.0
H630 H 0.1579 0.90119 0.73895 0.0
C631 C 0.10752 0.96997 0.81707 0.0
C632 C 0.09456 0.93769 0.71182 0.0
C633 C 0.09599 0.98631 0.8475 0.0
C634 C 0.14551 0.87677 0.58217 0.0
C635 C 0.1322 0.88521 0.61871 0.0
C636 C 0.14024 0.9113 0.73091 0.0
C637 C 0.09231 0.95483 0.78817 0.0
C638 C 0.1047 0.93856 0.75435 0.0
C639 C 0.14515 0.89891 0.65234 0.0
C640 C 0.13047 0.91109 0.68814 0.0
H641 H 0.03286 0.97361 0.82186 0.0
H642 H 0.053 0.94475 0.76903 0.0
H643 H 0.13554 0.92477 0.79629 0.0
H644 H 0.20564 0.89875 0.61104 0.0
H645 H 0.18244 0.91344 0.6749 0.0
C646 C 0.97694 0.09221 0.81523 0.0
C647 C 0.98895 0.07384 0.84173 0.0
C648 C 0.99014 0.10278 0.78057 0.0
C649 C 0.05624 0.11615 0.74713 0.0
H650 H 0.02566 0.12777 0.63362 0.0
C651 C 0.10969 0.17346 0.61811 0.0
C652 C 0.11041 0.16162 0.57678 0.0
C653 C 0.09283 0.16445 0.64934 0.0
C654 C 0.03442 0.12465 0.6652 0.0
H655 H 0.0237 0.05126 0.85137 0.0
H656 H 0.04659 0.0696 0.79097 0.0
H657 H 0.00017 0.10694 0.68924 0.0
H658 H 0.09358 0.1312 0.53581 0.0
H659 H 0.064 0.11581 0.59001 0.0
H660 H 0.09054 0.13348 0.72319 0.0
C661 C 0.02714 0.07609 0.79731 0.0
C662 C 0.01981 0.11287 0.69704 0.0
C663 C 0.01393 0.06542 0.83171 0.0
C664 C 0.09325 0.14112 0.56699 0.0
C665 C 0.0763 0.13222 0.59811 0.0
C666 C 0.07074 0.12808 0.71549 0.0
C667 C 0.01562 0.09529 0.77199 0.0
C668 C 0.03069 0.10824 0.73818 0.0
C669 C 0.07623 0.14347 0.63986 0.0
C670 C 0.06009 0.13228 0.67407 0.0
H671 H 0.95762 0.09895 0.82195 0.0
H672 H 0.98077 0.11755 0.76158 0.0
H673 H 0.06503 0.11318 0.77874 0.0
H674 H 0.12237 0.18953 0.62651 0.0
H675 H 0.09295 0.17373 0.68109 0.0
C676 C 0.89272 0.0589 0.8905 0.0
C677 C 0.90661 0.0365 0.87978 0.0
C678 C 0.88405 0.07543 0.85816 0.0
C679 C 0.85238 0.09542 0.78266 0.0
H680 H 0.89035 0.1046 0.67698 0.0
C681 C 0.80273 0.11958 0.62112 0.0
C682 C 0.81619 0.13365 0.59029 0.0
C683 C 0.81464 0.11318 0.66034 0.0
C684 C 0.87961 0.10271 0.70653 0.0
H685 H 0.92282 0.01412 0.82681 0.0
H686 H 0.90703 0.04241 0.77032 0.0
H687 H 0.91109 0.08373 0.73823 0.0
H688 H 0.85202 0.1535 0.57733 0.0
H689 H 0.87275 0.14278 0.64637 0.0
H690 H 0.82097 0.11458 0.75112 0.0
C691 C 0.90325 0.0476 0.80376 0.0
C692 C 0.8914 0.09037 0.74146 0.0
C693 C 0.91205 0.03118 0.83612 0.0
C694 C 0.84133 0.14237 0.60038 0.0
C695 C 0.8532 0.13613 0.6398 0.0
C696 C 0.84066 0.10796 0.74788 0.0
C697 C 0.8889 0.06978 0.81433 0.0
C698 C 0.87767 0.08591 0.77947 0.0
C699 C 0.84024 0.12088 0.66978 0.0
C700 C 0.85387 0.11109 0.70893 0.0
H701 H 0.88813 0.06349 0.92382 0.0
H702 H 0.87334 0.0925 0.86751 0.0
H703 H 0.84114 0.09222 0.81133 0.0
H704 H 0.78347 0.11229 0.61398 0.0
H705 H 0.80418 0.10106 0.68225 0.0
C706 C 0.99098 0.92243 0.80723 0.0
C707 C 0.97892 0.92664 0.84715 0.0
C708 C 0.97703 0.91235 0.77164 0.0
C709 C 0.9206 0.87228 0.74434 0.0
H710 H 0.93107 0.89722 0.62827 0.0
C711 C 0.89668 0.81216 0.58984 0.0
C712 C 0.886 0.82479 0.55383 0.0
C713 C 0.90452 0.82617 0.62688 0.0
C714 C 0.92768 0.89023 0.66053 0.0
H715 H 0.94258 0.92406 0.88078 0.0
H716 H 0.91827 0.90627 0.81854 0.0
H717 H 0.95152 0.91972 0.69014 0.0
H718 H 0.87423 0.86202 0.52937 0.0
H719 H 0.88832 0.88654 0.59401 0.0
H720 H 0.89708 0.84255 0.71465 0.0
C721 C 0.93857 0.91067 0.81496 0.0
C722 C 0.93959 0.90296 0.69588 0.0
C723 C 0.95248 0.92094 0.85051 0.0
C724 C 0.88275 0.85173 0.55625 0.0
C725 C 0.89076 0.86578 0.59326 0.0
C726 C 0.90883 0.85944 0.70895 0.0
C727 C 0.95074 0.90611 0.77523 0.0
C728 C 0.93647 0.8939 0.73809 0.0
C729 C 0.90203 0.85316 0.62874 0.0
C730 C 0.91253 0.86808 0.66663 0.0
H731 H 0.01131 0.92659 0.80357 0.0
H732 H 0.98702 0.90876 0.7416 0.0
H733 H 0.91797 0.86474 0.77646 0.0
H734 H 0.89993 0.79152 0.58886 0.0
H735 H 0.91348 0.81593 0.65344 0.0
C736 C 0.54487 0.58423 0.64615 0.0
C737 C 0.51862 0.58972 0.63922 0.0
C738 C 0.55955 0.59824 0.67699 0.0
C739 C 0.55209 0.63759 0.77669 0.0
H740 H 0.62408 0.65473 0.75952 0.0
C741 C 0.61058 0.68959 0.91106 0.0
C742 C 0.63447 0.67827 0.92131 0.0
C743 C 0.5977 0.6833 0.87211 0.0
C744 C 0.60401 0.65003 0.7648 0.0
H745 H 0.48728 0.61475 0.65903 0.0
H746 H 0.51285 0.63929 0.71254 0.0
H747 H 0.59875 0.63467 0.70026 0.0
H748 H 0.66435 0.65275 0.89765 0.0
H749 H 0.64186 0.64167 0.82966 0.0
H750 H 0.55735 0.65237 0.8413 0.0
C751 C 0.52209 0.62388 0.69445 0.0
C752 C 0.58951 0.63848 0.73091 0.0
C753 C 0.50743 0.60982 0.66365 0.0
C754 C 0.64607 0.66196 0.89047 0.0
C755 C 0.63313 0.65558 0.85151 0.0
C756 C 0.56653 0.64914 0.81044 0.0
C757 C 0.54828 0.61811 0.7018 0.0
C758 C 0.56344 0.63187 0.73663 0.0
C759 C 0.60838 0.66546 0.84261 0.0
C760 C 0.59273 0.65527 0.80511 0.0
H761 H 0.55404 0.56878 0.6286 0.0
H762 H 0.57956 0.59296 0.68224 0.0
H763 H 0.53223 0.63235 0.78257 0.0
H764 H 0.60134 0.70249 0.93402 0.0
H765 H 0.57892 0.69171 0.8658 0.0
C766 C 0.42071 0.50897 0.68567 0.0
C767 C 0.42817 0.52283 0.64916 0.0
C768 C 0.40891 0.52152 0.72045 0.0
C769 C 0.36859 0.5768 0.74548 0.0
H770 H 0.38889 0.56429 0.86468 0.0
C771 C 0.32029 0.62862 0.89094 0.0
C772 C 0.31732 0.6143 0.92864 0.0
C773 C 0.33423 0.61844 0.85622 0.0
C774 C 0.38271 0.56772 0.83161 0.0
H775 H 0.42988 0.56091 0.62191 0.0
H776 H 0.40879 0.58276 0.68199 0.0
H777 H 0.41345 0.54483 0.80602 0.0
H778 H 0.32523 0.5778 0.95912 0.0
H779 H 0.34869 0.55961 0.89819 0.0
H780 H 0.33734 0.59896 0.77083 0.0
C781 C 0.41206 0.56214 0.68344 0.0
C782 C 0.39691 0.55669 0.79807 0.0
C783 C 0.42421 0.54962 0.64896 0.0
C784 C 0.32762 0.58933 0.93054 0.0
C785 C 0.34122 0.57903 0.89575 0.0
C786 C 0.35415 0.58758 0.77904 0.0
C787 C 0.40405 0.54814 0.71927 0.0
C788 C 0.38987 0.56099 0.75474 0.0
C789 C 0.34515 0.59362 0.85847 0.0
C790 C 0.3609 0.58298 0.82255 0.0
H791 H 0.42359 0.48829 0.68714 0.0
H792 H 0.40283 0.51024 0.74767 0.0
H793 H 0.36263 0.58018 0.71225 0.0
H794 H 0.31259 0.64799 0.88896 0.0
H795 H 0.33705 0.6303 0.82818 0.0
C796 C 0.46095 0.4163 0.62504 0.0
C797 C 0.48418 0.42988 0.63117 0.0
C798 C 0.4495 0.40393 0.65965 0.0
C799 C 0.46615 0.37651 0.76566 0.0
H800 H 0.39206 0.37601 0.78147 0.0
C801 C 0.41962 0.33693 0.91873 0.0
C802 C 0.397 0.32208 0.91341 0.0
C803 C 0.43 0.34978 0.88374 0.0
C804 C 0.41275 0.37574 0.77715 0.0
H805 H 0.5139 0.44134 0.67798 0.0
H806 H 0.49379 0.42009 0.73885 0.0
H807 H 0.41029 0.40024 0.72214 0.0
H808 H 0.36762 0.30885 0.86721 0.0
H809 H 0.38598 0.33116 0.80569 0.0
H810 H 0.46864 0.3521 0.82064 0.0
C811 C 0.4844 0.41878 0.70725 0.0
C812 C 0.4232 0.38964 0.74324 0.0
C813 C 0.49583 0.43107 0.67255 0.0
C814 C 0.38515 0.32007 0.87218 0.0
C815 C 0.3955 0.33303 0.83713 0.0
C816 C 0.45572 0.36268 0.79955 0.0
C817 C 0.46126 0.40479 0.70107 0.0
C818 C 0.45003 0.39026 0.73723 0.0
C819 C 0.418 0.34809 0.84261 0.0
C820 C 0.42892 0.36221 0.80577 0.0
H821 H 0.45241 0.41403 0.59308 0.0
H822 H 0.43199 0.39285 0.65358 0.0
H823 H 0.48685 0.37613 0.76138 0.0
H824 H 0.42937 0.33858 0.95001 0.0
H825 H 0.44723 0.3614 0.8891 0.0
C826 C 0.56503 0.48978 0.67652 0.0
C827 C 0.56841 0.48197 0.63323 0.0
C828 C 0.57404 0.47449 0.71021 0.0
C829 C 0.62455 0.42763 0.73352 0.0
H830 H 0.58936 0.42269 0.84288 0.0
C831 C 0.67158 0.38129 0.88496 0.0
C832 C 0.6692 0.3959 0.92356 0.0
C833 C 0.65716 0.38761 0.84793 0.0
C834 C 0.59942 0.42392 0.81252 0.0
H835 H 0.58397 0.45232 0.5912 0.0
H836 H 0.5994 0.42513 0.65003 0.0
H837 H 0.56673 0.44053 0.7803 0.0
H838 H 0.65029 0.42895 0.95316 0.0
H839 H 0.62514 0.43982 0.88889 0.0
H840 H 0.65749 0.41172 0.76612 0.0
C841 C 0.58964 0.44302 0.65791 0.0
C842 C 0.58647 0.4341 0.77673 0.0
C843 C 0.58048 0.45834 0.6242 0.0
C844 C 0.65216 0.41695 0.92427 0.0
C845 C 0.63772 0.42317 0.88743 0.0
C846 C 0.6375 0.4174 0.76934 0.0
C847 C 0.58687 0.45116 0.70129 0.0
C848 C 0.59913 0.43673 0.73718 0.0
C849 C 0.64003 0.40859 0.84887 0.0
C850 C 0.6253 0.41613 0.80952 0.0
H851 H 0.55583 0.508 0.68435 0.0
H852 H 0.57194 0.48151 0.74323 0.0
H853 H 0.63494 0.42964 0.70362 0.0
H854 H 0.68435 0.3648 0.88353 0.0
H855 H 0.65925 0.37596 0.81869 0.0
C856 C 0.56039 0.47252 0.33958 0.0
C857 C 0.57496 0.49154 0.3621 0.0
C858 C 0.57205 0.45615 0.30929 0.0
C859 C 0.63552 0.43199 0.27355 0.0
H860 H 0.60098 0.42374 0.16167 0.0
C861 C 0.68839 0.40473 0.11705 0.0
C862 C 0.67523 0.39015 0.08475 0.0
C863 C 0.67596 0.4121 0.15507 0.0
C864 C 0.61069 0.42534 0.19297 0.0
H865 H 0.61325 0.50814 0.37092 0.0
H866 H 0.6335 0.47983 0.31769 0.0
H867 H 0.57926 0.44631 0.22034 0.0
H868 H 0.63941 0.37028 0.06815 0.0
H869 H 0.61771 0.38298 0.1348 0.0
H870 H 0.66724 0.41155 0.24576 0.0
C871 C 0.61314 0.47731 0.32387 0.0
C872 C 0.59823 0.43834 0.2266 0.0
C873 C 0.60147 0.4937 0.35404 0.0
C874 C 0.64987 0.38188 0.09224 0.0
C875 C 0.63746 0.38918 0.13033 0.0
C876 C 0.64798 0.41893 0.23992 0.0
C877 C 0.59853 0.45846 0.30098 0.0
C878 C 0.61072 0.44227 0.26695 0.0
C879 C 0.65013 0.40497 0.16163 0.0
C880 C 0.6359 0.41592 0.19898 0.0
H881 H 0.5399 0.47049 0.34491 0.0
H882 H 0.56032 0.4417 0.29231 0.0
H883 H 0.64545 0.43437 0.30456 0.0
H884 H 0.70784 0.41163 0.11197 0.0
H885 H 0.68619 0.42452 0.17824 0.0
C886 C 0.4951 0.60006 0.33 0.0
C887 C 0.50761 0.58287 0.35805 0.0
C888 C 0.5084 0.61103 0.29586 0.0
C889 C 0.57456 0.62524 0.25981 0.0
H890 H 0.54136 0.63284 0.14725 0.0
C891 C 0.62453 0.6777 0.12056 0.0
C892 C 0.62235 0.66586 0.0793 0.0
C893 C 0.60945 0.66917 0.15464 0.0
C894 C 0.55094 0.63076 0.17845 0.0
H895 H 0.54374 0.56342 0.37179 0.0
H896 H 0.56678 0.58217 0.31196 0.0
H897 H 0.51743 0.61386 0.2061 0.0
H898 H 0.6028 0.63564 0.0416 0.0
H899 H 0.57663 0.62078 0.10087 0.0
H900 H 0.60831 0.64141 0.23186 0.0
C901 C 0.54684 0.58756 0.31675 0.0
C902 C 0.53714 0.62013 0.21231 0.0
C903 C 0.53356 0.57662 0.35085 0.0
C904 C 0.60459 0.64552 0.07277 0.0
C905 C 0.58957 0.63699 0.10678 0.0
C906 C 0.58837 0.63585 0.22596 0.0
C907 C 0.53449 0.60505 0.28903 0.0
C908 C 0.54886 0.61704 0.2533 0.0
C909 C 0.59193 0.64858 0.14821 0.0
C910 C 0.57679 0.63856 0.18478 0.0
H911 H 0.47508 0.60524 0.33461 0.0
H912 H 0.49836 0.62459 0.27533 0.0
H913 H 0.58406 0.62348 0.29115 0.0
H914 H 0.63787 0.69358 0.12647 0.0
H915 H 0.61149 0.67875 0.18602 0.0
C916 C 0.39249 0.53175 0.35585 0.0
C917 C 0.41937 0.52911 0.36039 0.0
C918 C 0.38197 0.54903 0.32636 0.0
C919 C 0.39693 0.5812 0.22539 0.0
H920 H 0.33413 0.61899 0.24958 0.0
C921 C 0.34548 0.63779 0.09206 0.0
C922 C 0.319 0.6322 0.08743 0.0
C923 C 0.35902 0.6312 0.12972 0.0
C924 C 0.35167 0.60857 0.24238 0.0
H925 H 0.45633 0.54264 0.33771 0.0
H926 H 0.43791 0.57313 0.28644 0.0
H927 H 0.35605 0.59578 0.30763 0.0
H928 H 0.28565 0.61665 0.11948 0.0
H929 H 0.30926 0.60503 0.18519 0.0
H930 H 0.39218 0.59321 0.15994 0.0
C931 C 0.42499 0.56168 0.30558 0.0
C932 C 0.3642 0.59526 0.27556 0.0
C933 C 0.43553 0.54434 0.33512 0.0
C934 C 0.30599 0.6214 0.12229 0.0
C935 C 0.31955 0.61476 0.15995 0.0
C936 C 0.38443 0.5945 0.19225 0.0
C937 C 0.39807 0.56408 0.30069 0.0
C938 C 0.38662 0.58092 0.26715 0.0
C939 C 0.34636 0.61884 0.1635 0.0
C940 C 0.36134 0.60784 0.20014 0.0
H941 H 0.3795 0.52033 0.37489 0.0
H942 H 0.36116 0.55008 0.32287 0.0
H943 H 0.41398 0.57008 0.21769 0.0
H944 H 0.3559 0.64649 0.06591 0.0
H945 H 0.37958 0.63503 0.13184 0.0
C946 C 0.47685 0.42437 0.31685 0.0
C947 C 0.46797 0.42545 0.35956 0.0
C948 C 0.46099 0.41472 0.28327 0.0
C949 C 0.40655 0.37074 0.26281 0.0
H950 H 0.40892 0.39948 0.1479 0.0
C951 C 0.3859 0.31164 0.10655 0.0
C952 C 0.37542 0.32407 0.07027 0.0
C953 C 0.39105 0.32551 0.14498 0.0
C954 C 0.40759 0.39142 0.1799 0.0
H955 H 0.43525 0.41787 0.40041 0.0
H956 H 0.40749 0.40106 0.34156 0.0
H957 H 0.42969 0.42244 0.20861 0.0
H958 H 0.3602 0.36022 0.04675 0.0
H959 H 0.36901 0.38446 0.11407 0.0
H960 H 0.38472 0.33951 0.23389 0.0
C961 C 0.42681 0.4075 0.3342 0.0
C962 C 0.41979 0.40444 0.21459 0.0
C963 C 0.44267 0.41724 0.36784 0.0
C964 C 0.36868 0.35026 0.07404 0.0
C965 C 0.37376 0.36412 0.11252 0.0
C966 C 0.39432 0.35769 0.22806 0.0
C967 C 0.4359 0.40592 0.29162 0.0
C968 C 0.42 0.39391 0.25618 0.0
C969 C 0.38576 0.35209 0.14796 0.0
C970 C 0.39526 0.36758 0.18601 0.0
H971 H 0.49623 0.43058 0.30936 0.0
H972 H 0.46872 0.41342 0.25093 0.0
H973 H 0.40646 0.36206 0.29445 0.0
H974 H 0.39155 0.29154 0.10448 0.0
H975 H 0.40059 0.3157 0.17145 0.0
loop_
_geom_bond_atom_site_label_1
_geom_bond_atom_site_label_2
_geom_bond_distance
_geom_bond_site_symmetry_2
_ccdc_geom_bond_type
Zn0 O2 1.933 1_556 S
Zn0 O20 1.985 . S
Zn0 O31 1.955 . S
Zn1 O2 1.911 . S
Zn1 O21 1.970 . S
Zn1 O37 1.945 . S
Zn1 O44 1.981 . S
O2 Zn0 1.933 1_554 S
O2 Zn1 1.911 . S
O2 H3 0.841 1_655 S
H3 O2 0.841 1_455 S
C4 O5 1.246 . S
C4 O33 1.276 1_545 S
O5 C4 1.246 . S
Zn6 O8 1.911 . S
Zn6 O23 1.970 . S
Zn6 O40 1.945 . S
Zn6 O47 1.981 . S
Zn7 O8 1.933 1_556 S
Zn7 O22 1.985 . S
Zn7 O29 1.955 . S
O8 Zn6 1.911 . S
O8 Zn7 1.933 1_554 S
O8 H9 0.841 1_455 S
H9 O8 0.841 1_655 S
Zn10 O11 1.933 1_556 S
Zn10 O24 1.985 . S
Zn10 O33 1.955 . S
O11 Zn10 1.933 1_554 S
O11 Zn12 1.911 . S
O11 H13 0.841 1_565 S
Zn12 O11 1.911 . S
Zn12 O25 1.970 . S
Zn12 O41 1.981 . S
Zn12 O43 1.945 . S
H13 O11 0.841 1_545 S
Zn14 O15 1.933 1_556 S
Zn14 O27 1.985 . S
Zn14 O35 1.955 . S
O15 Zn14 1.933 1_554 S
O15 H16 0.841 1_545 S
O15 Zn17 1.911 . S
H16 O15 0.841 1_565 S
Zn17 O15 1.911 . S
Zn17 O28 1.970 . S
Zn17 O38 1.981 . S
Zn17 O46 1.945 . S
C18 O19 1.246 . S
C18 O35 1.276 1_565 S
O19 C18 1.246 . S
O20 Zn0 1.985 . S
O20 C30 1.245 1_556 S
O21 Zn1 1.970 . S
O21 C30 1.263 . S
O22 Zn7 1.985 . S
O22 C34 1.245 1_556 S
O23 Zn6 1.970 . S
O23 C34 1.263 . S
O24 Zn10 1.985 . S
O24 C39 1.245 1_556 S
O25 Zn12 1.970 . S
O25 C39 1.263 . S
C26 O37 1.262 1_455 S
C26 O38 1.245 . S
O27 Zn14 1.985 . S
O27 C45 1.245 1_556 S
O28 Zn17 1.970 . S
O28 C45 1.263 . S
O29 Zn7 1.955 . S
O29 C48 1.276 1_455 S
C30 O20 1.245 1_554 S
C30 O21 1.263 . S
O31 Zn0 1.955 . S
O31 C50 1.276 1_655 S
C32 O40 1.262 1_655 S
C32 O41 1.245 . S
O33 C4 1.276 1_565 S
O33 Zn10 1.955 . S
C34 O22 1.245 1_554 S
C34 O23 1.263 . S
O35 Zn14 1.955 . S
O35 C18 1.276 1_545 S
C36 O43 1.262 1_545 S
C36 O44 1.245 . S
O37 Zn1 1.945 . S
O37 C26 1.262 1_655 S
O38 Zn17 1.981 . S
O38 C26 1.245 . S
C39 O24 1.245 1_554 S
C39 O25 1.263 . S
O40 Zn6 1.945 . S
O40 C32 1.262 1_455 S
O41 Zn12 1.981 . S
O41 C32 1.245 . S
C42 O46 1.262 1_565 S
C42 O47 1.245 . S
O43 Zn12 1.945 . S
O43 C36 1.262 1_565 S
O44 Zn1 1.981 . S
O44 C36 1.245 . S
C45 O27 1.245 1_554 S
C45 O28 1.263 . S
O46 Zn17 1.945 . S
O46 C42 1.262 1_545 S
O47 Zn6 1.981 . S
O47 C42 1.245 . S
C48 O29 1.276 1_655 S
C48 O49 1.246 . S
O49 C48 1.246 . S
C50 O31 1.276 1_455 S
C50 O51 1.246 . S
O51 C50 1.246 . S
Zn52 O54 1.933 . S
Zn52 O72 1.985 . S
Zn52 O83 1.955 . S
Zn53 O54 1.911 . S
Zn53 O73 1.970 . S
Zn53 O89 1.945 . S
Zn53 O96 1.981 . S
O54 Zn52 1.933 . S
O54 Zn53 1.911 . S
O54 H55 0.841 . S
H55 O54 0.841 . S
C56 O57 1.246 . S
C56 O85 1.276 . S
O57 C56 1.246 . S
Zn58 O60 1.911 . S
Zn58 O75 1.970 . S
Zn58 O92 1.945 . S
Zn58 O99 1.981 . S
Zn59 O60 1.933 . S
Zn59 O74 1.985 . S
Zn59 O81 1.955 . S
O60 Zn58 1.911 . S
O60 Zn59 1.933 . S
O60 H61 0.841 . S
H61 O60 0.841 . S
Zn62 O63 1.933 . S
Zn62 O76 1.985 . S
Zn62 O85 1.955 . S
O63 Zn62 1.933 . S
O63 Zn64 1.911 . S
O63 H65 0.841 . S
Zn64 O63 1.911 . S
Zn64 O77 1.970 . S
Zn64 O93 1.981 . S
Zn64 O95 1.945 . S
H65 O63 0.841 . S
Zn66 O67 1.933 . S
Zn66 O79 1.985 . S
Zn66 O87 1.955 . S
O67 Zn66 1.933 . S
O67 H68 0.841 . S
O67 Zn69 1.911 . S
H68 O67 0.841 . S
Zn69 O67 1.911 . S
Zn69 O80 1.970 . S
Zn69 O90 1.981 . S
Zn69 O98 1.945 . S
C70 O71 1.246 . S
C70 O87 1.276 . S
O71 C70 1.246 . S
O72 Zn52 1.985 . S
O72 C82 1.245 . S
O73 Zn53 1.970 . S
O73 C82 1.263 . S
O74 Zn59 1.985 . S
O74 C86 1.245 . S
O75 Zn58 1.970 . S
O75 C86 1.263 . S
O76 Zn62 1.985 . S
O76 C91 1.245 . S
O77 Zn64 1.970 . S
O77 C91 1.263 . S
C78 O89 1.262 . S
C78 O90 1.245 . S
O79 Zn66 1.985 . S
O79 C97 1.245 . S
O80 Zn69 1.970 . S
O80 C97 1.263 . S
O81 Zn59 1.955 . S
O81 C100 1.276 . S
C82 O72 1.245 . S
C82 O73 1.263 . S
O83 Zn52 1.955 . S
O83 C102 1.276 . S
C84 O92 1.262 . S
C84 O93 1.245 . S
O85 C56 1.276 . S
O85 Zn62 1.955 . S
C86 O74 1.245 . S
C86 O75 1.263 . S
O87 Zn66 1.955 . S
O87 C70 1.276 . S
C88 O95 1.262 . S
C88 O96 1.245 . S
O89 Zn53 1.945 . S
O89 C78 1.262 . S
O90 Zn69 1.981 . S
O90 C78 1.245 . S
C91 O76 1.245 . S
C91 O77 1.263 . S
O92 Zn58 1.945 . S
O92 C84 1.262 . S
O93 Zn64 1.981 . S
O93 C84 1.245 . S
C94 O98 1.262 . S
C94 O99 1.245 . S
O95 Zn64 1.945 . S
O95 C88 1.262 . S
O96 Zn53 1.981 . S
O96 C88 1.245 . S
C97 O79 1.245 . S
C97 O80 1.263 . S
O98 Zn69 1.945 . S
O98 C94 1.262 . S
O99 Zn58 1.981 . S
O99 C94 1.245 . S
C100 O81 1.276 . S
C100 O101 1.246 . S
O101 C100 1.246 . S
C102 O83 1.276 . S
C102 O103 1.246 . S
O103 C102 1.246 . S
H104 C105 0.949 . S
C105 H104 0.949 . S
C105 C106 1.395 . S
C105 C107 1.391 1_554 S
C106 C105 1.395 . S
C106 C109 1.390 . S
C107 C105 1.391 1_556 S
C107 C111 1.387 . S
C107 C112 1.491 . S
H108 C109 0.950 . S
C109 C106 1.390 . S
C109 H108 0.950 . S
C109 C110 1.378 1_554 S
C110 C109 1.378 1_556 S
C110 C111 1.409 . S
C111 C107 1.387 . S
C111 C110 1.409 . S
C111 H113 0.951 . S
C112 C107 1.491 . S
C112 C114 1.382 1_556 S
C112 C116 1.404 . S
H113 C111 0.951 . S
C114 C112 1.382 1_554 S
C114 C115 1.388 1_554 S
C114 H119 0.949 . S
C115 C114 1.388 1_556 S
C115 C120 1.409 . S
C116 C112 1.404 . S
C116 H117 0.950 . S
C116 C118 1.375 . S
H117 C116 0.950 . S
C118 C116 1.375 . S
C118 C120 1.382 . S
C118 H122 0.950 . S
H119 C114 0.949 . S
C120 C115 1.409 . S
C120 C118 1.382 . S
C120 H121 0.952 . S
H121 C120 0.952 . S
H122 C118 0.950 . S
H123 C124 0.949 . S
C124 H123 0.949 . S
C124 C125 1.395 . S
C124 C126 1.391 1_554 S
C125 C124 1.395 . S
C125 C128 1.390 . S
C126 C124 1.391 1_556 S
C126 C130 1.387 . S
C126 C131 1.491 . S
H127 C128 0.950 . S
C128 C125 1.390 . S
C128 H127 0.950 . S
C128 C129 1.378 1_554 S
C129 C128 1.378 1_556 S
C129 C130 1.409 . S
C130 C126 1.387 . S
C130 C129 1.409 . S
C130 H132 0.951 . S
C131 C126 1.491 . S
C131 C133 1.382 1_556 S
C131 C135 1.404 . S
H132 C130 0.951 . S
C133 C131 1.382 1_554 S
C133 C134 1.390 . S
C133 H138 0.949 . S
C134 C133 1.390 . S
C134 C139 1.399 1_554 S
C135 C131 1.404 . S
C135 H136 0.950 . S
C135 C137 1.375 . S
H136 C135 0.950 . S
C137 C135 1.375 . S
C137 C139 1.382 . S
C137 H141 0.950 . S
H138 C133 0.949 . S
C139 C134 1.399 1_556 S
C139 C137 1.382 . S
C139 H140 0.952 . S
H140 C139 0.952 . S
H141 C137 0.950 . S
H142 C143 0.949 . S
C143 H142 0.949 . S
C143 C144 1.395 . S
C143 C145 1.391 1_556 S
C144 C143 1.395 . S
C144 C147 1.390 1_556 S
C145 C143 1.391 1_554 S
C145 C149 1.387 . S
C145 C150 1.491 . S
H146 C147 0.950 . S
C147 C144 1.390 1_554 S
C147 H146 0.950 . S
C147 C148 1.378 . S
C148 C147 1.378 . S
C148 C149 1.409 . S
C149 C145 1.387 . S
C149 C148 1.409 . S
C149 H151 0.951 . S
C150 C145 1.491 . S
C150 C152 1.382 . S
C150 C154 1.404 . S
H151 C149 0.951 . S
C152 C150 1.382 . S
C152 C153 1.390 . S
C152 H157 0.949 1_554 S
C153 C152 1.390 . S
C153 C158 1.399 . S
C154 C150 1.404 . S
C154 H155 0.950 . S
C154 C156 1.375 . S
H155 C154 0.950 . S
C156 C154 1.375 . S
C156 C158 1.382 . S
C156 H160 0.950 . S
H157 C152 0.949 1_556 S
C158 C153 1.399 . S
C158 C156 1.382 . S
C158 H159 0.952 . S
H159 C158 0.952 . S
H160 C156 0.950 . S
H161 C162 0.949 . S
C162 H161 0.949 . S
C162 C163 1.395 . S
C162 C164 1.391 1_554 S
C163 C162 1.395 . S
C163 C166 1.390 . S
C164 C162 1.391 1_556 S
C164 C168 1.387 . S
C164 C169 1.491 . S
H165 C166 0.950 . S
C166 C163 1.390 . S
C166 H165 0.950 . S
C166 C167 1.378 1_554 S
C167 C166 1.378 1_556 S
C167 C168 1.409 . S
C168 C164 1.387 . S
C168 C167 1.409 . S
C168 H170 0.951 . S
C169 C164 1.491 . S
C169 C171 1.382 1_556 S
C169 C173 1.404 . S
H170 C168 0.951 . S
C171 C169 1.382 1_554 S
C171 C172 1.393 . S
C171 H176 0.949 . S
C172 C171 1.393 . S
C172 C177 1.381 1_554 S
C173 C169 1.404 . S
C173 H174 0.950 . S
C173 C175 1.375 . S
H174 C173 0.950 . S
C175 C173 1.375 . S
C175 C177 1.382 . S
C175 H179 0.950 . S
H176 C171 0.949 . S
C177 C172 1.381 1_556 S
C177 C175 1.382 . S
C177 H178 0.952 . S
H178 C177 0.952 . S
H179 C175 0.950 . S
H180 C181 0.949 . S
C181 H180 0.949 . S
C181 C182 1.395 . S
C181 C183 1.391 . S
C182 C181 1.395 . S
C182 C185 1.390 . S
C183 C181 1.391 . S
C183 C187 1.387 . S
C183 C188 1.491 . S
H184 C185 0.950 . S
C185 C182 1.390 . S
C185 H184 0.950 . S
C185 C186 1.378 . S
C186 C185 1.378 . S
C186 C187 1.409 . S
C187 C183 1.387 . S
C187 C186 1.409 . S
C187 H189 0.951 . S
C188 C183 1.491 . S
C188 C190 1.382 . S
C188 C192 1.404 . S
H189 C187 0.951 . S
C190 C188 1.382 . S
C190 C191 1.390 . S
C190 H195 0.949 . S
C191 C190 1.390 . S
C191 C196 1.399 . S
C192 C188 1.404 . S
C192 H193 0.950 . S
C192 C194 1.375 . S
H193 C192 0.950 . S
C194 C192 1.375 . S
C194 C196 1.382 . S
C194 H198 0.950 . S
H195 C190 0.949 . S
C196 C191 1.399 . S
C196 C194 1.382 . S
C196 H197 0.952 . S
H197 C196 0.952 . S
H198 C194 0.950 . S
H199 C200 0.949 . S
C200 H199 0.949 . S
C200 C201 1.395 . S
C200 C202 1.391 . S
C201 C200 1.395 . S
C201 C204 1.390 . S
C202 C200 1.391 . S
C202 C206 1.387 . S
C202 C207 1.491 . S
H203 C204 0.950 . S
C204 C201 1.390 . S
C204 H203 0.950 . S
C204 C205 1.378 . S
C205 C204 1.378 . S
C205 C206 1.409 . S
C206 C202 1.387 . S
C206 C205 1.409 . S
C206 H208 0.951 . S
C207 C202 1.491 . S
C207 C209 1.382 . S
C207 C211 1.404 . S
H208 C206 0.951 . S
C209 C207 1.382 . S
C209 C210 1.390 . S
C209 H214 0.949 . S
C210 C209 1.390 . S
C210 C215 1.399 . S
C211 C207 1.404 . S
C211 H212 0.950 . S
C211 C213 1.375 . S
H212 C211 0.950 . S
C213 C211 1.375 . S
C213 C215 1.382 . S
C213 H217 0.950 . S
H214 C209 0.949 . S
C215 C210 1.399 . S
C215 C213 1.382 . S
C215 H216 0.952 . S
H216 C215 0.952 . S
H217 C213 0.950 . S
H218 C219 0.949 . S
C219 H218 0.949 . S
C219 C220 1.395 . S
C219 C221 1.391 . S
C220 C219 1.395 . S
C220 C223 1.390 . S
C221 C219 1.391 . S
C221 C225 1.387 . S
C221 C226 1.491 . S
H222 C223 0.950 . S
C223 C220 1.390 . S
C223 H222 0.950 . S
C223 C224 1.378 . S
C224 C223 1.378 . S
C224 C225 1.409 . S
C225 C221 1.387 . S
C225 C224 1.409 . S
C225 H227 0.951 . S
C226 C221 1.491 . S
C226 C228 1.382 . S
C226 C230 1.404 . S
H227 C225 0.951 . S
C228 C226 1.382 . S
C228 C229 1.390 . S
C228 H233 0.949 . S
C229 C228 1.390 . S
C229 C234 1.399 . S
C230 C226 1.404 . S
C230 H231 0.950 . S
C230 C232 1.375 . S
H231 C230 0.950 . S
C232 C230 1.375 . S
C232 C234 1.382 . S
C232 H236 0.950 . S
H233 C228 0.949 . S
C234 C229 1.399 . S
C234 C232 1.382 . S
C234 H235 0.952 . S
H235 C234 0.952 . S
H236 C232 0.950 . S
H237 C238 0.949 . S
C238 H237 0.949 . S
C238 C239 1.395 . S
C238 C240 1.391 . S
C239 C238 1.395 . S
C239 C242 1.390 . S
C240 C238 1.391 . S
C240 C244 1.387 . S
C240 C245 1.491 . S
H241 C242 0.950 . S
C242 C239 1.390 . S
C242 H241 0.950 . S
C242 C243 1.378 . S
C243 C242 1.378 . S
C243 C244 1.409 . S
C244 C240 1.387 . S
C244 C243 1.409 . S
C244 H246 0.951 . S
C245 C240 1.491 . S
C245 C247 1.382 . S
C245 C249 1.404 . S
H246 C244 0.951 . S
C247 C245 1.382 . S
C247 C248 1.390 . S
C247 H252 0.949 . S
C248 C247 1.390 . S
C248 C253 1.399 . S
C249 C245 1.404 . S
C249 H250 0.950 . S
C249 C251 1.375 . S
H250 C249 0.950 . S
C251 C249 1.375 . S
C251 C253 1.382 . S
C251 H255 0.950 . S
H252 C247 0.949 . S
C253 C248 1.399 . S
C253 C251 1.382 . S
C253 H254 0.952 . S
H254 C253 0.952 . S
H255 C251 0.950 . S
C256 C257 1.349 1_556 S
C256 C258 1.327 . S
C256 H281 0.950 . S
C257 C256 1.349 1_554 S
C257 C273 1.349 . S
C258 C256 1.327 . S
C258 C277 1.429 1_556 S
C258 H282 0.950 . S
C259 C276 1.574 . S
C259 C278 1.368 . S
C259 H283 0.949 . S
H260 C264 0.949 . S
C261 C262 1.349 . S
C261 C263 1.327 . S
C261 H284 0.950 . S
C262 C261 1.349 . S
C262 C274 1.349 1_554 S
C263 C261 1.327 . S
C263 C279 1.429 . S
C263 H285 0.950 . S
C264 H260 0.949 . S
C264 C272 1.574 . S
C264 C280 1.368 1_556 S
H265 C273 0.950 . S
H266 C271 0.950 . S
H267 C272 0.949 . S
H268 C274 0.950 . S
H269 C275 0.950 . S
H270 C276 0.949 . S
C271 H266 0.950 . S
C271 C273 1.327 . S
C271 C277 1.429 . S
C272 C264 1.574 . S
C272 H267 0.949 . S
C272 C278 1.368 1_556 S
C273 C257 1.349 . S
C273 H265 0.950 . S
C273 C271 1.327 . S
C274 C262 1.349 1_556 S
C274 H268 0.950 . S
C274 C275 1.327 . S
C275 H269 0.950 . S
C275 C274 1.327 . S
C275 C279 1.429 1_556 S
C276 C259 1.574 . S
C276 H270 0.949 . S
C276 C280 1.368 . S
C277 C258 1.429 1_554 S
C277 C271 1.429 . S
C277 C278 1.523 . S
C278 C259 1.368 . S
C278 C272 1.368 1_554 S
C278 C277 1.523 . S
C279 C263 1.429 . S
C279 C275 1.429 1_554 S
C279 C280 1.523 . S
C280 C264 1.368 1_554 S
C280 C276 1.368 . S
C280 C279 1.523 . S
H281 C256 0.950 . S
H282 C258 0.950 . S
H283 C259 0.949 . S
H284 C261 0.950 . S
H285 C263 0.950 . S
C286 C287 1.349 . S
C286 C288 1.327 . S
C286 H311 0.950 . S
C287 C286 1.349 . S
C287 C303 1.349 1_554 S
C288 C286 1.327 . S
C288 C307 1.429 . S
C288 H312 0.950 . S
C289 C306 1.574 . S
C289 C308 1.368 1_556 S
C289 H313 0.949 . S
H290 C294 0.949 . S
C291 C292 1.349 1_556 S
C291 C293 1.327 . S
C291 H314 0.950 . S
C292 C291 1.349 1_554 S
C292 C304 1.349 . S
C293 C291 1.327 . S
C293 C309 1.429 1_556 S
C293 H315 0.950 . S
C294 H290 0.949 . S
C294 C302 1.574 . S
C294 C310 1.368 . S
H295 C303 0.950 . S
H296 C301 0.950 . S
H297 C302 0.949 . S
H298 C304 0.950 . S
H299 C305 0.950 . S
H300 C306 0.949 . S
C301 H296 0.950 . S
C301 C303 1.327 . S
C301 C307 1.429 1_556 S
C302 C294 1.574 . S
C302 H297 0.949 . S
C302 C308 1.368 . S
C303 C287 1.349 1_556 S
C303 H295 0.950 . S
C303 C301 1.327 . S
C304 C292 1.349 . S
C304 H298 0.950 . S
C304 C305 1.327 . S
C305 H299 0.950 . S
C305 C304 1.327 . S
C305 C309 1.429 . S
C306 C289 1.574 . S
C306 H300 0.949 . S
C306 C310 1.368 1_556 S
C307 C288 1.429 . S
C307 C301 1.429 1_554 S
C307 C308 1.523 . S
C308 C289 1.368 1_554 S
C308 C302 1.368 . S
C308 C307 1.523 . S
C309 C293 1.429 1_554 S
C309 C305 1.429 . S
C309 C310 1.523 . S
C310 C294 1.368 . S
C310 C306 1.368 1_554 S
C310 C309 1.523 . S
H311 C286 0.950 . S
H312 C288 0.950 . S
H313 C289 0.949 . S
H314 C291 0.950 . S
H315 C293 0.950 . S
C316 C317 1.349 1_556 S
C316 C318 1.327 . S
C316 H341 0.950 . S
C317 C316 1.349 1_554 S
C317 C333 1.349 . S
C318 C316 1.327 . S
C318 C337 1.429 1_556 S
C318 H342 0.950 . S
C319 C336 1.574 . S
C319 C338 1.389 . S
C319 H343 0.949 . S
H320 C324 0.949 . S
C321 C322 1.349 1_554 S
C321 C323 1.327 . S
C321 H344 0.950 . S
C322 C321 1.349 1_556 S
C322 C334 1.349 . S
C323 C321 1.327 . S
C323 C339 1.429 1_554 S
C323 H345 0.950 . S
C324 H320 0.949 . S
C324 C332 1.574 . S
C324 C340 1.380 . S
H325 C333 0.950 . S
H326 C331 0.950 . S
H327 C332 0.949 . S
H328 C334 0.950 . S
H329 C335 0.950 . S
H330 C336 0.949 . S
C331 H326 0.950 . S
C331 C333 1.327 . S
C331 C337 1.429 . S
C332 C324 1.574 . S
C332 H327 0.949 . S
C332 C338 1.348 1_556 S
C333 C317 1.349 . S
C333 H325 0.950 . S
C333 C331 1.327 . S
C334 C322 1.349 . S
C334 H328 0.950 . S
C334 C335 1.327 . S
C335 H329 0.950 . S
C335 C334 1.327 . S
C335 C339 1.429 . S
C336 C319 1.574 . S
C336 H330 0.949 . S
C336 C340 1.357 1_554 S
C337 C318 1.429 1_554 S
C337 C331 1.429 . S
C337 C338 1.523 . S
C338 C319 1.389 . S
C338 C332 1.348 1_554 S
C338 C337 1.523 . S
C339 C323 1.429 1_556 S
C339 C335 1.429 . S
C339 C340 1.523 . S
C340 C324 1.380 . S
C340 C336 1.357 1_556 S
C340 C339 1.523 . S
H341 C316 0.950 . S
H342 C318 0.950 . S
H343 C319 0.949 . S
H344 C321 0.950 . S
H345 C323 0.950 . S
C346 C347 1.349 1_556 S
C346 C348 1.327 . S
C346 H371 0.950 . S
C347 C346 1.349 1_554 S
C347 C363 1.349 . S
C348 C346 1.327 . S
C348 C367 1.429 1_556 S
C348 H372 0.950 . S
C349 C366 1.574 . S
C349 C368 1.368 . S
C349 H373 0.949 . S
H350 C354 0.949 . S
C351 C352 1.349 . S
C351 C353 1.327 . S
C351 H374 0.950 . S
C352 C351 1.349 . S
C352 C364 1.349 1_554 S
C353 C351 1.327 . S
C353 C369 1.429 . S
C353 H375 0.950 . S
C354 H350 0.949 . S
C354 C362 1.574 . S
C354 C370 1.368 1_556 S
H355 C363 0.950 . S
H356 C361 0.950 . S
H357 C362 0.949 . S
H358 C364 0.950 . S
H359 C365 0.950 . S
H360 C366 0.949 . S
C361 H356 0.950 . S
C361 C363 1.327 . S
C361 C367 1.429 . S
C362 C354 1.574 . S
C362 H357 0.949 . S
C362 C368 1.368 1_556 S
C363 C347 1.349 . S
C363 H355 0.950 . S
C363 C361 1.327 . S
C364 C352 1.349 1_556 S
C364 H358 0.950 . S
C364 C365 1.327 . S
C365 H359 0.950 . S
C365 C364 1.327 . S
C365 C369 1.429 1_556 S
C366 C349 1.574 . S
C366 H360 0.949 . S
C366 C370 1.368 . S
C367 C348 1.429 1_554 S
C367 C361 1.429 . S
C367 C368 1.523 . S
C368 C349 1.368 . S
C368 C362 1.368 1_554 S
C368 C367 1.523 . S
C369 C353 1.429 . S
C369 C365 1.429 1_554 S
C369 C370 1.523 . S
C370 C354 1.368 1_554 S
C370 C366 1.368 . S
C370 C369 1.523 . S
H371 C346 0.950 . S
H372 C348 0.950 . S
H373 C349 0.949 . S
H374 C351 0.950 . S
H375 C353 0.950 . S
C376 C377 1.349 . S
C376 C378 1.327 . S
C376 H401 0.950 . S
C377 C376 1.349 . S
C377 C393 1.349 . S
C378 C376 1.327 . S
C378 C397 1.429 . S
C378 H402 0.950 . S
C379 C396 1.574 . S
C379 C398 1.368 . S
C379 H403 0.949 . S
H380 C384 0.949 . S
C381 C382 1.349 . S
C381 C383 1.327 . S
C381 H404 0.950 . S
C382 C381 1.349 . S
C382 C394 1.349 . S
C383 C381 1.327 . S
C383 C399 1.429 . S
C383 H405 0.950 . S
C384 H380 0.949 . S
C384 C392 1.574 . S
C384 C400 1.368 . S
H385 C393 0.950 . S
H386 C391 0.950 . S
H387 C392 0.949 . S
H388 C394 0.950 . S
H389 C395 0.950 . S
H390 C396 0.949 . S
C391 H386 0.950 . S
C391 C393 1.327 . S
C391 C397 1.429 . S
C392 C384 1.574 . S
C392 H387 0.949 . S
C392 C398 1.368 . S
C393 C377 1.349 . S
C393 H385 0.950 . S
C393 C391 1.327 . S
C394 C382 1.349 . S
C394 H388 0.950 . S
C394 C395 1.327 . S
C395 H389 0.950 . S
C395 C394 1.327 . S
C395 C399 1.429 . S
C396 C379 1.574 . S
C396 H390 0.949 . S
C396 C400 1.368 . S
C397 C378 1.429 . S
C397 C391 1.429 . S
C397 C398 1.523 . S
C398 C379 1.368 . S
C398 C392 1.368 . S
C398 C397 1.523 . S
C399 C383 1.429 . S
C399 C395 1.429 . S
C399 C400 1.523 . S
C400 C384 1.368 . S
C400 C396 1.368 . S
C400 C399 1.523 . S
H401 C376 0.950 . S
H402 C378 0.950 . S
H403 C379 0.949 . S
H404 C381 0.950 . S
H405 C383 0.950 . S
C406 C407 1.349 . S
C406 C408 1.327 . S
C406 H431 0.950 . S
C407 C406 1.349 . S
C407 C423 1.349 . S
C408 C406 1.327 . S
C408 C427 1.429 . S
C408 H432 0.950 . S
C409 C426 1.574 . S
C409 C428 1.368 . S
C409 H433 0.949 . S
H410 C414 0.949 . S
C411 C412 1.349 . S
C411 C413 1.327 . S
C411 H434 0.950 . S
C412 C411 1.349 . S
C412 C424 1.349 . S
C413 C411 1.327 . S
C413 C429 1.429 . S
C413 H435 0.950 . S
C414 H410 0.949 . S
C414 C422 1.574 . S
C414 C430 1.368 . S
H415 C423 0.950 . S
H416 C421 0.950 . S
H417 C422 0.949 . S
H418 C424 0.950 . S
H419 C425 0.950 . S
H420 C426 0.949 . S
C421 H416 0.950 . S
C421 C423 1.327 . S
C421 C427 1.429 . S
C422 C414 1.574 . S
C422 H417 0.949 . S
C422 C428 1.368 . S
C423 C407 1.349 . S
C423 H415 0.950 . S
C423 C421 1.327 . S
C424 C412 1.349 . S
C424 H418 0.950 . S
C424 C425 1.327 . S
C425 H419 0.950 . S
C425 C424 1.327 . S
C425 C429 1.429 . S
C426 C409 1.574 . S
C426 H420 0.949 . S
C426 C430 1.368 . S
C427 C408 1.429 . S
C427 C421 1.429 . S
C427 C428 1.523 . S
C428 C409 1.368 . S
C428 C422 1.368 . S
C428 C427 1.523 . S
C429 C413 1.429 . S
C429 C425 1.429 . S
C429 C430 1.523 . S
C430 C414 1.368 . S
C430 C426 1.368 . S
C430 C429 1.523 . S
H431 C406 0.950 . S
H432 C408 0.950 . S
H433 C409 0.949 . S
H434 C411 0.950 . S
H435 C413 0.950 . S
C436 C437 1.349 . S
C436 C438 1.327 . S
C436 H461 0.950 . S
C437 C436 1.349 . S
C437 C453 1.349 . S
C438 C436 1.327 . S
C438 C457 1.429 . S
C438 H462 0.950 . S
C439 C456 1.574 . S
C439 C458 1.368 . S
C439 H463 0.949 . S
H440 C444 0.949 . S
C441 C442 1.349 . S
C441 C443 1.327 . S
C441 H464 0.950 . S
C442 C441 1.349 . S
C442 C454 1.349 . S
C443 C441 1.327 . S
C443 C459 1.429 . S
C443 H465 0.950 . S
C444 H440 0.949 . S
C444 C452 1.574 . S
C444 C460 1.368 . S
H445 C453 0.950 . S
H446 C451 0.950 . S
H447 C452 0.949 . S
H448 C454 0.950 . S
H449 C455 0.950 . S
H450 C456 0.949 . S
C451 H446 0.950 . S
C451 C453 1.327 . S
C451 C457 1.429 . S
C452 C444 1.574 . S
C452 H447 0.949 . S
C452 C458 1.368 . S
C453 C437 1.349 . S
C453 H445 0.950 . S
C453 C451 1.327 . S
C454 C442 1.349 . S
C454 H448 0.950 . S
C454 C455 1.327 . S
C455 H449 0.950 . S
C455 C454 1.327 . S
C455 C459 1.429 . S
C456 C439 1.574 . S
C456 H450 0.949 . S
C456 C460 1.368 . S
C457 C438 1.429 . S
C457 C451 1.429 . S
C457 C458 1.523 . S
C458 C439 1.368 . S
C458 C452 1.368 . S
C458 C457 1.523 . S
C459 C443 1.429 . S
C459 C455 1.429 . S
C459 C460 1.523 . S
C460 C444 1.368 . S
C460 C456 1.368 . S
C460 C459 1.523 . S
H461 C436 0.950 . S
H462 C438 0.950 . S
H463 C439 0.949 . S
H464 C441 0.950 . S
H465 C443 0.950 . S
C466 C467 1.349 . S
C466 C468 1.327 . S
C466 H491 0.950 . S
C467 C466 1.349 . S
C467 C483 1.349 . S
C468 C466 1.327 . S
C468 C487 1.429 . S
C468 H492 0.950 . S
C469 C486 1.574 . S
C469 C488 1.368 . S
C469 H493 0.949 . S
H470 C474 0.949 . S
C471 C472 1.349 . S
C471 C473 1.327 . S
C471 H494 0.950 . S
C472 C471 1.349 . S
C472 C484 1.349 . S
C473 C471 1.327 . S
C473 C489 1.429 . S
C473 H495 0.950 . S
C474 H470 0.949 . S
C474 C482 1.574 . S
C474 C490 1.368 . S
H475 C483 0.950 . S
H476 C481 0.950 . S
H477 C482 0.949 . S
H478 C484 0.950 . S
H479 C485 0.950 . S
H480 C486 0.949 . S
C481 H476 0.950 . S
C481 C483 1.327 . S
C481 C487 1.429 . S
C482 C474 1.574 . S
C482 H477 0.949 . S
C482 C488 1.368 . S
C483 C467 1.349 . S
C483 H475 0.950 . S
C483 C481 1.327 . S
C484 C472 1.349 . S
C484 H478 0.950 . S
C484 C485 1.327 . S
C485 H479 0.950 . S
C485 C484 1.327 . S
C485 C489 1.429 . S
C486 C469 1.574 . S
C486 H480 0.949 . S
C486 C490 1.368 . S
C487 C468 1.429 . S
C487 C481 1.429 . S
C487 C488 1.523 . S
C488 C469 1.368 . S
C488 C482 1.368 . S
C488 C487 1.523 . S
C489 C473 1.429 . S
C489 C485 1.429 . S
C489 C490 1.523 . S
C490 C474 1.368 . S
C490 C486 1.368 . S
C490 C489 1.523 . S
H491 C466 0.950 . S
H492 C468 0.950 . S
H493 C469 0.949 . S
H494 C471 0.950 . S
H495 C473 0.950 . S
C496 C497 1.349 . S
C496 C498 1.327 . S
C496 H521 0.950 . S
C497 C496 1.349 . S
C497 C513 1.349 . S
C498 C496 1.327 . S
C498 C517 1.429 . S
C498 H522 0.950 . S
C499 C516 1.574 . S
C499 C518 1.368 . S
C499 H523 0.949 . S
H500 C504 0.949 . S
C501 C502 1.349 . S
C501 C503 1.327 . S
C501 H524 0.950 . S
C502 C501 1.349 . S
C502 C514 1.349 . S
C503 C501 1.327 . S
C503 C519 1.429 . S
C503 H525 0.950 . S
C504 H500 0.949 . S
C504 C512 1.574 . S
C504 C520 1.368 . S
H505 C513 0.950 . S
H506 C511 0.950 . S
H507 C512 0.949 . S
H508 C514 0.950 . S
H509 C515 0.950 . S
H510 C516 0.949 . S
C511 H506 0.950 . S
C511 C513 1.327 . S
C511 C517 1.429 . S
C512 C504 1.574 . S
C512 H507 0.949 . S
C512 C518 1.368 . S
C513 C497 1.349 . S
C513 H505 0.950 . S
C513 C511 1.327 . S
C514 C502 1.349 . S
C514 H508 0.950 . S
C514 C515 1.327 . S
C515 H509 0.950 . S
C515 C514 1.327 . S
C515 C519 1.429 . S
C516 C499 1.574 . S
C516 H510 0.949 . S
C516 C520 1.368 . S
C517 C498 1.429 . S
C517 C511 1.429 . S
C517 C518 1.523 . S
C518 C499 1.368 . S
C518 C512 1.368 . S
C518 C517 1.523 . S
C519 C503 1.429 . S
C519 C515 1.429 . S
C519 C520 1.523 . S
C520 C504 1.368 . S
C520 C516 1.368 . S
C520 C519 1.523 . S
H521 C496 0.950 . S
H522 C498 0.950 . S
H523 C499 0.949 . S
H524 C501 0.950 . S
H525 C503 0.950 . S
C526 C527 1.349 . S
C526 C528 1.327 . S
C526 H551 0.950 . S
C527 C526 1.349 . S
C527 C543 1.349 . S
C528 C526 1.327 . S
C528 C547 1.429 . S
C528 H552 0.950 . S
C529 C546 1.574 . S
C529 C548 1.368 . S
C529 H553 0.949 . S
H530 C534 0.949 . S
C531 C532 1.349 . S
C531 C533 1.327 . S
C531 H554 0.950 . S
C532 C531 1.349 . S
C532 C544 1.349 . S
C533 C531 1.327 . S
C533 C549 1.429 . S
C533 H555 0.950 . S
C534 H530 0.949 . S
C534 C542 1.574 . S
C534 C550 1.368 . S
H535 C543 0.940 1_565 S
H536 C541 0.950 . S
H537 C542 0.949 . S
H538 C544 0.950 . S
H539 C545 0.950 . S
H540 C546 0.949 . S
C541 H536 0.950 . S
C541 C543 1.327 . S
C541 C547 1.429 . S
C542 C534 1.574 . S
C542 H537 0.949 . S
C542 C548 1.368 . S
C543 C527 1.349 . S
C543 H535 0.940 1_545 S
C543 C541 1.327 . S
C544 C532 1.349 . S
C544 H538 0.950 . S
C544 C545 1.327 . S
C545 H539 0.950 . S
C545 C544 1.327 . S
C545 C549 1.429 . S
C546 C529 1.574 . S
C546 H540 0.949 . S
C546 C550 1.368 . S
C547 C528 1.429 . S
C547 C541 1.429 . S
C547 C548 1.523 . S
C548 C529 1.368 . S
C548 C542 1.368 . S
C548 C547 1.523 . S
C549 C533 1.429 . S
C549 C545 1.429 . S
C549 C550 1.523 . S
C550 C534 1.368 . S
C550 C546 1.368 . S
C550 C549 1.523 . S
H551 C526 0.950 . S
H552 C528 0.950 . S
H553 C529 0.949 . S
H554 C531 0.950 . S
H555 C533 0.950 . S
C556 C557 1.349 . S
C556 C558 1.327 . S
C556 H581 0.950 . S
C557 C556 1.349 . S
C557 C573 1.349 . S
C558 C556 1.327 . S
C558 C577 1.429 . S
C558 H582 0.950 . S
C559 C576 1.574 . S
C559 C578 1.368 . S
C559 H583 0.949 . S
H560 C564 0.949 . S
C561 C562 1.349 . S
C561 C563 1.327 . S
C561 H584 0.950 . S
C562 C561 1.349 . S
C562 C574 1.349 . S
C563 C561 1.327 . S
C563 C579 1.429 . S
C563 H585 0.950 . S
C564 H560 0.949 . S
C564 C572 1.574 . S
C564 C580 1.368 . S
H565 C573 0.950 . S
H566 C571 0.950 . S
H567 C572 0.949 . S
H568 C574 0.950 . S
H569 C575 0.950 . S
H570 C576 0.949 . S
C571 H566 0.950 . S
C571 C573 1.327 . S
C571 C577 1.429 . S
C572 C564 1.574 . S
C572 H567 0.949 . S
C572 C578 1.368 . S
C573 C557 1.349 . S
C573 H565 0.950 . S
C573 C571 1.327 . S
C574 C562 1.349 . S
C574 H568 0.950 . S
C574 C575 1.327 . S
C575 H569 0.950 . S
C575 C574 1.327 . S
C575 C579 1.429 . S
C576 C559 1.574 . S
C576 H570 0.949 . S
C576 C580 1.368 . S
C577 C558 1.429 . S
C577 C571 1.429 . S
C577 C578 1.523 . S
C578 C559 1.368 . S
C578 C572 1.368 . S
C578 C577 1.523 . S
C579 C563 1.429 . S
C579 C575 1.429 . S
C579 C580 1.523 . S
C580 C564 1.368 . S
C580 C576 1.368 . S
C580 C579 1.523 . S
H581 C556 0.950 . S
H582 C558 0.950 . S
H583 C559 0.949 . S
H584 C561 0.950 . S
H585 C563 0.950 . S
C586 C587 1.349 . S
C586 C588 1.327 . S
C586 H611 0.950 1_565 S
C587 C586 1.349 . S
C587 C603 1.349 . S
C588 C586 1.327 . S
C588 C607 1.429 . S
C588 H612 0.950 . S
C589 C606 1.574 . S
C589 C608 1.368 . S
C589 H613 0.949 . S
H590 C594 0.949 . S
C591 C592 1.349 . S
C591 C593 1.327 . S
C591 H614 0.950 . S
C592 C591 1.349 . S
C592 C604 1.349 . S
C593 C591 1.327 . S
C593 C609 1.429 . S
C593 H615 0.950 . S
C594 H590 0.949 . S
C594 C602 1.574 . S
C594 C610 1.368 . S
H595 C603 0.950 . S
H596 C601 0.950 . S
H597 C602 0.949 . S
H598 C604 0.950 . S
H599 C605 0.950 . S
H600 C606 0.949 . S
C601 H596 0.950 . S
C601 C603 1.327 . S
C601 C607 1.429 . S
C602 C594 1.574 . S
C602 H597 0.949 . S
C602 C608 1.368 . S
C603 C587 1.349 . S
C603 H595 0.950 . S
C603 C601 1.327 . S
C604 C592 1.349 . S
C604 H598 0.950 . S
C604 C605 1.327 . S
C605 H599 0.950 . S
C605 C604 1.327 . S
C605 C609 1.429 . S
C606 C589 1.574 . S
C606 H600 0.949 . S
C606 C610 1.368 . S
C607 C588 1.429 . S
C607 C601 1.429 . S
C607 C608 1.523 . S
C608 C589 1.368 . S
C608 C602 1.368 . S
C608 C607 1.523 . S
C609 C593 1.429 . S
C609 C605 1.429 . S
C609 C610 1.523 . S
C610 C594 1.368 . S
C610 C606 1.368 . S
C610 C609 1.523 . S
H611 C586 0.950 1_545 S
H612 C588 0.950 . S
H613 C589 0.949 . S
H614 C591 0.950 . S
H615 C593 0.950 . S
C616 C617 1.349 . S
C616 C618 1.327 . S
C616 H641 0.950 . S
C617 C616 1.349 . S
C617 C633 1.349 . S
C618 C616 1.327 . S
C618 C637 1.429 . S
C618 H642 0.950 . S
C619 C636 1.574 . S
C619 C638 1.368 . S
C619 H643 0.949 . S
H620 C624 0.949 . S
C621 C622 1.349 . S
C621 C623 1.327 . S
C621 H644 0.950 . S
C622 C621 1.349 . S
C622 C634 1.349 . S
C623 C621 1.327 . S
C623 C639 1.429 . S
C623 H645 0.950 . S
C624 H620 0.949 . S
C624 C632 1.574 . S
C624 C640 1.368 . S
H625 C633 0.950 . S
H626 C631 0.950 . S
H627 C632 0.949 . S
H628 C634 0.950 . S
H629 C635 0.950 . S
H630 C636 0.949 . S
C631 H626 0.950 . S
C631 C633 1.327 . S
C631 C637 1.429 . S
C632 C624 1.574 . S
C632 H627 0.949 . S
C632 C638 1.368 . S
C633 C617 1.349 . S
C633 H625 0.950 . S
C633 C631 1.327 . S
C634 C622 1.349 . S
C634 H628 0.950 . S
C634 C635 1.327 . S
C635 H629 0.950 . S
C635 C634 1.327 . S
C635 C639 1.429 . S
C636 C619 1.574 . S
C636 H630 0.949 . S
C636 C640 1.368 . S
C637 C618 1.429 . S
C637 C631 1.429 . S
C637 C638 1.523 . S
C638 C619 1.368 . S
C638 C632 1.368 . S
C638 C637 1.523 . S
C639 C623 1.429 . S
C639 C635 1.429 . S
C639 C640 1.523 . S
C640 C624 1.368 . S
C640 C636 1.368 . S
C640 C639 1.523 . S
H641 C616 0.950 . S
H642 C618 0.950 . S
H643 C619 0.949 . S
H644 C621 0.950 . S
H645 C623 0.950 . S
C646 C647 1.349 . S
C646 C648 1.327 . S
C646 H671 0.950 . S
C647 C646 1.349 . S
C647 C663 1.349 . S
C648 C646 1.327 . S
C648 C667 1.429 . S
C648 H672 0.950 . S
C649 C666 1.574 . S
C649 C668 1.368 . S
C649 H673 0.949 . S
H650 C654 0.949 . S
C651 C652 1.349 . S
C651 C653 1.327 . S
C651 H674 0.950 . S
C652 C651 1.349 . S
C652 C664 1.349 . S
C653 C651 1.327 . S
C653 C669 1.429 . S
C653 H675 0.950 . S
C654 H650 0.949 . S
C654 C662 1.574 . S
C654 C670 1.368 . S
H655 C663 0.950 . S
H656 C661 0.950 . S
H657 C662 0.949 . S
H658 C664 0.950 . S
H659 C665 0.950 . S
H660 C666 0.949 . S
C661 H656 0.950 . S
C661 C663 1.327 . S
C661 C667 1.429 . S
C662 C654 1.574 . S
C662 H657 0.949 . S
C662 C668 1.368 . S
C663 C647 1.349 . S
C663 H655 0.950 . S
C663 C661 1.327 . S
C664 C652 1.349 . S
C664 H658 0.950 . S
C664 C665 1.327 . S
C665 H659 0.950 . S
C665 C664 1.327 . S
C665 C669 1.429 . S
C666 C649 1.574 . S
C666 H660 0.949 . S
C666 C670 1.368 . S
C667 C648 1.429 . S
C667 C661 1.429 . S
C667 C668 1.523 . S
C668 C649 1.368 . S
C668 C662 1.368 . S
C668 C667 1.523 . S
C669 C653 1.429 . S
C669 C665 1.429 . S
C669 C670 1.523 . S
C670 C654 1.368 . S
C670 C666 1.368 . S
C670 C669 1.523 . S
H671 C646 0.950 . S
H672 C648 0.950 . S
H673 C649 0.949 . S
H674 C651 0.950 . S
H675 C653 0.950 . S
C676 C677 1.349 . S
C676 C678 1.327 . S
C676 H701 0.950 . S
C677 C676 1.349 . S
C677 C693 1.349 . S
C678 C676 1.327 . S
C678 C697 1.429 . S
C678 H702 0.950 . S
C679 C696 1.574 . S
C679 C698 1.368 . S
C679 H703 0.949 . S
H680 C684 0.949 . S
C681 C682 1.349 . S
C681 C683 1.327 . S
C681 H704 0.950 . S
C682 C681 1.349 . S
C682 C694 1.349 . S
C683 C681 1.327 . S
C683 C699 1.429 . S
C683 H705 0.950 . S
C684 H680 0.949 . S
C684 C692 1.574 . S
C684 C700 1.368 . S
H685 C693 0.950 . S
H686 C691 0.950 . S
H687 C692 0.949 . S
H688 C694 0.950 . S
H689 C695 0.950 . S
H690 C696 0.949 . S
C691 H686 0.950 . S
C691 C693 1.327 . S
C691 C697 1.429 . S
C692 C684 1.574 . S
C692 H687 0.949 . S
C692 C698 1.368 . S
C693 C677 1.349 . S
C693 H685 0.950 . S
C693 C691 1.327 . S
C694 C682 1.349 . S
C694 H688 0.950 . S
C694 C695 1.327 . S
C695 H689 0.950 . S
C695 C694 1.327 . S
C695 C699 1.429 . S
C696 C679 1.574 . S
C696 H690 0.949 . S
C696 C700 1.368 . S
C697 C678 1.429 . S
C697 C691 1.429 . S
C697 C698 1.523 . S
C698 C679 1.368 . S
C698 C692 1.368 . S
C698 C697 1.523 . S
C699 C683 1.429 . S
C699 C695 1.429 . S
C699 C700 1.523 . S
C700 C684 1.368 . S
C700 C696 1.368 . S
C700 C699 1.523 . S
H701 C676 0.950 . S
H702 C678 0.950 . S
H703 C679 0.949 . S
H704 C681 0.950 . S
H705 C683 0.950 . S
C706 C707 1.349 . S
C706 C708 1.327 . S
C706 H731 0.950 . S
C707 C706 1.349 . S
C707 C723 1.349 . S
C708 C706 1.327 . S
C708 C727 1.429 . S
C708 H732 0.950 . S
C709 C726 1.574 . S
C709 C728 1.368 . S
C709 H733 0.949 . S
H710 C714 0.949 . S
C711 C712 1.349 . S
C711 C713 1.327 . S
C711 H734 0.950 . S
C712 C711 1.349 . S
C712 C724 1.349 . S
C713 C711 1.327 . S
C713 C729 1.429 . S
C713 H735 0.950 . S
C714 H710 0.949 . S
C714 C722 1.574 . S
C714 C730 1.368 . S
H715 C723 0.950 . S
H716 C721 0.950 . S
H717 C722 0.949 . S
H718 C724 0.950 . S
H719 C725 0.950 . S
H720 C726 0.949 . S
C721 H716 0.950 . S
C721 C723 1.327 . S
C721 C727 1.429 . S
C722 C714 1.574 . S
C722 H717 0.949 . S
C722 C728 1.368 . S
C723 C707 1.349 . S
C723 H715 0.950 . S
C723 C721 1.327 . S
C724 C712 1.349 . S
C724 H718 0.950 . S
C724 C725 1.327 . S
C725 H719 0.950 . S
C725 C724 1.327 . S
C725 C729 1.429 . S
C726 C709 1.574 . S
C726 H720 0.949 . S
C726 C730 1.368 . S
C727 C708 1.429 . S
C727 C721 1.429 . S
C727 C728 1.523 . S
C728 C709 1.368 . S
C728 C722 1.368 . S
C728 C727 1.523 . S
C729 C713 1.429 . S
C729 C725 1.429 . S
C729 C730 1.523 . S
C730 C714 1.368 . S
C730 C726 1.368 . S
C730 C729 1.523 . S
H731 C706 0.950 . S
H732 C708 0.950 . S
H733 C709 0.949 . S
H734 C711 0.950 . S
H735 C713 0.950 . S
C736 C737 1.349 . S
C736 C738 1.327 . S
C736 H761 0.950 . S
C737 C736 1.349 . S
C737 C753 1.349 . S
C738 C736 1.327 . S
C738 C757 1.429 . S
C738 H762 0.950 . S
C739 C756 1.574 . S
C739 C758 1.368 . S
C739 H763 0.949 . S
H740 C744 0.949 . S
C741 C742 1.349 . S
C741 C743 1.327 . S
C741 H764 0.950 . S
C742 C741 1.349 . S
C742 C754 1.349 . S
C743 C741 1.327 . S
C743 C759 1.429 . S
C743 H765 0.950 . S
C744 H740 0.949 . S
C744 C752 1.574 . S
C744 C760 1.368 . S
H745 C753 0.950 . S
H746 C751 0.950 . S
H747 C752 0.949 . S
H748 C754 0.950 . S
H749 C755 0.950 . S
H750 C756 0.949 . S
C751 H746 0.950 . S
C751 C753 1.327 . S
C751 C757 1.429 . S
C752 C744 1.574 . S
C752 H747 0.949 . S
C752 C758 1.368 . S
C753 C737 1.349 . S
C753 H745 0.950 . S
C753 C751 1.327 . S
C754 C742 1.349 . S
C754 H748 0.950 . S
C754 C755 1.327 . S
C755 H749 0.950 . S
C755 C754 1.327 . S
C755 C759 1.429 . S
C756 C739 1.574 . S
C756 H750 0.949 . S
C756 C760 1.368 . S
C757 C738 1.429 . S
C757 C751 1.429 . S
C757 C758 1.523 . S
C758 C739 1.368 . S
C758 C752 1.368 . S
C758 C757 1.523 . S
C759 C743 1.429 . S
C759 C755 1.429 . S
C759 C760 1.523 . S
C760 C744 1.368 . S
C760 C756 1.368 . S
C760 C759 1.523 . S
H761 C736 0.950 . S
H762 C738 0.950 . S
H763 C739 0.949 . S
H764 C741 0.950 . S
H765 C743 0.950 . S
C766 C767 1.349 . S
C766 C768 1.327 . S
C766 H791 0.950 . S
C767 C766 1.349 . S
C767 C783 1.349 . S
C768 C766 1.327 . S
C768 C787 1.429 . S
C768 H792 0.950 . S
C769 C786 1.574 . S
C769 C788 1.368 . S
C769 H793 0.949 . S
H770 C774 0.949 . S
C771 C772 1.349 . S
C771 C773 1.327 . S
C771 H794 0.950 . S
C772 C771 1.349 . S
C772 C784 1.349 . S
C773 C771 1.327 . S
C773 C789 1.429 . S
C773 H795 0.950 . S
C774 H770 0.949 . S
C774 C782 1.574 . S
C774 C790 1.368 . S
H775 C783 0.950 . S
H776 C781 0.950 . S
H777 C782 0.949 . S
H778 C784 0.950 . S
H779 C785 0.950 . S
H780 C786 0.949 . S
C781 H776 0.950 . S
C781 C783 1.327 . S
C781 C787 1.429 . S
C782 C774 1.574 . S
C782 H777 0.949 . S
C782 C788 1.368 . S
C783 C767 1.349 . S
C783 H775 0.950 . S
C783 C781 1.327 . S
C784 C772 1.349 . S
C784 H778 0.950 . S
C784 C785 1.327 . S
C785 H779 0.950 . S
C785 C784 1.327 . S
C785 C789 1.429 . S
C786 C769 1.574 . S
C786 H780 0.949 . S
C786 C790 1.368 . S
C787 C768 1.429 . S
C787 C781 1.429 . S
C787 C788 1.523 . S
C788 C769 1.368 . S
C788 C782 1.368 . S
C788 C787 1.523 . S
C789 C773 1.429 . S
C789 C785 1.429 . S
C789 C790 1.523 . S
C790 C774 1.368 . S
C790 C786 1.368 . S
C790 C789 1.523 . S
H791 C766 0.950 . S
H792 C768 0.950 . S
H793 C769 0.949 . S
H794 C771 0.950 . S
H795 C773 0.950 . S
C796 C797 1.349 . S
C796 C798 1.327 . S
C796 H821 0.950 . S
C797 C796 1.349 . S
C797 C813 1.349 . S
C798 C796 1.327 . S
C798 C817 1.429 . S
C798 H822 0.950 . S
C799 C816 1.574 . S
C799 C818 1.368 . S
C799 H823 0.949 . S
H800 C804 0.949 . S
C801 C802 1.349 . S
C801 C803 1.327 . S
C801 H824 0.950 . S
C802 C801 1.349 . S
C802 C814 1.349 . S
C803 C801 1.327 . S
C803 C819 1.429 . S
C803 H825 0.950 . S
C804 H800 0.949 . S
C804 C812 1.574 . S
C804 C820 1.368 . S
H805 C813 0.950 . S
H806 C811 0.950 . S
H807 C812 0.949 . S
H808 C814 0.950 . S
H809 C815 0.950 . S
H810 C816 0.949 . S
C811 H806 0.950 . S
C811 C813 1.327 . S
C811 C817 1.429 . S
C812 C804 1.574 . S
C812 H807 0.949 . S
C812 C818 1.368 . S
C813 C797 1.349 . S
C813 H805 0.950 . S
C813 C811 1.327 . S
C814 C802 1.349 . S
C814 H808 0.950 . S
C814 C815 1.327 . S
C815 H809 0.950 . S
C815 C814 1.327 . S
C815 C819 1.429 . S
C816 C799 1.574 . S
C816 H810 0.949 . S
C816 C820 1.368 . S
C817 C798 1.429 . S
C817 C811 1.429 . S
C817 C818 1.523 . S
C818 C799 1.368 . S
C818 C812 1.368 . S
C818 C817 1.523 . S
C819 C803 1.429 . S
C819 C815 1.429 . S
C819 C820 1.523 . S
C820 C804 1.368 . S
C820 C816 1.368 . S
C820 C819 1.523 . S
H821 C796 0.950 . S
H822 C798 0.950 . S
H823 C799 0.949 . S
H824 C801 0.950 . S
H825 C803 0.950 . S
C826 C827 1.349 . S
C826 C828 1.327 . S
C826 H851 0.950 . S
C827 C826 1.349 . S
C827 C843 1.349 . S
C828 C826 1.327 . S
C828 C847 1.429 . S
C828 H852 0.950 . S
C829 C846 1.574 . S
C829 C848 1.368 . S
C829 H853 0.949 . S
H830 C834 0.949 . S
C831 C832 1.349 . S
C831 C833 1.327 . S
C831 H854 0.950 . S
C832 C831 1.349 . S
C832 C844 1.349 . S
C833 C831 1.327 . S
C833 C849 1.429 . S
C833 H855 0.950 . S
C834 H830 0.949 . S
C834 C842 1.574 . S
C834 C850 1.368 . S
H835 C843 0.950 . S
H836 C841 0.950 . S
H837 C842 0.949 . S
H838 C844 0.950 . S
H839 C845 0.950 . S
H840 C846 0.949 . S
C841 H836 0.950 . S
C841 C843 1.327 . S
C841 C847 1.429 . S
C842 C834 1.574 . S
C842 H837 0.949 . S
C842 C848 1.368 . S
C843 C827 1.349 . S
C843 H835 0.950 . S
C843 C841 1.327 . S
C844 C832 1.349 . S
C844 H838 0.950 . S
C844 C845 1.327 . S
C845 H839 0.950 . S
C845 C844 1.327 . S
C845 C849 1.429 . S
C846 C829 1.574 . S
C846 H840 0.949 . S
C846 C850 1.368 . S
C847 C828 1.429 . S
C847 C841 1.429 . S
C847 C848 1.523 . S
C848 C829 1.368 . S
C848 C842 1.368 . S
C848 C847 1.523 . S
C849 C833 1.429 . S
C849 C845 1.429 . S
C849 C850 1.523 . S
C850 C834 1.368 . S
C850 C846 1.368 . S
C850 C849 1.523 . S
H851 C826 0.950 . S
H852 C828 0.950 . S
H853 C829 0.949 . S
H854 C831 0.950 . S
H855 C833 0.950 . S
C856 C857 1.349 . S
C856 C858 1.327 . S
C856 H881 0.950 . S
C857 C856 1.349 . S
C857 C873 1.349 . S
C858 C856 1.327 . S
C858 C877 1.429 . S
C858 H882 0.950 . S
C859 C876 1.574 . S
C859 C878 1.368 . S
C859 H883 0.949 . S
H860 C864 0.949 . S
C861 C862 1.349 . S
C861 C863 1.327 . S
C861 H884 0.950 . S
C862 C861 1.349 . S
C862 C874 1.349 . S
C863 C861 1.327 . S
C863 C879 1.429 . S
C863 H885 0.950 . S
C864 H860 0.949 . S
C864 C872 1.574 . S
C864 C880 1.368 . S
H865 C873 0.950 . S
H866 C871 0.950 . S
H867 C872 0.949 . S
H868 C874 0.950 . S
H869 C875 0.950 . S
H870 C876 0.949 . S
C871 H866 0.950 . S
C871 C873 1.327 . S
C871 C877 1.429 . S
C872 C864 1.574 . S
C872 H867 0.949 . S
C872 C878 1.368 . S
C873 C857 1.349 . S
C873 H865 0.950 . S
C873 C871 1.327 . S
C874 C862 1.349 . S
C874 H868 0.950 . S
C874 C875 1.327 . S
C875 H869 0.950 . S
C875 C874 1.327 . S
C875 C879 1.429 . S
C876 C859 1.574 . S
C876 H870 0.949 . S
C876 C880 1.368 . S
C877 C858 1.429 . S
C877 C871 1.429 . S
C877 C878 1.523 . S
C878 C859 1.368 . S
C878 C872 1.368 . S
C878 C877 1.523 . S
C879 C863 1.429 . S
C879 C875 1.429 . S
C879 C880 1.523 . S
C880 C864 1.368 . S
C880 C876 1.368 . S
C880 C879 1.523 . S
H881 C856 0.950 . S
H882 C858 0.950 . S
H883 C859 0.949 . S
H884 C861 0.950 . S
H885 C863 0.950 . S
C886 C887 1.349 . S
C886 C888 1.327 . S
C886 H911 0.950 . S
C887 C886 1.349 . S
C887 C903 1.349 . S
C888 C886 1.327 . S
C888 C907 1.429 . S
C888 H912 0.950 . S
C889 C906 1.574 . S
C889 C908 1.368 . S
C889 H913 0.949 . S
H890 C894 0.949 . S
C891 C892 1.349 . S
C891 C893 1.327 . S
C891 H914 0.950 . S
C892 C891 1.349 . S
C892 C904 1.349 . S
C893 C891 1.327 . S
C893 C909 1.429 . S
C893 H915 0.950 . S
C894 H890 0.949 . S
C894 C902 1.574 . S
C894 C910 1.368 . S
H895 C903 0.950 . S
H896 C901 0.950 . S
H897 C902 0.949 . S
H898 C904 0.950 . S
H899 C905 0.950 . S
H900 C906 0.949 . S
C901 H896 0.950 . S
C901 C903 1.327 . S
C901 C907 1.429 . S
C902 C894 1.574 . S
C902 H897 0.949 . S
C902 C908 1.368 . S
C903 C887 1.349 . S
C903 H895 0.950 . S
C903 C901 1.327 . S
C904 C892 1.349 . S
C904 H898 0.950 . S
C904 C905 1.327 . S
C905 H899 0.950 . S
C905 C904 1.327 . S
C905 C909 1.429 . S
C906 C889 1.574 . S
C906 H900 0.949 . S
C906 C910 1.368 . S
C907 C888 1.429 . S
C907 C901 1.429 . S
C907 C908 1.523 . S
C908 C889 1.368 . S
C908 C902 1.368 . S
C908 C907 1.523 . S
C909 C893 1.429 . S
C909 C905 1.429 . S
C909 C910 1.523 . S
C910 C894 1.368 . S
C910 C906 1.368 . S
C910 C909 1.523 . S
H911 C886 0.950 . S
H912 C888 0.950 . S
H913 C889 0.949 . S
H914 C891 0.950 . S
H915 C893 0.950 . S
C916 C917 1.349 . S
C916 C918 1.327 . S
C916 H941 0.950 . S
C917 C916 1.349 . S
C917 C933 1.349 . S
C918 C916 1.327 . S
C918 C937 1.429 . S
C918 H942 0.950 . S
C919 C936 1.574 . S
C919 C938 1.368 . S
C919 H943 0.949 . S
H920 C924 0.949 . S
C921 C922 1.349 . S
C921 C923 1.327 . S
C921 H944 0.950 . S
C922 C921 1.349 . S
C922 C934 1.349 . S
C923 C921 1.327 . S
C923 C939 1.429 . S
C923 H945 0.950 . S
C924 H920 0.949 . S
C924 C932 1.574 . S
C924 C940 1.368 . S
H925 C933 0.950 . S
H926 C931 0.950 . S
H927 C932 0.949 . S
H928 C934 0.950 . S
H929 C935 0.950 . S
H930 C936 0.949 . S
C931 H926 0.950 . S
C931 C933 1.327 . S
C931 C937 1.429 . S
C932 C924 1.574 . S
C932 H927 0.949 . S
C932 C938 1.368 . S
C933 C917 1.349 . S
C933 H925 0.950 . S
C933 C931 1.327 . S
C934 C922 1.349 . S
C934 H928 0.950 . S
C934 C935 1.327 . S
C935 H929 0.950 . S
C935 C934 1.327 . S
C935 C939 1.429 . S
C936 C919 1.574 . S
C936 H930 0.949 . S
C936 C940 1.368 . S
C937 C918 1.429 . S
C937 C931 1.429 . S
C937 C938 1.523 . S
C938 C919 1.368 . S
C938 C932 1.368 . S
C938 C937 1.523 . S
C939 C923 1.429 . S
C939 C935 1.429 . S
C939 C940 1.523 . S
C940 C924 1.368 . S
C940 C936 1.368 . S
C940 C939 1.523 . S
H941 C916 0.950 . S
H942 C918 0.950 . S
H943 C919 0.949 . S
H944 C921 0.950 . S
H945 C923 0.950 . S
C946 C947 1.349 . S
C946 C948 1.327 . S
C946 H971 0.950 . S
C947 C946 1.349 . S
C947 C963 1.349 . S
C948 C946 1.327 . S
C948 C967 1.429 . S
C948 H972 0.950 . S
C949 C966 1.574 . S
C949 C968 1.368 . S
C949 H973 0.949 . S
H950 C954 0.949 . S
C951 C952 1.349 . S
C951 C953 1.327 . S
C951 H974 0.950 . S
C952 C951 1.349 . S
C952 C964 1.349 . S
C953 C951 1.327 . S
C953 C969 1.429 . S
C953 H975 0.950 . S
C954 H950 0.949 . S
C954 C962 1.574 . S
C954 C970 1.368 . S
H955 C963 0.950 . S
H956 C961 0.950 . S
H957 C962 0.949 . S
H958 C964 0.950 . S
H959 C965 0.950 . S
H960 C966 0.949 . S
C961 H956 0.950 . S
C961 C963 1.327 . S
C961 C967 1.429 . S
C962 C954 1.574 . S
C962 H957 0.949 . S
C962 C968 1.368 . S
C963 C947 1.349 . S
C963 H955 0.950 . S
C963 C961 1.327 . S
C964 C952 1.349 . S
C964 H958 0.950 . S
C964 C965 1.327 . S
C965 H959 0.950 . S
C965 C964 1.327 . S
C965 C969 1.429 . S
C966 C949 1.574 . S
C966 H960 0.949 . S
C966 C970 1.368 . S
C967 C948 1.429 . S
C967 C961 1.429 . S
C967 C968 1.523 . S
C968 C949 1.368 . S
C968 C962 1.368 . S
C968 C967 1.523 . S
C969 C953 1.429 . S
C969 C965 1.429 . S
C969 C970 1.523 . S
C970 C954 1.368 . S
C970 C966 1.368 . S
C970 C969 1.523 . S
H971 C946 0.950 . S
H972 C948 0.950 . S
H973 C949 0.949 . S
H974 C951 0.950 . S
H975 C953 0.950 . S
C257 C45 1.582 . S
C262 C115 1.507 1_554 S
C287 C30 1.584 . S
C292 C134 1.507 . S
C317 C39 1.582 . S
C322 C153 1.412 1_556 S
C352 C172 1.514 . S
C347 C34 1.585 . S
C377 C97 1.582 . S
C382 C191 1.511 . S
C412 C210 1.507 . S
C407 C82 1.584 . S
C442 C229 1.412 . S
C437 C91 1.582 . S
C472 C248 1.507 . S
C467 C86 1.585 . S
C502 C220 1.606 . S
C497 C26 1.580 . S
C532 C243 1.532 . S
C527 C36 1.480 . S
C562 C186 1.620 . S
C557 C32 1.568 . S
C592 C205 1.530 . S
C587 C42 1.483 . S
C617 C18 1.747 . S
C622 C201 1.793 . S
C652 C224 1.705 . S
C647 C50 1.643 . S
C677 C4 1.749 . S
C682 C239 1.789 . S
C707 C48 1.658 . S
C712 C182 1.701 . S
C742 C144 1.607 . S
C737 C78 1.580 . S
C767 C88 1.480 . S
C772 C167 1.532 . S
C802 C110 1.620 . S
C797 C84 1.568 . S
C832 C129 1.530 . S
C827 C94 1.483 . S
C862 C125 1.793 . S
C857 C70 1.747 . S
C892 C148 1.705 . S
C887 C102 1.643 . S
C917 C56 1.749 . S
C922 C163 1.789 . S
C947 C100 1.658 . S
C952 C106 1.701 . S
