# Generated by pormake.
# Topology sit, (3,6)-cn, num edge types: 1
# Building blocks:
#     Node 0, Type 0, BuildingBlock: MIDCAF_clean_linker_0, # of connection points: 3
#     Node 1, Type 0, BuildingBlock: MIDCAF_clean_linker_0, # of connection points: 3
#     Node 2, Type 0, BuildingBlock: MIDCAF_clean_linker_0, # of connection points: 3
#     Node 3, Type 0, BuildingBlock: MIDCAF_clean_linker_0, # of connection points: 3
#     Node 4, Type 1, BuildingBlock: MIDCAF_clean_sbu_0, # of connection points: 6
#     Node 5, Type 1, BuildingBlock: MIDCAF_clean_sbu_0, # of connection points: 6
#     Edge 6, Type (0, 1), BuildingBlock: FUNLAD_clean_linker_0, # of connection points: 2
#     Edge 7, Type (0, 1), BuildingBlock: FUNLAD_clean_linker_0, # of connection points: 2
#     Edge 8, Type (0, 1), BuildingBlock: FUNLAD_clean_linker_0, # of connection points: 2
#     Edge 9, Type (0, 1), BuildingBlock: FUNLAD_clean_linker_0, # of connection points: 2
#     Edge 10, Type (0, 1), BuildingBlock: FUNLAD_clean_linker_0, # of connection points: 2
#     Edge 11, Type (0, 1), BuildingBlock: FUNLAD_clean_linker_0, # of connection points: 2
#     Edge 12, Type (0, 1), BuildingBlock: FUNLAD_clean_linker_0, # of connection points: 2
#     Edge 13, Type (0, 1), BuildingBlock: FUNLAD_clean_linker_0, # of connection points: 2
#     Edge 14, Type (0, 1), BuildingBlock: FUNLAD_clean_linker_0, # of connection points: 2
#     Edge 15, Type (0, 1), BuildingBlock: FUNLAD_clean_linker_0, # of connection points: 2
#     Edge 16, Type (0, 1), BuildingBlock: FUNLAD_clean_linker_0, # of connection points: 2
#     Edge 17, Type (0, 1), BuildingBlock: FUNLAD_clean_linker_0, # of connection points: 2
# Relax obj value: 0.111
# Max RMSD: 0.194
# Mean RMSD: 0.107
data_MOF--net-sit--node1-MIDCAF_clean_sbu_0--node2-MIDCAF_clean_linker_0--edge1-FUNLAD_clean_linker_0
_symmetry_space_group_name_H-M    P1
_symmetry_Int_Tables_number       1
_symmetry_cell_setting            triclinic
loop_
_symmetry_equiv_pos_as_xyz
'x, y, z'
_cell_length_a     32.314956
_cell_length_b     43.354324
_cell_length_c     48.731658
_cell_angle_alpha  90.253232
_cell_angle_beta   89.435507
_cell_angle_gamma 84.39332
loop_
_atom_site_label
_atom_site_type_symbol
_atom_site_fract_x
_atom_site_fract_y
_atom_site_fract_z
_atom_type_partial_charge
C0 C 0.98648 0.36454 0.97578 0.0
C1 C 0.9469 0.35447 0.97941 0.0
C2 C 0.94173 0.32985 -0.00263 0.0
C3 C 0.97598 0.3151 0.01108 0.0
H4 H 0.0253 0.22778 0.04067 0.0
H5 H 0.02388 0.17707 0.06178 0.0
H6 H 0.14815 0.18266 0.09209 0.0
H7 H 0.15011 0.23281 0.07052 0.0
H8 H 0.20358 0.28653 0.03329 0.0
H9 H 0.26424 0.31466 0.0243 0.0
H10 H 0.18609 0.40138 0.02827 0.0
H11 H 0.12562 0.37332 0.03636 0.0
H12 H 0.05058 0.35854 0.98628 0.0
H13 H -0.00886 0.38362 0.96216 0.0
H14 H 0.9114 0.32166 0.00035 0.0
H15 H 0.97134 0.29596 0.02462 0.0
N16 N 0.05271 0.28068 0.03136 0.0
N17 N 0.12246 0.28169 0.04441 0.0
N18 N 0.08717 0.32485 0.02335 0.0
C19 C 0.08765 0.2664 0.04293 0.0
C20 C 0.12215 0.31108 0.03483 0.0
C21 C 0.05244 0.30991 0.02141 0.0
C22 C 0.08767 0.23463 0.05411 0.0
C23 C 0.05252 0.21809 0.0516 0.0
C24 C 0.05163 0.189 0.06374 0.0
C25 C 0.08582 0.1758 0.0787 0.0
C26 C 0.12148 0.19186 0.08037 0.0
C27 C 0.12244 0.22087 0.06818 0.0
C28 C 0.15985 0.32771 0.03498 0.0
C29 C 0.19962 0.31162 0.03282 0.0
C30 C 0.23434 0.32776 0.02775 0.0
C31 C 0.22979 0.36023 0.02504 0.0
C32 C 0.19044 0.37633 0.02951 0.0
C33 C 0.15583 0.36025 0.03425 0.0
C34 C 0.01568 0.3252 0.00738 0.0
C35 C 0.02044 0.35022 0.98973 0.0
C36 C 0.91099 0.6565 -0.00241 0.0
C37 C 0.87103 0.66753 0.00689 0.0
C38 C 0.86468 0.69752 0.01834 0.0
C39 C 0.89756 0.71628 0.01986 0.0
H40 H 0.94602 0.79264 0.06155 0.0
H41 H 0.949 0.83805 0.09067 0.0
H42 H 0.05829 0.86125 0.04651 0.0
H43 H 0.05608 0.81533 0.01791 0.0
H44 H 0.12032 0.74693 0.00442 0.0
H45 H 0.18493 0.72028 0.98579 0.0
H46 H 0.11377 0.65947 0.93904 0.0
H47 H 0.04972 0.68602 0.95719 0.0
H48 H 0.97372 0.66571 0.99121 0.0
H49 H 0.91691 0.6338 0.98817 0.0
H50 H 0.83422 0.7066 0.02582 0.0
H51 H 0.89166 0.73943 0.02837 0.0
N52 N 0.96967 0.75305 0.0227 0.0
N53 N 0.0384 0.75934 0.00903 0.0
N54 N 0.00785 0.71486 -0.00377 0.0
C55 C 0.00274 0.77035 0.02235 0.0
C56 C 0.04099 0.73162 -0.00419 0.0
C57 C 0.97218 0.72516 0.00956 0.0
C58 C 0.00119 0.80002 0.03769 0.0
C59 C 0.97036 0.80763 0.05778 0.0
C60 C 0.97192 0.83386 0.07438 0.0
C61 C 0.00413 0.8532 0.0711 0.0
C62 C 0.03355 0.84652 0.04995 0.0
C63 C 0.0322 0.82019 0.03351 0.0
C64 C 0.07997 0.71843 0.98243 0.0
C65 C 0.11855 0.7282 0.98982 0.0
C66 C 0.15548 0.71282 0.97936 0.0
C67 C 0.15431 0.68773 0.9611 0.0
C68 C 0.11566 0.67889 0.9529 0.0
C69 C 0.07894 0.694 0.96347 0.0
C70 C 0.93726 0.7054 0.00979 0.0
C71 C 0.94359 0.67511 -0.00096 0.0
C72 C 0.4698 0.92878 0.52792 0.0
C73 C 0.42971 0.91892 0.52638 0.0
C74 C 0.42415 0.8881 0.53338 0.0
C75 C 0.45817 0.86726 0.54026 0.0
H76 H 0.49918 0.78864 0.58818 0.0
H77 H 0.49642 0.74327 0.61712 0.0
H78 H 0.62162 0.71035 0.59227 0.0
H79 H 0.62461 0.75565 0.5631 0.0
H80 H 0.683 0.80621 0.53866 0.0
H81 H 0.7482 0.81797 0.51701 0.0
H82 H 0.68411 0.89831 0.47864 0.0
H83 H 0.61925 0.8867 0.49987 0.0
H84 H 0.5345 0.91597 0.53443 0.0
H85 H 0.47512 0.9525 0.52333 0.0
H86 H 0.39386 0.87952 0.53212 0.0
H87 H 0.45307 0.84339 0.54441 0.0
N88 N 0.53192 0.82655 0.55615 0.0
N89 N 0.60254 0.81152 0.54704 0.0
N90 N 0.57218 0.85971 0.53212 0.0
C91 C 0.56557 0.80527 0.55827 0.0
C92 C 0.60599 0.8387 0.53383 0.0
C93 C 0.53513 0.85388 0.54319 0.0
C94 C 0.56236 0.77611 0.57358 0.0
C95 C 0.526 0.77162 0.58854 0.0
C96 C 0.52437 0.74562 0.60516 0.0
C97 C 0.5589 0.72343 0.60707 0.0
C98 C 0.59444 0.72699 0.59103 0.0
C99 C 0.59622 0.75312 0.57452 0.0
C100 C 0.64582 0.84548 0.52102 0.0
C101 C 0.68281 0.82635 0.52557 0.0
C102 C 0.72017 0.83313 0.5133 0.0
C103 C 0.72112 0.85896 0.49607 0.0
C104 C 0.6842 0.87801 0.49153 0.0
C105 C 0.64704 0.87142 0.5039 0.0
C106 C 0.4985 0.87669 0.53989 0.0
C107 C 0.50383 0.90785 0.53438 0.0
C108 C 0.43336 0.13328 0.51503 0.0
C109 C 0.39854 0.1545 0.51026 0.0
C110 C 0.39924 0.18536 0.51916 0.0
C111 C 0.43473 0.19503 0.53151 0.0
H112 H 0.48409 0.262 0.58644 0.0
H113 H 0.48874 0.31199 0.6087 0.0
H114 H 0.61988 0.30635 0.58867 0.0
H115 H 0.61556 0.25604 0.56737 0.0
H116 H 0.66184 0.18628 0.56327 0.0
H117 H 0.72663 0.15827 0.54727 0.0
H118 H 0.65713 0.09411 0.50311 0.0
H119 H 0.59253 0.1214 0.51966 0.0
H120 H 0.4953 0.12598 0.53002 0.0
H121 H 0.43347 0.10919 0.50899 0.0
H122 H 0.37297 0.20233 0.51564 0.0
H123 H 0.4348 0.21918 0.5373 0.0
N124 N 0.51081 0.21337 0.55624 0.0
N125 N 0.58342 0.20458 0.55972 0.0
N126 N 0.54568 0.16617 0.54138 0.0
C127 C 0.54772 0.22343 0.56367 0.0
C128 C 0.58265 0.17586 0.54869 0.0
C129 C 0.50964 0.18463 0.5451 0.0
C130 C 0.54954 0.2548 0.57547 0.0
C131 C 0.51384 0.27154 0.58665 0.0
C132 C 0.51647 0.30033 0.59924 0.0
C133 C 0.55478 0.31315 0.60067 0.0
C134 C 0.59007 0.29691 0.58848 0.0
C135 C 0.58754 0.26804 0.57619 0.0
C136 C 0.6219 0.15647 0.54235 0.0
C137 C 0.66034 0.1659 0.55052 0.0
C138 C 0.69751 0.14989 0.5413 0.0
C139 C 0.69705 0.12423 0.5236 0.0
C140 C 0.65868 0.11362 0.5169 0.0
C141 C 0.62152 0.1295 0.52624 0.0
C142 C 0.47024 0.17405 0.5351 0.0
C143 C 0.46877 0.14292 0.52724 0.0
Zn144 Zn 0.04364 0.06763 0.34178 0.0
Zn145 Zn 0.09702 0.94348 0.34268 0.0
Zn146 Zn 0.06878 1.00562 0.34313 0.0
C147 C 0.08222 0.96243 0.28843 0.0
C148 C 0.01988 0.95244 0.37129 0.0
O149 O 0.11592 0.03084 0.36355 0.0
O150 O 0.09018 0.08017 0.36447 0.0
C151 C 0.05501 0.04695 0.2878 0.0
O152 O 0.07344 0.98885 0.30037 0.0
O153 O 0.09273 0.93838 0.30221 0.0
O154 O 0.04955 0.93206 0.36583 0.0
O155 O 0.02174 0.98085 0.36413 0.0
O156 O 0.04691 0.07177 0.30126 0.0
O157 O 0.0629 0.02085 0.3001 0.0
O158 O 0.01 0.01334 0.36632 0.0
O159 O -0.01047 0.06313 0.36027 0.0
C160 C 0.98355 0.03714 0.37041 0.0
O161 O 0.12791 0.99858 0.36514 0.0
O162 O 0.15123 0.94899 0.36025 0.0
C163 C 0.1187 0.0593 0.37037 0.0
C164 C 0.15554 0.97572 0.36955 0.0
Zn165 Zn 0.53877 0.56649 0.8486 0.0
Zn166 Zn 0.56008 0.45342 0.85037 0.0
Zn167 Zn 0.54959 0.511 0.85034 0.0
C168 C 0.5414 0.4687 0.79747 0.0
C169 C 0.49627 0.46909 0.88685 0.0
O170 O 0.59733 0.52899 0.87667 0.0
O171 O 0.56394 0.57505 0.88443 0.0
C172 C 0.56801 0.55166 0.79827 0.0
O173 O 0.55095 0.49473 0.80718 0.0
O174 O 0.53748 0.44625 0.81335 0.0
O175 O 0.52456 0.44725 0.88309 0.0
O176 O 0.49718 0.49461 0.87355 0.0
O177 O 0.5708 0.5738 0.8148 0.0
O178 O 0.55533 0.52616 0.80702 0.0
O179 O 0.48735 0.52582 0.86733 0.0
O180 O 0.47706 0.57109 0.84672 0.0
C181 C 0.46312 0.5499 0.86067 0.0
O182 O 0.60821 0.49743 0.87168 0.0
O183 O 0.62139 0.44976 0.85549 0.0
C184 C 0.59309 0.5547 0.89023 0.0
C185 C 0.63291 0.47248 0.86869 0.0
C186 C 0.04688 0.14253 0.10968 0.0
C187 C 0.08319 0.14691 0.09467 0.0
C188 C 0.04651 0.11841 0.12855 0.0
C189 C 0.08253 0.09804 0.1328 0.0
C190 C 0.11787 0.10117 0.11644 0.0
C191 C 0.11818 0.12525 0.0975 0.0
C192 C 0.08672 0.0773 0.15701 0.0
C193 C 0.05424 0.06921 0.17195 0.0
C194 C 0.05857 0.0591 0.20092 0.0
C195 C 0.02843 0.04191 0.21285 0.0
C196 C 0.02827 0.03649 0.24117 0.0
C197 C 0.05784 0.0487 0.25786 0.0
H198 H 0.11188 0.0845 0.20965 0.0
C199 C 0.08842 0.06524 0.24601 0.0
C200 C 0.089 0.07027 0.21781 0.0
H201 H 0.11119 0.07507 0.25872 0.0
H202 H 0.01952 0.15898 0.1083 0.0
H203 H 0.01886 0.1174 0.14106 0.0
H204 H 0.14607 0.08588 0.1193 0.0
H205 H 0.14642 0.12764 0.08588 0.0
H206 H 0.11806 0.07099 0.16433 0.0
H207 H 0.02302 0.07247 0.16374 0.0
H208 H 0.00437 0.03341 0.20037 0.0
H209 H 0.00427 0.02381 0.25013 0.0
C210 C 0.04898 0.8827 0.10127 0.0
C211 C 0.00925 0.87829 0.09133 0.0
C212 C 0.05364 0.90278 0.12325 0.0
C213 C 0.01858 0.91899 0.13582 0.0
C214 C 0.97913 0.91592 0.12491 0.0
C215 C 0.97448 0.89591 0.10283 0.0
C216 C 0.02129 0.93501 0.16265 0.0
C217 C 0.0568 0.94388 0.17301 0.0
C218 C 0.06108 0.95066 0.20264 0.0
C219 C 0.08948 0.97114 0.21138 0.0
C220 C 0.09614 0.9756 0.23944 0.0
C221 C 0.07508 0.95911 0.25896 0.0
H222 H 0.01912 0.9175 0.21649 0.0
C223 C 0.04715 0.93846 0.25026 0.0
C224 C 0.04003 0.93435 0.22243 0.0
H225 H 0.03087 0.92536 0.26508 0.0
H226 H 0.07642 0.86917 0.09324 0.0
H227 H 0.08452 0.90379 0.13135 0.0
H228 H 0.95158 0.92804 0.13425 0.0
H229 H 0.9435 0.89345 0.09539 0.0
H230 H -0.00673 0.93743 0.17532 0.0
H231 H 0.08412 0.94463 0.15998 0.0
H232 H 0.10655 0.98358 0.19652 0.0
H233 H 0.11816 0.99143 0.24587 0.0
C234 C 0.57503 0.66789 0.62156 0.0
C235 C 0.55944 0.69857 0.62785 0.0
C236 C 0.57854 0.64533 0.64214 0.0
C237 C 0.56701 0.65334 0.66934 0.0
C238 C 0.55089 0.68384 0.6754 0.0
C239 C 0.54684 0.70615 0.65489 0.0
C240 C 0.57435 0.63157 0.69246 0.0
C241 C 0.5738 0.60062 0.69068 0.0
C242 C 0.57865 0.58172 0.71589 0.0
C243 C 0.54966 0.56071 0.7224 0.0
C244 C 0.54805 0.54856 0.74896 0.0
C245 C 0.57588 0.55698 0.76899 0.0
H246 H 0.63219 0.60322 0.73046 0.0
C247 C 0.60734 0.57553 0.76157 0.0
C248 C 0.60889 0.58765 0.73522 0.0
H249 H 0.62928 0.58217 0.77666 0.0
H250 H 0.58502 0.6615 0.60085 0.0
H251 H 0.59174 0.62211 0.63694 0.0
H252 H 0.54204 0.69062 0.69624 0.0
H253 H 0.53534 0.72968 0.66044 0.0
H254 H 0.57819 0.64195 0.71254 0.0
H255 H 0.56562 0.58978 0.67161 0.0
H256 H 0.5262 0.55572 0.70773 0.0
H257 H 0.52312 0.53467 0.75437 0.0
C258 C 0.52651 0.36666 0.61635 0.0
C259 C 0.55852 0.34221 0.61644 0.0
C260 C 0.52836 0.39244 0.63352 0.0
C261 C 0.56227 0.3942 0.65117 0.0
C262 C 0.59535 0.37075 0.64997 0.0
C263 C 0.59341 0.34495 0.63299 0.0
C264 C 0.56293 0.41846 0.67273 0.0
C265 C 0.52806 0.43104 0.68544 0.0
C266 C 0.529 0.44597 0.71283 0.0
C267 C 0.49782 0.44044 0.73189 0.0
C268 C 0.50114 0.44912 0.75928 0.0
C269 C 0.53513 0.46428 0.76797 0.0
H270 H 0.58594 0.46802 0.70681 0.0
C271 C 0.56489 0.4719 0.74865 0.0
C272 C 0.56191 0.46278 0.72119 0.0
H273 H 0.59144 0.48349 0.75503 0.0
H274 H 0.49971 0.36567 0.60333 0.0
H275 H 0.5029 0.41061 0.63324 0.0
H276 H 0.6219 0.37155 0.66328 0.0
H277 H 0.6185 0.32651 0.63384 0.0
H278 H 0.59295 0.4219 0.68147 0.0
H279 H 0.498 0.42529 0.67831 0.0
H280 H 0.47207 0.42769 0.72595 0.0
H281 H 0.47779 0.44311 0.7739 0.0
C282 C 0.25723 0.3998 -0.00553 0.0
C283 C 0.26466 0.37697 0.0147 0.0
C284 C 0.28999 0.41388 0.98265 0.0
C285 C 0.33115 0.40557 0.99089 0.0
C286 C 0.33853 0.38315 0.01147 0.0
C287 C 0.30565 0.36901 0.02332 0.0
C288 C 0.36725 0.41744 0.97672 0.0
C289 C 0.36468 0.44345 0.96147 0.0
C290 C 0.39945 0.45218 0.94391 0.0
C291 C 0.39021 0.47005 0.92034 0.0
C292 C 0.42175 0.47622 0.9019 0.0
C293 C 0.46308 0.46496 0.90696 0.0
H294 H 0.44996 0.42935 0.96787 0.0
C295 C 0.47261 0.44818 0.931 0.0
C296 C 0.44122 0.44208 0.94945 0.0
H297 H 0.50444 0.43961 0.93549 0.0
H298 H 0.22617 0.4059 0.98681 0.0
H299 H 0.28279 0.43014 0.96623 0.0
H300 H 0.36995 0.37611 0.01807 0.0
H301 H 0.31236 0.3516 0.03894 0.0
H302 H 0.39657 0.40305 0.97799 0.0
H303 H 0.33541 0.45788 0.96014 0.0
H304 H 0.35833 0.47827 0.91565 0.0
H305 H 0.41365 0.4887 0.88322 0.0
C306 C 0.79822 0.66211 0.99184 0.0
C307 C 0.83594 0.64846 0.00232 0.0
C308 C 0.7678 0.64367 0.983 0.0
C309 C 0.77441 0.61112 0.98459 0.0
C310 C 0.81127 0.59758 -0.00379 0.0
C311 C 0.84158 0.61604 0.00522 0.0
C312 C 0.74566 0.59089 0.97152 0.0
C313 C 0.70507 0.59991 0.96807 0.0
C314 C 0.67716 0.58337 0.95041 0.0
C315 C 0.63418 0.59103 0.95325 0.0
C316 C 0.60684 0.58027 0.93435 0.0
C317 C 0.62187 0.56154 0.91216 0.0
H318 H 0.72513 0.55756 0.92542 0.0
C319 C 0.66464 0.55263 0.90982 0.0
C320 C 0.69218 0.56343 0.9288 0.0
H321 H 0.67699 0.53887 0.89246 0.0
H322 H 0.79316 0.68693 0.98887 0.0
H323 H 0.74034 0.65501 0.97345 0.0
H324 H 0.81716 0.5726 -0.00237 0.0
H325 H 0.8701 0.60483 0.01357 0.0
H326 H 0.75873 0.56837 0.96402 0.0
H327 H 0.69161 0.6211 0.97798 0.0
H328 H 0.62175 0.60642 0.96957 0.0
H329 H 0.5739 0.58747 0.93659 0.0
C330 C 0.87461 0.38097 0.97733 0.0
C331 C 0.91153 0.36943 0.96386 0.0
C332 C 0.84194 0.39618 0.96249 0.0
C333 C 0.84565 0.39971 0.9339 0.0
C334 C 0.88225 0.38754 0.92047 0.0
C335 C 0.91508 0.37284 0.93533 0.0
C336 C 0.81111 0.41415 0.9172 0.0
C337 C 0.78404 0.43768 0.92626 0.0
C338 C 0.74756 0.45054 0.91013 0.0
C339 C 0.71362 0.46656 0.92402 0.0
C340 C 0.67674 0.47553 0.91016 0.0
C341 C 0.67345 0.46876 0.88216 0.0
H342 H 0.77084 0.43513 0.86966 0.0
C343 C 0.70801 0.45452 0.86787 0.0
C344 C 0.74496 0.44592 0.88158 0.0
H345 H 0.70608 0.44935 0.84617 0.0
H346 H 0.87127 0.37857 -0.00067 0.0
H347 H 0.8136 0.40453 0.97332 0.0
H348 H 0.88557 0.38961 0.89842 0.0
H349 H 0.94316 0.36385 0.92448 0.0
H350 H 0.80843 0.40468 0.89675 0.0
H351 H 0.78745 0.44686 0.94682 0.0
H352 H 0.71491 0.47085 0.9459 0.0
H353 H 0.65017 0.48625 0.92159 0.0
C354 C 0.19725 0.66011 0.92395 0.0
C355 C 0.19295 0.66964 0.95148 0.0
C356 C 0.23199 0.64082 0.91524 0.0
C357 C 0.26306 0.63038 0.934 0.0
C358 C 0.25941 0.64078 0.96131 0.0
C359 C 0.22463 0.66016 0.97002 0.0
C360 C 0.30061 0.61004 0.92547 0.0
C361 C 0.30211 0.59169 0.90306 0.0
C362 C 0.3417 0.57603 0.89241 0.0
C363 C 0.3491 0.57601 0.86401 0.0
C364 C 0.38837 0.56592 0.85346 0.0
C365 C 0.42035 0.55478 0.8711 0.0
H366 H 0.36784 0.56234 0.93191 0.0
C367 C 0.41224 0.55266 0.89932 0.0
C368 C 0.3731 0.56328 0.90996 0.0
H369 H 0.43673 0.54432 0.91324 0.0
H370 H 0.17369 0.6676 0.90909 0.0
H371 H 0.23444 0.63463 0.89372 0.0
H372 H 0.28321 0.6335 0.97607 0.0
H373 H 0.22197 0.66699 0.99143 0.0
H374 H 0.32838 0.61106 0.93772 0.0
H375 H 0.27476 0.59049 0.89051 0.0
H376 H 0.32523 0.58556 0.85013 0.0
H377 H 0.39422 0.56782 0.83163 0.0
C378 C 0.76082 0.87499 0.45511 0.0
C379 C 0.76035 0.8664 0.48285 0.0
C380 C 0.79705 0.88376 0.44288 0.0
C381 C 0.83357 0.88453 0.45829 0.0
C382 C 0.83341 0.87493 0.48578 0.0
C383 C 0.79715 0.86598 0.49798 0.0
C384 C 0.87248 0.89453 0.44626 0.0
C385 C 0.87309 0.91322 0.42423 0.0
C386 C 0.91164 0.92326 0.4116 0.0
C387 C 0.90791 0.9475 0.39245 0.0
C388 C 0.94306 0.95711 0.37937 0.0
C389 C 0.98275 0.94297 0.38549 0.0
H390 H 0.95605 0.88919 0.43099 0.0
C391 C 0.98663 0.91847 0.40428 0.0
C392 C 0.95151 0.90862 0.41718 0.0
H393 H 0.01691 0.90681 0.40897 0.0
H394 H 0.73312 0.87482 0.44279 0.0
H395 H 0.79622 0.8896 0.42133 0.0
H396 H 0.86122 0.87489 0.49802 0.0
H397 H 0.79764 0.85952 0.51943 0.0
H398 H 0.90109 0.88726 0.45686 0.0
H399 H 0.84389 0.92254 0.4153 0.0
H400 H 0.87764 0.95894 0.38741 0.0
H401 H 0.93913 0.97534 0.36424 0.0
C402 C 0.36919 0.12515 0.47183 0.0
C403 C 0.36257 0.14466 0.49491 0.0
C404 C 0.33569 0.1161 0.45696 0.0
C405 C 0.29463 0.12624 0.46494 0.0
C406 C 0.28803 0.146 0.48782 0.0
C407 C 0.3216 0.15505 0.50272 0.0
C408 C 0.25805 0.11786 0.44931 0.0
C409 C 0.25853 0.09253 0.43309 0.0
C410 C 0.22202 0.08458 0.41714 0.0
C411 C 0.22865 0.06499 0.39412 0.0
C412 C 0.19509 0.05682 0.37868 0.0
C413 C 0.15434 0.06785 0.38621 0.0
H414 H 0.17416 0.10976 0.44264 0.0
C415 C 0.14755 0.08747 0.40908 0.0
C416 C 0.18096 0.09551 0.4246 0.0
H417 H 0.11624 0.09608 0.41531 0.0
H418 H 0.40042 0.1174 0.46483 0.0
H419 H 0.34234 0.10185 0.43889 0.0
H420 H 0.25674 0.15436 0.49429 0.0
H421 H 0.31545 0.16997 0.52047 0.0
H422 H 0.22976 0.13337 0.45153 0.0
H423 H 0.28683 0.07702 0.43089 0.0
H424 H 0.25987 0.05603 0.38801 0.0
H425 H 0.20096 0.04187 0.36091 0.0
C426 C 0.40206 0.95859 0.49218 0.0
C427 C 0.39483 0.93947 0.51465 0.0
C428 C 0.3689 0.97396 0.47806 0.0
C429 C 0.32769 0.9701 0.48576 0.0
C430 C 0.32047 0.95324 0.50956 0.0
C431 C 0.35369 0.93801 0.52386 0.0
C432 C 0.29195 0.98061 0.46808 0.0
C433 C 0.29569 0.98153 0.44053 0.0
C434 C 0.25964 0.98319 0.42185 0.0
C435 C 0.26498 0.96869 0.39606 0.0
C436 C 0.23116 0.96676 0.37881 0.0
C437 C 0.19158 0.98 0.38675 0.0
H438 H 0.21504 0.00933 0.44889 0.0
C439 C 0.18626 0.99553 0.41206 0.0
C440 C 0.22007 0.99722 0.4295 0.0
H441 H 0.15581 1.00582 0.41856 0.0
H442 H 0.43324 0.96038 0.48443 0.0
H443 H 0.37572 0.98784 0.46048 0.0
H444 H 0.289 0.95035 0.51624 0.0
H445 H 0.34704 0.92418 0.54152 0.0
H446 H 0.26124 0.98284 0.47755 0.0
H447 H 0.32614 0.97638 0.43103 0.0
H448 H 0.29515 0.95779 0.38964 0.0
H449 H 0.23583 0.95463 0.35936 0.0
C450 C 0.74289 0.07903 0.50383 0.0
C451 C 0.73572 0.11097 0.50949 0.0
C452 C 0.77627 0.06752 0.48699 0.0
C453 C 0.8031 0.08783 0.47559 0.0
C454 C 0.7969 0.11945 0.48228 0.0
C455 C 0.76371 0.13091 0.49903 0.0
C456 C 0.83532 0.07794 0.45467 0.0
C457 C 0.85128 0.04851 0.44996 0.0
C458 C 0.8825 0.04159 0.42779 0.0
C459 C 0.91821 0.02128 0.43251 0.0
C460 C 0.9507 0.01851 0.41317 0.0
C461 C 0.94731 0.03547 0.38864 0.0
H462 H 0.85039 0.07206 0.39798 0.0
C463 C 0.91038 0.05406 0.38319 0.0
C464 C 0.87817 0.05695 0.40249 0.0
H465 H 0.90697 0.06721 0.36435 0.0
H466 H 0.722 0.06306 0.51175 0.0
H467 H 0.77966 0.04305 0.48205 0.0
H468 H 0.817 0.13564 0.47371 0.0
H469 H 0.75882 0.15568 0.50254 0.0
H470 H 0.84696 0.09627 0.44248 0.0
H471 H 0.84369 0.02985 0.4633 0.0
H472 H 0.92197 0.00899 0.45177 0.0
H473 H 0.97914 1.00428 0.41792 0.0
loop_
_geom_bond_atom_site_label_1
_geom_bond_atom_site_label_2
_geom_bond_distance
_geom_bond_site_symmetry_2
_ccdc_geom_bond_type
C0 C1 1.384 1_455 S
C0 H13 0.947 . S
C0 C35 1.382 . S
C1 C0 1.384 1_655 S
C1 C2 1.378 1_556 S
C2 C1 1.378 1_554 S
C2 C3 1.378 1_655 S
C2 H14 0.952 . S
C3 C2 1.378 1_455 S
C3 H15 0.950 . S
C3 C34 1.383 . S
H4 C23 0.947 . S
H5 C24 0.946 . S
H6 C26 0.953 . S
H7 C27 0.945 . S
H8 C29 0.952 . S
H9 C30 0.949 . S
H10 C32 0.950 . S
H11 C33 0.948 . S
H12 C35 0.951 . S
H13 C0 0.947 . S
H14 C2 0.952 . S
H15 C3 0.950 . S
N16 C19 1.382 . S
N16 C21 1.363 . S
N17 C19 1.371 . S
N17 C20 1.372 . S
N18 C20 1.361 . S
N18 C21 1.377 . S
C19 N16 1.382 . S
C19 N17 1.371 . S
C19 C22 1.480 . S
C20 N17 1.372 . S
C20 N18 1.361 . S
C20 C28 1.457 . S
C21 N16 1.363 . S
C21 N18 1.377 . S
C21 C34 1.479 . S
C22 C19 1.480 . S
C22 C23 1.383 . S
C22 C27 1.385 . S
C23 H4 0.947 . S
C23 C22 1.383 . S
C23 C24 1.388 . S
C24 H5 0.946 . S
C24 C23 1.388 . S
C24 C25 1.384 . S
C25 C24 1.384 . S
C25 C26 1.377 . S
C26 H6 0.953 . S
C26 C25 1.377 . S
C26 C27 1.369 . S
C27 H7 0.945 . S
C27 C22 1.385 . S
C27 C26 1.369 . S
C28 C20 1.457 . S
C28 C29 1.372 . S
C28 C33 1.364 1_554 S
C29 H8 0.952 . S
C29 C28 1.372 . S
C29 C30 1.389 . S
C30 H9 0.949 . S
C30 C29 1.389 . S
C30 C31 1.387 1_554 S
C31 C30 1.387 1_556 S
C31 C32 1.372 . S
C32 H10 0.950 . S
C32 C31 1.372 . S
C32 C33 1.379 . S
C33 H11 0.948 . S
C33 C28 1.364 1_556 S
C33 C32 1.379 . S
C34 C3 1.383 . S
C34 C21 1.479 . S
C34 C35 1.398 1_554 S
C35 C0 1.382 . S
C35 H12 0.951 . S
C35 C34 1.398 1_556 S
C36 C37 1.384 . S
C36 H49 0.947 . S
C36 C71 1.382 . S
C37 C36 1.384 . S
C37 C38 1.378 1_556 S
C38 C37 1.378 1_554 S
C38 C39 1.378 . S
C38 H50 0.952 . S
C39 C38 1.378 . S
C39 H51 0.950 . S
C39 C70 1.383 . S
H40 C59 0.947 . S
H41 C60 0.946 . S
H42 C62 0.953 . S
H43 C63 0.945 . S
H44 C65 0.952 . S
H45 C66 0.965 . S
H46 C68 0.950 . S
H47 C69 0.948 . S
H48 C71 0.951 . S
H49 C36 0.947 . S
H50 C38 0.952 . S
H51 C39 0.950 . S
N52 C55 1.382 1_655 S
N52 C57 1.363 . S
N53 C55 1.371 . S
N53 C56 1.372 . S
N54 C56 1.363 . S
N54 C57 1.379 1_455 S
C55 N52 1.382 1_455 S
C55 N53 1.371 . S
C55 C58 1.480 . S
C56 N53 1.372 . S
C56 N54 1.363 . S
C56 C64 1.457 1_554 S
C57 N52 1.363 . S
C57 N54 1.379 1_655 S
C57 C70 1.479 . S
C58 C55 1.480 . S
C58 C59 1.383 1_455 S
C58 C63 1.385 . S
C59 H40 0.947 . S
C59 C58 1.383 1_655 S
C59 C60 1.388 . S
C60 H41 0.946 . S
C60 C59 1.388 . S
C60 C61 1.384 1_655 S
C61 C60 1.384 1_455 S
C61 C62 1.377 . S
C62 H42 0.953 . S
C62 C61 1.377 . S
C62 C63 1.369 . S
C63 H43 0.945 . S
C63 C58 1.385 . S
C63 C62 1.369 . S
C64 C56 1.457 1_556 S
C64 C65 1.372 1_556 S
C64 C69 1.364 . S
C65 H44 0.952 . S
C65 C64 1.372 1_554 S
C65 C66 1.402 . S
C66 H45 0.965 . S
C66 C65 1.402 . S
C66 C67 1.358 1_554 S
C67 C66 1.358 1_556 S
C67 C68 1.372 . S
C68 H46 0.950 . S
C68 C67 1.372 . S
C68 C69 1.379 . S
C69 H47 0.948 . S
C69 C64 1.364 . S
C69 C68 1.379 . S
C70 C39 1.383 . S
C70 C57 1.479 . S
C70 C71 1.398 1_554 S
C71 C36 1.382 . S
C71 H48 0.951 . S
C71 C70 1.398 1_556 S
C72 C73 1.384 . S
C72 H85 0.947 . S
C72 C107 1.382 . S
C73 C72 1.384 . S
C73 C74 1.378 . S
C74 C73 1.378 . S
C74 C75 1.378 . S
C74 H86 0.952 . S
C75 C74 1.378 . S
C75 H87 0.950 . S
C75 C106 1.383 . S
H76 C95 0.947 . S
H77 C96 0.946 . S
H78 C98 0.953 . S
H79 C99 0.945 . S
H80 C101 0.952 . S
H81 C102 0.949 . S
H82 C104 0.950 . S
H83 C105 0.948 . S
H84 C107 0.951 . S
H85 C72 0.947 . S
H86 C74 0.952 . S
H87 C75 0.950 . S
N88 C91 1.382 . S
N88 C93 1.363 . S
N89 C91 1.371 . S
N89 C92 1.372 . S
N90 C92 1.361 . S
N90 C93 1.377 . S
C91 N88 1.382 . S
C91 N89 1.371 . S
C91 C94 1.480 . S
C92 N89 1.372 . S
C92 N90 1.361 . S
C92 C100 1.457 . S
C93 N88 1.363 . S
C93 N90 1.377 . S
C93 C106 1.479 . S
C94 C91 1.480 . S
C94 C95 1.383 . S
C94 C99 1.385 . S
C95 H76 0.947 . S
C95 C94 1.383 . S
C95 C96 1.388 . S
C96 H77 0.946 . S
C96 C95 1.388 . S
C96 C97 1.384 . S
C97 C96 1.384 . S
C97 C98 1.377 . S
C98 H78 0.953 . S
C98 C97 1.377 . S
C98 C99 1.369 . S
C99 H79 0.945 . S
C99 C94 1.385 . S
C99 C98 1.369 . S
C100 C92 1.457 . S
C100 C101 1.372 . S
C100 C105 1.364 . S
C101 H80 0.952 . S
C101 C100 1.372 . S
C101 C102 1.389 . S
C102 H81 0.949 . S
C102 C101 1.389 . S
C102 C103 1.387 . S
C103 C102 1.387 . S
C103 C104 1.372 . S
C104 H82 0.950 . S
C104 C103 1.372 . S
C104 C105 1.379 . S
C105 H83 0.948 . S
C105 C100 1.364 . S
C105 C104 1.379 . S
C106 C75 1.383 . S
C106 C93 1.479 . S
C106 C107 1.398 . S
C107 C72 1.382 . S
C107 H84 0.951 . S
C107 C106 1.398 . S
C108 C109 1.384 . S
C108 H121 0.947 . S
C108 C143 1.382 . S
C109 C108 1.384 . S
C109 C110 1.378 . S
C110 C109 1.378 . S
C110 C111 1.378 . S
C110 H122 0.952 . S
C111 C110 1.378 . S
C111 H123 0.950 . S
C111 C142 1.383 . S
H112 C131 0.947 . S
H113 C132 0.946 . S
H114 C134 0.953 . S
H115 C135 0.945 . S
H116 C137 0.952 . S
H117 C138 0.949 . S
H118 C140 0.950 . S
H119 C141 0.948 . S
H120 C143 0.951 . S
H121 C108 0.947 . S
H122 C110 0.952 . S
H123 C111 0.950 . S
N124 C127 1.382 . S
N124 C129 1.363 . S
N125 C127 1.371 . S
N125 C128 1.372 . S
N126 C128 1.361 . S
N126 C129 1.377 . S
C127 N124 1.382 . S
C127 N125 1.371 . S
C127 C130 1.480 . S
C128 N125 1.372 . S
C128 N126 1.361 . S
C128 C136 1.457 . S
C129 N124 1.363 . S
C129 N126 1.377 . S
C129 C142 1.479 . S
C130 C127 1.480 . S
C130 C131 1.383 . S
C130 C135 1.385 . S
C131 H112 0.947 . S
C131 C130 1.383 . S
C131 C132 1.388 . S
C132 H113 0.946 . S
C132 C131 1.388 . S
C132 C133 1.384 . S
C133 C132 1.384 . S
C133 C134 1.377 . S
C134 H114 0.953 . S
C134 C133 1.377 . S
C134 C135 1.369 . S
C135 H115 0.945 . S
C135 C130 1.385 . S
C135 C134 1.369 . S
C136 C128 1.457 . S
C136 C137 1.372 . S
C136 C141 1.364 . S
C137 H116 0.952 . S
C137 C136 1.372 . S
C137 C138 1.389 . S
C138 H117 0.949 . S
C138 C137 1.389 . S
C138 C139 1.387 . S
C139 C138 1.387 . S
C139 C140 1.372 . S
C140 H118 0.950 . S
C140 C139 1.372 . S
C140 C141 1.379 . S
C141 H119 0.948 . S
C141 C136 1.364 . S
C141 C140 1.379 . S
C142 C111 1.383 . S
C142 C129 1.479 . S
C142 C143 1.398 . S
C143 C108 1.382 . S
C143 H120 0.951 . S
C143 C142 1.398 . S
Zn144 O150 1.920 . S
Zn144 O156 1.898 . S
Zn144 O159 1.905 . S
Zn145 O153 1.905 . S
Zn145 O154 1.898 . S
Zn145 O162 1.920 . S
Zn146 O149 2.080 . S
Zn146 O152 2.114 1_545 S
Zn146 O155 2.120 1_545 S
Zn146 O157 2.120 . S
Zn146 O158 2.114 . S
Zn146 O161 2.080 1_545 S
C147 O152 1.166 . S
C147 O153 1.182 . S
C148 O154 1.167 . S
C148 O155 1.299 . S
O149 Zn146 2.080 . S
O149 C163 1.305 . S
O150 Zn144 1.920 . S
O150 C163 1.234 . S
C151 O156 1.167 . S
C151 O157 1.299 . S
O152 Zn146 2.114 1_565 S
O152 C147 1.166 . S
O153 Zn145 1.905 . S
O153 C147 1.182 . S
O154 Zn145 1.898 . S
O154 C148 1.167 . S
O155 Zn146 2.120 1_565 S
O155 C148 1.299 . S
O156 Zn144 1.898 . S
O156 C151 1.167 . S
O157 Zn146 2.120 . S
O157 C151 1.299 . S
O158 Zn146 2.114 . S
O158 C160 1.166 1_455 S
O159 Zn144 1.905 . S
O159 C160 1.182 1_455 S
C160 O158 1.166 1_655 S
C160 O159 1.182 1_655 S
O161 Zn146 2.080 1_565 S
O161 C164 1.305 . S
O162 Zn145 1.920 . S
O162 C164 1.234 . S
C163 O149 1.305 . S
C163 O150 1.234 . S
C164 O161 1.305 . S
C164 O162 1.234 . S
Zn165 O171 1.920 . S
Zn165 O177 1.898 . S
Zn165 O180 1.905 . S
Zn166 O174 1.905 . S
Zn166 O175 1.898 . S
Zn166 O183 1.920 . S
Zn167 O170 2.080 . S
Zn167 O173 2.114 . S
Zn167 O176 2.120 . S
Zn167 O178 2.120 . S
Zn167 O179 2.114 . S
Zn167 O182 2.080 . S
C168 O173 1.166 . S
C168 O174 1.182 . S
C169 O175 1.167 . S
C169 O176 1.299 . S
O170 Zn167 2.080 . S
O170 C184 1.305 . S
O171 Zn165 1.920 . S
O171 C184 1.234 . S
C172 O177 1.167 . S
C172 O178 1.299 . S
O173 Zn167 2.114 . S
O173 C168 1.166 . S
O174 Zn166 1.905 . S
O174 C168 1.182 . S
O175 Zn166 1.898 . S
O175 C169 1.167 . S
O176 Zn167 2.120 . S
O176 C169 1.299 . S
O177 Zn165 1.898 . S
O177 C172 1.167 . S
O178 Zn167 2.120 . S
O178 C172 1.299 . S
O179 Zn167 2.114 . S
O179 C181 1.166 . S
O180 Zn165 1.905 . S
O180 C181 1.182 . S
C181 O179 1.166 . S
C181 O180 1.182 . S
O182 Zn167 2.080 . S
O182 C185 1.305 . S
O183 Zn166 1.920 . S
O183 C185 1.234 . S
C184 O170 1.305 . S
C184 O171 1.234 . S
C185 O182 1.305 . S
C185 O183 1.234 . S
C186 C187 1.386 . S
C186 C188 1.383 . S
C186 H202 0.951 . S
C187 C186 1.386 . S
C187 C191 1.383 . S
C188 C186 1.383 . S
C188 C189 1.402 . S
C188 H203 0.951 . S
C189 C188 1.402 . S
C189 C190 1.375 . S
C189 C192 1.481 . S
C190 C189 1.375 . S
C190 C191 1.367 . S
C190 H204 0.951 . S
C191 C187 1.383 . S
C191 C190 1.367 . S
C191 H205 0.950 . S
C192 C189 1.481 . S
C192 C193 1.297 . S
C192 H206 0.950 . S
C193 C192 1.297 . S
C193 C194 1.479 . S
C193 H207 0.950 . S
C194 C193 1.479 . S
C194 C195 1.375 . S
C194 C200 1.404 . S
C195 C194 1.375 . S
C195 C196 1.369 . S
C195 H208 0.950 . S
C196 C195 1.369 . S
C196 C197 1.392 . S
C196 H209 0.951 . S
C197 C196 1.392 . S
C197 C199 1.384 . S
H198 C200 0.949 . S
C199 C197 1.384 . S
C199 C200 1.385 . S
C199 H201 0.950 . S
C200 C194 1.404 . S
C200 H198 0.949 . S
C200 C199 1.385 . S
H201 C199 0.950 . S
H202 C186 0.951 . S
H203 C188 0.951 . S
H204 C190 0.951 . S
H205 C191 0.950 . S
H206 C192 0.950 . S
H207 C193 0.950 . S
H208 C195 0.950 . S
H209 C196 0.951 . S
C210 C211 1.386 . S
C210 C212 1.383 . S
C210 H226 0.951 . S
C211 C210 1.386 . S
C211 C215 1.383 1_455 S
C212 C210 1.383 . S
C212 C213 1.402 . S
C212 H227 0.951 . S
C213 C212 1.402 . S
C213 C214 1.375 1_455 S
C213 C216 1.481 . S
C214 C213 1.375 1_655 S
C214 C215 1.367 . S
C214 H228 0.951 . S
C215 C211 1.383 1_655 S
C215 C214 1.367 . S
C215 H229 0.950 . S
C216 C213 1.481 . S
C216 C217 1.297 . S
C216 H230 0.950 1_455 S
C217 C216 1.297 . S
C217 C218 1.479 . S
C217 H231 0.950 . S
C218 C217 1.479 . S
C218 C219 1.375 . S
C218 C224 1.404 . S
C219 C218 1.375 . S
C219 C220 1.369 . S
C219 H232 0.950 . S
C220 C219 1.369 . S
C220 C221 1.392 . S
C220 H233 0.951 . S
C221 C220 1.392 . S
C221 C223 1.384 . S
H222 C224 0.949 . S
C223 C221 1.384 . S
C223 C224 1.385 . S
C223 H225 0.950 . S
C224 C218 1.404 . S
C224 H222 0.949 . S
C224 C223 1.385 . S
H225 C223 0.950 . S
H226 C210 0.951 . S
H227 C212 0.951 . S
H228 C214 0.951 . S
H229 C215 0.950 . S
H230 C216 0.950 1_655 S
H231 C217 0.950 . S
H232 C219 0.950 . S
H233 C220 0.951 . S
C234 C235 1.386 . S
C234 C236 1.383 . S
C234 H250 0.951 . S
C235 C234 1.386 . S
C235 C239 1.383 . S
C236 C234 1.383 . S
C236 C237 1.402 . S
C236 H251 0.951 . S
C237 C236 1.402 . S
C237 C238 1.375 . S
C237 C240 1.481 . S
C238 C237 1.375 . S
C238 C239 1.367 . S
C238 H252 0.951 . S
C239 C235 1.383 . S
C239 C238 1.367 . S
C239 H253 0.950 . S
C240 C237 1.481 . S
C240 C241 1.297 . S
C240 H254 0.950 . S
C241 C240 1.297 . S
C241 C242 1.479 . S
C241 H255 0.950 . S
C242 C241 1.479 . S
C242 C243 1.375 . S
C242 C248 1.404 . S
C243 C242 1.375 . S
C243 C244 1.369 . S
C243 H256 0.950 . S
C244 C243 1.369 . S
C244 C245 1.392 . S
C244 H257 0.951 . S
C245 C244 1.392 . S
C245 C247 1.384 . S
H246 C248 0.949 . S
C247 C245 1.384 . S
C247 C248 1.385 . S
C247 H249 0.950 . S
C248 C242 1.404 . S
C248 H246 0.949 . S
C248 C247 1.385 . S
H249 C247 0.950 . S
H250 C234 0.951 . S
H251 C236 0.951 . S
H252 C238 0.951 . S
H253 C239 0.950 . S
H254 C240 0.950 . S
H255 C241 0.950 . S
H256 C243 0.950 . S
H257 C244 0.951 . S
C258 C259 1.386 . S
C258 C260 1.383 . S
C258 H274 0.951 . S
C259 C258 1.386 . S
C259 C263 1.383 . S
C260 C258 1.383 . S
C260 C261 1.402 . S
C260 H275 0.951 . S
C261 C260 1.402 . S
C261 C262 1.375 . S
C261 C264 1.481 . S
C262 C261 1.375 . S
C262 C263 1.367 . S
C262 H276 0.951 . S
C263 C259 1.383 . S
C263 C262 1.367 . S
C263 H277 0.950 . S
C264 C261 1.481 . S
C264 C265 1.297 . S
C264 H278 0.950 . S
C265 C264 1.297 . S
C265 C266 1.479 . S
C265 H279 0.950 . S
C266 C265 1.479 . S
C266 C267 1.375 . S
C266 C272 1.404 . S
C267 C266 1.375 . S
C267 C268 1.369 . S
C267 H280 0.950 . S
C268 C267 1.369 . S
C268 C269 1.392 . S
C268 H281 0.951 . S
C269 C268 1.392 . S
C269 C271 1.384 . S
H270 C272 0.949 . S
C271 C269 1.384 . S
C271 C272 1.385 . S
C271 H273 0.950 . S
C272 C266 1.404 . S
C272 H270 0.949 . S
C272 C271 1.385 . S
H273 C271 0.950 . S
H274 C258 0.951 . S
H275 C260 0.951 . S
H276 C262 0.951 . S
H277 C263 0.950 . S
H278 C264 0.950 . S
H279 C265 0.950 . S
H280 C267 0.950 . S
H281 C268 0.951 . S
C282 C283 1.386 . S
C282 C284 1.383 . S
C282 H298 0.951 . S
C283 C282 1.386 . S
C283 C287 1.383 . S
C284 C282 1.383 . S
C284 C285 1.402 . S
C284 H299 0.951 . S
C285 C284 1.402 . S
C285 C286 1.375 . S
C285 C288 1.481 . S
C286 C285 1.375 . S
C286 C287 1.367 . S
C286 H300 0.951 . S
C287 C283 1.383 . S
C287 C286 1.367 . S
C287 H301 0.950 1_556 S
C288 C285 1.481 . S
C288 C289 1.297 . S
C288 H302 0.950 . S
C289 C288 1.297 . S
C289 C290 1.479 . S
C289 H303 0.950 . S
C290 C289 1.479 . S
C290 C291 1.375 . S
C290 C296 1.404 . S
C291 C290 1.375 . S
C291 C292 1.369 . S
C291 H304 0.950 . S
C292 C291 1.369 . S
C292 C293 1.392 . S
C292 H305 0.951 . S
C293 C292 1.392 . S
C293 C295 1.384 . S
H294 C296 0.949 . S
C295 C293 1.384 . S
C295 C296 1.385 . S
C295 H297 0.950 . S
C296 C290 1.404 . S
C296 H294 0.949 . S
C296 C295 1.385 . S
H297 C295 0.950 . S
H298 C282 0.951 . S
H299 C284 0.951 . S
H300 C286 0.951 . S
H301 C287 0.950 1_554 S
H302 C288 0.950 . S
H303 C289 0.950 . S
H304 C291 0.950 . S
H305 C292 0.951 . S
C306 C307 1.386 . S
C306 C308 1.383 . S
C306 H322 0.951 . S
C307 C306 1.386 . S
C307 C311 1.383 . S
C308 C306 1.383 . S
C308 C309 1.402 . S
C308 H323 0.951 . S
C309 C308 1.402 . S
C309 C310 1.375 . S
C309 C312 1.481 . S
C310 C309 1.375 . S
C310 C311 1.367 . S
C310 H324 0.951 . S
C311 C307 1.383 . S
C311 C310 1.367 . S
C311 H325 0.950 . S
C312 C309 1.481 . S
C312 C313 1.297 . S
C312 H326 0.950 . S
C313 C312 1.297 . S
C313 C314 1.479 . S
C313 H327 0.950 . S
C314 C313 1.479 . S
C314 C315 1.375 . S
C314 C320 1.404 . S
C315 C314 1.375 . S
C315 C316 1.369 . S
C315 H328 0.950 . S
C316 C315 1.369 . S
C316 C317 1.392 . S
C316 H329 0.951 . S
C317 C316 1.392 . S
C317 C319 1.384 . S
H318 C320 0.949 . S
C319 C317 1.384 . S
C319 C320 1.385 . S
C319 H321 0.950 . S
C320 C314 1.404 . S
C320 H318 0.949 . S
C320 C319 1.385 . S
H321 C319 0.950 . S
H322 C306 0.951 . S
H323 C308 0.951 . S
H324 C310 0.951 . S
H325 C311 0.950 . S
H326 C312 0.950 . S
H327 C313 0.950 . S
H328 C315 0.950 . S
H329 C316 0.951 . S
C330 C331 1.386 . S
C330 C332 1.383 . S
C330 H346 0.951 . S
C331 C330 1.386 . S
C331 C335 1.383 . S
C332 C330 1.383 . S
C332 C333 1.402 . S
C332 H347 0.951 . S
C333 C332 1.402 . S
C333 C334 1.375 . S
C333 C336 1.481 . S
C334 C333 1.375 . S
C334 C335 1.367 . S
C334 H348 0.951 . S
C335 C331 1.383 . S
C335 C334 1.367 . S
C335 H349 0.950 . S
C336 C333 1.481 . S
C336 C337 1.297 . S
C336 H350 0.950 . S
C337 C336 1.297 . S
C337 C338 1.479 . S
C337 H351 0.950 . S
C338 C337 1.479 . S
C338 C339 1.375 . S
C338 C344 1.404 . S
C339 C338 1.375 . S
C339 C340 1.369 . S
C339 H352 0.950 . S
C340 C339 1.369 . S
C340 C341 1.392 . S
C340 H353 0.951 . S
C341 C340 1.392 . S
C341 C343 1.384 . S
H342 C344 0.949 . S
C343 C341 1.384 . S
C343 C344 1.385 . S
C343 H345 0.950 . S
C344 C338 1.404 . S
C344 H342 0.949 . S
C344 C343 1.385 . S
H345 C343 0.950 . S
H346 C330 0.951 . S
H347 C332 0.951 . S
H348 C334 0.951 . S
H349 C335 0.950 . S
H350 C336 0.950 . S
H351 C337 0.950 . S
H352 C339 0.950 . S
H353 C340 0.951 . S
C354 C355 1.386 . S
C354 C356 1.383 . S
C354 H370 0.951 . S
C355 C354 1.386 . S
C355 C359 1.383 . S
C356 C354 1.383 . S
C356 C357 1.402 . S
C356 H371 0.951 . S
C357 C356 1.402 . S
C357 C358 1.375 . S
C357 C360 1.481 . S
C358 C357 1.375 . S
C358 C359 1.367 . S
C358 H372 0.951 . S
C359 C355 1.383 . S
C359 C358 1.367 . S
C359 H373 0.950 1_556 S
C360 C357 1.481 . S
C360 C361 1.297 . S
C360 H374 0.950 . S
C361 C360 1.297 . S
C361 C362 1.479 . S
C361 H375 0.950 . S
C362 C361 1.479 . S
C362 C363 1.375 . S
C362 C368 1.404 . S
C363 C362 1.375 . S
C363 C364 1.369 . S
C363 H376 0.950 . S
C364 C363 1.369 . S
C364 C365 1.392 . S
C364 H377 0.951 . S
C365 C364 1.392 . S
C365 C367 1.384 . S
H366 C368 0.949 . S
C367 C365 1.384 . S
C367 C368 1.385 . S
C367 H369 0.950 . S
C368 C362 1.404 . S
C368 H366 0.949 . S
C368 C367 1.385 . S
H369 C367 0.950 . S
H370 C354 0.951 . S
H371 C356 0.951 . S
H372 C358 0.951 . S
H373 C359 0.950 1_554 S
H374 C360 0.950 . S
H375 C361 0.950 . S
H376 C363 0.950 . S
H377 C364 0.951 . S
C378 C379 1.386 . S
C378 C380 1.383 . S
C378 H394 0.951 . S
C379 C378 1.386 . S
C379 C383 1.383 . S
C380 C378 1.383 . S
C380 C381 1.402 . S
C380 H395 0.951 . S
C381 C380 1.402 . S
C381 C382 1.375 . S
C381 C384 1.481 . S
C382 C381 1.375 . S
C382 C383 1.367 . S
C382 H396 0.951 . S
C383 C379 1.383 . S
C383 C382 1.367 . S
C383 H397 0.950 . S
C384 C381 1.481 . S
C384 C385 1.297 . S
C384 H398 0.950 . S
C385 C384 1.297 . S
C385 C386 1.479 . S
C385 H399 0.950 . S
C386 C385 1.479 . S
C386 C387 1.375 . S
C386 C392 1.404 . S
C387 C386 1.375 . S
C387 C388 1.369 . S
C387 H400 0.950 . S
C388 C387 1.369 . S
C388 C389 1.392 . S
C388 H401 0.951 1_655 S
C389 C388 1.392 . S
C389 C391 1.384 . S
H390 C392 0.949 . S
C391 C389 1.384 . S
C391 C392 1.385 . S
C391 H393 0.950 . S
C392 C386 1.404 . S
C392 H390 0.949 . S
C392 C391 1.385 . S
H393 C391 0.950 . S
H394 C378 0.951 . S
H395 C380 0.951 . S
H396 C382 0.951 . S
H397 C383 0.950 . S
H398 C384 0.950 . S
H399 C385 0.950 . S
H400 C387 0.950 . S
H401 C388 0.951 1_455 S
C402 C403 1.386 . S
C402 C404 1.383 . S
C402 H418 0.951 . S
C403 C402 1.386 . S
C403 C407 1.383 . S
C404 C402 1.383 . S
C404 C405 1.402 . S
C404 H419 0.951 . S
C405 C404 1.402 . S
C405 C406 1.375 . S
C405 C408 1.481 . S
C406 C405 1.375 . S
C406 C407 1.367 . S
C406 H420 0.951 . S
C407 C403 1.383 . S
C407 C406 1.367 . S
C407 H421 0.950 . S
C408 C405 1.481 . S
C408 C409 1.297 . S
C408 H422 0.950 . S
C409 C408 1.297 . S
C409 C410 1.479 . S
C409 H423 0.950 . S
C410 C409 1.479 . S
C410 C411 1.375 . S
C410 C416 1.404 . S
C411 C410 1.375 . S
C411 C412 1.369 . S
C411 H424 0.950 . S
C412 C411 1.369 . S
C412 C413 1.392 . S
C412 H425 0.951 . S
C413 C412 1.392 . S
C413 C415 1.384 . S
H414 C416 0.949 . S
C415 C413 1.384 . S
C415 C416 1.385 . S
C415 H417 0.950 . S
C416 C410 1.404 . S
C416 H414 0.949 . S
C416 C415 1.385 . S
H417 C415 0.950 . S
H418 C402 0.951 . S
H419 C404 0.951 . S
H420 C406 0.951 . S
H421 C407 0.950 . S
H422 C408 0.950 . S
H423 C409 0.950 . S
H424 C411 0.950 . S
H425 C412 0.951 . S
C426 C427 1.386 . S
C426 C428 1.383 . S
C426 H442 0.951 . S
C427 C426 1.386 . S
C427 C431 1.383 . S
C428 C426 1.383 . S
C428 C429 1.402 . S
C428 H443 0.951 . S
C429 C428 1.402 . S
C429 C430 1.375 . S
C429 C432 1.481 . S
C430 C429 1.375 . S
C430 C431 1.367 . S
C430 H444 0.951 . S
C431 C427 1.383 . S
C431 C430 1.367 . S
C431 H445 0.950 . S
C432 C429 1.481 . S
C432 C433 1.297 . S
C432 H446 0.950 . S
C433 C432 1.297 . S
C433 C434 1.479 . S
C433 H447 0.950 . S
C434 C433 1.479 . S
C434 C435 1.375 . S
C434 C440 1.404 . S
C435 C434 1.375 . S
C435 C436 1.369 . S
C435 H448 0.950 . S
C436 C435 1.369 . S
C436 C437 1.392 . S
C436 H449 0.951 . S
C437 C436 1.392 . S
C437 C439 1.384 . S
H438 C440 0.949 . S
C439 C437 1.384 . S
C439 C440 1.385 . S
C439 H441 0.950 . S
C440 C434 1.404 . S
C440 H438 0.949 . S
C440 C439 1.385 . S
H441 C439 0.950 . S
H442 C426 0.951 . S
H443 C428 0.951 . S
H444 C430 0.951 . S
H445 C431 0.950 . S
H446 C432 0.950 . S
H447 C433 0.950 . S
H448 C435 0.950 . S
H449 C436 0.951 . S
C450 C451 1.386 . S
C450 C452 1.383 . S
C450 H466 0.951 . S
C451 C450 1.386 . S
C451 C455 1.383 . S
C452 C450 1.383 . S
C452 C453 1.402 . S
C452 H467 0.951 . S
C453 C452 1.402 . S
C453 C454 1.375 . S
C453 C456 1.481 . S
C454 C453 1.375 . S
C454 C455 1.367 . S
C454 H468 0.951 . S
C455 C451 1.383 . S
C455 C454 1.367 . S
C455 H469 0.950 . S
C456 C453 1.481 . S
C456 C457 1.297 . S
C456 H470 0.950 . S
C457 C456 1.297 . S
C457 C458 1.479 . S
C457 H471 0.950 . S
C458 C457 1.479 . S
C458 C459 1.375 . S
C458 C464 1.404 . S
C459 C458 1.375 . S
C459 C460 1.369 . S
C459 H472 0.950 . S
C460 C459 1.369 . S
C460 C461 1.392 . S
C460 H473 0.951 . S
C461 C460 1.392 . S
C461 C463 1.384 . S
H462 C464 0.949 . S
C463 C461 1.384 . S
C463 C464 1.385 . S
C463 H465 0.950 . S
C464 C458 1.404 . S
C464 H462 0.949 . S
C464 C463 1.385 . S
H465 C463 0.950 . S
H466 C450 0.951 . S
H467 C452 0.951 . S
H468 C454 0.951 . S
H469 C455 0.950 . S
H470 C456 0.950 . S
H471 C457 0.950 . S
H472 C459 0.950 . S
H473 C460 0.951 . S
C197 C151 1.469 . S
C187 C25 1.520 . S
C221 C147 1.450 . S
C211 C61 1.521 . S
C245 C172 1.402 . S
C235 C97 1.484 . S
C259 C133 1.503 . S
C269 C168 1.349 . S
C283 C31 1.119 . S
C293 C169 1.136 . S
C317 C184 0.979 . S
C307 C37 1.161 . S
C331 C1 1.694 . S
C341 C185 1.610 . S
C365 C181 1.526 . S
C355 C67 1.733 . S
C389 C148 1.052 1_655 S
C379 C103 1.092 . S
C403 C109 1.175 . S
C413 C163 1.152 . S
C437 C164 1.504 . S
C427 C73 1.708 . S
C461 C160 1.577 . S
C451 C139 1.732 . S
