# Generated by pormake.
# Topology apo, (3,6)-cn, num edge types: 1
# Building blocks:
#     Node 0, Type 0, BuildingBlock: PAMTOO_clean_linker_0, # of connection points: 3
#     Node 1, Type 0, BuildingBlock: PAMTOO_clean_linker_0, # of connection points: 3
#     Node 2, Type 0, BuildingBlock: PAMTOO_clean_linker_0, # of connection points: 3
#     Node 3, Type 0, BuildingBlock: PAMTOO_clean_linker_0, # of connection points: 3
#     Node 4, Type 0, BuildingBlock: PAMTOO_clean_linker_0, # of connection points: 3
#     Node 5, Type 0, BuildingBlock: PAMTOO_clean_linker_0, # of connection points: 3
#     Node 6, Type 0, BuildingBlock: PAMTOO_clean_linker_0, # of connection points: 3
#     Node 7, Type 0, BuildingBlock: PAMTOO_clean_linker_0, # of connection points: 3
#     Node 8, Type 1, BuildingBlock: KUMBOL_clean_sbu_1, # of connection points: 6
#     Node 9, Type 1, BuildingBlock: KUMBOL_clean_sbu_1, # of connection points: 6
#     Node 10, Type 1, BuildingBlock: KUMBOL_clean_sbu_1, # of connection points: 6
#     Node 11, Type 1, BuildingBlock: KUMBOL_clean_sbu_1, # of connection points: 6
#     Edge 12, Type (0, 1), BuildingBlock: EZIPEK_clean_linker_0, # of connection points: 2
#     Edge 13, Type (0, 1), BuildingBlock: EZIPEK_clean_linker_0, # of connection points: 2
#     Edge 14, Type (0, 1), BuildingBlock: EZIPEK_clean_linker_0, # of connection points: 2
#     Edge 15, Type (0, 1), BuildingBlock: EZIPEK_clean_linker_0, # of connection points: 2
#     Edge 16, Type (0, 1), BuildingBlock: EZIPEK_clean_linker_0, # of connection points: 2
#     Edge 17, Type (0, 1), BuildingBlock: EZIPEK_clean_linker_0, # of connection points: 2
#     Edge 18, Type (0, 1), BuildingBlock: EZIPEK_clean_linker_0, # of connection points: 2
#     Edge 19, Type (0, 1), BuildingBlock: EZIPEK_clean_linker_0, # of connection points: 2
#     Edge 20, Type (0, 1), BuildingBlock: EZIPEK_clean_linker_0, # of connection points: 2
#     Edge 21, Type (0, 1), BuildingBlock: EZIPEK_clean_linker_0, # of connection points: 2
#     Edge 22, Type (0, 1), BuildingBlock: EZIPEK_clean_linker_0, # of connection points: 2
#     Edge 23, Type (0, 1), BuildingBlock: EZIPEK_clean_linker_0, # of connection points: 2
#     Edge 24, Type (0, 1), BuildingBlock: EZIPEK_clean_linker_0, # of connection points: 2
#     Edge 25, Type (0, 1), BuildingBlock: EZIPEK_clean_linker_0, # of connection points: 2
#     Edge 26, Type (0, 1), BuildingBlock: EZIPEK_clean_linker_0, # of connection points: 2
#     Edge 27, Type (0, 1), BuildingBlock: EZIPEK_clean_linker_0, # of connection points: 2
#     Edge 28, Type (0, 1), BuildingBlock: EZIPEK_clean_linker_0, # of connection points: 2
#     Edge 29, Type (0, 1), BuildingBlock: EZIPEK_clean_linker_0, # of connection points: 2
#     Edge 30, Type (0, 1), BuildingBlock: EZIPEK_clean_linker_0, # of connection points: 2
#     Edge 31, Type (0, 1), BuildingBlock: EZIPEK_clean_linker_0, # of connection points: 2
#     Edge 32, Type (0, 1), BuildingBlock: EZIPEK_clean_linker_0, # of connection points: 2
#     Edge 33, Type (0, 1), BuildingBlock: EZIPEK_clean_linker_0, # of connection points: 2
#     Edge 34, Type (0, 1), BuildingBlock: EZIPEK_clean_linker_0, # of connection points: 2
#     Edge 35, Type (0, 1), BuildingBlock: EZIPEK_clean_linker_0, # of connection points: 2
# Relax obj value: 0.038
# Max RMSD: 0.245
# Mean RMSD: 0.174
data_MOF--net-apo--node1-KUMBOL_clean_sbu_1--node2-PAMTOO_clean_linker_0--edge1-EZIPEK_clean_linker_0
_symmetry_space_group_name_H-M    P1
_symmetry_Int_Tables_number       1
_symmetry_cell_setting            triclinic
loop_
_symmetry_equiv_pos_as_xyz
'x, y, z'
_cell_length_a     20.567847
_cell_length_b     30.788623
_cell_length_c     39.014576
_cell_angle_alpha  90.257656
_cell_angle_beta   90.317944
_cell_angle_gamma 90.697604
loop_
_atom_site_label
_atom_site_type_symbol
_atom_site_fract_x
_atom_site_fract_y
_atom_site_fract_z
_atom_type_partial_charge
H0 H 0.38882 0.46463 0.42445 0.0
H1 H 0.28964 0.39333 0.34642 0.0
H2 H 0.26611 0.35569 0.45122 0.0
H3 H 0.30468 0.2858 0.38755 0.0
C4 C 0.26654 0.30017 0.37114 0.0
O5 O 0.23889 0.33517 0.38772 0.0
H6 H 0.29313 0.31149 0.34802 0.0
C7 C 0.35204 0.44067 0.41848 0.0
C8 C 0.3185 0.41718 0.44416 0.0
C9 C 0.34014 0.43314 0.38359 0.0
C10 C 0.2991 0.39903 0.37341 0.0
C11 C 0.27439 0.37034 0.39793 0.0
C12 C 0.28509 0.3789 0.43298 0.0
H13 H 0.14814 0.04152 0.92846 0.0
H14 H 0.2403 0.1631 0.95593 0.0
H15 H 0.2074 0.13033 0.85074 0.0
H16 H 0.3487 0.1694 0.89651 0.0
C17 C 0.31887 0.19932 0.89647 0.0
O18 O 0.25323 0.18951 0.89352 0.0
H19 H 0.32843 0.21402 0.9221 0.0
C20 C 0.17551 0.07036 0.92218 0.0
C21 C 0.17668 0.08191 0.88734 0.0
C22 C 0.20691 0.09631 0.94764 0.0
C23 C 0.22556 0.13874 0.93732 0.0
C24 C 0.2282 0.15035 0.90261 0.0
C25 C 0.20536 0.12137 0.87754 0.0
H26 H 0.86409 0.06296 0.59407 0.0
H27 H 0.77079 0.1056 0.68668 0.0
H28 H 0.74589 0.17774 0.59391 0.0
H29 H 0.78812 0.22442 0.6638 0.0
C30 C 0.75256 0.20577 0.67945 0.0
O31 O 0.72067 0.17491 0.65966 0.0
H32 H 0.78298 0.1898 0.69931 0.0
C33 C 0.83265 0.08542 0.60732 0.0
C34 C 0.80466 0.12021 0.58936 0.0
C35 C 0.82045 0.08011 0.64257 0.0
C36 C 0.77986 0.10925 0.6595 0.0
C37 C 0.75422 0.14477 0.64214 0.0
C38 C 0.76618 0.15012 0.60715 0.0
H39 H 0.69997 0.45037 0.10191 0.0
H40 H 0.83691 0.34788 0.08577 0.0
H41 H 0.78787 0.38615 0.18828 0.0
H42 H 0.88196 0.28422 0.11808 0.0
C43 C 0.85334 0.28881 0.14187 0.0
O44 O 0.85651 0.33232 0.15109 0.0
H45 H 0.80313 0.27964 0.13434 0.0
C46 C 0.73248 0.42611 0.11212 0.0
C47 C 0.74132 0.42248 0.14781 0.0
C48 C 0.76639 0.39885 0.08961 0.0
C49 C 0.80971 0.36841 0.10302 0.0
C50 C 0.81558 0.36258 0.1385 0.0
C51 C 0.78139 0.38963 0.16085 0.0
H52 H 0.62064 0.55086 0.60743 0.0
H53 H 0.75384 0.65814 0.59339 0.0
H54 H 0.71301 0.61194 0.69494 0.0
H55 H 0.70562 0.70781 0.68213 0.0
C56 C 0.7472 0.71261 0.66441 0.0
O57 O 0.77351 0.67199 0.6593 0.0
H58 H 0.72895 0.72556 0.63962 0.0
C59 C 0.65324 0.57538 0.61816 0.0
C60 C 0.66324 0.57749 0.65389 0.0
C61 C 0.68646 0.60386 0.59611 0.0
C62 C 0.72875 0.63554 0.61009 0.0
C63 C 0.73701 0.63912 0.64578 0.0
C64 C 0.7053 0.6096 0.66749 0.0
H65 H 0.85222 0.97024 0.10622 0.0
H66 H 0.81681 0.88435 0.1915 0.0
H67 H 0.7556 0.84699 0.09029 0.0
H68 H 0.66038 0.82343 0.13675 0.0
C69 C 0.68772 0.82272 0.1614 0.0
O70 O 0.75373 0.82567 0.15519 0.0
H71 H 0.67075 0.8521 0.17522 0.0
C72 C 0.83297 0.94006 0.11645 0.0
C73 C 0.80499 0.90923 0.09387 0.0
C74 C 0.8382 0.93157 0.15192 0.0
C75 C 0.81284 0.89202 0.1645 0.0
C76 C 0.78136 0.86233 0.14249 0.0
C77 C 0.77853 0.87064 0.10726 0.0
H78 H 0.1539 0.92925 0.43755 0.0
H79 H 0.28793 0.82289 0.44023 0.0
H80 H 0.24009 0.88236 0.3442 0.0
H81 H 0.24063 0.78586 0.34357 0.0
C82 C 0.28226 0.78107 0.36135 0.0
O83 O 0.30548 0.82044 0.37362 0.0
H84 H 0.26109 0.76171 0.38266 0.0
C85 C 0.18514 0.90663 0.42433 0.0
C86 C 0.19243 0.90948 0.38852 0.0
C87 C 0.22025 0.87596 0.44329 0.0
C88 C 0.26073 0.84679 0.42597 0.0
C89 C 0.26674 0.84864 0.39022 0.0
C90 C 0.23364 0.88039 0.3717 0.0
H91 H 0.38826 0.56957 0.92234 0.0
H92 H 0.25463 0.60892 0.84321 0.0
H93 H 0.27483 0.68527 0.93498 0.0
H94 H 0.25391 0.69756 0.82885 0.0
C95 C 0.23362 0.71139 0.85284 0.0
O96 O 0.21644 0.6786 0.87513 0.0
H97 H 0.27414 0.73139 0.86379 0.0
C98 C 0.35293 0.59231 0.91255 0.0
C99 C 0.33454 0.62795 0.93287 0.0
C100 C 0.32478 0.58545 0.87992 0.0
C101 C 0.27762 0.61428 0.86796 0.0
C102 C 0.26071 0.65057 0.88746 0.0
C103 C 0.28909 0.65745 0.9198 0.0
C104 C 0.80722 0.10946 0.29561 0.0
C105 C 0.77522 0.04192 0.32288 0.0
C106 C 0.82336 0.07323 0.31473 0.0
C107 C 0.71171 0.04651 0.31014 0.0
C108 C 0.74262 0.11527 0.28429 0.0
C109 C 0.69545 0.08309 0.29088 0.0
N110 N 0.85357 0.14035 0.28999 0.0
C111 C 0.83714 0.17948 0.27631 0.0
C112 C 0.72669 0.15407 0.2679 0.0
C113 C 0.77386 0.18669 0.2646 0.0
Gd114 Gd 0.11161 0.1092 0.24143 0.0
Gd115 Gd 0.95838 0.12495 0.31031 0.0
N116 N 0.8852 0.06965 0.32679 0.0
C117 C 0.79189 0.00744 0.3443 0.0
C118 C 0.9007 0.03728 0.34921 0.0
C119 C 0.85466 0.00546 0.35787 0.0
H120 H 0.94821 0.03583 0.36094 0.0
H121 H 0.86752 0.9796 0.37524 0.0
H122 H 0.10838 0.19683 0.19266 0.0
H123 H 0.87228 0.20569 0.27484 0.0
H124 H 0.16996 0.26596 0.18586 0.0
H125 H 0.75628 0.98281 0.35118 0.0
H126 H 0.67437 0.02251 0.31581 0.0
H127 H 0.21266 0.0419 0.28707 0.0
H128 H 0.6776 0.15984 0.25895 0.0
H129 H 0.76141 0.21757 0.25333 0.0
H130 H 0.34748 0.254 0.26575 0.0
H131 H 0.64578 0.08682 0.28207 0.0
H132 H 0.37283 0.11843 0.32363 0.0
H133 H 0.31222 0.04867 0.32126 0.0
N134 N 0.21082 0.10899 0.27288 0.0
C135 C 0.24659 0.1465 0.27155 0.0
C136 C 0.23588 0.0734 0.28899 0.0
C137 C 0.32793 0.11606 0.30905 0.0
C138 C 0.2937 0.0767 0.3079 0.0
C139 C 0.30536 0.1513 0.29012 0.0
H140 H 0.38529 0.19507 0.30299 0.0
N141 N 0.16987 0.17379 0.23222 0.0
C142 C 0.22598 0.17964 0.25027 0.0
C143 C 0.24123 0.25017 0.22443 0.0
C144 C 0.26246 0.21849 0.24745 0.0
C145 C 0.15115 0.20316 0.2082 0.0
C146 C 0.18595 0.24213 0.20428 0.0
O147 O 0.93459 0.08294 0.26323 0.0
O148 O 0.03365 0.0565 0.24359 0.0
O149 O 0.11821 0.1088 0.18475 0.0
O150 O 0.17873 0.06683 0.21607 0.0
O151 O 0.02358 0.07 0.32414 0.0
O152 O 0.10303 0.05726 0.28249 0.0
O153 O 0.10389 0.17033 0.27355 0.0
O154 O 0.06441 0.13906 0.3215 0.0
O155 O 0.95246 0.12643 0.36568 0.0
O156 O 0.92933 0.18408 0.33689 0.0
O157 O 0.01984 0.14025 0.22112 0.0
O158 O 0.97936 0.17502 0.26913 0.0
C159 C 0.96947 0.05742 0.24308 0.0
C160 C 0.0728 0.04847 0.31155 0.0
C161 C 0.19378 0.05972 0.15489 0.0
C162 C 0.21378 0.0555 0.09316 0.0
C163 C 0.268 0.00607 0.13195 0.0
C164 C 0.23699 0.02515 0.15971 0.0
C165 C 0.25667 0.02115 0.09894 0.0
C166 C 0.18178 0.07478 0.12125 0.0
C167 C 0.16251 0.07904 0.18545 0.0
C168 C 0.31916 0.22417 0.26723 0.0
C169 C 0.34059 0.19063 0.2885 0.0
H170 H 0.26792 0.28047 0.2215 0.0
C171 C 0.09669 0.17057 0.30681 0.0
C172 C 0.98112 0.16865 0.23567 0.0
C173 C 0.87101 0.17014 0.38879 0.0
C174 C 0.82002 0.16063 0.44479 0.0
C175 C 0.75707 0.18738 0.3966 0.0
C176 C 0.81158 0.18479 0.37551 0.0
C177 C 0.76113 0.17535 0.43104 0.0
C178 C 0.87486 0.15809 0.42355 0.0
C179 C 0.9288 0.1653 0.36683 0.0
H180 H 0.30116 0.97953 0.13606 0.0
H181 H 0.24705 0.01266 0.18508 0.0
H182 H 0.28165 0.00601 0.0777 0.0
H183 H 0.14865 0.10131 0.11694 0.0
H184 H 0.7114 0.19859 0.38618 0.0
H185 H 0.80699 0.19397 0.34888 0.0
H186 H 0.71832 0.17743 0.44699 0.0
H187 H 0.92031 0.14641 0.43405 0.0
C188 C 0.67482 0.46751 0.79109 0.0
C189 C 0.63997 0.53755 0.81211 0.0
C190 C 0.6298 0.49237 0.80838 0.0
C191 C 0.69403 0.55747 0.79655 0.0
C192 C 0.73037 0.48704 0.77646 0.0
C193 C 0.73907 0.53227 0.77871 0.0
N194 N 0.66447 0.42396 0.78884 0.0
C195 C 0.71042 0.39756 0.77512 0.0
C196 C 0.77594 0.46039 0.76048 0.0
C197 C 0.76636 0.41538 0.76027 0.0
Gd198 Gd 0.43496 0.36997 0.73621 0.0
Gd199 Gd 0.56758 0.39673 0.81233 0.0
N200 N 0.57751 0.47215 0.82271 0.0
C201 C 0.59608 0.56124 0.83184 0.0
C202 C 0.53759 0.49464 0.8441 0.0
C203 C 0.54528 0.53954 0.84837 0.0
H204 H 0.50058 0.47802 0.85863 0.0
H205 H 0.51251 0.55726 0.86477 0.0
H206 H 0.48235 0.27203 0.71025 0.0
H207 H 0.70355 0.36275 0.77528 0.0
H208 H 0.44357 0.19569 0.71353 0.0
H209 H 0.6021 0.596 0.83529 0.0
H210 H 0.7021 0.59222 0.79872 0.0
H211 H 0.30359 0.43197 0.75456 0.0
H212 H 0.81928 0.47413 0.74892 0.0
H213 H 0.80203 0.3944 0.74871 0.0
H214 H 0.23637 0.20542 0.76914 0.0
H215 H 0.78109 0.54797 0.76731 0.0
H216 H 0.15278 0.34748 0.79064 0.0
H217 H 0.1944 0.42153 0.77869 0.0
N218 N 0.32689 0.36466 0.75585 0.0
C219 C 0.30302 0.32357 0.75983 0.0
C220 C 0.28746 0.39952 0.76089 0.0
C221 C 0.20142 0.35185 0.7806 0.0
C222 C 0.22483 0.39371 0.774 0.0
C223 C 0.24001 0.31607 0.77281 0.0
H224 H 0.16913 0.26688 0.78727 0.0
N225 N 0.40047 0.29715 0.73636 0.0
C226 C 0.34061 0.28884 0.74946 0.0
C227 C 0.35478 0.21204 0.73944 0.0
C228 C 0.31663 0.2459 0.75199 0.0
C229 C 0.43622 0.26467 0.72214 0.0
C230 C 0.41436 0.22155 0.72393 0.0
O231 O 0.58033 0.41982 0.75705 0.0
O232 O 0.47873 0.43754 0.73842 0.0
O233 O 0.46404 0.37013 0.68261 0.0
O234 O 0.3631 0.37499 0.69553 0.0
O235 O 0.46563 0.41809 0.82224 0.0
O236 O 0.41546 0.42937 0.77002 0.0
O237 O 0.45875 0.3205 0.77629 0.0
O238 O 0.47529 0.35832 0.82593 0.0
O239 O 0.59285 0.40983 0.86549 0.0
O240 O 0.62843 0.35197 0.84086 0.0
O241 O 0.53852 0.34473 0.72909 0.0
O242 O 0.58617 0.33522 0.78289 0.0
C243 C 0.54131 0.44576 0.74015 0.0
C244 C 0.42259 0.43792 0.80314 0.0
C245 C 0.39785 0.41331 0.64724 0.0
C246 C 0.37101 0.44005 0.59011 0.0
C247 C 0.38316 0.49045 0.63806 0.0
C248 C 0.39702 0.45604 0.6599 0.0
C249 C 0.36933 0.48253 0.60354 0.0
C250 C 0.38637 0.40544 0.61213 0.0
C251 C 0.40569 0.37696 0.67115 0.0
C252 C 0.25525 0.23824 0.76649 0.0
C253 C 0.21702 0.27324 0.77686 0.0
H254 H 0.33812 0.17859 0.74098 0.0
C255 C 0.44875 0.32535 0.80907 0.0
C256 C 0.58137 0.32623 0.74992 0.0
C257 C 0.69122 0.38249 0.88682 0.0
C258 C 0.74881 0.39282 0.94123 0.0
C259 C 0.80887 0.38968 0.88782 0.0
C260 C 0.75081 0.38383 0.86949 0.0
C261 C 0.80804 0.39395 0.92351 0.0
C262 C 0.69047 0.38748 0.92266 0.0
C263 C 0.62905 0.37587 0.86851 0.0
H264 H 0.38202 0.52328 0.64805 0.0
H265 H 0.40553 0.46269 0.68682 0.0
H266 H 0.35739 0.50966 0.58717 0.0
H267 H 0.38716 0.37251 0.6022 0.0
H268 H 0.85472 0.39059 0.87434 0.0
H269 H 0.75259 0.38014 0.84195 0.0
H270 H 0.85354 0.39792 0.93736 0.0
H271 H 0.64459 0.38651 0.93623 0.0
C272 C 0.77405 0.87861 0.79385 0.0
C273 C 0.7552 0.80491 0.814 0.0
C274 C 0.79753 0.84042 0.80809 0.0
C275 C 0.68903 0.80824 0.80552 0.0
C276 C 0.70738 0.88212 0.78573 0.0
C277 C 0.66518 0.84673 0.79151 0.0
N278 N 0.81618 0.91219 0.78785 0.0
C279 C 0.79403 0.95091 0.77574 0.0
C280 C 0.68501 0.92111 0.77195 0.0
C281 C 0.72845 0.9557 0.76716 0.0
Gd282 Gd 0.06767 0.88893 0.72988 0.0
Gd283 Gd 0.92398 0.90036 0.80494 0.0
N284 N 0.86205 0.8377 0.81555 0.0
C285 C 0.78066 0.76705 0.82829 0.0
C286 C 0.88685 0.80143 0.83047 0.0
C287 C 0.84668 0.76541 0.83672 0.0
H288 H 0.93753 0.80017 0.83758 0.0
H289 H 0.86659 0.73648 0.84818 0.0
H290 H 0.06304 0.98644 0.69312 0.0
H291 H 0.82618 0.97867 0.77337 0.0
H292 H 0.13418 0.05169 0.68811 0.0
H293 H 0.74969 0.73907 0.83319 0.0
H294 H 0.65581 0.78124 0.80981 0.0
H295 H 0.16217 0.81002 0.76325 0.0
H296 H 0.63419 0.92503 0.76535 0.0
H297 H 0.71128 0.9863 0.75725 0.0
H298 H 0.32945 0.01263 0.74793 0.0
H299 H 0.61393 0.84882 0.78523 0.0
H300 H 0.34436 0.86801 0.79165 0.0
H301 H 0.27046 0.80406 0.78969 0.0
N302 N 0.17035 0.87813 0.75483 0.0
C303 C 0.21198 0.91284 0.75319 0.0
C304 C 0.19196 0.83887 0.76601 0.0
C305 C 0.29593 0.87115 0.78095 0.0
C306 C 0.25424 0.83506 0.7801 0.0
C307 C 0.27565 0.91039 0.76668 0.0
H308 H 0.36602 0.94563 0.77573 0.0
N309 N 0.13063 0.95206 0.72373 0.0
C310 C 0.19167 0.95073 0.7372 0.0
C311 C 0.2124 0.02386 0.7174 0.0
C312 C 0.23394 0.98695 0.73478 0.0
C313 C 0.11055 0.98692 0.70511 0.0
C314 C 0.15071 0.02365 0.70218 0.0
O315 O 0.90497 0.84642 0.76633 0.0
O316 O 0.97459 0.85132 0.71908 0.0
O317 O 0.07756 0.89824 0.67476 0.0
O318 O 0.11783 0.8415 0.69866 0.0
O319 O 0.01134 0.86086 0.81923 0.0
O320 O 0.05083 0.83422 0.76781 0.0
O321 O 0.06815 0.94954 0.76448 0.0
O322 O 0.0273 0.9211 0.81336 0.0
O323 O 0.91534 0.89426 0.86016 0.0
O324 O 0.88921 0.95444 0.83594 0.0
O325 O 0.97621 0.9206 0.71295 0.0
O326 O 0.93191 0.95123 0.76215 0.0
C327 C 0.9232 0.83556 0.73512 0.0
C328 C 0.04893 0.83476 0.80162 0.0
C329 C 0.17104 0.86833 0.64915 0.0
C330 C 0.22022 0.87253 0.59233 0.0
C331 C 0.28849 0.87227 0.64338 0.0
C332 C 0.23339 0.86955 0.66402 0.0
C333 C 0.28209 0.87354 0.60775 0.0
C334 C 0.16467 0.87022 0.61323 0.0
C335 C 0.11239 0.86374 0.67052 0.0
C336 C 0.29644 0.98501 0.7493 0.0
C337 C 0.31726 0.94684 0.76515 0.0
H338 H 0.24346 0.05236 0.71504 0.0
C339 C 0.05528 0.95307 0.79735 0.0
C340 C 0.93779 0.94808 0.72834 0.0
C341 C 0.83416 0.93463 0.8875 0.0
C342 C 0.78993 0.9302 0.94561 0.0
C343 C 0.71738 0.93532 0.8964 0.0
C344 C 0.77063 0.93693 0.87439 0.0
C345 C 0.72681 0.93157 0.93173 0.0
C346 C 0.84358 0.93197 0.92326 0.0
C347 C 0.89093 0.93258 0.86448 0.0
H348 H 0.33637 0.8731 0.65503 0.0
H349 H 0.23967 0.86792 0.69151 0.0
H350 H 0.32542 0.87539 0.59213 0.0
H351 H 0.11676 0.86937 0.6015 0.0
H352 H 0.66856 0.93671 0.88601 0.0
H353 H 0.7619 0.93972 0.8472 0.0
H354 H 0.68482 0.92997 0.94834 0.0
H355 H 0.89247 0.93041 0.93368 0.0
C356 C 0.73175 0.67377 0.28432 0.0
C357 C 0.71508 0.74428 0.31062 0.0
C358 C 0.69332 0.7015 0.30352 0.0
C359 C 0.77376 0.75942 0.29652 0.0
C360 C 0.79198 0.68834 0.27133 0.0
C361 C 0.812 0.73158 0.27683 0.0
N362 N 0.71127 0.63205 0.27936 0.0
C363 C 0.75114 0.60228 0.2647 0.0
C364 C 0.83113 0.65865 0.25397 0.0
C365 C 0.81109 0.61526 0.25117 0.0
Gd366 Gd 0.47003 0.59876 0.22436 0.0
Gd367 Gd 0.60864 0.6141 0.30104 0.0
N368 N 0.63642 0.68606 0.31664 0.0
C369 C 0.67793 0.77031 0.33231 0.0
C370 C 0.60216 0.71053 0.33952 0.0
C371 C 0.62179 0.75311 0.34721 0.0
H372 H 0.56021 0.69724 0.35246 0.0
H373 H 0.59386 0.77253 0.36489 0.0
H374 H 0.50243 0.49911 0.1972 0.0
H375 H 0.73673 0.56853 0.26313 0.0
H376 H 0.45561 0.42467 0.20193 0.0
H377 H 0.69304 0.8033 0.33838 0.0
H378 H 0.79066 0.79239 0.30129 0.0
H379 H 0.34516 0.66814 0.23815 0.0
H380 H 0.87772 0.66857 0.24359 0.0
H381 H 0.8419 0.59176 0.23874 0.0
H382 H 0.25068 0.44648 0.2578 0.0
H383 H 0.8578 0.74348 0.26673 0.0
H384 H 0.18296 0.5935 0.27427 0.0
H385 H 0.23376 0.66462 0.26083 0.0
N386 N 0.36005 0.59985 0.24158 0.0
C387 C 0.33132 0.5604 0.24653 0.0
C388 C 0.32461 0.63692 0.245 0.0
C389 C 0.23239 0.59485 0.26483 0.0
C390 C 0.26094 0.63505 0.25736 0.0
C391 C 0.26702 0.5568 0.25869 0.0
H392 H 0.19012 0.51203 0.27356 0.0
N393 N 0.42592 0.52828 0.2248 0.0
C394 C 0.36522 0.52347 0.23776 0.0
C395 C 0.37011 0.44594 0.22869 0.0
C396 C 0.33613 0.48201 0.24079 0.0
C397 C 0.45668 0.49399 0.2101 0.0
C398 C 0.43004 0.4521 0.21254 0.0
O399 O 0.62279 0.64238 0.24773 0.0
O400 O 0.52204 0.66356 0.22851 0.0
O401 O 0.50001 0.59216 0.17123 0.0
O402 O 0.40361 0.61398 0.18258 0.0
O403 O 0.5147 0.64962 0.31041 0.0
O404 O 0.45209 0.65561 0.26049 0.0
O405 O 0.48817 0.54785 0.26485 0.0
O406 O 0.50964 0.58656 0.31369 0.0
O407 O 0.65152 0.62416 0.35172 0.0
O408 O 0.64366 0.5595 0.33113 0.0
O409 O 0.57179 0.57446 0.21457 0.0
O410 O 0.61854 0.55424 0.26653 0.0
C411 C 0.58476 0.67068 0.2326 0.0
C412 C 0.4657 0.66588 0.29279 0.0
C413 C 0.45072 0.63873 0.13114 0.0
C414 C 0.43249 0.65893 0.07134 0.0
C415 C 0.47989 0.71106 0.11162 0.0
C416 C 0.47591 0.68045 0.13787 0.0
C417 C 0.45803 0.70053 0.07858 0.0
C418 C 0.42945 0.62796 0.09778 0.0
C419 C 0.44565 0.60632 0.15867 0.0
C420 C 0.27353 0.47811 0.25474 0.0
C421 C 0.23903 0.51545 0.26367 0.0
H422 H 0.34947 0.4135 0.23053 0.0
C423 C 0.47973 0.55457 0.29766 0.0
C424 C 0.60984 0.54943 0.23301 0.0
C425 C 0.6254 0.5692 0.39113 0.0
C426 C 0.6205 0.5712 0.45394 0.0
C427 C 0.53578 0.53407 0.42115 0.0
C428 C 0.56659 0.54559 0.39073 0.0
C429 C 0.56254 0.5467 0.45257 0.0
C430 C 0.65232 0.58215 0.42307 0.0
C431 C 0.65556 0.58311 0.35837 0.0
H432 H 0.49955 0.74317 0.11696 0.0
H433 H 0.49222 0.68936 0.1634 0.0
H434 H 0.4608 0.72484 0.05864 0.0
H435 H 0.40981 0.59578 0.09245 0.0
H436 H 0.49048 0.5158 0.42032 0.0
H437 H 0.54381 0.53664 0.36684 0.0
H438 H 0.5375 0.53797 0.47594 0.0
H439 H 0.69682 0.60135 0.42391 0.0
C440 C 0.11464 0.93423 0.34211 0.0
C441 C 0.15959 0.94453 0.36887 0.0
C442 C 0.13392 0.02137 0.36279 0.0
C443 C 0.09787 0.01208 0.3325 0.0
N444 N 0.0558 0.95928 0.292 0.0
N445 N 0.22407 0.99951 0.39812 0.0
C446 C 0.0891 0.96833 0.3216 0.0
C447 C 0.17263 0.98857 0.37739 0.0
N448 N 0.09411 0.89225 0.3373 0.0
N449 N 0.13022 0.06101 0.37838 0.0
H450 H 0.25644 0.97667 0.40759 0.0
H451 H 0.23893 0.03159 0.40239 0.0
H452 H 0.09979 0.08543 0.36978 0.0
H453 H 0.15165 0.06773 0.40214 0.0
H454 H 0.05681 0.88336 0.32043 0.0
H455 H 0.11002 0.8667 0.35253 0.0
H456 H 0.05431 0.92858 0.28067 0.0
H457 H 0.03235 0.98306 0.2778 0.0
C458 C 0.33285 0.50481 0.87167 0.0
C459 C 0.34269 0.54704 0.85871 0.0
C460 C 0.37808 0.51507 0.80441 0.0
C461 C 0.38417 0.47347 0.82025 0.0
N462 N 0.37347 0.43256 0.87386 0.0
N463 N 0.38718 0.59249 0.81417 0.0
C464 C 0.36298 0.46925 0.85519 0.0
C465 C 0.36868 0.55227 0.82543 0.0
N466 N 0.29392 0.49828 0.8995 0.0
N467 N 0.38007 0.52001 0.76966 0.0
H468 H 0.38347 0.62045 0.82918 0.0
H469 H 0.41265 0.59714 0.79141 0.0
H470 H 0.3824 0.49466 0.75219 0.0
H471 H 0.37091 0.54965 0.75784 0.0
H472 H 0.28004 0.4674 0.9078 0.0
H473 H 0.26964 0.52344 0.91181 0.0
H474 H 0.36586 0.43121 0.90024 0.0
H475 H 0.39465 0.40465 0.86464 0.0
C476 C 0.58683 0.55717 0.70253 0.0
C477 C 0.6316 0.54461 0.67671 0.0
C478 C 0.60517 0.46854 0.6881 0.0
C479 C 0.56938 0.48029 0.71753 0.0
N480 N 0.52836 0.53681 0.75405 0.0
N481 N 0.69404 0.48723 0.65086 0.0
C482 C 0.56078 0.52502 0.72513 0.0
C483 C 0.64397 0.49998 0.6713 0.0
N484 N 0.56704 0.5993 0.70453 0.0
N485 N 0.59851 0.42806 0.67439 0.0
H486 H 0.72587 0.50914 0.63915 0.0
H487 H 0.70794 0.45486 0.64869 0.0
H488 H 0.56851 0.40467 0.68528 0.0
H489 H 0.61769 0.41949 0.65064 0.0
H490 H 0.52981 0.60958 0.7205 0.0
H491 H 0.58361 0.62337 0.68789 0.0
H492 H 0.52583 0.56871 0.76288 0.0
H493 H 0.50831 0.51408 0.77075 0.0
C494 C 0.93289 0.98217 0.16675 0.0
C495 C 0.8717 0.96358 0.17561 0.0
C496 C 0.88172 0.99983 0.2315 0.0
C497 C 0.93513 0.02516 0.21989 0.0
N498 N 0.99841 0.04716 0.17078 0.0
N499 N 0.78031 0.9658 0.21465 0.0
C500 C 0.95713 0.01825 0.18584 0.0
C501 C 0.84356 0.97576 0.20744 0.0
N502 N 0.96947 0.9647 0.14117 0.0
N503 N 0.87047 0.99547 0.2656 0.0
H504 H 0.74886 0.95128 0.19683 0.0
H505 H 0.7577 0.97679 0.23689 0.0
H506 H 0.90372 0.00716 0.28368 0.0
H507 H 0.83458 0.97467 0.27518 0.0
H508 H 0.01642 0.97582 0.1358 0.0
H509 H 0.95644 0.93602 0.12844 0.0
H510 H 0.01249 0.04464 0.14521 0.0
H511 H 0.01027 0.07658 0.18239 0.0
C512 C 0.83165 1.00211 0.66027 0.0
C513 C 0.85304 0.04583 0.6629 0.0
C514 C 0.9286 0.02619 0.70915 0.0
C515 C 0.90885 0.98189 0.7057 0.0
N516 N 0.85648 0.92685 0.67004 0.0
N517 N 0.9302 0.09864 0.68474 0.0
C518 C 0.86485 0.96954 0.67891 0.0
C519 C 0.90374 0.05768 0.68604 0.0
N520 N 0.77824 0.99174 0.64073 0.0
N521 N 0.97287 0.03806 0.73374 0.0
H522 H 0.91389 0.12233 0.66781 0.0
H523 H 0.97176 0.10831 0.6982 0.0
H524 H -9e-05 0.01562 0.74736 0.0
H525 H 0.98201 0.07008 0.74116 0.0
H526 H 0.7556 0.96129 0.6412 0.0
H527 H 0.75312 0.01456 0.62627 0.0
H528 H 0.83024 0.91666 0.64849 0.0
H529 H 0.88115 0.90166 0.68177 0.0
C530 C 0.73301 0.49803 0.17216 0.0
C531 C 0.71048 0.45428 0.17148 0.0
C532 C 0.63131 0.47136 0.21629 0.0
C533 C 0.64828 0.51619 0.21399 0.0
N534 N 0.71162 0.57287 0.18701 0.0
N535 N 0.63275 0.40006 0.1896 0.0
C536 C 0.6981 0.52968 0.1911 0.0
C537 C 0.65858 0.44102 0.19293 0.0
N538 N 0.78933 0.50906 0.15569 0.0
N539 N 0.58817 0.45774 0.24047 0.0
H540 H 0.65091 0.37704 0.17259 0.0
H541 H 0.59003 0.38995 0.20152 0.0
H542 H 0.56201 0.47936 0.25526 0.0
H543 H 0.58022 0.42525 0.24669 0.0
H544 H 0.81224 0.53925 0.15829 0.0
H545 H 0.81671 0.48674 0.14191 0.0
H546 H 0.74094 0.58511 0.16754 0.0
H547 H 0.69067 0.59687 0.20202 0.0
C548 C 0.34324 0.5021 0.34973 0.0
C549 C 0.37178 0.46176 0.35794 0.0
C550 C 0.46997 0.48171 0.32627 0.0
C551 C 0.44198 0.52238 0.31807 0.0
N552 N 0.35587 0.57395 0.32524 0.0
N553 N 0.45535 0.40899 0.34885 0.0
C554 C 0.3794 0.5332 0.33052 0.0
C555 C 0.43291 0.45024 0.34443 0.0
N556 N 0.28058 0.50984 0.35939 0.0
N557 N 0.53428 0.47494 0.31988 0.0
H558 H 0.43037 0.38548 0.36295 0.0
H559 H 0.49576 0.39684 0.33624 0.0
H560 H 0.56444 0.49891 0.30968 0.0
H561 H 0.55976 0.44797 0.32825 0.0
H562 H 0.25377 0.53636 0.35132 0.0
H563 H 0.25308 0.48774 0.37362 0.0
H564 H 0.31455 0.58615 0.3369 0.0
H565 H 0.37976 0.59687 0.31019 0.0
C566 C 0.18398 0.01675 0.84876 0.0
C567 C 0.14721 0.05195 0.86127 0.0
C568 C 0.05188 0.02521 0.82884 0.0
C569 C 0.08744 0.98804 0.81842 0.0
N570 N 0.18154 0.94339 0.82681 0.0
N571 N 0.0448 0.08829 0.86636 0.0
C572 C 0.1521 0.98255 0.83047 0.0
C573 C 0.08083 0.05599 0.85195 0.0
N574 N 0.24963 0.01599 0.85426 0.0
N575 N 0.99009 0.03093 0.81696 0.0
H576 H 0.06489 0.11217 0.8824 0.0
H577 H 0.99448 0.09021 0.8642 0.0
H578 H 0.96529 0.00743 0.80273 0.0
H579 H 0.96439 0.05963 0.81969 0.0
H580 H 0.28 0.99361 0.84251 0.0
H581 H 0.27452 0.04014 0.86807 0.0
H582 H 0.22562 0.93578 0.83847 0.0
H583 H 0.15859 0.91695 0.81506 0.0
C584 C 0.18567 0.04393 0.99846 0.0
C585 C 0.21626 0.08178 0.98494 0.0
C586 C 0.24653 0.10303 0.04403 0.0
C587 C 0.20499 0.07004 0.05703 0.0
N588 N 0.12823 0.01187 0.04605 0.0
N589 N 0.31285 0.1248 0.99615 0.0
C590 C 0.1716 0.04191 0.03397 0.0
C591 C 0.2571 0.10578 1.00805 0.0
N592 N 0.18448 0.00634 0.97988 0.0
N593 N 0.2767 0.13149 0.06604 0.0
H594 H 0.32851 0.1202 0.971 0.0
H595 H 0.34784 0.1393 1.01202 0.0
H596 H 0.27104 0.12989 0.09256 0.0
H597 H 0.30236 0.15883 0.05772 0.0
H598 H 0.16684 0.97699 0.98956 0.0
H599 H 0.21261 1.00291 0.95787 0.0
H600 H 0.0995 0.99263 0.02975 0.0
H601 H 0.117 0.00937 0.07205 0.0
C602 C 0.27899 0.41189 0.50685 0.0
C603 C 0.32227 0.42993 0.48216 0.0
C604 C 0.39352 0.45571 0.52835 0.0
C605 C 0.35579 0.43315 0.55293 0.0
N606 N 0.25921 0.39088 0.56587 0.0
N607 N 0.37828 0.49915 0.47871 0.0
C608 C 0.29746 0.41141 0.54229 0.0
C609 C 0.36894 0.46041 0.49481 0.0
N610 N 0.2165 0.40216 0.49727 0.0
N611 N 0.4523 0.47379 0.53696 0.0
H612 H 0.34672 0.50941 0.45939 0.0
H613 H 0.40876 0.52356 0.48859 0.0
H614 H 0.4734 0.47024 0.56116 0.0
H615 H 0.4821 0.48863 0.51876 0.0
H616 H 0.18028 0.39239 0.51418 0.0
H617 H 0.1986 0.40991 0.473 0.0
H618 H 0.2213 0.36971 0.55923 0.0
H619 H 0.26719 0.39318 0.5922 0.0
C620 C 0.77805 0.43566 0.03208 0.0
C621 C 0.75516 0.40009 0.05185 0.0
C622 C 0.72922 0.35946 0.99921 0.0
C623 C 0.74824 0.39599 0.97939 0.0
N624 N 0.77668 0.47215 0.97711 0.0
N625 N 0.69394 0.33289 0.05448 0.0
C626 C 0.76836 0.43516 0.9959 0.0
C627 C 0.72594 0.36348 0.03543 0.0
N628 N 0.81156 0.46901 0.04758 0.0
N629 N 0.71737 0.32025 0.98365 0.0
H630 H 0.6896 0.33514 0.08106 0.0
H631 H 0.6662 0.30777 0.04366 0.0
H632 H 0.7206 0.31549 0.95724 0.0
H633 H 0.7103 0.29151 0.99719 0.0
H634 H 0.83565 0.49337 0.03402 0.0
H635 H 0.81982 0.47054 0.07395 0.0
H636 H 0.78492 0.50262 0.9881 0.0
H637 H 0.76922 0.47309 0.95065 0.0
C638 C 0.78406 0.09974 0.52747 0.0
C639 C 0.81634 0.12666 0.55201 0.0
C640 C 0.854 0.175 0.5061 0.0
C641 C 0.82341 0.14736 0.48148 0.0
N642 N 0.77263 0.07848 0.46772 0.0
N643 N 0.89426 0.18371 0.56436 0.0
C644 C 0.79264 0.1081 0.4919 0.0
C645 C 0.85526 0.16236 0.54116 0.0
N646 N 0.74274 0.06747 0.53812 0.0
N647 N 0.8793 0.21424 0.49625 0.0
H648 H 0.89663 0.17502 0.59016 0.0
H649 H 0.9286 0.20721 0.55755 0.0
H650 H 0.87974 0.22458 0.47084 0.0
H651 H 0.89543 0.23797 0.51351 0.0
H652 H 0.71205 0.05011 0.52159 0.0
H653 H 0.73543 0.06006 0.56388 0.0
H654 H 0.75592 0.04737 0.47367 0.0
H655 H 0.77838 0.08355 0.44148 0.0
C656 C 0.77023 0.95162 0.04145 0.0
C657 C 0.80488 0.91649 0.05594 0.0
C658 C 0.82841 0.8893 0.99805 0.0
C659 C 0.79884 0.92651 0.98362 0.0
N660 N 0.75618 0.99839 0.99228 0.0
N661 N 0.88129 0.85848 0.04775 0.0
C662 C 0.77422 0.95933 1.00557 0.0
C663 C 0.8384 0.88732 0.03413 0.0
N664 N 0.73109 0.97648 0.06157 0.0
N665 N 0.84416 0.85482 0.97767 0.0
H666 H 0.89152 0.85691 0.07393 0.0
H667 H 0.91165 0.83941 0.03277 0.0
H668 H 0.83587 0.85417 0.9513 0.0
H669 H 0.85951 0.8252 0.98745 0.0
H670 H 0.69961 0.99959 0.05166 0.0
H671 H 0.72526 0.97121 0.08776 0.0
H672 H 0.74379 0.02491 1.00747 0.0
H673 H 0.76017 0.00571 0.96629 0.0
C674 C 0.71087 0.56834 0.53924 0.0
C675 C 0.67638 0.60014 0.55822 0.0
C676 C 0.61258 0.61847 0.50682 0.0
C677 C 0.64548 0.5857 0.48826 0.0
N678 N 0.7294 0.53445 0.48304 0.0
N679 N 0.60216 0.66006 0.55967 0.0
C680 C 0.69642 0.56236 0.50361 0.0
C681 C 0.62973 0.62677 0.54177 0.0
N682 N 0.75579 0.54337 0.55571 0.0
N683 N 0.56372 0.64073 0.49106 0.0
H684 H 0.61201 0.66614 0.58551 0.0
H685 H 0.57233 0.68334 0.54879 0.0
H686 H 0.55316 0.63734 0.46498 0.0
H687 H 0.53224 0.66153 0.50364 0.0
H688 H 0.77875 0.5168 0.54488 0.0
H689 H 0.76913 0.54841 0.58127 0.0
H690 H 0.76954 0.51641 0.49049 0.0
H691 H 0.76954 0.51641 0.49049 0.0
C692 C 0.4274 0.64413 0.974 0.0
C693 C 0.36072 0.63363 0.96846 0.0
C694 C 0.34046 0.64137 0.03018 0.0
C695 C 0.40799 0.64839 0.03607 0.0
N696 N 0.51751 0.64731 1.01434 0.0
N697 N 0.25708 0.61228 0.99214 0.0
C698 C 0.45203 0.64704 1.00816 0.0
C699 C 0.31821 0.62927 0.99684 0.0
N700 N 0.4667 0.65304 0.94672 0.0
N701 N 0.29707 0.64809 0.05603 0.0
H702 H 0.23938 0.6022 0.96826 0.0
H703 H 0.22639 0.60417 1.01234 0.0
H704 H 0.31104 0.65765 0.08069 0.0
H705 H 0.2469 0.64809 0.0522 0.0
H706 H 0.51383 0.66542 0.94933 0.0
H707 H 0.45042 0.65173 0.92137 0.0
H708 H 0.5519 0.64194 0.99534 0.0
H709 H 0.53732 0.64875 0.039 0.0
C710 C 0.18772 0.84002 0.4988 0.0
C711 C 0.21696 0.87567 0.48153 0.0
C712 C 0.23574 0.91226 0.53678 0.0
C713 C 0.21458 0.87433 0.55419 0.0
N714 N 0.17934 0.79928 0.55165 0.0
N715 N 0.28035 0.94211 0.4846 0.0
C716 C 0.19267 0.83742 0.53518 0.0
C717 C 0.24396 0.91094 0.50066 0.0
N718 N 0.15388 0.80915 0.48054 0.0
N719 N 0.24675 0.94991 0.55471 0.0
H720 H 0.28996 0.94133 0.45842 0.0
H721 H 0.30659 0.96614 0.49774 0.0
H722 H 0.24019 0.9523 0.58115 0.0
H723 H 0.25595 0.97965 0.54296 0.0
H724 H 0.1259 0.78486 0.49198 0.0
H725 H 0.1489 0.81014 0.45393 0.0
H726 H 0.17014 0.7701 0.53882 0.0
H727 H 0.18292 0.79585 0.57817 0.0
C728 C 0.16832 0.27961 0.33361 0.0
C729 C 0.21427 0.26773 0.35925 0.0
C730 C 0.18111 0.19152 0.35187 0.0
C731 C 0.13305 0.20372 0.32764 0.0
N732 N 0.06517 0.26119 0.30712 0.0
N733 N 0.24332 0.21405 0.40169 0.0
C734 C 0.12191 0.24836 0.32192 0.0
C735 C 0.21409 0.22422 0.37131 0.0
N736 N 0.16923 0.32027 0.31976 0.0
N737 N 0.1979 0.14908 0.3553 0.0
H738 H 0.26218 0.23748 0.41847 0.0
H739 H 0.24033 0.18312 0.41239 0.0
H740 H 0.17754 0.12458 0.34014 0.0
H741 H 0.23691 0.13911 0.37039 0.0
H742 H 0.14126 0.32839 0.2984 0.0
H743 H 0.20096 0.34492 0.32775 0.0
H744 H 0.05225 0.29368 0.30477 0.0
H745 H 0.02775 0.2392 0.30137 0.0
C746 C 0.38024 0.21628 0.8416 0.0
C747 C 0.3407 0.23092 0.86878 0.0
C748 C 0.35451 0.30519 0.8475 0.0
C749 C 0.40826 0.29199 0.8275 0.0
N750 N 0.47098 0.23229 0.80483 0.0
N751 N 0.28549 0.29052 0.89613 0.0
C752 C 0.42038 0.24669 0.82402 0.0
C753 C 0.32605 0.27574 0.87118 0.0
N754 N 0.37769 0.17369 0.83168 0.0
N755 N 0.32701 0.34453 0.84184 0.0
H756 H 0.25991 0.26996 0.91254 0.0
H757 H 0.27975 0.32347 0.90142 0.0
H758 H 0.34428 0.36564 0.82315 0.0
H759 H 0.28344 0.35403 0.85296 0.0
H760 H 0.40125 0.16204 0.80998 0.0
H761 H 0.34517 0.15137 0.84238 0.0
H762 H 0.48638 0.20016 0.80502 0.0
H763 H 0.49995 0.25268 0.79021 0.0
C764 C 0.67425 0.22223 0.72798 0.0
C765 C 0.7039 0.23514 0.69679 0.0
C766 C 0.66122 0.30811 0.70392 0.0
C767 C 0.62923 0.29554 0.73443 0.0
N768 N 0.62544 0.244 0.78137 0.0
N769 N 0.70541 0.28567 0.64968 0.0
C770 C 0.64098 0.25347 0.74821 0.0
C771 C 0.6913 0.27663 0.6831 0.0
N772 N 0.67513 0.17952 0.73746 0.0
N773 N 0.66949 0.35106 0.69681 0.0
H774 H 0.72297 0.26245 0.63264 0.0
H775 H 0.69173 0.31448 0.63785 0.0
H776 H 0.65527 0.37499 0.71401 0.0
H777 H 0.69856 0.36245 0.67689 0.0
H778 H 0.64752 0.16692 0.75746 0.0
H779 H 0.69765 0.15546 0.72307 0.0
H780 H 0.63962 0.2157 0.79369 0.0
H781 H 0.60544 0.26597 0.79839 0.0
C782 C 0.85084 0.22155 0.18065 0.0
C783 C 0.8834 0.26004 0.16941 0.0
C784 C 0.97543 0.24164 0.20671 0.0
C785 C 0.94765 0.20009 0.21289 0.0
N786 N 0.86403 0.14719 0.19892 0.0
N787 N 0.98572 0.30011 0.16624 0.0
C788 C 0.88719 0.18887 0.19748 0.0
C789 C 0.94827 0.26833 0.18092 0.0
N790 N 0.78505 0.21662 0.17701 0.0
N791 N 0.02785 0.25591 0.22526 0.0
H792 H 0.9701 0.31952 0.14611 0.0
H793 H 0.03514 0.30403 0.17169 0.0
H794 H 0.05073 0.23666 0.24335 0.0
H795 H 0.04535 0.28781 0.22427 0.0
H796 H 0.75946 0.19004 0.18678 0.0
H797 H 0.75459 0.24143 0.16911 0.0
H798 H 0.82302 0.13659 0.1853 0.0
H799 H 0.88903 0.12246 0.21118 0.0
C800 C 0.86341 0.74241 0.677 0.0
C801 C 0.79475 0.74615 0.68001 0.0
C802 C 0.81281 0.81488 0.71128 0.0
C803 C 0.87963 0.80503 0.71546 0.0
N804 N 0.96778 0.75587 0.70412 0.0
N805 N 0.70384 0.78991 0.69838 0.0
C806 C 0.90478 0.76773 0.69886 0.0
C807 C 0.76944 0.78349 0.69679 0.0
N808 N 0.88964 0.71764 0.6516 0.0
N809 N 0.79147 0.85571 0.71833 0.0
H810 H 0.66973 0.77229 0.68399 0.0
H811 H 0.68308 0.81244 0.71494 0.0
H812 H 0.82225 0.88033 0.72724 0.0
H813 H 0.74537 0.86661 0.71165 0.0
H814 H 0.93949 0.71648 0.64708 0.0
H815 H 0.86171 0.70399 0.63186 0.0
H816 H 0.98614 0.72651 0.69521 0.0
H817 H -0.0001 0.77329 0.71986 0.0
C818 C 0.65627 0.78334 0.21618 0.0
C819 C 0.67089 0.78112 0.18076 0.0
C820 C 0.63756 0.70391 0.18039 0.0
C821 C 0.61448 0.70848 0.21448 0.0
N822 N 0.58852 0.75589 0.26161 0.0
N823 N 0.67918 0.7385 0.12894 0.0
C824 C 0.62012 0.74912 0.23147 0.0
C825 C 0.66325 0.74094 0.16287 0.0
N826 N 0.67876 0.81742 0.2356 0.0
N827 N 0.63425 0.66422 0.16467 0.0
H828 H 0.70389 0.76328 0.11615 0.0
H829 H 0.6666 0.71249 0.11303 0.0
H830 H 0.61044 0.63768 0.17549 0.0
H831 H 0.6569 0.6569 0.14162 0.0
H832 H 0.6731 0.81899 0.2621 0.0
H833 H 0.71012 0.84124 0.226 0.0
H834 H 0.58449 0.78647 0.27291 0.0
H835 H 0.56151 0.73165 0.27366 0.0
C836 C 0.35019 0.76136 0.3087 0.0
C837 C 0.33682 0.75625 0.34412 0.0
C838 C 0.40814 0.69346 0.3464 0.0
C839 C 0.42308 0.69818 0.31079 0.0
N840 N 0.42247 0.74638 0.26165 0.0
N841 N 0.376 0.73002 0.39844 0.0
C842 C 0.39802 0.73486 0.29287 0.0
C843 C 0.37342 0.72651 0.36352 0.0
N844 N 0.3178 0.79181 0.29005 0.0
N845 N 0.42288 0.65654 0.36397 0.0
H846 H 0.35339 0.75492 0.41192 0.0
H847 H 0.40723 0.7116 0.4135 0.0
H848 H 0.44459 0.62959 0.35325 0.0
H849 H 0.4062 0.65047 0.3887 0.0
H850 H 0.31742 0.79228 0.26335 0.0
H851 H 0.28962 0.81595 0.30115 0.0
H852 H 0.41129 0.77534 0.24939 0.0
H853 H 0.45945 0.7299 0.24939 0.0
C854 C 0.13039 0.72718 0.81842 0.0
C855 C 0.17491 0.73917 0.84489 0.0
C856 C 0.12563 0.81086 0.84921 0.0
C857 C 0.08461 0.8004 0.82068 0.0
N858 N 0.03016 0.74387 0.78833 0.0
N859 N 0.19312 0.78348 0.89516 0.0
C860 C 0.08152 0.75697 0.80837 0.0
C861 C 0.16548 0.77816 0.86345 0.0
N862 N 0.13501 0.6876 0.80271 0.0
N863 N 0.12948 0.8522 0.86192 0.0
H864 H 0.2197 0.75916 0.90714 0.0
H865 H 0.18298 0.8096 0.91126 0.0
H866 H 0.09925 0.87712 0.85436 0.0
H867 H 0.16575 0.86248 0.87897 0.0
H868 H 0.11013 0.67944 0.78023 0.0
H869 H 0.16523 0.66313 0.81165 0.0
H870 H 0.02193 0.71183 0.78069 0.0
H871 H 0.99161 0.76435 0.78256 0.0
loop_
_geom_bond_atom_site_label_1
_geom_bond_atom_site_label_2
_geom_bond_distance
_geom_bond_site_symmetry_2
_ccdc_geom_bond_type
H0 C7 0.929 . S
H1 C10 0.930 . S
H2 C12 0.929 . S
H3 C4 0.969 . S
C4 H3 0.969 . S
C4 O5 1.550 . S
C4 H6 0.973 . S
O5 C4 1.550 . S
O5 C11 1.412 . S
H6 C4 0.973 . S
C7 H0 0.929 . S
C7 C8 1.400 . S
C7 C9 1.364 . S
C8 C7 1.400 . S
C8 C12 1.377 . S
C9 C7 1.364 . S
C9 C10 1.374 . S
C10 H1 0.930 . S
C10 C9 1.374 . S
C10 C11 1.383 . S
C11 O5 1.412 . S
C11 C10 1.383 . S
C11 C12 1.394 . S
C12 H2 0.929 . S
C12 C8 1.377 . S
C12 C11 1.394 . S
H13 C20 0.929 . S
H14 C23 0.930 . S
H15 C25 0.929 . S
H16 C17 0.969 . S
C17 H16 0.969 . S
C17 O18 1.550 . S
C17 H19 0.973 . S
O18 C17 1.550 . S
O18 C24 1.412 . S
H19 C17 0.973 . S
C20 H13 0.929 . S
C20 C21 1.400 . S
C20 C22 1.364 . S
C21 C20 1.400 . S
C21 C25 1.377 . S
C22 C20 1.364 . S
C22 C23 1.374 . S
C23 H14 0.930 . S
C23 C22 1.374 . S
C23 C24 1.383 . S
C24 O18 1.412 . S
C24 C23 1.383 . S
C24 C25 1.394 . S
C25 H15 0.929 . S
C25 C21 1.377 . S
C25 C24 1.394 . S
H26 C33 0.929 . S
H27 C36 0.930 . S
H28 C38 0.929 . S
H29 C30 0.969 . S
C30 H29 0.969 . S
C30 O31 1.550 . S
C30 H32 0.973 . S
O31 C30 1.550 . S
O31 C37 1.412 . S
H32 C30 0.973 . S
C33 H26 0.929 . S
C33 C34 1.400 . S
C33 C35 1.364 . S
C34 C33 1.400 . S
C34 C38 1.377 . S
C35 C33 1.364 . S
C35 C36 1.374 . S
C36 H27 0.930 . S
C36 C35 1.374 . S
C36 C37 1.383 . S
C37 O31 1.412 . S
C37 C36 1.383 . S
C37 C38 1.394 . S
C38 H28 0.929 . S
C38 C34 1.377 . S
C38 C37 1.394 . S
H39 C46 0.929 . S
H40 C49 0.930 . S
H41 C51 0.929 . S
H42 C43 0.969 . S
C43 H42 0.969 . S
C43 O44 1.550 . S
C43 H45 0.973 . S
O44 C43 1.550 . S
O44 C50 1.412 . S
H45 C43 0.973 . S
C46 H39 0.929 . S
C46 C47 1.400 . S
C46 C48 1.364 . S
C47 C46 1.400 . S
C47 C51 1.377 . S
C48 C46 1.364 . S
C48 C49 1.374 . S
C49 H40 0.930 . S
C49 C48 1.374 . S
C49 C50 1.383 . S
C50 O44 1.412 . S
C50 C49 1.383 . S
C50 C51 1.394 . S
C51 H41 0.929 . S
C51 C47 1.377 . S
C51 C50 1.394 . S
H52 C59 0.929 . S
H53 C62 0.930 . S
H54 C64 0.929 . S
H55 C56 0.969 . S
C56 H55 0.969 . S
C56 O57 1.550 . S
C56 H58 0.973 . S
O57 C56 1.550 . S
O57 C63 1.412 . S
H58 C56 0.973 . S
C59 H52 0.929 . S
C59 C60 1.400 . S
C59 C61 1.364 . S
C60 C59 1.400 . S
C60 C64 1.377 . S
C61 C59 1.364 . S
C61 C62 1.374 . S
C62 H53 0.930 . S
C62 C61 1.374 . S
C62 C63 1.383 . S
C63 O57 1.412 . S
C63 C62 1.383 . S
C63 C64 1.394 . S
C64 H54 0.929 . S
C64 C60 1.377 . S
C64 C63 1.394 . S
H65 C72 0.929 . S
H66 C75 0.930 . S
H67 C77 0.929 . S
H68 C69 0.969 . S
C69 H68 0.969 . S
C69 O70 1.550 . S
C69 H71 0.973 . S
O70 C69 1.550 . S
O70 C76 1.412 . S
H71 C69 0.973 . S
C72 H65 0.929 . S
C72 C73 1.400 . S
C72 C74 1.364 . S
C73 C72 1.400 . S
C73 C77 1.377 . S
C74 C72 1.364 . S
C74 C75 1.374 . S
C75 H66 0.930 . S
C75 C74 1.374 . S
C75 C76 1.383 . S
C76 O70 1.412 . S
C76 C75 1.383 . S
C76 C77 1.394 . S
C77 H67 0.929 . S
C77 C73 1.377 . S
C77 C76 1.394 . S
H78 C85 0.929 . S
H79 C88 0.930 . S
H80 C90 0.929 . S
H81 C82 0.969 . S
C82 H81 0.969 . S
C82 O83 1.550 . S
C82 H84 0.973 . S
O83 C82 1.550 . S
O83 C89 1.412 . S
H84 C82 0.973 . S
C85 H78 0.929 . S
C85 C86 1.400 . S
C85 C87 1.364 . S
C86 C85 1.400 . S
C86 C90 1.377 . S
C87 C85 1.364 . S
C87 C88 1.374 . S
C88 H79 0.930 . S
C88 C87 1.374 . S
C88 C89 1.383 . S
C89 O83 1.412 . S
C89 C88 1.383 . S
C89 C90 1.394 . S
C90 H80 0.929 . S
C90 C86 1.377 . S
C90 C89 1.394 . S
H91 C98 0.929 . S
H92 C101 0.930 . S
H93 C103 0.929 . S
H94 C95 0.969 . S
C95 H94 0.969 . S
C95 O96 1.550 . S
C95 H97 0.973 . S
O96 C95 1.550 . S
O96 C102 1.412 . S
H97 C95 0.973 . S
C98 H91 0.929 . S
C98 C99 1.400 . S
C98 C100 1.364 . S
C99 C98 1.400 . S
C99 C103 1.377 . S
C100 C98 1.364 . S
C100 C101 1.374 . S
C101 H92 0.930 . S
C101 C100 1.374 . S
C101 C102 1.383 . S
C102 O96 1.412 . S
C102 C101 1.383 . S
C102 C103 1.394 . S
C103 H93 0.929 . S
C103 C99 1.377 . S
C103 C102 1.394 . S
C104 C106 1.422 . S
C104 C108 1.415 . S
C104 N110 1.369 . S
C105 C106 1.421 1_565 S
C105 C107 1.417 . S
C105 C117 1.422 . S
C106 C104 1.422 . S
C106 C105 1.421 1_545 S
C106 N116 1.359 . S
C107 C105 1.417 . S
C107 C109 1.329 1_565 S
C107 H126 0.930 . S
C108 C104 1.415 . S
C108 C109 1.437 . S
C108 C112 1.413 . S
C109 C107 1.329 1_545 S
C109 C108 1.437 . S
C109 H131 0.929 . S
N110 C104 1.369 . S
N110 C111 1.338 . S
N110 Gd115 2.622 . S
C111 N110 1.338 . S
C111 C113 1.378 . S
C111 H123 0.929 . S
C112 C108 1.413 . S
C112 C113 1.348 . S
C112 H128 0.931 . S
C113 C111 1.378 . S
C113 C112 1.348 . S
C113 H129 0.930 . S
Gd114 N134 2.622 . S
Gd114 N141 2.570 . S
Gd114 O148 2.353 . S
Gd114 O149 2.468 . S
Gd114 O150 2.427 . S
Gd114 O152 2.388 . S
Gd114 O153 2.386 . S
Gd114 O157 2.307 . S
Gd114 C167 2.805 . S
Gd115 N110 2.622 . S
Gd115 N116 2.570 . S
Gd115 O147 2.386 . S
Gd115 O151 2.307 1_655 S
Gd115 O154 2.353 1_655 S
Gd115 O155 2.468 . S
Gd115 O156 2.427 . S
Gd115 O158 2.388 . S
Gd115 C179 2.805 . S
N116 C106 1.359 . S
N116 Gd115 2.570 . S
N116 C118 1.343 1_545 S
C117 C105 1.422 . S
C117 C119 1.321 . S
C117 H125 0.931 . S
C118 N116 1.343 1_565 S
C118 C119 1.390 . S
C118 H120 0.931 . S
C119 C117 1.321 . S
C119 C118 1.390 . S
C119 H121 0.930 . S
H120 C118 0.931 . S
H121 C119 0.930 . S
H122 C145 0.931 . S
H123 C111 0.929 . S
H124 C146 0.930 . S
H125 C117 0.931 . S
H126 C107 0.930 . S
H127 C136 0.929 . S
H128 C112 0.931 . S
H129 C113 0.930 . S
H130 C168 0.930 . S
H131 C109 0.929 . S
H132 C137 0.931 . S
H133 C138 0.930 . S
N134 Gd114 2.622 . S
N134 C135 1.369 . S
N134 C136 1.338 . S
C135 N134 1.369 . S
C135 C139 1.415 . S
C135 C142 1.422 . S
C136 H127 0.929 . S
C136 N134 1.338 . S
C136 C138 1.378 . S
C137 H132 0.931 . S
C137 C138 1.348 . S
C137 C139 1.413 . S
C138 H133 0.930 . S
C138 C136 1.378 . S
C138 C137 1.348 . S
C139 C135 1.415 . S
C139 C137 1.413 . S
C139 C169 1.437 . S
H140 C169 0.929 . S
N141 Gd114 2.570 . S
N141 C142 1.359 . S
N141 C145 1.343 . S
C142 C135 1.422 . S
C142 N141 1.359 . S
C142 C144 1.421 . S
C143 C144 1.422 . S
C143 C146 1.321 . S
C143 H170 0.931 . S
C144 C142 1.421 . S
C144 C143 1.422 . S
C144 C168 1.417 . S
C145 H122 0.931 . S
C145 N141 1.343 . S
C145 C146 1.390 . S
C146 H124 0.930 . S
C146 C143 1.321 . S
C146 C145 1.390 . S
O147 Gd115 2.386 . S
O147 C159 1.265 . S
O148 Gd114 2.353 . S
O148 C159 1.242 1_455 S
O149 Gd114 2.468 . S
O149 C167 1.263 . S
O150 Gd114 2.427 . S
O150 C167 1.252 . S
O151 Gd115 2.307 1_455 S
O151 C160 1.261 . S
O152 Gd114 2.388 . S
O152 C160 1.252 . S
O153 Gd114 2.386 . S
O153 C171 1.265 . S
O154 Gd115 2.353 1_455 S
O154 C171 1.242 . S
O155 Gd115 2.468 . S
O155 C179 1.263 . S
O156 Gd115 2.427 . S
O156 C179 1.252 . S
O157 Gd114 2.307 . S
O157 C172 1.261 1_455 S
O158 Gd115 2.388 . S
O158 C172 1.252 . S
C159 O147 1.265 . S
C159 O148 1.242 1_655 S
C160 O151 1.261 . S
C160 O152 1.252 . S
C161 C164 1.394 . S
C161 C166 1.370 . S
C161 C167 1.500 . S
C162 C165 1.383 . S
C162 C166 1.395 . S
C163 C164 1.396 . S
C163 C165 1.365 . S
C163 H180 0.929 . S
C164 C161 1.394 . S
C164 C163 1.396 . S
C164 H181 0.930 . S
C165 C162 1.383 . S
C165 C163 1.365 . S
C165 H182 0.931 . S
C166 C161 1.370 . S
C166 C162 1.395 . S
C166 H183 0.930 . S
C167 Gd114 2.805 . S
C167 O149 1.263 . S
C167 O150 1.252 . S
C167 C161 1.500 . S
C168 H130 0.930 . S
C168 C144 1.417 . S
C168 C169 1.329 . S
C169 C139 1.437 . S
C169 H140 0.929 . S
C169 C168 1.329 . S
H170 C143 0.931 . S
C171 O153 1.265 . S
C171 O154 1.242 . S
C172 O157 1.261 1_655 S
C172 O158 1.252 . S
C173 C176 1.394 . S
C173 C178 1.370 . S
C173 C179 1.500 . S
C174 C177 1.383 . S
C174 C178 1.395 . S
C175 C176 1.396 . S
C175 C177 1.365 . S
C175 H184 0.929 . S
C176 C173 1.394 . S
C176 C175 1.396 . S
C176 H185 0.930 . S
C177 C174 1.383 . S
C177 C175 1.365 . S
C177 H186 0.931 . S
C178 C173 1.370 . S
C178 C174 1.395 . S
C178 H187 0.930 . S
C179 Gd115 2.805 . S
C179 O155 1.263 . S
C179 O156 1.252 . S
C179 C173 1.500 . S
H180 C163 0.929 . S
H181 C164 0.930 . S
H182 C165 0.931 . S
H183 C166 0.930 . S
H184 C175 0.929 . S
H185 C176 0.930 . S
H186 C177 0.931 . S
H187 C178 0.930 . S
C188 C190 1.422 . S
C188 C192 1.415 . S
C188 N194 1.369 . S
C189 C190 1.421 . S
C189 C191 1.417 . S
C189 C201 1.422 . S
C190 C188 1.422 . S
C190 C189 1.421 . S
C190 N200 1.359 . S
C191 C189 1.417 . S
C191 C193 1.329 . S
C191 H210 0.930 . S
C192 C188 1.415 . S
C192 C193 1.437 . S
C192 C196 1.413 . S
C193 C191 1.329 . S
C193 C192 1.437 . S
C193 H215 0.929 . S
N194 C188 1.369 . S
N194 C195 1.338 . S
N194 Gd199 2.622 . S
C195 N194 1.338 . S
C195 C197 1.378 . S
C195 H207 0.929 . S
C196 C192 1.413 . S
C196 C197 1.348 . S
C196 H212 0.931 . S
C197 C195 1.378 . S
C197 C196 1.348 . S
C197 H213 0.930 . S
Gd198 N218 2.622 . S
Gd198 N225 2.570 . S
Gd198 O232 2.353 . S
Gd198 O233 2.468 . S
Gd198 O234 2.427 . S
Gd198 O236 2.388 . S
Gd198 O237 2.386 . S
Gd198 O241 2.307 . S
Gd198 C251 2.805 . S
Gd199 N194 2.622 . S
Gd199 N200 2.570 . S
Gd199 O231 2.386 . S
Gd199 O235 2.307 . S
Gd199 O238 2.353 . S
Gd199 O239 2.468 . S
Gd199 O240 2.427 . S
Gd199 O242 2.388 . S
Gd199 C263 2.805 . S
N200 C190 1.359 . S
N200 Gd199 2.570 . S
N200 C202 1.343 . S
C201 C189 1.422 . S
C201 C203 1.321 . S
C201 H209 0.931 . S
C202 N200 1.343 . S
C202 C203 1.390 . S
C202 H204 0.931 . S
C203 C201 1.321 . S
C203 C202 1.390 . S
C203 H205 0.930 . S
H204 C202 0.931 . S
H205 C203 0.930 . S
H206 C229 0.931 . S
H207 C195 0.929 . S
H208 C230 0.930 . S
H209 C201 0.931 . S
H210 C191 0.930 . S
H211 C220 0.929 . S
H212 C196 0.931 . S
H213 C197 0.930 . S
H214 C252 0.930 . S
H215 C193 0.929 . S
H216 C221 0.931 . S
H217 C222 0.930 . S
N218 Gd198 2.622 . S
N218 C219 1.369 . S
N218 C220 1.338 . S
C219 N218 1.369 . S
C219 C223 1.415 . S
C219 C226 1.422 . S
C220 H211 0.929 . S
C220 N218 1.338 . S
C220 C222 1.378 . S
C221 H216 0.931 . S
C221 C222 1.348 . S
C221 C223 1.413 . S
C222 H217 0.930 . S
C222 C220 1.378 . S
C222 C221 1.348 . S
C223 C219 1.415 . S
C223 C221 1.413 . S
C223 C253 1.437 . S
H224 C253 0.929 . S
N225 Gd198 2.570 . S
N225 C226 1.359 . S
N225 C229 1.343 . S
C226 C219 1.422 . S
C226 N225 1.359 . S
C226 C228 1.421 . S
C227 C228 1.422 . S
C227 C230 1.321 . S
C227 H254 0.931 . S
C228 C226 1.421 . S
C228 C227 1.422 . S
C228 C252 1.417 . S
C229 H206 0.931 . S
C229 N225 1.343 . S
C229 C230 1.390 . S
C230 H208 0.930 . S
C230 C227 1.321 . S
C230 C229 1.390 . S
O231 Gd199 2.386 . S
O231 C243 1.265 . S
O232 Gd198 2.353 . S
O232 C243 1.242 . S
O233 Gd198 2.468 . S
O233 C251 1.263 . S
O234 Gd198 2.427 . S
O234 C251 1.252 . S
O235 Gd199 2.307 . S
O235 C244 1.261 . S
O236 Gd198 2.388 . S
O236 C244 1.252 . S
O237 Gd198 2.386 . S
O237 C255 1.265 . S
O238 Gd199 2.353 . S
O238 C255 1.242 . S
O239 Gd199 2.468 . S
O239 C263 1.263 . S
O240 Gd199 2.427 . S
O240 C263 1.252 . S
O241 Gd198 2.307 . S
O241 C256 1.261 . S
O242 Gd199 2.388 . S
O242 C256 1.252 . S
C243 O231 1.265 . S
C243 O232 1.242 . S
C244 O235 1.261 . S
C244 O236 1.252 . S
C245 C248 1.394 . S
C245 C250 1.370 . S
C245 C251 1.500 . S
C246 C249 1.383 . S
C246 C250 1.395 . S
C247 C248 1.396 . S
C247 C249 1.365 . S
C247 H264 0.929 . S
C248 C245 1.394 . S
C248 C247 1.396 . S
C248 H265 0.930 . S
C249 C246 1.383 . S
C249 C247 1.365 . S
C249 H266 0.931 . S
C250 C245 1.370 . S
C250 C246 1.395 . S
C250 H267 0.930 . S
C251 Gd198 2.805 . S
C251 O233 1.263 . S
C251 O234 1.252 . S
C251 C245 1.500 . S
C252 H214 0.930 . S
C252 C228 1.417 . S
C252 C253 1.329 . S
C253 C223 1.437 . S
C253 H224 0.929 . S
C253 C252 1.329 . S
H254 C227 0.931 . S
C255 O237 1.265 . S
C255 O238 1.242 . S
C256 O241 1.261 . S
C256 O242 1.252 . S
C257 C260 1.394 . S
C257 C262 1.370 . S
C257 C263 1.500 . S
C258 C261 1.383 . S
C258 C262 1.395 . S
C259 C260 1.396 . S
C259 C261 1.365 . S
C259 H268 0.929 . S
C260 C257 1.394 . S
C260 C259 1.396 . S
C260 H269 0.930 . S
C261 C258 1.383 . S
C261 C259 1.365 . S
C261 H270 0.931 . S
C262 C257 1.370 . S
C262 C258 1.395 . S
C262 H271 0.930 . S
C263 Gd199 2.805 . S
C263 O239 1.263 . S
C263 O240 1.252 . S
C263 C257 1.500 . S
H264 C247 0.929 . S
H265 C248 0.930 . S
H266 C249 0.931 . S
H267 C250 0.930 . S
H268 C259 0.929 . S
H269 C260 0.930 . S
H270 C261 0.931 . S
H271 C262 0.930 . S
C272 C274 1.422 . S
C272 C276 1.415 . S
C272 N278 1.369 . S
C273 C274 1.421 . S
C273 C275 1.417 . S
C273 C285 1.422 . S
C274 C272 1.422 . S
C274 C273 1.421 . S
C274 N284 1.359 . S
C275 C273 1.417 . S
C275 C277 1.329 . S
C275 H294 0.930 . S
C276 C272 1.415 . S
C276 C277 1.437 . S
C276 C280 1.413 . S
C277 C275 1.329 . S
C277 C276 1.437 . S
C277 H299 0.929 . S
N278 C272 1.369 . S
N278 C279 1.338 . S
N278 Gd283 2.622 . S
C279 N278 1.338 . S
C279 C281 1.378 . S
C279 H291 0.929 . S
C280 C276 1.413 . S
C280 C281 1.348 . S
C280 H296 0.931 . S
C281 C279 1.378 . S
C281 C280 1.348 . S
C281 H297 0.930 . S
Gd282 N302 2.622 . S
Gd282 N309 2.570 . S
Gd282 O316 2.353 . S
Gd282 O317 2.468 . S
Gd282 O318 2.427 . S
Gd282 O320 2.388 . S
Gd282 O321 2.386 . S
Gd282 O325 2.307 . S
Gd282 C335 2.805 . S
Gd283 N278 2.622 . S
Gd283 N284 2.570 . S
Gd283 O315 2.386 . S
Gd283 O319 2.307 1_655 S
Gd283 O322 2.353 1_655 S
Gd283 O323 2.468 . S
Gd283 O324 2.427 . S
Gd283 O326 2.388 . S
Gd283 C347 2.805 . S
N284 C274 1.359 . S
N284 Gd283 2.570 . S
N284 C286 1.343 . S
C285 C273 1.422 . S
C285 C287 1.321 . S
C285 H293 0.931 . S
C286 N284 1.343 . S
C286 C287 1.390 . S
C286 H288 0.931 . S
C287 C285 1.321 . S
C287 C286 1.390 . S
C287 H289 0.930 . S
H288 C286 0.931 . S
H289 C287 0.930 . S
H290 C313 0.931 . S
H291 C279 0.929 . S
H292 C314 0.930 . S
H293 C285 0.931 . S
H294 C275 0.930 . S
H295 C304 0.929 . S
H296 C280 0.931 . S
H297 C281 0.930 . S
H298 C336 0.930 . S
H299 C277 0.929 . S
H300 C305 0.931 . S
H301 C306 0.930 . S
N302 Gd282 2.622 . S
N302 C303 1.369 . S
N302 C304 1.338 . S
C303 N302 1.369 . S
C303 C307 1.415 . S
C303 C310 1.422 . S
C304 H295 0.929 . S
C304 N302 1.338 . S
C304 C306 1.378 . S
C305 H300 0.931 . S
C305 C306 1.348 . S
C305 C307 1.413 . S
C306 H301 0.930 . S
C306 C304 1.378 . S
C306 C305 1.348 . S
C307 C303 1.415 . S
C307 C305 1.413 . S
C307 C337 1.437 . S
H308 C337 0.929 . S
N309 Gd282 2.570 . S
N309 C310 1.359 . S
N309 C313 1.343 1_565 S
C310 C303 1.422 . S
C310 N309 1.359 . S
C310 C312 1.421 1_565 S
C311 C312 1.422 . S
C311 C314 1.321 . S
C311 H338 0.931 . S
C312 C310 1.421 1_545 S
C312 C311 1.422 . S
C312 C336 1.417 . S
C313 H290 0.931 . S
C313 N309 1.343 1_545 S
C313 C314 1.390 . S
C314 H292 0.930 . S
C314 C311 1.321 . S
C314 C313 1.390 . S
O315 Gd283 2.386 . S
O315 C327 1.265 . S
O316 Gd282 2.353 . S
O316 C327 1.242 1_455 S
O317 Gd282 2.468 . S
O317 C335 1.263 . S
O318 Gd282 2.427 . S
O318 C335 1.252 . S
O319 Gd283 2.307 1_455 S
O319 C328 1.261 . S
O320 Gd282 2.388 . S
O320 C328 1.252 . S
O321 Gd282 2.386 . S
O321 C339 1.265 . S
O322 Gd283 2.353 1_455 S
O322 C339 1.242 . S
O323 Gd283 2.468 . S
O323 C347 1.263 . S
O324 Gd283 2.427 . S
O324 C347 1.252 . S
O325 Gd282 2.307 . S
O325 C340 1.261 1_455 S
O326 Gd283 2.388 . S
O326 C340 1.252 . S
C327 O315 1.265 . S
C327 O316 1.242 1_655 S
C328 O319 1.261 . S
C328 O320 1.252 . S
C329 C332 1.394 . S
C329 C334 1.370 . S
C329 C335 1.500 . S
C330 C333 1.383 . S
C330 C334 1.395 . S
C331 C332 1.396 . S
C331 C333 1.365 . S
C331 H348 0.929 . S
C332 C329 1.394 . S
C332 C331 1.396 . S
C332 H349 0.930 . S
C333 C330 1.383 . S
C333 C331 1.365 . S
C333 H350 0.931 . S
C334 C329 1.370 . S
C334 C330 1.395 . S
C334 H351 0.930 . S
C335 Gd282 2.805 . S
C335 O317 1.263 . S
C335 O318 1.252 . S
C335 C329 1.500 . S
C336 H298 0.930 . S
C336 C312 1.417 . S
C336 C337 1.329 1_545 S
C337 C307 1.437 . S
C337 H308 0.929 . S
C337 C336 1.329 1_565 S
H338 C311 0.931 . S
C339 O321 1.265 . S
C339 O322 1.242 . S
C340 O325 1.261 1_655 S
C340 O326 1.252 . S
C341 C344 1.394 . S
C341 C346 1.370 . S
C341 C347 1.500 . S
C342 C345 1.383 . S
C342 C346 1.395 . S
C343 C344 1.396 . S
C343 C345 1.365 . S
C343 H352 0.929 . S
C344 C341 1.394 . S
C344 C343 1.396 . S
C344 H353 0.930 . S
C345 C342 1.383 . S
C345 C343 1.365 . S
C345 H354 0.931 . S
C346 C341 1.370 . S
C346 C342 1.395 . S
C346 H355 0.930 . S
C347 Gd283 2.805 . S
C347 O323 1.263 . S
C347 O324 1.252 . S
C347 C341 1.500 . S
H348 C331 0.929 . S
H349 C332 0.930 . S
H350 C333 0.931 . S
H351 C334 0.930 . S
H352 C343 0.929 . S
H353 C344 0.930 . S
H354 C345 0.931 . S
H355 C346 0.930 . S
C356 C358 1.422 . S
C356 C360 1.415 . S
C356 N362 1.369 . S
C357 C358 1.421 . S
C357 C359 1.417 . S
C357 C369 1.422 . S
C358 C356 1.422 . S
C358 C357 1.421 . S
C358 N368 1.359 . S
C359 C357 1.417 . S
C359 C361 1.329 . S
C359 H378 0.930 . S
C360 C356 1.415 . S
C360 C361 1.437 . S
C360 C364 1.413 . S
C361 C359 1.329 . S
C361 C360 1.437 . S
C361 H383 0.929 . S
N362 C356 1.369 . S
N362 C363 1.338 . S
N362 Gd367 2.622 . S
C363 N362 1.338 . S
C363 C365 1.378 . S
C363 H375 0.929 . S
C364 C360 1.413 . S
C364 C365 1.348 . S
C364 H380 0.931 . S
C365 C363 1.378 . S
C365 C364 1.348 . S
C365 H381 0.930 . S
Gd366 N386 2.622 . S
Gd366 N393 2.570 . S
Gd366 O400 2.353 . S
Gd366 O401 2.468 . S
Gd366 O402 2.427 . S
Gd366 O404 2.388 . S
Gd366 O405 2.386 . S
Gd366 O409 2.307 . S
Gd366 C419 2.805 . S
Gd367 N362 2.622 . S
Gd367 N368 2.570 . S
Gd367 O399 2.386 . S
Gd367 O403 2.307 . S
Gd367 O406 2.353 . S
Gd367 O407 2.468 . S
Gd367 O408 2.427 . S
Gd367 O410 2.388 . S
Gd367 C431 2.805 . S
N368 C358 1.359 . S
N368 Gd367 2.570 . S
N368 C370 1.343 . S
C369 C357 1.422 . S
C369 C371 1.321 . S
C369 H377 0.931 . S
C370 N368 1.343 . S
C370 C371 1.390 . S
C370 H372 0.931 . S
C371 C369 1.321 . S
C371 C370 1.390 . S
C371 H373 0.930 . S
H372 C370 0.931 . S
H373 C371 0.930 . S
H374 C397 0.931 . S
H375 C363 0.929 . S
H376 C398 0.930 . S
H377 C369 0.931 . S
H378 C359 0.930 . S
H379 C388 0.929 . S
H380 C364 0.931 . S
H381 C365 0.930 . S
H382 C420 0.930 . S
H383 C361 0.929 . S
H384 C389 0.931 . S
H385 C390 0.930 . S
N386 Gd366 2.622 . S
N386 C387 1.369 . S
N386 C388 1.338 . S
C387 N386 1.369 . S
C387 C391 1.415 . S
C387 C394 1.422 . S
C388 H379 0.929 . S
C388 N386 1.338 . S
C388 C390 1.378 . S
C389 H384 0.931 . S
C389 C390 1.348 . S
C389 C391 1.413 . S
C390 H385 0.930 . S
C390 C388 1.378 . S
C390 C389 1.348 . S
C391 C387 1.415 . S
C391 C389 1.413 . S
C391 C421 1.437 . S
H392 C421 0.929 . S
N393 Gd366 2.570 . S
N393 C394 1.359 . S
N393 C397 1.343 . S
C394 C387 1.422 . S
C394 N393 1.359 . S
C394 C396 1.421 . S
C395 C396 1.422 . S
C395 C398 1.321 . S
C395 H422 0.931 . S
C396 C394 1.421 . S
C396 C395 1.422 . S
C396 C420 1.417 . S
C397 H374 0.931 . S
C397 N393 1.343 . S
C397 C398 1.390 . S
C398 H376 0.930 . S
C398 C395 1.321 . S
C398 C397 1.390 . S
O399 Gd367 2.386 . S
O399 C411 1.265 . S
O400 Gd366 2.353 . S
O400 C411 1.242 . S
O401 Gd366 2.468 . S
O401 C419 1.263 . S
O402 Gd366 2.427 . S
O402 C419 1.252 . S
O403 Gd367 2.307 . S
O403 C412 1.261 . S
O404 Gd366 2.388 . S
O404 C412 1.252 . S
O405 Gd366 2.386 . S
O405 C423 1.265 . S
O406 Gd367 2.353 . S
O406 C423 1.242 . S
O407 Gd367 2.468 . S
O407 C431 1.263 . S
O408 Gd367 2.427 . S
O408 C431 1.252 . S
O409 Gd366 2.307 . S
O409 C424 1.261 . S
O410 Gd367 2.388 . S
O410 C424 1.252 . S
C411 O399 1.265 . S
C411 O400 1.242 . S
C412 O403 1.261 . S
C412 O404 1.252 . S
C413 C416 1.394 . S
C413 C418 1.370 . S
C413 C419 1.500 . S
C414 C417 1.383 . S
C414 C418 1.395 . S
C415 C416 1.396 . S
C415 C417 1.365 . S
C415 H432 0.929 . S
C416 C413 1.394 . S
C416 C415 1.396 . S
C416 H433 0.930 . S
C417 C414 1.383 . S
C417 C415 1.365 . S
C417 H434 0.931 . S
C418 C413 1.370 . S
C418 C414 1.395 . S
C418 H435 0.930 . S
C419 Gd366 2.805 . S
C419 O401 1.263 . S
C419 O402 1.252 . S
C419 C413 1.500 . S
C420 H382 0.930 . S
C420 C396 1.417 . S
C420 C421 1.329 . S
C421 C391 1.437 . S
C421 H392 0.929 . S
C421 C420 1.329 . S
H422 C395 0.931 . S
C423 O405 1.265 . S
C423 O406 1.242 . S
C424 O409 1.261 . S
C424 O410 1.252 . S
C425 C428 1.394 . S
C425 C430 1.370 . S
C425 C431 1.500 . S
C426 C429 1.383 . S
C426 C430 1.395 . S
C427 C428 1.396 . S
C427 C429 1.365 . S
C427 H436 0.929 . S
C428 C425 1.394 . S
C428 C427 1.396 . S
C428 H437 0.930 . S
C429 C426 1.383 . S
C429 C427 1.365 . S
C429 H438 0.931 . S
C430 C425 1.370 . S
C430 C426 1.395 . S
C430 H439 0.930 . S
C431 Gd367 2.805 . S
C431 O407 1.263 . S
C431 O408 1.252 . S
C431 C425 1.500 . S
H432 C415 0.929 . S
H433 C416 0.930 . S
H434 C417 0.931 . S
H435 C418 0.930 . S
H436 C427 0.929 . S
H437 C428 0.930 . S
H438 C429 0.931 . S
H439 C430 0.930 . S
C440 C441 1.363 . S
C440 C446 1.379 . S
C440 N448 1.356 . S
C441 C440 1.363 . S
C441 C447 1.363 . S
C442 C443 1.363 . S
C442 C447 1.379 1_545 S
C442 N449 1.356 . S
C443 C442 1.363 . S
C443 C446 1.363 1_545 S
N444 C446 1.356 . S
N444 H456 0.984 . S
N444 H457 0.985 . S
N445 C447 1.356 . S
N445 H450 0.984 . S
N445 H451 0.985 1_565 S
C446 C440 1.379 . S
C446 C443 1.363 1_565 S
C446 N444 1.356 . S
C447 C441 1.363 . S
C447 C442 1.379 1_565 S
C447 N445 1.356 . S
N448 C440 1.356 . S
N448 H454 0.984 . S
N448 H455 0.984 . S
N449 C442 1.356 . S
N449 H452 0.984 . S
N449 H453 0.985 . S
H450 N445 0.984 . S
H451 N445 0.985 1_545 S
H452 N449 0.984 . S
H453 N449 0.985 . S
H454 N448 0.984 . S
H455 N448 0.984 . S
H456 N444 0.984 . S
H457 N444 0.985 . S
C458 C459 1.363 . S
C458 C464 1.379 . S
C458 N466 1.356 . S
C459 C458 1.363 . S
C459 C465 1.363 . S
C460 C461 1.363 . S
C460 C465 1.379 . S
C460 N467 1.356 . S
C461 C460 1.363 . S
C461 C464 1.363 . S
N462 C464 1.356 . S
N462 H474 0.984 . S
N462 H475 0.985 . S
N463 C465 1.356 . S
N463 H468 0.984 . S
N463 H469 0.985 . S
C464 C458 1.379 . S
C464 C461 1.363 . S
C464 N462 1.356 . S
C465 C459 1.363 . S
C465 C460 1.379 . S
C465 N463 1.356 . S
N466 C458 1.356 . S
N466 H472 0.984 . S
N466 H473 0.984 . S
N467 C460 1.356 . S
N467 H470 0.984 . S
N467 H471 0.985 . S
H468 N463 0.984 . S
H469 N463 0.985 . S
H470 N467 0.984 . S
H471 N467 0.985 . S
H472 N466 0.984 . S
H473 N466 0.984 . S
H474 N462 0.984 . S
H475 N462 0.985 . S
C476 C477 1.363 . S
C476 C482 1.379 . S
C476 N484 1.356 . S
C477 C476 1.363 . S
C477 C483 1.363 . S
C478 C479 1.363 . S
C478 C483 1.379 . S
C478 N485 1.356 . S
C479 C478 1.363 . S
C479 C482 1.363 . S
N480 C482 1.356 . S
N480 H492 0.984 . S
N480 H493 0.985 . S
N481 C483 1.356 . S
N481 H486 0.984 . S
N481 H487 0.985 . S
C482 C476 1.379 . S
C482 C479 1.363 . S
C482 N480 1.356 . S
C483 C477 1.363 . S
C483 C478 1.379 . S
C483 N481 1.356 . S
N484 C476 1.356 . S
N484 H490 0.984 . S
N484 H491 0.984 . S
N485 C478 1.356 . S
N485 H488 0.984 . S
N485 H489 0.985 . S
H486 N481 0.984 . S
H487 N481 0.985 . S
H488 N485 0.984 . S
H489 N485 0.985 . S
H490 N484 0.984 . S
H491 N484 0.984 . S
H492 N480 0.984 . S
H493 N480 0.985 . S
C494 C495 1.363 . S
C494 C500 1.379 . S
C494 N502 1.356 . S
C495 C494 1.363 . S
C495 C501 1.363 . S
C496 C497 1.363 1_565 S
C496 C501 1.379 . S
C496 N503 1.356 . S
C497 C496 1.363 1_545 S
C497 C500 1.363 1_545 S
N498 C500 1.356 1_545 S
N498 H510 0.984 1_655 S
N498 H511 0.985 1_655 S
N499 C501 1.356 . S
N499 H504 0.984 . S
N499 H505 0.985 . S
C500 C494 1.379 . S
C500 C497 1.363 1_565 S
C500 N498 1.356 1_565 S
C501 C495 1.363 . S
C501 C496 1.379 . S
C501 N499 1.356 . S
N502 C494 1.356 . S
N502 H508 0.984 . S
N502 H509 0.984 . S
N503 C496 1.356 . S
N503 H506 0.984 1_565 S
N503 H507 0.985 . S
H504 N499 0.984 . S
H505 N499 0.985 . S
H506 N503 0.984 1_545 S
H507 N503 0.985 . S
H508 N502 0.984 . S
H509 N502 0.984 . S
H510 N498 0.984 1_455 S
H511 N498 0.985 1_455 S
C512 C513 1.363 . S
C512 C518 1.379 1_545 S
C512 N520 1.356 . S
C513 C512 1.363 . S
C513 C519 1.363 . S
C514 C515 1.363 1_545 S
C514 C519 1.379 . S
C514 N521 1.356 . S
C515 C514 1.363 1_565 S
C515 C518 1.363 . S
N516 C518 1.356 . S
N516 H528 0.984 . S
N516 H529 0.985 . S
N517 C519 1.356 . S
N517 H522 0.984 . S
N517 H523 0.985 . S
C518 C512 1.379 1_565 S
C518 C515 1.363 . S
C518 N516 1.356 . S
C519 C513 1.363 . S
C519 C514 1.379 . S
C519 N517 1.356 . S
N520 C512 1.356 . S
N520 H526 0.984 1_545 S
N520 H527 0.984 . S
N521 C514 1.356 . S
N521 H524 0.984 . S
N521 H525 0.985 . S
H522 N517 0.984 . S
H523 N517 0.985 . S
H524 N521 0.984 . S
H525 N521 0.985 . S
H526 N520 0.984 1_565 S
H527 N520 0.984 . S
H528 N516 0.984 . S
H529 N516 0.985 . S
C530 C531 1.363 . S
C530 C536 1.379 . S
C530 N538 1.356 . S
C531 C530 1.363 . S
C531 C537 1.363 . S
C532 C533 1.363 . S
C532 C537 1.379 . S
C532 N539 1.356 . S
C533 C532 1.363 . S
C533 C536 1.363 . S
N534 C536 1.356 . S
N534 H546 0.984 . S
N534 H547 0.985 . S
N535 C537 1.356 . S
N535 H540 0.984 . S
N535 H541 0.985 . S
C536 C530 1.379 . S
C536 C533 1.363 . S
C536 N534 1.356 . S
C537 C531 1.363 . S
C537 C532 1.379 . S
C537 N535 1.356 . S
N538 C530 1.356 . S
N538 H544 0.984 . S
N538 H545 0.984 . S
N539 C532 1.356 . S
N539 H542 0.984 . S
N539 H543 0.985 . S
H540 N535 0.984 . S
H541 N535 0.985 . S
H542 N539 0.984 . S
H543 N539 0.985 . S
H544 N538 0.984 . S
H545 N538 0.984 . S
H546 N534 0.984 . S
H547 N534 0.985 . S
C548 C549 1.363 . S
C548 C554 1.379 . S
C548 N556 1.356 . S
C549 C548 1.363 . S
C549 C555 1.363 . S
C550 C551 1.363 . S
C550 C555 1.379 . S
C550 N557 1.356 . S
C551 C550 1.363 . S
C551 C554 1.363 . S
N552 C554 1.356 . S
N552 H564 0.984 . S
N552 H565 0.985 . S
N553 C555 1.356 . S
N553 H558 0.984 . S
N553 H559 0.985 . S
C554 C548 1.379 . S
C554 C551 1.363 . S
C554 N552 1.356 . S
C555 C549 1.363 . S
C555 C550 1.379 . S
C555 N553 1.356 . S
N556 C548 1.356 . S
N556 H562 0.984 . S
N556 H563 0.984 . S
N557 C550 1.356 . S
N557 H560 0.984 . S
N557 H561 0.985 . S
H558 N553 0.984 . S
H559 N553 0.985 . S
H560 N557 0.984 . S
H561 N557 0.985 . S
H562 N556 0.984 . S
H563 N556 0.984 . S
H564 N552 0.984 . S
H565 N552 0.985 . S
C566 C567 1.363 . S
C566 C572 1.363 1_545 S
C566 N574 1.356 . S
C567 C566 1.363 . S
C567 C573 1.363 . S
C568 C569 1.363 1_545 S
C568 C573 1.379 . S
C568 N575 1.356 . S
C569 C568 1.363 1_565 S
C569 C572 1.366 . S
N570 C572 1.373 . S
N570 H582 0.984 . S
N570 H583 0.985 . S
N571 C573 1.356 . S
N571 H576 0.984 . S
N571 H577 0.985 . S
C572 C566 1.363 1_565 S
C572 C569 1.366 . S
C572 N570 1.373 . S
C573 C567 1.363 . S
C573 C568 1.379 . S
C573 N571 1.356 . S
N574 C566 1.356 . S
N574 H580 0.984 . S
N574 H581 0.984 . S
N575 C568 1.356 . S
N575 H578 0.984 1_545 S
N575 H579 0.985 1_455 S
H576 N571 0.984 . S
H577 N571 0.985 . S
H578 N575 0.984 1_565 S
H579 N575 0.985 1_655 S
H580 N574 0.984 . S
H581 N574 0.984 . S
H582 N570 0.984 . S
H583 N570 0.985 . S
C584 C585 1.363 . S
C584 C590 1.379 . S
C584 N592 1.356 . S
C585 C584 1.363 . S
C585 C591 1.363 . S
C586 C587 1.363 . S
C586 C591 1.379 1_554 S
C586 N593 1.356 . S
C587 C586 1.363 . S
C587 C590 1.363 1_554 S
N588 C590 1.356 1_554 S
N588 H600 0.984 1_554 S
N588 H601 0.985 . S
N589 C591 1.356 . S
N589 H594 0.984 . S
N589 H595 0.985 . S
C590 C584 1.379 . S
C590 C587 1.363 1_556 S
C590 N588 1.356 1_556 S
C591 C585 1.363 . S
C591 C586 1.379 1_556 S
C591 N589 1.356 . S
N592 C584 1.356 . S
N592 H598 0.984 . S
N592 H599 0.984 . S
N593 C586 1.356 . S
N593 H596 0.984 . S
N593 H597 0.985 . S
H594 N589 0.984 . S
H595 N589 0.985 . S
H596 N593 0.984 . S
H597 N593 0.985 . S
H598 N592 0.984 . S
H599 N592 0.984 . S
H600 N588 0.984 1_556 S
H601 N588 0.985 . S
C602 C603 1.363 . S
C602 C608 1.379 . S
C602 N610 1.356 . S
C603 C602 1.363 . S
C603 C609 1.363 . S
C604 C605 1.363 . S
C604 C609 1.379 . S
C604 N611 1.356 . S
C605 C604 1.363 . S
C605 C608 1.363 . S
N606 C608 1.356 . S
N606 H618 0.984 . S
N606 H619 0.985 . S
N607 C609 1.356 . S
N607 H612 0.984 . S
N607 H613 0.985 . S
C608 C602 1.379 . S
C608 C605 1.363 . S
C608 N606 1.356 . S
C609 C603 1.363 . S
C609 C604 1.379 . S
C609 N607 1.356 . S
N610 C602 1.356 . S
N610 H616 0.984 . S
N610 H617 0.984 . S
N611 C604 1.356 . S
N611 H614 0.984 . S
N611 H615 0.985 . S
H612 N607 0.984 . S
H613 N607 0.985 . S
H614 N611 0.984 . S
H615 N611 0.985 . S
H616 N610 0.984 . S
H617 N610 0.984 . S
H618 N606 0.984 . S
H619 N606 0.985 . S
C620 C621 1.363 . S
C620 C626 1.379 . S
C620 N628 1.356 . S
C621 C620 1.363 . S
C621 C627 1.363 . S
C622 C623 1.363 . S
C622 C627 1.379 1_556 S
C622 N629 1.356 . S
C623 C622 1.363 . S
C623 C626 1.363 1_556 S
N624 C626 1.356 1_556 S
N624 H636 0.984 1_556 S
N624 H637 0.985 . S
N625 C627 1.356 . S
N625 H630 0.984 . S
N625 H631 0.985 . S
C626 C620 1.379 . S
C626 C623 1.363 1_554 S
C626 N624 1.356 1_554 S
C627 C621 1.363 . S
C627 C622 1.379 1_554 S
C627 N625 1.356 . S
N628 C620 1.356 . S
N628 H634 0.984 . S
N628 H635 0.984 . S
N629 C622 1.356 . S
N629 H632 0.984 . S
N629 H633 0.985 . S
H630 N625 0.984 . S
H631 N625 0.985 . S
H632 N629 0.984 . S
H633 N629 0.985 . S
H634 N628 0.984 . S
H635 N628 0.984 . S
H636 N624 0.984 1_554 S
H637 N624 0.985 . S
C638 C639 1.363 . S
C638 C644 1.379 . S
C638 N646 1.356 . S
C639 C638 1.363 . S
C639 C645 1.363 . S
C640 C641 1.363 . S
C640 C645 1.379 . S
C640 N647 1.356 . S
C641 C640 1.363 . S
C641 C644 1.363 . S
N642 C644 1.356 . S
N642 H654 0.984 . S
N642 H655 0.985 . S
N643 C645 1.356 . S
N643 H648 0.984 . S
N643 H649 0.985 . S
C644 C638 1.379 . S
C644 C641 1.363 . S
C644 N642 1.356 . S
C645 C639 1.363 . S
C645 C640 1.379 . S
C645 N643 1.356 . S
N646 C638 1.356 . S
N646 H652 0.984 . S
N646 H653 0.984 . S
N647 C640 1.356 . S
N647 H650 0.984 . S
N647 H651 0.985 . S
H648 N643 0.984 . S
H649 N643 0.985 . S
H650 N647 0.984 . S
H651 N647 0.985 . S
H652 N646 0.984 . S
H653 N646 0.984 . S
H654 N642 0.984 . S
H655 N642 0.985 . S
C656 C657 1.363 . S
C656 C662 1.379 1_554 S
C656 N664 1.356 . S
C657 C656 1.363 . S
C657 C663 1.363 . S
C658 C659 1.363 . S
C658 C663 1.379 1_556 S
C658 N665 1.356 . S
C659 C658 1.363 . S
C659 C662 1.363 . S
N660 C662 1.356 . S
N660 H672 0.984 . S
N660 H673 0.985 . S
N661 C663 1.356 . S
N661 H666 0.984 . S
N661 H667 0.985 . S
C662 C656 1.379 1_556 S
C662 C659 1.363 . S
C662 N660 1.356 . S
C663 C657 1.363 . S
C663 C658 1.379 1_554 S
C663 N661 1.356 . S
N664 C656 1.356 . S
N664 H670 0.984 . S
N664 H671 0.984 . S
N665 C658 1.356 . S
N665 H668 0.984 . S
N665 H669 0.985 . S
H666 N661 0.984 . S
H667 N661 0.985 . S
H668 N665 0.984 . S
H669 N665 0.985 . S
H670 N664 0.984 . S
H671 N664 0.984 . S
H672 N660 0.984 . S
H673 N660 0.985 . S
C674 C675 1.363 . S
C674 C680 1.379 . S
C674 N682 1.356 . S
C675 C674 1.363 . S
C675 C681 1.363 . S
C676 C677 1.363 . S
C676 C681 1.379 . S
C676 N683 1.356 . S
C677 C676 1.363 . S
C677 C680 1.363 . S
N678 C680 1.356 . S
N678 H690 0.984 . S
N678 H691 0.985 . S
N679 C681 1.356 . S
N679 H684 0.984 . S
N679 H685 0.985 . S
C680 C674 1.379 . S
C680 C677 1.363 . S
C680 N678 1.356 . S
C681 C675 1.363 . S
C681 C676 1.379 . S
C681 N679 1.356 . S
N682 C674 1.356 . S
N682 H688 0.984 . S
N682 H689 0.984 . S
N683 C676 1.356 . S
N683 H686 0.984 . S
N683 H687 0.985 . S
H684 N679 0.984 . S
H685 N679 0.985 . S
H686 N683 0.984 . S
H687 N683 0.985 . S
H688 N682 0.984 . S
H689 N682 0.984 . S
H690 N678 0.984 . S
H691 N678 0.985 . S
C692 C693 1.363 . S
C692 C698 1.379 1_556 S
C692 N700 1.356 . S
C693 C692 1.363 . S
C693 C699 1.363 . S
C694 C695 1.363 . S
C694 C699 1.379 1_554 S
C694 N701 1.356 . S
C695 C694 1.363 . S
C695 C698 1.363 . S
N696 C698 1.356 . S
N696 H708 0.984 . S
N696 H709 0.985 . S
N697 C699 1.356 . S
N697 H702 0.984 . S
N697 H703 0.985 . S
C698 C692 1.379 1_554 S
C698 C695 1.363 . S
C698 N696 1.356 . S
C699 C693 1.363 . S
C699 C694 1.379 1_556 S
C699 N697 1.356 . S
N700 C692 1.356 . S
N700 H706 0.984 . S
N700 H707 0.984 . S
N701 C694 1.356 . S
N701 H704 0.984 . S
N701 H705 0.985 . S
H702 N697 0.984 . S
H703 N697 0.985 . S
H704 N701 0.984 . S
H705 N701 0.985 . S
H706 N700 0.984 . S
H707 N700 0.984 . S
H708 N696 0.984 . S
H709 N696 0.985 . S
C710 C711 1.363 . S
C710 C716 1.379 . S
C710 N718 1.356 . S
C711 C710 1.363 . S
C711 C717 1.363 . S
C712 C713 1.363 . S
C712 C717 1.379 . S
C712 N719 1.356 . S
C713 C712 1.363 . S
C713 C716 1.363 . S
N714 C716 1.356 . S
N714 H726 0.984 . S
N714 H727 0.985 . S
N715 C717 1.356 . S
N715 H720 0.984 . S
N715 H721 0.985 . S
C716 C710 1.379 . S
C716 C713 1.363 . S
C716 N714 1.356 . S
C717 C711 1.363 . S
C717 C712 1.379 . S
C717 N715 1.356 . S
N718 C710 1.356 . S
N718 H724 0.984 . S
N718 H725 0.984 . S
N719 C712 1.356 . S
N719 H722 0.984 . S
N719 H723 0.985 . S
H720 N715 0.984 . S
H721 N715 0.985 . S
H722 N719 0.984 . S
H723 N719 0.985 . S
H724 N718 0.984 . S
H725 N718 0.984 . S
H726 N714 0.984 . S
H727 N714 0.985 . S
C728 C729 1.363 . S
C728 C734 1.379 . S
C728 N736 1.356 . S
C729 C728 1.363 . S
C729 C735 1.363 . S
C730 C731 1.363 . S
C730 C735 1.379 . S
C730 N737 1.356 . S
C731 C730 1.363 . S
C731 C734 1.363 . S
N732 C734 1.356 . S
N732 H744 0.984 1_455 S
N732 H745 0.985 . S
N733 C735 1.356 . S
N733 H738 0.984 . S
N733 H739 0.985 . S
C734 C728 1.379 . S
C734 C731 1.363 . S
C734 N732 1.356 . S
C735 C729 1.363 . S
C735 C730 1.379 . S
C735 N733 1.356 . S
N736 C728 1.356 . S
N736 H742 0.984 . S
N736 H743 0.984 . S
N737 C730 1.356 . S
N737 H740 0.984 . S
N737 H741 0.985 . S
H738 N733 0.984 . S
H739 N733 0.985 . S
H740 N737 0.984 . S
H741 N737 0.985 . S
H742 N736 0.984 . S
H743 N736 0.984 . S
H744 N732 0.984 1_655 S
H745 N732 0.985 . S
C746 C747 1.363 . S
C746 C752 1.379 . S
C746 N754 1.356 . S
C747 C746 1.363 . S
C747 C753 1.363 . S
C748 C749 1.363 . S
C748 C753 1.379 . S
C748 N755 1.356 . S
C749 C748 1.363 . S
C749 C752 1.363 . S
N750 C752 1.356 . S
N750 H762 0.984 . S
N750 H763 0.985 . S
N751 C753 1.356 . S
N751 H756 0.984 . S
N751 H757 0.985 . S
C752 C746 1.379 . S
C752 C749 1.363 . S
C752 N750 1.356 . S
C753 C747 1.363 . S
C753 C748 1.379 . S
C753 N751 1.356 . S
N754 C746 1.356 . S
N754 H760 0.984 . S
N754 H761 0.984 . S
N755 C748 1.356 . S
N755 H758 0.984 . S
N755 H759 0.985 . S
H756 N751 0.984 . S
H757 N751 0.985 . S
H758 N755 0.984 . S
H759 N755 0.985 . S
H760 N754 0.984 . S
H761 N754 0.984 . S
H762 N750 0.984 . S
H763 N750 0.985 . S
C764 C765 1.363 . S
C764 C770 1.379 . S
C764 N772 1.356 . S
C765 C764 1.363 . S
C765 C771 1.363 . S
C766 C767 1.363 . S
C766 C771 1.379 . S
C766 N773 1.356 . S
C767 C766 1.363 . S
C767 C770 1.363 . S
N768 C770 1.356 . S
N768 H780 0.984 . S
N768 H781 0.985 . S
N769 C771 1.356 . S
N769 H774 0.984 . S
N769 H775 0.985 . S
C770 C764 1.379 . S
C770 C767 1.363 . S
C770 N768 1.356 . S
C771 C765 1.363 . S
C771 C766 1.379 . S
C771 N769 1.356 . S
N772 C764 1.356 . S
N772 H778 0.984 . S
N772 H779 0.984 . S
N773 C766 1.356 . S
N773 H776 0.984 . S
N773 H777 0.985 . S
H774 N769 0.984 . S
H775 N769 0.985 . S
H776 N773 0.984 . S
H777 N773 0.985 . S
H778 N772 0.984 . S
H779 N772 0.984 . S
H780 N768 0.984 . S
H781 N768 0.985 . S
C782 C783 1.363 . S
C782 C788 1.379 . S
C782 N790 1.356 . S
C783 C782 1.363 . S
C783 C789 1.363 . S
C784 C785 1.363 . S
C784 C789 1.379 . S
C784 N791 1.356 1_655 S
C785 C784 1.363 . S
C785 C788 1.363 . S
N786 C788 1.356 . S
N786 H798 0.984 . S
N786 H799 0.985 . S
N787 C789 1.356 . S
N787 H792 0.984 . S
N787 H793 0.969 1_655 S
C788 C782 1.379 . S
C788 C785 1.363 . S
C788 N786 1.356 . S
C789 C783 1.363 . S
C789 C784 1.379 . S
C789 N787 1.356 . S
N790 C782 1.356 . S
N790 H796 0.984 . S
N790 H797 0.984 . S
N791 C784 1.356 1_455 S
N791 H794 0.984 . S
N791 H795 0.985 . S
H792 N787 0.984 . S
H793 N787 0.969 1_455 S
H794 N791 0.984 . S
H795 N791 0.985 . S
H796 N790 0.984 . S
H797 N790 0.984 . S
H798 N786 0.984 . S
H799 N786 0.985 . S
C800 C801 1.363 . S
C800 C806 1.379 . S
C800 N808 1.356 . S
C801 C800 1.363 . S
C801 C807 1.363 . S
C802 C803 1.363 . S
C802 C807 1.379 . S
C802 N809 1.356 . S
C803 C802 1.363 . S
C803 C806 1.363 . S
N804 C806 1.356 . S
N804 H816 0.984 1_655 S
N804 H817 0.985 1_655 S
N805 C807 1.356 . S
N805 H810 0.984 . S
N805 H811 0.985 . S
C806 C800 1.379 . S
C806 C803 1.363 . S
C806 N804 1.356 . S
C807 C801 1.363 . S
C807 C802 1.379 . S
C807 N805 1.356 . S
N808 C800 1.356 . S
N808 H814 0.984 . S
N808 H815 0.984 . S
N809 C802 1.356 . S
N809 H812 0.984 . S
N809 H813 0.985 . S
H810 N805 0.984 . S
H811 N805 0.985 . S
H812 N809 0.984 . S
H813 N809 0.985 . S
H814 N808 0.984 . S
H815 N808 0.984 . S
H816 N804 0.984 1_455 S
H817 N804 0.985 1_455 S
C818 C819 1.363 . S
C818 C824 1.379 . S
C818 N826 1.356 . S
C819 C818 1.363 . S
C819 C825 1.363 . S
C820 C821 1.363 . S
C820 C825 1.379 . S
C820 N827 1.356 . S
C821 C820 1.363 . S
C821 C824 1.363 . S
N822 C824 1.356 . S
N822 H834 0.984 . S
N822 H835 0.985 . S
N823 C825 1.356 . S
N823 H828 0.984 . S
N823 H829 0.985 . S
C824 C818 1.379 . S
C824 C821 1.363 . S
C824 N822 1.356 . S
C825 C819 1.363 . S
C825 C820 1.379 . S
C825 N823 1.356 . S
N826 C818 1.356 . S
N826 H832 0.984 . S
N826 H833 0.984 . S
N827 C820 1.356 . S
N827 H830 0.984 . S
N827 H831 0.985 . S
H828 N823 0.984 . S
H829 N823 0.985 . S
H830 N827 0.984 . S
H831 N827 0.985 . S
H832 N826 0.984 . S
H833 N826 0.984 . S
H834 N822 0.984 . S
H835 N822 0.985 . S
C836 C837 1.363 . S
C836 C842 1.379 . S
C836 N844 1.356 . S
C837 C836 1.363 . S
C837 C843 1.363 . S
C838 C839 1.363 . S
C838 C843 1.379 . S
C838 N845 1.356 . S
C839 C838 1.363 . S
C839 C842 1.363 . S
N840 C842 1.356 . S
N840 H852 0.984 . S
N840 H853 0.985 . S
N841 C843 1.356 . S
N841 H846 0.984 . S
N841 H847 0.985 . S
C842 C836 1.379 . S
C842 C839 1.363 . S
C842 N840 1.356 . S
C843 C837 1.363 . S
C843 C838 1.379 . S
C843 N841 1.356 . S
N844 C836 1.356 . S
N844 H850 0.984 . S
N844 H851 0.984 . S
N845 C838 1.356 . S
N845 H848 0.984 . S
N845 H849 0.985 . S
H846 N841 0.984 . S
H847 N841 0.985 . S
H848 N845 0.984 . S
H849 N845 0.985 . S
H850 N844 0.984 . S
H851 N844 0.984 . S
H852 N840 0.984 . S
H853 N840 0.985 . S
C854 C855 1.363 . S
C854 C860 1.379 . S
C854 N862 1.356 . S
C855 C854 1.363 . S
C855 C861 1.363 . S
C856 C857 1.363 . S
C856 C861 1.379 . S
C856 N863 1.356 . S
C857 C856 1.363 . S
C857 C860 1.363 . S
N858 C860 1.356 . S
N858 H870 0.984 1_455 S
N858 H871 0.985 . S
N859 C861 1.356 . S
N859 H864 0.984 . S
N859 H865 0.985 . S
C860 C854 1.379 . S
C860 C857 1.363 . S
C860 N858 1.356 . S
C861 C855 1.363 . S
C861 C856 1.379 . S
C861 N859 1.356 . S
N862 C854 1.356 . S
N862 H868 0.984 . S
N862 H869 0.984 . S
N863 C856 1.356 . S
N863 H866 0.984 . S
N863 H867 0.985 . S
H864 N859 0.984 . S
H865 N859 0.985 . S
H866 N863 0.984 . S
H867 N863 0.985 . S
H868 N862 0.984 . S
H869 N862 0.984 . S
H870 N858 0.984 1_655 S
H871 N858 0.985 . S
C441 C86 1.629 . S
C443 C160 1.627 . S
C461 C244 1.669 . S
C459 C100 1.685 . S
C479 C243 1.623 . S
C477 C60 1.627 . S
C495 C74 1.680 . S
C497 C159 1.679 . S
C515 C340 1.669 . S
C513 C35 1.683 . S
C533 C424 1.627 . S
C531 C47 1.633 . S
C549 C9 1.678 . S
C551 C423 1.679 . S
C567 C21 1.632 . S
C569 C339 1.623 . S
C587 C162 1.430 . S
C585 C22 1.584 . S
C605 C246 1.413 . S
C603 C8 1.579 . S
C623 C258 1.353 . S
C621 C48 1.582 . S
C641 C174 1.358 . S
C639 C34 1.580 . S
C659 C342 1.413 . S
C657 C73 1.582 . S
C675 C61 1.583 . S
C677 C426 1.430 . S
C695 C414 1.358 . S
C693 C99 1.582 . S
C711 C87 1.581 . S
C713 C330 1.353 . S
C731 C171 1.575 . S
C729 C4 1.484 . S
C749 C255 1.497 . S
C747 C17 1.484 . S
C765 C30 1.484 . S
C767 C256 1.545 . S
C785 C172 1.467 . S
C783 C43 1.473 . S
C803 C327 1.497 . S
C801 C56 1.448 . S
C819 C69 1.519 . S
C821 C411 1.575 . S
C837 C82 1.444 . S
C839 C412 1.467 . S
C855 C95 1.512 . S
C857 C328 1.545 . S
