# Generated by pormake.
# Topology anh, (6,3)-cn, num edge types: 1
# Building blocks:
#     Node 0, Type 0, BuildingBlock: BETDAH_clean_sbu_0, # of connection points: 6
#     Node 1, Type 0, BuildingBlock: BETDAH_clean_sbu_0, # of connection points: 6
#     Node 2, Type 0, BuildingBlock: BETDAH_clean_sbu_0, # of connection points: 6
#     Node 3, Type 1, BuildingBlock: ESEHIV_clean_linker_0, # of connection points: 3
#     Node 4, Type 1, BuildingBlock: ESEHIV_clean_linker_0, # of connection points: 3
#     Node 5, Type 1, BuildingBlock: ESEHIV_clean_linker_0, # of connection points: 3
#     Node 6, Type 1, BuildingBlock: ESEHIV_clean_linker_0, # of connection points: 3
#     Node 7, Type 1, BuildingBlock: ESEHIV_clean_linker_0, # of connection points: 3
#     Node 8, Type 1, BuildingBlock: ESEHIV_clean_linker_0, # of connection points: 3
#     Edge 9, Type (0, 1), BuildingBlock: CIFDUS_clean_linker_0, # of connection points: 2
#     Edge 10, Type (0, 1), BuildingBlock: CIFDUS_clean_linker_0, # of connection points: 2
#     Edge 11, Type (0, 1), BuildingBlock: CIFDUS_clean_linker_0, # of connection points: 2
#     Edge 12, Type (0, 1), BuildingBlock: CIFDUS_clean_linker_0, # of connection points: 2
#     Edge 13, Type (0, 1), BuildingBlock: CIFDUS_clean_linker_0, # of connection points: 2
#     Edge 14, Type (0, 1), BuildingBlock: CIFDUS_clean_linker_0, # of connection points: 2
#     Edge 15, Type (0, 1), BuildingBlock: CIFDUS_clean_linker_0, # of connection points: 2
#     Edge 16, Type (0, 1), BuildingBlock: CIFDUS_clean_linker_0, # of connection points: 2
#     Edge 17, Type (0, 1), BuildingBlock: CIFDUS_clean_linker_0, # of connection points: 2
#     Edge 18, Type (0, 1), BuildingBlock: CIFDUS_clean_linker_0, # of connection points: 2
#     Edge 19, Type (0, 1), BuildingBlock: CIFDUS_clean_linker_0, # of connection points: 2
#     Edge 20, Type (0, 1), BuildingBlock: CIFDUS_clean_linker_0, # of connection points: 2
#     Edge 21, Type (0, 1), BuildingBlock: CIFDUS_clean_linker_0, # of connection points: 2
#     Edge 22, Type (0, 1), BuildingBlock: CIFDUS_clean_linker_0, # of connection points: 2
#     Edge 23, Type (0, 1), BuildingBlock: CIFDUS_clean_linker_0, # of connection points: 2
#     Edge 24, Type (0, 1), BuildingBlock: CIFDUS_clean_linker_0, # of connection points: 2
#     Edge 25, Type (0, 1), BuildingBlock: CIFDUS_clean_linker_0, # of connection points: 2
#     Edge 26, Type (0, 1), BuildingBlock: CIFDUS_clean_linker_0, # of connection points: 2
# Relax obj value: 0.240
# Max RMSD: 0.240
# Mean RMSD: 0.172
data_MOF--net-anh--node1-BETDAH_clean_sbu_0--node2-ESEHIV_clean_linker_0--edge1-CIFDUS_clean_linker_0
_symmetry_space_group_name_H-M    P1
_symmetry_Int_Tables_number       1
_symmetry_cell_setting            triclinic
loop_
_symmetry_equiv_pos_as_xyz
'x, y, z'
_cell_length_a     25.580867
_cell_length_b     31.182334
_cell_length_c     45.277486
_cell_angle_alpha  92.135849
_cell_angle_beta   89.195484
_cell_angle_gamma 131.56404
loop_
_atom_site_label
_atom_site_type_symbol
_atom_site_fract_x
_atom_site_fract_y
_atom_site_fract_z
_atom_type_partial_charge
Ho0 Ho 0.20609 0.59656 0.14209 0.0
Ho1 Ho 0.11702 0.62397 0.15941 0.0
C2 C 0.28105 0.73169 0.15073 0.0
C3 C 0.28261 0.57845 0.11907 0.0
C4 C 0.28193 0.53125 0.12146 0.0
C5 C 0.34502 0.54421 0.12642 0.0
C6 C 0.34543 0.50038 0.13051 0.0
C7 C 0.2827 0.44271 0.12957 0.0
C8 C 0.21938 0.42962 0.12446 0.0
C9 C 0.21889 0.47365 0.12071 0.0
C10 C 0.17773 0.5883 0.20028 0.0
C11 C 1.04363 0.49165 0.1549 0.0
C12 C 1.04668 0.64534 0.18603 0.0
C13 C 0.97146 0.60434 0.19249 0.0
C14 C 0.94057 0.55108 0.20436 0.0
C15 C 0.86828 0.50662 0.20366 0.0
C16 C 0.82565 0.51478 0.19137 0.0
C17 C 0.85592 0.56949 0.18207 0.0
C18 C 0.92851 0.61398 0.18252 0.0
C19 C 0.1059 0.59182 0.10144 0.0
O20 O 0.28936 0.69468 0.14385 0.0
O21 O 0.21878 0.71409 0.15655 0.0
O22 O 0.22957 0.56647 0.10505 0.0
O23 O 0.30014 0.60958 0.14337 0.0
O24 O 0.18114 0.55379 0.18561 0.0
O25 O 0.1923 0.62633 0.18365 0.0
O26 O 1.04592 0.53061 0.16916 0.0
O27 O 0.0971 0.50741 0.13861 0.0
O28 O 1.06235 0.65508 0.15799 0.0
O29 O 1.08401 0.63753 0.20002 0.0
O30 O 1.05479 0.57937 0.11702 0.0
O31 O 0.16143 0.62433 0.11676 0.0
H32 H 0.394 0.58833 0.12729 0.0
H33 H 0.39515 0.51157 0.13382 0.0
H34 H 0.17045 0.38549 0.12356 0.0
H35 H 0.16931 0.46266 0.11739 0.0
H36 H 0.97222 0.5423 0.21239 0.0
H37 H 0.84591 0.46485 0.21106 0.0
H38 H 0.82392 0.57658 0.17226 0.0
H39 H 0.95115 0.65457 0.17323 0.0
Ho40 Ho 0.68625 0.04998 0.463 0.0
Ho41 Ho 0.60773 0.0886 0.45924 0.0
C42 C 0.5184 0.95454 0.45294 0.0
C43 C 0.7378 1.00424 0.47613 0.0
C44 C 0.71697 0.94972 0.48526 0.0
C45 C 0.70715 0.93602 0.51522 0.0
C46 C 0.69684 0.88844 0.52406 0.0
C47 C 0.69645 0.85366 0.50318 0.0
C48 C 0.70378 0.86623 0.47313 0.0
C49 C 0.7142 0.91384 0.46429 0.0
C50 C 0.67886 0.07649 0.40791 0.0
C51 C 0.77898 0.18564 0.46265 0.0
C52 C 0.55973 0.13792 0.44828 0.0
C53 C 0.57369 0.18888 0.46094 0.0
C54 C 0.56017 0.21751 0.44416 0.0
C55 C 0.57218 0.2654 0.45626 0.0
C56 C 0.59771 0.28538 0.48545 0.0
C57 C 0.61203 0.25677 0.50201 0.0
C58 C 0.6005 0.20922 0.48982 0.0
C59 C 0.61755 0.06428 0.51476 0.0
O60 O 0.57273 0.96598 0.466 0.0
O61 O 0.52423 0.99694 0.44305 0.0
O62 O 0.72126 1.0056 0.44922 0.0
O63 O 0.73106 0.03268 0.49531 0.0
O64 O 0.73359 0.08819 0.41908 0.0
O65 O 0.62945 0.04928 0.42607 0.0
O66 O 0.71963 0.17401 0.45802 0.0
O67 O 0.77947 0.14445 0.46785 0.0
O68 O 0.52921 0.0949 0.46576 0.0
O69 O 0.61095 0.14771 0.43367 0.0
O70 O 0.56345 0.05405 0.50416 0.0
O71 O 0.66579 0.09046 0.49607 0.0
H72 H 0.70982 0.96313 0.53201 0.0
H73 H 0.69229 0.88044 0.54743 0.0
H74 H 0.70287 0.8399 0.45647 0.0
H75 H 0.72224 0.92353 0.44108 0.0
H76 H 0.54007 0.20269 0.42173 0.0
H77 H 0.56164 0.28684 0.44268 0.0
H78 H 0.63072 0.27024 0.52467 0.0
H79 H 0.61172 0.18787 0.50309 0.0
Ho80 Ho 0.63001 0.57179 0.85561 0.0
Ho81 Ho 0.52761 0.44451 0.84914 0.0
C82 C 0.45773 0.50444 0.85514 0.0
C83 C 0.69904 0.67878 0.84494 0.0
C84 C 0.68488 0.7151 0.83425 0.0
C85 C 0.6833 0.72197 0.80379 0.0
C86 C 0.67474 0.75899 0.79367 0.0
C87 C 0.66788 0.79064 0.81366 0.0
C88 C 0.66888 0.78339 0.84414 0.0
C89 C 0.67742 0.74629 0.85428 0.0
C90 C 0.58694 0.51536 0.90636 0.0
C91 C 0.70244 0.51525 0.85681 0.0
C92 C 0.46097 0.33616 0.85297 0.0
C93 C 0.47159 0.29723 0.84154 0.0
C94 C 0.41336 0.24044 0.83313 0.0
C95 C 0.42187 0.20381 0.82036 0.0
C96 C 0.48901 0.22309 0.81563 0.0
C97 C 0.5474 0.27964 0.82487 0.0
C98 C 0.53879 0.31637 0.83759 0.0
C99 C 0.56602 0.49623 0.79696 0.0
O100 O 0.52459 0.55254 0.85152 0.0
O101 O 0.44513 0.4553 0.85766 0.0
O102 O 0.67777 0.65792 0.87132 0.0
O103 O 0.69015 0.64188 0.82578 0.0
O104 O 0.65124 0.56243 0.90248 0.0
O105 O 0.5503 0.50351 0.88412 0.0
O106 O 0.63556 0.46528 0.85401 0.0
O107 O 0.71385 0.56389 0.85731 0.0
O108 O 0.44657 0.35648 0.83312 0.0
O109 O 0.50517 0.3751 0.87315 0.0
O110 O 0.50361 0.45005 0.80326 0.0
O111 O 0.60635 0.51214 0.81879 0.0
H112 H 0.68992 0.69946 0.78762 0.0
H113 H 0.67545 0.76393 0.77008 0.0
H114 H 0.66301 0.80642 0.86027 0.0
H115 H 0.67902 0.7426 0.87788 0.0
H116 H 0.36105 0.2246 0.83598 0.0
H117 H 0.37565 0.16036 0.81394 0.0
H118 H 0.59984 0.29619 0.82136 0.0
H119 H 0.58475 0.35998 0.84379 0.0
H120 H 0.60839 0.01624 0.22877 0.0
H121 H 0.78808 0.19649 0.22879 0.0
H122 H 0.68926 0.1023 0.14621 0.0
C123 C 0.64591 0.05514 0.21679 0.0
C124 C 0.64167 0.05277 0.18574 0.0
C125 C 0.69924 0.10643 0.23244 0.0
C126 C 0.7476 0.15651 0.21673 0.0
C127 C 0.74476 0.15607 0.18573 0.0
C128 C 0.69218 0.10345 0.1701 0.0
H129 H 0.66989 0.64544 0.62964 0.0
H130 H 0.68823 0.51804 0.62286 0.0
H131 H 0.66844 0.57948 0.54412 0.0
C132 C 0.67347 0.61799 0.61621 0.0
C133 C 0.66955 0.61756 0.58525 0.0
C134 C 0.67974 0.58201 0.63001 0.0
C135 C 0.68396 0.54633 0.6124 0.0
C136 C 0.67972 0.54502 0.58144 0.0
C137 C 0.67258 0.58082 0.56799 0.0
H138 H 1.00877 0.52563 0.92422 0.0
H139 H 0.18088 0.53127 0.92216 0.0
H140 H 1.06257 0.48874 0.84182 0.0
C141 C 1.04246 0.52282 0.91135 0.0
C142 C 1.02856 0.50982 0.88075 0.0
C143 C 0.09536 0.52907 0.92633 0.0
C144 C 0.13931 0.52447 0.9103 0.0
C145 C 0.13043 0.50941 0.87993 0.0
C146 C 1.07234 0.50079 0.86512 0.0
H147 H 1.05823 0.46781 0.38092 0.0
H148 H 0.23617 0.64815 0.37805 0.0
H149 H 0.14659 0.57075 0.46192 0.0
C150 C 0.09766 0.50894 0.39229 0.0
C151 C 0.09664 0.51286 0.42328 0.0
C152 C 0.14693 0.5576 0.37576 0.0
C153 C 0.19664 0.61084 0.39069 0.0
C154 C 0.19771 0.61668 0.42168 0.0
C155 C 0.14709 0.56712 0.43805 0.0
H156 H 0.57988 0.07873 0.69902 0.0
H157 H 0.61546 0.96306 0.68627 0.0
H158 H 0.59625 1.00833 0.77462 0.0
C159 C 0.58762 0.05175 0.70836 0.0
C160 C 0.58777 0.04805 0.73921 0.0
C161 C 0.59742 0.02127 0.68922 0.0
C162 C 0.60836 0.9868 0.70117 0.0
C163 C 0.6076 0.9812 0.73208 0.0
C164 C 0.5984 1.01295 0.75093 0.0
H165 H 0.39543 0.31166 0.03995 0.0
H166 H 0.57833 0.33677 0.05809 0.0
H167 H 0.41407 0.25724 0.12151 0.0
C168 C 0.42182 0.30251 0.05313 0.0
C169 C 0.39457 0.27863 0.08087 0.0
C170 C 0.48791 0.32338 0.04441 0.0
C171 C 0.52568 0.31792 0.06363 0.0
C172 C 0.49997 0.29549 0.09177 0.0
C173 C 0.43262 0.2726 0.09942 0.0
H174 H 0.22102 0.3492 0.09288 0.0
H175 H 0.3513 0.4347 0.17111 0.0
H176 H 0.3833 0.37641 0.16699 0.0
H177 H 0.39651 0.32054 0.13461 0.0
H178 H 0.27231 0.23862 0.05456 0.0
H179 H 0.21365 0.27471 0.06645 0.0
C180 C 0.25436 0.35349 0.10959 0.0
C181 C 0.28532 0.39702 0.13181 0.0
C182 C 0.27422 0.32105 0.10652 0.0
C183 C 0.32827 0.40224 0.15342 0.0
C184 C 0.34654 0.36898 0.15107 0.0
C185 C 0.3543 0.30802 0.12037 0.0
C186 C 0.34012 0.27815 0.09331 0.0
C187 C 0.32316 0.33088 0.12671 0.0
C188 C 0.28514 0.26258 0.07524 0.0
C189 C 0.25206 0.28363 0.0819 0.0
H190 H 0.80662 0.28756 0.46852 0.0
H191 H 0.90521 0.21932 0.4486 0.0
H192 H 1.01383 0.31493 0.4373 0.0
H193 H 1.07865 0.41713 0.42877 0.0
H194 H 0.98363 0.48733 0.45071 0.0
H195 H 0.87697 0.39277 0.46587 0.0
C196 C 0.85213 0.29372 0.46207 0.0
C197 C 0.84707 0.24573 0.45929 0.0
C198 C 0.91549 0.34953 0.45596 0.0
C199 C 0.9071 0.25502 0.45108 0.0
C200 C 0.96947 0.30988 0.44446 0.0
C201 C 1.03525 0.41197 0.43767 0.0
C202 C 1.03947 0.45946 0.43894 0.0
C203 C 0.97405 0.35734 0.44633 0.0
C204 C 0.9823 0.45185 0.45004 0.0
C205 C 0.92095 0.39753 0.45838 0.0
H206 H 0.59493 0.77826 0.76524 0.0
H207 H 0.72735 0.89711 0.83734 0.0
H208 H 0.71965 0.96556 0.81919 0.0
H209 H 0.67777 0.99329 0.78192 0.0
H210 H 0.54551 0.87375 0.70994 0.0
H211 H 0.55228 0.80527 0.72854 0.0
C212 C 0.62263 0.81928 0.77692 0.0
C213 C 0.66167 0.83206 0.80274 0.0
C214 C 0.61856 0.85891 0.76619 0.0
C215 C 0.69604 0.88532 0.81771 0.0
C216 C 0.6921 0.92487 0.80719 0.0
C217 C 0.65004 0.95213 0.77039 0.0
C218 C 0.61185 0.93941 0.74425 0.0
C219 C 0.65368 0.91228 0.78137 0.0
C220 C 0.57667 0.8857 0.72966 0.0
C221 C 0.58001 0.84608 0.74043 0.0
H222 H 0.77898 0.41984 0.16013 0.0
H223 H 0.70982 0.49979 0.20351 0.0
H224 H 0.59379 0.42735 0.18072 0.0
H225 H 0.52174 0.35431 0.14176 0.0
H226 H 0.5955 0.28189 0.09356 0.0
H227 H 0.70006 0.33756 0.12547 0.0
C228 C 0.73769 0.42018 0.16528 0.0
C229 C 0.7524 0.46487 0.18332 0.0
C230 C 0.67252 0.38013 0.15103 0.0
C231 C 0.69927 0.46575 0.18956 0.0
C232 C 0.63326 0.42453 0.17648 0.0
C233 C 0.55925 0.34885 0.13899 0.0
C234 C 0.55101 0.31391 0.11548 0.0
C235 C 0.62046 0.38321 0.15621 0.0
C236 C 0.60088 0.30841 0.11163 0.0
C237 C 0.66075 0.34058 0.12967 0.0
H238 H 0.47543 0.85389 0.47545 0.0
H239 H 0.40987 0.91759 0.41717 0.0
H240 H 0.30324 0.82009 0.40485 0.0
H241 H 0.23072 0.7162 0.40791 0.0
H242 H 0.29224 0.64965 0.46593 0.0
H243 H 0.39653 0.74794 0.48147 0.0
C244 C 0.43766 0.84645 0.46017 0.0
C245 C 0.45169 0.89375 0.44715 0.0
C246 C 0.37508 0.78942 0.4532 0.0
C247 C 0.40134 0.88272 0.4276 0.0
C248 C 0.33994 0.82666 0.42046 0.0
C249 C 0.26642 0.72314 0.42431 0.0
C250 C 0.25347 0.67534 0.43567 0.0
C251 C 0.32655 0.77968 0.43281 0.0
C252 C 0.30029 0.68537 0.45701 0.0
C253 C 0.36045 0.74173 0.46565 0.0
H254 H 0.58112 0.20787 0.82756 0.0
H255 H 0.41658 0.15353 0.76693 0.0
H256 H 0.43001 0.09286 0.73939 0.0
H257 H 0.48987 0.05679 0.73138 0.0
H258 H 0.65602 0.11111 0.79075 0.0
H259 H 0.63994 0.16933 0.82002 0.0
C260 C 0.54834 0.18285 0.80828 0.0
C261 C 0.49761 0.18532 0.79951 0.0
C262 C 0.55644 0.14778 0.79231 0.0
C263 C 0.45523 0.15201 0.77458 0.0
C264 C 0.46314 0.11744 0.75865 0.0
C265 C 0.52287 0.08152 0.75067 0.0
C266 C 0.57463 0.07992 0.75862 0.0
C267 C 0.51373 0.1152 0.76718 0.0
C268 C 0.61561 0.11125 0.78414 0.0
C269 C 0.60673 0.14491 0.80077 0.0
H270 H 0.61428 0.77668 0.54577 0.0
H271 H 0.77281 0.82657 0.4828 0.0
H272 H 0.77507 0.75533 0.50127 0.0
H273 H 0.73822 0.68362 0.53766 0.0
H274 H 0.58156 0.63514 0.60131 0.0
H275 H 0.57335 0.70171 0.58059 0.0
C276 C 0.64935 0.77198 0.53611 0.0
C277 C 0.69339 0.80707 0.51299 0.0
C278 C 0.65132 0.73159 0.54717 0.0
C279 C 0.73768 0.79971 0.50037 0.0
C280 C 0.73948 0.75928 0.51108 0.0
C281 C 0.70162 0.68709 0.54671 0.0
C282 C 0.66114 0.65495 0.57117 0.0
C283 C 0.69729 0.72558 0.53475 0.0
C284 C 0.61428 0.66021 0.58282 0.0
C285 C 0.60928 0.69804 0.5709 0.0
H286 H 0.72995 0.43893 0.83968 0.0
H287 H 0.82849 0.60168 0.8844 0.0
H288 H 0.93217 0.61515 0.89369 0.0
H289 H 0.99916 0.58251 0.89111 0.0
H290 H 0.90856 0.4234 0.84469 0.0
H291 H 0.80298 0.4086 0.83423 0.0
C292 C 0.77375 0.47761 0.8515 0.0
C293 C 0.76746 0.51903 0.86131 0.0
C294 C 0.83735 0.48653 0.85649 0.0
C295 C 0.82809 0.56838 0.87623 0.0
C296 C 0.88893 0.57638 0.8817 0.0
C297 C 0.95722 0.54456 0.87823 0.0
C298 C 0.9659 0.50473 0.86869 0.0
C299 C 0.89499 0.53611 0.8721 0.0
C300 C 0.90765 0.45625 0.85221 0.0
C301 C 0.84557 0.44734 0.84644 0.0
H302 H 0.42148 0.79386 0.13747 0.0
H303 H 0.28053 0.81344 0.17325 0.0
H304 H 0.37782 0.91411 0.18452 0.0
H305 H 0.50389 0.99623 0.18813 0.0
H306 H 0.64763 0.98119 0.15188 0.0
H307 H 0.54943 0.88059 0.13664 0.0
C308 C 0.41198 0.82026 0.14743 0.0
C309 C 0.34285 0.79497 0.15457 0.0
C310 C 0.46909 0.87955 0.15382 0.0
C311 C 0.33235 0.83065 0.16739 0.0
C312 C 0.38831 0.88874 0.17398 0.0
C313 C 0.51354 0.97127 0.17622 0.0
C314 C 0.58292 0.99638 0.17085 0.0
C315 C 0.45691 0.91353 0.16775 0.0
C316 C 0.5947 0.96323 0.15582 0.0
C317 C 0.53845 0.90545 0.1474 0.0
H318 H 0.70209 0.37084 0.52303 0.0
H319 H 0.51462 0.31075 0.47845 0.0
H320 H 0.52691 0.38851 0.50227 0.0
H321 H 0.58653 0.47003 0.53822 0.0
H322 H 0.76974 0.52656 0.58495 0.0
H323 H 0.7628 0.45321 0.55823 0.0
C324 C 0.66358 0.37442 0.51862 0.0
C325 C 0.6074 0.33465 0.49896 0.0
C326 C 0.66998 0.4185 0.53295 0.0
C327 C 0.55896 0.34099 0.49313 0.0
C328 C 0.56559 0.38526 0.50694 0.0
C329 C 0.62547 0.46675 0.5422 0.0
C330 C 0.67862 0.50362 0.56347 0.0
C331 C 0.62042 0.42386 0.52714 0.0
C332 C 0.72814 0.4984 0.56878 0.0
C333 C 0.72421 0.45654 0.55351 0.0
H334 H 0.3048 0.4263 0.84289 0.0
H335 H 0.47672 0.59727 0.87695 0.0
H336 H 0.39778 0.61461 0.88528 0.0
H337 H 0.27853 0.58325 0.88504 0.0
H338 H 0.10474 0.41576 0.84877 0.0
H339 H 0.18335 0.39702 0.8392 0.0
C340 C 0.32577 0.46758 0.85219 0.0
C341 C 0.40012 0.51003 0.85939 0.0
C342 C 0.27834 0.47876 0.85646 0.0
C343 C 0.4222 0.56285 0.87098 0.0
C344 C 0.37606 0.57317 0.87585 0.0
C345 C 0.25697 0.54267 0.87441 0.0
C346 C 0.18286 0.5018 0.86737 0.0
C347 C 0.30378 0.53184 0.86883 0.0
C348 C 0.15976 0.44963 0.85405 0.0
C349 C 0.20566 0.43844 0.84887 0.0
H350 H 1.01611 0.3919 0.13555 0.0
H351 H 0.92481 0.45067 0.18294 0.0
H352 H 0.82293 0.35309 0.19369 0.0
H353 H 0.762 0.25103 0.19352 0.0
H354 H 0.84785 0.18795 0.14657 0.0
H355 H 0.94773 0.28581 0.13147 0.0
C356 C 0.97369 0.38328 0.148 0.0
C357 C 0.97963 0.42966 0.15873 0.0
C358 C 0.91357 0.32575 0.15424 0.0
C359 C 0.92326 0.41687 0.17466 0.0
C360 C 0.86426 0.3606 0.18084 0.0
C361 C 0.80185 0.25853 0.17942 0.0
C362 C 0.79716 0.21212 0.17105 0.0
C363 C 0.85926 0.31481 0.17125 0.0
C364 C 0.84957 0.22268 0.15298 0.0
C365 C 0.90715 0.27886 0.14464 0.0
H366 H 0.13518 0.538 0.06585 0.0
H367 H 1.06913 0.63385 0.06378 0.0
H368 H 1.0629 0.62554 0.00962 0.0
H369 H 1.07596 0.59069 0.9628 0.0
H370 H 0.13058 0.48612 0.96558 0.0
H371 H 0.14346 0.49962 0.01903 0.0
C372 C 0.1203 0.5576 0.05345 0.0
C373 C 0.10371 0.58726 0.06868 0.0
C374 C 0.11513 0.55135 0.02231 0.0
C375 C 1.08251 0.61108 0.05246 0.0
C376 C 1.07896 0.60632 0.0215 0.0
C377 C 0.08994 0.57019 0.97496 0.0
C378 C 0.1031 0.53797 0.95954 0.0
C379 C 0.09486 0.57631 0.00613 0.0
C380 C 0.12202 0.51262 0.97624 0.0
C381 C 0.1287 0.51974 0.00707 0.0
H382 H 0.7802 0.12974 0.36701 0.0
H383 H 0.55925 0.03101 0.37734 0.0
H384 H 0.54566 0.0317 0.3239 0.0
H385 H 0.59668 0.05833 0.27392 0.0
H386 H 0.81803 0.15714 0.2644 0.0
H387 H 0.83139 0.15867 0.31776 0.0
C388 C 0.7291 0.10858 0.35758 0.0
C389 C 0.67076 0.08009 0.37603 0.0
C390 C 0.72176 0.10908 0.32693 0.0
C391 C 0.60496 0.05319 0.36356 0.0
C392 C 0.59716 0.05344 0.333 0.0
C393 C 0.64774 0.08001 0.28356 0.0
C394 C 0.70628 0.10761 0.26514 0.0
C395 C 0.65513 0.08077 0.31441 0.0
C396 C 0.77225 0.13612 0.27804 0.0
C397 C 0.77992 0.1368 0.30856 0.0
H398 H 0.66292 0.59772 0.76938 0.0
H399 H 0.51876 0.41388 0.75517 0.0
H400 H 0.54553 0.42456 0.70284 0.0
H401 H 0.60221 0.48496 0.66053 0.0
H402 H 0.74415 0.66897 0.67273 0.0
H403 H 0.72564 0.65957 0.72623 0.0
C404 C 0.63827 0.56029 0.75479 0.0
C405 C 0.58869 0.50519 0.76601 0.0
C406 C 0.6529 0.56668 0.72433 0.0
C407 C 0.55655 0.45679 0.74694 0.0
C408 C 0.57185 0.46278 0.71701 0.0
C409 C 0.6304 0.52314 0.6749 0.0
C410 C 0.67466 0.57751 0.66267 0.0
C411 C 0.61889 0.51738 0.70538 0.0
C412 C 0.70939 0.62651 0.68161 0.0
C413 C 0.69894 0.62117 0.71219 0.0
H414 H 0.52199 0.02397 0.55756 0.0
H415 H 0.73009 0.08906 0.54276 0.0
H416 H 0.74117 0.07804 0.59511 0.0
H417 H 0.69229 0.05273 0.6459 0.0
H418 H 0.48643 0.99301 0.65995 0.0
H419 H 0.47375 0.99898 0.60728 0.0
C420 C 0.56979 0.03565 0.56574 0.0
C421 C 0.62506 0.05713 0.54624 0.0
C422 C 0.57614 0.03022 0.59587 0.0
C423 C 0.68665 0.07217 0.55726 0.0
C424 C 0.69301 0.06597 0.58723 0.0
C425 C 0.64459 0.04063 0.63726 0.0
C426 C 0.59029 0.02243 0.65675 0.0
C427 C 0.63821 0.04535 0.60684 0.0
C428 C 0.52896 1.00736 0.64539 0.0
C429 C 0.52169 1.01076 0.61529 0.0
H430 H 0.65994 0.52279 0.95322 0.0
H431 H 0.45521 0.41527 0.91217 0.0
H432 H 0.40995 0.34267 0.94831 0.0
H433 H 0.4265 0.31029 0.99221 0.0
H434 H 0.62582 0.42237 0.03818 0.0
H435 H 0.6756 0.49058 -0.00107 0.0
C436 C 0.60547 0.48356 0.95238 0.0
C437 C 0.5612 0.47433 0.92996 0.0
C438 C 0.57891 0.44206 0.97382 0.0
C439 C 0.49058 0.4234 0.92913 0.0
C440 C 0.46454 0.38161 0.94973 0.0
C441 C 0.48082 0.34968 -0.00618 0.0
C442 C 0.52177 0.36068 0.01834 0.0
C443 C 0.50806 0.39057 0.97223 0.0
C444 C 0.59274 0.4116 0.01944 0.0
C445 C 0.62122 0.45141 -0.00282 0.0
H446 H 0.14806 0.50983 0.23853 0.0
H447 H 0.19131 0.66877 0.2347 0.0
H448 H 0.18273 0.67201 0.28842 0.0
H449 H 0.16599 0.63109 0.33658 0.0
H450 H 0.12709 0.47397 0.34082 0.0
H451 H 0.13007 0.46825 0.28692 0.0
C452 C 0.15538 0.54504 0.2495 0.0
C453 C 0.17006 0.5889 0.23269 0.0
C454 C 0.15118 0.54696 0.28047 0.0
C455 C 0.17936 0.63425 0.24713 0.0
C456 C 0.17478 0.63625 0.27786 0.0
C457 C 0.15868 0.59578 0.32576 0.0
C458 C 0.14669 0.55319 0.34283 0.0
C459 C 0.1613 0.59312 0.29478 0.0
C460 C 0.13581 0.50711 0.3283 0.0
C461 C 0.13793 0.50397 0.29745 0.0
loop_
_geom_bond_atom_site_label_1
_geom_bond_atom_site_label_2
_geom_bond_distance
_geom_bond_site_symmetry_2
_ccdc_geom_bond_type
Ho0 C3 2.811 . S
Ho0 O20 2.322 . S
Ho0 O22 2.378 . S
Ho0 O23 2.524 . S
Ho0 O24 2.381 . S
Ho0 O25 2.669 . S
Ho0 O27 2.346 1_455 S
Ho0 O31 2.305 . S
Ho1 C12 2.811 . S
Ho1 O21 2.346 1_655 S
Ho1 O25 2.305 1_655 S
Ho1 O26 2.322 . S
Ho1 O28 2.378 . S
Ho1 O29 2.524 . S
Ho1 O30 2.381 . S
Ho1 O31 2.669 1_655 S
C2 O20 1.259 . S
C2 O21 1.268 . S
C3 Ho0 2.811 . S
C3 C4 1.488 . S
C3 O22 1.215 . S
C3 O23 1.289 . S
C4 C3 1.488 . S
C4 C5 1.348 . S
C4 C9 1.413 . S
C5 C4 1.348 . S
C5 C6 1.442 . S
C5 H32 0.930 . S
C6 C5 1.442 . S
C6 C7 1.381 . S
C6 H33 0.931 . S
C7 C6 1.381 . S
C7 C8 1.321 . S
C8 C7 1.321 . S
C8 C9 1.403 . S
C8 H34 0.934 . S
C9 C4 1.413 . S
C9 C8 1.403 . S
C9 H35 0.930 . S
C10 O24 1.275 . S
C10 O25 1.256 . S
C11 O26 1.259 . S
C11 O27 1.268 . S
C12 Ho1 2.811 . S
C12 C13 1.488 . S
C12 O28 1.215 . S
C12 O29 1.289 . S
C13 C12 1.488 . S
C13 C14 1.348 . S
C13 C18 1.413 . S
C14 C13 1.348 . S
C14 C15 1.442 . S
C14 H36 0.930 . S
C15 C14 1.442 . S
C15 C16 1.381 . S
C15 H37 0.931 . S
C16 C15 1.381 . S
C16 C17 1.321 . S
C17 C16 1.321 . S
C17 C18 1.403 . S
C17 H38 0.934 . S
C18 C13 1.413 . S
C18 C17 1.403 . S
C18 H39 0.930 . S
C19 O30 1.275 1_455 S
C19 O31 1.256 . S
O20 Ho0 2.322 . S
O20 C2 1.259 . S
O21 Ho1 2.346 1_455 S
O21 C2 1.268 . S
O22 Ho0 2.378 . S
O22 C3 1.215 . S
O23 Ho0 2.524 . S
O23 C3 1.289 . S
O24 Ho0 2.381 . S
O24 C10 1.275 . S
O25 Ho0 2.669 . S
O25 Ho1 2.305 1_455 S
O25 C10 1.256 . S
O26 Ho1 2.322 . S
O26 C11 1.259 . S
O27 Ho0 2.346 1_655 S
O27 C11 1.268 . S
O28 Ho1 2.378 . S
O28 C12 1.215 . S
O29 Ho1 2.524 . S
O29 C12 1.289 . S
O30 Ho1 2.381 . S
O30 C19 1.275 1_655 S
O31 Ho0 2.305 . S
O31 Ho1 2.669 1_455 S
O31 C19 1.256 . S
H32 C5 0.930 . S
H33 C6 0.931 . S
H34 C8 0.934 . S
H35 C9 0.930 . S
H36 C14 0.930 . S
H37 C15 0.931 . S
H38 C17 0.934 . S
H39 C18 0.930 . S
Ho40 C43 2.811 . S
Ho40 O60 2.322 . S
Ho40 O62 2.378 . S
Ho40 O63 2.524 . S
Ho40 O64 2.381 . S
Ho40 O65 2.669 1_565 S
Ho40 O67 2.346 1_565 S
Ho40 O71 2.305 . S
Ho41 C52 2.811 . S
Ho41 O61 2.346 1_545 S
Ho41 O65 2.305 . S
Ho41 O66 2.322 . S
Ho41 O68 2.378 . S
Ho41 O69 2.524 . S
Ho41 O70 2.381 . S
Ho41 O71 2.669 1_545 S
C42 O60 1.259 . S
C42 O61 1.268 . S
C43 Ho40 2.811 . S
C43 C44 1.488 . S
C43 O62 1.215 . S
C43 O63 1.289 . S
C44 C43 1.488 . S
C44 C45 1.348 . S
C44 C49 1.413 . S
C45 C44 1.348 . S
C45 C46 1.442 . S
C45 H72 0.930 . S
C46 C45 1.442 . S
C46 C47 1.381 . S
C46 H73 0.931 . S
C47 C46 1.381 . S
C47 C48 1.321 . S
C48 C47 1.321 . S
C48 C49 1.403 . S
C48 H74 0.934 . S
C49 C44 1.413 . S
C49 C48 1.403 . S
C49 H75 0.930 . S
C50 O64 1.275 1_545 S
C50 O65 1.256 . S
C51 O66 1.259 . S
C51 O67 1.268 . S
C52 Ho41 2.811 . S
C52 C53 1.488 . S
C52 O68 1.215 . S
C52 O69 1.289 . S
C53 C52 1.488 . S
C53 C54 1.348 . S
C53 C58 1.413 . S
C54 C53 1.348 . S
C54 C55 1.442 . S
C54 H76 0.930 . S
C55 C54 1.442 . S
C55 C56 1.381 . S
C55 H77 0.931 . S
C56 C55 1.381 . S
C56 C57 1.321 . S
C57 C56 1.321 . S
C57 C58 1.403 . S
C57 H78 0.934 . S
C58 C53 1.413 . S
C58 C57 1.403 . S
C58 H79 0.930 . S
C59 O70 1.275 . S
C59 O71 1.256 1_545 S
O60 Ho40 2.322 . S
O60 C42 1.259 . S
O61 Ho41 2.346 1_565 S
O61 C42 1.268 . S
O62 Ho40 2.378 . S
O62 C43 1.215 . S
O63 Ho40 2.524 . S
O63 C43 1.289 . S
O64 Ho40 2.381 . S
O64 C50 1.275 1_565 S
O65 Ho40 2.669 1_545 S
O65 Ho41 2.305 . S
O65 C50 1.256 . S
O66 Ho41 2.322 . S
O66 C51 1.259 . S
O67 Ho40 2.346 1_545 S
O67 C51 1.268 . S
O68 Ho41 2.378 . S
O68 C52 1.215 . S
O69 Ho41 2.524 . S
O69 C52 1.289 . S
O70 Ho41 2.381 . S
O70 C59 1.275 . S
O71 Ho40 2.305 . S
O71 Ho41 2.669 1_565 S
O71 C59 1.256 1_565 S
H72 C45 0.930 . S
H73 C46 0.931 . S
H74 C48 0.934 . S
H75 C49 0.930 . S
H76 C54 0.930 . S
H77 C55 0.931 . S
H78 C57 0.934 . S
H79 C58 0.930 . S
Ho80 C83 2.811 . S
Ho80 O100 2.322 . S
Ho80 O102 2.378 . S
Ho80 O103 2.524 . S
Ho80 O104 2.381 . S
Ho80 O105 2.669 . S
Ho80 O107 2.346 . S
Ho80 O111 2.305 . S
Ho81 C92 2.811 . S
Ho81 O101 2.346 . S
Ho81 O105 2.305 . S
Ho81 O106 2.322 . S
Ho81 O108 2.378 . S
Ho81 O109 2.524 . S
Ho81 O110 2.381 . S
Ho81 O111 2.669 . S
C82 O100 1.259 . S
C82 O101 1.268 . S
C83 Ho80 2.811 . S
C83 C84 1.488 . S
C83 O102 1.215 . S
C83 O103 1.289 . S
C84 C83 1.488 . S
C84 C85 1.348 . S
C84 C89 1.413 . S
C85 C84 1.348 . S
C85 C86 1.442 . S
C85 H112 0.930 . S
C86 C85 1.442 . S
C86 C87 1.381 . S
C86 H113 0.931 . S
C87 C86 1.381 . S
C87 C88 1.321 . S
C88 C87 1.321 . S
C88 C89 1.403 . S
C88 H114 0.934 . S
C89 C84 1.413 . S
C89 C88 1.403 . S
C89 H115 0.930 . S
C90 O104 1.275 . S
C90 O105 1.256 . S
C91 O106 1.259 . S
C91 O107 1.268 . S
C92 Ho81 2.811 . S
C92 C93 1.488 . S
C92 O108 1.215 . S
C92 O109 1.289 . S
C93 C92 1.488 . S
C93 C94 1.348 . S
C93 C98 1.413 . S
C94 C93 1.348 . S
C94 C95 1.442 . S
C94 H116 0.930 . S
C95 C94 1.442 . S
C95 C96 1.381 . S
C95 H117 0.931 . S
C96 C95 1.381 . S
C96 C97 1.321 . S
C97 C96 1.321 . S
C97 C98 1.403 . S
C97 H118 0.934 . S
C98 C93 1.413 . S
C98 C97 1.403 . S
C98 H119 0.930 . S
C99 O110 1.275 . S
C99 O111 1.256 . S
O100 Ho80 2.322 . S
O100 C82 1.259 . S
O101 Ho81 2.346 . S
O101 C82 1.268 . S
O102 Ho80 2.378 . S
O102 C83 1.215 . S
O103 Ho80 2.524 . S
O103 C83 1.289 . S
O104 Ho80 2.381 . S
O104 C90 1.275 . S
O105 Ho80 2.669 . S
O105 Ho81 2.305 . S
O105 C90 1.256 . S
O106 Ho81 2.322 . S
O106 C91 1.259 . S
O107 Ho80 2.346 . S
O107 C91 1.268 . S
O108 Ho81 2.378 . S
O108 C92 1.215 . S
O109 Ho81 2.524 . S
O109 C92 1.289 . S
O110 Ho81 2.381 . S
O110 C99 1.275 . S
O111 Ho80 2.305 . S
O111 Ho81 2.669 . S
O111 C99 1.256 . S
H112 C85 0.930 . S
H113 C86 0.931 . S
H114 C88 0.934 . S
H115 C89 0.930 . S
H116 C94 0.930 . S
H117 C95 0.931 . S
H118 C97 0.934 . S
H119 C98 0.930 . S
H120 C123 0.931 . S
H121 C126 0.928 . S
H122 C128 0.930 . S
C123 H120 0.931 . S
C123 C124 1.413 . S
C123 C125 1.360 1_565 S
C124 C123 1.413 . S
C124 C128 1.429 1_565 S
C125 C123 1.360 1_545 S
C125 C126 1.372 . S
C126 H121 0.928 . S
C126 C125 1.372 . S
C126 C127 1.404 . S
C127 C126 1.404 . S
C127 C128 1.391 . S
C128 H122 0.930 . S
C128 C124 1.429 1_545 S
C128 C127 1.391 . S
H129 C132 0.931 . S
H130 C135 0.928 . S
H131 C137 0.930 . S
C132 H129 0.931 . S
C132 C133 1.413 . S
C132 C134 1.360 . S
C133 C132 1.413 . S
C133 C137 1.429 . S
C134 C132 1.360 . S
C134 C135 1.372 . S
C135 H130 0.928 . S
C135 C134 1.372 . S
C135 C136 1.404 . S
C136 C135 1.404 . S
C136 C137 1.391 . S
C137 H131 0.930 . S
C137 C133 1.429 . S
C137 C136 1.391 . S
H138 C141 0.931 1_655 S
H139 C144 0.928 . S
H140 C146 0.930 . S
C141 H138 0.931 1_455 S
C141 C142 1.413 . S
C141 C143 1.360 . S
C142 C141 1.413 . S
C142 C146 1.429 . S
C143 C141 1.360 . S
C143 C144 1.372 . S
C144 H139 0.928 . S
C144 C143 1.372 . S
C144 C145 1.404 . S
C145 C144 1.404 . S
C145 C146 1.391 . S
C146 H140 0.930 . S
C146 C142 1.429 . S
C146 C145 1.391 . S
H147 C150 0.931 . S
H148 C153 0.928 . S
H149 C155 0.930 . S
C150 H147 0.931 . S
C150 C151 1.413 . S
C150 C152 1.358 1_655 S
C151 C150 1.413 . S
C151 C155 1.429 1_655 S
C152 C150 1.358 1_455 S
C152 C153 1.373 . S
C153 H148 0.928 . S
C153 C152 1.373 . S
C153 C154 1.404 . S
C154 C153 1.404 . S
C154 C155 1.391 . S
C155 H149 0.930 . S
C155 C151 1.429 1_455 S
C155 C154 1.391 . S
H156 C159 0.931 . S
H157 C162 0.928 . S
H158 C164 0.930 . S
C159 H156 0.931 . S
C159 C160 1.413 . S
C159 C161 1.360 1_545 S
C160 C159 1.413 . S
C160 C164 1.429 . S
C161 C159 1.360 1_565 S
C161 C162 1.372 . S
C162 H157 0.928 . S
C162 C161 1.372 . S
C162 C163 1.404 . S
C163 C162 1.404 . S
C163 C164 1.391 1_565 S
C164 H158 0.930 . S
C164 C160 1.429 . S
C164 C163 1.391 1_545 S
H165 C168 0.931 . S
H166 C171 0.928 . S
H167 C173 0.930 . S
C168 H165 0.931 . S
C168 C169 1.413 . S
C168 C170 1.360 . S
C169 C168 1.413 . S
C169 C173 1.429 . S
C170 C168 1.360 . S
C170 C171 1.372 . S
C171 H166 0.928 . S
C171 C170 1.372 . S
C171 C172 1.404 . S
C172 C171 1.404 . S
C172 C173 1.391 . S
C173 H167 0.930 . S
C173 C169 1.429 . S
C173 C172 1.391 . S
H174 C180 0.930 . S
H175 C183 0.930 . S
H176 C184 0.930 . S
H177 C185 0.930 . S
H178 C188 0.930 . S
H179 C189 0.930 . S
C180 H174 0.930 . S
C180 C181 1.355 . S
C180 C182 1.415 . S
C181 C180 1.355 . S
C181 C183 1.419 . S
C182 C180 1.415 . S
C182 C187 1.425 . S
C182 C189 1.409 . S
C183 H175 0.930 . S
C183 C181 1.419 . S
C183 C184 1.362 . S
C184 H176 0.930 . S
C184 C183 1.362 . S
C184 C187 1.409 . S
C185 H177 0.930 . S
C185 C186 1.355 . S
C185 C187 1.415 . S
C186 C185 1.355 . S
C186 C188 1.419 . S
C187 C182 1.425 . S
C187 C184 1.409 . S
C187 C185 1.415 . S
C188 H178 0.930 . S
C188 C186 1.419 . S
C188 C189 1.362 . S
C189 H179 0.930 . S
C189 C182 1.409 . S
C189 C188 1.362 . S
H190 C196 0.930 . S
H191 C199 0.930 . S
H192 C200 0.930 . S
H193 C201 0.930 . S
H194 C204 0.930 . S
H195 C205 0.930 . S
C196 H190 0.930 . S
C196 C197 1.355 . S
C196 C198 1.415 . S
C197 C196 1.355 . S
C197 C199 1.419 . S
C198 C196 1.415 . S
C198 C203 1.425 . S
C198 C205 1.409 . S
C199 H191 0.930 . S
C199 C197 1.419 . S
C199 C200 1.362 . S
C200 H192 0.930 . S
C200 C199 1.362 . S
C200 C203 1.409 . S
C201 H193 0.930 . S
C201 C202 1.355 . S
C201 C203 1.415 . S
C202 C201 1.355 . S
C202 C204 1.419 . S
C203 C198 1.425 . S
C203 C200 1.409 . S
C203 C201 1.415 . S
C204 H194 0.930 . S
C204 C202 1.419 . S
C204 C205 1.362 . S
C205 H195 0.930 . S
C205 C198 1.409 . S
C205 C204 1.362 . S
H206 C212 0.930 . S
H207 C215 0.930 . S
H208 C216 0.930 . S
H209 C217 0.930 . S
H210 C220 0.930 . S
H211 C221 0.930 . S
C212 H206 0.930 . S
C212 C213 1.355 . S
C212 C214 1.415 . S
C213 C212 1.355 . S
C213 C215 1.419 . S
C214 C212 1.415 . S
C214 C219 1.425 . S
C214 C221 1.409 . S
C215 H207 0.930 . S
C215 C213 1.419 . S
C215 C216 1.362 . S
C216 H208 0.930 . S
C216 C215 1.362 . S
C216 C219 1.409 . S
C217 H209 0.930 . S
C217 C218 1.355 . S
C217 C219 1.415 . S
C218 C217 1.355 . S
C218 C220 1.419 . S
C219 C214 1.425 . S
C219 C216 1.409 . S
C219 C217 1.415 . S
C220 H210 0.930 . S
C220 C218 1.419 . S
C220 C221 1.362 . S
C221 H211 0.930 . S
C221 C214 1.409 . S
C221 C220 1.362 . S
H222 C228 0.930 . S
H223 C231 0.930 . S
H224 C232 0.930 . S
H225 C233 0.930 . S
H226 C236 0.930 . S
H227 C237 0.930 . S
C228 H222 0.930 . S
C228 C229 1.355 . S
C228 C230 1.415 . S
C229 C228 1.355 . S
C229 C231 1.419 . S
C230 C228 1.415 . S
C230 C235 1.425 . S
C230 C237 1.409 . S
C231 H223 0.930 . S
C231 C229 1.419 . S
C231 C232 1.362 . S
C232 H224 0.930 . S
C232 C231 1.362 . S
C232 C235 1.409 . S
C233 H225 0.930 . S
C233 C234 1.355 . S
C233 C235 1.415 . S
C234 C233 1.355 . S
C234 C236 1.419 . S
C235 C230 1.425 . S
C235 C232 1.409 . S
C235 C233 1.415 . S
C236 H226 0.930 . S
C236 C234 1.419 . S
C236 C237 1.362 . S
C237 H227 0.930 . S
C237 C230 1.409 . S
C237 C236 1.362 . S
H238 C244 0.930 . S
H239 C247 0.930 . S
H240 C248 0.930 . S
H241 C249 0.930 . S
H242 C252 0.930 . S
H243 C253 0.930 . S
C244 H238 0.930 . S
C244 C245 1.355 . S
C244 C246 1.415 . S
C245 C244 1.355 . S
C245 C247 1.419 . S
C246 C244 1.415 . S
C246 C251 1.425 . S
C246 C253 1.409 . S
C247 H239 0.930 . S
C247 C245 1.419 . S
C247 C248 1.362 . S
C248 H240 0.930 . S
C248 C247 1.362 . S
C248 C251 1.409 . S
C249 H241 0.930 . S
C249 C250 1.355 . S
C249 C251 1.415 . S
C250 C249 1.355 . S
C250 C252 1.419 . S
C251 C246 1.425 . S
C251 C248 1.409 . S
C251 C249 1.415 . S
C252 H242 0.930 . S
C252 C250 1.419 . S
C252 C253 1.362 . S
C253 H243 0.930 . S
C253 C246 1.409 . S
C253 C252 1.362 . S
H254 C260 0.930 . S
H255 C263 0.930 . S
H256 C264 0.930 . S
H257 C265 0.930 . S
H258 C268 0.930 . S
H259 C269 0.930 . S
C260 H254 0.930 . S
C260 C261 1.355 . S
C260 C262 1.415 . S
C261 C260 1.355 . S
C261 C263 1.419 . S
C262 C260 1.415 . S
C262 C267 1.425 . S
C262 C269 1.409 . S
C263 H255 0.930 . S
C263 C261 1.419 . S
C263 C264 1.362 . S
C264 H256 0.930 . S
C264 C263 1.362 . S
C264 C267 1.409 . S
C265 H257 0.930 . S
C265 C266 1.355 . S
C265 C267 1.415 . S
C266 C265 1.355 . S
C266 C268 1.419 . S
C267 C262 1.425 . S
C267 C264 1.409 . S
C267 C265 1.415 . S
C268 H258 0.930 . S
C268 C266 1.419 . S
C268 C269 1.362 . S
C269 H259 0.930 . S
C269 C262 1.409 . S
C269 C268 1.362 . S
H270 C276 0.930 . S
H271 C279 0.930 . S
H272 C280 0.930 . S
H273 C281 0.930 . S
H274 C284 0.930 . S
H275 C285 0.930 . S
C276 H270 0.930 . S
C276 C277 1.355 . S
C276 C278 1.415 . S
C277 C276 1.355 . S
C277 C279 1.419 . S
C278 C276 1.415 . S
C278 C283 1.425 . S
C278 C285 1.409 . S
C279 H271 0.930 . S
C279 C277 1.419 . S
C279 C280 1.362 . S
C280 H272 0.930 . S
C280 C279 1.362 . S
C280 C283 1.409 . S
C281 H273 0.930 . S
C281 C282 1.355 . S
C281 C283 1.415 . S
C282 C281 1.355 . S
C282 C284 1.419 . S
C283 C278 1.425 . S
C283 C280 1.409 . S
C283 C281 1.415 . S
C284 H274 0.930 . S
C284 C282 1.419 . S
C284 C285 1.362 . S
C285 H275 0.930 . S
C285 C278 1.409 . S
C285 C284 1.362 . S
H286 C292 0.930 . S
H287 C295 0.930 . S
H288 C296 0.930 . S
H289 C297 0.930 . S
H290 C300 0.930 . S
H291 C301 0.930 . S
C292 H286 0.930 . S
C292 C293 1.355 . S
C292 C294 1.415 . S
C293 C292 1.355 . S
C293 C295 1.419 . S
C294 C292 1.415 . S
C294 C299 1.425 . S
C294 C301 1.409 . S
C295 H287 0.930 . S
C295 C293 1.419 . S
C295 C296 1.362 . S
C296 H288 0.930 . S
C296 C295 1.362 . S
C296 C299 1.409 . S
C297 H289 0.930 . S
C297 C298 1.355 . S
C297 C299 1.415 . S
C298 C297 1.355 . S
C298 C300 1.419 . S
C299 C294 1.425 . S
C299 C296 1.409 . S
C299 C297 1.415 . S
C300 H290 0.930 . S
C300 C298 1.419 . S
C300 C301 1.362 . S
C301 H291 0.930 . S
C301 C294 1.409 . S
C301 C300 1.362 . S
H302 C308 0.930 . S
H303 C311 0.930 . S
H304 C312 0.930 . S
H305 C313 0.930 . S
H306 C316 0.930 . S
H307 C317 0.930 . S
C308 H302 0.930 . S
C308 C309 1.355 . S
C308 C310 1.415 . S
C309 C308 1.355 . S
C309 C311 1.419 . S
C310 C308 1.415 . S
C310 C315 1.425 . S
C310 C317 1.409 . S
C311 H303 0.930 . S
C311 C309 1.419 . S
C311 C312 1.362 . S
C312 H304 0.930 . S
C312 C311 1.362 . S
C312 C315 1.409 . S
C313 H305 0.930 . S
C313 C314 1.355 . S
C313 C315 1.415 . S
C314 C313 1.355 . S
C314 C316 1.419 . S
C315 C310 1.425 . S
C315 C312 1.409 . S
C315 C313 1.415 . S
C316 H306 0.930 . S
C316 C314 1.419 . S
C316 C317 1.362 . S
C317 H307 0.930 . S
C317 C310 1.409 . S
C317 C316 1.362 . S
H318 C324 0.930 . S
H319 C327 0.930 . S
H320 C328 0.930 . S
H321 C329 0.930 . S
H322 C332 0.930 . S
H323 C333 0.930 . S
C324 H318 0.930 . S
C324 C325 1.355 . S
C324 C326 1.415 . S
C325 C324 1.355 . S
C325 C327 1.419 . S
C326 C324 1.415 . S
C326 C331 1.425 . S
C326 C333 1.409 . S
C327 H319 0.930 . S
C327 C325 1.419 . S
C327 C328 1.362 . S
C328 H320 0.930 . S
C328 C327 1.362 . S
C328 C331 1.409 . S
C329 H321 0.930 . S
C329 C330 1.355 . S
C329 C331 1.415 . S
C330 C329 1.355 . S
C330 C332 1.419 . S
C331 C326 1.425 . S
C331 C328 1.409 . S
C331 C329 1.415 . S
C332 H322 0.930 . S
C332 C330 1.419 . S
C332 C333 1.362 . S
C333 H323 0.930 . S
C333 C326 1.409 . S
C333 C332 1.362 . S
H334 C340 0.930 . S
H335 C343 0.930 . S
H336 C344 0.930 . S
H337 C345 0.930 . S
H338 C348 0.930 . S
H339 C349 0.930 . S
C340 H334 0.930 . S
C340 C341 1.355 . S
C340 C342 1.415 . S
C341 C340 1.355 . S
C341 C343 1.419 . S
C342 C340 1.415 . S
C342 C347 1.425 . S
C342 C349 1.409 . S
C343 H335 0.930 . S
C343 C341 1.419 . S
C343 C344 1.362 . S
C344 H336 0.930 . S
C344 C343 1.362 . S
C344 C347 1.409 . S
C345 H337 0.930 . S
C345 C346 1.355 . S
C345 C347 1.415 . S
C346 C345 1.355 . S
C346 C348 1.419 . S
C347 C342 1.425 . S
C347 C344 1.409 . S
C347 C345 1.415 . S
C348 H338 0.930 . S
C348 C346 1.419 . S
C348 C349 1.362 . S
C349 H339 0.930 . S
C349 C342 1.409 . S
C349 C348 1.362 . S
H350 C356 0.930 . S
H351 C359 0.930 . S
H352 C360 0.930 . S
H353 C361 0.930 . S
H354 C364 0.930 . S
H355 C365 0.930 . S
C356 H350 0.930 . S
C356 C357 1.355 . S
C356 C358 1.415 . S
C357 C356 1.355 . S
C357 C359 1.419 . S
C358 C356 1.415 . S
C358 C363 1.425 . S
C358 C365 1.409 . S
C359 H351 0.930 . S
C359 C357 1.419 . S
C359 C360 1.362 . S
C360 H352 0.930 . S
C360 C359 1.362 . S
C360 C363 1.409 . S
C361 H353 0.930 . S
C361 C362 1.355 . S
C361 C363 1.415 . S
C362 C361 1.355 . S
C362 C364 1.419 . S
C363 C358 1.425 . S
C363 C360 1.409 . S
C363 C361 1.415 . S
C364 H354 0.930 . S
C364 C362 1.419 . S
C364 C365 1.362 . S
C365 H355 0.930 . S
C365 C358 1.409 . S
C365 C364 1.362 . S
H366 C372 0.930 . S
H367 C375 0.930 . S
H368 C376 0.930 . S
H369 C377 0.930 . S
H370 C380 0.930 . S
H371 C381 0.930 . S
C372 H366 0.930 . S
C372 C373 1.355 . S
C372 C374 1.415 . S
C373 C372 1.355 . S
C373 C375 1.419 . S
C374 C372 1.415 . S
C374 C379 1.425 . S
C374 C381 1.409 . S
C375 H367 0.930 . S
C375 C373 1.419 . S
C375 C376 1.362 . S
C376 H368 0.930 . S
C376 C375 1.362 . S
C376 C379 1.409 . S
C377 H369 0.930 . S
C377 C378 1.355 . S
C377 C379 1.415 1_556 S
C378 C377 1.355 . S
C378 C380 1.419 . S
C379 C374 1.425 . S
C379 C376 1.409 . S
C379 C377 1.415 1_554 S
C380 H370 0.930 . S
C380 C378 1.419 . S
C380 C381 1.362 1_556 S
C381 H371 0.930 . S
C381 C374 1.409 . S
C381 C380 1.362 1_554 S
H382 C388 0.930 . S
H383 C391 0.930 . S
H384 C392 0.930 . S
H385 C393 0.930 . S
H386 C396 0.930 . S
H387 C397 0.930 . S
C388 H382 0.930 . S
C388 C389 1.355 1_565 S
C388 C390 1.415 1_565 S
C389 C388 1.355 1_545 S
C389 C391 1.419 . S
C390 C388 1.415 1_545 S
C390 C395 1.425 . S
C390 C397 1.409 1_545 S
C391 H383 0.930 . S
C391 C389 1.419 . S
C391 C392 1.362 . S
C392 H384 0.930 . S
C392 C391 1.362 . S
C392 C395 1.409 . S
C393 H385 0.930 . S
C393 C394 1.355 . S
C393 C395 1.415 . S
C394 C393 1.355 . S
C394 C396 1.419 1_545 S
C395 C390 1.425 . S
C395 C392 1.409 . S
C395 C393 1.415 . S
C396 H386 0.930 . S
C396 C394 1.419 1_565 S
C396 C397 1.362 . S
C397 H387 0.930 . S
C397 C390 1.409 1_565 S
C397 C396 1.362 . S
H398 C404 0.930 . S
H399 C407 0.930 . S
H400 C408 0.930 . S
H401 C409 0.930 . S
H402 C412 0.930 . S
H403 C413 0.930 . S
C404 H398 0.930 . S
C404 C405 1.355 . S
C404 C406 1.415 . S
C405 C404 1.355 . S
C405 C407 1.419 . S
C406 C404 1.415 . S
C406 C411 1.425 . S
C406 C413 1.409 . S
C407 H399 0.930 . S
C407 C405 1.419 . S
C407 C408 1.362 . S
C408 H400 0.930 . S
C408 C407 1.362 . S
C408 C411 1.409 . S
C409 H401 0.930 . S
C409 C410 1.355 . S
C409 C411 1.415 . S
C410 C409 1.355 . S
C410 C412 1.419 . S
C411 C406 1.425 . S
C411 C408 1.409 . S
C411 C409 1.415 . S
C412 H402 0.930 . S
C412 C410 1.419 . S
C412 C413 1.362 . S
C413 H403 0.930 . S
C413 C406 1.409 . S
C413 C412 1.362 . S
H414 C420 0.930 . S
H415 C423 0.930 . S
H416 C424 0.930 . S
H417 C425 0.930 . S
H418 C428 0.930 . S
H419 C429 0.930 . S
C420 H414 0.930 . S
C420 C421 1.355 1_565 S
C420 C422 1.415 . S
C421 C420 1.355 1_545 S
C421 C423 1.419 . S
C422 C420 1.415 . S
C422 C427 1.425 1_565 S
C422 C429 1.409 . S
C423 H415 0.930 . S
C423 C421 1.419 . S
C423 C424 1.362 . S
C424 H416 0.930 . S
C424 C423 1.362 . S
C424 C427 1.409 . S
C425 H417 0.930 . S
C425 C426 1.355 1_545 S
C425 C427 1.415 . S
C426 C425 1.355 1_565 S
C426 C428 1.419 . S
C427 C422 1.425 1_545 S
C427 C424 1.409 . S
C427 C425 1.415 . S
C428 H418 0.930 . S
C428 C426 1.419 . S
C428 C429 1.362 . S
C429 H419 0.930 . S
C429 C422 1.409 . S
C429 C428 1.362 . S
H430 C436 0.930 . S
H431 C439 0.930 . S
H432 C440 0.930 . S
H433 C441 0.929 . S
H434 C444 0.930 . S
H435 C445 0.930 . S
C436 H430 0.930 . S
C436 C437 1.355 . S
C436 C438 1.415 . S
C437 C436 1.355 . S
C437 C439 1.419 . S
C438 C436 1.415 . S
C438 C443 1.425 . S
C438 C445 1.409 . S
C439 H431 0.930 . S
C439 C437 1.419 . S
C439 C440 1.362 . S
C440 H432 0.930 . S
C440 C439 1.362 . S
C440 C443 1.409 . S
C441 H433 0.929 . S
C441 C442 1.351 . S
C441 C443 1.418 1_554 S
C442 C441 1.351 . S
C442 C444 1.419 . S
C443 C438 1.425 . S
C443 C440 1.409 . S
C443 C441 1.418 1_556 S
C444 H434 0.930 . S
C444 C442 1.419 . S
C444 C445 1.362 1_554 S
C445 H435 0.930 . S
C445 C438 1.409 . S
C445 C444 1.362 1_556 S
H446 C452 0.930 . S
H447 C455 0.930 . S
H448 C456 0.930 . S
H449 C457 0.930 . S
H450 C460 0.930 . S
H451 C461 0.930 . S
C452 H446 0.930 . S
C452 C453 1.355 1_655 S
C452 C454 1.415 . S
C453 C452 1.355 1_455 S
C453 C455 1.419 . S
C454 C452 1.415 . S
C454 C459 1.425 1_655 S
C454 C461 1.409 . S
C455 H447 0.930 . S
C455 C453 1.419 . S
C455 C456 1.362 . S
C456 H448 0.930 . S
C456 C455 1.362 . S
C456 C459 1.409 . S
C457 H449 0.930 . S
C457 C458 1.352 . S
C457 C459 1.415 . S
C458 C457 1.352 . S
C458 C460 1.424 1_455 S
C459 C454 1.425 1_455 S
C459 C456 1.409 . S
C459 C457 1.415 . S
C460 H450 0.930 . S
C460 C458 1.424 1_655 S
C460 C461 1.362 . S
C461 H451 0.930 . S
C461 C454 1.409 . S
C461 C460 1.362 . S
C181 C7 0.924 . S
C186 C169 0.989 . S
C197 C51 1.838 . S
C202 C151 1.830 . S
C213 C87 1.456 . S
C218 C163 1.509 . S
C229 C16 0.810 . S
C234 C172 0.761 . S
C250 C154 1.864 . S
C245 C42 1.840 . S
C266 C160 1.463 . S
C261 C96 1.435 . S
C277 C47 1.342 . S
C282 C133 1.391 . S
C293 C91 3.009 . S
C298 C142 2.970 1_655 S
C309 C2 1.902 . S
C314 C124 1.887 . S
C330 C136 1.473 . S
C325 C56 1.415 . S
C346 C145 2.920 . S
C341 C82 2.939 . S
C357 C11 1.832 . S
C362 C127 1.802 . S
C378 C143 1.793 . S
C373 C19 1.708 . S
C389 C50 1.338 . S
C394 C125 1.349 . S
C405 C99 1.407 . S
C410 C134 1.500 . S
C426 C161 1.472 . S
C421 C59 1.419 . S
C442 C170 1.006 . S
C437 C90 1.043 . S
C453 C10 1.331 . S
C458 C152 1.331 . S
