# Generated by pormake.
# Topology wbl, (4,4)-cn, num edge types: 1
# Building blocks:
#     Node 0, Type 0, BuildingBlock: MIFKUJ_clean_linker_1, # of connection points: 4
#     Node 1, Type 0, BuildingBlock: MIFKUJ_clean_linker_1, # of connection points: 4
#     Node 2, Type 0, BuildingBlock: MIFKUJ_clean_linker_1, # of connection points: 4
#     Node 3, Type 0, BuildingBlock: MIFKUJ_clean_linker_1, # of connection points: 4
#     Node 4, Type 0, BuildingBlock: MIFKUJ_clean_linker_1, # of connection points: 4
#     Node 5, Type 0, BuildingBlock: MIFKUJ_clean_linker_1, # of connection points: 4
#     Node 6, Type 0, BuildingBlock: MIFKUJ_clean_linker_1, # of connection points: 4
#     Node 7, Type 0, BuildingBlock: MIFKUJ_clean_linker_1, # of connection points: 4
#     Node 8, Type 1, BuildingBlock: TATPOV_clean_sbu_0, # of connection points: 4
#     Node 9, Type 1, BuildingBlock: TATPOV_clean_sbu_0, # of connection points: 4
#     Node 10, Type 1, BuildingBlock: TATPOV_clean_sbu_0, # of connection points: 4
#     Node 11, Type 1, BuildingBlock: TATPOV_clean_sbu_0, # of connection points: 4
#     Node 12, Type 1, BuildingBlock: TATPOV_clean_sbu_0, # of connection points: 4
#     Node 13, Type 1, BuildingBlock: TATPOV_clean_sbu_0, # of connection points: 4
#     Node 14, Type 1, BuildingBlock: TATPOV_clean_sbu_0, # of connection points: 4
#     Node 15, Type 1, BuildingBlock: TATPOV_clean_sbu_0, # of connection points: 4
#     Edge 16, Type (0, 1), BuildingBlock: AJUNOK_clean_linker_0, # of connection points: 2
#     Edge 17, Type (0, 1), BuildingBlock: AJUNOK_clean_linker_0, # of connection points: 2
#     Edge 18, Type (0, 1), BuildingBlock: AJUNOK_clean_linker_0, # of connection points: 2
#     Edge 19, Type (0, 1), BuildingBlock: AJUNOK_clean_linker_0, # of connection points: 2
#     Edge 20, Type (0, 1), BuildingBlock: AJUNOK_clean_linker_0, # of connection points: 2
#     Edge 21, Type (0, 1), BuildingBlock: AJUNOK_clean_linker_0, # of connection points: 2
#     Edge 22, Type (0, 1), BuildingBlock: AJUNOK_clean_linker_0, # of connection points: 2
#     Edge 23, Type (0, 1), BuildingBlock: AJUNOK_clean_linker_0, # of connection points: 2
#     Edge 24, Type (0, 1), BuildingBlock: AJUNOK_clean_linker_0, # of connection points: 2
#     Edge 25, Type (0, 1), BuildingBlock: AJUNOK_clean_linker_0, # of connection points: 2
#     Edge 26, Type (0, 1), BuildingBlock: AJUNOK_clean_linker_0, # of connection points: 2
#     Edge 27, Type (0, 1), BuildingBlock: AJUNOK_clean_linker_0, # of connection points: 2
#     Edge 28, Type (0, 1), BuildingBlock: AJUNOK_clean_linker_0, # of connection points: 2
#     Edge 29, Type (0, 1), BuildingBlock: AJUNOK_clean_linker_0, # of connection points: 2
#     Edge 30, Type (0, 1), BuildingBlock: AJUNOK_clean_linker_0, # of connection points: 2
#     Edge 31, Type (0, 1), BuildingBlock: AJUNOK_clean_linker_0, # of connection points: 2
#     Edge 32, Type (0, 1), BuildingBlock: AJUNOK_clean_linker_0, # of connection points: 2
#     Edge 33, Type (0, 1), BuildingBlock: AJUNOK_clean_linker_0, # of connection points: 2
#     Edge 34, Type (0, 1), BuildingBlock: AJUNOK_clean_linker_0, # of connection points: 2
#     Edge 35, Type (0, 1), BuildingBlock: AJUNOK_clean_linker_0, # of connection points: 2
#     Edge 36, Type (0, 1), BuildingBlock: AJUNOK_clean_linker_0, # of connection points: 2
#     Edge 37, Type (0, 1), BuildingBlock: AJUNOK_clean_linker_0, # of connection points: 2
#     Edge 38, Type (0, 1), BuildingBlock: AJUNOK_clean_linker_0, # of connection points: 2
#     Edge 39, Type (0, 1), BuildingBlock: AJUNOK_clean_linker_0, # of connection points: 2
#     Edge 40, Type (0, 1), BuildingBlock: AJUNOK_clean_linker_0, # of connection points: 2
#     Edge 41, Type (0, 1), BuildingBlock: AJUNOK_clean_linker_0, # of connection points: 2
#     Edge 42, Type (0, 1), BuildingBlock: AJUNOK_clean_linker_0, # of connection points: 2
#     Edge 43, Type (0, 1), BuildingBlock: AJUNOK_clean_linker_0, # of connection points: 2
#     Edge 44, Type (0, 1), BuildingBlock: AJUNOK_clean_linker_0, # of connection points: 2
#     Edge 45, Type (0, 1), BuildingBlock: AJUNOK_clean_linker_0, # of connection points: 2
#     Edge 46, Type (0, 1), BuildingBlock: AJUNOK_clean_linker_0, # of connection points: 2
#     Edge 47, Type (0, 1), BuildingBlock: AJUNOK_clean_linker_0, # of connection points: 2
# Relax obj value: 0.161
# Max RMSD: 0.154
# Mean RMSD: 0.128
data_MOF--net-wbl--node1-TATPOV_clean_sbu_0--node2-MIFKUJ_clean_linker_1--edge1-AJUNOK_clean_linker_0
_symmetry_space_group_name_H-M    P1
_symmetry_Int_Tables_number       1
_symmetry_cell_setting            triclinic
loop_
_symmetry_equiv_pos_as_xyz
'x, y, z'
_cell_length_a     35.879874
_cell_length_b     35.877918
_cell_length_c     57.307837
_cell_angle_alpha  91.496909
_cell_angle_beta   91.531562
_cell_angle_gamma 90.065904
loop_
_atom_site_label
_atom_site_type_symbol
_atom_site_fract_x
_atom_site_fract_y
_atom_site_fract_z
_atom_type_partial_charge
H0 H 0.05793 0.11343 0.39342 0.0
H1 H 0.0237 0.15217 0.42132 0.0
H2 H 0.92028 0.10205 0.39594 0.0
H3 H 0.95463 0.06436 0.36754 0.0
H4 H 0.05668 0.03508 0.39236 0.0
H5 H 0.02311 0.13653 0.34343 0.0
H6 H 0.97738 0.17906 0.32594 0.0
H7 H 0.92684 0.08675 0.28714 0.0
H8 H 0.97115 0.04382 0.30547 0.0
H9 H 0.04232 0.95522 0.30426 0.0
H10 H 0.07855 0.90869 0.28225 0.0
H11 H 0.18043 0.95612 0.31186 0.0
H12 H 0.14432 0.00244 0.33365 0.0
H13 H 0.04207 0.0335 0.30602 0.0
H14 H 0.06704 0.93248 0.35679 0.0
H15 H 0.09986 0.8865 0.38064 0.0
H16 H 0.16162 0.97522 0.41636 0.0
H17 H 0.12903 0.02107 0.39245 0.0
C18 C 0.00876 0.08625 0.37836 0.0
C19 C 0.02782 0.11126 0.39366 0.0
C20 C 0.00825 0.13326 0.40961 0.0
C21 C 0.96926 0.13036 0.41075 0.0
C22 C 0.95018 0.10565 0.39512 0.0
C23 C 0.96977 0.0839 0.379 0.0
C24 C 0.03001 0.06084 0.36289 0.0
C25 C 0.05404 0.03518 0.37345 0.0
C26 C 0.02533 0.06024 0.33827 0.0
C27 C 0.0001 0.08676 0.32619 0.0
C28 C 0.00201 0.1253 0.33134 0.0
C29 C 0.97621 0.14963 0.32124 0.0
C30 C 0.94888 0.1359 0.30533 0.0
C31 C 0.94792 0.09777 0.29934 0.0
C32 C 0.97322 0.07335 0.30977 0.0
C33 C 0.09068 0.98196 0.32075 0.0
C34 C 0.07248 0.95582 0.30574 0.0
C35 C 0.0931 0.92923 0.29329 0.0
C36 C 0.1322 0.92881 0.29548 0.0
C37 C 0.15032 0.95601 0.30976 0.0
C38 C 0.12975 0.98228 0.32232 0.0
C39 C 0.06903 0.00801 0.33557 0.0
C40 C 0.04495 0.0337 0.32491 0.0
C41 C 0.07323 0.00846 0.36018 0.0
C42 C 0.09565 0.98024 0.37279 0.0
C43 C 0.08816 0.94199 0.36943 0.0
C44 C 0.10676 0.91577 0.3831 0.0
C45 C 0.13274 0.92745 0.40055 0.0
C46 C 0.14112 0.96559 0.40334 0.0
C47 C 0.12267 0.99174 0.38964 0.0
H48 H -0.00043 0.45566 0.55318 0.0
H49 H 0.956 0.41019 0.53545 0.0
H50 H 0.86355 0.47965 0.55604 0.0
H51 H 0.90744 0.52443 0.57451 0.0
H52 H 0.01365 0.53406 0.55052 0.0
H53 H 0.9702 0.44322 0.60362 0.0
H54 H 0.92757 0.40654 0.62652 0.0
H55 H 0.88493 0.50795 0.65799 0.0
H56 H 0.92662 0.54459 0.63439 0.0
H57 H 0.01644 0.61364 0.64053 0.0
H58 H 0.0602 0.64723 0.6672 0.0
H59 H 0.15235 0.59018 0.63541 0.0
H60 H 0.10868 0.55543 0.60927 0.0
H61 H 0.00179 0.54268 0.63659 0.0
H62 H 0.0477 0.63368 0.58519 0.0
H63 H 0.09731 0.66916 0.56755 0.0
H64 H 0.13864 0.56817 0.5349 0.0
H65 H 0.08884 0.53249 0.55277 0.0
C66 C 0.95665 0.49311 0.56531 0.0
C67 C 0.96997 0.46156 0.55327 0.0
C68 C 0.94499 0.43573 0.543 0.0
C69 C 0.90628 0.44142 0.54425 0.0
C70 C 0.89319 0.47444 0.55491 0.0
C71 C 0.91818 0.50005 0.56541 0.0
C72 C 0.98257 0.51635 0.57995 0.0
C73 C 0.01125 0.5359 0.56935 0.0
C74 C 0.97903 0.51894 0.60447 0.0
C75 C 0.95126 0.49673 0.61702 0.0
C76 C 0.951 0.45763 0.61497 0.0
C77 C 0.92688 0.43667 0.62823 0.0
C78 C 0.90269 0.45437 0.64391 0.0
C79 C 0.90263 0.49353 0.6457 0.0
C80 C 0.92669 0.51448 0.63238 0.0
C81 C 0.05929 0.58233 0.6227 0.0
C82 C 0.04603 0.60823 0.63932 0.0
C83 C 0.07088 0.62738 0.65448 0.0
C84 C 0.10927 0.62104 0.65313 0.0
C85 C 0.1227 0.59538 0.63655 0.0
C86 C 0.09784 0.57584 0.62157 0.0
C87 C 0.0326 0.56105 0.60726 0.0
C88 C 0.0039 0.54149 0.61773 0.0
C89 C 0.03618 0.55857 0.58269 0.0
C90 C 0.06488 0.58031 0.57064 0.0
C91 C 0.06751 0.61907 0.57435 0.0
C92 C 0.09598 0.63929 0.56435 0.0
C93 C 0.12231 0.62124 0.55029 0.0
C94 C 0.11886 0.58268 0.54582 0.0
C95 C 0.09039 0.56236 0.55594 0.0
H96 H 0.52168 0.5633 0.88855 0.0
H97 H 0.48718 0.60712 0.91322 0.0
H98 H 0.38433 0.57335 0.8779 0.0
H99 H 0.41899 0.52942 0.85316 0.0
H100 H 0.51669 0.48886 0.88427 0.0
H101 H 0.49973 0.59342 0.83635 0.0
H102 H 0.45926 0.64167 0.81995 0.0
H103 H 0.40092 0.55792 0.77773 0.0
H104 H 0.44019 0.50926 0.79496 0.0
H105 H 0.51614 0.41167 0.795 0.0
H106 H 0.55808 0.37187 0.77188 0.0
H107 H 0.65315 0.4265 0.80557 0.0
H108 H 0.61145 0.46583 0.82856 0.0
H109 H 0.51333 0.49285 0.79775 0.0
H110 H 0.53382 0.38803 0.85087 0.0
H111 H 0.56716 0.34498 0.87682 0.0
H112 H 0.62499 0.43836 0.91029 0.0
H113 H 0.59218 0.4809 0.88436 0.0
C114 C 0.47288 0.5431 0.86907 0.0
C115 C 0.49168 0.56519 0.88619 0.0
C116 C 0.472 0.59016 0.90025 0.0
C117 C 0.43313 0.59326 0.89756 0.0
C118 C 0.41433 0.5715 0.88022 0.0
C119 C 0.43404 0.54641 0.86617 0.0
C120 C 0.4942 0.5167 0.85428 0.0
C121 C 0.51616 0.48989 0.86535 0.0
C122 C 0.49322 0.51799 0.82961 0.0
C123 C 0.4724 0.54761 0.81727 0.0
C124 C 0.4782 0.58536 0.8236 0.0
C125 C 0.45528 0.61289 0.81422 0.0
C126 C 0.4271 0.60322 0.79778 0.0
C127 C 0.42263 0.56582 0.79041 0.0
C128 C 0.44508 0.53815 0.80015 0.0
C129 C 0.5608 0.44129 0.81364 0.0
C130 C 0.54603 0.41503 0.7973 0.0
C131 C 0.56988 0.3924 0.78416 0.0
C132 C 0.60872 0.39631 0.78696 0.0
C133 C 0.62329 0.42322 0.80296 0.0
C134 C 0.59955 0.44541 0.81623 0.0
C135 C 0.53605 0.46508 0.82785 0.0
C136 C 0.51352 0.49157 0.81664 0.0
C137 C 0.53738 0.46432 0.8525 0.0
C138 C 0.56071 0.4376 0.86565 0.0
C139 C 0.55434 0.39903 0.86345 0.0
C140 C 0.57313 0.37455 0.87834 0.0
C141 C 0.59881 0.38836 0.89541 0.0
C142 C 0.60589 0.42687 0.89701 0.0
C143 C 0.58702 0.45121 0.8823 0.0
H144 H 0.51932 0.92515 0.05583 0.0
H145 H 0.4754 0.88063 0.03704 0.0
H146 H 0.38311 0.94715 0.06099 0.0
H147 H 0.42717 0.99174 0.0798 0.0
H148 H 0.53074 0.00268 0.05151 0.0
H149 H 0.49234 0.91484 0.10881 0.0
H150 H 0.44992 0.88045 0.13321 0.0
H151 H 0.4091 0.98442 0.16223 0.0
H152 H 0.45074 0.01879 0.13724 0.0
H153 H 0.53912 0.0895 0.13821 0.0
H154 H 0.58379 0.12526 0.16286 0.0
H155 H 0.67467 0.06547 0.13127 0.0
H156 H 0.62992 0.02938 0.10681 0.0
H157 H 0.52631 0.01691 0.13779 0.0
H158 H 0.55277 0.10455 0.07798 0.0
H159 H 0.59711 0.14425 0.05839 0.0
H160 H 0.6595 0.04693 0.03715 0.0
H161 H 0.6144 0.00697 0.05652 0.0
C162 C 0.47642 0.96151 0.06927 0.0
C163 C 0.48966 0.93044 0.05671 0.0
C164 C 0.46464 0.90502 0.04613 0.0
C165 C 0.42605 0.91062 0.04766 0.0
C166 C 0.41278 0.94249 0.05946 0.0
C167 C 0.43784 0.96777 0.07024 0.0
C168 C 0.50295 0.98603 0.08253 0.0
C169 C 0.53001 0.0055 0.07039 0.0
C170 C 0.50137 0.99041 0.10709 0.0
C171 C 0.47455 0.96942 0.12108 0.0
C172 C 0.47387 0.93026 0.12015 0.0
C173 C 0.44993 0.91064 0.13428 0.0
C174 C 0.42655 0.9298 0.1498 0.0
C175 C 0.42675 0.96897 0.15038 0.0
C176 C 0.45066 0.98859 0.13623 0.0
C177 C 0.58118 0.05705 0.12051 0.0
C178 C 0.56867 0.08424 0.13648 0.0
C179 C 0.59414 0.10458 0.15054 0.0
C180 C 0.63258 0.09815 0.14884 0.0
C181 C 0.64519 0.07134 0.13262 0.0
C182 C 0.61966 0.05081 0.11863 0.0
C183 C 0.55389 0.03373 0.10684 0.0
C184 C 0.52686 0.01427 0.1189 0.0
C185 C 0.55513 0.02974 0.08226 0.0
C186 C 0.58044 0.05293 0.06872 0.0
C187 C 0.57568 0.09171 0.06882 0.0
C188 C 0.60089 0.11429 0.05759 0.0
C189 C 0.63158 0.09853 0.0463 0.0
C190 C 0.636 0.05961 0.04577 0.0
C191 C 0.6103 0.03688 0.05671 0.0
H192 H 0.99471 0.6151 0.88107 0.0
H193 H 0.03188 0.65285 0.85544 0.0
H194 H 0.13153 0.59607 0.87913 0.0
H195 H 0.09417 0.55945 0.90551 0.0
H196 H 0.99664 0.53372 0.87693 0.0
H197 H 0.03204 0.63459 0.92998 0.0
H198 H 0.08265 0.67 0.94885 0.0
H199 H 0.10702 0.57705 0.99325 0.0
H200 H 0.06075 0.53966 0.97161 0.0
H201 H 0.99362 0.4635 0.96818 0.0
H202 H 0.95492 0.41906 0.98823 0.0
H203 H 0.86205 0.4447 0.9418 0.0
H204 H 0.89952 0.49175 0.92363 0.0
H205 H 0.99475 0.53348 0.96338 0.0
H206 H 0.98094 0.43157 0.90788 0.0
H207 H 0.94933 0.38525 0.88208 0.0
H208 H 0.89261 0.47374 0.84591 0.0
H209 H 0.92412 0.51991 0.87172 0.0
C210 C 0.04176 0.58473 0.89528 0.0
C211 C 0.02467 0.61133 0.88105 0.0
C212 C 0.04593 0.63273 0.86635 0.0
C213 C 0.08469 0.62756 0.86525 0.0
C214 C 0.10188 0.60137 0.87991 0.0
C215 C 0.08058 0.58023 0.89488 0.0
C216 C 0.01827 0.55948 0.90874 0.0
C217 C 0.99596 0.53394 0.89587 0.0
C218 C 0.0186 0.55905 0.9335 0.0
C219 C 0.04389 0.58352 0.94821 0.0
C220 C 0.04901 0.62131 0.94324 0.0
C221 C 0.07747 0.64198 0.95456 0.0
C222 C 0.10019 0.62588 0.97196 0.0
C223 C 0.09168 0.58967 0.97899 0.0
C224 C 0.06451 0.56842 0.96689 0.0
C225 C 0.94983 0.48063 0.94403 0.0
C226 C 0.96478 0.45986 0.9625 0.0
C227 C 0.94279 0.43384 0.97367 0.0
C228 C 0.90553 0.4275 0.9663 0.0
C229 C 0.89058 0.44875 0.94801 0.0
C230 C 0.91221 0.47542 0.93733 0.0
C231 C 0.97359 0.50727 0.93151 0.0
C232 C 0.99564 0.53325 0.94449 0.0
C233 C 0.97441 0.50736 0.90683 0.0
C234 C 0.95457 0.47913 0.89183 0.0
C235 C 0.96135 0.44093 0.89458 0.0
C236 C 0.94329 0.41454 0.8799 0.0
C237 C 0.91842 0.42603 0.86216 0.0
C238 C 0.91178 0.46425 0.85942 0.0
C239 C 0.9297 0.49057 0.87412 0.0
H240 H 0.4986 0.57432 0.2124 0.0
H241 H 0.45657 0.62301 0.22689 0.0
H242 H 0.36159 0.55801 0.20214 0.0
H243 H 0.40374 0.50932 0.18741 0.0
H244 H 0.50768 0.49706 0.21927 0.0
H245 H 0.47322 0.58208 0.1598 0.0
H246 H 0.43428 0.61792 0.13295 0.0
H247 H 0.38956 0.51554 0.10228 0.0
H248 H 0.42727 0.47972 0.13004 0.0
H249 H 0.51595 0.40441 0.13478 0.0
H250 H 0.56092 0.37069 0.11076 0.0
H251 H 0.65049 0.43594 0.1429 0.0
H252 H 0.6055 0.46971 0.1668 0.0
H253 H 0.50229 0.47782 0.13314 0.0
H254 H 0.53245 0.39327 0.19548 0.0
H255 H 0.57963 0.35677 0.21634 0.0
H256 H 0.63785 0.45805 0.2373 0.0
H257 H 0.59 0.49473 0.21659 0.0
C258 C 0.45423 0.53841 0.19875 0.0
C259 C 0.46874 0.57023 0.21047 0.0
C260 C 0.44482 0.59807 0.21854 0.0
C261 C 0.40607 0.59421 0.21528 0.0
C262 C 0.39142 0.56148 0.20471 0.0
C263 C 0.4154 0.5338 0.19637 0.0
C264 C 0.47975 0.51203 0.18703 0.0
C265 C 0.50654 0.49291 0.20044 0.0
C266 C 0.47807 0.50636 0.1625 0.0
C267 C 0.45287 0.52819 0.14712 0.0
C268 C 0.45443 0.56732 0.14768 0.0
C269 C 0.43256 0.58776 0.13211 0.0
C270 C 0.40933 0.56946 0.11531 0.0
C271 C 0.40716 0.53034 0.11509 0.0
C272 C 0.42883 0.50989 0.13082 0.0
C273 C 0.5574 0.43926 0.15278 0.0
C274 C 0.54533 0.41108 0.13689 0.0
C275 C 0.57097 0.39193 0.12316 0.0
C276 C 0.60913 0.40064 0.12509 0.0
C277 C 0.62132 0.42821 0.1414 0.0
C278 C 0.59563 0.44745 0.15508 0.0
C279 C 0.52977 0.46242 0.1653 0.0
C280 C 0.50283 0.48131 0.15201 0.0
C281 C 0.53138 0.46794 0.18983 0.0
C282 C 0.55782 0.44661 0.20453 0.0
C283 C 0.55496 0.40766 0.20495 0.0
C284 C 0.58176 0.38691 0.21695 0.0
C285 C 0.61207 0.40472 0.22859 0.0
C286 C 0.61454 0.4438 0.22859 0.0
C287 C 0.58728 0.46467 0.21686 0.0
H288 H 0.54298 0.91194 0.37864 0.0
H289 H 0.50235 0.8698 0.35522 0.0
H290 H 0.40627 0.91532 0.38965 0.0
H291 H 0.44701 0.95738 0.4131 0.0
H292 H 0.54137 0.9876 0.37896 0.0
H293 H 0.5194 0.89006 0.43123 0.0
H294 H 0.47429 0.85009 0.44889 0.0
H295 H 0.44125 0.94196 0.49414 0.0
H296 H 0.4822 0.98327 0.47362 0.0
H297 H 0.54283 0.07755 0.46167 0.0
H298 H 0.58129 0.12708 0.48031 0.0
H299 H 0.67978 0.07627 0.45162 0.0
H300 H 0.64109 0.02775 0.43248 0.0
H301 H 0.54783 0.99705 0.46552 0.0
H302 H 0.55366 0.09265 0.40695 0.0
H303 H 0.58309 0.1364 0.38078 0.0
H304 H 0.64692 0.04603 0.35087 0.0
H305 H 0.61765 0.00247 0.37709 0.0
C306 C 0.49798 0.93756 0.39767 0.0
C307 C 0.51318 0.91261 0.38125 0.0
C308 C 0.49005 0.88856 0.36797 0.0
C309 C 0.45131 0.88912 0.37084 0.0
C310 C 0.43613 0.91379 0.38748 0.0
C311 C 0.4593 0.93794 0.40075 0.0
C312 C 0.52256 0.96421 0.41084 0.0
C313 C 0.54317 0.98922 0.3979 0.0
C314 C 0.52425 0.96655 0.43562 0.0
C315 C 0.50309 0.94028 0.45017 0.0
C316 C 0.50209 0.90184 0.44473 0.0
C317 C 0.47684 0.87852 0.45545 0.0
C318 C 0.45366 0.89253 0.47307 0.0
C319 C 0.45778 0.93022 0.48024 0.0
C320 C 0.48172 0.95391 0.4687 0.0
C321 C 0.58922 0.04911 0.44577 0.0
C322 C 0.57275 0.07708 0.45957 0.0
C323 C 0.59472 0.10523 0.47023 0.0
C324 C 0.63356 0.1054 0.46752 0.0
C325 C 0.64989 0.07709 0.45381 0.0
C326 C 0.62791 0.04924 0.44301 0.0
C327 C 0.56595 0.02043 0.43351 0.0
C328 C 0.54593 0.995 0.44661 0.0
C329 C 0.56455 0.01748 0.40889 0.0
C330 C 0.58377 0.0444 0.39409 0.0
C331 C 0.57439 0.08239 0.39499 0.0
C332 C 0.59099 0.10727 0.37998 0.0
C333 C 0.61746 0.09458 0.364 0.0
C334 C 0.62705 0.05661 0.3633 0.0
C335 C 0.61022 0.03172 0.37815 0.0
H336 H 0.03163 0.10661 0.71199 0.0
H337 H 0.98273 0.14843 0.72637 0.0
H338 H 0.89852 0.07537 0.69524 0.0
H339 H 0.94743 0.0336 0.68093 0.0
H340 H 0.04697 0.0263 0.71589 0.0
H341 H 0.01397 0.11871 0.65955 0.0
H342 H 0.9689 0.15449 0.63648 0.0
H343 H 0.93081 0.05303 0.60132 0.0
H344 H 0.97552 0.01711 0.62476 0.0
H345 H 0.05921 0.94378 0.62989 0.0
H346 H 0.10251 0.91079 0.6045 0.0
H347 H 0.19494 0.9692 0.63868 0.0
H348 H 0.15123 0.00269 0.664 0.0
H349 H 0.05066 0.01901 0.62934 0.0
H350 H 0.07388 0.92632 0.68643 0.0
H351 H 0.11361 0.88551 0.7098 0.0
H352 H 0.16756 0.98176 0.74252 0.0
H353 H 0.1274 0.0228 0.71898 0.0
C354 C 0.99306 0.06714 0.69543 0.0
C355 C 0.00264 0.09922 0.70873 0.0
C356 C 0.9748 0.12318 0.7167 0.0
C357 C 0.93703 0.11503 0.71178 0.0
C358 C 0.92744 0.08204 0.69937 0.0
C359 C 0.95528 0.05825 0.69124 0.0
C360 C 0.02228 0.04526 0.68363 0.0
C361 C 0.04823 0.0251 0.69699 0.0
C362 C 0.02342 0.04326 0.659 0.0
C363 C 0.99763 0.06519 0.64414 0.0
C364 C 0.9957 0.10411 0.64703 0.0
C365 C 0.96998 0.1245 0.6339 0.0
C366 C 0.94612 0.10633 0.61744 0.0
C367 C 0.94888 0.06756 0.61399 0.0
C368 C 0.9744 0.04711 0.62729 0.0
C369 C 0.10201 0.9757 0.64877 0.0
C370 C 0.08884 0.94911 0.63216 0.0
C371 C 0.11359 0.93022 0.61773 0.0
C372 C 0.15198 0.93779 0.61949 0.0
C373 C 0.16539 0.96328 0.63679 0.0
C374 C 0.14054 0.9821 0.65137 0.0
C375 C 0.07503 -0.0007 0.66149 0.0
C376 C 0.04967 0.02026 0.64825 0.0
C377 C 0.07435 0.00171 0.68615 0.0
C378 C 0.09807 0.97749 0.7008 0.0
C379 C 0.0942 0.93866 0.69865 0.0
C380 C 0.11662 0.91544 0.71214 0.0
C381 C 0.1435 0.93059 0.72796 0.0
C382 C 0.14706 0.9695 0.73039 0.0
C383 C 0.12422 0.99284 0.71701 0.0
Zn384 Zn 0.2948 0.74965 0.97069 0.0
Zn385 Zn 0.31964 0.70721 0.00745 0.0
O386 O 0.26445 0.69465 0.00507 0.0
O387 O 0.24251 0.73091 0.9774 0.0
O388 O 0.34127 0.67851 0.03424 0.0
O389 O 0.31675 0.79588 0.98734 0.0
O390 O 0.33508 0.76033 0.01612 0.0
C391 C 0.2374 0.70622 0.99243 0.0
C392 C 0.34771 0.69122 0.95838 0.0
O393 O 0.34697 0.68528 0.98012 0.0
O394 O 0.32795 0.71702 0.94974 0.0
C395 C 0.32729 0.65013 0.04353 0.0
O396 O 0.29447 0.63779 0.03611 0.0
C397 C 0.33309 0.79225 0.00702 0.0
Zn398 Zn 0.28999 0.76177 0.28878 0.0
Zn399 Zn 0.32063 0.80577 0.25579 0.0
O400 O 0.26767 0.82651 0.2577 0.0
O401 O 0.24158 0.79 0.28293 0.0
O402 O 0.347 0.83456 0.23135 0.0
O403 O 0.30438 0.71527 0.26999 0.0
O404 O 0.32845 0.75222 0.24441 0.0
C405 C 0.23954 0.81747 0.26946 0.0
C406 C 0.35081 0.8088 0.30627 0.0
O407 O 0.35095 0.81885 0.28514 0.0
O408 O 0.3276 0.78457 0.31252 0.0
C409 C 0.33256 0.85347 0.215 0.0
O410 O 0.29613 0.85668 0.2133 0.0
C411 C 0.3218 0.71953 0.2513 0.0
Zn412 Zn 0.2609 0.76253 0.4724 0.0
Zn413 Zn 0.24195 0.80695 0.50975 0.0
O414 O 0.2968 0.81908 0.50628 0.0
O415 O 0.31516 0.7796 0.47879 0.0
O416 O 0.22611 0.83506 0.53856 0.0
O417 O 0.23778 0.71702 0.4875 0.0
O418 O 0.22635 0.75426 0.51749 0.0
C419 C 0.32232 0.8059 0.49348 0.0
C420 C 0.20914 0.82339 0.46165 0.0
O421 O 0.21151 0.82988 0.48357 0.0
O422 O 0.22734 0.79659 0.45261 0.0
C423 C 0.2338 0.86888 0.54374 0.0
O424 O 0.25445 0.88789 0.52964 0.0
C425 C 0.22505 0.72202 0.50775 0.0
Zn426 Zn 0.27228 0.74864 0.73183 0.0
Zn427 Zn 0.23109 0.72475 0.76724 0.0
O428 O 0.2209 0.78117 0.7663 0.0
O429 O 0.2596 0.8019 0.74046 0.0
O430 O 0.20219 0.7067 0.79471 0.0
O431 O 0.31767 0.72246 0.7447 0.0
O432 O 0.28423 0.70591 0.77436 0.0
C433 C 0.23436 0.8081 0.75509 0.0
C434 C 0.21095 0.70028 0.71712 0.0
O435 O 0.20635 0.69791 0.73899 0.0
O436 O 0.23674 0.72053 0.70961 0.0
C437 C 0.16735 0.70038 0.79274 0.0
O438 O 0.15003 0.707 0.77279 0.0
C439 C 0.31501 0.70576 0.76375 0.0
Zn440 Zn 0.78212 0.24382 0.55017 0.0
Zn441 Zn 0.82487 0.22441 0.51288 0.0
O442 O 0.83353 0.28052 0.51637 0.0
O443 O 0.79768 0.29749 0.54533 0.0
O444 O 0.85456 0.20854 0.48491 0.0
O445 O 0.73709 0.22028 0.53334 0.0
O446 O 0.77248 0.20656 0.50357 0.0
C447 C 0.82095 0.30581 0.53002 0.0
C448 C 0.84262 0.19358 0.56144 0.0
O449 O 0.84862 0.19569 0.53971 0.0
O450 O 0.8159 0.21157 0.57033 0.0
C451 C 0.88938 0.20243 0.4867 0.0
O452 O 0.90646 0.20771 0.50709 0.0
C453 C 0.74089 0.20584 0.51314 0.0
Zn454 Zn 0.79192 0.26483 0.77986 0.0
Zn455 Zn 0.81477 0.31105 0.74598 0.0
O456 O 0.7584 0.3208 0.74701 0.0
O457 O 0.73899 0.28147 0.77295 0.0
O458 O 0.83487 0.34262 0.72035 0.0
O459 O 0.81506 0.22051 0.7633 0.0
O460 O 0.83368 0.25898 0.73673 0.0
C461 C 0.73212 0.30712 0.75868 0.0
C462 C 0.84164 0.32414 0.79659 0.0
O463 O 0.84093 0.33264 0.77515 0.0
O464 O 0.82337 0.29619 0.80314 0.0
C465 C 0.81819 0.36881 0.70981 0.0
O466 O 0.78389 0.37728 0.71534 0.0
C467 C 0.83245 0.22626 0.7448 0.0
Zn468 Zn 0.77161 0.28098 0.04423 0.0
Zn469 Zn 0.72196 0.30139 0.01019 0.0
O470 O 0.71404 0.24506 0.01151 0.0
O471 O 0.75454 0.22717 0.03843 0.0
O472 O 0.69309 0.31825 0.98185 0.0
O473 O 0.81571 0.30438 0.02781 0.0
O474 O 0.77242 0.32352 0.00312 0.0
C475 C 0.72815 0.21943 0.02393 0.0
C476 C 0.70929 0.32895 0.05946 0.0
O477 O 0.69866 0.32694 0.03808 0.0
O478 O 0.73929 0.3131 0.06604 0.0
C479 C 0.66283 0.30609 0.9725 0.0
O480 O 0.64468 0.27912 0.98234 0.0
C481 C 0.80624 0.32323 0.01026 0.0
Zn482 Zn 0.77796 0.24525 0.22831 0.0
Zn483 Zn 0.7385 0.21511 0.26337 0.0
O484 O 0.71721 0.26769 0.26225 0.0
O485 O 0.75033 0.29388 0.23535 0.0
O486 O 0.71388 0.19033 0.29007 0.0
O487 O 0.82683 0.23107 0.24468 0.0
O488 O 0.79328 0.20886 0.2727 0.0
C489 C 0.72443 0.29578 0.25 0.0
C490 C 0.72844 0.18477 0.21315 0.0
O491 O 0.72112 0.18438 0.23477 0.0
O492 O 0.75207 0.20777 0.2059 0.0
C493 C 0.67903 0.18883 0.29325 0.0
O494 O 0.65621 0.2054 0.27852 0.0
C495 C 0.8249 0.21541 0.26417 0.0
C496 C 0.18569 0.90791 0.27136 0.0
C497 C 0.1545 0.89878 0.28441 0.0
C498 C 0.21141 0.88058 0.2646 0.0
C499 C 0.20722 0.84318 0.27101 0.0
H500 H 0.19115 0.93669 0.26729 0.0
H501 H 0.23606 0.88945 0.25574 0.0
S502 S 0.12756 0.80432 0.30262 0.0
N503 N 0.11872 0.8494 0.30149 0.0
N504 N 0.16698 0.7979 0.28886 0.0
C505 C 0.17457 0.8333 0.28252 0.0
C506 C 0.14824 0.86114 0.28923 0.0
C507 C 0.15886 0.64108 0.51593 0.0
C508 C 0.15279 0.64309 0.54009 0.0
C509 C 0.18426 0.66512 0.50563 0.0
C510 C 0.20435 0.69204 0.51917 0.0
H511 H 0.14257 0.62206 0.50475 0.0
H512 H 0.18658 0.66398 0.48682 0.0
S513 S 0.20359 0.7037 0.58364 0.0
N514 N 0.17267 0.67048 0.57761 0.0
N515 N 0.21997 0.71587 0.5583 0.0
C516 C 0.20036 0.69247 0.54352 0.0
C517 C 0.17469 0.66798 0.55397 0.0
C518 C 0.37634 0.64925 0.8045 0.0
C519 C 0.40112 0.63181 0.78912 0.0
C520 C 0.34914 0.67406 0.79627 0.0
C521 C 0.34637 0.68277 0.77248 0.0
H522 H 0.37722 0.64271 0.82286 0.0
H523 H 0.32981 0.68605 0.80857 0.0
S524 S 0.40648 0.6455 0.72552 0.0
N525 N 0.42231 0.62543 0.74941 0.0
N526 N 0.37188 0.67267 0.73382 0.0
C527 C 0.37207 0.66641 0.75712 0.0
C528 C 0.39925 0.64069 0.76547 0.0
C529 C 0.40365 0.84506 0.04545 0.0
C530 C 0.39996 0.8819 0.03809 0.0
C531 C 0.38076 0.81669 0.03595 0.0
C532 C 0.35357 0.82395 0.01846 0.0
H533 H 0.42468 0.83806 0.05853 0.0
H534 H 0.38534 0.78861 0.04191 0.0
S535 S 0.33186 0.91657 0.99408 0.0
N536 N 0.36635 0.92484 0.01319 0.0
N537 N 0.32329 0.87139 0.99497 0.0
C538 C 0.34896 0.86102 0.0114 0.0
C539 C 0.37214 0.89004 0.02133 0.0
C540 C 0.13456 0.68464 0.98448 0.0
C541 C 0.13448 0.64556 0.98099 0.0
C542 C 0.16781 0.70432 0.98936 0.0
C543 C 0.20193 0.68552 0.99169 0.0
H544 H 0.10894 0.70034 0.98267 0.0
H545 H 0.16697 0.73448 0.99072 0.0
S546 S 0.21761 0.58384 0.98449 0.0
N547 N 0.17236 0.58915 0.97995 0.0
N548 N 0.23399 0.62601 0.9907 0.0
C549 C 0.20214 0.64647 0.98947 0.0
C550 C 0.16863 0.62651 0.98378 0.0
C551 C 0.35489 0.62042 0.23947 0.0
C552 C 0.38129 0.62518 0.22216 0.0
C553 C 0.33418 0.65078 0.24797 0.0
C554 C 0.33897 0.68686 0.23928 0.0
H555 H 0.35137 0.59341 0.24716 0.0
H556 H 0.31533 0.64611 0.26206 0.0
S557 S 0.40141 0.7121 0.19134 0.0
N558 N 0.4088 0.66719 0.19495 0.0
N559 N 0.3698 0.72429 0.2105 0.0
C560 C 0.36375 0.69122 0.22082 0.0
C561 C 0.38499 0.66038 0.21241 0.0
C562 C 0.38754 0.88669 0.48567 0.0
C563 C 0.4223 0.8696 0.48182 0.0
C564 C 0.35609 0.86581 0.49099 0.0
C565 C 0.35763 0.8268 0.49207 0.0
H566 H 0.38384 0.91633 0.48345 0.0
H567 H 0.32978 0.88026 0.49287 0.0
S568 S 0.44207 0.76832 0.48678 0.0
N569 N 0.457 0.81118 0.48274 0.0
N570 N 0.39681 0.77181 0.49094 0.0
C571 C 0.39215 0.80922 0.48922 0.0
C572 C 0.42469 0.83062 0.48453 0.0
C573 C 0.15416 0.87549 0.75295 0.0
C574 C 0.16896 0.90508 0.74052 0.0
C575 C 0.17672 0.84586 0.76015 0.0
C576 C 0.21477 0.84447 0.75476 0.0
H577 H 0.12448 0.87414 0.75587 0.0
H578 H 0.16344 0.82245 0.76815 0.0
S579 S 0.26803 0.9184 0.72603 0.0
N580 N 0.22468 0.93382 0.72586 0.0
N581 N 0.26724 0.87806 0.73926 0.0
C582 C 0.23054 0.87572 0.74434 0.0
C583 C 0.20757 0.90604 0.73721 0.0
C584 C 0.66405 0.38677 0.76204 0.0
C585 C 0.63471 0.37138 0.77442 0.0
C586 C 0.69386 0.36468 0.7546 0.0
C587 C 0.6957 0.32652 0.75968 0.0
H588 H 0.665 0.41652 0.75928 0.0
H589 H 0.717 0.37836 0.74657 0.0
S590 S 0.62275 0.27192 0.7884 0.0
N591 N 0.60682 0.31509 0.78888 0.0
N592 N 0.66294 0.27341 0.77505 0.0
C593 C 0.66481 0.31023 0.77018 0.0
C594 C 0.63429 0.33272 0.77755 0.0
C595 C 0.64874 0.15002 0.02018 0.0
C596 C 0.65977 0.1235 0.03656 0.0
C597 C 0.67269 0.17901 0.01435 0.0
C598 C 0.70838 0.18303 0.02507 0.0
H599 H 0.62068 0.14942 0.0127 0.0
H600 H 0.66198 0.19988 0.00262 0.0
S601 S 0.75182 0.11773 0.06708 0.0
N602 N 0.70967 0.10052 0.06168 0.0
N603 N 0.75488 0.15506 0.05097 0.0
C604 C 0.72072 0.15482 0.04013 0.0
C605 C 0.69633 0.12509 0.04586 0.0
C606 C 0.91897 0.16899 0.27202 0.0
C607 C 0.91987 0.16072 0.29583 0.0
C608 C 0.88915 0.18895 0.26217 0.0
C609 C 0.85887 0.20046 0.27573 0.0
H610 H 0.94098 0.15912 0.26086 0.0
H611 H 0.88893 0.19364 0.24357 0.0
S612 S 0.84952 0.18712 0.33935 0.0
N613 N 0.88954 0.16703 0.33305 0.0
N614 N 0.83292 0.2038 0.31457 0.0
C615 C 0.86025 0.19336 0.29979 0.0
C616 C 0.89092 0.17362 0.30984 0.0
C617 C 0.85287 0.40032 0.55352 0.0
C618 C 0.88 0.41068 0.53764 0.0
C619 C 0.83199 0.36763 0.54999 0.0
C620 C 0.83761 0.34372 0.53053 0.0
H621 H 0.84922 0.41637 0.56957 0.0
H622 H 0.81289 0.36007 0.56341 0.0
S623 S 0.90062 0.36172 0.48167 0.0
N624 N 0.90774 0.39732 0.50011 0.0
N625 N 0.86898 0.33529 0.49359 0.0
C626 C 0.86271 0.35516 0.51362 0.0
C627 C 0.88384 0.3887 0.51717 0.0
C628 C 0.68567 0.15157 0.4664 0.0
C629 C 0.6575 0.13459 0.47904 0.0
C630 C 0.71143 0.17601 0.47739 0.0
C631 C 0.70991 0.18467 0.50143 0.0
H632 H 0.68836 0.14525 0.44793 0.0
H633 H 0.73331 0.18745 0.46703 0.0
S634 S 0.64052 0.1487 0.54224 0.0
N635 N 0.62891 0.12882 0.51677 0.0
N636 N 0.6768 0.17547 0.53738 0.0
C637 C 0.68079 0.16924 0.51408 0.0
C638 C 0.65472 0.14403 0.5029 0.0
C639 C 0.91014 0.17901 0.71179 0.0
C640 C 0.90792 0.14188 0.71879 0.0
C641 C 0.88428 0.20564 0.71926 0.0
C642 C 0.85548 0.19623 0.7343 0.0
H643 H 0.93237 0.18764 0.70068 0.0
H644 H 0.88788 0.23412 0.71391 0.0
S645 S 0.83627 0.10177 0.7562 0.0
N646 N 0.87372 0.09627 0.74034 0.0
N647 N 0.82505 0.14628 0.75465 0.0
C648 C 0.85217 0.15872 0.74067 0.0
C649 C 0.87839 0.13155 0.73285 0.0
C650 C 0.84418 0.4092 0.98245 0.0
C651 C 0.88152 0.40003 0.97804 0.0
C652 C 0.8203 0.38392 0.99268 0.0
C653 C 0.83285 0.34864 0.99948 0.0
H654 H 0.83318 0.43632 0.97809 0.0
H655 H 0.79178 0.39238 0.99562 0.0
S656 S 0.9274 0.30993 0.99138 0.0
N657 N 0.92942 0.35207 0.98052 0.0
N658 N 0.88468 0.30532 0.00099 0.0
C659 C 0.87011 0.33904 0.99558 0.0
C660 C 0.8944 0.36454 0.9846 0.0
C661 C 0.67868 0.38496 0.22999 0.0
C662 C 0.64257 0.38191 0.23863 0.0
C663 C 0.70615 0.35852 0.23534 0.0
C664 C 0.69854 0.32814 0.2496 0.0
H665 H 0.68504 0.40648 0.21778 0.0
H666 H 0.73284 0.3608 0.22709 0.0
S667 S 0.60976 0.31184 0.27979 0.0
N668 N 0.60177 0.34937 0.26436 0.0
N669 N 0.65327 0.29979 0.27476 0.0
C670 C 0.66338 0.32685 0.26001 0.0
C671 C 0.63538 0.35363 0.25436 0.0
C672 C 0.16855 0.86859 0.40726 0.0
C673 C 0.15027 0.90013 0.41638 0.0
C674 C 0.18674 0.84343 0.42203 0.0
C675 C 0.1871 0.84875 0.4465 0.0
H676 H 0.16958 0.86382 0.38854 0.0
H677 H 0.2012 0.82004 0.41411 0.0
S678 S 0.13981 0.92544 0.47902 0.0
N679 N 0.13117 0.93409 0.45126 0.0
N680 N 0.16522 0.88712 0.4791 0.0
C681 C 0.16767 0.87964 0.45581 0.0
C682 C 0.14935 0.90525 0.44074 0.0
C683 C 0.14085 0.62965 0.69209 0.0
C684 C 0.13538 0.64131 0.66908 0.0
C685 C 0.16548 0.64883 0.70757 0.0
C686 C 0.18546 0.68018 0.70043 0.0
H687 H 0.12603 0.60555 0.69812 0.0
H688 H 0.16903 0.63889 0.72517 0.0
S689 S 0.17782 0.72328 0.6423 0.0
N690 N 0.14983 0.68671 0.64008 0.0
N691 N 0.19614 0.72309 0.66903 0.0
C692 C 0.17964 0.69226 0.67743 0.0
C693 C 0.15455 0.67273 0.66177 0.0
C694 C 0.38707 0.64463 0.904 0.0
C695 C 0.41213 0.61844 0.91326 0.0
C696 C 0.36687 0.66857 0.91868 0.0
C697 C 0.37074 0.66692 0.94317 0.0
H698 H 0.38322 0.64674 0.88527 0.0
H699 H 0.34774 0.68815 0.91074 0.0
S700 S 0.43251 0.60227 0.97595 0.0
N701 N 0.43941 0.59162 0.94822 0.0
N702 N 0.40188 0.63654 0.9759 0.0
C703 C 0.39589 0.64073 0.95258 0.0
C704 C 0.41647 0.61653 0.93762 0.0
C705 C 0.36479 0.91788 0.16777 0.0
C706 C 0.40284 0.90915 0.16596 0.0
C707 C 0.34218 0.89943 0.18342 0.0
C708 C 0.35685 0.87185 0.19809 0.0
H709 H 0.35238 0.93908 0.15693 0.0
H710 H 0.31308 0.90724 0.18422 0.0
S711 S 0.45507 0.83894 0.20011 0.0
N712 N 0.45433 0.87132 0.18017 0.0
N713 N 0.41206 0.83647 0.20947 0.0
C714 C 0.39492 0.86277 0.19634 0.0
C715 C 0.41782 0.88142 0.1803 0.0
C716 C 0.09193 0.64934 0.82447 0.0
C717 C 0.10629 0.64743 0.84751 0.0
C718 C 0.11165 0.66699 0.80712 0.0
C719 C 0.1468 0.68329 0.81195 0.0
H720 H 0.06542 0.63645 0.81963 0.0
H721 H 0.09941 0.66718 0.78964 0.0
S722 S 0.1959 0.68805 0.86985 0.0
N723 N 0.157 0.6651 0.87456 0.0
N724 N 0.19458 0.69764 0.84181 0.0
C725 C 0.16141 0.68199 0.83499 0.0
C726 C 0.14109 0.66419 0.85276 0.0
C727 C 0.35062 0.58392 0.09259 0.0
C728 C 0.38867 0.59095 0.09738 0.0
C729 C 0.33092 0.60333 0.07527 0.0
C730 C 0.34854 0.6305 0.06209 0.0
H731 H 0.33591 0.56336 0.10237 0.0
H732 H 0.30164 0.59697 0.07225 0.0
S733 S 0.44857 0.65747 0.06694 0.0
N734 N 0.44371 0.62559 0.08688 0.0
N735 N 0.40684 0.66242 0.05461 0.0
C736 C 0.38672 0.63761 0.06667 0.0
C737 C 0.40672 0.61777 0.08424 0.0
C738 C 0.43076 0.86799 0.33086 0.0
C739 C 0.42666 0.86625 0.3551 0.0
C740 C 0.40653 0.84869 0.31534 0.0
C741 C 0.37728 0.82667 0.32343 0.0
H742 H 0.4523 0.88525 0.32377 0.0
H743 H 0.41059 0.85151 0.29681 0.0
S744 S 0.35628 0.81117 0.38558 0.0
N745 N 0.39254 0.8396 0.38671 0.0
N746 N 0.34664 0.80315 0.35755 0.0
C747 C 0.37351 0.82386 0.34774 0.0
C748 C 0.39821 0.84378 0.36357 0.0
C749 C 0.17532 0.88187 0.59755 0.0
C750 C 0.17714 0.92046 0.60221 0.0
C751 C 0.19488 0.8654 0.57917 0.0
C752 C 0.2169 0.8869 0.56456 0.0
H753 H 0.15788 0.86436 0.60787 0.0
H754 H 0.1918 0.83563 0.57606 0.0
S755 S 0.23213 0.9892 0.57022 0.0
N756 N 0.20361 0.97974 0.59141 0.0
N757 N 0.24067 0.94888 0.55688 0.0
C758 C 0.22011 0.92542 0.56964 0.0
C759 C 0.20018 0.94217 0.58846 0.0
C760 C 0.59415 0.34029 0.92615 0.0
C761 C 0.6164 0.36346 0.91277 0.0
C762 C 0.60954 0.3207 0.94498 0.0
C763 C 0.6477 0.32374 0.95112 0.0
H764 H 0.56435 0.33859 0.92269 0.0
H765 H 0.59113 0.30426 0.95531 0.0
S766 S 0.7187 0.37639 0.91923 0.0
N767 N 0.67898 0.38505 0.90523 0.0
N768 N 0.70802 0.34862 0.94058 0.0
C769 C 0.67054 0.34523 0.937 0.0
C770 C 0.65486 0.36499 0.91785 0.0
C771 C 0.65335 0.11898 0.18891 0.0
C772 C 0.65913 0.11847 0.16477 0.0
C773 C 0.67677 0.13938 0.20441 0.0
C774 C 0.70681 0.16039 0.19637 0.0
H775 H 0.63029 0.10367 0.19589 0.0
H776 H 0.67059 0.13932 0.2228 0.0
S777 S 0.73437 0.1671 0.13452 0.0
N778 N 0.69737 0.13965 0.13339 0.0
N779 N 0.74169 0.17818 0.16243 0.0
C780 C 0.71345 0.15931 0.1722 0.0
C781 C 0.68957 0.13828 0.15643 0.0
C782 C 0.96339 0.15111 0.45251 0.0
C783 C 0.9491 0.15096 0.4294 0.0
C784 C 0.94429 0.16859 0.47074 0.0
C785 C 0.90991 0.18642 0.46668 0.0
H786 H 0.98916 0.13675 0.4567 0.0
H787 H 0.95621 0.16722 0.48826 0.0
S788 S 0.862 0.19687 0.40897 0.0
N789 N 0.8998 0.17251 0.40315 0.0
N790 N 0.86336 0.20474 0.4375 0.0
C791 C 0.89565 0.18726 0.44355 0.0
C792 C 0.91532 0.16966 0.42492 0.0
C793 C 0.89641 0.4031 0.67229 0.0
C794 C 0.87972 0.43195 0.65961 0.0
C795 C 0.87615 0.38272 0.68819 0.0
C796 C 0.83825 0.39026 0.6921 0.0
H797 H 0.92569 0.39675 0.67034 0.0
H798 H 0.89063 0.36117 0.69772 0.0
S799 S 0.78078 0.46134 0.66187 0.0
N800 N 0.82262 0.4658 0.65095 0.0
N801 N 0.78441 0.42776 0.68096 0.0
C802 C 0.82097 0.41858 0.67911 0.0
C803 C 0.84171 0.43937 0.66288 0.0
C804 C 0.61064 0.14175 0.33276 0.0
C805 C 0.63393 0.12047 0.34733 0.0
C806 C 0.62549 0.16428 0.31564 0.0
C807 C 0.66424 0.1666 0.31253 0.0
H808 H 0.58063 0.14016 0.33416 0.0
H809 H 0.60632 0.17951 0.30452 0.0
S810 S 0.73724 0.11873 0.34796 0.0
N811 N 0.6975 0.10476 0.35872 0.0
N812 N 0.7257 0.14709 0.32673 0.0
C813 C 0.68788 0.14633 0.32764 0.0
C814 C 0.67266 0.12325 0.34495 0.0
C815 C 0.91808 0.12499 0.57917 0.0
C816 C 0.91866 0.12791 0.60366 0.0
C817 C 0.89321 0.14613 0.56573 0.0
C818 C 0.86765 0.17069 0.57629 0.0
H819 H 0.93751 0.10674 0.57033 0.0
H820 H 0.89418 0.14322 0.54689 0.0
S821 S 0.85708 0.18676 0.64013 0.0
N822 N 0.89105 0.15596 0.63811 0.0
N823 N 0.84406 0.19576 0.61299 0.0
C824 C 0.86754 0.17324 0.60088 0.0
C825 C 0.89314 0.15188 0.61452 0.0
C826 C 0.90182 0.4031 0.8218 0.0
C827 C 0.90006 0.39848 0.84601 0.0
C828 C 0.88355 0.37841 0.80605 0.0
C829 C 0.86261 0.34815 0.81387 0.0
H830 H 0.91742 0.42609 0.81498 0.0
H831 H 0.88558 0.38347 0.78758 0.0
S832 S 0.84925 0.32423 0.87583 0.0
N833 N 0.87594 0.36177 0.87726 0.0
N834 N 0.84154 0.31501 0.84773 0.0
C835 C 0.86108 0.34296 0.83814 0.0
C836 C 0.87982 0.36819 0.85418 0.0
C837 C 0.62773 0.38213 0.08481 0.0
C838 C 0.63567 0.38267 0.10895 0.0
C839 C 0.65208 0.36539 0.06903 0.0
C840 C 0.68538 0.34831 0.07674 0.0
H841 H 0.60251 0.39497 0.07801 0.0
H842 H 0.64443 0.36563 0.05062 0.0
S843 S 0.71859 0.34185 0.13852 0.0
N844 N 0.67873 0.36462 0.14003 0.0
N845 N 0.72483 0.33309 0.11046 0.0
C846 C 0.69377 0.34891 0.10094 0.0
C847 C 0.66887 0.36611 0.11701 0.0
loop_
_geom_bond_atom_site_label_1
_geom_bond_atom_site_label_2
_geom_bond_distance
_geom_bond_site_symmetry_2
_ccdc_geom_bond_type
H0 C19 0.949 . S
H1 C20 0.950 . S
H2 C22 0.950 . S
H3 C23 0.950 . S
H4 C25 0.950 . S
H5 C28 0.950 1_455 S
H6 C29 0.950 . S
H7 C31 0.951 . S
H8 C32 0.921 1_565 S
H9 C34 0.949 . S
H10 C35 0.950 . S
H11 C37 0.950 . S
H12 C38 0.950 . S
H13 C40 0.950 1_565 S
H14 C43 0.950 . S
H15 C44 0.950 . S
H16 C46 0.951 . S
H17 C47 0.949 1_545 S
C18 C19 1.376 1_655 S
C18 C23 1.386 . S
C18 C24 1.483 1_655 S
C19 H0 0.949 . S
C19 C18 1.376 1_455 S
C19 C20 1.397 1_455 S
C20 H1 0.950 . S
C20 C19 1.397 1_655 S
C20 C21 1.391 . S
C21 C20 1.391 . S
C21 C22 1.405 . S
C22 H2 0.950 . S
C22 C21 1.405 . S
C22 C23 1.367 . S
C23 H3 0.950 . S
C23 C18 1.386 . S
C23 C22 1.367 . S
C24 C18 1.483 1_455 S
C24 C25 1.382 . S
C24 C26 1.403 . S
C25 H4 0.950 . S
C25 C24 1.382 . S
C25 C41 1.411 1_545 S
C26 C24 1.403 . S
C26 C27 1.489 1_455 S
C26 C40 1.411 . S
C27 C26 1.489 1_655 S
C27 C28 1.383 . S
C27 C32 1.382 . S
C28 H5 0.950 1_655 S
C28 C27 1.383 . S
C28 C29 1.395 . S
C29 H6 0.950 . S
C29 C28 1.395 . S
C29 C30 1.288 . S
C30 C29 1.288 . S
C30 C31 1.392 . S
C31 H7 0.951 . S
C31 C30 1.392 . S
C31 C32 1.392 . S
C32 H8 0.921 1_545 S
C32 C27 1.382 . S
C32 C31 1.392 . S
C33 C34 1.376 . S
C33 C38 1.386 . S
C33 C39 1.483 . S
C34 H9 0.949 . S
C34 C33 1.376 . S
C34 C35 1.397 . S
C35 H10 0.950 . S
C35 C34 1.397 . S
C35 C36 1.391 . S
C36 C35 1.391 . S
C36 C37 1.405 . S
C37 H11 0.950 . S
C37 C36 1.405 . S
C37 C38 1.367 . S
C38 H12 0.950 . S
C38 C33 1.386 . S
C38 C37 1.367 . S
C39 C33 1.483 . S
C39 C40 1.382 1_565 S
C39 C41 1.403 . S
C40 H13 0.950 1_545 S
C40 C26 1.411 . S
C40 C39 1.382 1_545 S
C41 C25 1.411 1_565 S
C41 C39 1.403 . S
C41 C42 1.489 . S
C42 C41 1.489 . S
C42 C43 1.383 . S
C42 C47 1.382 . S
C43 H14 0.950 . S
C43 C42 1.383 . S
C43 C44 1.395 . S
C44 H15 0.950 . S
C44 C43 1.395 . S
C44 C45 1.288 . S
C45 C44 1.288 . S
C45 C46 1.392 . S
C46 H16 0.951 . S
C46 C45 1.392 . S
C46 C47 1.392 . S
C47 H17 0.949 1_565 S
C47 C42 1.382 . S
C47 C46 1.392 . S
H48 C67 0.949 1_455 S
H49 C68 0.950 . S
H50 C70 0.950 . S
H51 C71 0.950 . S
H52 C73 0.950 . S
H53 C76 0.950 . S
H54 C77 0.950 . S
H55 C79 0.951 . S
H56 C80 0.949 . S
H57 C82 0.949 . S
H58 C83 0.950 . S
H59 C85 0.950 . S
H60 C86 0.950 . S
H61 C88 0.950 1_655 S
H62 C91 0.950 . S
H63 C92 0.950 . S
H64 C94 0.951 . S
H65 C95 0.949 . S
C66 C67 1.376 . S
C66 C71 1.386 . S
C66 C72 1.483 . S
C67 H48 0.949 1_655 S
C67 C66 1.376 . S
C67 C68 1.397 . S
C68 H49 0.950 . S
C68 C67 1.397 . S
C68 C69 1.391 . S
C69 C68 1.391 . S
C69 C70 1.405 . S
C70 H50 0.950 . S
C70 C69 1.405 . S
C70 C71 1.367 . S
C71 H51 0.950 . S
C71 C66 1.386 . S
C71 C70 1.367 . S
C72 C66 1.483 . S
C72 C73 1.382 1_655 S
C72 C74 1.403 . S
C73 H52 0.950 . S
C73 C72 1.382 1_455 S
C73 C89 1.411 . S
C74 C72 1.403 . S
C74 C75 1.489 . S
C74 C88 1.411 1_655 S
C75 C74 1.489 . S
C75 C76 1.383 . S
C75 C80 1.382 . S
C76 H53 0.950 . S
C76 C75 1.383 . S
C76 C77 1.395 . S
C77 H54 0.950 . S
C77 C76 1.395 . S
C77 C78 1.288 . S
C78 C77 1.288 . S
C78 C79 1.392 . S
C79 H55 0.951 . S
C79 C78 1.392 . S
C79 C80 1.392 . S
C80 H56 0.949 . S
C80 C75 1.382 . S
C80 C79 1.392 . S
C81 C82 1.376 . S
C81 C86 1.386 . S
C81 C87 1.483 . S
C82 H57 0.949 . S
C82 C81 1.376 . S
C82 C83 1.397 . S
C83 H58 0.950 . S
C83 C82 1.397 . S
C83 C84 1.391 . S
C84 C83 1.391 . S
C84 C85 1.405 . S
C85 H59 0.950 . S
C85 C84 1.405 . S
C85 C86 1.367 . S
C86 H60 0.950 . S
C86 C81 1.386 . S
C86 C85 1.367 . S
C87 C81 1.483 . S
C87 C88 1.382 . S
C87 C89 1.403 . S
C88 H61 0.950 1_455 S
C88 C74 1.411 1_455 S
C88 C87 1.382 . S
C89 C73 1.411 . S
C89 C87 1.403 . S
C89 C90 1.489 . S
C90 C89 1.489 . S
C90 C91 1.383 . S
C90 C95 1.382 . S
C91 H62 0.950 . S
C91 C90 1.383 . S
C91 C92 1.395 . S
C92 H63 0.950 . S
C92 C91 1.395 . S
C92 C93 1.288 . S
C93 C92 1.288 . S
C93 C94 1.392 . S
C94 H64 0.951 . S
C94 C93 1.392 . S
C94 C95 1.392 . S
C95 H65 0.949 . S
C95 C90 1.382 . S
C95 C94 1.392 . S
H96 C115 0.949 . S
H97 C116 0.950 . S
H98 C118 0.950 . S
H99 C119 0.950 . S
H100 C121 0.950 . S
H101 C124 0.950 . S
H102 C125 0.950 . S
H103 C127 0.951 . S
H104 C128 0.949 . S
H105 C130 0.949 . S
H106 C131 0.950 . S
H107 C133 0.950 . S
H108 C134 0.950 . S
H109 C136 0.950 . S
H110 C139 0.950 . S
H111 C140 0.950 . S
H112 C142 0.951 . S
H113 C143 0.949 . S
C114 C115 1.376 . S
C114 C119 1.386 . S
C114 C120 1.483 . S
C115 H96 0.949 . S
C115 C114 1.376 . S
C115 C116 1.397 . S
C116 H97 0.950 . S
C116 C115 1.397 . S
C116 C117 1.391 . S
C117 C116 1.391 . S
C117 C118 1.405 . S
C118 H98 0.950 . S
C118 C117 1.405 . S
C118 C119 1.367 . S
C119 H99 0.950 . S
C119 C114 1.386 . S
C119 C118 1.367 . S
C120 C114 1.483 . S
C120 C121 1.382 . S
C120 C122 1.403 . S
C121 H100 0.950 . S
C121 C120 1.382 . S
C121 C137 1.411 . S
C122 C120 1.403 . S
C122 C123 1.489 . S
C122 C136 1.411 . S
C123 C122 1.489 . S
C123 C124 1.383 . S
C123 C128 1.382 . S
C124 H101 0.950 . S
C124 C123 1.383 . S
C124 C125 1.395 . S
C125 H102 0.950 . S
C125 C124 1.395 . S
C125 C126 1.288 . S
C126 C125 1.288 . S
C126 C127 1.392 . S
C127 H103 0.951 . S
C127 C126 1.392 . S
C127 C128 1.392 . S
C128 H104 0.949 . S
C128 C123 1.382 . S
C128 C127 1.392 . S
C129 C130 1.376 . S
C129 C134 1.386 . S
C129 C135 1.483 . S
C130 H105 0.949 . S
C130 C129 1.376 . S
C130 C131 1.397 . S
C131 H106 0.950 . S
C131 C130 1.397 . S
C131 C132 1.391 . S
C132 C131 1.391 . S
C132 C133 1.405 . S
C133 H107 0.950 . S
C133 C132 1.405 . S
C133 C134 1.367 . S
C134 H108 0.950 . S
C134 C129 1.386 . S
C134 C133 1.367 . S
C135 C129 1.483 . S
C135 C136 1.382 . S
C135 C137 1.403 . S
C136 H109 0.950 . S
C136 C122 1.411 . S
C136 C135 1.382 . S
C137 C121 1.411 . S
C137 C135 1.403 . S
C137 C138 1.489 . S
C138 C137 1.489 . S
C138 C139 1.383 . S
C138 C143 1.382 . S
C139 H110 0.950 . S
C139 C138 1.383 . S
C139 C140 1.395 . S
C140 H111 0.950 . S
C140 C139 1.395 . S
C140 C141 1.288 . S
C141 C140 1.288 . S
C141 C142 1.392 . S
C142 H112 0.951 . S
C142 C141 1.392 . S
C142 C143 1.392 . S
C143 H113 0.949 . S
C143 C138 1.382 . S
C143 C142 1.392 . S
H144 C163 0.949 . S
H145 C164 0.950 . S
H146 C166 0.950 . S
H147 C167 0.950 . S
H148 C169 0.950 . S
H149 C172 0.950 . S
H150 C173 0.950 . S
H151 C175 0.951 . S
H152 C176 0.949 . S
H153 C178 0.949 . S
H154 C179 0.950 . S
H155 C181 0.950 . S
H156 C182 0.950 . S
H157 C184 0.950 . S
H158 C187 0.950 . S
H159 C188 0.950 . S
H160 C190 0.951 . S
H161 C191 0.949 . S
C162 C163 1.376 . S
C162 C167 1.386 . S
C162 C168 1.483 . S
C163 H144 0.949 . S
C163 C162 1.376 . S
C163 C164 1.397 . S
C164 H145 0.950 . S
C164 C163 1.397 . S
C164 C165 1.391 . S
C165 C164 1.391 . S
C165 C166 1.405 . S
C166 H146 0.950 . S
C166 C165 1.405 . S
C166 C167 1.367 . S
C167 H147 0.950 . S
C167 C162 1.386 . S
C167 C166 1.367 . S
C168 C162 1.483 . S
C168 C169 1.382 . S
C168 C170 1.403 . S
C169 H148 0.950 . S
C169 C168 1.382 . S
C169 C185 1.411 1_565 S
C170 C168 1.403 . S
C170 C171 1.489 . S
C170 C184 1.411 1_565 S
C171 C170 1.489 . S
C171 C172 1.383 . S
C171 C176 1.382 . S
C172 H149 0.950 . S
C172 C171 1.383 . S
C172 C173 1.395 . S
C173 H150 0.950 . S
C173 C172 1.395 . S
C173 C174 1.288 . S
C174 C173 1.288 . S
C174 C175 1.392 . S
C175 H151 0.951 . S
C175 C174 1.392 . S
C175 C176 1.392 . S
C176 H152 0.949 . S
C176 C171 1.382 . S
C176 C175 1.392 . S
C177 C178 1.376 . S
C177 C182 1.386 . S
C177 C183 1.483 . S
C178 H153 0.949 . S
C178 C177 1.376 . S
C178 C179 1.397 . S
C179 H154 0.950 . S
C179 C178 1.397 . S
C179 C180 1.391 . S
C180 C179 1.391 . S
C180 C181 1.405 . S
C181 H155 0.950 . S
C181 C180 1.405 . S
C181 C182 1.367 . S
C182 H156 0.950 . S
C182 C177 1.386 . S
C182 C181 1.367 . S
C183 C177 1.483 . S
C183 C184 1.382 . S
C183 C185 1.403 . S
C184 H157 0.950 . S
C184 C170 1.411 1_545 S
C184 C183 1.382 . S
C185 C169 1.411 1_545 S
C185 C183 1.403 . S
C185 C186 1.489 . S
C186 C185 1.489 . S
C186 C187 1.383 . S
C186 C191 1.382 . S
C187 H158 0.950 . S
C187 C186 1.383 . S
C187 C188 1.395 . S
C188 H159 0.950 . S
C188 C187 1.395 . S
C188 C189 1.288 . S
C189 C188 1.288 . S
C189 C190 1.392 . S
C190 H160 0.951 . S
C190 C189 1.392 . S
C190 C191 1.392 . S
C191 H161 0.949 . S
C191 C186 1.382 . S
C191 C190 1.392 . S
H192 C211 0.949 . S
H193 C212 0.950 . S
H194 C214 0.950 . S
H195 C215 0.950 . S
H196 C217 0.950 . S
H197 C220 0.950 . S
H198 C221 0.950 . S
H199 C223 0.951 1_554 S
H200 C224 0.949 . S
H201 C226 0.949 . S
H202 C227 0.950 . S
H203 C229 0.950 . S
H204 C230 0.950 . S
H205 C232 0.950 . S
H206 C235 0.950 . S
H207 C236 0.950 . S
H208 C238 0.951 . S
H209 C239 0.949 . S
C210 C211 1.376 . S
C210 C215 1.386 . S
C210 C216 1.483 . S
C211 H192 0.949 . S
C211 C210 1.376 . S
C211 C212 1.397 . S
C212 H193 0.950 . S
C212 C211 1.397 . S
C212 C213 1.391 . S
C213 C212 1.391 . S
C213 C214 1.405 . S
C214 H194 0.950 . S
C214 C213 1.405 . S
C214 C215 1.367 . S
C215 H195 0.950 . S
C215 C210 1.386 . S
C215 C214 1.367 . S
C216 C210 1.483 . S
C216 C217 1.382 1_455 S
C216 C218 1.403 . S
C217 H196 0.950 . S
C217 C216 1.382 1_655 S
C217 C233 1.411 . S
C218 C216 1.403 . S
C218 C219 1.489 . S
C218 C232 1.411 . S
C219 C218 1.489 . S
C219 C220 1.383 . S
C219 C224 1.382 . S
C220 H197 0.950 . S
C220 C219 1.383 . S
C220 C221 1.395 . S
C221 H198 0.950 . S
C221 C220 1.395 . S
C221 C222 1.288 . S
C222 C221 1.288 . S
C222 C223 1.392 . S
C223 H199 0.951 1_556 S
C223 C222 1.392 . S
C223 C224 1.392 . S
C224 H200 0.949 . S
C224 C219 1.382 . S
C224 C223 1.392 . S
C225 C226 1.376 . S
C225 C230 1.386 . S
C225 C231 1.483 . S
C226 H201 0.949 . S
C226 C225 1.376 . S
C226 C227 1.397 . S
C227 H202 0.950 . S
C227 C226 1.397 . S
C227 C228 1.391 . S
C228 C227 1.391 . S
C228 C229 1.405 . S
C229 H203 0.950 . S
C229 C228 1.405 . S
C229 C230 1.367 . S
C230 H204 0.950 . S
C230 C225 1.386 . S
C230 C229 1.367 . S
C231 C225 1.483 . S
C231 C232 1.382 1_655 S
C231 C233 1.403 . S
C232 H205 0.950 . S
C232 C218 1.411 . S
C232 C231 1.382 1_455 S
C233 C217 1.411 . S
C233 C231 1.403 . S
C233 C234 1.489 . S
C234 C233 1.489 . S
C234 C235 1.383 . S
C234 C239 1.382 . S
C235 H206 0.950 . S
C235 C234 1.383 . S
C235 C236 1.395 . S
C236 H207 0.950 . S
C236 C235 1.395 . S
C236 C237 1.288 . S
C237 C236 1.288 . S
C237 C238 1.392 . S
C238 H208 0.951 . S
C238 C237 1.392 . S
C238 C239 1.392 . S
C239 H209 0.949 . S
C239 C234 1.382 . S
C239 C238 1.392 . S
H240 C259 0.949 . S
H241 C260 0.950 . S
H242 C262 0.950 . S
H243 C263 0.950 . S
H244 C265 0.950 . S
H245 C268 0.950 . S
H246 C269 0.950 . S
H247 C271 0.951 . S
H248 C272 0.949 . S
H249 C274 0.949 . S
H250 C275 0.950 . S
H251 C277 0.950 . S
H252 C278 0.950 . S
H253 C280 0.950 . S
H254 C283 0.950 . S
H255 C284 0.950 . S
H256 C286 0.951 . S
H257 C287 0.949 . S
C258 C259 1.376 . S
C258 C263 1.386 . S
C258 C264 1.483 . S
C259 H240 0.949 . S
C259 C258 1.376 . S
C259 C260 1.397 . S
C260 H241 0.950 . S
C260 C259 1.397 . S
C260 C261 1.391 . S
C261 C260 1.391 . S
C261 C262 1.405 . S
C262 H242 0.950 . S
C262 C261 1.405 . S
C262 C263 1.367 . S
C263 H243 0.950 . S
C263 C258 1.386 . S
C263 C262 1.367 . S
C264 C258 1.483 . S
C264 C265 1.382 . S
C264 C266 1.403 . S
C265 H244 0.950 . S
C265 C264 1.382 . S
C265 C281 1.411 . S
C266 C264 1.403 . S
C266 C267 1.489 . S
C266 C280 1.411 . S
C267 C266 1.489 . S
C267 C268 1.383 . S
C267 C272 1.382 . S
C268 H245 0.950 . S
C268 C267 1.383 . S
C268 C269 1.395 . S
C269 H246 0.950 . S
C269 C268 1.395 . S
C269 C270 1.288 . S
C270 C269 1.288 . S
C270 C271 1.392 . S
C271 H247 0.951 . S
C271 C270 1.392 . S
C271 C272 1.392 . S
C272 H248 0.949 . S
C272 C267 1.382 . S
C272 C271 1.392 . S
C273 C274 1.376 . S
C273 C278 1.386 . S
C273 C279 1.483 . S
C274 H249 0.949 . S
C274 C273 1.376 . S
C274 C275 1.397 . S
C275 H250 0.950 . S
C275 C274 1.397 . S
C275 C276 1.391 . S
C276 C275 1.391 . S
C276 C277 1.405 . S
C277 H251 0.950 . S
C277 C276 1.405 . S
C277 C278 1.367 . S
C278 H252 0.950 . S
C278 C273 1.386 . S
C278 C277 1.367 . S
C279 C273 1.483 . S
C279 C280 1.382 . S
C279 C281 1.403 . S
C280 H253 0.950 . S
C280 C266 1.411 . S
C280 C279 1.382 . S
C281 C265 1.411 . S
C281 C279 1.403 . S
C281 C282 1.489 . S
C282 C281 1.489 . S
C282 C283 1.383 . S
C282 C287 1.382 . S
C283 H254 0.950 . S
C283 C282 1.383 . S
C283 C284 1.395 . S
C284 H255 0.950 . S
C284 C283 1.395 . S
C284 C285 1.288 . S
C285 C284 1.288 . S
C285 C286 1.392 . S
C286 H256 0.951 . S
C286 C285 1.392 . S
C286 C287 1.392 . S
C287 H257 0.949 . S
C287 C282 1.382 . S
C287 C286 1.392 . S
H288 C307 0.949 . S
H289 C308 0.950 . S
H290 C310 0.950 . S
H291 C311 0.950 . S
H292 C313 0.950 . S
H293 C316 0.950 . S
H294 C317 0.950 . S
H295 C319 0.951 . S
H296 C320 0.949 1_545 S
H297 C322 0.949 . S
H298 C323 0.950 . S
H299 C325 0.950 . S
H300 C326 0.950 . S
H301 C328 0.950 . S
H302 C331 0.950 . S
H303 C332 0.950 . S
H304 C334 0.951 . S
H305 C335 0.949 1_565 S
C306 C307 1.376 . S
C306 C311 1.386 . S
C306 C312 1.483 . S
C307 H288 0.949 . S
C307 C306 1.376 . S
C307 C308 1.397 . S
C308 H289 0.950 . S
C308 C307 1.397 . S
C308 C309 1.391 . S
C309 C308 1.391 . S
C309 C310 1.405 . S
C310 H290 0.950 . S
C310 C309 1.405 . S
C310 C311 1.367 . S
C311 H291 0.950 . S
C311 C306 1.386 . S
C311 C310 1.367 . S
C312 C306 1.483 . S
C312 C313 1.382 . S
C312 C314 1.403 . S
C313 H292 0.950 . S
C313 C312 1.382 . S
C313 C329 1.411 1_565 S
C314 C312 1.403 . S
C314 C315 1.489 . S
C314 C328 1.411 1_565 S
C315 C314 1.489 . S
C315 C316 1.383 . S
C315 C320 1.382 . S
C316 H293 0.950 . S
C316 C315 1.383 . S
C316 C317 1.395 . S
C317 H294 0.950 . S
C317 C316 1.395 . S
C317 C318 1.288 . S
C318 C317 1.288 . S
C318 C319 1.392 . S
C319 H295 0.951 . S
C319 C318 1.392 . S
C319 C320 1.392 . S
C320 H296 0.949 1_565 S
C320 C315 1.382 . S
C320 C319 1.392 . S
C321 C322 1.376 . S
C321 C326 1.386 . S
C321 C327 1.483 . S
C322 H297 0.949 . S
C322 C321 1.376 . S
C322 C323 1.397 . S
C323 H298 0.950 . S
C323 C322 1.397 . S
C323 C324 1.391 . S
C324 C323 1.391 . S
C324 C325 1.405 . S
C325 H299 0.950 . S
C325 C324 1.405 . S
C325 C326 1.367 . S
C326 H300 0.950 . S
C326 C321 1.386 . S
C326 C325 1.367 . S
C327 C321 1.483 . S
C327 C328 1.382 . S
C327 C329 1.403 . S
C328 H301 0.950 . S
C328 C314 1.411 1_545 S
C328 C327 1.382 . S
C329 C313 1.411 1_545 S
C329 C327 1.403 . S
C329 C330 1.489 . S
C330 C329 1.489 . S
C330 C331 1.383 . S
C330 C335 1.382 . S
C331 H302 0.950 . S
C331 C330 1.383 . S
C331 C332 1.395 . S
C332 H303 0.950 . S
C332 C331 1.395 . S
C332 C333 1.288 . S
C333 C332 1.288 . S
C333 C334 1.392 . S
C334 H304 0.951 . S
C334 C333 1.392 . S
C334 C335 1.392 . S
C335 H305 0.949 1_545 S
C335 C330 1.382 . S
C335 C334 1.392 . S
H336 C355 0.949 . S
H337 C356 0.947 1_455 S
H338 C358 0.950 . S
H339 C359 0.950 . S
H340 C361 0.950 . S
H341 C364 0.950 1_455 S
H342 C365 0.950 . S
H343 C367 0.951 . S
H344 C368 0.949 . S
H345 C370 0.949 . S
H346 C371 0.950 . S
H347 C373 0.950 . S
H348 C374 0.964 . S
H349 C376 0.950 . S
H350 C379 0.950 . S
H351 C380 0.950 . S
H352 C382 0.951 . S
H353 C383 0.949 . S
C354 C355 1.376 1_655 S
C354 C359 1.386 . S
C354 C360 1.483 1_655 S
C355 H336 0.949 . S
C355 C354 1.376 1_455 S
C355 C356 1.397 1_455 S
C356 H337 0.947 1_655 S
C356 C355 1.397 1_655 S
C356 C357 1.391 . S
C357 C356 1.391 . S
C357 C358 1.405 . S
C358 H338 0.950 . S
C358 C357 1.405 . S
C358 C359 1.367 . S
C359 H339 0.950 . S
C359 C354 1.386 . S
C359 C358 1.367 . S
C360 C354 1.483 1_455 S
C360 C361 1.382 . S
C360 C362 1.403 . S
C361 H340 0.950 . S
C361 C360 1.382 . S
C361 C377 1.411 . S
C362 C360 1.403 . S
C362 C363 1.489 1_455 S
C362 C376 1.411 . S
C363 C362 1.489 1_655 S
C363 C364 1.383 . S
C363 C368 1.382 . S
C364 H341 0.950 1_655 S
C364 C363 1.383 . S
C364 C365 1.395 . S
C365 H342 0.950 . S
C365 C364 1.395 . S
C365 C366 1.288 . S
C366 C365 1.288 . S
C366 C367 1.392 . S
C367 H343 0.951 . S
C367 C366 1.392 . S
C367 C368 1.392 . S
C368 H344 0.949 . S
C368 C363 1.382 . S
C368 C367 1.392 . S
C369 C370 1.376 . S
C369 C374 1.386 . S
C369 C375 1.483 1_565 S
C370 H345 0.949 . S
C370 C369 1.376 . S
C370 C371 1.397 . S
C371 H346 0.950 . S
C371 C370 1.397 . S
C371 C372 1.391 . S
C372 C371 1.391 . S
C372 C373 1.405 . S
C373 H347 0.950 . S
C373 C372 1.405 . S
C373 C374 1.367 . S
C374 H348 0.964 . S
C374 C369 1.386 . S
C374 C373 1.367 . S
C375 C369 1.483 1_545 S
C375 C376 1.382 . S
C375 C377 1.403 . S
C376 H349 0.950 . S
C376 C362 1.411 . S
C376 C375 1.382 . S
C377 C361 1.411 . S
C377 C375 1.403 . S
C377 C378 1.489 1_545 S
C378 C377 1.489 1_565 S
C378 C379 1.383 . S
C378 C383 1.382 1_565 S
C379 H350 0.950 . S
C379 C378 1.383 . S
C379 C380 1.395 . S
C380 H351 0.950 . S
C380 C379 1.395 . S
C380 C381 1.288 . S
C381 C380 1.288 . S
C381 C382 1.392 . S
C382 H352 0.951 . S
C382 C381 1.392 . S
C382 C383 1.392 1_565 S
C383 H353 0.949 . S
C383 C378 1.382 1_545 S
C383 C382 1.392 1_545 S
Zn384 O387 2.031 . S
Zn384 O389 2.049 . S
Zn384 O394 2.067 . S
Zn385 O386 1.962 . S
Zn385 O388 1.986 . S
Zn385 O390 1.996 . S
Zn385 O393 1.943 1_554 S
O386 Zn385 1.962 . S
O386 C391 1.254 . S
O387 Zn384 2.031 . S
O387 C391 1.269 1_556 S
O388 Zn385 1.986 . S
O388 C395 1.262 . S
O389 Zn384 2.049 . S
O389 C397 1.260 1_556 S
O390 Zn385 1.996 . S
O390 C397 1.257 . S
C391 O386 1.254 . S
C391 O387 1.269 1_554 S
C392 O393 1.249 . S
C392 O394 1.270 . S
O393 Zn385 1.943 1_556 S
O393 C392 1.249 . S
O394 Zn384 2.067 . S
O394 C392 1.270 . S
C395 O388 1.262 . S
C395 O396 1.232 . S
O396 C395 1.232 . S
C397 O389 1.260 1_554 S
C397 O390 1.257 . S
Zn398 O401 2.031 . S
Zn398 O403 2.049 . S
Zn398 O408 2.067 . S
Zn399 O400 1.962 . S
Zn399 O402 1.986 . S
Zn399 O404 1.996 . S
Zn399 O407 1.943 . S
O400 Zn399 1.962 . S
O400 C405 1.254 . S
O401 Zn398 2.031 . S
O401 C405 1.269 . S
O402 Zn399 1.986 . S
O402 C409 1.262 . S
O403 Zn398 2.049 . S
O403 C411 1.260 . S
O404 Zn399 1.996 . S
O404 C411 1.257 . S
C405 O400 1.254 . S
C405 O401 1.269 . S
C406 O407 1.249 . S
C406 O408 1.270 . S
O407 Zn399 1.943 . S
O407 C406 1.249 . S
O408 Zn398 2.067 . S
O408 C406 1.270 . S
C409 O402 1.262 . S
C409 O410 1.232 . S
O410 C409 1.232 . S
C411 O403 1.260 . S
C411 O404 1.257 . S
Zn412 O415 2.031 . S
Zn412 O417 2.049 . S
Zn412 O422 2.067 . S
Zn413 O414 1.962 . S
Zn413 O416 1.986 . S
Zn413 O418 1.996 . S
Zn413 O421 1.943 . S
O414 Zn413 1.962 . S
O414 C419 1.254 . S
O415 Zn412 2.031 . S
O415 C419 1.269 . S
O416 Zn413 1.986 . S
O416 C423 1.262 . S
O417 Zn412 2.049 . S
O417 C425 1.260 . S
O418 Zn413 1.996 . S
O418 C425 1.257 . S
C419 O414 1.254 . S
C419 O415 1.269 . S
C420 O421 1.249 . S
C420 O422 1.270 . S
O421 Zn413 1.943 . S
O421 C420 1.249 . S
O422 Zn412 2.067 . S
O422 C420 1.270 . S
C423 O416 1.262 . S
C423 O424 1.232 . S
O424 C423 1.232 . S
C425 O417 1.260 . S
C425 O418 1.257 . S
Zn426 O429 2.031 . S
Zn426 O431 2.049 . S
Zn426 O436 2.067 . S
Zn427 O428 1.962 . S
Zn427 O430 1.986 . S
Zn427 O432 1.996 . S
Zn427 O435 1.943 . S
O428 Zn427 1.962 . S
O428 C433 1.254 . S
O429 Zn426 2.031 . S
O429 C433 1.269 . S
O430 Zn427 1.986 . S
O430 C437 1.262 . S
O431 Zn426 2.049 . S
O431 C439 1.260 . S
O432 Zn427 1.996 . S
O432 C439 1.257 . S
C433 O428 1.254 . S
C433 O429 1.269 . S
C434 O435 1.249 . S
C434 O436 1.270 . S
O435 Zn427 1.943 . S
O435 C434 1.249 . S
O436 Zn426 2.067 . S
O436 C434 1.270 . S
C437 O430 1.262 . S
C437 O438 1.232 . S
O438 C437 1.232 . S
C439 O431 1.260 . S
C439 O432 1.257 . S
Zn440 O443 2.031 . S
Zn440 O445 2.049 . S
Zn440 O450 2.067 . S
Zn441 O442 1.962 . S
Zn441 O444 1.986 . S
Zn441 O446 1.996 . S
Zn441 O449 1.943 . S
O442 Zn441 1.962 . S
O442 C447 1.254 . S
O443 Zn440 2.031 . S
O443 C447 1.269 . S
O444 Zn441 1.986 . S
O444 C451 1.262 . S
O445 Zn440 2.049 . S
O445 C453 1.260 . S
O446 Zn441 1.996 . S
O446 C453 1.257 . S
C447 O442 1.254 . S
C447 O443 1.269 . S
C448 O449 1.249 . S
C448 O450 1.270 . S
O449 Zn441 1.943 . S
O449 C448 1.249 . S
O450 Zn440 2.067 . S
O450 C448 1.270 . S
C451 O444 1.262 . S
C451 O452 1.232 . S
O452 C451 1.232 . S
C453 O445 1.260 . S
C453 O446 1.257 . S
Zn454 O457 2.031 . S
Zn454 O459 2.049 . S
Zn454 O464 2.067 . S
Zn455 O456 1.962 . S
Zn455 O458 1.986 . S
Zn455 O460 1.996 . S
Zn455 O463 1.943 . S
O456 Zn455 1.962 . S
O456 C461 1.254 . S
O457 Zn454 2.031 . S
O457 C461 1.269 . S
O458 Zn455 1.986 . S
O458 C465 1.262 . S
O459 Zn454 2.049 . S
O459 C467 1.260 . S
O460 Zn455 1.996 . S
O460 C467 1.257 . S
C461 O456 1.254 . S
C461 O457 1.269 . S
C462 O463 1.249 . S
C462 O464 1.270 . S
O463 Zn455 1.943 . S
O463 C462 1.249 . S
O464 Zn454 2.067 . S
O464 C462 1.270 . S
C465 O458 1.262 . S
C465 O466 1.232 . S
O466 C465 1.232 . S
C467 O459 1.260 . S
C467 O460 1.257 . S
Zn468 O471 2.031 . S
Zn468 O473 2.049 . S
Zn468 O478 2.067 . S
Zn469 O470 1.962 . S
Zn469 O472 1.986 . S
Zn469 O474 1.996 . S
Zn469 O477 1.943 1_556 S
O470 Zn469 1.962 . S
O470 C475 1.254 1_556 S
O471 Zn468 2.031 . S
O471 C475 1.269 . S
O472 Zn469 1.986 . S
O472 C479 1.262 . S
O473 Zn468 2.049 . S
O473 C481 1.260 . S
O474 Zn469 1.996 . S
O474 C481 1.257 1_556 S
C475 O470 1.254 1_554 S
C475 O471 1.269 . S
C476 O477 1.249 . S
C476 O478 1.270 . S
O477 Zn469 1.943 1_554 S
O477 C476 1.249 . S
O478 Zn468 2.067 . S
O478 C476 1.270 . S
C479 O472 1.262 . S
C479 O480 1.232 . S
O480 C479 1.232 . S
C481 O473 1.260 . S
C481 O474 1.257 1_554 S
Zn482 O485 2.031 . S
Zn482 O487 2.049 . S
Zn482 O492 2.067 . S
Zn483 O484 1.962 . S
Zn483 O486 1.986 . S
Zn483 O488 1.996 . S
Zn483 O491 1.943 . S
O484 Zn483 1.962 . S
O484 C489 1.254 . S
O485 Zn482 2.031 . S
O485 C489 1.269 . S
O486 Zn483 1.986 . S
O486 C493 1.262 . S
O487 Zn482 2.049 . S
O487 C495 1.260 . S
O488 Zn483 1.996 . S
O488 C495 1.257 . S
C489 O484 1.254 . S
C489 O485 1.269 . S
C490 O491 1.249 . S
C490 O492 1.270 . S
O491 Zn483 1.943 . S
O491 C490 1.249 . S
O492 Zn482 2.067 . S
O492 C490 1.270 . S
C493 O486 1.262 . S
C493 O494 1.232 . S
O494 C493 1.232 . S
C495 O487 1.260 . S
C495 O488 1.257 . S
C496 C497 1.369 . S
C496 C498 1.419 . S
C496 H500 0.930 . S
C497 C496 1.369 . S
C497 C506 1.429 . S
C498 C496 1.419 . S
C498 C499 1.363 . S
C498 H501 0.929 . S
C499 C498 1.363 . S
C499 C505 1.428 . S
H500 C496 0.930 . S
H501 C498 0.929 . S
S502 N503 1.613 . S
S502 N504 1.610 . S
N503 S502 1.613 . S
N503 C506 1.350 . S
N504 S502 1.610 . S
N504 C505 1.351 . S
C505 C499 1.428 . S
C505 N504 1.351 . S
C505 C506 1.434 . S
C506 C497 1.429 . S
C506 N503 1.350 . S
C506 C505 1.434 . S
C507 C508 1.369 . S
C507 C509 1.419 . S
C507 H511 0.930 . S
C508 C507 1.369 . S
C508 C517 1.429 . S
C509 C507 1.419 . S
C509 C510 1.363 . S
C509 H512 0.929 . S
C510 C509 1.363 . S
C510 C516 1.428 . S
H511 C507 0.930 . S
H512 C509 0.929 . S
S513 N514 1.613 . S
S513 N515 1.610 . S
N514 S513 1.613 . S
N514 C517 1.350 . S
N515 S513 1.610 . S
N515 C516 1.351 . S
C516 C510 1.428 . S
C516 N515 1.351 . S
C516 C517 1.434 . S
C517 C508 1.429 . S
C517 N514 1.350 . S
C517 C516 1.434 . S
C518 C519 1.369 . S
C518 C520 1.419 . S
C518 H522 0.930 . S
C519 C518 1.369 . S
C519 C528 1.429 . S
C520 C518 1.419 . S
C520 C521 1.363 . S
C520 H523 0.929 . S
C521 C520 1.363 . S
C521 C527 1.428 . S
H522 C518 0.930 . S
H523 C520 0.929 . S
S524 N525 1.613 . S
S524 N526 1.610 . S
N525 S524 1.613 . S
N525 C528 1.350 . S
N526 S524 1.610 . S
N526 C527 1.351 . S
C527 C521 1.428 . S
C527 N526 1.351 . S
C527 C528 1.434 . S
C528 C519 1.429 . S
C528 N525 1.350 . S
C528 C527 1.434 . S
C529 C530 1.369 . S
C529 C531 1.419 . S
C529 H533 0.930 . S
C530 C529 1.369 . S
C530 C539 1.429 . S
C531 C529 1.419 . S
C531 C532 1.363 . S
C531 H534 0.929 . S
C532 C531 1.363 . S
C532 C538 1.428 . S
H533 C529 0.930 . S
H534 C531 0.929 . S
S535 N536 1.613 . S
S535 N537 1.610 . S
N536 S535 1.613 . S
N536 C539 1.350 . S
N537 S535 1.610 . S
N537 C538 1.351 . S
C538 C532 1.428 . S
C538 N537 1.351 . S
C538 C539 1.434 . S
C539 C530 1.429 . S
C539 N536 1.350 . S
C539 C538 1.434 . S
C540 C541 1.369 1_556 S
C540 C542 1.419 . S
C540 H544 0.930 . S
C541 C540 1.369 1_554 S
C541 C550 1.429 . S
C542 C540 1.419 . S
C542 C543 1.362 1_556 S
C542 H545 0.929 . S
C543 C542 1.362 1_554 S
C543 C549 1.430 . S
H544 C540 0.930 . S
H545 C542 0.929 . S
S546 N547 1.613 . S
S546 N548 1.610 . S
N547 S546 1.613 . S
N547 C550 1.350 . S
N548 S546 1.610 . S
N548 C549 1.351 . S
C549 C543 1.430 . S
C549 N548 1.351 . S
C549 C550 1.434 . S
C550 C541 1.429 . S
C550 N547 1.350 . S
C550 C549 1.434 . S
C551 C552 1.369 . S
C551 C553 1.419 . S
C551 H555 0.930 . S
C552 C551 1.369 . S
C552 C561 1.429 . S
C553 C551 1.419 . S
C553 C554 1.363 . S
C553 H556 0.929 . S
C554 C553 1.363 . S
C554 C560 1.428 . S
H555 C551 0.930 . S
H556 C553 0.929 . S
S557 N558 1.613 . S
S557 N559 1.610 . S
N558 S557 1.613 . S
N558 C561 1.350 . S
N559 S557 1.610 . S
N559 C560 1.351 . S
C560 C554 1.428 . S
C560 N559 1.351 . S
C560 C561 1.434 . S
C561 C552 1.429 . S
C561 N558 1.350 . S
C561 C560 1.434 . S
C562 C563 1.369 . S
C562 C564 1.419 . S
C562 H566 0.930 . S
C563 C562 1.369 . S
C563 C572 1.429 . S
C564 C562 1.419 . S
C564 C565 1.363 . S
C564 H567 0.929 . S
C565 C564 1.363 . S
C565 C571 1.428 . S
H566 C562 0.930 . S
H567 C564 0.929 . S
S568 N569 1.613 . S
S568 N570 1.610 . S
N569 S568 1.613 . S
N569 C572 1.350 . S
N570 S568 1.610 . S
N570 C571 1.351 . S
C571 C565 1.428 . S
C571 N570 1.351 . S
C571 C572 1.434 . S
C572 C563 1.429 . S
C572 N569 1.350 . S
C572 C571 1.434 . S
C573 C574 1.369 . S
C573 C575 1.419 . S
C573 H577 0.930 . S
C574 C573 1.369 . S
C574 C583 1.429 . S
C575 C573 1.419 . S
C575 C576 1.363 . S
C575 H578 0.929 . S
C576 C575 1.363 . S
C576 C582 1.428 . S
H577 C573 0.930 . S
H578 C575 0.929 . S
S579 N580 1.613 . S
S579 N581 1.610 . S
N580 S579 1.613 . S
N580 C583 1.350 . S
N581 S579 1.610 . S
N581 C582 1.351 . S
C582 C576 1.428 . S
C582 N581 1.351 . S
C582 C583 1.434 . S
C583 C574 1.429 . S
C583 N580 1.350 . S
C583 C582 1.434 . S
C584 C585 1.369 . S
C584 C586 1.419 . S
C584 H588 0.930 . S
C585 C584 1.369 . S
C585 C594 1.429 . S
C586 C584 1.419 . S
C586 C587 1.363 . S
C586 H589 0.929 . S
C587 C586 1.363 . S
C587 C593 1.428 . S
H588 C584 0.930 . S
H589 C586 0.929 . S
S590 N591 1.613 . S
S590 N592 1.610 . S
N591 S590 1.613 . S
N591 C594 1.350 . S
N592 S590 1.610 . S
N592 C593 1.351 . S
C593 C587 1.428 . S
C593 N592 1.351 . S
C593 C594 1.434 . S
C594 C585 1.429 . S
C594 N591 1.350 . S
C594 C593 1.434 . S
C595 C596 1.369 . S
C595 C597 1.419 . S
C595 H599 0.930 1_554 S
C596 C595 1.369 . S
C596 C605 1.429 . S
C597 C595 1.419 . S
C597 C598 1.363 . S
C597 H600 0.929 1_554 S
C598 C597 1.363 . S
C598 C604 1.428 . S
H599 C595 0.930 1_556 S
H600 C597 0.929 1_556 S
S601 N602 1.613 . S
S601 N603 1.610 . S
N602 S601 1.613 . S
N602 C605 1.350 . S
N603 S601 1.610 . S
N603 C604 1.351 . S
C604 C598 1.428 . S
C604 N603 1.351 . S
C604 C605 1.434 . S
C605 C596 1.429 . S
C605 N602 1.350 . S
C605 C604 1.434 . S
C606 C607 1.369 . S
C606 C608 1.419 . S
C606 H610 0.930 . S
C607 C606 1.369 . S
C607 C616 1.429 . S
C608 C606 1.419 . S
C608 C609 1.363 . S
C608 H611 0.929 . S
C609 C608 1.363 . S
C609 C615 1.428 . S
H610 C606 0.930 . S
H611 C608 0.929 . S
S612 N613 1.613 . S
S612 N614 1.610 . S
N613 S612 1.613 . S
N613 C616 1.350 . S
N614 S612 1.610 . S
N614 C615 1.351 . S
C615 C609 1.428 . S
C615 N614 1.351 . S
C615 C616 1.434 . S
C616 C607 1.429 . S
C616 N613 1.350 . S
C616 C615 1.434 . S
C617 C618 1.369 . S
C617 C619 1.419 . S
C617 H621 0.930 . S
C618 C617 1.369 . S
C618 C627 1.429 . S
C619 C617 1.419 . S
C619 C620 1.363 . S
C619 H622 0.929 . S
C620 C619 1.363 . S
C620 C626 1.428 . S
H621 C617 0.930 . S
H622 C619 0.929 . S
S623 N624 1.613 . S
S623 N625 1.610 . S
N624 S623 1.613 . S
N624 C627 1.350 . S
N625 S623 1.610 . S
N625 C626 1.351 . S
C626 C620 1.428 . S
C626 N625 1.351 . S
C626 C627 1.434 . S
C627 C618 1.429 . S
C627 N624 1.350 . S
C627 C626 1.434 . S
C628 C629 1.369 . S
C628 C630 1.419 . S
C628 H632 0.930 . S
C629 C628 1.369 . S
C629 C638 1.429 . S
C630 C628 1.419 . S
C630 C631 1.363 . S
C630 H633 0.929 . S
C631 C630 1.363 . S
C631 C637 1.428 . S
H632 C628 0.930 . S
H633 C630 0.929 . S
S634 N635 1.613 . S
S634 N636 1.610 . S
N635 S634 1.613 . S
N635 C638 1.350 . S
N636 S634 1.610 . S
N636 C637 1.351 . S
C637 C631 1.428 . S
C637 N636 1.351 . S
C637 C638 1.434 . S
C638 C629 1.429 . S
C638 N635 1.350 . S
C638 C637 1.434 . S
C639 C640 1.369 . S
C639 C641 1.419 . S
C639 H643 0.930 . S
C640 C639 1.369 . S
C640 C649 1.429 . S
C641 C639 1.419 . S
C641 C642 1.363 . S
C641 H644 0.929 . S
C642 C641 1.363 . S
C642 C648 1.428 . S
H643 C639 0.930 . S
H644 C641 0.929 . S
S645 N646 1.613 . S
S645 N647 1.610 . S
N646 S645 1.613 . S
N646 C649 1.350 . S
N647 S645 1.610 . S
N647 C648 1.351 . S
C648 C642 1.428 . S
C648 N647 1.351 . S
C648 C649 1.434 . S
C649 C640 1.429 . S
C649 N646 1.350 . S
C649 C648 1.434 . S
C650 C651 1.369 1_554 S
C650 C652 1.419 . S
C650 H654 0.930 . S
C651 C650 1.369 1_556 S
C651 C660 1.429 . S
C652 C650 1.419 . S
C652 C653 1.363 1_554 S
C652 H655 0.929 . S
C653 C652 1.363 1_556 S
C653 C659 1.428 . S
H654 C650 0.930 . S
H655 C652 0.929 . S
S656 N657 1.613 . S
S656 N658 1.610 . S
N657 S656 1.613 . S
N657 C660 1.350 . S
N658 S656 1.610 . S
N658 C659 1.351 . S
C659 C653 1.428 . S
C659 N658 1.351 . S
C659 C660 1.434 . S
C660 C651 1.429 . S
C660 N657 1.350 . S
C660 C659 1.434 . S
C661 C662 1.369 . S
C661 C663 1.419 . S
C661 H665 0.930 . S
C662 C661 1.369 . S
C662 C671 1.429 . S
C663 C661 1.419 . S
C663 C664 1.363 . S
C663 H666 0.929 . S
C664 C663 1.363 . S
C664 C670 1.428 . S
H665 C661 0.930 . S
H666 C663 0.929 . S
S667 N668 1.613 . S
S667 N669 1.610 . S
N668 S667 1.613 . S
N668 C671 1.350 . S
N669 S667 1.610 . S
N669 C670 1.351 . S
C670 C664 1.428 . S
C670 N669 1.351 . S
C670 C671 1.434 . S
C671 C662 1.429 . S
C671 N668 1.350 . S
C671 C670 1.434 . S
C672 C673 1.369 . S
C672 C674 1.419 . S
C672 H676 0.930 . S
C673 C672 1.369 . S
C673 C682 1.429 . S
C674 C672 1.419 . S
C674 C675 1.363 . S
C674 H677 0.929 . S
C675 C674 1.363 . S
C675 C681 1.428 . S
H676 C672 0.930 . S
H677 C674 0.929 . S
S678 N679 1.613 . S
S678 N680 1.610 . S
N679 S678 1.613 . S
N679 C682 1.350 . S
N680 S678 1.610 . S
N680 C681 1.351 . S
C681 C675 1.428 . S
C681 N680 1.351 . S
C681 C682 1.434 . S
C682 C673 1.429 . S
C682 N679 1.350 . S
C682 C681 1.434 . S
C683 C684 1.369 . S
C683 C685 1.419 . S
C683 H687 0.930 . S
C684 C683 1.369 . S
C684 C693 1.429 . S
C685 C683 1.419 . S
C685 C686 1.363 . S
C685 H688 0.929 . S
C686 C685 1.363 . S
C686 C692 1.428 . S
H687 C683 0.930 . S
H688 C685 0.929 . S
S689 N690 1.613 . S
S689 N691 1.610 . S
N690 S689 1.613 . S
N690 C693 1.350 . S
N691 S689 1.610 . S
N691 C692 1.351 . S
C692 C686 1.428 . S
C692 N691 1.351 . S
C692 C693 1.434 . S
C693 C684 1.429 . S
C693 N690 1.350 . S
C693 C692 1.434 . S
C694 C695 1.369 . S
C694 C696 1.419 . S
C694 H698 0.930 . S
C695 C694 1.369 . S
C695 C704 1.429 . S
C696 C694 1.419 . S
C696 C697 1.363 . S
C696 H699 0.929 . S
C697 C696 1.363 . S
C697 C703 1.428 . S
H698 C694 0.930 . S
H699 C696 0.929 . S
S700 N701 1.613 . S
S700 N702 1.610 . S
N701 S700 1.613 . S
N701 C704 1.350 . S
N702 S700 1.610 . S
N702 C703 1.351 . S
C703 C697 1.428 . S
C703 N702 1.351 . S
C703 C704 1.434 . S
C704 C695 1.429 . S
C704 N701 1.350 . S
C704 C703 1.434 . S
C705 C706 1.369 . S
C705 C707 1.419 . S
C705 H709 0.930 . S
C706 C705 1.369 . S
C706 C715 1.429 . S
C707 C705 1.419 . S
C707 C708 1.363 . S
C707 H710 0.929 . S
C708 C707 1.363 . S
C708 C714 1.428 . S
H709 C705 0.930 . S
H710 C707 0.929 . S
S711 N712 1.613 . S
S711 N713 1.610 . S
N712 S711 1.613 . S
N712 C715 1.350 . S
N713 S711 1.610 . S
N713 C714 1.351 . S
C714 C708 1.428 . S
C714 N713 1.351 . S
C714 C715 1.434 . S
C715 C706 1.429 . S
C715 N712 1.350 . S
C715 C714 1.434 . S
C716 C717 1.369 . S
C716 C718 1.419 . S
C716 H720 0.930 . S
C717 C716 1.369 . S
C717 C726 1.429 . S
C718 C716 1.419 . S
C718 C719 1.363 . S
C718 H721 0.929 . S
C719 C718 1.363 . S
C719 C725 1.428 . S
H720 C716 0.930 . S
H721 C718 0.929 . S
S722 N723 1.613 . S
S722 N724 1.610 . S
N723 S722 1.613 . S
N723 C726 1.350 . S
N724 S722 1.610 . S
N724 C725 1.351 . S
C725 C719 1.428 . S
C725 N724 1.351 . S
C725 C726 1.434 . S
C726 C717 1.429 . S
C726 N723 1.350 . S
C726 C725 1.434 . S
C727 C728 1.369 . S
C727 C729 1.419 . S
C727 H731 0.930 . S
C728 C727 1.369 . S
C728 C737 1.429 . S
C729 C727 1.419 . S
C729 C730 1.363 . S
C729 H732 0.929 . S
C730 C729 1.363 . S
C730 C736 1.428 . S
H731 C727 0.930 . S
H732 C729 0.929 . S
S733 N734 1.613 . S
S733 N735 1.610 . S
N734 S733 1.613 . S
N734 C737 1.350 . S
N735 S733 1.610 . S
N735 C736 1.351 . S
C736 C730 1.428 . S
C736 N735 1.351 . S
C736 C737 1.434 . S
C737 C728 1.429 . S
C737 N734 1.350 . S
C737 C736 1.434 . S
C738 C739 1.369 . S
C738 C740 1.419 . S
C738 H742 0.930 . S
C739 C738 1.369 . S
C739 C748 1.429 . S
C740 C738 1.419 . S
C740 C741 1.363 . S
C740 H743 0.929 . S
C741 C740 1.363 . S
C741 C747 1.428 . S
H742 C738 0.930 . S
H743 C740 0.929 . S
S744 N745 1.613 . S
S744 N746 1.610 . S
N745 S744 1.613 . S
N745 C748 1.350 . S
N746 S744 1.610 . S
N746 C747 1.351 . S
C747 C741 1.428 . S
C747 N746 1.351 . S
C747 C748 1.434 . S
C748 C739 1.429 . S
C748 N745 1.350 . S
C748 C747 1.434 . S
C749 C750 1.369 . S
C749 C751 1.419 . S
C749 H753 0.930 . S
C750 C749 1.369 . S
C750 C759 1.429 . S
C751 C749 1.419 . S
C751 C752 1.363 . S
C751 H754 0.929 . S
C752 C751 1.363 . S
C752 C758 1.428 . S
H753 C749 0.930 . S
H754 C751 0.929 . S
S755 N756 1.613 . S
S755 N757 1.610 . S
N756 S755 1.613 . S
N756 C759 1.350 . S
N757 S755 1.610 . S
N757 C758 1.351 . S
C758 C752 1.428 . S
C758 N757 1.351 . S
C758 C759 1.434 . S
C759 C750 1.429 . S
C759 N756 1.350 . S
C759 C758 1.434 . S
C760 C761 1.369 . S
C760 C762 1.419 . S
C760 H764 0.930 . S
C761 C760 1.369 . S
C761 C770 1.429 . S
C762 C760 1.419 . S
C762 C763 1.363 . S
C762 H765 0.929 . S
C763 C762 1.363 . S
C763 C769 1.428 . S
H764 C760 0.930 . S
H765 C762 0.929 . S
S766 N767 1.613 . S
S766 N768 1.610 . S
N767 S766 1.613 . S
N767 C770 1.350 . S
N768 S766 1.610 . S
N768 C769 1.351 . S
C769 C763 1.428 . S
C769 N768 1.351 . S
C769 C770 1.434 . S
C770 C761 1.429 . S
C770 N767 1.350 . S
C770 C769 1.434 . S
C771 C772 1.369 . S
C771 C773 1.419 . S
C771 H775 0.930 . S
C772 C771 1.369 . S
C772 C781 1.429 . S
C773 C771 1.419 . S
C773 C774 1.363 . S
C773 H776 0.929 . S
C774 C773 1.363 . S
C774 C780 1.428 . S
H775 C771 0.930 . S
H776 C773 0.929 . S
S777 N778 1.613 . S
S777 N779 1.610 . S
N778 S777 1.613 . S
N778 C781 1.350 . S
N779 S777 1.610 . S
N779 C780 1.351 . S
C780 C774 1.428 . S
C780 N779 1.351 . S
C780 C781 1.434 . S
C781 C772 1.429 . S
C781 N778 1.350 . S
C781 C780 1.434 . S
C782 C783 1.369 . S
C782 C784 1.419 . S
C782 H786 0.930 . S
C783 C782 1.369 . S
C783 C792 1.429 . S
C784 C782 1.419 . S
C784 C785 1.363 . S
C784 H787 0.929 . S
C785 C784 1.363 . S
C785 C791 1.428 . S
H786 C782 0.930 . S
H787 C784 0.929 . S
S788 N789 1.613 . S
S788 N790 1.610 . S
N789 S788 1.613 . S
N789 C792 1.350 . S
N790 S788 1.610 . S
N790 C791 1.351 . S
C791 C785 1.428 . S
C791 N790 1.351 . S
C791 C792 1.434 . S
C792 C783 1.429 . S
C792 N789 1.350 . S
C792 C791 1.434 . S
C793 C794 1.369 . S
C793 C795 1.419 . S
C793 H797 0.930 . S
C794 C793 1.369 . S
C794 C803 1.429 . S
C795 C793 1.419 . S
C795 C796 1.363 . S
C795 H798 0.929 . S
C796 C795 1.363 . S
C796 C802 1.428 . S
H797 C793 0.930 . S
H798 C795 0.929 . S
S799 N800 1.613 . S
S799 N801 1.610 . S
N800 S799 1.613 . S
N800 C803 1.350 . S
N801 S799 1.610 . S
N801 C802 1.351 . S
C802 C796 1.428 . S
C802 N801 1.351 . S
C802 C803 1.434 . S
C803 C794 1.429 . S
C803 N800 1.350 . S
C803 C802 1.434 . S
C804 C805 1.369 . S
C804 C806 1.419 . S
C804 H808 0.930 . S
C805 C804 1.369 . S
C805 C814 1.429 . S
C806 C804 1.419 . S
C806 C807 1.363 . S
C806 H809 0.929 . S
C807 C806 1.363 . S
C807 C813 1.428 . S
H808 C804 0.930 . S
H809 C806 0.929 . S
S810 N811 1.613 . S
S810 N812 1.610 . S
N811 S810 1.613 . S
N811 C814 1.350 . S
N812 S810 1.610 . S
N812 C813 1.351 . S
C813 C807 1.428 . S
C813 N812 1.351 . S
C813 C814 1.434 . S
C814 C805 1.429 . S
C814 N811 1.350 . S
C814 C813 1.434 . S
C815 C816 1.369 . S
C815 C817 1.419 . S
C815 H819 0.930 . S
C816 C815 1.369 . S
C816 C825 1.429 . S
C817 C815 1.419 . S
C817 C818 1.363 . S
C817 H820 0.929 . S
C818 C817 1.363 . S
C818 C824 1.428 . S
H819 C815 0.930 . S
H820 C817 0.929 . S
S821 N822 1.613 . S
S821 N823 1.610 . S
N822 S821 1.613 . S
N822 C825 1.350 . S
N823 S821 1.610 . S
N823 C824 1.351 . S
C824 C818 1.428 . S
C824 N823 1.351 . S
C824 C825 1.434 . S
C825 C816 1.429 . S
C825 N822 1.350 . S
C825 C824 1.434 . S
C826 C827 1.369 . S
C826 C828 1.419 . S
C826 H830 0.930 . S
C827 C826 1.369 . S
C827 C836 1.429 . S
C828 C826 1.419 . S
C828 C829 1.363 . S
C828 H831 0.929 . S
C829 C828 1.363 . S
C829 C835 1.428 . S
H830 C826 0.930 . S
H831 C828 0.929 . S
S832 N833 1.613 . S
S832 N834 1.610 . S
N833 S832 1.613 . S
N833 C836 1.350 . S
N834 S832 1.610 . S
N834 C835 1.351 . S
C835 C829 1.428 . S
C835 N834 1.351 . S
C835 C836 1.434 . S
C836 C827 1.429 . S
C836 N833 1.350 . S
C836 C835 1.434 . S
C837 C838 1.369 . S
C837 C839 1.419 . S
C837 H841 0.930 . S
C838 C837 1.369 . S
C838 C847 1.429 . S
C839 C837 1.419 . S
C839 C840 1.363 . S
C839 H842 0.929 . S
C840 C839 1.363 . S
C840 C846 1.428 . S
H841 C837 0.930 . S
H842 C839 0.929 . S
S843 N844 1.613 . S
S843 N845 1.610 . S
N844 S843 1.613 . S
N844 C847 1.350 . S
N845 S843 1.610 . S
N845 C846 1.351 . S
C846 C840 1.428 . S
C846 N845 1.351 . S
C846 C847 1.434 . S
C847 C838 1.429 . S
C847 N844 1.350 . S
C847 C846 1.434 . S
C499 C405 1.491 . S
C497 C36 1.431 . S
C510 C425 1.495 . S
C508 C93 1.491 . S
C521 C439 1.490 . S
C519 C126 1.533 . S
C530 C165 1.509 . S
C532 C397 1.510 . S
C541 C222 1.543 1_554 S
C543 C391 1.632 . S
C552 C261 1.515 . S
C554 C411 1.531 . S
C565 C419 1.503 . S
C563 C318 1.470 . S
C576 C433 1.584 . S
C574 C381 1.525 . S
C585 C132 1.494 . S
C587 C461 1.582 . S
C598 C475 1.504 . S
C596 C189 1.465 . S
C607 C30 1.534 . S
C609 C495 1.531 . S
C620 C447 1.633 . S
C618 C69 1.532 . S
C629 C324 1.514 . S
C631 C453 1.506 . S
C640 C357 1.502 . S
C642 C467 1.494 . S
C653 C481 1.496 1_556 S
C651 C228 1.484 . S
C662 C285 1.449 . S
C664 C489 1.489 . S
C675 C420 1.780 . S
C673 C45 1.740 . S
C686 C434 1.797 . S
C684 C84 1.766 . S
C695 C117 1.689 . S
C697 C392 1.733 . S
C706 C174 1.512 . S
C708 C409 1.571 . S
C717 C213 1.487 . S
C719 C437 1.504 . S
C730 C395 1.494 . S
C728 C270 1.449 . S
C741 C406 1.694 . S
C739 C309 1.660 . S
C752 C423 1.558 . S
C750 C372 1.539 . S
C763 C479 1.559 . S
C761 C141 1.535 . S
C774 C490 1.692 . S
C772 C180 1.671 . S
C783 C21 1.473 . S
C785 C451 1.496 . S
C796 C465 1.506 . S
C794 C78 1.456 . S
C807 C493 1.571 . S
C805 C333 1.554 . S
C816 C366 1.644 . S
C818 C448 1.733 . S
C829 C462 1.797 . S
C827 C237 1.763 . S
C840 C476 1.778 . S
C838 C276 1.750 . S
