# Generated by pormake.
# Topology rtl, (3,6)-cn, num edge types: 1
# Building blocks:
#     Node 0, Type 0, BuildingBlock: CUQRIR_clean_linker_1, # of connection points: 3
#     Node 1, Type 0, BuildingBlock: CUQRIR_clean_linker_1, # of connection points: 3
#     Node 2, Type 0, BuildingBlock: CUQRIR_clean_linker_1, # of connection points: 3
#     Node 3, Type 0, BuildingBlock: CUQRIR_clean_linker_1, # of connection points: 3
#     Node 4, Type 1, BuildingBlock: KUMBUR_clean_sbu_1, # of connection points: 6
#     Node 5, Type 1, BuildingBlock: KUMBUR_clean_sbu_1, # of connection points: 6
#     Edge 6, Type (0, 1), BuildingBlock: EZIPEK_clean_linker_0, # of connection points: 2
#     Edge 7, Type (0, 1), BuildingBlock: EZIPEK_clean_linker_0, # of connection points: 2
#     Edge 8, Type (0, 1), BuildingBlock: EZIPEK_clean_linker_0, # of connection points: 2
#     Edge 9, Type (0, 1), BuildingBlock: EZIPEK_clean_linker_0, # of connection points: 2
#     Edge 10, Type (0, 1), BuildingBlock: EZIPEK_clean_linker_0, # of connection points: 2
#     Edge 11, Type (0, 1), BuildingBlock: EZIPEK_clean_linker_0, # of connection points: 2
#     Edge 12, Type (0, 1), BuildingBlock: EZIPEK_clean_linker_0, # of connection points: 2
#     Edge 13, Type (0, 1), BuildingBlock: EZIPEK_clean_linker_0, # of connection points: 2
#     Edge 14, Type (0, 1), BuildingBlock: EZIPEK_clean_linker_0, # of connection points: 2
#     Edge 15, Type (0, 1), BuildingBlock: EZIPEK_clean_linker_0, # of connection points: 2
#     Edge 16, Type (0, 1), BuildingBlock: EZIPEK_clean_linker_0, # of connection points: 2
#     Edge 17, Type (0, 1), BuildingBlock: EZIPEK_clean_linker_0, # of connection points: 2
# Relax obj value: 0.067
# Max RMSD: 0.251
# Mean RMSD: 0.191
data_MOF--net-rtl--node1-KUMBUR_clean_sbu_1--node2-CUQRIR_clean_linker_1--edge1-EZIPEK_clean_linker_0
_symmetry_space_group_name_H-M    P1
_symmetry_Int_Tables_number       1
_symmetry_cell_setting            triclinic
loop_
_symmetry_equiv_pos_as_xyz
'x, y, z'
_cell_length_a     23.691055
_cell_length_b     24.247152
_cell_length_c     18.378177
_cell_angle_alpha  71.238847
_cell_angle_beta   97.191212
_cell_angle_gamma 90.641908
loop_
_atom_site_label
_atom_site_type_symbol
_atom_site_fract_x
_atom_site_fract_y
_atom_site_fract_z
_atom_type_partial_charge
C0 C 0.26114 0.81506 0.98494 0.0
N1 N 0.21414 0.83984 0.99773 0.0
N2 N 0.28039 0.76864 0.04709 0.0
C3 C 0.29123 0.84025 0.91455 0.0
C4 C 0.24411 0.76738 0.09934 0.0
N5 N 0.20395 0.81092 0.06951 0.0
C6 C 0.24819 0.72437 0.17983 0.0
H7 H 0.26044 0.86118 0.86254 0.0
H8 H 0.31819 0.80753 0.90368 0.0
H9 H 0.31949 0.87467 0.9243 0.0
H10 H 0.27179 0.74399 0.22098 0.0
H11 H 0.27085 0.68352 0.18381 0.0
H12 H 0.20523 0.71408 0.19753 0.0
C13 C 0.74514 0.7397 0.7702 0.0
N14 N 0.70244 0.70572 0.75485 0.0
N15 N 0.75968 0.77806 0.70346 0.0
C16 C 0.77419 0.7328 0.85018 0.0
C17 C 0.72315 0.76655 0.64758 0.0
N18 N 0.69003 0.72146 0.67826 0.0
C19 C 0.71969 0.79876 0.56193 0.0
H20 H 0.75025 0.75912 0.87616 0.0
H21 H 0.81858 0.74772 0.84868 0.0
H22 H 0.77415 0.68663 0.88763 0.0
H23 H 0.74059 0.77195 0.5335 0.0
H24 H 0.73994 0.84167 0.55021 0.0
H25 H 0.67451 0.80587 0.53564 0.0
C26 C 0.79092 0.22696 0.20623 0.0
N27 N 0.8273 0.18874 0.19519 0.0
N28 N 0.75885 0.25646 0.13921 0.0
C29 C 0.78764 0.23646 0.28222 0.0
C30 C 0.77743 0.23561 0.08612 0.0
N31 N 0.81993 0.19496 0.11979 0.0
C32 C 0.75479 0.25586 1.00151 0.0
H33 H 0.75602 0.20684 0.31306 0.0
H34 H 0.77405 0.28202 0.27356 0.0
H35 H 0.82969 0.22643 0.3183 0.0
H36 H 0.7772 0.29556 0.9717 0.0
H37 H 0.70868 0.26734 0.99331 0.0
H38 H 0.76192 0.22192 0.97477 0.0
C39 C 0.29543 0.27866 0.41012 0.0
N40 N 0.33114 0.3204 0.4204 0.0
N41 N 0.26433 0.25943 0.46988 0.0
C42 C 0.29052 0.25694 0.34188 0.0
C43 C 0.28233 0.29052 0.51701 0.0
N44 N 0.3231 0.32736 0.48751 0.0
C45 C 0.26169 0.28314 0.59371 0.0
H46 H 0.25614 0.28242 0.29763 0.0
H47 H 0.27912 0.2104 0.35929 0.0
H48 H 0.33083 0.26249 0.3158 0.0
H49 H 0.29105 0.25217 0.64038 0.0
H50 H 0.21828 0.26551 0.59528 0.0
H51 H 0.26155 0.32525 0.60542 0.0
Tb52 Tb 0.06236 0.95712 0.55454 0.0
C53 C 0.91908 0.18444 0.52487 0.0
N54 N 0.97277 0.16505 0.55801 0.0
C55 C 1.00728 0.26141 0.50611 0.0
C56 C 0.90769 0.24324 0.4793 0.0
C57 C 0.01611 0.20318 0.55268 0.0
C58 C 0.95293 0.28142 0.46846 0.0
C59 C 0.81828 0.16558 0.51076 0.0
C60 C 0.875 0.1459 0.54037 0.0
C61 C 0.80682 0.22396 0.46498 0.0
C62 C 0.85142 0.26263 0.44891 0.0
Tb63 Tb 0.98197 0.07058 0.63632 0.0
N64 N 0.8873 0.09048 0.58875 0.0
C65 C 0.77443 0.12677 0.53086 0.0
C66 C 0.84389 0.05404 0.61297 0.0
C67 C 0.78728 0.071 0.58293 0.0
H68 H 0.05754 0.1893 0.58499 0.0
H69 H 0.75344 0.04142 0.60151 0.0
H70 H 0.98655 0.83458 0.5938 0.0
H71 H 0.28797 0.98059 0.60992 0.0
H72 H 0.85168 0.01243 0.65722 0.0
H73 H 0.73039 0.14014 0.50894 0.0
H74 H 0.19013 0.0096 0.54373 0.0
H75 H 0.04216 0.29108 0.50061 0.0
H76 H 0.76349 0.23986 0.44233 0.0
H77 H 0.84179 0.30767 0.414 0.0
H78 H 0.99567 0.73603 0.68761 0.0
H79 H 0.94596 0.32684 0.43361 0.0
H80 H 0.30639 0.8847 0.71224 0.0
N81 N 0.06667 0.86169 0.63485 0.0
C82 C 0.11796 0.84255 0.67761 0.0
C83 C 0.0301 0.76588 0.68668 0.0
C84 C 0.12666 0.78491 0.72873 0.0
C85 C 0.02427 0.82283 0.63509 0.0
C86 C 0.08123 0.7471 0.73485 0.0
N87 N 0.15337 0.9337 0.61309 0.0
C88 C 0.19768 0.96865 0.59007 0.0
C89 C 0.21825 0.86019 0.7031 0.0
C90 C 0.16312 0.87953 0.6654 0.0
C91 C 0.26336 0.89781 0.68441 0.0
C92 C 0.25313 0.95197 0.62676 0.0
H93 H 0.08609 0.70258 0.77367 0.0
H94 H 0.18831 0.72198 0.80862 0.0
H95 H 0.26889 0.78749 0.78499 0.0
O96 O 0.0945 0.98443 0.44712 0.0
O97 O 0.09757 0.97405 0.66126 0.0
O98 O 0.01861 0.9872 0.71531 0.0
O99 O 0.07084 0.89627 0.49617 0.0
O100 O 0.08575 0.04913 0.51593 0.0
O101 O 0.07139 0.08495 0.61588 0.0
O102 O 0.93325 0.09259 0.71201 0.0
O103 O 0.97717 0.08787 0.51046 0.0
O104 O 0.97945 0.99675 0.49555 0.0
O105 O 0.0229 0.10666 0.71823 0.0
O106 O 0.94542 0.98415 0.6616 0.0
O107 O 0.9763 0.93341 0.58442 0.0
C108 C 0.07116 0.96812 0.72182 0.0
C109 C 0.06273 0.93362 0.35997 0.0
C110 C 0.06945 0.90777 0.24316 0.0
C111 C 0.01427 0.93134 0.21344 0.0
C112 C 1.00764 0.95699 0.32935 0.0
C113 C 0.98366 0.95592 0.25631 0.0
C114 C 0.09339 0.90893 0.31674 0.0
C115 C 0.09584 0.08641 0.55452 0.0
C116 C 0.08896 0.93403 0.43686 0.0
C117 C 0.18096 0.76606 0.76915 0.0
C118 C 0.22679 0.80342 0.75578 0.0
C119 C 0.96545 0.05261 0.46934 0.0
C120 C 0.98159 0.08408 0.83532 0.0
C121 C 0.95424 0.08831 0.9573 0.0
C122 C 0.99143 0.04077 0.99795 0.0
C123 C 0.01689 0.0352 0.87699 0.0
C124 C 0.94976 0.11015 0.87585 0.0
C125 C 0.02222 0.01403 0.95785 0.0
C126 C 0.94176 0.94108 0.63201 0.0
C127 C 0.97701 0.10808 0.74994 0.0
H128 H 0.99495 0.9304 0.15727 0.0
H129 H 0.9832 0.97584 0.36186 0.0
H130 H 0.94116 0.97409 0.23292 0.0
H131 H 0.13599 0.89079 0.3401 0.0
H132 H 0.9961 0.02431 0.06057 0.0
H133 H 0.04028 0.0135 0.84705 0.0
H134 H 0.92155 0.14733 0.84428 0.0
H135 H 0.05021 0.97676 0.98946 0.0
Tb136 Tb 0.46555 0.4797 1.01629 0.0
C137 C 0.70854 0.52988 0.16491 0.0
N138 N 0.66657 0.49719 0.19991 0.0
C139 C 0.73515 0.42024 0.27039 0.0
C140 C 0.76525 0.50824 0.17925 0.0
C141 C 0.67968 0.44397 0.25507 0.0
C142 C 0.77798 0.45216 0.23146 0.0
C143 C 0.73764 0.62325 0.08363 0.0
C144 C 0.69501 0.5864 0.11732 0.0
C145 C 0.79379 0.60122 0.09504 0.0
C146 C 0.80753 0.54374 0.14256 0.0
Tb147 Tb 0.57673 0.53971 0.16373 0.0
N148 N 0.64029 0.6062 0.10757 0.0
C149 C 0.72283 0.68156 0.04164 0.0
C150 C 0.62607 0.66367 0.06986 0.0
C151 C 0.66692 0.70199 0.03535 0.0
H152 H 0.64705 0.41905 0.28629 0.0
H153 H 0.65533 0.74726 1.00419 0.0
H154 H 0.33986 0.55293 0.98587 0.0
H155 H 0.50742 0.24891 0.0903 0.0
H156 H 0.583 0.67969 0.06543 0.0
H157 H 0.75459 0.7115 1.01599 0.0
H158 H 0.52675 0.35333 0.03474 0.0
H159 H 0.74484 0.37742 0.31237 0.0
H160 H 0.82709 0.62865 0.06884 0.0
H161 H 0.85124 0.52769 0.15221 0.0
H162 H 0.24467 0.53245 0.02552 0.0
H163 H 0.82096 0.43377 0.2437 0.0
H164 H 0.41743 0.2189 0.14537 0.0
N165 N 0.37284 0.4662 0.04275 0.0
C166 C 0.35922 0.41021 0.07846 0.0
C167 C 0.27673 0.4977 0.04182 0.0
C168 C 0.30448 0.39604 0.10005 0.0
C169 C 0.33139 0.50937 1.02064 0.0
C170 C 0.26348 0.44093 0.08299 0.0
N171 N 0.45012 0.38214 0.06212 0.0
C172 C 0.48785 0.34082 0.05984 0.0
C173 C 0.38578 0.30751 0.11904 0.0
C174 C 0.39903 0.36651 0.08752 0.0
C175 C 0.42595 0.2648 0.1217 0.0
C176 C 0.47677 0.28157 0.09063 0.0
H177 H 0.22095 0.4319 0.0987 0.0
H178 H 0.25007 0.32578 0.15232 0.0
H179 H 0.32147 0.24813 0.16944 0.0
O180 O 0.48502 0.45322 0.92326 0.0
O181 O 0.47518 0.43326 0.14094 0.0
O182 O 0.49548 0.503 0.20028 0.0
O183 O 0.41025 0.50573 0.91179 0.0
O184 O 0.55603 0.45215 0.03871 0.0
O185 O 0.57941 0.44933 0.16516 0.0
O186 O 0.56986 0.60513 0.21403 0.0
O187 O 0.59373 0.56033 0.04319 0.0
O188 O 0.50683 0.56276 0.96874 0.0
O189 O 0.59877 0.51884 0.28477 0.0
O190 O 0.50807 0.60237 0.09828 0.0
O191 O 0.43558 0.55457 0.04534 0.0
C192 C 0.46863 0.45649 0.19482 0.0
C193 C 0.40462 0.43931 0.84201 0.0
C194 C 0.38148 0.40373 0.7324 0.0
C195 C 0.3384 0.37037 0.76997 0.0
C196 C 0.36083 0.40615 0.87803 0.0
C197 C 0.32821 0.37162 0.84241 0.0
C198 C 0.415 0.43798 0.76881 0.0
C199 C 0.58905 0.43371 0.10554 0.0
C200 C 0.43839 0.47646 0.87934 0.0
C201 C 0.29177 0.33744 0.13489 0.0
C202 C 0.33237 0.29322 0.14439 0.0
C203 C 0.56135 0.57345 0.97594 0.0
C204 C 0.6311 0.59737 0.32728 0.0
C205 C 0.6571 0.63223 0.43677 0.0
C206 C 0.70637 0.65586 0.40473 0.0
C207 C 0.68065 0.6209 0.2965 0.0
C208 C 0.61973 0.60236 0.39818 0.0
C209 C 0.71816 0.64988 0.33523 0.0
C210 C 0.45486 0.59762 0.07024 0.0
C211 C 0.58876 0.57175 0.28344 0.0
H212 H 0.31236 0.3436 0.74275 0.0
H213 H 0.35118 0.40746 0.93313 0.0
H214 H 0.29461 0.34615 0.87074 0.0
H215 H 0.44836 0.46373 0.74004 0.0
H216 H 0.73592 0.67871 0.43399 0.0
H217 H 0.68997 0.61788 0.24208 0.0
H218 H 0.58166 0.58403 0.42258 0.0
H219 H 0.7562 0.66816 0.31099 0.0
C220 C 0.23837 0.16132 0.54553 0.0
C221 C 0.22381 0.21373 0.48441 0.0
C222 C 0.12738 0.18007 0.46297 0.0
C223 C 0.14004 0.13027 0.53005 0.0
N224 N 0.20569 0.07849 0.64254 0.0
N225 N 0.1534 0.27785 0.39155 0.0
C226 C 0.19504 0.12234 0.57355 0.0
C227 C 0.16812 0.22426 0.4443 0.0
N228 N 0.29414 0.14862 0.57574 0.0
N229 N 0.07612 0.18578 0.41785 0.0
H230 H 0.18244 0.31106 0.3773 0.0
H231 H 0.11179 0.29092 0.36649 0.0
H232 H 0.04333 0.15736 0.43362 0.0
H233 H 0.06696 0.21718 0.36351 0.0
H234 H 0.30861 0.10851 0.61549 0.0
H235 H 0.32664 0.17648 0.55517 0.0
H236 H 0.24271 0.07486 0.68109 0.0
H237 H 0.17598 0.04748 0.66341 0.0
C238 C 0.3719 0.71632 0.11227 0.0
C239 C 0.32555 0.72723 0.05256 0.0
C240 C 0.37259 0.66524 0.99534 0.0
C241 C 0.41306 0.64533 0.06262 0.0
N242 N 0.43985 0.6428 0.19546 0.0
N243 N 0.27536 0.69831 0.94864 0.0
C244 C 0.41004 0.66856 0.12412 0.0
C245 C 0.32384 0.69741 0.99754 0.0
N246 N 0.37991 0.7517 0.15698 0.0
N247 N 0.38136 0.65575 0.92828 0.0
H248 H 0.23788 0.71939 0.95078 0.0
H249 H 0.27124 0.673 0.91198 0.0
H250 H 0.41836 0.63556 0.92254 0.0
H251 H 0.35454 0.6737 0.87646 0.0
H252 H 0.41574 0.74784 0.19773 0.0
H253 H 0.35371 0.78833 0.14731 0.0
H254 H 0.4354 0.65619 0.24303 0.0
H255 H 0.46271 0.60361 0.20957 0.0
C256 C 0.81697 0.85864 0.72911 0.0
C257 C 0.80777 0.81611 0.69167 0.0
C258 C 0.87684 0.86315 0.60619 0.0
C259 C 0.8951 0.89829 0.6532 0.0
N260 N 0.89063 0.91031 0.77963 0.0
N261 N 0.84755 0.76654 0.61404 0.0
C262 C 0.86775 0.89064 0.72097 0.0
C263 C 0.84417 0.81427 0.6371 0.0
N264 N 0.77708 0.87013 0.77 0.0
N265 N 0.88623 0.87759 0.53064 0.0
H266 H 0.82646 0.72857 0.639 0.0
H267 H 0.87617 0.76331 0.57666 0.0
H268 H 0.9025 0.91713 0.5003 0.0
H269 H 0.87023 0.85322 0.49548 0.0
H270 H 0.78108 0.90385 0.7939 0.0
H271 H 0.73767 0.85046 0.77198 0.0
H272 H 0.87212 0.90235 0.83051 0.0
H273 H 0.93142 0.92632 0.78322 0.0
C274 C 0.6636 0.28507 0.15744 0.0
C275 C 0.71589 0.30093 0.12827 0.0
C276 C 0.68546 0.40366 0.08322 0.0
C277 C 0.63391 0.38823 0.11615 0.0
N278 N 0.58044 0.31499 0.20073 0.0
N279 N 0.78249 0.37464 0.0796 0.0
C280 C 0.62502 0.32913 0.15845 0.0
C281 C 0.72844 0.36012 0.09542 0.0
N282 N 0.65031 0.22763 0.18219 0.0
N283 N 0.69376 0.45997 0.04095 0.0
H284 H 0.81485 0.34341 0.08895 0.0
H285 H 0.79661 0.41718 0.06395 0.0
H286 H 0.66538 0.49366 0.03566 0.0
H287 H 0.72729 0.4729 1.00824 0.0
H288 H 0.6104 0.21326 0.19694 0.0
H289 H 0.67782 0.19465 0.1812 0.0
H290 H 0.5758 0.27371 0.23982 0.0
H291 H 0.54973 0.34542 0.20031 0.0
C292 C 0.18906 0.88245 0.13586 0.0
C293 C 0.1697 0.83399 0.11378 0.0
C294 C 0.0865 0.83011 0.18272 0.0
C295 C 0.10284 0.88282 0.19669 0.0
N296 N 0.16392 0.96542 0.17235 0.0
N297 N 0.09922 0.76223 0.11307 0.0
C298 C 0.15247 0.91085 0.16905 0.0
C299 C 0.11794 0.80814 0.13603 0.0
N300 N 0.24383 0.89931 0.12914 0.0
N301 N 0.04279 0.79955 0.21728 0.0
H302 H 0.12413 0.74176 0.08596 0.0
H303 H 0.05857 0.7459 0.11835 0.0
H304 H 0.01951 0.81365 0.25287 0.0
H305 H 0.03241 0.75804 0.21595 0.0
H306 H 0.26222 0.9308 0.15124 0.0
H307 H 0.27265 0.87744 0.10876 0.0
H308 H 0.19644 0.99013 0.14585 0.0
H309 H 0.13757 0.98828 0.19487 0.0
C310 C 0.67182 0.61201 0.84094 0.0
C311 C 0.66492 0.67308 0.80866 0.0
C312 C 0.58262 0.66975 0.87939 0.0
C313 C 0.58799 0.60802 0.90698 0.0
N314 N 0.62369 0.52184 0.88806 0.0
N315 N 0.61006 0.76072 0.78928 0.0
C316 C 0.62817 0.57959 0.87945 0.0
C317 C 0.61884 0.70218 0.82522 0.0
N318 N 0.72171 0.5852 0.83988 0.0
N319 N 0.54414 0.69725 0.9065 0.0
H320 H 0.63709 0.78575 0.75173 0.0
H321 H 0.57425 0.78383 0.79261 0.0
H322 H 0.5156 0.67456 0.9434 0.0
H323 H 0.54243 0.74205 0.89593 0.0
H324 H 0.73006 0.54068 0.86697 0.0
H325 H 0.75726 0.60898 0.82257 0.0
H326 H 0.64967 0.50005 0.86367 0.0
H327 H 0.58989 0.49798 0.91195 0.0
C328 C 0.83781 0.10184 0.31293 0.0
C329 C 0.86327 0.14604 0.25631 0.0
C330 C 0.95688 0.11314 0.32919 0.0
C331 C 0.93096 0.07689 0.39219 0.0
N332 N 0.84634 0.03469 0.44454 0.0
N333 N 0.94581 0.20156 0.2201 0.0
C334 C 0.87125 0.06988 0.38377 0.0
C335 C 0.92264 0.15328 0.26627 0.0
N336 N 0.78128 0.09175 0.29944 0.0
N337 N 0.01408 0.10871 0.32876 0.0
H338 H 0.92075 0.23481 0.17891 0.0
H339 H 0.98844 0.21164 0.22933 0.0
H340 H 0.03999 0.07873 0.37358 0.0
H341 H 0.03435 0.13067 0.28087 0.0
H342 H 0.76101 0.05649 0.33398 0.0
H343 H 0.75504 0.11695 0.25047 0.0
H344 H 0.80258 0.03224 0.44564 0.0
H345 H 0.86981 0.00978 0.49624 0.0
C346 C 0.33588 0.41507 0.52719 0.0
C347 C 0.35692 0.35976 0.52989 0.0
C348 C 0.41846 0.35212 0.65079 0.0
C349 C 0.38945 0.40128 0.65469 0.0
N350 N 0.33551 0.49007 0.58931 0.0
N351 N 0.41669 0.27426 0.59514 0.0
C352 C 0.3537 0.43677 0.58949 0.0
C353 C 0.39968 0.329 0.59041 0.0
N354 N 0.29399 0.44311 0.46955 0.0
N355 N 0.46231 0.32658 0.70699 0.0
H356 H 0.4005 0.25465 0.55465 0.0
H357 H 0.44304 0.24652 0.64184 0.0
H358 H 0.47562 0.34321 0.75193 0.0
H359 H 0.48855 0.29302 0.70519 0.0
H360 H 0.27255 0.48114 0.4664 0.0
H361 H 0.27866 0.42614 0.42599 0.0
H362 H 0.31176 0.52035 0.54232 0.0
H363 H 0.3484 0.50576 0.63522 0.0
C364 C 0.70547 0.63884 0.63106 0.0
C365 C 0.66872 0.68313 0.63581 0.0
C366 C 0.60981 0.68021 0.51785 0.0
C367 C 0.64811 0.63734 0.5129 0.0
N368 N 0.71656 0.55985 0.57992 0.0
N369 N 0.57879 0.73486 0.59689 0.0
C370 C 0.68963 0.61035 0.57604 0.0
C371 C 0.61767 0.69907 0.58424 0.0
N372 N 0.7587 0.62912 0.67152 0.0
N373 N 0.56899 0.70574 0.45713 0.0
H374 H 0.58555 0.75002 0.64426 0.0
H375 H 0.53872 0.74536 0.56469 0.0
H376 H 0.56183 0.69219 0.40846 0.0
H377 H 0.54396 0.74176 0.45356 0.0
H378 H 0.78907 0.60144 0.66377 0.0
H379 H 0.77478 0.65348 0.70624 0.0
H380 H 0.74477 0.53617 0.62782 0.0
H381 H 0.70575 0.53902 0.53863 0.0
C382 C 0.89726 0.19936 0.03894 0.0
C383 C 0.85417 0.16757 0.08025 0.0
C384 C 0.87333 0.08525 0.03542 0.0
C385 C 0.91996 0.11522 1.00039 0.0
N386 N 0.98264 0.19631 0.98021 0.0
N387 N 0.7998 0.08138 0.11791 0.0
C388 C 0.93364 0.17109 1.00524 0.0
C389 C 0.8422 0.11052 0.07898 0.0
N390 N 0.9022 0.25732 0.02958 0.0
N391 N 0.85723 0.03407 0.02374 0.0
H392 H 0.77217 0.10172 0.14179 0.0
H393 H 0.79282 0.03722 0.12834 0.0
H394 H 0.87846 0.01478 0.99129 0.0
H395 H 0.82069 0.01241 0.04145 0.0
H396 H 0.92806 0.2845 0.99229 0.0
H397 H 0.87721 0.27938 0.05469 0.0
H398 H 0.99816 0.23394 0.99019 0.0
H399 H 1.01065 0.17686 0.95553 0.0
C400 C 0.34226 0.40572 0.30543 0.0
C401 C 0.36623 0.35545 0.36496 0.0
C402 C 0.45883 0.37444 0.31696 0.0
C403 C 0.43497 0.42489 0.25763 0.0
N404 N 0.3582 0.49647 0.20661 0.0
N405 N 0.44095 0.28194 0.41084 0.0
C406 C 0.37783 0.44286 0.25507 0.0
C407 C 0.42299 0.33715 0.36664 0.0
N408 N 0.28466 0.41534 0.2933 0.0
N409 N 0.51626 0.36377 0.32825 0.0
H410 H 0.41338 0.25177 0.44074 0.0
H411 H 0.48031 0.26376 0.40971 0.0
H412 H 0.54384 0.3921 0.29541 0.0
H413 H 0.53704 0.33069 0.37504 0.0
H414 H 0.26354 0.44745 0.24567 0.0
H415 H 0.25725 0.38774 0.3275 0.0
H416 H 0.3189 0.51478 0.2077 0.0
H417 H 0.38346 0.52504 0.17002 0.0
C418 C 0.18078 0.93475 0.90176 0.0
C419 C 0.17237 0.87457 0.93646 0.0
C420 C 0.09066 0.87892 0.83814 0.0
C421 C 0.10189 0.93786 0.79989 0.0
N422 N 0.14715 0.02624 0.80453 0.0
N423 N 0.12748 0.78669 0.92863 0.0
C424 C 0.14417 0.96708 0.83428 0.0
C425 C 0.12878 0.8461 0.90308 0.0
N426 N 0.22633 0.95974 0.9307 0.0
N427 N 0.04338 0.85423 0.81262 0.0
H428 H 0.1568 0.76075 0.97291 0.0
H429 H 0.10116 0.7627 0.90118 0.0
H430 H 0.01566 0.87616 0.76337 0.0
H431 H 0.02915 0.81367 0.84349 0.0
H432 H 0.23939 0.00171 0.90404 0.0
H433 H 0.25396 0.93658 0.97941 0.0
H434 H 0.17313 0.05148 0.83024 0.0
H435 H 0.11945 0.05106 0.75706 0.0
loop_
_geom_bond_atom_site_label_1
_geom_bond_atom_site_label_2
_geom_bond_distance
_geom_bond_site_symmetry_2
_ccdc_geom_bond_type
C0 N1 1.317 . S
C0 N2 1.348 1_556 S
C0 C3 1.485 . S
N1 C0 1.317 . S
N1 N5 1.370 1_556 S
N2 C0 1.348 1_554 S
N2 C4 1.346 . S
C3 C0 1.485 . S
C3 H7 0.960 . S
C3 H8 0.961 . S
C3 H9 0.960 . S
C4 N2 1.346 . S
C4 N5 1.307 . S
C4 C6 1.486 . S
N5 N1 1.370 1_554 S
N5 C4 1.307 . S
C6 C4 1.486 . S
C6 H10 0.960 . S
C6 H11 0.960 . S
C6 H12 0.959 . S
H7 C3 0.960 . S
H8 C3 0.961 . S
H9 C3 0.960 . S
H10 C6 0.960 . S
H11 C6 0.960 . S
H12 C6 0.959 . S
C13 N14 1.317 . S
C13 N15 1.348 . S
C13 C16 1.485 . S
N14 C13 1.317 . S
N14 N18 1.370 . S
N15 C13 1.348 . S
N15 C17 1.346 . S
C16 C13 1.485 . S
C16 H20 0.960 . S
C16 H21 0.961 . S
C16 H22 0.960 . S
C17 N15 1.346 . S
C17 N18 1.307 . S
C17 C19 1.486 . S
N18 N14 1.370 . S
N18 C17 1.307 . S
C19 C17 1.486 . S
C19 H23 0.960 . S
C19 H24 0.960 . S
C19 H25 0.959 . S
H20 C16 0.960 . S
H21 C16 0.961 . S
H22 C16 0.960 . S
H23 C19 0.960 . S
H24 C19 0.960 . S
H25 C19 0.959 . S
C26 N27 1.317 . S
C26 N28 1.348 . S
C26 C29 1.485 . S
N27 C26 1.317 . S
N27 N31 1.370 . S
N28 C26 1.348 . S
N28 C30 1.346 . S
C29 C26 1.485 . S
C29 H33 0.960 . S
C29 H34 0.961 . S
C29 H35 0.960 . S
C30 N28 1.346 . S
C30 N31 1.307 . S
C30 C32 1.486 1_554 S
N31 N27 1.370 . S
N31 C30 1.307 . S
C32 C30 1.486 1_556 S
C32 H36 0.960 . S
C32 H37 0.960 . S
C32 H38 0.959 . S
H33 C29 0.960 . S
H34 C29 0.961 . S
H35 C29 0.960 . S
H36 C32 0.960 . S
H37 C32 0.960 . S
H38 C32 0.959 . S
C39 N40 1.317 . S
C39 N41 1.348 . S
C39 C42 1.485 . S
N40 C39 1.317 . S
N40 N44 1.370 . S
N41 C39 1.348 . S
N41 C43 1.346 . S
C42 C39 1.485 . S
C42 H46 0.960 . S
C42 H47 0.961 . S
C42 H48 0.960 . S
C43 N41 1.346 . S
C43 N44 1.307 . S
C43 C45 1.486 . S
N44 N40 1.370 . S
N44 C43 1.307 . S
C45 C43 1.486 . S
C45 H49 0.960 . S
C45 H50 0.960 . S
C45 H51 0.959 . S
H46 C42 0.960 . S
H47 C42 0.961 . S
H48 C42 0.960 . S
H49 C45 0.960 . S
H50 C45 0.960 . S
H51 C45 0.959 . S
Tb52 N81 2.617 . S
Tb52 N87 2.572 . S
Tb52 O96 2.465 . S
Tb52 O97 2.387 . S
Tb52 O99 2.428 . S
Tb52 O100 2.308 1_565 S
Tb52 O104 2.349 1_465 S
Tb52 O107 2.393 1_455 S
Tb52 C116 2.802 . S
C53 N54 1.379 . S
C53 C56 1.416 . S
C53 C60 1.424 . S
N54 C53 1.379 . S
N54 C57 1.334 1_655 S
N54 Tb63 2.617 . S
C55 C57 1.390 . S
C55 C58 1.339 1_455 S
C55 H75 0.930 . S
C56 C53 1.416 . S
C56 C58 1.416 . S
C56 C62 1.448 . S
C57 N54 1.334 1_455 S
C57 C55 1.390 . S
C57 H68 0.930 . S
C58 C55 1.339 1_655 S
C58 C56 1.416 . S
C58 H79 0.930 . S
C59 C60 1.413 . S
C59 C61 1.427 . S
C59 C65 1.416 . S
C60 C53 1.424 . S
C60 C59 1.413 . S
C60 N64 1.361 . S
C61 C59 1.427 . S
C61 C62 1.328 . S
C61 H76 0.929 . S
C62 C56 1.448 . S
C62 C61 1.328 . S
C62 H77 0.930 . S
Tb63 N54 2.617 . S
Tb63 N64 2.572 . S
Tb63 O98 2.349 1_655 S
Tb63 O101 2.393 1_655 S
Tb63 O102 2.465 . S
Tb63 O103 2.387 . S
Tb63 O105 2.428 . S
Tb63 O106 2.308 1_545 S
Tb63 C127 2.802 . S
N64 C60 1.361 . S
N64 Tb63 2.572 . S
N64 C66 1.340 . S
C65 C59 1.416 . S
C65 C67 1.332 . S
C65 H73 0.931 . S
C66 N64 1.340 . S
C66 C67 1.407 . S
C66 H72 0.930 . S
C67 C65 1.332 . S
C67 C66 1.407 . S
C67 H69 0.929 . S
H68 C57 0.930 . S
H69 C67 0.929 . S
H70 C85 0.930 1_655 S
H71 C92 0.929 . S
H72 C66 0.930 . S
H73 C65 0.931 . S
H74 C88 0.930 . S
H75 C55 0.930 . S
H76 C61 0.929 . S
H77 C62 0.930 . S
H78 C83 0.930 1_655 S
H79 C58 0.930 . S
H80 C91 0.931 . S
N81 Tb52 2.617 . S
N81 C82 1.379 . S
N81 C85 1.334 . S
C82 N81 1.379 . S
C82 C84 1.416 . S
C82 C90 1.424 . S
C83 H78 0.930 1_455 S
C83 C85 1.390 . S
C83 C86 1.339 . S
C84 C82 1.416 . S
C84 C86 1.416 . S
C84 C117 1.448 . S
C85 H70 0.930 1_455 S
C85 N81 1.334 . S
C85 C83 1.390 . S
C86 C83 1.339 . S
C86 C84 1.416 . S
C86 H93 0.930 . S
N87 Tb52 2.572 . S
N87 C88 1.340 . S
N87 C90 1.361 . S
C88 H74 0.930 . S
C88 N87 1.340 . S
C88 C92 1.407 . S
C89 C90 1.413 . S
C89 C91 1.416 . S
C89 C118 1.427 . S
C90 C82 1.424 . S
C90 N87 1.361 . S
C90 C89 1.413 . S
C91 H80 0.931 . S
C91 C89 1.416 . S
C91 C92 1.332 . S
C92 H71 0.929 . S
C92 C88 1.407 . S
C92 C91 1.332 . S
H93 C86 0.930 . S
H94 C117 0.930 . S
H95 C118 0.929 . S
O96 Tb52 2.465 . S
O96 C116 1.264 . S
O97 Tb52 2.387 . S
O97 C108 1.264 . S
O98 Tb63 2.349 1_455 S
O98 C108 1.243 1_545 S
O99 Tb52 2.428 . S
O99 C116 1.256 . S
O100 Tb52 2.308 1_545 S
O100 C115 1.266 . S
O101 Tb63 2.393 1_455 S
O101 C115 1.248 . S
O102 Tb63 2.465 . S
O102 C127 1.264 . S
O103 Tb63 2.387 . S
O103 C119 1.264 . S
O104 Tb52 2.349 1_645 S
O104 C119 1.243 . S
O105 Tb63 2.428 . S
O105 C127 1.256 . S
O106 Tb63 2.308 1_565 S
O106 C126 1.266 . S
O107 Tb52 2.393 1_655 S
O107 C126 1.248 . S
C108 O97 1.264 . S
C108 O98 1.243 1_565 S
C109 C112 1.399 . S
C109 C114 1.383 . S
C109 C116 1.496 . S
C110 C111 1.399 . S
C110 C114 1.389 . S
C111 C110 1.399 . S
C111 C113 1.380 . S
C111 H128 0.929 . S
C112 C109 1.399 . S
C112 C113 1.392 . S
C112 H129 0.929 . S
C113 C111 1.380 . S
C113 C112 1.392 . S
C113 H130 0.929 . S
C114 C109 1.383 . S
C114 C110 1.389 . S
C114 H131 0.931 . S
C115 O100 1.266 . S
C115 O101 1.248 . S
C116 Tb52 2.802 . S
C116 O96 1.264 . S
C116 O99 1.256 . S
C116 C109 1.496 . S
C117 C84 1.448 . S
C117 H94 0.930 . S
C117 C118 1.328 . S
C118 C89 1.427 . S
C118 H95 0.929 . S
C118 C117 1.328 . S
C119 O103 1.264 . S
C119 O104 1.243 . S
C120 C123 1.399 . S
C120 C124 1.383 . S
C120 C127 1.496 . S
C121 C122 1.399 . S
C121 C124 1.389 . S
C122 C121 1.399 . S
C122 C125 1.380 . S
C122 H132 0.929 . S
C123 C120 1.399 . S
C123 C125 1.392 . S
C123 H133 0.929 . S
C124 C120 1.383 . S
C124 C121 1.389 . S
C124 H134 0.931 . S
C125 C122 1.380 . S
C125 C123 1.392 . S
C125 H135 0.929 . S
C126 O106 1.266 . S
C126 O107 1.248 . S
C127 Tb63 2.802 . S
C127 O102 1.264 . S
C127 O105 1.256 . S
C127 C120 1.496 . S
H128 C111 0.929 . S
H129 C112 0.929 . S
H130 C113 0.929 . S
H131 C114 0.931 . S
H132 C122 0.929 . S
H133 C123 0.929 . S
H134 C124 0.931 . S
H135 C125 0.929 . S
Tb136 N165 2.617 . S
Tb136 N171 2.572 . S
Tb136 O180 2.465 1_554 S
Tb136 O181 2.387 . S
Tb136 O183 2.428 1_554 S
Tb136 O184 2.308 . S
Tb136 O188 2.349 1_554 S
Tb136 O191 2.393 . S
Tb136 C200 2.802 1_554 S
C137 N138 1.379 . S
C137 C140 1.416 . S
C137 C144 1.424 . S
N138 C137 1.379 . S
N138 C141 1.334 . S
N138 Tb147 2.617 . S
C139 C141 1.390 . S
C139 C142 1.339 . S
C139 H159 0.930 . S
C140 C137 1.416 . S
C140 C142 1.416 . S
C140 C146 1.448 . S
C141 N138 1.334 . S
C141 C139 1.390 . S
C141 H152 0.930 . S
C142 C139 1.339 . S
C142 C140 1.416 . S
C142 H163 0.930 . S
C143 C144 1.413 . S
C143 C145 1.427 . S
C143 C149 1.416 . S
C144 C137 1.424 . S
C144 C143 1.413 . S
C144 N148 1.361 . S
C145 C143 1.427 . S
C145 C146 1.328 . S
C145 H160 0.929 . S
C146 C140 1.448 . S
C146 C145 1.328 . S
C146 H161 0.930 . S
Tb147 N138 2.617 . S
Tb147 N148 2.572 . S
Tb147 O182 2.349 . S
Tb147 O185 2.393 . S
Tb147 O186 2.465 . S
Tb147 O187 2.387 . S
Tb147 O189 2.428 . S
Tb147 O190 2.308 . S
Tb147 C211 2.802 . S
N148 C144 1.361 . S
N148 Tb147 2.572 . S
N148 C150 1.340 . S
C149 C143 1.416 . S
C149 C151 1.332 . S
C149 H157 0.931 . S
C150 N148 1.340 . S
C150 C151 1.407 . S
C150 H156 0.930 . S
C151 C149 1.332 . S
C151 C150 1.407 . S
C151 H153 0.929 . S
H152 C141 0.930 . S
H153 C151 0.929 . S
H154 C169 0.930 . S
H155 C176 0.929 . S
H156 C150 0.930 . S
H157 C149 0.931 . S
H158 C172 0.930 . S
H159 C139 0.930 . S
H160 C145 0.929 . S
H161 C146 0.930 . S
H162 C167 0.930 . S
H163 C142 0.930 . S
H164 C175 0.931 . S
N165 Tb136 2.617 . S
N165 C166 1.379 . S
N165 C169 1.334 1_554 S
C166 N165 1.379 . S
C166 C168 1.416 . S
C166 C174 1.424 . S
C167 H162 0.930 . S
C167 C169 1.390 . S
C167 C170 1.339 1_556 S
C168 C166 1.416 . S
C168 C170 1.416 . S
C168 C201 1.448 . S
C169 H154 0.930 . S
C169 N165 1.334 1_556 S
C169 C167 1.390 . S
C170 C167 1.339 1_554 S
C170 C168 1.416 . S
C170 H177 0.930 . S
N171 Tb136 2.572 . S
N171 C172 1.340 . S
N171 C174 1.361 . S
C172 H158 0.930 . S
C172 N171 1.340 . S
C172 C176 1.407 . S
C173 C174 1.413 . S
C173 C175 1.416 . S
C173 C202 1.427 . S
C174 C166 1.424 . S
C174 N171 1.361 . S
C174 C173 1.413 . S
C175 H164 0.931 . S
C175 C173 1.416 . S
C175 C176 1.332 . S
C176 H155 0.929 . S
C176 C172 1.407 . S
C176 C175 1.332 . S
H177 C170 0.930 . S
H178 C201 0.930 . S
H179 C202 0.929 . S
O180 Tb136 2.465 1_556 S
O180 C200 1.264 . S
O181 Tb136 2.387 . S
O181 C192 1.264 . S
O182 Tb147 2.349 . S
O182 C192 1.243 . S
O183 Tb136 2.428 1_556 S
O183 C200 1.256 . S
O184 Tb136 2.308 . S
O184 C199 1.266 . S
O185 Tb147 2.393 . S
O185 C199 1.248 . S
O186 Tb147 2.465 . S
O186 C211 1.264 . S
O187 Tb147 2.387 . S
O187 C203 1.264 1_554 S
O188 Tb136 2.349 1_556 S
O188 C203 1.243 . S
O189 Tb147 2.428 . S
O189 C211 1.256 . S
O190 Tb147 2.308 . S
O190 C210 1.266 . S
O191 Tb136 2.393 . S
O191 C210 1.248 . S
C192 O181 1.264 . S
C192 O182 1.243 . S
C193 C196 1.399 . S
C193 C198 1.383 . S
C193 C200 1.496 . S
C194 C195 1.399 . S
C194 C198 1.389 . S
C195 C194 1.399 . S
C195 C197 1.380 . S
C195 H212 0.929 . S
C196 C193 1.399 . S
C196 C197 1.392 . S
C196 H213 0.929 . S
C197 C195 1.380 . S
C197 C196 1.392 . S
C197 H214 0.929 . S
C198 C193 1.383 . S
C198 C194 1.389 . S
C198 H215 0.931 . S
C199 O184 1.266 . S
C199 O185 1.248 . S
C200 Tb136 2.802 1_556 S
C200 O180 1.264 . S
C200 O183 1.256 . S
C200 C193 1.496 . S
C201 C168 1.448 . S
C201 H178 0.930 . S
C201 C202 1.328 . S
C202 C173 1.427 . S
C202 H179 0.929 . S
C202 C201 1.328 . S
C203 O187 1.264 1_556 S
C203 O188 1.243 . S
C204 C207 1.399 . S
C204 C208 1.383 . S
C204 C211 1.496 . S
C205 C206 1.399 . S
C205 C208 1.389 . S
C206 C205 1.399 . S
C206 C209 1.380 . S
C206 H216 0.929 . S
C207 C204 1.399 . S
C207 C209 1.392 . S
C207 H217 0.929 . S
C208 C204 1.383 . S
C208 C205 1.389 . S
C208 H218 0.931 . S
C209 C206 1.380 . S
C209 C207 1.392 . S
C209 H219 0.929 . S
C210 O190 1.266 . S
C210 O191 1.248 . S
C211 Tb147 2.802 . S
C211 O186 1.264 . S
C211 O189 1.256 . S
C211 C204 1.496 . S
H212 C195 0.929 . S
H213 C196 0.929 . S
H214 C197 0.929 . S
H215 C198 0.931 . S
H216 C206 0.929 . S
H217 C207 0.929 . S
H218 C208 0.931 . S
H219 C209 0.929 . S
C220 C221 1.363 . S
C220 C226 1.379 . S
C220 N228 1.356 . S
C221 C220 1.363 . S
C221 C227 1.363 . S
C222 C223 1.363 . S
C222 C227 1.379 . S
C222 N229 1.356 . S
C223 C222 1.363 . S
C223 C226 1.363 . S
N224 C226 1.356 . S
N224 H236 0.984 . S
N224 H237 0.985 . S
N225 C227 1.356 . S
N225 H230 0.984 . S
N225 H231 0.985 . S
C226 C220 1.379 . S
C226 C223 1.363 . S
C226 N224 1.356 . S
C227 C221 1.363 . S
C227 C222 1.379 . S
C227 N225 1.356 . S
N228 C220 1.356 . S
N228 H234 0.984 . S
N228 H235 0.984 . S
N229 C222 1.356 . S
N229 H232 0.984 . S
N229 H233 0.985 . S
H230 N225 0.984 . S
H231 N225 0.985 . S
H232 N229 0.984 . S
H233 N229 0.985 . S
H234 N228 0.984 . S
H235 N228 0.984 . S
H236 N224 0.984 . S
H237 N224 0.985 . S
C238 C239 1.363 . S
C238 C244 1.379 . S
C238 N246 1.356 . S
C239 C238 1.363 . S
C239 C245 1.351 1_554 S
C240 C241 1.363 . S
C240 C245 1.383 1_554 S
C240 N247 1.356 1_554 S
C241 C240 1.363 . S
C241 C244 1.363 . S
N242 C244 1.356 . S
N242 H254 0.984 . S
N242 H255 0.985 . S
N243 C245 1.361 . S
N243 H248 0.984 . S
N243 H249 0.985 . S
C244 C238 1.379 . S
C244 C241 1.363 . S
C244 N242 1.356 . S
C245 C239 1.351 1_556 S
C245 C240 1.383 1_556 S
C245 N243 1.361 . S
N246 C238 1.356 . S
N246 H252 0.984 . S
N246 H253 0.984 . S
N247 C240 1.356 1_556 S
N247 H250 0.984 . S
N247 H251 0.985 . S
H248 N243 0.984 . S
H249 N243 0.985 . S
H250 N247 0.984 . S
H251 N247 0.985 . S
H252 N246 0.984 . S
H253 N246 0.984 . S
H254 N242 0.984 . S
H255 N242 0.985 . S
C256 C257 1.363 . S
C256 C262 1.379 . S
C256 N264 1.356 . S
C257 C256 1.363 . S
C257 C263 1.363 . S
C258 C259 1.363 . S
C258 C263 1.379 . S
C258 N265 1.356 . S
C259 C258 1.363 . S
C259 C262 1.363 . S
N260 C262 1.356 . S
N260 H272 0.984 . S
N260 H273 0.985 . S
N261 C263 1.356 . S
N261 H266 0.984 . S
N261 H267 0.985 . S
C262 C256 1.379 . S
C262 C259 1.363 . S
C262 N260 1.356 . S
C263 C257 1.363 . S
C263 C258 1.379 . S
C263 N261 1.356 . S
N264 C256 1.356 . S
N264 H270 0.984 . S
N264 H271 0.984 . S
N265 C258 1.356 . S
N265 H268 0.984 . S
N265 H269 0.985 . S
H266 N261 0.984 . S
H267 N261 0.985 . S
H268 N265 0.984 . S
H269 N265 0.985 . S
H270 N264 0.984 . S
H271 N264 0.984 . S
H272 N260 0.984 . S
H273 N260 0.985 . S
C274 C275 1.363 . S
C274 C280 1.379 . S
C274 N282 1.356 . S
C275 C274 1.363 . S
C275 C281 1.363 . S
C276 C277 1.363 . S
C276 C281 1.379 . S
C276 N283 1.356 1_554 S
C277 C276 1.363 . S
C277 C280 1.363 . S
N278 C280 1.356 . S
N278 H290 0.984 . S
N278 H291 0.985 . S
N279 C281 1.356 . S
N279 H284 0.984 . S
N279 H285 0.985 1_554 S
C280 C274 1.379 . S
C280 C277 1.363 . S
C280 N278 1.356 . S
C281 C275 1.363 . S
C281 C276 1.379 . S
C281 N279 1.356 . S
N282 C274 1.356 . S
N282 H288 0.984 . S
N282 H289 0.984 . S
N283 C276 1.356 1_556 S
N283 H286 0.984 1_556 S
N283 H287 0.985 . S
H284 N279 0.984 . S
H285 N279 0.985 1_556 S
H286 N283 0.984 1_554 S
H287 N283 0.985 . S
H288 N282 0.984 . S
H289 N282 0.984 . S
H290 N278 0.984 . S
H291 N278 0.985 . S
C292 C293 1.363 . S
C292 C298 1.379 . S
C292 N300 1.356 . S
C293 C292 1.363 . S
C293 C299 1.363 . S
C294 C295 1.363 . S
C294 C299 1.379 . S
C294 N301 1.356 . S
C295 C294 1.363 . S
C295 C298 1.363 . S
N296 C298 1.356 1_545 S
N296 H308 0.984 . S
N296 H309 0.985 . S
N297 C299 1.356 . S
N297 H302 0.984 . S
N297 H303 0.985 . S
C298 C292 1.379 . S
C298 C295 1.363 . S
C298 N296 1.356 1_565 S
C299 C293 1.363 . S
C299 C294 1.379 . S
C299 N297 1.356 . S
N300 C292 1.356 . S
N300 H306 0.984 . S
N300 H307 0.984 . S
N301 C294 1.356 . S
N301 H304 0.984 . S
N301 H305 0.985 . S
H302 N297 0.984 . S
H303 N297 0.985 . S
H304 N301 0.984 . S
H305 N301 0.985 . S
H306 N300 0.984 . S
H307 N300 0.984 . S
H308 N296 0.984 . S
H309 N296 0.985 . S
C310 C311 1.363 . S
C310 C316 1.379 . S
C310 N318 1.356 . S
C311 C310 1.363 . S
C311 C317 1.363 . S
C312 C313 1.363 . S
C312 C317 1.379 . S
C312 N319 1.356 . S
C313 C312 1.363 . S
C313 C316 1.363 . S
N314 C316 1.356 . S
N314 H326 0.984 . S
N314 H327 0.985 . S
N315 C317 1.356 . S
N315 H320 0.984 . S
N315 H321 0.985 . S
C316 C310 1.379 . S
C316 C313 1.363 . S
C316 N314 1.356 . S
C317 C311 1.363 . S
C317 C312 1.379 . S
C317 N315 1.356 . S
N318 C310 1.356 . S
N318 H324 0.984 . S
N318 H325 0.984 . S
N319 C312 1.356 . S
N319 H322 0.984 . S
N319 H323 0.985 . S
H320 N315 0.984 . S
H321 N315 0.985 . S
H322 N319 0.984 . S
H323 N319 0.985 . S
H324 N318 0.984 . S
H325 N318 0.984 . S
H326 N314 0.984 . S
H327 N314 0.985 . S
C328 C329 1.363 . S
C328 C334 1.379 . S
C328 N336 1.356 . S
C329 C328 1.363 . S
C329 C335 1.363 . S
C330 C331 1.363 . S
C330 C335 1.379 . S
C330 N337 1.356 . S
C331 C330 1.363 . S
C331 C334 1.363 . S
N332 C334 1.356 . S
N332 H344 0.984 . S
N332 H345 0.985 . S
N333 C335 1.356 . S
N333 H338 0.984 . S
N333 H339 0.985 . S
C334 C328 1.379 . S
C334 C331 1.363 . S
C334 N332 1.356 . S
C335 C329 1.363 . S
C335 C330 1.379 . S
C335 N333 1.356 . S
N336 C328 1.356 . S
N336 H342 0.984 . S
N336 H343 0.984 . S
N337 C330 1.356 . S
N337 H340 0.984 . S
N337 H341 0.985 . S
H338 N333 0.984 . S
H339 N333 0.985 . S
H340 N337 0.984 . S
H341 N337 0.985 . S
H342 N336 0.984 . S
H343 N336 0.984 . S
H344 N332 0.984 . S
H345 N332 0.985 . S
C346 C347 1.363 . S
C346 C352 1.379 . S
C346 N354 1.356 . S
C347 C346 1.363 . S
C347 C353 1.363 . S
C348 C349 1.363 . S
C348 C353 1.379 . S
C348 N355 1.356 . S
C349 C348 1.363 . S
C349 C352 1.363 . S
N350 C352 1.356 . S
N350 H362 0.984 . S
N350 H363 0.985 . S
N351 C353 1.356 . S
N351 H356 0.984 . S
N351 H357 0.985 . S
C352 C346 1.379 . S
C352 C349 1.363 . S
C352 N350 1.356 . S
C353 C347 1.363 . S
C353 C348 1.379 . S
C353 N351 1.356 . S
N354 C346 1.356 . S
N354 H360 0.984 . S
N354 H361 0.984 . S
N355 C348 1.356 . S
N355 H358 0.984 . S
N355 H359 0.985 . S
H356 N351 0.984 . S
H357 N351 0.985 . S
H358 N355 0.984 . S
H359 N355 0.985 . S
H360 N354 0.984 . S
H361 N354 0.984 . S
H362 N350 0.984 . S
H363 N350 0.985 . S
C364 C365 1.363 . S
C364 C370 1.379 . S
C364 N372 1.356 . S
C365 C364 1.363 . S
C365 C371 1.363 . S
C366 C367 1.363 . S
C366 C371 1.379 . S
C366 N373 1.356 . S
C367 C366 1.363 . S
C367 C370 1.363 . S
N368 C370 1.356 . S
N368 H380 0.984 . S
N368 H381 0.985 . S
N369 C371 1.356 . S
N369 H374 0.984 . S
N369 H375 0.985 . S
C370 C364 1.379 . S
C370 C367 1.363 . S
C370 N368 1.356 . S
C371 C365 1.363 . S
C371 C366 1.379 . S
C371 N369 1.356 . S
N372 C364 1.356 . S
N372 H378 0.984 . S
N372 H379 0.984 . S
N373 C366 1.356 . S
N373 H376 0.984 . S
N373 H377 0.985 . S
H374 N369 0.984 . S
H375 N369 0.985 . S
H376 N373 0.984 . S
H377 N373 0.985 . S
H378 N372 0.984 . S
H379 N372 0.984 . S
H380 N368 0.984 . S
H381 N368 0.985 . S
C382 C383 1.363 1_556 S
C382 C388 1.379 . S
C382 N390 1.356 . S
C383 C382 1.363 1_554 S
C383 C389 1.363 . S
C384 C385 1.363 1_554 S
C384 C389 1.379 . S
C384 N391 1.352 1_545 S
C385 C384 1.363 1_556 S
C385 C388 1.363 . S
N386 C388 1.356 . S
N386 H398 0.984 . S
N386 H399 0.985 . S
N387 C389 1.356 . S
N387 H392 0.984 . S
N387 H393 0.985 . S
C388 C382 1.379 . S
C388 C385 1.363 . S
C388 N386 1.356 . S
C389 C383 1.363 . S
C389 C384 1.379 . S
C389 N387 1.356 . S
N390 C382 1.356 . S
N390 H396 0.984 . S
N390 H397 0.984 . S
N391 C384 1.352 1_565 S
N391 H394 0.987 1_554 S
N391 H395 0.987 . S
H392 N387 0.984 . S
H393 N387 0.985 . S
H394 N391 0.987 1_556 S
H395 N391 0.987 . S
H396 N390 0.984 . S
H397 N390 0.984 . S
H398 N386 0.984 . S
H399 N386 0.985 . S
C400 C401 1.363 . S
C400 C406 1.379 . S
C400 N408 1.356 . S
C401 C400 1.363 . S
C401 C407 1.363 . S
C402 C403 1.363 . S
C402 C407 1.379 . S
C402 N409 1.356 . S
C403 C402 1.363 . S
C403 C406 1.363 . S
N404 C406 1.356 . S
N404 H416 0.984 . S
N404 H417 0.985 . S
N405 C407 1.356 . S
N405 H410 0.984 . S
N405 H411 0.985 . S
C406 C400 1.379 . S
C406 C403 1.363 . S
C406 N404 1.356 . S
C407 C401 1.363 . S
C407 C402 1.379 . S
C407 N405 1.356 . S
N408 C400 1.356 . S
N408 H414 0.984 . S
N408 H415 0.984 . S
N409 C402 1.356 . S
N409 H412 0.984 . S
N409 H413 0.985 . S
H410 N405 0.984 . S
H411 N405 0.985 . S
H412 N409 0.984 . S
H413 N409 0.985 . S
H414 N408 0.984 . S
H415 N408 0.984 . S
H416 N404 0.984 . S
H417 N404 0.985 . S
C418 C419 1.363 . S
C418 C424 1.379 . S
C418 N426 1.356 . S
C419 C418 1.363 . S
C419 C425 1.363 . S
C420 C421 1.363 . S
C420 C425 1.379 . S
C420 N427 1.356 . S
C421 C420 1.363 . S
C421 C424 1.363 . S
N422 C424 1.356 1_545 S
N422 H434 0.984 . S
N422 H435 0.985 . S
N423 C425 1.356 . S
N423 H428 0.984 . S
N423 H429 0.985 . S
C424 C418 1.379 . S
C424 C421 1.363 . S
C424 N422 1.356 1_565 S
C425 C419 1.363 . S
C425 C420 1.379 . S
C425 N423 1.356 . S
N426 C418 1.356 . S
N426 H432 0.984 1_565 S
N426 H433 0.984 . S
N427 C420 1.356 . S
N427 H430 0.984 . S
N427 H431 0.985 . S
H428 N423 0.984 . S
H429 N423 0.985 . S
H430 N427 0.984 . S
H431 N427 0.985 . S
H432 N426 0.984 1_545 S
H433 N426 0.984 . S
H434 N422 0.984 . S
H435 N422 0.985 . S
C223 C115 1.638 . S
C221 N41 1.670 . S
C239 N2 1.610 . S
C241 C210 1.602 . S
C257 N15 1.663 . S
C259 C126 1.638 . S
C275 N28 1.602 . S
C277 C199 1.603 . S
C295 C110 1.372 . S
C293 N5 1.591 . S
C313 C203 1.653 . S
C311 N14 1.646 . S
C329 N27 1.569 . S
C331 C119 1.610 . S
C347 N44 1.577 . S
C349 C194 1.407 . S
C367 C205 1.407 . S
C365 N18 1.577 . S
C385 C121 1.372 . S
C383 N31 1.590 . S
C403 C192 1.653 . S
C401 N40 1.656 . S
C419 N1 1.589 . S
C421 C108 1.610 . S
