# Generated by pormake.
# Topology zzz, (3,6)-cn, num edge types: 1
# Building blocks:
#     Node 0, Type 0, BuildingBlock: BELTOD_clean_linker_0, # of connection points: 3
#     Node 1, Type 0, BuildingBlock: BELTOD_clean_linker_0, # of connection points: 3
#     Node 2, Type 0, BuildingBlock: BELTOD_clean_linker_0, # of connection points: 3
#     Node 3, Type 0, BuildingBlock: BELTOD_clean_linker_0, # of connection points: 3
#     Node 4, Type 0, BuildingBlock: BELTOD_clean_linker_0, # of connection points: 3
#     Node 5, Type 0, BuildingBlock: BELTOD_clean_linker_0, # of connection points: 3
#     Node 6, Type 0, BuildingBlock: BELTOD_clean_linker_0, # of connection points: 3
#     Node 7, Type 0, BuildingBlock: BELTOD_clean_linker_0, # of connection points: 3
#     Node 8, Type 1, BuildingBlock: PAMTOO_clean_sbu_0, # of connection points: 6
#     Node 9, Type 1, BuildingBlock: PAMTOO_clean_sbu_0, # of connection points: 6
#     Node 10, Type 1, BuildingBlock: PAMTOO_clean_sbu_0, # of connection points: 6
#     Node 11, Type 1, BuildingBlock: PAMTOO_clean_sbu_0, # of connection points: 6
#     Edge 12, Type (0, 1), BuildingBlock: CIFDUS_clean_linker_0, # of connection points: 2
#     Edge 13, Type (0, 1), BuildingBlock: CIFDUS_clean_linker_0, # of connection points: 2
#     Edge 14, Type (0, 1), BuildingBlock: CIFDUS_clean_linker_0, # of connection points: 2
#     Edge 15, Type (0, 1), BuildingBlock: CIFDUS_clean_linker_0, # of connection points: 2
#     Edge 16, Type (0, 1), BuildingBlock: CIFDUS_clean_linker_0, # of connection points: 2
#     Edge 17, Type (0, 1), BuildingBlock: CIFDUS_clean_linker_0, # of connection points: 2
#     Edge 18, Type (0, 1), BuildingBlock: CIFDUS_clean_linker_0, # of connection points: 2
#     Edge 19, Type (0, 1), BuildingBlock: CIFDUS_clean_linker_0, # of connection points: 2
#     Edge 20, Type (0, 1), BuildingBlock: CIFDUS_clean_linker_0, # of connection points: 2
#     Edge 21, Type (0, 1), BuildingBlock: CIFDUS_clean_linker_0, # of connection points: 2
#     Edge 22, Type (0, 1), BuildingBlock: CIFDUS_clean_linker_0, # of connection points: 2
#     Edge 23, Type (0, 1), BuildingBlock: CIFDUS_clean_linker_0, # of connection points: 2
#     Edge 24, Type (0, 1), BuildingBlock: CIFDUS_clean_linker_0, # of connection points: 2
#     Edge 25, Type (0, 1), BuildingBlock: CIFDUS_clean_linker_0, # of connection points: 2
#     Edge 26, Type (0, 1), BuildingBlock: CIFDUS_clean_linker_0, # of connection points: 2
#     Edge 27, Type (0, 1), BuildingBlock: CIFDUS_clean_linker_0, # of connection points: 2
#     Edge 28, Type (0, 1), BuildingBlock: CIFDUS_clean_linker_0, # of connection points: 2
#     Edge 29, Type (0, 1), BuildingBlock: CIFDUS_clean_linker_0, # of connection points: 2
#     Edge 30, Type (0, 1), BuildingBlock: CIFDUS_clean_linker_0, # of connection points: 2
#     Edge 31, Type (0, 1), BuildingBlock: CIFDUS_clean_linker_0, # of connection points: 2
#     Edge 32, Type (0, 1), BuildingBlock: CIFDUS_clean_linker_0, # of connection points: 2
#     Edge 33, Type (0, 1), BuildingBlock: CIFDUS_clean_linker_0, # of connection points: 2
#     Edge 34, Type (0, 1), BuildingBlock: CIFDUS_clean_linker_0, # of connection points: 2
#     Edge 35, Type (0, 1), BuildingBlock: CIFDUS_clean_linker_0, # of connection points: 2
# Relax obj value: 0.353
# Max RMSD: 0.274
# Mean RMSD: 0.212
data_MOF--net-zzz--node1-PAMTOO_clean_sbu_0--node2-BELTOD_clean_linker_0--edge1-CIFDUS_clean_linker_0
_symmetry_space_group_name_H-M    P1
_symmetry_Int_Tables_number       1
_symmetry_cell_setting            triclinic
loop_
_symmetry_equiv_pos_as_xyz
'x, y, z'
_cell_length_a     54.141662
_cell_length_b     46.240528
_cell_length_c     17.322757
_cell_angle_alpha  92.084769
_cell_angle_beta   81.11828
_cell_angle_gamma 84.263907
loop_
_atom_site_label
_atom_site_type_symbol
_atom_site_fract_x
_atom_site_fract_y
_atom_site_fract_z
_atom_type_partial_charge
P0 P 0.7655 0.4728 0.53418 0.0
H1 H 0.77394 0.48855 0.69278 0.0
H2 H 0.8111 0.50303 0.74131 0.0
H3 H 0.84539 0.51609 0.50499 0.0
H4 H 0.80816 0.50129 0.45651 0.0
H5 H 0.71611 0.45944 0.51041 0.0
H6 H 0.69062 0.47198 0.41069 0.0
H7 H 0.7407 0.53532 0.32773 0.0
H8 H 0.76668 0.52188 0.42759 0.0
H9 H 0.80196 0.42649 0.56916 0.0
H10 H 0.77216 0.45621 0.36523 0.0
O11 O 0.74931 0.45781 0.60952 0.0
H12 H 0.83429 0.39384 0.48484 0.0
H13 H 0.80429 0.4245 0.28181 0.0
C14 C 0.788 0.49408 0.57083 0.0
C15 C 0.78902 0.49546 0.65137 0.0
C16 C 0.81048 0.50342 0.67915 0.0
C17 C 0.8314 0.51032 0.62702 0.0
C18 C 0.82958 0.51108 0.54686 0.0
C19 C 0.80814 0.50287 0.51904 0.0
C20 C 0.74316 0.49 0.47768 0.0
C21 C 0.72119 0.4768 0.47272 0.0
C22 C 0.70654 0.48401 0.4151 0.0
C23 C 0.71352 0.50462 0.36028 0.0
C24 C 0.73487 0.51905 0.36808 0.0
C25 C 0.74961 0.5117 0.42602 0.0
C26 C 0.78466 0.44391 0.47384 0.0
C27 C 0.80193 0.42544 0.50661 0.0
C28 C 0.82046 0.40693 0.45838 0.0
C29 C 0.82197 0.40668 0.37656 0.0
C30 C 0.80351 0.42378 0.34455 0.0
C31 C 0.7851 0.44227 0.39266 0.0
P32 P 0.0379 0.69547 0.47034 0.0
H33 H 0.04518 0.72057 0.62068 0.0
H34 H 0.03226 0.76909 0.67992 0.0
H35 H 0.97607 0.78132 0.52849 0.0
H36 H 0.9899 0.73326 0.46746 0.0
H37 H 0.03581 0.63239 0.44954 0.0
H38 H 0.02291 0.60318 0.3456 0.0
H39 H 0.98994 0.68142 0.25589 0.0
H40 H 1.00476 0.71041 0.35475 0.0
H41 H 0.0683 0.74302 0.49785 0.0
H42 H 0.05655 0.69014 0.29889 0.0
O43 O 0.05496 0.67344 0.52091 0.0
H44 H 0.08627 0.77799 0.4111 0.0
H45 H 0.0751 0.72497 0.21145 0.0
C46 C 0.01924 0.72331 0.53735 0.0
C47 C 0.02944 0.7332 0.60196 0.0
C48 C 0.02202 0.76127 0.6359 0.0
C49 C 1.00369 0.77984 0.60716 0.0
C50 C 0.99107 0.76825 0.54983 0.0
C51 C 0.99891 0.7404 0.5149 0.0
C52 C 0.02079 0.67379 0.41185 0.0
C53 C 0.02514 0.64326 0.40902 0.0
C54 C 0.01767 0.62647 0.34938 0.0
C55 C 1.00565 0.63993 0.2915 0.0
C56 C 0.99947 0.6703 0.29868 0.0
C57 C 1.00728 0.68702 0.3573 0.0
C58 C 0.05911 0.71502 0.40558 0.0
C59 C 0.06968 0.73867 0.43561 0.0
C60 C 0.08044 0.75856 0.38559 0.0
C61 C 0.0813 0.75479 0.30436 0.0
C62 C 0.07383 0.72901 0.27401 0.0
C63 C 0.06301 0.70914 0.32426 0.0
P64 P 0.77151 0.04075 0.38748 0.0
H65 H 0.76009 0.03417 0.55685 0.0
H66 H 0.72189 0.02151 0.6363 0.0
H67 H 0.69679 0.98891 0.42802 0.0
H68 H 0.73567 1.00041 0.34949 0.0
H69 H 0.82195 0.059 0.36766 0.0
H70 H 0.85996 0.04367 0.2759 0.0
H71 H 0.8252 0.97077 0.19391 0.0
H72 H 0.78663 0.98677 0.28634 0.0
H73 H 0.72199 0.07261 0.41225 0.0
H74 H 0.77915 0.04463 0.21426 0.0
O75 O 0.77735 0.06794 0.44579 0.0
H76 H 0.69178 0.08363 0.32512 0.0
H77 H 0.74938 0.05725 0.12588 0.0
C78 C 0.75072 0.01873 0.44676 0.0
C79 C 0.74692 0.02316 0.52846 0.0
C80 C 0.72471 0.01635 0.57389 0.0
C81 C 0.70561 0.00518 0.53861 0.0
C82 C 0.71084 0.99762 0.4577 0.0
C83 C 0.73328 0.00408 0.41244 0.0
C84 C 0.8014 0.02384 0.33505 0.0
C85 C 0.82262 0.03918 0.33187 0.0
C86 C 0.84454 0.03033 0.27893 0.0
C87 C 0.84583 0.00597 0.22684 0.0
C88 C 0.82488 0.98981 0.23248 0.0
C89 C 0.80288 0.99866 0.28609 0.0
C90 C 0.75259 0.05692 0.32017 0.0
C91 C 0.72826 0.0697 0.3497 0.0
C92 C 0.71098 0.07623 0.29938 0.0
C93 C 0.7179 0.07083 0.21801 0.0
C94 C 0.74313 0.06081 0.18825 0.0
C95 C 0.76029 0.0537 0.23896 0.0
P96 P 0.47895 0.76139 0.33088 0.0
H97 H 0.46883 0.75852 0.50051 0.0
H98 H 0.48549 0.72416 0.58581 0.0
H99 H 0.54679 0.69405 0.40037 0.0
H100 H 0.52876 0.72782 0.31325 0.0
H101 H 0.45448 0.80228 0.23865 0.0
H102 H 0.46879 0.84028 0.15424 0.0
H103 H 0.5431 0.82417 0.21521 0.0
H104 H 0.52863 0.78532 0.29973 0.0
H105 H 0.46315 0.70427 0.36253 0.0
H106 H 0.48593 0.75184 0.15815 0.0
O107 O 0.45047 0.77369 0.37884 0.0
H108 H 0.45975 0.66165 0.27816 0.0
H109 H 0.48175 0.70965 0.07423 0.0
C110 C 0.49749 0.74583 0.40028 0.0
C111 C 0.48631 0.74528 0.47862 0.0
C112 C 0.49604 0.7254 0.52787 0.0
C113 C 0.51744 0.7057 0.50026 0.0
C114 C 0.52996 0.70826 0.42351 0.0
C115 C 0.51996 0.72803 0.37386 0.0
C116 C 0.49043 0.79103 0.27568 0.0
C117 C 0.47382 0.807 0.2346 0.0
C118 C 0.48205 0.8286 0.18593 0.0
C119 C 0.50709 0.83501 0.17774 0.0
C120 C 0.52369 0.81962 0.22064 0.0
C121 C 0.51546 0.79747 0.26879 0.0
C122 C 0.47487 0.73125 0.2669 0.0
C123 C 0.46717 0.70568 0.29964 0.0
C124 C 0.46522 0.68138 0.2516 0.0
C125 C 0.4704 0.68252 0.16995 0.0
C126 C 0.47739 0.70841 0.13712 0.0
C127 C 0.47981 0.73254 0.18524 0.0
P128 P 0.26617 0.44331 0.01296 0.0
H129 H 0.25513 0.4281 0.85711 0.0
H130 H 0.21937 0.44559 0.7956 0.0
H131 H 0.20389 0.52024 0.95908 0.0
H132 H 0.23994 0.50271 0.02034 0.0
H133 H 0.30969 0.40901 0.05341 0.0
H134 H 0.34226 0.42044 0.12777 0.0
H135 H 0.31703 0.51196 0.12709 0.0
H136 H 0.28437 0.50028 0.05011 0.0
H137 H 0.21934 0.41687 0.03922 0.0
H138 H 0.25771 0.47533 0.16689 0.0
O139 O 0.272 0.4087 0.97852 0.0
H140 H 0.18019 0.43211 0.12777 0.0
H141 H 0.219 0.49179 0.25119 0.0
C142 C 0.25043 0.46393 0.94391 0.0
C143 C 0.24488 0.44893 0.8778 0.0
C144 C 0.22405 0.45876 0.84318 0.0
C145 C 0.20828 0.48393 0.87364 0.0
C146 C 0.21555 0.50075 0.93405 0.0
C147 C 0.23646 0.49086 0.96874 0.0
C148 C 0.29459 0.45375 0.04506 0.0
C149 C 0.31161 0.43168 0.06635 0.0
C150 C 0.33029 0.43824 0.10951 0.0
C151 C 0.33222 0.46711 0.13405 0.0
C152 C 0.31594 0.48946 0.10958 0.0
C153 C 0.29746 0.48285 0.06467 0.0
C154 C 0.24154 0.44497 0.09588 0.0
C155 C 0.21959 0.43219 0.08785 0.0
C156 C 0.19711 0.44135 0.13761 0.0
C157 C 0.19624 0.46371 0.19557 0.0
C158 C 0.21882 0.47442 0.20775 0.0
C159 C 0.24123 0.46502 0.15866 0.0
P160 P 0.07531 0.28311 0.10313 0.0
H161 H 0.09574 0.26469 0.94037 0.0
H162 H 0.08528 0.22389 0.86356 0.0
H163 H 0.01451 0.22477 0.0182 0.0
H164 H 0.02449 0.2667 0.09208 0.0
H165 H 0.10508 0.32417 0.16447 0.0
H166 H 0.0936 0.36662 0.2538 0.0
H167 H 0.01594 0.36586 0.22464 0.0
H168 H 0.02781 0.32344 0.13141 0.0
H169 H 0.09849 0.22706 0.1434 0.0
H170 H 0.03247 0.28611 0.23077 0.0
O171 O 0.1065 0.27799 0.07695 0.0
H172 H 0.08213 0.19011 0.22839 0.0
H173 H 0.01532 0.24923 0.31056 0.0
C174 C 0.06135 0.26821 0.02404 0.0
C175 C 0.0774 0.25715 0.95571 0.0
C176 C 0.07155 0.23336 0.91237 0.0
C177 C 0.0496 0.22004 0.93691 0.0
C178 C 0.03179 0.23407 0.99807 0.0
C179 C 0.03751 0.25825 0.04061 0.0
C180 C 0.06732 0.32036 0.14132 0.0
C181 C 0.08569 0.33367 0.1743 0.0
C182 C 0.07905 0.35784 0.22647 0.0
C183 C 0.05377 0.36909 0.24801 0.0
C184 C 0.03558 0.3576 0.20925 0.0
C185 C 0.04235 0.33339 0.15585 0.0
C186 C 0.06699 0.25963 0.18143 0.0
C187 C 0.08081 0.2324 0.18229 0.0
C188 C 0.07116 0.21108 0.22991 0.0
C189 C 0.04717 0.21641 0.27588 0.0
C190 C 0.03402 0.24428 0.27745 0.0
C191 C 0.04392 0.26566 0.23125 0.0
P192 P 0.24258 0.0534 0.20275 0.0
H193 H 0.26398 0.05952 0.03875 0.0
H194 H 0.30638 0.04484 0.97111 0.0
H195 H 0.3183 0.98488 0.15045 0.0
H196 H 0.27583 1.00016 0.21881 0.0
H197 H 0.19442 0.08256 0.27442 0.0
H198 H 0.159 0.06779 0.362 0.0
H199 H 0.19383 0.97899 0.33761 0.0
H200 H 0.22983 0.99436 0.25003 0.0
H201 H 0.28178 0.09201 0.19374 0.0
H202 H 0.2466 0.03642 0.3628 0.0
O203 O 0.23307 0.08295 0.15817 0.0
H204 H 0.31873 0.08938 0.25864 0.0
H205 H 0.2831 0.03444 0.42906 0.0
C206 C 0.26634 0.03097 0.13425 0.0
C207 C 0.27515 0.04218 0.06196 0.0
C208 C 0.29972 0.03387 0.02324 0.0
C209 C 0.3162 0.01412 0.05595 0.0
C210 C 0.30643 1.00064 0.12415 0.0
C211 C 0.28178 0.00889 0.16262 0.0
C212 C 0.21466 0.03953 0.25394 0.0
C213 C 0.19424 0.05972 0.28604 0.0
C214 C 0.17383 0.05118 0.3365 0.0
C215 C 0.17324 0.02209 0.35715 0.0
C216 C 0.19359 0.00163 0.32366 0.0
C217 C 0.21413 0.0103 0.27271 0.0
C218 C 0.26146 0.06431 0.27298 0.0
C219 C 0.28136 0.08065 0.24745 0.0
C220 C 0.30258 0.07898 0.28439 0.0
C221 C 0.30401 0.06106 0.34762 0.0
C222 C 0.28268 0.04787 0.37921 0.0
C223 C 0.2616 0.04932 0.34181 0.0
P224 P 0.45192 0.26306 0.28618 0.0
H225 H 0.43358 0.2826 0.14513 0.0
H226 H 0.44921 0.31765 0.0549 0.0
H227 H 0.52106 0.30654 0.13592 0.0
H228 H 0.50443 0.27274 0.2305 0.0
H229 H 0.42677 0.22962 0.40489 0.0
H230 H 0.43932 0.18604 0.4697 0.0
H231 H 0.51203 0.17793 0.32257 0.0
H232 H 0.49894 0.22168 0.25614 0.0
H233 H 0.43189 0.32359 0.29848 0.0
H234 H 0.48095 0.26765 0.41634 0.0
O235 O 0.42139 0.26323 0.28069 0.0
H236 H 0.44288 0.36595 0.3675 0.0
H237 H 0.49085 0.30977 0.48976 0.0
C238 C 0.4678 0.27467 0.19473 0.0
C239 C 0.45305 0.28667 0.14155 0.0
C240 C 0.46211 0.30703 0.08954 0.0
C241 C 0.48633 0.31574 0.08875 0.0
C242 C 0.50205 0.30116 0.13612 0.0
C243 C 0.49279 0.28107 0.18906 0.0
C244 C 0.46174 0.22873 0.32484 0.0
C245 C 0.44532 0.21828 0.38556 0.0
C246 C 0.45265 0.19349 0.42343 0.0
C247 C 0.4768 0.17856 0.40211 0.0
C248 C 0.49323 0.18881 0.3402 0.0
C249 C 0.4858 0.21384 0.30215 0.0
C250 C 0.45522 0.29245 0.35317 0.0
C251 C 0.44433 0.32036 0.34148 0.0
C252 C 0.45067 0.34462 0.38118 0.0
C253 C 0.46785 0.3414 0.43431 0.0
C254 C 0.47792 0.31316 0.44828 0.0
C255 C 0.47191 0.28892 0.40728 0.0
Dy256 Dy 0.99092 0.01074 0.74193 0.0
Dy257 Dy 0.03347 0.9927 0.85039 0.0
C258 C 0.04931 0.008 0.6721 0.0
O259 O 1.00179 0.96297 0.71567 0.0
O260 O 0.01533 0.95232 0.83111 0.0
O261 O 0.97925 0.01197 0.62816 0.0
O262 O 0.954 0.03089 0.73078 0.0
O263 O 0.99677 0.00292 0.93245 0.0
O264 O 0.96966 0.99336 0.84806 0.0
O265 O 0.03571 0.04017 0.83448 0.0
O266 O 0.99551 0.05135 0.8109 0.0
O267 O 0.04853 0.99555 0.95874 0.0
O268 O 0.06822 0.96729 0.86161 0.0
C269 C 1.00759 0.94402 0.76649 0.0
O270 O 0.02713 0.02287 0.67637 0.0
O271 O 0.05392 0.99019 0.72671 0.0
C272 C 0.95796 0.05776 0.61752 0.0
C273 C 0.96855 0.10808 0.53758 0.0
C274 C 0.96846 0.10758 0.61862 0.0
C275 C 0.96325 0.08269 0.65813 0.0
C276 C 0.95624 0.05883 0.53776 0.0
C277 C 0.96142 0.08387 0.49803 0.0
C278 C 0.95916 0.02966 0.65452 0.0
C279 C 0.97427 0.99748 0.9196 0.0
C280 C 0.0165 0.0594 0.82975 0.0
C281 C 0.0677 0.94967 0.98582 0.0
C282 C 0.07028 0.89647 0.05978 0.0
C283 C 0.04688 0.91205 0.05551 0.0
C284 C 0.0456 0.93829 0.0184 0.0
C285 C 0.09109 0.93488 0.99253 0.0
C286 C 0.0924 0.90848 0.02938 0.0
C287 C 0.06639 0.97451 0.93577 0.0
H288 H 0.97417 0.12562 0.65078 0.0
H289 H 0.96501 0.0824 0.71952 0.0
H290 H 0.95238 0.03977 0.50531 0.0
H291 H 0.96099 0.0838 0.43572 0.0
H292 H 0.02949 0.90369 0.07961 0.0
H293 H 0.02733 0.94919 0.0129 0.0
H294 H 0.10833 0.94316 0.96656 0.0
H295 H 0.1107 0.89691 0.03116 0.0
Dy296 Dy 0.50496 0.98207 0.69508 0.0
Dy297 Dy 0.51414 0.0219 0.84441 0.0
C298 C 0.4998 0.05056 0.69241 0.0
O299 O 0.54622 0.97311 0.69556 0.0
O300 O 0.55103 0.01543 0.7618 0.0
O301 O 0.51213 0.97165 0.57046 0.0
O302 O 0.48544 0.94925 0.64558 0.0
O303 O 0.52626 0.97656 0.87535 0.0
O304 O 0.50607 0.95146 0.79125 0.0
O305 O 0.47473 0.01019 0.87712 0.0
O306 O 0.46674 0.00233 0.75269 0.0
O307 O 0.51484 0.03145 0.96705 0.0
O308 O 0.52394 0.06362 0.88234 0.0
C309 C 0.56058 0.99247 0.71552 0.0
O310 O 0.51034 0.02654 0.65376 0.0
O311 O 0.49377 0.05101 0.76872 0.0
C312 C 0.47351 0.96616 0.53072 0.0
C313 C 0.43122 0.98547 0.46298 0.0
C314 C 0.4396 0.00329 0.51887 0.0
C315 C 0.46058 0.99379 0.55194 0.0
C316 C 0.46581 0.94846 0.47364 0.0
C317 C 0.44484 0.95813 0.43955 0.0
C318 C 0.49348 0.95571 0.5741 0.0
C319 C 0.5175 0.95263 0.85279 0.0
C320 C 0.4588 0.00658 0.82836 0.0
C321 C 0.54584 0.06225 0.98886 0.0
C322 C 0.58979 0.07452 0.04657 0.0
C323 C 0.58516 0.04556 0.03184 0.0
C324 C 0.56348 0.03948 1.00275 0.0
C325 C 0.55021 0.09112 1.0041 0.0
C326 C 0.57201 0.09724 0.03253 0.0
C327 C 0.52353 0.05648 0.95451 0.0
H328 H 0.42939 0.02414 0.53974 0.0
H329 H 0.46623 0.00771 0.59629 0.0
H330 H 0.47561 0.92704 0.45682 0.0
H331 H 0.43906 0.94403 0.39591 0.0
H332 H 0.59819 0.0275 0.04336 0.0
H333 H 0.56062 0.017 0.99076 0.0
H334 H 0.5369 0.10898 0.9929 0.0
H335 H 0.5751 0.11977 0.0423 0.0
Dy336 Dy 0.5457 0.49839 0.78344 0.0
Dy337 Dy 0.48768 0.5112 0.73626 0.0
C338 C 0.50324 0.45797 0.83985 0.0
O339 O 0.54204 0.46384 0.69297 0.0
O340 O 0.51525 0.49295 0.63374 0.0
O341 O 0.57652 0.47041 0.81674 0.0
O342 O 0.58056 0.51564 0.7961 0.0
O343 O 0.50622 0.55218 0.73104 0.0
O344 O 0.5457 0.53008 0.6878 0.0
O345 O 0.48274 0.5315 0.85701 0.0
O346 O 0.52444 0.53028 0.87602 0.0
O347 O 0.46508 0.53387 0.66094 0.0
O348 O 0.44876 0.50253 0.738 0.0
C349 C 0.52901 0.46821 0.63581 0.0
O350 O 0.52061 0.47275 0.8627 0.0
O351 O 0.49154 0.46631 0.78176 0.0
C352 C 0.60214 0.49447 0.89231 0.0
C353 C 0.62564 0.50099 0.02652 0.0
C354 C 0.60068 0.51313 0.02651 0.0
C355 C 0.58905 0.50988 0.96016 0.0
C356 C 0.62692 0.48226 0.89201 0.0
C357 C 0.63855 0.48544 0.95827 0.0
C358 C 0.59053 0.49159 0.8209 0.0
C359 C 0.52898 0.55301 0.69304 0.0
C360 C 0.50025 0.53859 0.89712 0.0
C361 C 0.43227 0.50988 0.61823 0.0
C362 C 0.40368 0.4998 0.49716 0.0
C363 C 0.42968 0.50215 0.4795 0.0
C364 C 0.4438 0.50717 0.5393 0.0
C365 C 0.40667 0.50612 0.63612 0.0
C366 C 0.39258 0.50107 0.57653 0.0
C367 C 0.4456 0.51984 0.68158 0.0
H368 H 0.59018 0.5255 0.07746 0.0
H369 H 0.56991 0.51959 0.96163 0.0
H370 H 0.63735 0.47025 0.84031 0.0
H371 H 0.65757 0.47533 0.95628 0.0
H372 H 0.43894 0.50138 0.41931 0.0
H373 H 0.46354 0.50994 0.52351 0.0
H374 H 0.39731 0.50809 0.69634 0.0
H375 H 0.37278 0.49869 0.59277 0.0
Dy376 Dy 0.01644 0.52397 0.74414 0.0
Dy377 Dy 1.01184 0.46488 0.8442 0.0
C378 C 0.02923 0.46056 0.65958 0.0
O379 O 0.97511 0.52198 0.77908 0.0
O380 O 0.9758 0.47298 0.79623 0.0
O381 O 1.00306 0.55177 0.65839 0.0
O382 O 0.03333 0.56354 0.71697 0.0
O383 O 0.99463 0.50155 0.92993 0.0
O384 O 1.01323 0.53899 0.86916 0.0
O385 O 0.05014 0.47723 0.85189 0.0
O386 O 0.05664 0.50563 0.74587 0.0
O387 O 0.01697 0.44108 0.94658 0.0
O388 O 1.00308 0.42042 0.85009 0.0
C389 C 0.96387 0.49806 0.78312 0.0
O390 O 0.01822 0.48693 0.65584 0.0
O391 O 0.03367 0.45049 0.72654 0.0
C392 C 0.03811 0.56872 0.58186 0.0
C393 C 0.07998 0.55532 0.46441 0.0
C394 C 0.05832 0.54106 0.46332 0.0
C395 C 0.03754 0.54769 0.5216 0.0
C396 C 0.05831 0.58573 0.57661 0.0
C397 C 0.07917 0.57903 0.51823 0.0
C398 C 0.02156 0.56783 0.65745 0.0
C399 C 1.00149 0.52803 0.93162 0.0
C400 C 0.06512 0.49033 0.80084 0.0
C401 C 0.98784 0.40744 0.97779 0.0
C402 C 0.95049 0.39114 0.09463 0.0
C403 C 0.94383 0.40689 0.03164 0.0
C404 C 0.96236 0.4151 0.97392 0.0
C405 C 0.99457 0.39085 0.03899 0.0
C406 C 0.97601 0.38281 0.0972 0.0
C407 C 1.00748 0.41834 0.92175 0.0
H408 H 0.05831 0.52272 0.4226 0.0
H409 H 0.02218 0.53429 0.52349 0.0
H410 H 0.05904 0.60224 0.62199 0.0
H411 H 0.09547 0.59079 0.51914 0.0
H412 H 0.92433 0.41408 0.02895 0.0
H413 H 0.95678 0.42821 0.92765 0.0
H414 H 0.01419 0.38484 0.04295 0.0
H415 H 0.98156 0.37062 0.14505 0.0
H416 H 0.12309 0.0423 0.37629 0.0
H417 H 0.17574 0.98361 0.47392 0.0
H418 H 0.14223 0.97325 0.57738 0.0
H419 H 0.09826 0.9827 0.64479 0.0
H420 H 0.04617 0.04268 0.5486 0.0
H421 H 0.07917 0.05093 0.44155 0.0
C422 C 0.12736 0.02731 0.42027 0.0
C423 C 0.15216 0.0139 0.41676 0.0
C424 C 0.10804 0.02182 0.48077 0.0
C425 C 0.15693 0.99406 0.47387 0.0
C426 C 0.13776 0.9883 0.53379 0.0
C427 C 0.09406 0.99751 0.60033 0.0
C428 C 0.0696 0.01209 0.60553 0.0
C429 C 0.11328 0.00232 0.53848 0.0
C430 C 0.06469 0.03116 0.54685 0.0
C431 C 0.08362 0.03592 0.48528 0.0
H432 H 0.46762 0.17188 0.55934 0.0
H433 H 0.50335 0.1268 0.34219 0.0
H434 H 0.5139 0.08349 0.41262 0.0
H435 H 0.51175 0.05787 0.53556 0.0
H436 H 0.47563 0.10322 0.75222 0.0
H437 H 0.46614 0.14673 0.68201 0.0
C438 C 0.47759 0.15253 0.5272 0.0
C439 C 0.48451 0.15262 0.4453 0.0
C440 C 0.4834 0.12764 0.56799 0.0
C441 C 0.49793 0.1275 0.40513 0.0
C442 C 0.50382 0.10263 0.44538 0.0
C443 C 0.50183 0.07727 0.56757 0.0
C444 C 0.49438 0.07713 0.6493 0.0
C445 C 0.49647 0.10236 0.52676 0.0
C446 C 0.4816 0.10258 0.6895 0.0
C447 C 0.47616 0.12753 0.64934 0.0
H448 H 0.32262 0.50226 0.26772 0.0
H449 H 0.38133 0.44459 0.12716 0.0
H450 H 0.40868 0.44969 0.22569 0.0
H451 H 0.41527 0.4687 0.35524 0.0
H452 H 0.35636 0.52653 0.49513 0.0
H453 H 0.32989 0.52294 0.39428 0.0
C454 C 0.34156 0.49123 0.25794 0.0
C455 C 0.34985 0.4731 0.18983 0.0
C456 C 0.35711 0.49392 0.31555 0.0
C457 C 0.37436 0.45856 0.17909 0.0
C458 C 0.39003 0.46144 0.23555 0.0
C459 C 0.39675 0.48076 0.36346 0.0
C460 C 0.38787 0.49761 0.43366 0.0
C461 C 0.3815 0.47875 0.30463 0.0
C462 C 0.36363 0.51284 0.44293 0.0
C463 C 0.34847 0.51102 0.38478 0.0
H464 H 0.06994 0.36543 0.38743 0.0
H465 H 0.0208 0.41922 0.26482 0.0
H466 H 1.00942 0.45302 0.38055 0.0
H467 H 1.01345 0.46689 0.5175 0.0
H468 H 0.06195 0.41128 0.63869 0.0
H469 H 0.07384 0.37884 0.52208 0.0
C470 C 0.05697 0.38475 0.38552 0.0
C471 C 0.04652 0.39003 0.31715 0.0
C472 C 0.05042 0.40377 0.4521 0.0
C473 C 0.02915 0.41471 0.31662 0.0
C474 C 0.02272 0.43405 0.3827 0.0
C475 C 0.02672 0.44775 0.51822 0.0
C476 C 0.03678 0.44158 0.58703 0.0
C477 C 0.03324 0.42878 0.4509 0.0
C478 C 0.0538 0.41655 0.58695 0.0
C479 C 0.06065 0.39795 0.52018 0.0
H480 H 0.89585 0.00923 0.23464 0.0
H481 H 0.84595 0.98833 0.07393 0.0
H482 H 0.8812 0.98239 0.96638 0.0
H483 H 0.92573 0.98625 0.91568 0.0
H484 H 0.97556 0.00825 0.0756 0.0
H485 H 0.94084 0.01092 0.18481 0.0
C486 C 0.89262 0.00335 0.17614 0.0
C487 C 0.86805 0.99933 0.16301 0.0
C488 C 0.91301 1.00042 0.11387 0.0
C489 C 0.86454 0.99121 0.08664 0.0
C490 C 0.88472 0.98808 0.02466 0.0
C491 C 0.92911 0.99148 0.97442 0.0
C492 C 0.95336 0.99724 0.98682 0.0
C493 C 0.90897 0.99308 0.03728 0.0
C494 C 0.9572 0.00381 0.06377 0.0
C495 C 0.93729 0.00537 0.12649 0.0
H496 H 0.50211 0.83671 0.02556 0.0
H497 H 0.53025 0.88345 0.20724 0.0
H498 H 0.53802 0.92357 0.1205 0.0
H499 H 0.53293 0.9471 0.9964 0.0
H500 H 0.50459 0.89902 0.81634 0.0
H501 H 0.50096 0.85781 0.8987 0.0
C502 C 0.5102 0.85558 0.04578 0.0
C503 C 0.51538 0.85732 0.12273 0.0
C504 C 0.51441 0.87845 0.99598 0.0
C505 C 0.52616 0.88165 0.14809 0.0
C506 C 0.53044 0.90463 0.09866 0.0
C507 C 0.5263 0.92747 0.97476 0.0
C508 C 0.51874 0.9265 0.90036 0.0
C509 C 0.52407 0.90358 0.02294 0.0
C510 C 0.5103 0.90072 0.87343 0.0
C511 C 0.50817 0.87701 0.92057 0.0
H512 H 0.66295 0.50472 0.35612 0.0
H513 H 0.73351 0.51308 0.20831 0.0
H514 H 0.71247 0.51437 0.09367 0.0
H515 H 0.67458 0.51003 0.03356 0.0
H516 H 0.60458 0.49865 0.18048 0.0
H517 H 0.62488 0.50152 0.29641 0.0
C518 C 0.67381 0.50677 0.2989 0.0
C519 C 0.69993 0.5087 0.2916 0.0
C520 C 0.66169 0.50676 0.2325 0.0
C521 C 0.7134 0.51198 0.21665 0.0
C522 C 0.7014 0.51239 0.15059 0.0
C523 C 0.66375 0.508 0.09083 0.0
C524 C 0.63801 0.50397 0.09765 0.0
C525 C 0.67565 0.50926 0.15758 0.0
C526 C 0.62429 0.50206 0.17293 0.0
C527 C 0.63595 0.50351 0.23949 0.0
H528 H 0.99153 0.58461 0.27536 0.0
H529 H 0.01412 0.65746 0.14233 0.0
H530 H 1.01255 0.63021 0.02123 0.0
H531 H 1.00767 0.58506 0.95175 0.0
H532 H 0.98662 0.51085 0.08076 0.0
H533 H 0.98469 0.53925 0.20417 0.0
C534 C 0.99602 0.59453 0.21988 0.0
C535 C 1.0027 0.62326 0.21862 0.0
C536 C 0.99551 0.57845 0.14941 0.0
C537 C 1.00833 0.63573 0.14586 0.0
C538 C 1.0077 0.62004 0.07614 0.0
C539 C 1.00248 0.57503 0.00671 0.0
C540 C 0.99749 0.54575 0.0067 0.0
C541 C 1.00167 0.59131 0.07714 0.0
C542 C 0.99056 0.53334 0.07881 0.0
C543 C 0.98956 0.54955 0.1495 0.0
H544 H 0.0149 0.22038 0.41473 0.0
H545 H 0.05126 0.15864 0.22835 0.0
H546 H 0.02959 0.12012 0.29166 0.0
H547 H 1.00038 0.10388 0.39954 0.0
H548 H 0.96107 0.16639 0.57922 0.0
H549 H 0.98328 0.20497 0.51691 0.0
C550 C 0.0179 0.19864 0.38707 0.0
C551 C 0.03492 0.19259 0.31689 0.0
C552 C 1.00459 0.17676 0.42197 0.0
C553 C 0.03884 0.16399 0.28331 0.0
C554 C 0.02615 0.14194 0.31886 0.0
C555 C 0.99618 0.12606 0.42414 0.0
C556 C 0.97909 0.13222 0.49398 0.0
C557 C 1.0089 0.14812 0.38794 0.0
C558 C 0.97432 0.161 0.52589 0.0
C559 C 0.98703 0.18306 0.49039 0.0
H560 H 0.32303 0.00652 0.37092 0.0
H561 H 0.3407 0.09546 0.37355 0.0
H562 H 0.38257 0.07948 0.40318 0.0
H563 H 0.41379 0.04023 0.42882 0.0
H564 H 0.39468 0.95172 0.43358 0.0
H565 H 0.35382 0.96757 0.39833 0.0
C566 C 0.33584 0.02252 0.37955 0.0
C567 C 0.32864 0.0522 0.37151 0.0
C568 C 0.35972 0.0132 0.39638 0.0
C569 C 0.34578 0.07252 0.37998 0.0
C570 C 0.36969 0.06339 0.3967 0.0
C571 C 0.40064 0.02439 0.42275 0.0
C572 C 0.40737 0.9948 0.43413 0.0
C573 C 0.37683 0.03377 0.40502 0.0
C574 C 0.39027 0.97454 0.42402 0.0
C575 C 0.36673 0.98363 0.40483 0.0
H576 H 0.51455 0.34918 0.46846 0.0
H577 H 0.43924 0.39267 0.4856 0.0
H578 H 0.4527 0.43647 0.54055 0.0
H579 H 0.48503 0.46183 0.58778 0.0
H580 H 0.55918 0.41766 0.58578 0.0
H581 H 0.54686 0.37434 0.52131 0.0
C582 C 0.50094 0.36803 0.48529 0.0
C583 C 0.4759 0.36752 0.47218 0.0
C584 C 0.50861 0.39301 0.51912 0.0
C585 C 0.45873 0.39248 0.4933 0.0
C586 C 0.46635 0.41755 0.52522 0.0
C587 C 0.49871 0.44295 0.57195 0.0
C588 C 0.52316 0.44306 0.58986 0.0
C589 C 0.49121 0.41803 0.53823 0.0
C590 C 0.54037 0.4181 0.57148 0.0
C591 C 0.53327 0.39338 0.53515 0.0
H592 H 0.18545 0.48599 0.34614 0.0
H593 H 0.15226 0.47518 0.13696 0.0
H594 H 0.11372 0.50372 0.20011 0.0
H595 H 0.08983 0.53313 0.31352 0.0
H596 H 0.1242 0.54567 0.51946 0.0
H597 H 0.16247 0.51666 0.45658 0.0
C598 C 0.16992 0.49004 0.31389 0.0
C599 C 0.17187 0.47832 0.23692 0.0
C600 C 0.14823 0.50753 0.34911 0.0
C601 C 0.15122 0.48332 0.19691 0.0
C602 C 0.12926 0.50007 0.23248 0.0
C603 C 0.10581 0.5297 0.3442 0.0
C604 C 0.10425 0.54177 0.42064 0.0
C605 C 0.12767 0.51255 0.30824 0.0
C606 C 0.12509 0.53722 0.45983 0.0
C607 C 0.14687 0.52024 0.42444 0.0
H608 H 0.05559 0.77311 0.19031 0.0
H609 H 0.11727 0.79264 0.30708 0.0
H610 H 0.11997 0.838 0.23919 0.0
H611 H 0.10232 0.87387 0.15503 0.0
H612 H 0.04093 0.85328 0.03785 0.0
H613 H 0.04064 0.80647 0.0978 0.0
C614 C 0.07012 0.78682 0.19938 0.0
C615 C 0.0862 0.77947 0.25372 0.0
C616 C 0.07132 0.81292 0.16113 0.0
C617 C 0.10453 0.79791 0.26598 0.0
C618 C 0.10605 0.82386 0.22729 0.0
C619 C 0.08913 0.85896 0.14174 0.0
C620 C 0.07139 0.86732 0.09308 0.0
C621 C 0.08913 0.83191 0.17615 0.0
C622 C 0.05435 0.84776 0.07675 0.0
C623 C 0.0543 0.82086 0.11045 0.0
H624 H 0.67532 0.10917 0.22998 0.0
H625 H 0.71579 0.035 0.09017 0.0
H626 H 0.68076 0.03196 0.01903 0.0
H627 H 0.637 0.04665 0.00603 0.0
H628 H 0.59463 0.11683 0.1566 0.0
H629 H 0.63191 0.1249 0.21405 0.0
C630 C 0.67653 0.09228 0.18408 0.0
C631 C 0.69823 0.07222 0.16643 0.0
C632 C 0.65579 0.08966 0.14575 0.0
C633 C 0.69961 0.05107 0.10486 0.0
C634 C 0.67938 0.04901 0.06461 0.0
C635 C 0.63584 0.06362 0.05172 0.0
C636 C 0.61292 0.08084 0.07748 0.0
C637 C 0.65712 0.06758 0.08627 0.0
C638 C 0.61202 0.10332 0.13515 0.0
C639 C 0.63331 0.10785 0.16847 0.0
H640 H 0.49485 0.62925 0.17914 0.0
H641 H 0.44543 0.67761 0.04591 0.0
H642 H 0.44754 0.63528 0.95496 0.0
H643 H 0.46646 0.58608 0.90732 0.0
H644 H 0.51928 0.53968 0.03329 0.0
H645 H 0.51254 0.57937 0.13422 0.0
C646 C 0.48425 0.63026 0.13085 0.0
C647 C 0.46997 0.65631 0.11898 0.0
C648 C 0.48618 0.60619 0.07776 0.0
C649 C 0.45661 0.6577 0.05568 0.0
C650 C 0.45779 0.63355 1.00392 0.0
C651 C 0.47598 0.58443 0.95795 0.0
C652 C 0.4931 0.56 0.9637 0.0
C653 C 0.47289 0.60787 0.01358 0.0
C654 C 0.5059 0.55831 0.02823 0.0
C655 C 0.50215 0.58101 0.08557 0.0
H656 H 0.87061 0.40622 0.39739 0.0
H657 H 0.82407 0.37624 0.23648 0.0
H658 H 0.86112 0.36478 0.13618 0.0
H659 H 0.90544 0.37076 0.08869 0.0
H660 H 0.95148 0.4018 0.2495 0.0
H661 H 0.91605 0.40442 0.35627 0.0
C662 C 0.86861 0.39621 0.34142 0.0
C663 C 0.84454 0.39257 0.324 0.0
C664 C 0.8899 0.39012 0.28375 0.0
C665 C 0.84235 0.3798 0.25078 0.0
C666 C 0.86351 0.37326 0.1934 0.0
C667 C 0.90776 0.37757 0.1475 0.0
C668 C 0.93085 0.38648 0.16112 0.0
C669 C 0.88718 0.37959 0.20821 0.0
C670 C 0.93387 0.3948 0.23764 0.0
C671 C 0.91356 0.39653 0.29857 0.0
H672 H 1.00737 0.19575 0.90597 0.0
H673 H 0.08697 0.17523 0.9059 0.0
H674 H 0.08387 0.12451 0.87126 0.0
H675 H 0.05856 0.08515 0.84715 0.0
H676 H 0.97892 0.10468 0.84762 0.0
H677 H 0.98208 0.15619 0.8765 0.0
C678 C 0.02405 0.18022 0.89804 0.0
C679 C 0.04741 0.18965 0.90797 0.0
C680 C 0.02214 0.15066 0.87894 0.0
C681 C 0.06881 0.16903 0.89696 0.0
C682 C 0.06705 0.13979 0.87798 0.0
C683 C 0.04185 0.10062 0.85359 0.0
C684 C 0.01851 0.09086 0.84587 0.0
C685 C 0.0438 0.13027 0.86976 0.0
C686 C 0.99715 0.11143 0.85349 0.0
C687 C 0.99893 0.14097 0.87005 0.0
H688 H 0.33966 0.01081 0.90217 0.0
H689 H 0.35549 0.00974 0.13884 0.0
H690 H 0.4004 0.00722 0.09026 0.0
H691 H 0.43552 0.00688 0.98091 0.0
H692 H 0.41984 0.00818 0.74414 0.0
H693 H 0.3749 0.00949 0.79249 0.0
C694 C 0.35289 0.01002 0.94326 0.0
C695 C 0.34389 0.01027 0.02435 0.0
C696 C 0.37892 0.0089 0.91489 0.0
C697 C 0.3616 0.00896 0.07618 0.0
C698 C 0.38741 0.00784 0.04843 0.0
C699 C 0.42231 0.00753 0.93975 0.0
C700 C 0.43128 0.00762 0.85879 0.0
C701 C 0.39633 0.00804 0.96796 0.0
C702 C 0.41369 0.00817 0.80669 0.0
C703 C 0.38788 0.00889 0.83434 0.0
H704 H 0.47354 0.33518 0.94998 0.0
H705 H 0.51549 0.35676 0.13324 0.0
H706 H 0.52481 0.4017 0.07202 0.0
H707 H 0.51957 0.43639 0.97014 0.0
H708 H 0.47538 0.41652 0.7917 0.0
H709 H 0.46784 0.37013 0.84897 0.0
C710 C 0.4846 0.34969 0.9771 0.0
C711 C 0.49383 0.34207 0.0464 0.0
C712 C 0.48922 0.37625 0.94305 0.0
C713 C 0.50854 0.36128 0.07913 0.0
C714 C 0.51364 0.38737 0.04467 0.0
C715 C 0.50825 0.42197 0.94373 0.0
C716 C 0.49798 0.43017 0.87678 0.0
C717 C 0.50385 0.39527 0.97717 0.0
C718 C 0.48337 0.41105 0.84358 0.0
C719 C 0.47913 0.38437 0.87611 0.0
H720 H 0.17468 0.44561 0.85411 0.0
H721 H 0.1844 0.53679 0.84191 0.0
H722 H 0.14168 0.54691 0.81133 0.0
H723 H 0.10034 0.5298 0.79452 0.0
H724 H 0.09108 0.43876 0.81588 0.0
H725 H 0.13475 0.42859 0.83464 0.0
C726 C 0.1677 0.46766 0.84329 0.0
C727 C 0.18296 0.49033 0.84951 0.0
C728 C 0.14301 0.47335 0.82732 0.0
C729 C 0.17315 0.51889 0.83751 0.0
C730 C 0.14869 0.52467 0.81989 0.0
C731 C 0.1081 0.50774 0.80208 0.0
C732 C 0.0925 0.48502 0.80342 0.0
C733 C 0.13327 0.5021 0.81543 0.0
C734 C 0.10266 0.4566 0.81467 0.0
C735 C 0.12765 0.45076 0.82555 0.0
H736 H 1.00624 0.80728 0.74914 0.0
H737 H 0.99395 0.82489 0.51393 0.0
H738 H 0.99243 0.8768 0.54392 0.0
H739 H 0.99758 0.91737 0.63325 0.0
H740 H 1.01278 0.89982 0.86546 0.0
H741 H 1.01076 0.84798 0.83938 0.0
C742 C 1.00328 0.82237 0.70421 0.0
C743 C 1.00012 0.81177 0.62935 0.0
C744 C 1.00328 0.85242 0.72087 0.0
C745 C 0.99588 0.83205 0.57268 0.0
C746 C 0.99533 0.86191 0.58939 0.0
C747 C 1.00032 0.90226 0.67839 0.0
C748 C 1.00542 0.91261 0.75108 0.0
C749 C 0.99942 0.87234 0.6628 0.0
C750 C 1.00894 0.89258 0.80874 0.0
C751 C 1.00776 0.86285 0.79396 0.0
H752 H 0.67139 0.96531 0.52657 0.0
H753 H 0.68058 0.04494 0.65206 0.0
H754 H 0.63764 0.04712 0.72025 0.0
H755 H 0.59641 0.02819 0.74007 0.0
H756 H 0.58645 0.94938 0.61252 0.0
H757 H 0.6303 0.94545 0.5496 0.0
C758 C 0.66406 0.98315 0.5688 0.0
C759 C 0.67962 0.00477 0.58399 0.0
C760 C 0.63893 0.98464 0.60745 0.0
C761 C 0.66955 0.02754 0.63983 0.0
C762 C 0.64475 0.02903 0.67857 0.0
C763 C 0.6038 0.01003 0.69888 0.0
C764 C 0.58788 0.98922 0.68116 0.0
C765 C 0.62915 0.00791 0.66232 0.0
C766 C 0.59806 0.96583 0.62756 0.0
C767 C 0.62323 0.96355 0.59126 0.0
H768 H 0.53732 0.6499 0.44968 0.0
H769 H 0.51361 0.7049 0.66064 0.0
H770 H 0.51617 0.66247 0.73919 0.0
H771 H 0.52067 0.60912 0.74732 0.0
H772 H 0.54826 0.55458 0.53889 0.0
H773 H 0.54932 0.59761 0.46012 0.0
C774 C 0.53343 0.65296 0.51286 0.0
C775 C 0.5245 0.68079 0.54846 0.0
C776 C 0.53551 0.62844 0.55829 0.0
C777 C 0.51957 0.6838 0.63083 0.0
C778 C 0.52119 0.6595 0.67615 0.0
C779 C 0.52741 0.60682 0.68484 0.0
C780 C 0.53422 0.57889 0.64856 0.0
C781 C 0.52833 0.63163 0.64037 0.0
C782 C 0.54306 0.57597 0.56786 0.0
C783 C 0.5435 0.60054 0.52288 0.0
H784 H 0.85434 0.47671 0.72656 0.0
H785 H 0.86347 0.5519 0.58906 0.0
H786 H 0.90445 0.55607 0.62949 0.0
H787 H 0.93863 0.53692 0.69961 0.0
H788 H 0.92992 0.46015 0.8313 0.0
H789 H 0.88782 0.45831 0.7985 0.0
C790 C 0.8651 0.49431 0.70638 0.0
C791 C 0.8557 0.51409 0.65516 0.0
C792 C 0.88882 0.49625 0.72882 0.0
C793 C 0.87024 0.53633 0.62825 0.0
C794 C 0.89367 0.53875 0.65152 0.0
C795 C 0.92738 0.52002 0.72199 0.0
C796 C 0.93747 0.49875 0.76819 0.0
C797 C 0.90329 0.51865 0.70121 0.0
C798 C 0.92272 0.47676 0.7956 0.0
C799 C 0.89861 0.47567 0.77678 0.0
loop_
_geom_bond_atom_site_label_1
_geom_bond_atom_site_label_2
_geom_bond_distance
_geom_bond_site_symmetry_2
_ccdc_geom_bond_type
P0 O11 1.490 . S
P0 C14 1.812 . S
P0 C20 1.803 . S
P0 C26 1.819 . S
H1 C15 0.941 . S
H2 C16 0.939 . S
H3 C18 0.940 . S
H4 C19 0.940 . S
H5 C21 0.939 . S
H6 C22 0.942 . S
H7 C24 0.940 . S
H8 C25 0.939 . S
H9 C27 0.941 . S
H10 C31 0.939 . S
O11 P0 1.490 . S
H12 C28 0.939 . S
H13 C30 0.940 . S
C14 P0 1.812 . S
C14 C15 1.389 . S
C14 C19 1.391 . S
C15 H1 0.941 . S
C15 C14 1.389 . S
C15 C16 1.397 . S
C16 H2 0.939 . S
C16 C15 1.397 . S
C16 C17 1.378 . S
C17 C16 1.378 . S
C17 C18 1.378 . S
C18 H3 0.940 . S
C18 C17 1.378 . S
C18 C19 1.396 . S
C19 H4 0.940 . S
C19 C14 1.391 . S
C19 C18 1.396 . S
C20 P0 1.803 . S
C20 C21 1.378 . S
C20 C25 1.400 . S
C21 H5 0.939 . S
C21 C20 1.378 . S
C21 C22 1.361 . S
C22 H6 0.942 . S
C22 C21 1.361 . S
C22 C23 1.369 . S
C23 C22 1.369 . S
C23 C24 1.404 . S
C24 H7 0.940 . S
C24 C23 1.404 . S
C24 C25 1.389 . S
C25 H8 0.939 . S
C25 C20 1.400 . S
C25 C24 1.389 . S
C26 P0 1.819 . S
C26 C27 1.391 . S
C26 C31 1.391 . S
C27 H9 0.941 . S
C27 C26 1.391 . S
C27 C28 1.396 . S
C28 H12 0.939 . S
C28 C27 1.396 . S
C28 C29 1.397 . S
C29 C28 1.397 . S
C29 C30 1.385 . S
C30 H13 0.940 . S
C30 C29 1.385 . S
C30 C31 1.388 . S
C31 H10 0.939 . S
C31 C26 1.391 . S
C31 C30 1.388 . S
P32 O43 1.490 . S
P32 C46 1.812 . S
P32 C52 1.803 . S
P32 C58 1.819 . S
H33 C47 0.941 . S
H34 C48 0.939 . S
H35 C50 0.940 . S
H36 C51 0.952 . S
H37 C53 0.939 . S
H38 C54 0.942 . S
H39 C56 0.940 . S
H40 C57 0.954 . S
H41 C59 0.941 . S
H42 C63 0.926 1_655 S
O43 P32 1.490 . S
H44 C60 0.939 . S
H45 C62 0.940 . S
C46 P32 1.812 . S
C46 C47 1.389 . S
C46 C51 1.376 1_455 S
C47 H33 0.941 . S
C47 C46 1.389 . S
C47 C48 1.397 . S
C48 H34 0.939 . S
C48 C47 1.397 . S
C48 C49 1.378 . S
C49 C48 1.378 . S
C49 C50 1.378 1_455 S
C50 H35 0.940 . S
C50 C49 1.378 1_655 S
C50 C51 1.399 . S
C51 H36 0.952 . S
C51 C46 1.376 1_655 S
C51 C50 1.399 . S
C52 P32 1.803 . S
C52 C53 1.378 . S
C52 C57 1.369 1_455 S
C53 H37 0.939 . S
C53 C52 1.378 . S
C53 C54 1.361 . S
C54 H38 0.942 . S
C54 C53 1.361 . S
C54 C55 1.369 . S
C55 C54 1.369 . S
C55 C56 1.404 1_455 S
C56 H39 0.940 . S
C56 C55 1.404 1_655 S
C56 C57 1.407 . S
C57 H40 0.954 . S
C57 C52 1.369 1_655 S
C57 C56 1.407 . S
C58 P32 1.819 . S
C58 C59 1.391 . S
C58 C63 1.391 . S
C59 H41 0.941 . S
C59 C58 1.391 . S
C59 C60 1.396 . S
C60 H44 0.939 . S
C60 C59 1.396 . S
C60 C61 1.397 . S
C61 C60 1.397 . S
C61 C62 1.385 1_455 S
C62 H45 0.940 . S
C62 C61 1.385 1_655 S
C62 C63 1.388 1_655 S
C63 H42 0.926 1_455 S
C63 C58 1.391 . S
C63 C62 1.388 1_455 S
P64 O75 1.490 . S
P64 C78 1.812 . S
P64 C84 1.803 . S
P64 C90 1.819 . S
H65 C79 0.941 . S
H66 C80 0.939 . S
H67 C82 0.940 . S
H68 C83 0.950 . S
H69 C85 0.939 . S
H70 C86 0.942 . S
H71 C88 0.940 . S
H72 C89 0.962 . S
H73 C91 0.941 . S
H74 C95 0.932 1_565 S
O75 P64 1.490 . S
H76 C92 0.939 . S
H77 C94 0.940 . S
C78 P64 1.812 . S
C78 C79 1.389 . S
C78 C83 1.374 1_545 S
C79 H65 0.941 . S
C79 C78 1.389 . S
C79 C80 1.397 . S
C80 H66 0.939 . S
C80 C79 1.397 . S
C80 C81 1.378 . S
C81 C80 1.378 . S
C81 C82 1.378 1_545 S
C82 H67 0.940 . S
C82 C81 1.378 1_565 S
C82 C83 1.404 . S
C83 H68 0.950 . S
C83 C78 1.374 1_565 S
C83 C82 1.404 . S
C84 P64 1.803 . S
C84 C85 1.378 . S
C84 C89 1.369 1_545 S
C85 H69 0.939 . S
C85 C84 1.378 . S
C85 C86 1.361 . S
C86 H70 0.942 . S
C86 C85 1.361 . S
C86 C87 1.369 . S
C87 C86 1.369 . S
C87 C88 1.404 1_545 S
C88 H71 0.940 . S
C88 C87 1.404 1_565 S
C88 C89 1.398 . S
C89 H72 0.962 . S
C89 C84 1.369 1_565 S
C89 C88 1.398 . S
C90 P64 1.819 . S
C90 C91 1.391 . S
C90 C95 1.391 . S
C91 H73 0.941 . S
C91 C90 1.391 . S
C91 C92 1.396 . S
C92 H76 0.939 . S
C92 C91 1.396 . S
C92 C93 1.397 . S
C93 C92 1.397 . S
C93 C94 1.385 1_545 S
C94 H77 0.940 . S
C94 C93 1.385 1_565 S
C94 C95 1.388 1_565 S
C95 H74 0.932 1_545 S
C95 C90 1.391 . S
C95 C94 1.388 1_545 S
P96 O107 1.490 . S
P96 C110 1.812 . S
P96 C116 1.803 . S
P96 C122 1.819 . S
H97 C111 0.941 . S
H98 C112 0.939 . S
H99 C114 0.940 . S
H100 C115 0.940 . S
H101 C117 0.939 . S
H102 C118 0.942 . S
H103 C120 0.940 . S
H104 C121 0.939 . S
H105 C123 0.941 . S
H106 C127 0.939 . S
O107 P96 1.490 . S
H108 C124 0.939 . S
H109 C126 0.940 . S
C110 P96 1.812 . S
C110 C111 1.389 . S
C110 C115 1.391 . S
C111 H97 0.941 . S
C111 C110 1.389 . S
C111 C112 1.397 . S
C112 H98 0.939 . S
C112 C111 1.397 . S
C112 C113 1.378 . S
C113 C112 1.378 . S
C113 C114 1.378 . S
C114 H99 0.940 . S
C114 C113 1.378 . S
C114 C115 1.396 . S
C115 H100 0.940 . S
C115 C110 1.391 . S
C115 C114 1.396 . S
C116 P96 1.803 . S
C116 C117 1.378 . S
C116 C121 1.400 . S
C117 H101 0.939 . S
C117 C116 1.378 . S
C117 C118 1.361 . S
C118 H102 0.942 . S
C118 C117 1.361 . S
C118 C119 1.369 . S
C119 C118 1.369 . S
C119 C120 1.404 . S
C120 H103 0.940 . S
C120 C119 1.404 . S
C120 C121 1.389 . S
C121 H104 0.939 . S
C121 C116 1.400 . S
C121 C120 1.389 . S
C122 P96 1.819 . S
C122 C123 1.391 . S
C122 C127 1.391 . S
C123 H105 0.941 . S
C123 C122 1.391 . S
C123 C124 1.396 . S
C124 H108 0.939 . S
C124 C123 1.396 . S
C124 C125 1.397 1_554 S
C125 C124 1.397 1_556 S
C125 C126 1.385 . S
C126 H109 0.940 . S
C126 C125 1.385 . S
C126 C127 1.388 1_556 S
C127 H106 0.939 . S
C127 C122 1.391 . S
C127 C126 1.388 1_554 S
P128 O139 1.490 . S
P128 C142 1.812 . S
P128 C148 1.803 1_556 S
P128 C154 1.819 1_556 S
H129 C143 0.941 . S
H130 C144 0.939 . S
H131 C146 0.940 . S
H132 C147 0.940 . S
H133 C149 0.939 . S
H134 C150 0.942 . S
H135 C152 0.940 1_556 S
H136 C153 0.939 . S
H137 C155 0.941 . S
H138 C159 0.939 . S
O139 P128 1.490 . S
H140 C156 0.939 . S
H141 C158 0.940 . S
C142 P128 1.812 . S
C142 C143 1.389 . S
C142 C147 1.391 . S
C143 H129 0.941 . S
C143 C142 1.389 . S
C143 C144 1.397 . S
C144 H130 0.939 . S
C144 C143 1.397 . S
C144 C145 1.378 . S
C145 C144 1.378 . S
C145 C146 1.378 . S
C146 H131 0.940 . S
C146 C145 1.378 . S
C146 C147 1.396 . S
C147 H132 0.940 . S
C147 C142 1.391 . S
C147 C146 1.396 . S
C148 P128 1.803 1_554 S
C148 C149 1.378 . S
C148 C153 1.400 1_554 S
C149 H133 0.939 . S
C149 C148 1.378 . S
C149 C150 1.361 . S
C150 H134 0.942 . S
C150 C149 1.361 . S
C150 C151 1.369 . S
C151 C150 1.369 . S
C151 C152 1.404 . S
C152 H135 0.940 1_554 S
C152 C151 1.404 . S
C152 C153 1.389 1_554 S
C153 H136 0.939 . S
C153 C148 1.400 1_556 S
C153 C152 1.389 1_556 S
C154 P128 1.819 1_554 S
C154 C155 1.391 . S
C154 C159 1.391 . S
C155 H137 0.941 . S
C155 C154 1.391 . S
C155 C156 1.396 . S
C156 H140 0.939 . S
C156 C155 1.396 . S
C156 C157 1.397 . S
C157 C156 1.397 . S
C157 C158 1.385 . S
C158 H141 0.940 . S
C158 C157 1.385 . S
C158 C159 1.388 . S
C159 H138 0.939 . S
C159 C154 1.391 . S
C159 C158 1.388 . S
P160 O171 1.490 . S
P160 C174 1.812 . S
P160 C180 1.803 . S
P160 C186 1.819 . S
H161 C175 0.941 . S
H162 C176 0.939 . S
H163 C178 0.940 . S
H164 C179 0.943 . S
H165 C181 0.939 . S
H166 C182 0.942 . S
H167 C184 0.940 . S
H168 C185 0.956 . S
H169 C187 0.941 . S
H170 C191 0.935 1_655 S
O171 P160 1.490 . S
H172 C188 0.939 . S
H173 C190 0.940 . S
C174 P160 1.812 . S
C174 C175 1.389 1_554 S
C174 C179 1.384 1_455 S
C175 H161 0.941 . S
C175 C174 1.389 1_556 S
C175 C176 1.397 . S
C176 H162 0.939 . S
C176 C175 1.397 . S
C176 C177 1.378 . S
C177 C176 1.378 . S
C177 C178 1.378 1_455 S
C178 H163 0.940 . S
C178 C177 1.378 1_655 S
C178 C179 1.400 1_556 S
C179 H164 0.943 . S
C179 C174 1.384 1_655 S
C179 C178 1.400 1_554 S
C180 P160 1.803 . S
C180 C181 1.378 . S
C180 C185 1.378 1_455 S
C181 H165 0.939 . S
C181 C180 1.378 . S
C181 C182 1.361 . S
C182 H166 0.942 . S
C182 C181 1.361 . S
C182 C183 1.369 . S
C183 C182 1.369 . S
C183 C184 1.404 1_455 S
C184 H167 0.940 . S
C184 C183 1.404 1_655 S
C184 C185 1.394 . S
C185 H168 0.956 . S
C185 C180 1.378 1_655 S
C185 C184 1.394 . S
C186 P160 1.819 . S
C186 C187 1.391 . S
C186 C191 1.391 . S
C187 H169 0.941 . S
C187 C186 1.391 . S
C187 C188 1.396 . S
C188 H172 0.939 . S
C188 C187 1.396 . S
C188 C189 1.397 . S
C189 C188 1.397 . S
C189 C190 1.385 1_455 S
C190 H173 0.940 . S
C190 C189 1.385 1_655 S
C190 C191 1.388 1_655 S
C191 H170 0.935 1_455 S
C191 C186 1.391 . S
C191 C190 1.388 1_455 S
P192 O203 1.490 . S
P192 C206 1.812 . S
P192 C212 1.803 . S
P192 C218 1.819 . S
H193 C207 0.941 . S
H194 C208 0.939 . S
H195 C210 0.940 . S
H196 C211 0.945 . S
H197 C213 0.939 . S
H198 C214 0.942 . S
H199 C216 0.940 . S
H200 C217 0.951 . S
H201 C219 0.941 . S
H202 C223 0.930 1_565 S
O203 P192 1.490 . S
H204 C220 0.939 . S
H205 C222 0.940 . S
C206 P192 1.812 . S
C206 C207 1.389 . S
C206 C211 1.384 1_545 S
C207 H193 0.941 . S
C207 C206 1.389 . S
C207 C208 1.397 1_554 S
C208 H194 0.939 . S
C208 C207 1.397 1_556 S
C208 C209 1.378 . S
C209 C208 1.378 . S
C209 C210 1.378 1_546 S
C210 H195 0.940 . S
C210 C209 1.378 1_564 S
C210 C211 1.399 . S
C211 H196 0.945 . S
C211 C206 1.384 1_565 S
C211 C210 1.399 . S
C212 P192 1.803 . S
C212 C213 1.378 . S
C212 C217 1.376 1_545 S
C213 H197 0.939 . S
C213 C212 1.378 . S
C213 C214 1.361 . S
C214 H198 0.942 . S
C214 C213 1.361 . S
C214 C215 1.369 . S
C215 C214 1.369 . S
C215 C216 1.404 1_545 S
C216 H199 0.940 . S
C216 C215 1.404 1_565 S
C216 C217 1.401 . S
C217 H200 0.951 . S
C217 C212 1.376 1_565 S
C217 C216 1.401 . S
C218 P192 1.819 . S
C218 C219 1.391 . S
C218 C223 1.391 . S
C219 H201 0.941 . S
C219 C218 1.391 . S
C219 C220 1.396 . S
C220 H204 0.939 . S
C220 C219 1.396 . S
C220 C221 1.397 . S
C221 C220 1.397 . S
C221 C222 1.385 1_545 S
C222 H205 0.940 . S
C222 C221 1.385 1_565 S
C222 C223 1.388 1_565 S
C223 H202 0.930 1_545 S
C223 C218 1.391 . S
C223 C222 1.388 1_545 S
P224 O235 1.490 . S
P224 C238 1.812 . S
P224 C244 1.803 . S
P224 C250 1.819 . S
H225 C239 0.941 . S
H226 C240 0.939 . S
H227 C242 0.940 . S
H228 C243 0.940 . S
H229 C245 0.939 . S
H230 C246 0.942 . S
H231 C248 0.940 . S
H232 C249 0.939 . S
H233 C251 0.941 . S
H234 C255 0.939 . S
O235 P224 1.490 . S
H236 C252 0.939 . S
H237 C254 0.940 . S
C238 P224 1.812 . S
C238 C239 1.389 . S
C238 C243 1.391 . S
C239 H225 0.941 . S
C239 C238 1.389 . S
C239 C240 1.397 . S
C240 H226 0.939 . S
C240 C239 1.397 . S
C240 C241 1.378 . S
C241 C240 1.378 . S
C241 C242 1.378 . S
C242 H227 0.940 . S
C242 C241 1.378 . S
C242 C243 1.396 . S
C243 H228 0.940 . S
C243 C238 1.391 . S
C243 C242 1.396 . S
C244 P224 1.803 . S
C244 C245 1.378 . S
C244 C249 1.400 . S
C245 H229 0.939 . S
C245 C244 1.378 . S
C245 C246 1.361 . S
C246 H230 0.942 . S
C246 C245 1.361 . S
C246 C247 1.369 . S
C247 C246 1.369 . S
C247 C248 1.404 . S
C248 H231 0.940 . S
C248 C247 1.404 . S
C248 C249 1.389 . S
C249 H232 0.939 . S
C249 C244 1.400 . S
C249 C248 1.389 . S
C250 P224 1.819 . S
C250 C251 1.391 . S
C250 C255 1.391 . S
C251 H233 0.941 . S
C251 C250 1.391 . S
C251 C252 1.396 . S
C252 H236 0.939 . S
C252 C251 1.396 . S
C252 C253 1.397 . S
C253 C252 1.397 . S
C253 C254 1.385 . S
C254 H237 0.940 . S
C254 C253 1.385 . S
C254 C255 1.388 . S
C255 H234 0.939 . S
C255 C250 1.391 . S
C255 C254 1.388 . S
Dy256 O259 2.307 1_545 S
Dy256 O261 2.395 1_655 S
Dy256 O262 2.379 . S
Dy256 O264 2.339 . S
Dy256 O266 2.298 . S
Dy256 O270 2.275 1_655 S
Dy256 C278 2.738 . S
Dy257 O260 2.298 . S
Dy257 O263 2.275 1_455 S
Dy257 O265 2.307 1_565 S
Dy257 O267 2.395 1_455 S
Dy257 O268 2.379 . S
Dy257 O271 2.339 . S
Dy257 C287 2.738 . S
C258 O270 1.254 1_565 S
C258 O271 1.257 . S
O259 Dy256 2.307 1_565 S
O259 C269 1.266 . S
O260 Dy257 2.298 . S
O260 C269 1.236 1_455 S
O261 Dy256 2.395 1_455 S
O261 C278 1.255 1_455 S
O262 Dy256 2.379 . S
O262 C278 1.249 . S
O263 Dy257 2.275 1_655 S
O263 C279 1.254 1_565 S
O264 Dy256 2.339 . S
O264 C279 1.257 . S
O265 Dy257 2.307 1_545 S
O265 C280 1.266 . S
O266 Dy256 2.298 . S
O266 C280 1.236 1_655 S
O267 Dy257 2.395 1_655 S
O267 C287 1.255 1_655 S
O268 Dy257 2.379 . S
O268 C287 1.249 . S
C269 O259 1.266 . S
C269 O260 1.236 1_655 S
O270 Dy256 2.275 1_455 S
O270 C258 1.254 1_545 S
O271 Dy257 2.339 . S
O271 C258 1.257 . S
C272 C275 1.344 . S
C272 C276 1.328 . S
C272 C278 1.516 . S
C273 C274 1.304 . S
C273 C277 1.323 . S
C274 C273 1.304 . S
C274 C275 1.371 . S
C274 H288 0.930 1_655 S
C275 C272 1.344 . S
C275 C274 1.371 . S
C275 H289 0.931 1_655 S
C276 C272 1.328 . S
C276 C277 1.433 . S
C276 H290 0.931 . S
C277 C273 1.323 . S
C277 C276 1.433 . S
C277 H291 0.933 . S
C278 Dy256 2.738 . S
C278 O261 1.255 1_655 S
C278 O262 1.249 . S
C278 C272 1.516 . S
C279 O263 1.254 1_545 S
C279 O264 1.257 . S
C280 O265 1.266 . S
C280 O266 1.236 1_455 S
C281 C284 1.344 . S
C281 C285 1.328 . S
C281 C287 1.516 . S
C282 C283 1.304 . S
C282 C286 1.323 . S
C283 C282 1.304 . S
C283 C284 1.371 1_554 S
C283 H292 0.930 1_455 S
C284 C281 1.344 . S
C284 C283 1.371 1_556 S
C284 H293 0.931 1_455 S
C285 C281 1.328 . S
C285 C286 1.433 1_556 S
C285 H294 0.931 . S
C286 C282 1.323 . S
C286 C285 1.433 1_554 S
C286 H295 0.933 . S
C287 Dy257 2.738 . S
C287 O267 1.255 1_455 S
C287 O268 1.249 . S
C287 C281 1.516 . S
H288 C274 0.930 1_455 S
H289 C275 0.931 1_455 S
H290 C276 0.931 . S
H291 C277 0.933 . S
H292 C283 0.930 1_655 S
H293 C284 0.931 1_655 S
H294 C285 0.931 . S
H295 C286 0.933 . S
Dy296 O299 2.307 . S
Dy296 O301 2.395 1_565 S
Dy296 O302 2.379 . S
Dy296 O304 2.339 . S
Dy296 O306 2.298 . S
Dy296 O310 2.275 1_565 S
Dy296 C318 2.738 . S
Dy297 O300 2.298 . S
Dy297 O303 2.275 1_545 S
Dy297 O305 2.307 . S
Dy297 O307 2.395 1_545 S
Dy297 O308 2.379 . S
Dy297 O311 2.339 . S
Dy297 C327 2.738 . S
C298 O310 1.254 . S
C298 O311 1.257 . S
O299 Dy296 2.307 . S
O299 C309 1.266 . S
O300 Dy297 2.298 . S
O300 C309 1.236 1_545 S
O301 Dy296 2.395 1_545 S
O301 C318 1.255 1_545 S
O302 Dy296 2.379 . S
O302 C318 1.249 . S
O303 Dy297 2.275 1_565 S
O303 C319 1.254 . S
O304 Dy296 2.339 . S
O304 C319 1.257 . S
O305 Dy297 2.307 . S
O305 C320 1.266 . S
O306 Dy296 2.298 . S
O306 C320 1.236 1_565 S
O307 Dy297 2.395 1_565 S
O307 C327 1.255 1_565 S
O308 Dy297 2.379 . S
O308 C327 1.249 . S
C309 O299 1.266 . S
C309 O300 1.236 1_565 S
O310 Dy296 2.275 1_545 S
O310 C298 1.254 . S
O311 Dy297 2.339 . S
O311 C298 1.257 . S
C312 C315 1.355 . S
C312 C316 1.328 . S
C312 C318 1.516 . S
C313 C314 1.304 . S
C313 C317 1.323 . S
C314 C313 1.304 . S
C314 C315 1.373 . S
C314 H328 0.930 1_565 S
C315 C312 1.355 . S
C315 C314 1.373 . S
C315 H329 0.918 1_565 S
C316 C312 1.328 . S
C316 C317 1.433 . S
C316 H330 0.931 . S
C317 C313 1.323 . S
C317 C316 1.433 . S
C317 H331 0.933 . S
C318 Dy296 2.738 . S
C318 O301 1.255 1_565 S
C318 O302 1.249 . S
C318 C312 1.516 . S
C319 O303 1.254 . S
C319 O304 1.257 . S
C320 O305 1.266 . S
C320 O306 1.236 1_545 S
C321 C324 1.362 . S
C321 C325 1.328 . S
C321 C327 1.516 . S
C322 C323 1.304 . S
C322 C326 1.323 . S
C323 C322 1.304 . S
C323 C324 1.374 1_554 S
C323 H332 0.930 1_545 S
C324 C321 1.362 . S
C324 C323 1.374 1_556 S
C324 H333 0.909 1_545 S
C325 C321 1.328 . S
C325 C326 1.433 1_556 S
C325 H334 0.931 . S
C326 C322 1.323 . S
C326 C325 1.433 1_554 S
C326 H335 0.933 . S
C327 Dy297 2.738 . S
C327 O307 1.255 1_545 S
C327 O308 1.249 . S
C327 C321 1.516 . S
H328 C314 0.930 1_545 S
H329 C315 0.918 1_545 S
H330 C316 0.931 . S
H331 C317 0.933 . S
H332 C323 0.930 1_565 S
H333 C324 0.909 1_565 S
H334 C325 0.931 . S
H335 C326 0.933 . S
Dy336 O339 2.307 . S
Dy336 O341 2.395 . S
Dy336 O342 2.379 . S
Dy336 O344 2.339 . S
Dy336 O346 2.298 . S
Dy336 O350 2.275 . S
Dy336 C358 2.738 . S
Dy337 O340 2.298 . S
Dy337 O343 2.275 . S
Dy337 O345 2.307 . S
Dy337 O347 2.395 . S
Dy337 O348 2.379 . S
Dy337 O351 2.339 . S
Dy337 C367 2.738 . S
C338 O350 1.254 . S
C338 O351 1.257 . S
O339 Dy336 2.307 . S
O339 C349 1.266 . S
O340 Dy337 2.298 . S
O340 C349 1.236 . S
O341 Dy336 2.395 . S
O341 C358 1.255 . S
O342 Dy336 2.379 . S
O342 C358 1.249 . S
O343 Dy337 2.275 . S
O343 C359 1.254 . S
O344 Dy336 2.339 . S
O344 C359 1.257 . S
O345 Dy337 2.307 . S
O345 C360 1.266 . S
O346 Dy336 2.298 . S
O346 C360 1.236 . S
O347 Dy337 2.395 . S
O347 C367 1.255 . S
O348 Dy337 2.379 . S
O348 C367 1.249 . S
C349 O339 1.266 . S
C349 O340 1.236 . S
O350 Dy336 2.275 . S
O350 C338 1.254 . S
O351 Dy337 2.339 . S
O351 C338 1.257 . S
C352 C355 1.344 . S
C352 C356 1.328 . S
C352 C358 1.516 . S
C353 C354 1.304 . S
C353 C357 1.323 1_554 S
C354 C353 1.304 . S
C354 C355 1.371 1_554 S
C354 H368 0.930 . S
C355 C352 1.344 . S
C355 C354 1.371 1_556 S
C355 H369 0.931 1_556 S
C356 C352 1.328 . S
C356 C357 1.433 . S
C356 H370 0.931 . S
C357 C353 1.323 1_556 S
C357 C356 1.433 . S
C357 H371 0.933 . S
C358 Dy336 2.738 . S
C358 O341 1.255 . S
C358 O342 1.249 . S
C358 C352 1.516 . S
C359 O343 1.254 . S
C359 O344 1.257 . S
C360 O345 1.266 . S
C360 O346 1.236 . S
C361 C364 1.344 . S
C361 C365 1.328 . S
C361 C367 1.516 . S
C362 C363 1.304 . S
C362 C366 1.323 . S
C363 C362 1.304 . S
C363 C364 1.371 . S
C363 H372 0.930 . S
C364 C361 1.344 . S
C364 C363 1.371 . S
C364 H373 0.931 . S
C365 C361 1.328 . S
C365 C366 1.433 . S
C365 H374 0.931 . S
C366 C362 1.323 . S
C366 C365 1.433 . S
C366 H375 0.933 . S
C367 Dy337 2.738 . S
C367 O347 1.255 . S
C367 O348 1.249 . S
C367 C361 1.516 . S
H368 C354 0.930 . S
H369 C355 0.931 1_554 S
H370 C356 0.931 . S
H371 C357 0.933 . S
H372 C363 0.930 . S
H373 C364 0.931 . S
H374 C365 0.931 . S
H375 C366 0.933 . S
Dy376 O379 2.307 1_455 S
Dy376 O381 2.395 . S
Dy376 O382 2.379 . S
Dy376 O384 2.339 . S
Dy376 O386 2.298 . S
Dy376 O390 2.275 . S
Dy376 C398 2.738 . S
Dy377 O380 2.298 . S
Dy377 O383 2.275 . S
Dy377 O385 2.307 1_655 S
Dy377 O387 2.395 . S
Dy377 O388 2.379 . S
Dy377 O391 2.339 . S
Dy377 C407 2.738 . S
C378 O390 1.254 1_655 S
C378 O391 1.257 . S
O379 Dy376 2.307 1_655 S
O379 C389 1.266 . S
O380 Dy377 2.298 . S
O380 C389 1.236 . S
O381 Dy376 2.395 . S
O381 C398 1.255 . S
O382 Dy376 2.379 . S
O382 C398 1.249 . S
O383 Dy377 2.275 . S
O383 C399 1.254 1_655 S
O384 Dy376 2.339 . S
O384 C399 1.257 . S
O385 Dy377 2.307 1_455 S
O385 C400 1.266 . S
O386 Dy376 2.298 . S
O386 C400 1.236 . S
O387 Dy377 2.395 . S
O387 C407 1.255 . S
O388 Dy377 2.379 . S
O388 C407 1.249 . S
C389 O379 1.266 . S
C389 O380 1.236 . S
O390 Dy376 2.275 . S
O390 C378 1.254 1_455 S
O391 Dy377 2.339 . S
O391 C378 1.257 . S
C392 C395 1.344 . S
C392 C396 1.328 . S
C392 C398 1.516 . S
C393 C394 1.304 . S
C393 C397 1.323 . S
C394 C393 1.304 . S
C394 C395 1.371 . S
C394 H408 0.930 . S
C395 C392 1.344 . S
C395 C394 1.371 . S
C395 H409 0.931 . S
C396 C392 1.328 . S
C396 C397 1.433 . S
C396 H410 0.931 . S
C397 C393 1.323 . S
C397 C396 1.433 . S
C397 H411 0.933 . S
C398 Dy376 2.738 . S
C398 O381 1.255 . S
C398 O382 1.249 . S
C398 C392 1.516 . S
C399 O383 1.254 1_455 S
C399 O384 1.257 . S
C400 O385 1.266 . S
C400 O386 1.236 . S
C401 C404 1.344 . S
C401 C405 1.328 . S
C401 C407 1.516 1_554 S
C402 C403 1.304 . S
C402 C406 1.323 . S
C403 C402 1.304 . S
C403 C404 1.371 . S
C403 H412 0.930 . S
C404 C401 1.344 . S
C404 C403 1.371 . S
C404 H413 0.931 . S
C405 C401 1.328 . S
C405 C406 1.433 . S
C405 H414 0.931 1_554 S
C406 C402 1.323 . S
C406 C405 1.433 . S
C406 H415 0.933 . S
C407 Dy377 2.738 . S
C407 O387 1.255 . S
C407 O388 1.249 . S
C407 C401 1.516 1_556 S
H408 C394 0.930 . S
H409 C395 0.931 . S
H410 C396 0.931 . S
H411 C397 0.933 . S
H412 C403 0.930 . S
H413 C404 0.931 . S
H414 C405 0.931 1_556 S
H415 C406 0.933 . S
H416 C422 0.930 . S
H417 C425 0.930 . S
H418 C426 0.930 . S
H419 C427 0.930 . S
H420 C430 0.930 . S
H421 C431 0.930 . S
C422 H416 0.930 . S
C422 C423 1.356 . S
C422 C424 1.415 . S
C423 C422 1.356 . S
C423 C425 1.416 1_545 S
C424 C422 1.415 . S
C424 C429 1.425 1_545 S
C424 C431 1.409 . S
C425 H417 0.930 . S
C425 C423 1.416 1_565 S
C425 C426 1.362 . S
C426 H418 0.930 . S
C426 C425 1.362 . S
C426 C429 1.409 . S
C427 H419 0.930 . S
C427 C428 1.355 1_565 S
C427 C429 1.415 . S
C428 C427 1.355 1_545 S
C428 C430 1.419 . S
C429 C424 1.425 1_565 S
C429 C426 1.409 . S
C429 C427 1.415 . S
C430 H420 0.930 . S
C430 C428 1.419 . S
C430 C431 1.362 . S
C431 H421 0.930 . S
C431 C424 1.409 . S
C431 C430 1.362 . S
H432 C438 0.930 . S
H433 C441 0.930 . S
H434 C442 0.930 . S
H435 C443 0.930 . S
H436 C446 0.930 . S
H437 C447 0.930 . S
C438 H432 0.930 . S
C438 C439 1.355 . S
C438 C440 1.415 . S
C439 C438 1.355 . S
C439 C441 1.419 . S
C440 C438 1.415 . S
C440 C445 1.425 . S
C440 C447 1.409 . S
C441 H433 0.930 . S
C441 C439 1.419 . S
C441 C442 1.362 . S
C442 H434 0.930 . S
C442 C441 1.362 . S
C442 C445 1.409 . S
C443 H435 0.930 . S
C443 C444 1.355 . S
C443 C445 1.415 . S
C444 C443 1.355 . S
C444 C446 1.419 . S
C445 C440 1.425 . S
C445 C442 1.409 . S
C445 C443 1.415 . S
C446 H436 0.930 . S
C446 C444 1.419 . S
C446 C447 1.362 . S
C447 H437 0.930 . S
C447 C440 1.409 . S
C447 C446 1.362 . S
H448 C454 0.930 . S
H449 C457 0.930 . S
H450 C458 0.930 . S
H451 C459 0.930 . S
H452 C462 0.930 . S
H453 C463 0.930 . S
C454 H448 0.930 . S
C454 C455 1.355 . S
C454 C456 1.415 . S
C455 C454 1.355 . S
C455 C457 1.419 . S
C456 C454 1.415 . S
C456 C461 1.425 . S
C456 C463 1.409 . S
C457 H449 0.930 . S
C457 C455 1.419 . S
C457 C458 1.362 . S
C458 H450 0.930 . S
C458 C457 1.362 . S
C458 C461 1.409 . S
C459 H451 0.930 . S
C459 C460 1.355 . S
C459 C461 1.415 . S
C460 C459 1.355 . S
C460 C462 1.419 . S
C461 C456 1.425 . S
C461 C458 1.409 . S
C461 C459 1.415 . S
C462 H452 0.930 . S
C462 C460 1.419 . S
C462 C463 1.362 . S
C463 H453 0.930 . S
C463 C456 1.409 . S
C463 C462 1.362 . S
H464 C470 0.930 . S
H465 C473 0.930 . S
H466 C474 0.930 . S
H467 C475 0.930 . S
H468 C478 0.930 . S
H469 C479 0.930 . S
C470 H464 0.930 . S
C470 C471 1.355 1_455 S
C470 C472 1.415 . S
C471 C470 1.355 1_655 S
C471 C473 1.419 . S
C472 C470 1.415 . S
C472 C477 1.425 1_455 S
C472 C479 1.409 . S
C473 H465 0.930 . S
C473 C471 1.419 . S
C473 C474 1.362 . S
C474 H466 0.930 . S
C474 C473 1.362 . S
C474 C477 1.409 . S
C475 H467 0.930 . S
C475 C476 1.355 1_655 S
C475 C477 1.415 . S
C476 C475 1.355 1_455 S
C476 C478 1.419 . S
C477 C472 1.425 1_655 S
C477 C474 1.409 . S
C477 C475 1.415 . S
C478 H468 0.930 . S
C478 C476 1.419 . S
C478 C479 1.362 . S
C479 H469 0.930 . S
C479 C472 1.409 . S
C479 C478 1.362 . S
H480 C486 0.929 . S
H481 C489 0.930 . S
H482 C490 0.932 . S
H483 C491 0.930 . S
H484 C494 0.930 . S
H485 C495 0.930 . S
C486 H480 0.929 . S
C486 C487 1.357 . S
C486 C488 1.418 1_545 S
C487 C486 1.357 . S
C487 C489 1.419 . S
C488 C486 1.418 1_565 S
C488 C493 1.425 . S
C488 C495 1.408 . S
C489 H481 0.930 . S
C489 C487 1.419 . S
C489 C490 1.360 . S
C490 H482 0.932 . S
C490 C489 1.360 . S
C490 C493 1.413 1_545 S
C491 H483 0.930 . S
C491 C492 1.355 . S
C491 C493 1.414 1_556 S
C492 C491 1.355 . S
C492 C494 1.419 1_556 S
C493 C488 1.425 . S
C493 C490 1.413 1_565 S
C493 C491 1.414 1_554 S
C494 H484 0.930 . S
C494 C492 1.419 1_554 S
C494 C495 1.362 . S
C495 H485 0.930 . S
C495 C488 1.408 . S
C495 C494 1.362 . S
H496 C502 0.930 . S
H497 C505 0.930 . S
H498 C506 0.930 . S
H499 C507 0.930 . S
H500 C510 0.930 . S
H501 C511 0.930 . S
C502 H496 0.930 . S
C502 C503 1.355 . S
C502 C504 1.415 1_554 S
C503 C502 1.355 . S
C503 C505 1.419 . S
C504 C502 1.415 1_556 S
C504 C509 1.425 . S
C504 C511 1.409 . S
C505 H497 0.930 . S
C505 C503 1.419 . S
C505 C506 1.362 . S
C506 H498 0.930 . S
C506 C505 1.362 . S
C506 C509 1.409 1_554 S
C507 H499 0.930 . S
C507 C508 1.355 . S
C507 C509 1.415 . S
C508 C507 1.355 . S
C508 C510 1.419 . S
C509 C504 1.425 . S
C509 C506 1.409 1_556 S
C509 C507 1.415 . S
C510 H500 0.930 . S
C510 C508 1.419 . S
C510 C511 1.362 . S
C511 H501 0.930 . S
C511 C504 1.409 . S
C511 C510 1.362 . S
H512 C518 0.930 . S
H513 C521 0.930 . S
H514 C522 0.930 . S
H515 C523 0.930 . S
H516 C526 0.930 . S
H517 C527 0.930 . S
C518 H512 0.930 . S
C518 C519 1.355 . S
C518 C520 1.415 . S
C519 C518 1.355 . S
C519 C521 1.419 . S
C520 C518 1.415 . S
C520 C525 1.425 . S
C520 C527 1.409 . S
C521 H513 0.930 . S
C521 C519 1.419 . S
C521 C522 1.362 . S
C522 H514 0.930 . S
C522 C521 1.362 . S
C522 C525 1.409 . S
C523 H515 0.930 . S
C523 C524 1.355 . S
C523 C525 1.415 . S
C524 C523 1.355 . S
C524 C526 1.419 . S
C525 C520 1.425 . S
C525 C522 1.409 . S
C525 C523 1.415 . S
C526 H516 0.930 . S
C526 C524 1.419 . S
C526 C527 1.362 . S
C527 H517 0.930 . S
C527 C520 1.409 . S
C527 C526 1.362 . S
H528 C534 0.930 . S
H529 C537 0.930 . S
H530 C538 0.930 . S
H531 C539 0.930 1_556 S
H532 C542 0.930 1_556 S
H533 C543 0.930 . S
C534 H528 0.930 . S
C534 C535 1.354 1_455 S
C534 C536 1.415 . S
C535 C534 1.354 1_655 S
C535 C537 1.424 . S
C536 C534 1.415 . S
C536 C541 1.425 1_455 S
C536 C543 1.409 . S
C537 H529 0.930 . S
C537 C535 1.424 . S
C537 C538 1.362 . S
C538 H530 0.930 . S
C538 C537 1.362 . S
C538 C541 1.409 . S
C539 H531 0.930 1_554 S
C539 C540 1.355 1_554 S
C539 C541 1.415 . S
C540 C539 1.355 1_556 S
C540 C542 1.419 1_656 S
C541 C536 1.425 1_655 S
C541 C538 1.409 . S
C541 C539 1.415 . S
C542 H532 0.930 1_554 S
C542 C540 1.419 1_454 S
C542 C543 1.362 . S
C543 H533 0.930 . S
C543 C536 1.409 . S
C543 C542 1.362 . S
H544 C550 0.930 . S
H545 C553 0.930 . S
H546 C554 0.930 . S
H547 C555 0.930 . S
H548 C558 0.946 . S
H549 C559 0.930 . S
C550 H544 0.930 . S
C550 C551 1.355 . S
C550 C552 1.415 1_455 S
C551 C550 1.355 . S
C551 C553 1.419 1_455 S
C552 C550 1.415 1_655 S
C552 C557 1.425 . S
C552 C559 1.409 1_655 S
C553 H545 0.930 . S
C553 C551 1.419 1_655 S
C553 C554 1.362 . S
C554 H546 0.930 . S
C554 C553 1.362 . S
C554 C557 1.409 . S
C555 H547 0.930 . S
C555 C556 1.355 . S
C555 C557 1.415 . S
C556 C555 1.355 . S
C556 C558 1.419 . S
C557 C552 1.425 . S
C557 C554 1.409 . S
C557 C555 1.415 . S
C558 H548 0.946 . S
C558 C556 1.419 . S
C558 C559 1.362 1_655 S
C559 H549 0.930 . S
C559 C552 1.409 1_455 S
C559 C558 1.362 1_455 S
H560 C566 0.930 . S
H561 C569 0.930 . S
H562 C570 0.930 . S
H563 C571 0.930 1_545 S
H564 C574 0.930 . S
H565 C575 0.930 . S
C566 H560 0.930 . S
C566 C567 1.355 1_565 S
C566 C568 1.415 . S
C567 C566 1.355 1_545 S
C567 C569 1.419 . S
C568 C566 1.415 . S
C568 C573 1.425 . S
C568 C575 1.409 . S
C569 H561 0.930 . S
C569 C567 1.419 . S
C569 C570 1.362 . S
C570 H562 0.930 . S
C570 C569 1.362 . S
C570 C573 1.409 1_545 S
C571 H563 0.930 1_565 S
C571 C572 1.355 . S
C571 C573 1.415 . S
C572 C571 1.355 . S
C572 C574 1.419 . S
C573 C568 1.425 . S
C573 C570 1.409 1_565 S
C573 C571 1.415 . S
C574 H564 0.930 . S
C574 C572 1.419 . S
C574 C575 1.362 . S
C575 H565 0.930 . S
C575 C568 1.409 . S
C575 C574 1.362 . S
H576 C582 0.930 . S
H577 C585 0.930 . S
H578 C586 0.930 . S
H579 C587 0.930 . S
H580 C590 0.930 . S
H581 C591 0.930 . S
C582 H576 0.930 . S
C582 C583 1.355 . S
C582 C584 1.415 . S
C583 C582 1.355 . S
C583 C585 1.419 . S
C584 C582 1.415 . S
C584 C589 1.425 . S
C584 C591 1.409 . S
C585 H577 0.930 . S
C585 C583 1.419 . S
C585 C586 1.362 . S
C586 H578 0.930 . S
C586 C585 1.362 . S
C586 C589 1.409 . S
C587 H579 0.930 . S
C587 C588 1.355 . S
C587 C589 1.415 . S
C588 C587 1.355 . S
C588 C590 1.419 . S
C589 C584 1.425 . S
C589 C586 1.409 . S
C589 C587 1.415 . S
C590 H580 0.930 . S
C590 C588 1.419 . S
C590 C591 1.362 . S
C591 H581 0.930 . S
C591 C584 1.409 . S
C591 C590 1.362 . S
H592 C598 0.930 . S
H593 C601 0.930 . S
H594 C602 0.930 . S
H595 C603 0.930 . S
H596 C606 0.930 . S
H597 C607 0.930 . S
C598 H592 0.930 . S
C598 C599 1.355 . S
C598 C600 1.415 . S
C599 C598 1.355 . S
C599 C601 1.419 . S
C600 C598 1.415 . S
C600 C605 1.425 . S
C600 C607 1.409 . S
C601 H593 0.930 . S
C601 C599 1.419 . S
C601 C602 1.362 . S
C602 H594 0.930 . S
C602 C601 1.362 . S
C602 C605 1.409 . S
C603 H595 0.930 . S
C603 C604 1.355 . S
C603 C605 1.415 . S
C604 C603 1.355 . S
C604 C606 1.419 . S
C605 C600 1.425 . S
C605 C602 1.409 . S
C605 C603 1.415 . S
C606 H596 0.930 . S
C606 C604 1.419 . S
C606 C607 1.362 . S
C607 H597 0.930 . S
C607 C600 1.409 . S
C607 C606 1.362 . S
H608 C614 0.930 . S
H609 C617 0.930 . S
H610 C618 0.930 . S
H611 C619 0.930 . S
H612 C622 0.930 1_655 S
H613 C623 0.930 . S
C614 H608 0.930 . S
C614 C615 1.360 . S
C614 C616 1.415 1_655 S
C615 C614 1.360 . S
C615 C617 1.407 1_655 S
C616 C614 1.415 1_455 S
C616 C621 1.425 . S
C616 C623 1.409 1_455 S
C617 H609 0.930 . S
C617 C615 1.407 1_455 S
C617 C618 1.362 . S
C618 H610 0.930 . S
C618 C617 1.362 . S
C618 C621 1.409 . S
C619 H611 0.930 . S
C619 C620 1.355 . S
C619 C621 1.415 . S
C620 C619 1.355 . S
C620 C622 1.419 . S
C621 C616 1.425 . S
C621 C618 1.409 . S
C621 C619 1.415 . S
C622 H612 0.930 1_455 S
C622 C620 1.419 . S
C622 C623 1.362 1_455 S
C623 H613 0.930 . S
C623 C616 1.409 1_655 S
C623 C622 1.362 1_655 S
H624 C630 0.930 . S
H625 C633 0.930 . S
H626 C634 0.930 . S
H627 C635 0.930 1_565 S
H628 C638 0.930 . S
H629 C639 0.930 . S
C630 H624 0.930 . S
C630 C631 1.355 1_545 S
C630 C632 1.415 . S
C631 C630 1.355 1_565 S
C631 C633 1.419 . S
C632 C630 1.415 . S
C632 C637 1.425 . S
C632 C639 1.409 . S
C633 H625 0.930 . S
C633 C631 1.419 . S
C633 C634 1.362 . S
C634 H626 0.930 . S
C634 C633 1.362 . S
C634 C637 1.409 1_565 S
C635 H627 0.930 1_545 S
C635 C636 1.355 . S
C635 C637 1.415 . S
C636 C635 1.355 . S
C636 C638 1.419 . S
C637 C632 1.425 . S
C637 C634 1.409 1_545 S
C637 C635 1.415 . S
C638 H628 0.930 . S
C638 C636 1.419 . S
C638 C639 1.362 . S
C639 H629 0.930 . S
C639 C632 1.409 . S
C639 C638 1.362 . S
H640 C646 0.930 . S
H641 C649 0.930 . S
H642 C650 0.930 . S
H643 C651 0.930 . S
H644 C654 0.923 1_554 S
H645 C655 0.930 . S
C646 H640 0.930 . S
C646 C647 1.355 1_554 S
C646 C648 1.415 1_554 S
C647 C646 1.355 1_556 S
C647 C649 1.419 . S
C648 C646 1.415 1_556 S
C648 C653 1.425 . S
C648 C655 1.409 1_556 S
C649 H641 0.930 . S
C649 C647 1.419 . S
C649 C650 1.362 . S
C650 H642 0.930 . S
C650 C649 1.362 . S
C650 C653 1.409 . S
C651 H643 0.930 . S
C651 C652 1.355 . S
C651 C653 1.415 . S
C652 C651 1.355 . S
C652 C654 1.430 . S
C653 C648 1.425 . S
C653 C650 1.409 . S
C653 C651 1.415 . S
C654 H644 0.923 1_556 S
C654 C652 1.430 . S
C654 C655 1.358 1_556 S
C655 H645 0.930 . S
C655 C648 1.409 1_554 S
C655 C654 1.358 1_554 S
H656 C662 0.930 . S
H657 C665 0.930 . S
H658 C666 0.930 . S
H659 C667 0.930 . S
H660 C670 0.930 . S
H661 C671 0.930 . S
C662 H656 0.930 . S
C662 C663 1.355 . S
C662 C664 1.415 . S
C663 C662 1.355 . S
C663 C665 1.419 . S
C664 C662 1.415 . S
C664 C669 1.425 . S
C664 C671 1.409 . S
C665 H657 0.930 . S
C665 C663 1.419 . S
C665 C666 1.362 . S
C666 H658 0.930 . S
C666 C665 1.362 . S
C666 C669 1.409 . S
C667 H659 0.930 . S
C667 C668 1.355 . S
C667 C669 1.415 . S
C668 C667 1.355 . S
C668 C670 1.419 . S
C669 C664 1.425 . S
C669 C666 1.409 . S
C669 C667 1.415 . S
C670 H660 0.930 . S
C670 C668 1.419 . S
C670 C671 1.362 . S
C671 H661 0.930 . S
C671 C664 1.409 . S
C671 C670 1.362 . S
H672 C678 0.930 . S
H673 C681 0.930 . S
H674 C682 0.930 . S
H675 C683 0.930 . S
H676 C686 0.930 . S
H677 C687 0.930 . S
C678 H672 0.930 . S
C678 C679 1.355 1_655 S
C678 C680 1.415 . S
C679 C678 1.355 1_455 S
C679 C681 1.419 . S
C680 C678 1.415 . S
C680 C685 1.425 1_655 S
C680 C687 1.409 . S
C681 H673 0.930 . S
C681 C679 1.419 . S
C681 C682 1.362 . S
C682 H674 0.930 . S
C682 C681 1.362 . S
C682 C685 1.409 . S
C683 H675 0.930 . S
C683 C684 1.355 . S
C683 C685 1.415 . S
C684 C683 1.355 . S
C684 C686 1.419 1_455 S
C685 C680 1.425 1_455 S
C685 C682 1.409 . S
C685 C683 1.415 . S
C686 H676 0.930 . S
C686 C684 1.419 1_655 S
C686 C687 1.362 . S
C687 H677 0.930 . S
C687 C680 1.409 . S
C687 C686 1.362 . S
H688 C694 0.930 . S
H689 C697 0.930 1_554 S
H690 C698 0.930 . S
H691 C699 0.930 . S
H692 C702 0.930 . S
H693 C703 0.930 . S
C694 H688 0.930 . S
C694 C695 1.355 . S
C694 C696 1.415 . S
C695 C694 1.355 . S
C695 C697 1.419 1_545 S
C696 C694 1.415 . S
C696 C701 1.425 . S
C696 C703 1.409 . S
C697 H689 0.930 1_556 S
C697 C695 1.419 1_565 S
C697 C698 1.362 1_556 S
C698 H690 0.930 . S
C698 C697 1.362 1_554 S
C698 C701 1.409 1_564 S
C699 H691 0.930 . S
C699 C700 1.355 . S
C699 C701 1.415 . S
C700 C699 1.355 . S
C700 C702 1.419 . S
C701 C696 1.425 . S
C701 C698 1.409 1_546 S
C701 C699 1.415 . S
C702 H692 0.930 . S
C702 C700 1.419 . S
C702 C703 1.362 . S
C703 H693 0.930 . S
C703 C696 1.409 . S
C703 C702 1.362 . S
H704 C710 0.930 . S
H705 C713 0.930 . S
H706 C714 0.930 . S
H707 C715 0.930 . S
H708 C718 0.930 . S
H709 C719 0.930 . S
C710 H704 0.930 . S
C710 C711 1.355 . S
C710 C712 1.415 . S
C711 C710 1.355 . S
C711 C713 1.419 . S
C712 C710 1.415 . S
C712 C717 1.425 . S
C712 C719 1.409 1_554 S
C713 H705 0.930 . S
C713 C711 1.419 . S
C713 C714 1.362 . S
C714 H706 0.930 . S
C714 C713 1.362 . S
C714 C717 1.409 . S
C715 H707 0.930 . S
C715 C716 1.355 1_554 S
C715 C717 1.415 . S
C716 C715 1.355 1_556 S
C716 C718 1.419 . S
C717 C712 1.425 . S
C717 C714 1.409 . S
C717 C715 1.415 . S
C718 H708 0.930 . S
C718 C716 1.419 . S
C718 C719 1.362 . S
C719 H709 0.930 . S
C719 C712 1.409 1_556 S
C719 C718 1.362 . S
H720 C726 0.930 . S
H721 C729 0.930 . S
H722 C730 0.930 . S
H723 C731 0.930 . S
H724 C734 0.930 . S
H725 C735 0.930 . S
C726 H720 0.930 . S
C726 C727 1.355 . S
C726 C728 1.415 . S
C727 C726 1.355 . S
C727 C729 1.419 . S
C728 C726 1.415 . S
C728 C733 1.425 . S
C728 C735 1.409 . S
C729 H721 0.930 . S
C729 C727 1.419 . S
C729 C730 1.362 . S
C730 H722 0.930 . S
C730 C729 1.362 . S
C730 C733 1.409 . S
C731 H723 0.930 . S
C731 C732 1.355 . S
C731 C733 1.415 . S
C732 C731 1.355 . S
C732 C734 1.419 . S
C733 C728 1.425 . S
C733 C730 1.409 . S
C733 C731 1.415 . S
C734 H724 0.930 . S
C734 C732 1.419 . S
C734 C735 1.362 . S
C735 H725 0.930 . S
C735 C728 1.409 . S
C735 C734 1.362 . S
H736 C742 0.930 . S
H737 C745 0.930 . S
H738 C746 0.930 . S
H739 C747 0.930 . S
H740 C750 0.930 . S
H741 C751 0.930 . S
C742 H736 0.930 . S
C742 C743 1.355 1_455 S
C742 C744 1.415 . S
C743 C742 1.355 1_655 S
C743 C745 1.419 . S
C744 C742 1.415 . S
C744 C749 1.425 1_455 S
C744 C751 1.409 . S
C745 H737 0.930 . S
C745 C743 1.419 . S
C745 C746 1.362 . S
C746 H738 0.930 . S
C746 C745 1.362 . S
C746 C749 1.409 . S
C747 H739 0.930 . S
C747 C748 1.355 . S
C747 C749 1.415 . S
C748 C747 1.355 . S
C748 C750 1.419 1_655 S
C749 C744 1.425 1_655 S
C749 C746 1.409 . S
C749 C747 1.415 . S
C750 H740 0.930 . S
C750 C748 1.419 1_455 S
C750 C751 1.362 . S
C751 H741 0.930 . S
C751 C744 1.409 . S
C751 C750 1.362 . S
H752 C758 0.930 . S
H753 C761 0.930 . S
H754 C762 0.930 . S
H755 C763 0.930 . S
H756 C766 0.930 . S
H757 C767 0.930 . S
C758 H752 0.930 . S
C758 C759 1.339 1_565 S
C758 C760 1.415 . S
C759 C758 1.339 1_545 S
C759 C761 1.435 . S
C760 C758 1.415 . S
C760 C765 1.425 1_565 S
C760 C767 1.409 . S
C761 H753 0.930 . S
C761 C759 1.435 . S
C761 C762 1.362 . S
C762 H754 0.930 . S
C762 C761 1.362 . S
C762 C765 1.409 . S
C763 H755 0.930 . S
C763 C764 1.355 1_545 S
C763 C765 1.415 . S
C764 C763 1.355 1_565 S
C764 C766 1.419 . S
C765 C760 1.425 1_545 S
C765 C762 1.409 . S
C765 C763 1.415 . S
C766 H756 0.930 . S
C766 C764 1.419 . S
C766 C767 1.362 . S
C767 H757 0.930 . S
C767 C760 1.409 . S
C767 C766 1.362 . S
H768 C774 0.930 . S
H769 C777 0.930 . S
H770 C778 0.930 . S
H771 C779 0.930 . S
H772 C782 0.930 . S
H773 C783 0.930 . S
C774 H768 0.930 . S
C774 C775 1.355 . S
C774 C776 1.415 . S
C775 C774 1.355 . S
C775 C777 1.419 . S
C776 C774 1.415 . S
C776 C781 1.425 . S
C776 C783 1.409 . S
C777 H769 0.930 . S
C777 C775 1.419 . S
C777 C778 1.362 . S
C778 H770 0.930 . S
C778 C777 1.362 . S
C778 C781 1.409 . S
C779 H771 0.930 . S
C779 C780 1.355 . S
C779 C781 1.415 . S
C780 C779 1.355 . S
C780 C782 1.419 . S
C781 C776 1.425 . S
C781 C778 1.409 . S
C781 C779 1.415 . S
C782 H772 0.930 . S
C782 C780 1.419 . S
C782 C783 1.362 . S
C783 H773 0.930 . S
C783 C776 1.409 . S
C783 C782 1.362 . S
H784 C790 0.930 . S
H785 C793 0.930 . S
H786 C794 0.930 . S
H787 C795 0.930 . S
H788 C798 0.930 . S
H789 C799 0.930 . S
C790 H784 0.930 . S
C790 C791 1.355 . S
C790 C792 1.415 . S
C791 C790 1.355 . S
C791 C793 1.419 . S
C792 C790 1.415 . S
C792 C797 1.425 . S
C792 C799 1.409 . S
C793 H785 0.930 . S
C793 C791 1.419 . S
C793 C794 1.362 . S
C794 H786 0.930 . S
C794 C793 1.362 . S
C794 C797 1.409 . S
C795 H787 0.930 . S
C795 C796 1.355 . S
C795 C797 1.415 . S
C796 C795 1.355 . S
C796 C798 1.419 . S
C797 C792 1.425 . S
C797 C794 1.409 . S
C797 C795 1.415 . S
C798 H788 0.930 . S
C798 C796 1.419 . S
C798 C799 1.362 . S
C799 H789 0.930 . S
C799 C792 1.409 . S
C799 C798 1.362 . S
C423 C215 2.040 . S
C428 C258 2.167 1_545 S
C444 C298 2.101 . S
C439 C247 2.071 . S
C460 C362 2.421 . S
C455 C151 2.389 . S
C476 C378 2.173 1_455 S
C471 C183 1.958 1_655 S
C492 C279 2.174 1_565 S
C487 C87 2.039 . S
C503 C119 1.952 . S
C508 C319 2.105 . S
C519 C23 2.250 . S
C524 C353 2.380 . S
C535 C55 1.886 1_655 S
C540 C399 2.134 1_655 S
C556 C273 0.419 . S
C551 C189 0.371 . S
C572 C313 0.775 . S
C567 C221 0.681 . S
C588 C349 0.753 . S
C583 C253 0.659 . S
C599 C157 0.818 . S
C604 C393 0.729 . S
C615 C61 0.412 1_655 S
C620 C282 0.373 . S
C636 C322 0.771 . S
C631 C93 0.790 1_565 S
C652 C360 0.766 . S
C647 C125 0.790 . S
C663 C29 0.871 . S
C668 C402 0.875 . S
C679 C177 2.332 . S
C684 C280 2.663 . S
C695 C209 2.273 . S
C700 C320 2.563 . S
C716 C338 1.873 . S
C711 C241 1.889 . S
C732 C400 3.099 . S
C727 C145 2.782 . S
C743 C49 2.391 1_655 S
C748 C269 2.673 . S
C764 C309 2.580 . S
C759 C81 2.314 . S
C780 C359 1.904 . S
C775 C113 1.820 . S
C791 C17 2.740 . S
C796 C389 3.085 . S
