# Generated by pormake.
# Topology zzz, (3,6)-cn, num edge types: 1
# Building blocks:
#     Node 0, Type 0, BuildingBlock: ESEHIV_clean_linker_0, # of connection points: 3
#     Node 1, Type 0, BuildingBlock: ESEHIV_clean_linker_0, # of connection points: 3
#     Node 2, Type 0, BuildingBlock: ESEHIV_clean_linker_0, # of connection points: 3
#     Node 3, Type 0, BuildingBlock: ESEHIV_clean_linker_0, # of connection points: 3
#     Node 4, Type 0, BuildingBlock: ESEHIV_clean_linker_0, # of connection points: 3
#     Node 5, Type 0, BuildingBlock: ESEHIV_clean_linker_0, # of connection points: 3
#     Node 6, Type 0, BuildingBlock: ESEHIV_clean_linker_0, # of connection points: 3
#     Node 7, Type 0, BuildingBlock: ESEHIV_clean_linker_0, # of connection points: 3
#     Node 8, Type 1, BuildingBlock: JUFBIX_clean_sbu_0, # of connection points: 6
#     Node 9, Type 1, BuildingBlock: JUFBIX_clean_sbu_0, # of connection points: 6
#     Node 10, Type 1, BuildingBlock: JUFBIX_clean_sbu_0, # of connection points: 6
#     Node 11, Type 1, BuildingBlock: JUFBIX_clean_sbu_0, # of connection points: 6
#     Edge 12, Type (0, 1), BuildingBlock: AJUNOK_clean_linker_0, # of connection points: 2
#     Edge 13, Type (0, 1), BuildingBlock: AJUNOK_clean_linker_0, # of connection points: 2
#     Edge 14, Type (0, 1), BuildingBlock: AJUNOK_clean_linker_0, # of connection points: 2
#     Edge 15, Type (0, 1), BuildingBlock: AJUNOK_clean_linker_0, # of connection points: 2
#     Edge 16, Type (0, 1), BuildingBlock: AJUNOK_clean_linker_0, # of connection points: 2
#     Edge 17, Type (0, 1), BuildingBlock: AJUNOK_clean_linker_0, # of connection points: 2
#     Edge 18, Type (0, 1), BuildingBlock: AJUNOK_clean_linker_0, # of connection points: 2
#     Edge 19, Type (0, 1), BuildingBlock: AJUNOK_clean_linker_0, # of connection points: 2
#     Edge 20, Type (0, 1), BuildingBlock: AJUNOK_clean_linker_0, # of connection points: 2
#     Edge 21, Type (0, 1), BuildingBlock: AJUNOK_clean_linker_0, # of connection points: 2
#     Edge 22, Type (0, 1), BuildingBlock: AJUNOK_clean_linker_0, # of connection points: 2
#     Edge 23, Type (0, 1), BuildingBlock: AJUNOK_clean_linker_0, # of connection points: 2
#     Edge 24, Type (0, 1), BuildingBlock: AJUNOK_clean_linker_0, # of connection points: 2
#     Edge 25, Type (0, 1), BuildingBlock: AJUNOK_clean_linker_0, # of connection points: 2
#     Edge 26, Type (0, 1), BuildingBlock: AJUNOK_clean_linker_0, # of connection points: 2
#     Edge 27, Type (0, 1), BuildingBlock: AJUNOK_clean_linker_0, # of connection points: 2
#     Edge 28, Type (0, 1), BuildingBlock: AJUNOK_clean_linker_0, # of connection points: 2
#     Edge 29, Type (0, 1), BuildingBlock: AJUNOK_clean_linker_0, # of connection points: 2
#     Edge 30, Type (0, 1), BuildingBlock: AJUNOK_clean_linker_0, # of connection points: 2
#     Edge 31, Type (0, 1), BuildingBlock: AJUNOK_clean_linker_0, # of connection points: 2
#     Edge 32, Type (0, 1), BuildingBlock: AJUNOK_clean_linker_0, # of connection points: 2
#     Edge 33, Type (0, 1), BuildingBlock: AJUNOK_clean_linker_0, # of connection points: 2
#     Edge 34, Type (0, 1), BuildingBlock: AJUNOK_clean_linker_0, # of connection points: 2
#     Edge 35, Type (0, 1), BuildingBlock: AJUNOK_clean_linker_0, # of connection points: 2
# Relax obj value: 0.268
# Max RMSD: 0.230
# Mean RMSD: 0.186
data_MOF--net-zzz--node1-JUFBIX_clean_sbu_0--node2-ESEHIV_clean_linker_0--edge1-AJUNOK_clean_linker_0
_symmetry_space_group_name_H-M    P1
_symmetry_Int_Tables_number       1
_symmetry_cell_setting            triclinic
loop_
_symmetry_equiv_pos_as_xyz
'x, y, z'
_cell_length_a     32.654738
_cell_length_b     32.523255
_cell_length_c     13.18498
_cell_angle_alpha  78.505847
_cell_angle_beta   90.795325
_cell_angle_gamma 93.809195
loop_
_atom_site_label
_atom_site_type_symbol
_atom_site_fract_x
_atom_site_fract_y
_atom_site_fract_z
_atom_type_partial_charge
H0 H 0.91401 0.46211 0.40477 0.0
H1 H 0.83924 0.46794 0.13302 0.0
H2 H 0.7972 0.51677 0.39086 0.0
C3 C 0.88526 0.46901 0.36481 0.0
C4 C 0.85617 0.48912 0.41082 0.0
C5 C 0.8801 0.46188 0.26439 0.0
C6 C 0.8432 0.47182 0.21242 0.0
C7 C 0.81258 0.49045 0.25817 0.0
C8 C 0.81949 0.50021 0.35721 0.0
H9 H 0.07804 0.83235 0.39674 0.0
H10 H 0.0639 0.77253 0.13619 0.0
H11 H 1.01471 0.70968 0.43119 0.0
C12 C 0.06785 0.80515 0.3649 0.0
C13 C 0.04512 0.77147 0.42686 0.0
C14 C 0.07203 0.80731 0.25883 0.0
C15 C 0.06056 0.77166 0.21834 0.0
C16 C 0.04192 0.73558 0.28106 0.0
C17 C 0.03243 0.73596 0.38491 0.0
H18 H 0.718 0.03522 0.22752 0.0
H19 H 0.80887 0.04398 0.99187 0.0
H20 H 0.83699 0.99 0.30983 0.0
C21 C 0.7495 0.03248 0.20578 0.0
C22 C 0.77636 0.01348 0.28139 0.0
C23 C 0.76063 0.04331 0.10178 0.0
C24 C 0.80038 0.03651 0.07302 0.0
C25 C 0.82853 0.01799 0.14738 0.0
C26 C 0.81632 1.00599 0.25249 0.0
H27 H 0.53918 0.6492 0.29613 0.0
H28 H 0.54358 0.77806 0.32918 0.0
H29 H 0.53405 0.74583 0.02518 0.0
C30 C 0.53921 0.68243 0.26119 0.0
C31 C 0.53608 0.69436 0.15448 0.0
C32 C 0.54314 0.7121 0.32408 0.0
C33 C 0.54202 0.75525 0.27942 0.0
C34 C 0.53823 0.76824 0.17023 0.0
C35 C 0.53548 0.73704 0.1088 0.0
H36 H 0.17033 0.56437 0.20332 0.0
H37 H 0.24001 0.54879 0.48452 0.0
H38 H 0.28529 0.50574 0.22103 0.0
C39 C 0.1978 0.55468 0.2461 0.0
C40 C 0.22678 0.53445 0.19998 0.0
C41 C 0.20102 0.55779 0.34987 0.0
C42 C 0.23709 0.54634 0.40386 0.0
C43 C 0.26854 0.52917 0.35718 0.0
C44 C 0.26277 0.5218 0.25537 0.0
H45 H 1.00648 0.17445 0.26576 0.0
H46 H 0.97406 0.25804 0.46131 0.0
H47 H 0.05859 0.30098 0.20899 0.0
C48 C 1.0061 0.20578 0.28203 0.0
C49 C 0.03039 0.23812 0.22046 0.0
C50 C 0.98703 0.21197 0.37173 0.0
C51 C 0.98877 0.25279 0.39217 0.0
C52 C 1.01548 0.28478 0.33653 0.0
C53 C 0.03651 0.27733 0.24994 0.0
H54 H 0.36555 0.98998 0.38718 0.0
H55 H 0.27355 0.97762 0.62172 0.0
H56 H 0.24467 0.02967 0.30308 0.0
C57 C 0.33386 0.9919 0.40887 0.0
C58 C 0.30627 0.00888 0.33259 0.0
C59 C 0.32284 0.98136 0.51287 0.0
C60 C 0.28236 0.98573 0.54084 0.0
C61 C 0.25378 1.00308 0.46618 0.0
C62 C 0.26587 0.01502 0.36095 0.0
H63 H 0.54564 0.37411 0.31328 0.0
H64 H 0.54051 0.24492 0.28283 0.0
H65 H 0.55037 0.27812 0.58569 0.0
C66 C 0.54539 0.34093 0.34884 0.0
C67 C 0.54838 0.3293 0.45566 0.0
C68 C 0.54126 0.31104 0.28658 0.0
C69 C 0.54223 0.26794 0.33201 0.0
C70 C 0.54613 0.25527 0.44129 0.0
C71 C 0.54893 0.2867 0.50203 0.0
Co72 Co 0.05739 0.03368 0.8492 0.0
C73 C 0.98024 1.0054 0.93207 0.0
Co74 Co 0.02637 0.98587 0.77116 0.0
C75 C 0.06533 0.10808 0.93806 0.0
C76 C 0.12372 0.0846 0.91869 0.0
N77 N 0.08314 0.07678 0.90526 0.0
N78 N 0.09305 0.13503 0.97197 0.0
C79 C 0.12992 0.1204 0.95934 0.0
H80 H 0.03245 0.11062 0.93871 0.0
H81 H 0.14735 0.06556 0.89998 0.0
C82 C 0.10316 0.01387 0.68729 0.0
N83 N 1.00101 0.94244 0.71467 0.0
C84 C 1.0159 0.90471 0.71375 0.0
C85 C 0.96534 0.94194 0.66262 0.0
N86 N 0.9913 0.88042 0.66251 0.0
C87 C 0.95954 0.90439 0.62951 0.0
C88 C 1.00786 0.06553 0.68146 0.0
O89 O 0.10282 0.03634 0.7561 0.0
O90 O 0.0722 0.98871 0.68015 0.0
O91 O 1.00089 0.02759 0.67143 0.0
O92 O 0.03188 0.07353 0.75241 0.0
O93 O 0.98067 0.98327 0.86252 0.0
H94 H 0.94546 0.96777 0.64645 0.0
H95 H 0.0451 0.89595 0.74786 0.0
O96 O 1.01138 0.03022 0.94078 0.0
O97 O 0.08254 0.9936 0.94777 0.0
O98 O 0.05193 0.94566 0.87193 0.0
C99 C 0.07527 0.95535 0.94245 0.0
H100 H 0.15934 0.13457 0.97737 0.0
H101 H 0.93484 0.89715 0.57943 0.0
Co102 Co 0.5272 0.02526 0.86793 0.0
C103 C 0.54165 0.94022 0.92993 0.0
Co104 Co 0.55763 0.99891 0.7469 0.0
C105 C 0.45602 0.0282 0.99184 0.0
C106 C 0.50006 0.07815 0.00692 0.0
N107 N 0.49412 0.04467 0.96152 0.0
N108 N 0.43744 0.04997 0.05363 0.0
C109 C 0.46554 0.0814 0.06356 0.0
H110 H 0.44196 1.00132 0.96555 0.0
H111 H 0.52743 0.09918 0.99833 0.0
C112 C 0.54316 0.08388 0.68477 0.0
N113 N 0.59024 0.97872 0.65345 0.0
C114 C 0.62973 0.99143 0.62705 0.0
C115 C 0.58093 0.94752 0.6018 0.0
N116 N 0.64573 0.96926 0.56218 0.0
C117 C 0.61461 0.94194 0.5451 0.0
C118 C 0.47574 0.99021 0.72766 0.0
O119 O 0.528 0.07884 0.7753 0.0
O120 O 0.55811 0.05296 0.65554 0.0
O121 O 0.50794 0.98197 0.68437 0.0
O122 O 0.4793 1.00804 0.80443 0.0
O123 O 0.55642 0.94525 0.83908 0.0
H124 H 0.5515 0.92999 0.60469 0.0
H125 H 0.64664 0.01656 0.65536 0.0
O126 O 0.52713 0.97123 0.95962 0.0
O127 O 0.57618 0.04273 0.92949 0.0
O128 O 0.60602 0.01613 0.81137 0.0
C129 C 0.60873 0.03499 0.88689 0.0
H130 H 0.46181 0.10509 0.10923 0.0
H131 H 0.61526 0.92031 0.4927 0.0
Co132 Co 0.57598 0.51368 0.81398 0.0
C133 C 0.53601 0.44223 0.93751 0.0
Co134 Co 0.50821 0.50953 0.79703 0.0
C135 C 0.6483 0.51034 0.94298 0.0
C136 C 0.66371 0.53375 0.78375 0.0
N137 N 0.63178 0.51831 0.84668 0.0
N138 N 0.68902 0.52082 0.94291 0.0
C139 C 0.69889 0.5353 0.84258 0.0
H140 H 0.63052 0.49826 0.01248 0.0
H141 H 0.66144 0.54396 0.70073 0.0
C142 C 0.5481 0.58091 0.67343 0.0
N143 N 0.45238 0.50523 0.76432 0.0
C144 C 0.43599 0.51116 0.66784 0.0
C145 C 0.42001 0.49404 0.82828 0.0
N146 N 0.39469 0.50402 0.66869 0.0
C147 C 0.38464 0.4932 0.76994 0.0
C148 C 0.53122 0.55582 0.93859 0.0
O149 O 0.581 0.56538 0.71231 0.0
O150 O 0.51405 0.56028 0.69737 0.0
O151 O 0.49879 0.54214 0.89813 0.0
O152 O 0.56583 0.54528 0.91389 0.0
O153 O 0.50307 0.45787 0.89899 0.0
H154 H 0.42203 0.4866 0.91182 0.0
H155 H 0.45434 0.51953 0.59823 0.0
O156 O 0.57009 0.46279 0.91332 0.0
O157 O 0.58554 0.48131 0.71279 0.0
O158 O 0.51843 0.47775 0.69729 0.0
C159 C 0.55316 0.46751 0.67238 0.0
H160 H 0.72941 0.54596 0.8136 0.0
H161 H 0.3538 0.48548 0.79998 0.0
Co162 Co 0.03683 0.54338 0.8201 0.0
C163 C 0.1106 0.50943 0.89781 0.0
Co164 Co 0.04448 0.47926 0.79327 0.0
C165 C 0.03335 0.59867 0.96332 0.0
C166 C 1.01154 0.62756 0.81387 0.0
N167 N 0.02795 0.59245 0.86553 0.0
N168 N 1.02086 0.63614 0.97511 0.0
C169 C 1.00707 0.65446 0.88115 0.0
H170 H 0.04506 0.57546 0.02555 0.0
H171 H 1.0027 0.6329 0.73316 0.0
C172 C 0.97078 0.5135 0.71584 0.0
N173 N 0.05264 0.43029 0.74606 0.0
C174 C 0.04161 0.42318 0.65148 0.0
C175 C 0.07238 0.3962 0.79094 0.0
N176 N 0.05351 0.38613 0.63534 0.0
C177 C 0.07306 0.36903 0.72281 0.0
C178 C 1.00607 0.47287 0.97096 0.0
O179 O 0.98463 0.54567 0.74979 0.0
O180 O 0.99214 0.48165 0.72733 0.0
O181 O 1.01903 0.44889 0.9152 0.0
O182 O 1.01113 0.51251 0.94166 0.0
O183 O 0.09722 0.4774 0.86218 0.0
H184 H 0.08575 0.39162 0.86757 0.0
H185 H 0.02592 0.44533 0.59434 0.0
O186 O 0.08875 0.54093 0.88805 0.0
O187 O 0.063 0.57366 0.69831 0.0
O188 O 0.06941 0.50989 0.67126 0.0
C189 C 0.07489 0.54945 0.64174 0.0
H190 H 0.99489 0.68522 0.8623 0.0
H191 H 0.08639 0.3388 0.73693 0.0
C192 C 0.17822 0.98502 0.49587 0.0
C193 C 0.21317 0.01181 0.50407 0.0
C194 C 0.14223 0.98694 0.55222 0.0
C195 C 0.13994 0.01555 0.61952 0.0
H196 H 0.17941 0.96102 0.44978 0.0
H197 H 0.11661 0.96467 0.54594 0.0
S198 S 0.22268 0.09477 0.66073 0.0
N199 N 0.24273 0.06932 0.57889 0.0
N200 N 0.17561 0.07341 0.68392 0.0
C201 C 0.17428 0.04385 0.62398 0.0
C202 C 0.21071 0.04182 0.56666 0.0
C203 C 0.57348 0.19894 0.58061 0.0
C204 C 0.54711 0.20995 0.4949 0.0
C205 C 0.57219 0.15805 0.64071 0.0
C206 C 0.54523 0.12602 0.61644 0.0
H207 H 0.59506 0.22236 0.60273 0.0
H208 H 0.59237 0.15147 0.70712 0.0
S209 S 0.47051 0.13648 0.40036 0.0
N210 N 0.49305 0.18417 0.38979 0.0
N211 N 0.49232 0.10693 0.5004 0.0
C212 C 0.51973 0.13569 0.52949 0.0
C213 C 0.52037 0.17765 0.46908 0.0
C214 C 0.30046 0.48515 0.51105 0.0
C215 C 0.30526 0.51687 0.42156 0.0
C216 C 0.33054 0.48009 0.589 0.0
C217 C 0.36668 0.50674 0.5814 0.0
H218 H 0.27217 0.46545 0.5233 0.0
H219 H 0.32485 0.45584 0.65738 0.0
S220 S 0.39454 0.59397 0.36025 0.0
N221 N 0.34942 0.57434 0.3276 0.0
N222 N 0.40596 0.56528 0.47391 0.0
C223 C 0.37271 0.53741 0.48979 0.0
C224 C 0.34199 0.5424 0.41013 0.0
C225 C 0.06734 0.32269 0.43034 0.0
C226 C 0.02778 0.32058 0.38716 0.0
C227 C 0.07607 0.34568 0.50852 0.0
C228 C 0.04574 0.36776 0.54534 0.0
H229 H 0.09073 0.3037 0.40972 0.0
H230 H 0.10629 0.34483 0.54345 0.0
S231 S 0.93837 0.3748 0.45141 0.0
N232 N 0.95898 0.34474 0.38142 0.0
N233 N 0.97532 0.3882 0.52766 0.0
C234 C 1.00695 0.36835 0.49743 0.0
C235 C 0.99802 0.34472 0.41843 0.0
C236 C 0.90457 0.03394 0.12245 0.0
C237 C 0.86901 1.00865 0.10979 0.0
C238 C 0.94095 0.03151 0.06809 0.0
C239 C 0.94302 1.00392 0.99823 0.0
H240 H 0.90361 0.05728 0.1704 0.0
H241 H 0.96709 0.05266 0.07794 0.0
S242 S 0.85851 0.92876 0.94455 0.0
N243 N 0.83853 0.95359 0.02778 0.0
N244 N 0.90629 0.94865 0.92604 0.0
C245 C 0.90796 0.97709 0.98905 0.0
C246 C 0.87115 0.97962 0.04447 0.0
C247 C 0.51122 0.82499 0.0314 0.0
C248 C 0.53732 0.8137 0.11752 0.0
C249 C 0.51261 0.86604 0.97217 0.0
C250 C 0.53934 0.89797 0.99781 0.0
H251 H 0.4898 0.8017 0.00823 0.0
H252 H 0.49268 0.87282 0.90533 0.0
S253 S 0.61322 0.88682 0.21581 0.0
N254 N 0.59086 0.83914 0.22467 0.0
N255 N 0.59167 0.91667 0.11582 0.0
C256 C 0.5645 0.88803 0.08534 0.0
C257 C 0.56381 0.8459 0.1448 0.0
C258 C 0.74341 0.47276 0.18806 0.0
C259 C 0.77592 0.50282 0.19423 0.0
C260 C 0.71385 0.4797 0.10865 0.0
C261 C 0.7164 0.5165 0.03114 0.0
H262 H 0.74206 0.44279 0.24178 0.0
H263 H 0.69021 0.45512 0.10443 0.0
S264 S 0.79372 0.60627 0.01807 0.0
N265 N 0.80736 0.57173 0.12051 0.0
N266 N 0.75217 0.5848 0.97136 0.0
C267 C 0.7477 0.54754 0.03953 0.0
C268 C 0.77739 0.54066 0.12095 0.0
C269 C 0.99511 0.70102 0.16895 0.0
C270 C 0.03066 0.69979 0.2305 0.0
C271 C 0.99111 0.67832 0.08884 0.0
C272 C 0.02255 0.65367 0.06752 0.0
H273 H 0.97177 0.72229 0.17739 0.0
H274 H 0.9641 0.6816 0.04009 0.0
S275 S 0.12096 0.63914 0.20964 0.0
N276 N 0.09685 0.67081 0.2684 0.0
N277 N 0.08956 0.62805 0.11816 0.0
C278 C 0.05706 0.65012 0.13305 0.0
C279 C 0.06104 0.67325 0.21447 0.0
C280 C 0.99318 0.17771 0.55686 0.0
C281 C 0.97817 0.17505 0.45756 0.0
C282 C 0.99919 0.14181 0.63113 0.0
C283 C 0.99126 0.10143 0.60946 0.0
H284 H 1.00427 0.20742 0.57552 0.0
H285 H 1.01309 0.14611 0.70374 0.0
S286 S 0.94034 0.07682 0.3737 0.0
N287 N 0.94616 0.1287 0.35078 0.0
N288 N 0.95967 0.06054 0.49012 0.0
C289 C 0.97157 0.09796 0.51583 0.0
C290 C 0.96456 0.13493 0.44004 0.0
C291 C 0.38863 0.94951 0.5739 0.0
C292 C 0.35642 0.97436 0.58986 0.0
C293 C 0.42699 0.95366 0.62109 0.0
C294 C 0.43413 0.98217 0.68745 0.0
H295 H 0.38503 0.92893 0.51863 0.0
H296 H 0.45154 0.93555 0.60263 0.0
S297 S 0.35822 0.0506 0.76521 0.0
N298 N 0.33318 0.02567 0.68363 0.0
N299 N 0.40444 0.03266 0.77483 0.0
C300 C 0.40103 1.00449 0.71103 0.0
C301 C 0.36226 1.00059 0.6621 0.0
C302 C 0.58275 0.37097 0.57721 0.0
C303 C 0.54873 0.36294 0.51602 0.0
C304 C 0.58534 0.40642 0.62348 0.0
C305 C 0.55396 0.43474 0.60969 0.0
H306 H 0.60768 0.35014 0.58786 0.0
H307 H 0.61147 0.41103 0.67245 0.0
S308 S 0.45886 0.42751 0.45455 0.0
N309 N 0.48318 0.38567 0.44409 0.0
N310 N 0.48841 0.45262 0.528 0.0
C311 C 0.52008 0.42703 0.54746 0.0
C312 C 0.51731 0.39098 0.50168 0.0
C313 C 0.16772 0.59026 0.48295 0.0
C314 C 0.1642 0.5655 0.40649 0.0
C315 C 0.13566 0.58989 0.55299 0.0
C316 C 0.09928 0.56483 0.54792 0.0
H317 H 0.19638 0.60778 0.49299 0.0
H318 H 0.14097 0.60584 0.61716 0.0
S319 S 0.07165 0.4998 0.3536 0.0
N320 N 0.11911 0.51864 0.32452 0.0
N321 N 0.05871 0.52009 0.45276 0.0
C322 C 0.09357 0.54394 0.46514 0.0
C323 C 0.12617 0.54354 0.39533 0.0
C324 C 0.10349 0.85119 0.09683 0.0
C325 C 0.08064 0.84855 0.1881 0.0
C326 C 0.10434 0.88739 0.0186 0.0
C327 C 0.08379 0.9225 0.03131 0.0
H328 H 0.11895 0.82432 0.08335 0.0
H329 H 0.11959 0.88729 0.94619 0.0
S330 S 1.02035 0.93299 0.25388 0.0
N331 N 0.03647 0.88508 0.28435 0.0
N332 N 0.04139 0.95383 0.14079 0.0
C333 C 0.06325 0.92159 0.12417 0.0
C334 C 0.06092 0.88442 0.20203 0.0
C335 C 0.72104 0.02617 0.95241 0.0
C336 C 0.72737 0.05232 0.02476 0.0
C337 C 0.68302 0.02263 0.90405 0.0
C338 C 0.64984 0.04479 0.92708 0.0
H339 H 0.74432 1.00549 0.93976 0.0
H340 H 0.67896 1.00016 0.85352 0.0
S341 S 0.65372 0.12464 0.09262 0.0
N342 N 0.7 0.10654 0.10263 0.0
N343 N 0.62784 0.09898 0.01345 0.0
C344 C 0.65695 0.07413 0.99131 0.0
C345 C 0.69598 0.07826 0.0393 0.0
C346 C 0.50114 0.65192 0.03543 0.0
C347 C 0.53577 0.66093 0.09354 0.0
C348 C 0.49862 0.61635 0.98956 0.0
C349 C 0.53067 0.58884 1.00077 0.0
H350 H 0.47565 0.67203 0.02703 0.0
H351 H 0.47193 0.61098 0.94306 0.0
S352 S 0.62758 0.59883 0.14772 0.0
N353 N 0.60255 0.63999 0.16013 0.0
N354 N 0.59764 0.57286 0.07688 0.0
C355 C 0.56522 0.59755 0.05998 0.0
C356 C 0.56787 0.63374 0.10534 0.0
C357 C 0.95363 0.4769 0.21565 0.0
C358 C 0.91639 0.4533 0.20715 0.0
C359 C 0.98533 0.47859 0.14516 0.0
C360 C 0.98102 0.45692 0.0634 0.0
H361 H 0.95716 0.49743 0.271 0.0
H362 H 1.01185 0.50014 0.14895 0.0
S363 S 0.89393 0.38361 0.01967 0.0
N364 N 0.88017 0.40185 0.12165 0.0
N365 N 0.93996 0.40608 0.9864 0.0
C366 C 0.94623 0.42944 0.06057 0.0
C367 C 0.91372 0.42756 0.13294 0.0
C368 C 0.03439 0.21963 0.04775 0.0
C369 C 0.05456 0.22598 0.13865 0.0
C370 C 0.04896 0.19212 0.98908 0.0
C371 C 0.08392 0.1696 0.02002 0.0
H372 H 1.00527 0.23319 0.02685 0.0
H373 H 0.03135 0.18652 0.92242 0.0
S374 S 0.14917 0.17807 0.24884 0.0
N375 N 0.11271 0.21054 0.25277 0.0
N376 N 0.1399 0.1582 0.14428 0.0
C377 C 0.10609 0.1783 0.10658 0.0
C378 C 0.09141 0.20667 0.16549 0.0
C379 C 0.34279 0.06403 0.20256 0.0
C380 C 0.3243 0.02304 0.22778 0.0
C381 C 0.37809 0.07313 0.13992 0.0
C382 C 0.39684 0.04147 0.10112 0.0
H383 H 0.33257 0.08823 0.24034 0.0
H384 H 0.39204 0.10483 0.12718 0.0
S385 S 0.35553 0.92995 0.1337 0.0
N386 N 0.32316 0.95203 0.19795 0.0
N387 N 0.38997 0.96781 0.08444 0.0
C388 C 0.37589 1.00115 0.11777 0.0
C389 C 0.3394 0.99241 0.17943 0.0
C390 C 0.49977 0.34687 0.14142 0.0
C391 C 0.53678 0.32844 0.1747 0.0
C392 C 0.49911 0.38225 0.06029 0.0
C393 C 0.53553 0.40061 0.00996 0.0
H394 H 0.47197 0.3368 0.18591 0.0
H395 H 0.47043 0.39705 0.04237 0.0
S396 S 0.63902 0.35904 0.05544 0.0
N397 N 0.60938 0.32737 0.14184 0.0
N398 N 0.60857 0.39312 0.98865 0.0
C399 C 0.5719 0.37955 0.03525 0.0
C400 C 0.57235 0.3435 0.11735 0.0
C401 C 0.20528 0.55411 0.01674 0.0
C402 C 0.21333 0.5219 0.10171 0.0
C403 C 0.17398 0.54858 0.94562 0.0
C404 C 0.15002 0.51037 0.95537 0.0
H405 H 0.2199 0.58532 0.01233 0.0
H406 H 0.16652 0.57541 0.88688 0.0
S407 S 0.16262 0.41439 0.15528 0.0
N408 N 0.19766 0.44913 0.18498 0.0
N409 N 0.13976 0.43828 0.04926 0.0
C410 C 0.16082 0.47647 0.03279 0.0
C411 C 0.19241 0.4823 0.10618 0.0
C412 C 0.05496 0.7985 0.58918 0.0
C413 C 0.02814 0.78032 0.52368 0.0
C414 C 0.04199 0.82881 0.64157 0.0
C415 C 1.00126 0.84137 0.63299 0.0
H416 H 0.08746 0.79364 0.58851 0.0
H417 H 0.06532 0.84473 0.68108 0.0
S418 S 0.91566 0.78921 0.50632 0.0
N419 N 0.95712 0.76802 0.4755 0.0
N420 N 0.93166 0.82221 0.58098 0.0
C421 C 0.97262 0.81719 0.58388 0.0
C422 C 0.98625 0.78702 0.52832 0.0
C423 C 0.74181 0.02692 0.43625 0.0
C424 C 0.7576 0.99742 0.38481 0.0
C425 C 0.70673 0.01681 0.49897 0.0
C426 C 0.68605 0.97657 0.51378 0.0
H427 H 0.75379 0.05943 0.41819 0.0
H428 H 0.69404 0.04189 0.52881 0.0
S429 S 0.7212 0.88534 0.4156 0.0
N430 N 0.75398 0.92477 0.36535 0.0
N431 N 0.68942 0.90479 0.48744 0.0
C432 C 0.70464 0.94541 0.47286 0.0
C433 C 0.74022 0.95599 0.40807 0.0
C434 C 0.58446 0.67605 0.46931 0.0
C435 C 0.54748 0.69448 0.43584 0.0
C436 C 0.58506 0.64074 0.55059 0.0
C437 C 0.5486 0.62245 0.6008 0.0
H438 H 0.6123 0.68611 0.42496 0.0
H439 H 0.61373 0.62594 0.56875 0.0
S440 S 0.44516 0.66408 0.55479 0.0
N441 N 0.47485 0.69564 0.4683 0.0
N442 N 0.47555 0.62999 0.62179 0.0
C443 C 0.51224 0.64349 0.57523 0.0
C444 C 0.51185 0.67947 0.49297 0.0
C445 C 0.87649 0.46974 0.59448 0.0
C446 C 0.86934 0.50192 0.50876 0.0
C447 C 0.90735 0.47504 0.66678 0.0
C448 C 0.9317 0.51297 0.65723 0.0
H449 H 0.86155 0.43867 0.59877 0.0
H450 H 0.91419 0.4482 0.72625 0.0
S451 S 0.92134 0.60881 0.45529 0.0
N452 N 0.88617 0.57437 0.42472 0.0
N453 N 0.94329 0.58484 0.56264 0.0
C454 C 0.92176 0.54691 0.57885 0.0
C455 C 0.89063 0.54129 0.50429 0.0
loop_
_geom_bond_atom_site_label_1
_geom_bond_atom_site_label_2
_geom_bond_distance
_geom_bond_site_symmetry_2
_ccdc_geom_bond_type
H0 C3 0.931 . S
H1 C6 0.928 . S
H2 C8 0.930 . S
C3 H0 0.931 . S
C3 C4 1.413 . S
C3 C5 1.360 . S
C4 C3 1.413 . S
C4 C8 1.429 . S
C5 C3 1.360 . S
C5 C6 1.372 . S
C6 H1 0.928 . S
C6 C5 1.372 . S
C6 C7 1.404 . S
C7 C6 1.404 . S
C7 C8 1.391 . S
C8 H2 0.930 . S
C8 C4 1.429 . S
C8 C7 1.391 . S
H9 C12 0.931 . S
H10 C15 0.928 . S
H11 C17 0.930 . S
C12 H9 0.931 . S
C12 C13 1.413 . S
C12 C14 1.360 1_554 S
C13 C12 1.413 . S
C13 C17 1.429 . S
C14 C12 1.360 1_556 S
C14 C15 1.372 . S
C15 H10 0.928 . S
C15 C14 1.372 . S
C15 C16 1.404 1_556 S
C16 C15 1.404 1_554 S
C16 C17 1.391 . S
C17 H11 0.930 . S
C17 C13 1.429 . S
C17 C16 1.391 . S
H18 C21 0.931 . S
H19 C24 0.928 . S
H20 C26 0.928 . S
C21 H18 0.931 . S
C21 C22 1.413 . S
C21 C23 1.360 1_554 S
C22 C21 1.413 . S
C22 C26 1.430 1_565 S
C23 C21 1.360 1_556 S
C23 C24 1.375 . S
C24 H19 0.928 . S
C24 C23 1.375 . S
C24 C25 1.406 1_556 S
C25 C24 1.406 1_554 S
C25 C26 1.387 1_565 S
C26 H20 0.928 . S
C26 C22 1.430 1_545 S
C26 C25 1.387 1_545 S
H27 C30 0.931 . S
H28 C33 0.928 . S
H29 C35 0.930 1_556 S
C30 H27 0.931 . S
C30 C31 1.413 . S
C30 C32 1.360 . S
C31 C30 1.413 . S
C31 C35 1.429 . S
C32 C30 1.360 . S
C32 C33 1.372 . S
C33 H28 0.928 . S
C33 C32 1.372 . S
C33 C34 1.404 . S
C34 C33 1.404 . S
C34 C35 1.391 . S
C35 H29 0.930 1_554 S
C35 C31 1.429 . S
C35 C34 1.391 . S
H36 C39 0.931 . S
H37 C42 0.928 . S
H38 C44 0.930 . S
C39 H36 0.931 . S
C39 C40 1.413 . S
C39 C41 1.360 . S
C40 C39 1.413 . S
C40 C44 1.429 . S
C41 C39 1.360 . S
C41 C42 1.372 . S
C42 H37 0.928 . S
C42 C41 1.372 . S
C42 C43 1.404 . S
C43 C42 1.404 . S
C43 C44 1.391 . S
C44 H38 0.930 . S
C44 C40 1.429 . S
C44 C43 1.391 . S
H45 C48 0.931 . S
H46 C51 0.928 . S
H47 C53 0.930 . S
C48 H45 0.931 . S
C48 C49 1.413 . S
C48 C50 1.360 . S
C49 C48 1.413 . S
C49 C53 1.429 . S
C50 C48 1.360 . S
C50 C51 1.372 . S
C51 H46 0.928 . S
C51 C50 1.372 . S
C51 C52 1.404 . S
C52 C51 1.404 . S
C52 C53 1.391 . S
C53 H47 0.930 . S
C53 C49 1.429 . S
C53 C52 1.391 . S
H54 C57 0.930 . S
H55 C60 0.928 . S
H56 C62 0.930 . S
C57 H54 0.930 . S
C57 C58 1.414 . S
C57 C59 1.360 . S
C58 C57 1.414 . S
C58 C62 1.428 1_565 S
C59 C57 1.360 . S
C59 C60 1.371 . S
C60 H55 0.928 . S
C60 C59 1.371 . S
C60 C61 1.403 . S
C61 C60 1.403 . S
C61 C62 1.394 1_565 S
C62 H56 0.930 . S
C62 C58 1.428 1_545 S
C62 C61 1.394 1_545 S
H63 C66 0.931 . S
H64 C69 0.928 . S
H65 C71 0.930 . S
C66 H63 0.931 . S
C66 C67 1.413 . S
C66 C68 1.360 . S
C67 C66 1.413 . S
C67 C71 1.429 . S
C68 C66 1.360 . S
C68 C69 1.372 . S
C69 H64 0.928 . S
C69 C68 1.372 . S
C69 C70 1.404 . S
C70 C69 1.404 . S
C70 C71 1.391 . S
C71 H65 0.930 . S
C71 C67 1.429 . S
C71 C70 1.391 . S
Co72 N77 2.057 1_556 S
Co72 O89 2.021 1_545 S
Co72 O92 2.062 . S
Co72 O96 2.117 1_455 S
Co72 O97 2.020 1_545 S
C73 O93 1.259 . S
C73 O96 1.258 . S
Co74 N83 2.057 1_455 S
Co74 O90 2.117 . S
Co74 O91 2.020 1_565 S
Co74 O93 2.021 1_465 S
Co74 O98 2.062 1_455 S
C75 N77 1.316 . S
C75 N78 1.347 . S
C75 H80 0.931 . S
C76 N77 1.375 . S
C76 C79 1.350 . S
C76 H81 0.930 1_455 S
N77 Co72 2.057 1_554 S
N77 C75 1.316 . S
N77 C76 1.375 . S
N78 C75 1.347 . S
N78 C79 1.373 . S
C79 C76 1.350 . S
C79 N78 1.373 . S
C79 H100 0.931 . S
H80 C75 0.931 . S
H81 C76 0.930 1_655 S
C82 O89 1.259 . S
C82 O90 1.258 . S
N83 Co74 2.057 1_655 S
N83 C84 1.316 . S
N83 C85 1.375 1_655 S
C84 N83 1.316 . S
C84 N86 1.347 . S
C84 H95 0.931 . S
C85 N83 1.375 1_455 S
C85 C87 1.350 . S
C85 H94 0.930 . S
N86 C84 1.347 . S
N86 C87 1.373 1_655 S
C87 C85 1.350 . S
C87 N86 1.373 1_455 S
C87 H101 0.931 . S
C88 O91 1.256 . S
C88 O92 1.255 . S
O89 Co72 2.021 1_565 S
O89 C82 1.259 . S
O90 Co74 2.117 . S
O90 C82 1.258 . S
O91 Co74 2.020 1_545 S
O91 C88 1.256 . S
O92 Co72 2.062 . S
O92 C88 1.255 . S
O93 C73 1.259 . S
O93 Co74 2.021 1_645 S
H94 C85 0.930 . S
H95 C84 0.931 . S
O96 Co72 2.117 1_655 S
O96 C73 1.258 . S
O97 Co72 2.020 1_565 S
O97 C99 1.256 1_455 S
O98 Co74 2.062 1_655 S
O98 C99 1.255 . S
C99 O97 1.256 1_655 S
C99 O98 1.255 . S
H100 C79 0.931 . S
H101 C87 0.931 . S
Co102 N107 2.057 1_546 S
Co102 O119 2.021 . S
Co102 O122 2.062 1_545 S
Co102 O126 2.117 1_545 S
Co102 O127 2.020 . S
C103 O123 1.259 . S
C103 O126 1.258 . S
Co104 N113 2.057 1_565 S
Co104 O120 2.117 1_565 S
Co104 O121 2.020 . S
Co104 O123 2.021 . S
Co104 O128 2.062 1_565 S
C105 N107 1.316 1_545 S
C105 N108 1.347 . S
C105 H110 0.931 . S
C106 N107 1.375 . S
C106 C109 1.350 . S
C106 H111 0.930 . S
N107 Co102 2.057 1_564 S
N107 C105 1.316 1_565 S
N107 C106 1.375 . S
N108 C105 1.347 . S
N108 C109 1.373 1_545 S
C109 C106 1.350 . S
C109 N108 1.373 1_565 S
C109 H130 0.931 . S
H110 C105 0.931 . S
H111 C106 0.930 . S
C112 O119 1.259 . S
C112 O120 1.258 . S
N113 Co104 2.057 1_545 S
N113 C114 1.316 1_545 S
N113 C115 1.375 . S
C114 N113 1.316 1_565 S
C114 N116 1.347 . S
C114 H125 0.931 . S
C115 N113 1.375 . S
C115 C117 1.350 . S
C115 H124 0.930 . S
N116 C114 1.347 . S
N116 C117 1.373 1_565 S
C117 C115 1.350 . S
C117 N116 1.373 1_545 S
C117 H131 0.931 . S
C118 O121 1.256 . S
C118 O122 1.255 . S
O119 Co102 2.021 . S
O119 C112 1.259 . S
O120 Co104 2.117 1_545 S
O120 C112 1.258 . S
O121 Co104 2.020 . S
O121 C118 1.256 . S
O122 Co102 2.062 1_565 S
O122 C118 1.255 . S
O123 C103 1.259 . S
O123 Co104 2.021 . S
H124 C115 0.930 . S
H125 C114 0.931 . S
O126 Co102 2.117 1_565 S
O126 C103 1.258 . S
O127 Co102 2.020 . S
O127 C129 1.256 . S
O128 Co104 2.062 1_545 S
O128 C129 1.255 . S
C129 O127 1.256 . S
C129 O128 1.255 . S
H130 C109 0.931 . S
H131 C117 0.931 . S
Co132 N137 2.057 . S
Co132 O149 2.021 . S
Co132 O152 2.062 . S
Co132 O156 2.117 . S
Co132 O157 2.020 . S
C133 O153 1.259 . S
C133 O156 1.258 . S
Co134 N143 2.057 . S
Co134 O150 2.117 . S
Co134 O151 2.020 . S
Co134 O153 2.021 . S
Co134 O158 2.062 . S
C135 N137 1.316 . S
C135 N138 1.347 . S
C135 H140 0.931 . S
C136 N137 1.375 . S
C136 C139 1.350 1_556 S
C136 H141 0.930 1_556 S
N137 Co132 2.057 . S
N137 C135 1.316 . S
N137 C136 1.375 . S
N138 C135 1.347 . S
N138 C139 1.373 1_556 S
C139 C136 1.350 1_554 S
C139 N138 1.373 1_554 S
C139 H160 0.931 . S
H140 C135 0.931 . S
H141 C136 0.930 1_554 S
C142 O149 1.259 . S
C142 O150 1.258 . S
N143 Co134 2.057 . S
N143 C144 1.316 . S
N143 C145 1.375 . S
C144 N143 1.316 . S
C144 N146 1.347 . S
C144 H155 0.931 . S
C145 N143 1.375 . S
C145 C147 1.350 . S
C145 H154 0.930 . S
N146 C144 1.347 . S
N146 C147 1.373 . S
C147 C145 1.350 . S
C147 N146 1.373 . S
C147 H161 0.931 . S
C148 O151 1.256 . S
C148 O152 1.255 . S
O149 Co132 2.021 . S
O149 C142 1.259 . S
O150 Co134 2.117 . S
O150 C142 1.258 . S
O151 Co134 2.020 . S
O151 C148 1.256 . S
O152 Co132 2.062 . S
O152 C148 1.255 . S
O153 C133 1.259 . S
O153 Co134 2.021 . S
H154 C145 0.930 . S
H155 C144 0.931 . S
O156 Co132 2.117 . S
O156 C133 1.258 . S
O157 Co132 2.020 . S
O157 C159 1.256 . S
O158 Co134 2.062 . S
O158 C159 1.255 . S
C159 O157 1.256 . S
C159 O158 1.255 . S
H160 C139 0.931 . S
H161 C147 0.931 . S
Co162 N167 2.057 . S
Co162 O179 2.021 1_455 S
Co162 O182 2.062 1_455 S
Co162 O186 2.117 . S
Co162 O187 2.020 . S
C163 O183 1.259 . S
C163 O186 1.258 . S
Co164 N173 2.057 . S
Co164 O180 2.117 1_455 S
Co164 O181 2.020 1_455 S
Co164 O183 2.021 . S
Co164 O188 2.062 . S
C165 N167 1.316 1_655 S
C165 N168 1.347 . S
C165 H170 0.931 . S
C166 N167 1.375 . S
C166 C169 1.350 . S
C166 H171 0.930 . S
N167 Co162 2.057 . S
N167 C165 1.316 1_455 S
N167 C166 1.375 . S
N168 C165 1.347 . S
N168 C169 1.373 1_655 S
C169 C166 1.350 . S
C169 N168 1.373 1_455 S
C169 H190 0.931 . S
H170 C165 0.931 . S
H171 C166 0.930 . S
C172 O179 1.259 . S
C172 O180 1.258 . S
N173 Co164 2.057 . S
N173 C174 1.316 . S
N173 C175 1.375 . S
C174 N173 1.316 . S
C174 N176 1.347 . S
C174 H185 0.931 . S
C175 N173 1.375 . S
C175 C177 1.350 . S
C175 H184 0.930 1_455 S
N176 C174 1.347 . S
N176 C177 1.373 . S
C177 C175 1.350 . S
C177 N176 1.373 . S
C177 H191 0.931 . S
C178 O181 1.256 . S
C178 O182 1.255 . S
O179 Co162 2.021 1_655 S
O179 C172 1.259 . S
O180 Co164 2.117 1_655 S
O180 C172 1.258 . S
O181 Co164 2.020 1_655 S
O181 C178 1.256 . S
O182 Co162 2.062 1_655 S
O182 C178 1.255 . S
O183 C163 1.259 . S
O183 Co164 2.021 . S
H184 C175 0.930 1_655 S
H185 C174 0.931 . S
O186 Co162 2.117 . S
O186 C163 1.258 . S
O187 Co162 2.020 . S
O187 C189 1.256 . S
O188 Co164 2.062 . S
O188 C189 1.255 . S
C189 O187 1.256 . S
C189 O188 1.255 . S
H190 C169 0.931 . S
H191 C177 0.931 . S
C192 C193 1.369 . S
C192 C194 1.419 . S
C192 H196 0.930 . S
C193 C192 1.369 . S
C193 C202 1.429 1_565 S
C194 C192 1.419 . S
C194 C195 1.363 . S
C194 H197 0.929 . S
C195 C194 1.363 . S
C195 C201 1.428 1_565 S
H196 C192 0.930 . S
H197 C194 0.929 . S
S198 N199 1.613 . S
S198 N200 1.610 . S
N199 S198 1.613 . S
N199 C202 1.350 . S
N200 S198 1.610 . S
N200 C201 1.351 . S
C201 C195 1.428 1_545 S
C201 N200 1.351 . S
C201 C202 1.434 . S
C202 C193 1.429 1_545 S
C202 N199 1.350 . S
C202 C201 1.434 . S
C203 C204 1.369 . S
C203 C205 1.419 . S
C203 H207 0.930 . S
C204 C203 1.369 . S
C204 C213 1.429 . S
C205 C203 1.419 . S
C205 C206 1.363 . S
C205 H208 0.929 . S
C206 C205 1.363 . S
C206 C212 1.428 . S
H207 C203 0.930 . S
H208 C205 0.929 . S
S209 N210 1.613 . S
S209 N211 1.610 . S
N210 S209 1.613 . S
N210 C213 1.350 . S
N211 S209 1.610 . S
N211 C212 1.351 . S
C212 C206 1.428 . S
C212 N211 1.351 . S
C212 C213 1.434 . S
C213 C204 1.429 . S
C213 N210 1.350 . S
C213 C212 1.434 . S
C214 C215 1.369 . S
C214 C216 1.419 . S
C214 H218 0.930 . S
C215 C214 1.369 . S
C215 C224 1.429 . S
C216 C214 1.419 . S
C216 C217 1.363 . S
C216 H219 0.929 . S
C217 C216 1.363 . S
C217 C223 1.428 . S
H218 C214 0.930 . S
H219 C216 0.929 . S
S220 N221 1.613 . S
S220 N222 1.610 . S
N221 S220 1.613 . S
N221 C224 1.350 . S
N222 S220 1.610 . S
N222 C223 1.351 . S
C223 C217 1.428 . S
C223 N222 1.351 . S
C223 C224 1.434 . S
C224 C215 1.429 . S
C224 N221 1.350 . S
C224 C223 1.434 . S
C225 C226 1.369 . S
C225 C227 1.419 . S
C225 H229 0.930 . S
C226 C225 1.369 . S
C226 C235 1.429 . S
C227 C225 1.419 . S
C227 C228 1.363 . S
C227 H230 0.929 . S
C228 C227 1.363 . S
C228 C234 1.428 . S
H229 C225 0.930 . S
H230 C227 0.929 . S
S231 N232 1.613 . S
S231 N233 1.610 . S
N232 S231 1.613 . S
N232 C235 1.350 . S
N233 S231 1.610 . S
N233 C234 1.351 . S
C234 C228 1.428 . S
C234 N233 1.351 . S
C234 C235 1.434 . S
C235 C226 1.429 . S
C235 N232 1.350 . S
C235 C234 1.434 . S
C236 C237 1.369 1_554 S
C236 C238 1.419 1_554 S
C236 H240 0.930 . S
C237 C236 1.369 1_556 S
C237 C246 1.429 1_545 S
C238 C236 1.419 1_556 S
C238 C239 1.363 . S
C238 H241 0.929 . S
C239 C238 1.363 . S
C239 C245 1.428 1_545 S
H240 C236 0.930 . S
H241 C238 0.929 . S
S242 N243 1.613 . S
S242 N244 1.610 . S
N243 S242 1.613 . S
N243 C246 1.350 . S
N244 S242 1.610 . S
N244 C245 1.351 . S
C245 C239 1.428 1_565 S
C245 N244 1.351 . S
C245 C246 1.434 . S
C246 C237 1.429 1_565 S
C246 N243 1.350 . S
C246 C245 1.434 . S
C247 C248 1.369 1_556 S
C247 C249 1.419 . S
C247 H251 0.930 . S
C248 C247 1.369 1_554 S
C248 C257 1.429 . S
C249 C247 1.419 . S
C249 C250 1.363 . S
C249 H252 0.929 . S
C250 C249 1.363 . S
C250 C256 1.428 1_556 S
H251 C247 0.930 . S
H252 C249 0.929 . S
S253 N254 1.613 . S
S253 N255 1.610 . S
N254 S253 1.613 . S
N254 C257 1.350 . S
N255 S253 1.610 . S
N255 C256 1.351 . S
C256 C250 1.428 1_554 S
C256 N255 1.351 . S
C256 C257 1.434 . S
C257 C248 1.429 . S
C257 N254 1.350 . S
C257 C256 1.434 . S
C258 C259 1.369 . S
C258 C260 1.419 . S
C258 H262 0.930 . S
C259 C258 1.369 . S
C259 C268 1.429 . S
C260 C258 1.419 . S
C260 C261 1.363 1_554 S
C260 H263 0.929 . S
C261 C260 1.363 1_556 S
C261 C267 1.428 . S
H262 C258 0.930 . S
H263 C260 0.929 . S
S264 N265 1.613 1_556 S
S264 N266 1.610 . S
N265 S264 1.613 1_554 S
N265 C268 1.350 . S
N266 S264 1.610 . S
N266 C267 1.351 . S
C267 C261 1.428 . S
C267 N266 1.351 . S
C267 C268 1.434 1_556 S
C268 C259 1.429 . S
C268 N265 1.350 . S
C268 C267 1.434 1_554 S
C269 C270 1.369 1_556 S
C269 C271 1.419 . S
C269 H273 0.930 1_556 S
C270 C269 1.369 1_554 S
C270 C279 1.429 1_554 S
C271 C269 1.419 . S
C271 C272 1.363 . S
C271 H274 0.929 . S
C272 C271 1.363 . S
C272 C278 1.428 . S
H273 C269 0.930 1_554 S
H274 C271 0.929 . S
S275 N276 1.613 1_455 S
S275 N277 1.610 . S
N276 S275 1.613 1_655 S
N276 C279 1.350 . S
N277 S275 1.610 . S
N277 C278 1.351 1_455 S
C278 C272 1.428 . S
C278 N277 1.351 1_655 S
C278 C279 1.434 . S
C279 C270 1.429 1_556 S
C279 N276 1.350 . S
C279 C278 1.434 . S
C280 C281 1.369 . S
C280 C282 1.419 . S
C280 H284 0.930 . S
C281 C280 1.369 . S
C281 C290 1.429 . S
C282 C280 1.419 . S
C282 C283 1.363 . S
C282 H285 0.929 . S
C283 C282 1.363 . S
C283 C289 1.428 . S
H284 C280 0.930 . S
H285 C282 0.929 . S
S286 N287 1.613 . S
S286 N288 1.610 . S
N287 S286 1.613 . S
N287 C290 1.350 . S
N288 S286 1.610 . S
N288 C289 1.351 . S
C289 C283 1.428 . S
C289 N288 1.351 . S
C289 C290 1.434 . S
C290 C281 1.429 . S
C290 N287 1.350 . S
C290 C289 1.434 . S
C291 C292 1.374 . S
C291 C293 1.419 . S
C291 H295 0.930 . S
C292 C291 1.374 . S
C292 C301 1.426 1_565 S
C293 C291 1.419 . S
C293 C294 1.363 . S
C293 H296 0.929 . S
C294 C293 1.363 . S
C294 C300 1.428 1_565 S
H295 C291 0.930 . S
H296 C293 0.929 . S
S297 N298 1.613 . S
S297 N299 1.610 . S
N298 S297 1.613 . S
N298 C301 1.350 . S
N299 S297 1.610 . S
N299 C300 1.351 . S
C300 C294 1.428 1_545 S
C300 N299 1.351 . S
C300 C301 1.434 . S
C301 C292 1.426 1_545 S
C301 N298 1.350 . S
C301 C300 1.434 . S
C302 C303 1.369 . S
C302 C304 1.419 . S
C302 H306 0.930 . S
C303 C302 1.369 . S
C303 C312 1.429 . S
C304 C302 1.419 . S
C304 C305 1.363 . S
C304 H307 0.929 . S
C305 C304 1.363 . S
C305 C311 1.428 . S
H306 C302 0.930 . S
H307 C304 0.929 . S
S308 N309 1.613 . S
S308 N310 1.610 . S
N309 S308 1.613 . S
N309 C312 1.350 . S
N310 S308 1.610 . S
N310 C311 1.351 . S
C311 C305 1.428 . S
C311 N310 1.351 . S
C311 C312 1.434 . S
C312 C303 1.429 . S
C312 N309 1.350 . S
C312 C311 1.434 . S
C313 C314 1.369 . S
C313 C315 1.419 . S
C313 H317 0.930 . S
C314 C313 1.369 . S
C314 C323 1.429 . S
C315 C313 1.419 . S
C315 C316 1.363 . S
C315 H318 0.929 . S
C316 C315 1.363 . S
C316 C322 1.428 . S
H317 C313 0.930 . S
H318 C315 0.929 . S
S319 N320 1.613 . S
S319 N321 1.610 . S
N320 S319 1.613 . S
N320 C323 1.350 . S
N321 S319 1.610 . S
N321 C322 1.351 . S
C322 C316 1.428 . S
C322 N321 1.351 . S
C322 C323 1.434 . S
C323 C314 1.429 . S
C323 N320 1.350 . S
C323 C322 1.434 . S
C324 C325 1.369 . S
C324 C326 1.419 . S
C324 H328 0.930 . S
C325 C324 1.369 . S
C325 C334 1.429 . S
C326 C324 1.419 . S
C326 C327 1.363 . S
C326 H329 0.929 1_655 S
C327 C326 1.363 . S
C327 C333 1.428 . S
H328 C324 0.930 . S
H329 C326 0.929 1_455 S
S330 N331 1.613 . S
S330 N332 1.610 . S
N331 S330 1.613 . S
N331 C334 1.350 . S
N332 S330 1.610 . S
N332 C333 1.351 . S
C333 C327 1.428 . S
C333 N332 1.351 . S
C333 C334 1.434 . S
C334 C325 1.429 . S
C334 N331 1.350 . S
C334 C333 1.434 . S
C335 C336 1.369 1_564 S
C335 C337 1.419 . S
C335 H339 0.930 . S
C336 C335 1.369 1_546 S
C336 C345 1.429 . S
C337 C335 1.419 . S
C337 C338 1.363 1_564 S
C337 H340 0.929 . S
C338 C337 1.363 1_546 S
C338 C344 1.428 . S
H339 C335 0.930 . S
H340 C337 0.929 . S
S341 N342 1.613 . S
S341 N343 1.610 . S
N342 S341 1.613 . S
N342 C345 1.350 . S
N343 S341 1.610 . S
N343 C344 1.351 . S
C344 C338 1.428 . S
C344 N343 1.351 . S
C344 C345 1.434 . S
C345 C336 1.429 . S
C345 N342 1.350 . S
C345 C344 1.434 . S
C346 C347 1.369 1_556 S
C346 C348 1.419 . S
C346 H350 0.930 . S
C347 C346 1.369 1_554 S
C347 C356 1.429 . S
C348 C346 1.419 . S
C348 C349 1.363 . S
C348 H351 0.929 . S
C349 C348 1.363 . S
C349 C355 1.428 1_556 S
H350 C346 0.930 . S
H351 C348 0.929 . S
S352 N353 1.613 . S
S352 N354 1.610 . S
N353 S352 1.613 . S
N353 C356 1.350 . S
N354 S352 1.610 . S
N354 C355 1.351 . S
C355 C349 1.428 1_554 S
C355 N354 1.351 . S
C355 C356 1.434 . S
C356 C347 1.429 . S
C356 N353 1.350 . S
C356 C355 1.434 . S
C357 C358 1.369 . S
C357 C359 1.419 . S
C357 H361 0.930 . S
C358 C357 1.369 . S
C358 C367 1.429 . S
C359 C357 1.419 . S
C359 C360 1.363 1_554 S
C359 H362 0.929 . S
C360 C359 1.363 1_556 S
C360 C366 1.428 . S
H361 C357 0.930 . S
H362 C359 0.929 . S
S363 N364 1.613 1_556 S
S363 N365 1.610 . S
N364 S363 1.613 1_554 S
N364 C367 1.350 . S
N365 S363 1.610 . S
N365 C366 1.351 . S
C366 C360 1.428 . S
C366 N365 1.351 . S
C366 C367 1.434 1_556 S
C367 C358 1.429 . S
C367 N364 1.350 . S
C367 C366 1.434 1_554 S
C368 C369 1.369 . S
C368 C370 1.419 . S
C368 H372 0.930 . S
C369 C368 1.369 . S
C369 C378 1.429 . S
C370 C368 1.419 . S
C370 C371 1.363 . S
C370 H373 0.929 . S
C371 C370 1.363 . S
C371 C377 1.428 . S
H372 C368 0.930 . S
H373 C370 0.929 . S
S374 N375 1.613 . S
S374 N376 1.610 . S
N375 S374 1.613 . S
N375 C378 1.350 . S
N376 S374 1.610 . S
N376 C377 1.351 . S
C377 C371 1.428 . S
C377 N376 1.351 . S
C377 C378 1.434 . S
C378 C369 1.429 . S
C378 N375 1.350 . S
C378 C377 1.434 . S
C379 C380 1.369 . S
C379 C381 1.419 . S
C379 H383 0.934 . S
C380 C379 1.369 . S
C380 C389 1.429 . S
C381 C379 1.419 . S
C381 C382 1.363 . S
C381 H384 0.929 . S
C382 C381 1.363 . S
C382 C388 1.428 . S
H383 C379 0.934 . S
H384 C381 0.929 . S
S385 N386 1.613 . S
S385 N387 1.610 . S
N386 S385 1.613 . S
N386 C389 1.350 . S
N387 S385 1.610 . S
N387 C388 1.351 . S
C388 C382 1.428 . S
C388 N387 1.351 . S
C388 C389 1.434 . S
C389 C380 1.429 . S
C389 N386 1.350 . S
C389 C388 1.434 . S
C390 C391 1.369 . S
C390 C392 1.419 . S
C390 H394 0.930 . S
C391 C390 1.369 . S
C391 C400 1.429 . S
C392 C390 1.419 . S
C392 C393 1.363 . S
C392 H395 0.929 . S
C393 C392 1.363 . S
C393 C399 1.428 . S
H394 C390 0.930 . S
H395 C392 0.929 . S
S396 N397 1.613 . S
S396 N398 1.610 . S
N397 S396 1.613 . S
N397 C400 1.350 . S
N398 S396 1.610 . S
N398 C399 1.351 . S
C399 C393 1.428 . S
C399 N398 1.351 . S
C399 C400 1.434 . S
C400 C391 1.429 . S
C400 N397 1.350 . S
C400 C399 1.434 . S
C401 C402 1.369 . S
C401 C403 1.419 . S
C401 H405 0.930 . S
C402 C401 1.369 . S
C402 C411 1.429 . S
C403 C401 1.419 . S
C403 C404 1.363 . S
C403 H406 0.929 1_554 S
C404 C403 1.363 . S
C404 C410 1.428 . S
H405 C401 0.930 . S
H406 C403 0.929 1_556 S
S407 N408 1.613 . S
S407 N409 1.610 . S
N408 S407 1.613 . S
N408 C411 1.350 . S
N409 S407 1.610 . S
N409 C410 1.351 . S
C410 C404 1.428 . S
C410 N409 1.351 . S
C410 C411 1.434 . S
C411 C402 1.429 . S
C411 N408 1.350 . S
C411 C410 1.434 . S
C412 C413 1.369 . S
C412 C414 1.419 . S
C412 H416 0.930 . S
C413 C412 1.369 . S
C413 C422 1.429 . S
C414 C412 1.419 . S
C414 C415 1.363 . S
C414 H417 0.929 . S
C415 C414 1.363 . S
C415 C421 1.428 . S
H416 C412 0.930 . S
H417 C414 0.929 . S
S418 N419 1.613 . S
S418 N420 1.610 . S
N419 S418 1.613 . S
N419 C422 1.350 . S
N420 S418 1.610 . S
N420 C421 1.351 . S
C421 C415 1.428 . S
C421 N420 1.351 . S
C421 C422 1.434 . S
C422 C413 1.429 . S
C422 N419 1.350 . S
C422 C421 1.434 . S
C423 C424 1.369 1_545 S
C423 C425 1.419 . S
C423 H427 0.930 . S
C424 C423 1.369 1_565 S
C424 C433 1.429 . S
C425 C423 1.419 . S
C425 C426 1.363 1_545 S
C425 H428 0.929 . S
C426 C425 1.363 1_565 S
C426 C432 1.428 . S
H427 C423 0.930 . S
H428 C425 0.929 . S
S429 N430 1.613 . S
S429 N431 1.610 . S
N430 S429 1.613 . S
N430 C433 1.350 . S
N431 S429 1.610 . S
N431 C432 1.351 . S
C432 C426 1.428 . S
C432 N431 1.351 . S
C432 C433 1.434 . S
C433 C424 1.429 . S
C433 N430 1.350 . S
C433 C432 1.434 . S
C434 C435 1.369 . S
C434 C436 1.419 . S
C434 H438 0.930 . S
C435 C434 1.369 . S
C435 C444 1.429 . S
C436 C434 1.419 . S
C436 C437 1.363 . S
C436 H439 0.929 . S
C437 C436 1.363 . S
C437 C443 1.428 . S
H438 C434 0.930 . S
H439 C436 0.929 . S
S440 N441 1.613 . S
S440 N442 1.610 . S
N441 S440 1.613 . S
N441 C444 1.350 . S
N442 S440 1.610 . S
N442 C443 1.351 . S
C443 C437 1.428 . S
C443 N442 1.351 . S
C443 C444 1.434 . S
C444 C435 1.429 . S
C444 N441 1.350 . S
C444 C443 1.434 . S
C445 C446 1.369 . S
C445 C447 1.419 . S
C445 H449 0.930 . S
C446 C445 1.369 . S
C446 C455 1.429 . S
C447 C445 1.419 . S
C447 C448 1.363 . S
C447 H450 0.929 . S
C448 C447 1.363 . S
C448 C454 1.428 . S
H449 C445 0.930 . S
H450 C447 0.929 . S
S451 N452 1.613 . S
S451 N453 1.610 . S
N452 S451 1.613 . S
N452 C455 1.350 . S
N453 S451 1.610 . S
N453 C454 1.351 . S
C454 C448 1.428 . S
C454 N453 1.351 . S
C454 C455 1.434 . S
C455 C446 1.429 . S
C455 N452 1.350 . S
C455 C454 1.434 . S
C193 C61 1.676 . S
C195 C82 1.661 . S
C206 C112 1.790 . S
C204 C70 1.769 . S
C217 N146 1.347 . S
C215 C43 1.408 . S
C228 N176 1.520 . S
C226 C52 1.507 . S
C239 C73 1.663 . S
C237 C25 1.677 1_546 S
C248 C34 1.765 . S
C250 C103 1.793 . S
C259 C7 1.401 . S
C261 N138 1.355 . S
C270 C16 1.513 . S
C272 N168 1.523 . S
C283 C88 0.799 . S
C281 C50 0.763 . S
C294 C118 0.889 . S
C292 C59 0.885 . S
C305 C159 1.188 . S
C303 C67 1.168 . S
C314 C41 0.682 . S
C316 C189 0.685 . S
C325 C14 0.790 . S
C327 C99 0.783 . S
C338 C129 0.895 . S
C336 C23 0.883 1_545 S
C349 C148 1.185 . S
C347 C31 1.171 . S
C358 C5 0.683 . S
C360 C178 0.689 . S
C369 C49 1.523 . S
C371 N78 1.552 . S
C380 C58 1.437 1_545 S
C382 N108 1.458 . S
C393 C133 1.716 1_554 S
C391 C68 1.663 . S
C404 C163 1.536 1_554 S
C402 C40 1.494 . S
C413 C13 1.519 . S
C415 N86 1.557 . S
C426 N116 1.459 . S
C424 C22 1.435 . S
C437 C142 1.716 . S
C435 C32 1.663 . S
C446 C4 1.491 . S
C448 C172 1.536 . S
