# Generated by pormake.
# Topology ptr, (4,4)-cn, num edge types: 1
# Building blocks:
#     Node 0, Type 0, BuildingBlock: NAHDIM_clean_sbu_0, # of connection points: 4
#     Node 1, Type 0, BuildingBlock: NAHDIM_clean_sbu_0, # of connection points: 4
#     Node 2, Type 0, BuildingBlock: NAHDIM_clean_sbu_0, # of connection points: 4
#     Node 3, Type 0, BuildingBlock: NAHDIM_clean_sbu_0, # of connection points: 4
#     Node 4, Type 0, BuildingBlock: NAHDIM_clean_sbu_0, # of connection points: 4
#     Node 5, Type 0, BuildingBlock: NAHDIM_clean_sbu_0, # of connection points: 4
#     Node 6, Type 0, BuildingBlock: NAHDIM_clean_sbu_0, # of connection points: 4
#     Node 7, Type 0, BuildingBlock: NAHDIM_clean_sbu_0, # of connection points: 4
#     Node 8, Type 0, BuildingBlock: NAHDIM_clean_sbu_0, # of connection points: 4
#     Node 9, Type 0, BuildingBlock: NAHDIM_clean_sbu_0, # of connection points: 4
#     Node 10, Type 0, BuildingBlock: NAHDIM_clean_sbu_0, # of connection points: 4
#     Node 11, Type 0, BuildingBlock: NAHDIM_clean_sbu_0, # of connection points: 4
#     Node 12, Type 0, BuildingBlock: NAHDIM_clean_sbu_0, # of connection points: 4
#     Node 13, Type 0, BuildingBlock: NAHDIM_clean_sbu_0, # of connection points: 4
#     Node 14, Type 0, BuildingBlock: NAHDIM_clean_sbu_0, # of connection points: 4
#     Node 15, Type 0, BuildingBlock: NAHDIM_clean_sbu_0, # of connection points: 4
#     Node 16, Type 0, BuildingBlock: NAHDIM_clean_sbu_0, # of connection points: 4
#     Node 17, Type 0, BuildingBlock: NAHDIM_clean_sbu_0, # of connection points: 4
#     Node 18, Type 1, BuildingBlock: NAHDIM_clean_linker_0, # of connection points: 4
#     Node 19, Type 1, BuildingBlock: NAHDIM_clean_linker_0, # of connection points: 4
#     Node 20, Type 1, BuildingBlock: NAHDIM_clean_linker_0, # of connection points: 4
#     Node 21, Type 1, BuildingBlock: NAHDIM_clean_linker_0, # of connection points: 4
#     Node 22, Type 1, BuildingBlock: NAHDIM_clean_linker_0, # of connection points: 4
#     Node 23, Type 1, BuildingBlock: NAHDIM_clean_linker_0, # of connection points: 4
#     Node 24, Type 1, BuildingBlock: NAHDIM_clean_linker_0, # of connection points: 4
#     Node 25, Type 1, BuildingBlock: NAHDIM_clean_linker_0, # of connection points: 4
#     Node 26, Type 1, BuildingBlock: NAHDIM_clean_linker_0, # of connection points: 4
#     Node 27, Type 1, BuildingBlock: NAHDIM_clean_linker_0, # of connection points: 4
#     Node 28, Type 1, BuildingBlock: NAHDIM_clean_linker_0, # of connection points: 4
#     Node 29, Type 1, BuildingBlock: NAHDIM_clean_linker_0, # of connection points: 4
#     Node 30, Type 1, BuildingBlock: NAHDIM_clean_linker_0, # of connection points: 4
#     Node 31, Type 1, BuildingBlock: NAHDIM_clean_linker_0, # of connection points: 4
#     Node 32, Type 1, BuildingBlock: NAHDIM_clean_linker_0, # of connection points: 4
#     Node 33, Type 1, BuildingBlock: NAHDIM_clean_linker_0, # of connection points: 4
#     Node 34, Type 1, BuildingBlock: NAHDIM_clean_linker_0, # of connection points: 4
#     Node 35, Type 1, BuildingBlock: NAHDIM_clean_linker_0, # of connection points: 4
#     Edge 36, Type (0, 1), BuildingBlock: AJUNOK_clean_linker_0, # of connection points: 2
#     Edge 37, Type (0, 1), BuildingBlock: AJUNOK_clean_linker_0, # of connection points: 2
#     Edge 38, Type (0, 1), BuildingBlock: AJUNOK_clean_linker_0, # of connection points: 2
#     Edge 39, Type (0, 1), BuildingBlock: AJUNOK_clean_linker_0, # of connection points: 2
#     Edge 40, Type (0, 1), BuildingBlock: AJUNOK_clean_linker_0, # of connection points: 2
#     Edge 41, Type (0, 1), BuildingBlock: AJUNOK_clean_linker_0, # of connection points: 2
#     Edge 42, Type (0, 1), BuildingBlock: AJUNOK_clean_linker_0, # of connection points: 2
#     Edge 43, Type (0, 1), BuildingBlock: AJUNOK_clean_linker_0, # of connection points: 2
#     Edge 44, Type (0, 1), BuildingBlock: AJUNOK_clean_linker_0, # of connection points: 2
#     Edge 45, Type (0, 1), BuildingBlock: AJUNOK_clean_linker_0, # of connection points: 2
#     Edge 46, Type (0, 1), BuildingBlock: AJUNOK_clean_linker_0, # of connection points: 2
#     Edge 47, Type (0, 1), BuildingBlock: AJUNOK_clean_linker_0, # of connection points: 2
#     Edge 48, Type (0, 1), BuildingBlock: AJUNOK_clean_linker_0, # of connection points: 2
#     Edge 49, Type (0, 1), BuildingBlock: AJUNOK_clean_linker_0, # of connection points: 2
#     Edge 50, Type (0, 1), BuildingBlock: AJUNOK_clean_linker_0, # of connection points: 2
#     Edge 51, Type (0, 1), BuildingBlock: AJUNOK_clean_linker_0, # of connection points: 2
#     Edge 52, Type (0, 1), BuildingBlock: AJUNOK_clean_linker_0, # of connection points: 2
#     Edge 53, Type (0, 1), BuildingBlock: AJUNOK_clean_linker_0, # of connection points: 2
#     Edge 54, Type (0, 1), BuildingBlock: AJUNOK_clean_linker_0, # of connection points: 2
#     Edge 55, Type (0, 1), BuildingBlock: AJUNOK_clean_linker_0, # of connection points: 2
#     Edge 56, Type (0, 1), BuildingBlock: AJUNOK_clean_linker_0, # of connection points: 2
#     Edge 57, Type (0, 1), BuildingBlock: AJUNOK_clean_linker_0, # of connection points: 2
#     Edge 58, Type (0, 1), BuildingBlock: AJUNOK_clean_linker_0, # of connection points: 2
#     Edge 59, Type (0, 1), BuildingBlock: AJUNOK_clean_linker_0, # of connection points: 2
#     Edge 60, Type (0, 1), BuildingBlock: AJUNOK_clean_linker_0, # of connection points: 2
#     Edge 61, Type (0, 1), BuildingBlock: AJUNOK_clean_linker_0, # of connection points: 2
#     Edge 62, Type (0, 1), BuildingBlock: AJUNOK_clean_linker_0, # of connection points: 2
#     Edge 63, Type (0, 1), BuildingBlock: AJUNOK_clean_linker_0, # of connection points: 2
#     Edge 64, Type (0, 1), BuildingBlock: AJUNOK_clean_linker_0, # of connection points: 2
#     Edge 65, Type (0, 1), BuildingBlock: AJUNOK_clean_linker_0, # of connection points: 2
#     Edge 66, Type (0, 1), BuildingBlock: AJUNOK_clean_linker_0, # of connection points: 2
#     Edge 67, Type (0, 1), BuildingBlock: AJUNOK_clean_linker_0, # of connection points: 2
#     Edge 68, Type (0, 1), BuildingBlock: AJUNOK_clean_linker_0, # of connection points: 2
#     Edge 69, Type (0, 1), BuildingBlock: AJUNOK_clean_linker_0, # of connection points: 2
#     Edge 70, Type (0, 1), BuildingBlock: AJUNOK_clean_linker_0, # of connection points: 2
#     Edge 71, Type (0, 1), BuildingBlock: AJUNOK_clean_linker_0, # of connection points: 2
#     Edge 72, Type (0, 1), BuildingBlock: AJUNOK_clean_linker_0, # of connection points: 2
#     Edge 73, Type (0, 1), BuildingBlock: AJUNOK_clean_linker_0, # of connection points: 2
#     Edge 74, Type (0, 1), BuildingBlock: AJUNOK_clean_linker_0, # of connection points: 2
#     Edge 75, Type (0, 1), BuildingBlock: AJUNOK_clean_linker_0, # of connection points: 2
#     Edge 76, Type (0, 1), BuildingBlock: AJUNOK_clean_linker_0, # of connection points: 2
#     Edge 77, Type (0, 1), BuildingBlock: AJUNOK_clean_linker_0, # of connection points: 2
#     Edge 78, Type (0, 1), BuildingBlock: AJUNOK_clean_linker_0, # of connection points: 2
#     Edge 79, Type (0, 1), BuildingBlock: AJUNOK_clean_linker_0, # of connection points: 2
#     Edge 80, Type (0, 1), BuildingBlock: AJUNOK_clean_linker_0, # of connection points: 2
#     Edge 81, Type (0, 1), BuildingBlock: AJUNOK_clean_linker_0, # of connection points: 2
#     Edge 82, Type (0, 1), BuildingBlock: AJUNOK_clean_linker_0, # of connection points: 2
#     Edge 83, Type (0, 1), BuildingBlock: AJUNOK_clean_linker_0, # of connection points: 2
#     Edge 84, Type (0, 1), BuildingBlock: AJUNOK_clean_linker_0, # of connection points: 2
#     Edge 85, Type (0, 1), BuildingBlock: AJUNOK_clean_linker_0, # of connection points: 2
#     Edge 86, Type (0, 1), BuildingBlock: AJUNOK_clean_linker_0, # of connection points: 2
#     Edge 87, Type (0, 1), BuildingBlock: AJUNOK_clean_linker_0, # of connection points: 2
#     Edge 88, Type (0, 1), BuildingBlock: AJUNOK_clean_linker_0, # of connection points: 2
#     Edge 89, Type (0, 1), BuildingBlock: AJUNOK_clean_linker_0, # of connection points: 2
#     Edge 90, Type (0, 1), BuildingBlock: AJUNOK_clean_linker_0, # of connection points: 2
#     Edge 91, Type (0, 1), BuildingBlock: AJUNOK_clean_linker_0, # of connection points: 2
#     Edge 92, Type (0, 1), BuildingBlock: AJUNOK_clean_linker_0, # of connection points: 2
#     Edge 93, Type (0, 1), BuildingBlock: AJUNOK_clean_linker_0, # of connection points: 2
#     Edge 94, Type (0, 1), BuildingBlock: AJUNOK_clean_linker_0, # of connection points: 2
#     Edge 95, Type (0, 1), BuildingBlock: AJUNOK_clean_linker_0, # of connection points: 2
#     Edge 96, Type (0, 1), BuildingBlock: AJUNOK_clean_linker_0, # of connection points: 2
#     Edge 97, Type (0, 1), BuildingBlock: AJUNOK_clean_linker_0, # of connection points: 2
#     Edge 98, Type (0, 1), BuildingBlock: AJUNOK_clean_linker_0, # of connection points: 2
#     Edge 99, Type (0, 1), BuildingBlock: AJUNOK_clean_linker_0, # of connection points: 2
#     Edge 100, Type (0, 1), BuildingBlock: AJUNOK_clean_linker_0, # of connection points: 2
#     Edge 101, Type (0, 1), BuildingBlock: AJUNOK_clean_linker_0, # of connection points: 2
#     Edge 102, Type (0, 1), BuildingBlock: AJUNOK_clean_linker_0, # of connection points: 2
#     Edge 103, Type (0, 1), BuildingBlock: AJUNOK_clean_linker_0, # of connection points: 2
#     Edge 104, Type (0, 1), BuildingBlock: AJUNOK_clean_linker_0, # of connection points: 2
#     Edge 105, Type (0, 1), BuildingBlock: AJUNOK_clean_linker_0, # of connection points: 2
#     Edge 106, Type (0, 1), BuildingBlock: AJUNOK_clean_linker_0, # of connection points: 2
#     Edge 107, Type (0, 1), BuildingBlock: AJUNOK_clean_linker_0, # of connection points: 2
# Relax obj value: 0.084
# Max RMSD: 0.308
# Mean RMSD: 0.119
data_MOF--net-ptr--node1-NAHDIM_clean_sbu_0--node2-NAHDIM_clean_linker_0--edge1-AJUNOK_clean_linker_0
_symmetry_space_group_name_H-M    P1
_symmetry_Int_Tables_number       1
_symmetry_cell_setting            triclinic
loop_
_symmetry_equiv_pos_as_xyz
'x, y, z'
_cell_length_a     77.859678
_cell_length_b     76.034432
_cell_length_c     64.219621
_cell_angle_alpha  92.688304
_cell_angle_beta   89.633742
_cell_angle_gamma 122.22939
loop_
_atom_site_label
_atom_site_type_symbol
_atom_site_fract_x
_atom_site_fract_y
_atom_site_fract_z
_atom_type_partial_charge
C0 C 0.0251 0.33285 0.03979 0.0
O1 O 0.0053 0.32041 0.03784 0.0
O2 O 0.99763 0.32357 0.99472 0.0
Zn3 Zn 0.01417 0.35091 0.01102 0.0
O4 O 0.99712 0.35647 0.03091 0.0
C5 C 0.03235 0.37283 0.97257 0.0
O6 O 0.03225 0.35611 0.96619 0.0
O7 O 0.03416 0.34881 0.02894 0.0
C8 C 0.993 0.37008 0.02701 0.0
O9 O 0.99801 0.3788 0.00899 0.0
C10 C 0.98461 0.31954 0.98052 0.0
O11 O 0.98051 0.33358 0.97596 0.0
O12 O 0.02688 0.3741 0.99098 0.0
C13 C 0.69915 0.66973 0.99263 0.0
O14 O 0.68976 0.67915 0.98778 0.0
O15 O 0.67363 0.67943 0.0318 0.0
Zn16 Zn 0.6654 0.65161 0.01799 0.0
O17 O 0.64437 0.64364 0.99536 0.0
C18 C 0.66073 0.62005 0.04639 0.0
O19 O 0.67746 0.6228 0.03826 0.0
O20 O 0.69094 0.65541 0.00554 0.0
C21 C 0.62686 0.63984 5e-05 0.0
O22 O 0.62275 0.64078 0.01979 0.0
C23 C 0.66891 0.69174 0.0249 0.0
O24 O 0.65745 0.68619 0.00797 0.0
O25 O 0.65347 0.63036 0.03989 0.0
C26 C 0.33109 0.03435 0.9895 0.0
O27 O 0.32221 0.01537 0.98098 0.0
O28 O 0.31957 0.99286 0.016 0.0
Zn29 Zn 0.34799 0.01619 0.01034 0.0
O30 O 0.35945 0.00891 0.98569 0.0
C31 C 0.37553 0.03889 0.0465 0.0
O32 O 0.37402 0.05463 0.04171 0.0
O33 O 0.3449 0.03998 0.00337 0.0
C34 C 0.36128 0.99328 0.98567 0.0
O35 O 0.3551 0.98159 0.00185 0.0
C36 C 0.31392 0.97905 0.02929 0.0
O37 O 0.32763 0.97807 0.04008 0.0
O38 O 0.36588 0.02196 0.03547 0.0
C39 C 0.96366 0.65086 0.9783 0.0
O40 O 0.97825 0.65172 0.96711 0.0
O41 O 0.00168 0.66905 0.02369 0.0
Zn42 Zn 0.98136 0.64037 0.01133 0.0
O43 O 0.99391 0.62804 0.99312 0.0
C44 C 0.98092 0.62477 0.0504 0.0
O45 O 0.0005 0.63762 0.04801 0.0
O46 O 0.96085 0.64396 0.99646 0.0
C47 C 0.01286 0.63734 0.98995 0.0
O48 O 0.02501 0.65639 0.99779 0.0
C49 C 0.0097 0.68575 0.01399 0.0
O50 O 0.00687 0.68467 0.99373 0.0
O51 O 0.96875 0.62243 0.03585 0.0
C52 C 0.30521 0.33456 0.02501 0.0
O53 O 0.31537 0.32619 0.03067 0.0
O54 O 0.32834 0.32628 0.98196 0.0
Zn55 Zn 0.33832 0.35357 0.99783 0.0
O56 O 0.35971 0.3598 0.01945 0.0
C57 C 0.35793 0.37722 0.96202 0.0
O58 O 0.36188 0.36256 0.95868 0.0
O59 O 0.31305 0.34867 0.01186 0.0
C60 C 0.36705 0.37633 0.03105 0.0
O61 O 0.36092 0.38911 0.02793 0.0
C62 C 0.33037 0.31215 0.989 0.0
O63 O 0.3422 0.31667 0.00547 0.0
O64 O 0.34823 0.37679 0.97817 0.0
C65 C 0.66707 0.9775 0.0397 0.0
O66 O 0.67565 0.99681 0.0472 0.0
O67 O 0.6753 0.015 0.00929 0.0
Zn68 Zn 0.64755 0.99274 0.01831 0.0
O69 O 0.63898 0.00359 0.04283 0.0
C70 C 0.63356 0.98496 0.9756 0.0
O71 O 0.65267 0.99142 0.9724 0.0
O72 O 0.65201 0.97037 0.02708 0.0
C73 C 0.6321 0.01524 0.04039 0.0
O74 O 0.63006 0.01975 0.02144 0.0
C75 C 0.68121 0.03224 0.00132 0.0
O76 O 0.66816 0.03786 0.99835 0.0
O77 O 0.62746 0.98334 0.99423 0.0
C78 C 0.68277 0.66418 0.37506 0.0
O79 O 0.66338 0.65143 0.37048 0.0
O80 O 0.66056 0.66057 0.32795 0.0
Zn81 Zn 0.6755 0.68643 0.34711 0.0
O82 O 0.65639 0.69046 0.36501 0.0
C83 C 0.68634 0.71228 0.31228 0.0
O84 O 0.6692 0.69601 0.305 0.0
O85 O 0.69254 0.68162 0.36666 0.0
C86 C 0.64668 0.69861 0.35928 0.0
O87 O 0.64844 0.7046 0.34012 0.0
C88 C 0.64256 0.65226 0.32081 0.0
O89 O 0.63194 0.66062 0.32557 0.0
O90 O 0.69266 0.71188 0.33036 0.0
C91 C 0.36594 0.99125 0.33633 0.0
O92 O 0.37176 0.00988 0.34426 0.0
O93 O 0.33947 0.01019 0.36307 0.0
Zn94 Zn 0.32614 0.98107 0.35013 0.0
O95 O 0.30624 0.97741 0.32792 0.0
C96 C 0.29429 0.95364 0.3782 0.0
O97 O 0.28468 0.96223 0.37154 0.0
O98 O 0.34729 0.97682 0.33688 0.0
C99 C 0.29092 0.95983 0.32196 0.0
O100 O 0.28805 0.9429 0.32995 0.0
C101 C 0.33091 0.02043 0.36235 0.0
O102 O 0.31257 0.0116 0.35416 0.0
O103 O 0.31193 0.95961 0.37169 0.0
C104 C 0.02243 0.37671 0.31641 0.0
O105 O 0.01439 0.35911 0.30518 0.0
O106 O 0.99333 0.3342 0.35738 0.0
Zn107 Zn 0.02235 0.35126 0.34839 0.0
O108 O 0.02865 0.33543 0.32684 0.0
C109 C 0.05352 0.37798 0.37945 0.0
O110 O 0.05302 0.39269 0.3701 0.0
O111 O 0.02667 0.37707 0.33557 0.0
C112 C 0.04515 0.34598 0.31718 0.0
O113 O 0.05709 0.36595 0.32217 0.0
C114 C 0.98373 0.31466 0.35934 0.0
O115 O 0.99308 0.30475 0.35541 0.0
O116 O 0.04151 0.35913 0.37305 0.0
C117 C 0.64036 0.98491 0.31617 0.0
O118 O 0.6585 0.00179 0.31497 0.0
O119 O 0.67388 0.00709 0.36015 0.0
Zn120 Zn 0.65993 0.97726 0.34876 0.0
O121 O 0.67937 0.97365 0.33086 0.0
C122 C 0.65605 0.96093 0.38978 0.0
O123 O 0.67322 0.9787 0.39384 0.0
O124 O 0.637 0.97206 0.32994 0.0
C125 C 0.67286 0.96215 0.31418 0.0
O126 O 0.65323 0.95086 0.31018 0.0
C127 C 0.69312 0.01904 0.36032 0.0
O128 O 0.70405 0.01128 0.35447 0.0
O129 O 0.64818 0.957 0.37157 0.0
C130 C 0.97111 0.66906 0.364 0.0
O131 O 0.98034 0.66013 0.37089 0.0
O132 O 0.0077 0.66805 0.33257 0.0
Zn133 Zn 0.00958 0.69403 0.34522 0.0
O134 O 0.02758 0.70453 0.37106 0.0
C135 C 0.02747 0.71609 0.30738 0.0
O136 O 0.03044 0.70083 0.3032 0.0
O137 O 0.98102 0.68486 0.35306 0.0
C138 C 0.04673 0.7133 0.37004 0.0
O139 O 0.05507 0.71684 0.35162 0.0
C140 C 0.01624 0.65968 0.34085 0.0
O141 O 0.02765 0.66865 0.35769 0.0
O142 O 0.01922 0.71641 0.32441 0.0
C143 C 0.33073 0.31216 0.36616 0.0
O144 O 0.34233 0.33163 0.37319 0.0
O145 O 0.3415 0.35252 0.33552 0.0
Zn146 Zn 0.31357 0.33098 0.34486 0.0
O147 O 0.30566 0.34241 0.36943 0.0
C148 C 0.27606 0.30595 0.32024 0.0
O149 O 0.26913 0.29565 0.3373 0.0
O150 O 0.31595 0.30732 0.35386 0.0
C151 C 0.30621 0.3594 0.36921 0.0
O152 O 0.31129 0.36953 0.35196 0.0
C153 C 0.34936 0.34604 0.32225 0.0
O154 O 0.33829 0.32674 0.31464 0.0
O155 O 0.29414 0.32163 0.32034 0.0
C156 C 0.35908 0.00442 0.69987 0.0
O157 O 0.34144 0.98906 0.69249 0.0
O158 O 0.33089 0.00222 0.65799 0.0
Zn159 Zn 0.34609 0.02709 0.6784 0.0
O160 O 0.32735 0.02865 0.69931 0.0
C161 C 0.35323 0.05759 0.64886 0.0
O162 O 0.33479 0.0432 0.64242 0.0
O163 O 0.36519 0.02297 0.69552 0.0
C164 C 0.31613 0.03586 0.69657 0.0
O165 O 0.31536 0.04243 0.67829 0.0
C166 C 0.31272 0.99419 0.65149 0.0
O167 O 0.30232 0.00251 0.65741 0.0
O168 O 0.36164 0.05407 0.66358 0.0
C169 C 0.02707 0.33726 0.65953 0.0
O170 O 0.01933 0.34896 0.6593 0.0
O171 O 0.99525 0.3352 0.69932 0.0
Zn172 Zn 0.98954 0.31169 0.67866 0.0
O173 O 0.97122 0.30927 0.65502 0.0
C174 C 0.96438 0.27999 0.70734 0.0
O175 O 0.96065 0.29405 0.71441 0.0
O176 O 0.0166 0.31938 0.66698 0.0
C177 C 0.95203 0.29961 0.6567 0.0
O178 O 0.94379 0.29077 0.67415 0.0
C179 C 0.98281 0.34021 0.70543 0.0
O180 O 0.96395 0.3296 0.69843 0.0
O181 O 0.97673 0.28413 0.69259 0.0
C182 C 0.66491 0.68846 0.64894 0.0
O183 O 0.65449 0.66802 0.64717 0.0
O184 O 0.66148 0.66003 0.69044 0.0
Zn185 Zn 0.6872 0.67918 0.67545 0.0
O186 O 0.69496 0.66314 0.65573 0.0
C187 C 0.71247 0.6859 0.71024 0.0
O188 O 0.70035 0.66553 0.70982 0.0
O189 O 0.68126 0.69771 0.65985 0.0
C190 C 0.71363 0.67023 0.65257 0.0
O191 O 0.72751 0.68808 0.66167 0.0
C192 C 0.651 0.6403 0.68803 0.0
O193 O 0.65749 0.63098 0.67555 0.0
O194 O 0.70968 0.69588 0.69676 0.0
C195 C 0.30531 0.32863 0.64154 0.0
O196 O 0.32437 0.33658 0.63653 0.0
O197 O 0.33685 0.33331 0.67848 0.0
Zn198 Zn 0.31664 0.30602 0.66374 0.0
O199 O 0.33063 0.3 0.64061 0.0
C200 C 0.29825 0.28788 0.70163 0.0
O201 O 0.30038 0.30618 0.70449 0.0
O202 O 0.29681 0.31247 0.65217 0.0
C203 C 0.3473 0.30134 0.64437 0.0
O204 O 0.35425 0.30521 0.6637 0.0
C205 C 0.34704 0.3372 0.69526 0.0
O206 O 0.34601 0.32182 0.70491 0.0
O207 O 0.30364 0.28346 0.68445 0.0
C208 C 0.65313 0.02227 0.70519 0.0
O209 O 0.66376 0.01768 0.71701 0.0
O210 O 0.67868 0.00795 0.66405 0.0
Zn211 Zn 0.68707 0.03574 0.67814 0.0
O212 O 0.70616 0.04209 0.70231 0.0
C213 C 0.70487 0.055 0.63965 0.0
O214 O 0.7061 0.03849 0.63683 0.0
O215 O 0.66084 0.03167 0.68857 0.0
C216 C 0.72109 0.03973 0.70082 0.0
O217 O 0.72526 0.03472 0.68245 0.0
C218 C 0.67437 0.99235 0.67449 0.0
O219 O 0.67738 0.99494 0.69479 0.0
O220 O 0.69825 0.05778 0.65685 0.0
C221 C 0.98634 0.64261 0.69452 0.0
O222 O 0.00311 0.66087 0.69811 0.0
O223 O 0.00319 0.68464 0.66226 0.0
Zn224 Zn 0.97459 0.66707 0.67304 0.0
O225 O 0.96969 0.68216 0.69666 0.0
C226 C 0.95771 0.66499 0.63204 0.0
O227 O 0.97595 0.68116 0.62896 0.0
O228 O 0.97191 0.64152 0.68421 0.0
C229 C 0.96662 0.6968 0.69448 0.0
O230 O 0.96589 0.70236 0.6756 0.0
C231 C 0.01641 0.70218 0.67085 0.0
O232 O 0.01115 0.70966 0.68676 0.0
O233 O 0.95369 0.65721 0.64983 0.0
C234 C 0.21012 0.27187 0.018 0.0
C235 C 0.21765 0.28767 0.03661 0.0
C236 C 0.20203 0.28115 0.07055 0.0
C237 C 0.20821 0.30161 0.07696 0.0
C238 C 0.1974 0.30552 0.09205 0.0
C239 C 0.17987 0.28859 0.10063 0.0
C240 C 0.17415 0.26793 0.09482 0.0
C241 C 0.18561 0.26451 0.0801 0.0
C242 C 0.20429 0.32775 0.09829 0.0
C243 C 0.15544 0.24949 0.10342 0.0
C244 C 0.05424 0.31063 0.05961 0.0
C245 C 0.06451 0.30289 0.07243 0.0
C246 C 0.09777 0.30825 0.07907 0.0
C247 C 0.09114 0.28973 0.08916 0.0
C248 C 0.10484 0.28696 0.10041 0.0
C249 C 0.12551 0.30333 0.10224 0.0
C250 C 0.13227 0.32195 0.09195 0.0
C251 C 0.11833 0.32398 0.08018 0.0
C252 C 0.09716 0.2664 0.11017 0.0
C253 C 0.15418 0.33972 0.09336 0.0
C254 C 0.0997 0.31285 0.2373 0.0
C255 C 0.09283 0.29233 0.23009 0.0
C256 C 0.10573 0.28777 0.21903 0.0
C257 C 0.12588 0.30398 0.2152 0.0
C258 C 0.13294 0.32453 0.22281 0.0
C259 C 0.11973 0.32867 0.23377 0.0
C260 C 0.09776 0.26566 0.21116 0.0
C261 C 0.15435 0.34217 0.21904 0.0
C262 C 0.2314 0.25107 0.2368 0.0
C263 C 0.22887 0.26933 0.24238 0.0
C264 C 0.19808 0.26923 0.23479 0.0
C265 C 0.17769 0.25525 0.22926 0.0
C266 C 0.16652 0.26171 0.21854 0.0
C267 C 0.17592 0.28284 0.2137 0.0
C268 C 0.19632 0.29729 0.2201 0.0
C269 C 0.20724 0.29032 0.23055 0.0
C270 C 0.14473 0.2459 0.21218 0.0
C271 C 0.20658 0.32004 0.21576 0.0
C272 C 0.16638 0.29253 0.11375 0.0
C273 C 0.15311 0.29647 0.10343 0.0
C274 C 0.14007 0.30067 0.11443 0.0
C275 C 0.14034 0.30119 0.13648 0.0
C276 C 0.12797 0.30611 0.14811 0.0
C277 C 0.12772 0.30576 0.16975 0.0
C278 C 0.1399 0.30054 0.18061 0.0
C279 C 0.13934 0.2996 0.20256 0.0
C280 C 0.15149 0.29417 0.21286 0.0
C281 C 0.16436 0.28969 0.20183 0.0
C282 C 0.16536 0.29084 0.17987 0.0
C283 C 0.17836 0.28674 0.16826 0.0
C284 C 0.17905 0.28771 0.14664 0.0
C285 C 0.16638 0.29226 0.13575 0.0
C286 C 0.15326 0.29657 0.14714 0.0
C287 C 0.15291 0.29608 0.16923 0.0
C288 C 0.05431 0.30157 0.23181 0.0
C289 C 0.06717 0.30579 0.25159 0.0
O290 O 0.21126 0.27701 0.05482 0.0
O291 O 0.20836 0.26182 0.24423 0.0
O292 O 0.08769 0.31825 0.24751 0.0
O293 O 0.08485 0.31139 0.06806 0.0
H294 H 0.21054 0.29694 0.03483 0.0
H295 H 0.19327 0.26191 0.01793 0.0
H296 H 0.21632 0.2617 0.01887 0.0
H297 H 0.21481 0.28 0.00315 0.0
H298 H 0.22133 0.31451 0.06996 0.0
H299 H 0.18115 0.24878 0.07517 0.0
H300 H 0.19371 0.33153 0.09133 0.0
H301 H 0.21985 0.33895 0.09291 0.0
H302 H 0.20399 0.3298 0.1155 0.0
H303 H 0.15261 0.23443 0.09664 0.0
H304 H 0.14194 0.25039 0.10017 0.0
H305 H 0.15712 0.24975 0.12059 0.0
H306 H 0.05573 0.28564 0.07329 0.0
H307 H 0.04235 0.29659 0.05001 0.0
H308 H 0.06435 0.31829 0.04602 0.0
H309 H 0.04691 0.3267 0.08156 0.0
H310 H 0.0754 0.27714 0.08801 0.0
H311 H 0.12337 0.33813 0.07216 0.0
H312 H 0.10772 0.26098 0.10727 0.0
H313 H 0.08181 0.25412 0.10409 0.0
H314 H 0.09628 0.26839 0.12729 0.0
H315 H 0.15629 0.35424 0.08747 0.0
H316 H 0.1635 0.33541 0.0839 0.0
H317 H 0.15996 0.34283 0.10973 0.0
H318 H 0.06385 0.29073 0.25735 0.0
H319 H 0.07743 0.27983 0.23282 0.0
H320 H 0.12493 0.34442 0.23945 0.0
H321 H 0.09848 0.26496 0.19389 0.0
H322 H 0.08184 0.25471 0.21575 0.0
H323 H 0.10748 0.2604 0.21736 0.0
H324 H 0.15769 0.35721 0.22644 0.0
H325 H 0.15675 0.34393 0.20201 0.0
H326 H 0.16534 0.33855 0.22526 0.0
H327 H 0.23522 0.27983 0.22917 0.0
H328 H 0.24774 0.25668 0.23513 0.0
H329 H 0.22341 0.24329 0.22173 0.0
H330 H 0.2249 0.23943 0.24899 0.0
H331 H 0.1707 0.23908 0.2329 0.0
H332 H 0.22282 0.30138 0.23551 0.0
H333 H 0.14254 0.24614 0.19515 0.0
H334 H 0.1346 0.25001 0.22028 0.0
H335 H 0.14003 0.22985 0.21602 0.0
H336 H 0.22204 0.32953 0.22299 0.0
H337 H 0.19728 0.3262 0.22175 0.0
H338 H 0.20782 0.32186 0.19866 0.0
H339 H 0.1528 0.29606 0.08651 0.0
H340 H 0.11823 0.31019 0.1406 0.0
H341 H 0.11773 0.3095 0.17784 0.0
H342 H 0.15076 0.29322 0.22969 0.0
H343 H 0.18819 0.2828 0.17577 0.0
H344 H 0.18941 0.28453 0.13852 0.0
H345 H 0.03789 0.29195 0.23532 0.0
H346 H 0.05753 0.29294 0.21961 0.0
H347 H 0.05764 0.31638 0.22543 0.0
C348 C 0.71645 0.93209 0.02752 0.0
C349 C 0.70524 0.92949 0.04789 0.0
C350 C 0.71751 0.92448 0.0807 0.0
C351 C 0.69875 0.90981 0.08899 0.0
C352 C 0.69766 0.89694 0.10458 0.0
C353 C 0.71569 0.89881 0.11196 0.0
C354 C 0.73471 0.91448 0.10453 0.0
C355 C 0.73535 0.92733 0.08916 0.0
C356 C 0.67718 0.88075 0.11256 0.0
C357 C 0.75424 0.91694 0.11203 0.0
C358 C 0.71875 0.79164 0.04391 0.0
C359 C 0.70833 0.77666 0.06152 0.0
C360 C 0.69883 0.79617 0.08557 0.0
C361 C 0.71867 0.81149 0.09246 0.0
C362 C 0.72224 0.82823 0.10593 0.0
C363 C 0.70565 0.82949 0.11289 0.0
C364 C 0.68563 0.8137 0.10664 0.0
C365 C 0.68251 0.79727 0.09298 0.0
C366 C 0.74379 0.84488 0.11228 0.0
C367 C 0.66759 0.81448 0.11397 0.0
C368 C 0.71462 0.80629 0.24617 0.0
C369 C 0.73383 0.82389 0.2424 0.0
C370 C 0.73562 0.8406 0.23195 0.0
C371 C 0.71788 0.83991 0.22565 0.0
C372 C 0.69856 0.82268 0.23038 0.0
C373 C 0.69722 0.80602 0.2404 0.0
C374 C 0.75646 0.85881 0.22729 0.0
C375 C 0.67931 0.82165 0.22444 0.0
C376 C 0.74889 0.00046 0.25249 0.0
C377 C 0.73334 0.977 0.25148 0.0
C378 C 0.73816 0.94799 0.24576 0.0
C379 C 0.75352 0.94398 0.24243 0.0
C380 C 0.74944 0.92553 0.23186 0.0
C381 C 0.72932 0.91045 0.22508 0.0
C382 C 0.71349 0.91392 0.22946 0.0
C383 C 0.71812 0.93277 0.23953 0.0
C384 C 0.7667 0.92231 0.22764 0.0
C385 C 0.69171 0.89784 0.22328 0.0
C386 C 0.71442 0.88257 0.12499 0.0
C387 C 0.7106 0.86426 0.11457 0.0
C388 C 0.70935 0.84814 0.12536 0.0
C389 C 0.71188 0.85014 0.14727 0.0
C390 C 0.71068 0.83416 0.15859 0.0
C391 C 0.71331 0.83633 0.18016 0.0
C392 C 0.71704 0.85448 0.19126 0.0
C393 C 0.71947 0.8567 0.21323 0.0
C394 C 0.72334 0.87502 0.22376 0.0
C395 C 0.72494 0.89135 0.21292 0.0
C396 C 0.72246 0.88938 0.19094 0.0
C397 C 0.72398 0.9055 0.1795 0.0
C398 C 0.72118 0.90326 0.15792 0.0
C399 C 0.71712 0.88499 0.14692 0.0
C400 C 0.71579 0.86865 0.1581 0.0
C401 C 0.71841 0.87083 0.18012 0.0
C402 C 0.73599 0.7805 0.24261 0.0
C403 C 0.72669 0.78538 0.26144 0.0
O404 O 0.71898 0.93598 0.06448 0.0
O405 O 0.74323 0.96668 0.2549 0.0
O406 O 0.71201 0.78912 0.25497 0.0
O407 O 0.69466 0.78034 0.07157 0.0
H408 H 0.69344 0.9126 0.04843 0.0
H409 H 0.72333 0.92251 0.02733 0.0
H410 H 0.72875 0.94862 0.02587 0.0
H411 H 0.70573 0.92683 0.01396 0.0
H412 H 0.68495 0.90822 0.08314 0.0
H413 H 0.74978 0.93902 0.08292 0.0
H414 H 0.67309 0.86511 0.10624 0.0
H415 H 0.66507 0.88341 0.10782 0.0
H416 H 0.67772 0.88072 0.12983 0.0
H417 H 0.76781 0.93019 0.10503 0.0
H418 H 0.75401 0.90245 0.10803 0.0
H419 H 0.75567 0.91946 0.12926 0.0
H420 H 0.72013 0.77891 0.07292 0.0
H421 H 0.72791 0.80798 0.05024 0.0
H422 H 0.7074 0.79044 0.03259 0.0
H423 H 0.72913 0.78804 0.03551 0.0
H424 H 0.7315 0.81079 0.08717 0.0
H425 H 0.66726 0.78532 0.08772 0.0
H426 H 0.74728 0.86019 0.10717 0.0
H427 H 0.75506 0.84165 0.10551 0.0
H428 H 0.7455 0.84614 0.12953 0.0
H429 H 0.65294 0.79998 0.10941 0.0
H430 H 0.66795 0.82781 0.10713 0.0
H431 H 0.66834 0.81701 0.1312 0.0
H432 H 0.73882 0.79932 0.27049 0.0
H433 H 0.74748 0.82461 0.24721 0.0
H434 H 0.68247 0.79249 0.2436 0.0
H435 H 0.7576 0.86155 0.21036 0.0
H436 H 0.76873 0.85637 0.23197 0.0
H437 H 0.75894 0.87307 0.23576 0.0
H438 H 0.66571 0.80857 0.2316 0.0
H439 H 0.67712 0.81954 0.20724 0.0
H440 H 0.68045 0.83646 0.22932 0.0
H441 H 0.72681 0.973 0.23533 0.0
H442 H 0.74124 0.00905 0.24984 0.0
H443 H 0.76029 0.00434 0.24018 0.0
H444 H 0.75698 0.00576 0.26787 0.0
H445 H 0.76889 0.95572 0.24754 0.0
H446 H 0.70602 0.93547 0.24257 0.0
H447 H 0.76674 0.91811 0.21085 0.0
H448 H 0.76455 0.90921 0.23666 0.0
H449 H 0.78171 0.93638 0.23208 0.0
H450 H 0.68093 0.90153 0.23051 0.0
H451 H 0.68766 0.88219 0.22787 0.0
H452 H 0.68984 0.8971 0.20608 0.0
H453 H 0.70869 0.86257 0.09771 0.0
H454 H 0.70774 0.81981 0.15088 0.0
H455 H 0.71234 0.82355 0.188 0.0
H456 H 0.72513 0.87658 0.24061 0.0
H457 H 0.72726 0.92001 0.18711 0.0
H458 H 0.72232 0.91606 0.14993 0.0
H459 H 0.74725 0.77686 0.24797 0.0
H460 H 0.74395 0.794 0.2326 0.0
H461 H 0.72402 0.76699 0.23295 0.0
C462 C 0.21597 0.91106 0.03115 0.0
C463 C 0.22799 0.92596 0.04979 0.0
C464 C 0.20939 0.90449 0.07925 0.0
C465 C 0.19332 0.90791 0.07912 0.0
C466 C 0.17653 0.89683 0.09191 0.0
C467 C 0.1755 0.88167 0.10471 0.0
C468 C 0.1916 0.87813 0.10482 0.0
C469 C 0.20849 0.88988 0.09235 0.0
C470 C 0.15976 0.90121 0.09157 0.0
C471 C 0.19084 0.86168 0.1178 0.0
C472 C 0.0266 0.76904 0.0658 0.0
C473 C 0.04426 0.7669 0.0586 0.0
C474 C 0.07221 0.78612 0.08456 0.0
C475 C 0.08465 0.78363 0.09803 0.0
C476 C 0.10144 0.80082 0.10829 0.0
C477 C 0.10528 0.821 0.10571 0.0
C478 C 0.09277 0.82368 0.092 0.0
C479 C 0.07651 0.80621 0.0813 0.0
C480 C 0.11491 0.79725 0.12196 0.0
C481 C 0.09645 0.84496 0.08877 0.0
C482 C 0.06811 0.80657 0.23795 0.0
C483 C 0.08184 0.801 0.23118 0.0
C484 C 0.09969 0.81524 0.2211 0.0
C485 C 0.10377 0.83537 0.21761 0.0
C486 C 0.09037 0.84127 0.22524 0.0
C487 C 0.07281 0.82683 0.23556 0.0
C488 C 0.114 0.80863 0.21387 0.0
C489 C 0.09435 0.86266 0.22201 0.0
C490 C 0.2411 0.97647 0.249 0.0
C491 C 0.2338 0.95641 0.2604 0.0
C492 C 0.21172 0.92575 0.23728 0.0
C493 C 0.20943 0.90718 0.22941 0.0
C494 C 0.19121 0.89146 0.2197 0.0
C495 C 0.17513 0.8948 0.21713 0.0
C496 C 0.17726 0.91352 0.2252 0.0
C497 C 0.19549 0.92876 0.23536 0.0
C498 C 0.18931 0.87145 0.21186 0.0
C499 C 0.16045 0.9176 0.22264 0.0
C500 C 0.15715 0.86884 0.11718 0.0
C501 C 0.14003 0.85225 0.10679 0.0
C502 C 0.12231 0.83918 0.11747 0.0
C503 C 0.12153 0.84266 0.13919 0.0
C504 C 0.10378 0.83012 0.15035 0.0
C505 C 0.10362 0.83268 0.17192 0.0
C506 C 0.12118 0.84795 0.18315 0.0
C507 C 0.12156 0.84989 0.2052 0.0
C508 C 0.13924 0.86538 0.21582 0.0
C509 C 0.1566 0.87921 0.20498 0.0
C510 C 0.15646 0.87757 0.18294 0.0
C511 C 0.17355 0.89143 0.17152 0.0
C512 C 0.17369 0.88889 0.14994 0.0
C513 C 0.15677 0.87238 0.13895 0.0
C514 C 0.139 0.85896 0.15003 0.0
C515 C 0.13884 0.86158 0.17205 0.0
C516 C 0.01676 0.76618 0.23603 0.0
C517 C 0.03821 0.7717 0.24164 0.0
O518 O 0.22592 0.91471 0.06704 0.0
O519 O 0.22995 0.94047 0.24608 0.0
O520 O 0.05027 0.79286 0.24685 0.0
O521 O 0.05611 0.76863 0.07548 0.0
H522 H 0.22226 0.93634 0.05339 0.0
H523 H 0.19959 0.90143 0.03477 0.0
H524 H 0.22152 0.90053 0.02738 0.0
H525 H 0.21753 0.91991 0.01723 0.0
H526 H 0.19365 0.91915 0.06919 0.0
H527 H 0.22093 0.88733 0.09238 0.0
H528 H 0.14607 0.88779 0.08369 0.0
H529 H 0.16411 0.91541 0.08318 0.0
H530 H 0.1556 0.90311 0.10773 0.0
H531 H 0.20336 0.85915 0.1142 0.0
H532 H 0.17611 0.84668 0.11516 0.0
H533 H 0.19203 0.86648 0.13458 0.0
H534 H 0.05366 0.77932 0.04765 0.0
H535 H 0.01705 0.76738 0.05216 0.0
H536 H 0.03237 0.78454 0.07369 0.0
H537 H 0.01698 0.75699 0.07693 0.0
H538 H 0.08124 0.76806 0.10033 0.0
H539 H 0.06708 0.80839 0.07078 0.0
H540 H 0.11125 0.79813 0.13856 0.0
H541 H 0.13117 0.80936 0.11994 0.0
H542 H 0.11268 0.7817 0.11851 0.0
H543 H 0.0837 0.8441 0.08009 0.0
H544 H 0.1105 0.85406 0.07978 0.0
H545 H 0.0987 0.85354 0.10401 0.0
H546 H 0.04387 0.76766 0.22737 0.0
H547 H 0.07865 0.78557 0.23379 0.0
H548 H 0.06228 0.83106 0.24119 0.0
H549 H 0.11329 0.80679 0.19659 0.0
H550 H 0.11013 0.79364 0.22025 0.0
H551 H 0.12988 0.82077 0.21859 0.0
H552 H 0.08191 0.86447 0.22795 0.0
H553 H 0.09618 0.86575 0.20516 0.0
H554 H 0.10874 0.87458 0.23019 0.0
H555 H 0.21973 0.95267 0.26871 0.0
H556 H 0.24517 0.98965 0.26038 0.0
H557 H 0.22885 0.9745 0.23854 0.0
H558 H 0.25436 0.98025 0.23924 0.0
H559 H 0.22202 0.905 0.23103 0.0
H560 H 0.1971 0.94313 0.24124 0.0
H561 H 0.19005 0.87109 0.19459 0.0
H562 H 0.17445 0.85782 0.21617 0.0
H563 H 0.20165 0.86988 0.21818 0.0
H564 H 0.16496 0.93348 0.22861 0.0
H565 H 0.14694 0.90606 0.2312 0.0
H566 H 0.15592 0.91567 0.20593 0.0
H567 H 0.14061 0.84926 0.09019 0.0
H568 H 0.08987 0.81798 0.14257 0.0
H569 H 0.08962 0.82235 0.1797 0.0
H570 H 0.13957 0.86657 0.23273 0.0
H571 H 0.18712 0.90426 0.17916 0.0
H572 H 0.18734 0.89985 0.142 0.0
H573 H 0.01001 0.77019 0.24927 0.0
H574 H 0.00682 0.74927 0.23174 0.0
H575 H 0.0173 0.77499 0.22246 0.0
C576 C 0.29178 0.09175 0.99013 0.0
C577 C 0.29676 0.08406 0.96986 0.0
C578 C 0.30406 0.11044 0.9445 0.0
C579 C 0.28381 0.10471 0.94117 0.0
C580 C 0.27902 0.11523 0.92724 0.0
C581 C 0.29478 0.13212 0.91674 0.0
C582 C 0.31516 0.13806 0.92015 0.0
C583 C 0.31949 0.12699 0.93386 0.0
C584 C 0.25709 0.10843 0.92392 0.0
C585 C 0.33241 0.15629 0.90956 0.0
C586 C 0.2508 0.22149 0.98711 0.0
C587 C 0.26795 0.22448 0.97298 0.0
C588 C 0.26616 0.20794 0.93914 0.0
C589 C 0.28656 0.21405 0.93736 0.0
C590 C 0.29206 0.20284 0.92396 0.0
C591 C 0.27675 0.18479 0.91262 0.0
C592 C 0.25617 0.17887 0.91414 0.0
C593 C 0.25126 0.19093 0.92699 0.0
C594 C 0.31419 0.21 0.92237 0.0
C595 C 0.23924 0.15937 0.90292 0.0
C596 C 0.26666 0.19818 0.77372 0.0
C597 C 0.28609 0.20657 0.78251 0.0
C598 C 0.29036 0.1946 0.79497 0.0
C599 C 0.27466 0.17401 0.79912 0.0
C600 C 0.25506 0.16552 0.79005 0.0
C601 C 0.25146 0.17764 0.77711 0.0
C602 C 0.31165 0.20393 0.80359 0.0
C603 C 0.2379 0.14365 0.79391 0.0
C604 C 0.26104 0.03044 0.77804 0.0
C605 C 0.27331 0.04919 0.76453 0.0
C606 C 0.28632 0.08208 0.78518 0.0
C607 C 0.30424 0.101 0.79044 0.0
C608 C 0.30379 0.11788 0.79957 0.0
C609 C 0.28487 0.11548 0.80408 0.0
C610 C 0.26664 0.0963 0.79895 0.0
C611 C 0.26754 0.07984 0.7894 0.0
C612 C 0.32351 0.13816 0.80467 0.0
C613 C 0.2462 0.09308 0.80387 0.0
C614 C 0.29001 0.14427 0.90307 0.0
C615 C 0.28648 0.15887 0.91266 0.0
C616 C 0.28197 0.171 0.90097 0.0
C617 C 0.28156 0.16903 0.87894 0.0
C618 C 0.27802 0.18164 0.86664 0.0
C619 C 0.27702 0.17911 0.84497 0.0
C620 C 0.27978 0.16404 0.83477 0.0
C621 C 0.2787 0.16125 0.81274 0.0
C622 C 0.28087 0.14562 0.80322 0.0
C623 C 0.28408 0.13263 0.81508 0.0
C624 C 0.28569 0.13551 0.83705 0.0
C625 C 0.28918 0.12286 0.8494 0.0
C626 C 0.29077 0.1258 0.871 0.0
C627 C 0.2886 0.14127 0.88111 0.0
C628 C 0.28463 0.15391 0.869 0.0
C629 C 0.28349 0.15123 0.84691 0.0
C630 C 0.24431 0.2251 0.77305 0.0
C631 C 0.26502 0.22849 0.76775 0.0
O632 O 0.30948 0.1007 0.95784 0.0
O633 O 0.28787 0.06635 0.77654 0.0
O634 O 0.26239 0.20949 0.76152 0.0
O635 O 0.26037 0.21787 0.95276 0.0
H636 H 0.2823 0.07329 0.96112 0.0
H637 H 0.28195 0.07841 -8e-05 0.0
H638 H 0.30582 0.10313 0.99916 0.0
H639 H 0.28349 0.09948 0.9866 0.0
H640 H 0.27158 0.09219 0.94941 0.0
H641 H 0.33505 0.1314 0.93654 0.0
H642 H 0.25463 0.12053 0.93088 0.0
H643 H 0.24646 0.09346 0.93113 0.0
H644 H 0.25336 0.10668 0.90699 0.0
H645 H 0.3475 0.15977 0.91494 0.0
H646 H 0.33166 0.17036 0.91262 0.0
H647 H 0.33096 0.1529 0.89245 0.0
H648 H 0.27314 0.21442 0.97879 0.0
H649 H 0.25644 0.22635 0.00351 0.0
H650 H 0.23838 0.2048 0.98653 0.0
H651 H 0.24451 0.23075 0.982 0.0
H652 H 0.29818 0.22754 0.94643 0.0
H653 H 0.23558 0.18649 0.92843 0.0
H654 H 0.31807 0.2088 0.90591 0.0
H655 H 0.31719 0.19983 0.93149 0.0
H656 H 0.32432 0.22632 0.92859 0.0
H657 H 0.22403 0.15522 0.90844 0.0
H658 H 0.24102 0.14602 0.90512 0.0
H659 H 0.23979 0.16176 0.88597 0.0
H660 H 0.27485 0.23507 0.78209 0.0
H661 H 0.29795 0.22237 0.77933 0.0
H662 H 0.23658 0.17128 0.76997 0.0
H663 H 0.31188 0.20707 0.82066 0.0
H664 H 0.32267 0.21878 0.79641 0.0
H665 H 0.31669 0.19284 0.80095 0.0
H666 H 0.22292 0.14088 0.78914 0.0
H667 H 0.23746 0.14038 0.81064 0.0
H668 H 0.24036 0.13248 0.78474 0.0
H669 H 0.26257 0.05268 0.75728 0.0
H670 H 0.24986 0.01659 0.76818 0.0
H671 H 0.25256 0.03377 0.78987 0.0
H672 H 0.27104 0.0267 0.78639 0.0
H673 H 0.31865 0.10255 0.7872 0.0
H674 H 0.25354 0.06518 0.7857 0.0
H675 H 0.32553 0.14101 0.82185 0.0
H676 H 0.32314 0.15126 0.79825 0.0
H677 H 0.33683 0.13814 0.79838 0.0
H678 H 0.23349 0.07684 0.80009 0.0
H679 H 0.24388 0.10373 0.7948 0.0
H680 H 0.24568 0.09693 0.82067 0.0
H681 H 0.28694 0.16059 0.92956 0.0
H682 H 0.27589 0.19356 0.87365 0.0
H683 H 0.274 0.1891 0.83634 0.0
H684 H 0.27973 0.14333 0.78636 0.0
H685 H 0.29082 0.11058 0.84252 0.0
H686 H 0.29355 0.11567 0.8797 0.0
H687 H 0.23392 0.21861 0.75916 0.0
H688 H 0.24593 0.24 0.77857 0.0
H689 H 0.2374 0.21399 0.78567 0.0
C690 C 0.77981 0.09362 0.99824 0.0
C691 C 0.76621 0.08711 0.97867 0.0
C692 C 0.78485 0.08764 0.94792 0.0
C693 C 0.7823 0.10084 0.93556 0.0
C694 C 0.79663 0.11252 0.92059 0.0
C695 C 0.81372 0.11076 0.91787 0.0
C696 C 0.81547 0.09627 0.92922 0.0
C697 C 0.80085 0.08471 0.94403 0.0
C698 C 0.79398 0.12739 0.90833 0.0
C699 C 0.83328 0.09371 0.92634 0.0
C700 C 0.94748 0.26312 0.96796 0.0
C701 C 0.93604 0.24124 0.95916 0.0
C702 C 0.90376 0.21649 0.94125 0.0
C703 C 0.90846 0.20126 0.93668 0.0
C704 C 0.89488 0.1829 0.92496 0.0
C705 C 0.87643 0.17988 0.91739 0.0
C706 C 0.87173 0.19524 0.92185 0.0
C707 C 0.88544 0.2133 0.93386 0.0
C708 C 0.90019 0.16667 0.92074 0.0
C709 C 0.85218 0.19253 0.91403 0.0
C710 C 0.9108 0.20209 0.78297 0.0
C711 C 0.91146 0.1841 0.7844 0.0
C712 C 0.89684 0.16735 0.7957 0.0
C713 C 0.88086 0.16838 0.80512 0.0
C714 C 0.87977 0.18622 0.80293 0.0
C715 C 0.89513 0.20308 0.79243 0.0
C716 C 0.89862 0.14868 0.79766 0.0
C717 C 0.86252 0.1877 0.81171 0.0
C718 C 0.74973 0.00645 0.7742 0.0
C719 C 0.75852 0.02987 0.77437 0.0
C720 C 0.79277 0.0589 0.78386 0.0
C721 C 0.8121 0.06328 0.78907 0.0
C722 C 0.82618 0.08181 0.80022 0.0
C723 C 0.8209 0.09653 0.80581 0.0
C724 C 0.80164 0.09259 0.79981 0.0
C725 C 0.78769 0.07372 0.78902 0.0
C726 C 0.8466 0.08553 0.80625 0.0
C727 C 0.79575 0.10824 0.8049 0.0
C728 C 0.83092 0.12603 0.9054 0.0
C729 C 0.84573 0.14453 0.91586 0.0
C730 C 0.86178 0.16044 0.90523 0.0
C731 C 0.86324 0.15795 0.88348 0.0
C732 C 0.87915 0.17372 0.87229 0.0
C733 C 0.88021 0.17131 0.85082 0.0
C734 C 0.8652 0.1532 0.83964 0.0
C735 C 0.86557 0.15108 0.81766 0.0
C736 C 0.85081 0.13255 0.80715 0.0
C737 C 0.83554 0.116 0.81797 0.0
C738 C 0.83452 0.11809 0.83989 0.0
C739 C 0.81904 0.10199 0.85125 0.0
C740 C 0.81781 0.10451 0.87272 0.0
C741 C 0.83222 0.12307 0.88369 0.0
C742 C 0.84834 0.13923 0.87266 0.0
C743 C 0.84937 0.13681 0.85072 0.0
C744 C 0.94671 0.23838 0.74523 0.0
C745 C 0.93662 0.21868 0.75646 0.0
O746 O 0.77227 0.07776 0.96382 0.0
O747 O 0.7795 0.04026 0.77392 0.0
O748 O 0.92499 0.21887 0.7728 0.0
O749 O 0.91641 0.2344 0.95267 0.0
H750 H 0.76809 0.10161 0.97295 0.0
H751 H 0.79575 0.10531 0.99433 0.0
H752 H 0.77941 0.0801 0.00465 0.0
H753 H 0.77487 0.10078 0.01041 0.0
H754 H 0.76929 0.10227 0.9378 0.0
H755 H 0.80238 0.07408 0.95334 0.0
H756 H 0.80625 0.14363 0.91279 0.0
H757 H 0.7791 0.12576 0.91109 0.0
H758 H 0.79525 0.1247 0.8914 0.0
H759 H 0.8314 0.08035 0.93472 0.0
H760 H 0.84736 0.10812 0.93228 0.0
H761 H 0.83526 0.09139 0.9095 0.0
H762 H 0.93688 0.22988 0.9688 0.0
H763 H 0.95043 0.26195 0.98483 0.0
H764 H 0.93597 0.26748 0.97139 0.0
H765 H 0.9709 0.27869 0.94684 0.0
H766 H 0.92259 0.20349 0.94231 0.0
H767 H 0.88196 0.22513 0.93745 0.0
H768 H 0.88781 0.1514 0.92606 0.0
H769 H 0.91463 0.17085 0.92866 0.0
H770 H 0.90167 0.16477 0.9037 0.0
H771 H 0.85169 0.20675 0.91713 0.0
H772 H 0.83919 0.17943 0.92183 0.0
H773 H 0.8502 0.18854 0.897 0.0
H774 H 0.94673 0.21312 0.76073 0.0
H775 H 0.92361 0.18325 0.77718 0.0
H776 H 0.89474 0.21703 0.79117 0.0
H777 H 0.89622 0.1438 0.814 0.0
H778 H 0.91366 0.15181 0.79267 0.0
H779 H 0.88672 0.13549 0.78769 0.0
H780 H 0.86097 0.19956 0.80395 0.0
H781 H 0.86548 0.19233 0.82858 0.0
H782 H 0.84788 0.17249 0.80997 0.0
H783 H 0.7539 0.03399 0.78934 0.0
H784 H 0.73288 0.99775 0.77471 0.0
H785 H 0.75546 0.00277 0.78809 0.0
H786 H 0.75425 0.00111 0.75999 0.0
H787 H 0.81593 0.05184 0.7848 0.0
H788 H 0.77294 0.0707 0.78454 0.0
H789 H 0.84939 0.08916 0.82331 0.0
H790 H 0.85872 0.09917 0.79825 0.0
H791 H 0.8478 0.07188 0.80205 0.0
H792 H 0.78102 0.10373 0.79744 0.0
H793 H 0.80769 0.12379 0.79972 0.0
H794 H 0.79451 0.10971 0.82204 0.0
H795 H 0.84456 0.14673 0.93252 0.0
H796 H 0.89093 0.18816 0.87999 0.0
H797 H 0.89289 0.18395 0.84309 0.0
H798 H 0.85117 0.13099 0.7903 0.0
H799 H 0.80754 0.08736 0.84362 0.0
H800 H 0.80543 0.09175 0.88066 0.0
H801 H 0.96346 0.24532 0.74785 0.0
H802 H 0.94621 0.25041 0.75569 0.0
H803 H 0.93289 0.22909 0.71553 0.0
C804 C 0.79649 0.71369 0.987 0.0
C805 C 0.78334 0.70626 0.96696 0.0
C806 C 0.80258 0.69809 0.94199 0.0
C807 C 0.81828 0.71883 0.9391 0.0
C808 C 0.8345 0.72337 0.92599 0.0
C809 C 0.8351 0.70692 0.9156 0.0
C810 C 0.81929 0.68607 0.9183 0.0
C811 C 0.80321 0.68196 0.93144 0.0
C812 C 0.85115 0.74579 0.92342 0.0
C813 C 0.81952 0.66816 0.90748 0.0
C814 C 0.95621 0.72831 0.99022 0.0
C815 C 0.94268 0.71309 0.97249 0.0
C816 C 0.93374 0.72174 0.94018 0.0
C817 C 0.9169 0.70226 0.93378 0.0
C818 C 0.902 0.70069 0.92029 0.0
C819 C 0.90378 0.71907 0.91355 0.0
C820 C 0.92102 0.73876 0.91973 0.0
C821 C 0.93607 0.73978 0.93258 0.0
C822 C 0.88409 0.6794 0.91375 0.0
C823 C 0.92322 0.75875 0.91346 0.0
C824 C 0.94326 0.74811 0.78029 0.0
C825 C 0.92951 0.72699 0.78383 0.0
C826 C 0.91155 0.72066 0.79468 0.0
C827 C 0.90748 0.7358 0.80241 0.0
C828 C 0.9211 0.75701 0.79839 0.0
C829 C 0.93869 0.76282 0.7871 0.0
C830 C 0.897 0.69783 0.79802 0.0
C831 C 0.91723 0.77359 0.80622 0.0
C832 C 0.77289 0.73213 0.79154 0.0
C833 C 0.7797 0.72585 0.77161 0.0
C834 C 0.80243 0.71518 0.78468 0.0
C835 C 0.80408 0.69802 0.78736 0.0
C836 C 0.8213 0.70027 0.79699 0.0
C837 C 0.83722 0.72027 0.80429 0.0
C838 C 0.83589 0.73783 0.8013 0.0
C839 C 0.81854 0.73514 0.79144 0.0
C840 C 0.82231 0.68124 0.79974 0.0
C841 C 0.85266 0.75937 0.8089 0.0
C842 C 0.85276 0.71151 0.90266 0.0
C843 C 0.86953 0.7133 0.91263 0.0
C844 C 0.88679 0.71765 0.9016 0.0
C845 C 0.88748 0.72046 0.87993 0.0
C846 C 0.90457 0.72483 0.86829 0.0
C847 C 0.90526 0.72808 0.84707 0.0
C848 C 0.88867 0.72647 0.83652 0.0
C849 C 0.88915 0.7296 0.81491 0.0
C850 C 0.87221 0.72749 0.80488 0.0
C851 C 0.8548 0.72263 0.81591 0.0
C852 C 0.85419 0.71989 0.83759 0.0
C853 C 0.83705 0.71542 0.84922 0.0
C854 C 0.83654 0.71269 0.87052 0.0
C855 C 0.85313 0.71428 0.88102 0.0
C856 C 0.87059 0.71881 0.86962 0.0
C857 C 0.87114 0.72169 0.84789 0.0
C858 C 0.99482 0.76265 0.77247 0.0
C859 C 0.97228 0.74564 0.77022 0.0
O860 O 0.78674 0.69287 0.95486 0.0
O861 O 0.78496 0.71157 0.77581 0.0
O862 O 0.96101 0.75487 0.77033 0.0
O863 O 0.94761 0.72357 0.95418 0.0
H864 H 0.78732 0.72009 0.95803 0.0
H865 H 0.79345 0.7003 0.99613 0.0
H866 H 0.79335 0.72404 0.99683 0.0
H867 H 0.81285 0.72263 0.98324 0.0
H868 H 0.81823 0.73162 0.94709 0.0
H869 H 0.79108 0.66603 0.93371 0.0
H870 H 0.86578 0.74852 0.92937 0.0
H871 H 0.84806 0.75688 0.93185 0.0
H872 H 0.85295 0.74912 0.90662 0.0
H873 H 0.80594 0.65283 0.91098 0.0
H874 H 0.83334 0.66849 0.91241 0.0
H875 H 0.82018 0.66978 0.89036 0.0
H876 H 0.92671 0.70769 0.97653 0.0
H877 H 0.9523 0.72044 0.00523 0.0
H878 H 0.95392 0.74153 0.99178 0.0
H879 H 0.97249 0.73457 0.98708 0.0
H880 H 0.91537 0.68829 0.93942 0.0
H881 H 0.94923 0.75473 0.93762 0.0
H882 H 0.88056 0.67849 0.89685 0.0
H883 H 0.87055 0.67654 0.92248 0.0
H884 H 0.88685 0.66687 0.91697 0.0
H885 H 0.93609 0.77265 0.92183 0.0
H886 H 0.90905 0.75849 0.91665 0.0
H887 H 0.92588 0.76037 0.89648 0.0
H888 H 0.96861 0.73604 0.78409 0.0
H889 H 0.93269 0.71544 0.77801 0.0
H890 H 0.94928 0.77903 0.78402 0.0
H891 H 0.89683 0.69502 0.81484 0.0
H892 H 0.90124 0.68785 0.78913 0.0
H893 H 0.88135 0.69307 0.79326 0.0
H894 H 0.93015 0.78953 0.80335 0.0
H895 H 0.91435 0.77242 0.82321 0.0
H896 H 0.90345 0.77114 0.79827 0.0
H897 H 0.793 0.73989 0.76523 0.0
H898 H 0.76842 0.74335 0.78805 0.0
H899 H 0.75977 0.71825 0.79832 0.0
H900 H 0.78541 0.73973 0.80338 0.0
H901 H 0.79164 0.68271 0.78202 0.0
H902 H 0.81763 0.74866 0.78936 0.0
H903 H 0.8222 0.6786 0.81661 0.0
H904 H 0.83672 0.68373 0.79343 0.0
H905 H 0.80936 0.66703 0.79184 0.0
H906 H 0.84917 0.77141 0.80578 0.0
H907 H 0.867 0.76344 0.8011 0.0
H908 H 0.85525 0.75967 0.82593 0.0
H909 H 0.86914 0.71126 0.92928 0.0
H910 H 0.91767 0.72597 0.87552 0.0
H911 H 0.91895 0.73171 0.83901 0.0
H912 H 0.87261 0.72975 0.78828 0.0
H913 H 0.82382 0.71402 0.84199 0.0
H914 H 0.82297 0.7093 0.87867 0.0
H915 H 0.99967 0.77329 0.75941 0.0
H916 H 0.00418 0.75561 0.77271 0.0
H917 H 0.99764 0.77195 0.78735 0.0
C918 C 0.87571 0.60907 0.34806 0.0
C919 C 0.88257 0.62432 0.36708 0.0
C920 C 0.86474 0.61741 0.39991 0.0
C921 C 0.87066 0.6379 0.40594 0.0
C922 C 0.85951 0.64183 0.4206 0.0
C923 C 0.842 0.62491 0.42921 0.0
C924 C 0.8365 0.60427 0.42374 0.0
C925 C 0.8482 0.60082 0.40938 0.0
C926 C 0.86613 0.66404 0.42651 0.0
C927 C 0.81789 0.58585 0.43252 0.0
C928 C 0.71305 0.64216 0.39066 0.0
C929 C 0.72354 0.63349 0.40158 0.0
C930 C 0.75777 0.64193 0.4097 0.0
C931 C 0.75176 0.62377 0.42021 0.0
C932 C 0.76603 0.62158 0.43106 0.0
C933 C 0.78663 0.6382 0.4321 0.0
C934 C 0.79271 0.65653 0.42156 0.0
C935 C 0.77821 0.65799 0.41022 0.0
C936 C 0.75904 0.6014 0.44133 0.0
C937 C 0.8145 0.67459 0.42228 0.0
C938 C 0.76694 0.6528 0.56916 0.0
C939 C 0.75967 0.63227 0.56173 0.0
C940 C 0.77205 0.62756 0.54983 0.0
C941 C 0.792 0.6437 0.54518 0.0
C942 C 0.79934 0.66436 0.55268 0.0
C943 C 0.78668 0.66861 0.56459 0.0
C944 C 0.76379 0.60536 0.5421 0.0
C945 C 0.82051 0.68193 0.54798 0.0
C946 C 0.9053 0.59786 0.55871 0.0
C947 C 0.9016 0.61555 0.56277 0.0
C948 C 0.86933 0.61355 0.56007 0.0
C949 C 0.84857 0.59891 0.55735 0.0
C950 C 0.83568 0.60422 0.54832 0.0
C951 C 0.84379 0.62486 0.54237 0.0
C952 C 0.86457 0.64009 0.54636 0.0
C953 C 0.87718 0.63425 0.55507 0.0
C954 C 0.81354 0.58765 0.54456 0.0
C955 C 0.87353 0.6624 0.54092 0.0
C956 C 0.82863 0.62883 0.44256 0.0
C957 C 0.81466 0.63196 0.43254 0.0
C958 C 0.8018 0.6362 0.44389 0.0
C959 C 0.80297 0.63761 0.46593 0.0
C960 C 0.79082 0.64265 0.47784 0.0
C961 C 0.79157 0.64328 0.49952 0.0
C962 C 0.80454 0.63894 0.51013 0.0
C963 C 0.80508 0.63908 0.53215 0.0
C964 C 0.81814 0.63467 0.5422 0.0
C965 C 0.8308 0.63013 0.53083 0.0
C966 C 0.83059 0.63007 0.50879 0.0
C967 C 0.84325 0.62572 0.49684 0.0
C968 C 0.8429 0.62566 0.47518 0.0
C969 C 0.82953 0.62942 0.46458 0.0
C970 C 0.81663 0.63383 0.4763 0.0
C971 C 0.8173 0.63435 0.49842 0.0
C972 C 0.72989 0.65452 0.60425 0.0
C973 C 0.73611 0.64459 0.58784 0.0
O974 O 0.87445 0.61315 0.38478 0.0
O975 O 0.88132 0.60708 0.56729 0.0
O976 O 0.75556 0.65806 0.58084 0.0
O977 O 0.74437 0.64454 0.39894 0.0
H978 H 0.87636 0.63432 0.36466 0.0
H979 H 0.85887 0.59985 0.3467 0.0
H980 H 0.88097 0.59815 0.34949 0.0
H981 H 0.88185 0.61764 0.33359 0.0
H982 H 0.8839 0.6508 0.39911 0.0
H983 H 0.84395 0.58508 0.40478 0.0
H984 H 0.855 0.66732 0.42004 0.0
H985 H 0.88137 0.67538 0.42049 0.0
H986 H 0.86648 0.66642 0.44373 0.0
H987 H 0.81536 0.57077 0.42622 0.0
H988 H 0.80427 0.5864 0.42884 0.0
H989 H 0.81946 0.58656 0.44975 0.0
H990 H 0.71623 0.61633 0.39896 0.0
H991 H 0.70285 0.62969 0.37857 0.0
H992 H 0.724 0.65302 0.37898 0.0
H993 H 0.70179 0.6521 0.4151 0.0
H994 H 0.73603 0.61109 0.41979 0.0
H995 H 0.78271 0.67191 0.40201 0.0
H996 H 0.76962 0.59608 0.43803 0.0
H997 H 0.74351 0.58885 0.43599 0.0
H998 H 0.75889 0.60389 0.45847 0.0
H999 H 0.81617 0.68879 0.41602 0.0
H1000 H 0.82382 0.67028 0.41283 0.0
H1001 H 0.82066 0.67827 0.43854 0.0
H1002 H 0.72481 0.63582 0.57488 0.0
H1003 H 0.74439 0.61988 0.56511 0.0
H1004 H 0.79215 0.68438 0.57043 0.0
H1005 H 0.76344 0.60436 0.52479 0.0
H1006 H 0.74823 0.59445 0.54766 0.0
H1007 H 0.77396 0.60028 0.54741 0.0
H1008 H 0.82388 0.69718 0.5548 0.0
H1009 H 0.8224 0.68297 0.53084 0.0
H1010 H 0.83179 0.67875 0.55425 0.0
H1011 H 0.90523 0.62388 0.54802 0.0
H1012 H 0.92146 0.60423 0.55489 0.0
H1013 H 0.89566 0.58761 0.5453 0.0
H1014 H 0.90145 0.58831 0.57258 0.0
H1015 H 0.84263 0.58307 0.56159 0.0
H1016 H 0.89314 0.64583 0.55787 0.0
H1017 H 0.8096 0.58623 0.52772 0.0
H1018 H 0.80399 0.5922 0.55321 0.0
H1019 H 0.80973 0.5722 0.54959 0.0
H1020 H 0.88925 0.67281 0.54727 0.0
H1021 H 0.86394 0.66816 0.54702 0.0
H1022 H 0.87383 0.66329 0.5237 0.0
H1023 H 0.81371 0.63096 0.41563 0.0
H1024 H 0.78051 0.64608 0.47053 0.0
H1025 H 0.78175 0.6471 0.50785 0.0
H1026 H 0.81837 0.63466 0.5591 0.0
H1027 H 0.85363 0.62237 0.5041 0.0
H1028 H 0.85306 0.62234 0.46681 0.0
H1029 H 0.72665 0.63795 0.63064 0.0
H1030 H 0.71685 0.65466 0.59698 0.0
H1031 H 0.74082 0.67186 0.60378 0.0
C1032 C 0.36915 0.25585 0.35725 0.0
C1033 C 0.35831 0.25506 0.37745 0.0
C1034 C 0.37182 0.2488 0.40852 0.0
C1035 C 0.35375 0.23352 0.41746 0.0
C1036 C 0.35389 0.22017 0.43174 0.0
C1037 C 0.37248 0.22219 0.43714 0.0
C1038 C 0.39081 0.23813 0.42876 0.0
C1039 C 0.39025 0.25145 0.41474 0.0
C1040 C 0.33413 0.20369 0.4408 0.0
C1041 C 0.4109 0.24076 0.43421 0.0
C1042 C 0.34946 0.06714 0.39867 0.0
C1043 C 0.36019 0.08836 0.40909 0.0
C1044 C 0.35263 0.11376 0.42365 0.0
C1045 C 0.373 0.13044 0.42538 0.0
C1046 C 0.37802 0.1499 0.43418 0.0
C1047 C 0.36241 0.15267 0.44151 0.0
C1048 C 0.3419 0.13606 0.4394 0.0
C1049 C 0.33729 0.11681 0.43042 0.0
C1050 C 0.40003 0.1674 0.43608 0.0
C1051 C 0.32489 0.13853 0.44701 0.0
C1052 C 0.37381 0.13516 0.57471 0.0
C1053 C 0.39322 0.15285 0.57201 0.0
C1054 C 0.39565 0.1696 0.56109 0.0
C1055 C 0.37829 0.16883 0.55323 0.0
C1056 C 0.35869 0.15142 0.55684 0.0
C1057 C 0.35677 0.13463 0.56716 0.0
C1058 C 0.41678 0.1879 0.55757 0.0
C1059 C 0.33974 0.15027 0.54943 0.0
C1060 C 0.41347 0.33186 0.57258 0.0
C1061 C 0.39827 0.30848 0.57393 0.0
C1062 C 0.40276 0.27921 0.56748 0.0
C1063 C 0.41763 0.27462 0.56345 0.0
C1064 C 0.41256 0.25535 0.55411 0.0
C1065 C 0.39197 0.24012 0.54919 0.0
C1066 C 0.3767 0.24426 0.55425 0.0
C1067 C 0.38226 0.26385 0.56319 0.0
C1068 C 0.42924 0.25143 0.54911 0.0
C1069 C 0.35454 0.2281 0.5499 0.0
C1070 C 0.37255 0.20684 0.45054 0.0
C1071 C 0.36824 0.18798 0.44095 0.0
C1072 C 0.36758 0.17254 0.45252 0.0
C1073 C 0.37134 0.17589 0.47428 0.0
C1074 C 0.37085 0.16067 0.48633 0.0
C1075 C 0.3742 0.1639 0.50777 0.0
C1076 C 0.37793 0.1824 0.51808 0.0
C1077 C 0.38059 0.18547 0.54001 0.0
C1078 C 0.38493 0.2043 0.54969 0.0
C1079 C 0.38658 0.22021 0.53804 0.0
C1080 C 0.3834 0.21718 0.51614 0.0
C1081 C 0.3845 0.23267 0.50396 0.0
C1082 C 0.38085 0.2293 0.4825 0.0
C1083 C 0.37638 0.21051 0.47232 0.0
C1084 C 0.37564 0.19489 0.48423 0.0
C1085 C 0.37901 0.19817 0.50617 0.0
C1086 C 0.37438 0.09808 0.60943 0.0
C1087 C 0.38419 0.11757 0.59786 0.0
O1088 O 0.37201 0.26136 0.39407 0.0
O1089 O 0.40882 0.29858 0.57544 0.0
O1090 O 0.37082 0.11819 0.58419 0.0
O1091 O 0.34713 0.09454 0.41569 0.0
H1092 H 0.34555 0.23865 0.37877 0.0
H1093 H 0.37498 0.24535 0.35789 0.0
H1094 H 0.38217 0.27193 0.355 0.0
H1095 H 0.35848 0.25063 0.34365 0.0
H1096 H 0.33956 0.23206 0.41335 0.0
H1097 H 0.40414 0.26356 0.40801 0.0
H1098 H 0.33034 0.18809 0.43471 0.0
H1099 H 0.32135 0.20558 0.43681 0.0
H1100 H 0.33566 0.20421 0.45804 0.0
H1101 H 0.42375 0.25368 0.42603 0.0
H1102 H 0.41034 0.22612 0.43004 0.0
H1103 H 0.41387 0.24394 0.45128 0.0
H1104 H 0.3717 0.0913 0.42128 0.0
H1105 H 0.35253 0.05754 0.40905 0.0
H1106 H 0.3594 0.07266 0.36793 0.0
H1107 H 0.33296 0.05937 0.4028 0.0
H1108 H 0.38504 0.12835 0.42005 0.0
H1109 H 0.32164 0.1039 0.42891 0.0
H1110 H 0.40215 0.18138 0.42882 0.0
H1111 H 0.41031 0.16314 0.42857 0.0
H1112 H 0.40451 0.17167 0.45281 0.0
H1113 H 0.3097 0.12418 0.44393 0.0
H1114 H 0.32546 0.15156 0.43925 0.0
H1115 H 0.32684 0.1425 0.46405 0.0
H1116 H 0.399 0.12199 0.59081 0.0
H1117 H 0.40652 0.15341 0.57786 0.0
H1118 H 0.34186 0.12098 0.56949 0.0
H1119 H 0.41884 0.19117 0.54076 0.0
H1120 H 0.42872 0.18525 0.56291 0.0
H1121 H 0.4189 0.20194 0.56621 0.0
H1122 H 0.32595 0.13798 0.55711 0.0
H1123 H 0.3377 0.14665 0.53236 0.0
H1124 H 0.34104 0.16544 0.55251 0.0
H1125 H 0.38913 0.30314 0.5591 0.0
H1126 H 0.40534 0.34012 0.57105 0.0
H1127 H 0.42301 0.33476 0.55867 0.0
H1128 H 0.42358 0.33836 0.58666 0.0
H1129 H 0.43337 0.28649 0.5671 0.0
H1130 H 0.37057 0.26706 0.56681 0.0
H1131 H 0.4284 0.24677 0.53232 0.0
H1132 H 0.42717 0.23839 0.55819 0.0
H1133 H 0.44459 0.26533 0.55282 0.0
H1134 H 0.34442 0.23276 0.55706 0.0
H1135 H 0.3506 0.21295 0.55591 0.0
H1136 H 0.35156 0.22574 0.5328 0.0
H1137 H 0.36522 0.18521 0.42426 0.0
H1138 H 0.36784 0.14602 0.47934 0.0
H1139 H 0.3737 0.15163 0.51616 0.0
H1140 H 0.38703 0.20661 0.5665 0.0
H1141 H 0.388 0.2475 0.51089 0.0
H1142 H 0.38164 0.24165 0.47397 0.0
H1143 H 0.38258 0.09011 0.60446 0.0
H1144 H 0.3599 0.08647 0.60062 0.0
H1145 H 0.37479 0.1084 0.64037 0.0
C1146 C 0.88535 0.26055 0.36153 0.0
C1147 C 0.89789 0.26746 0.38193 0.0
C1148 C 0.87692 0.23852 0.40472 0.0
C1149 C 0.86187 0.24316 0.40844 0.0
C1150 C 0.8451 0.23051 0.42072 0.0
C1151 C 0.84321 0.21279 0.42932 0.0
C1152 C 0.85825 0.20803 0.42557 0.0
C1153 C 0.87497 0.22106 0.41341 0.0
C1154 C 0.82934 0.23604 0.42451 0.0
C1155 C 0.8566 0.18913 0.43434 0.0
C1156 C 0.71526 0.11252 0.35238 0.0
C1157 C 0.7266 0.10858 0.36905 0.0
C1158 C 0.73903 0.12742 0.40258 0.0
C1159 C 0.75438 0.12354 0.40651 0.0
C1160 C 0.77067 0.13682 0.42022 0.0
C1161 C 0.77177 0.15454 0.42987 0.0
C1162 C 0.75598 0.15816 0.42631 0.0
C1163 C 0.73955 0.14422 0.41302 0.0
C1164 C 0.78693 0.13217 0.42401 0.0
C1165 C 0.75679 0.17711 0.43589 0.0
C1166 C 0.73793 0.13767 0.56462 0.0
C1167 C 0.75092 0.13095 0.55837 0.0
C1168 C 0.76887 0.14413 0.54784 0.0
C1169 C 0.77373 0.1643 0.54325 0.0
C1170 C 0.76101 0.17134 0.55022 0.0
C1171 C 0.74339 0.15797 0.56108 0.0
C1172 C 0.78247 0.1364 0.54136 0.0
C1173 C 0.76582 0.19283 0.54588 0.0
C1174 C 0.90999 0.30722 0.57134 0.0
C1175 C 0.90034 0.28851 0.58521 0.0
C1176 C 0.87989 0.25597 0.56379 0.0
C1177 C 0.87791 0.23693 0.55848 0.0
C1178 C 0.8605 0.22074 0.54789 0.0
C1179 C 0.84484 0.22386 0.54219 0.0
C1180 C 0.84678 0.24314 0.54734 0.0
C1181 C 0.86428 0.25901 0.5581 0.0
C1182 C 0.85891 0.20036 0.54262 0.0
C1183 C 0.83046 0.24705 0.54123 0.0
C1184 C 0.82533 0.19906 0.44199 0.0
C1185 C 0.80755 0.18367 0.4315 0.0
C1186 C 0.79014 0.17007 0.44236 0.0
C1187 C 0.79044 0.17169 0.46441 0.0
C1188 C 0.77336 0.15806 0.47589 0.0
C1189 C 0.77369 0.1601 0.49756 0.0
C1190 C 0.79125 0.17563 0.50863 0.0
C1191 C 0.79177 0.17785 0.53067 0.0
C1192 C 0.80947 0.19352 0.54113 0.0
C1193 C 0.82675 0.20723 0.53016 0.0
C1194 C 0.82654 0.20527 0.50815 0.0
C1195 C 0.84365 0.21888 0.49666 0.0
C1196 C 0.84331 0.21686 0.47501 0.0
C1197 C 0.82583 0.20121 0.464 0.0
C1198 C 0.80834 0.18741 0.47524 0.0
C1199 C 0.80873 0.18939 0.49736 0.0
C1200 C 0.6857 0.09756 0.56776 0.0
C1201 C 0.70774 0.1036 0.57034 0.0
O1202 O 0.89341 0.25023 0.39283 0.0
O1203 O 0.89718 0.27094 0.57405 0.0
O1204 O 0.72001 0.12499 0.57394 0.0
O1205 O 0.72387 0.11556 0.38837 0.0
H1206 H 0.89434 0.27755 0.39166 0.0
H1207 H 0.86887 0.25181 0.36478 0.0
H1208 H 0.8886 0.25031 0.35164 0.0
H1209 H 0.88896 0.27433 0.35274 0.0
H1210 H 0.86296 0.25652 0.40183 0.0
H1211 H 0.88659 0.21756 0.41047 0.0
H1212 H 0.81454 0.2235 0.41753 0.0
H1213 H 0.83356 0.25098 0.41773 0.0
H1214 H 0.82722 0.23722 0.44152 0.0
H1215 H 0.86911 0.18707 0.42924 0.0
H1216 H 0.84187 0.17494 0.42938 0.0
H1217 H 0.85692 0.19058 0.45164 0.0
H1218 H 0.74294 0.11797 0.36495 0.0
H1219 H 0.71717 0.10695 0.33675 0.0
H1220 H 0.72149 0.12949 0.35205 0.0
H1221 H 0.6988 0.10448 0.35572 0.0
H1222 H 0.75369 0.11021 0.39877 0.0
H1223 H 0.7275 0.14694 0.40995 0.0
H1224 H 0.79069 0.13387 0.44093 0.0
H1225 H 0.80094 0.1435 0.41595 0.0
H1226 H 0.78225 0.11622 0.41811 0.0
H1227 H 0.7445 0.17883 0.42971 0.0
H1228 H 0.77167 0.1914 0.43288 0.0
H1229 H 0.75527 0.17591 0.45303 0.0
H1230 H 0.71165 0.09887 0.55527 0.0
H1231 H 0.74711 0.11546 0.56174 0.0
H1232 H 0.7334 0.16309 0.56627 0.0
H1233 H 0.78191 0.13415 0.52412 0.0
H1234 H 0.77787 0.12139 0.54823 0.0
H1235 H 0.79846 0.14812 0.54614 0.0
H1236 H 0.75351 0.19528 0.5508 0.0
H1237 H 0.76836 0.19548 0.52898 0.0
H1238 H 0.78004 0.20464 0.55438 0.0
H1239 H 0.88563 0.28602 0.59054 0.0
H1240 H 0.91348 0.32152 0.58058 0.0
H1241 H 0.89932 0.30455 0.55842 0.0
H1242 H 0.92417 0.30975 0.56436 0.0
H1243 H 0.89006 0.23476 0.56281 0.0
H1244 H 0.86573 0.27379 0.56167 0.0
H1245 H 0.85837 0.19772 0.52542 0.0
H1246 H 0.84459 0.18732 0.54875 0.0
H1247 H 0.87191 0.20002 0.54912 0.0
H1248 H 0.83444 0.26306 0.54597 0.0
H1249 H 0.81599 0.23573 0.54861 0.0
H1250 H 0.82783 0.24463 0.52407 0.0
H1251 H 0.80724 0.18232 0.41459 0.0
H1252 H 0.75948 0.14572 0.46822 0.0
H1253 H 0.75999 0.1493 0.50552 0.0
H1254 H 0.80973 0.19519 0.55802 0.0
H1255 H 0.85753 0.23126 0.50427 0.0
H1256 H 0.85693 0.22779 0.46701 0.0
H1257 H 0.68067 0.10242 0.58191 0.0
H1258 H 0.67555 0.08044 0.56483 0.0
H1259 H 0.68426 0.10532 0.55424 0.0
C1260 C 0.06751 0.4683 0.27859 0.0
C1261 C 0.04436 0.45518 0.2803 0.0
C1262 C 0.02751 0.46329 0.25444 0.0
C1263 C 0.00652 0.45438 0.25391 0.0
C1264 C 0.99814 0.46535 0.24649 0.0
C1265 C 0.01115 0.48556 0.23924 0.0
C1266 C 0.03243 0.49453 0.23966 0.0
C1267 C 0.04037 0.4832 0.24719 0.0
C1268 C 0.9754 0.45533 0.24622 0.0
C1269 C 0.04671 0.51596 0.2319 0.0
C1270 C 0.97588 0.56197 0.34005 0.0
C1271 C 0.98891 0.57278 0.32133 0.0
C1272 C 0.98079 0.55491 0.287 0.0
C1273 C 0.00045 0.56309 0.27949 0.0
C1274 C 0.00411 0.55267 0.26313 0.0
C1275 C 0.98777 0.53359 0.25433 0.0
C1276 C 0.96785 0.52558 0.26164 0.0
C1277 C 0.96459 0.53663 0.27763 0.0
C1278 C 0.02546 0.5619 0.25545 0.0
C1279 C 0.95006 0.5051 0.25299 0.0
C1280 C 0.94607 0.55127 0.13154 0.0
C1281 C 0.96714 0.55987 0.13254 0.0
C1282 C 0.975 0.54808 0.13897 0.0
C1283 C 0.96153 0.52737 0.1447 0.0
C1284 C 0.94031 0.51846 0.14302 0.0
C1285 C 0.93287 0.5305 0.13623 0.0
C1286 C 0.99771 0.55784 0.13992 0.0
C1287 C 0.9255 0.49637 0.14882 0.0
C1288 C 0.98892 0.41099 0.11527 0.0
C1289 C 0.97546 0.40959 0.09706 0.0
C1290 C 0.97898 0.44334 0.10495 0.0
C1291 C 0.99306 0.46452 0.10276 0.0
C1292 C 0.99302 0.47968 0.11605 0.0
C1293 C 0.97802 0.47342 0.13142 0.0
C1294 C 0.96302 0.45202 0.13295 0.0
C1295 C 0.96384 0.43716 0.11989 0.0
C1296 C 0.00926 0.50231 0.11394 0.0
C1297 C 0.94622 0.44476 0.14851 0.0
C1298 C 0.00254 0.49723 0.23097 0.0
C1299 C 0.99956 0.50994 0.24496 0.0
C1300 C 0.99162 0.52148 0.23825 0.0
C1301 C 0.9867 0.52055 0.21689 0.0
C1302 C 0.97928 0.53243 0.20947 0.0
C1303 C 0.97379 0.53083 0.18856 0.0
C1304 C 0.97558 0.51733 0.17424 0.0
C1305 C 0.96962 0.51523 0.15303 0.0
C1306 C 0.97086 0.50106 0.13943 0.0
C1307 C 0.97831 0.48913 0.14631 0.0
C1308 C 0.98514 0.49167 0.16724 0.0
C1309 C 0.99358 0.48063 0.17445 0.0
C1310 C 0.99949 0.48258 0.19526 0.0
C1311 C 0.99715 0.49562 0.20967 0.0
C1312 C 0.98916 0.50729 0.20263 0.0
C1313 C 0.98337 0.5055 0.18133 0.0
C1314 C 0.93168 0.58918 0.13529 0.0
C1315 C 0.94735 0.5839 0.12853 0.0
O1316 O 0.03516 0.4521 0.26093 0.0
O1317 O 0.98058 0.42945 0.09236 0.0
O1318 O 0.93793 0.56246 0.12625 0.0
O1319 O 0.97697 0.56422 0.30332 0.0
H1320 H 0.03979 0.46375 0.29123 0.0
H1321 H 0.07255 0.48432 0.27442 0.0
H1322 H 0.07271 0.46132 0.26652 0.0
H1323 H 0.07488 0.46946 0.2938 0.0
H1324 H 0.99676 0.43882 0.25932 0.0
H1325 H 0.05658 0.48973 0.24709 0.0
H1326 H 0.97142 0.46529 0.25554 0.0
H1327 H 0.96737 0.4396 0.25258 0.0
H1328 H 0.96985 0.45399 0.22998 0.0
H1329 H 0.06289 0.52087 0.23357 0.0
H1330 H 0.04445 0.52748 0.24068 0.0
H1331 H 0.04323 0.51618 0.21521 0.0
H1332 H 0.00142 0.56975 0.32116 0.0
H1333 H 0.98511 0.56827 0.35473 0.0
H1334 H 0.96976 0.54501 0.33839 0.0
H1335 H 0.96291 0.56422 0.3411 0.0
H1336 H 0.01291 0.57762 0.28638 0.0
H1337 H 0.94944 0.53062 0.28345 0.0
H1338 H 0.02552 0.56181 0.23815 0.0
H1339 H 0.03141 0.55226 0.26026 0.0
H1340 H 0.03587 0.57811 0.26181 0.0
H1341 H 0.93613 0.49981 0.26218 0.0
H1342 H 0.95377 0.49287 0.25279 0.0
H1343 H 0.94673 0.50675 0.23668 0.0
H1344 H 0.95889 0.59007 0.14145 0.0
H1345 H 0.97749 0.57573 0.12827 0.0
H1346 H 0.91665 0.52392 0.13513 0.0
H1347 H 0.00283 0.5597 0.15641 0.0
H1348 H 0.00605 0.57335 0.13306 0.0
H1349 H 0.00177 0.5475 0.13149 0.0
H1350 H 0.90947 0.49204 0.14751 0.0
H1351 H 0.92867 0.49433 0.16507 0.0
H1352 H 0.92746 0.48548 0.13846 0.0
H1353 H 0.95922 0.40021 0.10134 0.0
H1354 H 0.9853 0.39529 0.1191 0.0
H1355 H 0.98639 0.41814 0.12948 0.0
H1356 H 0.00522 0.42063 0.11127 0.0
H1357 H 0.00455 0.4691 0.09101 0.0
H1358 H 0.95256 0.42083 0.12136 0.0
H1359 H 0.01691 0.50947 0.12929 0.0
H1360 H 0.00219 0.51082 0.10882 0.0
H1361 H 0.02089 0.50442 0.10249 0.0
H1362 H 0.9338 0.42831 0.14512 0.0
H1363 H 0.93973 0.4547 0.14859 0.0
H1364 H 0.95246 0.44603 0.16438 0.0
H1365 H 0.00331 0.51071 0.26137 0.0
H1366 H 0.97752 0.54302 0.21979 0.0
H1367 H 0.96797 0.54019 0.1838 0.0
H1368 H 0.96575 0.49912 0.12333 0.0
H1369 H 0.99564 0.47027 0.16411 0.0
H1370 H 0.00572 0.47356 0.19994 0.0
H1371 H 0.93892 0.60633 0.13721 0.0
H1372 H 0.9253 0.58236 0.15048 0.0
H1373 H 0.919 0.5828 0.12363 0.0
C1374 C 0.44619 0.39212 0.32885 0.0
C1375 C 0.43711 0.39765 0.31116 0.0
C1376 C 0.45511 0.40923 0.27852 0.0
C1377 C 0.45117 0.4247 0.27428 0.0
C1378 C 0.46368 0.44059 0.26097 0.0
C1379 C 0.48051 0.44102 0.25188 0.0
C1380 C 0.48389 0.42485 0.25538 0.0
C1381 C 0.47088 0.40894 0.26842 0.0
C1382 C 0.45926 0.45723 0.2571 0.0
C1383 C 0.50171 0.4248 0.24603 0.0
C1384 C 0.61149 0.59566 0.30652 0.0
C1385 C 0.60123 0.57435 0.29634 0.0
C1386 C 0.56744 0.54731 0.28315 0.0
C1387 C 0.57314 0.53397 0.27424 0.0
C1388 C 0.55949 0.51654 0.26144 0.0
C1389 C 0.53998 0.51277 0.25694 0.0
C1390 C 0.53422 0.52618 0.26595 0.0
C1391 C 0.54796 0.5431 0.2792 0.0
C1392 C 0.5659 0.50216 0.25274 0.0
C1393 C 0.51357 0.52268 0.26156 0.0
C1394 C 0.58296 0.54277 0.12438 0.0
C1395 C 0.58437 0.52748 0.13433 0.0
C1396 C 0.56752 0.51132 0.14414 0.0
C1397 C 0.54898 0.51062 0.14437 0.0
C1398 C 0.54751 0.52597 0.13439 0.0
C1399 C 0.56451 0.54176 0.1244 0.0
C1400 C 0.56956 0.495 0.15432 0.0
C1401 C 0.52805 0.52581 0.13443 0.0
C1402 C 0.40773 0.36428 0.11419 0.0
C1403 C 0.41525 0.38554 0.10531 0.0
C1404 C 0.45108 0.41135 0.11347 0.0
C1405 C 0.46921 0.41198 0.11603 0.0
C1406 C 0.48519 0.42773 0.12868 0.0
C1407 C 0.48307 0.44347 0.13857 0.0
C1408 C 0.46512 0.44346 0.13524 0.0
C1409 C 0.44931 0.42738 0.12278 0.0
C1410 C 0.50423 0.42741 0.13166 0.0
C1411 C 0.4626 0.46045 0.14485 0.0
C1412 C 0.49568 0.45938 0.2405 0.0
C1413 C 0.51014 0.47695 0.25246 0.0
C1414 C 0.52546 0.49465 0.24311 0.0
C1415 C 0.52674 0.49482 0.22114 0.0
C1416 C 0.54216 0.51225 0.2112 0.0
C1417 C 0.5437 0.51197 0.18961 0.0
C1418 C 0.52959 0.49444 0.1771 0.0
C1419 C 0.53122 0.49387 0.15516 0.0
C1420 C 0.51607 0.47687 0.14309 0.0
C1421 C 0.49954 0.46005 0.15237 0.0
C1422 C 0.49841 0.45969 0.17437 0.0
C1423 C 0.48268 0.44244 0.18428 0.0
C1424 C 0.48171 0.44229 0.20594 0.0
C1425 C 0.49636 0.45942 0.21849 0.0
C1426 C 0.51215 0.47711 0.20881 0.0
C1427 C 0.51338 0.47708 0.18674 0.0
C1428 C 0.62996 0.57496 0.13456 0.0
C1429 C 0.6188 0.5638 0.11395 0.0
O1430 O 0.44407 0.39446 0.2923 0.0
O1431 O 0.43587 0.39537 0.10161 0.0
O1432 O 0.59884 0.55874 0.11465 0.0
O1433 O 0.58026 0.5644 0.2955 0.0
H1434 H 0.44248 0.4144 0.314 0.0
H1435 H 0.46303 0.40217 0.32875 0.0
H1436 H 0.44173 0.3756 0.32701 0.0
H1437 H 0.44096 0.39472 0.34417 0.0
H1438 H 0.43841 0.42444 0.28146 0.0
H1439 H 0.47352 0.39668 0.27155 0.0
H1440 H 0.47065 0.47188 0.26576 0.0
H1441 H 0.4439 0.45283 0.26233 0.0
H1442 H 0.4605 0.46036 0.24026 0.0
H1443 H 0.50264 0.41151 0.25093 0.0
H1444 H 0.51608 0.43954 0.25072 0.0
H1445 H 0.50041 0.42392 0.22876 0.0
H1446 H 0.60653 0.56434 0.30198 0.0
H1447 H 0.61906 0.59482 0.32099 0.0
H1448 H 0.59951 0.59683 0.31524 0.0
H1449 H 0.6279 0.61499 0.28235 0.0
H1450 H 0.58813 0.53694 0.2774 0.0
H1451 H 0.5437 0.55345 0.28622 0.0
H1452 H 0.55394 0.4857 0.25527 0.0
H1453 H 0.58038 0.50561 0.25996 0.0
H1454 H 0.56797 0.5038 0.23568 0.0
H1455 H 0.51244 0.53596 0.26753 0.0
H1456 H 0.50183 0.50845 0.26914 0.0
H1457 H 0.51015 0.52017 0.24453 0.0
H1458 H 0.61903 0.54939 0.11118 0.0
H1459 H 0.59849 0.52796 0.13456 0.0
H1460 H 0.56353 0.55359 0.1167 0.0
H1461 H 0.56886 0.49678 0.1715 0.0
H1462 H 0.58411 0.49624 0.15058 0.0
H1463 H 0.5568 0.47917 0.14926 0.0
H1464 H 0.5299 0.53985 0.12756 0.0
H1465 H 0.52265 0.52492 0.15063 0.0
H1466 H 0.51611 0.51181 0.12533 0.0
H1467 H 0.41209 0.39409 0.11768 0.0
H1468 H 0.39091 0.35518 0.11526 0.0
H1469 H 0.41431 0.36658 0.13012 0.0
H1470 H 0.41256 0.35525 0.10451 0.0
H1471 H 0.47061 0.39977 0.10847 0.0
H1472 H 0.43577 0.42765 0.12017 0.0
H1473 H 0.50771 0.42824 0.14856 0.0
H1474 H 0.51724 0.44129 0.12478 0.0
H1475 H 0.50288 0.41322 0.12424 0.0
H1476 H 0.44885 0.4596 0.13871 0.0
H1477 H 0.47612 0.47599 0.14187 0.0
H1478 H 0.4613 0.45907 0.162 0.0
H1479 H 0.5095 0.47682 0.26935 0.0
H1480 H 0.55338 0.52622 0.22001 0.0
H1481 H 0.55603 0.52573 0.18283 0.0
H1482 H 0.5171 0.47681 0.12623 0.0
H1483 H 0.47103 0.42879 0.1754 0.0
H1484 H 0.46933 0.42858 0.21275 0.0
H1485 H 0.62982 0.58939 0.13754 0.0
H1486 H 0.64597 0.57909 0.13409 0.0
H1487 H 0.62256 0.56472 0.14774 0.0
C1488 C 0.41923 0.95022 0.31856 0.0
C1489 C 0.42308 0.96863 0.30612 0.0
C1490 C 0.43475 0.97135 0.27043 0.0
C1491 C 0.44935 0.99279 0.27093 0.0
C1492 C 0.46543 0.00097 0.25695 0.0
C1493 C 0.46682 0.9874 0.24217 0.0
C1494 C 0.45133 0.96602 0.24071 0.0
C1495 C 0.43532 0.95831 0.25478 0.0
C1496 C 0.48141 0.02394 0.25851 0.0
C1497 C 0.45224 0.95117 0.22501 0.0
C1498 C 0.59437 0.9819 0.29513 0.0
C1499 C 0.57646 0.97792 0.2827 0.0
C1500 C 0.56384 0.99692 0.26541 0.0
C1501 C 0.54843 0.97948 0.25377 0.0
C1502 C 0.5344 0.98099 0.24163 0.0
C1503 C 0.53563 0.00021 0.24133 0.0
C1504 C 0.55125 0.01785 0.25283 0.0
C1505 C 0.5653 0.01599 0.26455 0.0
C1506 C 0.51805 0.96192 0.22937 0.0
C1507 C 0.55284 0.03852 0.25306 0.0
C1508 C 0.58802 0.05311 0.12003 0.0
C1509 C 0.5737 0.03162 0.1198 0.0
C1510 C 0.5543 0.02392 0.12794 0.0
C1511 C 0.5494 0.03803 0.137 0.0
C1512 C 0.56359 0.05973 0.13645 0.0
C1513 C 0.58261 0.06697 0.12762 0.0
C1514 C 0.53925 0.00071 0.12733 0.0
C1515 C 0.55892 0.07529 0.14578 0.0
C1516 C 0.41579 0.03797 0.13506 0.0
C1517 C 0.42786 0.04394 0.1149 0.0
C1518 C 0.44976 0.02989 0.11938 0.0
C1519 C 0.45183 0.01312 0.1139 0.0
C1520 C 0.46695 0.01113 0.12317 0.0
C1521 C 0.48053 0.02653 0.13813 0.0
C1522 C 0.47893 0.04389 0.14335 0.0
C1523 C 0.46346 0.04531 0.13408 0.0
C1524 C 0.46822 0.99243 0.11724 0.0
C1525 C 0.49346 0.06086 0.15892 0.0
C1526 C 0.48568 0.99501 0.23023 0.0
C1527 C 0.50156 0.99484 0.23999 0.0
C1528 C 0.51983 0.00148 0.22996 0.0
C1529 C 0.52253 0.00866 0.20959 0.0
C1530 C 0.54077 0.01554 0.19909 0.0
C1531 C 0.54334 0.02275 0.17911 0.0
C1532 C 0.52764 0.02301 0.16867 0.0
C1533 C 0.53007 0.03016 0.14825 0.0
C1534 C 0.51432 0.0307 0.13859 0.0
C1535 C 0.4961 0.02428 0.14876 0.0
C1536 C 0.49322 0.01664 0.16898 0.0
C1537 C 0.47491 0.00961 0.1795 0.0
C1538 C 0.47238 0.00252 0.19956 0.0
C1539 C 0.48802 0.00211 0.20984 0.0
C1540 C 0.50655 0.00896 0.19948 0.0
C1541 C 0.50911 0.01614 0.179 0.0
C1542 C 0.64003 0.06954 0.12355 0.0
C1543 C 0.61878 0.05238 0.11572 0.0
O1544 O 0.42022 0.96273 0.28503 0.0
O1545 O 0.43433 0.0304 0.11018 0.0
O1546 O 0.60715 0.06099 0.11313 0.0
O1547 O 0.57742 0.99595 0.27771 0.0
H1548 H 0.43915 0.98116 0.30967 0.0
H1549 H 0.43034 0.94585 0.31416 0.0
H1550 H 0.40369 0.93645 0.31534 0.0
H1551 H 0.4211 0.95451 0.33554 0.0
H1552 H 0.44838 0.00309 0.28244 0.0
H1553 H 0.42372 0.94184 0.25429 0.0
H1554 H 0.4959 0.02629 0.26441 0.0
H1555 H 0.47699 0.03275 0.26916 0.0
H1556 H 0.48421 0.03044 0.24284 0.0
H1557 H 0.43841 0.93525 0.22505 0.0
H1558 H 0.46568 0.95025 0.22854 0.0
H1559 H 0.45408 0.95702 0.20912 0.0
H1560 H 0.56141 0.96603 0.28888 0.0
H1561 H 0.58814 0.97532 0.3107 0.0
H1562 H 0.60252 0.99863 0.30124 0.0
H1563 H 0.60796 0.97035 0.27528 0.0
H1564 H 0.5472 0.96464 0.25413 0.0
H1565 H 0.57729 0.02936 0.2735 0.0
H1566 H 0.51749 0.96569 0.21298 0.0
H1567 H 0.50306 0.95678 0.23623 0.0
H1568 H 0.52049 0.9488 0.22939 0.0
H1569 H 0.56542 0.05054 0.26342 0.0
H1570 H 0.53836 0.03662 0.25837 0.0
H1571 H 0.55539 0.04416 0.23702 0.0
H1572 H 0.61223 0.0408 0.12805 0.0
H1573 H 0.57767 0.02089 0.11325 0.0
H1574 H 0.59371 0.08354 0.12737 0.0
H1575 H 0.53811 0.99496 0.14316 0.0
H1576 H 0.54387 0.99223 0.11646 0.0
H1577 H 0.52394 0.99698 0.12252 0.0
H1578 H 0.57218 0.09154 0.14554 0.0
H1579 H 0.55409 0.07172 0.16216 0.0
H1580 H 0.54616 0.07415 0.13689 0.0
H1581 H 0.44125 0.06011 0.11681 0.0
H1582 H 0.41045 0.04867 0.13882 0.0
H1583 H 0.42545 0.03908 0.14832 0.0
H1584 H 0.40243 0.02174 0.13343 0.0
H1585 H 0.44127 0.00134 0.10249 0.0
H1586 H 0.46223 0.05848 0.13851 0.0
H1587 H 0.46731 0.98417 0.13141 0.0
H1588 H 0.48308 0.99761 0.11004 0.0
H1589 H 0.45591 0.98132 0.10606 0.0
H1590 H 0.49172 0.07446 0.15948 0.0
H1591 H 0.50938 0.06623 0.15499 0.0
H1592 H 0.49068 0.05461 0.1747 0.0
H1593 H 0.49961 0.9893 0.25563 0.0
H1594 H 0.55332 0.01555 0.20627 0.0
H1595 H 0.55784 0.02809 0.17196 0.0
H1596 H 0.51641 0.03653 0.12308 0.0
H1597 H 0.46232 0.00954 0.17233 0.0
H1598 H 0.45802 0.99739 0.20695 0.0
H1599 H 0.64958 0.06297 0.12615 0.0
H1600 H 0.63896 0.07671 0.13858 0.0
H1601 H 0.64751 0.08188 0.11212 0.0
C1602 C 0.55781 0.96604 0.68993 0.0
C1603 C 0.56526 0.98221 0.7082 0.0
C1604 C 0.54836 0.97909 0.74127 0.0
C1605 C 0.55601 0.00033 0.74549 0.0
C1606 C 0.5468 0.00673 0.76026 0.0
C1607 C 0.52956 0.99158 0.77085 0.0
C1608 C 0.52237 0.97019 0.76716 0.0
C1609 C 0.53215 0.9643 0.75266 0.0
C1610 C 0.55513 0.02965 0.76414 0.0
C1611 C 0.50383 0.95348 0.77785 0.0
C1612 C 0.39941 0.99591 0.71887 0.0
C1613 C 0.41191 0.99022 0.73089 0.0
C1614 C 0.4456 0.00571 0.7469 0.0
C1615 C 0.44094 0.98766 0.75695 0.0
C1616 C 0.45549 0.98736 0.76938 0.0
C1617 C 0.47504 0.00562 0.77224 0.0
C1618 C 0.47973 0.02391 0.76244 0.0
C1619 C 0.46493 0.02367 0.7498 0.0
C1620 C 0.45002 0.96738 0.7792 0.0
C1621 C 0.5004 0.04363 0.76519 0.0
C1622 C 0.43638 0.99554 0.90412 0.0
C1623 C 0.43423 0.97823 0.89263 0.0
C1624 C 0.4508 0.97947 0.88245 0.0
C1625 C 0.46995 0.99841 0.88369 0.0
C1626 C 0.47226 0.0158 0.89534 0.0
C1627 C 0.4554 0.01412 0.90541 0.0
C1628 C 0.44771 0.96058 0.87005 0.0
C1629 C 0.49243 0.03623 0.89684 0.0
C1630 C 0.5719 0.94796 0.89473 0.0
C1631 C 0.57709 0.96823 0.9065 0.0
C1632 C 0.54889 0.9732 0.90414 0.0
C1633 C 0.5284 0.95925 0.89913 0.0
C1634 C 0.51713 0.96565 0.88852 0.0
C1635 C 0.5265 0.98677 0.88352 0.0
C1636 C 0.54706 0.00118 0.88949 0.0
C1637 C 0.55813 0.99416 0.89955 0.0
C1638 C 0.49524 0.94976 0.8826 0.0
C1639 C 0.55733 0.02394 0.8852 0.0
C1640 C 0.51772 0.99782 0.78394 0.0
C1641 C 0.50428 0.00148 0.77358 0.0
C1642 C 0.49081 0.00505 0.78454 0.0
C1643 C 0.49094 0.00545 0.80657 0.0
C1644 C 0.47757 0.009 0.81808 0.0
C1645 C 0.47666 0.00768 0.83962 0.0
C1646 C 0.4892 0.00293 0.85048 0.0
C1647 C 0.48726 -3e-05 0.87213 0.0
C1648 C 0.50027 0.99575 0.88258 0.0
C1649 C 0.51478 0.99356 0.87182 0.0
C1650 C 0.51649 0.99581 0.84999 0.0
C1651 C 0.5303 0.9929 0.83847 0.0
C1652 C 0.53118 0.99417 0.81689 0.0
C1653 C 0.51803 0.99803 0.80596 0.0
C1654 C 0.50442 0.00164 0.8173 0.0
C1655 C 0.50361 0.00047 0.83932 0.0
C1656 C 0.38875 0.97554 0.89515 0.0
C1657 C 0.4008 0.97829 0.91514 0.0
O1658 O 0.55598 0.97222 0.72617 0.0
O1659 O 0.55934 0.96616 0.91381 0.0
O1660 O 0.42062 0.99512 0.91395 0.0
O1661 O 0.43195 0.00632 0.73431 0.0
H1662 H 0.56054 0.99322 0.70445 0.0
H1663 H 0.54105 0.95798 0.68809 0.0
H1664 H 0.56169 0.95421 0.69264 0.0
H1665 H 0.56479 0.97369 0.67521 0.0
H1666 H 0.56904 0.0119 0.73719 0.0
H1667 H 0.52659 0.94797 0.74945 0.0
H1668 H 0.54451 0.03343 0.75725 0.0
H1669 H 0.57026 0.0395 0.75715 0.0
H1670 H 0.5564 0.03365 0.78115 0.0
H1671 H 0.49916 0.93757 0.77182 0.0
H1672 H 0.49091 0.95558 0.7757 0.0
H1673 H 0.50705 0.95472 0.79484 0.0
H1674 H 0.4104 0.97534 0.72526 0.0
H1675 H 0.3949 0.98593 0.70396 0.0
H1676 H 0.4104 0.01083 0.71124 0.0
H1677 H 0.37815 0.99359 0.7405 0.0
H1678 H 0.42603 0.97362 0.755 0.0
H1679 H 0.46842 0.03754 0.74206 0.0
H1680 H 0.44968 0.96937 0.79639 0.0
H1681 H 0.46165 0.96351 0.77565 0.0
H1682 H 0.43495 0.95403 0.77367 0.0
H1683 H 0.50103 0.05706 0.75826 0.0
H1684 H 0.51192 0.04123 0.75764 0.0
H1685 H 0.50458 0.04744 0.78203 0.0
H1686 H 0.40088 0.9639 0.91711 0.0
H1687 H 0.41969 0.96371 0.89128 0.0
H1688 H 0.45697 0.02741 0.91427 0.0
H1689 H 0.44934 0.96367 0.8532 0.0
H1690 H 0.43248 0.94647 0.87236 0.0
H1691 H 0.45945 0.95733 0.87451 0.0
H1692 H 0.49169 0.04841 0.9063 0.0
H1693 H 0.49754 0.04181 0.88096 0.0
H1694 H 0.50402 0.03394 0.90395 0.0
H1695 H 0.58441 0.98094 0.89538 0.0
H1696 H 0.58586 0.9493 0.88843 0.0
H1697 H 0.56134 0.94461 0.88144 0.0
H1698 H 0.56449 0.93474 0.90519 0.0
H1699 H 0.5214 0.94315 0.90309 0.0
H1700 H 0.57389 0.00502 0.90406 0.0
H1701 H 0.49201 0.95115 0.86614 0.0
H1702 H 0.48525 0.95266 0.89264 0.0
H1703 H 0.49126 0.93358 0.88461 0.0
H1704 H 0.57238 0.03352 0.89328 0.0
H1705 H 0.54762 0.02992 0.89025 0.0
H1706 H 0.55956 0.0259 0.86819 0.0
H1707 H 0.50363 0.00055 0.75666 0.0
H1708 H 0.4674 0.01246 0.81049 0.0
H1709 H 0.46581 0.01018 0.84765 0.0
H1710 H 0.49845 0.99317 0.89914 0.0
H1711 H 0.54045 0.98936 0.84595 0.0
H1712 H 0.54202 0.99169 0.8088 0.0
H1713 H 0.38879 0.98989 0.89241 0.0
H1714 H 0.37279 0.9623 0.89632 0.0
H1715 H 0.39548 0.97219 0.88144 0.0
C1716 C 0.98754 0.55857 0.70397 0.0
C1717 C 0.98186 0.56799 0.7223 0.0
C1718 C 0.99511 0.55963 0.75213 0.0
C1719 C 0.97703 0.54324 0.76004 0.0
C1720 C 0.97738 0.52929 0.77331 0.0
C1721 C 0.99616 0.53175 0.77867 0.0
C1722 C 0.01443 0.54854 0.77108 0.0
C1723 C 0.01365 0.56248 0.75817 0.0
C1724 C 0.95767 0.51181 0.7815 0.0
C1725 C 0.03474 0.55152 0.77626 0.0
C1726 C 0.99598 0.39274 0.72505 0.0
C1727 C 0.00336 0.41289 0.73692 0.0
C1728 C 0.99021 0.43292 0.75327 0.0
C1729 C 0.00909 0.44924 0.7614 0.0
C1730 C 0.01053 0.46559 0.77395 0.0
C1731 C 0.99265 0.46528 0.77907 0.0
C1732 C 0.97359 0.44868 0.77121 0.0
C1733 C 0.97267 0.43283 0.75821 0.0
C1734 C 0.03126 0.48335 0.78143 0.0
C1735 C 0.95421 0.44777 0.77643 0.0
C1736 C 0.02627 0.45502 0.90911 0.0
C1737 C 0.03993 0.46714 0.89384 0.0
C1738 C 0.03773 0.48187 0.8838 0.0
C1739 C 0.02108 0.48395 0.88862 0.0
C1740 C 0.00752 0.472 0.90431 0.0
C1741 C 0.01055 0.45796 0.91461 0.0
C1742 C 0.05317 0.49506 0.86796 0.0
C1743 C 0.98965 0.47378 0.90997 0.0
C1744 C 0.04888 0.6391 0.93852 0.0
C1745 C 0.03632 0.61457 0.93298 0.0
C1746 C 0.03944 0.59086 0.90812 0.0
C1747 C 0.05309 0.58854 0.89593 0.0
C1748 C 0.04731 0.56937 0.88576 0.0
C1749 C 0.02726 0.55214 0.88772 0.0
C1750 C 0.01329 0.55436 0.89992 0.0
C1751 C 0.01949 0.57371 0.90997 0.0
C1752 C 0.0626 0.56755 0.87284 0.0
C1753 C 0.99175 0.53631 0.90216 0.0
C1754 C 0.99662 0.5162 0.79136 0.0
C1755 C 0.99312 0.49798 0.78102 0.0
C1756 C 0.99415 0.48295 0.79165 0.0
C1757 C 0.99848 0.48595 0.81333 0.0
C1758 C 0.99895 0.47084 0.82467 0.0
C1759 C 0.00467 0.47459 0.84568 0.0
C1760 C 0.01032 0.49369 0.85609 0.0
C1761 C 0.01767 0.49834 0.87699 0.0
C1762 C 0.02281 0.51736 0.88691 0.0
C1763 C 0.0208 0.53195 0.87653 0.0
C1764 C 0.01367 0.52766 0.85559 0.0
C1765 C 0.01158 0.54205 0.84466 0.0
C1766 C 0.00553 0.53814 0.82374 0.0
C1767 C 0.00152 0.51978 0.81293 0.0
C1768 C 0.00272 0.50469 0.82387 0.0
C1769 C 0.00875 0.50861 0.84525 0.0
C1770 C 0.01954 0.41338 0.89294 0.0
C1771 C 0.03433 0.42793 0.91049 0.0
O1772 O 0.9953 0.57315 0.73892 0.0
O1773 O 0.04621 0.60981 0.91782 0.0
O1774 O 0.02776 0.44044 0.91897 0.0
O1775 O 0.98833 0.41716 0.74055 0.0
H1776 H 0.96615 0.55634 0.72685 0.0
H1777 H 0.98643 0.5441 0.70855 0.0
H1778 H 0.00334 0.56972 0.69914 0.0
H1779 H 0.977 0.55455 0.69047 0.0
H1780 H 0.96264 0.54142 0.75621 0.0
H1781 H 0.02752 0.57536 0.75218 0.0
H1782 H 0.95468 0.49669 0.77477 0.0
H1783 H 0.94457 0.51317 0.77754 0.0
H1784 H 0.95881 0.51162 0.79871 0.0
H1785 H 0.04735 0.56444 0.76787 0.0
H1786 H 0.0344 0.53697 0.7722 0.0
H1787 H 0.03795 0.55497 0.79327 0.0
H1788 H 0.0176 0.42632 0.73093 0.0
H1789 H 0.00445 0.39704 0.71 0.0
H1790 H 0.98095 0.38802 0.71761 0.0
H1791 H 0.99906 0.37472 0.74665 0.0
H1792 H 0.02283 0.44956 0.75776 0.0
H1793 H 0.95817 0.42016 0.75191 0.0
H1794 H 0.033 0.48254 0.79843 0.0
H1795 H 0.03301 0.49855 0.77879 0.0
H1796 H 0.04372 0.48286 0.77346 0.0
H1797 H 0.94049 0.43249 0.77156 0.0
H1798 H 0.95379 0.46013 0.76836 0.0
H1799 H 0.95368 0.45069 0.79346 0.0
H1800 H 0.04978 0.4378 0.90418 0.0
H1801 H 0.05249 0.4654 0.88987 0.0
H1802 H 0.00024 0.44868 0.9266 0.0
H1803 H 0.04666 0.48895 0.85203 0.0
H1804 H 0.0673 0.4949 0.86939 0.0
H1805 H 0.05715 0.51143 0.86972 0.0
H1806 H 0.97926 0.46173 0.92075 0.0
H1807 H 0.98091 0.47232 0.89569 0.0
H1808 H 0.99521 0.48935 0.91763 0.0
H1809 H 0.02093 0.60975 0.92697 0.0
H1810 H 0.03722 0.64351 0.93733 0.0
H1811 H 0.0564 0.64538 0.92325 0.0
H1812 H 0.07011 0.64873 0.9738 0.0
H1813 H 0.06842 0.60184 0.89454 0.0
H1814 H 0.00862 0.57528 0.91908 0.0
H1815 H 0.05725 0.5636 0.85632 0.0
H1816 H 0.06403 0.55473 0.87831 0.0
H1817 H 0.07783 0.58217 0.8736 0.0
H1818 H 0.98267 0.54054 0.91219 0.0
H1819 H 0.99182 0.5232 0.90899 0.0
H1820 H 0.9842 0.53071 0.88654 0.0
H1821 H 0.9901 0.49572 0.76432 0.0
H1822 H 0.99513 0.45603 0.81733 0.0
H1823 H 0.00493 0.46246 0.85356 0.0
H1824 H 0.02871 0.52098 0.90284 0.0
H1825 H 0.01481 0.55662 0.85208 0.0
H1826 H 0.00437 0.54985 0.81605 0.0
H1827 H 0.00396 0.40362 0.89901 0.0
H1828 H 0.02434 0.40303 0.88606 0.0
H1829 H 0.01915 0.42259 0.88025 0.0
C1830 C 0.5544 0.58751 0.70343 0.0
C1831 C 0.56928 0.59571 0.72219 0.0
C1832 C 0.55007 0.5691 0.74775 0.0
C1833 C 0.53561 0.57443 0.75207 0.0
C1834 C 0.51928 0.56248 0.76513 0.0
C1835 C 0.5175 0.54502 0.77424 0.0
C1836 C 0.53233 0.53998 0.77045 0.0
C1837 C 0.54842 0.55211 0.75723 0.0
C1838 C 0.50369 0.56825 0.76888 0.0
C1839 C 0.53096 0.52155 0.78004 0.0
C1840 C 0.36982 0.41886 0.75272 0.0
C1841 C 0.38564 0.41984 0.73765 0.0
C1842 C 0.41806 0.44318 0.75676 0.0
C1843 C 0.43373 0.44373 0.76778 0.0
C1844 C 0.44955 0.46232 0.77732 0.0
C1845 C 0.4496 0.48085 0.77583 0.0
C1846 C 0.43403 0.48057 0.76434 0.0
C1847 C 0.41839 0.46174 0.75486 0.0
C1848 C 0.46604 0.46209 0.7893 0.0
C1849 C 0.43372 0.50012 0.76249 0.0
C1850 C 0.40484 0.47267 0.90239 0.0
C1851 C 0.41873 0.4666 0.89827 0.0
C1852 C 0.43784 0.48059 0.89017 0.0
C1853 C 0.44289 0.50085 0.88565 0.0
C1854 C 0.42933 0.50732 0.89093 0.0
C1855 C 0.41056 0.49317 0.89957 0.0
C1856 C 0.45228 0.47342 0.88571 0.0
C1857 C 0.43431 0.52889 0.88667 0.0
C1858 C 0.57816 0.64191 0.91879 0.0
C1859 C 0.56915 0.62299 0.93231 0.0
C1860 C 0.54878 0.5913 0.90963 0.0
C1861 C 0.54704 0.57266 0.90297 0.0
C1862 C 0.52986 0.55701 0.89168 0.0
C1863 C 0.51425 0.56038 0.88644 0.0
C1864 C 0.51594 0.57929 0.89296 0.0
C1865 C 0.53314 0.59453 0.90461 0.0
C1866 C 0.52844 0.5369 0.88531 0.0
C1867 C 0.49966 0.58345 0.88745 0.0
C1868 C 0.49948 0.53133 0.78673 0.0
C1869 C 0.48304 0.51388 0.77642 0.0
C1870 C 0.46555 0.50023 0.78708 0.0
C1871 C 0.46405 0.5043 0.80848 0.0
C1872 C 0.44623 0.49142 0.81938 0.0
C1873 C 0.44514 0.49508 0.8406 0.0
C1874 C 0.462 0.51141 0.85188 0.0
C1875 C 0.46139 0.51455 0.87371 0.0
C1876 C 0.47854 0.53074 0.88446 0.0
C1877 C 0.49629 0.54419 0.87393 0.0
C1878 C 0.49702 0.54159 0.85205 0.0
C1879 C 0.51444 0.55515 0.84088 0.0
C1880 C 0.51524 0.55199 0.81945 0.0
C1881 C 0.49867 0.53512 0.80838 0.0
C1882 C 0.48084 0.52152 0.81927 0.0
C1883 C 0.47993 0.5249 0.84107 0.0
C1884 C 0.35276 0.43429 0.89461 0.0
C1885 C 0.37363 0.43854 0.9008 0.0
O1886 O 0.56561 0.57957 0.73443 0.0
O1887 O 0.56588 0.60568 0.92054 0.0
O1888 O 0.38571 0.45896 0.90861 0.0
O1889 O 0.40295 0.4244 0.74855 0.0
H1890 H 0.5674 0.60718 0.73168 0.0
H1891 H 0.53855 0.58042 0.70867 0.0
H1892 H 0.55539 0.5755 0.69394 0.0
H1893 H 0.55783 0.60049 0.69342 0.0
H1894 H 0.5367 0.58766 0.74513 0.0
H1895 H 0.55968 0.54817 0.75394 0.0
H1896 H 0.48847 0.55507 0.76352 0.0
H1897 H 0.50722 0.5823 0.76067 0.0
H1898 H 0.50287 0.5712 0.78585 0.0
H1899 H 0.54462 0.52077 0.77703 0.0
H1900 H 0.51741 0.50697 0.77351 0.0
H1901 H 0.52906 0.5223 0.79715 0.0
H1902 H 0.38968 0.43206 0.72638 0.0
H1903 H 0.35586 0.41497 0.74397 0.0
H1904 H 0.3758 0.4341 0.7613 0.0
H1905 H 0.36578 0.40688 0.76429 0.0
H1906 H 0.43339 0.42939 0.76908 0.0
H1907 H 0.40647 0.46168 0.74628 0.0
H1908 H 0.46534 0.4658 0.80609 0.0
H1909 H 0.48119 0.47421 0.78376 0.0
H1910 H 0.46461 0.44674 0.78768 0.0
H1911 H 0.42055 0.49736 0.753 0.0
H1912 H 0.44793 0.51218 0.75524 0.0
H1913 H 0.43314 0.50639 0.77826 0.0
H1914 H 0.38014 0.43626 0.88617 0.0
H1915 H 0.41454 0.45088 0.90116 0.0
H1916 H 0.39982 0.49775 0.90318 0.0
H1917 H 0.45217 0.47007 0.86869 0.0
H1918 H 0.44793 0.45906 0.89381 0.0
H1919 H 0.46803 0.4858 0.89057 0.0
H1920 H 0.42174 0.53118 0.89083 0.0
H1921 H 0.43766 0.53184 0.86991 0.0
H1922 H 0.44812 0.54061 0.89582 0.0
H1923 H 0.55453 0.61997 0.9386 0.0
H1924 H 0.58104 0.65585 0.92831 0.0
H1925 H 0.56745 0.63906 0.90585 0.0
H1926 H 0.59265 0.64519 0.91191 0.0
H1927 H 0.55919 0.57033 0.90686 0.0
H1928 H 0.53433 0.60896 0.90944 0.0
H1929 H 0.52959 0.53579 0.86812 0.0
H1930 H 0.51352 0.52339 0.88966 0.0
H1931 H 0.54069 0.53579 0.89264 0.0
H1932 H 0.504 0.59958 0.89218 0.0
H1933 H 0.48542 0.57241 0.89536 0.0
H1934 H 0.49642 0.58083 0.87039 0.0
H1935 H 0.48401 0.51068 0.75995 0.0
H1936 H 0.4329 0.47838 0.81161 0.0
H1937 H 0.43097 0.48468 0.84807 0.0
H1938 H 0.47812 0.53281 0.90125 0.0
H1939 H 0.52771 0.56831 0.84861 0.0
H1940 H 0.52908 0.5628 0.81169 0.0
H1941 H 0.34279 0.41797 0.88833 0.0
H1942 H 0.35443 0.44486 0.88231 0.0
H1943 H 0.34539 0.43698 0.9082 0.0
C1944 C 0.62471 0.7429 0.64516 0.0
C1945 C 0.63041 0.73667 0.62442 0.0
C1946 C 0.64013 0.76635 0.6027 0.0
C1947 C 0.62042 0.76237 0.59988 0.0
C1948 C 0.61709 0.77558 0.58841 0.0
C1949 C 0.63374 0.79303 0.57946 0.0
C1950 C 0.65354 0.79699 0.58207 0.0
C1951 C 0.65645 0.78357 0.59368 0.0
C1952 C 0.59579 0.771 0.58596 0.0
C1953 C 0.6716 0.81546 0.57267 0.0
C1954 C 0.60794 0.90828 0.6235 0.0
C1955 C 0.62748 0.91016 0.6313 0.0
C1956 C 0.63542 0.89126 0.60464 0.0
C1957 C 0.64999 0.89362 0.59035 0.0
C1958 C 0.64816 0.87641 0.57916 0.0
C1959 C 0.6308 0.85633 0.58179 0.0
C1960 C 0.61597 0.85376 0.59632 0.0
C1961 C 0.61858 0.87121 0.60783 0.0
C1962 C 0.66477 0.8798 0.56448 0.0
C1963 C 0.59727 0.83261 0.59956 0.0
C1964 C 0.60034 0.87131 0.45542 0.0
C1965 C 0.62027 0.87674 0.45984 0.0
C1966 C 0.62408 0.86212 0.46749 0.0
C1967 C 0.60756 0.8418 0.47114 0.0
C1968 C 0.58757 0.83601 0.46562 0.0
C1969 C 0.58428 0.85082 0.45753 0.0
C1970 C 0.64569 0.86862 0.47233 0.0
C1971 C 0.56962 0.81442 0.46898 0.0
C1972 C 0.58974 0.69846 0.43538 0.0
C1973 C 0.60265 0.71706 0.42184 0.0
C1974 C 0.61605 0.74908 0.44435 0.0
C1975 C 0.63405 0.76705 0.45149 0.0
C1976 C 0.63386 0.78322 0.46268 0.0
C1977 C 0.61504 0.78096 0.46753 0.0
C1978 C 0.59671 0.76283 0.46029 0.0
C1979 C 0.5974 0.74717 0.44854 0.0
C1980 C 0.65378 0.80259 0.4695 0.0
C1981 C 0.57636 0.75985 0.46521 0.0
C1982 C 0.63042 0.80739 0.56782 0.0
C1983 C 0.63182 0.82435 0.57895 0.0
C1984 C 0.62814 0.83811 0.56921 0.0
C1985 C 0.62278 0.83484 0.54774 0.0
C1986 C 0.61803 0.84777 0.53765 0.0
C1987 C 0.61381 0.8451 0.51633 0.0
C1988 C 0.61426 0.82943 0.50424 0.0
C1989 C 0.61101 0.82726 0.48236 0.0
C1990 C 0.6113 0.81135 0.47087 0.0
C1991 C 0.61455 0.79728 0.48069 0.0
C1992 C 0.61778 0.79919 0.50256 0.0
C1993 C 0.62082 0.78517 0.51302 0.0
C1994 C 0.62482 0.78771 0.5344 0.0
C1995 C 0.62583 0.80431 0.54618 0.0
C1996 C 0.62216 0.81821 0.5361 0.0
C1997 C 0.61801 0.81557 0.51429 0.0
C1998 C 0.59169 0.91297 0.46072 0.0
C1999 C 0.60678 0.90643 0.45561 0.0
O2000 O 0.64417 0.75425 0.61407 0.0
O2001 O 0.61748 0.73395 0.43392 0.0
O2002 O 0.59605 0.88546 0.44941 0.0
O2003 O 0.63819 0.90876 0.61469 0.0
H2004 H 0.6165 0.72703 0.61451 0.0
H2005 H 0.61733 0.75171 0.64247 0.0
H2006 H 0.63844 0.75288 0.65524 0.0
H2007 H 0.61387 0.72879 0.65353 0.0
H2008 H 0.60752 0.74915 0.60667 0.0
H2009 H 0.67158 0.78653 0.59588 0.0
H2010 H 0.59512 0.78437 0.59259 0.0
H2011 H 0.58441 0.75675 0.59381 0.0
H2012 H 0.59156 0.76899 0.56915 0.0
H2013 H 0.68597 0.81612 0.57572 0.0
H2014 H 0.67319 0.83006 0.57919 0.0
H2015 H 0.66916 0.81476 0.55556 0.0
H2016 H 0.62345 0.89743 0.64193 0.0
H2017 H 0.59961 0.90977 0.63688 0.0
H2018 H 0.59777 0.89294 0.61527 0.0
H2019 H 0.61146 0.92057 0.6125 0.0
H2020 H 0.66299 0.90912 0.5881 0.0
H2021 H 0.60723 0.86902 0.619 0.0
H2022 H 0.65961 0.87888 0.54818 0.0
H2023 H 0.66835 0.86758 0.5659 0.0
H2024 H 0.6789 0.8953 0.56749 0.0
H2025 H 0.58592 0.83362 0.60925 0.0
H2026 H 0.60169 0.82289 0.60747 0.0
H2027 H 0.59001 0.82458 0.58431 0.0
H2028 H 0.61552 0.90902 0.47031 0.0
H2029 H 0.63285 0.89243 0.4575 0.0
H2030 H 0.56899 0.84672 0.45368 0.0
H2031 H 0.64841 0.871 0.48946 0.0
H2032 H 0.65684 0.88336 0.46505 0.0
H2033 H 0.64841 0.85626 0.46682 0.0
H2034 H 0.55495 0.81274 0.46494 0.0
H2035 H 0.56936 0.81063 0.48552 0.0
H2036 H 0.5711 0.80288 0.45921 0.0
H2037 H 0.59252 0.72121 0.41439 0.0
H2038 H 0.58142 0.70214 0.44708 0.0
H2039 H 0.57839 0.68474 0.42549 0.0
H2040 H 0.59937 0.69432 0.44389 0.0
H2041 H 0.64837 0.76842 0.44812 0.0
H2042 H 0.5833 0.73341 0.44307 0.0
H2043 H 0.65608 0.8027 0.48655 0.0
H2044 H 0.65364 0.81675 0.46631 0.0
H2045 H 0.66688 0.80343 0.46151 0.0
H2046 H 0.56351 0.74398 0.4604 0.0
H2047 H 0.57466 0.77134 0.45695 0.0
H2048 H 0.57544 0.76266 0.48219 0.0
H2049 H 0.63584 0.82688 0.59545 0.0
H2050 H 0.61764 0.86022 0.54609 0.0
H2051 H 0.61039 0.85564 0.50944 0.0
H2052 H 0.60905 0.80993 0.45408 0.0
H2053 H 0.62031 0.77215 0.50476 0.0
H2054 H 0.6273 0.77661 0.54156 0.0
H2055 H 0.58199 0.91038 0.44686 0.0
H2056 H 0.59991 0.92969 0.46597 0.0
H2057 H 0.58173 0.90366 0.47348 0.0
C2058 C 0.10878 0.72808 0.66865 0.0
C2059 C 0.10239 0.73852 0.65341 0.0
C2060 C 0.11772 0.7493 0.6197 0.0
C2061 C 0.11485 0.7657 0.61668 0.0
C2062 C 0.12756 0.78167 0.60354 0.0
C2063 C 0.14374 0.78141 0.59362 0.0
C2064 C 0.14631 0.76456 0.59629 0.0
C2065 C 0.13293 0.74844 0.60897 0.0
C2066 C 0.12399 0.79907 0.60072 0.0
C2067 C 0.16358 0.76388 0.58633 0.0
C2068 C 0.27901 0.9376 0.64006 0.0
C2069 C 0.26768 0.91569 0.6313 0.0
C2070 C 0.23299 0.88891 0.62004 0.0
C2071 C 0.23783 0.87494 0.61097 0.0
C2072 C 0.22319 0.85704 0.59934 0.0
C2073 C 0.20349 0.8533 0.59632 0.0
C2074 C 0.19856 0.86727 0.6056 0.0
C2075 C 0.21335 0.88477 0.61755 0.0
C2076 C 0.22883 0.84219 0.59014 0.0
C2077 C 0.17774 0.86381 0.60273 0.0
C2078 C 0.23341 0.88642 0.46144 0.0
C2079 C 0.23667 0.87059 0.46642 0.0
C2080 C 0.22216 0.85348 0.47736 0.0
C2081 C 0.20398 0.8521 0.48335 0.0
C2082 C 0.20066 0.86801 0.47842 0.0
C2083 C 0.21551 0.88505 0.46762 0.0
C2084 C 0.22626 0.83687 0.48252 0.0
C2085 C 0.18143 0.867 0.48457 0.0
C2086 C 0.07835 0.68851 0.44735 0.0
C2087 C 0.08614 0.71163 0.44623 0.0
C2088 C 0.11957 0.74151 0.45735 0.0
C2089 C 0.13913 0.74674 0.46282 0.0
C2090 C 0.15244 0.76525 0.47442 0.0
C2091 C 0.14609 0.77904 0.48032 0.0
C2092 C 0.12659 0.77426 0.47409 0.0
C2093 C 0.11347 0.75549 0.46268 0.0
C2094 C 0.17318 0.76991 0.48063 0.0
C2095 C 0.11957 0.78889 0.47972 0.0
C2096 C 0.15874 0.79947 0.58172 0.0
C2097 C 0.17356 0.8173 0.59313 0.0
C2098 C 0.18816 0.835 0.58318 0.0
C2099 C 0.1881 0.83505 0.56116 0.0
C2100 C 0.2024 0.8527 0.55065 0.0
C2101 C 0.20253 0.85244 0.52899 0.0
C2102 C 0.18828 0.83458 0.51697 0.0
C2103 C 0.18852 0.83406 0.49494 0.0
C2104 C 0.17433 0.81594 0.48346 0.0
C2105 C 0.15974 0.7982 0.49341 0.0
C2106 C 0.15903 0.79853 0.51544 0.0
C2107 C 0.14435 0.78107 0.52596 0.0
C2108 C 0.14397 0.78146 0.54765 0.0
C2109 C 0.15855 0.79913 0.55967 0.0
C2110 C 0.17336 0.81698 0.54937 0.0
C2111 C 0.17349 0.81673 0.52725 0.0
C2112 C 0.27308 0.92227 0.42572 0.0
C2113 C 0.26404 0.90547 0.4409 0.0
O2114 O 0.10635 0.73443 0.63328 0.0
O2115 O 0.10717 0.7229 0.44695 0.0
O2116 O 0.24699 0.90308 0.4506 0.0
O2117 O 0.24679 0.90657 0.63114 0.0
H2118 H 0.11186 0.75556 0.6575 0.0
H2119 H 0.12526 0.73429 0.6672 0.0
H2120 H 0.10024 0.71096 0.6653 0.0
H2121 H 0.10598 0.73133 0.68496 0.0
H2122 H 0.10273 0.76603 0.6247 0.0
H2123 H 0.13487 0.73558 0.61135 0.0
H2124 H 0.13577 0.81323 0.60973 0.0
H2125 H 0.10884 0.7951 0.60629 0.0
H2126 H 0.12524 0.80282 0.58406 0.0
H2127 H 0.16466 0.7508 0.59166 0.0
H2128 H 0.17821 0.77871 0.58999 0.0
H2129 H 0.16138 0.76205 0.56914 0.0
H2130 H 0.27256 0.90556 0.63758 0.0
H2131 H 0.28698 0.93738 0.65452 0.0
H2132 H 0.26772 0.93989 0.64886 0.0
H2133 H 0.29472 0.95494 0.6145 0.0
H2134 H 0.25294 0.87786 0.61299 0.0
H2135 H 0.20976 0.89561 0.62469 0.0
H2136 H 0.2172 0.82596 0.5939 0.0
H2137 H 0.2439 0.84596 0.59594 0.0
H2138 H 0.22926 0.84286 0.57291 0.0
H2139 H 0.17694 0.87715 0.60923 0.0
H2140 H 0.16644 0.84963 0.61066 0.0
H2141 H 0.17341 0.86124 0.5859 0.0
H2142 H 0.27511 0.90574 0.45205 0.0
H2143 H 0.2505 0.87147 0.46185 0.0
H2144 H 0.21312 0.89732 0.46374 0.0
H2145 H 0.22475 0.8345 0.49953 0.0
H2146 H 0.24164 0.84082 0.47786 0.0
H2147 H 0.21482 0.82191 0.47436 0.0
H2148 H 0.18081 0.88023 0.47889 0.0
H2149 H 0.18035 0.86714 0.50182 0.0
H2150 H 0.16802 0.85219 0.4782 0.0
H2151 H 0.0803 0.71585 0.46024 0.0
H2152 H 0.06147 0.67909 0.44715 0.0
H2153 H 0.0839 0.68586 0.46205 0.0
H2154 H 0.08383 0.6831 0.43399 0.0
H2155 H 0.14376 0.73597 0.45837 0.0
H2156 H 0.09857 0.75187 0.45789 0.0
H2157 H 0.17532 0.77242 0.49783 0.0
H2158 H 0.18502 0.78448 0.47362 0.0
H2159 H 0.1755 0.75718 0.47549 0.0
H2160 H 0.10442 0.7835 0.47274 0.0
H2161 H 0.13072 0.80466 0.47437 0.0
H2162 H 0.11874 0.7903 0.49693 0.0
H2163 H 0.17376 0.8174 0.61003 0.0
H2164 H 0.21375 0.8669 0.55905 0.0
H2165 H 0.21402 0.86643 0.52178 0.0
H2166 H 0.17484 0.81552 0.46656 0.0
H2167 H 0.13293 0.76692 0.51754 0.0
H2168 H 0.13224 0.76763 0.55489 0.0
H2169 H 0.28865 0.93413 0.43232 0.0
H2170 H 0.26663 0.93227 0.42921 0.0
H2171 H 0.26853 0.90601 0.39699 0.0
C2172 C 0.12454 0.38044 0.65328 0.0
C2173 C 0.11121 0.37349 0.6334 0.0
C2174 C 0.13006 0.36448 0.60869 0.0
C2175 C 0.14607 0.38502 0.60554 0.0
C2176 C 0.16253 0.38896 0.59311 0.0
C2177 C 0.16306 0.37208 0.58366 0.0
C2178 C 0.14691 0.35144 0.58658 0.0
C2179 C 0.13058 0.34794 0.59899 0.0
C2180 C 0.17951 0.41117 0.59024 0.0
C2181 C 0.14708 0.3331 0.5768 0.0
C2182 C 0.28166 0.39447 0.66574 0.0
C2183 C 0.27132 0.38085 0.64594 0.0
C2184 C 0.26134 0.3903 0.61446 0.0
C2185 C 0.2457 0.37021 0.60758 0.0
C2186 C 0.23108 0.36737 0.59286 0.0
C2187 C 0.232 0.38498 0.5851 0.0
C2188 C 0.2482 0.40523 0.59147 0.0
C2189 C 0.26289 0.40758 0.60581 0.0
C2190 C 0.21431 0.34556 0.58605 0.0
C2191 C 0.24956 0.4244 0.58382 0.0
C2192 C 0.27395 0.4059 0.45283 0.0
C2193 C 0.25891 0.38511 0.45623 0.0
C2194 C 0.24081 0.38013 0.46611 0.0
C2195 C 0.23783 0.39629 0.47287 0.0
C2196 C 0.25267 0.41717 0.46877 0.0
C2197 C 0.27045 0.42165 0.45855 0.0
C2198 C 0.225 0.35764 0.46958 0.0
C2199 C 0.24995 0.43479 0.47559 0.0
C2200 C 0.10404 0.39551 0.46679 0.0
C2201 C 0.11368 0.39725 0.44549 0.0
C2202 C 0.13673 0.38515 0.4526 0.0
C2203 C 0.1386 0.36785 0.45104 0.0
C2204 C 0.15475 0.36808 0.46093 0.0
C2205 C 0.16958 0.38625 0.47241 0.0
C2206 C 0.16826 0.40412 0.47339 0.0
C2207 C 0.15177 0.40335 0.46366 0.0
C2208 C 0.1557 0.34876 0.45956 0.0
C2209 C 0.18408 0.42395 0.4851 0.0
C2210 C 0.18093 0.37604 0.57147 0.0
C2211 C 0.19745 0.37816 0.58234 0.0
C2212 C 0.21499 0.38223 0.57207 0.0
C2213 C 0.21614 0.38414 0.55023 0.0
C2214 C 0.23344 0.38799 0.53934 0.0
C2215 C 0.2346 0.3904 0.51792 0.0
C2216 C 0.21841 0.38882 0.50652 0.0
C2217 C 0.21951 0.39147 0.48477 0.0
C2218 C 0.20327 0.3902 0.47403 0.0
C2219 C 0.18581 0.38624 0.48442 0.0
C2220 C 0.18427 0.38315 0.50607 0.0
C2221 C 0.16675 0.37876 0.51691 0.0
C2222 C 0.16558 0.37633 0.5383 0.0
C2223 C 0.18184 0.37813 0.54967 0.0
C2224 C 0.19954 0.38223 0.53903 0.0
C2225 C 0.20071 0.38464 0.51717 0.0
C2226 C 0.32447 0.41729 0.45203 0.0
C2227 C 0.30222 0.40116 0.44633 0.0
O2228 O 0.11401 0.35983 0.621 0.0
O2229 O 0.12015 0.38343 0.44342 0.0
O2230 O 0.29198 0.41134 0.44416 0.0
O2231 O 0.27497 0.3936 0.62959 0.0
H2232 H 0.11537 0.38743 0.62458 0.0
H2233 H 0.14086 0.38895 0.64935 0.0
H2234 H 0.1211 0.36682 0.66223 0.0
H2235 H 0.12194 0.39107 0.66333 0.0
H2236 H 0.146 0.39809 0.61281 0.0
H2237 H 0.11819 0.33217 0.60144 0.0
H2238 H 0.19385 0.41386 0.59702 0.0
H2239 H 0.1764 0.42262 0.59776 0.0
H2240 H 0.18191 0.41402 0.57336 0.0
H2241 H 0.13332 0.31798 0.5805 0.0
H2242 H 0.16071 0.33342 0.58239 0.0
H2243 H 0.14804 0.33418 0.5596 0.0
H2244 H 0.25473 0.3715 0.64905 0.0
H2245 H 0.2787 0.38461 0.6792 0.0
H2246 H 0.27555 0.40453 0.6693 0.0
H2247 H 0.29834 0.40462 0.66377 0.0
H2248 H 0.24481 0.35675 0.61378 0.0
H2249 H 0.27519 0.42299 0.61106 0.0
H2250 H 0.2121 0.34412 0.56884 0.0
H2251 H 0.19987 0.34214 0.59315 0.0
H2252 H 0.2175 0.33371 0.59084 0.0
H2253 H 0.26231 0.43898 0.59142 0.0
H2254 H 0.23517 0.42373 0.58683 0.0
H2255 H 0.25179 0.42501 0.56672 0.0
H2256 H 0.29608 0.39075 0.45963 0.0
H2257 H 0.26124 0.37277 0.45112 0.0
H2258 H 0.28204 0.43761 0.45556 0.0
H2259 H 0.22391 0.35506 0.48653 0.0
H2260 H 0.22864 0.3468 0.46154 0.0
H2261 H 0.20988 0.35384 0.46393 0.0
H2262 H 0.26339 0.45026 0.4722 0.0
H2263 H 0.24717 0.43444 0.49259 0.0
H2264 H 0.23645 0.43282 0.46744 0.0
H2265 H 0.12685 0.41338 0.44398 0.0
H2266 H 0.09867 0.40642 0.4684 0.0
H2267 H 0.1153 0.39956 0.47954 0.0
H2268 H 0.09096 0.37938 0.46865 0.0
H2269 H 0.12703 0.35392 0.44239 0.0
H2270 H 0.15076 0.41699 0.46498 0.0
H2271 H 0.15577 0.34368 0.47548 0.0
H2272 H 0.17005 0.35229 0.45214 0.0
H2273 H 0.14272 0.33571 0.45041 0.0
H2274 H 0.1824 0.43723 0.48212 0.0
H2275 H 0.19957 0.42809 0.48065 0.0
H2276 H 0.18271 0.42154 0.50209 0.0
H2277 H 0.19671 0.37681 0.59912 0.0
H2278 H 0.24633 0.38933 0.5473 0.0
H2279 H 0.2484 0.39359 0.51042 0.0
H2280 H 0.20435 0.3926 0.45744 0.0
H2281 H 0.15374 0.37721 0.50901 0.0
H2282 H 0.15178 0.37311 0.54584 0.0
H2283 H 0.33301 0.40951 0.45397 0.0
H2284 H 0.32546 0.42578 0.46698 0.0
H2285 H 0.33169 0.42878 0.43976 0.0
C2286 C 0.99438 0.40059 0.04467 0.0
C2287 C 0.98667 0.37912 0.04391 0.0
C2288 C 0.99061 0.41028 0.06154 0.0
C2289 C 0.97836 0.39876 0.07809 0.0
H2290 H 0.00415 0.41021 0.03252 0.0
H2291 H 0.99767 0.427 0.06164 0.0
S2292 S 0.95357 0.34179 0.08284 0.0
N2293 N 0.96597 0.34647 0.06078 0.0
N2294 N 0.95794 0.36449 0.09213 0.0
C2295 C 0.97003 0.37712 0.07714 0.0
C2296 C 0.97436 0.36735 0.06017 0.0
C2297 C 0.63424 0.6052 0.0737 0.0
C2298 C 0.6504 0.60549 0.06335 0.0
C2299 C 0.62418 0.59185 0.08984 0.0
C2300 C 0.62952 0.57784 0.09607 0.0
H2301 H 0.62938 0.61554 0.06948 0.0
H2302 H 0.6121 0.59254 0.0975 0.0
S2303 S 0.67131 0.57296 0.07483 0.0
N2304 N 0.67176 0.59103 0.06112 0.0
N2305 N 0.65262 0.56575 0.09134 0.0
C2306 C 0.64584 0.57817 0.08611 0.0
C2307 C 0.65625 0.59193 0.06975 0.0
C2308 C 0.38953 0.02326 0.06906 0.0
C2309 C 0.38869 0.04068 0.0642 0.0
C2310 C 0.40205 0.02437 0.08529 0.0
C2311 C 0.41458 0.04306 0.09715 0.0
H2312 H 0.38041 0.00853 0.06029 0.0
H2313 H 0.40193 0.01045 0.08851 0.0
S2314 S 0.41703 0.09274 0.092 0.0
N2315 N 0.40074 0.07693 0.07349 0.0
N2316 N 0.42439 0.07899 0.10389 0.0
C2317 C 0.41352 0.06044 0.09286 0.0
C2318 C 0.40064 0.05929 0.07639 0.0
C2319 C 0.38216 0.00432 0.95357 0.0
C2320 C 0.37106 0.98894 0.96797 0.0
C2321 C 0.39185 0.00087 0.93688 0.0
C2322 C 0.39078 0.98186 0.93382 0.0
H2323 H 0.38354 0.01927 0.95524 0.0
H2324 H 0.40021 0.01316 0.92619 0.0
S2325 S 0.36294 0.93613 0.96651 0.0
N2326 N 0.3592 0.95375 0.97777 0.0
N2327 N 0.37719 0.94718 0.94622 0.0
C2328 C 0.37953 0.96623 0.94793 0.0
C2329 C 0.36977 0.9698 0.96505 0.0
C2330 C 0.02488 0.39897 0.96088 0.0
C2331 C 0.03484 0.38817 0.95748 0.0
C2332 C 0.02492 0.41184 0.94599 0.0
C2333 C 0.03548 0.41504 0.92725 0.0
H2334 H 0.01627 0.39689 0.97483 0.0
H2335 H 0.0163 0.41905 0.94919 0.0
S2336 S 0.06497 0.39136 0.91125 0.0
N2337 N 0.05592 0.38187 0.93418 0.0
N2338 N 0.05678 0.40686 0.90649 0.0
C2339 C 0.04604 0.40484 0.92394 0.0
C2340 C 0.04557 0.39128 0.93894 0.0
C2341 C 0.6153 0.63133 0.96267 0.0
C2342 C 0.61177 0.63537 0.98335 0.0
C2343 C 0.60154 0.62734 0.94648 0.0
C2344 C 0.58365 0.62723 0.95026 0.0
H2345 H 0.62881 0.63118 0.95889 0.0
H2346 H 0.60493 0.62432 0.93081 0.0
S2347 S 0.56761 0.63779 0.00141 0.0
N2348 N 0.58923 0.63955 0.00662 0.0
N2349 N 0.56346 0.63219 0.97609 0.0
C2350 C 0.58003 0.63151 0.9708 0.0
C2351 C 0.59401 0.63547 0.98735 0.0
C2352 C 0.00957 0.60431 0.97514 0.0
C2353 C 0.02134 0.62603 0.97945 0.0
C2354 C 0.01662 0.59373 0.96255 0.0
C2355 C 0.03562 0.60431 0.95281 0.0
H2356 H 0.99407 0.59539 0.98039 0.0
H2357 H 0.00586 0.57763 0.9577 0.0
S2358 S 0.08182 0.6671 0.95006 0.0
N2359 N 0.05565 0.66076 0.9669 0.0
N2360 N 0.07337 0.63532 0.95094 0.0
C2361 C 0.05157 0.62062 0.96373 0.0
C2362 C 0.0414 0.63614 0.97347 0.0
C2363 C 0.36169 0.41048 0.95183 0.0
C2364 C 0.3636 0.39339 0.94667 0.0
C2365 C 0.36563 0.42529 0.93726 0.0
C2366 C 0.37154 0.42357 0.9169 0.0
H2367 H 0.35684 0.41234 0.96718 0.0
H2368 H 0.36358 0.43794 0.94181 0.0
S2369 S 0.37947 0.38227 0.89559 0.0
N2370 N 0.37251 0.37608 0.91983 0.0
N2371 N 0.37964 0.40378 0.89244 0.0
C2372 C 0.37394 0.40685 0.91164 0.0
C2373 C 0.37007 0.39183 0.92652 0.0
C2374 C 0.59841 0.96969 0.9608 0.0
C2375 C 0.61952 0.98065 0.95782 0.0
C2376 C 0.58483 0.96578 0.94438 0.0
C2377 C 0.59186 0.97312 0.92442 0.0
H2378 H 0.59226 0.96391 0.9759 0.0
H2379 H 0.56872 0.95694 0.94738 0.0
S2380 S 0.64556 0.00212 0.90819 0.0
N2381 N 0.64673 0.99834 0.93311 0.0
N2382 N 0.6212 0.99119 0.90242 0.0
C2383 C 0.61288 0.98387 0.92118 0.0
C2384 C 0.62671 0.98765 0.93781 0.0
C2385 C 0.62465 0.01544 0.07831 0.0
C2386 C 0.62727 0.0242 0.05883 0.0
C2387 C 0.62118 0.0242 0.09626 0.0
C2388 C 0.62019 0.0421 0.09551 0.0
H2389 H 0.62551 0.00179 0.0798 0.0
H2390 H 0.61969 0.01716 0.11098 0.0
S2391 S 0.6265 0.07143 0.04848 0.0
N2392 N 0.62868 0.05191 0.03988 0.0
N2393 N 0.62251 0.06857 0.07371 0.0
C2394 C 0.62269 0.05101 0.07612 0.0
C2395 C 0.62606 0.04197 0.05777 0.0
C2396 C 0.95326 0.59646 0.07083 0.0
C2397 C 0.97313 0.61403 0.07013 0.0
C2398 C 0.94531 0.58652 0.08949 0.0
C2399 C 0.95684 0.59388 0.10822 0.0
H2400 H 0.94371 0.59036 0.05686 0.0
H2401 H 0.92987 0.57317 0.08934 0.0
S2402 S 0.00959 0.63947 0.11493 0.0
N2403 N 0.0042 0.63834 0.0899 0.0
N2404 N 0.9891 0.61985 0.12495 0.0
C2405 C 0.97675 0.61136 0.10773 0.0
C2406 C 0.98494 0.62136 0.0887 0.0
C2407 C 0.38671 0.36581 0.05231 0.0
C2408 C 0.38083 0.38006 0.04892 0.0
C2409 C 0.39826 0.36791 0.07 0.0
C2410 C 0.40391 0.38402 0.08539 0.0
H2411 H 0.38215 0.3527 0.04137 0.0
H2412 H 0.40234 0.3565 0.07171 0.0
S2413 S 0.39502 0.42722 0.08246 0.0
N2414 N 0.38369 0.4123 0.06126 0.0
N2415 N 0.40481 0.41586 0.09472 0.0
C2416 C 0.39913 0.39903 0.08157 0.0
C2417 C 0.38764 0.39709 0.06339 0.0
C2418 C 0.63864 0.70316 0.39606 0.0
C2419 C 0.63461 0.70248 0.37461 0.0
C2420 C 0.62822 0.70772 0.411 0.0
C2421 C 0.61312 0.7115 0.40516 0.0
H2422 H 0.65027 0.70061 0.40141 0.0
H2423 H 0.63219 0.70852 0.42731 0.0
S2424 S 0.596 0.71042 0.35105 0.0
N2425 N 0.61403 0.70532 0.34826 0.0
N2426 N 0.59417 0.71355 0.37641 0.0
C2427 C 0.60862 0.71043 0.38378 0.0
C2428 C 0.61942 0.70602 0.3685 0.0
C2429 C 0.25653 0.92257 0.39398 0.0
C2430 C 0.2838 0.93542 0.39093 0.0
C2431 C 0.24271 0.89906 0.40829 0.0
C2432 C 0.25923 0.89247 0.42276 0.0
H2433 H 0.2484 0.9288 0.38701 0.0
H2434 H 0.22675 0.89203 0.4115 0.0
S2435 S 0.32078 0.91638 0.41364 0.0
N2436 N 0.31785 0.93278 0.39945 0.0
N2437 N 0.29872 0.89749 0.42341 0.0
C2438 C 0.28567 0.90179 0.41508 0.0
C2439 C 0.29779 0.92467 0.40076 0.0
C2440 C 0.06994 0.36738 0.40528 0.0
C2441 C 0.06854 0.38325 0.39656 0.0
C2442 C 0.08441 0.37192 0.42092 0.0
C2443 C 0.09829 0.39255 0.4283 0.0
H2444 H 0.05984 0.35127 0.39995 0.0
H2445 H 0.08476 0.35915 0.42723 0.0
S2446 S 0.10002 0.43966 0.41208 0.0
N2447 N 0.08161 0.4204 0.39751 0.0
N2448 N 0.1088 0.42882 0.42682 0.0
C2449 C 0.09668 0.40849 0.42019 0.0
C2450 C 0.0819 0.40389 0.40431 0.0
C2451 C 0.04296 0.31462 0.29989 0.0
C2452 C 0.05069 0.3361 0.30028 0.0
C2453 C 0.04841 0.30507 0.28427 0.0
C2454 C 0.06175 0.31662 0.26843 0.0
H2455 H 0.03282 0.30513 0.31188 0.0
H2456 H 0.04217 0.2885 0.28462 0.0
S2457 S 0.08439 0.37295 0.26117 0.0
N2458 N 0.07124 0.3684 0.28267 0.0
N2459 N 0.08127 0.35044 0.25323 0.0
C2460 C 0.06903 0.33801 0.26827 0.0
C2461 C 0.06362 0.34775 0.28425 0.0
C2462 C 0.68844 0.73155 0.281 0.0
C2463 C 0.69733 0.73104 0.2998 0.0
C2464 C 0.69795 0.74903 0.26894 0.0
C2465 C 0.71675 0.76686 0.27516 0.0
H2466 H 0.67389 0.71838 0.2755 0.0
H2467 H 0.69049 0.7486 0.25457 0.0
S2468 S 0.74713 0.77322 0.3224 0.0
N2469 N 0.72652 0.74973 0.32368 0.0
N2470 N 0.74444 0.78261 0.30084 0.0
C2471 C 0.72607 0.76647 0.29368 0.0
C2472 C 0.71634 0.74861 0.30605 0.0
C2473 C 0.28255 0.97514 0.29317 0.0
C2474 C 0.27631 0.95873 0.30653 0.0
C2475 C 0.26912 0.97471 0.27845 0.0
C2476 C 0.24865 0.95801 0.27682 0.0
H2477 H 0.29807 0.98836 0.29385 0.0
H2478 H 0.27508 0.98765 0.26842 0.0
S2479 S 0.22463 0.91132 0.30846 0.0
N2480 N 0.24836 0.92533 0.31728 0.0
N2481 N 0.22296 0.92467 0.28989 0.0
C2482 C 0.24226 0.94157 0.29022 0.0
C2483 C 0.25605 0.94188 0.30499 0.0
C2484 C 0.70732 0.97023 0.30399 0.0
C2485 C 0.68738 0.96393 0.29815 0.0
C2486 C 0.72182 0.97376 0.28894 0.0
C2487 C 0.71702 0.97152 0.26749 0.0
H2488 H 0.71182 0.97264 0.32031 0.0
H2489 H 0.73704 0.97873 0.29411 0.0
S2490 S 0.66698 0.95547 0.24403 0.0
N2491 N 0.6635 0.95532 0.26941 0.0
N2492 N 0.69089 0.96256 0.24121 0.0
C2493 C 0.69708 0.96506 0.26146 0.0
C2494 C 0.68222 0.96108 0.27676 0.0
C2495 C 0.03641 0.72817 0.27105 0.0
C2496 C 0.03203 0.73162 0.29159 0.0
C2497 C 0.03902 0.74152 0.25532 0.0
C2498 C 0.03763 0.75904 0.25951 0.0
H2499 H 0.03723 0.71467 0.26685 0.0
H2500 H 0.04171 0.73781 0.23962 0.0
S2501 S 0.02784 0.77599 0.31095 0.0
N2502 N 0.02742 0.75456 0.31546 0.0
N2503 N 0.03243 0.77965 0.28588 0.0
C2504 C 0.03392 0.76309 0.28011 0.0
C2505 C 0.03113 0.74943 0.29613 0.0
C2506 C 0.244 0.2801 0.3004 0.0
C2507 C 0.2636 0.29822 0.3006 0.0
C2508 C 0.23261 0.27136 0.28179 0.0
C2509 C 0.2403 0.28044 0.26261 0.0
H2510 H 0.23753 0.27222 0.31465 0.0
H2511 H 0.21788 0.25704 0.28232 0.0
S2512 S 0.29033 0.32849 0.25455 0.0
N2513 N 0.28983 0.32543 0.27987 0.0
N2514 N 0.26844 0.30886 0.24499 0.0
C2515 C 0.25962 0.29885 0.26263 0.0
C2516 C 0.27123 0.3078 0.28157 0.0
C2517 C 0.30539 0.38835 0.38856 0.0
C2518 C 0.30304 0.36866 0.38865 0.0
C2519 C 0.30434 0.39835 0.407 0.0
C2520 C 0.30078 0.38902 0.42627 0.0
H2521 H 0.30861 0.39643 0.37424 0.0
H2522 H 0.30689 0.41377 0.40626 0.0
S2523 S 0.29249 0.33718 0.43505 0.0
N2524 N 0.29606 0.3398 0.40974 0.0
N2525 N 0.29425 0.35872 0.44429 0.0
C2526 C 0.29783 0.36911 0.42654 0.0
C2527 C 0.29887 0.35889 0.40778 0.0
C2528 C 0.62574 0.92819 0.40197 0.0
C2529 C 0.64486 0.94639 0.40654 0.0
C2530 C 0.61391 0.91508 0.41766 0.0
C2531 C 0.62077 0.91947 0.43858 0.0
H2532 H 0.61954 0.92425 0.38619 0.0
H2533 H 0.59904 0.90165 0.41347 0.0
S2534 S 0.66996 0.96452 0.45891 0.0
N2535 N 0.67036 0.96765 0.4336 0.0
N2536 N 0.64803 0.94295 0.46304 0.0
C2537 C 0.64002 0.93728 0.44335 0.0
C2538 C 0.65211 0.9507 0.42736 0.0
C2539 C 0.05055 0.71562 0.40885 0.0
C2540 C 0.05868 0.71595 0.38913 0.0
C2541 C 0.06007 0.71527 0.42712 0.0
C2542 C 0.07811 0.71523 0.42645 0.0
H2543 H 0.03638 0.71503 0.41018 0.0
H2544 H 0.05288 0.71431 0.44188 0.0
S2545 S 0.10588 0.71636 0.37883 0.0
N2546 N 0.08623 0.71679 0.37009 0.0
N2547 N 0.10391 0.7158 0.40442 0.0
C2548 C 0.08671 0.71609 0.40688 0.0
C2549 C 0.0771 0.71663 0.38825 0.0
C2550 C 0.28819 0.03987 0.7101 0.0
C2551 C 0.30479 0.03786 0.71414 0.0
C2552 C 0.27785 0.04295 0.72638 0.0
C2553 C 0.28389 0.04443 0.74733 0.0
H2554 H 0.28317 0.03916 0.69422 0.0
H2555 H 0.26525 0.04455 0.7225 0.0
S2556 S 0.32649 0.0403 0.76629 0.0
N2557 N 0.32665 0.03731 0.74068 0.0
N2558 N 0.30752 0.04357 0.77122 0.0
C2559 C 0.30033 0.04221 0.7516 0.0
C2560 C 0.3107 0.03881 0.73503 0.0
C2561 C 0.96178 0.24156 0.7113 0.0
C2562 C 0.95258 0.25897 0.7149 0.0
C2563 C 0.94735 0.21545 0.72071 0.0
C2564 C 0.92554 0.21027 0.73752 0.0
H2565 H 0.97599 0.24679 0.70361 0.0
H2566 H 0.95344 0.20556 0.72032 0.0
S2567 S 0.89876 0.2454 0.74244 0.0
N2568 N 0.91998 0.26199 0.72967 0.0
N2569 N 0.89663 0.22249 0.74603 0.0
C2570 C 0.91309 0.22536 0.73607 0.0
C2571 C 0.92835 0.25058 0.72643 0.0
C2572 C 0.73067 0.68553 0.74193 0.0
C2573 C 0.72945 0.69674 0.7258 0.0
C2574 C 0.74674 0.695 0.75657 0.0
C2575 C 0.76248 0.71603 0.75552 0.0
H2576 H 0.71911 0.66924 0.74335 0.0
H2577 H 0.74689 0.68572 0.76878 0.0
S2578 S 0.76601 0.75271 0.71709 0.0
N2579 N 0.74504 0.73038 0.71018 0.0
N2580 N 0.7753 0.74812 0.73773 0.0
C2581 C 0.76123 0.7276 0.7398 0.0
C2582 C 0.74477 0.71797 0.72491 0.0
C2583 C 0.70041 0.63445 0.62558 0.0
C2584 C 0.71975 0.6583 0.63945 0.0
C2585 C 0.70751 0.61943 0.60903 0.0
C2586 C 0.73541 0.63273 0.60439 0.0
H2587 H 0.68455 0.62919 0.62707 0.0
H2588 H 0.69635 0.60627 0.59926 0.0
S2589 S 0.78201 0.68394 0.6387 0.0
N2590 N 0.76188 0.68432 0.64801 0.0
N2591 N 0.77512 0.66339 0.62193 0.0
C2592 C 0.75481 0.65347 0.6227 0.0
C2593 C 0.74633 0.66707 0.63845 0.0
C2594 C 0.34659 0.0875 0.63323 0.0
C2595 C 0.36284 0.07843 0.64095 0.0
C2596 C 0.35741 0.11316 0.62335 0.0
C2597 C 0.38515 0.12669 0.61774 0.0
H2598 H 0.3303 0.07754 0.63457 0.0
H2599 H 0.34788 0.11819 0.61728 0.0
S2600 S 0.42565 0.11099 0.63868 0.0
N2601 N 0.40355 0.08973 0.64542 0.0
N2602 N 0.42237 0.12917 0.62872 0.0
C2603 C 0.40227 0.1203 0.63081 0.0
C2604 C 0.39014 0.09492 0.64042 0.0
C2605 C 0.9459 0.29901 0.61844 0.0
C2606 C 0.93904 0.29773 0.63895 0.0
C2607 C 0.93346 0.2962 0.60133 0.0
C2608 C 0.91384 0.2925 0.60405 0.0
H2609 H 0.9608 0.30164 0.61554 0.0
H2610 H 0.93916 0.29665 0.58581 0.0
S2611 S 0.88908 0.28861 0.65471 0.0
N2612 N 0.91156 0.29293 0.66112 0.0
N2613 N 0.88833 0.28808 0.62899 0.0
C2614 C 0.90695 0.29155 0.62453 0.0
C2615 C 0.91951 0.2941 0.64195 0.0
C2616 C 0.35304 0.29935 0.60617 0.0
C2617 C 0.35974 0.30098 0.6269 0.0
C2618 C 0.36529 0.30112 0.58932 0.0
C2619 C 0.38466 0.30439 0.59246 0.0
H2620 H 0.33843 0.29727 0.60284 0.0
H2621 H 0.35972 0.30038 0.57369 0.0
S2622 S 0.40909 0.3088 0.64349 0.0
N2623 N 0.38685 0.30525 0.64953 0.0
N2624 N 0.40983 0.30865 0.6178 0.0
C2625 C 0.39138 0.3055 0.61305 0.0
C2626 C 0.37891 0.30371 0.63025 0.0
C2627 C 0.70727 0.08641 0.62555 0.0
C2628 C 0.70835 0.06859 0.62214 0.0
C2629 C 0.70798 0.0981 0.60895 0.0
C2630 C 0.70976 0.09244 0.58824 0.0
H2631 H 0.70529 0.0911 0.64111 0.0
H2632 H 0.70646 0.11131 0.61226 0.0
S2633 S 0.71449 0.04801 0.57085 0.0
N2634 N 0.71248 0.0466 0.5964 0.0
N2635 N 0.71354 0.06845 0.56529 0.0
C2636 C 0.71159 0.07514 0.58465 0.0
C2637 C 0.71101 0.06328 0.60156 0.0
C2638 C 0.92402 0.63574 0.61788 0.0
C2639 C 0.94276 0.6542 0.61448 0.0
C2640 C 0.91055 0.62384 0.60132 0.0
C2641 C 0.91516 0.62997 0.58067 0.0
H2642 H 0.91992 0.63 0.6334 0.0
H2643 H 0.89667 0.60938 0.60462 0.0
S2644 S 0.96146 0.67761 0.56332 0.0
N2645 N 0.96465 0.67857 0.58883 0.0
N2646 N 0.93931 0.65608 0.55775 0.0
C2647 C 0.93347 0.64871 0.57708 0.0
C2648 C 0.94722 0.66088 0.59396 0.0
C2649 C 0.96602 0.7017 0.73321 0.0
C2650 C 0.96594 0.70861 0.71325 0.0
C2651 C 0.96729 0.71335 0.75133 0.0
C2652 C 0.96839 0.73235 0.75032 0.0
H2653 H 0.96558 0.68736 0.73494 0.0
H2654 H 0.96791 0.70767 0.76628 0.0
S2655 S 0.96803 0.75722 0.7021 0.0
N2656 N 0.96645 0.73554 0.69366 0.0
N2657 N 0.96892 0.75744 0.72779 0.0
C2658 C 0.96782 0.73926 0.73053 0.0
C2659 C 0.9665 0.72736 0.71201 0.0
C2660 C 0.28022 0.25149 0.71373 0.0
C2661 C 0.29041 0.27304 0.71851 0.0
C2662 C 0.27223 0.23718 0.7295 0.0
C2663 C 0.27469 0.24393 0.75072 0.0
H2664 H 0.27797 0.2456 0.69764 0.0
H2665 H 0.26396 0.22073 0.72499 0.0
S2666 S 0.30075 0.29876 0.77149 0.0
N2667 N 0.30275 0.30046 0.74595 0.0
N2668 N 0.28816 0.27363 0.77556 0.0
C2669 C 0.28506 0.26546 0.75565 0.0
C2670 C 0.29287 0.27999 0.73959 0.0
C2671 C 0.74818 0.03678 0.71803 0.0
C2672 C 0.73186 0.03977 0.71987 0.0
C2673 C 0.75716 0.03438 0.73564 0.0
C2674 C 0.75023 0.03493 0.75581 0.0
H2675 H 0.75376 0.03571 0.70283 0.0
H2676 H 0.76928 0.0315 0.73342 0.0
S2677 S 0.70867 0.04332 0.76941 0.0
N2678 N 0.70975 0.04404 0.74377 0.0
N2679 N 0.72654 0.03932 0.77671 0.0
C2680 C 0.73434 0.03849 0.75795 0.0
C2681 C 0.72523 0.04103 0.74006 0.0
C2682 C 0.02131 0.3046 0.06896 0.0
C2683 C 0.03601 0.32827 0.05493 0.0
C2684 C 0.03342 0.29776 0.08811 0.0
C2685 C 0.06176 0.31418 0.08865 0.0
H2686 H 0.00517 0.29443 0.06585 0.0
H2687 H 0.02519 0.28288 0.09521 0.0
S2688 S 0.09781 0.37177 0.06224 0.0
N2689 N 0.07512 0.36424 0.05119 0.0
N2690 N 0.09618 0.35488 0.07946 0.0
C2691 C 0.07605 0.34106 0.07905 0.0
C2692 C 0.06274 0.34639 0.06051 0.0
C2693 C 0.69564 0.72152 0.04727 0.0
C2694 C 0.67787 0.71287 0.03482 0.0
C2695 C 0.70517 0.74191 0.05592 0.0
C2696 C 0.69714 0.75435 0.05273 0.0
H2697 H 0.70257 0.71268 0.04999 0.0
H2698 H 0.71906 0.74805 0.06502 0.0
S2699 S 0.65034 0.73871 0.02221 0.0
N2700 N 0.65226 0.71809 0.02022 0.0
N2701 N 0.67003 0.75634 0.03673 0.0
C2702 C 0.67915 0.74575 0.04062 0.0
C2703 C 0.66955 0.72504 0.03164 0.0
C2704 C 0.28495 0.94706 0.04439 0.0
C2705 C 0.29201 0.96538 0.03372 0.0
C2706 C 0.26441 0.93431 0.04938 0.0
C2707 C 0.25023 0.93969 0.04437 0.0
H2708 H 0.29534 0.94246 0.04885 0.0
H2709 H 0.25968 0.92023 0.05735 0.0
S2710 S 0.26074 0.98563 0.01581 0.0
N2711 N 0.28296 0.98786 0.01767 0.0
N2712 N 0.24455 0.9641 0.0274 0.0
C2713 C 0.25705 0.95776 0.03338 0.0
C2714 C 0.27786 0.97058 0.02804 0.0
C2715 C 0.30371 0.03841 0.97559 0.0
C2716 C 0.3234 0.04776 0.98431 0.0
C2717 C 0.29545 0.05023 0.97096 0.0
C2718 C 0.30663 0.07199 0.97452 0.0
H2719 H 0.29433 0.02169 0.97266 0.0
H2720 H 0.28009 0.0422 0.9646 0.0
S2721 S 0.35915 0.10422 0.99651 0.0
N2722 N 0.35403 0.08014 0.99615 0.0
N2723 N 0.33864 0.10252 0.98697 0.0
C2724 C 0.32646 0.08163 0.98302 0.0
C2725 C 0.33481 0.06949 0.98802 0.0
C2726 C 0.984 0.28229 0.97371 0.0
C2727 C 0.97527 0.2996 0.96853 0.0
C2728 C 0.97311 0.25737 0.95946 0.0
C2729 C 0.95016 0.24974 0.94311 0.0
H2730 H 0.99574 0.2868 0.98543 0.0
H2731 H 0.9769 0.24619 0.96363 0.0
S2732 S 0.93111 0.28881 0.92498 0.0
N2733 N 0.94899 0.30478 0.94309 0.0
N2734 N 0.9298 0.26605 0.92084 0.0
C2735 C 0.94501 0.26924 0.93343 0.0
C2736 C 0.95663 0.29333 0.94823 0.0
C2737 C 0.73058 0.69697 0.97578 0.0
C2738 C 0.71991 0.67756 0.98494 0.0
C2739 C 0.75072 0.70577 0.96973 0.0
C2740 C 0.76103 0.69542 0.97226 0.0
H2741 H 0.72354 0.70582 0.97374 0.0
H2742 H 0.75839 0.72101 0.96329 0.0
S2743 S 0.73971 0.64366 0.99434 0.0
N2744 N 0.72099 0.64786 0.99561 0.0
N2745 N 0.75885 0.66431 0.98387 0.0
C2746 C 0.75042 0.67573 0.98089 0.0
C2747 C 0.72989 0.66682 0.98728 0.0
C2748 C 0.96655 0.68092 0.9607 0.0
C2749 C 0.95531 0.66371 0.97313 0.0
C2750 C 0.96183 0.69627 0.95964 0.0
C2751 C 0.94543 0.69477 0.97063 0.0
H2752 H 0.97995 0.68337 0.95284 0.0
H2753 H 0.97166 0.70988 0.95093 0.0
S2754 S 0.90979 0.65155 0.00335 0.0
N2755 N 0.926 0.64515 0.99515 0.0
N2756 N 0.91703 0.67389 0.993 0.0
C2757 C 0.93332 0.67698 0.98203 0.0
C2758 C 0.93821 0.66145 0.98324 0.0
C2759 C 0.31715 0.27429 0.99139 0.0
C2760 C 0.31622 0.29006 0.98182 0.0
C2761 C 0.30198 0.25327 0.98775 0.0
C2762 C 0.28534 0.24709 0.97426 0.0
H2763 H 0.32925 0.2782 0.00248 0.0
H2764 H 0.30294 0.24176 0.9961 0.0
S2765 S 0.27635 0.28193 0.944 0.0
N2766 N 0.29779 0.29781 0.9571 0.0
N2767 N 0.26924 0.25826 0.95048 0.0
C2768 C 0.28461 0.26256 0.96387 0.0
C2769 C 0.3001 0.28401 0.96751 0.0
C2770 C 0.7103 0.0662 0.98971 0.0
C2771 C 0.7027 0.04565 0.99521 0.0
C2772 C 0.73063 0.07928 0.98425 0.0
C2773 C 0.74412 0.07228 0.98383 0.0
H2774 H 0.70057 0.07237 0.98986 0.0
H2775 H 0.73586 0.09508 0.98043 0.0
S2776 S 0.73184 0.0197 0.99646 0.0
N2777 N 0.71036 0.01883 0.99968 0.0
N2778 N 0.74842 0.0434 0.98916 0.0
C2779 C 0.7367 0.05172 0.98909 0.0
C2780 C 0.71605 0.03842 0.99482 0.0
C2781 C 0.66553 0.94371 0.03959 0.0
C2782 C 0.67651 0.96539 0.0437 0.0
C2783 C 0.67472 0.93224 0.04172 0.0
C2784 C 0.69524 0.94201 0.048 0.0
H2785 H 0.64979 0.93554 0.03439 0.0
H2786 H 0.6658 0.91563 0.03797 0.0
S2787 S 0.73096 0.99857 0.05988 0.0
N2788 N 0.7092 0.99626 0.0541 0.0
N2789 N 0.72642 0.97474 0.05778 0.0
C2790 C 0.70639 0.96369 0.05221 0.0
C2791 C 0.69702 0.97534 0.05022 0.0
C2792 C 0.02813 0.72466 0.01491 0.0
C2793 C 0.01977 0.70622 0.02573 0.0
C2794 C 0.0361 0.74406 0.02556 0.0
C2795 C 0.03611 0.74582 0.04746 0.0
H2796 H 0.02825 0.72412 0.99803 0.0
H2797 H 0.04215 0.75779 0.01658 0.0
S2798 S 0.016 0.7024 0.08327 0.0
N2799 N 0.01214 0.69107 0.05975 0.0
N2800 N 0.02692 0.72747 0.07965 0.0
C2801 C 0.02789 0.72753 0.0585 0.0
C2802 C 0.01987 0.70779 0.04769 0.0
C2803 C 0.27383 0.30593 0.04089 0.0
C2804 C 0.28357 0.32482 0.0307 0.0
C2805 C 0.25278 0.29452 0.04358 0.0
C2806 C 0.24062 0.30166 0.03646 0.0
H2807 H 0.28234 0.29934 0.04605 0.0
H2808 H 0.24588 0.27961 0.05062 0.0
S2809 S 0.25866 0.35095 0.01038 0.0
N2810 N 0.27946 0.35079 0.01467 0.0
N2811 N 0.2399 0.3293 0.01977 0.0
C2812 C 0.25022 0.32094 0.02708 0.0
C2813 C 0.27168 0.33256 0.02427 0.0
C2814 C 0.67832 0.63151 0.39829 0.0
C2815 C 0.69275 0.6579 0.38951 0.0
C2816 C 0.68989 0.62239 0.41557 0.0
C2817 C 0.71792 0.64039 0.41955 0.0
H2818 H 0.66274 0.62103 0.39301 0.0
H2819 H 0.68207 0.60621 0.41938 0.0
S2820 S 0.75257 0.70304 0.40559 0.0
N2821 N 0.73057 0.69605 0.39325 0.0
N2822 N 0.75085 0.6836 0.41897 0.0
C2823 C 0.73114 0.66885 0.41573 0.0
C2824 C 0.71844 0.6763 0.39874 0.0
C2825 C 0.32992 0.05709 0.36624 0.0
C2826 C 0.34204 0.04249 0.36915 0.0
C2827 C 0.34321 0.08453 0.37412 0.0
C2828 C 0.36758 0.09454 0.389 0.0
H2829 H 0.31467 0.04942 0.35974 0.0
H2830 H 0.3357 0.09308 0.37392 0.0
S2831 S 0.40018 0.06553 0.39265 0.0
N2832 N 0.37842 0.04572 0.38146 0.0
N2833 N 0.40019 0.0877 0.39578 0.0
C2834 C 0.38226 0.08171 0.38674 0.0
C2835 C 0.36799 0.05491 0.37855 0.0
C2836 C 0.95122 0.28128 0.36632 0.0
C2837 C 0.96213 0.30313 0.36564 0.0
C2838 C 0.93072 0.26994 0.37178 0.0
C2839 C 0.92035 0.28 0.37711 0.0
H2840 H 0.95846 0.27277 0.36238 0.0
H2841 H 0.92289 0.25313 0.37168 0.0
S2842 S 0.94163 0.3368 0.37723 0.0
N2843 N 0.96075 0.33434 0.37043 0.0
N2844 N 0.9223 0.31296 0.38069 0.0
C2845 C 0.93101 0.30179 0.37635 0.0
C2846 C 0.95186 0.31336 0.37071 0.0
C2847 C 0.02877 0.41264 0.31907 0.0
C2848 C 0.02738 0.39613 0.30673 0.0
C2849 C 0.03385 0.43135 0.31035 0.0
C2850 C 0.03781 0.43431 0.28896 0.0
H2851 H 0.02587 0.4111 0.33561 0.0
H2852 H 0.03485 0.44368 0.32047 0.0
S2853 S 0.03785 0.3965 0.25024 0.0
N2854 N 0.0313 0.38427 0.27221 0.0
N2855 N 0.04114 0.41953 0.2559 0.0
C2856 C 0.03685 0.41804 0.27653 0.0
C2857 C 0.03148 0.39892 0.28537 0.0
C2858 C 0.64773 0.62042 0.30395 0.0
C2859 C 0.63393 0.6335 0.30701 0.0
C2860 C 0.63742 0.59673 0.2876 0.0
C2861 C 0.6106 0.58533 0.27843 0.0
H2862 H 0.66211 0.62665 0.31209 0.0
H2863 H 0.64454 0.58779 0.28714 0.0
S2864 S 0.57868 0.61534 0.27885 0.0
N2865 N 0.59896 0.63269 0.29394 0.0
N2866 N 0.58058 0.59546 0.26915 0.0
C2867 C 0.59909 0.60129 0.2765 0.0
C2868 C 0.61043 0.62436 0.2929 0.0
C2869 C 0.37416 0.96781 0.31613 0.0
C2870 C 0.38095 0.98667 0.32766 0.0
C2871 C 0.38784 0.96247 0.30873 0.0
C2872 C 0.40885 0.97566 0.31273 0.0
H2873 H 0.35811 0.95693 0.31291 0.0
H2874 H 0.38189 0.94767 0.30013 0.0
S2875 S 0.43463 0.02722 0.34145 0.0
N2876 N 0.41027 0.01898 0.34206 0.0
N2877 N 0.4359 0.00874 0.32838 0.0
C2878 C 0.41592 0.99478 0.32383 0.0
C2879 C 0.402 0.00033 0.33123 0.0
C2880 C 0.60109 0.95469 0.30029 0.0
C2881 C 0.62442 0.98022 0.30092 0.0
C2882 C 0.58084 0.94812 0.28175 0.0
C2883 C 0.58441 0.97061 0.26731 0.0
H2884 H 0.5992 0.94332 0.3111 0.0
H2885 H 0.56624 0.9337 0.2824 0.0
S2886 S 0.63833 0.02823 0.26239 0.0
N2887 N 0.64534 0.01855 0.28139 0.0
N2888 N 0.6147 0.01101 0.25283 0.0
C2889 C 0.60988 0.99433 0.26364 0.0
C2890 C 0.62883 0.99927 0.28237 0.0
C2891 C 0.99277 0.62522 0.32221 0.0
C2892 C 0.01101 0.63857 0.33353 0.0
C2893 C 0.98608 0.60428 0.3176 0.0
C2894 C 0.99758 0.596 0.32375 0.0
H2895 H 0.98309 0.63068 0.31769 0.0
H2896 H 0.97148 0.59436 0.30975 0.0
S2897 S 0.04715 0.6248 0.35234 0.0
N2898 N 0.04099 0.64228 0.34979 0.0
N2899 N 0.02847 0.603 0.34097 0.0
C2900 C 0.0162 0.60939 0.33436 0.0
C2901 C 0.02293 0.63065 0.33923 0.0
C2902 C 0.38251 0.38033 0.32439 0.0
C2903 C 0.37121 0.35926 0.31731 0.0
C2904 C 0.40353 0.39269 0.32163 0.0
C2905 C 0.41411 0.38452 0.3116 0.0
H2906 H 0.37517 0.38728 0.33256 0.0
H2907 H 0.41166 0.40866 0.32785 0.0
S2908 S 0.39174 0.33035 0.28996 0.0
N2909 N 0.37225 0.33085 0.29945 0.0
N2910 N 0.41174 0.35407 0.29451 0.0
C2911 C 0.40298 0.36358 0.30412 0.0
C2912 C 0.38155 0.35099 0.30684 0.0
C2913 C 0.35564 0.304 0.37961 0.0
C2914 C 0.33645 0.29691 0.37056 0.0
C2915 C 0.36238 0.29045 0.3823 0.0
C2916 C 0.35003 0.26911 0.37647 0.0
H2917 H 0.36591 0.32033 0.38407 0.0
H2918 H 0.37756 0.29685 0.38861 0.0
S2919 S 0.29829 0.24243 0.35258 0.0
N2920 N 0.30501 0.26697 0.35609 0.0
N2921 N 0.31764 0.24147 0.36137 0.0
C2922 C 0.33066 0.26172 0.36776 0.0
C2923 C 0.32385 0.27557 0.36483 0.0
C2924 C 0.69115 0.04962 0.37283 0.0
C2925 C 0.70276 0.0418 0.36469 0.0
C2926 C 0.69918 0.07109 0.37502 0.0
C2927 C 0.71909 0.0856 0.36897 0.0
H2928 H 0.67554 0.03909 0.37716 0.0
H2929 H 0.68953 0.07638 0.38091 0.0
S2930 S 0.75634 0.07343 0.34806 0.0
N2931 N 0.73572 0.05047 0.35171 0.0
N2932 N 0.75061 0.09073 0.3555 0.0
C2933 C 0.73111 0.07806 0.3615 0.0
C2934 C 0.72302 0.0562 0.35946 0.0
C2935 C 0.9376 0.63965 0.37556 0.0
C2936 C 0.94892 0.65926 0.36683 0.0
C2937 C 0.91637 0.62888 0.37635 0.0
C2938 C 0.90558 0.63736 0.36866 0.0
H2939 H 0.94508 0.63216 0.38123 0.0
H2940 H 0.90829 0.61349 0.38246 0.0
S2941 S 0.9279 0.68874 0.34549 0.0
N2942 N 0.94766 0.68718 0.35129 0.0
N2943 N 0.90778 0.66685 0.35277 0.0
C2944 C 0.9167 0.65723 0.36053 0.0
C2945 C 0.93834 0.66822 0.35968 0.0
C2946 C 0.39116 0.02139 0.73015 0.0
C2947 C 0.37067 0.00012 0.71436 0.0
C2948 C 0.40502 0.01629 0.74904 0.0
C2949 C 0.39933 0.98899 0.74729 0.0
H2950 H 0.39503 0.03717 0.72843 0.0
H2951 H 0.41816 0.02884 0.7575 0.0
S2952 S 0.35008 0.93744 0.71628 0.0
N2953 N 0.34781 0.9565 0.70694 0.0
N2954 N 0.36897 0.94654 0.73433 0.0
C2955 C 0.37522 0.96678 0.73576 0.0
C2956 C 0.36258 0.97336 0.71778 0.0
C2957 C 0.9709 0.35866 0.73694 0.0
C2958 C 0.98953 0.35762 0.72069 0.0
C2959 C 0.97864 0.38033 0.75566 0.0
C2960 C 0.00557 0.4025 0.75323 0.0
H2961 H 0.95506 0.34634 0.73543 0.0
H2962 H 0.96758 0.382 0.76432 0.0
S2963 S 0.05143 0.40127 0.72071 0.0
N2964 N 0.03125 0.37812 0.712 0.0
N2965 N 0.04518 0.41338 0.73908 0.0
C2966 C 0.02539 0.399 0.74125 0.0
C2967 C 0.01629 0.3771 0.72348 0.0
C2968 C 0.62239 0.63917 0.70717 0.0
C2969 C 0.6308 0.62839 0.69775 0.0
C2970 C 0.60284 0.62853 0.71528 0.0
C2971 C 0.59093 0.60666 0.7146 0.0
H2972 H 0.63076 0.65602 0.70788 0.0
H2973 H 0.59689 0.63754 0.7219 0.0
S2974 S 0.60594 0.57095 0.69234 0.0
N2975 N 0.62576 0.59448 0.68869 0.0
N2976 N 0.58903 0.5745 0.7041 0.0
C2977 C 0.59923 0.59564 0.70557 0.0
C2978 C 0.61914 0.60648 0.69717 0.0
C2979 C 0.66803 0.72224 0.64224 0.0
C2980 C 0.65652 0.70033 0.64061 0.0
C2981 C 0.65978 0.73382 0.63639 0.0
C2982 C 0.6397 0.72396 0.62858 0.0
H2983 H 0.68343 0.73058 0.64853 0.0
H2984 H 0.66904 0.75063 0.63847 0.0
S2985 S 0.60316 0.667 0.62089 0.0
N2986 N 0.62399 0.66924 0.63016 0.0
N2987 N 0.60854 0.69103 0.6194 0.0
C2988 C 0.62813 0.70209 0.62653 0.0
C2989 C 0.63653 0.69028 0.6324 0.0
C2990 C 0.27902 0.96635 0.62516 0.0
C2991 C 0.30308 0.97503 0.6382 0.0
C2992 C 0.26583 0.9419 0.60987 0.0
C2993 C 0.27669 0.92527 0.61266 0.0
H2994 H 0.27236 0.97569 0.6267 0.0
H2995 H 0.25076 0.93573 0.60339 0.0
S2996 S 0.33346 0.94384 0.63783 0.0
N2997 N 0.33269 0.96508 0.64474 0.0
N2998 N 0.31321 0.92616 0.62293 0.0
C2999 C 0.30357 0.93629 0.62073 0.0
C3000 C 0.31533 0.96052 0.6353 0.0
C3001 C 0.0594 0.36571 0.64492 0.0
C3002 C 0.04802 0.34543 0.65214 0.0
C3003 C 0.07948 0.37437 0.63865 0.0
C3004 C 0.08904 0.36307 0.63912 0.0
H3005 H 0.05288 0.37521 0.64434 0.0
H3006 H 0.08769 0.39017 0.63357 0.0
S3007 S 0.06614 0.30936 0.65675 0.0
N3008 N 0.04792 0.31421 0.65938 0.0
N3009 N 0.08571 0.33056 0.64757 0.0
C3010 C 0.07787 0.34273 0.64622 0.0
C3011 C 0.05737 0.33388 0.65266 0.0
C3012 C 0.27622 0.33353 0.64712 0.0
C3013 C 0.29562 0.34078 0.63904 0.0
C3014 C 0.26818 0.34621 0.64832 0.0
C3015 C 0.27912 0.36659 0.64136 0.0
H3016 H 0.26749 0.31825 0.65342 0.0
H3017 H 0.25357 0.34028 0.65546 0.0
S3018 S 0.32988 0.39262 0.61743 0.0
N3019 N 0.32499 0.36934 0.62263 0.0
N3020 N 0.30993 0.39316 0.62522 0.0
C3021 C 0.29813 0.37375 0.63242 0.0
C3022 C 0.30631 0.36082 0.63109 0.0
C3023 C 0.66243 0.96899 0.64216 0.0
C3024 C 0.66391 0.97122 0.66407 0.0
C3025 C 0.6511 0.94934 0.63183 0.0
C3026 C 0.64078 0.93106 0.64296 0.0
H3027 H 0.66978 0.98255 0.63284 0.0
H3028 H 0.65011 0.94845 0.61496 0.0
S3029 S 0.63987 0.9282 0.70051 0.0
N3030 N 0.65426 0.95331 0.69659 0.0
N3031 N 0.63286 0.9164 0.67709 0.0
C3032 C 0.64233 0.933 0.66486 0.0
C3033 C 0.65397 0.95304 0.67542 0.0
C3034 C 0.04445 0.70213 0.6515 0.0
C3035 C 0.03798 0.71277 0.66464 0.0
C3036 C 0.06507 0.71082 0.64726 0.0
C3037 C 0.08003 0.7306 0.65577 0.0
H3038 H 0.03362 0.68662 0.64501 0.0
H3039 H 0.0694 0.7017 0.63775 0.0
S3040 S 0.07108 0.7656 0.68986 0.0
N3041 N 0.04823 0.74475 0.68515 0.0
N3042 N 0.0869 0.76096 0.67721 0.0
C3043 C 0.07372 0.74171 0.66832 0.0
C3044 C 0.05274 0.73286 0.67269 0.0
C3045 C 0.0018 0.62462 0.71036 0.0
C3046 C 0.98461 0.62351 0.70184 0.0
C3047 C 0.00084 0.60683 0.71698 0.0
C3048 C 0.98253 0.58724 0.71574 0.0
H3049 H 0.01626 0.63931 0.71171 0.0
H3050 H 0.01459 0.60845 0.72304 0.0
S3051 S 0.93329 0.57562 0.69406 0.0
N3052 N 0.94878 0.60096 0.69206 0.0
N3053 N 0.94703 0.5676 0.70467 0.0
C3054 C 0.96529 0.58584 0.70707 0.0
C3055 C 0.96628 0.60393 0.70018 0.0
C3056 C 0.36775 0.36278 0.72455 0.0
C3057 C 0.358 0.35866 0.70496 0.0
C3058 C 0.37685 0.38249 0.73479 0.0
C3059 C 0.37683 0.39901 0.72574 0.0
H3060 H 0.36801 0.35057 0.73231 0.0
H3061 H 0.38372 0.38475 0.75008 0.0
S3062 S 0.35304 0.39647 0.67491 0.0
N3063 N 0.34875 0.37291 0.67695 0.0
N3064 N 0.36585 0.40985 0.69631 0.0
C3065 C 0.36718 0.39516 0.70616 0.0
C3066 C 0.35787 0.37508 0.69571 0.0
C3067 C 0.62135 0.02218 0.69974 0.0
C3068 C 0.6313 0.01346 0.70894 0.0
C3069 C 0.60022 0.0125 0.70051 0.0
C3070 C 0.58819 0.99368 0.71043 0.0
H3071 H 0.6299 0.03632 0.69137 0.0
H3072 H 0.59315 0.01943 0.69265 0.0
S3073 S 0.60678 0.96437 0.73692 0.0
N3074 N 0.62753 0.98505 0.72861 0.0
N3075 N 0.58779 0.96668 0.7297 0.0
C3076 C 0.59798 0.98501 0.72009 0.0
C3077 C 0.61954 0.99498 0.7195 0.0
loop_
_geom_bond_atom_site_label_1
_geom_bond_atom_site_label_2
_geom_bond_distance
_geom_bond_site_symmetry_2
_ccdc_geom_bond_type
C0 O1 1.160 . S
C0 O7 1.185 . S
O1 C0 1.160 . S
O2 Zn3 1.899 1_656 S
O2 C10 1.284 . S
Zn3 O2 1.899 1_454 S
Zn3 O4 2.032 . S
Zn3 O7 2.086 . S
Zn3 O12 1.977 1_554 S
O4 Zn3 2.032 . S
O4 C8 1.278 1_455 S
C5 O6 1.203 1_455 S
C5 O12 1.267 . S
O6 C5 1.203 1_655 S
O7 C0 1.185 . S
O7 Zn3 2.086 . S
C8 O4 1.278 1_655 S
C8 O9 1.211 . S
O9 C8 1.211 . S
C10 O2 1.284 . S
C10 O11 1.273 1_556 S
O11 C10 1.273 1_554 S
O12 Zn3 1.977 1_556 S
O12 C5 1.267 . S
C13 O14 1.160 . S
C13 O20 1.185 1_556 S
O14 C13 1.160 . S
O15 Zn16 1.899 . S
O15 C23 1.284 . S
Zn16 O15 1.899 . S
Zn16 O17 2.032 1_554 S
Zn16 O20 2.086 . S
Zn16 O25 1.977 . S
O17 Zn16 2.032 1_556 S
O17 C21 1.278 . S
C18 O19 1.203 . S
C18 O25 1.267 . S
O19 C18 1.203 . S
O20 C13 1.185 1_554 S
O20 Zn16 2.086 . S
C21 O17 1.278 . S
C21 O22 1.211 1_556 S
O22 C21 1.211 1_554 S
C23 O15 1.284 . S
C23 O24 1.273 . S
O24 C23 1.273 . S
O25 Zn16 1.977 . S
O25 C18 1.267 . S
C26 O27 1.160 . S
C26 O33 1.185 1_556 S
O27 C26 1.160 . S
O28 Zn29 1.897 1_565 S
O28 C36 1.298 . S
Zn29 O28 1.897 1_545 S
Zn29 O30 2.032 1_554 S
Zn29 O33 2.086 . S
Zn29 O38 1.977 . S
O30 Zn29 2.032 1_556 S
O30 C34 1.278 1_545 S
C31 O32 1.203 . S
C31 O38 1.267 . S
O32 C31 1.203 . S
O33 C26 1.185 1_554 S
O33 Zn29 2.086 . S
C34 O30 1.278 1_565 S
C34 O35 1.211 . S
O35 C34 1.211 . S
C36 O28 1.298 . S
C36 O37 1.273 . S
O37 C36 1.273 . S
O38 Zn29 1.977 . S
O38 C31 1.267 . S
C39 O40 1.160 . S
C39 O46 1.185 1_556 S
O40 C39 1.160 . S
O41 Zn42 1.899 1_455 S
O41 C49 1.284 . S
Zn42 O41 1.899 1_655 S
Zn42 O43 2.032 1_654 S
Zn42 O46 2.086 . S
Zn42 O51 1.977 . S
O43 Zn42 2.032 1_456 S
O43 C47 1.278 . S
C44 O45 1.203 1_655 S
C44 O51 1.267 . S
O45 C44 1.203 1_455 S
O46 C39 1.185 1_554 S
O46 Zn42 2.086 . S
C47 O43 1.278 . S
C47 O48 1.211 . S
O48 C47 1.211 . S
C49 O41 1.284 . S
C49 O50 1.273 . S
O50 C49 1.273 . S
O51 Zn42 1.977 . S
O51 C44 1.267 . S
C52 O53 1.160 . S
C52 O59 1.185 . S
O53 C52 1.160 . S
O54 Zn55 1.871 1_556 S
O54 C62 1.284 . S
Zn55 O54 1.871 1_554 S
Zn55 O56 2.079 . S
Zn55 O59 2.109 . S
Zn55 O64 1.946 1_554 S
O56 Zn55 2.079 . S
O56 C60 1.278 . S
C57 O58 1.203 . S
C57 O64 1.267 . S
O58 C57 1.203 . S
O59 C52 1.185 . S
O59 Zn55 2.109 . S
C60 O56 1.278 . S
C60 O61 1.211 . S
O61 C60 1.211 . S
C62 O54 1.284 . S
C62 O63 1.273 . S
O63 C62 1.273 . S
O64 Zn55 1.946 1_556 S
O64 C57 1.267 . S
C65 O66 1.160 . S
C65 O72 1.185 . S
O66 C65 1.160 . S
O67 Zn68 1.899 1_546 S
O67 C75 1.287 . S
Zn68 O67 1.899 1_564 S
Zn68 O69 2.032 1_565 S
Zn68 O72 2.086 . S
Zn68 O77 1.977 1_554 S
O69 Zn68 2.032 1_545 S
O69 C73 1.278 . S
C70 O71 1.203 1_565 S
C70 O77 1.267 . S
O71 C70 1.203 1_545 S
O72 C65 1.185 . S
O72 Zn68 2.086 . S
C73 O69 1.278 . S
C73 O74 1.211 . S
O74 C73 1.211 . S
C75 O67 1.287 . S
C75 O76 1.263 1_556 S
O76 C75 1.263 1_554 S
O77 Zn68 1.977 1_556 S
O77 C70 1.267 . S
C78 O79 1.160 . S
C78 O85 1.185 . S
O79 C78 1.160 . S
O80 Zn81 1.899 . S
O80 C88 1.284 . S
Zn81 O80 1.899 . S
Zn81 O82 2.032 . S
Zn81 O85 2.086 . S
Zn81 O90 1.977 . S
O82 Zn81 2.032 . S
O82 C86 1.278 . S
C83 O84 1.203 . S
C83 O90 1.267 . S
O84 C83 1.203 . S
O85 C78 1.185 . S
O85 Zn81 2.086 . S
C86 O82 1.278 . S
C86 O87 1.211 . S
O87 C86 1.211 . S
C88 O80 1.284 . S
C88 O89 1.273 . S
O89 C88 1.273 . S
O90 Zn81 1.977 . S
O90 C83 1.267 . S
C91 O92 1.160 1_565 S
C91 O98 1.185 . S
O92 C91 1.160 1_545 S
O93 Zn94 1.899 1_545 S
O93 C101 1.284 . S
Zn94 O93 1.899 1_565 S
Zn94 O95 2.032 . S
Zn94 O98 2.086 . S
Zn94 O103 1.977 . S
O95 Zn94 2.032 . S
O95 C99 1.278 . S
C96 O97 1.203 . S
C96 O103 1.267 . S
O97 C96 1.203 . S
O98 C91 1.185 . S
O98 Zn94 2.086 . S
C99 O95 1.278 . S
C99 O100 1.211 . S
O100 C99 1.211 . S
C101 O93 1.284 . S
C101 O102 1.273 . S
O102 C101 1.273 . S
O103 Zn94 1.977 . S
O103 C96 1.267 . S
C104 O105 1.160 . S
C104 O111 1.185 . S
O105 C104 1.160 . S
O106 Zn107 1.899 . S
O106 C114 1.284 1_455 S
Zn107 O106 1.899 . S
Zn107 O108 2.032 . S
Zn107 O111 2.086 . S
Zn107 O116 1.977 . S
O108 Zn107 2.032 . S
O108 C112 1.278 . S
C109 O110 1.203 . S
C109 O116 1.267 . S
O110 C109 1.203 . S
O111 C104 1.185 . S
O111 Zn107 2.086 . S
C112 O108 1.278 . S
C112 O113 1.211 . S
O113 C112 1.211 . S
C114 O106 1.284 1_655 S
C114 O115 1.231 1_655 S
O115 C114 1.231 1_455 S
O116 Zn107 1.977 . S
O116 C109 1.267 . S
C117 O118 1.160 1_565 S
C117 O124 1.185 . S
O118 C117 1.160 1_545 S
O119 Zn120 1.899 1_545 S
O119 C127 1.284 . S
Zn120 O119 1.899 1_565 S
Zn120 O121 2.032 . S
Zn120 O124 2.086 . S
Zn120 O129 1.977 . S
O121 Zn120 2.032 . S
O121 C125 1.278 . S
C122 O123 1.203 . S
C122 O129 1.267 . S
O123 C122 1.203 . S
O124 C117 1.185 . S
O124 Zn120 2.086 . S
C125 O121 1.278 . S
C125 O126 1.211 . S
O126 C125 1.211 . S
C127 O119 1.284 . S
C127 O128 1.273 . S
O128 C127 1.273 . S
O129 Zn120 1.977 . S
O129 C122 1.267 . S
C130 O131 1.160 . S
C130 O137 1.185 . S
O131 C130 1.160 . S
O132 Zn133 1.899 . S
O132 C140 1.284 . S
Zn133 O132 1.899 . S
Zn133 O134 2.032 . S
Zn133 O137 2.086 1_455 S
Zn133 O142 1.977 . S
O134 Zn133 2.032 . S
O134 C138 1.278 . S
C135 O136 1.203 . S
C135 O142 1.267 . S
O136 C135 1.203 . S
O137 C130 1.185 . S
O137 Zn133 2.086 1_655 S
C138 O134 1.278 . S
C138 O139 1.211 . S
O139 C138 1.211 . S
C140 O132 1.284 . S
C140 O141 1.273 . S
O141 C140 1.273 . S
O142 Zn133 1.977 . S
O142 C135 1.267 . S
C143 O144 1.160 . S
C143 O150 1.185 . S
O144 C143 1.160 . S
O145 Zn146 1.899 . S
O145 C153 1.284 . S
Zn146 O145 1.899 . S
Zn146 O147 2.032 . S
Zn146 O150 2.086 . S
Zn146 O155 1.977 . S
O147 Zn146 2.032 . S
O147 C151 1.278 . S
C148 O149 1.203 . S
C148 O155 1.267 . S
O149 C148 1.203 . S
O150 C143 1.185 . S
O150 Zn146 2.086 . S
C151 O147 1.278 . S
C151 O152 1.211 . S
O152 C151 1.211 . S
C153 O145 1.284 . S
C153 O154 1.273 . S
O154 C153 1.273 . S
O155 Zn146 1.977 . S
O155 C148 1.267 . S
C156 O157 1.127 1_545 S
C156 O163 1.185 . S
O157 C156 1.127 1_565 S
O158 Zn159 1.899 1_565 S
O158 C166 1.284 . S
Zn159 O158 1.899 1_545 S
Zn159 O160 2.032 . S
Zn159 O163 2.086 . S
Zn159 O168 1.977 . S
O160 Zn159 2.032 . S
O160 C164 1.278 . S
C161 O162 1.203 . S
C161 O168 1.267 . S
O162 C161 1.203 . S
O163 C156 1.185 . S
O163 Zn159 2.086 . S
C164 O160 1.278 . S
C164 O165 1.211 . S
O165 C164 1.211 . S
C166 O158 1.284 . S
C166 O167 1.273 . S
O167 C166 1.273 . S
O168 Zn159 1.977 . S
O168 C161 1.267 . S
C169 O170 1.160 . S
C169 O176 1.185 . S
O170 C169 1.160 . S
O171 Zn172 1.907 1_455 S
O171 C179 1.249 1_455 S
Zn172 O171 1.907 1_655 S
Zn172 O173 2.032 . S
Zn172 O176 2.086 1_655 S
Zn172 O181 1.977 . S
O173 Zn172 2.032 . S
O173 C177 1.278 . S
C174 O175 1.203 . S
C174 O181 1.267 . S
O175 C174 1.203 . S
O176 C169 1.185 . S
O176 Zn172 2.086 1_455 S
C177 O173 1.278 . S
C177 O178 1.211 . S
O178 C177 1.211 . S
C179 O171 1.249 1_655 S
C179 O180 1.273 . S
O180 C179 1.273 . S
O181 Zn172 1.977 . S
O181 C174 1.267 . S
C182 O183 1.160 . S
C182 O189 1.185 . S
O183 C182 1.160 . S
O184 Zn185 1.899 . S
O184 C192 1.284 . S
Zn185 O184 1.899 . S
Zn185 O186 2.032 . S
Zn185 O189 2.086 . S
Zn185 O194 1.977 . S
O186 Zn185 2.032 . S
O186 C190 1.278 . S
C187 O188 1.203 . S
C187 O194 1.267 . S
O188 C187 1.203 . S
O189 C182 1.185 . S
O189 Zn185 2.086 . S
C190 O186 1.278 . S
C190 O191 1.211 . S
O191 C190 1.211 . S
C192 O184 1.284 . S
C192 O193 1.273 . S
O193 C192 1.273 . S
O194 Zn185 1.977 . S
O194 C187 1.267 . S
C195 O196 1.160 . S
C195 O202 1.185 . S
O196 C195 1.160 . S
O197 Zn198 1.899 . S
O197 C205 1.284 . S
Zn198 O197 1.899 . S
Zn198 O199 2.032 . S
Zn198 O202 2.086 . S
Zn198 O207 1.977 . S
O199 Zn198 2.032 . S
O199 C203 1.278 . S
C200 O201 1.203 . S
C200 O207 1.267 . S
O201 C200 1.203 . S
O202 C195 1.185 . S
O202 Zn198 2.086 . S
C203 O199 1.278 . S
C203 O204 1.211 . S
O204 C203 1.211 . S
C205 O197 1.284 . S
C205 O206 1.273 . S
O206 C205 1.273 . S
O207 Zn198 1.977 . S
O207 C200 1.267 . S
C208 O209 1.160 1_545 S
C208 O215 1.185 . S
O209 C208 1.160 1_565 S
O210 Zn211 1.899 1_565 S
O210 C218 1.284 . S
Zn211 O210 1.899 1_545 S
Zn211 O212 2.032 . S
Zn211 O215 2.086 . S
Zn211 O220 1.977 . S
O212 Zn211 2.032 . S
O212 C216 1.278 . S
C213 O214 1.203 . S
C213 O220 1.267 . S
O214 C213 1.203 . S
O215 C208 1.185 . S
O215 Zn211 2.086 . S
C216 O212 1.278 . S
C216 O217 1.211 . S
O217 C216 1.211 . S
C218 O210 1.284 . S
C218 O219 1.273 . S
O219 C218 1.273 . S
O220 Zn211 1.977 . S
O220 C213 1.267 . S
C221 O222 1.160 . S
C221 O228 1.185 . S
O222 C221 1.160 . S
O223 Zn224 1.899 . S
O223 C231 1.284 1_655 S
Zn224 O223 1.899 . S
Zn224 O225 2.032 . S
Zn224 O228 2.086 . S
Zn224 O233 1.977 . S
O225 Zn224 2.032 . S
O225 C229 1.278 . S
C226 O227 1.203 . S
C226 O233 1.267 . S
O227 C226 1.203 . S
O228 C221 1.185 . S
O228 Zn224 2.086 . S
C229 O225 1.278 . S
C229 O230 1.211 . S
O230 C229 1.211 . S
C231 O223 1.284 1_455 S
C231 O232 1.273 . S
O232 C231 1.273 . S
O233 Zn224 1.977 . S
O233 C226 1.267 . S
C234 C235 1.560 . S
C234 H295 0.959 . S
C234 H296 0.959 . S
C234 H297 0.960 . S
C235 C234 1.560 . S
C235 O290 1.426 . S
C235 H294 0.980 . S
C236 C237 1.407 . S
C236 C241 1.418 . S
C236 O290 1.334 . S
C237 C236 1.407 . S
C237 C238 1.360 . S
C237 H298 0.929 . S
C238 C237 1.360 . S
C238 C239 1.401 . S
C238 C242 1.527 . S
C239 C238 1.401 . S
C239 C240 1.405 . S
C239 C272 1.587 . S
C240 C239 1.405 . S
C240 C241 1.332 . S
C240 C243 1.496 . S
C241 C236 1.418 . S
C241 C240 1.332 . S
C241 H299 0.929 . S
C242 C238 1.527 . S
C242 H300 0.959 . S
C242 H301 0.961 . S
C242 H302 0.961 . S
C243 C240 1.496 . S
C243 H303 0.960 . S
C243 H304 0.960 . S
C243 H305 0.961 . S
C244 C245 1.517 . S
C244 H307 0.961 . S
C244 H308 0.960 . S
C244 H309 0.959 . S
C245 C244 1.517 . S
C245 O293 1.468 . S
C245 H306 0.980 . S
C246 C247 1.349 . S
C246 C251 1.367 . S
C246 O293 1.408 . S
C247 C246 1.349 . S
C247 C248 1.407 . S
C247 H310 0.930 . S
C248 C247 1.407 . S
C248 C249 1.449 . S
C248 C252 1.535 . S
C249 C248 1.449 . S
C249 C250 1.384 . S
C249 C274 1.553 . S
C250 C249 1.384 . S
C250 C251 1.364 . S
C250 C253 1.450 . S
C251 C246 1.367 . S
C251 C250 1.364 . S
C251 H311 0.931 . S
C252 C248 1.535 . S
C252 H312 0.959 . S
C252 H313 0.961 . S
C252 H314 0.959 . S
C253 C250 1.450 . S
C253 H315 0.960 . S
C253 H316 0.960 . S
C253 H317 0.960 . S
C254 C255 1.309 . S
C254 C259 1.304 . S
C254 O292 1.435 . S
C255 C254 1.309 . S
C255 C256 1.476 . S
C255 H319 0.930 . S
C256 C255 1.476 . S
C256 C257 1.400 . S
C256 C260 1.567 . S
C257 C256 1.400 . S
C257 C258 1.373 . S
C257 C279 1.432 . S
C258 C257 1.373 . S
C258 C259 1.339 . S
C258 C261 1.530 . S
C259 C254 1.304 . S
C259 C258 1.339 . S
C259 H320 0.930 . S
C260 C256 1.567 . S
C260 H321 0.961 . S
C260 H322 0.960 . S
C260 H323 0.958 . S
C261 C258 1.530 . S
C261 H324 0.961 . S
C261 H325 0.960 . S
C261 H326 0.960 . S
C262 C263 1.530 . S
C262 H328 0.961 . S
C262 H329 0.961 . S
C262 H330 0.959 . S
C263 C262 1.530 . S
C263 O291 1.412 . S
C263 H327 0.980 . S
C264 C265 1.288 . S
C264 C269 1.377 . S
C264 O291 1.393 . S
C265 C264 1.288 . S
C265 C266 1.369 . S
C265 H331 0.932 . S
C266 C265 1.369 . S
C266 C267 1.398 . S
C266 C270 1.527 . S
C267 C266 1.398 . S
C267 C268 1.380 . S
C267 C281 1.497 . S
C268 C267 1.380 . S
C268 C269 1.383 . S
C268 C271 1.603 . S
C269 C264 1.377 . S
C269 C268 1.383 . S
C269 H332 0.929 . S
C270 C266 1.527 . S
C270 H333 0.961 . S
C270 H334 0.959 . S
C270 H335 0.959 . S
C271 C268 1.603 . S
C271 H336 0.960 . S
C271 H337 0.962 . S
C271 H338 0.961 . S
C272 C239 1.587 . S
C272 C273 1.360 . S
C272 C285 1.412 . S
C273 C272 1.360 . S
C273 C274 1.365 . S
C273 H339 0.929 . S
C274 C249 1.553 . S
C274 C273 1.365 . S
C274 C275 1.404 . S
C275 C274 1.404 . S
C275 C276 1.395 . S
C275 C286 1.451 . S
C276 C275 1.395 . S
C276 C277 1.322 . S
C276 H340 0.930 . S
C277 C276 1.322 . S
C277 C278 1.459 . S
C277 H341 0.929 . S
C278 C277 1.459 . S
C278 C279 1.445 . S
C278 C287 1.395 . S
C279 C257 1.432 . S
C279 C278 1.445 . S
C279 C280 1.370 . S
C280 C279 1.370 . S
C280 C281 1.438 . S
C280 H342 0.930 . S
C281 C267 1.497 . S
C281 C280 1.438 . S
C281 C282 1.360 . S
C282 C281 1.360 . S
C282 C283 1.401 . S
C282 C287 1.446 . S
C283 C282 1.401 . S
C283 C284 1.347 . S
C283 H343 0.929 . S
C284 C283 1.347 . S
C284 C285 1.455 . S
C284 H344 0.930 . S
C285 C272 1.412 . S
C285 C284 1.455 . S
C285 C286 1.331 . S
C286 C275 1.451 . S
C286 C285 1.331 . S
C286 C287 1.497 . S
C287 C278 1.395 . S
C287 C282 1.446 . S
C287 C286 1.497 . S
C288 C289 1.582 . S
C288 H345 0.962 . S
C288 H346 0.959 . S
C288 H347 0.958 . S
C289 C288 1.582 . S
C289 O292 1.458 . S
C289 H318 0.980 . S
O290 C235 1.426 . S
O290 C236 1.334 . S
O291 C263 1.412 . S
O291 C264 1.393 . S
O292 C254 1.435 . S
O292 C289 1.458 . S
O293 C245 1.468 . S
O293 C246 1.408 . S
H294 C235 0.980 . S
H295 C234 0.959 . S
H296 C234 0.959 . S
H297 C234 0.960 . S
H298 C237 0.929 . S
H299 C241 0.929 . S
H300 C242 0.959 . S
H301 C242 0.961 . S
H302 C242 0.961 . S
H303 C243 0.960 . S
H304 C243 0.960 . S
H305 C243 0.961 . S
H306 C245 0.980 . S
H307 C244 0.961 . S
H308 C244 0.960 . S
H309 C244 0.959 . S
H310 C247 0.930 . S
H311 C251 0.931 . S
H312 C252 0.959 . S
H313 C252 0.961 . S
H314 C252 0.959 . S
H315 C253 0.960 . S
H316 C253 0.960 . S
H317 C253 0.960 . S
H318 C289 0.980 . S
H319 C255 0.930 . S
H320 C259 0.930 . S
H321 C260 0.961 . S
H322 C260 0.960 . S
H323 C260 0.958 . S
H324 C261 0.961 . S
H325 C261 0.960 . S
H326 C261 0.960 . S
H327 C263 0.980 . S
H328 C262 0.961 . S
H329 C262 0.961 . S
H330 C262 0.959 . S
H331 C265 0.932 . S
H332 C269 0.929 . S
H333 C270 0.961 . S
H334 C270 0.959 . S
H335 C270 0.959 . S
H336 C271 0.960 . S
H337 C271 0.962 . S
H338 C271 0.961 . S
H339 C273 0.929 . S
H340 C276 0.930 . S
H341 C277 0.929 . S
H342 C280 0.930 . S
H343 C283 0.929 . S
H344 C284 0.930 . S
H345 C288 0.962 . S
H346 C288 0.959 . S
H347 C288 0.958 . S
C348 C349 1.560 . S
C348 H409 0.959 . S
C348 H410 0.959 . S
C348 H411 0.960 . S
C349 C348 1.560 . S
C349 O404 1.426 . S
C349 H408 0.980 . S
C350 C351 1.407 . S
C350 C355 1.418 . S
C350 O404 1.334 . S
C351 C350 1.407 . S
C351 C352 1.360 . S
C351 H412 0.929 . S
C352 C351 1.360 . S
C352 C353 1.401 . S
C352 C356 1.527 . S
C353 C352 1.401 . S
C353 C354 1.405 . S
C353 C386 1.587 . S
C354 C353 1.405 . S
C354 C355 1.332 . S
C354 C357 1.496 . S
C355 C350 1.418 . S
C355 C354 1.332 . S
C355 H413 0.929 . S
C356 C352 1.527 . S
C356 H414 0.959 . S
C356 H415 0.961 . S
C356 H416 0.961 . S
C357 C354 1.496 . S
C357 H417 0.960 . S
C357 H418 0.960 . S
C357 H419 0.961 . S
C358 C359 1.517 . S
C358 H421 0.961 . S
C358 H422 0.960 . S
C358 H423 0.959 . S
C359 C358 1.517 . S
C359 O407 1.468 . S
C359 H420 0.980 . S
C360 C361 1.349 . S
C360 C365 1.367 . S
C360 O407 1.408 . S
C361 C360 1.349 . S
C361 C362 1.407 . S
C361 H424 0.930 . S
C362 C361 1.407 . S
C362 C363 1.449 . S
C362 C366 1.535 . S
C363 C362 1.449 . S
C363 C364 1.384 . S
C363 C388 1.553 . S
C364 C363 1.384 . S
C364 C365 1.364 . S
C364 C367 1.450 . S
C365 C360 1.367 . S
C365 C364 1.364 . S
C365 H425 0.931 . S
C366 C362 1.535 . S
C366 H426 0.959 . S
C366 H427 0.961 . S
C366 H428 0.959 . S
C367 C364 1.450 . S
C367 H429 0.960 . S
C367 H430 0.960 . S
C367 H431 0.960 . S
C368 C369 1.309 . S
C368 C373 1.304 . S
C368 O406 1.435 . S
C369 C368 1.309 . S
C369 C370 1.476 . S
C369 H433 0.930 . S
C370 C369 1.476 . S
C370 C371 1.400 . S
C370 C374 1.567 . S
C371 C370 1.400 . S
C371 C372 1.373 . S
C371 C393 1.432 . S
C372 C371 1.373 . S
C372 C373 1.339 . S
C372 C375 1.530 . S
C373 C368 1.304 . S
C373 C372 1.339 . S
C373 H434 0.930 . S
C374 C370 1.567 . S
C374 H435 0.961 . S
C374 H436 0.960 . S
C374 H437 0.958 . S
C375 C372 1.530 . S
C375 H438 0.961 . S
C375 H439 0.960 . S
C375 H440 0.960 . S
C376 C377 1.530 . S
C376 H442 0.961 . S
C376 H443 0.961 . S
C376 H444 0.959 . S
C377 C376 1.530 . S
C377 O405 1.412 . S
C377 H441 0.980 . S
C378 C379 1.288 . S
C378 C383 1.377 . S
C378 O405 1.393 . S
C379 C378 1.288 . S
C379 C380 1.369 . S
C379 H445 0.932 . S
C380 C379 1.369 . S
C380 C381 1.398 . S
C380 C384 1.527 . S
C381 C380 1.398 . S
C381 C382 1.380 . S
C381 C395 1.497 . S
C382 C381 1.380 . S
C382 C383 1.383 . S
C382 C385 1.603 . S
C383 C378 1.377 . S
C383 C382 1.383 . S
C383 H446 0.929 . S
C384 C380 1.527 . S
C384 H447 0.961 . S
C384 H448 0.959 . S
C384 H449 0.959 . S
C385 C382 1.603 . S
C385 H450 0.960 . S
C385 H451 0.962 . S
C385 H452 0.961 . S
C386 C353 1.587 . S
C386 C387 1.360 . S
C386 C399 1.412 . S
C387 C386 1.360 . S
C387 C388 1.365 . S
C387 H453 0.929 . S
C388 C363 1.553 . S
C388 C387 1.365 . S
C388 C389 1.404 . S
C389 C388 1.404 . S
C389 C390 1.395 . S
C389 C400 1.451 . S
C390 C389 1.395 . S
C390 C391 1.322 . S
C390 H454 0.930 . S
C391 C390 1.322 . S
C391 C392 1.459 . S
C391 H455 0.929 . S
C392 C391 1.459 . S
C392 C393 1.445 . S
C392 C401 1.395 . S
C393 C371 1.432 . S
C393 C392 1.445 . S
C393 C394 1.370 . S
C394 C393 1.370 . S
C394 C395 1.438 . S
C394 H456 0.930 . S
C395 C381 1.497 . S
C395 C394 1.438 . S
C395 C396 1.360 . S
C396 C395 1.360 . S
C396 C397 1.401 . S
C396 C401 1.446 . S
C397 C396 1.401 . S
C397 C398 1.347 . S
C397 H457 0.929 . S
C398 C397 1.347 . S
C398 C399 1.455 . S
C398 H458 0.930 . S
C399 C386 1.412 . S
C399 C398 1.455 . S
C399 C400 1.331 . S
C400 C389 1.451 . S
C400 C399 1.331 . S
C400 C401 1.497 . S
C401 C392 1.395 . S
C401 C396 1.446 . S
C401 C400 1.497 . S
C402 C403 1.582 . S
C402 H459 0.962 . S
C402 H460 0.959 . S
C402 H461 0.958 . S
C403 C402 1.582 . S
C403 O406 1.458 . S
C403 H432 0.980 . S
O404 C349 1.426 . S
O404 C350 1.334 . S
O405 C377 1.412 . S
O405 C378 1.393 . S
O406 C368 1.435 . S
O406 C403 1.458 . S
O407 C359 1.468 . S
O407 C360 1.408 . S
H408 C349 0.980 . S
H409 C348 0.959 . S
H410 C348 0.959 . S
H411 C348 0.960 . S
H412 C351 0.929 . S
H413 C355 0.929 . S
H414 C356 0.959 . S
H415 C356 0.961 . S
H416 C356 0.961 . S
H417 C357 0.960 . S
H418 C357 0.960 . S
H419 C357 0.961 . S
H420 C359 0.980 . S
H421 C358 0.961 . S
H422 C358 0.960 . S
H423 C358 0.959 . S
H424 C361 0.930 . S
H425 C365 0.931 . S
H426 C366 0.959 . S
H427 C366 0.961 . S
H428 C366 0.959 . S
H429 C367 0.960 . S
H430 C367 0.960 . S
H431 C367 0.960 . S
H432 C403 0.980 . S
H433 C369 0.930 . S
H434 C373 0.930 . S
H435 C374 0.961 . S
H436 C374 0.960 . S
H437 C374 0.958 . S
H438 C375 0.961 . S
H439 C375 0.960 . S
H440 C375 0.960 . S
H441 C377 0.980 . S
H442 C376 0.961 . S
H443 C376 0.961 . S
H444 C376 0.959 . S
H445 C379 0.932 . S
H446 C383 0.929 . S
H447 C384 0.961 . S
H448 C384 0.959 . S
H449 C384 0.959 . S
H450 C385 0.960 . S
H451 C385 0.962 . S
H452 C385 0.961 . S
H453 C387 0.929 . S
H454 C390 0.930 . S
H455 C391 0.929 . S
H456 C394 0.930 . S
H457 C397 0.929 . S
H458 C398 0.930 . S
H459 C402 0.962 . S
H460 C402 0.959 . S
H461 C402 0.958 . S
C462 C463 1.560 . S
C462 H523 0.959 . S
C462 H524 0.959 . S
C462 H525 0.960 . S
C463 C462 1.560 . S
C463 O518 1.426 . S
C463 H522 0.980 . S
C464 C465 1.407 . S
C464 C469 1.418 . S
C464 O518 1.334 . S
C465 C464 1.407 . S
C465 C466 1.360 . S
C465 H526 0.929 . S
C466 C465 1.360 . S
C466 C467 1.401 . S
C466 C470 1.527 . S
C467 C466 1.401 . S
C467 C468 1.405 . S
C467 C500 1.587 . S
C468 C467 1.405 . S
C468 C469 1.332 . S
C468 C471 1.496 . S
C469 C464 1.418 . S
C469 C468 1.332 . S
C469 H527 0.929 . S
C470 C466 1.527 . S
C470 H528 0.959 . S
C470 H529 0.961 . S
C470 H530 0.961 . S
C471 C468 1.496 . S
C471 H531 0.960 . S
C471 H532 0.960 . S
C471 H533 0.961 . S
C472 C473 1.517 . S
C472 H535 0.961 . S
C472 H536 0.960 . S
C472 H537 0.959 . S
C473 C472 1.517 . S
C473 O521 1.468 . S
C473 H534 0.980 . S
C474 C475 1.349 . S
C474 C479 1.367 . S
C474 O521 1.408 . S
C475 C474 1.349 . S
C475 C476 1.407 . S
C475 H538 0.930 . S
C476 C475 1.407 . S
C476 C477 1.449 . S
C476 C480 1.535 . S
C477 C476 1.449 . S
C477 C478 1.384 . S
C477 C502 1.553 . S
C478 C477 1.384 . S
C478 C479 1.364 . S
C478 C481 1.450 . S
C479 C474 1.367 . S
C479 C478 1.364 . S
C479 H539 0.931 . S
C480 C476 1.535 . S
C480 H540 0.959 . S
C480 H541 0.961 . S
C480 H542 0.959 . S
C481 C478 1.450 . S
C481 H543 0.960 . S
C481 H544 0.960 . S
C481 H545 0.960 . S
C482 C483 1.309 . S
C482 C487 1.304 . S
C482 O520 1.435 . S
C483 C482 1.309 . S
C483 C484 1.476 . S
C483 H547 0.930 . S
C484 C483 1.476 . S
C484 C485 1.400 . S
C484 C488 1.567 . S
C485 C484 1.400 . S
C485 C486 1.373 . S
C485 C507 1.432 . S
C486 C485 1.373 . S
C486 C487 1.339 . S
C486 C489 1.530 . S
C487 C482 1.304 . S
C487 C486 1.339 . S
C487 H548 0.930 . S
C488 C484 1.567 . S
C488 H549 0.961 . S
C488 H550 0.960 . S
C488 H551 0.958 . S
C489 C486 1.530 . S
C489 H552 0.961 . S
C489 H553 0.960 . S
C489 H554 0.960 . S
C490 C491 1.530 . S
C490 H556 0.961 . S
C490 H557 0.961 . S
C490 H558 0.959 . S
C491 C490 1.530 . S
C491 O519 1.412 . S
C491 H555 0.980 . S
C492 C493 1.288 . S
C492 C497 1.377 . S
C492 O519 1.393 . S
C493 C492 1.288 . S
C493 C494 1.369 . S
C493 H559 0.932 . S
C494 C493 1.369 . S
C494 C495 1.398 . S
C494 C498 1.527 . S
C495 C494 1.398 . S
C495 C496 1.380 . S
C495 C509 1.497 . S
C496 C495 1.380 . S
C496 C497 1.383 . S
C496 C499 1.603 . S
C497 C492 1.377 . S
C497 C496 1.383 . S
C497 H560 0.929 . S
C498 C494 1.527 . S
C498 H561 0.961 . S
C498 H562 0.959 . S
C498 H563 0.959 . S
C499 C496 1.603 . S
C499 H564 0.960 . S
C499 H565 0.962 . S
C499 H566 0.961 . S
C500 C467 1.587 . S
C500 C501 1.360 . S
C500 C513 1.412 . S
C501 C500 1.360 . S
C501 C502 1.365 . S
C501 H567 0.929 . S
C502 C477 1.553 . S
C502 C501 1.365 . S
C502 C503 1.404 . S
C503 C502 1.404 . S
C503 C504 1.395 . S
C503 C514 1.451 . S
C504 C503 1.395 . S
C504 C505 1.322 . S
C504 H568 0.930 . S
C505 C504 1.322 . S
C505 C506 1.459 . S
C505 H569 0.929 . S
C506 C505 1.459 . S
C506 C507 1.445 . S
C506 C515 1.395 . S
C507 C485 1.432 . S
C507 C506 1.445 . S
C507 C508 1.370 . S
C508 C507 1.370 . S
C508 C509 1.438 . S
C508 H570 0.930 . S
C509 C495 1.497 . S
C509 C508 1.438 . S
C509 C510 1.360 . S
C510 C509 1.360 . S
C510 C511 1.401 . S
C510 C515 1.446 . S
C511 C510 1.401 . S
C511 C512 1.347 . S
C511 H571 0.929 . S
C512 C511 1.347 . S
C512 C513 1.455 . S
C512 H572 0.930 . S
C513 C500 1.412 . S
C513 C512 1.455 . S
C513 C514 1.331 . S
C514 C503 1.451 . S
C514 C513 1.331 . S
C514 C515 1.497 . S
C515 C506 1.395 . S
C515 C510 1.446 . S
C515 C514 1.497 . S
C516 C517 1.582 . S
C516 H573 0.962 . S
C516 H574 0.959 . S
C516 H575 0.958 . S
C517 C516 1.582 . S
C517 O520 1.458 . S
C517 H546 0.980 . S
O518 C463 1.426 . S
O518 C464 1.334 . S
O519 C491 1.412 . S
O519 C492 1.393 . S
O520 C482 1.435 . S
O520 C517 1.458 . S
O521 C473 1.468 . S
O521 C474 1.408 . S
H522 C463 0.980 . S
H523 C462 0.959 . S
H524 C462 0.959 . S
H525 C462 0.960 . S
H526 C465 0.929 . S
H527 C469 0.929 . S
H528 C470 0.959 . S
H529 C470 0.961 . S
H530 C470 0.961 . S
H531 C471 0.960 . S
H532 C471 0.960 . S
H533 C471 0.961 . S
H534 C473 0.980 . S
H535 C472 0.961 . S
H536 C472 0.960 . S
H537 C472 0.959 . S
H538 C475 0.930 . S
H539 C479 0.931 . S
H540 C480 0.959 . S
H541 C480 0.961 . S
H542 C480 0.959 . S
H543 C481 0.960 . S
H544 C481 0.960 . S
H545 C481 0.960 . S
H546 C517 0.980 . S
H547 C483 0.930 . S
H548 C487 0.930 . S
H549 C488 0.961 . S
H550 C488 0.960 . S
H551 C488 0.958 . S
H552 C489 0.961 . S
H553 C489 0.960 . S
H554 C489 0.960 . S
H555 C491 0.980 . S
H556 C490 0.961 . S
H557 C490 0.961 . S
H558 C490 0.959 . S
H559 C493 0.932 . S
H560 C497 0.929 . S
H561 C498 0.961 . S
H562 C498 0.959 . S
H563 C498 0.959 . S
H564 C499 0.960 . S
H565 C499 0.962 . S
H566 C499 0.961 . S
H567 C501 0.929 . S
H568 C504 0.930 . S
H569 C505 0.929 . S
H570 C508 0.930 . S
H571 C511 0.929 . S
H572 C512 0.930 . S
H573 C516 0.962 . S
H574 C516 0.959 . S
H575 C516 0.958 . S
C576 C577 1.560 . S
C576 H637 0.959 . S
C576 H638 0.959 . S
C576 H639 0.960 . S
C577 C576 1.560 . S
C577 O632 1.426 . S
C577 H636 0.980 . S
C578 C579 1.407 . S
C578 C583 1.418 . S
C578 O632 1.334 . S
C579 C578 1.407 . S
C579 C580 1.360 . S
C579 H640 0.929 . S
C580 C579 1.360 . S
C580 C581 1.401 . S
C580 C584 1.527 . S
C581 C580 1.401 . S
C581 C582 1.405 . S
C581 C614 1.587 . S
C582 C581 1.405 . S
C582 C583 1.332 . S
C582 C585 1.496 . S
C583 C578 1.418 . S
C583 C582 1.332 . S
C583 H641 0.929 . S
C584 C580 1.527 . S
C584 H642 0.959 . S
C584 H643 0.961 . S
C584 H644 0.961 . S
C585 C582 1.496 . S
C585 H645 0.960 . S
C585 H646 0.960 . S
C585 H647 0.961 . S
C586 C587 1.517 . S
C586 H649 0.961 . S
C586 H650 0.960 . S
C586 H651 0.959 . S
C587 C586 1.517 . S
C587 O635 1.468 . S
C587 H648 0.980 . S
C588 C589 1.349 . S
C588 C593 1.367 . S
C588 O635 1.408 . S
C589 C588 1.349 . S
C589 C590 1.407 . S
C589 H652 0.930 . S
C590 C589 1.407 . S
C590 C591 1.449 . S
C590 C594 1.535 . S
C591 C590 1.449 . S
C591 C592 1.384 . S
C591 C616 1.553 . S
C592 C591 1.384 . S
C592 C593 1.364 . S
C592 C595 1.450 . S
C593 C588 1.367 . S
C593 C592 1.364 . S
C593 H653 0.931 . S
C594 C590 1.535 . S
C594 H654 0.959 . S
C594 H655 0.961 . S
C594 H656 0.959 . S
C595 C592 1.450 . S
C595 H657 0.960 . S
C595 H658 0.960 . S
C595 H659 0.960 . S
C596 C597 1.309 . S
C596 C601 1.304 . S
C596 O634 1.435 . S
C597 C596 1.309 . S
C597 C598 1.476 . S
C597 H661 0.930 . S
C598 C597 1.476 . S
C598 C599 1.400 . S
C598 C602 1.567 . S
C599 C598 1.400 . S
C599 C600 1.373 . S
C599 C621 1.432 . S
C600 C599 1.373 . S
C600 C601 1.339 . S
C600 C603 1.530 . S
C601 C596 1.304 . S
C601 C600 1.339 . S
C601 H662 0.930 . S
C602 C598 1.567 . S
C602 H663 0.961 . S
C602 H664 0.960 . S
C602 H665 0.958 . S
C603 C600 1.530 . S
C603 H666 0.961 . S
C603 H667 0.960 . S
C603 H668 0.960 . S
C604 C605 1.530 . S
C604 H670 0.961 . S
C604 H671 0.961 . S
C604 H672 0.959 . S
C605 C604 1.530 . S
C605 O633 1.412 . S
C605 H669 0.980 . S
C606 C607 1.288 . S
C606 C611 1.377 . S
C606 O633 1.393 . S
C607 C606 1.288 . S
C607 C608 1.369 . S
C607 H673 0.932 . S
C608 C607 1.369 . S
C608 C609 1.398 . S
C608 C612 1.527 . S
C609 C608 1.398 . S
C609 C610 1.380 . S
C609 C623 1.497 . S
C610 C609 1.380 . S
C610 C611 1.383 . S
C610 C613 1.603 . S
C611 C606 1.377 . S
C611 C610 1.383 . S
C611 H674 0.929 . S
C612 C608 1.527 . S
C612 H675 0.961 . S
C612 H676 0.959 . S
C612 H677 0.959 . S
C613 C610 1.603 . S
C613 H678 0.960 . S
C613 H679 0.962 . S
C613 H680 0.961 . S
C614 C581 1.587 . S
C614 C615 1.360 . S
C614 C627 1.412 . S
C615 C614 1.360 . S
C615 C616 1.365 . S
C615 H681 0.929 . S
C616 C591 1.553 . S
C616 C615 1.365 . S
C616 C617 1.404 . S
C617 C616 1.404 . S
C617 C618 1.395 . S
C617 C628 1.451 . S
C618 C617 1.395 . S
C618 C619 1.322 . S
C618 H682 0.930 . S
C619 C618 1.322 . S
C619 C620 1.459 . S
C619 H683 0.929 . S
C620 C619 1.459 . S
C620 C621 1.445 . S
C620 C629 1.395 . S
C621 C599 1.432 . S
C621 C620 1.445 . S
C621 C622 1.370 . S
C622 C621 1.370 . S
C622 C623 1.438 . S
C622 H684 0.930 . S
C623 C609 1.497 . S
C623 C622 1.438 . S
C623 C624 1.360 . S
C624 C623 1.360 . S
C624 C625 1.401 . S
C624 C629 1.446 . S
C625 C624 1.401 . S
C625 C626 1.347 . S
C625 H685 0.929 . S
C626 C625 1.347 . S
C626 C627 1.455 . S
C626 H686 0.930 . S
C627 C614 1.412 . S
C627 C626 1.455 . S
C627 C628 1.331 . S
C628 C617 1.451 . S
C628 C627 1.331 . S
C628 C629 1.497 . S
C629 C620 1.395 . S
C629 C624 1.446 . S
C629 C628 1.497 . S
C630 C631 1.582 . S
C630 H687 0.962 . S
C630 H688 0.959 . S
C630 H689 0.958 . S
C631 C630 1.582 . S
C631 O634 1.458 . S
C631 H660 0.980 . S
O632 C577 1.426 . S
O632 C578 1.334 . S
O633 C605 1.412 . S
O633 C606 1.393 . S
O634 C596 1.435 . S
O634 C631 1.458 . S
O635 C587 1.468 . S
O635 C588 1.408 . S
H636 C577 0.980 . S
H637 C576 0.959 . S
H638 C576 0.959 . S
H639 C576 0.960 . S
H640 C579 0.929 . S
H641 C583 0.929 . S
H642 C584 0.959 . S
H643 C584 0.961 . S
H644 C584 0.961 . S
H645 C585 0.960 . S
H646 C585 0.960 . S
H647 C585 0.961 . S
H648 C587 0.980 . S
H649 C586 0.961 . S
H650 C586 0.960 . S
H651 C586 0.959 . S
H652 C589 0.930 . S
H653 C593 0.931 . S
H654 C594 0.959 . S
H655 C594 0.961 . S
H656 C594 0.959 . S
H657 C595 0.960 . S
H658 C595 0.960 . S
H659 C595 0.960 . S
H660 C631 0.980 . S
H661 C597 0.930 . S
H662 C601 0.930 . S
H663 C602 0.961 . S
H664 C602 0.960 . S
H665 C602 0.958 . S
H666 C603 0.961 . S
H667 C603 0.960 . S
H668 C603 0.960 . S
H669 C605 0.980 . S
H670 C604 0.961 . S
H671 C604 0.961 . S
H672 C604 0.959 . S
H673 C607 0.932 . S
H674 C611 0.929 . S
H675 C612 0.961 . S
H676 C612 0.959 . S
H677 C612 0.959 . S
H678 C613 0.960 . S
H679 C613 0.962 . S
H680 C613 0.961 . S
H681 C615 0.929 . S
H682 C618 0.930 . S
H683 C619 0.929 . S
H684 C622 0.930 . S
H685 C625 0.929 . S
H686 C626 0.930 . S
H687 C630 0.962 . S
H688 C630 0.959 . S
H689 C630 0.958 . S
C690 C691 1.560 . S
C690 H751 0.959 . S
C690 H752 0.959 . S
C690 H753 0.960 . S
C691 C690 1.560 . S
C691 O746 1.426 . S
C691 H750 0.980 . S
C692 C693 1.407 . S
C692 C697 1.418 . S
C692 O746 1.334 . S
C693 C692 1.407 . S
C693 C694 1.360 . S
C693 H754 0.929 . S
C694 C693 1.360 . S
C694 C695 1.401 . S
C694 C698 1.527 . S
C695 C694 1.401 . S
C695 C696 1.405 . S
C695 C728 1.587 . S
C696 C695 1.405 . S
C696 C697 1.332 . S
C696 C699 1.496 . S
C697 C692 1.418 . S
C697 C696 1.332 . S
C697 H755 0.929 . S
C698 C694 1.527 . S
C698 H756 0.959 . S
C698 H757 0.961 . S
C698 H758 0.961 . S
C699 C696 1.496 . S
C699 H759 0.960 . S
C699 H760 0.960 . S
C699 H761 0.961 . S
C700 C701 1.517 . S
C700 H763 0.961 . S
C700 H764 0.960 . S
C700 H765 0.959 . S
C701 C700 1.517 . S
C701 O749 1.468 . S
C701 H762 0.980 . S
C702 C703 1.349 . S
C702 C707 1.367 . S
C702 O749 1.408 . S
C703 C702 1.349 . S
C703 C704 1.407 . S
C703 H766 0.930 . S
C704 C703 1.407 . S
C704 C705 1.449 . S
C704 C708 1.535 . S
C705 C704 1.449 . S
C705 C706 1.384 . S
C705 C730 1.553 . S
C706 C705 1.384 . S
C706 C707 1.364 . S
C706 C709 1.450 . S
C707 C702 1.367 . S
C707 C706 1.364 . S
C707 H767 0.931 . S
C708 C704 1.535 . S
C708 H768 0.959 . S
C708 H769 0.961 . S
C708 H770 0.959 . S
C709 C706 1.450 . S
C709 H771 0.960 . S
C709 H772 0.960 . S
C709 H773 0.960 . S
C710 C711 1.309 . S
C710 C715 1.304 . S
C710 O748 1.435 . S
C711 C710 1.309 . S
C711 C712 1.476 . S
C711 H775 0.930 . S
C712 C711 1.476 . S
C712 C713 1.400 . S
C712 C716 1.567 . S
C713 C712 1.400 . S
C713 C714 1.373 . S
C713 C735 1.432 . S
C714 C713 1.373 . S
C714 C715 1.339 . S
C714 C717 1.530 . S
C715 C710 1.304 . S
C715 C714 1.339 . S
C715 H776 0.930 . S
C716 C712 1.567 . S
C716 H777 0.961 . S
C716 H778 0.960 . S
C716 H779 0.958 . S
C717 C714 1.530 . S
C717 H780 0.961 . S
C717 H781 0.960 . S
C717 H782 0.960 . S
C718 C719 1.530 . S
C718 H784 0.961 . S
C718 H785 0.961 . S
C718 H786 0.959 . S
C719 C718 1.530 . S
C719 O747 1.412 . S
C719 H783 0.980 . S
C720 C721 1.288 . S
C720 C725 1.377 . S
C720 O747 1.393 . S
C721 C720 1.288 . S
C721 C722 1.369 . S
C721 H787 0.932 . S
C722 C721 1.369 . S
C722 C723 1.398 . S
C722 C726 1.527 . S
C723 C722 1.398 . S
C723 C724 1.380 . S
C723 C737 1.497 . S
C724 C723 1.380 . S
C724 C725 1.383 . S
C724 C727 1.603 . S
C725 C720 1.377 . S
C725 C724 1.383 . S
C725 H788 0.929 . S
C726 C722 1.527 . S
C726 H789 0.961 . S
C726 H790 0.959 . S
C726 H791 0.959 . S
C727 C724 1.603 . S
C727 H792 0.960 . S
C727 H793 0.962 . S
C727 H794 0.961 . S
C728 C695 1.587 . S
C728 C729 1.360 . S
C728 C741 1.412 . S
C729 C728 1.360 . S
C729 C730 1.365 . S
C729 H795 0.929 . S
C730 C705 1.553 . S
C730 C729 1.365 . S
C730 C731 1.404 . S
C731 C730 1.404 . S
C731 C732 1.395 . S
C731 C742 1.451 . S
C732 C731 1.395 . S
C732 C733 1.322 . S
C732 H796 0.930 . S
C733 C732 1.322 . S
C733 C734 1.459 . S
C733 H797 0.929 . S
C734 C733 1.459 . S
C734 C735 1.445 . S
C734 C743 1.395 . S
C735 C713 1.432 . S
C735 C734 1.445 . S
C735 C736 1.370 . S
C736 C735 1.370 . S
C736 C737 1.438 . S
C736 H798 0.930 . S
C737 C723 1.497 . S
C737 C736 1.438 . S
C737 C738 1.360 . S
C738 C737 1.360 . S
C738 C739 1.401 . S
C738 C743 1.446 . S
C739 C738 1.401 . S
C739 C740 1.347 . S
C739 H799 0.929 . S
C740 C739 1.347 . S
C740 C741 1.455 . S
C740 H800 0.930 . S
C741 C728 1.412 . S
C741 C740 1.455 . S
C741 C742 1.331 . S
C742 C731 1.451 . S
C742 C741 1.331 . S
C742 C743 1.497 . S
C743 C734 1.395 . S
C743 C738 1.446 . S
C743 C742 1.497 . S
C744 C745 1.582 . S
C744 H801 0.962 . S
C744 H802 0.959 . S
C744 H803 0.958 . S
C745 C744 1.582 . S
C745 O748 1.458 . S
C745 H774 0.980 . S
O746 C691 1.426 . S
O746 C692 1.334 . S
O747 C719 1.412 . S
O747 C720 1.393 . S
O748 C710 1.435 . S
O748 C745 1.458 . S
O749 C701 1.468 . S
O749 C702 1.408 . S
H750 C691 0.980 . S
H751 C690 0.959 . S
H752 C690 0.959 . S
H753 C690 0.960 . S
H754 C693 0.929 . S
H755 C697 0.929 . S
H756 C698 0.959 . S
H757 C698 0.961 . S
H758 C698 0.961 . S
H759 C699 0.960 . S
H760 C699 0.960 . S
H761 C699 0.961 . S
H762 C701 0.980 . S
H763 C700 0.961 . S
H764 C700 0.960 . S
H765 C700 0.959 . S
H766 C703 0.930 . S
H767 C707 0.931 . S
H768 C708 0.959 . S
H769 C708 0.961 . S
H770 C708 0.959 . S
H771 C709 0.960 . S
H772 C709 0.960 . S
H773 C709 0.960 . S
H774 C745 0.980 . S
H775 C711 0.930 . S
H776 C715 0.930 . S
H777 C716 0.961 . S
H778 C716 0.960 . S
H779 C716 0.958 . S
H780 C717 0.961 . S
H781 C717 0.960 . S
H782 C717 0.960 . S
H783 C719 0.980 . S
H784 C718 0.961 . S
H785 C718 0.961 . S
H786 C718 0.959 . S
H787 C721 0.932 . S
H788 C725 0.929 . S
H789 C726 0.961 . S
H790 C726 0.959 . S
H791 C726 0.959 . S
H792 C727 0.960 . S
H793 C727 0.962 . S
H794 C727 0.961 . S
H795 C729 0.929 . S
H796 C732 0.930 . S
H797 C733 0.929 . S
H798 C736 0.930 . S
H799 C739 0.929 . S
H800 C740 0.930 . S
H801 C744 0.962 . S
H802 C744 0.959 . S
H803 C744 0.958 . S
C804 C805 1.560 . S
C804 H865 0.959 . S
C804 H866 0.959 . S
C804 H867 0.960 . S
C805 C804 1.560 . S
C805 O860 1.426 . S
C805 H864 0.980 . S
C806 C807 1.407 . S
C806 C811 1.418 . S
C806 O860 1.334 . S
C807 C806 1.407 . S
C807 C808 1.360 . S
C807 H868 0.929 . S
C808 C807 1.360 . S
C808 C809 1.401 . S
C808 C812 1.527 . S
C809 C808 1.401 . S
C809 C810 1.405 . S
C809 C842 1.587 . S
C810 C809 1.405 . S
C810 C811 1.332 . S
C810 C813 1.496 . S
C811 C806 1.418 . S
C811 C810 1.332 . S
C811 H869 0.929 . S
C812 C808 1.527 . S
C812 H870 0.959 . S
C812 H871 0.961 . S
C812 H872 0.961 . S
C813 C810 1.496 . S
C813 H873 0.960 . S
C813 H874 0.960 . S
C813 H875 0.961 . S
C814 C815 1.517 . S
C814 H877 0.961 . S
C814 H878 0.960 . S
C814 H879 0.959 . S
C815 C814 1.517 . S
C815 O863 1.468 . S
C815 H876 0.980 . S
C816 C817 1.349 . S
C816 C821 1.367 . S
C816 O863 1.408 . S
C817 C816 1.349 . S
C817 C818 1.407 . S
C817 H880 0.930 . S
C818 C817 1.407 . S
C818 C819 1.449 . S
C818 C822 1.535 . S
C819 C818 1.449 . S
C819 C820 1.384 . S
C819 C844 1.553 . S
C820 C819 1.384 . S
C820 C821 1.364 . S
C820 C823 1.450 . S
C821 C816 1.367 . S
C821 C820 1.364 . S
C821 H881 0.931 . S
C822 C818 1.535 . S
C822 H882 0.959 . S
C822 H883 0.961 . S
C822 H884 0.959 . S
C823 C820 1.450 . S
C823 H885 0.960 . S
C823 H886 0.960 . S
C823 H887 0.960 . S
C824 C825 1.309 . S
C824 C829 1.304 . S
C824 O862 1.435 . S
C825 C824 1.309 . S
C825 C826 1.476 . S
C825 H889 0.930 . S
C826 C825 1.476 . S
C826 C827 1.400 . S
C826 C830 1.567 . S
C827 C826 1.400 . S
C827 C828 1.373 . S
C827 C849 1.432 . S
C828 C827 1.373 . S
C828 C829 1.339 . S
C828 C831 1.530 . S
C829 C824 1.304 . S
C829 C828 1.339 . S
C829 H890 0.930 . S
C830 C826 1.567 . S
C830 H891 0.961 . S
C830 H892 0.960 . S
C830 H893 0.958 . S
C831 C828 1.530 . S
C831 H894 0.961 . S
C831 H895 0.960 . S
C831 H896 0.960 . S
C832 C833 1.530 . S
C832 H898 0.961 . S
C832 H899 0.961 . S
C832 H900 0.959 . S
C833 C832 1.530 . S
C833 O861 1.412 . S
C833 H897 0.980 . S
C834 C835 1.288 . S
C834 C839 1.377 . S
C834 O861 1.393 . S
C835 C834 1.288 . S
C835 C836 1.369 . S
C835 H901 0.932 . S
C836 C835 1.369 . S
C836 C837 1.398 . S
C836 C840 1.527 . S
C837 C836 1.398 . S
C837 C838 1.380 . S
C837 C851 1.497 . S
C838 C837 1.380 . S
C838 C839 1.383 . S
C838 C841 1.603 . S
C839 C834 1.377 . S
C839 C838 1.383 . S
C839 H902 0.929 . S
C840 C836 1.527 . S
C840 H903 0.961 . S
C840 H904 0.959 . S
C840 H905 0.959 . S
C841 C838 1.603 . S
C841 H906 0.960 . S
C841 H907 0.962 . S
C841 H908 0.961 . S
C842 C809 1.587 . S
C842 C843 1.360 . S
C842 C855 1.412 . S
C843 C842 1.360 . S
C843 C844 1.365 . S
C843 H909 0.929 . S
C844 C819 1.553 . S
C844 C843 1.365 . S
C844 C845 1.404 . S
C845 C844 1.404 . S
C845 C846 1.395 . S
C845 C856 1.451 . S
C846 C845 1.395 . S
C846 C847 1.322 . S
C846 H910 0.930 . S
C847 C846 1.322 . S
C847 C848 1.459 . S
C847 H911 0.929 . S
C848 C847 1.459 . S
C848 C849 1.445 . S
C848 C857 1.395 . S
C849 C827 1.432 . S
C849 C848 1.445 . S
C849 C850 1.370 . S
C850 C849 1.370 . S
C850 C851 1.438 . S
C850 H912 0.930 . S
C851 C837 1.497 . S
C851 C850 1.438 . S
C851 C852 1.360 . S
C852 C851 1.360 . S
C852 C853 1.401 . S
C852 C857 1.446 . S
C853 C852 1.401 . S
C853 C854 1.347 . S
C853 H913 0.929 . S
C854 C853 1.347 . S
C854 C855 1.455 . S
C854 H914 0.930 . S
C855 C842 1.412 . S
C855 C854 1.455 . S
C855 C856 1.331 . S
C856 C845 1.451 . S
C856 C855 1.331 . S
C856 C857 1.497 . S
C857 C848 1.395 . S
C857 C852 1.446 . S
C857 C856 1.497 . S
C858 C859 1.582 . S
C858 H915 0.962 . S
C858 H916 0.959 . S
C858 H917 0.958 . S
C859 C858 1.582 . S
C859 O862 1.458 . S
C859 H888 0.980 . S
O860 C805 1.426 . S
O860 C806 1.334 . S
O861 C833 1.412 . S
O861 C834 1.393 . S
O862 C824 1.435 . S
O862 C859 1.458 . S
O863 C815 1.468 . S
O863 C816 1.408 . S
H864 C805 0.980 . S
H865 C804 0.959 . S
H866 C804 0.959 . S
H867 C804 0.960 . S
H868 C807 0.929 . S
H869 C811 0.929 . S
H870 C812 0.959 . S
H871 C812 0.961 . S
H872 C812 0.961 . S
H873 C813 0.960 . S
H874 C813 0.960 . S
H875 C813 0.961 . S
H876 C815 0.980 . S
H877 C814 0.961 . S
H878 C814 0.960 . S
H879 C814 0.959 . S
H880 C817 0.930 . S
H881 C821 0.931 . S
H882 C822 0.959 . S
H883 C822 0.961 . S
H884 C822 0.959 . S
H885 C823 0.960 . S
H886 C823 0.960 . S
H887 C823 0.960 . S
H888 C859 0.980 . S
H889 C825 0.930 . S
H890 C829 0.930 . S
H891 C830 0.961 . S
H892 C830 0.960 . S
H893 C830 0.958 . S
H894 C831 0.961 . S
H895 C831 0.960 . S
H896 C831 0.960 . S
H897 C833 0.980 . S
H898 C832 0.961 . S
H899 C832 0.961 . S
H900 C832 0.959 . S
H901 C835 0.932 . S
H902 C839 0.929 . S
H903 C840 0.961 . S
H904 C840 0.959 . S
H905 C840 0.959 . S
H906 C841 0.960 . S
H907 C841 0.962 . S
H908 C841 0.961 . S
H909 C843 0.929 . S
H910 C846 0.930 . S
H911 C847 0.929 . S
H912 C850 0.930 . S
H913 C853 0.929 . S
H914 C854 0.930 . S
H915 C858 0.962 . S
H916 C858 0.959 . S
H917 C858 0.958 . S
C918 C919 1.560 . S
C918 H979 0.959 . S
C918 H980 0.959 . S
C918 H981 0.960 . S
C919 C918 1.560 . S
C919 O974 1.426 . S
C919 H978 0.980 . S
C920 C921 1.407 . S
C920 C925 1.418 . S
C920 O974 1.334 . S
C921 C920 1.407 . S
C921 C922 1.360 . S
C921 H982 0.929 . S
C922 C921 1.360 . S
C922 C923 1.401 . S
C922 C926 1.527 . S
C923 C922 1.401 . S
C923 C924 1.405 . S
C923 C956 1.587 . S
C924 C923 1.405 . S
C924 C925 1.332 . S
C924 C927 1.496 . S
C925 C920 1.418 . S
C925 C924 1.332 . S
C925 H983 0.929 . S
C926 C922 1.527 . S
C926 H984 0.959 . S
C926 H985 0.961 . S
C926 H986 0.961 . S
C927 C924 1.496 . S
C927 H987 0.960 . S
C927 H988 0.960 . S
C927 H989 0.961 . S
C928 C929 1.517 . S
C928 H991 0.961 . S
C928 H992 0.960 . S
C928 H993 0.959 . S
C929 C928 1.517 . S
C929 O977 1.468 . S
C929 H990 0.980 . S
C930 C931 1.349 . S
C930 C935 1.367 . S
C930 O977 1.408 . S
C931 C930 1.349 . S
C931 C932 1.407 . S
C931 H994 0.930 . S
C932 C931 1.407 . S
C932 C933 1.449 . S
C932 C936 1.535 . S
C933 C932 1.449 . S
C933 C934 1.384 . S
C933 C958 1.553 . S
C934 C933 1.384 . S
C934 C935 1.364 . S
C934 C937 1.450 . S
C935 C930 1.367 . S
C935 C934 1.364 . S
C935 H995 0.931 . S
C936 C932 1.535 . S
C936 H996 0.959 . S
C936 H997 0.961 . S
C936 H998 0.959 . S
C937 C934 1.450 . S
C937 H999 0.960 . S
C937 H1000 0.960 . S
C937 H1001 0.960 . S
C938 C939 1.309 . S
C938 C943 1.304 . S
C938 O976 1.435 . S
C939 C938 1.309 . S
C939 C940 1.476 . S
C939 H1003 0.930 . S
C940 C939 1.476 . S
C940 C941 1.400 . S
C940 C944 1.567 . S
C941 C940 1.400 . S
C941 C942 1.373 . S
C941 C963 1.432 . S
C942 C941 1.373 . S
C942 C943 1.339 . S
C942 C945 1.530 . S
C943 C938 1.304 . S
C943 C942 1.339 . S
C943 H1004 0.930 . S
C944 C940 1.567 . S
C944 H1005 0.961 . S
C944 H1006 0.960 . S
C944 H1007 0.958 . S
C945 C942 1.530 . S
C945 H1008 0.961 . S
C945 H1009 0.960 . S
C945 H1010 0.960 . S
C946 C947 1.530 . S
C946 H1012 0.961 . S
C946 H1013 0.961 . S
C946 H1014 0.959 . S
C947 C946 1.530 . S
C947 O975 1.412 . S
C947 H1011 0.980 . S
C948 C949 1.288 . S
C948 C953 1.377 . S
C948 O975 1.393 . S
C949 C948 1.288 . S
C949 C950 1.369 . S
C949 H1015 0.932 . S
C950 C949 1.369 . S
C950 C951 1.398 . S
C950 C954 1.527 . S
C951 C950 1.398 . S
C951 C952 1.380 . S
C951 C965 1.497 . S
C952 C951 1.380 . S
C952 C953 1.383 . S
C952 C955 1.603 . S
C953 C948 1.377 . S
C953 C952 1.383 . S
C953 H1016 0.929 . S
C954 C950 1.527 . S
C954 H1017 0.961 . S
C954 H1018 0.959 . S
C954 H1019 0.959 . S
C955 C952 1.603 . S
C955 H1020 0.960 . S
C955 H1021 0.962 . S
C955 H1022 0.961 . S
C956 C923 1.587 . S
C956 C957 1.360 . S
C956 C969 1.412 . S
C957 C956 1.360 . S
C957 C958 1.365 . S
C957 H1023 0.929 . S
C958 C933 1.553 . S
C958 C957 1.365 . S
C958 C959 1.404 . S
C959 C958 1.404 . S
C959 C960 1.395 . S
C959 C970 1.451 . S
C960 C959 1.395 . S
C960 C961 1.322 . S
C960 H1024 0.930 . S
C961 C960 1.322 . S
C961 C962 1.459 . S
C961 H1025 0.929 . S
C962 C961 1.459 . S
C962 C963 1.445 . S
C962 C971 1.395 . S
C963 C941 1.432 . S
C963 C962 1.445 . S
C963 C964 1.370 . S
C964 C963 1.370 . S
C964 C965 1.438 . S
C964 H1026 0.930 . S
C965 C951 1.497 . S
C965 C964 1.438 . S
C965 C966 1.360 . S
C966 C965 1.360 . S
C966 C967 1.401 . S
C966 C971 1.446 . S
C967 C966 1.401 . S
C967 C968 1.347 . S
C967 H1027 0.929 . S
C968 C967 1.347 . S
C968 C969 1.455 . S
C968 H1028 0.930 . S
C969 C956 1.412 . S
C969 C968 1.455 . S
C969 C970 1.331 . S
C970 C959 1.451 . S
C970 C969 1.331 . S
C970 C971 1.497 . S
C971 C962 1.395 . S
C971 C966 1.446 . S
C971 C970 1.497 . S
C972 C973 1.582 . S
C972 H1029 0.962 . S
C972 H1030 0.959 . S
C972 H1031 0.958 . S
C973 C972 1.582 . S
C973 O976 1.458 . S
C973 H1002 0.980 . S
O974 C919 1.426 . S
O974 C920 1.334 . S
O975 C947 1.412 . S
O975 C948 1.393 . S
O976 C938 1.435 . S
O976 C973 1.458 . S
O977 C929 1.468 . S
O977 C930 1.408 . S
H978 C919 0.980 . S
H979 C918 0.959 . S
H980 C918 0.959 . S
H981 C918 0.960 . S
H982 C921 0.929 . S
H983 C925 0.929 . S
H984 C926 0.959 . S
H985 C926 0.961 . S
H986 C926 0.961 . S
H987 C927 0.960 . S
H988 C927 0.960 . S
H989 C927 0.961 . S
H990 C929 0.980 . S
H991 C928 0.961 . S
H992 C928 0.960 . S
H993 C928 0.959 . S
H994 C931 0.930 . S
H995 C935 0.931 . S
H996 C936 0.959 . S
H997 C936 0.961 . S
H998 C936 0.959 . S
H999 C937 0.960 . S
H1000 C937 0.960 . S
H1001 C937 0.960 . S
H1002 C973 0.980 . S
H1003 C939 0.930 . S
H1004 C943 0.930 . S
H1005 C944 0.961 . S
H1006 C944 0.960 . S
H1007 C944 0.958 . S
H1008 C945 0.961 . S
H1009 C945 0.960 . S
H1010 C945 0.960 . S
H1011 C947 0.980 . S
H1012 C946 0.961 . S
H1013 C946 0.961 . S
H1014 C946 0.959 . S
H1015 C949 0.932 . S
H1016 C953 0.929 . S
H1017 C954 0.961 . S
H1018 C954 0.959 . S
H1019 C954 0.959 . S
H1020 C955 0.960 . S
H1021 C955 0.962 . S
H1022 C955 0.961 . S
H1023 C957 0.929 . S
H1024 C960 0.930 . S
H1025 C961 0.929 . S
H1026 C964 0.930 . S
H1027 C967 0.929 . S
H1028 C968 0.930 . S
H1029 C972 0.962 . S
H1030 C972 0.959 . S
H1031 C972 0.958 . S
C1032 C1033 1.560 . S
C1032 H1093 0.959 . S
C1032 H1094 0.959 . S
C1032 H1095 0.960 . S
C1033 C1032 1.560 . S
C1033 O1088 1.426 . S
C1033 H1092 0.980 . S
C1034 C1035 1.407 . S
C1034 C1039 1.418 . S
C1034 O1088 1.334 . S
C1035 C1034 1.407 . S
C1035 C1036 1.360 . S
C1035 H1096 0.929 . S
C1036 C1035 1.360 . S
C1036 C1037 1.401 . S
C1036 C1040 1.527 . S
C1037 C1036 1.401 . S
C1037 C1038 1.405 . S
C1037 C1070 1.587 . S
C1038 C1037 1.405 . S
C1038 C1039 1.332 . S
C1038 C1041 1.496 . S
C1039 C1034 1.418 . S
C1039 C1038 1.332 . S
C1039 H1097 0.929 . S
C1040 C1036 1.527 . S
C1040 H1098 0.959 . S
C1040 H1099 0.961 . S
C1040 H1100 0.961 . S
C1041 C1038 1.496 . S
C1041 H1101 0.960 . S
C1041 H1102 0.960 . S
C1041 H1103 0.961 . S
C1042 C1043 1.517 . S
C1042 H1105 0.961 . S
C1042 H1106 0.960 . S
C1042 H1107 0.959 . S
C1043 C1042 1.517 . S
C1043 O1091 1.468 . S
C1043 H1104 0.980 . S
C1044 C1045 1.349 . S
C1044 C1049 1.367 . S
C1044 O1091 1.408 . S
C1045 C1044 1.349 . S
C1045 C1046 1.407 . S
C1045 H1108 0.930 . S
C1046 C1045 1.407 . S
C1046 C1047 1.449 . S
C1046 C1050 1.535 . S
C1047 C1046 1.449 . S
C1047 C1048 1.384 . S
C1047 C1072 1.553 . S
C1048 C1047 1.384 . S
C1048 C1049 1.364 . S
C1048 C1051 1.450 . S
C1049 C1044 1.367 . S
C1049 C1048 1.364 . S
C1049 H1109 0.931 . S
C1050 C1046 1.535 . S
C1050 H1110 0.959 . S
C1050 H1111 0.961 . S
C1050 H1112 0.959 . S
C1051 C1048 1.450 . S
C1051 H1113 0.960 . S
C1051 H1114 0.960 . S
C1051 H1115 0.960 . S
C1052 C1053 1.309 . S
C1052 C1057 1.304 . S
C1052 O1090 1.435 . S
C1053 C1052 1.309 . S
C1053 C1054 1.476 . S
C1053 H1117 0.930 . S
C1054 C1053 1.476 . S
C1054 C1055 1.400 . S
C1054 C1058 1.567 . S
C1055 C1054 1.400 . S
C1055 C1056 1.373 . S
C1055 C1077 1.432 . S
C1056 C1055 1.373 . S
C1056 C1057 1.339 . S
C1056 C1059 1.530 . S
C1057 C1052 1.304 . S
C1057 C1056 1.339 . S
C1057 H1118 0.930 . S
C1058 C1054 1.567 . S
C1058 H1119 0.961 . S
C1058 H1120 0.960 . S
C1058 H1121 0.958 . S
C1059 C1056 1.530 . S
C1059 H1122 0.961 . S
C1059 H1123 0.960 . S
C1059 H1124 0.960 . S
C1060 C1061 1.530 . S
C1060 H1126 0.961 . S
C1060 H1127 0.961 . S
C1060 H1128 0.959 . S
C1061 C1060 1.530 . S
C1061 O1089 1.412 . S
C1061 H1125 0.980 . S
C1062 C1063 1.288 . S
C1062 C1067 1.377 . S
C1062 O1089 1.393 . S
C1063 C1062 1.288 . S
C1063 C1064 1.369 . S
C1063 H1129 0.932 . S
C1064 C1063 1.369 . S
C1064 C1065 1.398 . S
C1064 C1068 1.527 . S
C1065 C1064 1.398 . S
C1065 C1066 1.380 . S
C1065 C1079 1.497 . S
C1066 C1065 1.380 . S
C1066 C1067 1.383 . S
C1066 C1069 1.603 . S
C1067 C1062 1.377 . S
C1067 C1066 1.383 . S
C1067 H1130 0.929 . S
C1068 C1064 1.527 . S
C1068 H1131 0.961 . S
C1068 H1132 0.959 . S
C1068 H1133 0.959 . S
C1069 C1066 1.603 . S
C1069 H1134 0.960 . S
C1069 H1135 0.962 . S
C1069 H1136 0.961 . S
C1070 C1037 1.587 . S
C1070 C1071 1.360 . S
C1070 C1083 1.412 . S
C1071 C1070 1.360 . S
C1071 C1072 1.365 . S
C1071 H1137 0.929 . S
C1072 C1047 1.553 . S
C1072 C1071 1.365 . S
C1072 C1073 1.404 . S
C1073 C1072 1.404 . S
C1073 C1074 1.395 . S
C1073 C1084 1.451 . S
C1074 C1073 1.395 . S
C1074 C1075 1.322 . S
C1074 H1138 0.930 . S
C1075 C1074 1.322 . S
C1075 C1076 1.459 . S
C1075 H1139 0.929 . S
C1076 C1075 1.459 . S
C1076 C1077 1.445 . S
C1076 C1085 1.395 . S
C1077 C1055 1.432 . S
C1077 C1076 1.445 . S
C1077 C1078 1.370 . S
C1078 C1077 1.370 . S
C1078 C1079 1.438 . S
C1078 H1140 0.930 . S
C1079 C1065 1.497 . S
C1079 C1078 1.438 . S
C1079 C1080 1.360 . S
C1080 C1079 1.360 . S
C1080 C1081 1.401 . S
C1080 C1085 1.446 . S
C1081 C1080 1.401 . S
C1081 C1082 1.347 . S
C1081 H1141 0.929 . S
C1082 C1081 1.347 . S
C1082 C1083 1.455 . S
C1082 H1142 0.930 . S
C1083 C1070 1.412 . S
C1083 C1082 1.455 . S
C1083 C1084 1.331 . S
C1084 C1073 1.451 . S
C1084 C1083 1.331 . S
C1084 C1085 1.497 . S
C1085 C1076 1.395 . S
C1085 C1080 1.446 . S
C1085 C1084 1.497 . S
C1086 C1087 1.582 . S
C1086 H1143 0.962 . S
C1086 H1144 0.959 . S
C1086 H1145 0.958 . S
C1087 C1086 1.582 . S
C1087 O1090 1.458 . S
C1087 H1116 0.980 . S
O1088 C1033 1.426 . S
O1088 C1034 1.334 . S
O1089 C1061 1.412 . S
O1089 C1062 1.393 . S
O1090 C1052 1.435 . S
O1090 C1087 1.458 . S
O1091 C1043 1.468 . S
O1091 C1044 1.408 . S
H1092 C1033 0.980 . S
H1093 C1032 0.959 . S
H1094 C1032 0.959 . S
H1095 C1032 0.960 . S
H1096 C1035 0.929 . S
H1097 C1039 0.929 . S
H1098 C1040 0.959 . S
H1099 C1040 0.961 . S
H1100 C1040 0.961 . S
H1101 C1041 0.960 . S
H1102 C1041 0.960 . S
H1103 C1041 0.961 . S
H1104 C1043 0.980 . S
H1105 C1042 0.961 . S
H1106 C1042 0.960 . S
H1107 C1042 0.959 . S
H1108 C1045 0.930 . S
H1109 C1049 0.931 . S
H1110 C1050 0.959 . S
H1111 C1050 0.961 . S
H1112 C1050 0.959 . S
H1113 C1051 0.960 . S
H1114 C1051 0.960 . S
H1115 C1051 0.960 . S
H1116 C1087 0.980 . S
H1117 C1053 0.930 . S
H1118 C1057 0.930 . S
H1119 C1058 0.961 . S
H1120 C1058 0.960 . S
H1121 C1058 0.958 . S
H1122 C1059 0.961 . S
H1123 C1059 0.960 . S
H1124 C1059 0.960 . S
H1125 C1061 0.980 . S
H1126 C1060 0.961 . S
H1127 C1060 0.961 . S
H1128 C1060 0.959 . S
H1129 C1063 0.932 . S
H1130 C1067 0.929 . S
H1131 C1068 0.961 . S
H1132 C1068 0.959 . S
H1133 C1068 0.959 . S
H1134 C1069 0.960 . S
H1135 C1069 0.962 . S
H1136 C1069 0.961 . S
H1137 C1071 0.929 . S
H1138 C1074 0.930 . S
H1139 C1075 0.929 . S
H1140 C1078 0.930 . S
H1141 C1081 0.929 . S
H1142 C1082 0.930 . S
H1143 C1086 0.962 . S
H1144 C1086 0.959 . S
H1145 C1086 0.958 . S
C1146 C1147 1.560 . S
C1146 H1207 0.959 . S
C1146 H1208 0.959 . S
C1146 H1209 0.960 . S
C1147 C1146 1.560 . S
C1147 O1202 1.426 . S
C1147 H1206 0.980 . S
C1148 C1149 1.407 . S
C1148 C1153 1.418 . S
C1148 O1202 1.334 . S
C1149 C1148 1.407 . S
C1149 C1150 1.360 . S
C1149 H1210 0.929 . S
C1150 C1149 1.360 . S
C1150 C1151 1.401 . S
C1150 C1154 1.527 . S
C1151 C1150 1.401 . S
C1151 C1152 1.405 . S
C1151 C1184 1.587 . S
C1152 C1151 1.405 . S
C1152 C1153 1.332 . S
C1152 C1155 1.496 . S
C1153 C1148 1.418 . S
C1153 C1152 1.332 . S
C1153 H1211 0.929 . S
C1154 C1150 1.527 . S
C1154 H1212 0.959 . S
C1154 H1213 0.961 . S
C1154 H1214 0.961 . S
C1155 C1152 1.496 . S
C1155 H1215 0.960 . S
C1155 H1216 0.960 . S
C1155 H1217 0.961 . S
C1156 C1157 1.517 . S
C1156 H1219 0.961 . S
C1156 H1220 0.960 . S
C1156 H1221 0.959 . S
C1157 C1156 1.517 . S
C1157 O1205 1.468 . S
C1157 H1218 0.980 . S
C1158 C1159 1.349 . S
C1158 C1163 1.367 . S
C1158 O1205 1.408 . S
C1159 C1158 1.349 . S
C1159 C1160 1.407 . S
C1159 H1222 0.930 . S
C1160 C1159 1.407 . S
C1160 C1161 1.449 . S
C1160 C1164 1.535 . S
C1161 C1160 1.449 . S
C1161 C1162 1.384 . S
C1161 C1186 1.553 . S
C1162 C1161 1.384 . S
C1162 C1163 1.364 . S
C1162 C1165 1.450 . S
C1163 C1158 1.367 . S
C1163 C1162 1.364 . S
C1163 H1223 0.931 . S
C1164 C1160 1.535 . S
C1164 H1224 0.959 . S
C1164 H1225 0.961 . S
C1164 H1226 0.959 . S
C1165 C1162 1.450 . S
C1165 H1227 0.960 . S
C1165 H1228 0.960 . S
C1165 H1229 0.960 . S
C1166 C1167 1.309 . S
C1166 C1171 1.304 . S
C1166 O1204 1.435 . S
C1167 C1166 1.309 . S
C1167 C1168 1.476 . S
C1167 H1231 0.930 . S
C1168 C1167 1.476 . S
C1168 C1169 1.400 . S
C1168 C1172 1.567 . S
C1169 C1168 1.400 . S
C1169 C1170 1.373 . S
C1169 C1191 1.432 . S
C1170 C1169 1.373 . S
C1170 C1171 1.339 . S
C1170 C1173 1.530 . S
C1171 C1166 1.304 . S
C1171 C1170 1.339 . S
C1171 H1232 0.930 . S
C1172 C1168 1.567 . S
C1172 H1233 0.961 . S
C1172 H1234 0.960 . S
C1172 H1235 0.958 . S
C1173 C1170 1.530 . S
C1173 H1236 0.961 . S
C1173 H1237 0.960 . S
C1173 H1238 0.960 . S
C1174 C1175 1.530 . S
C1174 H1240 0.961 . S
C1174 H1241 0.961 . S
C1174 H1242 0.959 . S
C1175 C1174 1.530 . S
C1175 O1203 1.412 . S
C1175 H1239 0.980 . S
C1176 C1177 1.288 . S
C1176 C1181 1.377 . S
C1176 O1203 1.393 . S
C1177 C1176 1.288 . S
C1177 C1178 1.369 . S
C1177 H1243 0.932 . S
C1178 C1177 1.369 . S
C1178 C1179 1.398 . S
C1178 C1182 1.527 . S
C1179 C1178 1.398 . S
C1179 C1180 1.380 . S
C1179 C1193 1.497 . S
C1180 C1179 1.380 . S
C1180 C1181 1.383 . S
C1180 C1183 1.603 . S
C1181 C1176 1.377 . S
C1181 C1180 1.383 . S
C1181 H1244 0.929 . S
C1182 C1178 1.527 . S
C1182 H1245 0.961 . S
C1182 H1246 0.959 . S
C1182 H1247 0.959 . S
C1183 C1180 1.603 . S
C1183 H1248 0.960 . S
C1183 H1249 0.962 . S
C1183 H1250 0.961 . S
C1184 C1151 1.587 . S
C1184 C1185 1.360 . S
C1184 C1197 1.412 . S
C1185 C1184 1.360 . S
C1185 C1186 1.365 . S
C1185 H1251 0.929 . S
C1186 C1161 1.553 . S
C1186 C1185 1.365 . S
C1186 C1187 1.404 . S
C1187 C1186 1.404 . S
C1187 C1188 1.395 . S
C1187 C1198 1.451 . S
C1188 C1187 1.395 . S
C1188 C1189 1.322 . S
C1188 H1252 0.930 . S
C1189 C1188 1.322 . S
C1189 C1190 1.459 . S
C1189 H1253 0.929 . S
C1190 C1189 1.459 . S
C1190 C1191 1.445 . S
C1190 C1199 1.395 . S
C1191 C1169 1.432 . S
C1191 C1190 1.445 . S
C1191 C1192 1.370 . S
C1192 C1191 1.370 . S
C1192 C1193 1.438 . S
C1192 H1254 0.930 . S
C1193 C1179 1.497 . S
C1193 C1192 1.438 . S
C1193 C1194 1.360 . S
C1194 C1193 1.360 . S
C1194 C1195 1.401 . S
C1194 C1199 1.446 . S
C1195 C1194 1.401 . S
C1195 C1196 1.347 . S
C1195 H1255 0.929 . S
C1196 C1195 1.347 . S
C1196 C1197 1.455 . S
C1196 H1256 0.930 . S
C1197 C1184 1.412 . S
C1197 C1196 1.455 . S
C1197 C1198 1.331 . S
C1198 C1187 1.451 . S
C1198 C1197 1.331 . S
C1198 C1199 1.497 . S
C1199 C1190 1.395 . S
C1199 C1194 1.446 . S
C1199 C1198 1.497 . S
C1200 C1201 1.582 . S
C1200 H1257 0.962 . S
C1200 H1258 0.959 . S
C1200 H1259 0.958 . S
C1201 C1200 1.582 . S
C1201 O1204 1.458 . S
C1201 H1230 0.980 . S
O1202 C1147 1.426 . S
O1202 C1148 1.334 . S
O1203 C1175 1.412 . S
O1203 C1176 1.393 . S
O1204 C1166 1.435 . S
O1204 C1201 1.458 . S
O1205 C1157 1.468 . S
O1205 C1158 1.408 . S
H1206 C1147 0.980 . S
H1207 C1146 0.959 . S
H1208 C1146 0.959 . S
H1209 C1146 0.960 . S
H1210 C1149 0.929 . S
H1211 C1153 0.929 . S
H1212 C1154 0.959 . S
H1213 C1154 0.961 . S
H1214 C1154 0.961 . S
H1215 C1155 0.960 . S
H1216 C1155 0.960 . S
H1217 C1155 0.961 . S
H1218 C1157 0.980 . S
H1219 C1156 0.961 . S
H1220 C1156 0.960 . S
H1221 C1156 0.959 . S
H1222 C1159 0.930 . S
H1223 C1163 0.931 . S
H1224 C1164 0.959 . S
H1225 C1164 0.961 . S
H1226 C1164 0.959 . S
H1227 C1165 0.960 . S
H1228 C1165 0.960 . S
H1229 C1165 0.960 . S
H1230 C1201 0.980 . S
H1231 C1167 0.930 . S
H1232 C1171 0.930 . S
H1233 C1172 0.961 . S
H1234 C1172 0.960 . S
H1235 C1172 0.958 . S
H1236 C1173 0.961 . S
H1237 C1173 0.960 . S
H1238 C1173 0.960 . S
H1239 C1175 0.980 . S
H1240 C1174 0.961 . S
H1241 C1174 0.961 . S
H1242 C1174 0.959 . S
H1243 C1177 0.932 . S
H1244 C1181 0.929 . S
H1245 C1182 0.961 . S
H1246 C1182 0.959 . S
H1247 C1182 0.959 . S
H1248 C1183 0.960 . S
H1249 C1183 0.962 . S
H1250 C1183 0.961 . S
H1251 C1185 0.929 . S
H1252 C1188 0.930 . S
H1253 C1189 0.929 . S
H1254 C1192 0.930 . S
H1255 C1195 0.929 . S
H1256 C1196 0.930 . S
H1257 C1200 0.962 . S
H1258 C1200 0.959 . S
H1259 C1200 0.958 . S
C1260 C1261 1.560 . S
C1260 H1321 0.959 . S
C1260 H1322 0.959 . S
C1260 H1323 0.960 . S
C1261 C1260 1.560 . S
C1261 O1316 1.426 . S
C1261 H1320 0.980 . S
C1262 C1263 1.407 1_455 S
C1262 C1267 1.418 . S
C1262 O1316 1.334 . S
C1263 C1262 1.407 1_655 S
C1263 C1264 1.360 . S
C1263 H1324 0.929 . S
C1264 C1263 1.360 . S
C1264 C1265 1.401 1_655 S
C1264 C1268 1.527 . S
C1265 C1264 1.401 1_455 S
C1265 C1266 1.405 . S
C1265 C1298 1.587 1_455 S
C1266 C1265 1.405 . S
C1266 C1267 1.332 . S
C1266 C1269 1.496 . S
C1267 C1262 1.418 . S
C1267 C1266 1.332 . S
C1267 H1325 0.929 . S
C1268 C1264 1.527 . S
C1268 H1326 0.959 . S
C1268 H1327 0.961 . S
C1268 H1328 0.961 . S
C1269 C1266 1.496 . S
C1269 H1329 0.960 . S
C1269 H1330 0.960 . S
C1269 H1331 0.961 . S
C1270 C1271 1.517 . S
C1270 H1333 0.961 . S
C1270 H1334 0.960 . S
C1270 H1335 0.959 . S
C1271 C1270 1.517 . S
C1271 O1319 1.468 . S
C1271 H1332 0.931 1_655 S
C1272 C1273 1.349 . S
C1272 C1277 1.367 . S
C1272 O1319 1.408 . S
C1273 C1272 1.349 . S
C1273 C1274 1.391 1_655 S
C1273 H1336 0.930 1_655 S
C1274 C1273 1.391 1_455 S
C1274 C1275 1.437 1_455 S
C1274 C1278 1.561 . S
C1275 C1274 1.437 1_655 S
C1275 C1276 1.384 . S
C1275 C1300 1.553 . S
C1276 C1275 1.384 . S
C1276 C1277 1.364 . S
C1276 C1279 1.450 . S
C1277 C1272 1.367 . S
C1277 C1276 1.364 . S
C1277 H1337 0.931 . S
C1278 C1274 1.561 . S
C1278 H1338 0.959 . S
C1278 H1339 0.961 . S
C1278 H1340 0.959 . S
C1279 C1276 1.450 . S
C1279 H1341 0.960 . S
C1279 H1342 0.960 . S
C1279 H1343 0.960 . S
C1280 C1281 1.309 . S
C1280 C1285 1.304 . S
C1280 O1318 1.435 . S
C1281 C1280 1.309 . S
C1281 C1282 1.491 . S
C1281 H1345 0.930 1_655 S
C1282 C1281 1.491 . S
C1282 C1283 1.408 . S
C1282 C1286 1.544 1_655 S
C1283 C1282 1.408 . S
C1283 C1284 1.373 . S
C1283 C1305 1.432 . S
C1284 C1283 1.373 . S
C1284 C1285 1.339 . S
C1284 C1287 1.530 . S
C1285 C1280 1.304 . S
C1285 C1284 1.339 . S
C1285 H1346 0.930 . S
C1286 C1282 1.544 1_455 S
C1286 H1347 0.961 . S
C1286 H1348 0.960 . S
C1286 H1349 0.958 . S
C1287 C1284 1.530 . S
C1287 H1350 0.961 . S
C1287 H1351 0.960 . S
C1287 H1352 0.960 . S
C1288 C1289 1.530 . S
C1288 H1354 0.961 . S
C1288 H1355 0.961 . S
C1288 H1356 0.959 . S
C1289 C1288 1.530 . S
C1289 O1317 1.412 . S
C1289 H1353 0.980 1_455 S
C1290 C1291 1.288 . S
C1290 C1295 1.377 1_455 S
C1290 O1317 1.393 . S
C1291 C1290 1.288 . S
C1291 C1292 1.369 . S
C1291 H1357 0.932 . S
C1292 C1291 1.369 . S
C1292 C1293 1.398 1_455 S
C1292 C1296 1.527 . S
C1293 C1292 1.398 1_655 S
C1293 C1294 1.380 . S
C1293 C1307 1.497 . S
C1294 C1293 1.380 . S
C1294 C1295 1.383 . S
C1294 C1297 1.603 . S
C1295 C1290 1.377 1_655 S
C1295 C1294 1.383 . S
C1295 H1358 0.929 . S
C1296 C1292 1.527 . S
C1296 H1359 0.961 . S
C1296 H1360 0.959 . S
C1296 H1361 0.959 . S
C1297 C1294 1.603 . S
C1297 H1362 0.960 . S
C1297 H1363 0.962 . S
C1297 H1364 0.961 . S
C1298 C1265 1.587 1_655 S
C1298 C1299 1.360 . S
C1298 C1311 1.412 . S
C1299 C1298 1.360 . S
C1299 C1300 1.365 . S
C1299 H1365 0.929 . S
C1300 C1275 1.553 . S
C1300 C1299 1.365 . S
C1300 C1301 1.404 . S
C1301 C1300 1.404 . S
C1301 C1302 1.395 . S
C1301 C1312 1.451 . S
C1302 C1301 1.395 . S
C1302 C1303 1.322 . S
C1302 H1366 0.930 . S
C1303 C1302 1.322 . S
C1303 C1304 1.459 . S
C1303 H1367 0.929 . S
C1304 C1303 1.459 . S
C1304 C1305 1.445 . S
C1304 C1313 1.395 . S
C1305 C1283 1.432 . S
C1305 C1304 1.445 . S
C1305 C1306 1.370 . S
C1306 C1305 1.370 . S
C1306 C1307 1.438 . S
C1306 H1368 0.930 . S
C1307 C1293 1.497 . S
C1307 C1306 1.438 . S
C1307 C1308 1.360 . S
C1308 C1307 1.360 . S
C1308 C1309 1.401 . S
C1308 C1313 1.446 . S
C1309 C1308 1.401 . S
C1309 C1310 1.347 . S
C1309 H1369 0.929 . S
C1310 C1309 1.347 . S
C1310 C1311 1.455 . S
C1310 H1370 0.972 . S
C1311 C1298 1.412 . S
C1311 C1310 1.455 . S
C1311 C1312 1.331 . S
C1312 C1301 1.451 . S
C1312 C1311 1.331 . S
C1312 C1313 1.497 . S
C1313 C1304 1.395 . S
C1313 C1308 1.446 . S
C1313 C1312 1.497 . S
C1314 C1315 1.582 . S
C1314 H1371 0.962 . S
C1314 H1372 0.959 . S
C1314 H1373 0.958 . S
C1315 C1314 1.582 . S
C1315 O1318 1.458 . S
C1315 H1344 0.980 . S
O1316 C1261 1.426 . S
O1316 C1262 1.334 . S
O1317 C1289 1.412 . S
O1317 C1290 1.393 . S
O1318 C1280 1.435 . S
O1318 C1315 1.458 . S
O1319 C1271 1.468 . S
O1319 C1272 1.408 . S
H1320 C1261 0.980 . S
H1321 C1260 0.959 . S
H1322 C1260 0.959 . S
H1323 C1260 0.960 . S
H1324 C1263 0.929 . S
H1325 C1267 0.929 . S
H1326 C1268 0.959 . S
H1327 C1268 0.961 . S
H1328 C1268 0.961 . S
H1329 C1269 0.960 . S
H1330 C1269 0.960 . S
H1331 C1269 0.961 . S
H1332 C1271 0.931 1_455 S
H1333 C1270 0.961 . S
H1334 C1270 0.960 . S
H1335 C1270 0.959 . S
H1336 C1273 0.930 1_455 S
H1337 C1277 0.931 . S
H1338 C1278 0.959 . S
H1339 C1278 0.961 . S
H1340 C1278 0.959 . S
H1341 C1279 0.960 . S
H1342 C1279 0.960 . S
H1343 C1279 0.960 . S
H1344 C1315 0.980 . S
H1345 C1281 0.930 1_455 S
H1346 C1285 0.930 . S
H1347 C1286 0.961 . S
H1348 C1286 0.960 . S
H1349 C1286 0.958 . S
H1350 C1287 0.961 . S
H1351 C1287 0.960 . S
H1352 C1287 0.960 . S
H1353 C1289 0.980 1_655 S
H1354 C1288 0.961 . S
H1355 C1288 0.961 . S
H1356 C1288 0.959 . S
H1357 C1291 0.932 . S
H1358 C1295 0.929 . S
H1359 C1296 0.961 . S
H1360 C1296 0.959 . S
H1361 C1296 0.959 . S
H1362 C1297 0.960 . S
H1363 C1297 0.962 . S
H1364 C1297 0.961 . S
H1365 C1299 0.929 . S
H1366 C1302 0.930 . S
H1367 C1303 0.929 . S
H1368 C1306 0.930 . S
H1369 C1309 0.929 . S
H1370 C1310 0.972 . S
H1371 C1314 0.962 . S
H1372 C1314 0.959 . S
H1373 C1314 0.958 . S
C1374 C1375 1.560 . S
C1374 H1435 0.959 . S
C1374 H1436 0.959 . S
C1374 H1437 0.960 . S
C1375 C1374 1.560 . S
C1375 O1430 1.426 . S
C1375 H1434 0.980 . S
C1376 C1377 1.407 . S
C1376 C1381 1.418 . S
C1376 O1430 1.334 . S
C1377 C1376 1.407 . S
C1377 C1378 1.360 . S
C1377 H1438 0.929 . S
C1378 C1377 1.360 . S
C1378 C1379 1.401 . S
C1378 C1382 1.527 . S
C1379 C1378 1.401 . S
C1379 C1380 1.405 . S
C1379 C1412 1.587 . S
C1380 C1379 1.405 . S
C1380 C1381 1.332 . S
C1380 C1383 1.496 . S
C1381 C1376 1.418 . S
C1381 C1380 1.332 . S
C1381 H1439 0.929 . S
C1382 C1378 1.527 . S
C1382 H1440 0.959 . S
C1382 H1441 0.961 . S
C1382 H1442 0.961 . S
C1383 C1380 1.496 . S
C1383 H1443 0.960 . S
C1383 H1444 0.960 . S
C1383 H1445 0.961 . S
C1384 C1385 1.517 . S
C1384 H1447 0.961 . S
C1384 H1448 0.960 . S
C1384 H1449 0.959 . S
C1385 C1384 1.517 . S
C1385 O1433 1.468 . S
C1385 H1446 0.980 . S
C1386 C1387 1.349 . S
C1386 C1391 1.367 . S
C1386 O1433 1.408 . S
C1387 C1386 1.349 . S
C1387 C1388 1.407 . S
C1387 H1450 0.930 . S
C1388 C1387 1.407 . S
C1388 C1389 1.449 . S
C1388 C1392 1.535 . S
C1389 C1388 1.449 . S
C1389 C1390 1.384 . S
C1389 C1414 1.553 . S
C1390 C1389 1.384 . S
C1390 C1391 1.364 . S
C1390 C1393 1.450 . S
C1391 C1386 1.367 . S
C1391 C1390 1.364 . S
C1391 H1451 0.931 . S
C1392 C1388 1.535 . S
C1392 H1452 0.959 . S
C1392 H1453 0.961 . S
C1392 H1454 0.959 . S
C1393 C1390 1.450 . S
C1393 H1455 0.960 . S
C1393 H1456 0.960 . S
C1393 H1457 0.960 . S
C1394 C1395 1.309 . S
C1394 C1399 1.304 . S
C1394 O1432 1.435 . S
C1395 C1394 1.309 . S
C1395 C1396 1.476 . S
C1395 H1459 0.930 . S
C1396 C1395 1.476 . S
C1396 C1397 1.400 . S
C1396 C1400 1.567 . S
C1397 C1396 1.400 . S
C1397 C1398 1.373 . S
C1397 C1419 1.432 . S
C1398 C1397 1.373 . S
C1398 C1399 1.339 . S
C1398 C1401 1.530 . S
C1399 C1394 1.304 . S
C1399 C1398 1.339 . S
C1399 H1460 0.930 . S
C1400 C1396 1.567 . S
C1400 H1461 0.961 . S
C1400 H1462 0.960 . S
C1400 H1463 0.958 . S
C1401 C1398 1.530 . S
C1401 H1464 0.961 . S
C1401 H1465 0.960 . S
C1401 H1466 0.960 . S
C1402 C1403 1.530 . S
C1402 H1468 0.961 . S
C1402 H1469 0.961 . S
C1402 H1470 0.959 . S
C1403 C1402 1.530 . S
C1403 O1431 1.412 . S
C1403 H1467 0.980 . S
C1404 C1405 1.288 . S
C1404 C1409 1.377 . S
C1404 O1431 1.393 . S
C1405 C1404 1.288 . S
C1405 C1406 1.369 . S
C1405 H1471 0.932 . S
C1406 C1405 1.369 . S
C1406 C1407 1.398 . S
C1406 C1410 1.527 . S
C1407 C1406 1.398 . S
C1407 C1408 1.380 . S
C1407 C1421 1.497 . S
C1408 C1407 1.380 . S
C1408 C1409 1.383 . S
C1408 C1411 1.603 . S
C1409 C1404 1.377 . S
C1409 C1408 1.383 . S
C1409 H1472 0.929 . S
C1410 C1406 1.527 . S
C1410 H1473 0.961 . S
C1410 H1474 0.959 . S
C1410 H1475 0.959 . S
C1411 C1408 1.603 . S
C1411 H1476 0.960 . S
C1411 H1477 0.962 . S
C1411 H1478 0.961 . S
C1412 C1379 1.587 . S
C1412 C1413 1.360 . S
C1412 C1425 1.412 . S
C1413 C1412 1.360 . S
C1413 C1414 1.365 . S
C1413 H1479 0.929 . S
C1414 C1389 1.553 . S
C1414 C1413 1.365 . S
C1414 C1415 1.404 . S
C1415 C1414 1.404 . S
C1415 C1416 1.395 . S
C1415 C1426 1.451 . S
C1416 C1415 1.395 . S
C1416 C1417 1.322 . S
C1416 H1480 0.930 . S
C1417 C1416 1.322 . S
C1417 C1418 1.459 . S
C1417 H1481 0.929 . S
C1418 C1417 1.459 . S
C1418 C1419 1.445 . S
C1418 C1427 1.395 . S
C1419 C1397 1.432 . S
C1419 C1418 1.445 . S
C1419 C1420 1.370 . S
C1420 C1419 1.370 . S
C1420 C1421 1.438 . S
C1420 H1482 0.930 . S
C1421 C1407 1.497 . S
C1421 C1420 1.438 . S
C1421 C1422 1.360 . S
C1422 C1421 1.360 . S
C1422 C1423 1.401 . S
C1422 C1427 1.446 . S
C1423 C1422 1.401 . S
C1423 C1424 1.347 . S
C1423 H1483 0.929 . S
C1424 C1423 1.347 . S
C1424 C1425 1.455 . S
C1424 H1484 0.930 . S
C1425 C1412 1.412 . S
C1425 C1424 1.455 . S
C1425 C1426 1.331 . S
C1426 C1415 1.451 . S
C1426 C1425 1.331 . S
C1426 C1427 1.497 . S
C1427 C1418 1.395 . S
C1427 C1422 1.446 . S
C1427 C1426 1.497 . S
C1428 C1429 1.582 . S
C1428 H1485 0.962 . S
C1428 H1486 0.959 . S
C1428 H1487 0.958 . S
C1429 C1428 1.582 . S
C1429 O1432 1.458 . S
C1429 H1458 0.980 . S
O1430 C1375 1.426 . S
O1430 C1376 1.334 . S
O1431 C1403 1.412 . S
O1431 C1404 1.393 . S
O1432 C1394 1.435 . S
O1432 C1429 1.458 . S
O1433 C1385 1.468 . S
O1433 C1386 1.408 . S
H1434 C1375 0.980 . S
H1435 C1374 0.959 . S
H1436 C1374 0.959 . S
H1437 C1374 0.960 . S
H1438 C1377 0.929 . S
H1439 C1381 0.929 . S
H1440 C1382 0.959 . S
H1441 C1382 0.961 . S
H1442 C1382 0.961 . S
H1443 C1383 0.960 . S
H1444 C1383 0.960 . S
H1445 C1383 0.961 . S
H1446 C1385 0.980 . S
H1447 C1384 0.961 . S
H1448 C1384 0.960 . S
H1449 C1384 0.959 . S
H1450 C1387 0.930 . S
H1451 C1391 0.931 . S
H1452 C1392 0.959 . S
H1453 C1392 0.961 . S
H1454 C1392 0.959 . S
H1455 C1393 0.960 . S
H1456 C1393 0.960 . S
H1457 C1393 0.960 . S
H1458 C1429 0.980 . S
H1459 C1395 0.930 . S
H1460 C1399 0.930 . S
H1461 C1400 0.961 . S
H1462 C1400 0.960 . S
H1463 C1400 0.958 . S
H1464 C1401 0.961 . S
H1465 C1401 0.960 . S
H1466 C1401 0.960 . S
H1467 C1403 0.980 . S
H1468 C1402 0.961 . S
H1469 C1402 0.961 . S
H1470 C1402 0.959 . S
H1471 C1405 0.932 . S
H1472 C1409 0.929 . S
H1473 C1410 0.961 . S
H1474 C1410 0.959 . S
H1475 C1410 0.959 . S
H1476 C1411 0.960 . S
H1477 C1411 0.962 . S
H1478 C1411 0.961 . S
H1479 C1413 0.929 . S
H1480 C1416 0.930 . S
H1481 C1417 0.929 . S
H1482 C1420 0.930 . S
H1483 C1423 0.929 . S
H1484 C1424 0.930 . S
H1485 C1428 0.962 . S
H1486 C1428 0.959 . S
H1487 C1428 0.958 . S
C1488 C1489 1.560 . S
C1488 H1549 0.959 . S
C1488 H1550 0.959 . S
C1488 H1551 0.960 . S
C1489 C1488 1.560 . S
C1489 O1544 1.426 . S
C1489 H1548 0.980 . S
C1490 C1491 1.407 1_565 S
C1490 C1495 1.418 . S
C1490 O1544 1.334 . S
C1491 C1490 1.407 1_545 S
C1491 C1492 1.360 . S
C1491 H1552 0.929 . S
C1492 C1491 1.360 . S
C1492 C1493 1.401 1_545 S
C1492 C1496 1.527 . S
C1493 C1492 1.401 1_565 S
C1493 C1494 1.405 . S
C1493 C1526 1.587 1_565 S
C1494 C1493 1.405 . S
C1494 C1495 1.332 . S
C1494 C1497 1.496 . S
C1495 C1490 1.418 . S
C1495 C1494 1.332 . S
C1495 H1553 0.929 . S
C1496 C1492 1.527 . S
C1496 H1554 0.959 . S
C1496 H1555 0.961 . S
C1496 H1556 0.961 . S
C1497 C1494 1.496 . S
C1497 H1557 0.960 . S
C1497 H1558 0.960 . S
C1497 H1559 0.961 . S
C1498 C1499 1.517 . S
C1498 H1561 0.961 1_545 S
C1498 H1562 0.960 . S
C1498 H1563 0.959 . S
C1499 C1498 1.517 . S
C1499 O1547 1.468 . S
C1499 H1560 0.980 1_545 S
C1500 C1501 1.334 1_545 S
C1500 C1505 1.367 . S
C1500 O1547 1.408 . S
C1501 C1500 1.334 1_565 S
C1501 C1502 1.396 . S
C1501 H1564 0.958 . S
C1502 C1501 1.396 . S
C1502 C1503 1.449 1_565 S
C1502 C1506 1.535 . S
C1503 C1502 1.449 1_545 S
C1503 C1504 1.384 . S
C1503 C1528 1.553 . S
C1504 C1503 1.384 . S
C1504 C1505 1.364 . S
C1504 C1507 1.450 . S
C1505 C1500 1.367 . S
C1505 C1504 1.364 . S
C1505 H1565 0.931 . S
C1506 C1502 1.535 . S
C1506 H1566 0.959 . S
C1506 H1567 0.961 . S
C1506 H1568 0.959 . S
C1507 C1504 1.450 . S
C1507 H1569 0.960 . S
C1507 H1570 0.960 . S
C1507 H1571 0.960 . S
C1508 C1509 1.309 . S
C1508 C1513 1.304 . S
C1508 O1546 1.435 . S
C1509 C1508 1.309 . S
C1509 C1510 1.494 1_545 S
C1509 H1573 0.930 1_545 S
C1510 C1509 1.494 1_565 S
C1510 C1511 1.346 1_565 S
C1510 C1514 1.603 . S
C1511 C1510 1.346 1_545 S
C1511 C1512 1.373 . S
C1511 C1533 1.432 . S
C1512 C1511 1.373 . S
C1512 C1513 1.339 . S
C1512 C1515 1.530 . S
C1513 C1508 1.304 . S
C1513 C1512 1.339 . S
C1513 H1574 0.930 . S
C1514 C1510 1.603 . S
C1514 H1575 0.961 . S
C1514 H1576 0.960 . S
C1514 H1577 0.958 . S
C1515 C1512 1.530 . S
C1515 H1578 0.961 . S
C1515 H1579 0.960 . S
C1515 H1580 0.960 . S
C1516 C1517 1.530 1_565 S
C1516 H1582 0.961 . S
C1516 H1583 0.961 . S
C1516 H1584 0.959 . S
C1517 C1516 1.530 1_545 S
C1517 O1545 1.412 1_545 S
C1517 H1581 0.980 . S
C1518 C1519 1.288 . S
C1518 C1523 1.377 1_565 S
C1518 O1545 1.393 . S
C1519 C1518 1.288 . S
C1519 C1520 1.369 . S
C1519 H1585 0.932 . S
C1520 C1519 1.369 . S
C1520 C1521 1.398 1_565 S
C1520 C1524 1.527 . S
C1521 C1520 1.398 1_545 S
C1521 C1522 1.380 . S
C1521 C1535 1.497 . S
C1522 C1521 1.380 . S
C1522 C1523 1.383 . S
C1522 C1525 1.603 . S
C1523 C1518 1.377 1_545 S
C1523 C1522 1.383 . S
C1523 H1586 0.929 . S
C1524 C1520 1.527 . S
C1524 H1587 0.961 . S
C1524 H1588 0.959 . S
C1524 H1589 0.959 . S
C1525 C1522 1.603 . S
C1525 H1590 0.960 . S
C1525 H1591 0.962 . S
C1525 H1592 0.961 . S
C1526 C1493 1.587 1_545 S
C1526 C1527 1.360 . S
C1526 C1539 1.412 . S
C1527 C1526 1.360 . S
C1527 C1528 1.365 . S
C1527 H1593 0.929 . S
C1528 C1503 1.553 . S
C1528 C1527 1.365 . S
C1528 C1529 1.404 . S
C1529 C1528 1.404 . S
C1529 C1530 1.395 . S
C1529 C1540 1.451 . S
C1530 C1529 1.395 . S
C1530 C1531 1.322 . S
C1530 H1594 0.930 . S
C1531 C1530 1.322 . S
C1531 C1532 1.459 . S
C1531 H1595 0.929 . S
C1532 C1531 1.459 . S
C1532 C1533 1.445 . S
C1532 C1541 1.395 . S
C1533 C1511 1.432 . S
C1533 C1532 1.445 . S
C1533 C1534 1.370 . S
C1534 C1533 1.370 . S
C1534 C1535 1.438 . S
C1534 H1596 0.930 . S
C1535 C1521 1.497 . S
C1535 C1534 1.438 . S
C1535 C1536 1.360 . S
C1536 C1535 1.360 . S
C1536 C1537 1.401 . S
C1536 C1541 1.446 . S
C1537 C1536 1.401 . S
C1537 C1538 1.347 . S
C1537 H1597 0.929 . S
C1538 C1537 1.347 . S
C1538 C1539 1.455 . S
C1538 H1598 0.930 . S
C1539 C1526 1.412 . S
C1539 C1538 1.455 . S
C1539 C1540 1.331 . S
C1540 C1529 1.451 . S
C1540 C1539 1.331 . S
C1540 C1541 1.497 . S
C1541 C1532 1.395 . S
C1541 C1536 1.446 . S
C1541 C1540 1.497 . S
C1542 C1543 1.582 . S
C1542 H1599 0.962 . S
C1542 H1600 0.959 . S
C1542 H1601 0.958 . S
C1543 C1542 1.582 . S
C1543 O1546 1.458 . S
C1543 H1572 0.980 . S
O1544 C1489 1.426 . S
O1544 C1490 1.334 . S
O1545 C1517 1.412 1_565 S
O1545 C1518 1.393 . S
O1546 C1508 1.435 . S
O1546 C1543 1.458 . S
O1547 C1499 1.468 . S
O1547 C1500 1.408 . S
H1548 C1489 0.980 . S
H1549 C1488 0.959 . S
H1550 C1488 0.959 . S
H1551 C1488 0.960 . S
H1552 C1491 0.929 . S
H1553 C1495 0.929 . S
H1554 C1496 0.959 . S
H1555 C1496 0.961 . S
H1556 C1496 0.961 . S
H1557 C1497 0.960 . S
H1558 C1497 0.960 . S
H1559 C1497 0.961 . S
H1560 C1499 0.980 1_565 S
H1561 C1498 0.961 1_565 S
H1562 C1498 0.960 . S
H1563 C1498 0.959 . S
H1564 C1501 0.958 . S
H1565 C1505 0.931 . S
H1566 C1506 0.959 . S
H1567 C1506 0.961 . S
H1568 C1506 0.959 . S
H1569 C1507 0.960 . S
H1570 C1507 0.960 . S
H1571 C1507 0.960 . S
H1572 C1543 0.980 . S
H1573 C1509 0.930 1_565 S
H1574 C1513 0.930 . S
H1575 C1514 0.961 . S
H1576 C1514 0.960 . S
H1577 C1514 0.958 . S
H1578 C1515 0.961 . S
H1579 C1515 0.960 . S
H1580 C1515 0.960 . S
H1581 C1517 0.980 . S
H1582 C1516 0.961 . S
H1583 C1516 0.961 . S
H1584 C1516 0.959 . S
H1585 C1519 0.932 . S
H1586 C1523 0.929 . S
H1587 C1524 0.961 . S
H1588 C1524 0.959 . S
H1589 C1524 0.959 . S
H1590 C1525 0.960 . S
H1591 C1525 0.962 . S
H1592 C1525 0.961 . S
H1593 C1527 0.929 . S
H1594 C1530 0.930 . S
H1595 C1531 0.929 . S
H1596 C1534 0.930 . S
H1597 C1537 0.929 . S
H1598 C1538 0.930 . S
H1599 C1542 0.962 . S
H1600 C1542 0.959 . S
H1601 C1542 0.958 . S
C1602 C1603 1.560 . S
C1602 H1663 0.959 . S
C1602 H1664 0.959 . S
C1602 H1665 0.960 . S
C1603 C1602 1.560 . S
C1603 O1658 1.426 . S
C1603 H1662 0.980 1_565 S
C1604 C1605 1.407 1_565 S
C1604 C1609 1.418 . S
C1604 O1658 1.334 . S
C1605 C1604 1.407 1_545 S
C1605 C1606 1.360 . S
C1605 H1666 0.929 . S
C1606 C1605 1.360 . S
C1606 C1607 1.401 . S
C1606 C1610 1.527 . S
C1607 C1606 1.401 . S
C1607 C1608 1.405 1_545 S
C1607 C1640 1.587 . S
C1608 C1607 1.405 1_565 S
C1608 C1609 1.332 . S
C1608 C1611 1.496 . S
C1609 C1604 1.418 . S
C1609 C1608 1.332 . S
C1609 H1667 0.929 . S
C1610 C1606 1.527 . S
C1610 H1668 0.959 . S
C1610 H1669 0.961 . S
C1610 H1670 0.961 . S
C1611 C1608 1.496 . S
C1611 H1671 0.960 . S
C1611 H1672 0.960 . S
C1611 H1673 0.961 . S
C1612 C1613 1.517 . S
C1612 H1675 0.961 . S
C1612 H1676 0.960 . S
C1612 H1677 0.959 . S
C1613 C1612 1.517 . S
C1613 O1661 1.468 . S
C1613 H1674 0.980 . S
C1614 C1615 1.349 . S
C1614 C1619 1.367 . S
C1614 O1661 1.408 . S
C1615 C1614 1.349 . S
C1615 C1616 1.407 . S
C1615 H1678 0.944 . S
C1616 C1615 1.407 . S
C1616 C1617 1.449 . S
C1616 C1620 1.535 1_545 S
C1617 C1616 1.449 . S
C1617 C1618 1.384 . S
C1617 C1642 1.553 . S
C1618 C1617 1.384 . S
C1618 C1619 1.364 . S
C1618 C1621 1.450 . S
C1619 C1614 1.367 . S
C1619 C1618 1.364 . S
C1619 H1679 0.931 . S
C1620 C1616 1.535 1_565 S
C1620 H1680 0.959 . S
C1620 H1681 0.961 . S
C1620 H1682 0.959 . S
C1621 C1618 1.450 . S
C1621 H1683 0.960 . S
C1621 H1684 0.960 . S
C1621 H1685 0.960 . S
C1622 C1623 1.309 1_545 S
C1622 C1627 1.304 . S
C1622 O1660 1.435 . S
C1623 C1622 1.309 1_565 S
C1623 C1624 1.476 . S
C1623 H1687 0.930 . S
C1624 C1623 1.476 . S
C1624 C1625 1.400 1_565 S
C1624 C1628 1.567 . S
C1625 C1624 1.400 1_545 S
C1625 C1626 1.373 . S
C1625 C1647 1.432 . S
C1626 C1625 1.373 . S
C1626 C1627 1.339 . S
C1626 C1629 1.530 . S
C1627 C1622 1.304 . S
C1627 C1626 1.339 . S
C1627 H1688 0.930 . S
C1628 C1624 1.567 . S
C1628 H1689 0.961 . S
C1628 H1690 0.960 . S
C1628 H1691 0.958 . S
C1629 C1626 1.530 . S
C1629 H1692 0.961 . S
C1629 H1693 0.960 . S
C1629 H1694 0.960 . S
C1630 C1631 1.530 . S
C1630 H1696 0.961 . S
C1630 H1697 0.961 . S
C1630 H1698 0.959 . S
C1631 C1630 1.530 . S
C1631 O1659 1.412 . S
C1631 H1695 0.980 . S
C1632 C1633 1.288 . S
C1632 C1637 1.377 1_565 S
C1632 O1659 1.393 . S
C1633 C1632 1.288 . S
C1633 C1634 1.369 . S
C1633 H1699 0.932 . S
C1634 C1633 1.369 . S
C1634 C1635 1.398 . S
C1634 C1638 1.527 . S
C1635 C1634 1.398 . S
C1635 C1636 1.380 1_565 S
C1635 C1649 1.497 1_565 S
C1636 C1635 1.380 1_545 S
C1636 C1637 1.383 . S
C1636 C1639 1.603 . S
C1637 C1632 1.377 1_545 S
C1637 C1636 1.383 . S
C1637 H1700 0.929 . S
C1638 C1634 1.527 . S
C1638 H1701 0.961 . S
C1638 H1702 0.959 . S
C1638 H1703 0.959 . S
C1639 C1636 1.603 . S
C1639 H1704 0.960 . S
C1639 H1705 0.962 . S
C1639 H1706 0.961 . S
C1640 C1607 1.587 . S
C1640 C1641 1.360 . S
C1640 C1653 1.412 . S
C1641 C1640 1.360 . S
C1641 C1642 1.365 . S
C1641 H1707 0.929 . S
C1642 C1617 1.553 . S
C1642 C1641 1.365 . S
C1642 C1643 1.404 . S
C1643 C1642 1.404 . S
C1643 C1644 1.395 . S
C1643 C1654 1.451 . S
C1644 C1643 1.395 . S
C1644 C1645 1.322 . S
C1644 H1708 0.930 . S
C1645 C1644 1.322 . S
C1645 C1646 1.459 . S
C1645 H1709 0.929 . S
C1646 C1645 1.459 . S
C1646 C1647 1.445 . S
C1646 C1655 1.395 . S
C1647 C1625 1.432 . S
C1647 C1646 1.445 . S
C1647 C1648 1.370 . S
C1648 C1647 1.370 . S
C1648 C1649 1.438 . S
C1648 H1710 0.930 . S
C1649 C1635 1.497 1_545 S
C1649 C1648 1.438 . S
C1649 C1650 1.360 . S
C1650 C1649 1.360 . S
C1650 C1651 1.401 . S
C1650 C1655 1.446 . S
C1651 C1650 1.401 . S
C1651 C1652 1.347 . S
C1651 H1711 0.937 . S
C1652 C1651 1.347 . S
C1652 C1653 1.455 . S
C1652 H1712 0.930 . S
C1653 C1640 1.412 . S
C1653 C1652 1.455 . S
C1653 C1654 1.331 . S
C1654 C1643 1.451 . S
C1654 C1653 1.331 . S
C1654 C1655 1.497 . S
C1655 C1646 1.395 . S
C1655 C1650 1.446 . S
C1655 C1654 1.497 . S
C1656 C1657 1.582 . S
C1656 H1713 0.962 . S
C1656 H1714 0.959 . S
C1656 H1715 0.958 . S
C1657 C1656 1.582 . S
C1657 O1660 1.458 . S
C1657 H1686 0.980 1_545 S
O1658 C1603 1.426 . S
O1658 C1604 1.334 . S
O1659 C1631 1.412 . S
O1659 C1632 1.393 . S
O1660 C1622 1.435 . S
O1660 C1657 1.458 . S
O1661 C1613 1.468 . S
O1661 C1614 1.408 . S
H1662 C1603 0.980 1_545 S
H1663 C1602 0.959 . S
H1664 C1602 0.959 . S
H1665 C1602 0.960 . S
H1666 C1605 0.929 . S
H1667 C1609 0.929 . S
H1668 C1610 0.959 . S
H1669 C1610 0.961 . S
H1670 C1610 0.961 . S
H1671 C1611 0.960 . S
H1672 C1611 0.960 . S
H1673 C1611 0.961 . S
H1674 C1613 0.980 . S
H1675 C1612 0.961 . S
H1676 C1612 0.960 . S
H1677 C1612 0.959 . S
H1678 C1615 0.944 . S
H1679 C1619 0.931 . S
H1680 C1620 0.959 . S
H1681 C1620 0.961 . S
H1682 C1620 0.959 . S
H1683 C1621 0.960 . S
H1684 C1621 0.960 . S
H1685 C1621 0.960 . S
H1686 C1657 0.980 1_565 S
H1687 C1623 0.930 . S
H1688 C1627 0.930 . S
H1689 C1628 0.961 . S
H1690 C1628 0.960 . S
H1691 C1628 0.958 . S
H1692 C1629 0.961 . S
H1693 C1629 0.960 . S
H1694 C1629 0.960 . S
H1695 C1631 0.980 . S
H1696 C1630 0.961 . S
H1697 C1630 0.961 . S
H1698 C1630 0.959 . S
H1699 C1633 0.932 . S
H1700 C1637 0.929 . S
H1701 C1638 0.961 . S
H1702 C1638 0.959 . S
H1703 C1638 0.959 . S
H1704 C1639 0.960 . S
H1705 C1639 0.962 . S
H1706 C1639 0.961 . S
H1707 C1641 0.929 . S
H1708 C1644 0.930 . S
H1709 C1645 0.929 . S
H1710 C1648 0.930 . S
H1711 C1651 0.937 . S
H1712 C1652 0.930 . S
H1713 C1656 0.962 . S
H1714 C1656 0.959 . S
H1715 C1656 0.958 . S
C1716 C1717 1.566 . S
C1716 H1777 0.959 . S
C1716 H1778 0.959 . S
C1716 H1779 0.960 . S
C1717 C1716 1.566 . S
C1717 O1772 1.438 . S
C1717 H1776 0.977 1_455 S
C1718 C1719 1.407 1_455 S
C1718 C1723 1.418 . S
C1718 O1772 1.334 . S
C1719 C1718 1.407 1_655 S
C1719 C1720 1.360 . S
C1719 H1780 0.929 . S
C1720 C1719 1.360 . S
C1720 C1721 1.401 . S
C1720 C1724 1.527 . S
C1721 C1720 1.401 . S
C1721 C1722 1.405 1_655 S
C1721 C1754 1.587 . S
C1722 C1721 1.405 1_455 S
C1722 C1723 1.332 . S
C1722 C1725 1.496 . S
C1723 C1718 1.418 . S
C1723 C1722 1.332 . S
C1723 H1781 0.929 . S
C1724 C1720 1.527 . S
C1724 H1782 0.959 . S
C1724 H1783 0.961 . S
C1724 H1784 0.961 . S
C1725 C1722 1.496 . S
C1725 H1785 0.960 . S
C1725 H1786 0.960 . S
C1725 H1787 0.961 . S
C1726 C1727 1.517 . S
C1726 H1789 0.961 . S
C1726 H1790 0.960 . S
C1726 H1791 0.959 . S
C1727 C1726 1.517 . S
C1727 O1775 1.468 . S
C1727 H1788 0.980 . S
C1728 C1729 1.349 . S
C1728 C1733 1.367 . S
C1728 O1775 1.408 . S
C1729 C1728 1.349 . S
C1729 C1730 1.407 . S
C1729 H1792 0.869 1_655 S
C1730 C1729 1.407 . S
C1730 C1731 1.449 . S
C1730 C1734 1.535 1_655 S
C1731 C1730 1.449 . S
C1731 C1732 1.384 . S
C1731 C1756 1.553 . S
C1732 C1731 1.384 . S
C1732 C1733 1.364 . S
C1732 C1735 1.450 . S
C1733 C1728 1.367 . S
C1733 C1732 1.364 . S
C1733 H1793 0.931 . S
C1734 C1730 1.535 1_455 S
C1734 H1794 0.959 . S
C1734 H1795 0.961 . S
C1734 H1796 0.959 . S
C1735 C1732 1.450 . S
C1735 H1797 0.960 . S
C1735 H1798 0.960 . S
C1735 H1799 0.960 . S
C1736 C1737 1.309 1_655 S
C1736 C1741 1.304 . S
C1736 O1774 1.435 . S
C1737 C1736 1.309 1_455 S
C1737 C1738 1.476 . S
C1737 H1801 0.930 . S
C1738 C1737 1.476 . S
C1738 C1739 1.400 1_455 S
C1738 C1742 1.567 . S
C1739 C1738 1.400 1_655 S
C1739 C1740 1.373 . S
C1739 C1761 1.432 . S
C1740 C1739 1.373 . S
C1740 C1741 1.339 . S
C1740 C1743 1.530 . S
C1741 C1736 1.304 . S
C1741 C1740 1.339 . S
C1741 H1802 0.930 . S
C1742 C1738 1.567 . S
C1742 H1803 0.961 . S
C1742 H1804 0.960 . S
C1742 H1805 0.958 . S
C1743 C1740 1.530 . S
C1743 H1806 0.961 . S
C1743 H1807 0.960 . S
C1743 H1808 0.960 . S
C1744 C1745 1.530 . S
C1744 H1810 0.961 . S
C1744 H1811 0.961 . S
C1744 H1812 0.959 . S
C1745 C1744 1.530 . S
C1745 O1773 1.412 . S
C1745 H1809 0.980 1_455 S
C1746 C1747 1.288 . S
C1746 C1751 1.377 1_455 S
C1746 O1773 1.393 . S
C1747 C1746 1.288 . S
C1747 C1748 1.369 . S
C1747 H1813 0.932 . S
C1748 C1747 1.369 . S
C1748 C1749 1.398 . S
C1748 C1752 1.527 . S
C1749 C1748 1.398 . S
C1749 C1750 1.380 1_455 S
C1749 C1763 1.497 1_455 S
C1750 C1749 1.380 1_655 S
C1750 C1751 1.383 . S
C1750 C1753 1.603 . S
C1751 C1746 1.377 1_655 S
C1751 C1750 1.383 . S
C1751 H1814 0.929 . S
C1752 C1748 1.527 . S
C1752 H1815 0.961 . S
C1752 H1816 0.959 . S
C1752 H1817 0.959 . S
C1753 C1750 1.603 . S
C1753 H1818 0.960 . S
C1753 H1819 0.962 . S
C1753 H1820 0.961 . S
C1754 C1721 1.587 . S
C1754 C1755 1.360 . S
C1754 C1767 1.412 . S
C1755 C1754 1.360 . S
C1755 C1756 1.365 . S
C1755 H1821 0.929 . S
C1756 C1731 1.553 . S
C1756 C1755 1.365 . S
C1756 C1757 1.404 . S
C1757 C1756 1.404 . S
C1757 C1758 1.395 . S
C1757 C1768 1.451 . S
C1758 C1757 1.395 . S
C1758 C1759 1.322 . S
C1758 H1822 0.930 . S
C1759 C1758 1.322 . S
C1759 C1760 1.459 . S
C1759 H1823 0.929 . S
C1760 C1759 1.459 . S
C1760 C1761 1.445 . S
C1760 C1769 1.395 . S
C1761 C1739 1.432 . S
C1761 C1760 1.445 . S
C1761 C1762 1.370 . S
C1762 C1761 1.370 . S
C1762 C1763 1.438 . S
C1762 H1824 0.930 . S
C1763 C1749 1.497 1_655 S
C1763 C1762 1.438 . S
C1763 C1764 1.360 . S
C1764 C1763 1.360 . S
C1764 C1765 1.401 . S
C1764 C1769 1.446 . S
C1765 C1764 1.401 . S
C1765 C1766 1.347 . S
C1765 H1825 0.929 . S
C1766 C1765 1.347 . S
C1766 C1767 1.455 . S
C1766 H1826 0.930 . S
C1767 C1754 1.412 . S
C1767 C1766 1.455 . S
C1767 C1768 1.331 . S
C1768 C1757 1.451 . S
C1768 C1767 1.331 . S
C1768 C1769 1.497 . S
C1769 C1760 1.395 . S
C1769 C1764 1.446 . S
C1769 C1768 1.497 . S
C1770 C1771 1.582 1_655 S
C1770 H1827 0.962 1_655 S
C1770 H1828 0.959 . S
C1770 H1829 0.958 . S
C1771 C1770 1.582 1_455 S
C1771 O1774 1.458 1_455 S
C1771 H1800 0.980 . S
O1772 C1717 1.438 . S
O1772 C1718 1.334 . S
O1773 C1745 1.412 . S
O1773 C1746 1.393 . S
O1774 C1736 1.435 . S
O1774 C1771 1.458 1_655 S
O1775 C1727 1.468 . S
O1775 C1728 1.408 . S
H1776 C1717 0.977 1_655 S
H1777 C1716 0.959 . S
H1778 C1716 0.959 . S
H1779 C1716 0.960 . S
H1780 C1719 0.929 . S
H1781 C1723 0.929 . S
H1782 C1724 0.959 . S
H1783 C1724 0.961 . S
H1784 C1724 0.961 . S
H1785 C1725 0.960 . S
H1786 C1725 0.960 . S
H1787 C1725 0.961 . S
H1788 C1727 0.980 . S
H1789 C1726 0.961 . S
H1790 C1726 0.960 . S
H1791 C1726 0.959 . S
H1792 C1729 0.869 1_455 S
H1793 C1733 0.931 . S
H1794 C1734 0.959 . S
H1795 C1734 0.961 . S
H1796 C1734 0.959 . S
H1797 C1735 0.960 . S
H1798 C1735 0.960 . S
H1799 C1735 0.960 . S
H1800 C1771 0.980 . S
H1801 C1737 0.930 . S
H1802 C1741 0.930 . S
H1803 C1742 0.961 . S
H1804 C1742 0.960 . S
H1805 C1742 0.958 . S
H1806 C1743 0.961 . S
H1807 C1743 0.960 . S
H1808 C1743 0.960 . S
H1809 C1745 0.980 1_655 S
H1810 C1744 0.961 . S
H1811 C1744 0.961 . S
H1812 C1744 0.959 . S
H1813 C1747 0.932 . S
H1814 C1751 0.929 . S
H1815 C1752 0.961 . S
H1816 C1752 0.959 . S
H1817 C1752 0.959 . S
H1818 C1753 0.960 . S
H1819 C1753 0.962 . S
H1820 C1753 0.961 . S
H1821 C1755 0.929 . S
H1822 C1758 0.930 . S
H1823 C1759 0.929 . S
H1824 C1762 0.930 . S
H1825 C1765 0.929 . S
H1826 C1766 0.930 . S
H1827 C1770 0.962 1_455 S
H1828 C1770 0.959 . S
H1829 C1770 0.958 . S
C1830 C1831 1.560 . S
C1830 H1891 0.959 . S
C1830 H1892 0.959 . S
C1830 H1893 0.960 . S
C1831 C1830 1.560 . S
C1831 O1886 1.426 . S
C1831 H1890 0.980 . S
C1832 C1833 1.407 . S
C1832 C1837 1.418 . S
C1832 O1886 1.334 . S
C1833 C1832 1.407 . S
C1833 C1834 1.360 . S
C1833 H1894 0.929 . S
C1834 C1833 1.360 . S
C1834 C1835 1.401 . S
C1834 C1838 1.527 . S
C1835 C1834 1.401 . S
C1835 C1836 1.405 . S
C1835 C1868 1.587 . S
C1836 C1835 1.405 . S
C1836 C1837 1.332 . S
C1836 C1839 1.496 . S
C1837 C1832 1.418 . S
C1837 C1836 1.332 . S
C1837 H1895 0.929 . S
C1838 C1834 1.527 . S
C1838 H1896 0.959 . S
C1838 H1897 0.961 . S
C1838 H1898 0.961 . S
C1839 C1836 1.496 . S
C1839 H1899 0.960 . S
C1839 H1900 0.960 . S
C1839 H1901 0.961 . S
C1840 C1841 1.517 . S
C1840 H1903 0.961 . S
C1840 H1904 0.960 . S
C1840 H1905 0.959 . S
C1841 C1840 1.517 . S
C1841 O1889 1.468 . S
C1841 H1902 0.980 . S
C1842 C1843 1.349 . S
C1842 C1847 1.367 . S
C1842 O1889 1.408 . S
C1843 C1842 1.349 . S
C1843 C1844 1.407 . S
C1843 H1906 0.930 . S
C1844 C1843 1.407 . S
C1844 C1845 1.449 . S
C1844 C1848 1.535 . S
C1845 C1844 1.449 . S
C1845 C1846 1.384 . S
C1845 C1870 1.553 . S
C1846 C1845 1.384 . S
C1846 C1847 1.364 . S
C1846 C1849 1.450 . S
C1847 C1842 1.367 . S
C1847 C1846 1.364 . S
C1847 H1907 0.931 . S
C1848 C1844 1.535 . S
C1848 H1908 0.959 . S
C1848 H1909 0.961 . S
C1848 H1910 0.959 . S
C1849 C1846 1.450 . S
C1849 H1911 0.960 . S
C1849 H1912 0.960 . S
C1849 H1913 0.960 . S
C1850 C1851 1.309 . S
C1850 C1855 1.304 . S
C1850 O1888 1.435 . S
C1851 C1850 1.309 . S
C1851 C1852 1.476 . S
C1851 H1915 0.930 . S
C1852 C1851 1.476 . S
C1852 C1853 1.400 . S
C1852 C1856 1.567 . S
C1853 C1852 1.400 . S
C1853 C1854 1.373 . S
C1853 C1875 1.432 . S
C1854 C1853 1.373 . S
C1854 C1855 1.339 . S
C1854 C1857 1.530 . S
C1855 C1850 1.304 . S
C1855 C1854 1.339 . S
C1855 H1916 0.930 . S
C1856 C1852 1.567 . S
C1856 H1917 0.961 . S
C1856 H1918 0.960 . S
C1856 H1919 0.958 . S
C1857 C1854 1.530 . S
C1857 H1920 0.961 . S
C1857 H1921 0.960 . S
C1857 H1922 0.960 . S
C1858 C1859 1.530 . S
C1858 H1924 0.961 . S
C1858 H1925 0.961 . S
C1858 H1926 0.959 . S
C1859 C1858 1.530 . S
C1859 O1887 1.412 . S
C1859 H1923 0.980 . S
C1860 C1861 1.288 . S
C1860 C1865 1.377 . S
C1860 O1887 1.393 . S
C1861 C1860 1.288 . S
C1861 C1862 1.369 . S
C1861 H1927 0.932 . S
C1862 C1861 1.369 . S
C1862 C1863 1.398 . S
C1862 C1866 1.527 . S
C1863 C1862 1.398 . S
C1863 C1864 1.380 . S
C1863 C1877 1.497 . S
C1864 C1863 1.380 . S
C1864 C1865 1.383 . S
C1864 C1867 1.603 . S
C1865 C1860 1.377 . S
C1865 C1864 1.383 . S
C1865 H1928 0.929 . S
C1866 C1862 1.527 . S
C1866 H1929 0.961 . S
C1866 H1930 0.959 . S
C1866 H1931 0.959 . S
C1867 C1864 1.603 . S
C1867 H1932 0.960 . S
C1867 H1933 0.962 . S
C1867 H1934 0.961 . S
C1868 C1835 1.587 . S
C1868 C1869 1.360 . S
C1868 C1881 1.412 . S
C1869 C1868 1.360 . S
C1869 C1870 1.365 . S
C1869 H1935 0.929 . S
C1870 C1845 1.553 . S
C1870 C1869 1.365 . S
C1870 C1871 1.404 . S
C1871 C1870 1.404 . S
C1871 C1872 1.395 . S
C1871 C1882 1.451 . S
C1872 C1871 1.395 . S
C1872 C1873 1.322 . S
C1872 H1936 0.930 . S
C1873 C1872 1.322 . S
C1873 C1874 1.459 . S
C1873 H1937 0.929 . S
C1874 C1873 1.459 . S
C1874 C1875 1.445 . S
C1874 C1883 1.395 . S
C1875 C1853 1.432 . S
C1875 C1874 1.445 . S
C1875 C1876 1.370 . S
C1876 C1875 1.370 . S
C1876 C1877 1.438 . S
C1876 H1938 0.930 . S
C1877 C1863 1.497 . S
C1877 C1876 1.438 . S
C1877 C1878 1.360 . S
C1878 C1877 1.360 . S
C1878 C1879 1.401 . S
C1878 C1883 1.446 . S
C1879 C1878 1.401 . S
C1879 C1880 1.347 . S
C1879 H1939 0.929 . S
C1880 C1879 1.347 . S
C1880 C1881 1.455 . S
C1880 H1940 0.930 . S
C1881 C1868 1.412 . S
C1881 C1880 1.455 . S
C1881 C1882 1.331 . S
C1882 C1871 1.451 . S
C1882 C1881 1.331 . S
C1882 C1883 1.497 . S
C1883 C1874 1.395 . S
C1883 C1878 1.446 . S
C1883 C1882 1.497 . S
C1884 C1885 1.582 . S
C1884 H1941 0.962 . S
C1884 H1942 0.959 . S
C1884 H1943 0.958 . S
C1885 C1884 1.582 . S
C1885 O1888 1.458 . S
C1885 H1914 0.980 . S
O1886 C1831 1.426 . S
O1886 C1832 1.334 . S
O1887 C1859 1.412 . S
O1887 C1860 1.393 . S
O1888 C1850 1.435 . S
O1888 C1885 1.458 . S
O1889 C1841 1.468 . S
O1889 C1842 1.408 . S
H1890 C1831 0.980 . S
H1891 C1830 0.959 . S
H1892 C1830 0.959 . S
H1893 C1830 0.960 . S
H1894 C1833 0.929 . S
H1895 C1837 0.929 . S
H1896 C1838 0.959 . S
H1897 C1838 0.961 . S
H1898 C1838 0.961 . S
H1899 C1839 0.960 . S
H1900 C1839 0.960 . S
H1901 C1839 0.961 . S
H1902 C1841 0.980 . S
H1903 C1840 0.961 . S
H1904 C1840 0.960 . S
H1905 C1840 0.959 . S
H1906 C1843 0.930 . S
H1907 C1847 0.931 . S
H1908 C1848 0.959 . S
H1909 C1848 0.961 . S
H1910 C1848 0.959 . S
H1911 C1849 0.960 . S
H1912 C1849 0.960 . S
H1913 C1849 0.960 . S
H1914 C1885 0.980 . S
H1915 C1851 0.930 . S
H1916 C1855 0.930 . S
H1917 C1856 0.961 . S
H1918 C1856 0.960 . S
H1919 C1856 0.958 . S
H1920 C1857 0.961 . S
H1921 C1857 0.960 . S
H1922 C1857 0.960 . S
H1923 C1859 0.980 . S
H1924 C1858 0.961 . S
H1925 C1858 0.961 . S
H1926 C1858 0.959 . S
H1927 C1861 0.932 . S
H1928 C1865 0.929 . S
H1929 C1866 0.961 . S
H1930 C1866 0.959 . S
H1931 C1866 0.959 . S
H1932 C1867 0.960 . S
H1933 C1867 0.962 . S
H1934 C1867 0.961 . S
H1935 C1869 0.929 . S
H1936 C1872 0.930 . S
H1937 C1873 0.929 . S
H1938 C1876 0.930 . S
H1939 C1879 0.929 . S
H1940 C1880 0.930 . S
H1941 C1884 0.962 . S
H1942 C1884 0.959 . S
H1943 C1884 0.958 . S
C1944 C1945 1.560 . S
C1944 H2005 0.959 . S
C1944 H2006 0.959 . S
C1944 H2007 0.960 . S
C1945 C1944 1.560 . S
C1945 O2000 1.426 . S
C1945 H2004 0.980 . S
C1946 C1947 1.407 . S
C1946 C1951 1.418 . S
C1946 O2000 1.334 . S
C1947 C1946 1.407 . S
C1947 C1948 1.360 . S
C1947 H2008 0.929 . S
C1948 C1947 1.360 . S
C1948 C1949 1.401 . S
C1948 C1952 1.527 . S
C1949 C1948 1.401 . S
C1949 C1950 1.405 . S
C1949 C1982 1.587 . S
C1950 C1949 1.405 . S
C1950 C1951 1.332 . S
C1950 C1953 1.496 . S
C1951 C1946 1.418 . S
C1951 C1950 1.332 . S
C1951 H2009 0.929 . S
C1952 C1948 1.527 . S
C1952 H2010 0.959 . S
C1952 H2011 0.961 . S
C1952 H2012 0.961 . S
C1953 C1950 1.496 . S
C1953 H2013 0.960 . S
C1953 H2014 0.960 . S
C1953 H2015 0.961 . S
C1954 C1955 1.517 . S
C1954 H2017 0.961 . S
C1954 H2018 0.960 . S
C1954 H2019 0.959 . S
C1955 C1954 1.517 . S
C1955 O2003 1.468 . S
C1955 H2016 0.980 . S
C1956 C1957 1.349 . S
C1956 C1961 1.367 . S
C1956 O2003 1.408 . S
C1957 C1956 1.349 . S
C1957 C1958 1.407 . S
C1957 H2020 0.930 . S
C1958 C1957 1.407 . S
C1958 C1959 1.449 . S
C1958 C1962 1.535 . S
C1959 C1958 1.449 . S
C1959 C1960 1.384 . S
C1959 C1984 1.553 . S
C1960 C1959 1.384 . S
C1960 C1961 1.364 . S
C1960 C1963 1.450 . S
C1961 C1956 1.367 . S
C1961 C1960 1.364 . S
C1961 H2021 0.931 . S
C1962 C1958 1.535 . S
C1962 H2022 0.959 . S
C1962 H2023 0.961 . S
C1962 H2024 0.959 . S
C1963 C1960 1.450 . S
C1963 H2025 0.960 . S
C1963 H2026 0.960 . S
C1963 H2027 0.960 . S
C1964 C1965 1.309 . S
C1964 C1969 1.304 . S
C1964 O2002 1.435 . S
C1965 C1964 1.309 . S
C1965 C1966 1.476 . S
C1965 H2029 0.930 . S
C1966 C1965 1.476 . S
C1966 C1967 1.400 . S
C1966 C1970 1.567 . S
C1967 C1966 1.400 . S
C1967 C1968 1.373 . S
C1967 C1989 1.432 . S
C1968 C1967 1.373 . S
C1968 C1969 1.339 . S
C1968 C1971 1.530 . S
C1969 C1964 1.304 . S
C1969 C1968 1.339 . S
C1969 H2030 0.930 . S
C1970 C1966 1.567 . S
C1970 H2031 0.961 . S
C1970 H2032 0.960 . S
C1970 H2033 0.958 . S
C1971 C1968 1.530 . S
C1971 H2034 0.961 . S
C1971 H2035 0.960 . S
C1971 H2036 0.960 . S
C1972 C1973 1.530 . S
C1972 H2038 0.961 . S
C1972 H2039 0.961 . S
C1972 H2040 0.959 . S
C1973 C1972 1.530 . S
C1973 O2001 1.412 . S
C1973 H2037 0.980 . S
C1974 C1975 1.288 . S
C1974 C1979 1.377 . S
C1974 O2001 1.393 . S
C1975 C1974 1.288 . S
C1975 C1976 1.369 . S
C1975 H2041 0.932 . S
C1976 C1975 1.369 . S
C1976 C1977 1.398 . S
C1976 C1980 1.527 . S
C1977 C1976 1.398 . S
C1977 C1978 1.380 . S
C1977 C1991 1.497 . S
C1978 C1977 1.380 . S
C1978 C1979 1.383 . S
C1978 C1981 1.603 . S
C1979 C1974 1.377 . S
C1979 C1978 1.383 . S
C1979 H2042 0.929 . S
C1980 C1976 1.527 . S
C1980 H2043 0.961 . S
C1980 H2044 0.959 . S
C1980 H2045 0.959 . S
C1981 C1978 1.603 . S
C1981 H2046 0.960 . S
C1981 H2047 0.962 . S
C1981 H2048 0.961 . S
C1982 C1949 1.587 . S
C1982 C1983 1.360 . S
C1982 C1995 1.412 . S
C1983 C1982 1.360 . S
C1983 C1984 1.365 . S
C1983 H2049 0.929 . S
C1984 C1959 1.553 . S
C1984 C1983 1.365 . S
C1984 C1985 1.404 . S
C1985 C1984 1.404 . S
C1985 C1986 1.395 . S
C1985 C1996 1.451 . S
C1986 C1985 1.395 . S
C1986 C1987 1.322 . S
C1986 H2050 0.930 . S
C1987 C1986 1.322 . S
C1987 C1988 1.459 . S
C1987 H2051 0.929 . S
C1988 C1987 1.459 . S
C1988 C1989 1.445 . S
C1988 C1997 1.395 . S
C1989 C1967 1.432 . S
C1989 C1988 1.445 . S
C1989 C1990 1.370 . S
C1990 C1989 1.370 . S
C1990 C1991 1.438 . S
C1990 H2052 0.930 . S
C1991 C1977 1.497 . S
C1991 C1990 1.438 . S
C1991 C1992 1.360 . S
C1992 C1991 1.360 . S
C1992 C1993 1.401 . S
C1992 C1997 1.446 . S
C1993 C1992 1.401 . S
C1993 C1994 1.347 . S
C1993 H2053 0.929 . S
C1994 C1993 1.347 . S
C1994 C1995 1.455 . S
C1994 H2054 0.930 . S
C1995 C1982 1.412 . S
C1995 C1994 1.455 . S
C1995 C1996 1.331 . S
C1996 C1985 1.451 . S
C1996 C1995 1.331 . S
C1996 C1997 1.497 . S
C1997 C1988 1.395 . S
C1997 C1992 1.446 . S
C1997 C1996 1.497 . S
C1998 C1999 1.582 . S
C1998 H2055 0.962 . S
C1998 H2056 0.959 . S
C1998 H2057 0.958 . S
C1999 C1998 1.582 . S
C1999 O2002 1.458 . S
C1999 H2028 0.980 . S
O2000 C1945 1.426 . S
O2000 C1946 1.334 . S
O2001 C1973 1.412 . S
O2001 C1974 1.393 . S
O2002 C1964 1.435 . S
O2002 C1999 1.458 . S
O2003 C1955 1.468 . S
O2003 C1956 1.408 . S
H2004 C1945 0.980 . S
H2005 C1944 0.959 . S
H2006 C1944 0.959 . S
H2007 C1944 0.960 . S
H2008 C1947 0.929 . S
H2009 C1951 0.929 . S
H2010 C1952 0.959 . S
H2011 C1952 0.961 . S
H2012 C1952 0.961 . S
H2013 C1953 0.960 . S
H2014 C1953 0.960 . S
H2015 C1953 0.961 . S
H2016 C1955 0.980 . S
H2017 C1954 0.961 . S
H2018 C1954 0.960 . S
H2019 C1954 0.959 . S
H2020 C1957 0.930 . S
H2021 C1961 0.931 . S
H2022 C1962 0.959 . S
H2023 C1962 0.961 . S
H2024 C1962 0.959 . S
H2025 C1963 0.960 . S
H2026 C1963 0.960 . S
H2027 C1963 0.960 . S
H2028 C1999 0.980 . S
H2029 C1965 0.930 . S
H2030 C1969 0.930 . S
H2031 C1970 0.961 . S
H2032 C1970 0.960 . S
H2033 C1970 0.958 . S
H2034 C1971 0.961 . S
H2035 C1971 0.960 . S
H2036 C1971 0.960 . S
H2037 C1973 0.980 . S
H2038 C1972 0.961 . S
H2039 C1972 0.961 . S
H2040 C1972 0.959 . S
H2041 C1975 0.932 . S
H2042 C1979 0.929 . S
H2043 C1980 0.961 . S
H2044 C1980 0.959 . S
H2045 C1980 0.959 . S
H2046 C1981 0.960 . S
H2047 C1981 0.962 . S
H2048 C1981 0.961 . S
H2049 C1983 0.929 . S
H2050 C1986 0.930 . S
H2051 C1987 0.929 . S
H2052 C1990 0.930 . S
H2053 C1993 0.929 . S
H2054 C1994 0.930 . S
H2055 C1998 0.962 . S
H2056 C1998 0.959 . S
H2057 C1998 0.958 . S
C2058 C2059 1.560 . S
C2058 H2119 0.959 . S
C2058 H2120 0.959 . S
C2058 H2121 0.960 . S
C2059 C2058 1.560 . S
C2059 O2114 1.426 . S
C2059 H2118 0.980 . S
C2060 C2061 1.407 . S
C2060 C2065 1.418 . S
C2060 O2114 1.334 . S
C2061 C2060 1.407 . S
C2061 C2062 1.360 . S
C2061 H2122 0.929 . S
C2062 C2061 1.360 . S
C2062 C2063 1.401 . S
C2062 C2066 1.527 . S
C2063 C2062 1.401 . S
C2063 C2064 1.405 . S
C2063 C2096 1.587 . S
C2064 C2063 1.405 . S
C2064 C2065 1.332 . S
C2064 C2067 1.496 . S
C2065 C2060 1.418 . S
C2065 C2064 1.332 . S
C2065 H2123 0.929 . S
C2066 C2062 1.527 . S
C2066 H2124 0.959 . S
C2066 H2125 0.961 . S
C2066 H2126 0.961 . S
C2067 C2064 1.496 . S
C2067 H2127 0.960 . S
C2067 H2128 0.960 . S
C2067 H2129 0.961 . S
C2068 C2069 1.517 . S
C2068 H2131 0.961 . S
C2068 H2132 0.960 . S
C2068 H2133 0.959 . S
C2069 C2068 1.517 . S
C2069 O2117 1.468 . S
C2069 H2130 0.980 . S
C2070 C2071 1.349 . S
C2070 C2075 1.367 . S
C2070 O2117 1.408 . S
C2071 C2070 1.349 . S
C2071 C2072 1.407 . S
C2071 H2134 0.930 . S
C2072 C2071 1.407 . S
C2072 C2073 1.449 . S
C2072 C2076 1.535 . S
C2073 C2072 1.449 . S
C2073 C2074 1.384 . S
C2073 C2098 1.553 . S
C2074 C2073 1.384 . S
C2074 C2075 1.364 . S
C2074 C2077 1.450 . S
C2075 C2070 1.367 . S
C2075 C2074 1.364 . S
C2075 H2135 0.931 . S
C2076 C2072 1.535 . S
C2076 H2136 0.959 . S
C2076 H2137 0.961 . S
C2076 H2138 0.959 . S
C2077 C2074 1.450 . S
C2077 H2139 0.960 . S
C2077 H2140 0.960 . S
C2077 H2141 0.960 . S
C2078 C2079 1.309 . S
C2078 C2083 1.304 . S
C2078 O2116 1.435 . S
C2079 C2078 1.309 . S
C2079 C2080 1.476 . S
C2079 H2143 0.930 . S
C2080 C2079 1.476 . S
C2080 C2081 1.400 . S
C2080 C2084 1.567 . S
C2081 C2080 1.400 . S
C2081 C2082 1.373 . S
C2081 C2103 1.432 . S
C2082 C2081 1.373 . S
C2082 C2083 1.339 . S
C2082 C2085 1.530 . S
C2083 C2078 1.304 . S
C2083 C2082 1.339 . S
C2083 H2144 0.930 . S
C2084 C2080 1.567 . S
C2084 H2145 0.961 . S
C2084 H2146 0.960 . S
C2084 H2147 0.958 . S
C2085 C2082 1.530 . S
C2085 H2148 0.961 . S
C2085 H2149 0.960 . S
C2085 H2150 0.960 . S
C2086 C2087 1.530 . S
C2086 H2152 0.961 . S
C2086 H2153 0.961 . S
C2086 H2154 0.959 . S
C2087 C2086 1.530 . S
C2087 O2115 1.412 . S
C2087 H2151 0.980 . S
C2088 C2089 1.288 . S
C2088 C2093 1.377 . S
C2088 O2115 1.393 . S
C2089 C2088 1.288 . S
C2089 C2090 1.369 . S
C2089 H2155 0.932 . S
C2090 C2089 1.369 . S
C2090 C2091 1.398 . S
C2090 C2094 1.527 . S
C2091 C2090 1.398 . S
C2091 C2092 1.380 . S
C2091 C2105 1.497 . S
C2092 C2091 1.380 . S
C2092 C2093 1.383 . S
C2092 C2095 1.603 . S
C2093 C2088 1.377 . S
C2093 C2092 1.383 . S
C2093 H2156 0.929 . S
C2094 C2090 1.527 . S
C2094 H2157 0.961 . S
C2094 H2158 0.959 . S
C2094 H2159 0.959 . S
C2095 C2092 1.603 . S
C2095 H2160 0.960 . S
C2095 H2161 0.962 . S
C2095 H2162 0.961 . S
C2096 C2063 1.587 . S
C2096 C2097 1.360 . S
C2096 C2109 1.412 . S
C2097 C2096 1.360 . S
C2097 C2098 1.365 . S
C2097 H2163 0.929 . S
C2098 C2073 1.553 . S
C2098 C2097 1.365 . S
C2098 C2099 1.404 . S
C2099 C2098 1.404 . S
C2099 C2100 1.395 . S
C2099 C2110 1.451 . S
C2100 C2099 1.395 . S
C2100 C2101 1.322 . S
C2100 H2164 0.930 . S
C2101 C2100 1.322 . S
C2101 C2102 1.459 . S
C2101 H2165 0.929 . S
C2102 C2101 1.459 . S
C2102 C2103 1.445 . S
C2102 C2111 1.395 . S
C2103 C2081 1.432 . S
C2103 C2102 1.445 . S
C2103 C2104 1.370 . S
C2104 C2103 1.370 . S
C2104 C2105 1.438 . S
C2104 H2166 0.930 . S
C2105 C2091 1.497 . S
C2105 C2104 1.438 . S
C2105 C2106 1.360 . S
C2106 C2105 1.360 . S
C2106 C2107 1.401 . S
C2106 C2111 1.446 . S
C2107 C2106 1.401 . S
C2107 C2108 1.347 . S
C2107 H2167 0.929 . S
C2108 C2107 1.347 . S
C2108 C2109 1.455 . S
C2108 H2168 0.930 . S
C2109 C2096 1.412 . S
C2109 C2108 1.455 . S
C2109 C2110 1.331 . S
C2110 C2099 1.451 . S
C2110 C2109 1.331 . S
C2110 C2111 1.497 . S
C2111 C2102 1.395 . S
C2111 C2106 1.446 . S
C2111 C2110 1.497 . S
C2112 C2113 1.582 . S
C2112 H2169 0.962 . S
C2112 H2170 0.959 . S
C2112 H2171 0.958 . S
C2113 C2112 1.582 . S
C2113 O2116 1.458 . S
C2113 H2142 0.980 . S
O2114 C2059 1.426 . S
O2114 C2060 1.334 . S
O2115 C2087 1.412 . S
O2115 C2088 1.393 . S
O2116 C2078 1.435 . S
O2116 C2113 1.458 . S
O2117 C2069 1.468 . S
O2117 C2070 1.408 . S
H2118 C2059 0.980 . S
H2119 C2058 0.959 . S
H2120 C2058 0.959 . S
H2121 C2058 0.960 . S
H2122 C2061 0.929 . S
H2123 C2065 0.929 . S
H2124 C2066 0.959 . S
H2125 C2066 0.961 . S
H2126 C2066 0.961 . S
H2127 C2067 0.960 . S
H2128 C2067 0.960 . S
H2129 C2067 0.961 . S
H2130 C2069 0.980 . S
H2131 C2068 0.961 . S
H2132 C2068 0.960 . S
H2133 C2068 0.959 . S
H2134 C2071 0.930 . S
H2135 C2075 0.931 . S
H2136 C2076 0.959 . S
H2137 C2076 0.961 . S
H2138 C2076 0.959 . S
H2139 C2077 0.960 . S
H2140 C2077 0.960 . S
H2141 C2077 0.960 . S
H2142 C2113 0.980 . S
H2143 C2079 0.930 . S
H2144 C2083 0.930 . S
H2145 C2084 0.961 . S
H2146 C2084 0.960 . S
H2147 C2084 0.958 . S
H2148 C2085 0.961 . S
H2149 C2085 0.960 . S
H2150 C2085 0.960 . S
H2151 C2087 0.980 . S
H2152 C2086 0.961 . S
H2153 C2086 0.961 . S
H2154 C2086 0.959 . S
H2155 C2089 0.932 . S
H2156 C2093 0.929 . S
H2157 C2094 0.961 . S
H2158 C2094 0.959 . S
H2159 C2094 0.959 . S
H2160 C2095 0.960 . S
H2161 C2095 0.962 . S
H2162 C2095 0.961 . S
H2163 C2097 0.929 . S
H2164 C2100 0.930 . S
H2165 C2101 0.929 . S
H2166 C2104 0.930 . S
H2167 C2107 0.929 . S
H2168 C2108 0.930 . S
H2169 C2112 0.962 . S
H2170 C2112 0.959 . S
H2171 C2112 0.958 . S
C2172 C2173 1.560 . S
C2172 H2233 0.959 . S
C2172 H2234 0.959 . S
C2172 H2235 0.960 . S
C2173 C2172 1.560 . S
C2173 O2228 1.426 . S
C2173 H2232 0.980 . S
C2174 C2175 1.407 . S
C2174 C2179 1.418 . S
C2174 O2228 1.334 . S
C2175 C2174 1.407 . S
C2175 C2176 1.360 . S
C2175 H2236 0.929 . S
C2176 C2175 1.360 . S
C2176 C2177 1.401 . S
C2176 C2180 1.527 . S
C2177 C2176 1.401 . S
C2177 C2178 1.405 . S
C2177 C2210 1.587 . S
C2178 C2177 1.405 . S
C2178 C2179 1.332 . S
C2178 C2181 1.496 . S
C2179 C2174 1.418 . S
C2179 C2178 1.332 . S
C2179 H2237 0.929 . S
C2180 C2176 1.527 . S
C2180 H2238 0.959 . S
C2180 H2239 0.961 . S
C2180 H2240 0.961 . S
C2181 C2178 1.496 . S
C2181 H2241 0.960 . S
C2181 H2242 0.960 . S
C2181 H2243 0.961 . S
C2182 C2183 1.517 . S
C2182 H2245 0.961 . S
C2182 H2246 0.960 . S
C2182 H2247 0.959 . S
C2183 C2182 1.517 . S
C2183 O2231 1.468 . S
C2183 H2244 0.980 . S
C2184 C2185 1.349 . S
C2184 C2189 1.367 . S
C2184 O2231 1.408 . S
C2185 C2184 1.349 . S
C2185 C2186 1.407 . S
C2185 H2248 0.930 . S
C2186 C2185 1.407 . S
C2186 C2187 1.449 . S
C2186 C2190 1.535 . S
C2187 C2186 1.449 . S
C2187 C2188 1.384 . S
C2187 C2212 1.553 . S
C2188 C2187 1.384 . S
C2188 C2189 1.364 . S
C2188 C2191 1.450 . S
C2189 C2184 1.367 . S
C2189 C2188 1.364 . S
C2189 H2249 0.931 . S
C2190 C2186 1.535 . S
C2190 H2250 0.959 . S
C2190 H2251 0.961 . S
C2190 H2252 0.959 . S
C2191 C2188 1.450 . S
C2191 H2253 0.960 . S
C2191 H2254 0.960 . S
C2191 H2255 0.960 . S
C2192 C2193 1.309 . S
C2192 C2197 1.304 . S
C2192 O2230 1.435 . S
C2193 C2192 1.309 . S
C2193 C2194 1.476 . S
C2193 H2257 0.930 . S
C2194 C2193 1.476 . S
C2194 C2195 1.400 . S
C2194 C2198 1.567 . S
C2195 C2194 1.400 . S
C2195 C2196 1.373 . S
C2195 C2217 1.432 . S
C2196 C2195 1.373 . S
C2196 C2197 1.339 . S
C2196 C2199 1.530 . S
C2197 C2192 1.304 . S
C2197 C2196 1.339 . S
C2197 H2258 0.930 . S
C2198 C2194 1.567 . S
C2198 H2259 0.961 . S
C2198 H2260 0.960 . S
C2198 H2261 0.958 . S
C2199 C2196 1.530 . S
C2199 H2262 0.961 . S
C2199 H2263 0.960 . S
C2199 H2264 0.960 . S
C2200 C2201 1.530 . S
C2200 H2266 0.961 . S
C2200 H2267 0.961 . S
C2200 H2268 0.959 . S
C2201 C2200 1.530 . S
C2201 O2229 1.412 . S
C2201 H2265 0.980 . S
C2202 C2203 1.288 . S
C2202 C2207 1.377 . S
C2202 O2229 1.393 . S
C2203 C2202 1.288 . S
C2203 C2204 1.369 . S
C2203 H2269 0.932 . S
C2204 C2203 1.369 . S
C2204 C2205 1.398 . S
C2204 C2208 1.527 . S
C2205 C2204 1.398 . S
C2205 C2206 1.380 . S
C2205 C2219 1.497 . S
C2206 C2205 1.380 . S
C2206 C2207 1.383 . S
C2206 C2209 1.603 . S
C2207 C2202 1.377 . S
C2207 C2206 1.383 . S
C2207 H2270 0.929 . S
C2208 C2204 1.527 . S
C2208 H2271 0.961 . S
C2208 H2272 0.959 . S
C2208 H2273 0.959 . S
C2209 C2206 1.603 . S
C2209 H2274 0.960 . S
C2209 H2275 0.962 . S
C2209 H2276 0.961 . S
C2210 C2177 1.587 . S
C2210 C2211 1.360 . S
C2210 C2223 1.412 . S
C2211 C2210 1.360 . S
C2211 C2212 1.365 . S
C2211 H2277 0.929 . S
C2212 C2187 1.553 . S
C2212 C2211 1.365 . S
C2212 C2213 1.404 . S
C2213 C2212 1.404 . S
C2213 C2214 1.395 . S
C2213 C2224 1.451 . S
C2214 C2213 1.395 . S
C2214 C2215 1.322 . S
C2214 H2278 0.930 . S
C2215 C2214 1.322 . S
C2215 C2216 1.459 . S
C2215 H2279 0.929 . S
C2216 C2215 1.459 . S
C2216 C2217 1.445 . S
C2216 C2225 1.395 . S
C2217 C2195 1.432 . S
C2217 C2216 1.445 . S
C2217 C2218 1.370 . S
C2218 C2217 1.370 . S
C2218 C2219 1.438 . S
C2218 H2280 0.930 . S
C2219 C2205 1.497 . S
C2219 C2218 1.438 . S
C2219 C2220 1.360 . S
C2220 C2219 1.360 . S
C2220 C2221 1.401 . S
C2220 C2225 1.446 . S
C2221 C2220 1.401 . S
C2221 C2222 1.347 . S
C2221 H2281 0.929 . S
C2222 C2221 1.347 . S
C2222 C2223 1.455 . S
C2222 H2282 0.930 . S
C2223 C2210 1.412 . S
C2223 C2222 1.455 . S
C2223 C2224 1.331 . S
C2224 C2213 1.451 . S
C2224 C2223 1.331 . S
C2224 C2225 1.497 . S
C2225 C2216 1.395 . S
C2225 C2220 1.446 . S
C2225 C2224 1.497 . S
C2226 C2227 1.582 . S
C2226 H2283 0.962 . S
C2226 H2284 0.959 . S
C2226 H2285 0.958 . S
C2227 C2226 1.582 . S
C2227 O2230 1.458 . S
C2227 H2256 0.980 . S
O2228 C2173 1.426 . S
O2228 C2174 1.334 . S
O2229 C2201 1.412 . S
O2229 C2202 1.393 . S
O2230 C2192 1.435 . S
O2230 C2227 1.458 . S
O2231 C2183 1.468 . S
O2231 C2184 1.408 . S
H2232 C2173 0.980 . S
H2233 C2172 0.959 . S
H2234 C2172 0.959 . S
H2235 C2172 0.960 . S
H2236 C2175 0.929 . S
H2237 C2179 0.929 . S
H2238 C2180 0.959 . S
H2239 C2180 0.961 . S
H2240 C2180 0.961 . S
H2241 C2181 0.960 . S
H2242 C2181 0.960 . S
H2243 C2181 0.961 . S
H2244 C2183 0.980 . S
H2245 C2182 0.961 . S
H2246 C2182 0.960 . S
H2247 C2182 0.959 . S
H2248 C2185 0.930 . S
H2249 C2189 0.931 . S
H2250 C2190 0.959 . S
H2251 C2190 0.961 . S
H2252 C2190 0.959 . S
H2253 C2191 0.960 . S
H2254 C2191 0.960 . S
H2255 C2191 0.960 . S
H2256 C2227 0.980 . S
H2257 C2193 0.930 . S
H2258 C2197 0.930 . S
H2259 C2198 0.961 . S
H2260 C2198 0.960 . S
H2261 C2198 0.958 . S
H2262 C2199 0.961 . S
H2263 C2199 0.960 . S
H2264 C2199 0.960 . S
H2265 C2201 0.980 . S
H2266 C2200 0.961 . S
H2267 C2200 0.961 . S
H2268 C2200 0.959 . S
H2269 C2203 0.932 . S
H2270 C2207 0.929 . S
H2271 C2208 0.961 . S
H2272 C2208 0.959 . S
H2273 C2208 0.959 . S
H2274 C2209 0.960 . S
H2275 C2209 0.962 . S
H2276 C2209 0.961 . S
H2277 C2211 0.929 . S
H2278 C2214 0.930 . S
H2279 C2215 0.929 . S
H2280 C2218 0.930 . S
H2281 C2221 0.929 . S
H2282 C2222 0.930 . S
H2283 C2226 0.962 . S
H2284 C2226 0.959 . S
H2285 C2226 0.958 . S
C2286 C2287 1.369 . S
C2286 C2288 1.419 . S
C2286 H2290 0.930 . S
C2287 C2286 1.369 . S
C2287 C2296 1.429 1_655 S
C2288 C2286 1.419 . S
C2288 C2289 1.363 . S
C2288 H2291 0.929 . S
C2289 C2288 1.363 . S
C2289 C2295 1.428 1_655 S
H2290 C2286 0.930 . S
H2291 C2288 0.929 . S
S2292 N2293 1.613 . S
S2292 N2294 1.610 . S
N2293 S2292 1.613 . S
N2293 C2296 1.350 . S
N2294 S2292 1.610 . S
N2294 C2295 1.351 . S
C2295 C2289 1.428 1_455 S
C2295 N2294 1.351 . S
C2295 C2296 1.434 . S
C2296 C2287 1.429 1_455 S
C2296 N2293 1.350 . S
C2296 C2295 1.434 . S
C2297 C2298 1.369 . S
C2297 C2299 1.419 . S
C2297 H2301 0.930 . S
C2298 C2297 1.369 . S
C2298 C2307 1.429 . S
C2299 C2297 1.419 . S
C2299 C2300 1.363 . S
C2299 H2302 0.929 . S
C2300 C2299 1.363 . S
C2300 C2306 1.428 . S
H2301 C2297 0.930 . S
H2302 C2299 0.929 . S
S2303 N2304 1.613 . S
S2303 N2305 1.610 . S
N2304 S2303 1.613 . S
N2304 C2307 1.350 . S
N2305 S2303 1.610 . S
N2305 C2306 1.351 . S
C2306 C2300 1.428 . S
C2306 N2305 1.351 . S
C2306 C2307 1.434 . S
C2307 C2298 1.429 . S
C2307 N2304 1.350 . S
C2307 C2306 1.434 . S
C2308 C2309 1.369 . S
C2308 C2310 1.430 . S
C2308 H2312 0.930 1_545 S
C2309 C2308 1.369 . S
C2309 C2318 1.429 . S
C2310 C2308 1.430 . S
C2310 C2311 1.367 . S
C2310 H2313 0.914 1_545 S
C2311 C2310 1.367 . S
C2311 C2317 1.428 . S
H2312 C2308 0.930 1_565 S
H2313 C2310 0.914 1_565 S
S2314 N2315 1.613 . S
S2314 N2316 1.610 . S
N2315 S2314 1.613 . S
N2315 C2318 1.350 . S
N2316 S2314 1.610 . S
N2316 C2317 1.351 . S
C2317 C2311 1.428 . S
C2317 N2316 1.351 . S
C2317 C2318 1.434 . S
C2318 C2309 1.429 . S
C2318 N2315 1.350 . S
C2318 C2317 1.434 . S
C2319 C2320 1.369 1_545 S
C2319 C2321 1.419 . S
C2319 H2323 0.930 . S
C2320 C2319 1.369 1_565 S
C2320 C2329 1.429 . S
C2321 C2319 1.419 . S
C2321 C2322 1.363 1_545 S
C2321 H2324 0.929 . S
C2322 C2321 1.363 1_565 S
C2322 C2328 1.428 . S
H2323 C2319 0.930 . S
H2324 C2321 0.929 . S
S2325 N2326 1.613 . S
S2325 N2327 1.610 . S
N2326 S2325 1.613 . S
N2326 C2329 1.350 . S
N2327 S2325 1.610 . S
N2327 C2328 1.351 . S
C2328 C2322 1.428 . S
C2328 N2327 1.351 . S
C2328 C2329 1.434 . S
C2329 C2320 1.429 . S
C2329 N2326 1.350 . S
C2329 C2328 1.434 . S
C2330 C2331 1.369 . S
C2330 C2332 1.419 . S
C2330 H2334 0.930 . S
C2331 C2330 1.369 . S
C2331 C2340 1.429 . S
C2332 C2330 1.419 . S
C2332 C2333 1.363 . S
C2332 H2335 0.929 . S
C2333 C2332 1.363 . S
C2333 C2339 1.428 . S
H2334 C2330 0.930 . S
H2335 C2332 0.929 . S
S2336 N2337 1.613 . S
S2336 N2338 1.610 . S
N2337 S2336 1.613 . S
N2337 C2340 1.350 1_655 S
N2338 S2336 1.610 . S
N2338 C2339 1.351 1_655 S
C2339 C2333 1.428 . S
C2339 N2338 1.351 1_455 S
C2339 C2340 1.434 . S
C2340 C2331 1.429 . S
C2340 N2337 1.350 1_455 S
C2340 C2339 1.434 . S
C2341 C2342 1.369 . S
C2341 C2343 1.419 . S
C2341 H2345 0.930 . S
C2342 C2341 1.369 . S
C2342 C2351 1.429 . S
C2343 C2341 1.419 . S
C2343 C2344 1.363 . S
C2343 H2346 0.929 . S
C2344 C2343 1.363 . S
C2344 C2350 1.428 . S
H2345 C2341 0.930 . S
H2346 C2343 0.929 . S
S2347 N2348 1.613 . S
S2347 N2349 1.610 . S
N2348 S2347 1.613 . S
N2348 C2351 1.350 . S
N2349 S2347 1.610 . S
N2349 C2350 1.351 . S
C2350 C2344 1.428 . S
C2350 N2349 1.351 . S
C2350 C2351 1.434 . S
C2351 C2342 1.429 . S
C2351 N2348 1.350 . S
C2351 C2350 1.434 . S
C2352 C2353 1.369 1_655 S
C2352 C2354 1.419 . S
C2352 H2356 0.930 . S
C2353 C2352 1.369 1_455 S
C2353 C2362 1.429 . S
C2354 C2352 1.419 . S
C2354 C2355 1.363 1_655 S
C2354 H2357 0.929 . S
C2355 C2354 1.363 1_455 S
C2355 C2361 1.428 . S
H2356 C2352 0.930 . S
H2357 C2354 0.929 . S
S2358 N2359 1.613 . S
S2358 N2360 1.610 . S
N2359 S2358 1.613 . S
N2359 C2362 1.350 . S
N2360 S2358 1.610 . S
N2360 C2361 1.351 . S
C2361 C2355 1.428 . S
C2361 N2360 1.351 . S
C2361 C2362 1.434 . S
C2362 C2353 1.429 . S
C2362 N2359 1.350 . S
C2362 C2361 1.434 . S
C2363 C2364 1.369 . S
C2363 C2365 1.419 . S
C2363 H2367 0.930 . S
C2364 C2363 1.369 . S
C2364 C2373 1.429 . S
C2365 C2363 1.419 . S
C2365 C2366 1.363 . S
C2365 H2368 0.929 . S
C2366 C2365 1.363 . S
C2366 C2372 1.428 . S
H2367 C2363 0.930 . S
H2368 C2365 0.929 . S
S2369 N2370 1.613 . S
S2369 N2371 1.610 . S
N2370 S2369 1.613 . S
N2370 C2373 1.350 . S
N2371 S2369 1.610 . S
N2371 C2372 1.351 . S
C2372 C2366 1.428 . S
C2372 N2371 1.351 . S
C2372 C2373 1.434 . S
C2373 C2364 1.429 . S
C2373 N2370 1.350 . S
C2373 C2372 1.434 . S
C2374 C2375 1.414 . S
C2374 C2376 1.389 1_565 S
C2374 H2378 0.917 1_565 S
C2375 C2374 1.414 . S
C2375 C2384 1.429 . S
C2376 C2374 1.389 1_545 S
C2376 C2377 1.363 1_545 S
C2376 H2379 0.929 . S
C2377 C2376 1.363 1_565 S
C2377 C2383 1.428 . S
H2378 C2374 0.917 1_545 S
H2379 C2376 0.929 . S
S2380 N2381 1.613 . S
S2380 N2382 1.610 . S
N2381 S2380 1.613 . S
N2381 C2384 1.350 . S
N2382 S2380 1.610 . S
N2382 C2383 1.351 . S
C2383 C2377 1.428 . S
C2383 N2382 1.351 . S
C2383 C2384 1.434 . S
C2384 C2375 1.429 . S
C2384 N2381 1.350 . S
C2384 C2383 1.434 . S
C2385 C2386 1.369 1_565 S
C2385 C2387 1.419 . S
C2385 H2389 0.930 . S
C2386 C2385 1.369 1_545 S
C2386 C2395 1.429 . S
C2387 C2385 1.419 . S
C2387 C2388 1.363 1_565 S
C2387 H2390 0.929 . S
C2388 C2387 1.363 1_545 S
C2388 C2394 1.428 . S
H2389 C2385 0.930 . S
H2390 C2387 0.929 . S
S2391 N2392 1.613 . S
S2391 N2393 1.610 . S
N2392 S2391 1.613 . S
N2392 C2395 1.350 . S
N2393 S2391 1.610 . S
N2393 C2394 1.351 . S
C2394 C2388 1.428 . S
C2394 N2393 1.351 . S
C2394 C2395 1.434 . S
C2395 C2386 1.429 . S
C2395 N2392 1.350 . S
C2395 C2394 1.434 . S
C2396 C2397 1.369 . S
C2396 C2398 1.419 . S
C2396 H2400 0.930 . S
C2397 C2396 1.369 . S
C2397 C2406 1.429 1_655 S
C2398 C2396 1.419 . S
C2398 C2399 1.363 . S
C2398 H2401 0.929 . S
C2399 C2398 1.363 . S
C2399 C2405 1.428 1_655 S
H2400 C2396 0.930 . S
H2401 C2398 0.929 . S
S2402 N2403 1.613 . S
S2402 N2404 1.610 . S
N2403 S2402 1.613 . S
N2403 C2406 1.350 . S
N2404 S2402 1.610 . S
N2404 C2405 1.351 . S
C2405 C2399 1.428 1_455 S
C2405 N2404 1.351 . S
C2405 C2406 1.434 . S
C2406 C2397 1.429 1_455 S
C2406 N2403 1.350 . S
C2406 C2405 1.434 . S
C2407 C2408 1.369 . S
C2407 C2409 1.419 . S
C2407 H2411 0.930 . S
C2408 C2407 1.369 . S
C2408 C2417 1.429 . S
C2409 C2407 1.419 . S
C2409 C2410 1.363 . S
C2409 H2412 0.929 . S
C2410 C2409 1.363 . S
C2410 C2416 1.428 . S
H2411 C2407 0.930 . S
H2412 C2409 0.929 . S
S2413 N2414 1.613 . S
S2413 N2415 1.610 . S
N2414 S2413 1.613 . S
N2414 C2417 1.350 . S
N2415 S2413 1.610 . S
N2415 C2416 1.351 . S
C2416 C2410 1.428 . S
C2416 N2415 1.351 . S
C2416 C2417 1.434 . S
C2417 C2408 1.429 . S
C2417 N2414 1.350 . S
C2417 C2416 1.434 . S
C2418 C2419 1.369 . S
C2418 C2420 1.419 . S
C2418 H2422 0.930 . S
C2419 C2418 1.369 . S
C2419 C2428 1.429 . S
C2420 C2418 1.419 . S
C2420 C2421 1.363 . S
C2420 H2423 0.929 . S
C2421 C2420 1.363 . S
C2421 C2427 1.428 . S
H2422 C2418 0.930 . S
H2423 C2420 0.929 . S
S2424 N2425 1.613 . S
S2424 N2426 1.610 . S
N2425 S2424 1.613 . S
N2425 C2428 1.350 . S
N2426 S2424 1.610 . S
N2426 C2427 1.351 . S
C2427 C2421 1.428 . S
C2427 N2426 1.351 . S
C2427 C2428 1.434 . S
C2428 C2419 1.429 . S
C2428 N2425 1.350 . S
C2428 C2427 1.434 . S
C2429 C2430 1.369 . S
C2429 C2431 1.419 . S
C2429 H2433 0.930 . S
C2430 C2429 1.369 . S
C2430 C2439 1.429 . S
C2431 C2429 1.419 . S
C2431 C2432 1.363 . S
C2431 H2434 0.929 . S
C2432 C2431 1.363 . S
C2432 C2438 1.428 . S
H2433 C2429 0.930 . S
H2434 C2431 0.929 . S
S2435 N2436 1.613 . S
S2435 N2437 1.610 . S
N2436 S2435 1.613 . S
N2436 C2439 1.350 . S
N2437 S2435 1.610 . S
N2437 C2438 1.351 . S
C2438 C2432 1.428 . S
C2438 N2437 1.351 . S
C2438 C2439 1.434 . S
C2439 C2430 1.429 . S
C2439 N2436 1.350 . S
C2439 C2438 1.434 . S
C2440 C2441 1.369 . S
C2440 C2442 1.419 . S
C2440 H2444 0.930 . S
C2441 C2440 1.369 . S
C2441 C2450 1.429 . S
C2442 C2440 1.419 . S
C2442 C2443 1.363 . S
C2442 H2445 0.929 . S
C2443 C2442 1.363 . S
C2443 C2449 1.428 . S
H2444 C2440 0.930 . S
H2445 C2442 0.929 . S
S2446 N2447 1.613 . S
S2446 N2448 1.610 . S
N2447 S2446 1.613 . S
N2447 C2450 1.350 . S
N2448 S2446 1.610 . S
N2448 C2449 1.351 . S
C2449 C2443 1.428 . S
C2449 N2448 1.351 . S
C2449 C2450 1.434 . S
C2450 C2441 1.429 . S
C2450 N2447 1.350 . S
C2450 C2449 1.434 . S
C2451 C2452 1.369 . S
C2451 C2453 1.419 . S
C2451 H2455 0.930 . S
C2452 C2451 1.369 . S
C2452 C2461 1.429 . S
C2453 C2451 1.419 . S
C2453 C2454 1.363 . S
C2453 H2456 0.929 . S
C2454 C2453 1.363 . S
C2454 C2460 1.428 . S
H2455 C2451 0.930 . S
H2456 C2453 0.929 . S
S2457 N2458 1.613 . S
S2457 N2459 1.610 . S
N2458 S2457 1.613 . S
N2458 C2461 1.350 . S
N2459 S2457 1.610 . S
N2459 C2460 1.351 . S
C2460 C2454 1.428 . S
C2460 N2459 1.351 . S
C2460 C2461 1.434 . S
C2461 C2452 1.429 . S
C2461 N2458 1.350 . S
C2461 C2460 1.434 . S
C2462 C2463 1.369 . S
C2462 C2464 1.419 . S
C2462 H2466 0.930 . S
C2463 C2462 1.369 . S
C2463 C2472 1.429 . S
C2464 C2462 1.419 . S
C2464 C2465 1.363 . S
C2464 H2467 0.929 . S
C2465 C2464 1.363 . S
C2465 C2471 1.428 . S
H2466 C2462 0.930 . S
H2467 C2464 0.929 . S
S2468 N2469 1.613 . S
S2468 N2470 1.610 . S
N2469 S2468 1.613 . S
N2469 C2472 1.350 . S
N2470 S2468 1.610 . S
N2470 C2471 1.351 . S
C2471 C2465 1.428 . S
C2471 N2470 1.351 . S
C2471 C2472 1.434 . S
C2472 C2463 1.429 . S
C2472 N2469 1.350 . S
C2472 C2471 1.434 . S
C2473 C2474 1.369 . S
C2473 C2475 1.419 . S
C2473 H2477 0.930 . S
C2474 C2473 1.369 . S
C2474 C2483 1.429 . S
C2475 C2473 1.419 . S
C2475 C2476 1.363 . S
C2475 H2478 0.929 . S
C2476 C2475 1.363 . S
C2476 C2482 1.428 . S
H2477 C2473 0.930 . S
H2478 C2475 0.929 . S
S2479 N2480 1.613 . S
S2479 N2481 1.610 . S
N2480 S2479 1.613 . S
N2480 C2483 1.350 . S
N2481 S2479 1.610 . S
N2481 C2482 1.351 . S
C2482 C2476 1.428 . S
C2482 N2481 1.351 . S
C2482 C2483 1.434 . S
C2483 C2474 1.429 . S
C2483 N2480 1.350 . S
C2483 C2482 1.434 . S
C2484 C2485 1.369 . S
C2484 C2486 1.419 . S
C2484 H2488 0.930 . S
C2485 C2484 1.369 . S
C2485 C2494 1.429 . S
C2486 C2484 1.419 . S
C2486 C2487 1.363 . S
C2486 H2489 0.929 . S
C2487 C2486 1.363 . S
C2487 C2493 1.428 . S
H2488 C2484 0.930 . S
H2489 C2486 0.929 . S
S2490 N2491 1.613 . S
S2490 N2492 1.610 . S
N2491 S2490 1.613 . S
N2491 C2494 1.350 . S
N2492 S2490 1.610 . S
N2492 C2493 1.351 . S
C2493 C2487 1.428 . S
C2493 N2492 1.351 . S
C2493 C2494 1.434 . S
C2494 C2485 1.429 . S
C2494 N2491 1.350 . S
C2494 C2493 1.434 . S
C2495 C2496 1.369 . S
C2495 C2497 1.419 . S
C2495 H2499 0.930 . S
C2496 C2495 1.369 . S
C2496 C2505 1.429 . S
C2497 C2495 1.419 . S
C2497 C2498 1.363 . S
C2497 H2500 0.929 . S
C2498 C2497 1.363 . S
C2498 C2504 1.428 . S
H2499 C2495 0.930 . S
H2500 C2497 0.929 . S
S2501 N2502 1.613 . S
S2501 N2503 1.610 . S
N2502 S2501 1.613 . S
N2502 C2505 1.350 . S
N2503 S2501 1.610 . S
N2503 C2504 1.351 . S
C2504 C2498 1.428 . S
C2504 N2503 1.351 . S
C2504 C2505 1.434 . S
C2505 C2496 1.429 . S
C2505 N2502 1.350 . S
C2505 C2504 1.434 . S
C2506 C2507 1.369 . S
C2506 C2508 1.419 . S
C2506 H2510 0.930 . S
C2507 C2506 1.369 . S
C2507 C2516 1.429 . S
C2508 C2506 1.419 . S
C2508 C2509 1.363 . S
C2508 H2511 0.929 . S
C2509 C2508 1.363 . S
C2509 C2515 1.428 . S
H2510 C2506 0.930 . S
H2511 C2508 0.929 . S
S2512 N2513 1.613 . S
S2512 N2514 1.610 . S
N2513 S2512 1.613 . S
N2513 C2516 1.350 . S
N2514 S2512 1.610 . S
N2514 C2515 1.351 . S
C2515 C2509 1.428 . S
C2515 N2514 1.351 . S
C2515 C2516 1.434 . S
C2516 C2507 1.429 . S
C2516 N2513 1.350 . S
C2516 C2515 1.434 . S
C2517 C2518 1.369 . S
C2517 C2519 1.419 . S
C2517 H2521 0.930 . S
C2518 C2517 1.369 . S
C2518 C2527 1.429 . S
C2519 C2517 1.419 . S
C2519 C2520 1.363 . S
C2519 H2522 0.929 . S
C2520 C2519 1.363 . S
C2520 C2526 1.428 . S
H2521 C2517 0.930 . S
H2522 C2519 0.929 . S
S2523 N2524 1.613 . S
S2523 N2525 1.610 . S
N2524 S2523 1.613 . S
N2524 C2527 1.350 . S
N2525 S2523 1.610 . S
N2525 C2526 1.351 . S
C2526 C2520 1.428 . S
C2526 N2525 1.351 . S
C2526 C2527 1.434 . S
C2527 C2518 1.429 . S
C2527 N2524 1.350 . S
C2527 C2526 1.434 . S
C2528 C2529 1.369 . S
C2528 C2530 1.419 . S
C2528 H2532 0.930 . S
C2529 C2528 1.369 . S
C2529 C2538 1.429 . S
C2530 C2528 1.419 . S
C2530 C2531 1.363 . S
C2530 H2533 0.929 . S
C2531 C2530 1.363 . S
C2531 C2537 1.428 . S
H2532 C2528 0.930 . S
H2533 C2530 0.929 . S
S2534 N2535 1.613 . S
S2534 N2536 1.610 . S
N2535 S2534 1.613 . S
N2535 C2538 1.350 . S
N2536 S2534 1.610 . S
N2536 C2537 1.351 . S
C2537 C2531 1.428 . S
C2537 N2536 1.351 . S
C2537 C2538 1.434 . S
C2538 C2529 1.429 . S
C2538 N2535 1.350 . S
C2538 C2537 1.434 . S
C2539 C2540 1.369 . S
C2539 C2541 1.419 . S
C2539 H2543 0.930 . S
C2540 C2539 1.369 . S
C2540 C2549 1.429 . S
C2541 C2539 1.419 . S
C2541 C2542 1.363 . S
C2541 H2544 0.929 . S
C2542 C2541 1.363 . S
C2542 C2548 1.428 . S
H2543 C2539 0.930 . S
H2544 C2541 0.929 . S
S2545 N2546 1.613 . S
S2545 N2547 1.610 . S
N2546 S2545 1.613 . S
N2546 C2549 1.350 . S
N2547 S2545 1.610 . S
N2547 C2548 1.351 . S
C2548 C2542 1.428 . S
C2548 N2547 1.351 . S
C2548 C2549 1.434 . S
C2549 C2540 1.429 . S
C2549 N2546 1.350 . S
C2549 C2548 1.434 . S
C2550 C2551 1.369 . S
C2550 C2552 1.419 . S
C2550 H2554 0.930 . S
C2551 C2550 1.369 . S
C2551 C2560 1.429 . S
C2552 C2550 1.419 . S
C2552 C2553 1.363 . S
C2552 H2555 0.929 . S
C2553 C2552 1.363 . S
C2553 C2559 1.428 . S
H2554 C2550 0.930 . S
H2555 C2552 0.929 . S
S2556 N2557 1.613 . S
S2556 N2558 1.610 . S
N2557 S2556 1.613 . S
N2557 C2560 1.350 . S
N2558 S2556 1.610 . S
N2558 C2559 1.351 . S
C2559 C2553 1.428 . S
C2559 N2558 1.351 . S
C2559 C2560 1.434 . S
C2560 C2551 1.429 . S
C2560 N2557 1.350 . S
C2560 C2559 1.434 . S
C2561 C2562 1.369 . S
C2561 C2563 1.419 . S
C2561 H2565 0.930 . S
C2562 C2561 1.369 . S
C2562 C2571 1.429 . S
C2563 C2561 1.419 . S
C2563 C2564 1.363 . S
C2563 H2566 0.929 . S
C2564 C2563 1.363 . S
C2564 C2570 1.428 . S
H2565 C2561 0.930 . S
H2566 C2563 0.929 . S
S2567 N2568 1.613 . S
S2567 N2569 1.610 . S
N2568 S2567 1.613 . S
N2568 C2571 1.350 . S
N2569 S2567 1.610 . S
N2569 C2570 1.351 . S
C2570 C2564 1.428 . S
C2570 N2569 1.351 . S
C2570 C2571 1.434 . S
C2571 C2562 1.429 . S
C2571 N2568 1.350 . S
C2571 C2570 1.434 . S
C2572 C2573 1.369 . S
C2572 C2574 1.419 . S
C2572 H2576 0.930 . S
C2573 C2572 1.369 . S
C2573 C2582 1.429 . S
C2574 C2572 1.419 . S
C2574 C2575 1.363 . S
C2574 H2577 0.929 . S
C2575 C2574 1.363 . S
C2575 C2581 1.428 . S
H2576 C2572 0.930 . S
H2577 C2574 0.929 . S
S2578 N2579 1.613 . S
S2578 N2580 1.610 . S
N2579 S2578 1.613 . S
N2579 C2582 1.350 . S
N2580 S2578 1.610 . S
N2580 C2581 1.351 . S
C2581 C2575 1.428 . S
C2581 N2580 1.351 . S
C2581 C2582 1.434 . S
C2582 C2573 1.429 . S
C2582 N2579 1.350 . S
C2582 C2581 1.434 . S
C2583 C2584 1.369 . S
C2583 C2585 1.419 . S
C2583 H2587 0.930 . S
C2584 C2583 1.369 . S
C2584 C2593 1.429 . S
C2585 C2583 1.419 . S
C2585 C2586 1.363 . S
C2585 H2588 0.929 . S
C2586 C2585 1.363 . S
C2586 C2592 1.428 . S
H2587 C2583 0.930 . S
H2588 C2585 0.929 . S
S2589 N2590 1.613 . S
S2589 N2591 1.610 . S
N2590 S2589 1.613 . S
N2590 C2593 1.350 . S
N2591 S2589 1.610 . S
N2591 C2592 1.351 . S
C2592 C2586 1.428 . S
C2592 N2591 1.351 . S
C2592 C2593 1.434 . S
C2593 C2584 1.429 . S
C2593 N2590 1.350 . S
C2593 C2592 1.434 . S
C2594 C2595 1.369 . S
C2594 C2596 1.419 . S
C2594 H2598 0.930 . S
C2595 C2594 1.369 . S
C2595 C2604 1.429 . S
C2596 C2594 1.419 . S
C2596 C2597 1.363 . S
C2596 H2599 0.929 . S
C2597 C2596 1.363 . S
C2597 C2603 1.428 . S
H2598 C2594 0.930 . S
H2599 C2596 0.929 . S
S2600 N2601 1.613 . S
S2600 N2602 1.610 . S
N2601 S2600 1.613 . S
N2601 C2604 1.350 . S
N2602 S2600 1.610 . S
N2602 C2603 1.351 . S
C2603 C2597 1.428 . S
C2603 N2602 1.351 . S
C2603 C2604 1.434 . S
C2604 C2595 1.429 . S
C2604 N2601 1.350 . S
C2604 C2603 1.434 . S
C2605 C2606 1.369 . S
C2605 C2607 1.419 . S
C2605 H2609 0.930 . S
C2606 C2605 1.369 . S
C2606 C2615 1.429 . S
C2607 C2605 1.419 . S
C2607 C2608 1.363 . S
C2607 H2610 0.929 . S
C2608 C2607 1.363 . S
C2608 C2614 1.428 . S
H2609 C2605 0.930 . S
H2610 C2607 0.929 . S
S2611 N2612 1.613 . S
S2611 N2613 1.610 . S
N2612 S2611 1.613 . S
N2612 C2615 1.350 . S
N2613 S2611 1.610 . S
N2613 C2614 1.351 . S
C2614 C2608 1.428 . S
C2614 N2613 1.351 . S
C2614 C2615 1.434 . S
C2615 C2606 1.429 . S
C2615 N2612 1.350 . S
C2615 C2614 1.434 . S
C2616 C2617 1.369 . S
C2616 C2618 1.419 . S
C2616 H2620 0.930 . S
C2617 C2616 1.369 . S
C2617 C2626 1.429 . S
C2618 C2616 1.419 . S
C2618 C2619 1.363 . S
C2618 H2621 0.929 . S
C2619 C2618 1.363 . S
C2619 C2625 1.428 . S
H2620 C2616 0.930 . S
H2621 C2618 0.929 . S
S2622 N2623 1.613 . S
S2622 N2624 1.610 . S
N2623 S2622 1.613 . S
N2623 C2626 1.350 . S
N2624 S2622 1.610 . S
N2624 C2625 1.351 . S
C2625 C2619 1.428 . S
C2625 N2624 1.351 . S
C2625 C2626 1.434 . S
C2626 C2617 1.429 . S
C2626 N2623 1.350 . S
C2626 C2625 1.434 . S
C2627 C2628 1.369 . S
C2627 C2629 1.419 . S
C2627 H2631 0.930 . S
C2628 C2627 1.369 . S
C2628 C2637 1.429 . S
C2629 C2627 1.419 . S
C2629 C2630 1.363 . S
C2629 H2632 0.929 . S
C2630 C2629 1.363 . S
C2630 C2636 1.428 . S
H2631 C2627 0.930 . S
H2632 C2629 0.929 . S
S2633 N2634 1.613 . S
S2633 N2635 1.610 . S
N2634 S2633 1.613 . S
N2634 C2637 1.350 . S
N2635 S2633 1.610 . S
N2635 C2636 1.351 . S
C2636 C2630 1.428 . S
C2636 N2635 1.351 . S
C2636 C2637 1.434 . S
C2637 C2628 1.429 . S
C2637 N2634 1.350 . S
C2637 C2636 1.434 . S
C2638 C2639 1.369 . S
C2638 C2640 1.419 . S
C2638 H2642 0.930 . S
C2639 C2638 1.369 . S
C2639 C2648 1.429 . S
C2640 C2638 1.419 . S
C2640 C2641 1.363 . S
C2640 H2643 0.929 . S
C2641 C2640 1.363 . S
C2641 C2647 1.428 . S
H2642 C2638 0.930 . S
H2643 C2640 0.929 . S
S2644 N2645 1.613 . S
S2644 N2646 1.610 . S
N2645 S2644 1.613 . S
N2645 C2648 1.350 . S
N2646 S2644 1.610 . S
N2646 C2647 1.351 . S
C2647 C2641 1.428 . S
C2647 N2646 1.351 . S
C2647 C2648 1.434 . S
C2648 C2639 1.429 . S
C2648 N2645 1.350 . S
C2648 C2647 1.434 . S
C2649 C2650 1.369 . S
C2649 C2651 1.419 . S
C2649 H2653 0.930 . S
C2650 C2649 1.369 . S
C2650 C2659 1.429 . S
C2651 C2649 1.419 . S
C2651 C2652 1.363 . S
C2651 H2654 0.929 . S
C2652 C2651 1.363 . S
C2652 C2658 1.428 . S
H2653 C2649 0.930 . S
H2654 C2651 0.929 . S
S2655 N2656 1.613 . S
S2655 N2657 1.610 . S
N2656 S2655 1.613 . S
N2656 C2659 1.350 . S
N2657 S2655 1.610 . S
N2657 C2658 1.351 . S
C2658 C2652 1.428 . S
C2658 N2657 1.351 . S
C2658 C2659 1.434 . S
C2659 C2650 1.429 . S
C2659 N2656 1.350 . S
C2659 C2658 1.434 . S
C2660 C2661 1.369 . S
C2660 C2662 1.419 . S
C2660 H2664 0.930 . S
C2661 C2660 1.369 . S
C2661 C2670 1.429 . S
C2662 C2660 1.419 . S
C2662 C2663 1.363 . S
C2662 H2665 0.929 . S
C2663 C2662 1.363 . S
C2663 C2669 1.428 . S
H2664 C2660 0.930 . S
H2665 C2662 0.929 . S
S2666 N2667 1.613 . S
S2666 N2668 1.610 . S
N2667 S2666 1.613 . S
N2667 C2670 1.350 . S
N2668 S2666 1.610 . S
N2668 C2669 1.351 . S
C2669 C2663 1.428 . S
C2669 N2668 1.351 . S
C2669 C2670 1.434 . S
C2670 C2661 1.429 . S
C2670 N2667 1.350 . S
C2670 C2669 1.434 . S
C2671 C2672 1.369 . S
C2671 C2673 1.419 . S
C2671 H2675 0.930 . S
C2672 C2671 1.369 . S
C2672 C2681 1.429 . S
C2673 C2671 1.419 . S
C2673 C2674 1.363 . S
C2673 H2676 0.929 . S
C2674 C2673 1.363 . S
C2674 C2680 1.428 . S
H2675 C2671 0.930 . S
H2676 C2673 0.929 . S
S2677 N2678 1.613 . S
S2677 N2679 1.610 . S
N2678 S2677 1.613 . S
N2678 C2681 1.350 . S
N2679 S2677 1.610 . S
N2679 C2680 1.351 . S
C2680 C2674 1.428 . S
C2680 N2679 1.351 . S
C2680 C2681 1.434 . S
C2681 C2672 1.429 . S
C2681 N2678 1.350 . S
C2681 C2680 1.434 . S
C2682 C2683 1.369 . S
C2682 C2684 1.419 . S
C2682 H2686 0.930 . S
C2683 C2682 1.369 . S
C2683 C2692 1.429 . S
C2684 C2682 1.419 . S
C2684 C2685 1.363 . S
C2684 H2687 0.929 . S
C2685 C2684 1.363 . S
C2685 C2691 1.428 . S
H2686 C2682 0.930 . S
H2687 C2684 0.929 . S
S2688 N2689 1.613 . S
S2688 N2690 1.610 . S
N2689 S2688 1.613 . S
N2689 C2692 1.350 . S
N2690 S2688 1.610 . S
N2690 C2691 1.351 . S
C2691 C2685 1.428 . S
C2691 N2690 1.351 . S
C2691 C2692 1.434 . S
C2692 C2683 1.429 . S
C2692 N2689 1.350 . S
C2692 C2691 1.434 . S
C2693 C2694 1.369 . S
C2693 C2695 1.419 . S
C2693 H2697 0.930 . S
C2694 C2693 1.369 . S
C2694 C2703 1.429 . S
C2695 C2693 1.419 . S
C2695 C2696 1.363 . S
C2695 H2698 0.929 . S
C2696 C2695 1.363 . S
C2696 C2702 1.428 . S
H2697 C2693 0.930 . S
H2698 C2695 0.929 . S
S2699 N2700 1.613 . S
S2699 N2701 1.610 . S
N2700 S2699 1.613 . S
N2700 C2703 1.350 . S
N2701 S2699 1.610 . S
N2701 C2702 1.351 . S
C2702 C2696 1.428 . S
C2702 N2701 1.351 . S
C2702 C2703 1.434 . S
C2703 C2694 1.429 . S
C2703 N2700 1.350 . S
C2703 C2702 1.434 . S
C2704 C2705 1.369 . S
C2704 C2706 1.419 . S
C2704 H2708 0.930 . S
C2705 C2704 1.369 . S
C2705 C2714 1.429 . S
C2706 C2704 1.419 . S
C2706 C2707 1.363 . S
C2706 H2709 0.929 . S
C2707 C2706 1.363 . S
C2707 C2713 1.428 . S
H2708 C2704 0.930 . S
H2709 C2706 0.929 . S
S2710 N2711 1.613 . S
S2710 N2712 1.603 1_545 S
N2711 S2710 1.613 . S
N2711 C2714 1.350 1_545 S
N2712 S2710 1.603 1_565 S
N2712 C2713 1.371 . S
C2713 C2707 1.428 . S
C2713 N2712 1.371 . S
C2713 C2714 1.434 . S
C2714 C2705 1.429 . S
C2714 N2711 1.350 1_565 S
C2714 C2713 1.434 . S
C2715 C2716 1.369 . S
C2715 C2717 1.419 . S
C2715 H2719 0.930 . S
C2716 C2715 1.369 . S
C2716 C2725 1.429 . S
C2717 C2715 1.419 . S
C2717 C2718 1.363 . S
C2717 H2720 0.929 . S
C2718 C2717 1.363 . S
C2718 C2724 1.428 . S
H2719 C2715 0.930 . S
H2720 C2717 0.929 . S
S2721 N2722 1.613 . S
S2721 N2723 1.610 1_554 S
N2722 S2721 1.613 . S
N2722 C2725 1.350 1_554 S
N2723 S2721 1.610 1_556 S
N2723 C2724 1.351 . S
C2724 C2718 1.428 . S
C2724 N2723 1.351 . S
C2724 C2725 1.434 . S
C2725 C2716 1.429 . S
C2725 N2722 1.350 1_556 S
C2725 C2724 1.434 . S
C2726 C2727 1.369 . S
C2726 C2728 1.419 . S
C2726 H2730 0.930 . S
C2727 C2726 1.369 . S
C2727 C2736 1.429 . S
C2728 C2726 1.419 . S
C2728 C2729 1.363 . S
C2728 H2731 0.929 . S
C2729 C2728 1.363 . S
C2729 C2735 1.428 . S
H2730 C2726 0.930 . S
H2731 C2728 0.929 . S
S2732 N2733 1.613 . S
S2732 N2734 1.610 . S
N2733 S2732 1.613 . S
N2733 C2736 1.350 . S
N2734 S2732 1.610 . S
N2734 C2735 1.351 . S
C2735 C2729 1.428 . S
C2735 N2734 1.351 . S
C2735 C2736 1.434 . S
C2736 C2727 1.429 . S
C2736 N2733 1.350 . S
C2736 C2735 1.434 . S
C2737 C2738 1.369 . S
C2737 C2739 1.419 . S
C2737 H2741 0.930 . S
C2738 C2737 1.369 . S
C2738 C2747 1.429 . S
C2739 C2737 1.419 . S
C2739 C2740 1.363 . S
C2739 H2742 0.929 . S
C2740 C2739 1.363 . S
C2740 C2746 1.428 . S
H2741 C2737 0.930 . S
H2742 C2739 0.929 . S
S2743 N2744 1.613 . S
S2743 N2745 1.610 . S
N2744 S2743 1.613 . S
N2744 C2747 1.350 . S
N2745 S2743 1.610 . S
N2745 C2746 1.351 . S
C2746 C2740 1.428 . S
C2746 N2745 1.351 . S
C2746 C2747 1.434 . S
C2747 C2738 1.429 . S
C2747 N2744 1.350 . S
C2747 C2746 1.434 . S
C2748 C2749 1.369 . S
C2748 C2750 1.419 . S
C2748 H2752 0.930 . S
C2749 C2748 1.369 . S
C2749 C2758 1.429 . S
C2750 C2748 1.419 . S
C2750 C2751 1.363 . S
C2750 H2753 0.929 . S
C2751 C2750 1.363 . S
C2751 C2757 1.428 . S
H2752 C2748 0.930 . S
H2753 C2750 0.929 . S
S2754 N2755 1.613 . S
S2754 N2756 1.610 . S
N2755 S2754 1.613 . S
N2755 C2758 1.350 . S
N2756 S2754 1.610 . S
N2756 C2757 1.351 . S
C2757 C2751 1.428 . S
C2757 N2756 1.351 . S
C2757 C2758 1.434 . S
C2758 C2749 1.429 . S
C2758 N2755 1.350 . S
C2758 C2757 1.434 . S
C2759 C2760 1.369 . S
C2759 C2761 1.419 . S
C2759 H2763 0.930 . S
C2760 C2759 1.369 . S
C2760 C2769 1.429 . S
C2761 C2759 1.419 . S
C2761 C2762 1.363 . S
C2761 H2764 0.929 . S
C2762 C2761 1.363 . S
C2762 C2768 1.428 . S
H2763 C2759 0.930 . S
H2764 C2761 0.929 . S
S2765 N2766 1.613 . S
S2765 N2767 1.610 . S
N2766 S2765 1.613 . S
N2766 C2769 1.350 . S
N2767 S2765 1.610 . S
N2767 C2768 1.351 . S
C2768 C2762 1.428 . S
C2768 N2767 1.351 . S
C2768 C2769 1.434 . S
C2769 C2760 1.429 . S
C2769 N2766 1.350 . S
C2769 C2768 1.434 . S
C2770 C2771 1.369 . S
C2770 C2772 1.419 . S
C2770 H2774 0.930 . S
C2771 C2770 1.369 . S
C2771 C2780 1.429 . S
C2772 C2770 1.419 . S
C2772 C2773 1.363 . S
C2772 H2775 0.929 . S
C2773 C2772 1.363 . S
C2773 C2779 1.428 . S
H2774 C2770 0.930 . S
H2775 C2772 0.929 . S
S2776 N2777 1.613 . S
S2776 N2778 1.610 1_554 S
N2777 S2776 1.613 . S
N2777 C2780 1.350 1_554 S
N2778 S2776 1.610 1_556 S
N2778 C2779 1.351 . S
C2779 C2773 1.428 . S
C2779 N2778 1.351 . S
C2779 C2780 1.434 . S
C2780 C2771 1.429 . S
C2780 N2777 1.350 1_556 S
C2780 C2779 1.434 . S
C2781 C2782 1.369 . S
C2781 C2783 1.419 . S
C2781 H2785 0.930 . S
C2782 C2781 1.369 . S
C2782 C2791 1.429 . S
C2783 C2781 1.419 . S
C2783 C2784 1.363 . S
C2783 H2786 0.929 . S
C2784 C2783 1.363 . S
C2784 C2790 1.428 . S
H2785 C2781 0.930 . S
H2786 C2783 0.929 . S
S2787 N2788 1.613 . S
S2787 N2789 1.610 . S
N2788 S2787 1.613 . S
N2788 C2791 1.350 . S
N2789 S2787 1.610 . S
N2789 C2790 1.351 . S
C2790 C2784 1.428 . S
C2790 N2789 1.351 . S
C2790 C2791 1.434 . S
C2791 C2782 1.429 . S
C2791 N2788 1.350 . S
C2791 C2790 1.434 . S
C2792 C2793 1.369 . S
C2792 C2794 1.419 . S
C2792 H2796 0.930 . S
C2793 C2792 1.369 . S
C2793 C2802 1.429 . S
C2794 C2792 1.419 . S
C2794 C2795 1.363 . S
C2794 H2797 0.929 . S
C2795 C2794 1.363 . S
C2795 C2801 1.428 . S
H2796 C2792 0.930 . S
H2797 C2794 0.929 . S
S2798 N2799 1.613 . S
S2798 N2800 1.610 . S
N2799 S2798 1.613 . S
N2799 C2802 1.350 . S
N2800 S2798 1.610 . S
N2800 C2801 1.351 . S
C2801 C2795 1.428 . S
C2801 N2800 1.351 . S
C2801 C2802 1.434 . S
C2802 C2793 1.429 . S
C2802 N2799 1.350 . S
C2802 C2801 1.434 . S
C2803 C2804 1.369 . S
C2803 C2805 1.419 . S
C2803 H2807 0.930 . S
C2804 C2803 1.369 . S
C2804 C2813 1.429 . S
C2805 C2803 1.419 . S
C2805 C2806 1.363 . S
C2805 H2808 0.929 . S
C2806 C2805 1.363 . S
C2806 C2812 1.428 . S
H2807 C2803 0.930 . S
H2808 C2805 0.929 . S
S2809 N2810 1.613 . S
S2809 N2811 1.610 . S
N2810 S2809 1.613 . S
N2810 C2813 1.350 . S
N2811 S2809 1.610 . S
N2811 C2812 1.351 . S
C2812 C2806 1.428 . S
C2812 N2811 1.351 . S
C2812 C2813 1.434 . S
C2813 C2804 1.429 . S
C2813 N2810 1.350 . S
C2813 C2812 1.434 . S
C2814 C2815 1.369 . S
C2814 C2816 1.419 . S
C2814 H2818 0.930 . S
C2815 C2814 1.369 . S
C2815 C2824 1.429 . S
C2816 C2814 1.419 . S
C2816 C2817 1.363 . S
C2816 H2819 0.929 . S
C2817 C2816 1.363 . S
C2817 C2823 1.428 . S
H2818 C2814 0.930 . S
H2819 C2816 0.929 . S
S2820 N2821 1.613 . S
S2820 N2822 1.610 . S
N2821 S2820 1.613 . S
N2821 C2824 1.350 . S
N2822 S2820 1.610 . S
N2822 C2823 1.351 . S
C2823 C2817 1.428 . S
C2823 N2822 1.351 . S
C2823 C2824 1.434 . S
C2824 C2815 1.429 . S
C2824 N2821 1.350 . S
C2824 C2823 1.434 . S
C2825 C2826 1.369 . S
C2825 C2827 1.419 . S
C2825 H2829 0.930 . S
C2826 C2825 1.369 . S
C2826 C2835 1.429 . S
C2827 C2825 1.419 . S
C2827 C2828 1.363 . S
C2827 H2830 0.929 . S
C2828 C2827 1.363 . S
C2828 C2834 1.428 . S
H2829 C2825 0.930 . S
H2830 C2827 0.929 . S
S2831 N2832 1.613 . S
S2831 N2833 1.610 . S
N2832 S2831 1.613 . S
N2832 C2835 1.350 . S
N2833 S2831 1.610 . S
N2833 C2834 1.351 . S
C2834 C2828 1.428 . S
C2834 N2833 1.351 . S
C2834 C2835 1.434 . S
C2835 C2826 1.429 . S
C2835 N2832 1.350 . S
C2835 C2834 1.434 . S
C2836 C2837 1.369 . S
C2836 C2838 1.419 . S
C2836 H2840 0.930 . S
C2837 C2836 1.369 . S
C2837 C2846 1.429 . S
C2838 C2836 1.419 . S
C2838 C2839 1.363 . S
C2838 H2841 0.929 . S
C2839 C2838 1.363 . S
C2839 C2845 1.428 . S
H2840 C2836 0.930 . S
H2841 C2838 0.929 . S
S2842 N2843 1.613 . S
S2842 N2844 1.610 . S
N2843 S2842 1.613 . S
N2843 C2846 1.350 . S
N2844 S2842 1.610 . S
N2844 C2845 1.351 . S
C2845 C2839 1.428 . S
C2845 N2844 1.351 . S
C2845 C2846 1.434 . S
C2846 C2837 1.429 . S
C2846 N2843 1.350 . S
C2846 C2845 1.434 . S
C2847 C2848 1.369 . S
C2847 C2849 1.419 . S
C2847 H2851 0.930 . S
C2848 C2847 1.369 . S
C2848 C2857 1.429 . S
C2849 C2847 1.419 . S
C2849 C2850 1.363 . S
C2849 H2852 0.929 . S
C2850 C2849 1.363 . S
C2850 C2856 1.428 . S
H2851 C2847 0.930 . S
H2852 C2849 0.929 . S
S2853 N2854 1.613 . S
S2853 N2855 1.610 . S
N2854 S2853 1.613 . S
N2854 C2857 1.350 . S
N2855 S2853 1.610 . S
N2855 C2856 1.351 . S
C2856 C2850 1.428 . S
C2856 N2855 1.351 . S
C2856 C2857 1.434 . S
C2857 C2848 1.429 . S
C2857 N2854 1.350 . S
C2857 C2856 1.434 . S
C2858 C2859 1.369 . S
C2858 C2860 1.419 . S
C2858 H2862 0.930 . S
C2859 C2858 1.369 . S
C2859 C2868 1.429 . S
C2860 C2858 1.419 . S
C2860 C2861 1.363 . S
C2860 H2863 0.929 . S
C2861 C2860 1.363 . S
C2861 C2867 1.428 . S
H2862 C2858 0.930 . S
H2863 C2860 0.929 . S
S2864 N2865 1.613 . S
S2864 N2866 1.610 . S
N2865 S2864 1.613 . S
N2865 C2868 1.350 . S
N2866 S2864 1.610 . S
N2866 C2867 1.351 . S
C2867 C2861 1.428 . S
C2867 N2866 1.351 . S
C2867 C2868 1.434 . S
C2868 C2859 1.429 . S
C2868 N2865 1.350 . S
C2868 C2867 1.434 . S
C2869 C2870 1.369 . S
C2869 C2871 1.419 . S
C2869 H2873 0.930 . S
C2870 C2869 1.369 . S
C2870 C2879 1.429 1_565 S
C2871 C2869 1.419 . S
C2871 C2872 1.363 . S
C2871 H2874 0.929 . S
C2872 C2871 1.363 . S
C2872 C2878 1.428 1_565 S
H2873 C2869 0.930 . S
H2874 C2871 0.929 . S
S2875 N2876 1.613 . S
S2875 N2877 1.610 . S
N2876 S2875 1.613 . S
N2876 C2879 1.350 . S
N2877 S2875 1.610 . S
N2877 C2878 1.351 . S
C2878 C2872 1.428 1_545 S
C2878 N2877 1.351 . S
C2878 C2879 1.434 . S
C2879 C2870 1.429 1_545 S
C2879 N2876 1.350 . S
C2879 C2878 1.434 . S
C2880 C2881 1.369 . S
C2880 C2882 1.419 . S
C2880 H2884 0.930 . S
C2881 C2880 1.369 . S
C2881 C2890 1.429 1_565 S
C2882 C2880 1.419 . S
C2882 C2883 1.363 . S
C2882 H2885 0.929 . S
C2883 C2882 1.363 . S
C2883 C2889 1.428 1_565 S
H2884 C2880 0.930 . S
H2885 C2882 0.929 . S
S2886 N2887 1.613 . S
S2886 N2888 1.610 . S
N2887 S2886 1.613 . S
N2887 C2890 1.350 . S
N2888 S2886 1.610 . S
N2888 C2889 1.351 . S
C2889 C2883 1.428 1_545 S
C2889 N2888 1.351 . S
C2889 C2890 1.434 . S
C2890 C2881 1.429 1_545 S
C2890 N2887 1.350 . S
C2890 C2889 1.434 . S
C2891 C2892 1.369 1_655 S
C2891 C2893 1.419 . S
C2891 H2895 0.930 . S
C2892 C2891 1.369 1_455 S
C2892 C2901 1.429 . S
C2893 C2891 1.419 . S
C2893 C2894 1.339 1_655 S
C2893 H2896 0.929 . S
C2894 C2893 1.339 1_455 S
C2894 C2900 1.445 . S
H2895 C2891 0.930 . S
H2896 C2893 0.929 . S
S2897 N2898 1.613 . S
S2897 N2899 1.610 . S
N2898 S2897 1.613 . S
N2898 C2901 1.350 . S
N2899 S2897 1.610 . S
N2899 C2900 1.351 . S
C2900 C2894 1.445 . S
C2900 N2899 1.351 . S
C2900 C2901 1.434 . S
C2901 C2892 1.429 . S
C2901 N2898 1.350 . S
C2901 C2900 1.434 . S
C2902 C2903 1.369 . S
C2902 C2904 1.419 . S
C2902 H2906 0.930 . S
C2903 C2902 1.369 . S
C2903 C2912 1.429 . S
C2904 C2902 1.419 . S
C2904 C2905 1.363 . S
C2904 H2907 0.929 . S
C2905 C2904 1.363 . S
C2905 C2911 1.428 . S
H2906 C2902 0.930 . S
H2907 C2904 0.929 . S
S2908 N2909 1.613 . S
S2908 N2910 1.610 . S
N2909 S2908 1.613 . S
N2909 C2912 1.350 . S
N2910 S2908 1.610 . S
N2910 C2911 1.351 . S
C2911 C2905 1.428 . S
C2911 N2910 1.351 . S
C2911 C2912 1.434 . S
C2912 C2903 1.429 . S
C2912 N2909 1.350 . S
C2912 C2911 1.434 . S
C2913 C2914 1.369 . S
C2913 C2915 1.419 . S
C2913 H2917 0.930 . S
C2914 C2913 1.369 . S
C2914 C2923 1.429 . S
C2915 C2913 1.419 . S
C2915 C2916 1.363 . S
C2915 H2918 0.929 . S
C2916 C2915 1.363 . S
C2916 C2922 1.428 . S
H2917 C2913 0.930 . S
H2918 C2915 0.929 . S
S2919 N2920 1.613 . S
S2919 N2921 1.610 . S
N2920 S2919 1.613 . S
N2920 C2923 1.350 . S
N2921 S2919 1.610 . S
N2921 C2922 1.351 . S
C2922 C2916 1.428 . S
C2922 N2921 1.351 . S
C2922 C2923 1.434 . S
C2923 C2914 1.429 . S
C2923 N2920 1.350 . S
C2923 C2922 1.434 . S
C2924 C2925 1.369 . S
C2924 C2926 1.419 . S
C2924 H2928 0.930 . S
C2925 C2924 1.369 . S
C2925 C2934 1.429 . S
C2926 C2924 1.419 . S
C2926 C2927 1.363 . S
C2926 H2929 0.929 . S
C2927 C2926 1.363 . S
C2927 C2933 1.428 . S
H2928 C2924 0.930 . S
H2929 C2926 0.929 . S
S2930 N2931 1.613 . S
S2930 N2932 1.610 . S
N2931 S2930 1.613 . S
N2931 C2934 1.350 . S
N2932 S2930 1.610 . S
N2932 C2933 1.351 . S
C2933 C2927 1.428 . S
C2933 N2932 1.351 . S
C2933 C2934 1.434 . S
C2934 C2925 1.429 . S
C2934 N2931 1.350 . S
C2934 C2933 1.434 . S
C2935 C2936 1.369 . S
C2935 C2937 1.419 . S
C2935 H2939 0.930 . S
C2936 C2935 1.369 . S
C2936 C2945 1.429 . S
C2937 C2935 1.419 . S
C2937 C2938 1.363 . S
C2937 H2940 0.929 . S
C2938 C2937 1.363 . S
C2938 C2944 1.428 . S
H2939 C2935 0.930 . S
H2940 C2937 0.929 . S
S2941 N2942 1.613 . S
S2941 N2943 1.610 . S
N2942 S2941 1.613 . S
N2942 C2945 1.350 . S
N2943 S2941 1.610 . S
N2943 C2944 1.351 . S
C2944 C2938 1.428 . S
C2944 N2943 1.351 . S
C2944 C2945 1.434 . S
C2945 C2936 1.429 . S
C2945 N2942 1.350 . S
C2945 C2944 1.434 . S
C2946 C2947 1.369 . S
C2946 C2948 1.419 . S
C2946 H2950 0.930 . S
C2947 C2946 1.369 . S
C2947 C2956 1.429 1_545 S
C2948 C2946 1.419 . S
C2948 C2949 1.363 . S
C2948 H2951 0.929 . S
C2949 C2948 1.363 . S
C2949 C2955 1.428 1_545 S
H2950 C2946 0.930 . S
H2951 C2948 0.929 . S
S2952 N2953 1.613 . S
S2952 N2954 1.610 . S
N2953 S2952 1.613 . S
N2953 C2956 1.350 . S
N2954 S2952 1.610 . S
N2954 C2955 1.351 . S
C2955 C2949 1.428 1_565 S
C2955 N2954 1.351 . S
C2955 C2956 1.434 . S
C2956 C2947 1.429 1_565 S
C2956 N2953 1.350 . S
C2956 C2955 1.434 . S
C2957 C2958 1.369 . S
C2957 C2959 1.419 . S
C2957 H2961 0.930 . S
C2958 C2957 1.369 . S
C2958 C2967 1.429 1_655 S
C2959 C2957 1.419 . S
C2959 C2960 1.363 . S
C2959 H2962 0.929 . S
C2960 C2959 1.363 . S
C2960 C2966 1.428 1_655 S
H2961 C2957 0.930 . S
H2962 C2959 0.929 . S
S2963 N2964 1.613 . S
S2963 N2965 1.610 . S
N2964 S2963 1.613 . S
N2964 C2967 1.350 . S
N2965 S2963 1.610 . S
N2965 C2966 1.351 . S
C2966 C2960 1.428 1_455 S
C2966 N2965 1.351 . S
C2966 C2967 1.434 . S
C2967 C2958 1.429 1_455 S
C2967 N2964 1.350 . S
C2967 C2966 1.434 . S
C2968 C2969 1.369 . S
C2968 C2970 1.419 . S
C2968 H2972 0.930 . S
C2969 C2968 1.369 . S
C2969 C2978 1.429 . S
C2970 C2968 1.419 . S
C2970 C2971 1.363 . S
C2970 H2973 0.929 . S
C2971 C2970 1.363 . S
C2971 C2977 1.428 . S
H2972 C2968 0.930 . S
H2973 C2970 0.929 . S
S2974 N2975 1.613 . S
S2974 N2976 1.610 . S
N2975 S2974 1.613 . S
N2975 C2978 1.350 . S
N2976 S2974 1.610 . S
N2976 C2977 1.351 . S
C2977 C2971 1.428 . S
C2977 N2976 1.351 . S
C2977 C2978 1.434 . S
C2978 C2969 1.429 . S
C2978 N2975 1.350 . S
C2978 C2977 1.434 . S
C2979 C2980 1.369 . S
C2979 C2981 1.419 . S
C2979 H2983 0.930 . S
C2980 C2979 1.369 . S
C2980 C2989 1.429 . S
C2981 C2979 1.419 . S
C2981 C2982 1.363 . S
C2981 H2984 0.929 . S
C2982 C2981 1.363 . S
C2982 C2988 1.428 . S
H2983 C2979 0.930 . S
H2984 C2981 0.929 . S
S2985 N2986 1.613 . S
S2985 N2987 1.610 . S
N2986 S2985 1.613 . S
N2986 C2989 1.350 . S
N2987 S2985 1.610 . S
N2987 C2988 1.351 . S
C2988 C2982 1.428 . S
C2988 N2987 1.351 . S
C2988 C2989 1.434 . S
C2989 C2980 1.429 . S
C2989 N2986 1.350 . S
C2989 C2988 1.434 . S
C2990 C2991 1.369 . S
C2990 C2992 1.419 . S
C2990 H2994 0.930 . S
C2991 C2990 1.369 . S
C2991 C3000 1.429 . S
C2992 C2990 1.419 . S
C2992 C2993 1.363 . S
C2992 H2995 0.929 . S
C2993 C2992 1.363 . S
C2993 C2999 1.428 . S
H2994 C2990 0.930 . S
H2995 C2992 0.929 . S
S2996 N2997 1.613 . S
S2996 N2998 1.610 . S
N2997 S2996 1.613 . S
N2997 C3000 1.350 . S
N2998 S2996 1.610 . S
N2998 C2999 1.351 . S
C2999 C2993 1.428 . S
C2999 N2998 1.351 . S
C2999 C3000 1.434 . S
C3000 C2991 1.429 . S
C3000 N2997 1.350 . S
C3000 C2999 1.434 . S
C3001 C3002 1.369 . S
C3001 C3003 1.419 . S
C3001 H3005 0.930 . S
C3002 C3001 1.369 . S
C3002 C3011 1.429 . S
C3003 C3001 1.419 . S
C3003 C3004 1.363 . S
C3003 H3006 0.929 . S
C3004 C3003 1.363 . S
C3004 C3010 1.428 . S
H3005 C3001 0.930 . S
H3006 C3003 0.929 . S
S3007 N3008 1.613 . S
S3007 N3009 1.610 . S
N3008 S3007 1.613 . S
N3008 C3011 1.350 . S
N3009 S3007 1.610 . S
N3009 C3010 1.351 . S
C3010 C3004 1.428 . S
C3010 N3009 1.351 . S
C3010 C3011 1.434 . S
C3011 C3002 1.429 . S
C3011 N3008 1.350 . S
C3011 C3010 1.434 . S
C3012 C3013 1.369 . S
C3012 C3014 1.419 . S
C3012 H3016 0.930 . S
C3013 C3012 1.369 . S
C3013 C3022 1.429 . S
C3014 C3012 1.419 . S
C3014 C3015 1.363 . S
C3014 H3017 0.929 . S
C3015 C3014 1.363 . S
C3015 C3021 1.428 . S
H3016 C3012 0.930 . S
H3017 C3014 0.929 . S
S3018 N3019 1.613 . S
S3018 N3020 1.610 . S
N3019 S3018 1.613 . S
N3019 C3022 1.350 . S
N3020 S3018 1.610 . S
N3020 C3021 1.351 . S
C3021 C3015 1.428 . S
C3021 N3020 1.351 . S
C3021 C3022 1.434 . S
C3022 C3013 1.429 . S
C3022 N3019 1.350 . S
C3022 C3021 1.434 . S
C3023 C3024 1.369 . S
C3023 C3025 1.419 . S
C3023 H3027 0.930 . S
C3024 C3023 1.369 . S
C3024 C3033 1.429 . S
C3025 C3023 1.419 . S
C3025 C3026 1.363 . S
C3025 H3028 0.929 . S
C3026 C3025 1.363 . S
C3026 C3032 1.428 . S
H3027 C3023 0.930 . S
H3028 C3025 0.929 . S
S3029 N3030 1.613 . S
S3029 N3031 1.610 . S
N3030 S3029 1.613 . S
N3030 C3033 1.350 . S
N3031 S3029 1.610 . S
N3031 C3032 1.351 . S
C3032 C3026 1.428 . S
C3032 N3031 1.351 . S
C3032 C3033 1.434 . S
C3033 C3024 1.429 . S
C3033 N3030 1.350 . S
C3033 C3032 1.434 . S
C3034 C3035 1.369 . S
C3034 C3036 1.419 . S
C3034 H3038 0.930 . S
C3035 C3034 1.369 . S
C3035 C3044 1.429 . S
C3036 C3034 1.419 . S
C3036 C3037 1.363 . S
C3036 H3039 0.929 . S
C3037 C3036 1.363 . S
C3037 C3043 1.428 . S
H3038 C3034 0.930 . S
H3039 C3036 0.929 . S
S3040 N3041 1.613 . S
S3040 N3042 1.610 . S
N3041 S3040 1.613 . S
N3041 C3044 1.350 . S
N3042 S3040 1.610 . S
N3042 C3043 1.351 . S
C3043 C3037 1.428 . S
C3043 N3042 1.351 . S
C3043 C3044 1.434 . S
C3044 C3035 1.429 . S
C3044 N3041 1.350 . S
C3044 C3043 1.434 . S
C3045 C3046 1.369 . S
C3045 C3047 1.419 1_655 S
C3045 H3049 0.930 1_655 S
C3046 C3045 1.369 . S
C3046 C3055 1.429 . S
C3047 C3045 1.419 1_455 S
C3047 C3048 1.363 1_455 S
C3047 H3050 0.929 . S
C3048 C3047 1.363 1_655 S
C3048 C3054 1.428 . S
H3049 C3045 0.930 1_455 S
H3050 C3047 0.929 . S
S3051 N3052 1.613 . S
S3051 N3053 1.610 . S
N3052 S3051 1.613 . S
N3052 C3055 1.350 . S
N3053 S3051 1.610 . S
N3053 C3054 1.351 . S
C3054 C3048 1.428 . S
C3054 N3053 1.351 . S
C3054 C3055 1.434 . S
C3055 C3046 1.429 . S
C3055 N3052 1.350 . S
C3055 C3054 1.434 . S
C3056 C3057 1.369 . S
C3056 C3058 1.419 . S
C3056 H3060 0.930 . S
C3057 C3056 1.369 . S
C3057 C3066 1.429 . S
C3058 C3056 1.419 . S
C3058 C3059 1.363 . S
C3058 H3061 0.929 . S
C3059 C3058 1.363 . S
C3059 C3065 1.428 . S
H3060 C3056 0.930 . S
H3061 C3058 0.929 . S
S3062 N3063 1.613 . S
S3062 N3064 1.610 . S
N3063 S3062 1.613 . S
N3063 C3066 1.350 . S
N3064 S3062 1.610 . S
N3064 C3065 1.351 . S
C3065 C3059 1.428 . S
C3065 N3064 1.351 . S
C3065 C3066 1.434 . S
C3066 C3057 1.429 . S
C3066 N3063 1.350 . S
C3066 C3065 1.434 . S
C3067 C3068 1.369 . S
C3067 C3069 1.419 . S
C3067 H3071 0.930 . S
C3068 C3067 1.369 . S
C3068 C3077 1.429 . S
C3069 C3067 1.419 . S
C3069 C3070 1.363 . S
C3069 H3072 0.929 . S
C3070 C3069 1.363 . S
C3070 C3076 1.428 . S
H3071 C3067 0.930 . S
H3072 C3069 0.929 . S
S3073 N3074 1.613 1_565 S
S3073 N3075 1.610 . S
N3074 S3073 1.613 1_545 S
N3074 C3077 1.350 . S
N3075 S3073 1.610 . S
N3075 C3076 1.351 1_565 S
C3076 C3070 1.428 . S
C3076 N3075 1.351 1_545 S
C3076 C3077 1.434 . S
C3077 C3068 1.429 . S
C3077 N3074 1.350 . S
C3077 C3076 1.434 . S
C2287 C8 1.283 . S
C2289 C1289 1.097 1_655 S
C2298 C18 1.644 . S
C2300 C1429 1.031 . S
C2311 C1517 1.203 . S
C2309 C31 1.326 . S
C2320 C34 1.383 . S
C2322 C1657 1.083 1_565 S
C2331 C5 1.346 . S
C2333 C1771 1.087 . S
C2342 C21 1.693 . S
C2344 C1859 1.227 . S
C2353 C47 1.288 . S
C2355 C1745 1.046 . S
C2366 C1885 1.301 . S
C2364 C57 1.522 . S
C2377 C1631 1.120 . S
C2375 C70 1.344 . S
C2386 C73 1.362 . S
C2388 C1543 1.009 . S
C2399 C1315 1.054 . S
C2397 C44 1.349 . S
C2408 C60 1.567 . S
C2410 C1403 1.462 . S
C2419 C86 1.766 . S
C2421 C1973 1.261 . S
C2430 C96 1.769 . S
C2432 C2113 1.113 . S
C2443 C2201 1.235 . S
C2441 C109 1.817 . S
C2452 C112 1.904 . S
C2454 C289 1.164 . S
C2463 C83 1.862 . S
C2465 C403 1.147 . S
C2474 C99 1.829 . S
C2476 C491 1.316 . S
C2485 C125 1.517 . S
C2487 C377 1.423 . S
C2496 C135 1.641 . S
C2498 C517 1.456 . S
C2509 C263 1.522 . S
C2507 C148 1.683 . S
C2520 C2227 1.708 . S
C2518 C151 1.874 . S
C2531 C1999 1.497 . S
C2529 C122 1.700 . S
C2542 C2087 1.619 . S
C2540 C138 1.712 . S
C2551 C164 1.657 . S
C2553 C605 1.145 . S
C2562 C174 1.769 . S
C2564 C745 1.092 . S
C2573 C187 1.818 . S
C2575 C833 1.267 . S
C2584 C190 2.008 . S
C2586 C973 1.271 . S
C2597 C1087 1.128 . S
C2595 C161 1.863 . S
C2608 C1175 1.352 . S
C2606 C177 1.851 . S
C2619 C1061 1.545 . S
C2617 C203 1.644 . S
C2630 C1201 1.453 . S
C2628 C213 1.647 . S
C2639 C226 1.661 . S
C2641 C947 1.514 . S
C2652 C859 1.603 . S
C2650 C229 1.754 . S
C2661 C200 1.721 . S
C2663 C631 1.507 . S
C2674 C719 1.606 . S
C2672 C216 1.694 . S
C2685 C245 0.919 . S
C2683 C0 1.721 . S
C2694 C23 1.715 . S
C2696 C359 0.899 . S
C2707 C463 1.280 . S
C2705 C36 1.828 . S
C2718 C577 1.223 . S
C2716 C26 1.612 . S
C2729 C701 0.969 . S
C2727 C10 1.861 . S
C2740 C805 1.226 . S
C2738 C13 1.647 . S
C2749 C39 1.841 . S
C2751 C815 1.648 . S
C2760 C62 1.845 . S
C2762 C587 1.564 . S
C2771 C75 1.982 . S
C2773 C691 1.819 . S
C2782 C65 1.758 . S
C2784 C349 1.824 . S
C2795 C473 1.732 . S
C2793 C49 2.028 . S
C2804 C52 1.783 . S
C2806 C235 1.830 . S
C2817 C929 0.905 . S
C2815 C78 1.647 . S
C2826 C101 1.799 . S
C2828 C1043 0.994 . S
C2837 C114 1.802 . S
C2839 C1147 1.342 . S
C2850 C1261 1.014 . S
C2848 C104 1.199 . S
C2859 C88 1.690 . S
C2861 C1385 0.904 . S
C2870 C91 1.207 . S
C2872 C1489 1.004 . S
C2881 C117 1.313 . S
C2883 C1499 0.845 1_565 S
C2892 C140 1.260 . S
C2894 C1271 0.895 1_455 S
C2905 C1375 1.651 . S
C2903 C153 1.802 . S
C2914 C143 1.694 . S
C2916 C1033 1.765 . S
C2925 C127 1.971 . S
C2927 C1157 1.674 . S
C2938 C919 1.868 . S
C2936 C130 1.872 . S
C2949 C1613 0.818 . S
C2947 C156 1.322 . S
C2958 C179 1.220 . S
C2960 C1727 0.840 . S
C2969 C192 1.664 . S
C2971 C1831 1.183 . S
C2982 C1945 1.216 . S
C2980 C182 1.538 . S
C2993 C2069 1.061 . S
C2991 C166 1.830 . S
C3002 C169 1.739 . S
C3004 C2173 1.304 . S
C3013 C195 1.763 . S
C3015 C2183 1.586 . S
C3024 C218 1.938 . S
C3026 C1955 1.615 . S
C3037 C2059 1.783 . S
C3035 C231 1.917 . S
C3048 C1717 1.073 1_655 S
C3046 C221 1.201 . S
C3059 C1841 1.520 . S
C3057 C205 1.835 . S
C3068 C208 1.247 . S
C3070 C1603 1.106 1_545 S
