# Generated by pormake.
# Topology eea, (3,6)-cn, num edge types: 1
# Building blocks:
#     Node 0, Type 0, BuildingBlock: QEWDON_clean_linker_0, # of connection points: 3
#     Node 1, Type 0, BuildingBlock: QEWDON_clean_linker_0, # of connection points: 3
#     Node 2, Type 0, BuildingBlock: QEWDON_clean_linker_0, # of connection points: 3
#     Node 3, Type 0, BuildingBlock: QEWDON_clean_linker_0, # of connection points: 3
#     Node 4, Type 0, BuildingBlock: QEWDON_clean_linker_0, # of connection points: 3
#     Node 5, Type 0, BuildingBlock: QEWDON_clean_linker_0, # of connection points: 3
#     Node 6, Type 0, BuildingBlock: QEWDON_clean_linker_0, # of connection points: 3
#     Node 7, Type 0, BuildingBlock: QEWDON_clean_linker_0, # of connection points: 3
#     Node 8, Type 0, BuildingBlock: QEWDON_clean_linker_0, # of connection points: 3
#     Node 9, Type 0, BuildingBlock: QEWDON_clean_linker_0, # of connection points: 3
#     Node 10, Type 0, BuildingBlock: QEWDON_clean_linker_0, # of connection points: 3
#     Node 11, Type 0, BuildingBlock: QEWDON_clean_linker_0, # of connection points: 3
#     Node 12, Type 0, BuildingBlock: QEWDON_clean_linker_0, # of connection points: 3
#     Node 13, Type 0, BuildingBlock: QEWDON_clean_linker_0, # of connection points: 3
#     Node 14, Type 0, BuildingBlock: QEWDON_clean_linker_0, # of connection points: 3
#     Node 15, Type 0, BuildingBlock: QEWDON_clean_linker_0, # of connection points: 3
#     Node 16, Type 0, BuildingBlock: QEWDON_clean_linker_0, # of connection points: 3
#     Node 17, Type 0, BuildingBlock: QEWDON_clean_linker_0, # of connection points: 3
#     Node 18, Type 1, BuildingBlock: KUMJIN_clean_sbu_0, # of connection points: 6
#     Node 19, Type 1, BuildingBlock: KUMJIN_clean_sbu_0, # of connection points: 6
#     Node 20, Type 1, BuildingBlock: KUMJIN_clean_sbu_0, # of connection points: 6
#     Node 21, Type 1, BuildingBlock: KUMJIN_clean_sbu_0, # of connection points: 6
#     Node 22, Type 1, BuildingBlock: KUMJIN_clean_sbu_0, # of connection points: 6
#     Node 23, Type 1, BuildingBlock: KUMJIN_clean_sbu_0, # of connection points: 6
#     Node 24, Type 1, BuildingBlock: KUMJIN_clean_sbu_0, # of connection points: 6
#     Node 25, Type 1, BuildingBlock: KUMJIN_clean_sbu_0, # of connection points: 6
#     Node 26, Type 1, BuildingBlock: KUMJIN_clean_sbu_0, # of connection points: 6
#     Edge 27, Type (0, 1), BuildingBlock: AJUNOK_clean_linker_0, # of connection points: 2
#     Edge 28, Type (0, 1), BuildingBlock: AJUNOK_clean_linker_0, # of connection points: 2
#     Edge 29, Type (0, 1), BuildingBlock: AJUNOK_clean_linker_0, # of connection points: 2
#     Edge 30, Type (0, 1), BuildingBlock: AJUNOK_clean_linker_0, # of connection points: 2
#     Edge 31, Type (0, 1), BuildingBlock: AJUNOK_clean_linker_0, # of connection points: 2
#     Edge 32, Type (0, 1), BuildingBlock: AJUNOK_clean_linker_0, # of connection points: 2
#     Edge 33, Type (0, 1), BuildingBlock: AJUNOK_clean_linker_0, # of connection points: 2
#     Edge 34, Type (0, 1), BuildingBlock: AJUNOK_clean_linker_0, # of connection points: 2
#     Edge 35, Type (0, 1), BuildingBlock: AJUNOK_clean_linker_0, # of connection points: 2
#     Edge 36, Type (0, 1), BuildingBlock: AJUNOK_clean_linker_0, # of connection points: 2
#     Edge 37, Type (0, 1), BuildingBlock: AJUNOK_clean_linker_0, # of connection points: 2
#     Edge 38, Type (0, 1), BuildingBlock: AJUNOK_clean_linker_0, # of connection points: 2
#     Edge 39, Type (0, 1), BuildingBlock: AJUNOK_clean_linker_0, # of connection points: 2
#     Edge 40, Type (0, 1), BuildingBlock: AJUNOK_clean_linker_0, # of connection points: 2
#     Edge 41, Type (0, 1), BuildingBlock: AJUNOK_clean_linker_0, # of connection points: 2
#     Edge 42, Type (0, 1), BuildingBlock: AJUNOK_clean_linker_0, # of connection points: 2
#     Edge 43, Type (0, 1), BuildingBlock: AJUNOK_clean_linker_0, # of connection points: 2
#     Edge 44, Type (0, 1), BuildingBlock: AJUNOK_clean_linker_0, # of connection points: 2
#     Edge 45, Type (0, 1), BuildingBlock: AJUNOK_clean_linker_0, # of connection points: 2
#     Edge 46, Type (0, 1), BuildingBlock: AJUNOK_clean_linker_0, # of connection points: 2
#     Edge 47, Type (0, 1), BuildingBlock: AJUNOK_clean_linker_0, # of connection points: 2
#     Edge 48, Type (0, 1), BuildingBlock: AJUNOK_clean_linker_0, # of connection points: 2
#     Edge 49, Type (0, 1), BuildingBlock: AJUNOK_clean_linker_0, # of connection points: 2
#     Edge 50, Type (0, 1), BuildingBlock: AJUNOK_clean_linker_0, # of connection points: 2
#     Edge 51, Type (0, 1), BuildingBlock: AJUNOK_clean_linker_0, # of connection points: 2
#     Edge 52, Type (0, 1), BuildingBlock: AJUNOK_clean_linker_0, # of connection points: 2
#     Edge 53, Type (0, 1), BuildingBlock: AJUNOK_clean_linker_0, # of connection points: 2
#     Edge 54, Type (0, 1), BuildingBlock: AJUNOK_clean_linker_0, # of connection points: 2
#     Edge 55, Type (0, 1), BuildingBlock: AJUNOK_clean_linker_0, # of connection points: 2
#     Edge 56, Type (0, 1), BuildingBlock: AJUNOK_clean_linker_0, # of connection points: 2
#     Edge 57, Type (0, 1), BuildingBlock: AJUNOK_clean_linker_0, # of connection points: 2
#     Edge 58, Type (0, 1), BuildingBlock: AJUNOK_clean_linker_0, # of connection points: 2
#     Edge 59, Type (0, 1), BuildingBlock: AJUNOK_clean_linker_0, # of connection points: 2
#     Edge 60, Type (0, 1), BuildingBlock: AJUNOK_clean_linker_0, # of connection points: 2
#     Edge 61, Type (0, 1), BuildingBlock: AJUNOK_clean_linker_0, # of connection points: 2
#     Edge 62, Type (0, 1), BuildingBlock: AJUNOK_clean_linker_0, # of connection points: 2
#     Edge 63, Type (0, 1), BuildingBlock: AJUNOK_clean_linker_0, # of connection points: 2
#     Edge 64, Type (0, 1), BuildingBlock: AJUNOK_clean_linker_0, # of connection points: 2
#     Edge 65, Type (0, 1), BuildingBlock: AJUNOK_clean_linker_0, # of connection points: 2
#     Edge 66, Type (0, 1), BuildingBlock: AJUNOK_clean_linker_0, # of connection points: 2
#     Edge 67, Type (0, 1), BuildingBlock: AJUNOK_clean_linker_0, # of connection points: 2
#     Edge 68, Type (0, 1), BuildingBlock: AJUNOK_clean_linker_0, # of connection points: 2
#     Edge 69, Type (0, 1), BuildingBlock: AJUNOK_clean_linker_0, # of connection points: 2
#     Edge 70, Type (0, 1), BuildingBlock: AJUNOK_clean_linker_0, # of connection points: 2
#     Edge 71, Type (0, 1), BuildingBlock: AJUNOK_clean_linker_0, # of connection points: 2
#     Edge 72, Type (0, 1), BuildingBlock: AJUNOK_clean_linker_0, # of connection points: 2
#     Edge 73, Type (0, 1), BuildingBlock: AJUNOK_clean_linker_0, # of connection points: 2
#     Edge 74, Type (0, 1), BuildingBlock: AJUNOK_clean_linker_0, # of connection points: 2
#     Edge 75, Type (0, 1), BuildingBlock: AJUNOK_clean_linker_0, # of connection points: 2
#     Edge 76, Type (0, 1), BuildingBlock: AJUNOK_clean_linker_0, # of connection points: 2
#     Edge 77, Type (0, 1), BuildingBlock: AJUNOK_clean_linker_0, # of connection points: 2
#     Edge 78, Type (0, 1), BuildingBlock: AJUNOK_clean_linker_0, # of connection points: 2
#     Edge 79, Type (0, 1), BuildingBlock: AJUNOK_clean_linker_0, # of connection points: 2
#     Edge 80, Type (0, 1), BuildingBlock: AJUNOK_clean_linker_0, # of connection points: 2
# Relax obj value: 0.047
# Max RMSD: 0.224
# Mean RMSD: 0.160
data_MOF--net-eea--node1-KUMJIN_clean_sbu_0--node2-QEWDON_clean_linker_0--edge1-AJUNOK_clean_linker_0
_symmetry_space_group_name_H-M    P1
_symmetry_Int_Tables_number       1
_symmetry_cell_setting            triclinic
loop_
_symmetry_equiv_pos_as_xyz
'x, y, z'
_cell_length_a     42.297774
_cell_length_b     43.79561
_cell_length_c     50.428309
_cell_angle_alpha  89.818739
_cell_angle_beta   89.920867
_cell_angle_gamma 119.94011
loop_
_atom_site_label
_atom_site_type_symbol
_atom_site_fract_x
_atom_site_fract_y
_atom_site_fract_z
_atom_type_partial_charge
H0 H 0.24681 0.13926 0.43397 0.0
C1 C 0.24506 0.11573 0.42562 0.0
C2 C 0.26457 0.10093 0.43735 0.0
C3 C 0.22265 0.09983 0.40346 0.0
H4 H 0.27645 0.05838 0.43521 0.0
C5 C 0.26209 0.07045 0.42617 0.0
C6 C 0.24109 0.05512 0.40349 0.0
C7 C 0.2215 0.06991 0.39223 0.0
C8 C 0.19877 0.11299 0.39287 0.0
H9 H 0.2047 0.05757 0.37499 0.0
C10 C 0.21105 0.14938 0.39088 0.0
C11 C 0.18783 0.16098 0.38089 0.0
C12 C 0.16286 0.08872 0.38502 0.0
H13 H 0.15218 0.06061 0.38691 0.0
C14 C 0.13997 0.10037 0.37506 0.0
H15 H 0.23858 0.16862 0.39666 0.0
C16 C 0.15237 0.13631 0.37291 0.0
H17 H 0.13421 0.14493 0.36518 0.0
H18 H 0.11245 0.08145 0.36909 0.0
H19 H 0.90034 0.10385 0.43167 0.0
C20 C 0.92206 0.12698 0.42203 0.0
C21 C 0.93435 0.16026 0.43348 0.0
C22 C 0.93858 0.1231 0.39904 0.0
H23 H 0.9746 0.21537 0.4314 0.0
C24 C 0.96437 0.1899 0.42208 0.0
C25 C 0.98141 0.18702 0.39896 0.0
C26 C 0.96817 0.15348 0.38754 0.0
C27 C 0.9264 0.08707 0.38822 0.0
H28 H 0.98092 0.15113 0.36961 0.0
C29 C 0.88921 0.06004 0.38872 0.0
C30 C 0.8789 0.02556 0.38033 0.0
C31 C 0.95258 0.07894 0.37859 0.0
H32 H 0.9813 0.09855 0.37837 0.0
C33 C 0.94228 0.04504 0.36992 0.0
H34 H 0.86842 0.06555 0.39587 0.0
C35 C 0.90583 0.0185 0.37093 0.0
H36 H 0.89856 0.99231 0.36424 0.0
H37 H 0.96278 0.03918 0.3627 0.0
H38 H 0.92927 0.79317 0.43007 0.0
C39 C 0.90601 0.79396 0.422 0.0
C40 C 0.87227 0.77624 0.4357 0.0
C41 C 0.90942 0.81241 0.39802 0.0
H42 H 0.81731 0.7673 0.43734 0.0
C43 C 0.8425 0.77881 0.42602 0.0
C44 C 0.84447 0.79569 0.40194 0.0
C45 C 0.87762 0.81168 0.3879 0.0
C46 C 0.94557 0.83328 0.38351 0.0
H47 H 0.87806 0.82318 0.3688 0.0
C48 C 0.97492 0.82595 0.3853 0.0
C49 C 1.00786 0.84634 0.37063 0.0
C50 C 0.95093 0.86193 0.36741 0.0
H51 H 0.93114 0.87066 0.36657 0.0
C52 C 0.98204 0.88035 0.35194 0.0
H53 H 0.97246 0.80491 0.39798 0.0
C54 C 1.00976 0.87224 0.3531 0.0
H55 H 0.03322 0.88701 0.3404 0.0
H56 H 0.98485 0.90142 0.33908 0.0
H57 H 0.13447 0.21219 0.60479 0.0
C58 C 0.11323 0.21346 0.61597 0.0
C59 C 0.09445 0.22888 0.60428 0.0
C60 C 0.10199 0.19618 0.64067 0.0
H61 H 0.05114 0.24069 0.6089 0.0
C62 C 0.06575 0.22899 0.61816 0.0
C63 C 0.05441 0.21285 0.64314 0.0
C64 C 0.07218 0.1957 0.6541 0.0
C65 C 0.11618 0.17257 0.64913 0.0
H66 H 0.0625 0.18154 0.6727 0.0
C67 C 0.15401 0.18467 0.65249 0.0
C68 C 0.16673 0.16037 0.65653 0.0
C69 C 0.09126 0.13636 0.6506 0.0
H70 H 0.06234 0.12639 0.64782 0.0
C71 C 0.10337 0.11239 0.65399 0.0
H72 H 0.17287 0.21272 0.65221 0.0
C73 C 0.14047 0.12407 0.65635 0.0
H74 H 0.14836 0.10412 0.65776 0.0
H75 H 0.08389 0.08442 0.65419 0.0
H76 H 0.7847 0.91102 0.61004 0.0
C77 C 0.78601 0.88947 0.61957 0.0
C78 C 0.7645 0.85501 0.60982 0.0
C79 C 0.81048 0.89653 0.64057 0.0
H80 H 0.75276 0.80115 0.61307 0.0
C81 C 0.76749 0.82732 0.62152 0.0
C82 C 0.79128 0.83368 0.64287 0.0
C83 C 0.81223 0.86826 0.65244 0.0
C84 C 0.83694 0.93361 0.64822 0.0
H85 H 0.8307 0.87327 0.66884 0.0
C86 C 0.82677 0.95983 0.64949 0.0
C87 C 0.85299 0.99508 0.65524 0.0
C88 C 0.87356 0.9433 0.65303 0.0
H89 H 0.8826 0.92417 0.65163 0.0
C90 C 0.89935 0.97803 0.65895 0.0
H91 H 0.79876 0.95301 0.64583 0.0
C92 C 0.88924 1.00377 0.65998 0.0
H93 H 0.9098 0.0306 0.66464 0.0
H94 H 0.92742 0.9851 0.66254 0.0
H95 H 0.12157 0.87106 0.60397 0.0
C96 C 0.14174 0.89434 0.6143 0.0
C97 C 0.1778 0.91319 0.60473 0.0
C98 C 0.13069 0.90673 0.63594 0.0
H99 H 0.2296 0.96093 0.60876 0.0
C100 C 0.20275 0.94484 0.61735 0.0
C101 C 0.19273 0.95701 0.63995 0.0
C102 C 0.1566 0.93694 0.64944 0.0
C103 C 0.09138 0.89442 0.63945 0.0
H104 H 0.14773 0.94534 0.66667 0.0
C105 C 0.06605 0.86039 0.64897 0.0
C106 C 0.02838 0.84937 0.64975 0.0
C107 C 0.0789 0.91696 0.63063 0.0
H108 H 0.09789 0.943 0.62301 0.0
C109 C 0.04184 0.90568 0.63032 0.0
H110 H 0.07561 0.84298 0.6559 0.0
C111 C 1.01678 0.87208 0.63934 0.0
H112 H 0.98806 0.86382 0.638 0.0
H113 H 0.03243 0.92291 0.62273 0.0
H114 H 0.95872 0.49595 0.75363 0.0
C115 C 0.9491 0.46929 0.74683 0.0
C116 C 0.95231 0.44518 0.76345 0.0
C117 C 0.93622 0.46001 0.72074 0.0
H118 H 0.94043 0.39172 0.7679 0.0
C119 C 0.9402 0.41084 0.75434 0.0
C120 C 0.92918 0.4014 0.72792 0.0
C121 C 0.92688 0.42619 0.71133 0.0
C122 C 0.93629 0.48686 0.70249 0.0
H123 H 0.91852 0.41952 0.69088 0.0
C124 C 0.92131 0.50807 0.71013 0.0
C125 C 0.92279 0.53401 0.6927 0.0
C126 C 0.95257 0.49206 0.6773 0.0
H127 H 0.96471 0.47657 0.67102 0.0
C128 C 0.95413 0.51784 0.66016 0.0
H129 H 0.90837 0.50427 0.72937 0.0
C130 C 0.93942 0.53874 0.66779 0.0
H131 H 0.94063 0.55842 0.65409 0.0
H132 H 0.96686 0.52167 0.64087 0.0
H133 H 0.56845 0.4366 0.76382 0.0
C134 C 0.59025 0.45952 0.75403 0.0
C135 C 0.60242 0.49303 0.76494 0.0
C136 C 0.60684 0.45509 0.73131 0.0
H137 H 0.64266 0.5481 0.76217 0.0
C138 C 0.63252 0.52238 0.75331 0.0
C139 C 0.64975 0.51885 0.7305 0.0
C140 C 0.6366 0.48507 0.71963 0.0
C141 C 0.59404 0.41894 0.7207 0.0
H142 H 0.64946 0.48224 0.70193 0.0
C143 C 0.55658 0.39284 0.72082 0.0
C144 C 0.54532 0.35836 0.7122 0.0
C145 C 0.61961 0.40982 0.71137 0.0
H146 H 0.64854 0.4288 0.71143 0.0
C147 C 0.60832 0.37574 0.70255 0.0
H148 H 0.53622 0.39918 0.72761 0.0
C149 C 0.57147 0.35011 0.70304 0.0
H150 H 0.56327 0.32375 0.69623 0.0
H151 H 0.62831 0.36906 0.69553 0.0
H152 H 0.58729 0.11732 0.7678 0.0
C153 C 0.56513 0.11843 0.75791 0.0
C154 C 0.52966 0.09919 0.76836 0.0
C155 C 0.57292 0.14203 0.73668 0.0
H156 H 0.47412 0.0874 0.76462 0.0
C157 C 0.50134 0.10205 0.75627 0.0
C158 C 0.50786 0.12439 0.73429 0.0
C159 C 0.5441 0.14498 0.72498 0.0
C160 C 0.6117 0.16915 0.73167 0.0
H161 H 0.55011 0.16387 0.70912 0.0
C162 C 0.63848 0.16075 0.72306 0.0
C163 C 0.67612 0.18693 0.72276 0.0
C164 C 0.62274 0.2037 0.73953 0.0
H165 H 0.60289 0.21066 0.74647 0.0
C166 C 0.65951 0.22893 0.74055 0.0
H167 H 0.62998 0.13414 0.71677 0.0
C168 C 0.68586 0.22044 0.73306 0.0
H169 H 0.7141 0.24036 0.73587 0.0
H170 H 0.66774 0.25503 0.74793 0.0
H171 H 0.80724 0.53958 0.94361 0.0
C172 C 0.78567 0.54268 0.9524 0.0
C173 C 0.77269 0.56223 0.93858 0.0
C174 C 0.77059 0.52659 0.97703 0.0
H175 H 0.73189 0.57804 0.93812 0.0
C176 C 0.74256 0.5637 0.94889 0.0
C177 C 0.72617 0.5472 0.97305 0.0
C178 C 0.7407 0.52922 0.98713 0.0
C179 C 0.78559 0.50671 0.99199 0.0
H180 H 0.7289 0.51795 1.00624 0.0
C181 C 0.82283 0.51553 0.99003 0.0
C182 C 0.83631 0.49657 1.00453 0.0
C183 C 0.76221 0.47812 1.00836 0.0
H184 H 0.73339 0.46931 1.00978 0.0
C185 C 0.77534 0.45979 0.02292 0.0
H186 H 0.84114 0.5368 0.97712 0.0
C187 C 0.81184 0.46893 0.02118 0.0
H188 H 0.82078 0.45399 0.03296 0.0
H189 H 0.75695 0.43808 0.03557 0.0
H190 H 0.46749 0.25463 0.94145 0.0
C191 C 0.46611 0.23174 0.95088 0.0
C192 C 0.44314 0.19816 0.94023 0.0
C193 C 0.48874 0.23623 0.97266 0.0
H194 H 0.42583 0.14288 0.9432 0.0
C195 C 0.44352 0.16888 0.95128 0.0
C196 C 0.46677 0.17279 0.97245 0.0
C197 C 0.48864 0.2064 0.98346 0.0
C198 C 0.5143 0.27238 0.98271 0.0
H199 H 0.50634 0.20939 0.99994 0.0
C200 C 0.50388 0.29844 0.98394 0.0
C201 C 0.52906 0.33299 0.99185 0.0
C202 C 0.55009 0.28157 0.98998 0.0
H203 H 0.55935 0.2626 0.98877 0.0
C204 C 0.57486 0.31575 0.99813 0.0
H205 H 0.47643 0.29205 0.97865 0.0
C206 C 0.56452 0.34138 0.99896 0.0
H207 H 0.58421 0.36785 1.00516 0.0
H208 H 0.60235 0.32251 1.00355 0.0
H209 H 0.77029 0.2053 0.94511 0.0
C210 C 0.79324 0.22915 0.95263 0.0
C211 C 0.82641 0.24477 0.93828 0.0
C212 C 0.79007 0.24424 0.97658 0.0
H213 H 0.88126 0.28896 0.93616 0.0
C214 C 0.85598 0.27645 0.94738 0.0
C215 C 0.85358 0.29207 0.97086 0.0
C216 C 0.82132 0.27503 0.98581 0.0
C217 C 0.7546 0.22928 0.99186 0.0
H218 H 0.82083 0.28662 1.00457 0.0
C219 C 0.72637 0.19344 0.99 0.0
C220 C 0.69373 0.18086 1.00491 0.0
C221 C 0.74853 0.25171 1.00861 0.0
H222 H 0.76736 0.27973 1.00953 0.0
C223 C 0.71767 0.23874 0.02455 0.0
H224 H 0.7292 0.17545 0.97689 0.0
C225 C 0.69085 0.2036 0.02309 0.0
H226 H 0.66707 0.19443 0.0357 0.0
H227 H 0.71418 0.25625 0.03781 0.0
H228 H 0.62257 0.82759 0.0909 0.0
C229 C 0.61357 0.80155 0.083 0.0
C230 C 0.61461 0.77574 0.09905 0.0
C231 C 0.60387 0.79489 0.0561 0.0
H232 H 0.60389 0.72236 0.10073 0.0
C233 C 0.60443 0.74266 0.08808 0.0
C234 C 0.59645 0.73597 0.06095 0.0
C235 C 0.59563 0.76212 0.04521 0.0
C236 C 0.60603 0.82337 0.03871 0.0
H237 H 0.58955 0.75739 0.02426 0.0
C238 C 0.58972 0.84347 0.04609 0.0
C239 C 0.5923 0.87032 0.02922 0.0
C240 C 0.62509 0.83084 0.0145 0.0
H241 H 0.63832 0.8162 1.00851 0.0
C242 C 0.62785 0.85764 0.99796 0.0
H243 H 0.57465 0.8379 0.06456 0.0
C244 C 0.6115 0.87723 1.00521 0.0
H245 H 0.61357 0.8977 0.99197 0.0
H246 H 0.64264 0.86318 0.9794 0.0
H247 H 0.22768 0.77487 0.10075 0.0
C248 C 0.24965 0.79668 0.09007 0.0
C249 C 0.26237 0.83133 0.09885 0.0
C250 C 0.26646 0.78978 0.06868 0.0
H251 H 0.30202 0.88602 0.09223 0.0
C252 C 0.2921 0.85928 0.0856 0.0
C253 C 0.30982 0.85305 0.06438 0.0
C254 C 0.29615 0.8182 0.05569 0.0
C255 C 0.25542 0.75276 0.06166 0.0
H256 H 0.30878 0.81304 0.03891 0.0
C257 C 0.21831 0.7262 0.06031 0.0
C258 C 0.20868 0.69097 0.05527 0.0
C259 C 0.28247 0.74349 0.05755 0.0
H260 H 0.31115 0.76309 0.05886 0.0
C261 C 0.27291 0.70865 0.0525 0.0
H262 H 0.19707 0.73283 0.06328 0.0
C263 C 0.23631 0.68251 0.05149 0.0
H264 H 0.22949 0.65562 0.04742 0.0
H265 H 0.29399 0.70184 0.04952 0.0
H266 H 0.25952 0.45296 0.09913 0.0
C267 C 0.23755 0.45415 0.08899 0.0
C268 C 0.20199 0.43519 0.09926 0.0
C269 C 0.24566 0.47765 0.06765 0.0
H270 H 0.14662 0.42395 0.09543 0.0
C271 C 0.17388 0.43833 0.08709 0.0
C272 C 0.18076 0.46081 0.06513 0.0
C273 C 0.21704 0.48067 0.05566 0.0
C274 C 0.28449 0.50494 0.06295 0.0
H275 H 0.22335 0.49918 0.03948 0.0
C276 C 0.31167 0.49681 0.05485 0.0
C277 C 0.34919 0.52333 0.05468 0.0
C278 C 0.29505 0.53949 0.07051 0.0
H279 H 0.2749 0.54626 0.07707 0.0
C280 C 0.3317 0.56503 0.07169 0.0
H281 H 0.30358 0.47021 0.04879 0.0
C282 C 0.35842 0.55686 0.06463 0.0
H283 H 0.38656 0.57707 0.06746 0.0
H284 H 0.33953 0.59116 0.0788 0.0
H285 H 0.4829 0.89305 0.27907 0.0
C286 C 0.45937 0.893 0.2876 0.0
C287 C 0.44325 0.90956 0.27354 0.0
C288 C 0.44436 0.8752 0.31177 0.0
H289 H 0.39903 0.92076 0.27295 0.0
C290 C 0.41158 0.90817 0.28377 0.0
C291 C 0.39576 0.89054 0.30769 0.0
C292 C 0.41285 0.87498 0.32181 0.0
C293 C 0.45967 0.85476 0.32558 0.0
H294 H 0.40137 0.86281 0.34077 0.0
C295 C 0.49704 0.86392 0.32354 0.0
C296 C 0.50955 0.84253 0.33548 0.0
C297 C 0.43586 0.82424 0.34018 0.0
H298 H 0.40696 0.81506 0.34153 0.0
C299 C 0.4485 0.80409 0.35276 0.0
H300 H 0.5162 0.88702 0.31243 0.0
C301 C 0.48486 0.81305 0.35045 0.0
H302 H 0.49364 0.79645 0.36012 0.0
H303 H 0.42976 0.78089 0.36398 0.0
H304 H 0.12639 0.58038 0.26886 0.0
C305 C 0.12594 0.55905 0.28014 0.0
C306 C 0.10189 0.524 0.27282 0.0
C307 C 0.15126 0.56679 0.30067 0.0
H308 H 0.08339 0.46946 0.28193 0.0
C309 C 0.10231 0.49663 0.28706 0.0
C310 C 0.12792 0.50387 0.30718 0.0
C311 C 0.1521 0.539 0.31409 0.0
C312 C 0.17901 0.60389 0.30634 0.0
H313 H 0.17248 0.54475 0.32922 0.0
C314 C 0.16899 0.62997 0.30888 0.0
C315 C 0.19569 0.66529 0.31325 0.0
C316 C 0.21602 0.61361 0.30835 0.0
H317 H 0.22456 0.59419 0.30612 0.0
C318 C 0.24254 0.64868 0.31258 0.0
H319 H 0.14054 0.62283 0.30744 0.0
C320 C 0.23252 0.67443 0.31492 0.0
H321 H 0.2535 0.70149 0.31842 0.0
H322 H 0.27098 0.65593 0.31397 0.0
H323 H 0.44586 0.54529 0.26842 0.0
C324 C 0.46705 0.56683 0.27968 0.0
C325 C 0.50279 0.5849 0.26965 0.0
C326 C 0.45772 0.57876 0.30257 0.0
H327 H 0.55661 0.6289 0.27463 0.0
C328 C 0.52965 0.61435 0.28331 0.0
C329 C 0.52168 0.62586 0.30719 0.0
C330 C 0.48521 0.60777 0.3165 0.0
C331 C 0.41867 0.56705 0.30747 0.0
H332 H 0.47763 0.61689 0.33402 0.0
C333 C 0.39287 0.53236 0.31565 0.0
C334 C 0.35511 0.52141 0.31668 0.0
C335 C 0.40661 0.59059 0.30063 0.0
H336 H 0.42584 0.61713 0.29406 0.0
C337 C 0.36961 0.57962 0.30051 0.0
H338 H 0.40222 0.51426 0.32113 0.0
C339 C 0.34411 0.54527 0.30778 0.0
H340 H 0.31557 0.53739 0.30591 0.0
H341 H 0.36054 0.59761 0.29412 0.0
Eu342 Eu 0.49627 0.99002 0.98663 0.0
C343 C 0.55173 0.10499 0.07571 0.0
C344 C 0.61735 0.13115 0.07443 0.0
C345 C 0.59043 0.16621 0.08844 0.0
C346 C 0.5821 0.1023 0.07001 0.0
C347 C 0.55547 0.13664 0.08573 0.0
C348 C 0.62135 0.16342 0.08288 0.0
C349 C 0.49032 0.10613 0.093 0.0
N350 N 0.51852 0.07564 0.07354 0.0
C351 C 0.48808 0.07533 0.08304 0.0
C352 C 0.52409 0.13713 0.09388 0.0
Eu353 Eu 0.51623 0.02467 0.05539 0.0
N354 N 0.57712 0.07054 0.06243 0.0
C355 C 0.6061 0.06502 0.06116 0.0
C356 C 0.64734 0.12616 0.07153 0.0
C357 C 0.6416 0.09271 0.06547 0.0
H358 H 0.46185 0.05154 0.08233 0.0
H359 H 0.66452 0.08829 0.06379 0.0
H360 H 0.64822 0.186 0.08609 0.0
H361 H 0.46599 0.10595 0.09991 0.0
H362 H 0.6021 0.03953 0.05607 0.0
H363 H 0.34834 0.93017 0.97833 0.0
H364 H 0.67487 0.14762 0.07476 0.0
H365 H 0.54941 0.95859 0.96491 0.0
H366 H 0.41165 0.97871 0.98398 0.0
H367 H 0.54309 0.90163 0.95096 0.0
H368 H 0.59388 0.19088 0.09583 0.0
H369 H 0.3361 0.86948 0.97052 0.0
H370 H 0.36084 0.82876 0.96202 0.0
H371 H 0.52579 0.1609 0.10172 0.0
H372 H 0.4139 0.82102 0.95432 0.0
N373 N 0.43491 0.94568 0.98004 0.0
C374 C 0.40668 0.95238 0.9804 0.0
C375 C 0.36395 0.89069 0.97293 0.0
C376 C 0.39326 0.88449 0.97075 0.0
C377 C 0.37075 0.92493 0.97724 0.0
C378 C 0.42895 0.91301 0.97416 0.0
H379 H 0.48197 0.8482 0.94958 0.0
N380 N 0.49263 0.93714 0.97186 0.0
C381 C 0.51916 0.9032 0.95633 0.0
C382 C 0.45873 0.90859 0.96987 0.0
C383 C 0.52267 0.93536 0.96413 0.0
C384 C 0.48461 0.87307 0.95567 0.0
C385 C 0.45378 0.87564 0.96203 0.0
O386 O 0.52771 0.00932 0.94983 0.0
O387 O 0.53461 0.03312 0.01313 0.0
O388 O 0.50327 0.0615 0.03205 0.0
O389 O 0.47436 0.02776 0.99434 0.0
O390 O 0.55852 0.01823 0.98428 0.0
O391 O 0.47438 1.00449 0.95269 0.0
O392 O 0.48373 1.00028 0.09117 0.0
O393 O 0.47696 0.98192 0.02868 0.0
O394 O 0.50572 0.95267 0.01161 0.0
O395 O 0.54137 0.98982 0.04551 0.0
O396 O 0.45483 1.00014 0.05665 0.0
O397 O 0.53748 0.00672 0.08777 0.0
C398 C 0.56504 0.04016 1.00333 0.0
C399 C 0.49424 0.99862 0.9101 0.0
C400 C 0.49696 0.00966 0.86228 0.0
C401 C 0.50439 0.02225 0.88856 0.0
C402 C 0.4796 0.97311 0.85797 0.0
C403 C 0.47665 0.9623 0.90528 0.0
C404 C 0.46949 0.94968 0.87934 0.0
C405 C 0.48428 0.05563 1.00983 0.0
C406 C 0.50232 0.01222 0.9374 0.0
C407 C 0.41829 0.84668 0.96 0.0
C408 C 0.38807 0.85109 0.96439 0.0
C409 C 0.44718 0.97772 0.03785 0.0
C410 C 0.51652 0.00909 0.13087 0.0
C411 C 0.50143 0.98462 0.15192 0.0
C412 C 0.50735 0.99612 0.17857 0.0
C413 C 0.52894 0.03246 0.18358 0.0
C414 C 0.538 0.04506 0.13653 0.0
C415 C 0.54416 0.05661 0.16273 0.0
C416 C 0.52891 0.96046 0.03138 0.0
C417 C 0.50919 0.99709 0.10309 0.0
H418 H 0.51834 0.05035 0.89227 0.0
H419 H 0.47334 0.96263 0.83803 0.0
H420 H 0.46847 0.94373 0.92153 0.0
H421 H 0.45592 0.92159 0.87578 0.0
H422 H 0.4854 0.95678 0.14748 0.0
H423 H 0.53369 0.04234 0.20369 0.0
H424 H 0.54995 0.06423 0.1207 0.0
H425 H 0.56063 0.08446 0.16692 0.0
Eu426 Eu 0.04011 0.50741 0.9864 0.0
C427 C 0.91719 0.45972 0.06983 0.0
C428 C 0.90796 0.51001 0.07051 0.0
C429 C 0.8574 0.45168 0.08065 0.0
C430 C 0.93075 0.49546 0.06635 0.0
C431 C 0.88059 0.43758 0.07774 0.0
C432 C 0.87108 0.48785 0.07707 0.0
C433 C 0.89386 0.39033 0.08318 0.0
N434 N 0.94058 0.44713 0.06782 0.0
C435 C 0.93001 0.41348 0.07582 0.0
C436 C 0.86885 0.40228 0.08373 0.0
Eu437 Eu 1.00145 0.48757 0.05473 0.0
N438 N 0.96666 0.51626 0.06031 0.0
C439 C 0.9818 0.5521 0.0595 0.0
C440 C 0.92313 0.54655 0.06879 0.0
C441 C 0.96032 0.56769 0.06365 0.0
H442 H 0.94947 0.40429 0.07576 0.0
H443 H 0.97244 0.59604 0.0626 0.0
H444 H 0.8531 0.49853 0.08002 0.0
H445 H 0.8854 0.3634 0.08864 0.0
H446 H 1.0103 0.56906 0.05524 0.0
H447 H 0.08419 0.40948 0.97901 0.0
H448 H 0.90653 0.55871 0.07184 0.0
H449 H 0.08566 0.59055 0.96262 0.0
H450 H 0.04004 0.4302 0.98231 0.0
H451 H 0.14935 0.63654 0.95277 0.0
H452 H 0.82913 0.43504 0.08643 0.0
H453 H 0.15024 0.45241 0.97617 0.0
H454 H 0.20023 0.51543 0.97207 0.0
H455 H 0.84095 0.38445 0.08981 0.0
H456 H 0.21818 0.57769 0.96538 0.0
N457 N 0.08043 0.48471 0.98162 0.0
C458 C 0.06864 0.44942 0.9808 0.0
C459 C 0.13091 0.46175 0.97743 0.0
C460 C 0.14265 0.49777 0.97653 0.0
C461 C 0.09366 0.43745 0.97894 0.0
C462 C 0.11635 0.50855 0.9783 0.0
H463 H 0.1993 0.62304 0.95759 0.0
N464 N 0.09999 0.55236 0.97441 0.0
C465 C 0.14339 0.61064 0.9593 0.0
C466 C 0.12649 0.54356 0.97482 0.0
C467 C 0.10746 0.58461 0.96486 0.0
C468 C 0.17151 0.60293 0.9621 0.0
C469 C 0.16313 0.56875 0.96912 0.0
O470 O 0.0286 0.52615 0.94944 0.0
O471 O 0.99433 0.49896 0.01285 0.0
O472 O 0.96499 0.43932 0.03025 0.0
O473 O 0.99689 0.4492 0.99021 0.0
O474 O 1.00915 0.53781 0.98471 0.0
O475 O 0.02297 0.4744 0.95095 0.0
O476 O 1.00754 0.46469 0.09168 0.0
O477 O 0.04765 0.49465 0.02853 0.0
O478 O 0.07329 0.55726 1.00955 0.0
O479 O 0.04865 0.54442 0.05242 0.0
O480 O 0.02549 0.45166 0.05403 0.0
O481 O 0.02471 0.5202 0.08979 0.0
C482 C 0.98618 0.52087 1.00348 0.0
C483 C 0.03937 0.50429 0.90982 0.0
C484 C 0.03426 0.49676 0.86178 0.0
C485 C 1.01778 0.49111 0.88696 0.0
C486 C 0.07252 0.51659 0.85977 0.0
C487 C 0.07749 0.52315 0.90738 0.0
C488 C 0.09392 0.52951 0.88246 0.0
C489 C 0.96979 0.42912 1.00664 0.0
C490 C 0.02189 0.49819 0.93603 0.0
C491 C 0.1898 0.5586 0.96924 0.0
C492 C 0.17958 0.52314 0.97298 0.0
C493 C 0.0511 0.46911 0.03694 0.0
C494 C 1.00404 0.49193 0.13114 0.0
C495 C 0.02548 0.49789 0.15379 0.0
C496 C 1.01101 0.4964 0.17923 0.0
C497 C 0.97489 0.48938 0.18164 0.0
C498 C 0.96806 0.48497 0.13393 0.0
C499 C 0.95358 0.48368 0.15907 0.0
C500 C 0.07188 0.566 0.03433 0.0
C501 C 0.02006 0.49402 0.10485 0.0
H502 H 0.98831 0.47601 0.8888 0.0
H503 H 0.08589 0.52207 0.8406 0.0
H504 H 0.0946 0.53301 0.92465 0.0
H505 H 0.12335 0.54442 0.88073 0.0
H506 H 0.0536 0.50418 0.15155 0.0
H507 H 0.96306 0.488 0.20099 0.0
H508 H 0.95127 0.48081 0.11677 0.0
H509 H 0.92576 0.47828 0.16106 0.0
Eu510 Eu 0.54496 0.5205 0.05016 0.0
C511 C 0.47358 0.5617 0.95907 0.0
C512 C 0.41054 0.51524 0.96283 0.0
C513 C 0.42497 0.57226 0.94472 0.0
C514 C 0.44811 0.52762 0.96633 0.0
C515 C 0.46236 0.58416 0.94762 0.0
C516 C 0.39912 0.53791 0.9524 0.0
C517 C 0.52589 0.62773 0.94131 0.0
N518 N 0.50945 0.57245 0.96222 0.0
C519 C 0.53563 0.60441 0.95259 0.0
C520 C 0.48907 0.61771 0.93906 0.0
Eu521 Eu 0.52412 0.53142 0.98083 0.0
N522 N 0.46005 0.50634 0.97626 0.0
C523 C 0.43589 0.47171 0.98164 0.0
C524 C 0.3856 0.48026 0.96951 0.0
C525 C 0.39838 0.45831 0.9787 0.0
H526 H 0.56416 0.6121 0.95417 0.0
H527 H 0.37934 0.43107 0.9836 0.0
H528 H 0.37037 0.52893 0.94976 0.0
H529 H 0.54675 0.65333 0.93426 0.0
H530 H 0.44519 0.45442 0.98898 0.0
H531 H 0.69405 0.59405 0.05331 0.0
H532 H 0.35652 0.46979 0.96724 0.0
H533 H 0.48884 0.44334 0.07993 0.0
H534 H 0.6324 0.58592 0.04816 0.0
H535 H 0.49103 0.39218 0.09869 0.0
H536 H 0.4158 0.58925 0.93622 0.0
H537 H 0.70166 0.54317 0.06497 0.0
H538 H 0.67262 0.47951 0.07866 0.0
H539 H 0.48155 0.63576 0.93021 0.0
H540 H 0.61717 0.42444 0.09127 0.0
N541 N 0.60523 0.53098 0.05614 0.0
C542 C 0.63527 0.56364 0.05354 0.0
C543 C 0.67449 0.5395 0.06278 0.0
C544 C 0.64353 0.50663 0.06744 0.0
C545 C 0.67032 0.5683 0.05634 0.0
C546 C 0.60881 0.50328 0.06417 0.0
H547 H 0.54939 0.39191 0.09943 0.0
N548 N 0.54514 0.4712 0.06966 0.0
C549 C 0.51559 0.41449 0.0909 0.0
C550 C 0.57777 0.4724 0.07132 0.0
C551 C 0.51445 0.4435 0.08035 0.0
C552 C 0.54856 0.41438 0.09119 0.0
C553 C 0.58035 0.44387 0.08182 0.0
O554 O 0.51589 0.51632 0.08717 0.0
O555 O 0.50632 0.52683 0.0233 0.0
O556 O 0.54022 0.58289 1.00204 0.0
O557 O 0.57112 0.5788 0.03903 0.0
O558 O 0.483 0.49006 0.05315 0.0
O559 O 0.57042 0.56001 0.08131 0.0
O560 O 0.55532 0.54652 0.94376 0.0
O561 O 0.56359 0.52701 1.00775 0.0
O562 O 0.53189 0.46984 0.02996 0.0
O563 O 0.5093 0.47407 0.98856 0.0
O564 O 0.58544 0.56598 0.97891 0.0
O565 O 0.50869 0.49422 0.94798 0.0
C566 C 0.47606 0.5054 0.03405 0.0
C567 C 0.55268 0.53885 0.12517 0.0
C568 C 0.54681 0.54299 0.17312 0.0
C569 C 0.53865 0.54834 0.14698 0.0
C570 C 0.56886 0.52775 0.17705 0.0
C571 C 0.57503 0.52415 0.12963 0.0
C572 C 0.58293 0.51852 0.15542 0.0
C573 C 0.56177 0.59693 0.02287 0.0
C574 C 0.54333 0.5437 0.09791 0.0
C575 C 0.61465 0.44624 0.08356 0.0
C576 C 0.64621 0.47759 0.07636 0.0
C577 C 0.59327 0.55068 0.9976 0.0
C578 C 0.52356 0.51856 0.90465 0.0
C579 C 0.54092 0.51215 0.88328 0.0
C580 C 0.53118 0.51442 0.85688 0.0
C581 C 0.50456 0.52414 0.85232 0.0
C582 C 0.49639 0.52717 0.89952 0.0
C583 C 0.48718 0.53021 0.8735 0.0
C584 C 0.51647 0.45658 1.00692 0.0
C585 C 0.53427 0.51658 0.93213 0.0
H586 H 0.52118 0.55952 0.14362 0.0
H587 H 0.5757 0.5235 0.1969 0.0
H588 H 0.58642 0.51705 0.11323 0.0
H589 H 0.60014 0.50709 0.15867 0.0
H590 H 0.56162 0.50503 0.8872 0.0
H591 H 0.4973 0.52729 0.83231 0.0
H592 H 0.48233 0.5316 0.91556 0.0
H593 H 0.4665 0.53735 0.86973 0.0
Eu594 Eu 0.16624 0.32834 0.31914 0.0
C595 C 0.23149 0.43209 0.41587 0.0
C596 C 0.29548 0.44977 0.41147 0.0
C597 C 0.27808 0.48859 0.43325 0.0
C598 C 0.25829 0.42491 0.40714 0.0
C599 C 0.24115 0.4635 0.42974 0.0
C600 C 0.30516 0.48182 0.42401 0.0
C601 C 0.1771 0.44185 0.43769 0.0
N602 N 0.19593 0.40777 0.41189 0.0
C603 C 0.16882 0.41143 0.42348 0.0
C604 C 0.21339 0.46837 0.44035 0.0
Eu605 Eu 0.18376 0.35626 0.389 0.0
N606 N 0.24816 0.39353 0.39508 0.0
C607 C 0.27418 0.3848 0.38865 0.0
C608 C 0.32196 0.4415 0.40354 0.0
C609 C 0.31122 0.40874 0.39241 0.0
H610 H 0.14069 0.39098 0.42137 0.0
H611 H 0.33153 0.40192 0.38652 0.0
H612 H 0.33356 0.50123 0.42724 0.0
H613 H 0.15546 0.4449 0.44645 0.0
H614 H 0.26736 0.36018 0.37946 0.0
H615 H 0.02119 0.28786 0.31356 0.0
H616 H 0.35073 0.45996 0.4064 0.0
H617 H 0.20662 0.28741 0.29078 0.0
H618 H 0.08695 0.32985 0.31728 0.0
H619 H 0.19034 0.22738 0.27607 0.0
H620 H 0.28598 0.51304 0.44354 0.0
H621 H 0.99924 0.22445 0.30701 0.0
H622 H 1.01419 0.17657 0.29837 0.0
H623 H 0.21974 0.49204 0.45123 0.0
H624 H 0.0605 0.1599 0.28824 0.0
N625 N 0.10248 0.29066 0.31347 0.0
C626 C 0.07797 0.30237 0.31423 0.0
C627 C 0.02825 0.24281 0.30858 0.0
C628 C 0.05363 0.23138 0.30587 0.0
C629 C 0.04054 0.27859 0.31215 0.0
C630 C 0.09108 0.25636 0.30819 0.0
H631 H 0.1263 0.17889 0.27915 0.0
N632 N 0.15268 0.27234 0.30304 0.0
C633 C 0.16949 0.2324 0.2838 0.0
C634 C 0.11706 0.24686 0.30284 0.0
C635 C 0.17859 0.26628 0.29204 0.0
C636 C 0.13334 0.20507 0.28569 0.0
C637 C 0.10641 0.21232 0.29458 0.0
O638 O 0.1971 0.34292 0.28187 0.0
O639 O 0.20375 0.37029 0.34709 0.0
O640 O 0.16507 0.39229 0.37031 0.0
O641 O 0.15053 0.37004 0.32708 0.0
O642 O 0.22828 0.35623 0.31809 0.0
O643 O 0.1497 0.34897 0.28563 0.0
O644 O 0.15611 0.3072 0.41218 0.0
O645 O 0.14419 0.3165 0.3607 0.0
O646 O 0.17963 0.29099 0.34078 0.0
O647 O 0.20639 0.3198 0.3805 0.0
O648 O 0.12398 0.33931 0.38669 0.0
O649 O 0.1873 0.35606 0.43246 0.0
C650 C 0.23432 0.3782 0.33706 0.0
C651 C 0.16404 0.33773 0.2427 0.0
C652 C 0.16584 0.34827 0.1948 0.0
C653 C 0.17645 0.36103 0.22085 0.0
C654 C 0.14304 0.31185 0.19103 0.0
C655 C 0.14091 0.30161 0.23838 0.0
C656 C 0.13066 0.28878 0.21268 0.0
C657 C 0.15304 0.39221 0.34591 0.0
C658 C 0.17525 0.35133 0.26983 0.0
C659 C 0.0692 0.18673 0.29409 0.0
C660 C 0.04284 0.19624 0.29981 0.0
C661 C 0.11516 0.31505 0.36901 0.0
C662 C 0.13566 0.31163 0.45491 0.0
C663 C 0.13672 0.29577 0.47904 0.0
C664 C 0.10848 0.28556 0.49795 0.0
C665 C 0.07938 0.29144 0.49228 0.0
C666 C 0.10627 0.3172 0.44996 0.0
C667 C 0.07833 0.30707 0.46847 0.0
C668 C 0.19762 0.29431 0.36302 0.0
C669 C 0.16519 0.32249 0.43511 0.0
H670 H 0.19447 0.38895 0.22414 0.0
H671 H 0.13422 0.30126 0.17131 0.0
H672 H 0.1307 0.28333 0.25482 0.0
H673 H 0.11282 0.26084 0.20953 0.0
H674 H 0.15914 0.29107 0.48292 0.0
H675 H 0.05748 0.28426 0.50646 0.0
H676 H 0.10474 0.3295 0.43191 0.0
H677 H 0.05583 0.31153 0.4644 0.0
Eu678 Eu 0.70448 0.83752 0.32341 0.0
C679 C 0.58084 0.79306 0.40489 0.0
C680 C 0.56861 0.84148 0.40561 0.0
C681 C 0.51937 0.78176 0.41379 0.0
C682 C 0.59285 0.82856 0.40157 0.0
C683 C 0.54416 0.76938 0.41169 0.0
C684 C 0.53163 0.81779 0.41091 0.0
C685 C 0.56027 0.72404 0.41752 0.0
N686 N 0.6057 0.78216 0.40371 0.0
C687 C 0.59644 0.74865 0.4112 0.0
C688 C 0.53387 0.73431 0.41737 0.0
Eu689 Eu 0.66588 0.82476 0.39108 0.0
N690 N 0.62887 0.85084 0.3968 0.0
C691 C 0.64287 0.88647 0.39783 0.0
C692 C 0.58258 0.87793 0.40556 0.0
C693 C 0.62 0.90051 0.40223 0.0
H694 H 0.61686 0.74067 0.41118 0.0
H695 H 0.6312 0.92877 0.40268 0.0
H696 H 0.51252 0.82719 0.41364 0.0
H697 H 0.5528 0.69723 0.42257 0.0
H698 H 0.67162 0.90437 0.39508 0.0
H699 H 0.76515 0.75281 0.32047 0.0
H700 H 0.56491 0.88889 0.40877 0.0
H701 H 0.73879 0.91886 0.29771 0.0
H702 H 0.71543 0.76657 0.32357 0.0
H703 H 0.79858 0.96868 0.28387 0.0
H704 H 0.49099 0.76392 0.41868 0.0
H705 H 0.82865 0.80074 0.31303 0.0
H706 H 0.87189 0.86488 0.30338 0.0
H707 H 0.50594 0.7153 0.42258 0.0
H708 H 0.88102 0.92381 0.2933 0.0
N709 N 0.75027 0.8217 0.31864 0.0
C710 C 0.74287 0.78764 0.32012 0.0
C711 C 0.80686 0.80689 0.31432 0.0
C712 C 0.81388 0.84145 0.31094 0.0
C713 C 0.77105 0.77976 0.31841 0.0
C714 C 0.78454 0.84802 0.31297 0.0
H715 H 0.85368 0.96264 0.28547 0.0
N716 N 0.76019 0.88553 0.3077 0.0
C717 C 0.7965 0.94425 0.29057 0.0
C718 C 0.7897 0.88105 0.30728 0.0
C719 C 0.7627 0.916 0.29832 0.0
C720 C 0.82756 0.94076 0.29158 0.0
C721 C 0.82429 0.90863 0.29947 0.0
O722 O 0.68543 0.84713 0.28571 0.0
O723 O 0.66019 0.83518 0.34877 0.0
O724 O 0.62616 0.77948 0.36524 0.0
O725 O 0.66537 0.77896 0.33305 0.0
O726 O 0.67844 0.87231 0.31947 0.0
O727 O 0.68705 0.79904 0.29131 0.0
O728 O 0.67423 0.80464 0.42858 0.0
O729 O 0.71077 0.82722 0.36611 0.0
O730 O 0.74443 0.88492 0.34669 0.0
O731 O 0.71171 0.88237 0.38499 0.0
O732 O 0.68795 0.78707 0.39375 0.0
O733 O 0.68826 0.85933 0.42534 0.0
C734 C 0.65521 0.85881 0.3386 0.0
C735 C 0.69787 0.82321 0.24811 0.0
C736 C 0.69162 0.81722 0.19996 0.0
C737 C 0.67575 0.81232 0.22535 0.0
C738 C 0.72981 0.83337 0.19776 0.0
C739 C 0.73581 0.83888 0.24537 0.0
C740 C 0.75167 0.84406 0.22033 0.0
C741 C 0.63419 0.76326 0.34657 0.0
C742 C 0.68142 0.81861 0.2746 0.0
C743 C 0.8541 0.90284 0.29893 0.0
C744 C 0.84891 0.86929 0.30467 0.0
C745 C 0.71329 0.80199 0.3761 0.0
C746 C 0.66961 0.83212 0.4674 0.0
C747 C 0.69005 0.83506 0.49015 0.0
C748 C 0.67557 0.83337 0.51565 0.0
C749 C 0.64034 0.82887 0.51796 0.0
C750 C 0.63444 0.82735 0.47015 0.0
C751 C 0.61992 0.82572 0.49533 0.0
C752 C 0.73999 0.89882 0.36856 0.0
C753 C 0.6855 0.83433 0.44103 0.0
H754 H 0.64636 0.79959 0.22747 0.0
H755 H 0.74281 0.83776 0.17851 0.0
H756 H 0.75319 0.84708 0.26256 0.0
H757 H 0.781 0.85633 0.21841 0.0
H758 H 0.71718 0.83857 0.48799 0.0
H759 H 0.6288 0.82841 0.53724 0.0
H760 H 0.61836 0.82516 0.45289 0.0
H761 H 0.59286 0.82233 0.49731 0.0
Eu762 Eu 0.20666 0.84448 0.38447 0.0
C763 C 0.12633 0.88392 0.30218 0.0
C764 C 0.0668 0.8314 0.30387 0.0
C765 C 0.07193 0.8878 0.29322 0.0
C766 C 0.10509 0.84814 0.30662 0.0
C767 C 0.11007 0.904 0.29469 0.0
C768 C 0.05033 0.85154 0.29778 0.0
C769 C 0.17036 0.95327 0.28666 0.0
N770 N 0.16308 0.89854 0.30298 0.0
C771 C 0.18506 0.93204 0.29373 0.0
C772 C 0.13267 0.93938 0.28765 0.0
Eu773 Eu 0.18679 0.86188 0.31611 0.0
N774 N 0.12192 0.82941 0.31231 0.0
C775 C 0.10192 0.79347 0.31427 0.0
C776 C 0.04627 0.79479 0.3066 0.0
C777 C 0.06397 0.77572 0.31151 0.0
H778 H 0.21413 0.94242 0.29211 0.0
H779 H 0.04837 0.74732 0.31343 0.0
H780 H 0.02096 0.83919 0.29595 0.0
H781 H 0.18807 0.98014 0.28013 0.0
H782 H 0.11465 0.77801 0.31838 0.0
H783 H 0.35438 0.93295 0.38915 0.0
H784 H 1.01685 0.78097 0.30461 0.0
H785 H 0.15943 0.76329 0.4107 0.0
H786 H 0.29005 0.91743 0.38559 0.0
H787 H 0.16992 0.71482 0.42483 0.0
H788 H 0.05893 0.90287 0.28779 0.0
H789 H 0.37028 0.8862 0.39545 0.0
H790 H 0.34922 0.82225 0.40365 0.0
H791 H 0.12124 0.95569 0.28182 0.0
H792 H 0.29871 0.76242 0.41308 0.0
N793 N 0.26935 0.86217 0.38909 0.0
C794 C 0.2964 0.89668 0.3885 0.0
C795 C 0.3419 0.87919 0.39397 0.0
C796 C 0.31396 0.84415 0.39657 0.0
C797 C 0.33302 0.90565 0.3905 0.0
C798 C 0.27745 0.83643 0.39431 0.0
H799 H 0.23175 0.72228 0.42169 0.0
N800 N 0.21453 0.79708 0.39898 0.0
C801 C 0.19235 0.73923 0.41731 0.0
C802 C 0.24911 0.80273 0.39925 0.0
C803 C 0.18652 0.76667 0.40941 0.0
C804 C 0.22729 0.74353 0.41545 0.0
C805 C 0.2564 0.77591 0.40704 0.0
O806 O 0.1768 0.83176 0.42207 0.0
O807 O 0.16853 0.85227 0.35847 0.0
O808 O 0.20348 0.91201 0.33921 0.0
O809 O 0.22733 0.90301 0.37852 0.0
O810 O 0.14439 0.8137 0.38706 0.0
O811 O 0.22812 0.88023 0.41834 0.0
O812 O 0.21577 0.88534 0.27899 0.0
O813 O 0.22669 0.85634 0.3421 0.0
O814 O 0.19053 0.79454 0.36191 0.0
O815 O 0.17868 0.80644 0.31891 0.0
O816 O 0.24784 0.89841 0.31571 0.0
O817 O 0.17733 0.82944 0.28096 0.0
C818 C 0.13803 0.83016 0.36844 0.0
C819 C 0.21237 0.85365 0.46081 0.0
C820 C 0.21437 0.86193 0.50893 0.0
C821 C 0.20567 0.86855 0.48329 0.0
C822 C 0.22926 0.83962 0.51156 0.0
C823 C 0.22849 0.83264 0.464 0.0
C824 C 0.23666 0.82551 0.48923 0.0
C825 C 0.22084 0.92293 0.36212 0.0
C826 C 0.20174 0.85954 0.43428 0.0
C827 C 0.2926 0.78285 0.40757 0.0
C828 C 0.32136 0.81693 0.40228 0.0
C829 C 0.25619 0.88176 0.33297 0.0
C830 C 0.18651 0.85716 0.23913 0.0
C831 C 0.20387 0.85235 0.21708 0.0
C832 C 0.19234 0.85373 0.19111 0.0
C833 C 0.16271 0.85946 0.18765 0.0
C834 C 0.15708 0.8629 0.23526 0.0
C835 C 0.14527 0.86401 0.20961 0.0
C836 C 0.18052 0.7855 0.33709 0.0
C837 C 0.19945 0.85584 0.26593 0.0
H838 H 0.19377 0.88529 0.48079 0.0
H839 H 0.23475 0.83259 0.53092 0.0
H840 H 0.23447 0.82142 0.4471 0.0
H841 H 0.24845 0.80868 0.4915 0.0
H842 H 0.22609 0.84712 0.22021 0.0
H843 H 0.15328 0.86077 0.16795 0.0
H844 H 0.1432 0.86638 0.25199 0.0
H845 H 0.12254 0.86848 0.20672 0.0
Eu846 Eu 0.83541 0.66221 0.65464 0.0
C847 C 0.89302 0.76742 0.75305 0.0
C848 C 0.95767 0.78752 0.75503 0.0
C849 C 0.93434 0.82343 0.77389 0.0
C850 C 0.92192 0.76216 0.7475 0.0
C851 C 0.89879 0.79791 0.76659 0.0
C852 C 0.96373 0.81827 0.76806 0.0
C853 C 0.83369 0.775 0.76568 0.0
N854 N 0.85909 0.74229 0.74572 0.0
C855 C 0.82937 0.74515 0.75247 0.0
C856 C 0.86859 0.80163 0.77265 0.0
Eu857 Eu 0.85302 0.69148 0.72446 0.0
N858 N 0.91503 0.73217 0.73481 0.0
C859 C 0.9427 0.72526 0.73021 0.0
C860 C 0.9862 0.78112 0.74938 0.0
C861 C 0.97863 0.74975 0.73704 0.0
H862 H 0.80227 0.7245 0.74731 0.0
H863 H 1.00045 0.74434 0.73283 0.0
H864 H 0.99101 0.83809 0.77392 0.0
H865 H 0.81009 0.77737 0.7706 0.0
H866 H 0.93761 0.70123 0.72076 0.0
H867 H 0.68776 0.60132 0.64308 0.0
H868 H 1.01406 0.80001 0.75471 0.0
H869 H 0.89098 0.63229 0.63488 0.0
H870 H 0.75025 0.64979 0.65129 0.0
H871 H 0.88616 0.57669 0.61916 0.0
H872 H 0.93935 0.8471 0.78419 0.0
H873 H 0.67708 0.542 0.63168 0.0
H874 H 0.70321 0.50296 0.6212 0.0
H875 H 0.87188 0.82468 0.783 0.0
H876 H 0.75713 0.49638 0.61437 0.0
N877 N 0.77475 0.61809 0.64543 0.0
C878 C 0.74605 0.62409 0.64629 0.0
C879 C 0.70462 0.5632 0.6353 0.0
C880 C 0.73442 0.55776 0.6329 0.0
C881 C 0.71054 0.59666 0.64165 0.0
C882 C 0.76968 0.58619 0.63799 0.0
H883 H 0.82541 0.52383 0.6132 0.0
N884 N 0.83359 0.61063 0.6385 0.0
C885 C 0.86173 0.57792 0.62338 0.0
C886 C 0.79998 0.58237 0.63422 0.0
C887 C 0.86438 0.60934 0.63224 0.0
C888 C 0.82737 0.54812 0.62008 0.0
C889 C 0.79595 0.55021 0.62517 0.0
O890 O 0.87047 0.68688 0.62014 0.0
O891 O 0.87318 0.7047 0.68258 0.0
O892 O 0.8412 0.72981 0.70165 0.0
O893 O 0.81107 0.69743 0.66376 0.0
O894 O 0.89727 0.68847 0.65481 0.0
O895 O 0.8153 0.67723 0.61954 0.0
O896 O 0.81945 0.66933 0.76016 0.0
O897 O 0.81422 0.65115 0.69619 0.0
O898 O 0.84013 0.62115 0.67872 0.0
O899 O 0.87683 0.6561 0.71296 0.0
O900 O 0.79167 0.66818 0.72464 0.0
O901 O 0.86706 0.66418 0.75464 0.0
C902 C 0.90375 0.71104 0.67338 0.0
C903 C 0.84241 0.67644 0.57821 0.0
C904 C 0.84839 0.68862 0.53028 0.0
C905 C 0.84956 0.69994 0.55673 0.0
C906 C 0.84133 0.65405 0.52592 0.0
C907 C 0.83418 0.64184 0.57296 0.0
C908 C 0.83397 0.63085 0.54705 0.0
C909 C 0.82112 0.72443 0.68004 0.0
C910 C 0.84547 0.68834 0.60604 0.0
C911 C 0.76082 0.52144 0.62105 0.0
C912 C 0.73012 0.52519 0.62496 0.0
C913 C 0.78428 0.64679 0.70512 0.0
C914 C 0.85022 0.66803 0.79882 0.0
C915 C 0.83336 0.64252 0.81908 0.0
C916 C 0.84256 0.65177 0.84597 0.0
C917 C 0.86789 0.68703 0.85215 0.0
C918 C 0.87615 0.7026 0.80568 0.0
C919 C 0.8847 0.71208 0.83213 0.0
C920 C 0.86308 0.62715 0.69833 0.0
C921 C 0.84053 0.65885 0.77066 0.0
H922 H 0.85561 0.72666 0.56055 0.0
H923 H 0.84142 0.64483 0.50603 0.0
H924 H 0.82843 0.62334 0.58888 0.0
H925 H 0.82818 0.60422 0.54333 0.0
H926 H 0.8135 0.61564 0.81392 0.0
H927 H 0.87452 0.69538 0.87256 0.0
H928 H 0.88973 0.72236 0.79062 0.0
H929 H 0.90438 0.73904 0.83716 0.0
Eu930 Eu 0.3698 0.17046 0.65521 0.0
C931 C 0.25074 0.12966 0.74353 0.0
C932 C 0.23745 0.17739 0.74129 0.0
C933 C 0.19084 0.11944 0.75655 0.0
C934 C 0.2618 0.1645 0.7378 0.0
C935 C 0.21537 0.1069 0.75345 0.0
C936 C 0.20184 0.1546 0.75045 0.0
C937 C 0.23194 0.06175 0.75823 0.0
N938 N 0.27505 0.11835 0.74029 0.0
C939 C 0.26676 0.08538 0.74849 0.0
C940 C 0.20598 0.07242 0.76045 0.0
Eu941 Eu 0.33343 0.15964 0.7236 0.0
N942 N 0.29618 0.18566 0.72845 0.0
C943 C 0.30845 0.22047 0.72336 0.0
C944 C 0.24956 0.21275 0.73533 0.0
C945 C 0.28528 0.23441 0.72646 0.0
H946 H 0.2869 0.07714 0.74683 0.0
H947 H 0.29496 0.26185 0.72191 0.0
H948 H 0.18269 0.16397 0.75308 0.0
H949 H 0.2252 0.03538 0.76408 0.0
H950 H 0.3358 0.23755 0.71624 0.0
H951 H 0.4308 0.086 0.65164 0.0
H952 H 0.23163 0.22361 0.7376 0.0
H953 H 0.40284 0.25023 0.62701 0.0
H954 H 0.38082 0.09942 0.65495 0.0
H955 H 0.46231 0.2998 0.6121 0.0
H956 H 0.16345 0.10228 0.76394 0.0
H957 H 0.49427 0.13419 0.64474 0.0
H958 H 0.53731 0.19836 0.63523 0.0
H959 H 0.17905 0.05412 0.7681 0.0
H960 H 0.54597 0.2569 0.62436 0.0
N961 N 0.41568 0.15477 0.65072 0.0
C962 C 0.40834 0.12069 0.65178 0.0
C963 C 0.47243 0.14024 0.64616 0.0
C964 C 0.47934 0.1748 0.643 0.0
C965 C 0.43662 0.11296 0.64992 0.0
C966 C 0.44991 0.18124 0.6451 0.0
H967 H 0.51794 0.29477 0.61501 0.0
N968 N 0.42516 0.21837 0.63906 0.0
C969 C 0.46064 0.27596 0.61983 0.0
C970 C 0.45485 0.21414 0.63904 0.0
C971 C 0.42706 0.2479 0.62818 0.0
C972 C 0.49201 0.27307 0.62162 0.0
C973 C 0.48922 0.24155 0.63066 0.0
O974 O 0.34819 0.17814 0.61808 0.0
O975 O 0.32517 0.16697 0.6809 0.0
O976 O 0.29399 0.11129 0.69999 0.0
O977 O 0.33119 0.11214 0.66535 0.0
O978 O 0.34096 0.20254 0.65033 0.0
O979 O 0.35615 0.13336 0.62237 0.0
O980 O 0.34593 0.14322 0.76128 0.0
O981 O 0.37773 0.16173 0.69799 0.0
O982 O 0.40884 0.2199 0.67682 0.0
O983 O 0.37871 0.21692 0.71658 0.0
O984 O 0.35582 0.12234 0.72647 0.0
O985 O 0.3569 0.19678 0.75635 0.0
C986 C 0.31789 0.18854 0.66955 0.0
C987 C 0.36383 0.15866 0.57961 0.0
C988 C 0.35596 0.15644 0.53152 0.0
C989 C 0.3411 0.14693 0.55729 0.0
C990 C 0.39405 0.17749 0.52861 0.0
C991 C 0.40171 0.17879 0.57615 0.0
C992 C 0.4167 0.18824 0.55078 0.0
C993 C 0.30089 0.0961 0.67984 0.0
C994 C 0.34759 0.15145 0.60631 0.0
C995 C 0.51919 0.23601 0.63036 0.0
C996 C 0.51426 0.20267 0.63655 0.0
C997 C 0.38043 0.13669 0.70825 0.0
C998 C 0.34268 0.17241 0.79957 0.0
C999 C 0.36545 0.17895 0.8216 0.0
C1000 C 0.35216 0.1774 0.84752 0.0
C1001 C 0.31554 0.1685 0.85099 0.0
C1002 C 0.30659 0.16457 0.80353 0.0
C1003 C 0.29306 0.16242 0.8291 0.0
C1004 C 0.40559 0.23369 0.69915 0.0
C1005 C 0.3568 0.17353 0.77268 0.0
H1006 H 0.31197 0.1302 0.56013 0.0
H1007 H 0.40641 0.1857 0.50917 0.0
H1008 H 0.41971 0.1874 0.59297 0.0
H1009 H 0.44597 0.20415 0.54831 0.0
H1010 H 0.39353 0.1855 0.81854 0.0
H1011 H 0.30411 0.16588 0.87066 0.0
H1012 H 0.28885 0.16004 0.78694 0.0
H1013 H 0.26499 0.15587 0.83196 0.0
Eu1014 Eu 0.86862 0.17973 0.71913 0.0
C1015 C 0.80563 0.22917 0.62733 0.0
C1016 C 0.74194 0.18378 0.62869 0.0
C1017 C 0.75908 0.24219 0.61207 0.0
C1018 C 0.77905 0.19498 0.63331 0.0
C1019 C 0.79603 0.25295 0.61609 0.0
C1020 C 0.73209 0.20772 0.61845 0.0
C1021 C 0.86026 0.29557 0.61218 0.0
N1022 N 0.84104 0.23878 0.63151 0.0
C1023 C 0.8684 0.27097 0.62319 0.0
C1024 C 0.82388 0.28665 0.60886 0.0
Eu1025 Eu 0.85303 0.19569 0.6497 0.0
N1026 N 0.7895 0.17247 0.6431 0.0
C1027 C 0.76429 0.13779 0.64722 0.0
C1028 C 0.71589 0.1487 0.63411 0.0
C1029 C 0.72717 0.12553 0.64315 0.0
H1030 H 0.89659 0.27784 0.62562 0.0
H1031 H 0.70727 0.09822 0.64707 0.0
H1032 H 0.70371 0.19964 0.61495 0.0
H1033 H 0.88202 0.32131 0.60619 0.0
H1034 H 0.77237 0.11952 0.65442 0.0
H1035 H 1.01711 0.25289 0.72886 0.0
H1036 H 0.68711 0.13912 0.63095 0.0
H1037 H 0.81086 0.10043 0.74541 0.0
H1038 H 0.95581 0.2452 0.72231 0.0
H1039 H 0.81201 0.04778 0.76205 0.0
H1040 H 0.75114 0.26018 0.60371 0.0
H1041 H 0.02409 0.20093 0.73763 0.0
H1042 H 0.99431 0.13598 0.74717 0.0
H1043 H 0.81761 0.3057 0.60023 0.0
H1044 H 0.93816 0.0798 0.75622 0.0
N1045 N 0.92836 0.18962 0.72669 0.0
C1046 C 0.95844 0.22246 0.72641 0.0
C1047 C 0.9971 0.19747 0.73481 0.0
C1048 C 0.96594 0.16417 0.73709 0.0
C1049 C 0.99327 0.22687 0.73002 0.0
C1050 C 0.93146 0.16113 0.73312 0.0
H1051 H 0.87002 0.04689 0.76253 0.0
N1052 N 0.86748 0.12855 0.7361 0.0
C1053 C 0.83688 0.07044 0.75504 0.0
C1054 C 0.9 0.12952 0.73806 0.0
C1055 C 0.83632 0.10027 0.74571 0.0
C1056 C 0.86968 0.07001 0.75523 0.0
C1057 C 0.90194 0.1001 0.74728 0.0
O1058 O 0.8356 0.17332 0.75438 0.0
O1059 O 0.83241 0.18889 0.69164 0.0
O1060 O 0.86827 0.24587 0.6722 0.0
O1061 O 0.89551 0.23912 0.71042 0.0
O1062 O 0.80668 0.1494 0.71946 0.0
O1063 O 0.89203 0.21418 0.75361 0.0
O1064 O 0.88606 0.21245 0.61345 0.0
O1065 O 0.89031 0.1889 0.67749 0.0
O1066 O 0.85544 0.13006 0.69713 0.0
O1067 O 0.83596 0.1376 0.65545 0.0
O1068 O 0.91455 0.22953 0.65016 0.0
O1069 O 0.83947 0.15991 0.61607 0.0
C1070 C 0.80135 0.16677 0.70101 0.0
C1071 C 0.86659 0.18759 0.79514 0.0
C1072 C 0.85709 0.18797 0.84306 0.0
C1073 C 0.85466 0.19899 0.81713 0.0
C1074 C 0.87104 0.16498 0.8464 0.0
C1075 C 0.88144 0.16564 0.79926 0.0
C1076 C 0.88329 0.15414 0.82468 0.0
C1077 C 0.88813 0.25851 0.69394 0.0
C1078 C 0.86247 0.19764 0.76793 0.0
C1079 C 0.93611 0.10227 0.74953 0.0
C1080 C 0.96807 0.13427 0.74439 0.0
C1081 C 0.92082 0.21298 0.66877 0.0
C1082 C 0.85603 0.18605 0.57341 0.0
C1083 C 0.87324 0.17922 0.55216 0.0
C1084 C 0.86415 0.18211 0.52571 0.0
C1085 C 0.83845 0.19296 0.52094 0.0
C1086 C 0.82977 0.1958 0.56807 0.0
C1087 C 0.82128 0.19952 0.542 0.0
C1088 C 0.84107 0.11849 0.67354 0.0
C1089 C 0.86568 0.18301 0.601 0.0
H1090 H 0.84429 0.21689 0.81405 0.0
H1091 H 0.87281 0.15559 0.86593 0.0
H1092 H 0.89163 0.15735 0.78288 0.0
H1093 H 0.89443 0.13685 0.82756 0.0
H1094 H 0.89323 0.17122 0.55621 0.0
H1095 H 0.83173 0.19654 0.50088 0.0
H1096 H 0.81579 0.20054 0.58399 0.0
H1097 H 0.80129 0.20751 0.53809 0.0
C1098 C 0.34648 0.91604 0.04889 0.0
C1099 C 0.34392 0.883 0.05277 0.0
C1100 C 0.37977 0.94609 0.04246 0.0
C1101 C 0.41178 0.94433 0.03886 0.0
H1102 H 0.32279 0.91903 0.0518 0.0
H1103 H 0.38074 0.97124 0.04103 0.0
S1104 S 0.42013 0.86434 0.04549 0.0
N1105 N 0.37671 0.85043 0.05176 0.0
N1106 N 0.43884 0.90682 0.03893 0.0
C1107 C 0.40944 0.91131 0.0413 0.0
C1108 C 0.3756 0.88065 0.04827 0.0
C1109 C 0.11538 0.43384 0.05033 0.0
C1110 C 0.14979 0.46427 0.05373 0.0
C1111 C 0.08428 0.43597 0.04371 0.0
C1112 C 0.08603 0.46856 0.03954 0.0
H1113 H 0.11217 0.40798 0.0536 0.0
H1114 H 0.05832 0.41175 0.04232 0.0
S1115 S 0.16931 0.5564 0.04527 0.0
N1116 N 0.18362 0.52834 0.05187 0.0
N1117 N 0.12521 0.53216 0.03914 0.0
C1118 C 0.12036 0.49926 0.04199 0.0
C1119 C 0.15219 0.49714 0.04894 0.0
C1120 C 0.56274 0.68395 0.03034 0.0
C1121 C 0.59053 0.70223 0.04909 0.0
C1122 C 0.55526 0.65098 0.02056 0.0
C1123 C 0.57437 0.63437 0.02976 0.0
H1124 H 0.54588 0.69464 0.02371 0.0
H1125 H 0.53352 0.63797 1.00634 0.0
S1126 S 0.65519 0.67464 0.074 0.0
N1127 N 0.64182 0.70412 0.07243 0.0
N1128 N 0.62617 0.64146 0.0555 0.0
C1129 C 0.60384 0.65347 0.04706 0.0
C1130 C 0.61217 0.68743 0.05643 0.0
C1131 C 0.89655 0.3322 1.00593 0.0
C1132 C 0.88439 0.32683 0.97945 0.0
C1133 C 0.9245 0.3652 0.01455 0.0
C1134 C 0.94153 0.39403 0.99702 0.0
H1135 H 0.8844 0.3107 0.0201 0.0
H1136 H 0.93302 0.36802 0.03504 0.0
S1137 S 0.91828 0.39468 0.92616 0.0
N1138 N 0.89054 0.35384 0.93611 0.0
N1139 N 0.94325 0.41546 0.95223 0.0
C1140 C 0.92969 0.38905 0.97052 0.0
C1141 C 0.90111 0.35559 0.96178 0.0
C1142 C 0.66113 0.51768 0.99022 0.0
C1143 C 0.69364 0.54874 0.98321 0.0
C1144 C 0.62886 0.51831 0.99636 0.0
C1145 C 0.6281 0.55011 0.99589 0.0
H1146 H 0.66016 0.4925 0.98977 0.0
H1147 H 0.6041 0.49366 1.00039 0.0
S1148 S 0.70682 0.63911 0.98276 0.0
N1149 N 0.72364 0.61249 0.97921 0.0
N1150 N 0.66328 0.61355 0.99025 0.0
C1151 C 0.66079 0.58138 0.99024 0.0
C1152 C 0.69348 0.58077 0.98414 0.0
C1153 C 0.4678 0.13378 1.00897 0.0
C1154 C 0.46984 0.14206 0.9818 0.0
C1155 C 0.47143 0.10521 0.0179 0.0
C1156 C 0.47721 0.0838 1.00005 0.0
H1157 H 0.46327 0.14945 0.02343 0.0
H1158 H 0.46962 0.09988 0.03891 0.0
S1159 S 0.48837 0.09671 0.92705 0.0
N1160 N 0.48035 0.12795 0.93728 0.0
N1161 N 0.48709 0.07458 0.95395 0.0
C1162 C 0.47956 0.09208 0.97284 0.0
C1163 C 0.47597 0.12112 0.96377 0.0
C1164 C 0.66458 0.11431 1.00148 0.0
C1165 C 0.66142 0.14486 1.00136 0.0
C1166 C 0.63328 0.08039 1.00158 0.0
C1167 C 0.59789 0.07596 1.0024 0.0
H1168 H 0.69125 0.1166 1.0025 0.0
H1169 H 0.63676 0.05751 1.00222 0.0
S1170 S 0.57509 0.14713 0.99557 0.0
N1171 N 0.62001 0.16798 0.99688 0.0
N1172 N 0.56205 0.10492 0.99799 0.0
C1173 C 0.59463 0.10622 1.00026 0.0
C1174 C 0.62615 0.14045 0.99958 0.0
C1175 C 0.88243 0.47591 1.00338 0.0
C1176 C 0.87519 0.50414 1.00243 0.0
C1177 C 0.91814 0.48157 1.0039 0.0
C1178 C 0.94856 0.51572 1.0031 0.0
H1179 H 0.86024 0.44891 1.00384 0.0
H1180 H 0.92183 0.45888 1.00485 0.0
S1181 S 0.94604 0.59893 0.99839 0.0
N1182 N 0.90264 0.56797 0.99995 0.0
N1183 N 0.9696 0.57815 0.99904 0.0
C1184 C 0.94214 0.54414 1.00056 0.0
C1185 C 0.90563 0.53852 1.00076 0.0
C1186 C 0.5017 0.36445 0.01531 0.0
C1187 C 0.51915 0.36094 0.99277 0.0
C1188 C 0.49845 0.39456 0.01892 0.0
C1189 C 0.51234 0.42199 1.00005 0.0
H1190 H 0.4922 0.34466 0.03085 0.0
H1191 H 0.4861 0.39694 0.037 0.0
S1192 S 0.55879 0.4244 0.93704 0.0
N1193 N 0.54909 0.38642 0.95084 0.0
N1194 N 0.54274 0.44287 0.95748 0.0
C1195 C 0.52808 0.41782 0.97677 0.0
C1196 C 0.53167 0.38735 0.97322 0.0
C1197 C 0.15688 0.63267 0.0698 0.0
C1198 C 0.17008 0.66248 0.05319 0.0
C1199 C 0.12306 0.6024 0.06501 0.0
C1200 C 0.10184 0.60062 0.04302 0.0
H1201 H 0.1736 0.63219 0.08587 0.0
H1202 H 0.11485 0.57938 0.07742 0.0
S1203 S 0.12179 0.67311 0.9958 0.0
N1204 N 0.15749 0.68967 0.01572 0.0
N1205 N 0.09416 0.63257 1.0065 0.0
C1206 C 0.11356 0.63103 0.02739 0.0
C1207 C 0.14767 0.66204 0.03252 0.0
C1208 C 0.37919 0.48528 0.05143 0.0
C1209 C 0.37943 0.51688 0.04544 0.0
C1210 C 0.40995 0.48146 0.04644 0.0
C1211 C 0.44255 0.50908 0.03549 0.0
H1212 H 0.35572 0.46383 0.06112 0.0
H1213 H 0.40858 0.45693 0.05203 0.0
S1214 S 0.45692 0.59666 0.01521 0.0
N1215 N 0.41408 0.57484 0.02501 0.0
N1216 N 0.47283 0.56943 0.01953 0.0
C1217 C 0.44286 0.5405 0.02909 0.0
C1218 C 0.4111 0.54381 0.03294 0.0
C1219 C 0.5389 0.87927 0.02526 0.0
C1220 C 0.57385 0.89059 0.03541 0.0
C1221 C 0.52379 0.90138 0.02567 0.0
C1222 C 0.54323 0.9359 0.0359 0.0
H1223 H 0.52387 0.85379 0.01577 0.0
H1224 H 0.49718 0.89173 0.01683 0.0
S1225 S 0.63471 0.97637 0.06718 0.0
N1226 N 0.62658 0.93701 0.05775 0.0
N1227 N 0.59831 0.97876 0.05867 0.0
C1228 C 0.57737 0.94657 0.04764 0.0
C1229 C 0.59273 0.92393 0.04721 0.0
C1230 C 0.0458 0.21804 0.38071 0.0
C1231 C 1.01394 0.21899 0.3876 0.0
C1232 C 0.07812 0.24886 0.37323 0.0
C1233 C 0.07977 0.28176 0.37225 0.0
H1234 H 0.04629 0.19362 0.38226 0.0
H1235 H 0.10236 0.24711 0.36928 0.0
S1236 S 1.00312 0.29804 0.38482 0.0
N1237 N 0.9854 0.25531 0.38995 0.0
N1238 N 0.04626 0.31303 0.37681 0.0
C1239 C 0.04782 0.2828 0.37795 0.0
C1240 C 1.0149 0.25152 0.38527 0.0
C1241 C 0.81366 0.8288 0.38485 0.0
C1242 C 0.81161 0.79662 0.39183 0.0
C1243 C 0.78205 0.83049 0.37851 0.0
C1244 C 0.74729 0.79997 0.37861 0.0
H1245 H 0.83966 0.85307 0.38539 0.0
H1246 H 0.78471 0.85596 0.37444 0.0
S1247 S 0.72758 0.70882 0.39197 0.0
N1248 N 0.77216 0.73323 0.39584 0.0
N1249 N 0.71318 0.73647 0.38418 0.0
C1250 C 0.74517 0.76758 0.38437 0.0
C1251 C 0.77717 0.76585 0.39079 0.0
C1252 C 0.22829 0.9933 0.40919 0.0
C1253 C 0.23805 0.02242 0.39247 0.0
C1254 C 0.22402 0.96168 0.39921 0.0
C1255 C 0.2293 0.95793 0.37211 0.0
H1256 H 0.22302 0.99468 0.43006 0.0
H1257 H 0.21526 0.93962 0.41273 0.0
S1258 S 0.2597 0.02783 0.32077 0.0
N1259 N 0.25573 0.04656 0.34798 0.0
N1260 N 0.24832 0.98717 0.32932 0.0
C1261 C 0.24035 0.98724 0.35537 0.0
C1262 C 0.24454 0.01946 0.36552 0.0
C1263 C 0.5417 0.68267 0.33238 0.0
C1264 C 0.55064 0.65876 0.32056 0.0
C1265 C 0.56876 0.71535 0.34227 0.0
C1266 C 0.60609 0.72654 0.33949 0.0
H1267 H 0.51369 0.67691 0.33324 0.0
H1268 H 0.56031 0.73263 0.35113 0.0
S1269 S 0.64428 0.67124 0.31646 0.0
N1270 N 0.59984 0.64617 0.31231 0.0
N1271 N 0.65042 0.70887 0.32835 0.0
C1272 C 0.61546 0.70223 0.32943 0.0
C1273 C 0.58788 0.66821 0.3205 0.0
C1274 C 0.35684 0.91784 0.31783 0.0
C1275 C 0.36077 0.88776 0.31727 0.0
C1276 C 0.32327 0.91547 0.3241 0.0
C1277 C 0.29202 0.88297 0.3302 0.0
H1278 H 0.37983 0.94345 0.31293 0.0
H1279 H 0.32159 0.93936 0.3237 0.0
S1280 S 0.28728 0.79602 0.33084 0.0
N1281 N 0.33025 0.82425 0.32334 0.0
N1282 N 0.26715 0.81979 0.3345 0.0
C1283 C 0.29557 0.85267 0.32995 0.0
C1284 C 0.32993 0.85511 0.32378 0.0
C1285 C 0.13606 0.45196 0.30076 0.0
C1286 C 0.13243 0.47487 0.31825 0.0
C1287 C 0.14192 0.42519 0.31012 0.0
C1288 C 0.14442 0.41991 0.3375 0.0
H1289 H 0.13522 0.45525 0.2795 0.0
H1290 H 0.14532 0.40904 0.29547 0.0
S1291 S 0.13387 0.47151 0.39159 0.0
N1292 N 0.12996 0.49 0.36414 0.0
N1293 N 0.14057 0.43917 0.38196 0.0
C1294 C 0.14002 0.44229 0.35525 0.0
C1295 C 0.1342 0.46987 0.3456 0.0
C1296 C 0.32839 0.45498 0.31836 0.0
C1297 C 0.32649 0.48508 0.32566 0.0
C1298 C 0.29913 0.42066 0.32328 0.0
C1299 C 0.26651 0.41484 0.33545 0.0
H1300 H 0.35195 0.4578 0.30771 0.0
H1301 H 0.30163 0.39845 0.31667 0.0
S1302 S 0.24818 0.48452 0.35979 0.0
N1303 N 0.29039 0.50628 0.3485 0.0
N1304 N 0.23449 0.44261 0.35455 0.0
C1305 C 0.26465 0.44468 0.34334 0.0
C1306 C 0.29484 0.47947 0.33935 0.0
C1307 C 0.57843 0.88129 0.33908 0.0
C1308 C 0.54762 0.84898 0.3322 0.0
C1309 C 0.61353 0.88481 0.34027 0.0
C1310 C 0.61861 0.85575 0.33597 0.0
H1311 H 0.57524 0.90349 0.34455 0.0
H1312 H 0.63657 0.91004 0.34568 0.0
S1313 S 0.54945 0.77015 0.30776 0.0
N1314 N 0.52659 0.79074 0.31408 0.0
N1315 N 0.59172 0.79697 0.31752 0.0
C1316 C 0.58874 0.82465 0.32642 0.0
C1317 C 0.55346 0.82135 0.32443 0.0
C1318 C 0.20222 0.72334 0.30064 0.0
C1319 C 0.1857 0.69296 0.31669 0.0
C1320 C 0.19761 0.75225 0.30604 0.0
C1321 C 0.17722 0.75206 0.32812 0.0
H1322 H 0.21991 0.72524 0.28439 0.0
H1323 H 0.21227 0.77579 0.29398 0.0
S1324 S 0.1238 0.67695 0.37364 0.0
N1325 N 0.14456 0.6628 0.35352 0.0
N1326 N 0.13641 0.71752 0.3639 0.0
C1327 C 0.15857 0.72104 0.3432 0.0
C1328 C 0.1627 0.69135 0.33742 0.0
C1329 C 0.83149 0.96561 0.39614 0.0
C1330 C 0.84038 0.99618 0.38128 0.0
C1331 C 0.79733 0.93486 0.39364 0.0
C1332 C 0.77096 0.93348 0.37603 0.0
H1333 H 0.85176 0.96499 0.4089 0.0
H1334 H 0.7924 0.91136 0.40432 0.0
S1335 S 0.77979 0.00652 0.33358 0.0
N1336 N 0.81921 0.02349 0.3493 0.0
N1337 N 0.75518 0.96553 0.34442 0.0
C1338 C 0.77883 0.96419 0.36192 0.0
C1339 C 0.81348 0.99563 0.36464 0.0
C1340 C 0.03821 0.8085 0.3733 0.0
C1341 C 0.041 0.84197 0.37296 0.0
C1342 C 0.06964 0.80486 0.37217 0.0
C1343 C 0.10499 0.83441 0.36964 0.0
H1344 H 1.01161 0.78494 0.37364 0.0
H1345 H 0.06615 0.77862 0.37235 0.0
S1346 S 0.12799 0.92783 0.37353 0.0
N1347 N 0.08304 0.90529 0.37479 0.0
N1348 N 0.14088 0.89811 0.37094 0.0
C1349 C 0.10817 0.86785 0.37082 0.0
C1350 C 0.07657 0.87167 0.37282 0.0
C1351 C 0.20938 0.2151 0.35353 0.0
C1352 C 0.19971 0.19876 0.37851 0.0
C1353 C 0.21226 0.24802 0.34932 0.0
C1354 C 0.20472 0.26531 0.36972 0.0
H1355 H 0.21292 0.20153 0.33686 0.0
H1356 H 0.21905 0.25936 0.32967 0.0
S1357 S 0.18277 0.23505 0.43962 0.0
N1358 N 0.18636 0.20344 0.42461 0.0
N1359 N 0.19137 0.26525 0.41669 0.0
C1360 C 0.19802 0.25046 0.39534 0.0
C1361 C 0.19534 0.21701 0.39968 0.0
C1362 C 0.71454 0.54956 0.713 0.0
C1363 C 0.68235 0.55044 0.71892 0.0
C1364 C 0.74723 0.58051 0.70628 0.0
C1365 C 0.74884 0.61336 0.70523 0.0
H1366 H 0.71506 0.5252 0.71508 0.0
H1367 H 0.7718 0.57901 0.70357 0.0
S1368 S 0.67121 0.62915 0.71421 0.0
N1369 N 0.65334 0.58639 0.71926 0.0
N1370 N 0.71484 0.64434 0.70779 0.0
C1371 C 0.71643 0.61416 0.70934 0.0
C1372 C 0.68318 0.58279 0.7158 0.0
C1373 C 0.47976 0.16077 0.71845 0.0
C1374 C 0.47672 0.12752 0.7229 0.0
C1375 C 0.44895 0.16389 0.71204 0.0
C1376 C 0.414 0.13387 0.70996 0.0
H1377 H 0.50572 0.18461 0.72124 0.0
H1378 H 0.45221 0.18994 0.70999 0.0
S1379 S 0.39203 0.04093 0.71547 0.0
N1380 N 0.43635 0.06403 0.72104 0.0
N1381 N 0.37874 0.07009 0.71048 0.0
C1382 C 0.41096 0.10066 0.71312 0.0
C1383 C 0.44221 0.09742 0.71904 0.0
C1384 C 0.89222 0.3472 0.69988 0.0
C1385 C 0.92114 0.36607 0.71769 0.0
C1386 C 0.88311 0.31331 0.69125 0.0
C1387 C 0.90142 0.29609 0.70085 0.0
H1388 H 0.87587 0.35829 0.69291 0.0
H1389 H 0.86092 0.30024 0.6774 0.0
S1390 S 0.984 0.33646 0.74322 0.0
N1391 N 0.97237 0.36712 0.74061 0.0
N1392 N 0.95313 0.30255 0.72623 0.0
C1393 C 0.93155 0.31528 0.71752 0.0
C1394 C 0.94179 0.35032 0.72554 0.0
C1395 C 0.25701 1.00253 0.65311 0.0
C1396 C 0.21948 0.99178 0.65218 0.0
C1397 C 0.28307 0.03598 0.66248 0.0
C1398 C 0.27272 0.05978 0.67219 0.0
H1399 H 0.26655 0.98511 0.64628 0.0
H1400 H 0.31161 0.04327 0.6621 0.0
S1401 S 0.17864 0.0456 0.67438 0.0
N1402 N 0.17401 0.00923 0.66109 0.0
N1403 N 0.22247 0.07017 0.68094 0.0
C1404 C 0.23537 0.04908 0.67238 0.0
C1405 C 0.20892 0.01562 0.66188 0.0
C1406 C 0.98955 0.18092 0.66097 0.0
C1407 C 0.02237 0.2127 0.65605 0.0
C1408 C 0.95679 0.18081 0.66699 0.0
C1409 C 0.95583 0.21252 0.66831 0.0
H1410 H 0.98867 0.15595 0.65849 0.0
H1411 H 0.93179 0.15579 0.66914 0.0
S1412 S 0.03511 0.30267 0.66103 0.0
N1413 N 0.0523 0.27658 0.65607 0.0
N1414 N 0.99118 0.27633 0.66686 0.0
C1415 C 0.98886 0.24431 0.66508 0.0
C1416 C 0.02199 0.24443 0.65922 0.0
C1417 C 0.83344 0.8116 0.65577 0.0
C1418 C 0.79751 0.80523 0.65336 0.0
C1419 C 0.84057 0.7853 0.66463 0.0
C1420 C 0.81228 0.75179 0.67198 0.0
H1421 H 0.85632 0.83685 0.64996 0.0
H1422 H 0.86839 0.79085 0.66456 0.0
S1423 S 0.71335 0.72088 0.66892 0.0
N1424 N 0.73303 0.76228 0.65871 0.0
N1425 N 0.74686 0.71294 0.67547 0.0
C1426 C 0.77621 0.74471 0.66941 0.0
C1427 C 0.76875 0.77145 0.6602 0.0
C1428 C 0.99935 0.78299 0.6531 0.0
C1429 C 1.00025 0.81432 0.66062 0.0
C1430 C 0.96888 0.74978 0.65896 0.0
C1431 C 0.93778 0.74647 0.67211 0.0
H1432 H 0.02139 0.7841 0.6414 0.0
H1433 H 0.96898 0.72647 0.65194 0.0
S1434 S 0.92898 0.82105 0.69862 0.0
N1435 N 0.97012 0.83989 0.68551 0.0
N1436 N 0.91141 0.77845 0.69321 0.0
C1437 C 0.93932 0.77777 0.68064 0.0
C1438 C 0.97094 0.81133 0.67583 0.0
C1439 C 0.2148 0.14897 0.67639 0.0
C1440 C 0.20646 0.17109 0.66105 0.0
C1441 C 0.25039 0.15478 0.67857 0.0
C1442 C 0.2805 0.18454 0.66779 0.0
H1443 H 0.19361 0.1263 0.68677 0.0
H1444 H 0.25432 0.13568 0.68916 0.0
S1445 S 0.27576 0.25216 0.62609 0.0
N1446 N 0.23275 0.22427 0.63376 0.0
N1447 N 0.30007 0.2371 0.64092 0.0
C1448 C 0.2733 0.20787 0.65311 0.0
C1449 C 0.23647 0.20102 0.64944 0.0
C1450 C 0.86397 0.05449 0.64148 0.0
C1451 C 0.84357 0.02351 0.65652 0.0
C1452 C 0.8606 0.08438 0.64569 0.0
C1453 C 0.83708 0.08448 0.66532 0.0
H1454 H 0.88385 0.0561 0.62714 0.0
H1455 H 0.87825 0.10826 0.63469 0.0
S1456 S 0.77458 0.00907 0.70781 0.0
N1457 N 0.79661 0.99386 0.69011 0.0
N1458 N 0.79054 0.0503 0.69811 0.0
C1459 C 0.81502 0.05319 0.67942 0.0
C1460 C 0.81812 0.02256 0.67492 0.0
C1461 C 0.48421 0.32669 0.69048 0.0
C1462 C 0.50641 0.33035 0.71232 0.0
C1463 C 0.44992 0.29628 0.68739 0.0
C1464 C 0.43668 0.26861 0.70605 0.0
H1465 H 0.49426 0.34656 0.67499 0.0
H1466 H 0.43428 0.29378 0.66976 0.0
S1467 S 0.48358 0.26643 0.7674 0.0
N1468 N 0.51217 0.30472 0.75349 0.0
N1469 N 0.44763 0.2477 0.74776 0.0
C1470 C 0.45774 0.27291 0.7287 0.0
C1471 C 0.49273 0.30372 0.73176 0.0
C1472 C 0.70494 0.14796 0.7184 0.0
C1473 C 0.70593 0.18007 0.71312 0.0
C1474 C 0.73527 0.14358 0.71305 0.0
C1475 C 0.76826 0.17118 0.70256 0.0
H1476 H 0.68121 0.12647 0.72782 0.0
H1477 H 0.73328 0.11862 0.71811 0.0
S1478 S 0.78443 0.25988 0.68384 0.0
N1479 N 0.74153 0.23842 0.69348 0.0
N1480 N 0.79962 0.232 0.68762 0.0
C1481 C 0.7693 0.20309 0.69679 0.0
C1482 C 0.7379 0.20696 0.70089 0.0
C1483 C 0.92832 0.59169 0.70542 0.0
C1484 C 0.90606 0.55576 0.69941 0.0
C1485 C 0.91378 0.61437 0.70685 0.0
C1486 C 0.87664 0.60199 0.70167 0.0
H1487 H 0.95742 0.60259 0.70798 0.0
H1488 H 0.93215 0.64212 0.71045 0.0
S1489 S 0.80659 0.50953 0.6869 0.0
N1490 N 0.8449 0.50842 0.68986 0.0
N1491 N 0.81754 0.55086 0.69216 0.0
C1492 C 0.85392 0.56577 0.69674 0.0
C1493 C 0.86864 0.5427 0.69566 0.0
C1494 C 0.49683 0.95459 0.24708 0.0
C1495 C 0.45966 0.92876 0.24818 0.0
C1496 C 0.51216 0.9753 0.22424 0.0
C1497 C 0.49105 0.97102 0.20143 0.0
H1498 H 0.51397 0.95962 0.26432 0.0
H1499 H 0.54077 0.99526 0.22461 0.0
S1500 S 0.39314 0.90443 0.19332 0.0
N1501 N 0.4028 0.89794 0.22379 0.0
N1502 N 0.43124 0.93734 0.18112 0.0
C1503 C 0.45416 0.94423 0.20193 0.0
C1504 C 0.43858 0.92311 0.22523 0.0
C1505 C 0.05773 0.53296 0.2453 0.0
C1506 C 0.07826 0.51606 0.24909 0.0
C1507 C 0.03576 0.52621 0.22281 0.0
C1508 C 0.03367 0.50246 0.20322 0.0
H1509 H 0.05853 0.55145 0.25989 0.0
H1510 H 0.02069 0.54008 0.22056 0.0
S1511 S 0.08168 0.45109 0.20376 0.0
N1512 N 0.09543 0.47484 0.23106 0.0
N1513 N 0.05306 0.46122 0.18943 0.0
C1514 C 0.05379 0.48518 0.20686 0.0
C1515 C 0.0763 0.49217 0.22963 0.0
C1516 C 0.50497 0.5395 0.24073 0.0
C1517 C 0.51184 0.57415 0.24408 0.0
C1518 C 0.5156 0.52944 0.21747 0.0
C1519 C 0.53301 0.5535 0.19652 0.0
H1520 H 0.4922 0.52031 0.25653 0.0
H1521 H 0.5105 0.50268 0.21597 0.0
S1522 S 0.55517 0.6468 0.19481 0.0
N1523 N 0.53552 0.63208 0.224 0.0
N1524 N 0.55558 0.61321 0.18036 0.0
C1525 C 0.53896 0.58791 0.19928 0.0
C1526 C 0.52842 0.59823 0.22305 0.0
C1527 C 0.96348 0.4756 0.80768 0.0
C1528 C 0.97199 0.45676 0.78917 0.0
C1529 C 0.98299 0.48767 0.83154 0.0
C1530 C 1.01197 0.48167 0.83752 0.0
H1531 H 0.94167 0.48112 0.80365 0.0
H1532 H 0.97598 0.50253 0.84508 0.0
S1533 S 0.04482 0.43338 0.79591 0.0
N1534 N 1.01154 0.43289 0.77855 0.0
N1535 N 0.04727 0.45461 0.8235 0.0
C1536 C 0.02032 0.46242 0.81937 0.0
C1537 C 1.0006 0.45023 0.79519 0.0
C1538 C 0.60418 0.5182 0.81021 0.0
C1539 C 0.58375 0.49733 0.78863 0.0
C1540 C 0.58705 0.52293 0.83248 0.0
C1541 C 0.54881 0.50714 0.83399 0.0
H1542 H 0.63368 0.53095 0.80993 0.0
H1543 H 0.60393 0.53971 0.84837 0.0
S1544 S 0.48273 0.44915 0.78324 0.0
N1545 N 0.52307 0.46062 0.77038 0.0
N1546 N 0.49099 0.46849 0.81246 0.0
C1547 C 0.52807 0.48569 0.81278 0.0
C1548 C 0.54547 0.48101 0.7901 0.0
C1549 C 0.53299 0.05193 0.79452 0.0
C1550 C 0.52246 0.07768 0.79294 0.0
C1551 C 0.5251 0.03043 0.81713 0.0
C1552 C 0.50683 0.03418 0.83919 0.0
H1553 H 0.54676 0.04786 0.77793 0.0
H1554 H 0.53331 0.01063 0.81731 0.0
S1555 S 0.47511 0.09901 0.84554 0.0
N1556 N 0.49422 0.10679 0.81586 0.0
N1557 N 0.47909 0.06623 0.85812 0.0
C1558 C 0.49693 0.06041 0.83809 0.0
C1559 C 0.50476 0.08214 0.81503 0.0
C1560 C 0.07223 0.22556 0.5581 0.0
C1561 C 0.10115 0.24114 0.57627 0.0
C1562 C 0.07575 0.23891 0.53234 0.0
C1563 C 0.10825 0.26863 0.5237 0.0
H1564 H 0.04627 0.20335 0.5641 0.0
H1565 H 0.05233 0.22649 0.51932 0.0
S1566 S 0.19279 0.31784 0.5633 0.0
N1567 N 0.16403 0.28649 0.58358 0.0
N1568 N 0.1706 0.31223 0.53515 0.0
C1569 C 0.13802 0.28348 0.54129 0.0
C1570 C 0.13446 0.26961 0.56759 0.0
C1571 C 0.75532 0.87077 0.56371 0.0
C1572 C 0.74114 0.84859 0.58606 0.0
C1573 C 0.73409 0.8654 0.54101 0.0
C1574 C 0.69775 0.83766 0.53972 0.0
H1575 H 0.78323 0.89238 0.56365 0.0
H1576 H 0.74611 0.88347 0.52447 0.0
S1577 S 0.64783 0.77154 0.59258 0.0
N1578 N 0.68846 0.79768 0.60541 0.0
N1579 N 0.64883 0.78701 0.56249 0.0
C1580 C 0.68331 0.81503 0.56181 0.0
C1581 C 0.70494 0.82056 0.58497 0.0
C1582 C 0.16446 0.88865 0.55842 0.0
C1583 C 0.18837 0.90126 0.58024 0.0
C1584 C 0.17332 0.87663 0.53537 0.0
C1585 C 0.20664 0.87697 0.53299 0.0
H1586 H 0.13858 0.88809 0.55906 0.0
H1587 H 0.15349 0.86632 0.51951 0.0
S1588 S 0.2799 0.90925 0.58369 0.0
N1589 N 0.24715 0.91366 0.59775 0.0
N1590 N 0.26476 0.89319 0.55388 0.0
C1591 C 0.23132 0.8905 0.55432 0.0
C1592 C 0.22202 0.90218 0.57799 0.0
C1593 C 0.65786 0.77544 0.13259 0.0
C1594 C 0.63125 0.78452 0.12597 0.0
C1595 C 0.67626 0.78527 0.15681 0.0
C1596 C 0.66901 0.80471 0.17555 0.0
H1597 H 0.66542 0.76146 0.11858 0.0
H1598 H 0.69681 0.77796 0.16075 0.0
S1599 S 0.60066 0.83375 0.16867 0.0
N1600 N 0.59729 0.81269 0.14076 0.0
N1601 N 0.63261 0.8319 0.18624 0.0
C1602 C 0.64182 0.81325 0.1696 0.0
C1603 C 0.62293 0.80315 0.14481 0.0
C1604 C 0.20698 0.82041 0.12506 0.0
C1605 C 0.24526 0.83799 0.12244 0.0
C1606 C 0.19015 0.82577 0.14717 0.0
C1607 C 0.21086 0.84888 0.16765 0.0
H1608 H 0.18982 0.80247 0.10979 0.0
H1609 H 0.16064 0.81136 0.14838 0.0
S1610 S 0.31181 0.90201 0.17034 0.0
N1611 N 0.30335 0.87935 0.14261 0.0
N1612 N 0.27161 0.89048 0.18345 0.0
C1613 C 0.24909 0.8669 0.1652 0.0
C1614 C 0.26628 0.86127 0.1428 0.0
C1615 C 0.20026 0.38549 0.12549 0.0
C1616 C 0.19462 0.41448 0.12421 0.0
C1617 C 0.19162 0.36468 0.14857 0.0
C1618 C 0.1776 0.37245 0.17137 0.0
H1619 H 0.21061 0.37838 0.10834 0.0
H1620 H 0.19571 0.34216 0.14852 0.0
S1621 S 0.16035 0.44717 0.17853 0.0
N1622 N 0.17591 0.45101 0.14794 0.0
N1623 N 0.15976 0.41211 0.19127 0.0
C1624 C 0.17299 0.4021 0.17052 0.0
C1625 C 0.18141 0.42301 0.14695 0.0
C1626 C 0.77054 0.58259 0.89196 0.0
C1627 C 0.79119 0.58219 0.91379 0.0
C1628 C 0.78732 0.60381 0.86952 0.0
C1629 C 0.82545 0.62553 0.86797 0.0
H1630 H 0.74105 0.56682 0.89239 0.0
H1631 H 0.77019 0.60424 0.85374 0.0
S1632 S 0.89233 0.63218 0.91855 0.0
N1633 N 0.85222 0.60466 0.93171 0.0
N1634 N 0.88358 0.64298 0.8892 0.0
C1635 C 0.84651 0.62407 0.88904 0.0
C1636 C 0.82947 0.60281 0.91197 0.0
C1637 C 0.41921 0.17276 0.89527 0.0
C1638 C 0.42008 0.19377 0.91666 0.0
C1639 C 0.39766 0.16804 0.87286 0.0
C1640 C 0.37609 0.18414 0.87095 0.0
H1641 H 0.43548 0.15995 0.89575 0.0
H1642 H 0.39743 0.15116 0.85712 0.0
S1643 S 0.36949 0.24261 0.92111 0.0
N1644 N 0.39749 0.23088 0.93443 0.0
N1645 N 0.35815 0.22316 0.89191 0.0
C1646 C 0.37717 0.20569 0.89199 0.0
C1647 C 0.39891 0.21028 0.91489 0.0
C1648 C 0.86343 0.22563 0.91189 0.0
C1649 C 0.83168 0.22822 0.91411 0.0
C1650 C 0.87121 0.21283 0.88889 0.0
C1651 C 0.84746 0.20165 0.86701 0.0
H1652 H 0.88274 0.23387 0.92809 0.0
H1653 H 0.89645 0.21216 0.88816 0.0
S1654 S 0.75995 0.20188 0.86285 0.0
N1655 N 0.77604 0.2183 0.89245 0.0
N1656 N 0.79005 0.19297 0.84937 0.0
C1657 C 0.81524 0.20353 0.86902 0.0
C1658 C 0.80739 0.21688 0.89255 0.0
C1659 C 0.32196 0.11901 0.46284 0.0
C1660 C 0.28764 0.11677 0.46128 0.0
C1661 C 0.34361 0.13184 0.48552 0.0
C1662 C 0.33228 0.14363 0.50756 0.0
H1663 H 0.33223 0.11059 0.4464 0.0
H1664 H 0.36927 0.13195 0.48586 0.0
S1665 S 0.2454 0.14495 0.51328 0.0
N1666 N 0.2432 0.1274 0.48394 0.0
N1667 N 0.28516 0.154 0.52582 0.0
C1668 C 0.29843 0.14246 0.50607 0.0
C1669 C 0.27593 0.12862 0.48311 0.0
C1670 C 0.93653 0.18459 0.47912 0.0
C1671 C 0.91589 0.16412 0.45745 0.0
C1672 C 0.91964 0.18949 0.50146 0.0
C1673 C 0.88147 0.17429 0.50293 0.0
H1674 H 0.966 0.19701 0.47881 0.0
H1675 H 0.93666 0.20603 0.51739 0.0
S1676 S 0.81492 0.11727 0.45205 0.0
N1677 N 0.8551 0.12818 0.43917 0.0
N1678 N 0.82345 0.13646 0.48135 0.0
C1679 C 0.86051 0.1531 0.48168 0.0
C1680 C 0.87766 0.14822 0.45895 0.0
C1681 C 0.89092 0.76647 0.48145 0.0
C1682 C 0.86679 0.75386 0.45974 0.0
C1683 C 0.88442 0.74588 0.50462 0.0
C1684 C 0.8537 0.71183 0.50684 0.0
H1685 H 0.91473 0.79258 0.48066 0.0
H1686 H 0.90392 0.75641 0.52067 0.0
S1687 S 0.78216 0.66661 0.45572 0.0
N1688 N 0.81132 0.70471 0.442 0.0
N1689 N 0.79846 0.66706 0.48551 0.0
C1690 C 0.82932 0.69918 0.48534 0.0
C1691 C 0.83604 0.71984 0.46184 0.0
loop_
_geom_bond_atom_site_label_1
_geom_bond_atom_site_label_2
_geom_bond_distance
_geom_bond_site_symmetry_2
_ccdc_geom_bond_type
H0 C1 0.949 . S
C1 H0 0.949 . S
C1 C2 1.395 . S
C1 C3 1.391 . S
C2 C1 1.395 . S
C2 C5 1.390 . S
C3 C1 1.391 . S
C3 C7 1.387 . S
C3 C8 1.491 . S
H4 C5 0.950 . S
C5 C2 1.390 . S
C5 H4 0.950 . S
C5 C6 1.378 . S
C6 C5 1.378 . S
C6 C7 1.409 . S
C7 C3 1.387 . S
C7 C6 1.409 . S
C7 H9 0.951 . S
C8 C3 1.491 . S
C8 C10 1.382 . S
C8 C12 1.404 . S
H9 C7 0.951 . S
C10 C8 1.382 . S
C10 C11 1.390 . S
C10 H15 0.949 . S
C11 C10 1.390 . S
C11 C16 1.399 . S
C12 C8 1.404 . S
C12 H13 0.950 . S
C12 C14 1.375 . S
H13 C12 0.950 . S
C14 C12 1.375 . S
C14 C16 1.382 . S
C14 H18 0.950 . S
H15 C10 0.949 . S
C16 C11 1.399 . S
C16 C14 1.382 . S
C16 H17 0.952 . S
H17 C16 0.952 . S
H18 C14 0.950 . S
H19 C20 0.949 . S
C20 H19 0.949 . S
C20 C21 1.395 . S
C20 C22 1.391 . S
C21 C20 1.395 . S
C21 C24 1.390 . S
C22 C20 1.391 . S
C22 C26 1.387 . S
C22 C27 1.491 . S
H23 C24 0.950 . S
C24 C21 1.390 . S
C24 H23 0.950 . S
C24 C25 1.378 . S
C25 C24 1.378 . S
C25 C26 1.409 . S
C26 C22 1.387 . S
C26 C25 1.409 . S
C26 H28 0.951 . S
C27 C22 1.491 . S
C27 C29 1.382 . S
C27 C31 1.404 . S
H28 C26 0.951 . S
C29 C27 1.382 . S
C29 C30 1.390 1_545 S
C29 H34 0.949 . S
C30 C29 1.390 1_565 S
C30 C35 1.399 . S
C31 C27 1.404 . S
C31 H32 0.950 . S
C31 C33 1.375 . S
H32 C31 0.950 . S
C33 C31 1.375 . S
C33 C35 1.382 1_545 S
C33 H37 0.950 . S
H34 C29 0.949 . S
C35 C30 1.399 . S
C35 C33 1.382 1_565 S
C35 H36 0.952 . S
H36 C35 0.952 . S
H37 C33 0.950 . S
H38 C39 0.949 . S
C39 H38 0.949 . S
C39 C40 1.395 . S
C39 C41 1.391 . S
C40 C39 1.395 . S
C40 C43 1.390 . S
C41 C39 1.391 . S
C41 C45 1.387 . S
C41 C46 1.491 . S
H42 C43 0.950 . S
C43 C40 1.390 . S
C43 H42 0.950 . S
C43 C44 1.378 . S
C44 C43 1.378 . S
C44 C45 1.409 . S
C45 C41 1.387 . S
C45 C44 1.409 . S
C45 H47 0.951 . S
C46 C41 1.491 . S
C46 C48 1.382 . S
C46 C50 1.404 . S
H47 C45 0.951 . S
C48 C46 1.382 . S
C48 C49 1.390 1_655 S
C48 H53 0.949 . S
C49 C48 1.390 1_455 S
C49 C54 1.399 . S
C50 C46 1.404 . S
C50 H51 0.950 . S
C50 C52 1.375 1_655 S
H51 C50 0.950 . S
C52 C50 1.375 1_455 S
C52 C54 1.382 . S
C52 H56 0.950 . S
H53 C48 0.949 . S
C54 C49 1.399 . S
C54 C52 1.382 . S
C54 H55 0.952 . S
H55 C54 0.952 . S
H56 C52 0.950 . S
H57 C58 0.949 . S
C58 H57 0.949 . S
C58 C59 1.395 . S
C58 C60 1.391 . S
C59 C58 1.395 . S
C59 C62 1.390 . S
C60 C58 1.391 . S
C60 C64 1.387 . S
C60 C65 1.491 . S
H61 C62 0.950 . S
C62 C59 1.390 . S
C62 H61 0.950 . S
C62 C63 1.378 . S
C63 C62 1.378 . S
C63 C64 1.409 . S
C64 C60 1.387 . S
C64 C63 1.409 . S
C64 H66 0.951 . S
C65 C60 1.491 . S
C65 C67 1.382 . S
C65 C69 1.404 . S
H66 C64 0.951 . S
C67 C65 1.382 . S
C67 C68 1.390 . S
C67 H72 0.949 . S
C68 C67 1.390 . S
C68 C73 1.399 . S
C69 C65 1.404 . S
C69 H70 0.950 . S
C69 C71 1.375 . S
H70 C69 0.950 . S
C71 C69 1.375 . S
C71 C73 1.382 . S
C71 H75 0.950 . S
H72 C67 0.949 . S
C73 C68 1.399 . S
C73 C71 1.382 . S
C73 H74 0.952 . S
H74 C73 0.952 . S
H75 C71 0.950 . S
H76 C77 0.949 . S
C77 H76 0.949 . S
C77 C78 1.395 . S
C77 C79 1.391 . S
C78 C77 1.395 . S
C78 C81 1.390 . S
C79 C77 1.391 . S
C79 C83 1.387 . S
C79 C84 1.491 . S
H80 C81 0.950 . S
C81 C78 1.390 . S
C81 H80 0.950 . S
C81 C82 1.378 . S
C82 C81 1.378 . S
C82 C83 1.409 . S
C83 C79 1.387 . S
C83 C82 1.409 . S
C83 H85 0.951 . S
C84 C79 1.491 . S
C84 C86 1.382 . S
C84 C88 1.404 . S
H85 C83 0.951 . S
C86 C84 1.382 . S
C86 C87 1.390 1_565 S
C86 H91 0.949 . S
C87 C86 1.390 1_545 S
C87 C92 1.399 . S
C88 C84 1.404 . S
C88 H89 0.950 . S
C88 C90 1.375 . S
H89 C88 0.950 . S
C90 C88 1.375 . S
C90 C92 1.382 1_565 S
C90 H94 0.950 1_565 S
H91 C86 0.949 . S
C92 C87 1.399 . S
C92 C90 1.382 1_545 S
C92 H93 0.952 . S
H93 C92 0.952 . S
H94 C90 0.950 1_545 S
H95 C96 0.949 . S
C96 H95 0.949 . S
C96 C97 1.395 . S
C96 C98 1.391 . S
C97 C96 1.395 . S
C97 C100 1.390 . S
C98 C96 1.391 . S
C98 C102 1.387 . S
C98 C103 1.491 . S
H99 C100 0.950 . S
C100 C97 1.390 . S
C100 H99 0.950 . S
C100 C101 1.378 . S
C101 C100 1.378 . S
C101 C102 1.409 . S
C102 C98 1.387 . S
C102 C101 1.409 . S
C102 H104 0.951 . S
C103 C98 1.491 . S
C103 C105 1.382 . S
C103 C107 1.404 . S
H104 C102 0.951 . S
C105 C103 1.382 . S
C105 C106 1.390 1_455 S
C105 H110 0.949 . S
C106 C105 1.390 1_655 S
C106 C111 1.399 . S
C107 C103 1.404 . S
C107 H108 0.950 . S
C107 C109 1.375 . S
H108 C107 0.950 . S
C109 C107 1.375 . S
C109 C111 1.382 1_455 S
C109 H113 0.950 1_455 S
H110 C105 0.949 . S
C111 C106 1.399 . S
C111 C109 1.382 1_655 S
C111 H112 0.952 . S
H112 C111 0.952 . S
H113 C109 0.950 1_655 S
H114 C115 0.949 . S
C115 H114 0.949 . S
C115 C116 1.395 . S
C115 C117 1.391 . S
C116 C115 1.395 . S
C116 C119 1.390 . S
C117 C115 1.391 . S
C117 C121 1.387 . S
C117 C122 1.491 . S
H118 C119 0.950 . S
C119 C116 1.390 . S
C119 H118 0.950 . S
C119 C120 1.378 . S
C120 C119 1.378 . S
C120 C121 1.409 . S
C121 C117 1.387 . S
C121 C120 1.409 . S
C121 H123 0.951 . S
C122 C117 1.491 . S
C122 C124 1.382 . S
C122 C126 1.404 . S
H123 C121 0.951 . S
C124 C122 1.382 . S
C124 C125 1.390 . S
C124 H129 0.949 . S
C125 C124 1.390 . S
C125 C130 1.399 . S
C126 C122 1.404 . S
C126 H127 0.950 . S
C126 C128 1.375 . S
H127 C126 0.950 . S
C128 C126 1.375 . S
C128 C130 1.382 . S
C128 H132 0.950 . S
H129 C124 0.949 . S
C130 C125 1.399 . S
C130 C128 1.382 . S
C130 H131 0.952 . S
H131 C130 0.952 . S
H132 C128 0.950 . S
H133 C134 0.949 . S
C134 H133 0.949 . S
C134 C135 1.395 . S
C134 C136 1.391 . S
C135 C134 1.395 . S
C135 C138 1.390 . S
C136 C134 1.391 . S
C136 C140 1.387 . S
C136 C141 1.491 . S
H137 C138 0.950 . S
C138 C135 1.390 . S
C138 H137 0.950 . S
C138 C139 1.378 . S
C139 C138 1.378 . S
C139 C140 1.409 . S
C140 C136 1.387 . S
C140 C139 1.409 . S
C140 H142 0.951 . S
C141 C136 1.491 . S
C141 C143 1.382 . S
C141 C145 1.404 . S
H142 C140 0.951 . S
C143 C141 1.382 . S
C143 C144 1.390 . S
C143 H148 0.949 . S
C144 C143 1.390 . S
C144 C149 1.399 . S
C145 C141 1.404 . S
C145 H146 0.950 . S
C145 C147 1.375 . S
H146 C145 0.950 . S
C147 C145 1.375 . S
C147 C149 1.382 . S
C147 H151 0.950 . S
H148 C143 0.949 . S
C149 C144 1.399 . S
C149 C147 1.382 . S
C149 H150 0.952 . S
H150 C149 0.952 . S
H151 C147 0.950 . S
H152 C153 0.949 . S
C153 H152 0.949 . S
C153 C154 1.395 . S
C153 C155 1.391 . S
C154 C153 1.395 . S
C154 C157 1.390 . S
C155 C153 1.391 . S
C155 C159 1.387 . S
C155 C160 1.491 . S
H156 C157 0.950 . S
C157 C154 1.390 . S
C157 H156 0.950 . S
C157 C158 1.378 . S
C158 C157 1.378 . S
C158 C159 1.409 . S
C159 C155 1.387 . S
C159 C158 1.409 . S
C159 H161 0.951 . S
C160 C155 1.491 . S
C160 C162 1.382 . S
C160 C164 1.404 . S
H161 C159 0.951 . S
C162 C160 1.382 . S
C162 C163 1.390 . S
C162 H167 0.949 . S
C163 C162 1.390 . S
C163 C168 1.399 . S
C164 C160 1.404 . S
C164 H165 0.950 . S
C164 C166 1.375 . S
H165 C164 0.950 . S
C166 C164 1.375 . S
C166 C168 1.382 . S
C166 H170 0.950 . S
H167 C162 0.949 . S
C168 C163 1.399 . S
C168 C166 1.382 . S
C168 H169 0.952 . S
H169 C168 0.952 . S
H170 C166 0.950 . S
H171 C172 0.949 . S
C172 H171 0.949 . S
C172 C173 1.395 . S
C172 C174 1.391 . S
C173 C172 1.395 . S
C173 C176 1.390 . S
C174 C172 1.391 . S
C174 C178 1.387 . S
C174 C179 1.491 . S
H175 C176 0.950 . S
C176 C173 1.390 . S
C176 H175 0.950 . S
C176 C177 1.378 . S
C177 C176 1.378 . S
C177 C178 1.409 . S
C178 C174 1.387 . S
C178 C177 1.409 . S
C178 H180 0.951 . S
C179 C174 1.491 . S
C179 C181 1.382 . S
C179 C183 1.404 . S
H180 C178 0.951 . S
C181 C179 1.382 . S
C181 C182 1.390 . S
C181 H186 0.949 . S
C182 C181 1.390 . S
C182 C187 1.399 . S
C183 C179 1.404 . S
C183 H184 0.950 . S
C183 C185 1.375 . S
H184 C183 0.950 . S
C185 C183 1.375 . S
C185 C187 1.382 . S
C185 H189 0.950 1_556 S
H186 C181 0.949 . S
C187 C182 1.399 . S
C187 C185 1.382 . S
C187 H188 0.952 1_556 S
H188 C187 0.952 1_554 S
H189 C185 0.950 1_554 S
H190 C191 0.949 . S
C191 H190 0.949 . S
C191 C192 1.395 . S
C191 C193 1.391 . S
C192 C191 1.395 . S
C192 C195 1.390 . S
C193 C191 1.391 . S
C193 C197 1.387 . S
C193 C198 1.491 . S
H194 C195 0.950 . S
C195 C192 1.390 . S
C195 H194 0.950 . S
C195 C196 1.378 . S
C196 C195 1.378 . S
C196 C197 1.409 . S
C197 C193 1.387 . S
C197 C196 1.409 . S
C197 H199 0.951 . S
C198 C193 1.491 . S
C198 C200 1.382 . S
C198 C202 1.404 . S
H199 C197 0.951 . S
C200 C198 1.382 . S
C200 C201 1.390 . S
C200 H205 0.949 . S
C201 C200 1.390 . S
C201 C206 1.399 1_556 S
C202 C198 1.404 . S
C202 H203 0.950 . S
C202 C204 1.375 1_556 S
H203 C202 0.950 . S
C204 C202 1.375 1_554 S
C204 C206 1.382 . S
C204 H208 0.950 . S
H205 C200 0.949 . S
C206 C201 1.399 1_554 S
C206 C204 1.382 . S
C206 H207 0.952 . S
H207 C206 0.952 . S
H208 C204 0.950 . S
H209 C210 0.949 . S
C210 H209 0.949 . S
C210 C211 1.395 . S
C210 C212 1.391 . S
C211 C210 1.395 . S
C211 C214 1.390 . S
C212 C210 1.391 . S
C212 C216 1.387 . S
C212 C217 1.491 . S
H213 C214 0.950 . S
C214 C211 1.390 . S
C214 H213 0.950 . S
C214 C215 1.378 . S
C215 C214 1.378 . S
C215 C216 1.409 . S
C216 C212 1.387 . S
C216 C215 1.409 . S
C216 H218 0.951 . S
C217 C212 1.491 . S
C217 C219 1.382 . S
C217 C221 1.404 . S
H218 C216 0.951 . S
C219 C217 1.382 . S
C219 C220 1.390 . S
C219 H224 0.949 . S
C220 C219 1.390 . S
C220 C225 1.401 1_556 S
C221 C217 1.404 . S
C221 H222 0.950 . S
C221 C223 1.375 1_556 S
H222 C221 0.950 . S
C223 C221 1.375 1_554 S
C223 C225 1.382 . S
C223 H227 0.950 . S
H224 C219 0.949 . S
C225 C220 1.401 1_554 S
C225 C223 1.382 . S
C225 H226 0.950 . S
H226 C225 0.950 . S
H227 C223 0.950 . S
H228 C229 0.949 . S
C229 H228 0.949 . S
C229 C230 1.395 . S
C229 C231 1.391 . S
C230 C229 1.395 . S
C230 C233 1.390 . S
C231 C229 1.391 . S
C231 C235 1.387 . S
C231 C236 1.491 . S
H232 C233 0.950 . S
C233 C230 1.390 . S
C233 H232 0.950 . S
C233 C234 1.378 . S
C234 C233 1.378 . S
C234 C235 1.409 . S
C235 C231 1.387 . S
C235 C234 1.409 . S
C235 H237 0.951 . S
C236 C231 1.491 . S
C236 C238 1.382 . S
C236 C240 1.404 . S
H237 C235 0.951 . S
C238 C236 1.382 . S
C238 C239 1.390 . S
C238 H243 0.949 . S
C239 C238 1.390 . S
C239 C244 1.399 . S
C240 C236 1.404 . S
C240 H241 0.950 . S
C240 C242 1.375 . S
H241 C240 0.950 . S
C242 C240 1.375 . S
C242 C244 1.382 . S
C242 H246 0.950 . S
H243 C238 0.949 . S
C244 C239 1.399 . S
C244 C242 1.382 . S
C244 H245 0.952 . S
H245 C244 0.952 . S
H246 C242 0.950 . S
H247 C248 0.949 . S
C248 H247 0.949 . S
C248 C249 1.395 . S
C248 C250 1.391 . S
C249 C248 1.395 . S
C249 C252 1.390 . S
C250 C248 1.391 . S
C250 C254 1.387 . S
C250 C255 1.491 . S
H251 C252 0.950 . S
C252 C249 1.390 . S
C252 H251 0.950 . S
C252 C253 1.378 . S
C253 C252 1.378 . S
C253 C254 1.409 . S
C254 C250 1.387 . S
C254 C253 1.409 . S
C254 H256 0.951 . S
C255 C250 1.491 . S
C255 C257 1.382 . S
C255 C259 1.404 . S
H256 C254 0.951 . S
C257 C255 1.382 . S
C257 C258 1.390 . S
C257 H262 0.949 . S
C258 C257 1.390 . S
C258 C263 1.399 . S
C259 C255 1.404 . S
C259 H260 0.950 . S
C259 C261 1.375 . S
H260 C259 0.950 . S
C261 C259 1.375 . S
C261 C263 1.382 . S
C261 H265 0.950 . S
H262 C257 0.949 . S
C263 C258 1.399 . S
C263 C261 1.382 . S
C263 H264 0.952 . S
H264 C263 0.952 . S
H265 C261 0.950 . S
H266 C267 0.949 . S
C267 H266 0.949 . S
C267 C268 1.395 . S
C267 C269 1.391 . S
C268 C267 1.395 . S
C268 C271 1.390 . S
C269 C267 1.391 . S
C269 C273 1.387 . S
C269 C274 1.491 . S
H270 C271 0.950 . S
C271 C268 1.390 . S
C271 H270 0.950 . S
C271 C272 1.378 . S
C272 C271 1.378 . S
C272 C273 1.409 . S
C273 C269 1.387 . S
C273 C272 1.409 . S
C273 H275 0.951 . S
C274 C269 1.491 . S
C274 C276 1.382 . S
C274 C278 1.404 . S
H275 C273 0.951 . S
C276 C274 1.382 . S
C276 C277 1.390 . S
C276 H281 0.949 . S
C277 C276 1.390 . S
C277 C282 1.399 . S
C278 C274 1.404 . S
C278 H279 0.950 . S
C278 C280 1.375 . S
H279 C278 0.950 . S
C280 C278 1.375 . S
C280 C282 1.382 . S
C280 H284 0.950 . S
H281 C276 0.949 . S
C282 C277 1.399 . S
C282 C280 1.382 . S
C282 H283 0.952 . S
H283 C282 0.952 . S
H284 C280 0.950 . S
H285 C286 0.949 . S
C286 H285 0.949 . S
C286 C287 1.395 . S
C286 C288 1.391 . S
C287 C286 1.395 . S
C287 C290 1.390 . S
C288 C286 1.391 . S
C288 C292 1.387 . S
C288 C293 1.491 . S
H289 C290 0.950 . S
C290 C287 1.390 . S
C290 H289 0.950 . S
C290 C291 1.378 . S
C291 C290 1.378 . S
C291 C292 1.409 . S
C292 C288 1.387 . S
C292 C291 1.409 . S
C292 H294 0.951 . S
C293 C288 1.491 . S
C293 C295 1.382 . S
C293 C297 1.404 . S
H294 C292 0.951 . S
C295 C293 1.382 . S
C295 C296 1.390 . S
C295 H300 0.949 . S
C296 C295 1.390 . S
C296 C301 1.399 . S
C297 C293 1.404 . S
C297 H298 0.950 . S
C297 C299 1.375 . S
H298 C297 0.950 . S
C299 C297 1.375 . S
C299 C301 1.382 . S
C299 H303 0.950 . S
H300 C295 0.949 . S
C301 C296 1.399 . S
C301 C299 1.382 . S
C301 H302 0.952 . S
H302 C301 0.952 . S
H303 C299 0.950 . S
H304 C305 0.949 . S
C305 H304 0.949 . S
C305 C306 1.395 . S
C305 C307 1.391 . S
C306 C305 1.395 . S
C306 C309 1.390 . S
C307 C305 1.391 . S
C307 C311 1.387 . S
C307 C312 1.491 . S
H308 C309 0.950 . S
C309 C306 1.390 . S
C309 H308 0.950 . S
C309 C310 1.378 . S
C310 C309 1.378 . S
C310 C311 1.409 . S
C311 C307 1.387 . S
C311 C310 1.409 . S
C311 H313 0.951 . S
C312 C307 1.491 . S
C312 C314 1.382 . S
C312 C316 1.404 . S
H313 C311 0.951 . S
C314 C312 1.382 . S
C314 C315 1.390 . S
C314 H319 0.949 . S
C315 C314 1.390 . S
C315 C320 1.399 . S
C316 C312 1.404 . S
C316 H317 0.950 . S
C316 C318 1.375 . S
H317 C316 0.950 . S
C318 C316 1.375 . S
C318 C320 1.382 . S
C318 H322 0.950 . S
H319 C314 0.949 . S
C320 C315 1.399 . S
C320 C318 1.382 . S
C320 H321 0.952 . S
H321 C320 0.952 . S
H322 C318 0.950 . S
H323 C324 0.949 . S
C324 H323 0.949 . S
C324 C325 1.395 . S
C324 C326 1.391 . S
C325 C324 1.395 . S
C325 C328 1.390 . S
C326 C324 1.391 . S
C326 C330 1.387 . S
C326 C331 1.491 . S
H327 C328 0.950 . S
C328 C325 1.390 . S
C328 H327 0.950 . S
C328 C329 1.378 . S
C329 C328 1.378 . S
C329 C330 1.409 . S
C330 C326 1.387 . S
C330 C329 1.409 . S
C330 H332 0.951 . S
C331 C326 1.491 . S
C331 C333 1.382 . S
C331 C335 1.404 . S
H332 C330 0.951 . S
C333 C331 1.382 . S
C333 C334 1.390 . S
C333 H338 0.949 . S
C334 C333 1.390 . S
C334 C339 1.399 . S
C335 C331 1.404 . S
C335 H336 0.950 . S
C335 C337 1.375 . S
H336 C335 0.950 . S
C337 C335 1.375 . S
C337 C339 1.382 . S
C337 H341 0.950 . S
H338 C333 0.949 . S
C339 C334 1.399 . S
C339 C337 1.382 . S
C339 H340 0.952 . S
H340 C339 0.952 . S
H341 C337 0.950 . S
Eu342 N373 2.657 . S
Eu342 N380 2.609 . S
Eu342 O386 2.558 . S
Eu342 O387 2.612 1_566 S
Eu342 O389 2.339 1_565 S
Eu342 O390 2.563 1_565 S
Eu342 O391 2.419 1_565 S
Eu342 O393 2.380 1_556 S
Eu342 O394 2.432 . S
Eu342 C406 2.848 1_565 S
C343 C346 1.429 . S
C343 C347 1.411 . S
C343 N350 1.377 . S
C344 C346 1.420 . S
C344 C348 1.423 . S
C344 C356 1.392 . S
C345 C347 1.420 . S
C345 C348 1.351 . S
C345 H368 0.931 . S
C346 C343 1.429 . S
C346 C344 1.420 . S
C346 N354 1.362 . S
C347 C343 1.411 . S
C347 C345 1.420 . S
C347 C352 1.395 . S
C348 C344 1.423 . S
C348 C345 1.351 . S
C348 H360 0.930 . S
C349 C351 1.400 . S
C349 C352 1.386 . S
C349 H361 0.930 . S
N350 C343 1.377 . S
N350 C351 1.321 . S
N350 Eu353 2.609 . S
C351 C349 1.400 . S
C351 N350 1.321 . S
C351 H358 0.930 . S
C352 C347 1.395 . S
C352 C349 1.386 . S
C352 H371 0.930 . S
Eu353 N350 2.609 . S
Eu353 N354 2.657 . S
Eu353 O387 2.380 . S
Eu353 O388 2.432 . S
Eu353 O392 2.558 . S
Eu353 O393 2.612 1_545 S
Eu353 O395 2.339 1_545 S
Eu353 O396 2.563 1_545 S
Eu353 O397 2.419 1_545 S
Eu353 C417 2.847 1_545 S
N354 C346 1.362 . S
N354 Eu353 2.657 . S
N354 C355 1.334 . S
C355 N354 1.334 . S
C355 C357 1.413 . S
C355 H362 0.929 . S
C356 C344 1.392 . S
C356 C357 1.367 . S
C356 H364 0.930 . S
C357 C355 1.413 . S
C357 C356 1.367 . S
C357 H359 0.930 . S
H358 C351 0.930 . S
H359 C357 0.930 . S
H360 C348 0.930 . S
H361 C349 0.930 . S
H362 C355 0.929 . S
H363 C377 0.930 . S
H364 C356 0.930 . S
H365 C383 0.930 . S
H366 C374 0.929 . S
H367 C381 0.930 . S
H368 C345 0.931 . S
H369 C375 0.930 . S
H370 C408 0.930 . S
H371 C352 0.930 . S
H372 C407 0.931 . S
N373 Eu342 2.657 . S
N373 C374 1.334 . S
N373 C378 1.362 . S
C374 H366 0.929 . S
C374 N373 1.334 . S
C374 C377 1.413 . S
C375 H369 0.930 . S
C375 C376 1.392 . S
C375 C377 1.367 . S
C376 C375 1.392 . S
C376 C378 1.420 . S
C376 C408 1.423 . S
C377 H363 0.930 . S
C377 C374 1.413 . S
C377 C375 1.367 . S
C378 N373 1.362 . S
C378 C376 1.420 . S
C378 C382 1.429 . S
H379 C384 0.930 . S
N380 Eu342 2.609 . S
N380 C382 1.377 . S
N380 C383 1.321 . S
C381 H367 0.930 . S
C381 C383 1.400 . S
C381 C384 1.386 . S
C382 C378 1.429 . S
C382 N380 1.377 . S
C382 C385 1.411 . S
C383 H365 0.930 . S
C383 N380 1.321 . S
C383 C381 1.400 . S
C384 H379 0.930 . S
C384 C381 1.386 . S
C384 C385 1.395 . S
C385 C382 1.411 . S
C385 C384 1.395 . S
C385 C407 1.420 . S
O386 Eu342 2.558 . S
O386 C406 1.257 1_565 S
O387 Eu342 2.612 1_544 S
O387 Eu353 2.380 . S
O387 C398 1.276 1_554 S
O388 Eu353 2.432 . S
O388 C405 1.264 . S
O389 Eu342 2.339 1_545 S
O389 C405 1.254 1_556 S
O390 Eu342 2.563 1_545 S
O390 C398 1.235 . S
O391 Eu342 2.419 1_545 S
O391 C406 1.249 . S
O392 Eu353 2.558 . S
O392 C417 1.250 1_545 S
O393 Eu342 2.380 1_554 S
O393 Eu353 2.612 1_565 S
O393 C409 1.276 . S
O394 Eu342 2.432 . S
O394 C416 1.264 1_556 S
O395 Eu353 2.339 1_565 S
O395 C416 1.254 . S
O396 Eu353 2.563 1_565 S
O396 C409 1.235 . S
O397 Eu353 2.419 1_565 S
O397 C417 1.254 . S
C398 O387 1.276 1_556 S
C398 O390 1.235 . S
C399 C401 1.393 . S
C399 C403 1.395 1_545 S
C399 C406 1.492 . S
C400 C401 1.392 . S
C400 C402 1.386 . S
C401 C399 1.393 . S
C401 C400 1.392 . S
C401 H418 0.930 . S
C402 C400 1.386 . S
C402 C404 1.395 . S
C402 H419 0.930 . S
C403 C399 1.395 1_565 S
C403 C404 1.379 1_565 S
C403 H420 0.930 . S
C404 C402 1.395 . S
C404 C403 1.379 1_545 S
C404 H421 0.930 1_545 S
C405 O388 1.264 . S
C405 O389 1.254 1_554 S
C406 Eu342 2.848 1_545 S
C406 O386 1.257 1_545 S
C406 O391 1.249 . S
C406 C399 1.492 . S
C407 H372 0.931 . S
C407 C385 1.420 . S
C407 C408 1.351 . S
C408 H370 0.930 . S
C408 C376 1.423 . S
C408 C407 1.351 . S
C409 O393 1.276 . S
C409 O396 1.235 . S
C410 C411 1.393 . S
C410 C414 1.395 1_565 S
C410 C417 1.493 . S
C411 C410 1.393 . S
C411 C412 1.392 . S
C411 H422 0.930 . S
C412 C411 1.392 . S
C412 C413 1.386 . S
C413 C412 1.386 . S
C413 C415 1.428 . S
C413 H423 0.930 . S
C414 C410 1.395 1_545 S
C414 C415 1.372 1_545 S
C414 H424 0.930 . S
C415 C413 1.428 . S
C415 C414 1.372 1_565 S
C415 H425 0.904 1_565 S
C416 O394 1.264 1_554 S
C416 O395 1.254 . S
C417 Eu353 2.847 1_565 S
C417 O392 1.250 1_565 S
C417 O397 1.254 . S
C417 C410 1.493 . S
H418 C401 0.930 . S
H419 C402 0.930 . S
H420 C403 0.930 . S
H421 C404 0.930 1_565 S
H422 C411 0.930 . S
H423 C413 0.930 . S
H424 C414 0.930 . S
H425 C415 0.904 1_545 S
Eu426 N457 2.657 . S
Eu426 N464 2.609 . S
Eu426 O470 2.558 . S
Eu426 O471 2.612 1_456 S
Eu426 O473 2.339 1_455 S
Eu426 O474 2.563 1_455 S
Eu426 O475 2.419 1_455 S
Eu426 O477 2.380 1_556 S
Eu426 O478 2.432 . S
Eu426 C490 2.848 . S
C427 C430 1.429 . S
C427 C431 1.411 . S
C427 N434 1.377 . S
C428 C430 1.420 . S
C428 C432 1.423 . S
C428 C440 1.392 . S
C429 C431 1.420 . S
C429 C432 1.351 . S
C429 H452 0.931 . S
C430 C427 1.429 . S
C430 C428 1.420 . S
C430 N438 1.362 . S
C431 C427 1.411 . S
C431 C429 1.420 . S
C431 C436 1.395 . S
C432 C428 1.423 . S
C432 C429 1.351 . S
C432 H444 0.930 . S
C433 C435 1.400 . S
C433 C436 1.386 . S
C433 H445 0.930 . S
N434 C427 1.377 . S
N434 C435 1.321 . S
N434 Eu437 2.609 . S
C435 C433 1.400 . S
C435 N434 1.321 . S
C435 H442 0.930 . S
C436 C431 1.395 . S
C436 C433 1.386 . S
C436 H455 0.930 . S
Eu437 N434 2.609 . S
Eu437 N438 2.657 . S
Eu437 O471 2.380 . S
Eu437 O472 2.432 . S
Eu437 O476 2.558 . S
Eu437 O477 2.612 1_655 S
Eu437 O479 2.339 1_655 S
Eu437 O480 2.563 1_655 S
Eu437 O481 2.419 1_655 S
Eu437 C501 2.848 1_655 S
N438 C430 1.362 . S
N438 Eu437 2.657 . S
N438 C439 1.334 . S
C439 N438 1.334 . S
C439 C441 1.413 . S
C439 H446 0.929 . S
C440 C428 1.392 . S
C440 C441 1.367 . S
C440 H448 0.930 . S
C441 C439 1.413 . S
C441 C440 1.367 . S
C441 H443 0.930 . S
H442 C435 0.930 . S
H443 C441 0.930 . S
H444 C432 0.930 . S
H445 C433 0.930 . S
H446 C439 0.929 . S
H447 C461 0.930 . S
H448 C440 0.930 . S
H449 C467 0.930 . S
H450 C458 0.929 . S
H451 C465 0.930 . S
H452 C429 0.931 . S
H453 C459 0.930 . S
H454 C492 0.930 . S
H455 C436 0.930 . S
H456 C491 0.931 . S
N457 Eu426 2.657 . S
N457 C458 1.334 . S
N457 C462 1.362 . S
C458 H450 0.929 . S
C458 N457 1.334 . S
C458 C461 1.413 . S
C459 H453 0.930 . S
C459 C460 1.392 . S
C459 C461 1.367 . S
C460 C459 1.392 . S
C460 C462 1.420 . S
C460 C492 1.423 . S
C461 H447 0.930 . S
C461 C458 1.413 . S
C461 C459 1.367 . S
C462 N457 1.362 . S
C462 C460 1.420 . S
C462 C466 1.429 . S
H463 C468 0.930 . S
N464 Eu426 2.609 . S
N464 C466 1.377 . S
N464 C467 1.321 . S
C465 H451 0.930 . S
C465 C467 1.400 . S
C465 C468 1.386 . S
C466 C462 1.429 . S
C466 N464 1.377 . S
C466 C469 1.411 . S
C467 H449 0.930 . S
C467 N464 1.321 . S
C467 C465 1.400 . S
C468 H463 0.930 . S
C468 C465 1.386 . S
C468 C469 1.395 . S
C469 C466 1.411 . S
C469 C468 1.395 . S
C469 C491 1.420 . S
O470 Eu426 2.558 . S
O470 C490 1.257 . S
O471 Eu426 2.612 1_654 S
O471 Eu437 2.380 . S
O471 C482 1.276 1_554 S
O472 Eu437 2.432 . S
O472 C489 1.260 1_554 S
O473 Eu426 2.339 1_655 S
O473 C489 1.257 . S
O474 Eu426 2.563 1_655 S
O474 C482 1.235 . S
O475 Eu426 2.419 1_655 S
O475 C490 1.249 1_655 S
O476 Eu437 2.558 . S
O476 C501 1.257 1_655 S
O477 Eu426 2.380 1_554 S
O477 Eu437 2.612 1_455 S
O477 C493 1.276 . S
O478 Eu426 2.432 . S
O478 C500 1.264 1_556 S
O479 Eu437 2.339 1_455 S
O479 C500 1.254 . S
O480 Eu437 2.563 1_455 S
O480 C493 1.235 . S
O481 Eu437 2.419 1_455 S
O481 C501 1.249 . S
C482 O471 1.276 1_556 S
C482 O474 1.235 . S
C483 C485 1.393 . S
C483 C487 1.395 1_655 S
C483 C490 1.492 1_655 S
C484 C485 1.392 . S
C484 C486 1.386 . S
C485 C483 1.393 . S
C485 C484 1.392 . S
C485 H502 0.930 . S
C486 C484 1.386 . S
C486 C488 1.395 1_655 S
C486 H503 0.930 . S
C487 C483 1.395 1_455 S
C487 C488 1.379 . S
C487 H504 0.930 . S
C488 C486 1.395 1_455 S
C488 C487 1.379 . S
C488 H505 0.930 . S
C489 O472 1.260 1_556 S
C489 O473 1.257 . S
C490 Eu426 2.848 . S
C490 O470 1.257 . S
C490 O475 1.249 1_455 S
C490 C483 1.492 1_455 S
C491 H456 0.931 . S
C491 C469 1.420 . S
C491 C492 1.351 . S
C492 H454 0.930 . S
C492 C460 1.423 . S
C492 C491 1.351 . S
C493 O477 1.276 . S
C493 O480 1.235 . S
C494 C495 1.393 . S
C494 C498 1.395 1_455 S
C494 C501 1.492 . S
C495 C494 1.393 . S
C495 C496 1.392 . S
C495 H506 0.930 . S
C496 C495 1.392 . S
C496 C497 1.386 . S
C497 C496 1.386 . S
C497 C499 1.395 . S
C497 H507 0.930 . S
C498 C494 1.395 1_655 S
C498 C499 1.379 1_655 S
C498 H508 0.930 . S
C499 C497 1.395 . S
C499 C498 1.379 1_455 S
C499 H509 0.930 1_455 S
C500 O478 1.264 1_554 S
C500 O479 1.254 . S
C501 Eu437 2.848 1_455 S
C501 O476 1.257 1_455 S
C501 O481 1.249 . S
C501 C494 1.492 . S
H502 C485 0.930 . S
H503 C486 0.930 . S
H504 C487 0.930 . S
H505 C488 0.930 . S
H506 C495 0.930 . S
H507 C497 0.930 . S
H508 C498 0.930 . S
H509 C499 0.930 1_655 S
Eu510 N541 2.657 . S
Eu510 N548 2.609 . S
Eu510 O554 2.558 . S
Eu510 O555 2.612 . S
Eu510 O557 2.339 . S
Eu510 O558 2.563 . S
Eu510 O559 2.419 . S
Eu510 O561 2.380 . S
Eu510 O562 2.432 . S
Eu510 C574 2.848 . S
C511 C514 1.429 . S
C511 C515 1.411 . S
C511 N518 1.377 . S
C512 C514 1.420 . S
C512 C516 1.423 . S
C512 C524 1.392 . S
C513 C515 1.420 . S
C513 C516 1.351 . S
C513 H536 0.931 . S
C514 C511 1.429 . S
C514 C512 1.420 . S
C514 N522 1.362 . S
C515 C511 1.411 . S
C515 C513 1.420 . S
C515 C520 1.395 . S
C516 C512 1.423 . S
C516 C513 1.351 . S
C516 H528 0.930 . S
C517 C519 1.400 . S
C517 C520 1.386 . S
C517 H529 0.930 . S
N518 C511 1.377 . S
N518 C519 1.321 . S
N518 Eu521 2.609 . S
C519 C517 1.400 . S
C519 N518 1.321 . S
C519 H526 0.930 . S
C520 C515 1.395 . S
C520 C517 1.386 . S
C520 H539 0.930 . S
Eu521 N518 2.609 . S
Eu521 N522 2.657 . S
Eu521 O555 2.380 1_556 S
Eu521 O556 2.432 . S
Eu521 O560 2.558 . S
Eu521 O561 2.612 1_556 S
Eu521 O563 2.339 . S
Eu521 O564 2.563 . S
Eu521 O565 2.419 . S
Eu521 C585 2.848 . S
N522 C514 1.362 . S
N522 Eu521 2.657 . S
N522 C523 1.334 . S
C523 N522 1.334 . S
C523 C525 1.413 . S
C523 H530 0.929 . S
C524 C512 1.392 . S
C524 C525 1.367 . S
C524 H532 0.930 . S
C525 C523 1.413 . S
C525 C524 1.367 . S
C525 H527 0.930 . S
H526 C519 0.930 . S
H527 C525 0.930 . S
H528 C516 0.930 . S
H529 C517 0.930 . S
H530 C523 0.929 . S
H531 C545 0.930 . S
H532 C524 0.930 . S
H533 C551 0.930 . S
H534 C542 0.929 . S
H535 C549 0.930 . S
H536 C513 0.931 . S
H537 C543 0.930 . S
H538 C576 0.930 . S
H539 C520 0.930 . S
H540 C575 0.931 . S
N541 Eu510 2.657 . S
N541 C542 1.334 . S
N541 C546 1.362 . S
C542 H534 0.929 . S
C542 N541 1.334 . S
C542 C545 1.413 . S
C543 H537 0.930 . S
C543 C544 1.392 . S
C543 C545 1.367 . S
C544 C543 1.392 . S
C544 C546 1.420 . S
C544 C576 1.423 . S
C545 H531 0.930 . S
C545 C542 1.413 . S
C545 C543 1.367 . S
C546 N541 1.362 . S
C546 C544 1.420 . S
C546 C550 1.429 . S
H547 C552 0.930 . S
N548 Eu510 2.609 . S
N548 C550 1.377 . S
N548 C551 1.321 . S
C549 H535 0.930 . S
C549 C551 1.400 . S
C549 C552 1.386 . S
C550 C546 1.429 . S
C550 N548 1.377 . S
C550 C553 1.411 . S
C551 H533 0.930 . S
C551 N548 1.321 . S
C551 C549 1.400 . S
C552 H547 0.930 . S
C552 C549 1.386 . S
C552 C553 1.395 . S
C553 C550 1.411 . S
C553 C552 1.395 . S
C553 C575 1.420 . S
O554 Eu510 2.558 . S
O554 C574 1.257 . S
O555 Eu510 2.612 . S
O555 Eu521 2.380 1_554 S
O555 C566 1.276 . S
O556 Eu521 2.432 . S
O556 C573 1.264 1_556 S
O557 Eu510 2.339 . S
O557 C573 1.254 . S
O558 Eu510 2.563 . S
O558 C566 1.235 . S
O559 Eu510 2.419 . S
O559 C574 1.249 . S
O560 Eu521 2.558 . S
O560 C585 1.257 . S
O561 Eu510 2.380 . S
O561 Eu521 2.612 1_554 S
O561 C577 1.276 1_554 S
O562 Eu510 2.432 . S
O562 C584 1.264 . S
O563 Eu521 2.339 . S
O563 C584 1.254 1_556 S
O564 Eu521 2.563 . S
O564 C577 1.235 . S
O565 Eu521 2.419 . S
O565 C585 1.249 . S
C566 O555 1.276 . S
C566 O558 1.235 . S
C567 C569 1.393 . S
C567 C571 1.395 . S
C567 C574 1.492 . S
C568 C569 1.392 . S
C568 C570 1.386 . S
C569 C567 1.393 . S
C569 C568 1.392 . S
C569 H586 0.930 . S
C570 C568 1.386 . S
C570 C572 1.395 . S
C570 H587 0.930 . S
C571 C567 1.395 . S
C571 C572 1.379 . S
C571 H588 0.930 . S
C572 C570 1.395 . S
C572 C571 1.379 . S
C572 H589 0.930 . S
C573 O556 1.264 1_554 S
C573 O557 1.254 . S
C574 Eu510 2.848 . S
C574 O554 1.257 . S
C574 O559 1.249 . S
C574 C567 1.492 . S
C575 H540 0.931 . S
C575 C553 1.420 . S
C575 C576 1.351 . S
C576 H538 0.930 . S
C576 C544 1.423 . S
C576 C575 1.351 . S
C577 O561 1.276 1_556 S
C577 O564 1.235 . S
C578 C579 1.393 . S
C578 C582 1.395 . S
C578 C585 1.492 . S
C579 C578 1.393 . S
C579 C580 1.392 . S
C579 H590 0.930 . S
C580 C579 1.392 . S
C580 C581 1.386 . S
C581 C580 1.386 . S
C581 C583 1.395 . S
C581 H591 0.930 . S
C582 C578 1.395 . S
C582 C583 1.379 . S
C582 H592 0.930 . S
C583 C581 1.395 . S
C583 C582 1.379 . S
C583 H593 0.930 . S
C584 O562 1.264 . S
C584 O563 1.254 1_554 S
C585 Eu521 2.848 . S
C585 O560 1.257 . S
C585 O565 1.249 . S
C585 C578 1.492 . S
H586 C569 0.930 . S
H587 C570 0.930 . S
H588 C571 0.930 . S
H589 C572 0.930 . S
H590 C579 0.930 . S
H591 C581 0.930 . S
H592 C582 0.930 . S
H593 C583 0.930 . S
Eu594 N625 2.657 . S
Eu594 N632 2.609 . S
Eu594 O638 2.558 . S
Eu594 O639 2.612 . S
Eu594 O641 2.339 . S
Eu594 O642 2.563 . S
Eu594 O643 2.419 . S
Eu594 O645 2.380 . S
Eu594 O646 2.432 . S
Eu594 C658 2.848 . S
C595 C598 1.429 . S
C595 C599 1.411 . S
C595 N602 1.377 . S
C596 C598 1.420 . S
C596 C600 1.423 . S
C596 C608 1.392 . S
C597 C599 1.420 . S
C597 C600 1.351 . S
C597 H620 0.931 . S
C598 C595 1.429 . S
C598 C596 1.420 . S
C598 N606 1.362 . S
C599 C595 1.411 . S
C599 C597 1.420 . S
C599 C604 1.395 . S
C600 C596 1.423 . S
C600 C597 1.351 . S
C600 H612 0.930 . S
C601 C603 1.400 . S
C601 C604 1.386 . S
C601 H613 0.930 . S
N602 C595 1.377 . S
N602 C603 1.321 . S
N602 Eu605 2.609 . S
C603 C601 1.400 . S
C603 N602 1.321 . S
C603 H610 0.930 . S
C604 C599 1.395 . S
C604 C601 1.386 . S
C604 H623 0.930 . S
Eu605 N602 2.609 . S
Eu605 N606 2.657 . S
Eu605 O639 2.380 . S
Eu605 O640 2.432 . S
Eu605 O644 2.558 . S
Eu605 O645 2.612 . S
Eu605 O647 2.339 . S
Eu605 O648 2.563 . S
Eu605 O649 2.419 . S
Eu605 C669 2.848 . S
N606 C598 1.362 . S
N606 Eu605 2.657 . S
N606 C607 1.334 . S
C607 N606 1.334 . S
C607 C609 1.413 . S
C607 H614 0.929 . S
C608 C596 1.392 . S
C608 C609 1.367 . S
C608 H616 0.930 . S
C609 C607 1.413 . S
C609 C608 1.367 . S
C609 H611 0.930 . S
H610 C603 0.930 . S
H611 C609 0.930 . S
H612 C600 0.930 . S
H613 C601 0.930 . S
H614 C607 0.929 . S
H615 C629 0.930 . S
H616 C608 0.930 . S
H617 C635 0.930 . S
H618 C626 0.929 . S
H619 C633 0.930 . S
H620 C597 0.931 . S
H621 C627 0.930 . S
H622 C660 0.930 . S
H623 C604 0.930 . S
H624 C659 0.931 . S
N625 Eu594 2.657 . S
N625 C626 1.334 . S
N625 C630 1.362 . S
C626 H618 0.929 . S
C626 N625 1.334 . S
C626 C629 1.413 1_455 S
C627 H621 0.930 . S
C627 C628 1.392 . S
C627 C629 1.367 . S
C628 C627 1.392 . S
C628 C630 1.420 1_655 S
C628 C660 1.423 . S
C629 H615 0.930 . S
C629 C626 1.413 1_655 S
C629 C627 1.367 . S
C630 N625 1.362 . S
C630 C628 1.420 1_455 S
C630 C634 1.429 . S
H631 C636 0.930 . S
N632 Eu594 2.609 . S
N632 C634 1.377 . S
N632 C635 1.321 . S
C633 H619 0.930 . S
C633 C635 1.400 . S
C633 C636 1.386 . S
C634 C630 1.429 . S
C634 N632 1.377 . S
C634 C637 1.411 . S
C635 H617 0.930 . S
C635 N632 1.321 . S
C635 C633 1.400 . S
C636 H631 0.930 . S
C636 C633 1.386 . S
C636 C637 1.395 . S
C637 C634 1.411 . S
C637 C636 1.395 . S
C637 C659 1.420 1_455 S
O638 Eu594 2.558 . S
O638 C658 1.257 . S
O639 Eu594 2.612 . S
O639 Eu605 2.380 . S
O639 C650 1.276 . S
O640 Eu605 2.432 . S
O640 C657 1.264 . S
O641 Eu594 2.339 . S
O641 C657 1.254 . S
O642 Eu594 2.563 . S
O642 C650 1.235 . S
O643 Eu594 2.419 . S
O643 C658 1.249 . S
O644 Eu605 2.558 . S
O644 C669 1.257 . S
O645 Eu594 2.380 . S
O645 Eu605 2.612 . S
O645 C661 1.276 . S
O646 Eu594 2.432 . S
O646 C668 1.264 . S
O647 Eu605 2.339 . S
O647 C668 1.254 . S
O648 Eu605 2.563 . S
O648 C661 1.235 . S
O649 Eu605 2.419 . S
O649 C669 1.249 . S
C650 O639 1.276 . S
C650 O642 1.235 . S
C651 C653 1.393 . S
C651 C655 1.395 . S
C651 C658 1.492 . S
C652 C653 1.392 . S
C652 C654 1.386 . S
C653 C651 1.393 . S
C653 C652 1.392 . S
C653 H670 0.930 . S
C654 C652 1.386 . S
C654 C656 1.395 . S
C654 H671 0.930 . S
C655 C651 1.395 . S
C655 C656 1.379 . S
C655 H672 0.930 . S
C656 C654 1.395 . S
C656 C655 1.379 . S
C656 H673 0.930 . S
C657 O640 1.264 . S
C657 O641 1.254 . S
C658 Eu594 2.848 . S
C658 O638 1.257 . S
C658 O643 1.249 . S
C658 C651 1.492 . S
C659 H624 0.931 . S
C659 C637 1.420 1_655 S
C659 C660 1.351 . S
C660 H622 0.930 . S
C660 C628 1.423 . S
C660 C659 1.351 . S
C661 O645 1.276 . S
C661 O648 1.235 . S
C662 C663 1.393 . S
C662 C666 1.395 . S
C662 C669 1.492 . S
C663 C662 1.393 . S
C663 C664 1.392 . S
C663 H674 0.930 . S
C664 C663 1.392 . S
C664 C665 1.386 . S
C665 C664 1.386 . S
C665 C667 1.395 . S
C665 H675 0.930 . S
C666 C662 1.395 . S
C666 C667 1.379 . S
C666 H676 0.930 . S
C667 C665 1.395 . S
C667 C666 1.379 . S
C667 H677 0.930 . S
C668 O646 1.264 . S
C668 O647 1.254 . S
C669 Eu605 2.848 . S
C669 O644 1.257 . S
C669 O649 1.249 . S
C669 C662 1.492 . S
H670 C653 0.930 . S
H671 C654 0.930 . S
H672 C655 0.930 . S
H673 C656 0.930 . S
H674 C663 0.930 . S
H675 C665 0.930 . S
H676 C666 0.930 . S
H677 C667 0.930 . S
Eu678 N709 2.657 . S
Eu678 N716 2.609 . S
Eu678 O722 2.558 . S
Eu678 O723 2.612 . S
Eu678 O725 2.339 . S
Eu678 O726 2.563 . S
Eu678 O727 2.419 . S
Eu678 O729 2.380 . S
Eu678 O730 2.432 . S
Eu678 C742 2.848 . S
C679 C682 1.429 . S
C679 C683 1.411 . S
C679 N686 1.377 . S
C680 C682 1.420 . S
C680 C684 1.423 . S
C680 C692 1.392 . S
C681 C683 1.420 . S
C681 C684 1.351 . S
C681 H704 0.931 . S
C682 C679 1.429 . S
C682 C680 1.420 . S
C682 N690 1.362 . S
C683 C679 1.411 . S
C683 C681 1.420 . S
C683 C688 1.395 . S
C684 C680 1.423 . S
C684 C681 1.351 . S
C684 H696 0.930 . S
C685 C687 1.400 . S
C685 C688 1.386 . S
C685 H697 0.930 . S
N686 C679 1.377 . S
N686 C687 1.321 . S
N686 Eu689 2.609 . S
C687 C685 1.400 . S
C687 N686 1.321 . S
C687 H694 0.930 . S
C688 C683 1.395 . S
C688 C685 1.386 . S
C688 H707 0.930 . S
Eu689 N686 2.609 . S
Eu689 N690 2.657 . S
Eu689 O723 2.380 . S
Eu689 O724 2.432 . S
Eu689 O728 2.558 . S
Eu689 O729 2.612 . S
Eu689 O731 2.339 . S
Eu689 O732 2.563 . S
Eu689 O733 2.419 . S
Eu689 C753 2.848 . S
N690 C682 1.362 . S
N690 Eu689 2.657 . S
N690 C691 1.334 . S
C691 N690 1.334 . S
C691 C693 1.413 . S
C691 H698 0.929 . S
C692 C680 1.392 . S
C692 C693 1.367 . S
C692 H700 0.930 . S
C693 C691 1.413 . S
C693 C692 1.367 . S
C693 H695 0.930 . S
H694 C687 0.930 . S
H695 C693 0.930 . S
H696 C684 0.930 . S
H697 C685 0.930 . S
H698 C691 0.929 . S
H699 C713 0.930 . S
H700 C692 0.930 . S
H701 C719 0.930 . S
H702 C710 0.929 . S
H703 C717 0.930 . S
H704 C681 0.931 . S
H705 C711 0.930 . S
H706 C744 0.930 . S
H707 C688 0.930 . S
H708 C743 0.931 . S
N709 Eu678 2.657 . S
N709 C710 1.334 . S
N709 C714 1.362 . S
C710 H702 0.929 . S
C710 N709 1.334 . S
C710 C713 1.413 . S
C711 H705 0.930 . S
C711 C712 1.392 . S
C711 C713 1.367 . S
C712 C711 1.392 . S
C712 C714 1.420 . S
C712 C744 1.423 . S
C713 H699 0.930 . S
C713 C710 1.413 . S
C713 C711 1.367 . S
C714 N709 1.362 . S
C714 C712 1.420 . S
C714 C718 1.429 . S
H715 C720 0.930 . S
N716 Eu678 2.609 . S
N716 C718 1.377 . S
N716 C719 1.321 . S
C717 H703 0.930 . S
C717 C719 1.400 . S
C717 C720 1.386 . S
C718 C714 1.429 . S
C718 N716 1.377 . S
C718 C721 1.411 . S
C719 H701 0.930 . S
C719 N716 1.321 . S
C719 C717 1.400 . S
C720 H715 0.930 . S
C720 C717 1.386 . S
C720 C721 1.395 . S
C721 C718 1.411 . S
C721 C720 1.395 . S
C721 C743 1.420 . S
O722 Eu678 2.558 . S
O722 C742 1.257 . S
O723 Eu678 2.612 . S
O723 Eu689 2.380 . S
O723 C734 1.276 . S
O724 Eu689 2.432 . S
O724 C741 1.264 . S
O725 Eu678 2.339 . S
O725 C741 1.254 . S
O726 Eu678 2.563 . S
O726 C734 1.235 . S
O727 Eu678 2.419 . S
O727 C742 1.249 . S
O728 Eu689 2.558 . S
O728 C753 1.257 . S
O729 Eu678 2.380 . S
O729 Eu689 2.612 . S
O729 C745 1.276 . S
O730 Eu678 2.432 . S
O730 C752 1.264 . S
O731 Eu689 2.339 . S
O731 C752 1.254 . S
O732 Eu689 2.563 . S
O732 C745 1.235 . S
O733 Eu689 2.419 . S
O733 C753 1.249 . S
C734 O723 1.276 . S
C734 O726 1.235 . S
C735 C737 1.393 . S
C735 C739 1.395 . S
C735 C742 1.492 . S
C736 C737 1.392 . S
C736 C738 1.386 . S
C737 C735 1.393 . S
C737 C736 1.392 . S
C737 H754 0.930 . S
C738 C736 1.386 . S
C738 C740 1.395 . S
C738 H755 0.930 . S
C739 C735 1.395 . S
C739 C740 1.379 . S
C739 H756 0.930 . S
C740 C738 1.395 . S
C740 C739 1.379 . S
C740 H757 0.930 . S
C741 O724 1.264 . S
C741 O725 1.254 . S
C742 Eu678 2.848 . S
C742 O722 1.257 . S
C742 O727 1.249 . S
C742 C735 1.492 . S
C743 H708 0.931 . S
C743 C721 1.420 . S
C743 C744 1.351 . S
C744 H706 0.930 . S
C744 C712 1.423 . S
C744 C743 1.351 . S
C745 O729 1.276 . S
C745 O732 1.235 . S
C746 C747 1.393 . S
C746 C750 1.395 . S
C746 C753 1.492 . S
C747 C746 1.393 . S
C747 C748 1.392 . S
C747 H758 0.930 . S
C748 C747 1.392 . S
C748 C749 1.386 . S
C749 C748 1.386 . S
C749 C751 1.395 . S
C749 H759 0.930 . S
C750 C746 1.395 . S
C750 C751 1.379 . S
C750 H760 0.930 . S
C751 C749 1.395 . S
C751 C750 1.379 . S
C751 H761 0.930 . S
C752 O730 1.264 . S
C752 O731 1.254 . S
C753 Eu689 2.848 . S
C753 O728 1.257 . S
C753 O733 1.249 . S
C753 C746 1.492 . S
H754 C737 0.930 . S
H755 C738 0.930 . S
H756 C739 0.930 . S
H757 C740 0.930 . S
H758 C747 0.930 . S
H759 C749 0.930 . S
H760 C750 0.930 . S
H761 C751 0.930 . S
Eu762 N793 2.657 . S
Eu762 N800 2.609 . S
Eu762 O806 2.558 . S
Eu762 O807 2.612 . S
Eu762 O809 2.339 . S
Eu762 O810 2.563 . S
Eu762 O811 2.419 . S
Eu762 O813 2.380 . S
Eu762 O814 2.432 . S
Eu762 C826 2.848 . S
C763 C766 1.429 . S
C763 C767 1.411 . S
C763 N770 1.377 . S
C764 C766 1.420 . S
C764 C768 1.423 . S
C764 C776 1.392 . S
C765 C767 1.420 . S
C765 C768 1.351 . S
C765 H788 0.931 . S
C766 C763 1.429 . S
C766 C764 1.420 . S
C766 N774 1.362 . S
C767 C763 1.411 . S
C767 C765 1.420 . S
C767 C772 1.395 . S
C768 C764 1.423 . S
C768 C765 1.351 . S
C768 H780 0.930 . S
C769 C771 1.400 . S
C769 C772 1.386 . S
C769 H781 0.930 . S
N770 C763 1.377 . S
N770 C771 1.321 . S
N770 Eu773 2.609 . S
C771 C769 1.400 . S
C771 N770 1.321 . S
C771 H778 0.930 . S
C772 C767 1.395 . S
C772 C769 1.386 . S
C772 H791 0.930 . S
Eu773 N770 2.609 . S
Eu773 N774 2.657 . S
Eu773 O807 2.380 . S
Eu773 O808 2.432 . S
Eu773 O812 2.558 . S
Eu773 O813 2.612 . S
Eu773 O815 2.339 . S
Eu773 O816 2.563 . S
Eu773 O817 2.419 . S
Eu773 C837 2.848 . S
N774 C766 1.362 . S
N774 Eu773 2.657 . S
N774 C775 1.334 . S
C775 N774 1.334 . S
C775 C777 1.413 . S
C775 H782 0.929 . S
C776 C764 1.392 . S
C776 C777 1.367 . S
C776 H784 0.930 . S
C777 C775 1.413 . S
C777 C776 1.367 . S
C777 H779 0.930 . S
H778 C771 0.930 . S
H779 C777 0.930 . S
H780 C768 0.930 . S
H781 C769 0.930 . S
H782 C775 0.929 . S
H783 C797 0.930 . S
H784 C776 0.930 . S
H785 C803 0.930 . S
H786 C794 0.929 . S
H787 C801 0.930 . S
H788 C765 0.931 . S
H789 C795 0.930 . S
H790 C828 0.930 . S
H791 C772 0.930 . S
H792 C827 0.931 . S
N793 Eu762 2.657 . S
N793 C794 1.334 . S
N793 C798 1.362 . S
C794 H786 0.929 . S
C794 N793 1.334 . S
C794 C797 1.413 . S
C795 H789 0.930 . S
C795 C796 1.392 . S
C795 C797 1.367 . S
C796 C795 1.392 . S
C796 C798 1.420 . S
C796 C828 1.423 . S
C797 H783 0.930 . S
C797 C794 1.413 . S
C797 C795 1.367 . S
C798 N793 1.362 . S
C798 C796 1.420 . S
C798 C802 1.429 . S
H799 C804 0.930 . S
N800 Eu762 2.609 . S
N800 C802 1.377 . S
N800 C803 1.321 . S
C801 H787 0.930 . S
C801 C803 1.400 . S
C801 C804 1.386 . S
C802 C798 1.429 . S
C802 N800 1.377 . S
C802 C805 1.411 . S
C803 H785 0.930 . S
C803 N800 1.321 . S
C803 C801 1.400 . S
C804 H799 0.930 . S
C804 C801 1.386 . S
C804 C805 1.395 . S
C805 C802 1.411 . S
C805 C804 1.395 . S
C805 C827 1.420 . S
O806 Eu762 2.558 . S
O806 C826 1.257 . S
O807 Eu762 2.612 . S
O807 Eu773 2.380 . S
O807 C818 1.276 . S
O808 Eu773 2.432 . S
O808 C825 1.264 . S
O809 Eu762 2.339 . S
O809 C825 1.254 . S
O810 Eu762 2.563 . S
O810 C818 1.235 . S
O811 Eu762 2.419 . S
O811 C826 1.249 . S
O812 Eu773 2.558 . S
O812 C837 1.257 . S
O813 Eu762 2.380 . S
O813 Eu773 2.612 . S
O813 C829 1.276 . S
O814 Eu762 2.432 . S
O814 C836 1.264 . S
O815 Eu773 2.339 . S
O815 C836 1.254 . S
O816 Eu773 2.563 . S
O816 C829 1.235 . S
O817 Eu773 2.419 . S
O817 C837 1.249 . S
C818 O807 1.276 . S
C818 O810 1.235 . S
C819 C821 1.393 . S
C819 C823 1.395 . S
C819 C826 1.492 . S
C820 C821 1.392 . S
C820 C822 1.386 . S
C821 C819 1.393 . S
C821 C820 1.392 . S
C821 H838 0.930 . S
C822 C820 1.386 . S
C822 C824 1.395 . S
C822 H839 0.930 . S
C823 C819 1.395 . S
C823 C824 1.379 . S
C823 H840 0.930 . S
C824 C822 1.395 . S
C824 C823 1.379 . S
C824 H841 0.930 . S
C825 O808 1.264 . S
C825 O809 1.254 . S
C826 Eu762 2.848 . S
C826 O806 1.257 . S
C826 O811 1.249 . S
C826 C819 1.492 . S
C827 H792 0.931 . S
C827 C805 1.420 . S
C827 C828 1.351 . S
C828 H790 0.930 . S
C828 C796 1.423 . S
C828 C827 1.351 . S
C829 O813 1.276 . S
C829 O816 1.235 . S
C830 C831 1.393 . S
C830 C834 1.395 . S
C830 C837 1.492 . S
C831 C830 1.393 . S
C831 C832 1.392 . S
C831 H842 0.930 . S
C832 C831 1.392 . S
C832 C833 1.386 . S
C833 C832 1.386 . S
C833 C835 1.395 . S
C833 H843 0.930 . S
C834 C830 1.395 . S
C834 C835 1.379 . S
C834 H844 0.930 . S
C835 C833 1.395 . S
C835 C834 1.379 . S
C835 H845 0.930 . S
C836 O814 1.264 . S
C836 O815 1.254 . S
C837 Eu773 2.848 . S
C837 O812 1.257 . S
C837 O817 1.249 . S
C837 C830 1.492 . S
H838 C821 0.930 . S
H839 C822 0.930 . S
H840 C823 0.930 . S
H841 C824 0.930 . S
H842 C831 0.930 . S
H843 C833 0.930 . S
H844 C834 0.930 . S
H845 C835 0.930 . S
Eu846 N877 2.657 . S
Eu846 N884 2.609 . S
Eu846 O890 2.558 . S
Eu846 O891 2.612 . S
Eu846 O893 2.339 . S
Eu846 O894 2.563 . S
Eu846 O895 2.419 . S
Eu846 O897 2.380 . S
Eu846 O898 2.432 . S
Eu846 C910 2.848 . S
C847 C850 1.429 . S
C847 C851 1.411 . S
C847 N854 1.377 . S
C848 C850 1.420 . S
C848 C852 1.423 . S
C848 C860 1.392 . S
C849 C851 1.420 . S
C849 C852 1.351 . S
C849 H872 0.931 . S
C850 C847 1.429 . S
C850 C848 1.420 . S
C850 N858 1.362 . S
C851 C847 1.411 . S
C851 C849 1.420 . S
C851 C856 1.395 . S
C852 C848 1.423 . S
C852 C849 1.351 . S
C852 H864 0.930 . S
C853 C855 1.400 . S
C853 C856 1.386 . S
C853 H865 0.930 . S
N854 C847 1.377 . S
N854 C855 1.321 . S
N854 Eu857 2.609 . S
C855 C853 1.400 . S
C855 N854 1.321 . S
C855 H862 0.930 . S
C856 C851 1.395 . S
C856 C853 1.386 . S
C856 H875 0.930 . S
Eu857 N854 2.609 . S
Eu857 N858 2.657 . S
Eu857 O891 2.380 . S
Eu857 O892 2.432 . S
Eu857 O896 2.558 . S
Eu857 O897 2.612 . S
Eu857 O899 2.339 . S
Eu857 O900 2.563 . S
Eu857 O901 2.419 . S
Eu857 C921 2.848 . S
N858 C850 1.362 . S
N858 Eu857 2.657 . S
N858 C859 1.334 . S
C859 N858 1.334 . S
C859 C861 1.413 . S
C859 H866 0.929 . S
C860 C848 1.392 . S
C860 C861 1.367 . S
C860 H868 0.930 . S
C861 C859 1.413 . S
C861 C860 1.367 . S
C861 H863 0.930 . S
H862 C855 0.930 . S
H863 C861 0.930 . S
H864 C852 0.930 . S
H865 C853 0.930 . S
H866 C859 0.929 . S
H867 C881 0.930 . S
H868 C860 0.930 . S
H869 C887 0.930 . S
H870 C878 0.929 . S
H871 C885 0.930 . S
H872 C849 0.931 . S
H873 C879 0.930 . S
H874 C912 0.930 . S
H875 C856 0.930 . S
H876 C911 0.931 . S
N877 Eu846 2.657 . S
N877 C878 1.334 . S
N877 C882 1.362 . S
C878 H870 0.929 . S
C878 N877 1.334 . S
C878 C881 1.413 . S
C879 H873 0.930 . S
C879 C880 1.392 . S
C879 C881 1.367 . S
C880 C879 1.392 . S
C880 C882 1.420 . S
C880 C912 1.423 . S
C881 H867 0.930 . S
C881 C878 1.413 . S
C881 C879 1.367 . S
C882 N877 1.362 . S
C882 C880 1.420 . S
C882 C886 1.429 . S
H883 C888 0.930 . S
N884 Eu846 2.609 . S
N884 C886 1.377 . S
N884 C887 1.321 . S
C885 H871 0.930 . S
C885 C887 1.400 . S
C885 C888 1.386 . S
C886 C882 1.429 . S
C886 N884 1.377 . S
C886 C889 1.411 . S
C887 H869 0.930 . S
C887 N884 1.321 . S
C887 C885 1.400 . S
C888 H883 0.930 . S
C888 C885 1.386 . S
C888 C889 1.395 . S
C889 C886 1.411 . S
C889 C888 1.395 . S
C889 C911 1.420 . S
O890 Eu846 2.558 . S
O890 C910 1.257 . S
O891 Eu846 2.612 . S
O891 Eu857 2.380 . S
O891 C902 1.276 . S
O892 Eu857 2.432 . S
O892 C909 1.264 . S
O893 Eu846 2.339 . S
O893 C909 1.254 . S
O894 Eu846 2.563 . S
O894 C902 1.235 . S
O895 Eu846 2.419 . S
O895 C910 1.249 . S
O896 Eu857 2.558 . S
O896 C921 1.257 . S
O897 Eu846 2.380 . S
O897 Eu857 2.612 . S
O897 C913 1.276 . S
O898 Eu846 2.432 . S
O898 C920 1.264 . S
O899 Eu857 2.339 . S
O899 C920 1.254 . S
O900 Eu857 2.563 . S
O900 C913 1.235 . S
O901 Eu857 2.419 . S
O901 C921 1.249 . S
C902 O891 1.276 . S
C902 O894 1.235 . S
C903 C905 1.393 . S
C903 C907 1.395 . S
C903 C910 1.492 . S
C904 C905 1.392 . S
C904 C906 1.386 . S
C905 C903 1.393 . S
C905 C904 1.392 . S
C905 H922 0.930 . S
C906 C904 1.386 . S
C906 C908 1.395 . S
C906 H923 0.930 . S
C907 C903 1.395 . S
C907 C908 1.379 . S
C907 H924 0.930 . S
C908 C906 1.395 . S
C908 C907 1.379 . S
C908 H925 0.930 . S
C909 O892 1.264 . S
C909 O893 1.254 . S
C910 Eu846 2.848 . S
C910 O890 1.257 . S
C910 O895 1.249 . S
C910 C903 1.492 . S
C911 H876 0.931 . S
C911 C889 1.420 . S
C911 C912 1.351 . S
C912 H874 0.930 . S
C912 C880 1.423 . S
C912 C911 1.351 . S
C913 O897 1.276 . S
C913 O900 1.235 . S
C914 C915 1.393 . S
C914 C918 1.395 . S
C914 C921 1.492 . S
C915 C914 1.393 . S
C915 C916 1.392 . S
C915 H926 0.930 . S
C916 C915 1.392 . S
C916 C917 1.386 . S
C917 C916 1.386 . S
C917 C919 1.395 . S
C917 H927 0.930 . S
C918 C914 1.395 . S
C918 C919 1.379 . S
C918 H928 0.930 . S
C919 C917 1.395 . S
C919 C918 1.379 . S
C919 H929 0.930 . S
C920 O898 1.264 . S
C920 O899 1.254 . S
C921 Eu857 2.848 . S
C921 O896 1.257 . S
C921 O901 1.249 . S
C921 C914 1.492 . S
H922 C905 0.930 . S
H923 C906 0.930 . S
H924 C907 0.930 . S
H925 C908 0.930 . S
H926 C915 0.930 . S
H927 C917 0.930 . S
H928 C918 0.930 . S
H929 C919 0.930 . S
Eu930 N961 2.657 . S
Eu930 N968 2.609 . S
Eu930 O974 2.558 . S
Eu930 O975 2.612 . S
Eu930 O977 2.339 . S
Eu930 O978 2.563 . S
Eu930 O979 2.419 . S
Eu930 O981 2.380 . S
Eu930 O982 2.432 . S
Eu930 C994 2.848 . S
C931 C934 1.429 . S
C931 C935 1.411 . S
C931 N938 1.377 . S
C932 C934 1.420 . S
C932 C936 1.423 . S
C932 C944 1.392 . S
C933 C935 1.420 . S
C933 C936 1.351 . S
C933 H956 0.931 . S
C934 C931 1.429 . S
C934 C932 1.420 . S
C934 N942 1.362 . S
C935 C931 1.411 . S
C935 C933 1.420 . S
C935 C940 1.395 . S
C936 C932 1.423 . S
C936 C933 1.351 . S
C936 H948 0.930 . S
C937 C939 1.400 . S
C937 C940 1.386 . S
C937 H949 0.930 . S
N938 C931 1.377 . S
N938 C939 1.321 . S
N938 Eu941 2.609 . S
C939 C937 1.400 . S
C939 N938 1.321 . S
C939 H946 0.930 . S
C940 C935 1.395 . S
C940 C937 1.386 . S
C940 H959 0.930 . S
Eu941 N938 2.609 . S
Eu941 N942 2.657 . S
Eu941 O975 2.380 . S
Eu941 O976 2.432 . S
Eu941 O980 2.558 . S
Eu941 O981 2.612 . S
Eu941 O983 2.339 . S
Eu941 O984 2.563 . S
Eu941 O985 2.419 . S
Eu941 C1005 2.848 . S
N942 C934 1.362 . S
N942 Eu941 2.657 . S
N942 C943 1.334 . S
C943 N942 1.334 . S
C943 C945 1.413 . S
C943 H950 0.929 . S
C944 C932 1.392 . S
C944 C945 1.367 . S
C944 H952 0.930 . S
C945 C943 1.413 . S
C945 C944 1.367 . S
C945 H947 0.930 . S
H946 C939 0.930 . S
H947 C945 0.930 . S
H948 C936 0.930 . S
H949 C937 0.930 . S
H950 C943 0.929 . S
H951 C965 0.930 . S
H952 C944 0.930 . S
H953 C971 0.930 . S
H954 C962 0.929 . S
H955 C969 0.930 . S
H956 C933 0.931 . S
H957 C963 0.930 . S
H958 C996 0.930 . S
H959 C940 0.930 . S
H960 C995 0.931 . S
N961 Eu930 2.657 . S
N961 C962 1.334 . S
N961 C966 1.362 . S
C962 H954 0.929 . S
C962 N961 1.334 . S
C962 C965 1.413 . S
C963 H957 0.930 . S
C963 C964 1.392 . S
C963 C965 1.367 . S
C964 C963 1.392 . S
C964 C966 1.420 . S
C964 C996 1.423 . S
C965 H951 0.930 . S
C965 C962 1.413 . S
C965 C963 1.367 . S
C966 N961 1.362 . S
C966 C964 1.420 . S
C966 C970 1.429 . S
H967 C972 0.930 . S
N968 Eu930 2.609 . S
N968 C970 1.377 . S
N968 C971 1.321 . S
C969 H955 0.930 . S
C969 C971 1.400 . S
C969 C972 1.386 . S
C970 C966 1.429 . S
C970 N968 1.377 . S
C970 C973 1.411 . S
C971 H953 0.930 . S
C971 N968 1.321 . S
C971 C969 1.400 . S
C972 H967 0.930 . S
C972 C969 1.386 . S
C972 C973 1.395 . S
C973 C970 1.411 . S
C973 C972 1.395 . S
C973 C995 1.420 . S
O974 Eu930 2.558 . S
O974 C994 1.257 . S
O975 Eu930 2.612 . S
O975 Eu941 2.380 . S
O975 C986 1.276 . S
O976 Eu941 2.432 . S
O976 C993 1.264 . S
O977 Eu930 2.339 . S
O977 C993 1.254 . S
O978 Eu930 2.563 . S
O978 C986 1.235 . S
O979 Eu930 2.419 . S
O979 C994 1.249 . S
O980 Eu941 2.558 . S
O980 C1005 1.257 . S
O981 Eu930 2.380 . S
O981 Eu941 2.612 . S
O981 C997 1.276 . S
O982 Eu930 2.432 . S
O982 C1004 1.264 . S
O983 Eu941 2.339 . S
O983 C1004 1.254 . S
O984 Eu941 2.563 . S
O984 C997 1.235 . S
O985 Eu941 2.419 . S
O985 C1005 1.249 . S
C986 O975 1.276 . S
C986 O978 1.235 . S
C987 C989 1.393 . S
C987 C991 1.395 . S
C987 C994 1.492 . S
C988 C989 1.392 . S
C988 C990 1.386 . S
C989 C987 1.393 . S
C989 C988 1.392 . S
C989 H1006 0.930 . S
C990 C988 1.386 . S
C990 C992 1.395 . S
C990 H1007 0.930 . S
C991 C987 1.395 . S
C991 C992 1.379 . S
C991 H1008 0.930 . S
C992 C990 1.395 . S
C992 C991 1.379 . S
C992 H1009 0.930 . S
C993 O976 1.264 . S
C993 O977 1.254 . S
C994 Eu930 2.848 . S
C994 O974 1.257 . S
C994 O979 1.249 . S
C994 C987 1.492 . S
C995 H960 0.931 . S
C995 C973 1.420 . S
C995 C996 1.351 . S
C996 H958 0.930 . S
C996 C964 1.423 . S
C996 C995 1.351 . S
C997 O981 1.276 . S
C997 O984 1.235 . S
C998 C999 1.393 . S
C998 C1002 1.395 . S
C998 C1005 1.492 . S
C999 C998 1.393 . S
C999 C1000 1.392 . S
C999 H1010 0.930 . S
C1000 C999 1.392 . S
C1000 C1001 1.386 . S
C1001 C1000 1.386 . S
C1001 C1003 1.395 . S
C1001 H1011 0.930 . S
C1002 C998 1.395 . S
C1002 C1003 1.379 . S
C1002 H1012 0.930 . S
C1003 C1001 1.395 . S
C1003 C1002 1.379 . S
C1003 H1013 0.930 . S
C1004 O982 1.264 . S
C1004 O983 1.254 . S
C1005 Eu941 2.848 . S
C1005 O980 1.257 . S
C1005 O985 1.249 . S
C1005 C998 1.492 . S
H1006 C989 0.930 . S
H1007 C990 0.930 . S
H1008 C991 0.930 . S
H1009 C992 0.930 . S
H1010 C999 0.930 . S
H1011 C1001 0.930 . S
H1012 C1002 0.930 . S
H1013 C1003 0.930 . S
Eu1014 N1045 2.657 . S
Eu1014 N1052 2.609 . S
Eu1014 O1058 2.558 . S
Eu1014 O1059 2.612 . S
Eu1014 O1061 2.339 . S
Eu1014 O1062 2.563 . S
Eu1014 O1063 2.419 . S
Eu1014 O1065 2.380 . S
Eu1014 O1066 2.432 . S
Eu1014 C1078 2.848 . S
C1015 C1018 1.429 . S
C1015 C1019 1.411 . S
C1015 N1022 1.377 . S
C1016 C1018 1.420 . S
C1016 C1020 1.423 . S
C1016 C1028 1.392 . S
C1017 C1019 1.420 . S
C1017 C1020 1.351 . S
C1017 H1040 0.931 . S
C1018 C1015 1.429 . S
C1018 C1016 1.420 . S
C1018 N1026 1.362 . S
C1019 C1015 1.411 . S
C1019 C1017 1.420 . S
C1019 C1024 1.395 . S
C1020 C1016 1.423 . S
C1020 C1017 1.351 . S
C1020 H1032 0.930 . S
C1021 C1023 1.400 . S
C1021 C1024 1.386 . S
C1021 H1033 0.930 . S
N1022 C1015 1.377 . S
N1022 C1023 1.321 . S
N1022 Eu1025 2.609 . S
C1023 C1021 1.400 . S
C1023 N1022 1.321 . S
C1023 H1030 0.930 . S
C1024 C1019 1.395 . S
C1024 C1021 1.386 . S
C1024 H1043 0.930 . S
Eu1025 N1022 2.609 . S
Eu1025 N1026 2.657 . S
Eu1025 O1059 2.380 . S
Eu1025 O1060 2.432 . S
Eu1025 O1064 2.558 . S
Eu1025 O1065 2.612 . S
Eu1025 O1067 2.339 . S
Eu1025 O1068 2.563 . S
Eu1025 O1069 2.419 . S
Eu1025 C1089 2.848 . S
N1026 C1018 1.362 . S
N1026 Eu1025 2.657 . S
N1026 C1027 1.334 . S
C1027 N1026 1.334 . S
C1027 C1029 1.413 . S
C1027 H1034 0.929 . S
C1028 C1016 1.392 . S
C1028 C1029 1.367 . S
C1028 H1036 0.930 . S
C1029 C1027 1.413 . S
C1029 C1028 1.367 . S
C1029 H1031 0.930 . S
H1030 C1023 0.930 . S
H1031 C1029 0.930 . S
H1032 C1020 0.930 . S
H1033 C1021 0.930 . S
H1034 C1027 0.929 . S
H1035 C1049 0.930 . S
H1036 C1028 0.930 . S
H1037 C1055 0.930 . S
H1038 C1046 0.929 . S
H1039 C1053 0.930 . S
H1040 C1017 0.931 . S
H1041 C1047 0.930 . S
H1042 C1080 0.930 . S
H1043 C1024 0.930 . S
H1044 C1079 0.931 . S
N1045 Eu1014 2.657 . S
N1045 C1046 1.334 . S
N1045 C1050 1.362 . S
C1046 H1038 0.929 . S
C1046 N1045 1.334 . S
C1046 C1049 1.413 1_655 S
C1047 H1041 0.930 . S
C1047 C1048 1.392 . S
C1047 C1049 1.367 . S
C1048 C1047 1.392 . S
C1048 C1050 1.420 1_455 S
C1048 C1080 1.423 . S
C1049 H1035 0.930 . S
C1049 C1046 1.413 1_455 S
C1049 C1047 1.367 . S
C1050 N1045 1.362 . S
C1050 C1048 1.420 1_655 S
C1050 C1054 1.429 . S
H1051 C1056 0.930 . S
N1052 Eu1014 2.609 . S
N1052 C1054 1.377 . S
N1052 C1055 1.321 . S
C1053 H1039 0.930 . S
C1053 C1055 1.400 . S
C1053 C1056 1.386 . S
C1054 C1050 1.429 . S
C1054 N1052 1.377 . S
C1054 C1057 1.411 . S
C1055 H1037 0.930 . S
C1055 N1052 1.321 . S
C1055 C1053 1.400 . S
C1056 H1051 0.930 . S
C1056 C1053 1.386 . S
C1056 C1057 1.395 . S
C1057 C1054 1.411 . S
C1057 C1056 1.395 . S
C1057 C1079 1.420 1_655 S
O1058 Eu1014 2.558 . S
O1058 C1078 1.257 . S
O1059 Eu1014 2.612 . S
O1059 Eu1025 2.380 . S
O1059 C1070 1.276 . S
O1060 Eu1025 2.432 . S
O1060 C1077 1.264 . S
O1061 Eu1014 2.339 . S
O1061 C1077 1.254 . S
O1062 Eu1014 2.563 . S
O1062 C1070 1.235 . S
O1063 Eu1014 2.419 . S
O1063 C1078 1.249 . S
O1064 Eu1025 2.558 . S
O1064 C1089 1.257 . S
O1065 Eu1014 2.380 . S
O1065 Eu1025 2.612 . S
O1065 C1081 1.276 . S
O1066 Eu1014 2.432 . S
O1066 C1088 1.264 . S
O1067 Eu1025 2.339 . S
O1067 C1088 1.254 . S
O1068 Eu1025 2.563 . S
O1068 C1081 1.235 . S
O1069 Eu1025 2.419 . S
O1069 C1089 1.249 . S
C1070 O1059 1.276 . S
C1070 O1062 1.235 . S
C1071 C1073 1.393 . S
C1071 C1075 1.395 . S
C1071 C1078 1.492 . S
C1072 C1073 1.392 . S
C1072 C1074 1.386 . S
C1073 C1071 1.393 . S
C1073 C1072 1.392 . S
C1073 H1090 0.930 . S
C1074 C1072 1.386 . S
C1074 C1076 1.395 . S
C1074 H1091 0.930 . S
C1075 C1071 1.395 . S
C1075 C1076 1.379 . S
C1075 H1092 0.930 . S
C1076 C1074 1.395 . S
C1076 C1075 1.379 . S
C1076 H1093 0.930 . S
C1077 O1060 1.264 . S
C1077 O1061 1.254 . S
C1078 Eu1014 2.848 . S
C1078 O1058 1.257 . S
C1078 O1063 1.249 . S
C1078 C1071 1.492 . S
C1079 H1044 0.931 . S
C1079 C1057 1.420 1_455 S
C1079 C1080 1.351 . S
C1080 H1042 0.930 . S
C1080 C1048 1.423 . S
C1080 C1079 1.351 . S
C1081 O1065 1.276 . S
C1081 O1068 1.235 . S
C1082 C1083 1.393 . S
C1082 C1086 1.395 . S
C1082 C1089 1.492 . S
C1083 C1082 1.393 . S
C1083 C1084 1.392 . S
C1083 H1094 0.930 . S
C1084 C1083 1.392 . S
C1084 C1085 1.386 . S
C1085 C1084 1.386 . S
C1085 C1087 1.395 . S
C1085 H1095 0.930 . S
C1086 C1082 1.395 . S
C1086 C1087 1.379 . S
C1086 H1096 0.930 . S
C1087 C1085 1.395 . S
C1087 C1086 1.379 . S
C1087 H1097 0.930 . S
C1088 O1066 1.264 . S
C1088 O1067 1.254 . S
C1089 Eu1025 2.848 . S
C1089 O1064 1.257 . S
C1089 O1069 1.249 . S
C1089 C1082 1.492 . S
H1090 C1073 0.930 . S
H1091 C1074 0.930 . S
H1092 C1075 0.930 . S
H1093 C1076 0.930 . S
H1094 C1083 0.930 . S
H1095 C1085 0.930 . S
H1096 C1086 0.930 . S
H1097 C1087 0.930 . S
C1098 C1099 1.369 . S
C1098 C1100 1.419 . S
C1098 H1102 0.930 . S
C1099 C1098 1.369 . S
C1099 C1108 1.429 . S
C1100 C1098 1.419 . S
C1100 C1101 1.363 . S
C1100 H1103 0.929 . S
C1101 C1100 1.363 . S
C1101 C1107 1.428 . S
H1102 C1098 0.930 . S
H1103 C1100 0.929 . S
S1104 N1105 1.613 . S
S1104 N1106 1.610 . S
N1105 S1104 1.613 . S
N1105 C1108 1.350 . S
N1106 S1104 1.610 . S
N1106 C1107 1.351 . S
C1107 C1101 1.428 . S
C1107 N1106 1.351 . S
C1107 C1108 1.434 . S
C1108 C1099 1.429 . S
C1108 N1105 1.350 . S
C1108 C1107 1.434 . S
C1109 C1110 1.369 . S
C1109 C1111 1.419 . S
C1109 H1113 0.930 . S
C1110 C1109 1.369 . S
C1110 C1119 1.429 . S
C1111 C1109 1.419 . S
C1111 C1112 1.363 . S
C1111 H1114 0.929 . S
C1112 C1111 1.363 . S
C1112 C1118 1.428 . S
H1113 C1109 0.930 . S
H1114 C1111 0.929 . S
S1115 N1116 1.613 . S
S1115 N1117 1.610 . S
N1116 S1115 1.613 . S
N1116 C1119 1.350 . S
N1117 S1115 1.610 . S
N1117 C1118 1.351 . S
C1118 C1112 1.428 . S
C1118 N1117 1.351 . S
C1118 C1119 1.434 . S
C1119 C1110 1.429 . S
C1119 N1116 1.350 . S
C1119 C1118 1.434 . S
C1120 C1121 1.369 . S
C1120 C1122 1.419 . S
C1120 H1124 0.930 . S
C1121 C1120 1.369 . S
C1121 C1130 1.429 . S
C1122 C1120 1.419 . S
C1122 C1123 1.363 . S
C1122 H1125 0.929 1_554 S
C1123 C1122 1.363 . S
C1123 C1129 1.428 . S
H1124 C1120 0.930 . S
H1125 C1122 0.929 1_556 S
S1126 N1127 1.613 . S
S1126 N1128 1.610 . S
N1127 S1126 1.613 . S
N1127 C1130 1.350 . S
N1128 S1126 1.610 . S
N1128 C1129 1.351 . S
C1129 C1123 1.428 . S
C1129 N1128 1.351 . S
C1129 C1130 1.434 . S
C1130 C1121 1.429 . S
C1130 N1127 1.350 . S
C1130 C1129 1.434 . S
C1131 C1132 1.403 . S
C1131 C1133 1.409 1_556 S
C1131 H1135 0.905 1_556 S
C1132 C1131 1.403 . S
C1132 C1141 1.429 . S
C1133 C1131 1.409 1_554 S
C1133 C1134 1.363 1_554 S
C1133 H1136 0.929 . S
C1134 C1133 1.363 1_556 S
C1134 C1140 1.428 . S
H1135 C1131 0.905 1_554 S
H1136 C1133 0.929 . S
S1137 N1138 1.613 . S
S1137 N1139 1.610 . S
N1138 S1137 1.613 . S
N1138 C1141 1.350 . S
N1139 S1137 1.610 . S
N1139 C1140 1.351 . S
C1140 C1134 1.428 . S
C1140 N1139 1.351 . S
C1140 C1141 1.434 . S
C1141 C1132 1.429 . S
C1141 N1138 1.350 . S
C1141 C1140 1.434 . S
C1142 C1143 1.369 . S
C1142 C1144 1.419 . S
C1142 H1146 0.930 . S
C1143 C1142 1.369 . S
C1143 C1152 1.429 . S
C1144 C1142 1.419 . S
C1144 C1145 1.363 . S
C1144 H1147 0.929 . S
C1145 C1144 1.363 . S
C1145 C1151 1.428 . S
H1146 C1142 0.930 . S
H1147 C1144 0.929 . S
S1148 N1149 1.613 . S
S1148 N1150 1.610 . S
N1149 S1148 1.613 . S
N1149 C1152 1.350 . S
N1150 S1148 1.610 . S
N1150 C1151 1.351 . S
C1151 C1145 1.428 . S
C1151 N1150 1.351 . S
C1151 C1152 1.434 . S
C1152 C1143 1.429 . S
C1152 N1149 1.350 . S
C1152 C1151 1.434 . S
C1153 C1154 1.369 . S
C1153 C1155 1.419 . S
C1153 H1157 0.930 . S
C1154 C1153 1.369 . S
C1154 C1163 1.429 . S
C1155 C1153 1.419 . S
C1155 C1156 1.363 . S
C1155 H1158 0.922 1_556 S
C1156 C1155 1.363 . S
C1156 C1162 1.428 . S
H1157 C1153 0.930 . S
H1158 C1155 0.922 1_554 S
S1159 N1160 1.613 . S
S1159 N1161 1.610 . S
N1160 S1159 1.613 . S
N1160 C1163 1.350 . S
N1161 S1159 1.610 . S
N1161 C1162 1.351 . S
C1162 C1156 1.428 . S
C1162 N1161 1.351 . S
C1162 C1163 1.434 . S
C1163 C1154 1.429 . S
C1163 N1160 1.350 . S
C1163 C1162 1.434 . S
C1164 C1165 1.369 . S
C1164 C1166 1.419 . S
C1164 H1168 0.930 . S
C1165 C1164 1.369 . S
C1165 C1174 1.429 . S
C1166 C1164 1.419 . S
C1166 C1167 1.363 . S
C1166 H1169 0.929 . S
C1167 C1166 1.363 . S
C1167 C1173 1.428 . S
H1168 C1164 0.930 . S
H1169 C1166 0.929 . S
S1170 N1171 1.613 . S
S1170 N1172 1.610 . S
N1171 S1170 1.613 . S
N1171 C1174 1.350 . S
N1172 S1170 1.610 . S
N1172 C1173 1.351 . S
C1173 C1167 1.428 . S
C1173 N1172 1.351 . S
C1173 C1174 1.434 . S
C1174 C1165 1.429 . S
C1174 N1171 1.350 . S
C1174 C1173 1.434 . S
C1175 C1176 1.369 . S
C1175 C1177 1.419 . S
C1175 H1179 0.930 . S
C1176 C1175 1.369 . S
C1176 C1185 1.429 . S
C1177 C1175 1.419 . S
C1177 C1178 1.363 . S
C1177 H1180 0.929 . S
C1178 C1177 1.363 . S
C1178 C1184 1.428 . S
H1179 C1175 0.930 . S
H1180 C1177 0.929 . S
S1181 N1182 1.622 . S
S1181 N1183 1.610 . S
N1182 S1181 1.622 . S
N1182 C1185 1.350 . S
N1183 S1181 1.610 . S
N1183 C1184 1.358 . S
C1184 C1178 1.428 . S
C1184 N1183 1.358 . S
C1184 C1185 1.434 . S
C1185 C1176 1.429 . S
C1185 N1182 1.350 . S
C1185 C1184 1.434 . S
C1186 C1187 1.370 1_554 S
C1186 C1188 1.418 . S
C1186 H1190 0.929 . S
C1187 C1186 1.370 1_556 S
C1187 C1196 1.429 . S
C1188 C1186 1.418 . S
C1188 C1189 1.363 1_554 S
C1188 H1191 0.929 . S
C1189 C1188 1.363 1_556 S
C1189 C1195 1.428 . S
H1190 C1186 0.929 . S
H1191 C1188 0.929 . S
S1192 N1193 1.613 . S
S1192 N1194 1.610 . S
N1193 S1192 1.613 . S
N1193 C1196 1.350 . S
N1194 S1192 1.610 . S
N1194 C1195 1.351 . S
C1195 C1189 1.428 . S
C1195 N1194 1.351 . S
C1195 C1196 1.434 . S
C1196 C1187 1.429 . S
C1196 N1193 1.350 . S
C1196 C1195 1.434 . S
C1197 C1198 1.369 . S
C1197 C1199 1.419 . S
C1197 H1201 0.930 . S
C1198 C1197 1.369 . S
C1198 C1207 1.429 . S
C1199 C1197 1.419 . S
C1199 C1200 1.363 . S
C1199 H1202 0.929 . S
C1200 C1199 1.363 . S
C1200 C1206 1.428 . S
H1201 C1197 0.930 . S
H1202 C1199 0.929 . S
S1203 N1204 1.613 . S
S1203 N1205 1.610 . S
N1204 S1203 1.613 . S
N1204 C1207 1.350 1_556 S
N1205 S1203 1.610 . S
N1205 C1206 1.351 1_556 S
C1206 C1200 1.428 . S
C1206 N1205 1.351 1_554 S
C1206 C1207 1.434 . S
C1207 C1198 1.429 . S
C1207 N1204 1.350 1_554 S
C1207 C1206 1.434 . S
C1208 C1209 1.369 . S
C1208 C1210 1.419 . S
C1208 H1212 0.930 . S
C1209 C1208 1.369 . S
C1209 C1218 1.429 . S
C1210 C1208 1.419 . S
C1210 C1211 1.363 . S
C1210 H1213 0.929 . S
C1211 C1210 1.363 . S
C1211 C1217 1.428 . S
H1212 C1208 0.930 . S
H1213 C1210 0.929 . S
S1214 N1215 1.613 1_556 S
S1214 N1216 1.610 1_556 S
N1215 S1214 1.613 1_554 S
N1215 C1218 1.350 . S
N1216 S1214 1.610 1_554 S
N1216 C1217 1.351 . S
C1217 C1211 1.428 . S
C1217 N1216 1.351 . S
C1217 C1218 1.434 . S
C1218 C1209 1.429 . S
C1218 N1215 1.350 . S
C1218 C1217 1.434 . S
C1219 C1220 1.369 . S
C1219 C1221 1.419 . S
C1219 H1223 0.930 . S
C1220 C1219 1.369 . S
C1220 C1229 1.429 . S
C1221 C1219 1.419 . S
C1221 C1222 1.363 . S
C1221 H1224 0.929 . S
C1222 C1221 1.363 . S
C1222 C1228 1.428 . S
H1223 C1219 0.930 . S
H1224 C1221 0.929 . S
S1225 N1226 1.613 . S
S1225 N1227 1.610 . S
N1226 S1225 1.613 . S
N1226 C1229 1.350 . S
N1227 S1225 1.610 . S
N1227 C1228 1.351 . S
C1228 C1222 1.428 . S
C1228 N1227 1.351 . S
C1228 C1229 1.434 . S
C1229 C1220 1.429 . S
C1229 N1226 1.350 . S
C1229 C1228 1.434 . S
C1230 C1231 1.369 . S
C1230 C1232 1.419 1_655 S
C1230 H1234 0.930 . S
C1231 C1230 1.369 . S
C1231 C1240 1.429 . S
C1232 C1230 1.419 1_455 S
C1232 C1233 1.363 . S
C1232 H1235 0.929 . S
C1233 C1232 1.363 . S
C1233 C1239 1.428 . S
H1234 C1230 0.930 . S
H1235 C1232 0.929 . S
S1236 N1237 1.613 . S
S1236 N1238 1.610 1_655 S
N1237 S1236 1.613 . S
N1237 C1240 1.350 . S
N1238 S1236 1.610 1_455 S
N1238 C1239 1.351 . S
C1239 C1233 1.428 . S
C1239 N1238 1.351 . S
C1239 C1240 1.434 1_455 S
C1240 C1231 1.429 . S
C1240 N1237 1.350 . S
C1240 C1239 1.434 1_655 S
C1241 C1242 1.369 . S
C1241 C1243 1.419 . S
C1241 H1245 0.930 . S
C1242 C1241 1.369 . S
C1242 C1251 1.429 . S
C1243 C1241 1.419 . S
C1243 C1244 1.363 . S
C1243 H1246 0.929 . S
C1244 C1243 1.363 . S
C1244 C1250 1.428 . S
H1245 C1241 0.930 . S
H1246 C1243 0.929 . S
S1247 N1248 1.613 . S
S1247 N1249 1.610 . S
N1248 S1247 1.613 . S
N1248 C1251 1.350 . S
N1249 S1247 1.610 . S
N1249 C1250 1.351 . S
C1250 C1244 1.428 . S
C1250 N1249 1.351 . S
C1250 C1251 1.434 . S
C1251 C1242 1.429 . S
C1251 N1248 1.350 . S
C1251 C1250 1.434 . S
C1252 C1253 1.369 . S
C1252 C1254 1.419 1_545 S
C1252 H1256 0.930 1_545 S
C1253 C1252 1.369 . S
C1253 C1262 1.429 . S
C1254 C1252 1.419 1_565 S
C1254 C1255 1.363 . S
C1254 H1257 0.929 . S
C1255 C1254 1.363 . S
C1255 C1261 1.428 1_565 S
H1256 C1252 0.930 1_565 S
H1257 C1254 0.929 . S
S1258 N1259 1.613 . S
S1258 N1260 1.610 . S
N1259 S1258 1.613 . S
N1259 C1262 1.350 . S
N1260 S1258 1.610 . S
N1260 C1261 1.351 . S
C1261 C1255 1.428 1_545 S
C1261 N1260 1.351 . S
C1261 C1262 1.434 . S
C1262 C1253 1.429 . S
C1262 N1259 1.350 . S
C1262 C1261 1.434 . S
C1263 C1264 1.369 . S
C1263 C1265 1.419 . S
C1263 H1267 0.930 . S
C1264 C1263 1.369 . S
C1264 C1273 1.429 . S
C1265 C1263 1.419 . S
C1265 C1266 1.363 . S
C1265 H1268 0.929 . S
C1266 C1265 1.363 . S
C1266 C1272 1.428 . S
H1267 C1263 0.930 . S
H1268 C1265 0.929 . S
S1269 N1270 1.613 . S
S1269 N1271 1.610 . S
N1270 S1269 1.613 . S
N1270 C1273 1.350 . S
N1271 S1269 1.610 . S
N1271 C1272 1.351 . S
C1272 C1266 1.428 . S
C1272 N1271 1.351 . S
C1272 C1273 1.434 . S
C1273 C1264 1.429 . S
C1273 N1270 1.350 . S
C1273 C1272 1.434 . S
C1274 C1275 1.369 . S
C1274 C1276 1.419 . S
C1274 H1278 0.930 . S
C1275 C1274 1.369 . S
C1275 C1284 1.429 . S
C1276 C1274 1.419 . S
C1276 C1277 1.363 . S
C1276 H1279 0.929 . S
C1277 C1276 1.363 . S
C1277 C1283 1.428 . S
H1278 C1274 0.930 . S
H1279 C1276 0.929 . S
S1280 N1281 1.613 . S
S1280 N1282 1.610 . S
N1281 S1280 1.613 . S
N1281 C1284 1.350 . S
N1282 S1280 1.610 . S
N1282 C1283 1.351 . S
C1283 C1277 1.428 . S
C1283 N1282 1.351 . S
C1283 C1284 1.434 . S
C1284 C1275 1.429 . S
C1284 N1281 1.350 . S
C1284 C1283 1.434 . S
C1285 C1286 1.369 . S
C1285 C1287 1.419 . S
C1285 H1289 0.930 . S
C1286 C1285 1.369 . S
C1286 C1295 1.429 . S
C1287 C1285 1.419 . S
C1287 C1288 1.363 . S
C1287 H1290 0.929 . S
C1288 C1287 1.363 . S
C1288 C1294 1.428 . S
H1289 C1285 0.930 . S
H1290 C1287 0.929 . S
S1291 N1292 1.613 . S
S1291 N1293 1.610 . S
N1292 S1291 1.613 . S
N1292 C1295 1.350 . S
N1293 S1291 1.610 . S
N1293 C1294 1.351 . S
C1294 C1288 1.428 . S
C1294 N1293 1.351 . S
C1294 C1295 1.434 . S
C1295 C1286 1.429 . S
C1295 N1292 1.350 . S
C1295 C1294 1.434 . S
C1296 C1297 1.369 . S
C1296 C1298 1.419 . S
C1296 H1300 0.930 . S
C1297 C1296 1.369 . S
C1297 C1306 1.429 . S
C1298 C1296 1.419 . S
C1298 C1299 1.363 . S
C1298 H1301 0.929 . S
C1299 C1298 1.363 . S
C1299 C1305 1.428 . S
H1300 C1296 0.930 . S
H1301 C1298 0.929 . S
S1302 N1303 1.613 . S
S1302 N1304 1.610 . S
N1303 S1302 1.613 . S
N1303 C1306 1.350 . S
N1304 S1302 1.610 . S
N1304 C1305 1.351 . S
C1305 C1299 1.428 . S
C1305 N1304 1.351 . S
C1305 C1306 1.434 . S
C1306 C1297 1.429 . S
C1306 N1303 1.350 . S
C1306 C1305 1.434 . S
C1307 C1308 1.369 . S
C1307 C1309 1.419 . S
C1307 H1311 0.930 . S
C1308 C1307 1.369 . S
C1308 C1317 1.429 . S
C1309 C1307 1.419 . S
C1309 C1310 1.363 . S
C1309 H1312 0.929 . S
C1310 C1309 1.363 . S
C1310 C1316 1.428 . S
H1311 C1307 0.930 . S
H1312 C1309 0.929 . S
S1313 N1314 1.613 . S
S1313 N1315 1.610 . S
N1314 S1313 1.613 . S
N1314 C1317 1.350 . S
N1315 S1313 1.610 . S
N1315 C1316 1.351 . S
C1316 C1310 1.428 . S
C1316 N1315 1.351 . S
C1316 C1317 1.434 . S
C1317 C1308 1.429 . S
C1317 N1314 1.350 . S
C1317 C1316 1.434 . S
C1318 C1319 1.369 . S
C1318 C1320 1.419 . S
C1318 H1322 0.930 . S
C1319 C1318 1.369 . S
C1319 C1328 1.429 . S
C1320 C1318 1.419 . S
C1320 C1321 1.363 . S
C1320 H1323 0.929 . S
C1321 C1320 1.363 . S
C1321 C1327 1.428 . S
H1322 C1318 0.930 . S
H1323 C1320 0.929 . S
S1324 N1325 1.613 . S
S1324 N1326 1.610 . S
N1325 S1324 1.613 . S
N1325 C1328 1.350 . S
N1326 S1324 1.610 . S
N1326 C1327 1.351 . S
C1327 C1321 1.428 . S
C1327 N1326 1.351 . S
C1327 C1328 1.434 . S
C1328 C1319 1.429 . S
C1328 N1325 1.350 . S
C1328 C1327 1.434 . S
C1329 C1330 1.369 . S
C1329 C1331 1.419 . S
C1329 H1333 0.930 . S
C1330 C1329 1.369 . S
C1330 C1339 1.429 . S
C1331 C1329 1.419 . S
C1331 C1332 1.363 . S
C1331 H1334 0.929 . S
C1332 C1331 1.363 . S
C1332 C1338 1.428 . S
H1333 C1329 0.930 . S
H1334 C1331 0.929 . S
S1335 N1336 1.613 . S
S1335 N1337 1.610 . S
N1336 S1335 1.613 . S
N1336 C1339 1.350 . S
N1337 S1335 1.610 . S
N1337 C1338 1.351 . S
C1338 C1332 1.428 . S
C1338 N1337 1.351 . S
C1338 C1339 1.434 . S
C1339 C1330 1.429 . S
C1339 N1336 1.350 . S
C1339 C1338 1.434 . S
C1340 C1341 1.369 . S
C1340 C1342 1.419 . S
C1340 H1344 0.930 . S
C1341 C1340 1.369 . S
C1341 C1350 1.429 . S
C1342 C1340 1.419 . S
C1342 C1343 1.363 . S
C1342 H1345 0.929 . S
C1343 C1342 1.363 . S
C1343 C1349 1.428 . S
H1344 C1340 0.930 . S
H1345 C1342 0.929 . S
S1346 N1347 1.613 . S
S1346 N1348 1.610 . S
N1347 S1346 1.613 . S
N1347 C1350 1.350 . S
N1348 S1346 1.610 . S
N1348 C1349 1.351 . S
C1349 C1343 1.428 . S
C1349 N1348 1.351 . S
C1349 C1350 1.434 . S
C1350 C1341 1.429 . S
C1350 N1347 1.350 . S
C1350 C1349 1.434 . S
C1351 C1352 1.369 . S
C1351 C1353 1.419 . S
C1351 H1355 0.930 . S
C1352 C1351 1.369 . S
C1352 C1361 1.429 . S
C1353 C1351 1.419 . S
C1353 C1354 1.363 . S
C1353 H1356 0.929 . S
C1354 C1353 1.363 . S
C1354 C1360 1.428 . S
H1355 C1351 0.930 . S
H1356 C1353 0.929 . S
S1357 N1358 1.613 . S
S1357 N1359 1.610 . S
N1358 S1357 1.613 . S
N1358 C1361 1.350 . S
N1359 S1357 1.610 . S
N1359 C1360 1.351 . S
C1360 C1354 1.428 . S
C1360 N1359 1.351 . S
C1360 C1361 1.434 . S
C1361 C1352 1.429 . S
C1361 N1358 1.350 . S
C1361 C1360 1.434 . S
C1362 C1363 1.369 . S
C1362 C1364 1.419 . S
C1362 H1366 0.930 . S
C1363 C1362 1.369 . S
C1363 C1372 1.429 . S
C1364 C1362 1.419 . S
C1364 C1365 1.363 . S
C1364 H1367 0.929 . S
C1365 C1364 1.363 . S
C1365 C1371 1.428 . S
H1366 C1362 0.930 . S
H1367 C1364 0.929 . S
S1368 N1369 1.613 . S
S1368 N1370 1.610 . S
N1369 S1368 1.613 . S
N1369 C1372 1.350 . S
N1370 S1368 1.610 . S
N1370 C1371 1.351 . S
C1371 C1365 1.428 . S
C1371 N1370 1.351 . S
C1371 C1372 1.434 . S
C1372 C1363 1.429 . S
C1372 N1369 1.350 . S
C1372 C1371 1.434 . S
C1373 C1374 1.369 . S
C1373 C1375 1.419 . S
C1373 H1377 0.930 . S
C1374 C1373 1.369 . S
C1374 C1383 1.429 . S
C1375 C1373 1.419 . S
C1375 C1376 1.363 . S
C1375 H1378 0.929 . S
C1376 C1375 1.363 . S
C1376 C1382 1.428 . S
H1377 C1373 0.930 . S
H1378 C1375 0.929 . S
S1379 N1380 1.613 . S
S1379 N1381 1.610 . S
N1380 S1379 1.613 . S
N1380 C1383 1.350 . S
N1381 S1379 1.610 . S
N1381 C1382 1.351 . S
C1382 C1376 1.428 . S
C1382 N1381 1.351 . S
C1382 C1383 1.434 . S
C1383 C1374 1.429 . S
C1383 N1380 1.350 . S
C1383 C1382 1.434 . S
C1384 C1385 1.369 . S
C1384 C1386 1.419 . S
C1384 H1388 0.930 . S
C1385 C1384 1.369 . S
C1385 C1394 1.429 . S
C1386 C1384 1.419 . S
C1386 C1387 1.363 . S
C1386 H1389 0.929 . S
C1387 C1386 1.363 . S
C1387 C1393 1.428 . S
H1388 C1384 0.930 . S
H1389 C1386 0.929 . S
S1390 N1391 1.613 . S
S1390 N1392 1.610 . S
N1391 S1390 1.613 . S
N1391 C1394 1.350 . S
N1392 S1390 1.610 . S
N1392 C1393 1.351 . S
C1393 C1387 1.428 . S
C1393 N1392 1.351 . S
C1393 C1394 1.434 . S
C1394 C1385 1.429 . S
C1394 N1391 1.350 . S
C1394 C1393 1.434 . S
C1395 C1396 1.369 . S
C1395 C1397 1.419 . S
C1395 H1399 0.930 . S
C1396 C1395 1.369 . S
C1396 C1405 1.429 1_565 S
C1397 C1395 1.419 . S
C1397 C1398 1.363 1_565 S
C1397 H1400 0.929 . S
C1398 C1397 1.363 1_545 S
C1398 C1404 1.428 . S
H1399 C1395 0.930 . S
H1400 C1397 0.929 . S
S1401 N1402 1.613 . S
S1401 N1403 1.610 . S
N1402 S1401 1.613 . S
N1402 C1405 1.350 . S
N1403 S1401 1.610 . S
N1403 C1404 1.351 . S
C1404 C1398 1.428 . S
C1404 N1403 1.351 . S
C1404 C1405 1.434 . S
C1405 C1396 1.429 1_545 S
C1405 N1402 1.350 . S
C1405 C1404 1.434 . S
C1406 C1407 1.369 . S
C1406 C1408 1.419 1_455 S
C1406 H1410 0.930 . S
C1407 C1406 1.369 . S
C1407 C1416 1.429 . S
C1408 C1406 1.419 1_655 S
C1408 C1409 1.363 . S
C1408 H1411 0.929 . S
C1409 C1408 1.363 . S
C1409 C1415 1.428 . S
H1410 C1406 0.930 . S
H1411 C1408 0.929 . S
S1412 N1413 1.613 . S
S1412 N1414 1.610 1_455 S
N1413 S1412 1.613 . S
N1413 C1416 1.350 . S
N1414 S1412 1.610 1_655 S
N1414 C1415 1.351 . S
C1415 C1409 1.428 . S
C1415 N1414 1.351 . S
C1415 C1416 1.434 1_655 S
C1416 C1407 1.429 . S
C1416 N1413 1.350 . S
C1416 C1415 1.434 1_455 S
C1417 C1418 1.369 . S
C1417 C1419 1.419 . S
C1417 H1421 0.930 . S
C1418 C1417 1.369 . S
C1418 C1427 1.429 . S
C1419 C1417 1.419 . S
C1419 C1420 1.363 . S
C1419 H1422 0.929 . S
C1420 C1419 1.363 . S
C1420 C1426 1.428 . S
H1421 C1417 0.930 . S
H1422 C1419 0.929 . S
S1423 N1424 1.613 . S
S1423 N1425 1.610 . S
N1424 S1423 1.613 . S
N1424 C1427 1.350 . S
N1425 S1423 1.610 . S
N1425 C1426 1.351 . S
C1426 C1420 1.428 . S
C1426 N1425 1.351 . S
C1426 C1427 1.434 . S
C1427 C1418 1.429 . S
C1427 N1424 1.350 . S
C1427 C1426 1.434 . S
C1428 C1429 1.369 . S
C1428 C1430 1.419 . S
C1428 H1432 0.930 . S
C1429 C1428 1.369 . S
C1429 C1438 1.429 . S
C1430 C1428 1.419 . S
C1430 C1431 1.363 . S
C1430 H1433 0.929 . S
C1431 C1430 1.363 . S
C1431 C1437 1.428 . S
H1432 C1428 0.930 . S
H1433 C1430 0.929 . S
S1434 N1435 1.613 . S
S1434 N1436 1.610 . S
N1435 S1434 1.613 . S
N1435 C1438 1.350 . S
N1436 S1434 1.610 . S
N1436 C1437 1.351 . S
C1437 C1431 1.428 . S
C1437 N1436 1.351 . S
C1437 C1438 1.434 . S
C1438 C1429 1.429 . S
C1438 N1435 1.350 . S
C1438 C1437 1.434 . S
C1439 C1440 1.369 . S
C1439 C1441 1.419 . S
C1439 H1443 0.930 . S
C1440 C1439 1.369 . S
C1440 C1449 1.429 . S
C1441 C1439 1.419 . S
C1441 C1442 1.363 . S
C1441 H1444 0.929 . S
C1442 C1441 1.363 . S
C1442 C1448 1.428 . S
H1443 C1439 0.930 . S
H1444 C1441 0.929 . S
S1445 N1446 1.613 . S
S1445 N1447 1.610 . S
N1446 S1445 1.613 . S
N1446 C1449 1.350 . S
N1447 S1445 1.610 . S
N1447 C1448 1.351 . S
C1448 C1442 1.428 . S
C1448 N1447 1.351 . S
C1448 C1449 1.434 . S
C1449 C1440 1.429 . S
C1449 N1446 1.350 . S
C1449 C1448 1.434 . S
C1450 C1451 1.369 . S
C1450 C1452 1.419 . S
C1450 H1454 0.930 . S
C1451 C1450 1.369 . S
C1451 C1460 1.429 . S
C1452 C1450 1.419 . S
C1452 C1453 1.363 . S
C1452 H1455 0.929 . S
C1453 C1452 1.363 . S
C1453 C1459 1.428 . S
H1454 C1450 0.930 . S
H1455 C1452 0.929 . S
S1456 N1457 1.613 . S
S1456 N1458 1.610 . S
N1457 S1456 1.613 . S
N1457 C1460 1.350 . S
N1458 S1456 1.610 . S
N1458 C1459 1.351 . S
C1459 C1453 1.428 . S
C1459 N1458 1.351 . S
C1459 C1460 1.434 . S
C1460 C1451 1.429 . S
C1460 N1457 1.350 . S
C1460 C1459 1.434 . S
C1461 C1462 1.369 . S
C1461 C1463 1.419 . S
C1461 H1465 0.930 . S
C1462 C1461 1.369 . S
C1462 C1471 1.429 . S
C1463 C1461 1.419 . S
C1463 C1464 1.363 . S
C1463 H1466 0.929 . S
C1464 C1463 1.363 . S
C1464 C1470 1.428 . S
H1465 C1461 0.930 . S
H1466 C1463 0.929 . S
S1467 N1468 1.613 . S
S1467 N1469 1.610 . S
N1468 S1467 1.613 . S
N1468 C1471 1.350 . S
N1469 S1467 1.610 . S
N1469 C1470 1.351 . S
C1470 C1464 1.428 . S
C1470 N1469 1.351 . S
C1470 C1471 1.434 . S
C1471 C1462 1.429 . S
C1471 N1468 1.350 . S
C1471 C1470 1.434 . S
C1472 C1473 1.369 . S
C1472 C1474 1.419 . S
C1472 H1476 0.930 . S
C1473 C1472 1.369 . S
C1473 C1482 1.429 . S
C1474 C1472 1.419 . S
C1474 C1475 1.363 . S
C1474 H1477 0.929 . S
C1475 C1474 1.363 . S
C1475 C1481 1.428 . S
H1476 C1472 0.930 . S
H1477 C1474 0.929 . S
S1478 N1479 1.613 . S
S1478 N1480 1.610 . S
N1479 S1478 1.613 . S
N1479 C1482 1.350 . S
N1480 S1478 1.610 . S
N1480 C1481 1.351 . S
C1481 C1475 1.428 . S
C1481 N1480 1.351 . S
C1481 C1482 1.434 . S
C1482 C1473 1.429 . S
C1482 N1479 1.350 . S
C1482 C1481 1.434 . S
C1483 C1484 1.369 . S
C1483 C1485 1.419 . S
C1483 H1487 0.930 . S
C1484 C1483 1.369 . S
C1484 C1493 1.429 . S
C1485 C1483 1.419 . S
C1485 C1486 1.363 . S
C1485 H1488 0.929 . S
C1486 C1485 1.363 . S
C1486 C1492 1.428 . S
H1487 C1483 0.930 . S
H1488 C1485 0.929 . S
S1489 N1490 1.613 . S
S1489 N1491 1.610 . S
N1490 S1489 1.613 . S
N1490 C1493 1.350 . S
N1491 S1489 1.610 . S
N1491 C1492 1.351 . S
C1492 C1486 1.428 . S
C1492 N1491 1.351 . S
C1492 C1493 1.434 . S
C1493 C1484 1.429 . S
C1493 N1490 1.350 . S
C1493 C1492 1.434 . S
C1494 C1495 1.369 . S
C1494 C1496 1.419 . S
C1494 H1498 0.930 . S
C1495 C1494 1.369 . S
C1495 C1504 1.429 . S
C1496 C1494 1.419 . S
C1496 C1497 1.363 . S
C1496 H1499 0.929 . S
C1497 C1496 1.363 . S
C1497 C1503 1.428 . S
H1498 C1494 0.930 . S
H1499 C1496 0.929 . S
S1500 N1501 1.613 . S
S1500 N1502 1.610 . S
N1501 S1500 1.613 . S
N1501 C1504 1.350 . S
N1502 S1500 1.610 . S
N1502 C1503 1.351 . S
C1503 C1497 1.428 . S
C1503 N1502 1.351 . S
C1503 C1504 1.434 . S
C1504 C1495 1.429 . S
C1504 N1501 1.350 . S
C1504 C1503 1.434 . S
C1505 C1506 1.369 . S
C1505 C1507 1.419 . S
C1505 H1509 0.930 . S
C1506 C1505 1.369 . S
C1506 C1515 1.429 . S
C1507 C1505 1.419 . S
C1507 C1508 1.363 . S
C1507 H1510 0.929 . S
C1508 C1507 1.363 . S
C1508 C1514 1.428 . S
H1509 C1505 0.930 . S
H1510 C1507 0.929 . S
S1511 N1512 1.613 . S
S1511 N1513 1.610 . S
N1512 S1511 1.613 . S
N1512 C1515 1.350 . S
N1513 S1511 1.610 . S
N1513 C1514 1.351 . S
C1514 C1508 1.428 . S
C1514 N1513 1.351 . S
C1514 C1515 1.434 . S
C1515 C1506 1.429 . S
C1515 N1512 1.350 . S
C1515 C1514 1.434 . S
C1516 C1517 1.369 . S
C1516 C1518 1.419 . S
C1516 H1520 0.930 . S
C1517 C1516 1.369 . S
C1517 C1526 1.429 . S
C1518 C1516 1.419 . S
C1518 C1519 1.363 . S
C1518 H1521 0.929 . S
C1519 C1518 1.363 . S
C1519 C1525 1.428 . S
H1520 C1516 0.930 . S
H1521 C1518 0.929 . S
S1522 N1523 1.613 . S
S1522 N1524 1.610 . S
N1523 S1522 1.613 . S
N1523 C1526 1.350 . S
N1524 S1522 1.610 . S
N1524 C1525 1.351 . S
C1525 C1519 1.428 . S
C1525 N1524 1.351 . S
C1525 C1526 1.434 . S
C1526 C1517 1.429 . S
C1526 N1523 1.350 . S
C1526 C1525 1.434 . S
C1527 C1528 1.369 . S
C1527 C1529 1.419 . S
C1527 H1531 0.930 . S
C1528 C1527 1.369 . S
C1528 C1537 1.429 . S
C1529 C1527 1.419 . S
C1529 C1530 1.363 . S
C1529 H1532 0.929 . S
C1530 C1529 1.363 . S
C1530 C1536 1.428 . S
H1531 C1527 0.930 . S
H1532 C1529 0.929 . S
S1533 N1534 1.613 . S
S1533 N1535 1.610 . S
N1534 S1533 1.613 . S
N1534 C1537 1.350 . S
N1535 S1533 1.610 . S
N1535 C1536 1.351 . S
C1536 C1530 1.428 . S
C1536 N1535 1.351 . S
C1536 C1537 1.434 . S
C1537 C1528 1.429 . S
C1537 N1534 1.350 . S
C1537 C1536 1.434 . S
C1538 C1539 1.369 . S
C1538 C1540 1.419 . S
C1538 H1542 0.930 . S
C1539 C1538 1.369 . S
C1539 C1548 1.429 . S
C1540 C1538 1.419 . S
C1540 C1541 1.363 . S
C1540 H1543 0.929 . S
C1541 C1540 1.363 . S
C1541 C1547 1.428 . S
H1542 C1538 0.930 . S
H1543 C1540 0.929 . S
S1544 N1545 1.613 . S
S1544 N1546 1.610 . S
N1545 S1544 1.613 . S
N1545 C1548 1.350 . S
N1546 S1544 1.610 . S
N1546 C1547 1.351 . S
C1547 C1541 1.428 . S
C1547 N1546 1.351 . S
C1547 C1548 1.434 . S
C1548 C1539 1.429 . S
C1548 N1545 1.350 . S
C1548 C1547 1.434 . S
C1549 C1550 1.369 . S
C1549 C1551 1.419 . S
C1549 H1553 0.930 . S
C1550 C1549 1.369 . S
C1550 C1559 1.429 . S
C1551 C1549 1.419 . S
C1551 C1552 1.363 . S
C1551 H1554 0.929 . S
C1552 C1551 1.363 . S
C1552 C1558 1.428 . S
H1553 C1549 0.930 . S
H1554 C1551 0.929 . S
S1555 N1556 1.613 . S
S1555 N1557 1.610 . S
N1556 S1555 1.613 . S
N1556 C1559 1.350 . S
N1557 S1555 1.610 . S
N1557 C1558 1.351 . S
C1558 C1552 1.428 . S
C1558 N1557 1.351 . S
C1558 C1559 1.434 . S
C1559 C1550 1.429 . S
C1559 N1556 1.350 . S
C1559 C1558 1.434 . S
C1560 C1561 1.369 . S
C1560 C1562 1.419 . S
C1560 H1564 0.930 . S
C1561 C1560 1.369 . S
C1561 C1570 1.429 . S
C1562 C1560 1.419 . S
C1562 C1563 1.363 . S
C1562 H1565 0.929 . S
C1563 C1562 1.363 . S
C1563 C1569 1.428 . S
H1564 C1560 0.930 . S
H1565 C1562 0.929 . S
S1566 N1567 1.613 . S
S1566 N1568 1.610 . S
N1567 S1566 1.613 . S
N1567 C1570 1.350 . S
N1568 S1566 1.610 . S
N1568 C1569 1.351 . S
C1569 C1563 1.428 . S
C1569 N1568 1.351 . S
C1569 C1570 1.434 . S
C1570 C1561 1.429 . S
C1570 N1567 1.350 . S
C1570 C1569 1.434 . S
C1571 C1572 1.369 . S
C1571 C1573 1.419 . S
C1571 H1575 0.930 . S
C1572 C1571 1.369 . S
C1572 C1581 1.429 . S
C1573 C1571 1.419 . S
C1573 C1574 1.363 . S
C1573 H1576 0.929 . S
C1574 C1573 1.363 . S
C1574 C1580 1.428 . S
H1575 C1571 0.930 . S
H1576 C1573 0.929 . S
S1577 N1578 1.613 . S
S1577 N1579 1.610 . S
N1578 S1577 1.613 . S
N1578 C1581 1.350 . S
N1579 S1577 1.610 . S
N1579 C1580 1.351 . S
C1580 C1574 1.428 . S
C1580 N1579 1.351 . S
C1580 C1581 1.434 . S
C1581 C1572 1.429 . S
C1581 N1578 1.350 . S
C1581 C1580 1.434 . S
C1582 C1583 1.369 . S
C1582 C1584 1.419 . S
C1582 H1586 0.930 . S
C1583 C1582 1.369 . S
C1583 C1592 1.429 . S
C1584 C1582 1.419 . S
C1584 C1585 1.363 . S
C1584 H1587 0.929 . S
C1585 C1584 1.363 . S
C1585 C1591 1.428 . S
H1586 C1582 0.930 . S
H1587 C1584 0.929 . S
S1588 N1589 1.613 . S
S1588 N1590 1.610 . S
N1589 S1588 1.613 . S
N1589 C1592 1.350 . S
N1590 S1588 1.610 . S
N1590 C1591 1.351 . S
C1591 C1585 1.428 . S
C1591 N1590 1.351 . S
C1591 C1592 1.434 . S
C1592 C1583 1.429 . S
C1592 N1589 1.350 . S
C1592 C1591 1.434 . S
C1593 C1594 1.369 . S
C1593 C1595 1.419 . S
C1593 H1597 0.930 . S
C1594 C1593 1.369 . S
C1594 C1603 1.429 . S
C1595 C1593 1.419 . S
C1595 C1596 1.363 . S
C1595 H1598 0.929 . S
C1596 C1595 1.363 . S
C1596 C1602 1.428 . S
H1597 C1593 0.930 . S
H1598 C1595 0.929 . S
S1599 N1600 1.613 . S
S1599 N1601 1.610 . S
N1600 S1599 1.613 . S
N1600 C1603 1.350 . S
N1601 S1599 1.610 . S
N1601 C1602 1.351 . S
C1602 C1596 1.428 . S
C1602 N1601 1.351 . S
C1602 C1603 1.434 . S
C1603 C1594 1.429 . S
C1603 N1600 1.350 . S
C1603 C1602 1.434 . S
C1604 C1605 1.369 . S
C1604 C1606 1.419 . S
C1604 H1608 0.930 . S
C1605 C1604 1.369 . S
C1605 C1614 1.429 . S
C1606 C1604 1.419 . S
C1606 C1607 1.363 . S
C1606 H1609 0.929 . S
C1607 C1606 1.363 . S
C1607 C1613 1.428 . S
H1608 C1604 0.930 . S
H1609 C1606 0.929 . S
S1610 N1611 1.613 . S
S1610 N1612 1.610 . S
N1611 S1610 1.613 . S
N1611 C1614 1.350 . S
N1612 S1610 1.610 . S
N1612 C1613 1.351 . S
C1613 C1607 1.428 . S
C1613 N1612 1.351 . S
C1613 C1614 1.434 . S
C1614 C1605 1.429 . S
C1614 N1611 1.350 . S
C1614 C1613 1.434 . S
C1615 C1616 1.369 . S
C1615 C1617 1.419 . S
C1615 H1619 0.930 . S
C1616 C1615 1.369 . S
C1616 C1625 1.429 . S
C1617 C1615 1.419 . S
C1617 C1618 1.363 . S
C1617 H1620 0.929 . S
C1618 C1617 1.363 . S
C1618 C1624 1.428 . S
H1619 C1615 0.930 . S
H1620 C1617 0.929 . S
S1621 N1622 1.613 . S
S1621 N1623 1.610 . S
N1622 S1621 1.613 . S
N1622 C1625 1.350 . S
N1623 S1621 1.610 . S
N1623 C1624 1.351 . S
C1624 C1618 1.428 . S
C1624 N1623 1.351 . S
C1624 C1625 1.434 . S
C1625 C1616 1.429 . S
C1625 N1622 1.350 . S
C1625 C1624 1.434 . S
C1626 C1627 1.369 . S
C1626 C1628 1.419 . S
C1626 H1630 0.930 . S
C1627 C1626 1.369 . S
C1627 C1636 1.429 . S
C1628 C1626 1.419 . S
C1628 C1629 1.363 . S
C1628 H1631 0.929 . S
C1629 C1628 1.363 . S
C1629 C1635 1.428 . S
H1630 C1626 0.930 . S
H1631 C1628 0.929 . S
S1632 N1633 1.613 . S
S1632 N1634 1.610 . S
N1633 S1632 1.613 . S
N1633 C1636 1.350 . S
N1634 S1632 1.610 . S
N1634 C1635 1.351 . S
C1635 C1629 1.428 . S
C1635 N1634 1.351 . S
C1635 C1636 1.434 . S
C1636 C1627 1.429 . S
C1636 N1633 1.350 . S
C1636 C1635 1.434 . S
C1637 C1638 1.369 . S
C1637 C1639 1.419 . S
C1637 H1641 0.930 . S
C1638 C1637 1.369 . S
C1638 C1647 1.429 . S
C1639 C1637 1.419 . S
C1639 C1640 1.363 . S
C1639 H1642 0.929 . S
C1640 C1639 1.363 . S
C1640 C1646 1.428 . S
H1641 C1637 0.930 . S
H1642 C1639 0.929 . S
S1643 N1644 1.613 . S
S1643 N1645 1.610 . S
N1644 S1643 1.613 . S
N1644 C1647 1.350 . S
N1645 S1643 1.610 . S
N1645 C1646 1.351 . S
C1646 C1640 1.428 . S
C1646 N1645 1.351 . S
C1646 C1647 1.434 . S
C1647 C1638 1.429 . S
C1647 N1644 1.350 . S
C1647 C1646 1.434 . S
C1648 C1649 1.369 . S
C1648 C1650 1.419 . S
C1648 H1652 0.930 . S
C1649 C1648 1.369 . S
C1649 C1658 1.429 . S
C1650 C1648 1.419 . S
C1650 C1651 1.363 . S
C1650 H1653 0.929 . S
C1651 C1650 1.363 . S
C1651 C1657 1.428 . S
H1652 C1648 0.930 . S
H1653 C1650 0.929 . S
S1654 N1655 1.613 . S
S1654 N1656 1.610 . S
N1655 S1654 1.613 . S
N1655 C1658 1.350 . S
N1656 S1654 1.610 . S
N1656 C1657 1.351 . S
C1657 C1651 1.428 . S
C1657 N1656 1.351 . S
C1657 C1658 1.434 . S
C1658 C1649 1.429 . S
C1658 N1655 1.350 . S
C1658 C1657 1.434 . S
C1659 C1660 1.369 . S
C1659 C1661 1.419 . S
C1659 H1663 0.930 . S
C1660 C1659 1.369 . S
C1660 C1669 1.429 . S
C1661 C1659 1.419 . S
C1661 C1662 1.363 . S
C1661 H1664 0.929 . S
C1662 C1661 1.363 . S
C1662 C1668 1.428 . S
H1663 C1659 0.930 . S
H1664 C1661 0.929 . S
S1665 N1666 1.613 . S
S1665 N1667 1.610 . S
N1666 S1665 1.613 . S
N1666 C1669 1.350 . S
N1667 S1665 1.610 . S
N1667 C1668 1.351 . S
C1668 C1662 1.428 . S
C1668 N1667 1.351 . S
C1668 C1669 1.434 . S
C1669 C1660 1.429 . S
C1669 N1666 1.350 . S
C1669 C1668 1.434 . S
C1670 C1671 1.369 . S
C1670 C1672 1.419 . S
C1670 H1674 0.930 . S
C1671 C1670 1.369 . S
C1671 C1680 1.429 . S
C1672 C1670 1.419 . S
C1672 C1673 1.363 . S
C1672 H1675 0.929 . S
C1673 C1672 1.363 . S
C1673 C1679 1.428 . S
H1674 C1670 0.930 . S
H1675 C1672 0.929 . S
S1676 N1677 1.613 . S
S1676 N1678 1.610 . S
N1677 S1676 1.613 . S
N1677 C1680 1.350 . S
N1678 S1676 1.610 . S
N1678 C1679 1.351 . S
C1679 C1673 1.428 . S
C1679 N1678 1.351 . S
C1679 C1680 1.434 . S
C1680 C1671 1.429 . S
C1680 N1677 1.350 . S
C1680 C1679 1.434 . S
C1681 C1682 1.369 . S
C1681 C1683 1.419 . S
C1681 H1685 0.930 . S
C1682 C1681 1.369 . S
C1682 C1691 1.429 . S
C1683 C1681 1.419 . S
C1683 C1684 1.363 . S
C1683 H1686 0.929 . S
C1684 C1683 1.363 . S
C1684 C1690 1.428 . S
H1685 C1681 0.930 . S
H1686 C1683 0.929 . S
S1687 N1688 1.613 . S
S1687 N1689 1.610 . S
N1688 S1687 1.613 . S
N1688 C1691 1.350 . S
N1689 S1687 1.610 . S
N1689 C1690 1.351 . S
C1690 C1684 1.428 . S
C1690 N1689 1.351 . S
C1690 C1691 1.434 . S
C1691 C1682 1.429 . S
C1691 N1688 1.350 . S
C1691 C1690 1.434 . S
C1099 C253 1.504 . S
C1101 C409 1.443 . S
C1110 C272 1.538 . S
C1112 C493 1.479 . S
C1121 C234 1.491 . S
C1123 C573 1.506 . S
C1132 C215 1.492 . S
C1134 C489 1.510 . S
C1145 C577 1.446 . S
C1143 C177 1.507 . S
C1154 C196 1.463 . S
C1156 C405 1.476 1_556 S
C1167 C398 1.506 . S
C1165 C220 1.462 . S
C1178 C482 1.523 . S
C1176 C182 1.500 . S
C1187 C201 1.471 . S
C1189 C584 1.513 1_556 S
C1198 C258 1.458 . S
C1200 C500 1.484 . S
C1209 C277 1.447 . S
C1211 C566 1.483 . S
C1222 C416 1.468 . S
C1220 C239 1.440 . S
C1233 C661 1.443 . S
C1231 C25 1.501 . S
C1242 C44 1.536 . S
C1244 C745 1.483 . S
C1253 C6 1.494 . S
C1255 C825 1.505 . S
C1264 C329 1.493 . S
C1266 C741 1.509 . S
C1275 C291 1.507 . S
C1277 C829 1.441 . S
C1286 C310 1.465 . S
C1288 C657 1.475 . S
C1297 C334 1.466 . S
C1299 C650 1.507 . S
C1308 C296 1.489 . S
C1310 C734 1.527 . S
C1321 C836 1.506 . S
C1319 C315 1.483 . S
C1330 C30 1.454 . S
C1332 C752 1.486 . S
C1343 C818 1.483 . S
C1341 C49 1.446 . S
C1352 C11 1.435 . S
C1354 C668 1.471 . S
C1365 C913 1.448 . S
C1363 C139 1.504 . S
C1374 C158 1.539 . S
C1376 C997 1.486 . S
C1387 C1077 1.506 . S
C1385 C120 1.493 . S
C1398 C993 1.508 . S
C1396 C101 1.495 . S
C1409 C1081 1.441 . S
C1407 C63 1.506 . S
C1418 C82 1.461 . S
C1420 C909 1.476 . S
C1429 C106 1.465 . S
C1431 C902 1.507 . S
C1440 C68 1.494 . S
C1442 C986 1.524 . S
C1453 C1088 1.506 . S
C1451 C87 1.483 . S
C1462 C144 1.456 . S
C1464 C1004 1.489 . S
C1473 C163 1.453 . S
C1475 C1070 1.481 . S
C1484 C125 1.429 . S
C1486 C920 1.472 . S
C1495 C287 1.658 . S
C1497 C412 1.571 . S
C1508 C496 1.587 . S
C1506 C306 1.706 . S
C1517 C325 1.652 . S
C1519 C568 1.453 . S
C1528 C116 1.663 . S
C1530 C484 1.440 . S
C1539 C135 1.666 . S
C1541 C580 1.545 . S
C1552 C400 1.434 . S
C1550 C154 1.614 . S
C1561 C59 1.655 . S
C1563 C664 1.562 . S
C1572 C78 1.705 . S
C1574 C748 1.583 . S
C1583 C97 1.650 . S
C1585 C820 1.447 . S
C1594 C230 1.669 . S
C1596 C736 1.440 . S
C1607 C832 1.555 . S
C1605 C249 1.666 . S
C1616 C268 1.614 . S
C1618 C652 1.434 . S
C1627 C173 1.655 . S
C1629 C916 1.563 . S
C1638 C192 1.707 . S
C1640 C1000 1.579 . S
C1651 C1072 1.449 . S
C1649 C211 1.657 . S
C1660 C2 1.669 . S
C1662 C988 1.439 . S
C1671 C21 1.667 . S
C1673 C1084 1.545 . S
C1682 C40 1.612 . S
C1684 C904 1.425 . S
