# Generated by pormake.
# Topology pyr, (3,6)-cn, num edge types: 1
# Building blocks:
#     Node 0, Type 0, BuildingBlock: BELTOD_clean_linker_0, # of connection points: 3
#     Node 1, Type 0, BuildingBlock: BELTOD_clean_linker_0, # of connection points: 3
#     Node 2, Type 0, BuildingBlock: BELTOD_clean_linker_0, # of connection points: 3
#     Node 3, Type 0, BuildingBlock: BELTOD_clean_linker_0, # of connection points: 3
#     Node 4, Type 0, BuildingBlock: BELTOD_clean_linker_0, # of connection points: 3
#     Node 5, Type 0, BuildingBlock: BELTOD_clean_linker_0, # of connection points: 3
#     Node 6, Type 0, BuildingBlock: BELTOD_clean_linker_0, # of connection points: 3
#     Node 7, Type 0, BuildingBlock: BELTOD_clean_linker_0, # of connection points: 3
#     Node 8, Type 1, BuildingBlock: JUFBIX_clean_sbu_0, # of connection points: 6
#     Node 9, Type 1, BuildingBlock: JUFBIX_clean_sbu_0, # of connection points: 6
#     Node 10, Type 1, BuildingBlock: JUFBIX_clean_sbu_0, # of connection points: 6
#     Node 11, Type 1, BuildingBlock: JUFBIX_clean_sbu_0, # of connection points: 6
#     Edge 12, Type (0, 1), BuildingBlock: XUDNAN_clean_linker_2, # of connection points: 2
#     Edge 13, Type (0, 1), BuildingBlock: XUDNAN_clean_linker_2, # of connection points: 2
#     Edge 14, Type (0, 1), BuildingBlock: XUDNAN_clean_linker_2, # of connection points: 2
#     Edge 15, Type (0, 1), BuildingBlock: XUDNAN_clean_linker_2, # of connection points: 2
#     Edge 16, Type (0, 1), BuildingBlock: XUDNAN_clean_linker_2, # of connection points: 2
#     Edge 17, Type (0, 1), BuildingBlock: XUDNAN_clean_linker_2, # of connection points: 2
#     Edge 18, Type (0, 1), BuildingBlock: XUDNAN_clean_linker_2, # of connection points: 2
#     Edge 19, Type (0, 1), BuildingBlock: XUDNAN_clean_linker_2, # of connection points: 2
#     Edge 20, Type (0, 1), BuildingBlock: XUDNAN_clean_linker_2, # of connection points: 2
#     Edge 21, Type (0, 1), BuildingBlock: XUDNAN_clean_linker_2, # of connection points: 2
#     Edge 22, Type (0, 1), BuildingBlock: XUDNAN_clean_linker_2, # of connection points: 2
#     Edge 23, Type (0, 1), BuildingBlock: XUDNAN_clean_linker_2, # of connection points: 2
#     Edge 24, Type (0, 1), BuildingBlock: XUDNAN_clean_linker_2, # of connection points: 2
#     Edge 25, Type (0, 1), BuildingBlock: XUDNAN_clean_linker_2, # of connection points: 2
#     Edge 26, Type (0, 1), BuildingBlock: XUDNAN_clean_linker_2, # of connection points: 2
#     Edge 27, Type (0, 1), BuildingBlock: XUDNAN_clean_linker_2, # of connection points: 2
#     Edge 28, Type (0, 1), BuildingBlock: XUDNAN_clean_linker_2, # of connection points: 2
#     Edge 29, Type (0, 1), BuildingBlock: XUDNAN_clean_linker_2, # of connection points: 2
#     Edge 30, Type (0, 1), BuildingBlock: XUDNAN_clean_linker_2, # of connection points: 2
#     Edge 31, Type (0, 1), BuildingBlock: XUDNAN_clean_linker_2, # of connection points: 2
#     Edge 32, Type (0, 1), BuildingBlock: XUDNAN_clean_linker_2, # of connection points: 2
#     Edge 33, Type (0, 1), BuildingBlock: XUDNAN_clean_linker_2, # of connection points: 2
#     Edge 34, Type (0, 1), BuildingBlock: XUDNAN_clean_linker_2, # of connection points: 2
#     Edge 35, Type (0, 1), BuildingBlock: XUDNAN_clean_linker_2, # of connection points: 2
# Relax obj value: 0.052
# Max RMSD: 0.092
# Mean RMSD: 0.040
data_MOF--net-pry--node1-JUFBIX_clean_sbu_0--node2-BELTOD_clean_linker_0--edge1-XUDNAN_clean_linker_2
_symmetry_space_group_name_H-M    P1
_symmetry_Int_Tables_number       1
_symmetry_cell_setting            triclinic
loop_
_symmetry_equiv_pos_as_xyz
'x, y, z'
_cell_length_a     42.826651
_cell_length_b     40.88269
_cell_length_c     42.517875
_cell_angle_alpha  85.354047
_cell_angle_beta   90.595043
_cell_angle_gamma 91.573658
loop_
_atom_site_label
_atom_site_type_symbol
_atom_site_fract_x
_atom_site_fract_y
_atom_site_fract_z
_atom_type_partial_charge
P0 P 0.2055 0.18108 0.18683 0.0
H1 H 0.24993 0.20049 0.13592 0.0
H2 H 0.29171 0.17113 0.11201 0.0
H3 H 0.26023 0.08116 0.16332 0.0
H4 H 0.21827 0.11032 0.18656 0.0
H5 H 0.16554 0.23018 0.20892 0.0
H6 H 0.13312 0.27271 0.18296 0.0
H7 H 0.16065 0.24429 0.09199 0.0
H8 H 0.19269 0.20072 0.11827 0.0
H9 H 0.2211 0.14181 0.24563 0.0
H10 H 0.13769 0.16492 0.19187 0.0
O11 O 0.2304 0.2024 0.20824 0.0
H12 H 0.18961 0.11233 0.28704 0.0
H13 H 0.10593 0.13731 0.23363 0.0
C14 C 0.23037 0.15769 0.16276 0.0
C15 C 0.2512 0.17418 0.14109 0.0
C16 C 0.27524 0.15737 0.12745 0.0
C17 C 0.2795 0.12377 0.13579 0.0
C18 C 0.25776 0.10706 0.15644 0.0
C19 C 0.23354 0.12377 0.1697 0.0
C20 C 0.18149 0.21194 0.16572 0.0
C21 C 0.16462 0.23288 0.18337 0.0
C22 C 0.14613 0.25733 0.16849 0.0
C23 C 0.14435 0.26199 0.1354 0.0
C24 C 0.16179 0.24151 0.11752 0.0
C25 C 0.18001 0.21648 0.13257 0.0
C26 C 0.18192 0.15582 0.21552 0.0
C27 C 0.19596 0.1405 0.24267 0.0
C28 C 0.17777 0.12392 0.26664 0.0
C29 C 0.14488 0.12235 0.26425 0.0
C30 C 0.13105 0.13727 0.23654 0.0
C31 C 0.1493 0.15345 0.21247 0.0
P32 P 0.44606 0.89863 0.59543 0.0
H33 H 0.50289 0.92845 0.62118 0.0
H34 H 0.51557 0.94784 0.6727 0.0
H35 H 0.42266 0.91828 0.70487 0.0
H36 H 0.41124 0.89701 0.65421 0.0
H37 H 0.48835 0.84832 0.57774 0.0
H38 H 0.48386 0.78854 0.58045 0.0
H39 H 0.39349 0.792 0.62432 0.0
H40 H 0.39779 0.85196 0.6205 0.0
H41 H 0.40474 0.95 0.61523 0.0
H42 H 0.40675 0.88239 0.54256 0.0
O43 O 0.47359 0.91159 0.56949 0.0
H44 H 0.35171 0.964 0.60024 0.0
H45 H 0.35451 0.89848 0.52533 0.0
C46 C 0.4559 0.91192 0.6337 0.0
C47 C 0.48538 0.92599 0.63946 0.0
C48 C 0.4925 0.93732 0.66893 0.0
C49 C 0.47009 0.93505 0.69309 0.0
C50 C 0.4408 0.9201 0.68724 0.0
C51 C 0.43403 0.90817 0.65805 0.0
C52 C 0.44329 0.85452 0.59862 0.0
C53 C 0.46758 0.83622 0.58792 0.0
C54 C 0.46506 0.80198 0.58977 0.0
C55 C 0.4383 0.78541 0.60269 0.0
C56 C 0.41422 0.80396 0.6139 0.0
C57 C 0.41675 0.83822 0.61193 0.0
C58 C 0.40918 0.914 0.58093 0.0
C59 C 0.39386 0.93824 0.59589 0.0
C60 C 0.36354 0.94675 0.58681 0.0
C61 C 0.34833 0.93195 0.56186 0.0
C62 C 0.36491 0.90957 0.54534 0.0
C63 C 0.39496 0.90056 0.55494 0.0
P64 P 0.70536 0.33214 0.84242 0.0
H65 H 0.74168 0.32039 0.90103 0.0
H66 H 0.7859 0.35037 0.92315 0.0
H67 H 0.77495 0.42891 0.85004 0.0
H68 H 0.73064 0.39906 0.82824 0.0
H69 H 0.68287 0.26558 0.83401 0.0
H70 H 0.65475 0.22401 0.86785 0.0
H71 H 0.6494 0.29218 0.94006 0.0
H72 H 0.67826 0.33364 0.90599 0.0
H73 H 0.71162 0.36017 0.77736 0.0
H74 H 0.64135 0.35545 0.84954 0.0
O75 O 0.72773 0.31085 0.81998 0.0
H76 H 0.67497 0.38637 0.73955 0.0
H77 H 0.60453 0.38222 0.81193 0.0
C78 C 0.73219 0.35776 0.86338 0.0
C79 C 0.74801 0.3446 0.89042 0.0
C80 C 0.77344 0.36172 0.90301 0.0
C81 C 0.78405 0.39197 0.88829 0.0
C82 C 0.76749 0.40556 0.86183 0.0
C83 C 0.7419 0.38861 0.84949 0.0
C84 C 0.68344 0.3024 0.86781 0.0
C85 C 0.67577 0.27159 0.85718 0.0
C86 C 0.65934 0.24789 0.87648 0.0
C87 C 0.64988 0.25457 0.90684 0.0
C88 C 0.65679 0.28595 0.91706 0.0
C89 C 0.67325 0.30972 0.89762 0.0
C90 C 0.67909 0.3553 0.81613 0.0
C91 C 0.68836 0.36509 0.78518 0.0
C92 C 0.66737 0.38031 0.76359 0.0
C93 C 0.63661 0.38619 0.77253 0.0
C94 C 0.62783 0.37753 0.80403 0.0
C95 C 0.64893 0.36236 0.82565 0.0
P96 P 0.87125 0.68869 0.39307 0.0
H97 H 0.8743 0.75644 0.40832 0.0
H98 H 0.91598 0.79074 0.42844 0.0
H99 H 0.97678 0.70782 0.43689 0.0
H100 H 0.93431 0.67309 0.41676 0.0
H101 H 0.85008 0.62595 0.37036 0.0
H102 H 0.86324 0.59947 0.32277 0.0
H103 H 0.93644 0.67266 0.30247 0.0
H104 H 0.9232 0.69904 0.34977 0.0
H105 H 0.81432 0.70182 0.42509 0.0
H106 H 0.88278 0.62615 0.43014 0.0
O107 O 0.84661 0.71428 0.37373 0.0
H108 H 0.78338 0.67057 0.46492 0.0
H109 H 0.85197 0.59451 0.47122 0.0
C110 C 0.90163 0.71259 0.41022 0.0
C111 C 0.89655 0.74555 0.41439 0.0
C112 C 0.92043 0.76514 0.4258 0.0
C113 C 0.94982 0.75205 0.43339 0.0
C114 C 0.95441 0.71849 0.43085 0.0
C115 C 0.93032 0.69878 0.41932 0.0
C116 C 0.88619 0.66397 0.36402 0.0
C117 C 0.86973 0.63554 0.35633 0.0
C118 C 0.87718 0.62049 0.32911 0.0
C119 C 0.90071 0.6342 0.30896 0.0
C120 C 0.91807 0.66175 0.31756 0.0
C121 C 0.91073 0.67663 0.34477 0.0
C122 C 0.85026 0.66578 0.4241 0.0
C123 C 0.82281 0.67847 0.43503 0.0
C124 C 0.80536 0.66073 0.45828 0.0
C125 C 0.81529 0.63004 0.47147 0.0
C126 C 0.84364 0.61796 0.46136 0.0
C127 C 0.86117 0.6359 0.43792 0.0
P128 P 0.85133 0.87071 0.86661 0.0
H129 H 0.82584 0.86723 0.9292 0.0
H130 H 0.77561 0.87846 0.95106 0.0
H131 H 0.73796 0.89827 0.85704 0.0
H132 H 0.78943 0.88732 0.83501 0.0
H133 H 0.89027 0.85662 0.9229 0.0
H134 H 0.91082 0.80658 0.94932 0.0
H135 H 0.86678 0.74965 0.87932 0.0
H136 H 0.84538 0.80036 0.85293 0.0
H137 H 0.83555 0.92195 0.81629 0.0
H138 H 0.89121 0.83538 0.82525 0.0
O139 O 0.87182 0.90107 0.88179 0.0
H140 H 0.86054 0.93878 0.76555 0.0
H141 H 0.91564 0.85179 0.7751 0.0
C142 C 0.81162 0.87579 0.88038 0.0
C143 C 0.80679 0.87349 0.91306 0.0
C144 C 0.77777 0.87998 0.92563 0.0
C145 C 0.75219 0.88894 0.90598 0.0
C146 C 0.757 0.89155 0.87302 0.0
C147 C 0.78643 0.88501 0.86033 0.0
C148 C 0.86659 0.83259 0.88546 0.0
C149 C 0.88503 0.83357 0.9129 0.0
C150 C 0.89683 0.8048 0.92812 0.0
C151 C 0.89072 0.7741 0.91631 0.0
C152 C 0.87229 0.77297 0.88875 0.0
C153 C 0.85992 0.80191 0.87376 0.0
C154 C 0.86048 0.8767 0.82463 0.0
C155 C 0.8519 0.90566 0.80679 0.0
C156 C 0.86644 0.91547 0.77778 0.0
C157 C 0.89036 0.89681 0.76627 0.0
C158 C 0.89751 0.86694 0.78327 0.0
C159 C 0.88301 0.85719 0.81204 0.0
P160 P 0.65544 0.20154 0.36201 0.0
H161 H 0.68551 0.24446 0.40437 0.0
H162 H 0.66858 0.29272 0.42873 0.0
H163 H 0.57599 0.27943 0.38958 0.0
H164 H 0.59285 0.23021 0.36613 0.0
H165 H 0.72044 0.18391 0.35412 0.0
H166 H 0.756 0.15002 0.38713 0.0
H167 H 0.68465 0.13326 0.45806 0.0
H168 H 0.64921 0.16818 0.42517 0.0
H169 H 0.60824 0.21258 0.31283 0.0
H170 H 0.63944 0.13082 0.37479 0.0
O171 O 0.67517 0.21988 0.33155 0.0
H172 H 0.57517 0.17498 0.28432 0.0
H173 H 0.60677 0.09347 0.34633 0.0
C174 C 0.64044 0.23359 0.38359 0.0
C175 C 0.66136 0.25146 0.40156 0.0
C176 C 0.65174 0.27928 0.4152 0.0
C177 C 0.62106 0.29016 0.41069 0.0
C178 C 0.59974 0.27155 0.39358 0.0
C179 C 0.60942 0.24348 0.38001 0.0
C180 C 0.68224 0.17845 0.38725 0.0
C181 C 0.71253 0.17341 0.37694 0.0
C182 C 0.73286 0.15416 0.39584 0.0
C183 C 0.72298 0.13923 0.42509 0.0
C184 C 0.69272 0.1446 0.43558 0.0
C185 C 0.67258 0.16447 0.4169 0.0
C186 C 0.62628 0.17473 0.34608 0.0
C187 C 0.6073 0.18676 0.32092 0.0
C188 C 0.58837 0.16527 0.30469 0.0
C189 C 0.58852 0.13132 0.31313 0.0
C190 C 0.60634 0.11953 0.33931 0.0
C191 C 0.62501 0.14105 0.35568 0.0
P192 P 0.35275 0.64348 0.17996 0.0
H193 H 0.29359 0.67635 0.19053 0.0
H194 H 0.23908 0.66338 0.17647 0.0
H195 H 0.26827 0.57391 0.13937 0.0
H196 H 0.32219 0.58709 0.15302 0.0
H197 H 0.3839 0.65893 0.11972 0.0
H198 H 0.40091 0.71007 0.09085 0.0
H199 H 0.36169 0.76505 0.16267 0.0
H200 H 0.3439 0.71331 0.19149 0.0
H201 H 0.34208 0.59323 0.23167 0.0
H202 H 0.38999 0.6874 0.21895 0.0
O203 O 0.37417 0.61492 0.16522 0.0
H204 H 0.36673 0.58346 0.28349 0.0
H205 H 0.41229 0.67933 0.27133 0.0
C206 C 0.3121 0.63287 0.1727 0.0
C207 C 0.28816 0.65388 0.17954 0.0
C208 C 0.25699 0.64637 0.17154 0.0
C209 C 0.24925 0.61774 0.15642 0.0
C210 C 0.27335 0.59648 0.15036 0.0
C211 C 0.30432 0.60393 0.15843 0.0
C212 C 0.36334 0.68214 0.15829 0.0
C213 C 0.37885 0.68186 0.12942 0.0
C214 C 0.3885 0.71118 0.11279 0.0
C215 C 0.38293 0.74156 0.12465 0.0
C216 C 0.3667 0.74195 0.15322 0.0
C217 C 0.35647 0.71245 0.16962 0.0
C218 C 0.36343 0.64137 0.22141 0.0
C219 C 0.35682 0.61245 0.24053 0.0
C220 C 0.37102 0.6069 0.27033 0.0
C221 C 0.39206 0.63036 0.2818 0.0
C222 C 0.39701 0.66017 0.26323 0.0
C223 C 0.38346 0.66527 0.23322 0.0
P224 P 0.11978 0.33969 0.65132 0.0
H225 H 0.11333 0.3209 0.58659 0.0
H226 H 0.07437 0.28666 0.56172 0.0
H227 H 0.01852 0.2821 0.64579 0.0
H228 H 0.05678 0.31805 0.67024 0.0
H229 H 0.18612 0.35205 0.65865 0.0
H230 H 0.22463 0.38476 0.62702 0.0
H231 H 0.15274 0.41426 0.55944 0.0
H232 H 0.11383 0.38209 0.59191 0.0
H233 H 0.10398 0.32397 0.71752 0.0
H234 H 0.10849 0.41002 0.65172 0.0
O235 O 0.13852 0.30766 0.66855 0.0
H236 H 0.09628 0.35875 0.76088 0.0
H237 H 0.10116 0.44486 0.695 0.0
C238 C 0.0875 0.32309 0.62991 0.0
C239 C 0.09188 0.31436 0.59906 0.0
C240 C 0.06965 0.29467 0.58484 0.0
C241 C 0.04334 0.28242 0.60173 0.0
C242 C 0.03833 0.29204 0.63215 0.0
C243 C 0.06021 0.31247 0.64608 0.0
C244 C 0.14744 0.36358 0.62693 0.0
C245 C 0.1786 0.36542 0.63699 0.0
C246 C 0.20049 0.38441 0.61911 0.0
C247 C 0.19155 0.40191 0.59082 0.0
C248 C 0.16015 0.40072 0.58106 0.0
C249 C 0.13807 0.38212 0.59938 0.0
C250 C 0.10758 0.36453 0.68162 0.0
C251 C 0.10281 0.35029 0.71234 0.0
C252 C 0.09828 0.37013 0.73705 0.0
C253 C 0.09864 0.40445 0.73125 0.0
C254 C 0.10132 0.41846 0.70009 0.0
C255 C 0.10548 0.39858 0.67538 0.0
Co256 Co 0.99368 0.00856 0.50568 0.0
C257 C 0.02665 0.95132 0.50238 0.0
Co258 Co 0.04158 0.01057 0.52511 0.0
C259 C 0.92806 0.0208 0.49707 0.0
C260 C 0.94362 0.98518 0.46692 0.0
N261 N 0.95371 1.00505 0.48902 0.0
N262 N 0.90249 0.01127 0.48115 0.0
C263 C 0.91205 0.98882 0.46218 0.0
H264 H 0.92798 0.03877 0.51442 0.0
H265 H 0.95824 0.96914 0.45483 0.0
C266 C 1.0085 0.06787 0.5284 0.0
N267 N 0.08155 0.01338 0.54162 0.0
C268 C 0.10676 0.99851 0.53131 0.0
C269 C 0.09193 0.02894 0.56667 0.0
N270 N 0.13236 1.00374 0.54905 0.0
C271 C 0.1233 0.02313 0.57124 0.0
C272 C 0.03838 0.03083 0.4605 0.0
O273 O 0.98701 0.05249 0.51453 0.0
O274 O 0.03416 0.05398 0.53518 0.0
O275 O 0.05701 0.02727 0.48402 0.0
O276 O 1.00945 0.02386 0.46479 0.0
O277 O 0.04865 0.96675 0.51532 0.0
H278 H 0.07749 0.04291 0.58112 0.0
H279 H 0.10628 0.98376 0.51129 0.0
O280 O 1.00084 0.9651 0.49673 0.0
O281 O 0.97804 0.99293 0.54697 0.0
O282 O 0.02592 0.99399 0.56561 0.0
C283 C 0.99689 0.98789 0.57015 0.0
H284 H 0.89743 0.97674 0.44546 0.0
H285 H 0.13793 0.03135 0.59011 0.0
Co286 Co 0.50245 1.00415 0.99842 0.0
C287 C 0.48744 0.94652 0.03715 0.0
Co288 Co 0.52642 0.99958 0.04454 0.0
C289 C 0.49336 0.00698 0.93087 0.0
C290 C 0.4507 0.99783 0.95634 0.0
N291 N 0.48142 1.00471 0.96025 0.0
N292 N 0.47139 1.00113 0.90894 0.0
C293 C 0.4445 0.99543 0.92483 0.0
H294 H 0.51801 0.01063 0.92586 0.0
H295 H 0.43421 0.99303 0.97536 0.0
C296 C 0.54117 0.05733 1.00569 0.0
N297 N 0.54731 0.9989 0.08297 0.0
C298 C 0.53464 1.00071 0.11168 0.0
C299 C 0.57833 1.0027 0.08763 0.0
N300 N 0.55631 0.00669 0.13391 0.0
C301 C 0.58393 0.00748 0.11887 0.0
C302 C 0.56045 0.97253 0.99789 0.0
O303 O 0.52152 0.04574 0.98664 0.0
O304 O 0.54664 0.04104 0.0319 0.0
O305 O 0.55975 0.97696 0.02711 0.0
O306 O 0.53781 0.9827 0.98034 0.0
O307 O 0.50602 0.95853 0.05698 0.0
H308 H 0.59556 1.00447 0.06911 0.0
H309 H 0.50978 0.99957 0.11582 0.0
O310 O 0.48343 0.96224 0.01042 0.0
O311 O 0.4673 0.02563 0.01698 0.0
O312 O 0.4928 0.02172 0.06177 0.0
C313 C 0.46851 0.03038 0.04623 0.0
H314 H 0.42225 0.98876 0.9145 0.0
H315 H 0.60634 0.01396 0.12897 0.0
Co316 Co 0.52657 0.53372 0.53676 0.0
C317 C 0.48804 0.54855 0.48475 0.0
Co318 Co 0.48337 0.50336 0.5373 0.0
C319 C 0.59174 0.54848 0.54159 0.0
C320 C 0.56572 0.59236 0.53333 0.0
N321 N 0.56248 0.55941 0.53735 0.0
N322 N 0.61328 0.57318 0.54008 0.0
C323 C 0.59698 0.60091 0.53498 0.0
H324 H 0.59709 0.52273 0.54541 0.0
H325 H 0.54666 0.60898 0.52888 0.0
C326 C 0.5221 0.48837 0.58914 0.0
N327 N 0.44776 0.47694 0.53656 0.0
C328 C 0.41782 0.48611 0.53301 0.0
C329 C 0.44658 0.44388 0.53672 0.0
N330 N 0.39828 0.46011 0.53036 0.0
C331 C 0.41612 0.43348 0.53271 0.0
C332 C 0.5335 0.47751 0.50684 0.0
O333 O 0.53929 0.51077 0.57527 0.0
O334 O 0.49585 0.48118 0.57678 0.0
O335 O 0.50528 0.47216 0.51503 0.0
O336 O 0.54733 0.50369 0.51391 0.0
O337 O 0.47109 0.52551 0.498 0.0
H338 H 0.46661 0.42831 0.53923 0.0
H339 H 0.41051 0.51133 0.5317 0.0
O340 O 0.51365 0.55654 0.49795 0.0
O341 O 0.50591 0.56383 0.55947 0.0
O342 O 0.4619 0.53518 0.55931 0.0
C343 C 0.47731 0.56051 0.56676 0.0
H344 H 0.60696 0.62553 0.53136 0.0
H345 H 0.4076 0.40836 0.53207 0.0
Co346 Co 0.02732 0.51587 1.00501 0.0
C347 C 0.9698 0.48612 0.99168 0.0
Co348 Co 0.99559 0.51099 0.04541 0.0
C349 C 0.0585 0.50067 0.94819 0.0
C350 C 0.07089 0.54838 0.9624 0.0
N351 N 0.05368 0.52108 0.97092 0.0
N352 N 0.07794 0.51429 0.9256 0.0
C353 C 0.08578 0.54432 0.93464 0.0
H354 H 0.04751 0.47654 0.94809 0.0
H355 H 0.07178 0.57029 0.97509 0.0
C356 C 0.05335 0.54078 0.05861 0.0
N357 N 0.96939 0.50712 0.07962 0.0
C358 C 0.96293 0.53178 0.09739 0.0
C359 C 0.95306 0.48084 0.09267 0.0
N360 N 0.94316 0.52224 0.12095 0.0
C361 C 0.93697 0.49008 0.11836 0.0
C362 C 0.03389 0.45703 0.04305 0.0
O363 O 0.0582 0.53645 0.02987 0.0
O364 O 0.0271 0.53161 0.07049 0.0
O365 O 0.01213 0.46947 0.05787 0.0
O366 O 0.04492 0.47311 0.01843 0.0
O367 O 0.96433 0.49049 0.02038 0.0
H368 H 0.95294 0.45663 0.08412 0.0
H369 H 0.97311 0.55628 0.09345 0.0
O370 O 0.9963 0.49516 0.98026 0.0
O371 O 1.00936 0.55845 0.99183 0.0
O372 O 0.97884 0.55261 0.0328 0.0
C373 C 0.98785 0.56959 0.00811 0.0
H374 H 0.1002 0.56272 0.92157 0.0
H375 H 0.92173 0.47455 0.13367 0.0
H376 H 0.1559 0.1169 0.32946 0.0
H377 H 0.08854 0.08867 0.25874 0.0
H378 H 0.05463 0.06347 0.30076 0.0
H379 H 0.14612 0.04144 0.38105 0.0
H380 H 0.15077 0.062 0.41681 0.0
H381 H 0.16986 0.07854 0.3812 0.0
H382 H 0.14328 0.13407 0.38565 0.0
H383 H 0.12401 0.11765 0.42118 0.0
H384 H 0.10133 0.13501 0.38831 0.0
H385 H 0.02661 0.0427 0.35056 0.0
H386 H 1.00829 0.02489 0.4042 0.0
H387 H 0.09475 0.06254 0.44343 0.0
C388 C 0.13425 0.1051 0.32259 0.0
C389 C 0.12504 0.10549 0.29029 0.0
C390 C 0.09613 0.08983 0.28298 0.0
C391 C 0.07666 0.07506 0.30681 0.0
C392 C 0.0863 0.07553 0.33818 0.0
C393 C 0.11458 0.0898 0.34617 0.0
C394 C 0.11948 0.0864 0.38183 0.0
C395 C 0.14827 0.06587 0.39074 0.0
C396 C 0.12218 0.1203 0.39501 0.0
C397 C 0.08946 0.06822 0.39259 0.0
C398 C 0.0706 0.06242 0.36695 0.0
C399 C 0.04132 0.04691 0.37076 0.0
C400 C 0.03105 0.03695 0.40144 0.0
C401 C 0.05001 0.04212 0.42823 0.0
C402 C 0.07973 0.05795 0.42354 0.0
H403 H 0.44901 0.91176 0.75194 0.0
H404 H 0.5058 0.99016 0.70443 0.0
H405 H 0.51475 0.0141 0.75522 0.0
H406 H 0.4099 0.96334 0.80092 0.0
H407 H 0.40781 0.93313 0.8342 0.0
H408 H 0.40868 0.92021 0.79475 0.0
H409 H 0.45707 0.88523 0.80949 0.0
H410 H 0.45631 0.89798 0.84904 0.0
H411 H 0.49128 0.9044 0.82588 0.0
H412 H 0.51653 0.03022 0.81166 0.0
H413 H 0.50828 0.03844 0.86821 0.0
H414 H 0.44652 0.95258 0.87653 0.0
C415 C 0.46323 0.93405 0.75195 0.0
C416 C 0.47678 0.94885 0.72394 0.0
C417 C 0.49566 0.97778 0.72551 0.0
C418 C 0.50072 0.99177 0.75427 0.0
C419 C 0.48652 0.97678 0.78123 0.0
C420 C 0.468 0.94867 0.78022 0.0
C421 C 0.45383 0.93835 0.81203 0.0
C422 C 0.41793 0.9388 0.81036 0.0
C423 C 0.46532 0.90449 0.82486 0.0
C424 C 0.467 0.96525 0.83106 0.0
C425 C 0.48621 0.98693 0.81309 0.0
C426 C 0.50142 0.01347 0.8259 0.0
C427 C 0.49668 0.01796 0.8579 0.0
C428 C 0.47648 0.9964 0.87634 0.0
C429 C 0.4616 0.96974 0.86269 0.0
H430 H 0.64597 0.4351 0.72453 0.0
H431 H 0.57497 0.3675 0.76593 0.0
H432 H 0.53742 0.38745 0.72479 0.0
H433 H 0.59416 0.50195 0.70106 0.0
H434 H 0.61459 0.51334 0.6648 0.0
H435 H 0.63538 0.49488 0.69846 0.0
H436 H 0.65426 0.44938 0.66468 0.0
H437 H 0.63347 0.46767 0.63097 0.0
H438 H 0.6259 0.42523 0.6443 0.0
H439 H 0.50824 0.41276 0.67712 0.0
H440 H 0.48953 0.44273 0.62795 0.0
H441 H 0.57959 0.49366 0.61776 0.0
C442 C 0.62252 0.42448 0.72502 0.0
C443 C 0.61349 0.39975 0.74868 0.0
C444 C 0.58241 0.38682 0.74848 0.0
C445 C 0.56093 0.39785 0.72504 0.0
C446 C 0.57073 0.42195 0.70191 0.0
C447 C 0.60076 0.43525 0.70183 0.0
C448 C 0.60558 0.46046 0.67402 0.0
C449 C 0.61285 0.49468 0.68526 0.0
C450 C 0.63132 0.45005 0.65221 0.0
C451 C 0.57372 0.45898 0.65825 0.0
C452 C 0.55391 0.43664 0.67469 0.0
C453 C 0.5235 0.43048 0.66419 0.0
C454 C 0.51308 0.44759 0.63619 0.0
C455 C 0.53297 0.47068 0.619 0.0
C456 C 0.56366 0.47637 0.6304 0.0
H457 H 0.90732 0.57059 0.29389 0.0
H458 H 0.90298 0.67118 0.25309 0.0
H459 H 0.90941 0.65236 0.19997 0.0
H460 H 0.96652 0.54628 0.2431 0.0
H461 H 0.95043 0.50544 0.24008 0.0
H462 H 0.94355 0.52648 0.27484 0.0
H463 H 0.88384 0.51815 0.26699 0.0
H464 H 0.89056 0.49724 0.23205 0.0
H465 H 0.86597 0.53245 0.23001 0.0
H466 H 0.91783 0.6237 0.15209 0.0
H467 H 0.93096 0.58665 0.11158 0.0
H468 H 0.93084 0.50429 0.18264 0.0
C469 C 0.90748 0.5885 0.27367 0.0
C470 C 0.90482 0.6223 0.27745 0.0
C471 C 0.90541 0.6452 0.25062 0.0
C472 C 0.90875 0.63475 0.22039 0.0
C473 C 0.91145 0.60132 0.21742 0.0
C474 C 0.91104 0.57849 0.24324 0.0
C475 C 0.91611 0.54422 0.23341 0.0
C476 C 0.94593 0.52977 0.24877 0.0
C477 C 0.8874 0.52169 0.24107 0.0
C478 C 0.91983 0.55154 0.19812 0.0
C479 C 0.91671 0.58462 0.18948 0.0
C480 C 0.92025 0.59773 0.15848 0.0
C481 C 0.92786 0.57655 0.13571 0.0
C482 C 0.93204 0.54271 0.14408 0.0
C483 C 0.92735 0.52997 0.17559 0.0
H484 H 0.30663 0.12243 0.0762 0.0
H485 H 0.31847 0.08784 0.1747 0.0
H486 H 0.36718 0.06139 0.16191 0.0
H487 H 0.33563 0.04828 0.0447 0.0
H488 H 0.35515 0.07003 0.01162 0.0
H489 H 0.32112 0.08696 0.02808 0.0
H490 H 0.35254 0.14058 0.03637 0.0
H491 H 0.38669 0.12378 0.02002 0.0
H492 H 0.3885 0.13864 0.05878 0.0
H493 H 0.41528 0.04063 0.1399 0.0
H494 H 0.45869 0.02243 0.10926 0.0
H495 H 0.41679 0.06648 0.02306 0.0
C496 C 0.31951 0.10921 0.09499 0.0
C497 C 0.30847 0.10712 0.12656 0.0
C498 C 0.32604 0.08948 0.15038 0.0
C499 C 0.35392 0.07451 0.14336 0.0
C500 C 0.3641 0.07691 0.11222 0.0
C501 C 0.3474 0.09344 0.08824 0.0
C502 C 0.36365 0.09127 0.05667 0.0
C503 C 0.34263 0.07305 0.03392 0.0
C504 C 0.37342 0.12562 0.0421 0.0
C505 C 0.39214 0.07125 0.06682 0.0
C506 C 0.39182 0.06364 0.09909 0.0
C507 C 0.41568 0.04626 0.11459 0.0
C508 C 0.44046 0.03612 0.09683 0.0
C509 C 0.44152 0.04289 0.06357 0.0
C510 C 0.41677 0.0607 0.04836 0.0
H511 H 0.31636 0.98938 0.56601 0.0
H512 H 0.30374 0.88844 0.54198 0.0
H513 H 0.24786 0.89752 0.53262 0.0
H514 H 0.24697 0.9896 0.61064 0.0
H515 H 0.23826 0.03171 0.59876 0.0
H516 H 0.27814 0.01881 0.59999 0.0
H517 H 0.28494 0.04044 0.5414 0.0
H518 H 0.24507 0.0535 0.54 0.0
H519 H 0.25832 0.02618 0.51202 0.0
H520 H 0.19307 0.91622 0.5283 0.0
H521 H 0.14239 0.94297 0.53125 0.0
H522 H 0.18948 0.03034 0.56177 0.0
C523 C 0.30199 0.9691 0.55876 0.0
C524 C 0.31485 0.93826 0.55439 0.0
C525 C 0.29492 0.9126 0.54464 0.0
C526 C 0.26298 0.9174 0.5395 0.0
C527 C 0.25113 0.94787 0.5445 0.0
C528 C 0.26993 0.97325 0.55405 0.0
C529 C 0.2509 1.00289 0.55976 0.0
C530 C 0.25374 0.01122 0.59434 0.0
C531 C 0.26037 0.0325 0.53693 0.0
C532 C 0.21841 0.98997 0.55231 0.0
C533 C 0.21918 0.95834 0.54314 0.0
C534 C 0.19216 0.94105 0.53526 0.0
C535 C 0.16353 0.95649 0.53687 0.0
C536 C 0.1621 0.98874 0.54661 0.0
C537 C 0.18995 0.00563 0.55441 0.0
H538 H 0.80405 0.40277 0.94886 0.0
H539 H 0.83186 0.4163 0.85072 0.0
H540 H 0.88229 0.44075 0.86666 0.0
H541 H 0.83929 0.47899 0.97189 0.0
H542 H 0.85134 0.46182 0.01035 0.0
H543 H 0.81741 0.44503 0.99136 0.0
H544 H 0.84148 0.38739 0.99708 0.0
H545 H 0.87554 0.40405 0.01596 0.0
H546 H 0.87975 0.38189 0.98135 0.0
H547 H 0.93031 0.4622 0.89301 0.0
H548 H 0.97144 0.48296 0.92776 0.0
H549 H 0.91256 0.45763 0.00916 0.0
C550 C 0.82079 0.41089 0.93078 0.0
C551 C 0.8139 0.40775 0.89848 0.0
C552 C 0.83638 0.41886 0.87553 0.0
C553 C 0.86521 0.43257 0.88437 0.0
C554 C 0.87129 0.43529 0.91632 0.0
C555 C 0.84967 0.42507 0.93919 0.0
C556 C 0.86197 0.43155 0.97183 0.0
C557 C 0.84127 0.45579 0.98726 0.0
C558 C 0.86486 0.3993 0.99279 0.0
C559 C 0.8939 0.44685 0.96367 0.0
C560 C 0.89883 0.4485 0.93152 0.0
C561 C 0.92665 0.4612 0.91822 0.0
C562 C 0.94994 0.47287 0.93822 0.0
C563 C 0.94531 0.47208 0.97125 0.0
C564 C 0.91685 0.45872 0.98404 0.0
H565 H 0.77978 0.65085 0.51859 0.0
H566 H 0.80159 0.56421 0.47153 0.0
H567 H 0.75615 0.5349 0.49643 0.0
H568 H 0.73859 0.60674 0.59133 0.0
H569 H 0.71009 0.63847 0.59001 0.0
H570 H 0.74985 0.64846 0.57849 0.0
H571 H 0.72982 0.67441 0.5247 0.0
H572 H 0.69026 0.66407 0.53566 0.0
H573 H 0.70576 0.64991 0.50006 0.0
H574 H 0.7023 0.52047 0.5135 0.0
H575 H 0.64569 0.52178 0.5219 0.0
H576 H 0.65664 0.61856 0.55608 0.0
C577 C 0.77564 0.62529 0.51453 0.0
C578 C 0.79416 0.60985 0.4931 0.0
C579 C 0.78806 0.57642 0.48826 0.0
C580 C 0.76218 0.55957 0.50228 0.0
C581 C 0.74284 0.57641 0.52126 0.0
C582 C 0.74956 0.60846 0.52783 0.0
C583 C 0.72237 0.62318 0.54369 0.0
C584 C 0.73073 0.62957 0.57792 0.0
C585 C 0.71142 0.65471 0.52489 0.0
C586 C 0.6984 0.59545 0.54255 0.0
C587 C 0.71098 0.56827 0.53061 0.0
C588 C 0.69243 0.54117 0.52382 0.0
C589 C 0.66019 0.54216 0.52867 0.0
C590 C 0.6467 0.5703 0.53976 0.0
C591 C 0.6663 0.59675 0.54765 0.0
H592 H 0.15676 0.31351 0.08968 0.0
H593 H 0.08284 0.26704 0.14782 0.0
H594 H 0.0466 0.30962 0.12735 0.0
H595 H 0.13695 0.39581 0.10103 0.0
H596 H 0.1457 0.41242 0.06144 0.0
H597 H 0.16562 0.3768 0.07823 0.0
H598 H 0.14748 0.34449 0.03114 0.0
H599 H 0.12753 0.38007 0.01416 0.0
H600 H 0.10644 0.3415 0.0216 0.0
H601 H 0.01914 0.35811 0.10403 0.0
H602 H 1.00144 0.41075 0.07927 0.0
H603 H 0.09194 0.42861 0.03507 0.0
C604 C 0.13277 0.31207 0.09756 0.0
C605 C 0.12258 0.28677 0.12033 0.0
C606 C 0.09118 0.28612 0.13052 0.0
C607 C 0.07038 0.31017 0.11893 0.0
C608 C 0.08115 0.33503 0.09705 0.0
C609 C 0.11154 0.33631 0.08634 0.0
C610 C 0.11716 0.36701 0.06397 0.0
C611 C 0.14288 0.38933 0.07695 0.0
C612 C 0.12513 0.3577 0.03074 0.0
C613 C 0.08534 0.38288 0.06426 0.0
C614 C 0.06503 0.36366 0.08343 0.0
C615 C 0.03475 0.37324 0.08878 0.0
C616 C 0.02493 0.40336 0.07459 0.0
C617 C 0.04515 0.42399 0.05505 0.0
C618 C 0.07574 0.41328 0.04949 0.0
H619 H 0.60502 0.20877 0.891 0.0
H620 H 0.65904 0.24059 0.97048 0.0
H621 H 0.63529 0.19527 1.00486 0.0
H622 H 0.53477 0.18251 0.9349 0.0
H623 H 0.5273 0.14765 0.91228 0.0
H624 H 0.54706 0.18384 0.89438 0.0
H625 H 0.59323 0.14854 0.87963 0.0
H626 H 0.57364 0.11229 0.89753 0.0
H627 H 0.61261 0.12319 0.91012 0.0
H628 H 0.60826 0.14421 0.02989 0.0
H629 H 0.57875 0.09245 0.04402 0.0
H630 H 0.54232 0.09372 0.94826 0.0
C631 C 0.61185 0.20631 0.91565 0.0
C632 C 0.63393 0.22844 0.92798 0.0
C633 C 0.64187 0.22438 0.9605 0.0
C634 C 0.62864 0.19854 0.9802 0.0
C635 C 0.60733 0.17695 0.96716 0.0
C636 C 0.59884 0.18067 0.93567 0.0
C637 C 0.57603 0.15359 0.92734 0.0
C638 C 0.54441 0.16775 0.91659 0.0
C639 C 0.58971 0.1332 0.90217 0.0
C640 C 0.57337 0.13377 0.95896 0.0
C641 C 0.59157 0.1477 0.98163 0.0
C642 C 0.59373 0.13325 0.01239 0.0
C643 C 0.57691 0.10378 0.02017 0.0
C644 C 0.55806 0.08902 0.99733 0.0
C645 C 0.55625 0.10447 0.96637 0.0
H646 H 0.96678 0.8109 0.40447 0.0
H647 H 0.98871 0.74368 0.48512 0.0
H648 H 0.02269 0.78667 0.50676 0.0
H649 H 0.04315 0.86129 0.40163 0.0
H650 H 0.022 0.89826 0.39158 0.0
H651 H 1.00793 0.85977 0.37814 0.0
H652 H 0.95434 0.86777 0.40395 0.0
H653 H 0.96822 0.90591 0.41757 0.0
H654 H 0.95294 0.87401 0.44541 0.0
H655 H 0.04456 0.84018 0.52465 0.0
H656 H 0.04982 0.89823 0.53765 0.0
H657 H 0.01035 0.92994 0.44654 0.0
C658 C 0.97965 0.80493 0.42616 0.0
C659 C 0.97526 0.77421 0.44322 0.0
C660 C 0.99216 0.76708 0.47158 0.0
C661 C 0.01149 0.79134 0.48397 0.0
C662 C 0.01383 0.82225 0.46741 0.0
C663 C 0.99851 0.82888 0.43886 0.0
C664 C 0.99992 0.86501 0.42822 0.0
C665 C 0.01943 0.87145 0.39811 0.0
C666 C 0.96692 0.87896 0.42356 0.0
C667 C 0.01654 0.8781 0.45618 0.0
C668 C 0.02546 0.85315 0.47812 0.0
C669 C 0.03838 0.85983 0.50731 0.0
C670 C 0.04129 0.89274 0.51453 0.0
C671 C 0.03051 0.91808 0.49291 0.0
C672 C 0.01899 0.91074 0.46317 0.0
H673 H 0.48408 0.74093 0.61664 0.0
H674 H 0.38622 0.74758 0.59013 0.0
H675 H 0.38309 0.68751 0.58689 0.0
H676 H 0.50257 0.68646 0.56268 0.0
H677 H 0.53037 0.66417 0.58761 0.0
H678 H 0.52317 0.70633 0.59339 0.0
H679 H 0.50929 0.68991 0.65191 0.0
H680 H 0.51631 0.64753 0.64619 0.0
H681 H 0.47927 0.65894 0.66117 0.0
H682 H 0.39271 0.62766 0.57944 0.0
H683 H 0.41491 0.57513 0.56629 0.0
H684 H 0.50631 0.60881 0.59695 0.0
C685 C 0.46185 0.72976 0.61055 0.0
C686 C 0.4354 0.74901 0.60372 0.0
C687 C 0.40671 0.73332 0.59598 0.0
C688 C 0.40471 0.69918 0.59404 0.0
C689 C 0.43151 0.68105 0.60017 0.0
C690 C 0.45951 0.69588 0.60838 0.0
C691 C 0.48573 0.67182 0.61051 0.0
C692 C 0.51198 0.68285 0.58715 0.0
C693 C 0.49839 0.66675 0.64447 0.0
C694 C 0.46846 0.64142 0.60095 0.0
C695 C 0.43707 0.64687 0.59566 0.0
C696 C 0.41713 0.62294 0.58408 0.0
C697 C 0.42988 0.59313 0.57678 0.0
C698 C 0.46226 0.58792 0.58072 0.0
C699 C 0.48139 0.61199 0.59394 0.0
H700 H 0.87324 0.92525 0.70663 0.0
H701 H 0.95383 0.8986 0.76493 0.0
H702 H 0.98878 0.91943 0.72186 0.0
H703 H 0.90583 0.90252 0.63322 0.0
H704 H 0.88907 0.93603 0.60917 0.0
H705 H 0.86982 0.91979 0.64478 0.0
H706 H 0.87078 0.97778 0.66515 0.0
H707 H 0.89006 0.99417 0.62959 0.0
H708 H 0.90745 1.00021 0.66755 0.0
H709 H 0.01556 0.94338 0.67326 0.0
H710 H 0.03262 0.96708 0.62101 0.0
H711 H 0.93573 0.97756 0.59164 0.0
C712 C 0.89824 0.92393 0.71029 0.0
C713 C 0.91068 0.90994 0.73929 0.0
C714 C 0.9436 0.90862 0.74295 0.0
C715 C 0.96373 0.92062 0.71862 0.0
C716 C 0.95085 0.9339 0.69037 0.0
C717 C 0.9189 0.93554 0.68588 0.0
C718 C 0.9115 0.95041 0.65265 0.0
C719 C 0.89296 0.92571 0.63385 0.0
C720 C 0.8939 0.98255 0.65382 0.0
C721 C 0.94425 0.95686 0.63938 0.0
C722 C 0.96649 0.94729 0.66175 0.0
C723 C 0.99834 0.9509 0.65552 0.0
C724 C 1.00782 0.96449 0.62564 0.0
C725 C 0.98567 0.97425 0.60193 0.0
C726 C 0.95335 0.97033 0.60909 0.0
H727 H 0.61504 0.07901 0.28965 0.0
H728 H 0.52925 0.13295 0.28797 0.0
H729 H 0.50776 0.09888 0.24687 0.0
H730 H 0.62109 0.07774 0.21055 0.0
H731 H 0.637 0.03739 0.21044 0.0
H732 H 0.64287 0.06062 0.24419 0.0
H733 H 0.61807 0.01298 0.28032 0.0
H734 H 0.61229 0.98938 0.2466 0.0
H735 H 0.57965 0.9971 0.27113 0.0
H736 H 0.49904 0.06509 0.20107 0.0
H737 H 0.50445 0.03677 0.15273 0.0
H738 H 0.59631 1.00478 0.1839 0.0
C739 C 0.59124 0.08271 0.28155 0.0
C740 C 0.57352 0.10815 0.29227 0.0
C741 C 0.54301 0.11333 0.28017 0.0
C742 C 0.5306 0.09399 0.25702 0.0
C743 C 0.54905 0.06963 0.2463 0.0
C744 C 0.57871 0.06389 0.25827 0.0
C745 C 0.59544 0.03953 0.2399 0.0
C746 C 0.62587 0.05475 0.22541 0.0
C747 C 0.60172 0.00786 0.26073 0.0
C748 C 0.57115 0.03361 0.21479 0.0
C749 C 0.54427 0.05055 0.21933 0.0
C750 C 0.51968 0.05113 0.19765 0.0
C751 C 0.52296 0.03476 0.17021 0.0
C752 C 0.55084 0.0183 0.16446 0.0
C753 C 0.57474 0.01702 0.18762 0.0
H754 H 0.37483 0.5922 0.33655 0.0
H755 H 0.45242 0.65047 0.29449 0.0
H756 H 0.48374 0.63808 0.34236 0.0
H757 H 0.38763 0.61173 0.41731 0.0
H758 H 0.37822 0.57072 0.43392 0.0
H759 H 0.36064 0.58589 0.39709 0.0
H760 H 0.38136 0.53623 0.37022 0.0
H761 H 0.39896 0.52091 0.40697 0.0
H762 H 0.42253 0.52809 0.37209 0.0
H763 H 0.50756 0.61889 0.39438 0.0
H764 H 0.52272 0.59204 0.44616 0.0
H765 H 0.43146 0.54318 0.45367 0.0
C766 C 0.39839 0.60238 0.33724 0.0
C767 C 0.41064 0.62298 0.31155 0.0
C768 C 0.44175 0.63563 0.31392 0.0
C769 C 0.46002 0.62845 0.34102 0.0
C770 C 0.44722 0.60818 0.36571 0.0
C771 C 0.41722 0.59511 0.36405 0.0
C772 C 0.40967 0.57283 0.39349 0.0
C773 C 0.38242 0.5861 0.41152 0.0
C774 C 0.40273 0.53742 0.38519 0.0
C775 C 0.44017 0.57539 0.41179 0.0
C776 C 0.46139 0.59615 0.39541 0.0
C777 C 0.49115 0.60254 0.40743 0.0
C778 C 0.49953 0.58719 0.43692 0.0
C779 C 0.47838 0.56541 0.45403 0.0
C780 C 0.44825 0.5596 0.44119 0.0
H781 H 0.05992 0.40081 0.78256 0.0
H782 H 0.13939 0.45507 0.7401 0.0
H783 H 0.14329 0.48835 0.78597 0.0
H784 H 0.02557 0.47035 0.81578 0.0
H785 H 0.01255 0.44666 0.85105 0.0
H786 H 0.01595 0.42724 0.81474 0.0
H787 H 0.0525 0.3843 0.84273 0.0
H788 H 0.04943 0.40379 0.87904 0.0
H789 H 0.0873 0.39807 0.86253 0.0
H790 H 0.14016 0.5138 0.83704 0.0
H791 H 0.12749 0.5335 0.88836 0.0
H792 H 0.04829 0.46462 0.89665 0.0
C793 C 0.07803 0.4198 0.78296 0.0
C794 C 0.09929 0.42556 0.75785 0.0
C795 C 0.12263 0.45065 0.75898 0.0
C796 C 0.12518 0.46947 0.78499 0.0
C797 C 0.10405 0.463 0.80951 0.0
C798 C 0.08069 0.43909 0.80861 0.0
C799 C 0.06069 0.43762 0.83788 0.0
C800 C 0.02668 0.44598 0.82934 0.0
C801 C 0.06261 0.40394 0.85665 0.0
C802 C 0.07663 0.46431 0.8554 0.0
C803 C 0.1017 0.47842 0.8387 0.0
C804 C 0.12034 0.50324 0.85021 0.0
C805 C 0.1128 0.51439 0.87938 0.0
C806 C 0.08662 0.501 0.89662 0.0
C807 C 0.06856 0.47535 0.88441 0.0
H808 H 0.70775 0.93671 0.88874 0.0
H809 H 0.72539 0.85402 0.95673 0.0
H810 H 0.67801 0.86562 0.98536 0.0
H811 H 0.67831 0.99011 0.94266 0.0
H812 H 0.64788 0.00692 0.91712 0.0
H813 H 0.6826 0.99174 0.90042 0.0
H814 H 0.6488 0.95267 0.86832 0.0
H815 H 0.61394 0.96785 0.88484 0.0
H816 H 0.62118 0.92448 0.88852 0.0
H817 H 0.63204 0.88853 0.01006 0.0
H818 H 0.58697 0.91886 0.02685 0.0
H819 H 0.5942 0.98487 0.94195 0.0
C820 C 0.70135 0.9207 0.90932 0.0
C821 C 0.72102 0.89468 0.92062 0.0
C822 C 0.71153 0.87457 0.94783 0.0
C823 C 0.68438 0.88082 0.96425 0.0
C824 C 0.66616 0.90704 0.95314 0.0
C825 C 0.67382 0.92643 0.92605 0.0
C826 C 0.64989 0.95329 0.91977 0.0
C827 C 0.66561 0.98754 0.92001 0.0
C828 C 0.63242 0.94933 0.8885 0.0
C829 C 0.62814 0.94626 0.9479 0.0
C830 C 0.63825 0.91946 0.96681 0.0
C831 C 0.62358 0.90919 0.99516 0.0
C832 C 0.59799 0.92665 1.00457 0.0
C833 C 0.58667 0.95393 0.98561 0.0
C834 C 0.60185 0.96367 0.95664 0.0
H835 H 0.78304 0.15126 0.44345 0.0
H836 H 0.70996 0.0757 0.44607 0.0
H837 H 0.74753 0.03481 0.46806 0.0
H838 H 0.84117 0.10613 0.41724 0.0
H839 H 0.87238 0.12255 0.44054 0.0
H840 H 0.83884 0.14681 0.43044 0.0
H841 H 0.82922 0.15356 0.48962 0.0
H842 H 0.86303 0.1295 0.49995 0.0
H843 H 0.82564 0.11763 0.517 0.0
H844 H 0.79476 1.00094 0.47915 0.0
H845 H 0.84753 0.97744 0.48387 0.0
H846 H 0.88918 0.07532 0.47755 0.0
C847 C 0.77485 0.12628 0.44961 0.0
C848 C 0.74376 0.11646 0.44331 0.0
C849 C 0.73368 0.08362 0.45121 0.0
C850 C 0.75484 0.06029 0.46362 0.0
C851 C 0.78571 0.0705 0.46858 0.0
C852 C 0.79554 0.10289 0.46247 0.0
C853 C 0.83039 0.10707 0.46753 0.0
C854 C 0.84662 0.12147 0.43713 0.0
C855 C 0.83748 0.12819 0.49518 0.0
C856 C 0.83891 0.07175 0.47574 0.0
C857 C 0.81281 0.05101 0.47642 0.0
C858 C 0.81526 0.01696 0.47969 0.0
C859 C 0.84517 1.00382 0.48215 0.0
C860 C 0.87202 0.02473 0.48165 0.0
C861 C 0.8688 0.05902 0.479 0.0
H862 H 0.22894 0.59336 0.10109 0.0
H863 H 0.19509 0.62434 0.18951 0.0
H864 H 0.14104 0.60939 0.17389 0.0
H865 H 0.16394 0.62193 0.05248 0.0
H866 H 0.16418 0.58757 0.02847 0.0
H867 H 0.1999 0.60149 0.04642 0.0
H868 H 0.20788 0.54301 0.07311 0.0
H869 H 0.1722 0.52894 0.05524 0.0
H870 H 0.17738 0.5235 0.09745 0.0
H871 H 0.0905 0.58803 0.14925 0.0
H872 H 0.04822 0.56483 0.11688 0.0
H873 H 0.11552 0.5491 0.0444 0.0
C874 C 0.21022 0.59693 0.11728 0.0
C875 C 0.2164 0.60995 0.14665 0.0
C876 C 0.19102 0.61469 0.1668 0.0
C877 C 0.16022 0.60609 0.15819 0.0
C878 C 0.15506 0.59298 0.12921 0.0
C879 C 0.1794 0.58866 0.10899 0.0
C880 C 0.16778 0.57402 0.07925 0.0
C881 C 0.17434 0.59767 0.04993 0.0
C882 C 0.18217 0.54037 0.07609 0.0
C883 C 0.1331 0.57058 0.08588 0.0
C884 C 0.12616 0.58149 0.11487 0.0
C885 C 0.09571 0.57967 0.12642 0.0
C886 C 0.07183 0.5664 0.1079 0.0
C887 C 0.07844 0.55533 0.07799 0.0
C888 C 0.10955 0.55766 0.06697 0.0
H889 H 0.23539 0.44607 0.60917 0.0
H890 H 0.20297 0.3957 0.52872 0.0
H891 H 0.25032 0.41519 0.49935 0.0
H892 H 0.27819 0.5174 0.56173 0.0
H893 H 0.30871 0.51768 0.59123 0.0
H894 H 0.2691 0.50678 0.60266 0.0
H895 H 0.28801 0.4519 0.63016 0.0
H896 H 0.32744 0.46234 0.61859 0.0
H897 H 0.30938 0.42449 0.60771 0.0
H898 H 0.30569 0.4273 0.48487 0.0
H899 H 0.36322 0.43591 0.48445 0.0
H900 H 0.35916 0.48146 0.57244 0.0
C901 C 0.2378 0.44033 0.58491 0.0
C902 C 0.21568 0.41961 0.57102 0.0
C903 C 0.21954 0.412 0.53948 0.0
C904 C 0.24636 0.42293 0.52269 0.0
C905 C 0.26859 0.44203 0.53761 0.0
C906 C 0.26424 0.45136 0.56779 0.0
C907 C 0.29314 0.46853 0.57997 0.0
C908 C 0.28691 0.50475 0.58413 0.0
C909 C 0.30519 0.45073 0.61091 0.0
C910 C 0.3152 0.46526 0.55294 0.0
C911 C 0.30049 0.45033 0.5285 0.0
C912 C 0.31719 0.44016 0.5032 0.0
C913 C 0.34972 0.44495 0.50316 0.0
C914 C 0.36498 0.46001 0.52801 0.0
C915 C 0.34751 0.47106 0.5527 0.0
H916 H 0.92505 0.72345 0.89485 0.0
H917 H 0.88256 0.7561 0.97861 0.0
H918 H 0.90307 0.70807 0.01027 0.0
H919 H 0.91237 0.63528 0.91459 0.0
H920 H 0.94948 0.62422 0.89949 0.0
H921 H 0.93053 0.66051 0.88277 0.0
H922 H 0.98007 0.69546 0.89407 0.0
H923 H 0.99909 0.65931 0.91101 0.0
H924 H 0.99566 0.69442 0.93368 0.0
H925 H 0.92775 0.65718 0.03323 0.0
H926 H 0.95565 0.6061 0.04662 0.0
H927 H 0.98504 0.60542 0.94924 0.0
C928 C 0.91984 0.72019 0.91979 0.0
C929 C 0.90209 0.74362 0.93426 0.0
C930 C 0.89616 0.73868 0.96704 0.0
C931 C 0.90769 0.71141 0.98523 0.0
C932 C 0.92545 0.68912 0.97049 0.0
C933 C 0.93162 0.69309 0.93855 0.0
C934 C 0.95214 0.66563 0.9291 0.0
C935 C 0.93511 0.6452 0.90506 0.0
C936 C 0.98361 0.67954 0.9162 0.0
C937 C 0.9564 0.64571 0.96068 0.0
C938 C 0.94059 0.6598 0.98409 0.0
C939 C 0.94029 0.64597 0.01511 0.0
C940 C 0.95628 0.61684 0.02248 0.0
C941 C 0.97277 0.60161 0.99911 0.0
C942 C 0.97299 0.61655 0.96775 0.0
H943 H 0.41733 0.79302 0.14684 0.0
H944 H 0.37433 0.75926 0.06208 0.0
H945 H 0.39591 0.80819 0.03099 0.0
H946 H 0.4065 0.88097 0.12714 0.0
H947 H 0.44377 0.89273 0.14346 0.0
H948 H 0.42346 0.85602 0.15947 0.0
H949 H 0.47211 0.82209 0.14968 0.0
H950 H 0.49246 0.85864 0.13341 0.0
H951 H 0.48819 0.8235 0.11055 0.0
H952 H 0.42288 0.85966 0.0088 0.0
H953 H 0.45364 0.91082 0.99661 0.0
H954 H 0.48095 0.91134 0.09524 0.0
C955 C 0.41209 0.79629 0.12183 0.0
C956 C 0.39405 0.77242 0.10684 0.0
C957 C 0.38816 0.77719 0.07397 0.0
C958 C 0.40027 0.80492 0.05615 0.0
C959 C 0.4184 0.82767 0.07147 0.0
C960 C 0.42431 0.82377 0.10355 0.0
C961 C 0.44551 0.85143 0.11383 0.0
C962 C 0.42881 0.87148 0.13737 0.0
C963 C 0.4764 0.83811 0.12768 0.0
C964 C 0.45065 0.87134 0.0825 0.0
C965 C 0.43461 0.85721 0.05846 0.0
C966 C 0.43553 0.87097 0.02743 0.0
C967 C 0.45313 0.90007 0.02074 0.0
C968 C 0.46986 0.91512 0.0449 0.0
C969 C 0.46863 0.90036 0.0762 0.0
H970 H 0.047 0.22016 0.62588 0.0
H971 H 1.0037 0.28116 0.55071 0.0
H972 H 0.98308 0.23122 0.52704 0.0
H973 H 0.0759 0.16622 0.5778 0.0
H974 H 0.07148 0.1301 0.60481 0.0
H975 H 0.07608 0.16981 0.61979 0.0
H976 H 0.02437 0.1604 0.65079 0.0
H977 H 0.01977 0.12033 0.63623 0.0
H978 H 0.98904 0.1495 0.63023 0.0
H979 H 0.9721 0.17424 0.5091 0.0
H980 H 0.97554 0.11638 0.49603 0.0
H981 H 0.03115 0.09452 0.58047 0.0
C982 C 0.03199 0.22286 0.60522 0.0
C983 C 0.02588 0.25413 0.59053 0.0
C984 C 1.00771 0.25717 0.56258 0.0
C985 C 0.996 0.22902 0.54909 0.0
C986 C 1.0032 0.19828 0.56371 0.0
C987 C 0.02092 0.19515 0.59115 0.0
C988 C 0.02966 0.15997 0.59966 0.0
C989 C 0.06539 0.15634 0.60054 0.0
C990 C 0.01481 0.14678 0.63109 0.0
C991 C 0.01498 0.14383 0.57226 0.0
C992 C 0.99902 0.16602 0.55221 0.0
C993 C 0.98434 0.15665 0.52476 0.0
C994 C 0.98642 0.12387 0.5175 0.0
C995 C 1.00383 0.10138 0.53717 0.0
C996 C 0.01788 0.11143 0.56499 0.0
H997 H 0.5664 0.3047 0.43969 0.0
H998 H 0.65561 0.34732 0.40747 0.0
H999 H 0.64218 0.39985 0.42768 0.0
H1000 H 0.52129 0.37799 0.42027 0.0
H1001 H 0.4968 0.37122 0.45453 0.0
H1002 H 0.51307 0.3368 0.43711 0.0
H1003 H 0.5379 0.31721 0.49098 0.0
H1004 H 0.52175 0.35157 0.50853 0.0
H1005 H 0.56318 0.345 0.51091 0.0
H1006 H 0.6204 0.44684 0.45247 0.0
H1007 H 0.59086 0.48653 0.47998 0.0
H1008 H 0.51477 0.41463 0.49516 0.0
C1009 C 0.58294 0.3252 0.43663 0.0
C1010 C 0.61219 0.32182 0.42229 0.0
C1011 C 0.63333 0.34914 0.41894 0.0
C1012 C 0.62584 0.37915 0.43012 0.0
C1013 C 0.59703 0.38157 0.4444 0.0
C1014 C 0.57581 0.35546 0.44762 0.0
C1015 C 0.54663 0.36471 0.46435 0.0
C1016 C 0.51774 0.36255 0.44277 0.0
C1017 C 0.54212 0.34335 0.49554 0.0
C1018 C 0.55495 0.39998 0.47018 0.0
C1019 C 0.58414 0.40912 0.45843 0.0
C1020 C 0.59742 0.44011 0.46161 0.0
C1021 C 0.58045 0.46245 0.47733 0.0
C1022 C 0.55046 0.45372 0.4896 0.0
C1023 C 0.53753 0.42209 0.4858 0.0
loop_
_geom_bond_atom_site_label_1
_geom_bond_atom_site_label_2
_geom_bond_distance
_geom_bond_site_symmetry_2
_ccdc_geom_bond_type
P0 O11 1.490 . S
P0 C14 1.812 . S
P0 C20 1.803 . S
P0 C26 1.819 . S
H1 C15 0.941 . S
H2 C16 0.939 . S
H3 C18 0.940 . S
H4 C19 0.940 . S
H5 C21 0.939 . S
H6 C22 0.942 . S
H7 C24 0.940 . S
H8 C25 0.939 . S
H9 C27 0.941 . S
H10 C31 0.939 . S
O11 P0 1.490 . S
H12 C28 0.939 . S
H13 C30 0.940 . S
C14 P0 1.812 . S
C14 C15 1.389 . S
C14 C19 1.391 . S
C15 H1 0.941 . S
C15 C14 1.389 . S
C15 C16 1.397 . S
C16 H2 0.939 . S
C16 C15 1.397 . S
C16 C17 1.378 . S
C17 C16 1.378 . S
C17 C18 1.378 . S
C18 H3 0.940 . S
C18 C17 1.378 . S
C18 C19 1.396 . S
C19 H4 0.940 . S
C19 C14 1.391 . S
C19 C18 1.396 . S
C20 P0 1.803 . S
C20 C21 1.378 . S
C20 C25 1.400 . S
C21 H5 0.939 . S
C21 C20 1.378 . S
C21 C22 1.361 . S
C22 H6 0.942 . S
C22 C21 1.361 . S
C22 C23 1.369 . S
C23 C22 1.369 . S
C23 C24 1.404 . S
C24 H7 0.940 . S
C24 C23 1.404 . S
C24 C25 1.389 . S
C25 H8 0.939 . S
C25 C20 1.400 . S
C25 C24 1.389 . S
C26 P0 1.819 . S
C26 C27 1.391 . S
C26 C31 1.391 . S
C27 H9 0.941 . S
C27 C26 1.391 . S
C27 C28 1.396 . S
C28 H12 0.939 . S
C28 C27 1.396 . S
C28 C29 1.397 . S
C29 C28 1.397 . S
C29 C30 1.385 . S
C30 H13 0.940 . S
C30 C29 1.385 . S
C30 C31 1.388 . S
C31 H10 0.939 . S
C31 C26 1.391 . S
C31 C30 1.388 . S
P32 O43 1.490 . S
P32 C46 1.812 . S
P32 C52 1.803 . S
P32 C58 1.819 . S
H33 C47 0.941 . S
H34 C48 0.939 . S
H35 C50 0.940 . S
H36 C51 0.940 . S
H37 C53 0.939 . S
H38 C54 0.942 . S
H39 C56 0.940 . S
H40 C57 0.939 . S
H41 C59 0.941 . S
H42 C63 0.939 . S
O43 P32 1.490 . S
H44 C60 0.939 . S
H45 C62 0.940 . S
C46 P32 1.812 . S
C46 C47 1.389 . S
C46 C51 1.391 . S
C47 H33 0.941 . S
C47 C46 1.389 . S
C47 C48 1.397 . S
C48 H34 0.939 . S
C48 C47 1.397 . S
C48 C49 1.378 . S
C49 C48 1.378 . S
C49 C50 1.378 . S
C50 H35 0.940 . S
C50 C49 1.378 . S
C50 C51 1.396 . S
C51 H36 0.940 . S
C51 C46 1.391 . S
C51 C50 1.396 . S
C52 P32 1.803 . S
C52 C53 1.378 . S
C52 C57 1.400 . S
C53 H37 0.939 . S
C53 C52 1.378 . S
C53 C54 1.361 . S
C54 H38 0.942 . S
C54 C53 1.361 . S
C54 C55 1.369 . S
C55 C54 1.369 . S
C55 C56 1.404 . S
C56 H39 0.940 . S
C56 C55 1.404 . S
C56 C57 1.389 . S
C57 H40 0.939 . S
C57 C52 1.400 . S
C57 C56 1.389 . S
C58 P32 1.819 . S
C58 C59 1.391 . S
C58 C63 1.391 . S
C59 H41 0.941 . S
C59 C58 1.391 . S
C59 C60 1.396 . S
C60 H44 0.939 . S
C60 C59 1.396 . S
C60 C61 1.397 . S
C61 C60 1.397 . S
C61 C62 1.385 . S
C62 H45 0.940 . S
C62 C61 1.385 . S
C62 C63 1.388 . S
C63 H42 0.939 . S
C63 C58 1.391 . S
C63 C62 1.388 . S
P64 O75 1.490 . S
P64 C78 1.812 . S
P64 C84 1.803 . S
P64 C90 1.819 . S
H65 C79 0.941 . S
H66 C80 0.939 . S
H67 C82 0.940 . S
H68 C83 0.940 . S
H69 C85 0.939 . S
H70 C86 0.942 . S
H71 C88 0.940 . S
H72 C89 0.939 . S
H73 C91 0.941 . S
H74 C95 0.939 . S
O75 P64 1.490 . S
H76 C92 0.939 . S
H77 C94 0.940 . S
C78 P64 1.812 . S
C78 C79 1.389 . S
C78 C83 1.391 . S
C79 H65 0.941 . S
C79 C78 1.389 . S
C79 C80 1.397 . S
C80 H66 0.939 . S
C80 C79 1.397 . S
C80 C81 1.378 . S
C81 C80 1.378 . S
C81 C82 1.378 . S
C82 H67 0.940 . S
C82 C81 1.378 . S
C82 C83 1.396 . S
C83 H68 0.940 . S
C83 C78 1.391 . S
C83 C82 1.396 . S
C84 P64 1.803 . S
C84 C85 1.378 . S
C84 C89 1.400 . S
C85 H69 0.939 . S
C85 C84 1.378 . S
C85 C86 1.361 . S
C86 H70 0.942 . S
C86 C85 1.361 . S
C86 C87 1.369 . S
C87 C86 1.369 . S
C87 C88 1.404 . S
C88 H71 0.940 . S
C88 C87 1.404 . S
C88 C89 1.389 . S
C89 H72 0.939 . S
C89 C84 1.400 . S
C89 C88 1.389 . S
C90 P64 1.819 . S
C90 C91 1.391 . S
C90 C95 1.391 . S
C91 H73 0.941 . S
C91 C90 1.391 . S
C91 C92 1.396 . S
C92 H76 0.939 . S
C92 C91 1.396 . S
C92 C93 1.397 . S
C93 C92 1.397 . S
C93 C94 1.385 . S
C94 H77 0.940 . S
C94 C93 1.385 . S
C94 C95 1.388 . S
C95 H74 0.939 . S
C95 C90 1.391 . S
C95 C94 1.388 . S
P96 O107 1.490 . S
P96 C110 1.812 . S
P96 C116 1.803 . S
P96 C122 1.819 . S
H97 C111 0.941 . S
H98 C112 0.939 . S
H99 C114 0.940 . S
H100 C115 0.940 . S
H101 C117 0.939 . S
H102 C118 0.942 . S
H103 C120 0.940 . S
H104 C121 0.939 . S
H105 C123 0.941 . S
H106 C127 0.939 . S
O107 P96 1.490 . S
H108 C124 0.939 . S
H109 C126 0.940 . S
C110 P96 1.812 . S
C110 C111 1.389 . S
C110 C115 1.391 . S
C111 H97 0.941 . S
C111 C110 1.389 . S
C111 C112 1.397 . S
C112 H98 0.939 . S
C112 C111 1.397 . S
C112 C113 1.378 . S
C113 C112 1.378 . S
C113 C114 1.378 . S
C114 H99 0.940 . S
C114 C113 1.378 . S
C114 C115 1.396 . S
C115 H100 0.940 . S
C115 C110 1.391 . S
C115 C114 1.396 . S
C116 P96 1.803 . S
C116 C117 1.378 . S
C116 C121 1.400 . S
C117 H101 0.939 . S
C117 C116 1.378 . S
C117 C118 1.361 . S
C118 H102 0.942 . S
C118 C117 1.361 . S
C118 C119 1.369 . S
C119 C118 1.369 . S
C119 C120 1.404 . S
C120 H103 0.940 . S
C120 C119 1.404 . S
C120 C121 1.389 . S
C121 H104 0.939 . S
C121 C116 1.400 . S
C121 C120 1.389 . S
C122 P96 1.819 . S
C122 C123 1.391 . S
C122 C127 1.391 . S
C123 H105 0.941 . S
C123 C122 1.391 . S
C123 C124 1.396 . S
C124 H108 0.939 . S
C124 C123 1.396 . S
C124 C125 1.397 . S
C125 C124 1.397 . S
C125 C126 1.385 . S
C126 H109 0.940 . S
C126 C125 1.385 . S
C126 C127 1.388 . S
C127 H106 0.939 . S
C127 C122 1.391 . S
C127 C126 1.388 . S
P128 O139 1.490 . S
P128 C142 1.812 . S
P128 C148 1.803 . S
P128 C154 1.819 . S
H129 C143 0.941 . S
H130 C144 0.939 . S
H131 C146 0.940 . S
H132 C147 0.940 . S
H133 C149 0.939 . S
H134 C150 0.942 . S
H135 C152 0.940 . S
H136 C153 0.939 . S
H137 C155 0.941 . S
H138 C159 0.939 . S
O139 P128 1.490 . S
H140 C156 0.939 . S
H141 C158 0.940 . S
C142 P128 1.812 . S
C142 C143 1.389 . S
C142 C147 1.391 . S
C143 H129 0.941 . S
C143 C142 1.389 . S
C143 C144 1.397 . S
C144 H130 0.939 . S
C144 C143 1.397 . S
C144 C145 1.378 . S
C145 C144 1.378 . S
C145 C146 1.378 . S
C146 H131 0.940 . S
C146 C145 1.378 . S
C146 C147 1.396 . S
C147 H132 0.940 . S
C147 C142 1.391 . S
C147 C146 1.396 . S
C148 P128 1.803 . S
C148 C149 1.378 . S
C148 C153 1.400 . S
C149 H133 0.939 . S
C149 C148 1.378 . S
C149 C150 1.361 . S
C150 H134 0.942 . S
C150 C149 1.361 . S
C150 C151 1.369 . S
C151 C150 1.369 . S
C151 C152 1.404 . S
C152 H135 0.940 . S
C152 C151 1.404 . S
C152 C153 1.389 . S
C153 H136 0.939 . S
C153 C148 1.400 . S
C153 C152 1.389 . S
C154 P128 1.819 . S
C154 C155 1.391 . S
C154 C159 1.391 . S
C155 H137 0.941 . S
C155 C154 1.391 . S
C155 C156 1.396 . S
C156 H140 0.939 . S
C156 C155 1.396 . S
C156 C157 1.397 . S
C157 C156 1.397 . S
C157 C158 1.385 . S
C158 H141 0.940 . S
C158 C157 1.385 . S
C158 C159 1.388 . S
C159 H138 0.939 . S
C159 C154 1.391 . S
C159 C158 1.388 . S
P160 O171 1.490 . S
P160 C174 1.812 . S
P160 C180 1.803 . S
P160 C186 1.819 . S
H161 C175 0.941 . S
H162 C176 0.939 . S
H163 C178 0.940 . S
H164 C179 0.940 . S
H165 C181 0.939 . S
H166 C182 0.942 . S
H167 C184 0.940 . S
H168 C185 0.939 . S
H169 C187 0.941 . S
H170 C191 0.939 . S
O171 P160 1.490 . S
H172 C188 0.939 . S
H173 C190 0.940 . S
C174 P160 1.812 . S
C174 C175 1.389 . S
C174 C179 1.391 . S
C175 H161 0.941 . S
C175 C174 1.389 . S
C175 C176 1.397 . S
C176 H162 0.939 . S
C176 C175 1.397 . S
C176 C177 1.378 . S
C177 C176 1.378 . S
C177 C178 1.378 . S
C178 H163 0.940 . S
C178 C177 1.378 . S
C178 C179 1.396 . S
C179 H164 0.940 . S
C179 C174 1.391 . S
C179 C178 1.396 . S
C180 P160 1.803 . S
C180 C181 1.378 . S
C180 C185 1.400 . S
C181 H165 0.939 . S
C181 C180 1.378 . S
C181 C182 1.361 . S
C182 H166 0.942 . S
C182 C181 1.361 . S
C182 C183 1.369 . S
C183 C182 1.369 . S
C183 C184 1.404 . S
C184 H167 0.940 . S
C184 C183 1.404 . S
C184 C185 1.389 . S
C185 H168 0.939 . S
C185 C180 1.400 . S
C185 C184 1.389 . S
C186 P160 1.819 . S
C186 C187 1.391 . S
C186 C191 1.391 . S
C187 H169 0.941 . S
C187 C186 1.391 . S
C187 C188 1.396 . S
C188 H172 0.939 . S
C188 C187 1.396 . S
C188 C189 1.397 . S
C189 C188 1.397 . S
C189 C190 1.385 . S
C190 H173 0.940 . S
C190 C189 1.385 . S
C190 C191 1.388 . S
C191 H170 0.939 . S
C191 C186 1.391 . S
C191 C190 1.388 . S
P192 O203 1.490 . S
P192 C206 1.812 . S
P192 C212 1.803 . S
P192 C218 1.819 . S
H193 C207 0.941 . S
H194 C208 0.939 . S
H195 C210 0.940 . S
H196 C211 0.940 . S
H197 C213 0.939 . S
H198 C214 0.942 . S
H199 C216 0.940 . S
H200 C217 0.939 . S
H201 C219 0.941 . S
H202 C223 0.939 . S
O203 P192 1.490 . S
H204 C220 0.939 . S
H205 C222 0.940 . S
C206 P192 1.812 . S
C206 C207 1.389 . S
C206 C211 1.391 . S
C207 H193 0.941 . S
C207 C206 1.389 . S
C207 C208 1.397 . S
C208 H194 0.939 . S
C208 C207 1.397 . S
C208 C209 1.378 . S
C209 C208 1.378 . S
C209 C210 1.378 . S
C210 H195 0.940 . S
C210 C209 1.378 . S
C210 C211 1.396 . S
C211 H196 0.940 . S
C211 C206 1.391 . S
C211 C210 1.396 . S
C212 P192 1.803 . S
C212 C213 1.378 . S
C212 C217 1.400 . S
C213 H197 0.939 . S
C213 C212 1.378 . S
C213 C214 1.361 . S
C214 H198 0.942 . S
C214 C213 1.361 . S
C214 C215 1.369 . S
C215 C214 1.369 . S
C215 C216 1.404 . S
C216 H199 0.940 . S
C216 C215 1.404 . S
C216 C217 1.389 . S
C217 H200 0.939 . S
C217 C212 1.400 . S
C217 C216 1.389 . S
C218 P192 1.819 . S
C218 C219 1.391 . S
C218 C223 1.391 . S
C219 H201 0.941 . S
C219 C218 1.391 . S
C219 C220 1.396 . S
C220 H204 0.939 . S
C220 C219 1.396 . S
C220 C221 1.397 . S
C221 C220 1.397 . S
C221 C222 1.385 . S
C222 H205 0.940 . S
C222 C221 1.385 . S
C222 C223 1.388 . S
C223 H202 0.939 . S
C223 C218 1.391 . S
C223 C222 1.388 . S
P224 O235 1.490 . S
P224 C238 1.812 . S
P224 C244 1.803 . S
P224 C250 1.819 . S
H225 C239 0.941 . S
H226 C240 0.939 . S
H227 C242 0.940 . S
H228 C243 0.940 . S
H229 C245 0.939 . S
H230 C246 0.942 . S
H231 C248 0.940 . S
H232 C249 0.939 . S
H233 C251 0.941 . S
H234 C255 0.939 . S
O235 P224 1.490 . S
H236 C252 0.939 . S
H237 C254 0.940 . S
C238 P224 1.812 . S
C238 C239 1.389 . S
C238 C243 1.391 . S
C239 H225 0.941 . S
C239 C238 1.389 . S
C239 C240 1.397 . S
C240 H226 0.939 . S
C240 C239 1.397 . S
C240 C241 1.378 . S
C241 C240 1.378 . S
C241 C242 1.378 . S
C242 H227 0.940 . S
C242 C241 1.378 . S
C242 C243 1.396 . S
C243 H228 0.940 . S
C243 C238 1.391 . S
C243 C242 1.396 . S
C244 P224 1.803 . S
C244 C245 1.378 . S
C244 C249 1.400 . S
C245 H229 0.939 . S
C245 C244 1.378 . S
C245 C246 1.361 . S
C246 H230 0.942 . S
C246 C245 1.361 . S
C246 C247 1.369 . S
C247 C246 1.369 . S
C247 C248 1.404 . S
C248 H231 0.940 . S
C248 C247 1.404 . S
C248 C249 1.389 . S
C249 H232 0.939 . S
C249 C244 1.400 . S
C249 C248 1.389 . S
C250 P224 1.819 . S
C250 C251 1.391 . S
C250 C255 1.391 . S
C251 H233 0.941 . S
C251 C250 1.391 . S
C251 C252 1.396 . S
C252 H236 0.939 . S
C252 C251 1.396 . S
C252 C253 1.397 . S
C253 C252 1.397 . S
C253 C254 1.385 . S
C254 H237 0.940 . S
C254 C253 1.385 . S
C254 C255 1.388 . S
C255 H234 0.939 . S
C255 C250 1.391 . S
C255 C254 1.388 . S
Co256 N261 2.057 . S
Co256 O273 2.021 . S
Co256 O276 2.062 . S
Co256 O280 2.117 1_545 S
Co256 O281 2.020 . S
C257 O277 1.259 1_655 S
C257 O280 1.258 . S
Co258 N267 2.057 . S
Co258 O274 2.117 1_565 S
Co258 O275 2.020 1_565 S
Co258 O277 2.021 . S
Co258 O282 2.062 . S
C259 N261 1.316 . S
C259 N262 1.347 . S
C259 H264 0.931 . S
C260 N261 1.396 . S
C260 C263 1.364 . S
C260 H265 0.900 1_545 S
N261 Co256 2.057 . S
N261 C259 1.316 . S
N261 C260 1.396 . S
N262 C259 1.347 . S
N262 C263 1.373 . S
C263 C260 1.364 . S
C263 N262 1.373 . S
C263 H284 0.931 . S
H264 C259 0.931 . S
H265 C260 0.900 1_565 S
C266 O273 1.259 1_455 S
C266 O274 1.258 . S
N267 Co258 2.057 . S
N267 C268 1.316 . S
N267 C269 1.375 1_565 S
C268 N267 1.316 . S
C268 N270 1.347 . S
C268 H279 0.931 . S
C269 N267 1.375 1_545 S
C269 C271 1.350 1_545 S
C269 H278 0.930 . S
N270 C268 1.347 . S
N270 C271 1.373 . S
C271 C269 1.350 1_565 S
C271 N270 1.373 . S
C271 H285 0.931 1_565 S
C272 O275 1.256 . S
C272 O276 1.255 1_455 S
O273 Co256 2.021 . S
O273 C266 1.259 1_655 S
O274 Co258 2.117 1_545 S
O274 C266 1.258 . S
O275 Co258 2.020 1_545 S
O275 C272 1.256 . S
O276 Co256 2.062 . S
O276 C272 1.255 1_655 S
O277 C257 1.259 1_455 S
O277 Co258 2.021 . S
H278 C269 0.930 . S
H279 C268 0.931 . S
O280 Co256 2.117 1_565 S
O280 C257 1.258 . S
O281 Co256 2.020 . S
O281 C283 1.256 1_545 S
O282 Co258 2.062 . S
O282 C283 1.255 1_455 S
C283 O281 1.256 1_565 S
C283 O282 1.255 1_655 S
H284 C263 0.931 . S
H285 C271 0.931 1_545 S
Co286 N291 2.057 1_545 S
Co286 O303 2.021 . S
Co286 O306 2.062 1_545 S
Co286 O310 2.117 1_546 S
Co286 O311 2.020 1_556 S
C287 O307 1.259 . S
C287 O310 1.258 . S
Co288 N297 2.057 . S
Co288 O304 2.117 . S
Co288 O305 2.020 1_545 S
Co288 O307 2.021 1_545 S
Co288 O312 2.062 . S
C289 N291 1.316 . S
C289 N292 1.347 . S
C289 H294 0.931 1_565 S
C290 N291 1.375 . S
C290 C293 1.350 . S
C290 H295 0.930 . S
N291 Co286 2.057 1_565 S
N291 C289 1.316 . S
N291 C290 1.375 . S
N292 C289 1.347 . S
N292 C293 1.373 . S
C293 C290 1.350 . S
C293 N292 1.373 . S
C293 H314 0.931 . S
H294 C289 0.931 1_545 S
H295 C290 0.930 . S
C296 O303 1.259 . S
C296 O304 1.258 1_556 S
N297 Co288 2.057 . S
N297 C298 1.316 . S
N297 C299 1.375 . S
C298 N297 1.316 . S
C298 N300 1.347 . S
C298 H309 0.931 . S
C299 N297 1.375 . S
C299 C301 1.350 . S
C299 H308 0.930 . S
N300 C298 1.347 . S
N300 C301 1.373 . S
C301 C299 1.350 . S
C301 N300 1.373 . S
C301 H315 0.931 . S
C302 O305 1.256 1_556 S
C302 O306 1.255 . S
O303 Co286 2.021 . S
O303 C296 1.259 . S
O304 Co288 2.117 . S
O304 C296 1.258 1_554 S
O305 Co288 2.020 1_565 S
O305 C302 1.256 1_554 S
O306 Co286 2.062 1_565 S
O306 C302 1.255 . S
O307 C287 1.259 . S
O307 Co288 2.021 1_565 S
H308 C299 0.930 . S
H309 C298 0.931 . S
O310 Co286 2.117 1_564 S
O310 C287 1.258 . S
O311 Co286 2.020 1_554 S
O311 C313 1.256 . S
O312 Co288 2.062 . S
O312 C313 1.255 . S
C313 O311 1.256 . S
C313 O312 1.255 . S
H314 C293 0.931 . S
H315 C301 0.931 . S
Co316 N321 2.057 . S
Co316 O333 2.021 . S
Co316 O336 2.062 . S
Co316 O340 2.117 . S
Co316 O341 2.020 . S
C317 O337 1.259 . S
C317 O340 1.258 . S
Co318 N327 2.057 . S
Co318 O334 2.117 . S
Co318 O335 2.020 . S
Co318 O337 2.021 . S
Co318 O342 2.062 . S
C319 N321 1.316 . S
C319 N322 1.347 . S
C319 H324 0.931 . S
C320 N321 1.375 . S
C320 C323 1.350 . S
C320 H325 0.930 . S
N321 Co316 2.057 . S
N321 C319 1.316 . S
N321 C320 1.375 . S
N322 C319 1.347 . S
N322 C323 1.373 . S
C323 C320 1.350 . S
C323 N322 1.373 . S
C323 H344 0.931 . S
H324 C319 0.931 . S
H325 C320 0.930 . S
C326 O333 1.259 . S
C326 O334 1.258 . S
N327 Co318 2.057 . S
N327 C328 1.316 . S
N327 C329 1.375 . S
C328 N327 1.316 . S
C328 N330 1.347 . S
C328 H339 0.931 . S
C329 N327 1.375 . S
C329 C331 1.350 . S
C329 H338 0.930 . S
N330 C328 1.347 . S
N330 C331 1.373 . S
C331 C329 1.350 . S
C331 N330 1.373 . S
C331 H345 0.931 . S
C332 O335 1.256 . S
C332 O336 1.255 . S
O333 Co316 2.021 . S
O333 C326 1.259 . S
O334 Co318 2.117 . S
O334 C326 1.258 . S
O335 Co318 2.020 . S
O335 C332 1.256 . S
O336 Co316 2.062 . S
O336 C332 1.255 . S
O337 C317 1.259 . S
O337 Co318 2.021 . S
H338 C329 0.930 . S
H339 C328 0.931 . S
O340 Co316 2.117 . S
O340 C317 1.258 . S
O341 Co316 2.020 . S
O341 C343 1.256 . S
O342 Co318 2.062 . S
O342 C343 1.255 . S
C343 O341 1.256 . S
C343 O342 1.255 . S
H344 C323 0.931 . S
H345 C331 0.931 . S
Co346 N351 2.057 . S
Co346 O363 2.021 . S
Co346 O366 2.050 1_556 S
Co346 O370 2.117 1_455 S
Co346 O371 2.020 1_455 S
C347 O367 1.281 . S
C347 O370 1.244 1_554 S
Co348 N357 2.057 . S
Co348 O364 2.117 1_655 S
Co348 O365 2.020 1_655 S
Co348 O367 2.021 . S
Co348 O372 2.062 . S
C349 N351 1.316 . S
C349 N352 1.347 . S
C349 H354 0.931 . S
C350 N351 1.375 1_655 S
C350 C353 1.350 1_655 S
C350 H355 0.930 . S
N351 Co346 2.057 . S
N351 C349 1.316 . S
N351 C350 1.375 1_455 S
N352 C349 1.347 . S
N352 C353 1.373 . S
C353 C350 1.350 1_455 S
C353 N352 1.373 . S
C353 H374 0.931 1_455 S
H354 C349 0.931 . S
H355 C350 0.930 . S
C356 O363 1.259 1_554 S
C356 O364 1.258 . S
N357 Co348 2.057 . S
N357 C358 1.316 . S
N357 C359 1.375 1_655 S
C358 N357 1.316 . S
C358 N360 1.347 . S
C358 H369 0.931 . S
C359 N357 1.375 1_455 S
C359 C361 1.350 1_455 S
C359 H368 0.930 . S
N360 C358 1.347 . S
N360 C361 1.373 . S
C361 C359 1.350 1_655 S
C361 N360 1.373 . S
C361 H375 0.931 1_655 S
C362 O365 1.256 . S
C362 O366 1.284 . S
O363 Co346 2.021 . S
O363 C356 1.259 1_556 S
O364 Co348 2.117 1_455 S
O364 C356 1.258 . S
O365 Co348 2.020 1_455 S
O365 C362 1.256 . S
O366 Co346 2.050 1_554 S
O366 C362 1.284 . S
O367 C347 1.281 . S
O367 Co348 2.021 . S
H368 C359 0.930 . S
H369 C358 0.931 . S
O370 Co346 2.117 1_655 S
O370 C347 1.244 1_556 S
O371 Co346 2.020 1_655 S
O371 C373 1.256 . S
O372 Co348 2.062 . S
O372 C373 1.255 1_554 S
C373 O371 1.256 . S
C373 O372 1.255 1_556 S
H374 C353 0.931 1_655 S
H375 C361 0.931 1_455 S
H376 C388 0.930 . S
H377 C390 0.930 . S
H378 C391 0.930 . S
H379 C395 0.959 . S
H380 C395 0.959 . S
H381 C395 0.961 . S
H382 C396 0.960 . S
H383 C396 0.961 . S
H384 C396 0.959 . S
H385 C399 0.929 1_565 S
H386 C400 0.931 1_565 S
H387 C402 0.930 . S
C388 H376 0.930 . S
C388 C389 1.399 . S
C388 C393 1.399 . S
C389 C388 1.399 . S
C389 C390 1.376 . S
C390 H377 0.930 . S
C390 C389 1.376 . S
C390 C391 1.388 . S
C391 H378 0.930 . S
C391 C390 1.388 . S
C391 C392 1.390 . S
C392 C391 1.390 . S
C392 C393 1.394 . S
C392 C398 1.465 . S
C393 C388 1.399 . S
C393 C392 1.394 . S
C393 C394 1.516 . S
C394 C393 1.516 . S
C394 C395 1.502 . S
C394 C396 1.561 . S
C394 C397 1.526 . S
C395 H379 0.959 . S
C395 H380 0.959 . S
C395 H381 0.961 . S
C395 C394 1.502 . S
C396 H382 0.960 . S
C396 H383 0.961 . S
C396 H384 0.959 . S
C396 C394 1.561 . S
C397 C394 1.526 . S
C397 C398 1.396 . S
C397 C402 1.390 . S
C398 C392 1.465 . S
C398 C397 1.396 . S
C398 C399 1.399 . S
C399 H385 0.929 1_545 S
C399 C398 1.399 . S
C399 C400 1.385 . S
C400 H386 0.931 1_545 S
C400 C399 1.385 . S
C400 C401 1.389 . S
C401 C400 1.389 . S
C401 C402 1.387 . S
C402 H387 0.930 . S
C402 C397 1.390 . S
C402 C401 1.387 . S
H403 C415 0.930 . S
H404 C417 0.930 . S
H405 C418 0.930 . S
H406 C422 0.959 . S
H407 C422 0.959 . S
H408 C422 0.961 . S
H409 C423 0.960 . S
H410 C423 0.961 . S
H411 C423 0.959 . S
H412 C426 0.929 1_545 S
H413 C427 0.931 1_545 S
H414 C429 0.930 . S
C415 H403 0.930 . S
C415 C416 1.399 . S
C415 C420 1.399 . S
C416 C415 1.399 . S
C416 C417 1.376 . S
C417 H404 0.930 . S
C417 C416 1.376 . S
C417 C418 1.388 . S
C418 H405 0.930 . S
C418 C417 1.388 . S
C418 C419 1.390 . S
C419 C418 1.390 . S
C419 C420 1.394 . S
C419 C425 1.465 . S
C420 C415 1.399 . S
C420 C419 1.394 . S
C420 C421 1.516 . S
C421 C420 1.516 . S
C421 C422 1.502 . S
C421 C423 1.561 . S
C421 C424 1.526 . S
C422 H406 0.959 . S
C422 H407 0.959 . S
C422 H408 0.961 . S
C422 C421 1.502 . S
C423 H409 0.960 . S
C423 H410 0.961 . S
C423 H411 0.959 . S
C423 C421 1.561 . S
C424 C421 1.526 . S
C424 C425 1.396 . S
C424 C429 1.390 . S
C425 C419 1.465 . S
C425 C424 1.396 . S
C425 C426 1.399 . S
C426 H412 0.929 1_565 S
C426 C425 1.399 . S
C426 C427 1.385 . S
C427 H413 0.931 1_565 S
C427 C426 1.385 . S
C427 C428 1.389 . S
C428 C427 1.389 . S
C428 C429 1.387 . S
C429 H414 0.930 . S
C429 C424 1.390 . S
C429 C428 1.387 . S
H430 C442 0.930 . S
H431 C444 0.930 . S
H432 C445 0.930 . S
H433 C449 0.959 . S
H434 C449 0.959 . S
H435 C449 0.961 . S
H436 C450 0.960 . S
H437 C450 0.961 . S
H438 C450 0.959 . S
H439 C453 0.929 . S
H440 C454 0.931 . S
H441 C456 0.930 . S
C442 H430 0.930 . S
C442 C443 1.399 . S
C442 C447 1.399 . S
C443 C442 1.399 . S
C443 C444 1.376 . S
C444 H431 0.930 . S
C444 C443 1.376 . S
C444 C445 1.388 . S
C445 H432 0.930 . S
C445 C444 1.388 . S
C445 C446 1.390 . S
C446 C445 1.390 . S
C446 C447 1.394 . S
C446 C452 1.465 . S
C447 C442 1.399 . S
C447 C446 1.394 . S
C447 C448 1.516 . S
C448 C447 1.516 . S
C448 C449 1.502 . S
C448 C450 1.561 . S
C448 C451 1.526 . S
C449 H433 0.959 . S
C449 H434 0.959 . S
C449 H435 0.961 . S
C449 C448 1.502 . S
C450 H436 0.960 . S
C450 H437 0.961 . S
C450 H438 0.959 . S
C450 C448 1.561 . S
C451 C448 1.526 . S
C451 C452 1.396 . S
C451 C456 1.390 . S
C452 C446 1.465 . S
C452 C451 1.396 . S
C452 C453 1.399 . S
C453 H439 0.929 . S
C453 C452 1.399 . S
C453 C454 1.385 . S
C454 H440 0.931 . S
C454 C453 1.385 . S
C454 C455 1.389 . S
C455 C454 1.389 . S
C455 C456 1.387 . S
C456 H441 0.930 . S
C456 C451 1.390 . S
C456 C455 1.387 . S
H457 C469 0.930 . S
H458 C471 0.930 . S
H459 C472 0.930 . S
H460 C476 0.959 . S
H461 C476 0.959 . S
H462 C476 0.961 . S
H463 C477 0.960 . S
H464 C477 0.961 . S
H465 C477 0.959 . S
H466 C480 0.929 . S
H467 C481 0.931 . S
H468 C483 0.930 . S
C469 H457 0.930 . S
C469 C470 1.399 . S
C469 C474 1.399 . S
C470 C469 1.399 . S
C470 C471 1.376 . S
C471 H458 0.930 . S
C471 C470 1.376 . S
C471 C472 1.388 . S
C472 H459 0.930 . S
C472 C471 1.388 . S
C472 C473 1.390 . S
C473 C472 1.390 . S
C473 C474 1.394 . S
C473 C479 1.465 . S
C474 C469 1.399 . S
C474 C473 1.394 . S
C474 C475 1.516 . S
C475 C474 1.516 . S
C475 C476 1.502 . S
C475 C477 1.561 . S
C475 C478 1.526 . S
C476 H460 0.959 . S
C476 H461 0.959 . S
C476 H462 0.961 . S
C476 C475 1.502 . S
C477 H463 0.960 . S
C477 H464 0.961 . S
C477 H465 0.959 . S
C477 C475 1.561 . S
C478 C475 1.526 . S
C478 C479 1.396 . S
C478 C483 1.390 . S
C479 C473 1.465 . S
C479 C478 1.396 . S
C479 C480 1.399 . S
C480 H466 0.929 . S
C480 C479 1.399 . S
C480 C481 1.385 . S
C481 H467 0.931 . S
C481 C480 1.385 . S
C481 C482 1.389 . S
C482 C481 1.389 . S
C482 C483 1.387 . S
C483 H468 0.930 . S
C483 C478 1.390 . S
C483 C482 1.387 . S
H484 C496 0.930 . S
H485 C498 0.930 . S
H486 C499 0.930 . S
H487 C503 0.959 . S
H488 C503 0.959 1_556 S
H489 C503 0.961 1_556 S
H490 C504 0.960 . S
H491 C504 0.961 1_556 S
H492 C504 0.959 . S
H493 C507 0.929 . S
H494 C508 0.931 . S
H495 C510 0.930 . S
C496 H484 0.930 . S
C496 C497 1.399 . S
C496 C501 1.399 . S
C497 C496 1.399 . S
C497 C498 1.376 . S
C498 H485 0.930 . S
C498 C497 1.376 . S
C498 C499 1.388 . S
C499 H486 0.930 . S
C499 C498 1.388 . S
C499 C500 1.390 . S
C500 C499 1.390 . S
C500 C501 1.394 . S
C500 C506 1.465 . S
C501 C496 1.399 . S
C501 C500 1.394 . S
C501 C502 1.516 . S
C502 C501 1.516 . S
C502 C503 1.502 . S
C502 C504 1.561 . S
C502 C505 1.526 . S
C503 H487 0.959 . S
C503 H488 0.959 1_554 S
C503 H489 0.961 1_554 S
C503 C502 1.502 . S
C504 H490 0.960 . S
C504 H491 0.961 1_554 S
C504 H492 0.959 . S
C504 C502 1.561 . S
C505 C502 1.526 . S
C505 C506 1.396 . S
C505 C510 1.390 . S
C506 C500 1.465 . S
C506 C505 1.396 . S
C506 C507 1.399 . S
C507 H493 0.929 . S
C507 C506 1.399 . S
C507 C508 1.385 . S
C508 H494 0.931 . S
C508 C507 1.385 . S
C508 C509 1.389 . S
C509 C508 1.389 . S
C509 C510 1.387 . S
C510 H495 0.930 . S
C510 C505 1.390 . S
C510 C509 1.387 . S
H511 C523 0.930 . S
H512 C525 0.930 . S
H513 C526 0.930 . S
H514 C530 0.959 . S
H515 C530 0.959 1_545 S
H516 C530 0.961 1_545 S
H517 C531 0.960 . S
H518 C531 0.961 . S
H519 C531 0.959 . S
H520 C534 0.929 . S
H521 C535 0.931 . S
H522 C537 0.930 . S
C523 H511 0.930 . S
C523 C524 1.399 . S
C523 C528 1.399 . S
C524 C523 1.399 . S
C524 C525 1.376 . S
C525 H512 0.930 . S
C525 C524 1.376 . S
C525 C526 1.388 . S
C526 H513 0.930 . S
C526 C525 1.388 . S
C526 C527 1.390 . S
C527 C526 1.390 . S
C527 C528 1.394 . S
C527 C533 1.465 . S
C528 C523 1.399 . S
C528 C527 1.394 . S
C528 C529 1.516 . S
C529 C528 1.516 . S
C529 C530 1.502 . S
C529 C531 1.561 . S
C529 C532 1.526 . S
C530 H514 0.959 . S
C530 H515 0.959 1_565 S
C530 H516 0.961 1_565 S
C530 C529 1.502 . S
C531 H517 0.960 . S
C531 H518 0.961 . S
C531 H519 0.959 . S
C531 C529 1.561 . S
C532 C529 1.526 . S
C532 C533 1.396 . S
C532 C537 1.390 . S
C533 C527 1.465 . S
C533 C532 1.396 . S
C533 C534 1.399 . S
C534 H520 0.929 . S
C534 C533 1.399 . S
C534 C535 1.385 . S
C535 H521 0.931 . S
C535 C534 1.385 . S
C535 C536 1.389 . S
C536 C535 1.389 . S
C536 C537 1.387 . S
C537 H522 0.930 . S
C537 C532 1.390 . S
C537 C536 1.387 . S
H538 C550 0.930 . S
H539 C552 0.930 . S
H540 C553 0.930 . S
H541 C557 0.959 . S
H542 C557 0.959 . S
H543 C557 0.961 . S
H544 C558 0.960 . S
H545 C558 0.961 1_554 S
H546 C558 0.959 . S
H547 C561 0.929 . S
H548 C562 0.931 . S
H549 C564 0.930 1_554 S
C550 H538 0.930 . S
C550 C551 1.399 . S
C550 C555 1.399 . S
C551 C550 1.399 . S
C551 C552 1.376 . S
C552 H539 0.930 . S
C552 C551 1.376 . S
C552 C553 1.388 . S
C553 H540 0.930 . S
C553 C552 1.388 . S
C553 C554 1.390 . S
C554 C553 1.390 . S
C554 C555 1.394 . S
C554 C560 1.465 . S
C555 C550 1.399 . S
C555 C554 1.394 . S
C555 C556 1.516 . S
C556 C555 1.516 . S
C556 C557 1.502 1_556 S
C556 C558 1.561 . S
C556 C559 1.526 . S
C557 H541 0.959 . S
C557 H542 0.959 . S
C557 H543 0.961 . S
C557 C556 1.502 1_554 S
C558 H544 0.960 . S
C558 H545 0.961 1_556 S
C558 H546 0.959 . S
C558 C556 1.561 . S
C559 C556 1.526 . S
C559 C560 1.396 . S
C559 C564 1.390 . S
C560 C554 1.465 . S
C560 C559 1.396 . S
C560 C561 1.399 . S
C561 H547 0.929 . S
C561 C560 1.399 . S
C561 C562 1.385 . S
C562 H548 0.931 . S
C562 C561 1.385 . S
C562 C563 1.389 . S
C563 C562 1.389 . S
C563 C564 1.387 . S
C564 H549 0.930 1_556 S
C564 C559 1.390 . S
C564 C563 1.387 . S
H565 C577 0.930 . S
H566 C579 0.930 . S
H567 C580 0.930 . S
H568 C584 0.959 . S
H569 C584 0.959 . S
H570 C584 0.961 . S
H571 C585 0.960 . S
H572 C585 0.961 . S
H573 C585 0.959 . S
H574 C588 0.929 . S
H575 C589 0.931 . S
H576 C591 0.930 . S
C577 H565 0.930 . S
C577 C578 1.399 . S
C577 C582 1.399 . S
C578 C577 1.399 . S
C578 C579 1.376 . S
C579 H566 0.930 . S
C579 C578 1.376 . S
C579 C580 1.388 . S
C580 H567 0.930 . S
C580 C579 1.388 . S
C580 C581 1.390 . S
C581 C580 1.390 . S
C581 C582 1.394 . S
C581 C587 1.465 . S
C582 C577 1.399 . S
C582 C581 1.394 . S
C582 C583 1.516 . S
C583 C582 1.516 . S
C583 C584 1.502 . S
C583 C585 1.561 . S
C583 C586 1.526 . S
C584 H568 0.959 . S
C584 H569 0.959 . S
C584 H570 0.961 . S
C584 C583 1.502 . S
C585 H571 0.960 . S
C585 H572 0.961 . S
C585 H573 0.959 . S
C585 C583 1.561 . S
C586 C583 1.526 . S
C586 C587 1.396 . S
C586 C591 1.390 . S
C587 C581 1.465 . S
C587 C586 1.396 . S
C587 C588 1.399 . S
C588 H574 0.929 . S
C588 C587 1.399 . S
C588 C589 1.385 . S
C589 H575 0.931 . S
C589 C588 1.385 . S
C589 C590 1.389 . S
C590 C589 1.389 . S
C590 C591 1.387 . S
C591 H576 0.930 . S
C591 C586 1.390 . S
C591 C590 1.387 . S
H592 C604 0.930 . S
H593 C606 0.930 . S
H594 C607 0.930 . S
H595 C611 0.959 . S
H596 C611 0.959 . S
H597 C611 0.961 . S
H598 C612 0.960 . S
H599 C612 0.961 . S
H600 C612 0.959 1_556 S
H601 C615 0.929 1_655 S
H602 C616 0.903 1_655 S
H603 C618 0.930 . S
C604 H592 0.930 . S
C604 C605 1.399 . S
C604 C609 1.399 . S
C605 C604 1.399 . S
C605 C606 1.376 . S
C606 H593 0.930 . S
C606 C605 1.376 . S
C606 C607 1.388 . S
C607 H594 0.930 . S
C607 C606 1.388 . S
C607 C608 1.390 . S
C608 C607 1.390 . S
C608 C609 1.394 . S
C608 C614 1.465 . S
C609 C604 1.399 . S
C609 C608 1.394 . S
C609 C610 1.516 . S
C610 C609 1.516 . S
C610 C611 1.502 . S
C610 C612 1.561 . S
C610 C613 1.526 . S
C611 H595 0.959 . S
C611 H596 0.959 . S
C611 H597 0.961 . S
C611 C610 1.502 . S
C612 H598 0.960 . S
C612 H599 0.961 . S
C612 H600 0.959 1_554 S
C612 C610 1.561 . S
C613 C610 1.526 . S
C613 C614 1.396 . S
C613 C618 1.390 . S
C614 C608 1.465 . S
C614 C613 1.396 . S
C614 C615 1.399 . S
C615 H601 0.929 1_455 S
C615 C614 1.399 . S
C615 C616 1.388 . S
C616 H602 0.903 1_455 S
C616 C615 1.388 . S
C616 C617 1.414 . S
C617 C616 1.414 . S
C617 C618 1.387 . S
C618 H603 0.930 . S
C618 C613 1.390 . S
C618 C617 1.387 . S
H619 C631 0.930 . S
H620 C633 0.930 . S
H621 C634 0.930 . S
H622 C638 0.959 1_554 S
H623 C638 0.959 . S
H624 C638 0.961 . S
H625 C639 0.960 . S
H626 C639 0.961 . S
H627 C639 0.959 . S
H628 C642 0.929 . S
H629 C643 0.931 . S
H630 C645 0.930 . S
C631 H619 0.930 . S
C631 C632 1.399 . S
C631 C636 1.399 . S
C632 C631 1.399 . S
C632 C633 1.376 . S
C633 H620 0.930 . S
C633 C632 1.376 . S
C633 C634 1.388 . S
C634 H621 0.930 . S
C634 C633 1.388 . S
C634 C635 1.390 . S
C635 C634 1.390 . S
C635 C636 1.394 . S
C635 C641 1.465 . S
C636 C631 1.399 . S
C636 C635 1.394 . S
C636 C637 1.516 . S
C637 C636 1.516 . S
C637 C638 1.502 . S
C637 C639 1.561 . S
C637 C640 1.526 . S
C638 H622 0.959 1_556 S
C638 H623 0.959 . S
C638 H624 0.961 . S
C638 C637 1.502 . S
C639 H625 0.960 . S
C639 H626 0.961 . S
C639 H627 0.959 . S
C639 C637 1.561 . S
C640 C637 1.526 . S
C640 C641 1.396 . S
C640 C645 1.390 . S
C641 C635 1.465 . S
C641 C640 1.396 . S
C641 C642 1.399 . S
C642 H628 0.929 . S
C642 C641 1.399 . S
C642 C643 1.385 . S
C643 H629 0.931 . S
C643 C642 1.385 . S
C643 C644 1.389 . S
C644 C643 1.389 . S
C644 C645 1.387 . S
C645 H630 0.930 . S
C645 C640 1.390 . S
C645 C644 1.387 . S
H646 C658 0.930 . S
H647 C660 0.930 . S
H648 C661 0.930 . S
H649 C665 0.959 . S
H650 C665 0.959 . S
H651 C665 0.961 . S
H652 C666 0.960 . S
H653 C666 0.961 . S
H654 C666 0.959 1_655 S
H655 C669 0.929 . S
H656 C670 0.931 . S
H657 C672 0.930 1_455 S
C658 H646 0.930 . S
C658 C659 1.399 . S
C658 C663 1.399 . S
C659 C658 1.399 . S
C659 C660 1.376 . S
C660 H647 0.930 . S
C660 C659 1.376 . S
C660 C661 1.388 . S
C661 H648 0.930 . S
C661 C660 1.388 . S
C661 C662 1.390 . S
C662 C661 1.390 . S
C662 C663 1.394 . S
C662 C668 1.465 . S
C663 C658 1.399 . S
C663 C662 1.394 . S
C663 C664 1.516 . S
C664 C663 1.516 . S
C664 C665 1.502 1_655 S
C664 C666 1.561 1_655 S
C664 C667 1.526 . S
C665 H649 0.959 . S
C665 H650 0.959 . S
C665 H651 0.961 . S
C665 C664 1.502 1_455 S
C666 H652 0.960 . S
C666 H653 0.961 . S
C666 H654 0.959 1_455 S
C666 C664 1.561 1_455 S
C667 C664 1.526 . S
C667 C668 1.396 . S
C667 C672 1.390 . S
C668 C662 1.465 . S
C668 C667 1.396 . S
C668 C669 1.399 . S
C669 H655 0.929 . S
C669 C668 1.399 . S
C669 C670 1.385 . S
C670 H656 0.931 . S
C670 C669 1.385 . S
C670 C671 1.389 . S
C671 C670 1.389 . S
C671 C672 1.387 . S
C672 H657 0.930 1_655 S
C672 C667 1.390 . S
C672 C671 1.387 . S
H673 C685 0.930 . S
H674 C687 0.930 . S
H675 C688 0.930 . S
H676 C692 0.959 . S
H677 C692 0.959 . S
H678 C692 0.961 . S
H679 C693 0.960 . S
H680 C693 0.961 . S
H681 C693 0.959 . S
H682 C696 0.929 . S
H683 C697 0.931 . S
H684 C699 0.930 . S
C685 H673 0.930 . S
C685 C686 1.399 . S
C685 C690 1.399 . S
C686 C685 1.399 . S
C686 C687 1.376 . S
C687 H674 0.930 . S
C687 C686 1.376 . S
C687 C688 1.388 . S
C688 H675 0.930 . S
C688 C687 1.388 . S
C688 C689 1.390 . S
C689 C688 1.390 . S
C689 C690 1.394 . S
C689 C695 1.465 . S
C690 C685 1.399 . S
C690 C689 1.394 . S
C690 C691 1.516 . S
C691 C690 1.516 . S
C691 C692 1.502 . S
C691 C693 1.561 . S
C691 C694 1.526 . S
C692 H676 0.959 . S
C692 H677 0.959 . S
C692 H678 0.961 . S
C692 C691 1.502 . S
C693 H679 0.960 . S
C693 H680 0.961 . S
C693 H681 0.959 . S
C693 C691 1.561 . S
C694 C691 1.526 . S
C694 C695 1.396 . S
C694 C699 1.390 . S
C695 C689 1.465 . S
C695 C694 1.396 . S
C695 C696 1.399 . S
C696 H682 0.929 . S
C696 C695 1.399 . S
C696 C697 1.385 . S
C697 H683 0.931 . S
C697 C696 1.385 . S
C697 C698 1.389 . S
C698 C697 1.389 . S
C698 C699 1.387 . S
C699 H684 0.930 . S
C699 C694 1.390 . S
C699 C698 1.387 . S
H700 C712 0.930 . S
H701 C714 0.930 . S
H702 C715 0.930 . S
H703 C719 0.959 1_565 S
H704 C719 0.959 . S
H705 C719 0.961 . S
H706 C720 0.960 . S
H707 C720 0.961 . S
H708 C720 0.959 . S
H709 C723 0.929 . S
H710 C724 0.931 . S
H711 C726 0.930 1_545 S
C712 H700 0.930 . S
C712 C713 1.399 . S
C712 C717 1.399 . S
C713 C712 1.399 . S
C713 C714 1.376 . S
C714 H701 0.930 . S
C714 C713 1.376 . S
C714 C715 1.388 . S
C715 H702 0.930 . S
C715 C714 1.388 . S
C715 C716 1.390 . S
C716 C715 1.390 . S
C716 C717 1.394 . S
C716 C722 1.465 . S
C717 C712 1.399 . S
C717 C716 1.394 . S
C717 C718 1.516 . S
C718 C717 1.516 . S
C718 C719 1.502 1_565 S
C718 C720 1.561 1_565 S
C718 C721 1.526 . S
C719 H703 0.959 1_545 S
C719 H704 0.959 . S
C719 H705 0.961 . S
C719 C718 1.502 1_545 S
C720 H706 0.960 . S
C720 H707 0.961 . S
C720 H708 0.959 . S
C720 C718 1.561 1_545 S
C721 C718 1.526 . S
C721 C722 1.396 . S
C721 C726 1.390 . S
C722 C716 1.465 . S
C722 C721 1.396 . S
C722 C723 1.399 . S
C723 H709 0.929 . S
C723 C722 1.399 . S
C723 C724 1.385 . S
C724 H710 0.931 . S
C724 C723 1.385 . S
C724 C725 1.389 . S
C725 C724 1.389 . S
C725 C726 1.387 . S
C726 H711 0.930 1_565 S
C726 C721 1.390 . S
C726 C725 1.387 . S
H727 C739 0.930 . S
H728 C741 0.930 . S
H729 C742 0.930 . S
H730 C746 0.959 . S
H731 C746 0.959 . S
H732 C746 0.961 . S
H733 C747 0.960 . S
H734 C747 0.961 . S
H735 C747 0.959 . S
H736 C750 0.929 . S
H737 C751 0.931 . S
H738 C753 0.930 . S
C739 H727 0.930 . S
C739 C740 1.399 . S
C739 C744 1.399 . S
C740 C739 1.399 . S
C740 C741 1.376 . S
C741 H728 0.930 . S
C741 C740 1.376 . S
C741 C742 1.388 . S
C742 H729 0.930 . S
C742 C741 1.388 . S
C742 C743 1.390 . S
C743 C742 1.390 . S
C743 C744 1.394 . S
C743 C749 1.465 . S
C744 C739 1.399 . S
C744 C743 1.394 . S
C744 C745 1.516 . S
C745 C744 1.516 . S
C745 C746 1.502 . S
C745 C747 1.561 . S
C745 C748 1.526 . S
C746 H730 0.959 . S
C746 H731 0.959 . S
C746 H732 0.961 . S
C746 C745 1.502 . S
C747 H733 0.960 . S
C747 H734 0.961 . S
C747 H735 0.959 . S
C747 C745 1.561 . S
C748 C745 1.526 . S
C748 C749 1.396 . S
C748 C753 1.390 . S
C749 C743 1.465 . S
C749 C748 1.396 . S
C749 C750 1.399 . S
C750 H736 0.929 . S
C750 C749 1.399 . S
C750 C751 1.385 . S
C751 H737 0.931 . S
C751 C750 1.385 . S
C751 C752 1.389 . S
C752 C751 1.389 . S
C752 C753 1.387 . S
C753 H738 0.930 . S
C753 C748 1.390 . S
C753 C752 1.387 . S
H754 C766 0.930 . S
H755 C768 0.930 . S
H756 C769 0.930 . S
H757 C773 0.959 . S
H758 C773 0.959 . S
H759 C773 0.961 . S
H760 C774 0.960 . S
H761 C774 0.961 . S
H762 C774 0.959 . S
H763 C777 0.929 . S
H764 C778 0.931 . S
H765 C780 0.930 . S
C766 H754 0.930 . S
C766 C767 1.399 . S
C766 C771 1.399 . S
C767 C766 1.399 . S
C767 C768 1.376 . S
C768 H755 0.930 . S
C768 C767 1.376 . S
C768 C769 1.388 . S
C769 H756 0.930 . S
C769 C768 1.388 . S
C769 C770 1.390 . S
C770 C769 1.390 . S
C770 C771 1.394 . S
C770 C776 1.465 . S
C771 C766 1.399 . S
C771 C770 1.394 . S
C771 C772 1.516 . S
C772 C771 1.516 . S
C772 C773 1.502 . S
C772 C774 1.561 . S
C772 C775 1.526 . S
C773 H757 0.959 . S
C773 H758 0.959 . S
C773 H759 0.961 . S
C773 C772 1.502 . S
C774 H760 0.960 . S
C774 H761 0.961 . S
C774 H762 0.959 . S
C774 C772 1.561 . S
C775 C772 1.526 . S
C775 C776 1.396 . S
C775 C780 1.390 . S
C776 C770 1.465 . S
C776 C775 1.396 . S
C776 C777 1.399 . S
C777 H763 0.929 . S
C777 C776 1.399 . S
C777 C778 1.385 . S
C778 H764 0.931 . S
C778 C777 1.385 . S
C778 C779 1.389 . S
C779 C778 1.389 . S
C779 C780 1.387 . S
C780 H765 0.930 . S
C780 C775 1.390 . S
C780 C779 1.387 . S
H781 C793 0.930 . S
H782 C795 0.930 . S
H783 C796 0.930 . S
H784 C800 0.964 . S
H785 C800 0.964 . S
H786 C800 0.964 . S
H787 C801 0.960 . S
H788 C801 0.961 . S
H789 C801 0.959 . S
H790 C804 0.929 . S
H791 C805 0.931 . S
H792 C807 0.930 . S
C793 H781 0.930 . S
C793 C794 1.399 . S
C793 C798 1.399 . S
C794 C793 1.399 . S
C794 C795 1.376 . S
C795 H782 0.930 . S
C795 C794 1.376 . S
C795 C796 1.388 . S
C796 H783 0.930 . S
C796 C795 1.388 . S
C796 C797 1.390 . S
C797 C796 1.390 . S
C797 C798 1.394 . S
C797 C803 1.465 . S
C798 C793 1.399 . S
C798 C797 1.394 . S
C798 C799 1.516 . S
C799 C798 1.516 . S
C799 C800 1.490 1_455 S
C799 C801 1.561 . S
C799 C802 1.526 . S
C800 H784 0.964 . S
C800 H785 0.964 . S
C800 H786 0.964 . S
C800 C799 1.490 1_655 S
C801 H787 0.960 . S
C801 H788 0.961 . S
C801 H789 0.959 . S
C801 C799 1.561 . S
C802 C799 1.526 . S
C802 C803 1.396 . S
C802 C807 1.390 . S
C803 C797 1.465 . S
C803 C802 1.396 . S
C803 C804 1.399 . S
C804 H790 0.929 . S
C804 C803 1.399 . S
C804 C805 1.385 . S
C805 H791 0.931 . S
C805 C804 1.385 . S
C805 C806 1.389 . S
C806 C805 1.389 . S
C806 C807 1.387 . S
C807 H792 0.930 . S
C807 C802 1.390 . S
C807 C806 1.387 . S
H808 C820 0.930 . S
H809 C822 0.930 . S
H810 C823 0.930 . S
H811 C827 0.959 . S
H812 C827 0.959 . S
H813 C827 0.961 . S
H814 C828 0.960 . S
H815 C828 0.961 . S
H816 C828 0.959 . S
H817 C831 0.929 1_554 S
H818 C832 0.931 . S
H819 C834 0.930 1_545 S
C820 H808 0.930 . S
C820 C821 1.399 . S
C820 C825 1.399 . S
C821 C820 1.399 . S
C821 C822 1.376 . S
C822 H809 0.930 . S
C822 C821 1.376 . S
C822 C823 1.388 . S
C823 H810 0.930 . S
C823 C822 1.388 . S
C823 C824 1.390 . S
C824 C823 1.390 . S
C824 C825 1.394 . S
C824 C830 1.465 . S
C825 C820 1.399 . S
C825 C824 1.394 . S
C825 C826 1.516 . S
C826 C825 1.516 . S
C826 C827 1.502 1_565 S
C826 C828 1.561 . S
C826 C829 1.526 . S
C827 H811 0.959 . S
C827 H812 0.959 . S
C827 H813 0.961 . S
C827 C826 1.502 1_545 S
C828 H814 0.960 . S
C828 H815 0.961 . S
C828 H816 0.959 . S
C828 C826 1.561 . S
C829 C826 1.526 . S
C829 C830 1.396 . S
C829 C834 1.390 . S
C830 C824 1.465 . S
C830 C829 1.396 . S
C830 C831 1.399 . S
C831 H817 0.929 1_556 S
C831 C830 1.399 . S
C831 C832 1.385 1_556 S
C832 H818 0.931 . S
C832 C831 1.385 1_554 S
C832 C833 1.389 1_554 S
C833 C832 1.389 1_556 S
C833 C834 1.387 . S
C834 H819 0.930 1_565 S
C834 C829 1.390 . S
C834 C833 1.387 . S
H835 C847 0.930 . S
H836 C849 0.930 . S
H837 C850 0.930 . S
H838 C854 0.959 . S
H839 C854 0.959 . S
H840 C854 0.961 . S
H841 C855 0.960 . S
H842 C855 0.961 . S
H843 C855 0.959 . S
H844 C858 0.929 . S
H845 C859 0.931 . S
H846 C861 0.930 . S
C847 H835 0.930 . S
C847 C848 1.399 . S
C847 C852 1.399 . S
C848 C847 1.399 . S
C848 C849 1.376 . S
C849 H836 0.930 . S
C849 C848 1.376 . S
C849 C850 1.388 . S
C850 H837 0.930 . S
C850 C849 1.388 . S
C850 C851 1.390 . S
C851 C850 1.390 . S
C851 C852 1.394 . S
C851 C857 1.465 . S
C852 C847 1.399 . S
C852 C851 1.394 . S
C852 C853 1.516 . S
C853 C852 1.516 . S
C853 C854 1.502 . S
C853 C855 1.561 . S
C853 C856 1.526 . S
C854 H838 0.959 . S
C854 H839 0.959 . S
C854 H840 0.961 . S
C854 C853 1.502 . S
C855 H841 0.960 . S
C855 H842 0.961 . S
C855 H843 0.959 . S
C855 C853 1.561 . S
C856 C853 1.526 . S
C856 C857 1.396 . S
C856 C861 1.390 . S
C857 C851 1.465 . S
C857 C856 1.396 . S
C857 C858 1.399 . S
C858 H844 0.929 . S
C858 C857 1.399 . S
C858 C859 1.385 . S
C859 H845 0.931 . S
C859 C858 1.385 . S
C859 C860 1.389 . S
C860 C859 1.389 . S
C860 C861 1.387 . S
C861 H846 0.930 . S
C861 C856 1.390 . S
C861 C860 1.387 . S
H862 C874 0.930 . S
H863 C876 0.930 . S
H864 C877 0.930 . S
H865 C881 0.959 . S
H866 C881 0.959 . S
H867 C881 0.961 . S
H868 C882 0.960 . S
H869 C882 0.961 . S
H870 C882 0.959 . S
H871 C885 0.932 . S
H872 C886 0.931 1_556 S
H873 C888 0.930 . S
C874 H862 0.930 . S
C874 C875 1.399 . S
C874 C879 1.399 . S
C875 C874 1.399 . S
C875 C876 1.376 . S
C876 H863 0.930 . S
C876 C875 1.376 . S
C876 C877 1.388 . S
C877 H864 0.930 . S
C877 C876 1.388 . S
C877 C878 1.390 . S
C878 C877 1.390 . S
C878 C879 1.394 . S
C878 C884 1.465 . S
C879 C874 1.399 . S
C879 C878 1.394 . S
C879 C880 1.516 . S
C880 C879 1.516 . S
C880 C881 1.502 . S
C880 C882 1.561 . S
C880 C883 1.526 . S
C881 H865 0.959 . S
C881 H866 0.959 . S
C881 H867 0.961 . S
C881 C880 1.502 . S
C882 H868 0.960 . S
C882 H869 0.961 . S
C882 H870 0.959 . S
C882 C880 1.561 . S
C883 C880 1.526 . S
C883 C884 1.396 . S
C883 C888 1.390 . S
C884 C878 1.465 . S
C884 C883 1.396 . S
C884 C885 1.399 . S
C885 H871 0.932 . S
C885 C884 1.399 . S
C885 C886 1.385 . S
C886 H872 0.931 1_554 S
C886 C885 1.385 . S
C886 C887 1.389 . S
C887 C886 1.389 . S
C887 C888 1.387 . S
C888 H873 0.930 . S
C888 C883 1.390 . S
C888 C887 1.387 . S
H889 C901 0.930 . S
H890 C903 0.930 . S
H891 C904 0.930 . S
H892 C908 0.959 . S
H893 C908 0.959 . S
H894 C908 0.961 . S
H895 C909 0.960 . S
H896 C909 0.961 . S
H897 C909 0.959 . S
H898 C912 0.929 . S
H899 C913 0.931 . S
H900 C915 0.930 . S
C901 H889 0.930 . S
C901 C902 1.399 . S
C901 C906 1.399 . S
C902 C901 1.399 . S
C902 C903 1.376 . S
C903 H890 0.930 . S
C903 C902 1.376 . S
C903 C904 1.388 . S
C904 H891 0.930 . S
C904 C903 1.388 . S
C904 C905 1.390 . S
C905 C904 1.390 . S
C905 C906 1.394 . S
C905 C911 1.465 . S
C906 C901 1.399 . S
C906 C905 1.394 . S
C906 C907 1.516 . S
C907 C906 1.516 . S
C907 C908 1.502 . S
C907 C909 1.561 . S
C907 C910 1.526 . S
C908 H892 0.959 . S
C908 H893 0.959 . S
C908 H894 0.961 . S
C908 C907 1.502 . S
C909 H895 0.960 . S
C909 H896 0.961 . S
C909 H897 0.959 . S
C909 C907 1.561 . S
C910 C907 1.526 . S
C910 C911 1.396 . S
C910 C915 1.390 . S
C911 C905 1.465 . S
C911 C910 1.396 . S
C911 C912 1.399 . S
C912 H898 0.929 . S
C912 C911 1.399 . S
C912 C913 1.385 . S
C913 H899 0.931 . S
C913 C912 1.385 . S
C913 C914 1.389 . S
C914 C913 1.389 . S
C914 C915 1.387 . S
C915 H900 0.930 . S
C915 C910 1.390 . S
C915 C914 1.387 . S
H916 C928 0.930 . S
H917 C930 0.930 . S
H918 C931 0.930 1_554 S
H919 C935 0.959 . S
H920 C935 0.959 . S
H921 C935 0.961 . S
H922 C936 0.960 . S
H923 C936 0.961 . S
H924 C936 0.959 . S
H925 C939 0.929 . S
H926 C940 0.931 . S
H927 C942 0.930 . S
C928 H916 0.930 . S
C928 C929 1.399 . S
C928 C933 1.399 . S
C929 C928 1.399 . S
C929 C930 1.376 . S
C930 H917 0.930 . S
C930 C929 1.376 . S
C930 C931 1.388 . S
C931 H918 0.930 1_556 S
C931 C930 1.388 . S
C931 C932 1.390 . S
C932 C931 1.390 . S
C932 C933 1.394 . S
C932 C938 1.465 . S
C933 C928 1.399 . S
C933 C932 1.394 . S
C933 C934 1.516 . S
C934 C933 1.516 . S
C934 C935 1.502 . S
C934 C936 1.561 . S
C934 C937 1.526 . S
C935 H919 0.959 . S
C935 H920 0.959 . S
C935 H921 0.961 . S
C935 C934 1.502 . S
C936 H922 0.960 . S
C936 H923 0.961 . S
C936 H924 0.959 . S
C936 C934 1.561 . S
C937 C934 1.526 . S
C937 C938 1.396 . S
C937 C942 1.390 . S
C938 C932 1.465 . S
C938 C937 1.396 . S
C938 C939 1.399 1_556 S
C939 H925 0.929 . S
C939 C938 1.399 1_554 S
C939 C940 1.385 . S
C940 H926 0.931 . S
C940 C939 1.385 . S
C940 C941 1.389 1_554 S
C941 C940 1.389 1_556 S
C941 C942 1.387 . S
C942 H927 0.930 . S
C942 C937 1.390 . S
C942 C941 1.387 . S
H943 C955 0.930 . S
H944 C957 0.930 . S
H945 C958 0.930 . S
H946 C962 0.959 . S
H947 C962 0.959 . S
H948 C962 0.961 . S
H949 C963 0.960 . S
H950 C963 0.961 . S
H951 C963 0.959 . S
H952 C966 0.929 . S
H953 C967 0.931 . S
H954 C969 0.930 . S
C955 H943 0.930 . S
C955 C956 1.399 . S
C955 C960 1.399 . S
C956 C955 1.399 . S
C956 C957 1.376 . S
C957 H944 0.930 . S
C957 C956 1.376 . S
C957 C958 1.388 . S
C958 H945 0.930 . S
C958 C957 1.388 . S
C958 C959 1.390 . S
C959 C958 1.390 . S
C959 C960 1.394 . S
C959 C965 1.465 . S
C960 C955 1.399 . S
C960 C959 1.394 . S
C960 C961 1.516 . S
C961 C960 1.516 . S
C961 C962 1.502 . S
C961 C963 1.561 . S
C961 C964 1.526 . S
C962 H946 0.959 . S
C962 H947 0.959 . S
C962 H948 0.961 . S
C962 C961 1.502 . S
C963 H949 0.960 . S
C963 H950 0.961 . S
C963 H951 0.959 . S
C963 C961 1.561 . S
C964 C961 1.526 . S
C964 C965 1.396 . S
C964 C969 1.390 . S
C965 C959 1.465 . S
C965 C964 1.396 . S
C965 C966 1.399 . S
C966 H952 0.929 . S
C966 C965 1.399 . S
C966 C967 1.385 . S
C967 H953 0.931 . S
C967 C966 1.385 . S
C967 C968 1.389 . S
C968 C967 1.389 . S
C968 C969 1.387 . S
C969 H954 0.930 . S
C969 C964 1.390 . S
C969 C968 1.387 . S
H970 C982 0.930 . S
H971 C984 0.930 . S
H972 C985 0.930 . S
H973 C989 0.959 . S
H974 C989 0.959 . S
H975 C989 0.961 . S
H976 C990 0.960 . S
H977 C990 0.961 . S
H978 C990 0.959 1_455 S
H979 C993 0.929 . S
H980 C994 0.931 . S
H981 C996 0.930 1_655 S
C982 H970 0.930 . S
C982 C983 1.399 . S
C982 C987 1.399 . S
C983 C982 1.399 . S
C983 C984 1.376 . S
C984 H971 0.930 . S
C984 C983 1.376 . S
C984 C985 1.388 . S
C985 H972 0.930 . S
C985 C984 1.388 . S
C985 C986 1.390 . S
C986 C985 1.390 . S
C986 C987 1.394 . S
C986 C992 1.465 . S
C987 C982 1.399 . S
C987 C986 1.394 . S
C987 C988 1.516 . S
C988 C987 1.516 . S
C988 C989 1.502 1_455 S
C988 C990 1.561 1_455 S
C988 C991 1.526 . S
C989 H973 0.959 . S
C989 H974 0.959 . S
C989 H975 0.961 . S
C989 C988 1.502 1_655 S
C990 H976 0.960 . S
C990 H977 0.961 . S
C990 H978 0.959 1_655 S
C990 C988 1.561 1_655 S
C991 C988 1.526 . S
C991 C992 1.396 . S
C991 C996 1.390 . S
C992 C986 1.465 . S
C992 C991 1.396 . S
C992 C993 1.399 . S
C993 H979 0.929 . S
C993 C992 1.399 . S
C993 C994 1.385 . S
C994 H980 0.931 . S
C994 C993 1.385 . S
C994 C995 1.389 . S
C995 C994 1.389 . S
C995 C996 1.387 . S
C996 H981 0.930 1_455 S
C996 C991 1.390 . S
C996 C995 1.387 . S
H997 C1009 0.930 . S
H998 C1011 0.930 . S
H999 C1012 0.930 . S
H1000 C1016 0.959 . S
H1001 C1016 0.959 . S
H1002 C1016 0.961 . S
H1003 C1017 0.960 . S
H1004 C1017 0.961 . S
H1005 C1017 0.959 . S
H1006 C1020 0.929 . S
H1007 C1021 0.931 . S
H1008 C1023 0.930 . S
C1009 H997 0.930 . S
C1009 C1010 1.399 . S
C1009 C1014 1.399 . S
C1010 C1009 1.399 . S
C1010 C1011 1.376 . S
C1011 H998 0.930 . S
C1011 C1010 1.376 . S
C1011 C1012 1.388 . S
C1012 H999 0.930 . S
C1012 C1011 1.388 . S
C1012 C1013 1.390 . S
C1013 C1012 1.390 . S
C1013 C1014 1.394 . S
C1013 C1019 1.465 . S
C1014 C1009 1.399 . S
C1014 C1013 1.394 . S
C1014 C1015 1.516 . S
C1015 C1014 1.516 . S
C1015 C1016 1.502 . S
C1015 C1017 1.561 . S
C1015 C1018 1.526 . S
C1016 H1000 0.959 . S
C1016 H1001 0.959 . S
C1016 H1002 0.961 . S
C1016 C1015 1.502 . S
C1017 H1003 0.960 . S
C1017 H1004 0.961 . S
C1017 H1005 0.959 . S
C1017 C1015 1.561 . S
C1018 C1015 1.526 . S
C1018 C1019 1.396 . S
C1018 C1023 1.390 . S
C1019 C1013 1.465 . S
C1019 C1018 1.396 . S
C1019 C1020 1.399 . S
C1020 H1006 0.929 . S
C1020 C1019 1.399 . S
C1020 C1021 1.385 . S
C1021 H1007 0.931 . S
C1021 C1020 1.385 . S
C1021 C1022 1.389 . S
C1022 C1021 1.389 . S
C1022 C1023 1.387 . S
C1023 H1008 0.930 . S
C1023 C1018 1.390 . S
C1023 C1022 1.387 . S
C389 C29 2.113 . S
C401 C272 2.192 . S
C416 C49 1.070 . S
C428 N292 1.100 . S
C455 C326 2.014 . S
C443 C93 1.871 . S
C470 C119 1.128 . S
C482 N360 1.232 . S
C509 C313 2.295 . S
C497 C17 2.178 . S
C536 N270 1.228 . S
C524 C61 1.241 . S
C563 C347 1.965 1_556 S
C551 C81 1.874 . S
C590 N322 1.051 . S
C578 C125 0.956 . S
C605 C23 1.734 . S
C617 C362 1.790 . S
C644 C296 1.681 . S
C632 C87 1.547 . S
C659 C113 1.349 . S
C671 C257 1.486 . S
C686 C55 1.430 . S
C698 C343 1.416 . S
C725 C283 2.134 . S
C713 C157 2.108 . S
C740 C189 1.135 . S
C752 N300 1.125 . S
C767 C221 1.962 . S
C779 C317 1.983 . S
C794 C253 1.195 . S
C806 N352 1.287 . S
C821 C145 2.336 . S
C833 C302 2.344 . S
C860 N262 1.054 . S
C848 C183 1.159 . S
C887 C356 2.003 . S
C875 C209 1.982 . S
C914 N330 0.998 . S
C902 C247 0.938 . S
C929 C151 1.798 . S
C941 C373 1.803 . S
C968 C287 1.674 . S
C956 C215 1.677 . S
C995 C266 1.481 . S
C983 C241 1.335 . S
C1010 C177 1.327 . S
C1022 C332 1.471 . S
