# Generated by pormake.
# Topology anh, (6,3)-cn, num edge types: 1
# Building blocks:
#     Node 0, Type 0, BuildingBlock: BETDIP_clean_sbu_0, # of connection points: 6
#     Node 1, Type 0, BuildingBlock: BETDIP_clean_sbu_0, # of connection points: 6
#     Node 2, Type 0, BuildingBlock: BETDIP_clean_sbu_0, # of connection points: 6
#     Node 3, Type 1, BuildingBlock: PAMTOO_clean_linker_0, # of connection points: 3
#     Node 4, Type 1, BuildingBlock: PAMTOO_clean_linker_0, # of connection points: 3
#     Node 5, Type 1, BuildingBlock: PAMTOO_clean_linker_0, # of connection points: 3
#     Node 6, Type 1, BuildingBlock: PAMTOO_clean_linker_0, # of connection points: 3
#     Node 7, Type 1, BuildingBlock: PAMTOO_clean_linker_0, # of connection points: 3
#     Node 8, Type 1, BuildingBlock: PAMTOO_clean_linker_0, # of connection points: 3
#     Edge 9, Type (0, 1), BuildingBlock: UVAHIK_clean_linker_0, # of connection points: 2
#     Edge 10, Type (0, 1), BuildingBlock: UVAHIK_clean_linker_0, # of connection points: 2
#     Edge 11, Type (0, 1), BuildingBlock: UVAHIK_clean_linker_0, # of connection points: 2
#     Edge 12, Type (0, 1), BuildingBlock: UVAHIK_clean_linker_0, # of connection points: 2
#     Edge 13, Type (0, 1), BuildingBlock: UVAHIK_clean_linker_0, # of connection points: 2
#     Edge 14, Type (0, 1), BuildingBlock: UVAHIK_clean_linker_0, # of connection points: 2
#     Edge 15, Type (0, 1), BuildingBlock: UVAHIK_clean_linker_0, # of connection points: 2
#     Edge 16, Type (0, 1), BuildingBlock: UVAHIK_clean_linker_0, # of connection points: 2
#     Edge 17, Type (0, 1), BuildingBlock: UVAHIK_clean_linker_0, # of connection points: 2
#     Edge 18, Type (0, 1), BuildingBlock: UVAHIK_clean_linker_0, # of connection points: 2
#     Edge 19, Type (0, 1), BuildingBlock: UVAHIK_clean_linker_0, # of connection points: 2
#     Edge 20, Type (0, 1), BuildingBlock: UVAHIK_clean_linker_0, # of connection points: 2
#     Edge 21, Type (0, 1), BuildingBlock: UVAHIK_clean_linker_0, # of connection points: 2
#     Edge 22, Type (0, 1), BuildingBlock: UVAHIK_clean_linker_0, # of connection points: 2
#     Edge 23, Type (0, 1), BuildingBlock: UVAHIK_clean_linker_0, # of connection points: 2
#     Edge 24, Type (0, 1), BuildingBlock: UVAHIK_clean_linker_0, # of connection points: 2
#     Edge 25, Type (0, 1), BuildingBlock: UVAHIK_clean_linker_0, # of connection points: 2
#     Edge 26, Type (0, 1), BuildingBlock: UVAHIK_clean_linker_0, # of connection points: 2
# Relax obj value: 0.186
# Max RMSD: 0.144
# Mean RMSD: 0.110
data_MOF--net-anh--node1-BETDIP_clean_sbu_0--node2-PAMTOO_clean_linker_0--edge1-UVAHIK_clean_linker_0
_symmetry_space_group_name_H-M    P1
_symmetry_Int_Tables_number       1
_symmetry_cell_setting            triclinic
loop_
_symmetry_equiv_pos_as_xyz
'x, y, z'
_cell_length_a     40.721021
_cell_length_b     40.789083
_cell_length_c     64.113053
_cell_angle_alpha  85.24125
_cell_angle_beta   92.749411
_cell_angle_gamma 120.08847
loop_
_atom_site_label
_atom_site_type_symbol
_atom_site_fract_x
_atom_site_fract_y
_atom_site_fract_z
_atom_type_partial_charge
Tb0 Tb 0.15461 0.59791 0.16085 0.0
Tb1 Tb 0.11546 0.51713 0.15203 0.0
C2 C 0.19118 0.65784 0.17958 0.0
C3 C 0.22938 0.68866 0.1843 0.0
C4 C 0.23443 0.70728 0.20254 0.0
C5 C 0.26845 0.74027 0.20626 0.0
C6 C 0.29831 0.7553 0.19179 0.0
C7 C 0.29394 0.73516 0.17406 0.0
C8 C 0.25963 0.70204 0.17032 0.0
C9 C 0.14509 0.5857 0.12101 0.0
C10 C 0.20649 0.55766 0.15405 0.0
C11 C 0.07262 0.45418 0.13704 0.0
C12 C 1.03112 0.43074 0.13697 0.0
C13 C 1.01246 0.40238 0.12282 0.0
C14 C 0.97273 0.38214 0.12184 0.0
C15 C 0.95142 0.39064 0.13474 0.0
C16 C 0.97031 0.41878 0.14903 0.0
C17 C 1.00978 0.43844 0.15024 0.0
C18 C 0.12421 0.52965 0.19233 0.0
C19 C 0.06478 0.55959 0.15331 0.0
O20 O 0.18114 0.62407 0.18843 0.0
O21 O 0.17922 0.65692 0.16019 0.0
O22 O 0.15347 0.56793 0.13518 0.0
O23 O 0.14489 0.61409 0.12863 0.0
O24 O 0.20466 0.58724 0.16064 0.0
O25 O 0.17433 0.52759 0.14801 0.0
O26 O 0.08587 0.48676 0.12614 0.0
O27 O 0.08907 0.45771 0.15541 0.0
O28 O 0.11546 0.54715 0.17803 0.0
O29 O 0.12617 0.50262 0.18429 0.0
O30 O 0.06746 0.5301 0.14776 0.0
O31 O 0.09557 0.58878 0.16112 0.0
H32 H 0.21131 0.69732 0.21347 0.0
H33 H 0.27032 0.75516 0.21988 0.0
H34 H 0.31651 0.74567 0.16275 0.0
H35 H 0.25625 0.68777 0.15619 0.0
H36 H 1.02857 0.39626 0.11239 0.0
H37 H 0.9587 0.36046 0.11074 0.0
H38 H 0.9545 0.42541 0.1594 0.0
H39 H 1.02364 0.45996 0.16143 0.0
Tb40 Tb 0.64374 0.04331 0.48914 0.0
Tb41 Tb 0.60124 0.08257 0.4856 0.0
C42 C 0.6661 0.99772 0.50131 0.0
C43 C 0.65357 0.95811 0.49706 0.0
C44 C 0.64491 0.93069 0.51379 0.0
C45 C 0.6343 0.89335 0.51004 0.0
C46 C 0.63255 0.88293 0.48948 0.0
C47 C 0.6403 0.91015 0.47272 0.0
C48 C 0.65046 0.94733 0.47645 0.0
C49 C 0.63215 0.06096 0.45025 0.0
C50 C 0.55019 0.99238 0.48444 0.0
C51 C 0.57871 0.1289 0.47529 0.0
C52 C 0.59737 0.16996 0.47749 0.0
C53 C 0.58695 0.19278 0.46459 0.0
C54 C 0.60658 0.23224 0.46594 0.0
C55 C 0.63712 0.2493 0.48007 0.0
C56 C 0.64709 0.22613 0.49308 0.0
C57 C 0.6274 0.18689 0.49182 0.0
C58 C 0.61256 0.06394 0.52476 0.0
C59 C 0.69478 0.13326 0.4856 0.0
O60 O 0.64281 1.00295 0.51213 0.0
O61 O 0.68111 1.02313 0.48561 0.0
O62 O 0.60896 0.04934 0.46502 0.0
O63 O 0.66213 0.0596 0.45654 0.0
O64 O 0.58319 0.99334 0.48892 0.0
O65 O 0.55089 1.0254 0.48061 0.0
O66 O 0.59524 0.11864 0.46236 0.0
O67 O 0.56944 0.10762 0.49282 0.0
O68 O 0.63669 0.0773 0.51023 0.0
O69 O 0.58137 0.06176 0.51758 0.0
O70 O 0.6615 0.13164 0.48148 0.0
O71 O 0.69444 0.10102 0.49156 0.0
H72 H 0.64696 0.93831 0.52978 0.0
H73 H 0.62887 0.87299 0.52325 0.0
H74 H 0.63891 0.90276 0.45673 0.0
H75 H 0.65643 0.96769 0.46318 0.0
H76 H 0.56401 0.18015 0.45333 0.0
H77 H 0.59839 0.24943 0.45567 0.0
H78 H 0.67005 0.23833 0.50437 0.0
H79 H 0.63589 0.16977 0.50194 0.0
Tb80 Tb 0.61808 0.56712 0.82281 0.0
Tb81 Tb 0.70009 0.6091 0.81845 0.0
C82 C 0.55149 0.52198 0.83509 0.0
C83 C 0.5129 0.51647 0.836 0.0
C84 C 0.49791 0.51574 0.8554 0.0
C85 C 0.45923 0.50288 0.85735 0.0
C86 C 0.43482 0.49011 0.83995 0.0
C87 C 0.45015 0.49281 0.82032 0.0
C88 C 0.48883 0.5059 0.81834 0.0
C89 C 0.64174 0.58749 0.78414 0.0
C90 C 0.65422 0.65716 0.81812 0.0
C91 C 0.76658 0.65127 0.80531 0.0
C92 C 0.79501 0.6445 0.79618 0.0
C93 C 0.78759 0.62553 0.77769 0.0
C94 C 0.81277 0.61477 0.771 0.0
C95 C 0.84567 0.62256 0.78275 0.0
C96 C 0.85405 0.64366 0.8005 0.0
C97 C 0.82908 0.65466 0.80705 0.0
C98 C 0.67725 0.587 0.85762 0.0
C99 C 0.66305 0.51931 0.81897 0.0
O100 O 0.57799 0.54654 0.84702 0.0
O101 O 0.5641 0.52219 0.81669 0.0
O102 O 0.6553 0.57508 0.79859 0.0
O103 O 0.61193 0.58717 0.79078 0.0
O104 O 0.62244 0.62408 0.82211 0.0
O105 O 0.68671 0.65702 0.81585 0.0
O106 O 0.73628 0.64374 0.794 0.0
O107 O 0.75843 0.63914 0.82495 0.0
O108 O 0.66304 0.60018 0.84374 0.0
O109 O 0.70643 0.58774 0.84987 0.0
O110 O 0.693 0.55249 0.81274 0.0
O111 O 0.6328 0.51983 0.826 0.0
H112 H 0.51569 0.52322 0.86931 0.0
H113 H 0.4481 0.50082 0.87271 0.0
H114 H 0.43199 0.48356 0.80662 0.0
H115 H 0.4994 0.50593 0.80315 0.0
H116 H 0.76177 0.61775 0.76878 0.0
H117 H 0.80577 0.59915 0.75707 0.0
H118 H 0.87873 0.64976 0.81017 0.0
H119 H 0.8355 0.6695 0.82126 0.0
H120 H 0.60734 0.17354 0.2306 0.0
H121 H 0.49184 0.13884 0.24561 0.0
H122 H 0.53956 0.20195 0.18762 0.0
H123 H 0.4612 0.16053 0.18131 0.0
C124 C 0.45248 0.14721 0.19742 0.0
O125 O 0.47951 0.17031 0.21147 0.0
H126 H 0.42529 0.14602 0.20051 0.0
C127 C 0.58031 0.17148 0.22639 0.0
C128 C 0.57682 0.18876 0.20716 0.0
C129 C 0.55003 0.15348 0.24061 0.0
C130 C 0.5158 0.15271 0.23511 0.0
C131 C 0.51223 0.17025 0.21612 0.0
C132 C 0.54275 0.18853 0.20228 0.0
H133 H 0.70179 0.62003 0.56006 0.0
H134 H 0.81421 0.64206 0.57636 0.0
H135 H 0.78336 0.64649 0.51178 0.0
H136 H 0.86503 0.63181 0.55408 0.0
C137 C 0.85469 0.63408 0.53796 0.0
O138 O 0.83834 0.65675 0.53765 0.0
H139 H 0.88013 0.64854 0.5278 0.0
C140 C 0.72922 0.62526 0.55519 0.0
C141 C 0.73875 0.63257 0.53384 0.0
C142 C 0.756 0.62817 0.57063 0.0
C143 C 0.79284 0.63862 0.56463 0.0
C144 C 0.80227 0.64455 0.54341 0.0
C145 C 0.77517 0.64085 0.52809 0.0
H146 H 1.0087 0.47203 0.90395 0.0
H147 H 0.06832 0.4119 0.92346 0.0
H148 H 1.03121 0.41161 0.86004 0.0
H149 H 1.02855 0.34157 0.87368 0.0
C150 C 1.05203 0.35181 0.88542 0.0
O151 O 0.06829 0.39043 0.88661 0.0
H152 H 1.04045 0.33681 0.90092 0.0
C153 C 1.02022 0.45417 0.90064 0.0
C154 C 1.01737 0.44282 0.8802 0.0
C155 C 1.03826 0.44301 0.91664 0.0
C156 C 1.05259 0.41949 0.91187 0.0
C157 C 1.04948 0.40793 0.89162 0.0
C158 C 1.03183 0.4194 0.87587 0.0
H159 H 1.0502 0.48489 0.41829 0.0
H160 H 0.15815 0.58685 0.42193 0.0
H161 H 0.09255 0.53258 0.47822 0.0
H162 H 0.15347 0.63608 0.47065 0.0
C163 C 0.17247 0.63228 0.46047 0.0
O164 O 0.16079 0.59291 0.46199 0.0
H165 H 0.16681 0.64041 0.44429 0.0
C166 C 0.07158 0.50647 0.42781 0.0
C167 C 0.06558 0.50376 0.44955 0.0
C168 C 0.10421 0.53621 0.41781 0.0
C169 C 0.13274 0.56458 0.42968 0.0
C170 C 0.12964 0.56472 0.45142 0.0
C171 C 0.09556 0.5336 0.46147 0.0
H172 H 0.6482 1.01079 0.75285 0.0
H173 H 0.6628 0.12278 0.75379 0.0
H174 H 0.65763 0.05871 0.81192 0.0
H175 H 0.61679 0.12109 0.80729 0.0
C176 C 0.63742 0.13922 0.79483 0.0
O177 O 0.66444 0.12685 0.79396 0.0
H178 H 0.62062 0.1328 0.78003 0.0
C179 C 0.65188 1.03395 0.76167 0.0
C180 C 0.65314 1.02957 0.78367 0.0
C181 C 0.6554 0.06702 0.75066 0.0
C182 C 0.65916 0.09695 0.76208 0.0
C183 C 0.65892 0.09481 0.78413 0.0
C184 C 0.65658 0.06076 0.795 0.0
H185 H 0.71131 0.56096 0.08614 0.0
H186 H 0.60901 0.567 0.0886 0.0
H187 H 0.66787 0.56329 0.14585 0.0
H188 H 0.56622 0.52533 0.14683 0.0
C189 C 0.56792 0.54207 0.13193 0.0
O190 O 0.60677 0.56988 0.12858 0.0
H191 H 0.55854 0.52151 0.11958 0.0
C192 C 0.68983 0.56128 0.09533 0.0
C193 C 0.69417 0.56088 0.1173 0.0
C194 C 0.65961 0.56341 0.08478 0.0
C195 C 0.63227 0.56536 0.09656 0.0
C196 C 0.63376 0.5649 0.11854 0.0
C197 C 0.66549 0.56297 0.12898 0.0
C198 C 0.28057 0.58912 0.15853 0.0
C199 C 0.24522 0.5588 0.15202 0.0
C200 C 0.31585 0.5897 0.1564 0.0
C201 C 0.36214 0.54066 0.12935 0.0
H202 H 0.4475 0.59725 0.16587 0.0
C203 C 0.51183 0.55087 0.11602 0.0
C204 C 0.53732 0.55539 0.13291 0.0
C205 C 0.47828 0.55337 0.11812 0.0
C206 C 0.42427 0.58093 0.15541 0.0
H207 H 0.22187 0.50506 0.13787 0.0
H208 H 0.28171 0.50593 0.13423 0.0
H209 H 0.38789 0.59675 0.17003 0.0
H210 H 0.54499 0.56656 0.16569 0.0
H211 H 0.48811 0.57186 0.16929 0.0
H212 H 0.39819 0.52445 0.11488 0.0
C213 C 0.28277 0.52992 0.14094 0.0
C214 C 0.38935 0.58096 0.15771 0.0
C215 C 0.24759 0.52924 0.1432 0.0
C216 C 0.52752 0.56382 0.15194 0.0
C217 C 0.49401 0.56654 0.15405 0.0
C218 C 0.39708 0.54087 0.12695 0.0
C219 C 0.3183 0.56015 0.14743 0.0
C220 C 0.35688 0.56068 0.14482 0.0
C221 C 0.46764 0.56057 0.13733 0.0
C222 C 0.4295 0.56093 0.1399 0.0
H223 H 0.28114 0.6128 0.16536 0.0
H224 H 0.34151 0.61406 0.16159 0.0
H225 H 0.33917 0.52478 0.11866 0.0
H226 H 0.51695 0.54359 0.10111 0.0
H227 H 0.46035 0.54913 0.10444 0.0
C228 C 0.73417 0.20712 0.47874 0.0
C229 C 0.73289 0.1719 0.48351 0.0
C230 C 0.7691 0.24255 0.47652 0.0
C231 C 0.87973 0.28938 0.48318 0.0
H232 H 0.87894 0.37679 0.45553 0.0
C233 C 1.02417 0.4417 0.47383 0.0
C234 C 1.02718 0.4693 0.45784 0.0
C235 C 0.98915 0.40664 0.47803 0.0
C236 C 0.88071 0.35309 0.46316 0.0
H237 H 0.77033 0.14879 0.48944 0.0
H238 H 0.82997 0.20892 0.48526 0.0
H239 H 0.8204 0.31687 0.4596 0.0
H240 H 0.99281 0.47935 0.43423 0.0
H241 H 0.93399 0.42046 0.44114 0.0
H242 H 0.94046 0.3257 0.48618 0.0
C243 C 0.80394 0.20989 0.48354 0.0
C244 C 0.84591 0.31772 0.46585 0.0
C245 C 0.76895 0.17449 0.48589 0.0
C246 C 0.99277 0.45992 0.44682 0.0
C247 C 0.9581 0.42524 0.45095 0.0
C248 C 0.91466 0.32483 0.48041 0.0
C249 C 0.80546 0.24538 0.47872 0.0
C250 C 0.84393 0.28435 0.47593 0.0
C251 C 0.95485 0.3969 0.46653 0.0
C252 C 0.91655 0.35807 0.4702 0.0
H253 H 0.70782 0.20752 0.47673 0.0
H254 H 0.7671 0.2679 0.47322 0.0
H255 H 0.88122 0.26585 0.49129 0.0
H256 H 1.04934 0.44643 0.48265 0.0
H257 H 0.98934 0.38699 0.49037 0.0
C258 C 0.62045 0.69755 0.81863 0.0
C259 C 0.65379 0.6955 0.81602 0.0
C260 C 0.62014 0.73273 0.81652 0.0
C261 C 0.6861 0.84345 0.81051 0.0
H262 H 0.59124 0.8422 0.8001 0.0
C263 C 0.68016 0.98922 0.80408 0.0
C264 C 0.65035 0.99142 0.79284 0.0
C265 C 0.68052 0.95407 0.80798 0.0
C266 C 0.61849 0.84402 0.80281 0.0
H267 H 0.71339 0.73191 0.80885 0.0
H268 H 0.71295 0.7918 0.80499 0.0
H269 H 0.59219 0.78304 0.80368 0.0
H270 H 0.59745 0.95562 0.77705 0.0
H271 H 0.59768 0.89622 0.78374 0.0
H272 H 0.71245 0.90464 0.80918 0.0
C273 C 0.68653 0.76625 0.80903 0.0
C274 C 0.61896 0.80898 0.80521 0.0
C275 C 0.68681 0.73107 0.81117 0.0
C276 C 0.62075 0.95612 0.78618 0.0
C277 C 0.62101 0.92122 0.79007 0.0
C278 C 0.68562 0.87857 0.80811 0.0
C279 C 0.65316 0.76853 0.81159 0.0
C280 C 0.65277 0.80721 0.80911 0.0
C281 C 0.65112 0.91876 0.80085 0.0
C282 C 0.6518 0.88027 0.80408 0.0
H283 H 0.59409 0.67166 0.8224 0.0
H284 H 0.59348 0.73149 0.81907 0.0
H285 H 0.71318 0.84511 0.81369 0.0
H286 H 0.7043 1.01509 0.80915 0.0
H287 H 0.70448 0.95498 0.81652 0.0
C288 C 0.99324 0.52927 0.1422 0.0
C289 C 1.02628 0.55944 0.1509 0.0
C290 C 0.95796 0.52915 0.13982 0.0
C291 C 0.91134 0.59251 0.14342 0.0
H292 H 0.81808 0.49802 0.13626 0.0
C293 C 0.75963 0.58631 0.13741 0.0
C294 C 0.72915 0.55786 0.12616 0.0
C295 C 0.79485 0.58648 0.14141 0.0
C296 C 0.84351 0.52516 0.13796 0.0
H297 H 1.04548 0.61352 0.16389 0.0
H298 H 0.98533 0.61329 0.16012 0.0
H299 H 0.87779 0.49838 0.1407 0.0
H300 H 0.7144 0.50717 0.11053 0.0
H301 H 0.77357 0.507 0.11752 0.0
H302 H 0.87667 0.61912 0.1408 0.0
C303 C 0.98631 0.58939 0.15471 0.0
C304 C 0.87879 0.52538 0.14058 0.0
C305 C 1.0216 0.58949 0.15707 0.0
C306 C 0.736 0.52939 0.1196 0.0
C307 C 0.77081 0.52937 0.12368 0.0
C308 C 0.87596 0.59225 0.14087 0.0
C309 C 0.95305 0.55922 0.14597 0.0
C310 C 0.91419 0.55907 0.14332 0.0
C311 C 0.80186 0.55816 0.13448 0.0
C312 C 0.84068 0.55857 0.13793 0.0
H313 H 0.99454 0.50537 0.13701 0.0
H314 H 0.93457 0.50518 0.13273 0.0
H315 H 0.93675 0.61964 0.14513 0.0
H316 H 0.75694 0.60953 0.14246 0.0
H317 H 0.81682 0.60936 0.14993 0.0
C318 C 0.47661 0.95197 0.47981 0.0
C319 C 0.51234 0.95392 0.4825 0.0
C320 C 0.44176 0.91684 0.47799 0.0
C321 C 0.39942 0.8105 0.46778 0.0
H322 H 0.30598 0.80095 0.48662 0.0
C323 C 0.24595 0.67345 0.45209 0.0
C324 C 0.21529 0.66254 0.46584 0.0
C325 C 0.28237 0.70692 0.45449 0.0
C326 C 0.33149 0.80235 0.48128 0.0
H327 H 0.53706 0.9175 0.48511 0.0
H328 H 0.47744 0.85728 0.48178 0.0
H329 H 0.36574 0.86017 0.49001 0.0
H330 H 0.20149 0.68104 0.49312 0.0
H331 H 0.26343 0.73753 0.49746 0.0
H332 H 0.36493 0.75254 0.45902 0.0
C333 C 0.47607 0.88317 0.48103 0.0
C334 C 0.36652 0.8373 0.48306 0.0
C335 C 0.51092 0.91833 0.48311 0.0
C336 C 0.22369 0.68695 0.48228 0.0
C337 C 0.25976 0.72044 0.48457 0.0
C338 C 0.36422 0.77563 0.46576 0.0
C339 C 0.44017 0.88112 0.47848 0.0
C340 C 0.40182 0.84268 0.47643 0.0
C341 C 0.29027 0.7321 0.47057 0.0
C342 C 0.32897 0.77022 0.47254 0.0
H343 H 0.47538 0.97795 0.47913 0.0
H344 H 0.41585 0.91801 0.47583 0.0
H345 H 0.42491 0.81222 0.46218 0.0
H346 H 0.24131 0.65691 0.43877 0.0
H347 H 0.30395 0.71382 0.44304 0.0
C348 C 0.63191 0.44515 0.82409 0.0
C349 C 0.66266 0.48104 0.81711 0.0
C350 C 0.63135 0.41007 0.82203 0.0
C351 C 0.68186 0.36511 0.79484 0.0
H352 H 0.62022 0.27715 0.8319 0.0
C353 C 0.66244 0.21118 0.78192 0.0
C354 C 0.65152 0.18257 0.79859 0.0
C355 C 0.66578 0.24751 0.78428 0.0
C356 C 0.63808 0.30108 0.82131 0.0
H357 H 0.71727 0.50554 0.8021 0.0
H358 H 0.7165 0.44583 0.79859 0.0
H359 H 0.62199 0.33692 0.83577 0.0
H360 H 0.63573 0.1726 0.8312 0.0
H361 H 0.64233 0.23465 0.83547 0.0
H362 H 0.69815 0.32926 0.78048 0.0
C363 C 0.69215 0.4443 0.80567 0.0
C364 C 0.63874 0.33618 0.82342 0.0
C365 C 0.69278 0.47938 0.80785 0.0
C366 C 0.64504 0.19318 0.81787 0.0
C367 C 0.64816 0.22932 0.82022 0.0
C368 C 0.68098 0.3299 0.79262 0.0
C369 C 0.66141 0.40823 0.81268 0.0
C370 C 0.66069 0.36963 0.8103 0.0
C371 C 0.65796 0.25767 0.80343 0.0
C372 C 0.65913 0.2965 0.80581 0.0
H373 H 0.60774 0.44398 0.83123 0.0
H374 H 0.60654 0.38408 0.82759 0.0
H375 H 0.69911 0.38888 0.78398 0.0
H376 H 0.66671 0.20481 0.76656 0.0
H377 H 0.67311 0.26712 0.77058 0.0
C378 C 0.59664 0.81198 0.49594 0.0
C379 C 0.62594 0.84475 0.48571 0.0
C380 C 0.59366 0.7766 0.49433 0.0
C381 C 0.63692 0.72807 0.46803 0.0
H382 H 0.62352 0.67546 0.52285 0.0
C383 C 0.72817 0.66876 0.50328 0.0
C384 C 0.71301 0.63788 0.51838 0.0
C385 C 0.70481 0.68066 0.49271 0.0
C386 C 0.62634 0.68899 0.50725 0.0
H387 H 0.67411 0.86615 0.46513 0.0
H388 H 0.67004 0.80518 0.46295 0.0
H389 H 0.60511 0.7234 0.51709 0.0
H390 H 0.66055 0.59206 0.53191 0.0
H391 H 0.61998 0.61392 0.51398 0.0
H392 H 0.66164 0.69575 0.45897 0.0
C393 C 0.64846 0.8061 0.47169 0.0
C394 C 0.61572 0.71664 0.50389 0.0
C395 C 0.65103 0.84127 0.47304 0.0
C396 C 0.67334 0.61665 0.52086 0.0
C397 C 0.65002 0.62894 0.5105 0.0
C398 C 0.6481 0.70076 0.4715 0.0
C399 C 0.6204 0.77341 0.48278 0.0
C400 C 0.6226 0.73789 0.48454 0.0
C401 C 0.66588 0.66221 0.49716 0.0
C402 C 0.64447 0.68222 0.49143 0.0
H403 H 0.5766 0.81389 0.50557 0.0
H404 H 0.57119 0.75198 0.50273 0.0
H405 H 0.64157 0.74302 0.45274 0.0
H406 H 0.7585 0.68605 0.50096 0.0
H407 H 0.71792 0.70656 0.48263 0.0
C408 C 0.9075 0.62297 0.78301 0.0
C409 C 0.86842 0.60459 0.7785 0.0
C410 C 0.92667 0.60254 0.78491 0.0
C411 C 0.90125 0.50458 0.8011 0.0
H412 H 1.01062 0.54892 0.80208 0.0
C413 C 1.01539 0.49701 0.8603 0.0
C414 C 1.00216 0.45787 0.86298 0.0
C415 C 1.00177 0.51157 0.84383 0.0
C416 C 0.98 0.53604 0.80169 0.0
H417 H 0.82012 0.55144 0.76953 0.0
H418 H 0.85406 0.51652 0.77165 0.0
H419 H 0.982 0.58082 0.7809 0.0
H420 H 0.96486 0.40325 0.85052 0.0
H421 H 0.94013 0.42873 0.82191 0.0
H422 H 0.89942 0.46042 0.82232 0.0
C423 C 0.86953 0.54632 0.77471 0.0
C424 C 0.96359 0.55431 0.78964 0.0
C425 C 0.85016 0.56659 0.77319 0.0
C426 C 0.97537 0.43354 0.84877 0.0
C427 C 0.96133 0.44806 0.83245 0.0
C428 C 0.91763 0.48611 0.81287 0.0
C429 C 0.9073 0.56339 0.78196 0.0
C430 C 0.92412 0.53972 0.78999 0.0
C431 C 0.97438 0.48721 0.82988 0.0
C432 C 0.95719 0.50253 0.81399 0.0
H433 H 0.92272 0.65254 0.78655 0.0
H434 H 0.95578 0.61689 0.79043 0.0
H435 H 0.87084 0.49258 0.80208 0.0
H436 H 1.03644 0.5164 0.87088 0.0
H437 H 1.01186 0.54179 0.84239 0.0
C438 C 0.34509 0.80696 0.21407 0.0
C439 C 0.33129 0.79406 0.19407 0.0
C440 C 0.36889 0.84563 0.21665 0.0
C441 C 0.42896 0.94019 0.19071 0.0
H442 H 0.37418 0.9715 0.22434 0.0
C443 C 0.45288 0.09218 0.18218 0.0
C444 C 0.44588 0.10718 0.19924 0.0
C445 C 0.44579 0.05484 0.18365 0.0
C446 C 0.39065 0.96361 0.21534 0.0
H447 H 0.33509 0.81151 0.16092 0.0
H448 H 0.37759 0.87873 0.16546 0.0
H449 H 0.35353 0.90461 0.22353 0.0
H450 H 0.42683 0.09558 0.23128 0.0
H451 H 0.41653 1.0311 0.23445 0.0
H452 H 0.46631 0.99914 0.18255 0.0
C453 C 0.36953 0.85886 0.17911 0.0
C454 C 0.37863 0.9251 0.21484 0.0
C455 C 0.34523 0.82024 0.17654 0.0
C456 C 0.43242 0.08451 0.21794 0.0
C457 C 0.42622 0.04747 0.21963 0.0
C458 C 0.44158 0.9789 0.19155 0.0
C459 C 0.38002 0.87202 0.19925 0.0
C460 C 0.39708 0.91299 0.20215 0.0
C461 C 0.43217 1.03182 0.20238 0.0
C462 C 0.42192 0.9911 0.20342 0.0
H463 H 0.33575 0.78744 0.22787 0.0
H464 H 0.37704 0.85514 0.23232 0.0
H465 H 0.44368 0.93144 0.18086 0.0
H466 H 0.46318 0.10915 0.16755 0.0
H467 H 0.45 0.04381 0.16986 0.0
C468 C 0.69837 0.3101 0.48357 0.0
C469 C 0.65863 0.29105 0.48158 0.0
C470 C 0.71854 0.34856 0.48731 0.0
C471 C 0.74746 0.4178 0.51195 0.0
H472 H 0.72757 0.49501 0.4852 0.0
C473 C 0.81001 0.56379 0.54482 0.0
C474 C 0.82802 0.59524 0.53037 0.0
C475 C 0.78709 0.52747 0.5379 0.0
C476 C 0.73347 0.47373 0.49274 0.0
H477 H 0.60905 0.29777 0.48092 0.0
H478 H 0.64444 0.36524 0.4875 0.0
H479 H 0.69317 0.43031 0.47349 0.0
H480 H 0.83434 0.61422 0.49754 0.0
H481 H 0.79425 0.55034 0.48526 0.0
H482 H 0.78778 0.46088 0.5311 0.0
C483 C 0.65993 0.35036 0.48607 0.0
C484 C 0.71365 0.43671 0.48614 0.0
C485 C 0.63967 0.31176 0.48232 0.0
C486 C 0.82113 0.59014 0.5089 0.0
C487 C 0.79804 0.55374 0.50193 0.0
C488 C 0.767 0.45457 0.51862 0.0
C489 C 0.69947 0.36888 0.48914 0.0
C490 C 0.72057 0.40841 0.49566 0.0
C491 C 0.7815 0.52194 0.51637 0.0
C492 C 0.7602 0.48293 0.50914 0.0
H493 H 0.71385 0.29508 0.48259 0.0
H494 H 0.7491 0.36227 0.48914 0.0
H495 H 0.75307 0.39653 0.5198 0.0
H496 H 0.8143 0.56726 0.56148 0.0
H497 H 0.77406 0.5036 0.5494 0.0
C498 C 0.37705 0.48587 0.85498 0.0
C499 C 0.39322 0.47079 0.8427 0.0
C500 C 0.3381 0.466 0.85881 0.0
C501 C 0.26093 0.40844 0.8756 0.0
H502 H 0.18753 0.35475 0.83245 0.0
C503 C 0.10371 0.33607 0.89366 0.0
C504 C 0.08274 0.34508 0.87867 0.0
C505 C 0.13898 0.34112 0.88854 0.0
C506 C 0.20766 0.36954 0.84468 0.0
H507 H 0.38148 0.42318 0.8248 0.0
H508 H 0.31357 0.38825 0.8317 0.0
H509 H 0.2551 0.38792 0.8246 0.0
H510 H 0.08071 0.36425 0.84641 0.0
H511 H 0.14252 0.374 0.83749 0.0
H512 H 0.21382 0.39222 0.89532 0.0
C513 C 0.33075 0.41573 0.83803 0.0
C514 C 0.24642 0.38831 0.84024 0.0
C515 C 0.36965 0.43576 0.83406 0.0
C516 C 0.09619 0.35651 0.8581 0.0
C517 C 0.13166 0.36208 0.85303 0.0
C518 C 0.22228 0.39 0.87999 0.0
C519 C 0.31458 0.43042 0.85064 0.0
C520 C 0.27346 0.40858 0.85555 0.0
C521 C 0.15424 0.35616 0.86847 0.0
C522 C 0.19511 0.37084 0.86449 0.0
H523 H 0.39456 0.51298 0.86166 0.0
H524 H 0.32643 0.47856 0.86819 0.0
H525 H 0.28099 0.42308 0.8879 0.0
H526 H 0.09403 0.32757 0.90969 0.0
H527 H 0.15526 0.33543 0.90067 0.0
C528 C 0.88897 0.33019 0.13583 0.0
C529 C 0.90951 0.37001 0.13385 0.0
C530 C 0.84954 0.31095 0.13808 0.0
C531 C 0.77587 0.32781 0.15715 0.0
H532 H 0.70779 0.22627 0.13978 0.0
C533 C 0.62064 0.24474 0.18358 0.0
C534 C 0.60945 0.20817 0.19269 0.0
C535 C 0.65373 0.26453 0.17171 0.0
C536 C 0.7265 0.25467 0.14468 0.0
H537 H 0.90511 0.42096 0.13094 0.0
H538 H 0.83621 0.38746 0.13424 0.0
H539 H 0.77283 0.26156 0.12673 0.0
H540 H 0.62269 0.16271 0.19549 0.0
H541 H 0.6807 0.19742 0.17498 0.0
H542 H 0.72997 0.3207 0.17543 0.0
C543 C 0.85046 0.37101 0.13476 0.0
C544 C 0.76374 0.27484 0.13726 0.0
C545 C 0.88985 0.39021 0.13278 0.0
C546 C 0.63094 0.19107 0.18886 0.0
C547 C 0.6639 0.21077 0.17692 0.0
C548 C 0.73867 0.30779 0.16443 0.0
C549 C 0.82995 0.33122 0.13815 0.0
C550 C 0.78911 0.31136 0.14378 0.0
C551 C 0.67612 0.24804 0.16864 0.0
C552 C 0.71383 0.27073 0.15863 0.0
H553 H 0.90357 0.31405 0.1368 0.0
H554 H 0.83477 0.28035 0.14088 0.0
H555 H 0.79472 0.35553 0.16285 0.0
H556 H 0.60469 0.25866 0.18633 0.0
H557 H 0.66232 0.29312 0.16536 0.0
C558 C 0.12386 0.59413 0.08466 0.0
C559 C 0.13649 0.57511 0.09918 0.0
C560 C 0.11392 0.58239 0.06427 0.0
C561 C 0.1226 0.52164 0.02679 0.0
H562 H 1.03662 0.52378 -0.00061 0.0
C563 C 1.05333 0.49572 0.93996 0.0
C564 C 1.04499 0.45821 0.93774 0.0
C565 C 1.0629 0.51101 0.95953 0.0
C566 C 1.06075 0.52321 0.00689 0.0
H567 H 0.14985 0.52984 0.10374 0.0
H568 H 0.13078 0.50811 0.06883 0.0
H569 H 1.05775 0.54943 0.03372 0.0
H570 H 1.03844 0.40696 0.95474 0.0
H571 H 1.05684 0.43442 0.98866 0.0
H572 H 0.12436 0.4939 0.00027 0.0
C573 C 0.12929 0.53264 0.07274 0.0
C574 C 0.07311 0.53814 0.02647 0.0
C575 C 0.13979 0.54477 0.09291 0.0
C576 C 1.0455 0.43616 0.95571 0.0
C577 C 1.0558 0.45173 0.97516 0.0
C578 C 0.10976 0.50608 0.00748 0.0
C579 C 0.1161 0.55117 0.05812 0.0
C580 C 0.10405 0.53727 0.03676 0.0
C581 C 0.06501 0.48939 0.97717 0.0
C582 C 0.07863 0.50653 -0.00255 0.0
H583 H 0.12133 0.61781 0.0891 0.0
H584 H 0.10457 0.59783 0.05337 0.0
H585 H 0.14713 0.52134 0.03388 0.0
H586 H 1.05393 0.51387 0.92651 0.0
H587 H 0.07015 0.54023 0.96074 0.0
C588 C 0.58928 0.06741 0.42323 0.0
C589 C 0.62291 0.06686 0.42827 0.0
C590 C 0.58053 0.07338 0.40246 0.0
C591 C 0.62459 0.1093 0.34981 0.0
H592 H 0.51939 0.06381 0.33172 0.0
C593 C 0.57824 0.12083 0.26391 0.0
C594 C 0.55495 0.13734 0.26148 0.0
C595 C 0.58535 0.10864 0.28376 0.0
C596 C 0.54886 0.0766 0.33661 0.0
H597 H 0.67333 0.07105 0.41561 0.0
H598 H 0.65737 0.07977 0.3792 0.0
H599 H 0.53451 0.04869 0.36721 0.0
H600 H 0.52029 0.15302 0.2783 0.0
H601 H 0.53144 0.13008 0.31268 0.0
H602 H 0.63865 0.13641 0.31887 0.0
C603 C 0.63826 0.07696 0.39128 0.0
C604 C 0.55762 0.06826 0.35698 0.0
C605 C 0.64734 0.07169 0.41214 0.0
C606 C 0.5378 0.13989 0.27938 0.0
C607 C 0.54433 0.12698 0.29914 0.0
C608 C 0.61581 0.11702 0.32932 0.0
C609 C 0.60483 0.07814 0.38615 0.0
C610 C 0.59559 0.08502 0.364 0.0
C611 C 0.56866 0.11187 0.30153 0.0
C612 C 0.57788 0.10119 0.32266 0.0
H613 H 0.5698 0.0635 0.43538 0.0
H614 H 0.55492 0.07483 0.39929 0.0
H615 H 0.6541 0.12331 0.35464 0.0
H616 H 0.59125 0.11752 0.25051 0.0
H617 H 0.60395 0.09671 0.28524 0.0
C618 C 0.63938 0.60947 0.74667 0.0
C619 C 0.65358 0.59337 0.76216 0.0
C620 C 0.65059 0.61405 0.72581 0.0
C621 C 0.68581 0.57455 0.68932 0.0
H622 H 0.72122 0.66999 0.65618 0.0
C623 C 0.71167 0.59135 0.60024 0.0
C624 C 0.74577 0.62295 0.593 0.0
C625 C 0.70052 0.58764 0.62097 0.0
C626 C 0.71149 0.64323 0.66531 0.0
H627 H 0.69054 0.56956 0.76817 0.0
H628 H 0.70977 0.57728 0.7319 0.0
H629 H 0.70073 0.66412 0.6923 0.0
H630 H 0.79498 0.67542 0.60166 0.0
H631 H 0.77537 0.669 0.63799 0.0
H632 H 0.69646 0.55358 0.66241 0.0
C633 C 0.69002 0.58629 0.73576 0.0
C634 C 0.69947 0.63979 0.68585 0.0
C635 C 0.67918 0.58211 0.75654 0.0
C636 C 0.76874 0.6506 0.60692 0.0
C637 C 0.75734 0.64714 0.6276 0.0
C638 C 0.69734 0.57783 0.66873 0.0
C639 C 0.67571 0.6021 0.72017 0.0
C640 C 0.68683 0.6055 0.69809 0.0
C641 C 0.72303 0.61572 0.63478 0.0
C642 C 0.71055 0.61227 0.65657 0.0
H643 H 0.61965 0.61841 0.75066 0.0
H644 H 0.63907 0.62621 0.71403 0.0
H645 H 0.67593 0.5477 0.69839 0.0
H646 H 0.69349 0.56963 0.5898 0.0
H647 H 0.67385 0.56323 0.62607 0.0
C648 C 0.59124 1.04026 0.56163 0.0
C649 C 0.62097 0.06297 0.54759 0.0
C650 C 0.59764 1.04104 0.58332 0.0
C651 C 0.65596 0.10213 0.62408 0.0
H652 H 0.62227 1.00903 0.65928 0.0
C653 C 0.63874 0.08905 0.71537 0.0
C654 C 0.65515 0.06988 0.727 0.0
C655 C 0.63711 0.09 0.69336 0.0
C656 C 0.63188 1.03529 0.64967 0.0
H657 H 0.68087 0.10445 0.54532 0.0
H658 H 0.69187 0.10676 0.58342 0.0
H659 H 0.61499 1.00649 0.62118 0.0
H660 H 0.6845 1.03835 0.72381 0.0
H661 H 0.67974 1.03844 0.68583 0.0
H662 H 0.67169 0.13078 0.65269 0.0
C663 C 0.66368 0.08792 0.57753 0.0
C664 C 0.62762 1.03381 0.62785 0.0
C665 C 0.65746 0.0864 0.55575 0.0
C666 C 0.67047 0.05238 0.71574 0.0
C667 C 0.66808 0.05265 0.69384 0.0
C668 C 0.65939 0.10352 0.64597 0.0
C669 C 0.63377 0.06529 0.59158 0.0
C670 C 0.63968 0.0672 0.61476 0.0
C671 C 0.6512 0.07125 0.68235 0.0
C672 C 0.64749 0.0701 0.65904 0.0
H673 H 0.56281 1.02203 0.55582 0.0
H674 H 0.57399 1.0234 0.59368 0.0
H675 H 0.66525 0.1283 0.61443 0.0
H676 H 0.6262 0.10256 0.72323 0.0
H677 H 0.62374 0.10443 0.68497 0.0
C678 C 0.64811 0.59522 0.88943 0.0
C679 C 0.66949 0.58159 0.88051 0.0
C680 C 0.64364 0.59218 0.91129 0.0
C681 C 0.64832 0.53853 0.96003 0.0
H682 H 0.66725 0.62693 0.98816 0.0
C683 C 0.66808 0.54265 0.05013 0.0
C684 C 0.65708 0.564 0.06119 0.0
C685 C 0.66706 0.54405 0.02818 0.0
C686 C 0.66117 0.60164 0.98066 0.0
H687 H 0.70201 0.55321 0.88755 0.0
H688 H 0.6936 0.54721 0.92537 0.0
H689 H 0.66856 0.62998 0.95 0.0
H690 H 0.63595 0.60355 0.05718 0.0
H691 H 0.63255 0.60467 0.01913 0.0
H692 H 0.64027 0.50982 0.99042 0.0
C693 C 0.68041 0.56043 0.91561 0.0
C694 C 0.66204 0.6035 0.95867 0.0
C695 C 0.68537 0.56401 0.89389 0.0
C696 C 0.64433 0.58632 0.04943 0.0
C697 C 0.64294 0.58743 0.02743 0.0
C698 C 0.64696 0.53649 0.98196 0.0
C699 C 0.65983 0.57479 0.92469 0.0
C700 C 0.65617 0.57213 0.94805 0.0
C701 C 0.65449 0.56647 0.01637 0.0
C702 C 0.65393 0.56817 -0.00726 0.0
H703 H 0.63557 0.60898 0.87956 0.0
H704 H 0.62738 0.60332 0.9177 0.0
H705 H 0.64307 0.51359 0.95241 0.0
H706 H 0.67748 0.52456 0.05843 0.0
H707 H 0.6768 0.52786 0.0205 0.0
C708 C 0.11963 0.56193 0.22327 0.0
C709 C 0.12323 0.53278 0.21528 0.0
C710 C 0.11841 0.56401 0.24501 0.0
C711 C 0.09318 0.50447 0.2946 0.0
H712 H 0.15702 0.59796 0.32155 0.0
C713 C 0.10211 0.50499 0.38501 0.0
C714 C 0.1083 0.53739 0.39462 0.0
C715 C 0.10468 0.50555 0.36322 0.0
C716 C 0.13842 0.57165 0.31437 0.0
H717 H 0.12815 0.48291 0.22393 0.0
H718 H 0.12503 0.48597 0.2616 0.0
H719 H 0.159 0.59727 0.28359 0.0
H720 H 0.12199 0.59588 0.38872 0.0
H721 H 0.12512 0.59668 0.35073 0.0
H722 H 0.07153 0.47886 0.32496 0.0
C723 C 0.12342 0.50739 0.25114 0.0
C724 C 0.13974 0.57131 0.29251 0.0
C725 C 0.12535 0.50573 0.22951 0.0
C726 C 0.11738 0.57051 0.38183 0.0
C727 C 0.11934 0.57094 0.35997 0.0
C728 C 0.09135 0.50491 0.31636 0.0
C729 C 0.11992 0.53651 0.25922 0.0
C730 C 0.11744 0.5376 0.28236 0.0
C731 C 0.11286 0.53838 0.35022 0.0
C732 C 0.11424 0.53839 0.32673 0.0
H733 H 0.11763 0.58304 0.21274 0.0
H734 H 0.11547 0.58667 0.25069 0.0
H735 H 0.07519 0.47812 0.28727 0.0
H736 H 0.09555 0.47914 0.39442 0.0
H737 H 0.1005 0.48013 0.35666 0.0
loop_
_geom_bond_atom_site_label_1
_geom_bond_atom_site_label_2
_geom_bond_distance
_geom_bond_site_symmetry_2
_ccdc_geom_bond_type
Tb0 C2 2.809 . S
Tb0 O20 2.484 . S
Tb0 O21 2.440 . S
Tb0 O22 2.658 . S
Tb0 O23 2.409 . S
Tb0 O24 2.378 . S
Tb0 O28 2.325 . S
Tb0 O31 2.341 1_455 S
Tb1 C11 2.809 . S
Tb1 O22 2.325 1_655 S
Tb1 O25 2.341 1_655 S
Tb1 O26 2.484 . S
Tb1 O27 2.440 . S
Tb1 O28 2.658 1_655 S
Tb1 O29 2.408 . S
Tb1 O30 2.378 . S
C2 Tb0 2.809 . S
C2 C3 1.514 . S
C2 O20 1.248 . S
C2 O21 1.266 . S
C3 C2 1.514 . S
C3 C4 1.359 . S
C3 C8 1.348 . S
C4 C3 1.359 . S
C4 C5 1.380 . S
C4 H32 0.929 . S
C5 C4 1.380 . S
C5 C6 1.347 . S
C5 H33 0.931 . S
C6 C5 1.347 . S
C6 C7 1.369 . S
C7 C6 1.369 . S
C7 C8 1.408 . S
C7 H34 0.930 . S
C8 C3 1.348 . S
C8 C7 1.408 . S
C8 H35 0.930 . S
C9 O22 1.281 . S
C9 O23 1.254 . S
C10 O24 1.236 . S
C10 O25 1.266 . S
C11 Tb1 2.809 . S
C11 C12 1.514 . S
C11 O26 1.248 . S
C11 O27 1.266 . S
C12 C11 1.514 . S
C12 C13 1.359 . S
C12 C17 1.348 . S
C13 C12 1.359 . S
C13 C14 1.380 . S
C13 H36 0.929 . S
C14 C13 1.380 . S
C14 C15 1.347 . S
C14 H37 0.931 . S
C15 C14 1.347 . S
C15 C16 1.369 . S
C16 C15 1.369 . S
C16 C17 1.408 . S
C16 H38 0.930 . S
C17 C12 1.348 . S
C17 C16 1.408 . S
C17 H39 0.930 . S
C18 O28 1.281 . S
C18 O29 1.252 1_455 S
C19 O30 1.236 . S
C19 O31 1.266 . S
O20 Tb0 2.484 . S
O20 C2 1.248 . S
O21 Tb0 2.440 . S
O21 C2 1.266 . S
O22 Tb0 2.658 . S
O22 Tb1 2.325 1_455 S
O22 C9 1.281 . S
O23 Tb0 2.409 . S
O23 C9 1.254 . S
O24 Tb0 2.378 . S
O24 C10 1.236 . S
O25 Tb1 2.341 1_455 S
O25 C10 1.266 . S
O26 Tb1 2.484 . S
O26 C11 1.248 . S
O27 Tb1 2.440 . S
O27 C11 1.266 . S
O28 Tb0 2.325 . S
O28 Tb1 2.658 1_455 S
O28 C18 1.281 . S
O29 Tb1 2.408 . S
O29 C18 1.252 1_655 S
O30 Tb1 2.378 . S
O30 C19 1.236 . S
O31 Tb0 2.341 1_655 S
O31 C19 1.266 . S
H32 C4 0.929 . S
H33 C5 0.931 . S
H34 C7 0.930 . S
H35 C8 0.930 . S
H36 C13 0.929 . S
H37 C14 0.931 . S
H38 C16 0.930 . S
H39 C17 0.930 . S
Tb40 C42 2.809 1_545 S
Tb40 O60 2.484 1_545 S
Tb40 O61 2.440 1_545 S
Tb40 O62 2.658 . S
Tb40 O63 2.409 . S
Tb40 O64 2.378 1_545 S
Tb40 O68 2.325 . S
Tb40 O71 2.341 . S
Tb41 C51 2.809 . S
Tb41 O62 2.325 . S
Tb41 O65 2.341 1_545 S
Tb41 O66 2.484 . S
Tb41 O67 2.440 . S
Tb41 O68 2.658 . S
Tb41 O69 2.409 . S
Tb41 O70 2.378 . S
C42 Tb40 2.809 1_565 S
C42 C43 1.514 . S
C42 O60 1.248 . S
C42 O61 1.266 . S
C43 C42 1.514 . S
C43 C44 1.359 . S
C43 C48 1.348 . S
C44 C43 1.359 . S
C44 C45 1.380 . S
C44 H72 0.929 . S
C45 C44 1.380 . S
C45 C46 1.347 . S
C45 H73 0.931 . S
C46 C45 1.347 . S
C46 C47 1.369 . S
C47 C46 1.369 . S
C47 C48 1.408 . S
C47 H74 0.930 . S
C48 C43 1.348 . S
C48 C47 1.408 . S
C48 H75 0.930 . S
C49 O62 1.281 . S
C49 O63 1.254 . S
C50 O64 1.236 . S
C50 O65 1.266 . S
C51 Tb41 2.809 . S
C51 C52 1.514 . S
C51 O66 1.248 . S
C51 O67 1.266 . S
C52 C51 1.514 . S
C52 C53 1.359 . S
C52 C57 1.348 . S
C53 C52 1.359 . S
C53 C54 1.380 . S
C53 H76 0.929 . S
C54 C53 1.380 . S
C54 C55 1.347 . S
C54 H77 0.931 . S
C55 C54 1.347 . S
C55 C56 1.369 . S
C56 C55 1.369 . S
C56 C57 1.408 . S
C56 H78 0.930 . S
C57 C52 1.348 . S
C57 C56 1.408 . S
C57 H79 0.930 . S
C58 O68 1.281 . S
C58 O69 1.254 . S
C59 O70 1.236 . S
C59 O71 1.266 . S
O60 Tb40 2.484 1_565 S
O60 C42 1.248 . S
O61 Tb40 2.440 1_565 S
O61 C42 1.266 . S
O62 Tb40 2.658 . S
O62 Tb41 2.325 . S
O62 C49 1.281 . S
O63 Tb40 2.409 . S
O63 C49 1.254 . S
O64 Tb40 2.378 1_565 S
O64 C50 1.236 . S
O65 Tb41 2.341 1_565 S
O65 C50 1.266 . S
O66 Tb41 2.484 . S
O66 C51 1.248 . S
O67 Tb41 2.440 . S
O67 C51 1.266 . S
O68 Tb40 2.325 . S
O68 Tb41 2.658 . S
O68 C58 1.281 . S
O69 Tb41 2.409 . S
O69 C58 1.254 . S
O70 Tb41 2.378 . S
O70 C59 1.236 . S
O71 Tb40 2.341 . S
O71 C59 1.266 . S
H72 C44 0.929 . S
H73 C45 0.931 . S
H74 C47 0.930 . S
H75 C48 0.930 . S
H76 C53 0.929 . S
H77 C54 0.931 . S
H78 C56 0.930 . S
H79 C57 0.930 . S
Tb80 C82 2.809 . S
Tb80 O100 2.484 . S
Tb80 O101 2.440 . S
Tb80 O102 2.658 . S
Tb80 O103 2.409 . S
Tb80 O104 2.378 . S
Tb80 O108 2.325 . S
Tb80 O111 2.341 . S
Tb81 C91 2.809 . S
Tb81 O102 2.325 . S
Tb81 O105 2.341 . S
Tb81 O106 2.484 . S
Tb81 O107 2.440 . S
Tb81 O108 2.658 . S
Tb81 O109 2.409 . S
Tb81 O110 2.378 . S
C82 Tb80 2.809 . S
C82 C83 1.514 . S
C82 O100 1.248 . S
C82 O101 1.266 . S
C83 C82 1.514 . S
C83 C84 1.359 . S
C83 C88 1.348 . S
C84 C83 1.359 . S
C84 C85 1.380 . S
C84 H112 0.929 . S
C85 C84 1.380 . S
C85 C86 1.347 . S
C85 H113 0.931 . S
C86 C85 1.347 . S
C86 C87 1.369 . S
C87 C86 1.369 . S
C87 C88 1.408 . S
C87 H114 0.930 . S
C88 C83 1.348 . S
C88 C87 1.408 . S
C88 H115 0.930 . S
C89 O102 1.281 . S
C89 O103 1.254 . S
C90 O104 1.236 . S
C90 O105 1.266 . S
C91 Tb81 2.809 . S
C91 C92 1.514 . S
C91 O106 1.248 . S
C91 O107 1.266 . S
C92 C91 1.514 . S
C92 C93 1.359 . S
C92 C97 1.348 . S
C93 C92 1.359 . S
C93 C94 1.380 . S
C93 H116 0.929 . S
C94 C93 1.380 . S
C94 C95 1.347 . S
C94 H117 0.931 . S
C95 C94 1.347 . S
C95 C96 1.369 . S
C96 C95 1.369 . S
C96 C97 1.408 . S
C96 H118 0.930 . S
C97 C92 1.348 . S
C97 C96 1.408 . S
C97 H119 0.930 . S
C98 O108 1.281 . S
C98 O109 1.254 . S
C99 O110 1.236 . S
C99 O111 1.266 . S
O100 Tb80 2.484 . S
O100 C82 1.248 . S
O101 Tb80 2.440 . S
O101 C82 1.266 . S
O102 Tb80 2.658 . S
O102 Tb81 2.325 . S
O102 C89 1.281 . S
O103 Tb80 2.409 . S
O103 C89 1.254 . S
O104 Tb80 2.378 . S
O104 C90 1.236 . S
O105 Tb81 2.341 . S
O105 C90 1.266 . S
O106 Tb81 2.484 . S
O106 C91 1.248 . S
O107 Tb81 2.440 . S
O107 C91 1.266 . S
O108 Tb80 2.325 . S
O108 Tb81 2.658 . S
O108 C98 1.281 . S
O109 Tb81 2.409 . S
O109 C98 1.254 . S
O110 Tb81 2.378 . S
O110 C99 1.236 . S
O111 Tb80 2.341 . S
O111 C99 1.266 . S
H112 C84 0.929 . S
H113 C85 0.931 . S
H114 C87 0.930 . S
H115 C88 0.930 . S
H116 C93 0.929 . S
H117 C94 0.931 . S
H118 C96 0.930 . S
H119 C97 0.930 . S
H120 C127 0.929 . S
H121 C130 0.930 1_565 S
H122 C132 0.929 . S
H123 C124 0.969 . S
C124 H123 0.969 . S
C124 O125 1.550 . S
C124 H126 0.973 . S
O125 C124 1.550 . S
O125 C131 1.412 1_565 S
H126 C124 0.973 . S
C127 H120 0.929 . S
C127 C128 1.400 . S
C127 C129 1.364 . S
C128 C127 1.400 . S
C128 C132 1.377 . S
C129 C127 1.364 . S
C129 C130 1.374 . S
C130 H121 0.930 1_545 S
C130 C129 1.374 . S
C130 C131 1.383 . S
C131 O125 1.412 1_545 S
C131 C130 1.383 . S
C131 C132 1.394 . S
C132 H122 0.929 . S
C132 C128 1.377 . S
C132 C131 1.394 . S
H133 C140 0.929 . S
H134 C143 0.930 . S
H135 C145 0.929 . S
H136 C137 0.969 . S
C137 H136 0.969 . S
C137 O138 1.550 . S
C137 H139 0.973 . S
O138 C137 1.550 . S
O138 C144 1.412 . S
H139 C137 0.973 . S
C140 H133 0.929 . S
C140 C141 1.400 . S
C140 C142 1.364 . S
C141 C140 1.400 . S
C141 C145 1.377 . S
C142 C140 1.364 . S
C142 C143 1.374 . S
C143 H134 0.930 . S
C143 C142 1.374 . S
C143 C144 1.383 . S
C144 O138 1.412 . S
C144 C143 1.383 . S
C144 C145 1.394 . S
C145 H135 0.929 . S
C145 C141 1.377 . S
C145 C144 1.394 . S
H146 C153 0.929 1_655 S
H147 C156 0.930 . S
H148 C158 0.929 . S
H149 C150 0.969 . S
C150 H149 0.969 . S
C150 O151 1.550 . S
C150 H152 0.973 . S
O151 C150 1.550 . S
O151 C157 1.412 . S
H152 C150 0.973 . S
C153 H146 0.929 1_455 S
C153 C154 1.400 . S
C153 C155 1.364 . S
C154 C153 1.400 . S
C154 C158 1.377 . S
C155 C153 1.364 . S
C155 C156 1.374 . S
C156 H147 0.930 . S
C156 C155 1.374 . S
C156 C157 1.383 . S
C157 O151 1.412 . S
C157 C156 1.383 . S
C157 C158 1.394 . S
C158 H148 0.929 . S
C158 C154 1.377 . S
C158 C157 1.394 . S
H159 C166 0.929 . S
H160 C169 0.930 . S
H161 C171 0.929 . S
H162 C163 0.969 . S
C163 H162 0.969 . S
C163 O164 1.550 . S
C163 H165 0.973 . S
O164 C163 1.550 . S
O164 C170 1.412 . S
H165 C163 0.973 . S
C166 H159 0.929 . S
C166 C167 1.400 . S
C166 C168 1.364 . S
C167 C166 1.400 . S
C167 C171 1.377 . S
C168 C166 1.364 . S
C168 C169 1.374 . S
C169 H160 0.930 . S
C169 C168 1.374 . S
C169 C170 1.383 . S
C170 O164 1.412 . S
C170 C169 1.383 . S
C170 C171 1.394 . S
C171 H161 0.929 . S
C171 C167 1.377 . S
C171 C170 1.394 . S
H172 C179 0.929 . S
H173 C182 0.930 . S
H174 C184 0.929 . S
H175 C176 0.969 . S
C176 H175 0.969 . S
C176 O177 1.550 . S
C176 H178 0.973 . S
O177 C176 1.550 . S
O177 C183 1.412 . S
H178 C176 0.973 . S
C179 H172 0.929 . S
C179 C180 1.400 . S
C179 C181 1.364 1_565 S
C180 C179 1.400 . S
C180 C184 1.377 1_565 S
C181 C179 1.364 1_545 S
C181 C182 1.374 . S
C182 H173 0.930 . S
C182 C181 1.374 . S
C182 C183 1.383 . S
C183 O177 1.412 . S
C183 C182 1.383 . S
C183 C184 1.394 . S
C184 H174 0.929 . S
C184 C180 1.377 1_545 S
C184 C183 1.394 . S
H185 C192 0.929 . S
H186 C195 0.930 . S
H187 C197 0.929 . S
H188 C189 0.969 . S
C189 H188 0.969 . S
C189 O190 1.550 . S
C189 H191 0.973 . S
O190 C189 1.550 . S
O190 C196 1.412 . S
H191 C189 0.973 . S
C192 H185 0.929 . S
C192 C193 1.400 . S
C192 C194 1.364 . S
C193 C192 1.400 . S
C193 C197 1.377 . S
C194 C192 1.364 . S
C194 C195 1.374 . S
C195 H186 0.930 . S
C195 C194 1.374 . S
C195 C196 1.383 . S
C196 O190 1.412 . S
C196 C195 1.383 . S
C196 C197 1.394 . S
C197 H187 0.929 . S
C197 C193 1.377 . S
C197 C196 1.394 . S
C198 C199 1.349 . S
C198 C200 1.327 . S
C198 H223 0.950 . S
C199 C198 1.349 . S
C199 C215 1.349 . S
C200 C198 1.327 . S
C200 C219 1.429 . S
C200 H224 0.950 . S
C201 C218 1.574 . S
C201 C220 1.368 . S
C201 H225 0.949 . S
H202 C206 0.949 . S
C203 C204 1.349 . S
C203 C205 1.327 . S
C203 H226 0.950 . S
C204 C203 1.349 . S
C204 C216 1.349 . S
C205 C203 1.327 . S
C205 C221 1.429 . S
C205 H227 0.950 . S
C206 H202 0.949 . S
C206 C214 1.574 . S
C206 C222 1.368 . S
H207 C215 0.950 . S
H208 C213 0.950 . S
H209 C214 0.949 . S
H210 C216 0.950 . S
H211 C217 0.950 . S
H212 C218 0.949 . S
C213 H208 0.950 . S
C213 C215 1.327 . S
C213 C219 1.429 . S
C214 C206 1.574 . S
C214 H209 0.949 . S
C214 C220 1.368 . S
C215 C199 1.349 . S
C215 H207 0.950 . S
C215 C213 1.327 . S
C216 C204 1.349 . S
C216 H210 0.950 . S
C216 C217 1.327 . S
C217 H211 0.950 . S
C217 C216 1.327 . S
C217 C221 1.429 . S
C218 C201 1.574 . S
C218 H212 0.949 . S
C218 C222 1.368 . S
C219 C200 1.429 . S
C219 C213 1.429 . S
C219 C220 1.523 . S
C220 C201 1.368 . S
C220 C214 1.368 . S
C220 C219 1.523 . S
C221 C205 1.429 . S
C221 C217 1.429 . S
C221 C222 1.523 . S
C222 C206 1.368 . S
C222 C218 1.368 . S
C222 C221 1.523 . S
H223 C198 0.950 . S
H224 C200 0.950 . S
H225 C201 0.949 . S
H226 C203 0.950 . S
H227 C205 0.950 . S
C228 C229 1.349 . S
C228 C230 1.327 . S
C228 H253 0.950 . S
C229 C228 1.349 . S
C229 C245 1.349 . S
C230 C228 1.327 . S
C230 C249 1.429 . S
C230 H254 0.950 . S
C231 C248 1.574 . S
C231 C250 1.368 . S
C231 H255 0.949 . S
H232 C236 0.949 . S
C233 C234 1.349 . S
C233 C235 1.327 . S
C233 H256 0.950 . S
C234 C233 1.349 . S
C234 C246 1.349 . S
C235 C233 1.327 . S
C235 C251 1.429 . S
C235 H257 0.950 . S
C236 H232 0.949 . S
C236 C244 1.574 . S
C236 C252 1.368 . S
H237 C245 0.950 . S
H238 C243 0.950 . S
H239 C244 0.949 . S
H240 C246 0.950 . S
H241 C247 0.950 . S
H242 C248 0.949 . S
C243 H238 0.950 . S
C243 C245 1.327 . S
C243 C249 1.429 . S
C244 C236 1.574 . S
C244 H239 0.949 . S
C244 C250 1.368 . S
C245 C229 1.349 . S
C245 H237 0.950 . S
C245 C243 1.327 . S
C246 C234 1.349 . S
C246 H240 0.950 . S
C246 C247 1.327 . S
C247 H241 0.950 . S
C247 C246 1.327 . S
C247 C251 1.429 . S
C248 C231 1.574 . S
C248 H242 0.949 . S
C248 C252 1.368 . S
C249 C230 1.429 . S
C249 C243 1.429 . S
C249 C250 1.523 . S
C250 C231 1.368 . S
C250 C244 1.368 . S
C250 C249 1.523 . S
C251 C235 1.429 . S
C251 C247 1.429 . S
C251 C252 1.523 . S
C252 C236 1.368 . S
C252 C248 1.368 . S
C252 C251 1.523 . S
H253 C228 0.950 . S
H254 C230 0.950 . S
H255 C231 0.949 . S
H256 C233 0.950 . S
H257 C235 0.950 . S
C258 C259 1.349 . S
C258 C260 1.327 . S
C258 H283 0.950 . S
C259 C258 1.349 . S
C259 C275 1.349 . S
C260 C258 1.327 . S
C260 C279 1.429 . S
C260 H284 0.950 . S
C261 C278 1.574 . S
C261 C280 1.368 . S
C261 H285 0.949 . S
H262 C266 0.949 . S
C263 C264 1.349 . S
C263 C265 1.327 . S
C263 H286 0.950 . S
C264 C263 1.349 . S
C264 C276 1.349 . S
C265 C263 1.327 . S
C265 C281 1.429 . S
C265 H287 0.950 . S
C266 H262 0.949 . S
C266 C274 1.574 . S
C266 C282 1.368 . S
H267 C275 0.950 . S
H268 C273 0.950 . S
H269 C274 0.949 . S
H270 C276 0.950 . S
H271 C277 0.950 . S
H272 C278 0.949 . S
C273 H268 0.950 . S
C273 C275 1.327 . S
C273 C279 1.429 . S
C274 C266 1.574 . S
C274 H269 0.949 . S
C274 C280 1.368 . S
C275 C259 1.349 . S
C275 H267 0.950 . S
C275 C273 1.327 . S
C276 C264 1.349 . S
C276 H270 0.950 . S
C276 C277 1.327 . S
C277 H271 0.950 . S
C277 C276 1.327 . S
C277 C281 1.429 . S
C278 C261 1.574 . S
C278 H272 0.949 . S
C278 C282 1.368 . S
C279 C260 1.429 . S
C279 C273 1.429 . S
C279 C280 1.523 . S
C280 C261 1.368 . S
C280 C274 1.368 . S
C280 C279 1.523 . S
C281 C265 1.429 . S
C281 C277 1.429 . S
C281 C282 1.523 . S
C282 C266 1.368 . S
C282 C278 1.368 . S
C282 C281 1.523 . S
H283 C258 0.950 . S
H284 C260 0.950 . S
H285 C261 0.949 . S
H286 C263 0.950 . S
H287 C265 0.950 . S
C288 C289 1.349 . S
C288 C290 1.327 . S
C288 H313 0.950 . S
C289 C288 1.349 . S
C289 C305 1.349 . S
C290 C288 1.327 . S
C290 C309 1.429 . S
C290 H314 0.950 . S
C291 C308 1.574 . S
C291 C310 1.368 . S
C291 H315 0.949 . S
H292 C296 0.949 . S
C293 C294 1.349 . S
C293 C295 1.327 . S
C293 H316 0.950 . S
C294 C293 1.349 . S
C294 C306 1.349 . S
C295 C293 1.327 . S
C295 C311 1.429 . S
C295 H317 0.950 . S
C296 H292 0.949 . S
C296 C304 1.574 . S
C296 C312 1.368 . S
H297 C305 0.950 . S
H298 C303 0.950 . S
H299 C304 0.949 . S
H300 C306 0.950 . S
H301 C307 0.950 . S
H302 C308 0.949 . S
C303 H298 0.950 . S
C303 C305 1.327 . S
C303 C309 1.429 . S
C304 C296 1.574 . S
C304 H299 0.949 . S
C304 C310 1.368 . S
C305 C289 1.349 . S
C305 H297 0.950 . S
C305 C303 1.327 . S
C306 C294 1.349 . S
C306 H300 0.950 . S
C306 C307 1.327 . S
C307 H301 0.950 . S
C307 C306 1.327 . S
C307 C311 1.429 . S
C308 C291 1.574 . S
C308 H302 0.949 . S
C308 C312 1.368 . S
C309 C290 1.429 . S
C309 C303 1.429 . S
C309 C310 1.523 . S
C310 C291 1.368 . S
C310 C304 1.368 . S
C310 C309 1.523 . S
C311 C295 1.429 . S
C311 C307 1.429 . S
C311 C312 1.523 . S
C312 C296 1.368 . S
C312 C308 1.368 . S
C312 C311 1.523 . S
H313 C288 0.950 . S
H314 C290 0.950 . S
H315 C291 0.949 . S
H316 C293 0.950 . S
H317 C295 0.950 . S
C318 C319 1.349 . S
C318 C320 1.327 . S
C318 H343 0.950 . S
C319 C318 1.349 . S
C319 C335 1.349 . S
C320 C318 1.327 . S
C320 C339 1.429 . S
C320 H344 0.950 . S
C321 C338 1.574 . S
C321 C340 1.368 . S
C321 H345 0.949 . S
H322 C326 0.949 . S
C323 C324 1.349 . S
C323 C325 1.327 . S
C323 H346 0.950 . S
C324 C323 1.349 . S
C324 C336 1.349 . S
C325 C323 1.327 . S
C325 C341 1.429 . S
C325 H347 0.950 . S
C326 H322 0.949 . S
C326 C334 1.574 . S
C326 C342 1.368 . S
H327 C335 0.950 . S
H328 C333 0.950 . S
H329 C334 0.949 . S
H330 C336 0.950 . S
H331 C337 0.950 . S
H332 C338 0.949 . S
C333 H328 0.950 . S
C333 C335 1.327 . S
C333 C339 1.429 . S
C334 C326 1.574 . S
C334 H329 0.949 . S
C334 C340 1.368 . S
C335 C319 1.349 . S
C335 H327 0.950 . S
C335 C333 1.327 . S
C336 C324 1.349 . S
C336 H330 0.950 . S
C336 C337 1.327 . S
C337 H331 0.950 . S
C337 C336 1.327 . S
C337 C341 1.429 . S
C338 C321 1.574 . S
C338 H332 0.949 . S
C338 C342 1.368 . S
C339 C320 1.429 . S
C339 C333 1.429 . S
C339 C340 1.523 . S
C340 C321 1.368 . S
C340 C334 1.368 . S
C340 C339 1.523 . S
C341 C325 1.429 . S
C341 C337 1.429 . S
C341 C342 1.523 . S
C342 C326 1.368 . S
C342 C338 1.368 . S
C342 C341 1.523 . S
H343 C318 0.950 . S
H344 C320 0.950 . S
H345 C321 0.949 . S
H346 C323 0.950 . S
H347 C325 0.950 . S
C348 C349 1.349 . S
C348 C350 1.327 . S
C348 H373 0.950 . S
C349 C348 1.349 . S
C349 C365 1.349 . S
C350 C348 1.327 . S
C350 C369 1.429 . S
C350 H374 0.950 . S
C351 C368 1.574 . S
C351 C370 1.368 . S
C351 H375 0.949 . S
H352 C356 0.949 . S
C353 C354 1.349 . S
C353 C355 1.327 . S
C353 H376 0.950 . S
C354 C353 1.349 . S
C354 C366 1.349 . S
C355 C353 1.327 . S
C355 C371 1.429 . S
C355 H377 0.950 . S
C356 H352 0.949 . S
C356 C364 1.574 . S
C356 C372 1.368 . S
H357 C365 0.950 . S
H358 C363 0.950 . S
H359 C364 0.949 . S
H360 C366 0.950 . S
H361 C367 0.950 . S
H362 C368 0.949 . S
C363 H358 0.950 . S
C363 C365 1.327 . S
C363 C369 1.429 . S
C364 C356 1.574 . S
C364 H359 0.949 . S
C364 C370 1.368 . S
C365 C349 1.349 . S
C365 H357 0.950 . S
C365 C363 1.327 . S
C366 C354 1.349 . S
C366 H360 0.950 . S
C366 C367 1.327 . S
C367 H361 0.950 . S
C367 C366 1.327 . S
C367 C371 1.429 . S
C368 C351 1.574 . S
C368 H362 0.949 . S
C368 C372 1.368 . S
C369 C350 1.429 . S
C369 C363 1.429 . S
C369 C370 1.523 . S
C370 C351 1.368 . S
C370 C364 1.368 . S
C370 C369 1.523 . S
C371 C355 1.429 . S
C371 C367 1.429 . S
C371 C372 1.523 . S
C372 C356 1.368 . S
C372 C368 1.368 . S
C372 C371 1.523 . S
H373 C348 0.950 . S
H374 C350 0.950 . S
H375 C351 0.949 . S
H376 C353 0.950 . S
H377 C355 0.950 . S
C378 C379 1.349 . S
C378 C380 1.327 . S
C378 H403 0.950 . S
C379 C378 1.349 . S
C379 C395 1.349 . S
C380 C378 1.327 . S
C380 C399 1.429 . S
C380 H404 0.950 . S
C381 C398 1.574 . S
C381 C400 1.368 . S
C381 H405 0.949 . S
H382 C386 0.949 . S
C383 C384 1.349 . S
C383 C385 1.327 . S
C383 H406 0.950 . S
C384 C383 1.349 . S
C384 C396 1.349 . S
C385 C383 1.327 . S
C385 C401 1.429 . S
C385 H407 0.950 . S
C386 H382 0.949 . S
C386 C394 1.574 . S
C386 C402 1.368 . S
H387 C395 0.950 . S
H388 C393 0.950 . S
H389 C394 0.949 . S
H390 C396 0.950 . S
H391 C397 0.950 . S
H392 C398 0.949 . S
C393 H388 0.950 . S
C393 C395 1.327 . S
C393 C399 1.429 . S
C394 C386 1.574 . S
C394 H389 0.949 . S
C394 C400 1.368 . S
C395 C379 1.349 . S
C395 H387 0.950 . S
C395 C393 1.327 . S
C396 C384 1.349 . S
C396 H390 0.950 . S
C396 C397 1.327 . S
C397 H391 0.950 . S
C397 C396 1.327 . S
C397 C401 1.429 . S
C398 C381 1.574 . S
C398 H392 0.949 . S
C398 C402 1.368 . S
C399 C380 1.429 . S
C399 C393 1.429 . S
C399 C400 1.523 . S
C400 C381 1.368 . S
C400 C394 1.368 . S
C400 C399 1.523 . S
C401 C385 1.429 . S
C401 C397 1.429 . S
C401 C402 1.523 . S
C402 C386 1.368 . S
C402 C398 1.368 . S
C402 C401 1.523 . S
H403 C378 0.950 . S
H404 C380 0.950 . S
H405 C381 0.949 . S
H406 C383 0.950 . S
H407 C385 0.950 . S
C408 C409 1.349 . S
C408 C410 1.327 . S
C408 H433 0.950 . S
C409 C408 1.349 . S
C409 C425 1.349 . S
C410 C408 1.327 . S
C410 C429 1.429 . S
C410 H434 0.950 . S
C411 C428 1.574 . S
C411 C430 1.368 . S
C411 H435 0.949 . S
H412 C416 0.949 . S
C413 C414 1.349 1_655 S
C413 C415 1.327 . S
C413 H436 0.950 . S
C414 C413 1.349 1_455 S
C414 C426 1.349 1_455 S
C415 C413 1.327 . S
C415 C431 1.429 . S
C415 H437 0.950 . S
C416 H412 0.949 . S
C416 C424 1.574 . S
C416 C432 1.368 . S
H417 C425 0.950 . S
H418 C423 0.950 . S
H419 C424 0.949 . S
H420 C426 0.950 1_455 S
H421 C427 0.950 . S
H422 C428 0.949 . S
C423 H418 0.950 . S
C423 C425 1.327 . S
C423 C429 1.429 . S
C424 C416 1.574 . S
C424 H419 0.949 . S
C424 C430 1.368 . S
C425 C409 1.349 . S
C425 H417 0.950 . S
C425 C423 1.327 . S
C426 C414 1.349 1_655 S
C426 H420 0.950 1_655 S
C426 C427 1.327 . S
C427 H421 0.950 . S
C427 C426 1.327 . S
C427 C431 1.429 . S
C428 C411 1.574 . S
C428 H422 0.949 . S
C428 C432 1.368 . S
C429 C410 1.429 . S
C429 C423 1.429 . S
C429 C430 1.523 . S
C430 C411 1.368 . S
C430 C424 1.368 . S
C430 C429 1.523 . S
C431 C415 1.429 . S
C431 C427 1.429 . S
C431 C432 1.523 . S
C432 C416 1.368 . S
C432 C428 1.368 . S
C432 C431 1.523 . S
H433 C408 0.950 . S
H434 C410 0.950 . S
H435 C411 0.949 . S
H436 C413 0.950 . S
H437 C415 0.950 . S
C438 C439 1.349 . S
C438 C440 1.327 . S
C438 H463 0.950 . S
C439 C438 1.349 . S
C439 C455 1.349 . S
C440 C438 1.327 . S
C440 C459 1.429 . S
C440 H464 0.950 . S
C441 C458 1.574 . S
C441 C460 1.368 . S
C441 H465 0.949 . S
H442 C446 0.949 . S
C443 C444 1.349 . S
C443 C445 1.327 . S
C443 H466 0.950 . S
C444 C443 1.349 . S
C444 C456 1.349 . S
C445 C443 1.327 . S
C445 C461 1.429 . S
C445 H467 0.950 . S
C446 H442 0.949 . S
C446 C454 1.574 . S
C446 C462 1.368 . S
H447 C455 0.950 . S
H448 C453 0.950 . S
H449 C454 0.949 . S
H450 C456 0.950 . S
H451 C457 0.950 . S
H452 C458 0.949 . S
C453 H448 0.950 . S
C453 C455 1.327 . S
C453 C459 1.429 . S
C454 C446 1.574 . S
C454 H449 0.949 . S
C454 C460 1.368 . S
C455 C439 1.349 . S
C455 H447 0.950 . S
C455 C453 1.327 . S
C456 C444 1.349 . S
C456 H450 0.950 . S
C456 C457 1.327 . S
C457 H451 0.950 . S
C457 C456 1.327 . S
C457 C461 1.429 . S
C458 C441 1.574 . S
C458 H452 0.949 . S
C458 C462 1.368 . S
C459 C440 1.429 . S
C459 C453 1.429 . S
C459 C460 1.523 . S
C460 C441 1.368 . S
C460 C454 1.368 . S
C460 C459 1.523 . S
C461 C445 1.429 . S
C461 C457 1.429 . S
C461 C462 1.523 . S
C462 C446 1.368 . S
C462 C458 1.368 . S
C462 C461 1.523 . S
H463 C438 0.950 . S
H464 C440 0.950 . S
H465 C441 0.949 . S
H466 C443 0.950 . S
H467 C445 0.950 . S
C468 C469 1.349 . S
C468 C470 1.327 . S
C468 H493 0.950 . S
C469 C468 1.349 . S
C469 C485 1.349 . S
C470 C468 1.327 . S
C470 C489 1.429 . S
C470 H494 0.950 . S
C471 C488 1.574 . S
C471 C490 1.368 . S
C471 H495 0.949 . S
H472 C476 0.949 . S
C473 C474 1.349 . S
C473 C475 1.327 . S
C473 H496 0.950 . S
C474 C473 1.349 . S
C474 C486 1.349 . S
C475 C473 1.327 . S
C475 C491 1.429 . S
C475 H497 0.950 . S
C476 H472 0.949 . S
C476 C484 1.574 . S
C476 C492 1.368 . S
H477 C485 0.950 . S
H478 C483 0.950 . S
H479 C484 0.949 . S
H480 C486 0.950 . S
H481 C487 0.950 . S
H482 C488 0.949 . S
C483 H478 0.950 . S
C483 C485 1.327 . S
C483 C489 1.429 . S
C484 C476 1.574 . S
C484 H479 0.949 . S
C484 C490 1.368 . S
C485 C469 1.349 . S
C485 H477 0.950 . S
C485 C483 1.327 . S
C486 C474 1.349 . S
C486 H480 0.950 . S
C486 C487 1.327 . S
C487 H481 0.950 . S
C487 C486 1.327 . S
C487 C491 1.429 . S
C488 C471 1.574 . S
C488 H482 0.949 . S
C488 C492 1.368 . S
C489 C470 1.429 . S
C489 C483 1.429 . S
C489 C490 1.523 . S
C490 C471 1.368 . S
C490 C484 1.368 . S
C490 C489 1.523 . S
C491 C475 1.429 . S
C491 C487 1.429 . S
C491 C492 1.523 . S
C492 C476 1.368 . S
C492 C488 1.368 . S
C492 C491 1.523 . S
H493 C468 0.950 . S
H494 C470 0.950 . S
H495 C471 0.949 . S
H496 C473 0.950 . S
H497 C475 0.950 . S
C498 C499 1.349 . S
C498 C500 1.327 . S
C498 H523 0.950 . S
C499 C498 1.349 . S
C499 C515 1.349 . S
C500 C498 1.327 . S
C500 C519 1.429 . S
C500 H524 0.950 . S
C501 C518 1.574 . S
C501 C520 1.368 . S
C501 H525 0.949 . S
H502 C506 0.949 . S
C503 C504 1.349 . S
C503 C505 1.327 . S
C503 H526 0.950 . S
C504 C503 1.349 . S
C504 C516 1.349 . S
C505 C503 1.327 . S
C505 C521 1.429 . S
C505 H527 0.950 . S
C506 H502 0.949 . S
C506 C514 1.574 . S
C506 C522 1.368 . S
H507 C515 0.950 . S
H508 C513 0.950 . S
H509 C514 0.949 . S
H510 C516 0.950 . S
H511 C517 0.950 . S
H512 C518 0.949 . S
C513 H508 0.950 . S
C513 C515 1.327 . S
C513 C519 1.429 . S
C514 C506 1.574 . S
C514 H509 0.949 . S
C514 C520 1.368 . S
C515 C499 1.349 . S
C515 H507 0.950 . S
C515 C513 1.327 . S
C516 C504 1.349 . S
C516 H510 0.950 . S
C516 C517 1.327 . S
C517 H511 0.950 . S
C517 C516 1.327 . S
C517 C521 1.429 . S
C518 C501 1.574 . S
C518 H512 0.949 . S
C518 C522 1.368 . S
C519 C500 1.429 . S
C519 C513 1.429 . S
C519 C520 1.523 . S
C520 C501 1.368 . S
C520 C514 1.368 . S
C520 C519 1.523 . S
C521 C505 1.429 . S
C521 C517 1.429 . S
C521 C522 1.523 . S
C522 C506 1.368 . S
C522 C518 1.368 . S
C522 C521 1.523 . S
H523 C498 0.950 . S
H524 C500 0.950 . S
H525 C501 0.949 . S
H526 C503 0.950 . S
H527 C505 0.950 . S
C528 C529 1.349 . S
C528 C530 1.327 . S
C528 H553 0.950 . S
C529 C528 1.349 . S
C529 C545 1.349 . S
C530 C528 1.327 . S
C530 C549 1.429 . S
C530 H554 0.950 . S
C531 C548 1.574 . S
C531 C550 1.368 . S
C531 H555 0.949 . S
H532 C536 0.949 . S
C533 C534 1.349 . S
C533 C535 1.327 . S
C533 H556 0.950 . S
C534 C533 1.349 . S
C534 C546 1.349 . S
C535 C533 1.327 . S
C535 C551 1.429 . S
C535 H557 0.950 . S
C536 H532 0.949 . S
C536 C544 1.574 . S
C536 C552 1.368 . S
H537 C545 0.950 . S
H538 C543 0.950 . S
H539 C544 0.949 . S
H540 C546 0.950 . S
H541 C547 0.950 . S
H542 C548 0.949 . S
C543 H538 0.950 . S
C543 C545 1.327 . S
C543 C549 1.429 . S
C544 C536 1.574 . S
C544 H539 0.949 . S
C544 C550 1.368 . S
C545 C529 1.349 . S
C545 H537 0.950 . S
C545 C543 1.327 . S
C546 C534 1.349 . S
C546 H540 0.950 . S
C546 C547 1.327 . S
C547 H541 0.950 . S
C547 C546 1.327 . S
C547 C551 1.429 . S
C548 C531 1.574 . S
C548 H542 0.949 . S
C548 C552 1.368 . S
C549 C530 1.429 . S
C549 C543 1.429 . S
C549 C550 1.523 . S
C550 C531 1.368 . S
C550 C544 1.368 . S
C550 C549 1.523 . S
C551 C535 1.429 . S
C551 C547 1.429 . S
C551 C552 1.523 . S
C552 C536 1.368 . S
C552 C548 1.368 . S
C552 C551 1.523 . S
H553 C528 0.950 . S
H554 C530 0.950 . S
H555 C531 0.949 . S
H556 C533 0.950 . S
H557 C535 0.950 . S
C558 C559 1.349 1_655 S
C558 C560 1.327 . S
C558 H583 0.950 . S
C559 C558 1.349 1_455 S
C559 C575 1.349 . S
C560 C558 1.327 . S
C560 C579 1.429 1_655 S
C560 H584 0.950 . S
C561 C578 1.574 . S
C561 C580 1.368 . S
C561 H585 0.949 . S
H562 C566 0.949 1_556 S
C563 C564 1.349 . S
C563 C565 1.327 . S
C563 H586 0.950 . S
C564 C563 1.349 . S
C564 C576 1.349 . S
C565 C563 1.327 . S
C565 C581 1.429 . S
C565 H587 0.950 . S
C566 H562 0.949 1_554 S
C566 C574 1.574 . S
C566 C582 1.368 1_654 S
H567 C575 0.950 . S
H568 C573 0.950 . S
H569 C574 0.949 . S
H570 C576 0.950 1_655 S
H571 C577 0.950 1_655 S
H572 C578 0.949 1_556 S
C573 H568 0.950 . S
C573 C575 1.327 . S
C573 C579 1.429 . S
C574 C566 1.574 . S
C574 H569 0.949 . S
C574 C580 1.368 1_655 S
C575 C559 1.349 . S
C575 H567 0.950 . S
C575 C573 1.327 . S
C576 C564 1.349 . S
C576 H570 0.950 1_455 S
C576 C577 1.327 . S
C577 H571 0.950 1_455 S
C577 C576 1.327 . S
C577 C581 1.429 . S
C578 C561 1.574 . S
C578 H572 0.949 1_554 S
C578 C582 1.368 1_554 S
C579 C560 1.429 1_455 S
C579 C573 1.429 . S
C579 C580 1.523 . S
C580 C561 1.368 . S
C580 C574 1.368 1_455 S
C580 C579 1.523 . S
C581 C565 1.429 . S
C581 C577 1.429 . S
C581 C582 1.523 . S
C582 C566 1.368 1_456 S
C582 C578 1.368 1_556 S
C582 C581 1.523 . S
H583 C558 0.950 . S
H584 C560 0.950 . S
H585 C561 0.949 . S
H586 C563 0.950 . S
H587 C565 0.950 . S
C588 C589 1.349 . S
C588 C590 1.327 . S
C588 H613 0.950 1_545 S
C589 C588 1.349 . S
C589 C605 1.349 . S
C590 C588 1.327 . S
C590 C609 1.429 . S
C590 H614 0.950 1_545 S
C591 C608 1.574 . S
C591 C610 1.368 . S
C591 H615 0.949 . S
H592 C596 0.949 1_565 S
C593 C594 1.349 . S
C593 C595 1.327 . S
C593 H616 0.950 . S
C594 C593 1.349 . S
C594 C606 1.349 . S
C595 C593 1.327 . S
C595 C611 1.429 . S
C595 H617 0.950 . S
C596 H592 0.949 1_545 S
C596 C604 1.574 . S
C596 C612 1.368 . S
H597 C605 0.950 . S
H598 C603 0.950 . S
H599 C604 0.949 1_565 S
H600 C606 0.950 1_565 S
H601 C607 0.950 1_565 S
H602 C608 0.949 . S
C603 H598 0.950 . S
C603 C605 1.327 . S
C603 C609 1.429 . S
C604 C596 1.574 . S
C604 H599 0.949 1_545 S
C604 C610 1.368 . S
C605 C589 1.349 . S
C605 H597 0.950 . S
C605 C603 1.327 . S
C606 C594 1.349 . S
C606 H600 0.950 1_545 S
C606 C607 1.327 . S
C607 H601 0.950 1_545 S
C607 C606 1.327 . S
C607 C611 1.429 . S
C608 C591 1.574 . S
C608 H602 0.949 . S
C608 C612 1.368 . S
C609 C590 1.429 . S
C609 C603 1.429 . S
C609 C610 1.523 . S
C610 C591 1.368 . S
C610 C604 1.368 . S
C610 C609 1.523 . S
C611 C595 1.429 . S
C611 C607 1.429 . S
C611 C612 1.523 . S
C612 C596 1.368 . S
C612 C608 1.368 . S
C612 C611 1.523 . S
H613 C588 0.950 1_565 S
H614 C590 0.950 1_565 S
H615 C591 0.949 . S
H616 C593 0.950 . S
H617 C595 0.950 . S
C618 C619 1.349 . S
C618 C620 1.327 . S
C618 H643 0.950 . S
C619 C618 1.349 . S
C619 C635 1.349 . S
C620 C618 1.327 . S
C620 C639 1.429 . S
C620 H644 0.950 . S
C621 C638 1.574 . S
C621 C640 1.368 . S
C621 H645 0.949 . S
H622 C626 0.949 . S
C623 C624 1.349 . S
C623 C625 1.327 . S
C623 H646 0.950 . S
C624 C623 1.349 . S
C624 C636 1.349 . S
C625 C623 1.327 . S
C625 C641 1.429 . S
C625 H647 0.950 . S
C626 H622 0.949 . S
C626 C634 1.574 . S
C626 C642 1.368 . S
H627 C635 0.950 . S
H628 C633 0.950 . S
H629 C634 0.949 . S
H630 C636 0.950 . S
H631 C637 0.950 . S
H632 C638 0.949 . S
C633 H628 0.950 . S
C633 C635 1.327 . S
C633 C639 1.429 . S
C634 C626 1.574 . S
C634 H629 0.949 . S
C634 C640 1.368 . S
C635 C619 1.349 . S
C635 H627 0.950 . S
C635 C633 1.327 . S
C636 C624 1.349 . S
C636 H630 0.950 . S
C636 C637 1.327 . S
C637 H631 0.950 . S
C637 C636 1.327 . S
C637 C641 1.429 . S
C638 C621 1.574 . S
C638 H632 0.949 . S
C638 C642 1.368 . S
C639 C620 1.429 . S
C639 C633 1.429 . S
C639 C640 1.523 . S
C640 C621 1.368 . S
C640 C634 1.368 . S
C640 C639 1.523 . S
C641 C625 1.429 . S
C641 C637 1.429 . S
C641 C642 1.523 . S
C642 C626 1.368 . S
C642 C638 1.368 . S
C642 C641 1.523 . S
H643 C618 0.950 . S
H644 C620 0.950 . S
H645 C621 0.949 . S
H646 C623 0.950 . S
H647 C625 0.950 . S
C648 C649 1.349 1_565 S
C648 C650 1.327 . S
C648 H673 0.950 . S
C649 C648 1.349 1_545 S
C649 C665 1.349 . S
C650 C648 1.327 . S
C650 C669 1.429 1_565 S
C650 H674 0.950 . S
C651 C668 1.574 . S
C651 C670 1.368 . S
C651 H675 0.949 . S
H652 C656 0.949 . S
C653 C654 1.349 . S
C653 C655 1.327 . S
C653 H676 0.950 . S
C654 C653 1.349 . S
C654 C666 1.349 1_545 S
C655 C653 1.327 . S
C655 C671 1.429 . S
C655 H677 0.950 . S
C656 H652 0.949 . S
C656 C664 1.574 . S
C656 C672 1.368 1_565 S
H657 C665 0.950 . S
H658 C663 0.950 . S
H659 C664 0.949 . S
H660 C666 0.950 . S
H661 C667 0.950 . S
H662 C668 0.949 . S
C663 H658 0.950 . S
C663 C665 1.327 . S
C663 C669 1.429 . S
C664 C656 1.574 . S
C664 H659 0.949 . S
C664 C670 1.368 1_565 S
C665 C649 1.349 . S
C665 H657 0.950 . S
C665 C663 1.327 . S
C666 C654 1.349 1_565 S
C666 H660 0.950 . S
C666 C667 1.327 . S
C667 H661 0.950 . S
C667 C666 1.327 . S
C667 C671 1.429 1_565 S
C668 C651 1.574 . S
C668 H662 0.949 . S
C668 C672 1.368 . S
C669 C650 1.429 1_545 S
C669 C663 1.429 . S
C669 C670 1.523 . S
C670 C651 1.368 . S
C670 C664 1.368 1_545 S
C670 C669 1.523 . S
C671 C655 1.429 . S
C671 C667 1.429 1_545 S
C671 C672 1.523 . S
C672 C656 1.368 1_545 S
C672 C668 1.368 . S
C672 C671 1.523 . S
H673 C648 0.950 . S
H674 C650 0.950 . S
H675 C651 0.949 . S
H676 C653 0.950 . S
H677 C655 0.950 . S
C678 C679 1.349 . S
C678 C680 1.327 . S
C678 H703 0.950 . S
C679 C678 1.349 . S
C679 C695 1.349 . S
C680 C678 1.327 . S
C680 C699 1.429 . S
C680 H704 0.950 . S
C681 C698 1.574 . S
C681 C700 1.368 . S
C681 H705 0.949 . S
H682 C686 0.949 1_554 S
C683 C684 1.349 . S
C683 C685 1.327 . S
C683 H706 0.950 . S
C684 C683 1.349 . S
C684 C696 1.349 . S
C685 C683 1.327 . S
C685 C701 1.429 . S
C685 H707 0.950 . S
C686 H682 0.949 1_556 S
C686 C694 1.574 . S
C686 C702 1.368 1_556 S
H687 C695 0.950 . S
H688 C693 0.950 . S
H689 C694 0.949 . S
H690 C696 0.950 . S
H691 C697 0.950 . S
H692 C698 0.949 1_554 S
C693 H688 0.950 . S
C693 C695 1.327 . S
C693 C699 1.429 . S
C694 C686 1.574 . S
C694 H689 0.949 . S
C694 C700 1.368 . S
C695 C679 1.349 . S
C695 H687 0.950 . S
C695 C693 1.327 . S
C696 C684 1.349 . S
C696 H690 0.950 . S
C696 C697 1.327 . S
C697 H691 0.950 . S
C697 C696 1.327 . S
C697 C701 1.429 . S
C698 C681 1.574 . S
C698 H692 0.949 1_556 S
C698 C702 1.368 1_556 S
C699 C680 1.429 . S
C699 C693 1.429 . S
C699 C700 1.523 . S
C700 C681 1.368 . S
C700 C694 1.368 . S
C700 C699 1.523 . S
C701 C685 1.429 . S
C701 C697 1.429 . S
C701 C702 1.523 . S
C702 C686 1.368 1_554 S
C702 C698 1.368 1_554 S
C702 C701 1.523 . S
H703 C678 0.950 . S
H704 C680 0.950 . S
H705 C681 0.949 . S
H706 C683 0.950 . S
H707 C685 0.950 . S
C708 C709 1.349 . S
C708 C710 1.327 . S
C708 H733 0.950 . S
C709 C708 1.349 . S
C709 C725 1.349 . S
C710 C708 1.327 . S
C710 C729 1.429 . S
C710 H734 0.950 . S
C711 C728 1.574 . S
C711 C730 1.368 . S
C711 H735 0.949 . S
H712 C716 0.949 . S
C713 C714 1.349 . S
C713 C715 1.327 . S
C713 H736 0.950 . S
C714 C713 1.349 . S
C714 C726 1.349 . S
C715 C713 1.327 . S
C715 C731 1.429 . S
C715 H737 0.950 . S
C716 H712 0.949 . S
C716 C724 1.574 . S
C716 C732 1.368 . S
H717 C725 0.950 . S
H718 C723 0.950 . S
H719 C724 0.949 . S
H720 C726 0.950 . S
H721 C727 0.950 . S
H722 C728 0.949 . S
C723 H718 0.950 . S
C723 C725 1.327 . S
C723 C729 1.429 . S
C724 C716 1.574 . S
C724 H719 0.949 . S
C724 C730 1.368 . S
C725 C709 1.349 . S
C725 H717 0.950 . S
C725 C723 1.327 . S
C726 C714 1.349 . S
C726 H720 0.950 . S
C726 C727 1.327 . S
C727 H721 0.950 . S
C727 C726 1.327 . S
C727 C731 1.429 . S
C728 C711 1.574 . S
C728 H722 0.949 . S
C728 C732 1.368 . S
C729 C710 1.429 . S
C729 C723 1.429 . S
C729 C730 1.523 . S
C730 C711 1.368 . S
C730 C724 1.368 . S
C730 C729 1.523 . S
C731 C715 1.429 . S
C731 C727 1.429 . S
C731 C732 1.523 . S
C732 C716 1.368 . S
C732 C728 1.368 . S
C732 C731 1.523 . S
H733 C708 0.950 . S
H734 C710 0.950 . S
H735 C711 0.949 . S
H736 C713 0.950 . S
H737 C715 0.950 . S
C199 C10 3.031 . S
C204 C189 2.866 . S
C229 C59 2.961 . S
C234 C167 2.926 1_655 S
C259 C90 2.884 . S
C264 C180 2.865 . S
C289 C19 2.970 . S
C294 C193 2.936 . S
C324 C163 2.890 . S
C319 C50 3.048 . S
C354 C176 2.942 . S
C349 C99 3.138 . S
C379 C46 0.194 . S
C384 C141 0.251 . S
C409 C95 0.209 . S
C414 C154 0.194 . S
C439 C6 0.395 . S
C444 C124 0.515 . S
C474 C137 0.475 . S
C469 C55 0.359 . S
C504 C150 0.546 . S
C499 C86 0.479 . S
C529 C15 0.225 . S
C534 C128 0.185 . S
C564 C155 1.289 . S
C559 C9 1.258 . S
C589 C49 1.299 . S
C594 C129 1.318 . S
C619 C89 1.214 . S
C624 C142 1.260 . S
C654 C181 1.782 . S
C649 C58 1.674 . S
C684 C194 1.720 . S
C679 C98 1.678 . S
C709 C18 1.685 . S
C714 C168 1.745 . S
