# Generated by pormake.
# Topology wbl, (4,4)-cn, num edge types: 1
# Building blocks:
#     Node 0, Type 0, BuildingBlock: MUDLON_clean_linker_0, # of connection points: 4
#     Node 1, Type 0, BuildingBlock: MUDLON_clean_linker_0, # of connection points: 4
#     Node 2, Type 0, BuildingBlock: MUDLON_clean_linker_0, # of connection points: 4
#     Node 3, Type 0, BuildingBlock: MUDLON_clean_linker_0, # of connection points: 4
#     Node 4, Type 0, BuildingBlock: MUDLON_clean_linker_0, # of connection points: 4
#     Node 5, Type 0, BuildingBlock: MUDLON_clean_linker_0, # of connection points: 4
#     Node 6, Type 0, BuildingBlock: MUDLON_clean_linker_0, # of connection points: 4
#     Node 7, Type 0, BuildingBlock: MUDLON_clean_linker_0, # of connection points: 4
#     Node 8, Type 1, BuildingBlock: NAHDIM_clean_sbu_0, # of connection points: 4
#     Node 9, Type 1, BuildingBlock: NAHDIM_clean_sbu_0, # of connection points: 4
#     Node 10, Type 1, BuildingBlock: NAHDIM_clean_sbu_0, # of connection points: 4
#     Node 11, Type 1, BuildingBlock: NAHDIM_clean_sbu_0, # of connection points: 4
#     Node 12, Type 1, BuildingBlock: NAHDIM_clean_sbu_0, # of connection points: 4
#     Node 13, Type 1, BuildingBlock: NAHDIM_clean_sbu_0, # of connection points: 4
#     Node 14, Type 1, BuildingBlock: NAHDIM_clean_sbu_0, # of connection points: 4
#     Node 15, Type 1, BuildingBlock: NAHDIM_clean_sbu_0, # of connection points: 4
#     Edge 16, Type (0, 1), BuildingBlock: EZIPEK_clean_linker_0, # of connection points: 2
#     Edge 17, Type (0, 1), BuildingBlock: EZIPEK_clean_linker_0, # of connection points: 2
#     Edge 18, Type (0, 1), BuildingBlock: EZIPEK_clean_linker_0, # of connection points: 2
#     Edge 19, Type (0, 1), BuildingBlock: EZIPEK_clean_linker_0, # of connection points: 2
#     Edge 20, Type (0, 1), BuildingBlock: EZIPEK_clean_linker_0, # of connection points: 2
#     Edge 21, Type (0, 1), BuildingBlock: EZIPEK_clean_linker_0, # of connection points: 2
#     Edge 22, Type (0, 1), BuildingBlock: EZIPEK_clean_linker_0, # of connection points: 2
#     Edge 23, Type (0, 1), BuildingBlock: EZIPEK_clean_linker_0, # of connection points: 2
#     Edge 24, Type (0, 1), BuildingBlock: EZIPEK_clean_linker_0, # of connection points: 2
#     Edge 25, Type (0, 1), BuildingBlock: EZIPEK_clean_linker_0, # of connection points: 2
#     Edge 26, Type (0, 1), BuildingBlock: EZIPEK_clean_linker_0, # of connection points: 2
#     Edge 27, Type (0, 1), BuildingBlock: EZIPEK_clean_linker_0, # of connection points: 2
#     Edge 28, Type (0, 1), BuildingBlock: EZIPEK_clean_linker_0, # of connection points: 2
#     Edge 29, Type (0, 1), BuildingBlock: EZIPEK_clean_linker_0, # of connection points: 2
#     Edge 30, Type (0, 1), BuildingBlock: EZIPEK_clean_linker_0, # of connection points: 2
#     Edge 31, Type (0, 1), BuildingBlock: EZIPEK_clean_linker_0, # of connection points: 2
#     Edge 32, Type (0, 1), BuildingBlock: EZIPEK_clean_linker_0, # of connection points: 2
#     Edge 33, Type (0, 1), BuildingBlock: EZIPEK_clean_linker_0, # of connection points: 2
#     Edge 34, Type (0, 1), BuildingBlock: EZIPEK_clean_linker_0, # of connection points: 2
#     Edge 35, Type (0, 1), BuildingBlock: EZIPEK_clean_linker_0, # of connection points: 2
#     Edge 36, Type (0, 1), BuildingBlock: EZIPEK_clean_linker_0, # of connection points: 2
#     Edge 37, Type (0, 1), BuildingBlock: EZIPEK_clean_linker_0, # of connection points: 2
#     Edge 38, Type (0, 1), BuildingBlock: EZIPEK_clean_linker_0, # of connection points: 2
#     Edge 39, Type (0, 1), BuildingBlock: EZIPEK_clean_linker_0, # of connection points: 2
#     Edge 40, Type (0, 1), BuildingBlock: EZIPEK_clean_linker_0, # of connection points: 2
#     Edge 41, Type (0, 1), BuildingBlock: EZIPEK_clean_linker_0, # of connection points: 2
#     Edge 42, Type (0, 1), BuildingBlock: EZIPEK_clean_linker_0, # of connection points: 2
#     Edge 43, Type (0, 1), BuildingBlock: EZIPEK_clean_linker_0, # of connection points: 2
#     Edge 44, Type (0, 1), BuildingBlock: EZIPEK_clean_linker_0, # of connection points: 2
#     Edge 45, Type (0, 1), BuildingBlock: EZIPEK_clean_linker_0, # of connection points: 2
#     Edge 46, Type (0, 1), BuildingBlock: EZIPEK_clean_linker_0, # of connection points: 2
#     Edge 47, Type (0, 1), BuildingBlock: EZIPEK_clean_linker_0, # of connection points: 2
# Relax obj value: 0.106
# Max RMSD: 0.126
# Mean RMSD: 0.113
data_MOF--net-wbl--node1-NAHDIM_clean_sbu_0--node2-MUDLON_clean_linker_0--edge1-EZIPEK_clean_linker_0
_symmetry_space_group_name_H-M    P1
_symmetry_Int_Tables_number       1
_symmetry_cell_setting            triclinic
loop_
_symmetry_equiv_pos_as_xyz
'x, y, z'
_cell_length_a     44.206793
_cell_length_b     42.879012
_cell_length_c     59.407859
_cell_angle_alpha  89.96778
_cell_angle_beta   89.972169
_cell_angle_gamma 90.007642
loop_
_atom_site_label
_atom_site_type_symbol
_atom_site_fract_x
_atom_site_fract_y
_atom_site_fract_z
_atom_type_partial_charge
H0 H 0.12726 0.9141 0.34479 0.0
N1 N 0.07221 0.90551 0.32407 0.0
H2 H 0.14061 0.89881 0.38312 0.0
H3 H 0.03677 0.87882 0.35484 0.0
H4 H 0.05 0.86459 0.39377 0.0
H5 H 0.08658 0.8498 0.3077 0.0
H6 H 0.13166 0.83606 0.28557 0.0
H7 H 0.11128 0.94714 0.30301 0.0
H8 H 0.15538 0.93331 0.28089 0.0
H9 H 0.09188 0.9618 0.34039 0.0
H10 H 0.01869 0.91659 0.30532 0.0
H11 H 0.06437 0.01087 0.3397 0.0
H12 H 0.9901 0.96547 0.30549 0.0
H13 H 0.94554 0.15342 0.35667 0.0
H14 H 0.92214 0.1613 0.39386 0.0
H15 H 0.90217 0.06303 0.39779 0.0
H16 H 0.92512 0.05514 0.36075 0.0
H17 H 0.9035 0.05789 0.32458 0.0
H18 H 0.85621 0.06814 0.30446 0.0
H19 H 0.88768 0.1604 0.28764 0.0
H20 H 0.9351 0.15033 0.30813 0.0
H21 H 0.99175 0.07967 0.36145 0.0
H22 H 0.02295 0.03367 0.3577 0.0
H23 H 0.98633 0.01749 0.29132 0.0
N24 N 0.9483 0.10058 0.33308 0.0
H25 H 0.95412 0.06283 0.29534 0.0
C26 C 0.08097 0.89705 0.34673 0.0
C27 C 0.11025 0.90297 0.35513 0.0
C28 C 0.1179 0.8944 0.37707 0.0
C29 C 0.09633 0.88044 0.39117 0.0
C30 C 0.06697 0.87515 0.38304 0.0
C31 C 0.05946 0.88322 0.36093 0.0
C32 C 0.09529 0.89936 0.30733 0.0
C33 C 0.10106 0.86821 0.3014 0.0
C34 C 0.12668 0.86038 0.28882 0.0
C35 C 0.14673 0.88372 0.28175 0.0
C36 C 0.14003 0.91504 0.28623 0.0
C37 C 0.11466 0.92287 0.299 0.0
C38 C 0.05728 0.93541 0.32282 0.0
C39 C 0.06983 0.96242 0.33251 0.0
C40 C 0.05392 0.99051 0.33224 0.0
C41 C 0.02483 0.99217 0.32272 0.0
C42 C 0.0126 0.96524 0.31269 0.0
C43 C 0.02876 0.93721 0.31269 0.0
C44 C 0.93724 0.10382 0.35592 0.0
C45 C 0.93648 0.13357 0.3657 0.0
C46 C 0.92316 0.13804 0.38679 0.0
C47 C 0.91051 0.1127 0.39842 0.0
C48 C 0.91188 0.08279 0.389 0.0
C49 C 0.92492 0.07836 0.36786 0.0
C50 C 0.92292 0.10349 0.31788 0.0
C51 C 0.90055 0.08015 0.3163 0.0
C52 C 0.87362 0.08591 0.30479 0.0
C53 C 0.86863 0.11499 0.29469 0.0
C54 C 0.89136 0.13778 0.29528 0.0
C55 C 0.91832 0.13202 0.30685 0.0
C56 C 0.96815 0.07376 0.32966 0.0
C57 C 0.98971 0.06597 0.34622 0.0
C58 C 0.00812 0.03979 0.34388 0.0
C59 C 0.00667 0.0213 0.3244 0.0
C60 C 0.98715 0.03046 0.30694 0.0
C61 C 0.96845 0.05655 0.30937 0.0
H62 H 0.9089 0.387 0.59515 0.0
N63 N 0.90246 0.44291 0.57302 0.0
H64 H 0.89465 0.37582 0.63403 0.0
H65 H 0.87995 0.48249 0.6034 0.0
H66 H 0.86653 0.47132 0.64287 0.0
H67 H 0.84607 0.42685 0.56255 0.0
H68 H 0.82948 0.37827 0.54449 0.0
H69 H 0.93903 0.40241 0.54801 0.0
H70 H 0.92221 0.35473 0.5302 0.0
H71 H 0.95588 0.41665 0.58685 0.0
H72 H 0.9173 0.49744 0.5546 0.0
H73 H 0.00584 0.43979 0.58454 0.0
H74 H 0.9674 0.52183 0.55326 0.0
H75 H 0.1576 0.53542 0.59728 0.0
H76 H 0.17064 0.55296 0.63561 0.0
H77 H 0.08316 0.59655 0.64166 0.0
H78 H 0.06988 0.57865 0.60386 0.0
H79 H 0.07314 0.5993 0.5682 0.0
H80 H 0.08959 0.64524 0.54708 0.0
H81 H 0.16943 0.59598 0.52534 0.0
H82 H 0.15338 0.55002 0.54717 0.0
H83 H 0.08225 0.50395 0.60381 0.0
H84 H 0.03351 0.47876 0.60205 0.0
H85 H 0.01696 0.52114 0.53721 0.0
N86 N 0.10623 0.54586 0.57488 0.0
H87 H 0.06528 0.54768 0.53936 0.0
C88 C 0.89499 0.43565 0.59617 0.0
C89 C 0.8995 0.40561 0.60527 0.0
C90 C 0.89147 0.39919 0.62749 0.0
C91 C 0.87935 0.42269 0.64118 0.0
C92 C 0.87565 0.45287 0.63244 0.0
C93 C 0.88326 0.45921 0.61003 0.0
C94 C 0.89379 0.41838 0.55744 0.0
C95 C 0.86281 0.41169 0.55498 0.0
C96 C 0.85333 0.38404 0.54475 0.0
C97 C 0.87474 0.36298 0.53634 0.0
C98 C 0.90547 0.37078 0.53677 0.0
C99 C 0.91502 0.39818 0.54723 0.0
C100 C 0.93271 0.45535 0.57079 0.0
C101 C 0.95813 0.43949 0.57932 0.0
C102 C 0.98679 0.45292 0.57811 0.0
C103 C 0.99073 0.4829 0.56894 0.0
C104 C 0.96534 0.49855 0.56016 0.0
C105 C 0.93666 0.48479 0.56102 0.0
C106 C 0.11297 0.55583 0.59762 0.0
C107 C 0.14125 0.54861 0.60695 0.0
C108 C 0.14863 0.55852 0.6287 0.0
C109 C 0.12777 0.57595 0.64128 0.0
C110 C 0.09945 0.58312 0.63209 0.0
C111 C 0.09203 0.57313 0.61046 0.0
C112 C 0.1123 0.57121 0.55946 0.0
C113 C 0.09407 0.59817 0.55883 0.0
C114 C 0.10333 0.62433 0.54666 0.0
C115 C 0.13081 0.62398 0.53487 0.0
C116 C 0.14818 0.5966 0.53441 0.0
C117 C 0.13903 0.57047 0.54675 0.0
C118 C 0.07713 0.53006 0.57269 0.0
C119 C 0.06801 0.50863 0.58937 0.0
C120 C 0.04014 0.49362 0.58816 0.0
C121 C 0.02092 0.49827 0.56964 0.0
C122 C 0.03071 0.51787 0.55211 0.0
C123 C 0.05857 0.53328 0.55345 0.0
H124 H 0.62208 0.42739 0.8293 0.0
N125 N 0.5709 0.41067 0.80626 0.0
H126 H 0.63755 0.40857 0.86633 0.0
H127 H 0.54036 0.37269 0.83353 0.0
H128 H 0.55678 0.35242 0.87037 0.0
H129 H 0.58455 0.35404 0.79166 0.0
H130 H 0.631 0.33808 0.77231 0.0
H131 H 0.61052 0.45061 0.78388 0.0
H132 H 0.6561 0.43454 0.76416 0.0
H133 H 0.59216 0.46833 0.81939 0.0
H134 H 0.51545 0.42068 0.79066 0.0
H135 H 0.56393 0.51666 0.82006 0.0
H136 H 0.48629 0.46923 0.7921 0.0
H137 H 0.45086 0.65757 0.84629 0.0
H138 H 0.42955 0.66509 0.88421 0.0
H139 H 0.40174 0.56876 0.88558 0.0
H140 H 0.42321 0.56107 0.84797 0.0
H141 H 0.40053 0.56745 0.81262 0.0
H142 H 0.35343 0.58239 0.79386 0.0
H143 H 0.39142 0.67238 0.77805 0.0
H144 H 0.43864 0.6576 0.79725 0.0
H145 H 0.49363 0.58398 0.84723 0.0
H146 H 0.52408 0.53773 0.84164 0.0
H147 H 0.48036 0.52174 0.77767 0.0
N148 N 0.44865 0.60612 0.82114 0.0
H149 H 0.44919 0.56753 0.78343 0.0
C150 C 0.57962 0.40186 0.8288 0.0
C151 C 0.60708 0.41193 0.83839 0.0
C152 C 0.6161 0.40096 0.85944 0.0
C153 C 0.59828 0.37917 0.87104 0.0
C154 C 0.57071 0.36939 0.86169 0.0
C155 C 0.56138 0.38088 0.84078 0.0
C156 C 0.59394 0.40341 0.78975 0.0
C157 C 0.59961 0.37181 0.78514 0.0
C158 C 0.62609 0.36269 0.77417 0.0
C159 C 0.64708 0.38516 0.76714 0.0
C160 C 0.64018 0.4169 0.76966 0.0
C161 C 0.61398 0.42603 0.78107 0.0
C162 C 0.55594 0.44057 0.80488 0.0
C163 C 0.56927 0.46813 0.8131 0.0
C164 C 0.55292 0.49593 0.81364 0.0
C165 C 0.52267 0.49683 0.80641 0.0
C166 C 0.50964 0.46949 0.79759 0.0
C167 C 0.52619 0.4417 0.79683 0.0
C168 C 0.43865 0.60891 0.84426 0.0
C169 C 0.44059 0.63801 0.85493 0.0
C170 C 0.42846 0.64228 0.87643 0.0
C171 C 0.41414 0.61744 0.88751 0.0
C172 C 0.41276 0.58811 0.87719 0.0
C173 C 0.4249 0.58382 0.85573 0.0
C174 C 0.42318 0.61157 0.8064 0.0
C175 C 0.39902 0.59021 0.80485 0.0
C176 C 0.37219 0.59865 0.7941 0.0
C177 C 0.36904 0.6285 0.78477 0.0
C178 C 0.39358 0.64923 0.78518 0.0
C179 C 0.42044 0.64079 0.79599 0.0
C180 C 0.46711 0.57858 0.81674 0.0
C181 C 0.48996 0.57031 0.83215 0.0
C182 C 0.50785 0.54399 0.82875 0.0
C183 C 0.50435 0.52564 0.80935 0.0
C184 C 0.48296 0.53479 0.79316 0.0
C185 C 0.46485 0.56113 0.79662 0.0
H186 H 0.43235 0.88225 0.082 0.0
N187 N 0.41723 0.93867 0.06326 0.0
H188 H 0.42039 0.86464 0.12008 0.0
H189 H 0.39033 0.97105 0.09589 0.0
H190 H 0.37799 0.95303 0.13422 0.0
H191 H 0.35994 0.92904 0.05206 0.0
H192 H 0.33929 0.88293 0.03301 0.0
H193 H 0.45046 0.8968 0.03745 0.0
H194 H 0.42973 0.85146 0.01845 0.0
H195 H 0.4736 0.91395 0.07171 0.0
H196 H 0.42707 0.99572 0.04751 0.0
H197 H 0.52167 0.94077 0.06848 0.0
H198 H 0.47534 0.02351 0.04518 0.0
H199 H 0.66803 0.05519 0.0798 0.0
H200 H 0.68451 0.07457 0.11685 0.0
H201 H 0.59213 0.09689 0.13352 0.0
H202 H 0.57564 0.07786 0.09672 0.0
H203 H 0.57259 0.10638 0.06295 0.0
H204 H 0.58078 0.15746 0.04559 0.0
H205 H 0.66288 0.12375 0.0149 0.0
H206 H 0.6551 0.07253 0.03281 0.0
H207 H 0.59461 0.00962 0.08947 0.0
H208 H 0.54817 0.97989 0.08771 0.0
H209 H 0.52327 0.0279 0.02653 0.0
N210 N 0.61236 0.05729 0.06249 0.0
H211 H 0.56915 0.05858 0.02863 0.0
C212 C 0.41225 0.92819 0.08608 0.0
C213 C 0.42093 0.89816 0.09328 0.0
C214 C 0.41406 0.88801 0.11499 0.0
C215 C 0.39837 0.90758 0.12983 0.0
C216 C 0.39021 0.93772 0.12293 0.0
C217 C 0.39721 0.94795 0.10118 0.0
C218 C 0.40671 0.91651 0.04664 0.0
C219 C 0.37532 0.91281 0.04405 0.0
C220 C 0.36353 0.88657 0.03325 0.0
C221 C 0.38308 0.86389 0.02454 0.0
C222 C 0.4144 0.86888 0.0251 0.0
C223 C 0.4262 0.89492 0.03612 0.0
C224 C 0.44649 0.95284 0.05973 0.0
C225 C 0.47363 0.93767 0.06558 0.0
C226 C 0.50126 0.9532 0.06391 0.0
C227 C 0.50246 0.98446 0.0568 0.0
C228 C 0.47538 0.99933 0.05045 0.0
C229 C 0.44774 0.98359 0.05186 0.0
C230 C 0.6207 0.06487 0.08543 0.0
C231 C 0.65131 0.06369 0.09162 0.0
C232 C 0.66068 0.07475 0.11263 0.0
C233 C 0.63944 0.08702 0.12777 0.0
C234 C 0.60873 0.08734 0.12201 0.0
C235 C 0.59939 0.07654 0.10099 0.0
C236 C 0.61346 0.08561 0.04927 0.0
C237 C 0.59217 0.10973 0.05231 0.0
C238 C 0.59673 0.13881 0.04234 0.0
C239 C 0.62244 0.14419 0.02911 0.0
C240 C 0.64286 0.11981 0.02504 0.0
C241 C 0.63841 0.09072 0.03515 0.0
C242 C 0.58481 0.0387 0.06041 0.0
C243 C 0.57897 0.01451 0.0759 0.0
C244 C 0.55247 0.99695 0.07465 0.0
C245 C 0.53153 0.00196 0.05724 0.0
C246 C 0.53833 0.02426 0.04066 0.0
C247 C 0.56477 0.04207 0.04201 0.0
H248 H 0.11738 0.56335 0.92738 0.0
N249 N 0.06499 0.57899 0.9495 0.0
H250 H 0.13173 0.57935 0.88932 0.0
H251 H 0.03091 0.60875 0.9194 0.0
H252 H 0.04522 0.62423 0.88088 0.0
H253 H 0.07762 0.63644 0.96303 0.0
H254 H 0.12404 0.65418 0.98176 0.0
H255 H 0.1067 0.5409 0.9712 0.0
H256 H 0.15245 0.55872 0.98983 0.0
H257 H 0.08459 0.52019 0.93848 0.0
H258 H 0.01013 0.57172 0.96687 0.0
H259 H 0.05603 0.47212 0.94183 0.0
H260 H 0.98014 0.5239 0.96868 0.0
H261 H 0.93657 0.33141 0.92592 0.0
H262 H 0.91999 0.3211 0.88705 0.0
H263 H 0.90134 0.41901 0.87796 0.0
H264 H 0.91729 0.42924 0.91671 0.0
H265 H 0.88963 0.42652 0.95105 0.0
H266 H 0.84148 0.41549 0.96994 0.0
H267 H 0.87768 0.32876 0.99487 0.0
H268 H 0.92583 0.33953 0.97559 0.0
H269 H 0.98543 0.40124 0.92167 0.0
H270 H 0.01726 0.44685 0.92408 0.0
H271 H 0.97092 0.47504 0.98485 0.0
N272 N 0.93747 0.38609 0.94732 0.0
H273 H 0.93773 0.43035 0.98168 0.0
C274 C 0.07305 0.58525 0.92637 0.0
C275 C 0.10129 0.57637 0.91739 0.0
C276 C 0.10952 0.58542 0.89567 0.0
C277 C 0.08955 0.603 0.88247 0.0
C278 C 0.06086 0.61063 0.89092 0.0
C279 C 0.05275 0.60188 0.91278 0.0
C280 C 0.08845 0.58743 0.96536 0.0
C281 C 0.09338 0.61928 0.96948 0.0
C282 C 0.11982 0.6294 0.98007 0.0
C283 C 0.14163 0.6077 0.98693 0.0
C284 C 0.13579 0.57574 0.98456 0.0
C285 C 0.10947 0.56561 0.97381 0.0
C286 C 0.04961 0.54965 0.95277 0.0
C287 C 0.06212 0.52117 0.94562 0.0
C288 C 0.04546 0.49361 0.94725 0.0
C289 C 0.01548 0.49394 0.95529 0.0
C290 C 0.00325 0.52245 0.96275 0.0
C291 C 0.02026 0.54991 0.96161 0.0
C292 C 0.92842 0.38098 0.92419 0.0
C293 C 0.92898 0.35059 0.9155 0.0
C294 C 0.91955 0.34475 0.89344 0.0
C295 C 0.90961 0.36936 0.87973 0.0
C296 C 0.90901 0.39979 0.88833 0.0
C297 C 0.91807 0.40557 0.91043 0.0
C298 C 0.91134 0.38364 0.96184 0.0
C299 C 0.88747 0.4054 0.96088 0.0
C300 C 0.86006 0.39921 0.97171 0.0
C301 C 0.85613 0.37128 0.98365 0.0
C302 C 0.88044 0.35046 0.98576 0.0
C303 C 0.90782 0.35662 0.97486 0.0
C304 C 0.95734 0.41292 0.9504 0.0
C305 C 0.98155 0.41747 0.93533 0.0
C306 C 0.00029 0.44348 0.93699 0.0
C307 C 0.9965 0.46517 0.95449 0.0
C308 C 0.97385 0.45952 0.97065 0.0
C309 C 0.95463 0.43369 0.96875 0.0
H310 H 0.51053 0.37843 0.14629 0.0
N311 N 0.54175 0.39639 0.18227 0.0
H312 H 0.52951 0.3716 0.10759 0.0
H313 H 0.59898 0.40994 0.16696 0.0
H314 H 0.61756 0.40346 0.12856 0.0
H315 H 0.59243 0.41111 0.2068 0.0
H316 H 0.62442 0.37339 0.22694 0.0
H317 H 0.52745 0.33853 0.19327 0.0
H318 H 0.5589 0.30112 0.21399 0.0
H319 H 0.4881 0.40825 0.20025 0.0
H320 H 0.57172 0.45252 0.181 0.0
H321 H 0.4657 0.45935 0.20773 0.0
H322 H 0.54921 0.50336 0.18681 0.0
H323 H 0.39505 0.59482 0.17235 0.0
H324 H 0.37351 0.60533 0.13523 0.0
H325 H 0.45989 0.63963 0.11233 0.0
H326 H 0.48182 0.62844 0.14957 0.0
H327 H 0.46487 0.66528 0.19731 0.0
H328 H 0.43406 0.69919 0.2214 0.0
H329 H 0.3756 0.62165 0.23704 0.0
H330 H 0.4065 0.58764 0.2129 0.0
H331 H 0.42422 0.55061 0.18121 0.0
H332 H 0.44688 0.49961 0.18557 0.0
H333 H 0.5294 0.54257 0.2095 0.0
N334 N 0.45328 0.60699 0.18582 0.0
H335 H 0.50688 0.59401 0.20351 0.0
C336 C 0.55315 0.39467 0.15955 0.0
C337 C 0.53381 0.38423 0.14245 0.0
C338 C 0.54456 0.38041 0.12049 0.0
C339 C 0.57483 0.3872 0.11538 0.0
C340 C 0.59408 0.39834 0.13227 0.0
C341 C 0.58339 0.40198 0.15421 0.0
C342 C 0.55769 0.37737 0.19831 0.0
C343 C 0.58465 0.38734 0.20866 0.0
C344 C 0.60284 0.36592 0.2202 0.0
C345 C 0.59392 0.33458 0.22183 0.0
C346 C 0.56599 0.32526 0.21295 0.0
C347 C 0.54809 0.34651 0.20122 0.0
C348 C 0.53125 0.42648 0.18963 0.0
C349 C 0.50168 0.42902 0.19784 0.0
C350 C 0.48886 0.45827 0.20186 0.0
C351 C 0.50535 0.48568 0.19741 0.0
C352 C 0.53575 0.48293 0.19059 0.0
C353 C 0.54867 0.45365 0.18696 0.0
C354 C 0.44027 0.61073 0.16371 0.0
C355 C 0.40962 0.60406 0.15935 0.0
C356 C 0.39725 0.61009 0.13817 0.0
C357 C 0.41514 0.62325 0.12114 0.0
C358 C 0.44581 0.62938 0.1253 0.0
C359 C 0.45827 0.62303 0.14644 0.0
C360 C 0.43797 0.62413 0.20326 0.0
C361 C 0.44589 0.65543 0.2064 0.0
C362 C 0.42834 0.67469 0.22005 0.0
C363 C 0.40254 0.66287 0.23077 0.0
C364 C 0.39548 0.63106 0.22883 0.0
C365 C 0.4131 0.61173 0.21509 0.0
C366 C 0.46422 0.57631 0.19145 0.0
C367 C 0.44713 0.54924 0.18742 0.0
C368 C 0.46011 0.51983 0.19026 0.0
C369 C 0.49024 0.51676 0.19764 0.0
C370 C 0.50645 0.54393 0.20322 0.0
C371 C 0.49358 0.57336 0.2 0.0
H372 H 0.33804 0.98221 0.40623 0.0
N373 N 0.38141 0.9732 0.43634 0.0
H374 H 0.33038 0.95363 0.37084 0.0
H375 H 0.42095 0.9315 0.41736 0.0
H376 H 0.4138 0.9038 0.38182 0.0
H377 H 0.40048 0.91832 0.45483 0.0
H378 H 0.36833 0.88268 0.4768 0.0
H379 H 0.33019 0.98788 0.45666 0.0
H380 H 0.29817 0.95249 0.47868 0.0
H381 H 0.37827 0.03466 0.43819 0.0
H382 H 0.43981 0.95784 0.44701 0.0
H383 H 0.41993 0.07144 0.44264 0.0
H384 H 0.48218 0.99398 0.44914 0.0
H385 H 0.56966 0.16859 0.41 0.0
H386 H 0.5894 0.17041 0.37129 0.0
H387 H 0.58533 0.07006 0.3677 0.0
H388 H 0.56565 0.0682 0.40636 0.0
H389 H 0.60071 0.07344 0.43796 0.0
H390 H 0.64859 0.07901 0.45824 0.0
H391 H 0.61886 0.16744 0.48469 0.0
H392 H 0.57083 0.16208 0.46409 0.0
H393 H 0.50171 0.12472 0.41737 0.0
H394 H 0.4588 0.08986 0.421 0.0
H395 H 0.51002 0.03224 0.46708 0.0
N396 N 0.55673 0.11824 0.43429 0.0
H397 H 0.55344 0.06592 0.46215 0.0
C398 C 0.38012 0.95934 0.41433 0.0
C399 C 0.35491 0.96554 0.40077 0.0
C400 C 0.35053 0.94923 0.38071 0.0
C401 C 0.3715 0.92659 0.37386 0.0
C402 C 0.39743 0.92123 0.3869 0.0
C403 C 0.40158 0.93725 0.40713 0.0
C404 C 0.36745 0.95564 0.45406 0.0
C405 C 0.37866 0.92634 0.46067 0.0
C406 C 0.36036 0.90603 0.47315 0.0
C407 C 0.33087 0.915 0.47906 0.0
C408 C 0.32088 0.94527 0.47421 0.0
C409 C 0.3391 0.96544 0.46178 0.0
C410 C 0.40609 0.99368 0.44154 0.0
C411 C 0.40091 0.02582 0.441 0.0
C412 C 0.42487 0.04673 0.44326 0.0
C413 C 0.45476 0.03583 0.44555 0.0
C414 C 0.4596 0.00343 0.44738 0.0
C415 C 0.43539 0.98255 0.44574 0.0
C416 C 0.56614 0.11842 0.41101 0.0
C417 C 0.57274 0.14706 0.40076 0.0
C418 C 0.58398 0.14807 0.37881 0.0
C419 C 0.58881 0.12036 0.36682 0.0
C420 C 0.58171 0.09163 0.3768 0.0
C421 C 0.57051 0.09061 0.39879 0.0
C422 C 0.58219 0.11756 0.44946 0.0
C423 C 0.60411 0.09373 0.44845 0.0
C424 C 0.63137 0.09681 0.46006 0.0
C425 C 0.63707 0.12362 0.47283 0.0
C426 C 0.61462 0.14652 0.47497 0.0
C427 C 0.58734 0.14346 0.46331 0.0
C428 C 0.5312 0.09805 0.439 0.0
C429 C 0.50367 0.10457 0.42829 0.0
C430 C 0.47896 0.08468 0.43062 0.0
C431 C 0.48073 0.058 0.44437 0.0
C432 C 0.50792 0.05211 0.45594 0.0
C433 C 0.53296 0.07171 0.45317 0.0
H434 H 0.06443 0.86237 0.67909 0.0
N435 N 0.08227 0.9182 0.69761 0.0
H436 H 0.07631 0.84351 0.64142 0.0
H437 H 0.11022 0.94906 0.66466 0.0
H438 H 0.12188 0.92995 0.62647 0.0
H439 H 0.13871 0.91057 0.71152 0.0
H440 H 0.15943 0.86405 0.73001 0.0
H441 H 0.04842 0.87441 0.72086 0.0
H442 H 0.06918 0.82816 0.73894 0.0
H443 H 0.02463 0.89689 0.68913 0.0
H444 H 0.07569 0.97548 0.71373 0.0
H445 H 0.97829 0.92705 0.69155 0.0
H446 H 0.02921 0.00646 0.71543 0.0
H447 H 0.84335 0.05006 0.67178 0.0
H448 H 0.8324 0.07303 0.63469 0.0
H449 H 0.92678 0.09573 0.62653 0.0
H450 H 0.93783 0.07256 0.6633 0.0
H451 H 0.93807 0.09668 0.69882 0.0
H452 H 0.92844 0.14778 0.71571 0.0
H453 H 0.8397 0.11724 0.7362 0.0
H454 H 0.84915 0.06597 0.71898 0.0
H455 H 0.91308 0.00213 0.6668 0.0
H456 H 0.95692 0.96871 0.67051 0.0
H457 H 0.98009 0.01393 0.73309 0.0
N458 N 0.89614 0.05003 0.69347 0.0
H459 H 0.93661 0.04796 0.72927 0.0
C460 C 0.08666 0.90728 0.67483 0.0
C461 C 0.07672 0.87758 0.66783 0.0
C462 C 0.08344 0.86672 0.64629 0.0
C463 C 0.09992 0.88538 0.63133 0.0
C464 C 0.10904 0.91535 0.6379 0.0
C465 C 0.10245 0.92619 0.65956 0.0
C466 C 0.09212 0.89603 0.7144 0.0
C467 C 0.12332 0.89334 0.71834 0.0
C468 C 0.13513 0.86683 0.72879 0.0
C469 C 0.11576 0.84267 0.7355 0.0
C470 C 0.08439 0.84665 0.73378 0.0
C471 C 0.07256 0.8732 0.72337 0.0
C472 C 0.05386 0.93396 0.70132 0.0
C473 C 0.02594 0.92053 0.69533 0.0
C474 C 0.99934 0.93797 0.69652 0.0
C475 C 3e-05 0.96933 0.70342 0.0
C476 C 0.02778 0.9823 0.71025 0.0
C477 C 0.05438 0.96471 0.70922 0.0
C478 C 0.89126 0.05957 0.67037 0.0
C479 C 0.86173 0.05939 0.66177 0.0
C480 C 0.8555 0.07252 0.64075 0.0
C481 C 0.87882 0.08608 0.62806 0.0
C482 C 0.90857 0.08532 0.63616 0.0
C483 C 0.9148 0.07218 0.65715 0.0
C484 C 0.89419 0.07739 0.70762 0.0
C485 C 0.91679 0.10062 0.70734 0.0
C486 C 0.91136 0.12975 0.71699 0.0
C487 C 0.88337 0.13611 0.72705 0.0
C488 C 0.86148 0.11254 0.72855 0.0
C489 C 0.86691 0.08338 0.71887 0.0
C490 C 0.92229 0.02973 0.69666 0.0
C491 C 0.92781 0.00552 0.68115 0.0
C492 C 0.95274 0.98589 0.68349 0.0
C493 C 0.97241 0.98901 0.7019 0.0
C494 C 0.96593 0.01161 0.71832 0.0
C495 C 0.94096 0.03139 0.71595 0.0
C496 C 0.26098 0.65006 0.01264 0.0
O497 O 0.27418 0.64007 0.03108 0.0
O498 O 0.33653 0.65751 0.03046 0.0
Zn499 Zn 0.31929 0.6788 0.00299 0.0
O500 O 0.34157 0.66617 0.97495 0.0
C501 C 0.34696 0.73926 -0.00036 0.0
O502 O 0.36689 0.7238 0.98765 0.0
O503 O 0.27552 0.66718 0.9989 0.0
C504 C 0.35501 0.64021 0.97263 0.0
O505 O 0.35476 0.61973 0.98906 0.0
C506 C 0.36396 0.66179 0.03603 0.0
O507 O 0.3817 0.67854 0.02307 0.0
O508 O 0.32381 0.72524 0.00736 0.0
C509 C 0.26466 0.8548 0.24539 0.0
O510 O 0.27544 0.87022 0.22806 0.0
O511 O 0.33783 0.85588 0.22273 0.0
Zn512 Zn 0.32677 0.83399 0.25138 0.0
O513 O 0.34796 0.85487 0.27726 0.0
C514 C 0.33825 0.76858 0.26368 0.0
O515 O 0.32538 0.77481 0.28309 0.0
O516 O 0.28195 0.8372 0.25682 0.0
C517 C 0.33529 0.85447 0.29646 0.0
O518 O 0.30999 0.83887 0.2992 0.0
C519 C 0.36528 0.85655 0.21648 0.0
O520 O 0.38617 0.84362 0.22913 0.0
O521 O 0.34019 0.7895 0.24861 0.0
C522 C 0.22543 0.84863 0.50615 0.0
O523 O 0.2036 0.86933 0.50733 0.0
O524 O 0.15921 0.83489 0.53806 0.0
Zn525 Zn 0.17484 0.81092 0.51141 0.0
O526 O 0.15496 0.82402 0.48238 0.0
C527 C 0.16667 0.74489 0.50173 0.0
O528 O 0.17216 0.75275 0.48075 0.0
O529 O 0.21917 0.81988 0.50825 0.0
C530 C 0.13565 0.84583 0.48073 0.0
O531 O 0.1268 0.86079 0.49884 0.0
C532 C 0.1334 0.82927 0.54654 0.0
O533 O 0.11573 0.80828 0.53726 0.0
O534 O 0.16741 0.76546 0.5171 0.0
C535 C 0.24759 0.65934 0.7571 0.0
O536 O 0.23978 0.6703 0.73729 0.0
O537 O 0.17495 0.6391 0.73522 0.0
Zn538 Zn 0.18333 0.65971 0.76516 0.0
O539 O 0.15992 0.63993 0.79072 0.0
C540 C 0.15212 0.71605 0.75257 0.0
O541 O 0.13397 0.69615 0.74263 0.0
O542 O 0.22739 0.65365 0.77176 0.0
C543 C 0.13415 0.64928 0.79737 0.0
O544 O 0.12067 0.67245 0.78703 0.0
C545 C 0.15004 0.62628 0.72995 0.0
O546 O 0.12777 0.62558 0.74457 0.0
O547 O 0.17495 0.7061 0.76338 0.0
C548 C 0.75816 0.14494 0.50587 0.0
O549 O 0.77389 0.12172 0.51427 0.0
O550 O 0.82478 0.15309 0.5386 0.0
Zn551 Zn 0.8141 0.17793 0.51105 0.0
O552 O 0.83904 0.16429 0.48459 0.0
C553 C 0.84584 0.23656 0.51087 0.0
O554 O 0.86634 0.22059 0.49979 0.0
O555 O 0.77044 0.1715 0.50337 0.0
C556 C 0.84681 0.13614 0.48145 0.0
O557 O 0.83871 0.11446 0.49585 0.0
C558 C 0.85173 0.15268 0.54596 0.0
O559 O 0.87295 0.16837 0.53541 0.0
O560 O 0.82156 0.22336 0.51723 0.0
C561 C 0.76665 0.34236 0.74209 0.0
O562 O 0.77802 0.34537 0.72178 0.0
O563 O 0.84469 0.34761 0.72933 0.0
Zn564 Zn 0.82726 0.32193 0.75476 0.0
O565 O 0.84626 0.33109 0.7849 0.0
C566 C 0.85816 0.26359 0.75233 0.0
O567 O 0.87962 0.27985 0.7621 0.0
O568 O 0.78304 0.33177 0.75791 0.0
C569 C 0.86968 0.34756 0.78831 0.0
O570 O 0.88414 0.35999 0.77124 0.0
C571 C 0.8445 0.37724 0.72871 0.0
O572 O 0.83421 0.39317 0.74596 0.0
O573 O 0.83311 0.27655 0.74756 0.0
C574 C 0.73409 0.34114 0.01101 0.0
O575 O 0.72617 0.33111 0.03106 0.0
O576 O 0.65275 0.34987 0.02717 0.0
Zn577 Zn 0.67068 0.3316 0.99891 0.0
O578 O 0.64892 0.34649 0.97114 0.0
C579 C 0.64162 0.27219 0.00243 0.0
O580 O 0.61733 0.28918 0.99903 0.0
O581 O 0.71442 0.34329 0.9955 0.0
C582 C 0.647 0.32898 0.95395 0.0
O583 O 0.65826 0.30066 0.95474 0.0
C584 C 0.62611 0.36097 0.02794 0.0
O585 O 0.60981 0.36259 0.00952 0.0
O586 O 0.66752 0.28502 0.00212 0.0
C587 C 0.74912 0.13897 0.2595 0.0
O588 O 0.73438 0.11568 0.25026 0.0
O589 O 0.68467 0.14323 0.22572 0.0
Zn590 Zn 0.69224 0.16934 0.25374 0.0
O591 O 0.66792 0.15475 0.2804 0.0
C592 C 0.65515 0.22384 0.24999 0.0
O593 O 0.63454 0.20406 0.25702 0.0
O594 O 0.73595 0.165 0.26239 0.0
C595 C 0.64444 0.1377 0.27988 0.0
O596 O 0.63409 0.12736 0.26057 0.0
C597 C 0.66399 0.14951 0.21158 0.0
O598 O 0.64616 0.1735 0.21499 0.0
O599 O 0.68238 0.21473 0.24793 0.0
C600 C 0.20277 0.87922 0.28574 0.0
C601 C 0.17663 0.87538 0.27219 0.0
C602 C 0.20803 0.85555 0.24132 0.0
C603 C 0.23425 0.86231 0.25419 0.0
N604 N 0.25675 0.88783 0.28633 0.0
N605 N 0.15417 0.86401 0.23616 0.0
C606 C 0.2317 0.87614 0.27579 0.0
C607 C 0.17916 0.86465 0.24968 0.0
N608 N 0.19998 0.88503 0.30828 0.0
N609 N 0.21065 0.8396 0.2215 0.0
H610 H 0.13267 0.87026 0.24184 0.0
H611 H 0.15507 0.8596 0.21894 0.0
H612 H 0.23147 0.83272 0.21487 0.0
H613 H 0.1922 0.83109 0.21252 0.0
H614 H 0.21827 0.88475 0.31933 0.0
H615 H 0.17913 0.88712 0.31638 0.0
H616 H 0.25572 0.9009 0.30109 0.0
H617 H 0.27825 0.88747 0.27911 0.0
C618 C 0.12751 0.66576 0.50535 0.0
C619 C 0.14226 0.65319 0.5245 0.0
C620 C 0.17733 0.69739 0.52473 0.0
C621 C 0.15975 0.71217 0.50786 0.0
N622 N 0.11557 0.71219 0.4839 0.0
N623 N 0.17854 0.65914 0.55463 0.0
C624 C 0.1343 0.69674 0.49842 0.0
C625 C 0.16661 0.66945 0.53473 0.0
N626 N 0.10725 0.64795 0.49366 0.0
N627 N 0.20466 0.70968 0.53082 0.0
H628 H 0.17117 0.63898 0.56278 0.0
H629 H 0.19392 0.67205 0.56408 0.0
H630 H 0.2136 0.72975 0.52343 0.0
H631 H 0.21981 0.69825 0.54142 0.0
H632 H 0.09802 0.65468 0.47828 0.0
H633 H 0.10182 0.62516 0.49832 0.0
H634 H 0.09488 0.70328 0.47852 0.0
H635 H 0.11931 0.73507 0.47867 0.0
C636 C 0.32105 0.65884 0.78986 0.0
C637 C 0.33907 0.63879 0.77639 0.0
C638 C 0.29714 0.63226 0.74987 0.0
C639 C 0.27978 0.65381 0.76265 0.0
N640 N 0.27768 0.69322 0.79156 0.0
N641 N 0.34688 0.61132 0.74152 0.0
C642 C 0.2925 0.66881 0.78168 0.0
C643 C 0.32792 0.62707 0.7557 0.0
N644 N 0.33059 0.66731 0.81089 0.0
N645 N 0.28384 0.61546 0.73301 0.0
H646 H 0.36952 0.607 0.74538 0.0
H647 H 0.34097 0.60498 0.72518 0.0
H648 H 0.26123 0.61812 0.72841 0.0
H649 H 0.29445 0.59699 0.72482 0.0
H650 H 0.31684 0.67888 0.82242 0.0
H651 H 0.35135 0.66053 0.81762 0.0
H652 H 0.28728 0.7071 0.80404 0.0
H653 H 0.25698 0.70165 0.78571 0.0
C654 C 0.37087 0.8089 0.03497 0.0
C655 C 0.37127 0.83272 0.01835 0.0
C656 C 0.35423 0.79562 0.98963 0.0
C657 C 0.35354 0.77183 0.00629 0.0
N658 N 0.35842 0.75564 0.04506 0.0
N659 N 0.35977 0.85082 0.981 0.0
C660 C 0.36083 0.7785 0.02908 0.0
C661 C 0.36185 0.82668 0.99598 0.0
N662 N 0.38119 0.81521 0.05624 0.0
N663 N 0.34798 0.7883 0.96771 0.0
H664 H 0.36583 0.87365 0.98508 0.0
H665 H 0.35035 0.84891 0.96502 0.0
H666 H 0.3405 0.7663 0.9627 0.0
H667 H 0.35132 0.80344 0.95425 0.0
H668 H 0.38523 0.79833 0.06844 0.0
H669 H 0.38728 0.83749 0.06162 0.0
H670 H 0.35948 0.75963 0.06231 0.0
H671 H 0.35394 0.73243 0.04123 0.0
C672 C 0.19664 0.61528 0.97868 0.0
C673 C 0.17211 0.61844 0.99392 0.0
C674 C 0.2054 0.64457 0.02099 0.0
C675 C 0.23041 0.63872 0.00658 0.0
N676 N 0.2509 0.61202 0.97418 0.0
N677 N 0.15356 0.63172 0.03083 0.0
C678 C 0.22635 0.62227 0.98609 0.0
C679 C 0.1766 0.63183 0.01548 0.0
N680 N 0.19149 0.60652 0.95688 0.0
N681 N 0.20886 0.66334 0.0394 0.0
H682 H 0.13214 0.62281 0.02724 0.0
H683 H 0.15633 0.63811 0.04761 0.0
H684 H 0.2295 0.67338 0.04383 0.0
H685 H 0.19083 0.67114 0.04918 0.0
H686 H 0.20812 0.60718 0.94445 0.0
H687 H 0.17002 0.60138 0.95062 0.0
H688 H 0.24922 0.59719 0.96036 0.0
H689 H 0.27313 0.61555 0.97946 0.0
C690 C 0.39006 0.69775 0.2632 0.0
C691 C 0.38174 0.68493 0.24212 0.0
C692 C 0.33878 0.72081 0.23997 0.0
C693 C 0.3504 0.7372 0.25877 0.0
N694 N 0.38777 0.74239 0.28816 0.0
N695 N 0.34911 0.68491 0.20951 0.0
C696 C 0.3759 0.72567 0.27068 0.0
C697 C 0.35603 0.69628 0.23039 0.0
N698 N 0.41159 0.6832 0.27592 0.0
N699 N 0.31107 0.72863 0.23145 0.0
H700 H 0.36088 0.66664 0.20194 0.0
H701 H 0.33298 0.69496 0.19899 0.0
H702 H 0.29777 0.74631 0.23837 0.0
H703 H 0.30002 0.71571 0.2191 0.0
H704 H 0.41679 0.68965 0.29237 0.0
H705 H 0.42232 0.66276 0.2707 0.0
H706 H 0.40837 0.73713 0.29574 0.0
H707 H 0.37803 0.76286 0.29423 0.0
C708 C 0.30003 0.89204 0.51027 0.0
C709 C 0.30854 0.89186 0.48729 0.0
C710 C 0.26781 0.85491 0.47872 0.0
C711 C 0.25644 0.85915 0.50083 0.0
N712 N 0.26141 0.88043 0.53815 0.0
N713 N 0.30054 0.87434 0.44913 0.0
C714 C 0.27269 0.87708 0.51685 0.0
C715 C 0.29282 0.87311 0.47143 0.0
N716 N 0.31825 0.90648 0.52565 0.0
N717 N 0.25435 0.83395 0.46456 0.0
H718 H 0.31907 0.88682 0.44308 0.0
H719 H 0.28758 0.86458 0.43632 0.0
H720 H 0.23515 0.8212 0.46888 0.0
H721 H 0.26353 0.82727 0.44916 0.0
H722 H 0.31486 0.90547 0.54297 0.0
H723 H 0.33839 0.91754 0.52111 0.0
H724 H 0.27004 0.89599 0.54995 0.0
H725 H 0.24243 0.86827 0.54383 0.0
C726 C 0.12937 0.80051 0.76316 0.0
C727 C 0.12821 0.81138 0.74063 0.0
C728 C 0.15008 0.76228 0.72737 0.0
C729 C 0.14718 0.74983 0.74932 0.0
N730 N 0.13305 0.75597 0.78827 0.0
N731 N 0.13379 0.80149 0.70076 0.0
C732 C 0.13685 0.76873 0.76737 0.0
C733 C 0.13773 0.79203 0.72257 0.0
N734 N 0.12368 0.82071 0.78044 0.0
N735 N 0.16548 0.74596 0.71126 0.0
H736 H 0.12482 0.82314 0.69634 0.0
H737 H 0.13704 0.78686 0.68698 0.0
H738 H 0.17581 0.72457 0.71455 0.0
H739 H 0.17085 0.75505 0.6955 0.0
H740 H 0.12699 0.81517 0.79732 0.0
H741 H 0.11784 0.844 0.77778 0.0
H742 H 0.12231 0.76738 0.80151 0.0
H743 H 0.13918 0.73309 0.79208 0.0
C744 C 0.68171 0.35844 0.73949 0.0
C745 C 0.67776 0.37534 0.7598 0.0
C746 C 0.73247 0.37528 0.76579 0.0
C747 C 0.73607 0.35461 0.74733 0.0
N748 N 0.71327 0.32252 0.71854 0.0
N749 N 0.69892 0.39371 0.79493 0.0
C750 C 0.71048 0.34519 0.73457 0.0
C751 C 0.703 0.38208 0.77372 0.0
N752 N 0.65818 0.35555 0.72474 0.0
N753 N 0.75706 0.3895 0.77524 0.0
H754 H 0.67766 0.39809 0.80186 0.0
H755 H 0.71651 0.39592 0.80649 0.0
H756 H 0.77902 0.38656 0.76921 0.0
H757 H 0.75524 0.40698 0.78735 0.0
H758 H 0.66056 0.34618 0.70866 0.0
H759 H 0.63688 0.36514 0.72779 0.0
H760 H 0.6948 0.31251 0.7104 0.0
H761 H 0.73372 0.31158 0.71484 0.0
C762 C 0.61725 0.18715 0.00063 0.0
C763 C 0.62923 0.17625 0.02131 0.0
C764 C 0.64905 0.22828 0.02979 0.0
C765 C 0.63854 0.23886 0.00851 0.0
N766 N 0.61742 0.22751 0.972 0.0
N767 N 0.66061 0.18438 0.054 0.0
C768 C 0.62392 0.21805 0.99344 0.0
C769 C 0.6465 0.19619 0.03536 0.0
N770 N 0.59896 0.16815 0.98813 0.0
N771 N 0.65985 0.24914 0.04525 0.0
H772 H 0.65835 0.16126 0.05921 0.0
H773 H 0.67644 0.19679 0.06338 0.0
H774 H 0.66213 0.27292 0.04207 0.0
H775 H 0.66423 0.24344 0.06197 0.0
H776 H 0.58659 0.1758 0.97428 0.0
H777 H 0.59457 0.14501 0.99247 0.0
H778 H 0.60965 0.21257 0.95946 0.0
H779 H 0.62223 0.24987 0.96608 0.0
C780 C 0.81502 0.13188 0.3002 0.0
C781 C 0.83843 0.12246 0.28533 0.0
C782 C 0.80404 0.12741 0.25319 0.0
C783 C 0.78 0.13398 0.2683 0.0
N784 N 0.76112 0.13734 0.30636 0.0
N785 N 0.85512 0.10774 0.24823 0.0
C786 C 0.78508 0.13499 0.29187 0.0
C787 C 0.83294 0.11928 0.26194 0.0
N788 N 0.82153 0.13835 0.32222 0.0
N789 N 0.79946 0.12995 0.2305 0.0
H790 H 0.87676 0.10227 0.25402 0.0
H791 H 0.85155 0.10154 0.2315 0.0
H792 H 0.77859 0.1359 0.22352 0.0
H793 H 0.81677 0.12867 0.21865 0.0
H794 H 0.80618 0.14866 0.33323 0.0
H795 H 0.8431 0.13581 0.32909 0.0
H796 H 0.76306 0.13459 0.32372 0.0
H797 H 0.73875 0.13929 0.30099 0.0
C798 C 0.86613 0.30712 0.54644 0.0
C799 C 0.86558 0.331 0.52987 0.0
C800 C 0.85247 0.29289 0.50072 0.0
C801 C 0.85206 0.26917 0.51742 0.0
N802 N 0.85567 0.25328 0.55631 0.0
N803 N 0.8548 0.34833 0.49219 0.0
C804 C 0.85792 0.27621 0.54036 0.0
C805 C 0.85775 0.32437 0.50724 0.0
N806 N 0.87551 0.31391 0.56785 0.0
N807 N 0.84815 0.28517 0.47861 0.0
H808 H 0.85914 0.37152 0.49639 0.0
H809 H 0.84622 0.34576 0.476 0.0
H810 H 0.8426 0.26268 0.47335 0.0
H811 H 0.85149 0.3005 0.46527 0.0
H812 H 0.88011 0.29717 0.58006 0.0
H813 H 0.88042 0.33647 0.5733 0.0
H814 H 0.8558 0.25741 0.57356 0.0
H815 H 0.85213 0.22988 0.55239 0.0
C816 C 0.67493 0.12223 0.50432 0.0
C817 C 0.66786 0.12942 0.48164 0.0
C818 C 0.72047 0.14427 0.47449 0.0
C819 C 0.72705 0.1396 0.49763 0.0
N820 N 0.70992 0.12879 0.5354 0.0
N821 N 0.68214 0.1519 0.44592 0.0
C822 C 0.70413 0.12973 0.51281 0.0
C823 C 0.69013 0.14182 0.46695 0.0
N824 N 0.65393 0.10769 0.51757 0.0
N825 N 0.7434 0.14959 0.45949 0.0
H826 H 0.66024 0.14997 0.43953 0.0
H827 H 0.69659 0.16449 0.43546 0.0
H828 H 0.76603 0.15138 0.46421 0.0
H829 H 0.74041 0.14947 0.4421 0.0
H830 H 0.65873 0.09869 0.53345 0.0
H831 H 0.63211 0.10255 0.51201 0.0
H832 H 0.69333 0.12497 0.54754 0.0
H833 H 0.73094 0.13442 0.54226 0.0
C834 C 0.8787 0.17763 0.75666 0.0
C835 C 0.8759 0.16844 0.73385 0.0
C836 C 0.86311 0.22196 0.723 0.0
C837 C 0.8637 0.23072 0.74602 0.0
N838 N 0.86698 0.21622 0.78519 0.0
N839 N 0.86044 0.17998 0.69578 0.0
C840 C 0.87015 0.20837 0.76301 0.0
C841 C 0.86655 0.19006 0.71715 0.0
N842 N 0.89021 0.1572 0.77212 0.0
N843 N 0.8608 0.24429 0.70663 0.0
H844 H 0.86315 0.15686 0.6907 0.0
H845 H 0.85031 0.19393 0.68357 0.0
H846 H 0.85876 0.26802 0.71014 0.0
H847 H 0.86366 0.23969 0.68955 0.0
H848 H 0.89603 0.16354 0.78847 0.0
H849 H 0.89605 0.13429 0.76811 0.0
H850 H 0.86826 0.20015 0.7983 0.0
H851 H 0.86043 0.23841 0.79048 0.0
C852 C 0.80866 0.33987 0.97963 0.0
C853 C 0.82559 0.36235 0.99181 0.0
C854 C 0.78239 0.37122 0.01693 0.0
C855 C 0.76625 0.34728 0.0056 0.0
N856 N 0.76664 0.30372 0.9799 0.0
N857 N 0.83102 0.39553 0.02426 0.0
C858 C 0.78018 0.33009 0.98804 0.0
C859 C 0.81319 0.37684 0.01119 0.0
N860 N 0.81922 0.32874 0.95953 0.0
N861 N 0.76793 0.38957 0.03236 0.0
H862 H 0.85358 0.40029 0.02039 0.0
H863 H 0.82428 0.4042 0.03985 0.0
H864 H 0.74538 0.38629 0.03695 0.0
H865 H 0.77749 0.40955 0.03933 0.0
H866 H 0.80624 0.31509 0.94871 0.0
H867 H 0.83995 0.33534 0.95263 0.0
H868 H 0.7772 0.28847 0.96874 0.0
H869 H 0.7461 0.29528 0.98605 0.0
C870 C 0.63223 0.29313 0.21409 0.0
C871 C 0.61516 0.31037 0.23005 0.0
C872 C 0.63031 0.27443 0.26007 0.0
C873 C 0.64582 0.256 0.24385 0.0
N874 N 0.66722 0.25093 0.20653 0.0
N875 N 0.60221 0.3219 0.26844 0.0
C876 C 0.64883 0.26651 0.22124 0.0
C877 C 0.61571 0.30247 0.25319 0.0
N878 N 0.63125 0.30146 0.19184 0.0
N879 N 0.62926 0.26465 0.28199 0.0
H880 H 0.59109 0.34234 0.26372 0.0
H881 H 0.60345 0.31912 0.2858 0.0
H882 H 0.64187 0.24578 0.28791 0.0
H883 H 0.61569 0.27464 0.29433 0.0
H884 H 0.63946 0.28773 0.17878 0.0
H885 H 0.62084 0.32182 0.18614 0.0
H886 H 0.67309 0.25929 0.19068 0.0
H887 H 0.67861 0.23048 0.21052 0.0
C888 C 0.10587 0.83969 0.42088 0.0
C889 C 0.10468 0.87159 0.41455 0.0
C890 C 0.1257 0.8865 0.45112 0.0
C891 C 0.12404 0.85492 0.45826 0.0
N892 N 0.10593 0.80258 0.45159 0.0
N893 N 0.10686 0.92576 0.42544 0.0
C894 C 0.11219 0.83179 0.44362 0.0
C895 C 0.11254 0.89514 0.43024 0.0
N896 N 0.1022 0.81687 0.40506 0.0
N897 N 0.14132 0.90795 0.46355 0.0
H898 H 0.09674 0.933 0.41046 0.0
H899 H 0.10938 0.94358 0.43721 0.0
H900 H 0.15258 0.90245 0.47843 0.0
H901 H 0.14581 0.93047 0.45786 0.0
H902 H 0.10607 0.79334 0.40835 0.0
H903 H 0.09808 0.82162 0.38812 0.0
H904 H 0.09455 0.78577 0.44218 0.0
H905 H 0.10922 0.79615 0.46834 0.0
C906 C 0.14746 0.61836 0.66608 0.0
C907 C 0.13573 0.58777 0.66392 0.0
C908 C 0.13755 0.58099 0.70486 0.0
C909 C 0.14592 0.61281 0.70717 0.0
N910 N 0.15456 0.66322 0.6901 0.0
N911 N 0.11652 0.54069 0.68087 0.0
C912 C 0.14998 0.63186 0.68781 0.0
C913 C 0.12993 0.56923 0.68321 0.0
N914 N 0.15645 0.63441 0.64733 0.0
N915 N 0.13813 0.56169 0.72319 0.0
H916 H 0.11155 0.53089 0.66523 0.0
H917 H 0.10843 0.52765 0.69438 0.0
H918 H 0.14425 0.56927 0.73924 0.0
H919 H 0.13531 0.53763 0.72219 0.0
H920 H 0.16836 0.65535 0.64797 0.0
H921 H 0.1543 0.62554 0.63105 0.0
H922 H 0.15415 0.67884 0.67668 0.0
H923 H 0.15609 0.67421 0.70565 0.0
C924 C 0.36743 0.62806 0.91005 0.0
C925 C 0.39906 0.62256 0.90946 0.0
C926 C 0.4021 0.62971 0.95032 0.0
C927 C 0.37017 0.63298 0.95108 0.0
N928 N 0.32173 0.62971 0.93256 0.0
N929 N 0.44606 0.61335 0.92889 0.0
C930 C 0.35261 0.63062 0.93118 0.0
C931 C 0.41629 0.62193 0.92959 0.0
N932 N 0.3517 0.63167 0.89039 0.0
N933 N 0.41896 0.63546 0.96916 0.0
H934 H 0.45731 0.60808 0.91392 0.0
H935 H 0.459 0.60911 0.94321 0.0
H936 H 0.40939 0.64145 0.98461 0.0
H937 H 0.44247 0.63683 0.96911 0.0
H938 H 0.32935 0.63925 0.88972 0.0
H939 H 0.36166 0.62946 0.87455 0.0
H940 H 0.30776 0.62462 0.91894 0.0
H941 H 0.31004 0.63128 0.94777 0.0
C942 C 0.36556 0.87338 0.15368 0.0
C943 C 0.38918 0.89567 0.15224 0.0
C944 C 0.3947 0.89495 0.19327 0.0
C945 C 0.37341 0.87021 0.19442 0.0
N946 N 0.34286 0.83171 0.17533 0.0
N947 N 0.4294 0.92461 0.16999 0.0
C948 C 0.35989 0.85832 0.17453 0.0
C949 C 0.40465 0.90566 0.17186 0.0
N950 N 0.3481 0.8671 0.13524 0.0
N951 N 0.40451 0.90901 0.21258 0.0
H952 H 0.4372 0.93314 0.1546 0.0
H953 H 0.44361 0.92985 0.18344 0.0
H954 H 0.39736 0.90216 0.22857 0.0
H955 H 0.41754 0.92925 0.2127 0.0
H956 H 0.32854 0.85359 0.13592 0.0
H957 H 0.35152 0.87771 0.11964 0.0
H958 H 0.3352 0.82015 0.161 0.0
H959 H 0.33883 0.81933 0.19014 0.0
C960 C 0.11219 0.64562 0.85911 0.0
C961 C 0.09966 0.61518 0.86035 0.0
C962 C 0.10739 0.60808 0.81976 0.0
C963 C 0.12184 0.63759 0.81889 0.0
N964 N 0.14192 0.68286 0.83777 0.0
N965 N 0.08742 0.56608 0.84287 0.0
C966 C 0.12517 0.65603 0.83856 0.0
C967 C 0.09782 0.59601 0.84093 0.0
N968 N 0.11144 0.66466 0.87758 0.0
N969 N 0.10212 0.59208 0.80025 0.0
H970 H 0.07902 0.55695 0.85791 0.0
H971 H 0.08866 0.54964 0.83003 0.0
H972 H 0.10929 0.60009 0.78455 0.0
H973 H 0.08893 0.57203 0.79928 0.0
H974 H 0.11678 0.68829 0.8771 0.0
H975 H 0.10349 0.65744 0.89327 0.0
H976 H 0.14822 0.69552 0.85195 0.0
H977 H 0.15167 0.69141 0.82301 0.0
C978 C 0.40826 0.61519 0.07954 0.0
C979 C 0.40127 0.63223 0.09933 0.0
C980 C 0.3659 0.66494 0.07808 0.0
C981 C 0.37539 0.6502 0.05789 0.0
N982 N 0.40738 0.61316 0.03874 0.0
N983 N 0.37756 0.67662 0.117 0.0
C984 C 0.39717 0.62589 0.05842 0.0
C985 C 0.3811 0.65794 0.09852 0.0
N986 N 0.42461 0.5882 0.08106 0.0
N987 N 0.34232 0.68557 0.07782 0.0
H988 H 0.38859 0.6726 0.13224 0.0
H989 H 0.36592 0.69772 0.11668 0.0
H990 H 0.33096 0.69205 0.06319 0.0
H991 H 0.33226 0.69431 0.09237 0.0
H992 H 0.4278 0.57295 0.06764 0.0
H993 H 0.43298 0.57962 0.09626 0.0
H994 H 0.42581 0.5981 0.0378 0.0
H995 H 0.39849 0.61906 0.02306 0.0
C996 C 0.3577 0.87541 0.35602 0.0
C997 C 0.36526 0.90742 0.35361 0.0
C998 C 0.35326 0.90497 0.31343 0.0
C999 C 0.34794 0.87241 0.31553 0.0
N1000 N 0.35259 0.82538 0.33757 0.0
N1001 N 0.37703 0.95084 0.32935 0.0
C1002 C 0.35247 0.85723 0.33646 0.0
C1003 C 0.36524 0.92161 0.33206 0.0
N1004 N 0.35407 0.86267 0.37695 0.0
N1005 N 0.34518 0.92047 0.29423 0.0
H1006 H 0.38617 0.96362 0.34265 0.0
H1007 H 0.38038 0.9611 0.31364 0.0
H1008 H 0.33534 0.90958 0.28038 0.0
H1009 H 0.34555 0.94469 0.29285 0.0
H1010 H 0.34536 0.84038 0.37957 0.0
H1011 H 0.35707 0.87525 0.39179 0.0
H1012 H 0.3587 0.81308 0.352 0.0
H1013 H 0.34974 0.81125 0.32344 0.0
C1014 C 0.13601 0.85471 0.60773 0.0
C1015 C 0.10905 0.87248 0.60924 0.0
C1016 C 0.09903 0.86386 0.56914 0.0
C1017 C 0.12472 0.84403 0.56809 0.0
N1018 N 0.16446 0.81582 0.58713 0.0
N1019 N 0.06289 0.89145 0.5926 0.0
C1020 C 0.14246 0.83826 0.58757 0.0
C1021 C 0.08997 0.87638 0.59026 0.0
N1022 N 0.15561 0.85383 0.62553 0.0
N1023 N 0.08394 0.87154 0.54983 0.0
H1024 H 0.05604 0.90186 0.60763 0.0
H1025 H 0.04633 0.89195 0.58015 0.0
H1026 H 0.08962 0.86246 0.53412 0.0
H1027 H 0.06723 0.88861 0.54903 0.0
H1028 H 0.17723 0.84428 0.62458 0.0
H1029 H 0.15128 0.86487 0.64084 0.0
H1030 H 0.17586 0.80811 0.60142 0.0
H1031 H 0.16948 0.80266 0.57285 0.0
C1032 C 0.63639 0.34687 0.89178 0.0
C1033 C 0.60968 0.36518 0.89228 0.0
C1034 C 0.605 0.3556 0.93279 0.0
C1035 C 0.63388 0.34109 0.93272 0.0
N1036 N 0.68012 0.32946 0.91259 0.0
N1037 N 0.57114 0.3915 0.91392 0.0
C1038 C 0.65044 0.33841 0.91233 0.0
C1039 C 0.59463 0.37083 0.91298 0.0
N1040 N 0.64799 0.33688 0.87171 0.0
N1041 N 0.58692 0.35379 0.95141 0.0
H1042 H 0.56312 0.40341 0.89983 0.0
H1043 H 0.56147 0.39891 0.92899 0.0
H1044 H 0.59316 0.34173 0.96593 0.0
H1045 H 0.56454 0.36139 0.9516 0.0
H1046 H 0.66572 0.32094 0.87059 0.0
H1047 H 0.63794 0.34191 0.85624 0.0
H1048 H 0.69391 0.33019 0.89837 0.0
H1049 H 0.69198 0.32469 0.92736 0.0
C1050 C 0.65708 0.13391 0.14909 0.0
C1051 C 0.64935 0.10181 0.14904 0.0
C1052 C 0.65355 0.09993 0.19017 0.0
C1053 C 0.6617 0.13198 0.19017 0.0
N1054 N 0.67912 0.17705 0.16966 0.0
N1055 N 0.64576 0.05263 0.16842 0.0
C1056 C 0.6658 0.14827 0.1696 0.0
C1057 C 0.64942 0.08427 0.16927 0.0
N1058 N 0.65523 0.15089 0.12964 0.0
N1059 N 0.64838 0.08487 0.21008 0.0
H1060 H 0.64212 0.0406 0.1534 0.0
H1061 H 0.64868 0.03799 0.18223 0.0
H1062 H 0.65196 0.09524 0.2257 0.0
H1063 H 0.63884 0.06274 0.21123 0.0
H1064 H 0.65692 0.1751 0.12913 0.0
H1065 H 0.64994 0.14104 0.11408 0.0
H1066 H 0.68541 0.18891 0.15509 0.0
H1067 H 0.6868 0.18775 0.18434 0.0
C1068 C 0.86238 0.11582 0.42059 0.0
C1069 C 0.89443 0.11769 0.42002 0.0
C1070 C 0.89535 0.13169 0.46002 0.0
C1071 C 0.86352 0.12781 0.46083 0.0
N1072 N 0.81721 0.11058 0.44342 0.0
N1073 N 0.94199 0.12209 0.43962 0.0
C1074 C 0.84718 0.11805 0.44158 0.0
C1075 C 0.91113 0.12415 0.43988 0.0
N1076 N 0.8464 0.11327 0.40096 0.0
N1077 N 0.91038 0.14309 0.47837 0.0
H1078 H 0.95428 0.11661 0.42515 0.0
H1079 H 0.95532 0.12333 0.45403 0.0
H1080 H 0.89971 0.14757 0.4937 0.0
H1081 H 0.93297 0.14991 0.47804 0.0
H1082 H 0.82295 0.11524 0.40008 0.0
H1083 H 0.85666 0.1119 0.38518 0.0
H1084 H 0.8048 0.10029 0.43052 0.0
H1085 H 0.80533 0.11209 0.45855 0.0
C1086 C 0.89332 0.40703 0.68046 0.0
C1087 C 0.87057 0.41523 0.66471 0.0
C1088 C 0.8316 0.40617 0.69335 0.0
C1089 C 0.85394 0.39334 0.70779 0.0
N1090 N 0.90599 0.37939 0.71472 0.0
N1091 N 0.81765 0.41891 0.65502 0.0
C1092 C 0.88482 0.39322 0.70127 0.0
C1093 C 0.83957 0.41415 0.67089 0.0
N1094 N 0.923 0.41312 0.67569 0.0
N1095 N 0.80273 0.41057 0.70096 0.0
H1096 H 0.82244 0.42438 0.63829 0.0
H1097 H 0.79476 0.4148 0.65791 0.0
H1098 H 0.79576 0.40454 0.71714 0.0
H1099 H 0.78636 0.42279 0.69195 0.0
H1100 H 0.9404 0.41052 0.68735 0.0
H1101 H 0.92993 0.42366 0.66072 0.0
H1102 H 0.92816 0.37517 0.70964 0.0
H1103 H 0.90091 0.37033 0.73055 0.0
C1104 C 0.63323 0.11451 0.34085 0.0
C1105 C 0.60218 0.12164 0.34395 0.0
C1106 C 0.59826 0.13858 0.30468 0.0
C1107 C 0.62894 0.12991 0.30125 0.0
N1108 N 0.67341 0.10288 0.31442 0.0
N1109 N 0.5535 0.134 0.32806 0.0
C1110 C 0.64577 0.11582 0.31887 0.0
C1111 C 0.58415 0.1316 0.32558 0.0
N1112 N 0.65102 0.10767 0.35902 0.0
N1113 N 0.58308 0.15508 0.28854 0.0
H1114 H 0.54246 0.12922 0.34321 0.0
H1115 H 0.53879 0.13796 0.31467 0.0
H1116 H 0.59254 0.16107 0.27307 0.0
H1117 H 0.56194 0.16515 0.2912 0.0
H1118 H 0.67449 0.10586 0.35812 0.0
H1119 H 0.64268 0.10622 0.37541 0.0
H1120 H 0.68544 0.08961 0.32606 0.0
H1121 H 0.68302 0.10271 0.29838 0.0
C1122 C 0.87905 0.08934 0.58586 0.0
C1123 C 0.87183 0.103 0.60693 0.0
C1124 C 0.84969 0.14829 0.5879 0.0
C1125 C 0.85887 0.13568 0.56691 0.0
N1126 N 0.88563 0.09652 0.54564 0.0
N1127 N 0.85523 0.1475 0.6285 0.0
C1128 C 0.87465 0.1069 0.56581 0.0
C1129 C 0.85844 0.13304 0.6081 0.0
N1130 N 0.88914 0.05922 0.58503 0.0
N1131 N 0.83242 0.17474 0.58854 0.0
H1132 H 0.86139 0.13713 0.64371 0.0
H1133 H 0.84884 0.17073 0.6303 0.0
H1134 H 0.82665 0.18744 0.5742 0.0
H1135 H 0.82202 0.18301 0.60309 0.0
H1136 H 0.89173 0.0467 0.57014 0.0
H1137 H 0.89274 0.04574 0.59941 0.0
H1138 H 0.9002 0.07758 0.54406 0.0
H1139 H 0.88189 0.10815 0.53047 0.0
C1140 C 0.92073 0.35444 0.83965 0.0
C1141 C 0.89943 0.36331 0.85633 0.0
C1142 C 0.85958 0.36548 0.82778 0.0
C1143 C 0.88009 0.35327 0.81163 0.0
N1144 N 0.9287 0.3302 0.80335 0.0
N1145 N 0.84742 0.3713 0.86727 0.0
C1146 C 0.91032 0.34613 0.81785 0.0
C1147 C 0.86848 0.36708 0.85069 0.0
N1148 N 0.95099 0.35487 0.84439 0.0
N1149 N 0.83212 0.37691 0.82112 0.0
H1150 H 0.85299 0.3722 0.88432 0.0
H1151 H 0.8242 0.3709 0.8643 0.0
H1152 H 0.82511 0.37732 0.80437 0.0
H1153 H 0.81762 0.38894 0.83188 0.0
H1154 H 0.96765 0.35185 0.83218 0.0
H1155 H 0.95956 0.36106 0.86012 0.0
H1156 H 0.94984 0.32154 0.80794 0.0
H1157 H 0.92172 0.32288 0.78745 0.0
C1158 C 0.58887 0.40472 0.07641 0.0
C1159 C 0.58708 0.38056 0.09268 0.0
C1160 C 0.6074 0.34313 0.06553 0.0
C1161 C 0.61209 0.36784 0.05 0.0
N1162 N 0.61054 0.42267 0.04114 0.0
N1163 N 0.59832 0.32785 0.10419 0.0
C1164 C 0.60356 0.39881 0.05551 0.0
C1165 C 0.59741 0.35006 0.08766 0.0
N1166 N 0.57607 0.43309 0.08083 0.0
N1167 N 0.61111 0.31289 0.0588 0.0
H1168 H 0.59046 0.33171 0.12051 0.0
H1169 H 0.60899 0.30636 0.10225 0.0
H1170 H 0.61756 0.30683 0.04251 0.0
H1171 H 0.605 0.29374 0.06858 0.0
H1172 H 0.57371 0.45064 0.06885 0.0
H1173 H 0.56571 0.43833 0.09615 0.0
H1174 H 0.60792 0.44613 0.04519 0.0
H1175 H 0.62114 0.41914 0.02566 0.0
loop_
_geom_bond_atom_site_label_1
_geom_bond_atom_site_label_2
_geom_bond_distance
_geom_bond_site_symmetry_2
_ccdc_geom_bond_type
H0 C27 0.929 . S
N1 C26 1.433 . S
N1 C32 1.435 . S
N1 C38 1.423 . S
H2 C28 0.930 . S
H3 C31 0.931 . S
H4 C30 0.929 . S
H5 C33 0.930 . S
H6 C34 0.932 . S
H7 C37 0.929 . S
H8 C36 0.931 . S
H9 C39 0.929 . S
H10 C43 0.932 . S
H11 C40 0.931 . S
H12 C42 0.929 . S
H13 C45 0.929 . S
H14 C46 0.930 . S
H15 C48 0.929 . S
H16 C49 0.931 . S
H17 C51 0.930 . S
H18 C52 0.932 . S
H19 C54 0.931 . S
H20 C55 0.929 . S
H21 C57 0.929 . S
H22 C58 0.931 1_455 S
H23 C60 0.929 . S
N24 C44 1.433 . S
N24 C50 1.435 . S
N24 C56 1.423 . S
H25 C61 0.932 . S
C26 N1 1.433 . S
C26 C27 1.363 . S
C26 C31 1.370 . S
C27 H0 0.929 . S
C27 C26 1.363 . S
C27 C28 1.385 . S
C28 H2 0.930 . S
C28 C27 1.385 . S
C28 C29 1.357 . S
C29 C28 1.357 . S
C29 C30 1.406 . S
C30 H4 0.929 . S
C30 C29 1.406 . S
C30 C31 1.391 . S
C31 H3 0.931 . S
C31 C26 1.370 . S
C31 C30 1.391 . S
C32 N1 1.435 . S
C32 C33 1.358 . S
C32 C37 1.371 . S
C33 H5 0.930 . S
C33 C32 1.358 . S
C33 C34 1.405 . S
C34 H6 0.932 . S
C34 C33 1.405 . S
C34 C35 1.383 . S
C35 C34 1.383 . S
C35 C36 1.393 . S
C36 H8 0.931 . S
C36 C35 1.393 . S
C36 C37 1.382 . S
C37 H7 0.929 . S
C37 C32 1.371 . S
C37 C36 1.382 . S
C38 N1 1.423 . S
C38 C39 1.362 . S
C38 C43 1.388 . S
C39 H9 0.929 . S
C39 C38 1.362 . S
C39 C40 1.376 1_565 S
C40 H11 0.931 . S
C40 C39 1.376 1_545 S
C40 C41 1.396 . S
C41 C40 1.396 . S
C41 C42 1.348 1_545 S
C41 C59 1.466 1_455 S
C42 H12 0.929 . S
C42 C41 1.348 1_565 S
C42 C43 1.443 . S
C43 H10 0.932 . S
C43 C38 1.388 . S
C43 C42 1.443 . S
C44 N24 1.433 . S
C44 C45 1.363 . S
C44 C49 1.370 . S
C45 H13 0.929 . S
C45 C44 1.363 . S
C45 C46 1.385 . S
C46 H14 0.930 . S
C46 C45 1.385 . S
C46 C47 1.357 . S
C47 C46 1.357 . S
C47 C48 1.406 . S
C48 H15 0.929 . S
C48 C47 1.406 . S
C48 C49 1.391 . S
C49 H16 0.931 . S
C49 C44 1.370 . S
C49 C48 1.391 . S
C50 N24 1.435 . S
C50 C51 1.358 . S
C50 C55 1.371 . S
C51 H17 0.930 . S
C51 C50 1.358 . S
C51 C52 1.405 . S
C52 H18 0.932 . S
C52 C51 1.405 . S
C52 C53 1.383 . S
C53 C52 1.383 . S
C53 C54 1.393 . S
C54 H19 0.931 . S
C54 C53 1.393 . S
C54 C55 1.382 . S
C55 H20 0.929 . S
C55 C50 1.371 . S
C55 C54 1.382 . S
C56 N24 1.423 . S
C56 C57 1.362 . S
C56 C61 1.388 . S
C57 H21 0.929 . S
C57 C56 1.362 . S
C57 C58 1.376 . S
C58 H22 0.931 1_655 S
C58 C57 1.376 . S
C58 C59 1.397 . S
C59 C41 1.466 1_655 S
C59 C58 1.397 . S
C59 C60 1.353 . S
C60 H23 0.929 . S
C60 C59 1.353 . S
C60 C61 1.443 . S
C61 H25 0.932 . S
C61 C56 1.388 . S
C61 C60 1.443 . S
H62 C89 0.929 . S
N63 C88 1.433 . S
N63 C94 1.435 . S
N63 C100 1.423 . S
H64 C90 0.930 . S
H65 C93 0.931 . S
H66 C92 0.929 . S
H67 C95 0.930 . S
H68 C96 0.932 . S
H69 C99 0.929 . S
H70 C98 0.931 . S
H71 C101 0.929 . S
H72 C105 0.932 . S
H73 C102 0.931 . S
H74 C104 0.929 . S
H75 C107 0.929 . S
H76 C108 0.930 . S
H77 C110 0.929 . S
H78 C111 0.931 . S
H79 C113 0.930 . S
H80 C114 0.932 . S
H81 C116 0.931 . S
H82 C117 0.929 . S
H83 C119 0.929 . S
H84 C120 0.931 . S
H85 C122 0.929 . S
N86 C106 1.433 . S
N86 C112 1.435 . S
N86 C118 1.423 . S
H87 C123 0.932 . S
C88 N63 1.433 . S
C88 C89 1.363 . S
C88 C93 1.370 . S
C89 H62 0.929 . S
C89 C88 1.363 . S
C89 C90 1.385 . S
C90 H64 0.930 . S
C90 C89 1.385 . S
C90 C91 1.357 . S
C91 C90 1.357 . S
C91 C92 1.406 . S
C92 H66 0.929 . S
C92 C91 1.406 . S
C92 C93 1.391 . S
C93 H65 0.931 . S
C93 C88 1.370 . S
C93 C92 1.391 . S
C94 N63 1.435 . S
C94 C95 1.358 . S
C94 C99 1.371 . S
C95 H67 0.930 . S
C95 C94 1.358 . S
C95 C96 1.405 . S
C96 H68 0.932 . S
C96 C95 1.405 . S
C96 C97 1.383 . S
C97 C96 1.383 . S
C97 C98 1.393 . S
C98 H70 0.931 . S
C98 C97 1.393 . S
C98 C99 1.382 . S
C99 H69 0.929 . S
C99 C94 1.371 . S
C99 C98 1.382 . S
C100 N63 1.423 . S
C100 C101 1.362 . S
C100 C105 1.388 . S
C101 H71 0.929 . S
C101 C100 1.362 . S
C101 C102 1.376 1_655 S
C102 H73 0.931 . S
C102 C101 1.376 1_455 S
C102 C103 1.396 . S
C103 C102 1.396 . S
C103 C104 1.348 1_455 S
C103 C121 1.472 . S
C104 H74 0.929 . S
C104 C103 1.348 1_655 S
C104 C105 1.443 . S
C105 H72 0.932 . S
C105 C100 1.388 . S
C105 C104 1.443 . S
C106 N86 1.433 . S
C106 C107 1.363 . S
C106 C111 1.370 . S
C107 H75 0.929 . S
C107 C106 1.363 . S
C107 C108 1.385 . S
C108 H76 0.930 . S
C108 C107 1.385 . S
C108 C109 1.357 . S
C109 C108 1.357 . S
C109 C110 1.406 . S
C110 H77 0.929 . S
C110 C109 1.406 . S
C110 C111 1.391 . S
C111 H78 0.931 . S
C111 C106 1.370 . S
C111 C110 1.391 . S
C112 N86 1.435 . S
C112 C113 1.358 . S
C112 C117 1.371 . S
C113 H79 0.930 . S
C113 C112 1.358 . S
C113 C114 1.405 . S
C114 H80 0.932 . S
C114 C113 1.405 . S
C114 C115 1.383 . S
C115 C114 1.383 . S
C115 C116 1.393 . S
C116 H81 0.931 . S
C116 C115 1.393 . S
C116 C117 1.382 . S
C117 H82 0.929 . S
C117 C112 1.371 . S
C117 C116 1.382 . S
C118 N86 1.423 . S
C118 C119 1.362 . S
C118 C123 1.388 . S
C119 H83 0.929 . S
C119 C118 1.362 . S
C119 C120 1.376 . S
C120 H84 0.931 . S
C120 C119 1.376 . S
C120 C121 1.396 . S
C121 C103 1.472 . S
C121 C120 1.396 . S
C121 C122 1.348 . S
C122 H85 0.929 . S
C122 C121 1.348 . S
C122 C123 1.443 . S
C123 H87 0.932 . S
C123 C118 1.388 . S
C123 C122 1.443 . S
H124 C151 0.929 . S
N125 C150 1.433 . S
N125 C156 1.435 . S
N125 C162 1.423 . S
H126 C152 0.930 . S
H127 C155 0.931 . S
H128 C154 0.929 . S
H129 C157 0.930 . S
H130 C158 0.932 . S
H131 C161 0.929 . S
H132 C160 0.931 . S
H133 C163 0.929 . S
H134 C167 0.932 . S
H135 C164 0.931 . S
H136 C166 0.929 . S
H137 C169 0.929 . S
H138 C170 0.930 . S
H139 C172 0.929 . S
H140 C173 0.931 . S
H141 C175 0.930 . S
H142 C176 0.932 . S
H143 C178 0.931 . S
H144 C179 0.929 . S
H145 C181 0.929 . S
H146 C182 0.931 . S
H147 C184 0.929 . S
N148 C168 1.433 . S
N148 C174 1.435 . S
N148 C180 1.423 . S
H149 C185 0.932 . S
C150 N125 1.433 . S
C150 C151 1.363 . S
C150 C155 1.370 . S
C151 H124 0.929 . S
C151 C150 1.363 . S
C151 C152 1.385 . S
C152 H126 0.930 . S
C152 C151 1.385 . S
C152 C153 1.357 . S
C153 C152 1.357 . S
C153 C154 1.406 . S
C154 H128 0.929 . S
C154 C153 1.406 . S
C154 C155 1.391 . S
C155 H127 0.931 . S
C155 C150 1.370 . S
C155 C154 1.391 . S
C156 N125 1.435 . S
C156 C157 1.358 . S
C156 C161 1.371 . S
C157 H129 0.930 . S
C157 C156 1.358 . S
C157 C158 1.405 . S
C158 H130 0.932 . S
C158 C157 1.405 . S
C158 C159 1.383 . S
C159 C158 1.383 . S
C159 C160 1.393 . S
C160 H132 0.931 . S
C160 C159 1.393 . S
C160 C161 1.382 . S
C161 H131 0.929 . S
C161 C156 1.371 . S
C161 C160 1.382 . S
C162 N125 1.423 . S
C162 C163 1.362 . S
C162 C167 1.388 . S
C163 H133 0.929 . S
C163 C162 1.362 . S
C163 C164 1.376 . S
C164 H135 0.931 . S
C164 C163 1.376 . S
C164 C165 1.396 . S
C165 C164 1.396 . S
C165 C166 1.348 . S
C165 C183 1.472 . S
C166 H136 0.929 . S
C166 C165 1.348 . S
C166 C167 1.443 . S
C167 H134 0.932 . S
C167 C162 1.388 . S
C167 C166 1.443 . S
C168 N148 1.433 . S
C168 C169 1.363 . S
C168 C173 1.370 . S
C169 H137 0.929 . S
C169 C168 1.363 . S
C169 C170 1.385 . S
C170 H138 0.930 . S
C170 C169 1.385 . S
C170 C171 1.357 . S
C171 C170 1.357 . S
C171 C172 1.406 . S
C172 H139 0.929 . S
C172 C171 1.406 . S
C172 C173 1.391 . S
C173 H140 0.931 . S
C173 C168 1.370 . S
C173 C172 1.391 . S
C174 N148 1.435 . S
C174 C175 1.358 . S
C174 C179 1.371 . S
C175 H141 0.930 . S
C175 C174 1.358 . S
C175 C176 1.405 . S
C176 H142 0.932 . S
C176 C175 1.405 . S
C176 C177 1.383 . S
C177 C176 1.383 . S
C177 C178 1.393 . S
C178 H143 0.931 . S
C178 C177 1.393 . S
C178 C179 1.382 . S
C179 H144 0.929 . S
C179 C174 1.371 . S
C179 C178 1.382 . S
C180 N148 1.423 . S
C180 C181 1.362 . S
C180 C185 1.388 . S
C181 H145 0.929 . S
C181 C180 1.362 . S
C181 C182 1.376 . S
C182 H146 0.931 . S
C182 C181 1.376 . S
C182 C183 1.396 . S
C183 C165 1.472 . S
C183 C182 1.396 . S
C183 C184 1.348 . S
C184 H147 0.929 . S
C184 C183 1.348 . S
C184 C185 1.443 . S
C185 H149 0.932 . S
C185 C180 1.388 . S
C185 C184 1.443 . S
H186 C213 0.929 . S
N187 C212 1.433 . S
N187 C218 1.435 . S
N187 C224 1.423 . S
H188 C214 0.930 . S
H189 C217 0.931 . S
H190 C216 0.929 . S
H191 C219 0.930 . S
H192 C220 0.932 . S
H193 C223 0.929 . S
H194 C222 0.931 1_556 S
H195 C225 0.929 . S
H196 C229 0.932 . S
H197 C226 0.931 . S
H198 C228 0.929 . S
H199 C231 0.929 . S
H200 C232 0.930 . S
H201 C234 0.929 . S
H202 C235 0.931 . S
H203 C237 0.930 . S
H204 C238 0.932 . S
H205 C240 0.931 1_556 S
H206 C241 0.929 . S
H207 C243 0.929 . S
H208 C244 0.931 1_565 S
H209 C246 0.929 . S
N210 C230 1.433 . S
N210 C236 1.435 . S
N210 C242 1.423 . S
H211 C247 0.932 . S
C212 N187 1.433 . S
C212 C213 1.363 . S
C212 C217 1.370 . S
C213 H186 0.929 . S
C213 C212 1.363 . S
C213 C214 1.385 . S
C214 H188 0.930 . S
C214 C213 1.385 . S
C214 C215 1.357 . S
C215 C214 1.357 . S
C215 C216 1.406 . S
C216 H190 0.929 . S
C216 C215 1.406 . S
C216 C217 1.391 . S
C217 H189 0.931 . S
C217 C212 1.370 . S
C217 C216 1.391 . S
C218 N187 1.435 . S
C218 C219 1.358 . S
C218 C223 1.371 . S
C219 H191 0.930 . S
C219 C218 1.358 . S
C219 C220 1.405 . S
C220 H192 0.932 . S
C220 C219 1.405 . S
C220 C221 1.383 . S
C221 C220 1.383 . S
C221 C222 1.393 . S
C222 H194 0.931 1_554 S
C222 C221 1.393 . S
C222 C223 1.382 . S
C223 H193 0.929 . S
C223 C218 1.371 . S
C223 C222 1.382 . S
C224 N187 1.423 . S
C224 C225 1.362 . S
C224 C229 1.388 . S
C225 H195 0.929 . S
C225 C224 1.362 . S
C225 C226 1.376 . S
C226 H197 0.931 . S
C226 C225 1.376 . S
C226 C227 1.396 . S
C227 C226 1.396 . S
C227 C228 1.348 . S
C227 C245 1.486 . S
C228 H198 0.929 . S
C228 C227 1.348 . S
C228 C229 1.443 . S
C229 H196 0.932 . S
C229 C224 1.388 . S
C229 C228 1.443 . S
C230 N210 1.433 . S
C230 C231 1.363 . S
C230 C235 1.370 . S
C231 H199 0.929 . S
C231 C230 1.363 . S
C231 C232 1.385 . S
C232 H200 0.930 . S
C232 C231 1.385 . S
C232 C233 1.357 . S
C233 C232 1.357 . S
C233 C234 1.406 . S
C234 H201 0.929 . S
C234 C233 1.406 . S
C234 C235 1.391 . S
C235 H202 0.931 . S
C235 C230 1.370 . S
C235 C234 1.391 . S
C236 N210 1.435 . S
C236 C237 1.358 . S
C236 C241 1.371 . S
C237 H203 0.930 . S
C237 C236 1.358 . S
C237 C238 1.405 . S
C238 H204 0.932 . S
C238 C237 1.405 . S
C238 C239 1.383 . S
C239 C238 1.383 . S
C239 C240 1.393 . S
C240 H205 0.931 1_554 S
C240 C239 1.393 . S
C240 C241 1.382 . S
C241 H206 0.929 . S
C241 C236 1.371 . S
C241 C240 1.382 . S
C242 N210 1.423 . S
C242 C243 1.362 . S
C242 C247 1.388 . S
C243 H207 0.929 . S
C243 C242 1.362 . S
C243 C244 1.376 . S
C244 H208 0.931 1_545 S
C244 C243 1.376 . S
C244 C245 1.394 1_545 S
C245 C227 1.486 . S
C245 C244 1.394 1_565 S
C245 C246 1.335 1_565 S
C246 H209 0.929 . S
C246 C245 1.335 1_545 S
C246 C247 1.443 . S
C247 H211 0.932 . S
C247 C242 1.388 . S
C247 C246 1.443 . S
H248 C275 0.929 . S
N249 C274 1.433 . S
N249 C280 1.435 . S
N249 C286 1.423 . S
H250 C276 0.930 . S
H251 C279 0.931 . S
H252 C278 0.929 . S
H253 C281 0.930 . S
H254 C282 0.932 . S
H255 C285 0.929 . S
H256 C284 0.931 1_554 S
H257 C287 0.929 . S
H258 C291 0.932 . S
H259 C288 0.931 . S
H260 C290 0.929 . S
H261 C293 0.929 . S
H262 C294 0.930 . S
H263 C296 0.929 . S
H264 C297 0.931 . S
H265 C299 0.930 . S
H266 C300 0.932 . S
H267 C302 0.931 1_554 S
H268 C303 0.929 . S
H269 C305 0.929 . S
H270 C306 0.931 1_455 S
H271 C308 0.929 . S
N272 C292 1.433 . S
N272 C298 1.435 . S
N272 C304 1.423 . S
H273 C309 0.932 . S
C274 N249 1.433 . S
C274 C275 1.363 . S
C274 C279 1.370 . S
C275 H248 0.929 . S
C275 C274 1.363 . S
C275 C276 1.385 . S
C276 H250 0.930 . S
C276 C275 1.385 . S
C276 C277 1.357 . S
C277 C276 1.357 . S
C277 C278 1.406 . S
C278 H252 0.929 . S
C278 C277 1.406 . S
C278 C279 1.391 . S
C279 H251 0.931 . S
C279 C274 1.370 . S
C279 C278 1.391 . S
C280 N249 1.435 . S
C280 C281 1.358 . S
C280 C285 1.371 . S
C281 H253 0.930 . S
C281 C280 1.358 . S
C281 C282 1.405 . S
C282 H254 0.932 . S
C282 C281 1.405 . S
C282 C283 1.383 . S
C283 C282 1.383 . S
C283 C284 1.393 . S
C284 H256 0.931 1_556 S
C284 C283 1.393 . S
C284 C285 1.382 . S
C285 H255 0.929 . S
C285 C280 1.371 . S
C285 C284 1.382 . S
C286 N249 1.423 . S
C286 C287 1.362 . S
C286 C291 1.388 . S
C287 H257 0.929 . S
C287 C286 1.362 . S
C287 C288 1.376 . S
C288 H259 0.931 . S
C288 C287 1.376 . S
C288 C289 1.396 . S
C289 C288 1.396 . S
C289 C290 1.348 . S
C289 C307 1.466 1_455 S
C290 H260 0.929 . S
C290 C289 1.348 . S
C290 C291 1.443 . S
C291 H258 0.932 . S
C291 C286 1.388 . S
C291 C290 1.443 . S
C292 N272 1.433 . S
C292 C293 1.363 . S
C292 C297 1.370 . S
C293 H261 0.929 . S
C293 C292 1.363 . S
C293 C294 1.385 . S
C294 H262 0.930 . S
C294 C293 1.385 . S
C294 C295 1.357 . S
C295 C294 1.357 . S
C295 C296 1.406 . S
C296 H263 0.929 . S
C296 C295 1.406 . S
C296 C297 1.391 . S
C297 H264 0.931 . S
C297 C292 1.370 . S
C297 C296 1.391 . S
C298 N272 1.435 . S
C298 C299 1.358 . S
C298 C303 1.371 . S
C299 H265 0.930 . S
C299 C298 1.358 . S
C299 C300 1.405 . S
C300 H266 0.932 . S
C300 C299 1.405 . S
C300 C301 1.383 . S
C301 C300 1.383 . S
C301 C302 1.393 . S
C302 H267 0.931 1_556 S
C302 C301 1.393 . S
C302 C303 1.382 . S
C303 H268 0.929 . S
C303 C298 1.371 . S
C303 C302 1.382 . S
C304 N272 1.423 . S
C304 C305 1.362 . S
C304 C309 1.388 . S
C305 H269 0.929 . S
C305 C304 1.362 . S
C305 C306 1.376 . S
C306 H270 0.931 1_655 S
C306 C305 1.376 . S
C306 C307 1.397 . S
C307 C289 1.466 1_655 S
C307 C306 1.397 . S
C307 C308 1.353 . S
C308 H271 0.929 . S
C308 C307 1.353 . S
C308 C309 1.443 . S
C309 H273 0.932 . S
C309 C304 1.388 . S
C309 C308 1.443 . S
H310 C337 0.929 . S
N311 C336 1.433 . S
N311 C342 1.435 . S
N311 C348 1.423 . S
H312 C338 0.930 . S
H313 C341 0.931 . S
H314 C340 0.929 . S
H315 C343 0.930 . S
H316 C344 0.932 . S
H317 C347 0.929 . S
H318 C346 0.931 . S
H319 C349 0.929 . S
H320 C353 0.932 . S
H321 C350 0.931 . S
H322 C352 0.929 . S
H323 C355 0.929 . S
H324 C356 0.930 . S
H325 C358 0.929 . S
H326 C359 0.931 . S
H327 C361 0.930 . S
H328 C362 0.932 . S
H329 C364 0.931 . S
H330 C365 0.929 . S
H331 C367 0.929 . S
H332 C368 0.931 . S
H333 C370 0.929 . S
N334 C354 1.433 . S
N334 C360 1.435 . S
N334 C366 1.423 . S
H335 C371 0.932 . S
C336 N311 1.433 . S
C336 C337 1.363 . S
C336 C341 1.370 . S
C337 H310 0.929 . S
C337 C336 1.363 . S
C337 C338 1.385 . S
C338 H312 0.930 . S
C338 C337 1.385 . S
C338 C339 1.357 . S
C339 C338 1.357 . S
C339 C340 1.406 . S
C340 H314 0.929 . S
C340 C339 1.406 . S
C340 C341 1.391 . S
C341 H313 0.931 . S
C341 C336 1.370 . S
C341 C340 1.391 . S
C342 N311 1.435 . S
C342 C343 1.358 . S
C342 C347 1.371 . S
C343 H315 0.930 . S
C343 C342 1.358 . S
C343 C344 1.405 . S
C344 H316 0.932 . S
C344 C343 1.405 . S
C344 C345 1.383 . S
C345 C344 1.383 . S
C345 C346 1.393 . S
C346 H318 0.931 . S
C346 C345 1.393 . S
C346 C347 1.382 . S
C347 H317 0.929 . S
C347 C342 1.371 . S
C347 C346 1.382 . S
C348 N311 1.423 . S
C348 C349 1.362 . S
C348 C353 1.388 . S
C349 H319 0.929 . S
C349 C348 1.362 . S
C349 C350 1.376 . S
C350 H321 0.931 . S
C350 C349 1.376 . S
C350 C351 1.396 . S
C351 C350 1.396 . S
C351 C352 1.348 . S
C351 C369 1.472 . S
C352 H322 0.929 . S
C352 C351 1.348 . S
C352 C353 1.443 . S
C353 H320 0.932 . S
C353 C348 1.388 . S
C353 C352 1.443 . S
C354 N334 1.433 . S
C354 C355 1.363 . S
C354 C359 1.370 . S
C355 H323 0.929 . S
C355 C354 1.363 . S
C355 C356 1.385 . S
C356 H324 0.930 . S
C356 C355 1.385 . S
C356 C357 1.357 . S
C357 C356 1.357 . S
C357 C358 1.406 . S
C358 H325 0.929 . S
C358 C357 1.406 . S
C358 C359 1.391 . S
C359 H326 0.931 . S
C359 C354 1.370 . S
C359 C358 1.391 . S
C360 N334 1.435 . S
C360 C361 1.358 . S
C360 C365 1.371 . S
C361 H327 0.930 . S
C361 C360 1.358 . S
C361 C362 1.405 . S
C362 H328 0.932 . S
C362 C361 1.405 . S
C362 C363 1.383 . S
C363 C362 1.383 . S
C363 C364 1.393 . S
C364 H329 0.931 . S
C364 C363 1.393 . S
C364 C365 1.382 . S
C365 H330 0.929 . S
C365 C360 1.371 . S
C365 C364 1.382 . S
C366 N334 1.423 . S
C366 C367 1.362 . S
C366 C371 1.388 . S
C367 H331 0.929 . S
C367 C366 1.362 . S
C367 C368 1.376 . S
C368 H332 0.931 . S
C368 C367 1.376 . S
C368 C369 1.396 . S
C369 C351 1.472 . S
C369 C368 1.396 . S
C369 C370 1.348 . S
C370 H333 0.929 . S
C370 C369 1.348 . S
C370 C371 1.443 . S
C371 H335 0.932 . S
C371 C366 1.388 . S
C371 C370 1.443 . S
H372 C399 0.929 . S
N373 C398 1.433 . S
N373 C404 1.435 . S
N373 C410 1.423 . S
H374 C400 0.930 . S
H375 C403 0.931 . S
H376 C402 0.929 . S
H377 C405 0.930 . S
H378 C406 0.932 . S
H379 C409 0.929 . S
H380 C408 0.931 . S
H381 C411 0.929 . S
H382 C415 0.932 . S
H383 C412 0.931 . S
H384 C414 0.929 . S
H385 C417 0.929 . S
H386 C418 0.930 . S
H387 C420 0.929 . S
H388 C421 0.931 . S
H389 C423 0.930 . S
H390 C424 0.932 . S
H391 C426 0.931 . S
H392 C427 0.929 . S
H393 C429 0.929 . S
H394 C430 0.931 . S
H395 C432 0.929 . S
N396 C416 1.433 . S
N396 C422 1.435 . S
N396 C428 1.423 . S
H397 C433 0.932 . S
C398 N373 1.433 . S
C398 C399 1.363 . S
C398 C403 1.370 . S
C399 H372 0.929 . S
C399 C398 1.363 . S
C399 C400 1.385 . S
C400 H374 0.930 . S
C400 C399 1.385 . S
C400 C401 1.357 . S
C401 C400 1.357 . S
C401 C402 1.406 . S
C402 H376 0.929 . S
C402 C401 1.406 . S
C402 C403 1.391 . S
C403 H375 0.931 . S
C403 C398 1.370 . S
C403 C402 1.391 . S
C404 N373 1.435 . S
C404 C405 1.358 . S
C404 C409 1.371 . S
C405 H377 0.930 . S
C405 C404 1.358 . S
C405 C406 1.405 . S
C406 H378 0.932 . S
C406 C405 1.405 . S
C406 C407 1.383 . S
C407 C406 1.383 . S
C407 C408 1.393 . S
C408 H380 0.931 . S
C408 C407 1.393 . S
C408 C409 1.382 . S
C409 H379 0.929 . S
C409 C404 1.371 . S
C409 C408 1.382 . S
C410 N373 1.423 . S
C410 C411 1.362 . S
C410 C415 1.388 . S
C411 H381 0.929 . S
C411 C410 1.362 . S
C411 C412 1.376 1_565 S
C412 H383 0.931 . S
C412 C411 1.376 1_545 S
C412 C413 1.396 . S
C413 C412 1.396 . S
C413 C414 1.348 1_545 S
C413 C431 1.472 . S
C414 H384 0.929 . S
C414 C413 1.348 1_565 S
C414 C415 1.443 . S
C415 H382 0.932 . S
C415 C410 1.388 . S
C415 C414 1.443 . S
C416 N396 1.433 . S
C416 C417 1.363 . S
C416 C421 1.370 . S
C417 H385 0.929 . S
C417 C416 1.363 . S
C417 C418 1.385 . S
C418 H386 0.930 . S
C418 C417 1.385 . S
C418 C419 1.357 . S
C419 C418 1.357 . S
C419 C420 1.406 . S
C420 H387 0.929 . S
C420 C419 1.406 . S
C420 C421 1.391 . S
C421 H388 0.931 . S
C421 C416 1.370 . S
C421 C420 1.391 . S
C422 N396 1.435 . S
C422 C423 1.358 . S
C422 C427 1.371 . S
C423 H389 0.930 . S
C423 C422 1.358 . S
C423 C424 1.405 . S
C424 H390 0.932 . S
C424 C423 1.405 . S
C424 C425 1.383 . S
C425 C424 1.383 . S
C425 C426 1.393 . S
C426 H391 0.931 . S
C426 C425 1.393 . S
C426 C427 1.382 . S
C427 H392 0.929 . S
C427 C422 1.371 . S
C427 C426 1.382 . S
C428 N396 1.423 . S
C428 C429 1.362 . S
C428 C433 1.388 . S
C429 H393 0.929 . S
C429 C428 1.362 . S
C429 C430 1.376 . S
C430 H394 0.931 . S
C430 C429 1.376 . S
C430 C431 1.396 . S
C431 C413 1.472 . S
C431 C430 1.396 . S
C431 C432 1.348 . S
C432 H395 0.929 . S
C432 C431 1.348 . S
C432 C433 1.443 . S
C433 H397 0.932 . S
C433 C428 1.388 . S
C433 C432 1.443 . S
H434 C461 0.929 . S
N435 C460 1.433 . S
N435 C466 1.435 . S
N435 C472 1.423 . S
H436 C462 0.930 . S
H437 C465 0.931 . S
H438 C464 0.929 . S
H439 C467 0.930 . S
H440 C468 0.932 . S
H441 C471 0.929 . S
H442 C470 0.931 . S
H443 C473 0.929 . S
H444 C477 0.932 . S
H445 C474 0.931 . S
H446 C476 0.929 . S
H447 C479 0.929 . S
H448 C480 0.930 . S
H449 C482 0.929 . S
H450 C483 0.931 . S
H451 C485 0.930 . S
H452 C486 0.932 . S
H453 C488 0.931 . S
H454 C489 0.929 . S
H455 C491 0.929 . S
H456 C492 0.931 1_565 S
H457 C494 0.929 . S
N458 C478 1.433 . S
N458 C484 1.435 . S
N458 C490 1.423 . S
H459 C495 0.932 . S
C460 N435 1.433 . S
C460 C461 1.363 . S
C460 C465 1.370 . S
C461 H434 0.929 . S
C461 C460 1.363 . S
C461 C462 1.385 . S
C462 H436 0.930 . S
C462 C461 1.385 . S
C462 C463 1.357 . S
C463 C462 1.357 . S
C463 C464 1.406 . S
C464 H438 0.929 . S
C464 C463 1.406 . S
C464 C465 1.391 . S
C465 H437 0.931 . S
C465 C460 1.370 . S
C465 C464 1.391 . S
C466 N435 1.435 . S
C466 C467 1.358 . S
C466 C471 1.371 . S
C467 H439 0.930 . S
C467 C466 1.358 . S
C467 C468 1.405 . S
C468 H440 0.932 . S
C468 C467 1.405 . S
C468 C469 1.383 . S
C469 C468 1.383 . S
C469 C470 1.393 . S
C470 H442 0.931 . S
C470 C469 1.393 . S
C470 C471 1.382 . S
C471 H441 0.929 . S
C471 C466 1.371 . S
C471 C470 1.382 . S
C472 N435 1.423 . S
C472 C473 1.362 . S
C472 C477 1.388 . S
C473 H443 0.929 . S
C473 C472 1.362 . S
C473 C474 1.376 1_455 S
C474 H445 0.931 . S
C474 C473 1.376 1_655 S
C474 C475 1.396 . S
C475 C474 1.396 . S
C475 C476 1.348 1_655 S
C475 C493 1.486 . S
C476 H446 0.929 . S
C476 C475 1.348 1_455 S
C476 C477 1.443 . S
C477 H444 0.932 . S
C477 C472 1.388 . S
C477 C476 1.443 . S
C478 N458 1.433 . S
C478 C479 1.363 . S
C478 C483 1.370 . S
C479 H447 0.929 . S
C479 C478 1.363 . S
C479 C480 1.385 . S
C480 H448 0.930 . S
C480 C479 1.385 . S
C480 C481 1.357 . S
C481 C480 1.357 . S
C481 C482 1.406 . S
C482 H449 0.929 . S
C482 C481 1.406 . S
C482 C483 1.391 . S
C483 H450 0.931 . S
C483 C478 1.370 . S
C483 C482 1.391 . S
C484 N458 1.435 . S
C484 C485 1.358 . S
C484 C489 1.371 . S
C485 H451 0.930 . S
C485 C484 1.358 . S
C485 C486 1.405 . S
C486 H452 0.932 . S
C486 C485 1.405 . S
C486 C487 1.383 . S
C487 C486 1.383 . S
C487 C488 1.393 . S
C488 H453 0.931 . S
C488 C487 1.393 . S
C488 C489 1.382 . S
C489 H454 0.929 . S
C489 C484 1.371 . S
C489 C488 1.382 . S
C490 N458 1.423 . S
C490 C491 1.362 . S
C490 C495 1.388 . S
C491 H455 0.929 . S
C491 C490 1.362 . S
C491 C492 1.376 . S
C492 H456 0.931 1_545 S
C492 C491 1.376 . S
C492 C493 1.394 1_545 S
C493 C475 1.486 . S
C493 C492 1.394 1_565 S
C493 C494 1.335 1_565 S
C494 H457 0.929 . S
C494 C493 1.335 1_545 S
C494 C495 1.443 . S
C495 H459 0.932 . S
C495 C490 1.388 . S
C495 C494 1.443 . S
C496 O497 1.160 . S
C496 O503 1.189 . S
O497 C496 1.160 . S
O498 Zn499 1.899 . S
O498 C506 1.284 . S
Zn499 O498 1.899 . S
Zn499 O500 2.032 1_554 S
Zn499 O503 2.092 . S
Zn499 O508 1.977 . S
O500 Zn499 2.032 1_556 S
O500 C504 1.278 . S
C501 O502 1.203 . S
C501 O508 1.267 . S
O502 C501 1.203 . S
O503 C496 1.189 . S
O503 Zn499 2.092 . S
C504 O500 1.278 . S
C504 O505 1.211 . S
O505 C504 1.211 . S
C506 O498 1.284 . S
C506 O507 1.273 . S
O507 C506 1.273 . S
O508 Zn499 1.977 . S
O508 C501 1.267 . S
C509 O510 1.160 . S
C509 O516 1.185 . S
O510 C509 1.160 . S
O511 Zn512 1.899 . S
O511 C519 1.284 . S
Zn512 O511 1.899 . S
Zn512 O513 2.032 . S
Zn512 O516 2.086 . S
Zn512 O521 1.977 . S
O513 Zn512 2.032 . S
O513 C517 1.278 . S
C514 O515 1.203 . S
C514 O521 1.267 . S
O515 C514 1.203 . S
O516 C509 1.185 . S
O516 Zn512 2.086 . S
C517 O513 1.278 . S
C517 O518 1.211 . S
O518 C517 1.211 . S
C519 O511 1.284 . S
C519 O520 1.273 . S
O520 C519 1.273 . S
O521 Zn512 1.977 . S
O521 C514 1.267 . S
C522 O523 1.160 . S
C522 O529 1.185 . S
O523 C522 1.160 . S
O524 Zn525 1.899 . S
O524 C532 1.284 . S
Zn525 O524 1.899 . S
Zn525 O526 2.032 . S
Zn525 O529 2.086 . S
Zn525 O534 1.977 . S
O526 Zn525 2.032 . S
O526 C530 1.278 . S
C527 O528 1.203 . S
C527 O534 1.267 . S
O528 C527 1.203 . S
O529 C522 1.185 . S
O529 Zn525 2.086 . S
C530 O526 1.278 . S
C530 O531 1.211 . S
O531 C530 1.211 . S
C532 O524 1.284 . S
C532 O533 1.273 . S
O533 C532 1.273 . S
O534 Zn525 1.977 . S
O534 C527 1.267 . S
C535 O536 1.160 . S
C535 O542 1.185 . S
O536 C535 1.160 . S
O537 Zn538 1.899 . S
O537 C545 1.284 . S
Zn538 O537 1.899 . S
Zn538 O539 2.032 . S
Zn538 O542 2.086 . S
Zn538 O547 1.977 . S
O539 Zn538 2.032 . S
O539 C543 1.278 . S
C540 O541 1.203 . S
C540 O547 1.267 . S
O541 C540 1.203 . S
O542 C535 1.185 . S
O542 Zn538 2.086 . S
C543 O539 1.278 . S
C543 O544 1.211 . S
O544 C543 1.211 . S
C545 O537 1.284 . S
C545 O546 1.273 . S
O546 C545 1.273 . S
O547 Zn538 1.977 . S
O547 C540 1.267 . S
C548 O549 1.160 . S
C548 O555 1.185 . S
O549 C548 1.160 . S
O550 Zn551 1.899 . S
O550 C558 1.284 . S
Zn551 O550 1.899 . S
Zn551 O552 2.032 . S
Zn551 O555 2.086 . S
Zn551 O560 1.977 . S
O552 Zn551 2.032 . S
O552 C556 1.278 . S
C553 O554 1.203 . S
C553 O560 1.267 . S
O554 C553 1.203 . S
O555 C548 1.185 . S
O555 Zn551 2.086 . S
C556 O552 1.278 . S
C556 O557 1.211 . S
O557 C556 1.211 . S
C558 O550 1.284 . S
C558 O559 1.273 . S
O559 C558 1.273 . S
O560 Zn551 1.977 . S
O560 C553 1.267 . S
C561 O562 1.160 . S
C561 O568 1.185 . S
O562 C561 1.160 . S
O563 Zn564 1.899 . S
O563 C571 1.284 . S
Zn564 O563 1.899 . S
Zn564 O565 2.032 . S
Zn564 O568 2.086 . S
Zn564 O573 1.977 . S
O565 Zn564 2.032 . S
O565 C569 1.278 . S
C566 O567 1.203 . S
C566 O573 1.267 . S
O567 C566 1.203 . S
O568 C561 1.185 . S
O568 Zn564 2.086 . S
C569 O565 1.278 . S
C569 O570 1.211 . S
O570 C569 1.211 . S
C571 O563 1.284 . S
C571 O572 1.273 . S
O572 C571 1.273 . S
O573 Zn564 1.977 . S
O573 C566 1.267 . S
C574 O575 1.160 . S
C574 O581 1.189 . S
O575 C574 1.160 . S
O576 Zn577 1.899 . S
O576 C584 1.284 . S
Zn577 O576 1.899 . S
Zn577 O578 2.032 1_554 S
Zn577 O581 2.092 . S
Zn577 O586 1.977 . S
O578 Zn577 2.032 1_556 S
O578 C582 1.278 . S
C579 O580 1.203 . S
C579 O586 1.267 . S
O580 C579 1.203 . S
O581 C574 1.189 . S
O581 Zn577 2.092 . S
C582 O578 1.278 . S
C582 O583 1.211 . S
O583 C582 1.211 . S
C584 O576 1.284 . S
C584 O585 1.273 . S
O585 C584 1.273 . S
O586 Zn577 1.977 . S
O586 C579 1.267 . S
C587 O588 1.160 . S
C587 O594 1.185 . S
O588 C587 1.160 . S
O589 Zn590 1.899 . S
O589 C597 1.284 . S
Zn590 O589 1.899 . S
Zn590 O591 2.032 . S
Zn590 O594 2.086 . S
Zn590 O599 1.977 . S
O591 Zn590 2.032 . S
O591 C595 1.278 . S
C592 O593 1.203 . S
C592 O599 1.267 . S
O593 C592 1.203 . S
O594 C587 1.185 . S
O594 Zn590 2.086 . S
C595 O591 1.278 . S
C595 O596 1.211 . S
O596 C595 1.211 . S
C597 O589 1.284 . S
C597 O598 1.273 . S
O598 C597 1.273 . S
O599 Zn590 1.977 . S
O599 C592 1.267 . S
C600 C601 1.363 . S
C600 C606 1.379 . S
C600 N608 1.356 . S
C601 C600 1.363 . S
C601 C607 1.363 . S
C602 C603 1.363 . S
C602 C607 1.379 . S
C602 N609 1.356 . S
C603 C602 1.363 . S
C603 C606 1.363 . S
N604 C606 1.356 . S
N604 H616 0.984 . S
N604 H617 0.985 . S
N605 C607 1.356 . S
N605 H610 0.984 . S
N605 H611 0.985 . S
C606 C600 1.379 . S
C606 C603 1.363 . S
C606 N604 1.356 . S
C607 C601 1.363 . S
C607 C602 1.379 . S
C607 N605 1.356 . S
N608 C600 1.356 . S
N608 H614 0.984 . S
N608 H615 0.984 . S
N609 C602 1.356 . S
N609 H612 0.984 . S
N609 H613 0.985 . S
H610 N605 0.984 . S
H611 N605 0.985 . S
H612 N609 0.984 . S
H613 N609 0.985 . S
H614 N608 0.984 . S
H615 N608 0.984 . S
H616 N604 0.984 . S
H617 N604 0.985 . S
C618 C619 1.363 . S
C618 C624 1.379 . S
C618 N626 1.356 . S
C619 C618 1.363 . S
C619 C625 1.363 . S
C620 C621 1.363 . S
C620 C625 1.379 . S
C620 N627 1.356 . S
C621 C620 1.363 . S
C621 C624 1.363 . S
N622 C624 1.356 . S
N622 H634 0.984 . S
N622 H635 0.985 . S
N623 C625 1.356 . S
N623 H628 0.984 . S
N623 H629 0.985 . S
C624 C618 1.379 . S
C624 C621 1.363 . S
C624 N622 1.356 . S
C625 C619 1.363 . S
C625 C620 1.379 . S
C625 N623 1.356 . S
N626 C618 1.356 . S
N626 H632 0.984 . S
N626 H633 0.984 . S
N627 C620 1.356 . S
N627 H630 0.984 . S
N627 H631 0.985 . S
H628 N623 0.984 . S
H629 N623 0.985 . S
H630 N627 0.984 . S
H631 N627 0.985 . S
H632 N626 0.984 . S
H633 N626 0.984 . S
H634 N622 0.984 . S
H635 N622 0.985 . S
C636 C637 1.363 . S
C636 C642 1.379 . S
C636 N644 1.356 . S
C637 C636 1.363 . S
C637 C643 1.363 . S
C638 C639 1.363 . S
C638 C643 1.379 . S
C638 N645 1.356 . S
C639 C638 1.363 . S
C639 C642 1.363 . S
N640 C642 1.356 . S
N640 H652 0.984 . S
N640 H653 0.985 . S
N641 C643 1.356 . S
N641 H646 0.984 . S
N641 H647 0.985 . S
C642 C636 1.379 . S
C642 C639 1.363 . S
C642 N640 1.356 . S
C643 C637 1.363 . S
C643 C638 1.379 . S
C643 N641 1.356 . S
N644 C636 1.356 . S
N644 H650 0.984 . S
N644 H651 0.984 . S
N645 C638 1.356 . S
N645 H648 0.984 . S
N645 H649 0.985 . S
H646 N641 0.984 . S
H647 N641 0.985 . S
H648 N645 0.984 . S
H649 N645 0.985 . S
H650 N644 0.984 . S
H651 N644 0.984 . S
H652 N640 0.984 . S
H653 N640 0.985 . S
C654 C655 1.363 . S
C654 C660 1.379 . S
C654 N662 1.356 . S
C655 C654 1.363 . S
C655 C661 1.363 1_554 S
C656 C657 1.363 1_556 S
C656 C661 1.379 . S
C656 N663 1.356 . S
C657 C656 1.363 1_554 S
C657 C660 1.363 . S
N658 C660 1.356 . S
N658 H670 0.984 . S
N658 H671 0.985 . S
N659 C661 1.356 . S
N659 H664 0.984 . S
N659 H665 0.985 . S
C660 C654 1.379 . S
C660 C657 1.363 . S
C660 N658 1.356 . S
C661 C655 1.363 1_556 S
C661 C656 1.379 . S
C661 N659 1.356 . S
N662 C654 1.356 . S
N662 H668 0.984 . S
N662 H669 0.984 . S
N663 C656 1.356 . S
N663 H666 0.984 . S
N663 H667 0.985 . S
H664 N659 0.984 . S
H665 N659 0.985 . S
H666 N663 0.984 . S
H667 N663 0.985 . S
H668 N662 0.984 . S
H669 N662 0.984 . S
H670 N658 0.984 . S
H671 N658 0.985 . S
C672 C673 1.363 1_556 S
C672 C678 1.379 . S
C672 N680 1.356 . S
C673 C672 1.363 1_554 S
C673 C679 1.363 . S
C674 C675 1.345 1_554 S
C674 C679 1.379 . S
C674 N681 1.356 . S
C675 C674 1.345 1_556 S
C675 C678 1.378 . S
N676 C678 1.356 . S
N676 H688 0.984 . S
N676 H689 0.985 . S
N677 C679 1.356 . S
N677 H682 0.984 . S
N677 H683 0.985 . S
C678 C672 1.379 . S
C678 C675 1.378 . S
C678 N676 1.356 . S
C679 C673 1.363 . S
C679 C674 1.379 . S
C679 N677 1.356 . S
N680 C672 1.356 . S
N680 H686 0.984 . S
N680 H687 0.984 . S
N681 C674 1.356 . S
N681 H684 0.984 . S
N681 H685 0.985 . S
H682 N677 0.984 . S
H683 N677 0.985 . S
H684 N681 0.984 . S
H685 N681 0.985 . S
H686 N680 0.984 . S
H687 N680 0.984 . S
H688 N676 0.984 . S
H689 N676 0.985 . S
C690 C691 1.363 . S
C690 C696 1.379 . S
C690 N698 1.356 . S
C691 C690 1.363 . S
C691 C697 1.363 . S
C692 C693 1.363 . S
C692 C697 1.379 . S
C692 N699 1.356 . S
C693 C692 1.363 . S
C693 C696 1.363 . S
N694 C696 1.356 . S
N694 H706 0.984 . S
N694 H707 0.985 . S
N695 C697 1.356 . S
N695 H700 0.984 . S
N695 H701 0.985 . S
C696 C690 1.379 . S
C696 C693 1.363 . S
C696 N694 1.356 . S
C697 C691 1.363 . S
C697 C692 1.379 . S
C697 N695 1.356 . S
N698 C690 1.356 . S
N698 H704 0.984 . S
N698 H705 0.984 . S
N699 C692 1.356 . S
N699 H702 0.984 . S
N699 H703 0.985 . S
H700 N695 0.984 . S
H701 N695 0.985 . S
H702 N699 0.984 . S
H703 N699 0.985 . S
H704 N698 0.984 . S
H705 N698 0.984 . S
H706 N694 0.984 . S
H707 N694 0.985 . S
C708 C709 1.363 . S
C708 C714 1.379 . S
C708 N716 1.356 . S
C709 C708 1.363 . S
C709 C715 1.363 . S
C710 C711 1.363 . S
C710 C715 1.379 . S
C710 N717 1.356 . S
C711 C710 1.363 . S
C711 C714 1.363 . S
N712 C714 1.356 . S
N712 H724 0.984 . S
N712 H725 0.985 . S
N713 C715 1.356 . S
N713 H718 0.984 . S
N713 H719 0.985 . S
C714 C708 1.379 . S
C714 C711 1.363 . S
C714 N712 1.356 . S
C715 C709 1.363 . S
C715 C710 1.379 . S
C715 N713 1.356 . S
N716 C708 1.356 . S
N716 H722 0.984 . S
N716 H723 0.984 . S
N717 C710 1.356 . S
N717 H720 0.984 . S
N717 H721 0.985 . S
H718 N713 0.984 . S
H719 N713 0.985 . S
H720 N717 0.984 . S
H721 N717 0.985 . S
H722 N716 0.984 . S
H723 N716 0.984 . S
H724 N712 0.984 . S
H725 N712 0.985 . S
C726 C727 1.363 . S
C726 C732 1.379 . S
C726 N734 1.356 . S
C727 C726 1.363 . S
C727 C733 1.363 . S
C728 C729 1.363 . S
C728 C733 1.379 . S
C728 N735 1.356 . S
C729 C728 1.363 . S
C729 C732 1.363 . S
N730 C732 1.356 . S
N730 H742 0.984 . S
N730 H743 0.985 . S
N731 C733 1.356 . S
N731 H736 0.984 . S
N731 H737 0.985 . S
C732 C726 1.379 . S
C732 C729 1.363 . S
C732 N730 1.356 . S
C733 C727 1.363 . S
C733 C728 1.379 . S
C733 N731 1.356 . S
N734 C726 1.356 . S
N734 H740 0.984 . S
N734 H741 0.984 . S
N735 C728 1.356 . S
N735 H738 0.984 . S
N735 H739 0.985 . S
H736 N731 0.984 . S
H737 N731 0.985 . S
H738 N735 0.984 . S
H739 N735 0.985 . S
H740 N734 0.984 . S
H741 N734 0.984 . S
H742 N730 0.984 . S
H743 N730 0.985 . S
C744 C745 1.363 . S
C744 C750 1.379 . S
C744 N752 1.356 . S
C745 C744 1.363 . S
C745 C751 1.363 . S
C746 C747 1.363 . S
C746 C751 1.379 . S
C746 N753 1.356 . S
C747 C746 1.363 . S
C747 C750 1.363 . S
N748 C750 1.356 . S
N748 H760 0.984 . S
N748 H761 0.985 . S
N749 C751 1.356 . S
N749 H754 0.984 . S
N749 H755 0.985 . S
C750 C744 1.379 . S
C750 C747 1.363 . S
C750 N748 1.356 . S
C751 C745 1.363 . S
C751 C746 1.379 . S
C751 N749 1.356 . S
N752 C744 1.356 . S
N752 H758 0.984 . S
N752 H759 0.984 . S
N753 C746 1.356 . S
N753 H756 0.984 . S
N753 H757 0.985 . S
H754 N749 0.984 . S
H755 N749 0.985 . S
H756 N753 0.984 . S
H757 N753 0.985 . S
H758 N752 0.984 . S
H759 N752 0.984 . S
H760 N748 0.984 . S
H761 N748 0.985 . S
C762 C763 1.363 1_556 S
C762 C768 1.379 . S
C762 N770 1.356 . S
C763 C762 1.363 1_554 S
C763 C769 1.363 . S
C764 C765 1.363 . S
C764 C769 1.379 . S
C764 N771 1.356 . S
C765 C764 1.363 . S
C765 C768 1.363 1_554 S
N766 C768 1.356 . S
N766 H778 0.984 . S
N766 H779 0.985 . S
N767 C769 1.356 . S
N767 H772 0.984 . S
N767 H773 0.985 . S
C768 C762 1.379 . S
C768 C765 1.363 1_556 S
C768 N766 1.356 . S
C769 C763 1.363 . S
C769 C764 1.379 . S
C769 N767 1.356 . S
N770 C762 1.356 . S
N770 H776 0.984 . S
N770 H777 0.984 . S
N771 C764 1.356 . S
N771 H774 0.984 . S
N771 H775 0.985 . S
H772 N767 0.984 . S
H773 N767 0.985 . S
H774 N771 0.984 . S
H775 N771 0.985 . S
H776 N770 0.984 . S
H777 N770 0.984 . S
H778 N766 0.984 . S
H779 N766 0.985 . S
C780 C781 1.363 . S
C780 C786 1.379 . S
C780 N788 1.356 . S
C781 C780 1.363 . S
C781 C787 1.363 . S
C782 C783 1.363 . S
C782 C787 1.379 . S
C782 N789 1.356 . S
C783 C782 1.363 . S
C783 C786 1.363 . S
N784 C786 1.356 . S
N784 H796 0.984 . S
N784 H797 0.985 . S
N785 C787 1.356 . S
N785 H790 0.984 . S
N785 H791 0.985 . S
C786 C780 1.379 . S
C786 C783 1.363 . S
C786 N784 1.356 . S
C787 C781 1.363 . S
C787 C782 1.379 . S
C787 N785 1.356 . S
N788 C780 1.356 . S
N788 H794 0.984 . S
N788 H795 0.984 . S
N789 C782 1.356 . S
N789 H792 0.984 . S
N789 H793 0.985 . S
H790 N785 0.984 . S
H791 N785 0.985 . S
H792 N789 0.984 . S
H793 N789 0.985 . S
H794 N788 0.984 . S
H795 N788 0.984 . S
H796 N784 0.984 . S
H797 N784 0.985 . S
C798 C799 1.363 . S
C798 C804 1.379 . S
C798 N806 1.356 . S
C799 C798 1.363 . S
C799 C805 1.363 . S
C800 C801 1.363 . S
C800 C805 1.379 . S
C800 N807 1.356 . S
C801 C800 1.363 . S
C801 C804 1.363 . S
N802 C804 1.356 . S
N802 H814 0.984 . S
N802 H815 0.985 . S
N803 C805 1.356 . S
N803 H808 0.984 . S
N803 H809 0.985 . S
C804 C798 1.379 . S
C804 C801 1.363 . S
C804 N802 1.356 . S
C805 C799 1.363 . S
C805 C800 1.379 . S
C805 N803 1.356 . S
N806 C798 1.356 . S
N806 H812 0.984 . S
N806 H813 0.984 . S
N807 C800 1.356 . S
N807 H810 0.984 . S
N807 H811 0.985 . S
H808 N803 0.984 . S
H809 N803 0.985 . S
H810 N807 0.984 . S
H811 N807 0.985 . S
H812 N806 0.984 . S
H813 N806 0.984 . S
H814 N802 0.984 . S
H815 N802 0.985 . S
C816 C817 1.363 . S
C816 C822 1.379 . S
C816 N824 1.356 . S
C817 C816 1.363 . S
C817 C823 1.363 . S
C818 C819 1.363 . S
C818 C823 1.379 . S
C818 N825 1.356 . S
C819 C818 1.363 . S
C819 C822 1.363 . S
N820 C822 1.356 . S
N820 H832 0.984 . S
N820 H833 0.985 . S
N821 C823 1.356 . S
N821 H826 0.984 . S
N821 H827 0.985 . S
C822 C816 1.379 . S
C822 C819 1.363 . S
C822 N820 1.356 . S
C823 C817 1.363 . S
C823 C818 1.379 . S
C823 N821 1.356 . S
N824 C816 1.356 . S
N824 H830 0.984 . S
N824 H831 0.984 . S
N825 C818 1.356 . S
N825 H828 0.984 . S
N825 H829 0.985 . S
H826 N821 0.984 . S
H827 N821 0.985 . S
H828 N825 0.984 . S
H829 N825 0.985 . S
H830 N824 0.984 . S
H831 N824 0.984 . S
H832 N820 0.984 . S
H833 N820 0.985 . S
C834 C835 1.363 . S
C834 C840 1.379 . S
C834 N842 1.356 . S
C835 C834 1.363 . S
C835 C841 1.363 . S
C836 C837 1.363 . S
C836 C841 1.379 . S
C836 N843 1.356 . S
C837 C836 1.363 . S
C837 C840 1.363 . S
N838 C840 1.356 . S
N838 H850 0.984 . S
N838 H851 0.985 . S
N839 C841 1.356 . S
N839 H844 0.984 . S
N839 H845 0.985 . S
C840 C834 1.379 . S
C840 C837 1.363 . S
C840 N838 1.356 . S
C841 C835 1.363 . S
C841 C836 1.379 . S
C841 N839 1.356 . S
N842 C834 1.356 . S
N842 H848 0.984 . S
N842 H849 0.984 . S
N843 C836 1.356 . S
N843 H846 0.984 . S
N843 H847 0.985 . S
H844 N839 0.984 . S
H845 N839 0.985 . S
H846 N843 0.984 . S
H847 N843 0.985 . S
H848 N842 0.984 . S
H849 N842 0.984 . S
H850 N838 0.984 . S
H851 N838 0.985 . S
C852 C853 1.363 . S
C852 C858 1.385 . S
C852 N860 1.356 . S
C853 C852 1.363 . S
C853 C859 1.363 . S
C854 C855 1.360 1_554 S
C854 C859 1.385 . S
C854 N861 1.353 1_554 S
C855 C854 1.360 1_556 S
C855 C858 1.360 1_556 S
N856 C858 1.353 1_556 S
N856 H868 0.986 . S
N856 H869 0.985 . S
N857 C859 1.356 . S
N857 H862 0.984 . S
N857 H863 0.985 . S
C858 C852 1.385 . S
C858 C855 1.360 1_554 S
C858 N856 1.353 1_554 S
C859 C853 1.363 . S
C859 C854 1.385 . S
C859 N857 1.356 . S
N860 C852 1.356 . S
N860 H866 0.984 . S
N860 H867 0.984 . S
N861 C854 1.353 1_556 S
N861 H864 0.984 . S
N861 H865 0.986 . S
H862 N857 0.984 . S
H863 N857 0.985 . S
H864 N861 0.984 . S
H865 N861 0.986 . S
H866 N860 0.984 . S
H867 N860 0.984 . S
H868 N856 0.986 . S
H869 N856 0.985 . S
C870 C871 1.363 . S
C870 C876 1.379 . S
C870 N878 1.356 . S
C871 C870 1.363 . S
C871 C877 1.363 . S
C872 C873 1.363 . S
C872 C877 1.379 . S
C872 N879 1.356 . S
C873 C872 1.363 . S
C873 C876 1.363 . S
N874 C876 1.356 . S
N874 H886 0.984 . S
N874 H887 0.985 . S
N875 C877 1.356 . S
N875 H880 0.984 . S
N875 H881 0.985 . S
C876 C870 1.379 . S
C876 C873 1.363 . S
C876 N874 1.356 . S
C877 C871 1.363 . S
C877 C872 1.379 . S
C877 N875 1.356 . S
N878 C870 1.356 . S
N878 H884 0.984 . S
N878 H885 0.984 . S
N879 C872 1.356 . S
N879 H882 0.984 . S
N879 H883 0.985 . S
H880 N875 0.984 . S
H881 N875 0.985 . S
H882 N879 0.984 . S
H883 N879 0.985 . S
H884 N878 0.984 . S
H885 N878 0.984 . S
H886 N874 0.984 . S
H887 N874 0.985 . S
C888 C889 1.363 . S
C888 C894 1.379 . S
C888 N896 1.356 . S
C889 C888 1.363 . S
C889 C895 1.363 . S
C890 C891 1.363 . S
C890 C895 1.379 . S
C890 N897 1.356 . S
C891 C890 1.363 . S
C891 C894 1.363 . S
N892 C894 1.356 . S
N892 H904 0.984 . S
N892 H905 0.985 . S
N893 C895 1.356 . S
N893 H898 0.984 . S
N893 H899 0.985 . S
C894 C888 1.379 . S
C894 C891 1.363 . S
C894 N892 1.356 . S
C895 C889 1.363 . S
C895 C890 1.379 . S
C895 N893 1.356 . S
N896 C888 1.356 . S
N896 H902 0.984 . S
N896 H903 0.984 . S
N897 C890 1.356 . S
N897 H900 0.984 . S
N897 H901 0.985 . S
H898 N893 0.984 . S
H899 N893 0.985 . S
H900 N897 0.984 . S
H901 N897 0.985 . S
H902 N896 0.984 . S
H903 N896 0.984 . S
H904 N892 0.984 . S
H905 N892 0.985 . S
C906 C907 1.363 . S
C906 C912 1.379 . S
C906 N914 1.356 . S
C907 C906 1.363 . S
C907 C913 1.363 . S
C908 C909 1.363 . S
C908 C913 1.379 . S
C908 N915 1.356 . S
C909 C908 1.363 . S
C909 C912 1.363 . S
N910 C912 1.356 . S
N910 H922 0.984 . S
N910 H923 0.985 . S
N911 C913 1.356 . S
N911 H916 0.984 . S
N911 H917 0.985 . S
C912 C906 1.379 . S
C912 C909 1.363 . S
C912 N910 1.356 . S
C913 C907 1.363 . S
C913 C908 1.379 . S
C913 N911 1.356 . S
N914 C906 1.356 . S
N914 H920 0.984 . S
N914 H921 0.984 . S
N915 C908 1.356 . S
N915 H918 0.984 . S
N915 H919 0.985 . S
H916 N911 0.984 . S
H917 N911 0.985 . S
H918 N915 0.984 . S
H919 N915 0.985 . S
H920 N914 0.984 . S
H921 N914 0.984 . S
H922 N910 0.984 . S
H923 N910 0.985 . S
C924 C925 1.363 . S
C924 C930 1.379 . S
C924 N932 1.356 . S
C925 C924 1.363 . S
C925 C931 1.363 . S
C926 C927 1.363 . S
C926 C931 1.379 . S
C926 N933 1.356 . S
C927 C926 1.363 . S
C927 C930 1.363 . S
N928 C930 1.356 . S
N928 H940 0.984 . S
N928 H941 0.985 . S
N929 C931 1.356 . S
N929 H934 0.984 . S
N929 H935 0.985 . S
C930 C924 1.379 . S
C930 C927 1.363 . S
C930 N928 1.356 . S
C931 C925 1.363 . S
C931 C926 1.379 . S
C931 N929 1.356 . S
N932 C924 1.356 . S
N932 H938 0.984 . S
N932 H939 0.984 . S
N933 C926 1.356 . S
N933 H936 0.984 . S
N933 H937 0.985 . S
H934 N929 0.984 . S
H935 N929 0.985 . S
H936 N933 0.984 . S
H937 N933 0.985 . S
H938 N932 0.984 . S
H939 N932 0.984 . S
H940 N928 0.984 . S
H941 N928 0.985 . S
C942 C943 1.363 . S
C942 C948 1.379 . S
C942 N950 1.356 . S
C943 C942 1.363 . S
C943 C949 1.363 . S
C944 C945 1.363 . S
C944 C949 1.379 . S
C944 N951 1.356 . S
C945 C944 1.363 . S
C945 C948 1.363 . S
N946 C948 1.356 . S
N946 H958 0.984 . S
N946 H959 0.985 . S
N947 C949 1.356 . S
N947 H952 0.984 . S
N947 H953 0.985 . S
C948 C942 1.379 . S
C948 C945 1.363 . S
C948 N946 1.356 . S
C949 C943 1.363 . S
C949 C944 1.379 . S
C949 N947 1.356 . S
N950 C942 1.356 . S
N950 H956 0.984 . S
N950 H957 0.984 . S
N951 C944 1.356 . S
N951 H954 0.984 . S
N951 H955 0.985 . S
H952 N947 0.984 . S
H953 N947 0.985 . S
H954 N951 0.984 . S
H955 N951 0.985 . S
H956 N950 0.984 . S
H957 N950 0.984 . S
H958 N946 0.984 . S
H959 N946 0.985 . S
C960 C961 1.363 . S
C960 C966 1.379 . S
C960 N968 1.356 . S
C961 C960 1.363 . S
C961 C967 1.363 . S
C962 C963 1.363 . S
C962 C967 1.379 . S
C962 N969 1.356 . S
C963 C962 1.363 . S
C963 C966 1.363 . S
N964 C966 1.356 . S
N964 H976 0.984 . S
N964 H977 0.985 . S
N965 C967 1.356 . S
N965 H970 0.984 . S
N965 H971 0.985 . S
C966 C960 1.379 . S
C966 C963 1.363 . S
C966 N964 1.356 . S
C967 C961 1.363 . S
C967 C962 1.379 . S
C967 N965 1.356 . S
N968 C960 1.356 . S
N968 H974 0.984 . S
N968 H975 0.984 . S
N969 C962 1.356 . S
N969 H972 0.984 . S
N969 H973 0.985 . S
H970 N965 0.984 . S
H971 N965 0.985 . S
H972 N969 0.984 . S
H973 N969 0.985 . S
H974 N968 0.984 . S
H975 N968 0.984 . S
H976 N964 0.984 . S
H977 N964 0.985 . S
C978 C979 1.363 . S
C978 C984 1.379 . S
C978 N986 1.356 . S
C979 C978 1.363 . S
C979 C985 1.363 . S
C980 C981 1.363 . S
C980 C985 1.379 . S
C980 N987 1.356 . S
C981 C980 1.363 . S
C981 C984 1.363 . S
N982 C984 1.356 . S
N982 H994 0.984 . S
N982 H995 0.985 . S
N983 C985 1.356 . S
N983 H988 0.984 . S
N983 H989 0.985 . S
C984 C978 1.379 . S
C984 C981 1.363 . S
C984 N982 1.356 . S
C985 C979 1.363 . S
C985 C980 1.379 . S
C985 N983 1.356 . S
N986 C978 1.356 . S
N986 H992 0.984 . S
N986 H993 0.984 . S
N987 C980 1.356 . S
N987 H990 0.984 . S
N987 H991 0.985 . S
H988 N983 0.984 . S
H989 N983 0.985 . S
H990 N987 0.984 . S
H991 N987 0.985 . S
H992 N986 0.984 . S
H993 N986 0.984 . S
H994 N982 0.984 . S
H995 N982 0.985 . S
C996 C997 1.363 . S
C996 C1002 1.379 . S
C996 N1004 1.356 . S
C997 C996 1.363 . S
C997 C1003 1.363 . S
C998 C999 1.363 . S
C998 C1003 1.379 . S
C998 N1005 1.356 . S
C999 C998 1.363 . S
C999 C1002 1.363 . S
N1000 C1002 1.356 . S
N1000 H1012 0.984 . S
N1000 H1013 0.985 . S
N1001 C1003 1.356 . S
N1001 H1006 0.984 . S
N1001 H1007 0.985 . S
C1002 C996 1.379 . S
C1002 C999 1.363 . S
C1002 N1000 1.356 . S
C1003 C997 1.363 . S
C1003 C998 1.379 . S
C1003 N1001 1.356 . S
N1004 C996 1.356 . S
N1004 H1010 0.984 . S
N1004 H1011 0.984 . S
N1005 C998 1.356 . S
N1005 H1008 0.984 . S
N1005 H1009 0.985 . S
H1006 N1001 0.984 . S
H1007 N1001 0.985 . S
H1008 N1005 0.984 . S
H1009 N1005 0.985 . S
H1010 N1004 0.984 . S
H1011 N1004 0.984 . S
H1012 N1000 0.984 . S
H1013 N1000 0.985 . S
C1014 C1015 1.363 . S
C1014 C1020 1.379 . S
C1014 N1022 1.356 . S
C1015 C1014 1.363 . S
C1015 C1021 1.363 . S
C1016 C1017 1.363 . S
C1016 C1021 1.379 . S
C1016 N1023 1.356 . S
C1017 C1016 1.363 . S
C1017 C1020 1.363 . S
N1018 C1020 1.356 . S
N1018 H1030 0.984 . S
N1018 H1031 0.985 . S
N1019 C1021 1.356 . S
N1019 H1024 0.984 . S
N1019 H1025 0.985 . S
C1020 C1014 1.379 . S
C1020 C1017 1.363 . S
C1020 N1018 1.356 . S
C1021 C1015 1.363 . S
C1021 C1016 1.379 . S
C1021 N1019 1.356 . S
N1022 C1014 1.356 . S
N1022 H1028 0.984 . S
N1022 H1029 0.984 . S
N1023 C1016 1.356 . S
N1023 H1026 0.984 . S
N1023 H1027 0.985 . S
H1024 N1019 0.984 . S
H1025 N1019 0.985 . S
H1026 N1023 0.984 . S
H1027 N1023 0.985 . S
H1028 N1022 0.984 . S
H1029 N1022 0.984 . S
H1030 N1018 0.984 . S
H1031 N1018 0.985 . S
C1032 C1033 1.363 . S
C1032 C1038 1.379 . S
C1032 N1040 1.356 . S
C1033 C1032 1.363 . S
C1033 C1039 1.363 . S
C1034 C1035 1.363 . S
C1034 C1039 1.379 . S
C1034 N1041 1.356 . S
C1035 C1034 1.363 . S
C1035 C1038 1.363 . S
N1036 C1038 1.356 . S
N1036 H1048 0.984 . S
N1036 H1049 0.985 . S
N1037 C1039 1.356 . S
N1037 H1042 0.984 . S
N1037 H1043 0.985 . S
C1038 C1032 1.379 . S
C1038 C1035 1.363 . S
C1038 N1036 1.356 . S
C1039 C1033 1.363 . S
C1039 C1034 1.379 . S
C1039 N1037 1.356 . S
N1040 C1032 1.356 . S
N1040 H1046 0.984 . S
N1040 H1047 0.984 . S
N1041 C1034 1.356 . S
N1041 H1044 0.984 . S
N1041 H1045 0.985 . S
H1042 N1037 0.984 . S
H1043 N1037 0.985 . S
H1044 N1041 0.984 . S
H1045 N1041 0.985 . S
H1046 N1040 0.984 . S
H1047 N1040 0.984 . S
H1048 N1036 0.984 . S
H1049 N1036 0.985 . S
C1050 C1051 1.363 . S
C1050 C1056 1.379 . S
C1050 N1058 1.356 . S
C1051 C1050 1.363 . S
C1051 C1057 1.363 . S
C1052 C1053 1.363 . S
C1052 C1057 1.379 . S
C1052 N1059 1.356 . S
C1053 C1052 1.363 . S
C1053 C1056 1.363 . S
N1054 C1056 1.356 . S
N1054 H1066 0.984 . S
N1054 H1067 0.985 . S
N1055 C1057 1.356 . S
N1055 H1060 0.984 . S
N1055 H1061 0.985 . S
C1056 C1050 1.379 . S
C1056 C1053 1.363 . S
C1056 N1054 1.356 . S
C1057 C1051 1.363 . S
C1057 C1052 1.379 . S
C1057 N1055 1.356 . S
N1058 C1050 1.356 . S
N1058 H1064 0.984 . S
N1058 H1065 0.984 . S
N1059 C1052 1.356 . S
N1059 H1062 0.984 . S
N1059 H1063 0.985 . S
H1060 N1055 0.984 . S
H1061 N1055 0.985 . S
H1062 N1059 0.984 . S
H1063 N1059 0.985 . S
H1064 N1058 0.984 . S
H1065 N1058 0.984 . S
H1066 N1054 0.984 . S
H1067 N1054 0.985 . S
C1068 C1069 1.363 . S
C1068 C1074 1.379 . S
C1068 N1076 1.356 . S
C1069 C1068 1.363 . S
C1069 C1075 1.363 . S
C1070 C1071 1.363 . S
C1070 C1075 1.379 . S
C1070 N1077 1.356 . S
C1071 C1070 1.363 . S
C1071 C1074 1.363 . S
N1072 C1074 1.356 . S
N1072 H1084 0.984 . S
N1072 H1085 0.985 . S
N1073 C1075 1.356 . S
N1073 H1078 0.984 . S
N1073 H1079 0.985 . S
C1074 C1068 1.379 . S
C1074 C1071 1.363 . S
C1074 N1072 1.356 . S
C1075 C1069 1.363 . S
C1075 C1070 1.379 . S
C1075 N1073 1.356 . S
N1076 C1068 1.356 . S
N1076 H1082 0.984 . S
N1076 H1083 0.984 . S
N1077 C1070 1.356 . S
N1077 H1080 0.984 . S
N1077 H1081 0.985 . S
H1078 N1073 0.984 . S
H1079 N1073 0.985 . S
H1080 N1077 0.984 . S
H1081 N1077 0.985 . S
H1082 N1076 0.984 . S
H1083 N1076 0.984 . S
H1084 N1072 0.984 . S
H1085 N1072 0.985 . S
C1086 C1087 1.363 . S
C1086 C1092 1.379 . S
C1086 N1094 1.356 . S
C1087 C1086 1.363 . S
C1087 C1093 1.363 . S
C1088 C1089 1.363 . S
C1088 C1093 1.379 . S
C1088 N1095 1.356 . S
C1089 C1088 1.363 . S
C1089 C1092 1.363 . S
N1090 C1092 1.356 . S
N1090 H1102 0.984 . S
N1090 H1103 0.985 . S
N1091 C1093 1.356 . S
N1091 H1096 0.984 . S
N1091 H1097 0.985 . S
C1092 C1086 1.379 . S
C1092 C1089 1.363 . S
C1092 N1090 1.356 . S
C1093 C1087 1.363 . S
C1093 C1088 1.379 . S
C1093 N1091 1.356 . S
N1094 C1086 1.356 . S
N1094 H1100 0.984 . S
N1094 H1101 0.984 . S
N1095 C1088 1.356 . S
N1095 H1098 0.984 . S
N1095 H1099 0.985 . S
H1096 N1091 0.984 . S
H1097 N1091 0.985 . S
H1098 N1095 0.984 . S
H1099 N1095 0.985 . S
H1100 N1094 0.984 . S
H1101 N1094 0.984 . S
H1102 N1090 0.984 . S
H1103 N1090 0.985 . S
C1104 C1105 1.363 . S
C1104 C1110 1.379 . S
C1104 N1112 1.356 . S
C1105 C1104 1.363 . S
C1105 C1111 1.363 . S
C1106 C1107 1.363 . S
C1106 C1111 1.379 . S
C1106 N1113 1.356 . S
C1107 C1106 1.363 . S
C1107 C1110 1.363 . S
N1108 C1110 1.356 . S
N1108 H1120 0.984 . S
N1108 H1121 0.985 . S
N1109 C1111 1.356 . S
N1109 H1114 0.984 . S
N1109 H1115 0.985 . S
C1110 C1104 1.379 . S
C1110 C1107 1.363 . S
C1110 N1108 1.356 . S
C1111 C1105 1.363 . S
C1111 C1106 1.379 . S
C1111 N1109 1.356 . S
N1112 C1104 1.356 . S
N1112 H1118 0.984 . S
N1112 H1119 0.984 . S
N1113 C1106 1.356 . S
N1113 H1116 0.984 . S
N1113 H1117 0.985 . S
H1114 N1109 0.984 . S
H1115 N1109 0.985 . S
H1116 N1113 0.984 . S
H1117 N1113 0.985 . S
H1118 N1112 0.984 . S
H1119 N1112 0.984 . S
H1120 N1108 0.984 . S
H1121 N1108 0.985 . S
C1122 C1123 1.363 . S
C1122 C1128 1.379 . S
C1122 N1130 1.356 . S
C1123 C1122 1.363 . S
C1123 C1129 1.363 . S
C1124 C1125 1.363 . S
C1124 C1129 1.379 . S
C1124 N1131 1.356 . S
C1125 C1124 1.363 . S
C1125 C1128 1.363 . S
N1126 C1128 1.356 . S
N1126 H1138 0.984 . S
N1126 H1139 0.985 . S
N1127 C1129 1.356 . S
N1127 H1132 0.984 . S
N1127 H1133 0.985 . S
C1128 C1122 1.379 . S
C1128 C1125 1.363 . S
C1128 N1126 1.356 . S
C1129 C1123 1.363 . S
C1129 C1124 1.379 . S
C1129 N1127 1.356 . S
N1130 C1122 1.356 . S
N1130 H1136 0.984 . S
N1130 H1137 0.984 . S
N1131 C1124 1.356 . S
N1131 H1134 0.984 . S
N1131 H1135 0.985 . S
H1132 N1127 0.984 . S
H1133 N1127 0.985 . S
H1134 N1131 0.984 . S
H1135 N1131 0.985 . S
H1136 N1130 0.984 . S
H1137 N1130 0.984 . S
H1138 N1126 0.984 . S
H1139 N1126 0.985 . S
C1140 C1141 1.363 . S
C1140 C1146 1.379 . S
C1140 N1148 1.356 . S
C1141 C1140 1.363 . S
C1141 C1147 1.363 . S
C1142 C1143 1.363 . S
C1142 C1147 1.379 . S
C1142 N1149 1.356 . S
C1143 C1142 1.363 . S
C1143 C1146 1.363 . S
N1144 C1146 1.356 . S
N1144 H1156 0.984 . S
N1144 H1157 0.985 . S
N1145 C1147 1.356 . S
N1145 H1150 0.984 . S
N1145 H1151 0.985 . S
C1146 C1140 1.379 . S
C1146 C1143 1.363 . S
C1146 N1144 1.356 . S
C1147 C1141 1.363 . S
C1147 C1142 1.379 . S
C1147 N1145 1.356 . S
N1148 C1140 1.356 . S
N1148 H1154 0.984 . S
N1148 H1155 0.984 . S
N1149 C1142 1.356 . S
N1149 H1152 0.984 . S
N1149 H1153 0.985 . S
H1150 N1145 0.984 . S
H1151 N1145 0.985 . S
H1152 N1149 0.984 . S
H1153 N1149 0.985 . S
H1154 N1148 0.984 . S
H1155 N1148 0.984 . S
H1156 N1144 0.984 . S
H1157 N1144 0.985 . S
C1158 C1159 1.363 . S
C1158 C1164 1.379 . S
C1158 N1166 1.356 . S
C1159 C1158 1.363 . S
C1159 C1165 1.363 . S
C1160 C1161 1.363 . S
C1160 C1165 1.379 . S
C1160 N1167 1.356 . S
C1161 C1160 1.363 . S
C1161 C1164 1.363 . S
N1162 C1164 1.356 . S
N1162 H1174 0.984 . S
N1162 H1175 0.985 . S
N1163 C1165 1.356 . S
N1163 H1168 0.984 . S
N1163 H1169 0.985 . S
C1164 C1158 1.379 . S
C1164 C1161 1.363 . S
C1164 N1162 1.356 . S
C1165 C1159 1.363 . S
C1165 C1160 1.379 . S
C1165 N1163 1.356 . S
N1166 C1158 1.356 . S
N1166 H1172 0.984 . S
N1166 H1173 0.984 . S
N1167 C1160 1.356 . S
N1167 H1170 0.984 . S
N1167 H1171 0.985 . S
H1168 N1163 0.984 . S
H1169 N1163 0.985 . S
H1170 N1167 0.984 . S
H1171 N1167 0.985 . S
H1172 N1166 0.984 . S
H1173 N1166 0.984 . S
H1174 N1162 0.984 . S
H1175 N1162 0.985 . S
C603 C509 1.512 . S
C601 C35 1.397 . S
C621 C527 1.604 . S
C619 C115 1.421 . S
C639 C535 1.512 . S
C637 C177 1.408 . S
C655 C221 1.410 . S
C657 C501 1.608 . S
C673 C283 1.398 1_554 S
C675 C496 1.504 1_556 S
C691 C363 1.423 . S
C693 C514 1.604 . S
C711 C522 1.512 . S
C709 C407 1.400 . S
C729 C540 1.604 . S
C727 C469 1.411 . S
C745 C159 1.398 . S
C747 C561 1.512 . S
C765 C579 1.604 . S
C763 C239 1.419 . S
C781 C53 1.408 . S
C783 C587 1.515 . S
C801 C553 1.604 . S
C799 C97 1.413 . S
C817 C425 1.408 . S
C819 C548 1.511 . S
C835 C487 1.423 . S
C837 C566 1.601 . S
C855 C574 1.508 1_556 S
C853 C301 1.411 1_554 S
C871 C345 1.410 . S
C873 C592 1.604 . S
C891 C530 1.744 . S
C889 C29 1.725 . S
C909 C545 1.700 . S
C907 C109 1.672 . S
C925 C171 1.674 . S
C927 C504 1.744 . S
C943 C215 1.725 . S
C945 C519 1.701 . S
C961 C277 1.724 . S
C963 C543 1.743 . S
C981 C506 1.700 . S
C979 C357 1.674 . S
C999 C517 1.744 . S
C997 C401 1.726 . S
C1017 C532 1.700 . S
C1015 C463 1.723 . S
C1035 C582 1.744 . S
C1033 C153 1.724 . S
C1053 C597 1.700 . S
C1051 C233 1.672 . S
C1069 C47 1.674 . S
C1071 C556 1.743 . S
C1089 C571 1.700 . S
C1087 C91 1.727 . S
C1107 C595 1.744 . S
C1105 C419 1.672 . S
C1123 C481 1.674 . S
C1125 C558 1.700 . S
C1143 C569 1.744 . S
C1141 C295 1.675 . S
C1161 C584 1.700 . S
C1159 C339 1.725 . S
