# Generated by pormake.
# Topology nom, (4,4)-cn, num edge types: 1
# Building blocks:
#     Node 0, Type 0, BuildingBlock: MIFKUJ_clean_linker_1, # of connection points: 4
#     Node 1, Type 0, BuildingBlock: MIFKUJ_clean_linker_1, # of connection points: 4
#     Node 2, Type 0, BuildingBlock: MIFKUJ_clean_linker_1, # of connection points: 4
#     Node 3, Type 0, BuildingBlock: MIFKUJ_clean_linker_1, # of connection points: 4
#     Node 4, Type 0, BuildingBlock: MIFKUJ_clean_linker_1, # of connection points: 4
#     Node 5, Type 0, BuildingBlock: MIFKUJ_clean_linker_1, # of connection points: 4
#     Node 6, Type 1, BuildingBlock: AZAVOO_clean_sbu_0, # of connection points: 4
#     Node 7, Type 1, BuildingBlock: AZAVOO_clean_sbu_0, # of connection points: 4
#     Node 8, Type 1, BuildingBlock: AZAVOO_clean_sbu_0, # of connection points: 4
#     Node 9, Type 1, BuildingBlock: AZAVOO_clean_sbu_0, # of connection points: 4
#     Node 10, Type 1, BuildingBlock: AZAVOO_clean_sbu_0, # of connection points: 4
#     Node 11, Type 1, BuildingBlock: AZAVOO_clean_sbu_0, # of connection points: 4
#     Edge 12, Type (0, 1), BuildingBlock: OJICUG_clean_linker_0, # of connection points: 2
#     Edge 13, Type (0, 1), BuildingBlock: OJICUG_clean_linker_0, # of connection points: 2
#     Edge 14, Type (0, 1), BuildingBlock: OJICUG_clean_linker_0, # of connection points: 2
#     Edge 15, Type (0, 1), BuildingBlock: OJICUG_clean_linker_0, # of connection points: 2
#     Edge 16, Type (0, 1), BuildingBlock: OJICUG_clean_linker_0, # of connection points: 2
#     Edge 17, Type (0, 1), BuildingBlock: OJICUG_clean_linker_0, # of connection points: 2
#     Edge 18, Type (0, 1), BuildingBlock: OJICUG_clean_linker_0, # of connection points: 2
#     Edge 19, Type (0, 1), BuildingBlock: OJICUG_clean_linker_0, # of connection points: 2
#     Edge 20, Type (0, 1), BuildingBlock: OJICUG_clean_linker_0, # of connection points: 2
#     Edge 21, Type (0, 1), BuildingBlock: OJICUG_clean_linker_0, # of connection points: 2
#     Edge 22, Type (0, 1), BuildingBlock: OJICUG_clean_linker_0, # of connection points: 2
#     Edge 23, Type (0, 1), BuildingBlock: OJICUG_clean_linker_0, # of connection points: 2
#     Edge 24, Type (0, 1), BuildingBlock: OJICUG_clean_linker_0, # of connection points: 2
#     Edge 25, Type (0, 1), BuildingBlock: OJICUG_clean_linker_0, # of connection points: 2
#     Edge 26, Type (0, 1), BuildingBlock: OJICUG_clean_linker_0, # of connection points: 2
#     Edge 27, Type (0, 1), BuildingBlock: OJICUG_clean_linker_0, # of connection points: 2
#     Edge 28, Type (0, 1), BuildingBlock: OJICUG_clean_linker_0, # of connection points: 2
#     Edge 29, Type (0, 1), BuildingBlock: OJICUG_clean_linker_0, # of connection points: 2
#     Edge 30, Type (0, 1), BuildingBlock: OJICUG_clean_linker_0, # of connection points: 2
#     Edge 31, Type (0, 1), BuildingBlock: OJICUG_clean_linker_0, # of connection points: 2
#     Edge 32, Type (0, 1), BuildingBlock: OJICUG_clean_linker_0, # of connection points: 2
#     Edge 33, Type (0, 1), BuildingBlock: OJICUG_clean_linker_0, # of connection points: 2
#     Edge 34, Type (0, 1), BuildingBlock: OJICUG_clean_linker_0, # of connection points: 2
#     Edge 35, Type (0, 1), BuildingBlock: OJICUG_clean_linker_0, # of connection points: 2
# Relax obj value: 0.035
# Max RMSD: 0.157
# Mean RMSD: 0.124
data_MOF--net-nom--node1-AZAVOO_clean_sbu_0--node2-MIFKUJ_clean_linker_1--edge1-OJICUG_clean_linker_0
_symmetry_space_group_name_H-M    P1
_symmetry_Int_Tables_number       1
_symmetry_cell_setting            triclinic
loop_
_symmetry_equiv_pos_as_xyz
'x, y, z'
_cell_length_a     41.718098
_cell_length_b     42.131419
_cell_length_c     42.097136
_cell_angle_alpha  91.543359
_cell_angle_beta   91.444725
_cell_angle_gamma 120.11133
loop_
_atom_site_label
_atom_site_type_symbol
_atom_site_fract_x
_atom_site_fract_y
_atom_site_fract_z
_atom_type_partial_charge
H0 H 0.96747 0.44822 0.26879 0.0
H1 H 0.92251 0.42347 0.22404 0.0
H2 H 0.8651 0.47591 0.26365 0.0
H3 H 0.91201 0.50274 0.30741 0.0
H4 H 0.01597 0.51901 0.28725 0.0
H5 H 0.90203 0.41804 0.33286 0.0
H6 H 0.83667 0.39665 0.34207 0.0
H7 H 0.86937 0.49348 0.40261 0.0
H8 H 0.93406 0.51562 0.39189 0.0
H9 H 0.03511 0.56242 0.42109 0.0
H10 H 0.08127 0.58114 0.46532 0.0
H11 H 0.13 0.52437 0.41803 0.0
H12 H 0.08399 0.50598 0.37371 0.0
H13 H 0.98272 0.49409 0.39976 0.0
H14 H 0.07786 0.5986 0.35986 0.0
H15 H 0.13918 0.64567 0.34467 0.0
H16 H 0.14148 0.56826 0.2766 0.0
H17 H 0.08044 0.52076 0.29274 0.0
C18 C 0.94289 0.47685 0.29185 0.0
C19 C 0.9453 0.45454 0.2678 0.0
C20 C 0.91913 0.43996 0.24235 0.0
C21 C 0.8895 0.44699 0.2403 0.0
C22 C 0.88746 0.46988 0.26423 0.0
C23 C 0.91409 0.48496 0.28954 0.0
C24 C 0.9711 0.49173 0.31883 0.0
C25 C 0.00867 0.51289 0.31178 0.0
C26 C 0.96163 0.48591 0.35114 0.0
C27 C 0.9228 0.46893 0.36092 0.0
C28 C 0.89505 0.43445 0.34831 0.0
C29 C 0.85777 0.42208 0.35388 0.0
C30 C 0.8479 0.44378 0.37259 0.0
C31 C 0.87607 0.4766 0.38749 0.0
C32 C 0.9131 0.48913 0.38158 0.0
C33 C 0.05613 0.53281 0.39415 0.0
C34 C 0.05586 0.55419 0.42019 0.0
C35 C 0.08237 0.56508 0.44529 0.0
C36 C 0.10918 0.5542 0.44504 0.0
C37 C 0.10955 0.533 0.41884 0.0
C38 C 0.0834 0.52261 0.39352 0.0
C39 C 0.02735 0.52029 0.36794 0.0
C40 C 0.98995 0.49951 0.37513 0.0
C41 C 0.03672 0.52835 0.33601 0.0
C42 C 0.07479 0.55601 0.32774 0.0
C43 C 0.09187 0.59151 0.34212 0.0
C44 C 0.12673 0.61855 0.33314 0.0
C45 C 0.14512 0.61072 0.30938 0.0
C46 C 0.12819 0.57501 0.29525 0.0
C47 C 0.09324 0.54792 0.30427 0.0
H48 H 0.42176 0.95289 0.54156 0.0
H49 H 0.38156 0.89231 0.56182 0.0
H50 H 0.45219 0.85423 0.5238 0.0
H51 H 0.49279 0.91536 0.50371 0.0
H52 H 0.49329 2e-05 0.55761 0.0
H53 H 0.42277 0.92615 0.4625 0.0
H54 H 0.40317 0.87911 0.41968 0.0
H55 H 0.51641 0.92979 0.39022 0.0
H56 H 0.53603 0.97431 0.43461 0.0
H57 H 0.58849 0.08409 0.45549 0.0
H58 H 0.61158 0.14326 0.43102 0.0
H59 H 0.52675 0.15672 0.47592 0.0
H60 H 0.50473 0.09829 0.50092 0.0
H61 H 0.52034 0.02551 0.4442 0.0
H62 H 0.59417 0.09214 0.53557 0.0
H63 H 0.62247 0.13793 0.57985 0.0
H64 H 0.51375 0.10393 0.61427 0.0
H65 H 0.48555 0.0582 0.56992 0.0
C66 C 0.46021 0.93863 0.52107 0.0
C67 C 0.42867 0.93155 0.5376 0.0
C68 C 0.40574 0.89695 0.54919 0.0
C69 C 0.41386 0.86864 0.54449 0.0
C70 C 0.44514 0.8755 0.5275 0.0
C71 C 0.46833 0.91035 0.51607 0.0
C72 C 0.48472 0.97607 0.51002 0.0
C73 C 0.49895 0.00558 0.53273 0.0
C74 C 0.49371 0.98313 0.47776 0.0
C75 C 0.48107 0.95354 0.45228 0.0
C76 C 0.44352 0.92647 0.44736 0.0
C77 C 0.43223 0.89985 0.42241 0.0
C78 C 0.4581 0.90026 0.40124 0.0
C79 C 0.49562 0.92764 0.40627 0.0
C80 C 0.50693 0.95364 0.43153 0.0
C81 C 0.54506 0.08692 0.48013 0.0
C82 C 0.57537 0.10018 0.46044 0.0
C83 C 0.58832 0.13387 0.44631 0.0
C84 C 0.57084 0.15467 0.45125 0.0
C85 C 0.54128 0.1418 0.47191 0.0
C86 C 0.52858 0.1083 0.48623 0.0
C87 C 0.52796 0.0492 0.49164 0.0
C88 C 0.51504 0.01976 0.46909 0.0
C89 C 0.52095 0.04202 0.52404 0.0
C90 C 0.53772 0.07177 0.54938 0.0
C91 C 0.57638 0.09491 0.55238 0.0
C92 C 0.59254 0.12089 0.57778 0.0
C93 C 0.57033 0.12448 0.60054 0.0
C94 C 0.53156 0.10204 0.59695 0.0
C95 C 0.51543 0.07575 0.57175 0.0
H96 H 0.55773 0.58233 0.69679 0.0
H97 H 0.53965 0.60589 0.74242 0.0
H98 H 0.42451 0.5389 0.71049 0.0
H99 H 0.44275 0.51387 0.66618 0.0
H100 H 0.53783 0.51026 0.68241 0.0
H101 H 0.50701 0.59952 0.63395 0.0
H102 H 0.45834 0.61485 0.62391 0.0
H103 H 0.39332 0.5119 0.56994 0.0
H104 H 0.44063 0.49585 0.58162 0.0
H105 H 0.49194 0.45344 0.55283 0.0
H106 H 0.51203 0.43115 0.50752 0.0
H107 H 0.62529 0.49323 0.5449 0.0
H108 H 0.60502 0.51528 0.59041 0.0
H109 H 0.50956 0.52172 0.56964 0.0
H110 H 0.51066 0.42491 0.61324 0.0
H111 H 0.52491 0.37906 0.63193 0.0
H112 H 0.61114 0.46116 0.69593 0.0
H113 H 0.59802 0.50757 0.67577 0.0
C114 C 0.50167 0.54684 0.67772 0.0
C115 C 0.52858 0.57268 0.69973 0.0
C116 C 0.51819 0.58635 0.72571 0.0
C117 C 0.48059 0.57448 0.73023 0.0
C118 C 0.45369 0.54836 0.70816 0.0
C119 C 0.46409 0.53438 0.68244 0.0
C120 C 0.51315 0.532 0.65066 0.0
C121 C 0.53254 0.51361 0.65771 0.0
C122 C 0.50339 0.53363 0.61845 0.0
C123 C 0.47713 0.54618 0.60917 0.0
C124 C 0.48228 0.58034 0.61992 0.0
C125 C 0.45463 0.58924 0.61383 0.0
C126 C 0.42169 0.56432 0.5965 0.0
C127 C 0.41793 0.53133 0.58398 0.0
C128 C 0.4452 0.52229 0.59039 0.0
C129 C 0.54702 0.48608 0.5749 0.0
C130 C 0.52106 0.46209 0.55135 0.0
C131 C 0.5325 0.44916 0.52565 0.0
C132 C 0.57018 0.4605 0.52279 0.0
C133 C 0.5961 0.48422 0.54654 0.0
C134 C 0.58456 0.4967 0.57252 0.0
C135 C 0.535 0.50086 0.60147 0.0
C136 C 0.51581 0.51932 0.59433 0.0
C137 C 0.54196 0.49648 0.63359 0.0
C138 C 0.55369 0.46992 0.6427 0.0
C139 C 0.53347 0.43342 0.63053 0.0
C140 C 0.54122 0.40701 0.64165 0.0
C141 C 0.56894 0.41634 0.66562 0.0
C142 C 0.58987 0.45312 0.6772 0.0
C143 C 0.58226 0.47966 0.66586 0.0
H144 H 0.03922 0.59257 0.77334 0.0
H145 H 0.07929 0.60955 0.72813 0.0
H146 H 0.12666 0.54582 0.7635 0.0
H147 H 0.08476 0.5271 0.80735 0.0
H148 H 0.98649 0.52177 0.78903 0.0
H149 H 0.11022 0.61885 0.83647 0.0
H150 H 0.17476 0.63377 0.845 0.0
H151 H 0.13805 0.53791 0.90085 0.0
H152 H 0.07398 0.52222 0.89101 0.0
H153 H 0.98693 0.48881 0.92205 0.0
H154 H 0.94551 0.46899 0.96633 0.0
H155 H 0.88142 0.5119 0.92204 0.0
H156 H 0.92361 0.5326 0.87807 0.0
H157 H 0.03217 0.55079 0.90182 0.0
H158 H 0.93152 0.4462 0.86017 0.0
H159 H 0.87106 0.39647 0.84108 0.0
H160 H 0.86387 0.46734 0.77236 0.0
H161 H 0.92372 0.5179 0.793 0.0
C162 C 0.0596 0.55924 0.79404 0.0
C163 C 0.05819 0.58219 0.7712 0.0
C164 C 0.08132 0.59208 0.74551 0.0
C165 C 0.10644 0.57929 0.74221 0.0
C166 C 0.10737 0.55585 0.76498 0.0
C167 C 0.08384 0.54554 0.7904 0.0
C168 C 0.03457 0.54867 0.82092 0.0
C169 C -0.00372 0.52891 0.81374 0.0
C170 C 0.04772 0.55541 0.85314 0.0
C171 C 0.08718 0.56899 0.86252 0.0
C172 C 0.11618 0.6013 0.85079 0.0
C173 C 0.15305 0.60995 0.85591 0.0
C174 C 0.16139 0.58663 0.87315 0.0
C175 C 0.13246 0.55596 0.88688 0.0
C176 C 0.0958 0.54718 0.88154 0.0
C177 C 0.95829 0.51208 0.89667 0.0
C178 C 0.96416 0.49428 0.92198 0.0
C179 C 0.94036 0.48277 0.94719 0.0
C180 C 0.91026 0.48892 0.94765 0.0
C181 C 0.90466 0.50718 0.92251 0.0
C182 C 0.92847 0.51863 0.89721 0.0
C183 C 0.98376 0.52419 0.86999 0.0
C184 C 0.02207 0.54452 0.87715 0.0
C185 C 0.97072 0.51486 0.83781 0.0
C186 C 0.93199 0.48615 0.82851 0.0
C187 C 0.91651 0.4515 0.84167 0.0
C188 C 0.8822 0.42273 0.83019 0.0
C189 C 0.86276 0.42766 0.80481 0.0
C190 C 0.87793 0.46259 0.79203 0.0
C191 C 0.9122 0.49153 0.80377 0.0
H192 H 0.57601 0.08672 0.99004 0.0
H193 H 0.62303 0.14789 0.00943 0.0
H194 H 0.53983 0.15966 0.05912 0.0
H195 H 0.49221 0.09877 0.03763 0.0
H196 H 0.49533 0.03565 0.0513 0.0
H197 H 0.55705 0.06012 0.93757 0.0
H198 H 0.57752 0.10236 0.89451 0.0
H199 H 0.47518 0.10521 0.89699 0.0
H200 H 0.45718 0.066 0.94244 0.0
H201 H 0.40124 0.92806 0.95041 0.0
H202 H 0.38345 0.86683 0.92856 0.0
H203 H 0.47546 0.87086 0.98196 0.0
H204 H 0.49203 0.93138 0.00458 0.0
H205 H 0.46882 0.98823 0.93895 0.0
H206 H 0.39903 0.93078 0.02939 0.0
H207 H 0.37793 0.89168 0.07512 0.0
H208 H 0.48894 0.95119 0.11806 0.0
H209 H 0.51012 0.98896 0.07191 0.0
C210 C 0.53037 0.08871 0.01133 0.0
C211 C 0.56756 0.103 0.00396 0.0
C212 C 0.59465 0.13769 0.0159 0.0
C213 C 0.58537 0.15861 0.03624 0.0
C214 C 0.54793 0.14444 0.04333 0.0
C215 C 0.52068 0.1097 0.03105 0.0
C216 C 0.5032 0.04986 1.00238 0.0
C217 C 0.48919 0.02514 0.02676 0.0
C218 C 0.49448 0.03635 0.97044 0.0
C219 C 0.5063 0.0611 0.94374 0.0
C220 C 0.53952 0.07059 0.92918 0.0
C221 C 0.55075 0.0942 0.904 0.0
C222 C 0.52814 0.10758 0.89194 0.0
C223 C 0.49398 0.09655 0.90597 0.0
C224 C 0.4834 0.07387 0.93186 0.0
C225 C 0.44784 0.93419 0.97918 0.0
C226 C 0.417 0.91531 0.95792 0.0
C227 C 0.40715 0.88045 0.94521 0.0
C228 C 0.42839 0.86403 0.95303 0.0
C229 C 0.45821 0.88235 0.97557 0.0
C230 C 0.46777 0.91705 0.98856 0.0
C231 C 0.46243 0.97349 0.98804 0.0
C232 C 0.47407 -0.00159 0.96359 0.0
C233 C 0.46909 0.98707 0.02006 0.0
C234 C 0.45623 0.96251 0.04708 0.0
C235 C 0.41887 0.93506 0.0485 0.0
C236 C 0.40673 0.91316 0.07486 0.0
C237 C 0.43177 0.91847 0.10022 0.0
C238 C 0.46906 0.94621 0.09878 0.0
C239 C 0.48116 0.96791 0.07246 0.0
H240 H 0.4323 0.41929 0.19488 0.0
H241 H 0.45074 0.39274 0.2378 0.0
H242 H 0.56544 0.47594 0.22789 0.0
H243 H 0.54661 0.50299 0.18612 0.0
H244 H 0.44924 0.49569 0.19418 0.0
H245 H 0.4869 0.41549 0.13742 0.0
H246 H 0.53795 0.4032 0.13275 0.0
H247 H 0.60663 0.5119 0.09813 0.0
H248 H 0.55652 0.52479 0.10504 0.0
H249 H 0.50503 0.57531 0.08222 0.0
H250 H 0.48824 0.59756 0.03496 0.0
H251 H 0.37287 0.51702 0.04537 0.0
H252 H 0.39002 0.49438 0.09189 0.0
H253 H 0.48809 0.50018 0.0833 0.0
H254 H 0.49697 0.57346 0.18564 0.0
H255 H 0.48789 0.62043 0.21133 0.0
H256 H 0.37822 0.57129 0.16593 0.0
H257 H 0.3867 0.52241 0.14199 0.0
C258 C 0.48819 0.46266 0.18708 0.0
C259 C 0.46137 0.43176 0.20214 0.0
C260 C 0.47196 0.41655 0.22649 0.0
C261 C 0.50954 0.43222 0.23627 0.0
C262 C 0.53621 0.4635 0.22129 0.0
C263 C 0.52559 0.47876 0.19714 0.0
C264 C 0.47696 0.47874 0.16137 0.0
C265 C 0.45647 0.49547 0.16961 0.0
C266 C 0.48997 0.48176 0.13023 0.0
C267 C 0.51799 0.47128 0.12209 0.0
C268 C 0.51296 0.43662 0.12878 0.0
C269 C 0.54218 0.42957 0.1259 0.0
C270 C 0.57678 0.4568 0.11559 0.0
C271 C 0.58085 0.49065 0.10706 0.0
C272 C 0.55189 0.49784 0.11042 0.0
C273 C 0.44868 0.53362 0.09084 0.0
C274 C 0.47607 0.56304 0.07464 0.0
C275 C 0.46641 0.57576 0.04771 0.0
C276 C 0.42922 0.55893 0.0363 0.0
C277 C 0.40179 0.53034 0.05334 0.0
C278 C 0.41147 0.5177 0.08021 0.0
C279 C 0.45908 0.51606 0.11593 0.0
C280 C 0.47934 0.49894 0.10751 0.0
C281 C 0.44954 0.51615 0.14787 0.0
C282 C 0.44281 0.5449 0.16136 0.0
C283 C 0.4709 0.57275 0.18123 0.0
C284 C 0.46573 0.59973 0.1958 0.0
C285 C 0.4325 0.59999 0.19043 0.0
C286 C 0.40407 0.57177 0.17075 0.0
C287 C 0.40911 0.54421 0.15649 0.0
Mg288 Mg 0.60698 0.352 0.35742 0.0
O289 O 0.60198 0.38489 0.39955 0.0
O290 O 0.62716 0.44333 0.38584 0.0
Mg291 Mg 0.64566 0.44734 0.33477 0.0
C292 C 0.61133 0.41836 0.40586 0.0
C293 C 0.60296 0.28105 0.37838 0.0
O294 O 0.61573 0.28416 0.34973 0.0
O295 O 0.66896 0.37795 0.3683 0.0
O296 O 0.69047 0.43467 0.35146 0.0
O297 O 0.55165 0.33962 0.33674 0.0
O298 O 0.60517 0.38861 0.32678 0.0
C299 C 0.69575 0.40991 0.36313 0.0
C300 C 0.56958 0.37078 0.32335 0.0
O301 O 0.59576 0.30514 0.38912 0.0
Mg302 Mg 0.26905 0.64813 0.60992 0.0
O303 O 0.22813 0.61977 0.56687 0.0
O304 O 0.1947 0.56014 0.57681 0.0
Mg305 Mg 0.2111 0.55117 0.62658 0.0
C306 C 0.20304 0.58686 0.55877 0.0
C307 C 0.31894 0.72866 0.59874 0.0
O308 O 0.31192 0.72757 0.62908 0.0
O309 O 0.30369 0.62269 0.5956 0.0
O310 O 0.26864 0.56498 0.61026 0.0
O311 O 0.22863 0.65969 0.6337 0.0
O312 O 0.23172 0.60936 0.63963 0.0
C313 C 0.29859 0.59056 0.59945 0.0
C314 C 0.21565 0.62792 0.64602 0.0
O315 O 0.30439 0.69871 0.58212 0.0
Mg316 Mg 0.62958 0.27544 0.76902 0.0
O317 O 0.62089 0.23795 0.72501 0.0
O318 O 0.64508 0.20291 0.73774 0.0
Mg319 Mg 0.66455 0.21448 0.79041 0.0
C320 C 0.62886 0.21313 0.71778 0.0
C321 C 0.58901 0.30603 0.72716 0.0
O322 O 0.56042 0.27365 0.73227 0.0
O323 O 0.69157 0.30919 0.76329 0.0
O324 O 0.71207 0.27299 0.78155 0.0
O325 O 0.57408 0.23495 0.78635 0.0
O326 O 0.62617 0.23523 0.7982 0.0
C327 C 0.71801 0.30376 0.77146 0.0
C328 C 0.59083 0.21996 0.80036 0.0
O329 O 0.62079 0.31436 0.73874 0.0
Mg330 Mg 0.39796 0.65914 0.86468 0.0
O331 O 0.40434 0.6293 0.9075 0.0
O332 O 0.37449 0.56949 0.89318 0.0
Mg333 Mg 0.35233 0.56121 0.84157 0.0
C334 C 0.39316 0.59587 0.91368 0.0
C335 C 0.40442 0.73216 0.88414 0.0
O336 O 0.38856 0.72422 0.85542 0.0
O337 O 0.33714 0.63724 0.87421 0.0
O338 O 0.31063 0.57873 0.85635 0.0
O339 O 0.45018 0.66628 0.84363 0.0
O340 O 0.39454 0.61834 0.83339 0.0
C341 C 0.30843 0.60588 0.86795 0.0
C342 C 0.42955 0.63455 0.82907 0.0
O343 O 0.41362 0.71031 0.89607 0.0
Mg344 Mg 0.73804 0.39156 0.06904 0.0
O345 O 0.77289 0.40084 0.11584 0.0
O346 O 0.80651 0.37396 0.10613 0.0
Mg347 Mg 0.798 0.35316 0.05417 0.0
C348 C 0.79638 0.3914 0.12478 0.0
C349 C 0.70164 0.4344 0.10011 0.0
O350 O 0.73458 0.46309 0.09654 0.0
O351 O 0.70152 0.33043 0.07589 0.0
O352 O 0.73799 0.30812 0.06198 0.0
O353 O 0.78172 0.4452 0.05125 0.0
O354 O 0.77957 0.39228 0.04277 0.0
C355 C 0.70665 0.30348 0.07008 0.0
C356 C 0.79622 0.42705 0.03891 0.0
O357 O 0.69618 0.4025 0.09316 0.0
Mg358 Mg 0.35879 0.75439 0.22792 0.0
O359 O 0.38687 0.78937 0.274 0.0
O360 O 0.44758 0.822 0.2658 0.0
Mg361 Mg 0.45731 0.81351 0.21376 0.0
C362 C 0.4202 0.81212 0.2837 0.0
C363 C 0.28338 0.72337 0.26185 0.0
O364 O 0.28798 0.75569 0.25537 0.0
O365 O 0.38377 0.71776 0.23544 0.0
O366 O 0.44181 0.754 0.22079 0.0
O367 O 0.34869 0.7981 0.20876 0.0
O368 O 0.39873 0.79424 0.2012 0.0
C369 C 0.41569 0.72288 0.22886 0.0
C370 C 0.38082 0.81122 0.19644 0.0
O371 O 0.30796 0.71556 0.25425 0.0
C372 C 0.20989 0.63278 0.29235 0.0
C373 C 0.18124 0.64007 0.29862 0.0
H374 H 0.26472 0.65343 0.27616 0.0
C375 C 0.18701 0.67545 0.29386 0.0
H376 H 0.20645 0.60594 0.29618 0.0
C377 C 0.22046 0.70276 0.28253 0.0
C378 C 0.24885 0.69526 0.27571 0.0
H379 H 0.1653 0.6818 0.29813 0.0
H380 H 0.22378 0.72953 0.27861 0.0
C381 C 0.24335 0.66009 0.28106 0.0
C382 C 0.58083 0.21852 0.44745 0.0
C383 C 0.58154 0.18825 0.43331 0.0
H384 H 0.5869 0.2715 0.44121 0.0
C385 C 0.59059 0.18945 0.40123 0.0
H386 H 0.57453 0.21879 0.47222 0.0
C387 C 0.59813 0.21985 0.3836 0.0
C388 C 0.59645 0.24962 0.39752 0.0
H389 H 0.59076 0.16642 0.38936 0.0
H390 H 0.60445 0.2196 0.35883 0.0
C391 C 0.58804 0.2488 0.42971 0.0
C392 C 0.39541 0.60611 0.58884 0.0
C393 C 0.38996 0.57091 0.59383 0.0
H394 H 0.37069 0.63996 0.58611 0.0
C395 C 0.35379 0.54188 0.59797 0.0
H396 H 0.42289 0.62894 0.58523 0.0
C397 C 0.32397 0.54804 0.59819 0.0
C398 C 0.32949 0.58345 0.59447 0.0
H399 H 0.34859 0.51452 0.60235 0.0
H400 H 0.29672 0.52513 0.60239 0.0
C401 C 0.36544 0.61232 0.58907 0.0
C402 C 0.82132 0.36054 0.78998 0.0
C403 C 0.82683 0.39636 0.79198 0.0
H404 H 0.78281 0.3032 0.78142 0.0
C405 C 0.79722 0.40165 0.78301 0.0
H406 H 0.8438 0.35554 0.79579 0.0
C407 C 0.7624 0.37165 0.7741 0.0
C408 C 0.75629 0.33562 0.77425 0.0
H409 H 0.80038 0.42878 0.78434 0.0
H410 H 0.73979 0.37664 0.76884 0.0
C411 C 0.78643 0.33052 0.78137 0.0
C412 C 0.41078 0.82347 0.90333 0.0
C413 C 0.42124 0.82946 0.93594 0.0
H414 H 0.39739 0.78838 0.86162 0.0
C415 C 0.42627 0.80296 0.95146 0.0
H416 H 0.40751 0.84356 0.89031 0.0
C417 C 0.42113 0.77144 0.9347 0.0
C418 C 0.41058 0.7656 0.90214 0.0
H419 H 0.43397 0.80643 0.9766 0.0
H420 H 0.42512 0.75153 0.94732 0.0
C421 C 0.40533 0.7919 0.88673 0.0
C422 C 0.64515 0.479 0.12127 0.0
C423 C 0.60867 0.45028 0.11388 0.0
H424 H 0.70309 0.49653 0.12286 0.0
C425 C 0.6031 0.41559 0.10427 0.0
H426 H 0.65051 0.50584 0.12958 0.0
C427 C 0.63325 0.41008 0.10118 0.0
C428 C 0.66975 0.43923 0.10725 0.0
H429 H 0.57554 0.3929 0.09809 0.0
H430 H 0.62795 0.38325 0.09286 0.0
C431 C 0.67534 0.47361 0.11776 0.0
C432 C 0.37811 0.79963 0.54019 0.0
C433 C 0.39016 0.83251 0.55824 0.0
H434 H 0.34571 0.74082 0.53871 0.0
C435 C 0.37896 0.83087 0.58962 0.0
H436 H 0.38618 0.80015 0.51587 0.0
C437 C 0.35597 0.79713 0.60267 0.0
C438 C 0.34346 0.7642 0.58459 0.0
H439 H 0.38821 0.85576 0.60422 0.0
H440 H 0.34788 0.79694 0.62694 0.0
C441 C 0.3548 0.76574 0.5532 0.0
C442 C 0.61014 0.39418 0.68836 0.0
C443 C 0.57441 0.3874 0.67979 0.0
H444 H 0.64282 0.37375 0.70985 0.0
C445 C 0.54363 0.35305 0.68586 0.0
H446 H 0.63444 0.42014 0.68364 0.0
C447 C 0.54842 0.32634 0.7006 0.0
C448 C 0.58408 0.33343 0.70979 0.0
H449 H 0.51567 0.3471 0.68004 0.0
H450 H 0.52408 0.30044 0.70541 0.0
C451 C 0.61492 0.3675 0.70323 0.0
C452 C 0.20417 0.56151 0.86915 0.0
C453 C 0.19936 0.59194 0.8743 0.0
H454 H 0.24205 0.54197 0.86346 0.0
C455 C 0.23088 0.62702 0.87908 0.0
H456 H 0.18049 0.53417 0.86485 0.0
C457 C 0.26648 0.63157 0.87819 0.0
C458 C 0.27116 0.60113 0.8722 0.0
H459 H 0.22802 0.65093 0.88331 0.0
H460 H 0.29026 0.65902 0.88136 0.0
C461 C 0.23956 0.56603 0.86813 0.0
C462 C 0.60907 0.22495 0.05234 0.0
C463 C 0.61494 0.19492 0.04982 0.0
H464 H 0.63345 0.28292 0.06137 0.0
C465 C 0.65017 0.20035 0.05866 0.0
H466 H 0.58235 0.22182 0.04571 0.0
C467 C 0.67954 0.2354 0.06726 0.0
C468 C 0.67427 0.2658 0.06772 0.0
H469 H 0.6554 0.17763 0.05801 0.0
H470 H 0.70673 0.23888 0.0724 0.0
C471 C 0.63841 0.26002 0.06137 0.0
C472 C 0.39464 0.62497 0.215 0.0
C473 C 0.42867 0.63075 0.20409 0.0
H474 H 0.36386 0.64957 0.23222 0.0
C475 C 0.45923 0.66669 0.20529 0.0
H476 H 0.37074 0.59755 0.21498 0.0
C477 C 0.45554 0.69625 0.21579 0.0
C478 C 0.42105 0.69084 0.22492 0.0
H479 H 0.48578 0.67236 0.19676 0.0
H480 H 0.47945 0.72361 0.21513 0.0
C481 C 0.39085 0.65475 0.22533 0.0
C482 C 0.77968 0.39852 0.37608 0.0
C483 C 0.80877 0.4348 0.37348 0.0
H484 H 0.72083 0.36208 0.37532 0.0
C485 C 0.80026 0.46281 0.36957 0.0
H486 H 0.78546 0.37643 0.37928 0.0
C487 C 0.76358 0.45472 0.36741 0.0
C488 C 0.73438 0.41838 0.369 0.0
H489 H 0.82195 0.49096 0.36692 0.0
H490 H 0.75819 0.47699 0.36366 0.0
C491 C 0.74275 0.39038 0.37401 0.0
C492 C 0.13956 0.5357 0.4868 0.0
C493 C 0.13543 0.56338 0.47278 0.0
H494 H 0.16401 0.52139 0.52501 0.0
C495 C 0.15527 0.59935 0.48626 0.0
H496 H 0.12439 0.50769 0.47703 0.0
C497 C 0.17838 0.60736 0.51355 0.0
C498 C 0.1815 0.57937 0.52823 0.0
H499 H 0.15271 0.62123 0.47578 0.0
H500 H 0.19286 0.63521 0.52371 0.0
C501 C 0.1621 0.54354 0.51436 0.0
C502 C 0.57376 0.17248 0.63957 0.0
C503 C 0.58751 0.14986 0.62898 0.0
H504 H 0.5765 0.2108 0.67558 0.0
C505 C 0.61667 0.15016 0.64671 0.0
H506 H 0.55148 0.17301 0.62625 0.0
C507 C 0.63082 0.17153 0.67504 0.0
C508 C 0.61645 0.19347 0.68613 0.0
H509 H 0.62765 0.1328 0.63928 0.0
H510 H 0.65257 0.1703 0.68857 0.0
C511 C 0.58827 0.19429 0.66772 0.0
C512 C 0.43623 0.56671 0.77278 0.0
C513 C 0.46934 0.58933 0.75766 0.0
H514 H 0.39798 0.56302 0.80717 0.0
C515 C 0.49091 0.62641 0.76839 0.0
H516 H 0.41937 0.53783 0.76587 0.0
C517 C 0.47892 0.64071 0.79279 0.0
C518 C 0.44492 0.61839 0.80671 0.0
H519 H 0.5164 0.64481 0.7572 0.0
H520 H 0.49551 0.66962 0.79974 0.0
C521 C 0.42407 0.58112 0.79679 0.0
C522 C 0.86988 0.49587 0.98727 0.0
C523 C 0.88371 0.47467 0.97346 0.0
H524 H 0.83178 0.49768 0.01945 0.0
C525 C 0.8708 0.43889 0.98348 0.0
H526 H 0.87968 0.52371 0.98026 0.0
C527 C 0.84357 0.42407 0.00587 0.0
C528 C 0.82873 0.44473 0.01889 0.0
H529 H 0.88065 0.42174 0.97305 0.0
H530 H 0.8333 0.39592 0.01206 0.0
C531 C 0.84272 0.48108 0.0099 0.0
C532 C 0.44222 0.88021 0.13857 0.0
C533 C 0.41974 0.89381 0.12722 0.0
H534 H 0.44775 0.84395 0.16934 0.0
C535 C 0.38544 0.88245 0.14093 0.0
H536 H 0.46854 0.88799 0.12823 0.0
C537 C 0.3734 0.85697 0.16484 0.0
C538 C 0.3954 0.84235 0.17522 0.0
H539 H 0.36773 0.89285 0.13286 0.0
H540 H 0.34636 0.84776 0.1743 0.0
C541 C 0.4302 0.85483 0.16224 0.0
C542 C 0.55015 0.43866 0.28364 0.0
C543 C 0.52134 0.41584 0.26149 0.0
H544 H 0.58726 0.4421 0.32115 0.0
C545 C 0.50559 0.37751 0.26256 0.0
H546 H 0.5621 0.4682 0.28414 0.0
C547 C 0.51988 0.36255 0.28412 0.0
C548 C 0.55036 0.3857 0.30461 0.0
H549 H 0.48342 0.35917 0.24576 0.0
H550 H 0.50847 0.33308 0.28354 0.0
C551 C 0.5646 0.42374 0.30485 0.0
C552 C 0.41154 0.86083 0.35704 0.0
C553 C 0.44617 0.87364 0.37316 0.0
H554 H 0.3759 0.83073 0.31643 0.0
C555 C 0.47036 0.86255 0.36096 0.0
H556 H 0.39222 0.86895 0.36527 0.0
C557 C 0.46136 0.84156 0.33242 0.0
C558 C 0.42746 0.83011 0.31582 0.0
H559 H 0.49672 0.87065 0.37307 0.0
H560 H 0.48121 0.83471 0.32308 0.0
C561 C 0.40215 0.83898 0.32888 0.0
C562 C 0.61133 0.47556 0.47678 0.0
C563 C 0.58249 0.44911 0.49419 0.0
H564 H 0.64289 0.48662 0.4351 0.0
C565 C 0.56433 0.41214 0.4832 0.0
H566 H 0.62557 0.50429 0.48463 0.0
C567 C 0.57447 0.4019 0.45499 0.0
C568 C 0.6025 0.42857 0.43698 0.0
H569 H 0.54211 0.39122 0.49632 0.0
H570 H 0.55962 0.37327 0.44685 0.0
C571 C 0.62105 0.46545 0.44834 0.0
C572 C 0.14829 0.62686 0.70492 0.0
C573 C 0.1321 0.59086 0.71553 0.0
H574 H 0.18697 0.6666 0.67429 0.0
C575 C 0.14166 0.56639 0.70118 0.0
H576 H 0.14198 0.64662 0.71564 0.0
C577 C 0.16795 0.57809 0.67787 0.0
C578 C 0.18489 0.61434 0.66798 0.0
H579 H 0.12914 0.53823 0.70819 0.0
H580 H 0.17539 0.5588 0.66807 0.0
C581 C 0.17422 0.63839 0.68125 0.0
C582 C 0.53062 0.16102 0.8641 0.0
C583 C 0.54085 0.13387 0.86573 0.0
H584 H 0.53776 0.20891 0.84136 0.0
C585 C 0.56494 0.13342 0.84305 0.0
H586 H 0.51274 0.16296 0.88127 0.0
C587 C 0.58032 0.16077 0.82095 0.0
C588 C 0.57089 0.18831 0.82026 0.0
H589 H 0.57257 0.11238 0.8426 0.0
H590 H 0.5999 0.16061 0.80463 0.0
C591 C 0.54507 0.18759 0.84128 0.0
C592 C 0.39446 0.54135 0.98344 0.0
C593 C 0.41933 0.56903 0.00546 0.0
H594 H 0.36687 0.52799 0.93754 0.0
C595 C 0.43535 0.60591 0.99724 0.0
H596 H 0.3821 0.51265 0.98875 0.0
C597 C 0.42663 0.61482 0.96763 0.0
C598 C 0.402 0.58701 0.94549 0.0
H599 H 0.45448 0.62787 0.01376 0.0
H600 H 0.43949 0.64347 0.96199 0.0
C601 C 0.38597 0.5502 0.95388 0.0
C602 C 0.85154 0.39616 0.19919 0.0
C603 C 0.86163 0.43096 0.2129 0.0
H604 H 0.82304 0.35648 0.16083 0.0
C605 C 0.84628 0.45078 0.19911 0.0
H606 H 0.86165 0.37942 0.20958 0.0
C607 C 0.82308 0.43696 0.17147 0.0
C608 C 0.81518 0.4033 0.15679 0.0
H609 H 0.85346 0.47773 0.20875 0.0
H610 H 0.81302 0.45355 0.16065 0.0
C611 C 0.82901 0.38274 0.17137 0.0
loop_
_geom_bond_atom_site_label_1
_geom_bond_atom_site_label_2
_geom_bond_distance
_geom_bond_site_symmetry_2
_ccdc_geom_bond_type
H0 C19 0.949 . S
H1 C20 0.950 . S
H2 C22 0.950 . S
H3 C23 0.950 . S
H4 C25 0.950 . S
H5 C28 0.950 . S
H6 C29 0.950 . S
H7 C31 0.951 . S
H8 C32 0.949 . S
H9 C34 0.949 . S
H10 C35 0.950 . S
H11 C37 0.950 . S
H12 C38 0.950 . S
H13 C40 0.950 . S
H14 C43 0.950 . S
H15 C44 0.950 . S
H16 C46 0.951 . S
H17 C47 0.949 . S
C18 C19 1.376 . S
C18 C23 1.386 . S
C18 C24 1.483 . S
C19 H0 0.949 . S
C19 C18 1.376 . S
C19 C20 1.397 . S
C20 H1 0.950 . S
C20 C19 1.397 . S
C20 C21 1.391 . S
C21 C20 1.391 . S
C21 C22 1.405 . S
C22 H2 0.950 . S
C22 C21 1.405 . S
C22 C23 1.367 . S
C23 H3 0.950 . S
C23 C18 1.386 . S
C23 C22 1.367 . S
C24 C18 1.483 . S
C24 C25 1.382 1_655 S
C24 C26 1.403 . S
C25 H4 0.950 . S
C25 C24 1.382 1_455 S
C25 C41 1.411 . S
C26 C24 1.403 . S
C26 C27 1.489 . S
C26 C40 1.411 . S
C27 C26 1.489 . S
C27 C28 1.383 . S
C27 C32 1.382 . S
C28 H5 0.950 . S
C28 C27 1.383 . S
C28 C29 1.395 . S
C29 H6 0.950 . S
C29 C28 1.395 . S
C29 C30 1.288 . S
C30 C29 1.288 . S
C30 C31 1.392 . S
C31 H7 0.951 . S
C31 C30 1.392 . S
C31 C32 1.392 . S
C32 H8 0.949 . S
C32 C27 1.382 . S
C32 C31 1.392 . S
C33 C34 1.376 . S
C33 C38 1.386 . S
C33 C39 1.483 . S
C34 H9 0.949 . S
C34 C33 1.376 . S
C34 C35 1.397 . S
C35 H10 0.950 . S
C35 C34 1.397 . S
C35 C36 1.391 . S
C36 C35 1.391 . S
C36 C37 1.405 . S
C37 H11 0.950 . S
C37 C36 1.405 . S
C37 C38 1.367 . S
C38 H12 0.950 . S
C38 C33 1.386 . S
C38 C37 1.367 . S
C39 C33 1.483 . S
C39 C40 1.382 1_455 S
C39 C41 1.403 . S
C40 H13 0.950 . S
C40 C26 1.411 . S
C40 C39 1.382 1_655 S
C41 C25 1.411 . S
C41 C39 1.403 . S
C41 C42 1.489 . S
C42 C41 1.489 . S
C42 C43 1.383 . S
C42 C47 1.382 . S
C43 H14 0.950 . S
C43 C42 1.383 . S
C43 C44 1.395 . S
C44 H15 0.950 . S
C44 C43 1.395 . S
C44 C45 1.288 . S
C45 C44 1.288 . S
C45 C46 1.392 . S
C46 H16 0.951 . S
C46 C45 1.392 . S
C46 C47 1.392 . S
C47 H17 0.949 . S
C47 C42 1.382 . S
C47 C46 1.392 . S
H48 C67 0.949 . S
H49 C68 0.950 . S
H50 C70 0.950 . S
H51 C71 0.950 . S
H52 C73 0.950 1_565 S
H53 C76 0.950 . S
H54 C77 0.950 . S
H55 C79 0.951 . S
H56 C80 0.949 . S
H57 C82 0.949 . S
H58 C83 0.950 . S
H59 C85 0.950 . S
H60 C86 0.950 . S
H61 C88 0.950 . S
H62 C91 0.950 . S
H63 C92 0.950 . S
H64 C94 0.951 . S
H65 C95 0.949 . S
C66 C67 1.376 . S
C66 C71 1.386 . S
C66 C72 1.483 . S
C67 H48 0.949 . S
C67 C66 1.376 . S
C67 C68 1.397 . S
C68 H49 0.950 . S
C68 C67 1.397 . S
C68 C69 1.391 . S
C69 C68 1.391 . S
C69 C70 1.405 . S
C70 H50 0.950 . S
C70 C69 1.405 . S
C70 C71 1.367 . S
C71 H51 0.950 . S
C71 C66 1.386 . S
C71 C70 1.367 . S
C72 C66 1.483 . S
C72 C73 1.382 1_565 S
C72 C74 1.403 . S
C73 H52 0.950 1_545 S
C73 C72 1.382 1_545 S
C73 C89 1.411 . S
C74 C72 1.403 . S
C74 C75 1.489 . S
C74 C88 1.411 1_565 S
C75 C74 1.489 . S
C75 C76 1.383 . S
C75 C80 1.382 . S
C76 H53 0.950 . S
C76 C75 1.383 . S
C76 C77 1.395 . S
C77 H54 0.950 . S
C77 C76 1.395 . S
C77 C78 1.288 . S
C78 C77 1.288 . S
C78 C79 1.392 . S
C79 H55 0.951 . S
C79 C78 1.392 . S
C79 C80 1.392 . S
C80 H56 0.949 . S
C80 C75 1.382 . S
C80 C79 1.392 . S
C81 C82 1.376 . S
C81 C86 1.386 . S
C81 C87 1.483 . S
C82 H57 0.949 . S
C82 C81 1.376 . S
C82 C83 1.397 . S
C83 H58 0.950 . S
C83 C82 1.397 . S
C83 C84 1.391 . S
C84 C83 1.391 . S
C84 C85 1.405 . S
C85 H59 0.950 . S
C85 C84 1.405 . S
C85 C86 1.367 . S
C86 H60 0.950 . S
C86 C81 1.386 . S
C86 C85 1.367 . S
C87 C81 1.483 . S
C87 C88 1.382 . S
C87 C89 1.403 . S
C88 H61 0.950 . S
C88 C74 1.411 1_545 S
C88 C87 1.382 . S
C89 C73 1.411 . S
C89 C87 1.403 . S
C89 C90 1.489 . S
C90 C89 1.489 . S
C90 C91 1.383 . S
C90 C95 1.382 . S
C91 H62 0.950 . S
C91 C90 1.383 . S
C91 C92 1.395 . S
C92 H63 0.950 . S
C92 C91 1.395 . S
C92 C93 1.288 . S
C93 C92 1.288 . S
C93 C94 1.392 . S
C94 H64 0.951 . S
C94 C93 1.392 . S
C94 C95 1.392 . S
C95 H65 0.949 . S
C95 C90 1.382 . S
C95 C94 1.392 . S
H96 C115 0.949 . S
H97 C116 0.950 . S
H98 C118 0.950 . S
H99 C119 0.950 . S
H100 C121 0.950 . S
H101 C124 0.950 . S
H102 C125 0.950 . S
H103 C127 0.951 . S
H104 C128 0.949 . S
H105 C130 0.949 . S
H106 C131 0.950 . S
H107 C133 0.950 . S
H108 C134 0.950 . S
H109 C136 0.950 . S
H110 C139 0.950 . S
H111 C140 0.950 . S
H112 C142 0.951 . S
H113 C143 0.949 . S
C114 C115 1.376 . S
C114 C119 1.386 . S
C114 C120 1.483 . S
C115 H96 0.949 . S
C115 C114 1.376 . S
C115 C116 1.397 . S
C116 H97 0.950 . S
C116 C115 1.397 . S
C116 C117 1.391 . S
C117 C116 1.391 . S
C117 C118 1.405 . S
C118 H98 0.950 . S
C118 C117 1.405 . S
C118 C119 1.367 . S
C119 H99 0.950 . S
C119 C114 1.386 . S
C119 C118 1.367 . S
C120 C114 1.483 . S
C120 C121 1.382 . S
C120 C122 1.403 . S
C121 H100 0.950 . S
C121 C120 1.382 . S
C121 C137 1.411 . S
C122 C120 1.403 . S
C122 C123 1.489 . S
C122 C136 1.411 . S
C123 C122 1.489 . S
C123 C124 1.383 . S
C123 C128 1.382 . S
C124 H101 0.950 . S
C124 C123 1.383 . S
C124 C125 1.395 . S
C125 H102 0.950 . S
C125 C124 1.395 . S
C125 C126 1.288 . S
C126 C125 1.288 . S
C126 C127 1.392 . S
C127 H103 0.951 . S
C127 C126 1.392 . S
C127 C128 1.392 . S
C128 H104 0.949 . S
C128 C123 1.382 . S
C128 C127 1.392 . S
C129 C130 1.376 . S
C129 C134 1.386 . S
C129 C135 1.483 . S
C130 H105 0.949 . S
C130 C129 1.376 . S
C130 C131 1.397 . S
C131 H106 0.950 . S
C131 C130 1.397 . S
C131 C132 1.391 . S
C132 C131 1.391 . S
C132 C133 1.405 . S
C133 H107 0.950 . S
C133 C132 1.405 . S
C133 C134 1.367 . S
C134 H108 0.950 . S
C134 C129 1.386 . S
C134 C133 1.367 . S
C135 C129 1.483 . S
C135 C136 1.382 . S
C135 C137 1.403 . S
C136 H109 0.950 . S
C136 C122 1.411 . S
C136 C135 1.382 . S
C137 C121 1.411 . S
C137 C135 1.403 . S
C137 C138 1.489 . S
C138 C137 1.489 . S
C138 C139 1.383 . S
C138 C143 1.382 . S
C139 H110 0.950 . S
C139 C138 1.383 . S
C139 C140 1.395 . S
C140 H111 0.950 . S
C140 C139 1.395 . S
C140 C141 1.288 . S
C141 C140 1.288 . S
C141 C142 1.392 . S
C142 H112 0.951 . S
C142 C141 1.392 . S
C142 C143 1.392 . S
C143 H113 0.949 . S
C143 C138 1.382 . S
C143 C142 1.392 . S
H144 C163 0.949 . S
H145 C164 0.950 . S
H146 C166 0.950 . S
H147 C167 0.950 . S
H148 C169 0.950 . S
H149 C172 0.950 . S
H150 C173 0.950 . S
H151 C175 0.951 . S
H152 C176 0.949 . S
H153 C178 0.949 . S
H154 C179 0.950 . S
H155 C181 0.950 . S
H156 C182 0.950 . S
H157 C184 0.950 . S
H158 C187 0.950 . S
H159 C188 0.950 . S
H160 C190 0.951 . S
H161 C191 0.949 . S
C162 C163 1.376 . S
C162 C167 1.386 . S
C162 C168 1.483 . S
C163 H144 0.949 . S
C163 C162 1.376 . S
C163 C164 1.397 . S
C164 H145 0.950 . S
C164 C163 1.397 . S
C164 C165 1.391 . S
C165 C164 1.391 . S
C165 C166 1.405 . S
C166 H146 0.950 . S
C166 C165 1.405 . S
C166 C167 1.367 . S
C167 H147 0.950 . S
C167 C162 1.386 . S
C167 C166 1.367 . S
C168 C162 1.483 . S
C168 C169 1.382 1_455 S
C168 C170 1.403 . S
C169 H148 0.950 . S
C169 C168 1.382 1_655 S
C169 C185 1.411 . S
C170 C168 1.403 . S
C170 C171 1.489 . S
C170 C184 1.411 . S
C171 C170 1.489 . S
C171 C172 1.383 . S
C171 C176 1.382 . S
C172 H149 0.950 . S
C172 C171 1.383 . S
C172 C173 1.395 . S
C173 H150 0.950 . S
C173 C172 1.395 . S
C173 C174 1.288 . S
C174 C173 1.288 . S
C174 C175 1.392 . S
C175 H151 0.951 . S
C175 C174 1.392 . S
C175 C176 1.392 . S
C176 H152 0.949 . S
C176 C171 1.382 . S
C176 C175 1.392 . S
C177 C178 1.376 . S
C177 C182 1.386 . S
C177 C183 1.483 . S
C178 H153 0.949 . S
C178 C177 1.376 . S
C178 C179 1.397 . S
C179 H154 0.950 . S
C179 C178 1.397 . S
C179 C180 1.391 . S
C180 C179 1.391 . S
C180 C181 1.405 . S
C181 H155 0.950 . S
C181 C180 1.405 . S
C181 C182 1.367 . S
C182 H156 0.950 . S
C182 C177 1.386 . S
C182 C181 1.367 . S
C183 C177 1.483 . S
C183 C184 1.382 1_655 S
C183 C185 1.403 . S
C184 H157 0.950 . S
C184 C170 1.411 . S
C184 C183 1.382 1_455 S
C185 C169 1.411 . S
C185 C183 1.403 . S
C185 C186 1.489 . S
C186 C185 1.489 . S
C186 C187 1.383 . S
C186 C191 1.382 . S
C187 H158 0.950 . S
C187 C186 1.383 . S
C187 C188 1.395 . S
C188 H159 0.950 . S
C188 C187 1.395 . S
C188 C189 1.288 . S
C189 C188 1.288 . S
C189 C190 1.392 . S
C190 H160 0.951 . S
C190 C189 1.392 . S
C190 C191 1.392 . S
C191 H161 0.949 . S
C191 C186 1.382 . S
C191 C190 1.392 . S
H192 C211 0.949 . S
H193 C212 0.950 . S
H194 C214 0.950 . S
H195 C215 0.948 1_556 S
H196 C217 0.950 . S
H197 C220 0.950 . S
H198 C221 0.950 . S
H199 C223 0.951 . S
H200 C224 0.949 . S
H201 C226 0.949 . S
H202 C227 0.950 . S
H203 C229 0.950 . S
H204 C230 0.950 . S
H205 C232 0.950 1_565 S
H206 C235 0.950 . S
H207 C236 0.950 . S
H208 C238 0.951 . S
H209 C239 0.949 . S
C210 C211 1.376 . S
C210 C215 1.387 . S
C210 C216 1.483 1_554 S
C211 H192 0.949 . S
C211 C210 1.376 . S
C211 C212 1.397 . S
C212 H193 0.950 . S
C212 C211 1.397 . S
C212 C213 1.391 . S
C213 C212 1.391 . S
C213 C214 1.405 . S
C214 H194 0.950 . S
C214 C213 1.405 . S
C214 C215 1.369 . S
C215 H195 0.948 1_554 S
C215 C210 1.387 . S
C215 C214 1.369 . S
C216 C210 1.483 1_556 S
C216 C217 1.382 1_556 S
C216 C218 1.403 . S
C217 H196 0.950 . S
C217 C216 1.382 1_554 S
C217 C233 1.411 1_545 S
C218 C216 1.403 . S
C218 C219 1.489 . S
C218 C232 1.411 . S
C219 C218 1.489 . S
C219 C220 1.383 . S
C219 C224 1.382 . S
C220 H197 0.950 . S
C220 C219 1.383 . S
C220 C221 1.395 . S
C221 H198 0.950 . S
C221 C220 1.395 . S
C221 C222 1.288 . S
C222 C221 1.288 . S
C222 C223 1.392 . S
C223 H199 0.951 . S
C223 C222 1.392 . S
C223 C224 1.392 . S
C224 H200 0.949 . S
C224 C219 1.382 . S
C224 C223 1.392 . S
C225 C226 1.376 . S
C225 C230 1.386 . S
C225 C231 1.483 . S
C226 H201 0.949 . S
C226 C225 1.376 . S
C226 C227 1.397 . S
C227 H202 0.950 . S
C227 C226 1.397 . S
C227 C228 1.391 . S
C228 C227 1.391 . S
C228 C229 1.405 . S
C229 H203 0.950 . S
C229 C228 1.405 . S
C229 C230 1.367 . S
C230 H204 0.950 . S
C230 C225 1.386 . S
C230 C229 1.367 . S
C231 C225 1.483 . S
C231 C232 1.382 1_565 S
C231 C233 1.403 1_556 S
C232 H205 0.950 1_545 S
C232 C218 1.411 . S
C232 C231 1.382 1_545 S
C233 C217 1.411 1_565 S
C233 C231 1.403 1_554 S
C233 C234 1.489 . S
C234 C233 1.489 . S
C234 C235 1.383 . S
C234 C239 1.382 . S
C235 H206 0.950 . S
C235 C234 1.383 . S
C235 C236 1.395 . S
C236 H207 0.950 . S
C236 C235 1.395 . S
C236 C237 1.288 . S
C237 C236 1.288 . S
C237 C238 1.392 . S
C238 H208 0.951 . S
C238 C237 1.392 . S
C238 C239 1.392 . S
C239 H209 0.949 . S
C239 C234 1.382 . S
C239 C238 1.392 . S
H240 C259 0.949 . S
H241 C260 0.950 . S
H242 C262 0.950 . S
H243 C263 0.950 . S
H244 C265 0.950 . S
H245 C268 0.950 . S
H246 C269 0.950 . S
H247 C271 0.951 . S
H248 C272 0.949 . S
H249 C274 0.949 . S
H250 C275 0.950 . S
H251 C277 0.950 . S
H252 C278 0.950 . S
H253 C280 0.950 . S
H254 C283 0.950 . S
H255 C284 0.950 . S
H256 C286 0.951 . S
H257 C287 0.949 . S
C258 C259 1.376 . S
C258 C263 1.386 . S
C258 C264 1.483 . S
C259 H240 0.949 . S
C259 C258 1.376 . S
C259 C260 1.397 . S
C260 H241 0.950 . S
C260 C259 1.397 . S
C260 C261 1.391 . S
C261 C260 1.391 . S
C261 C262 1.405 . S
C262 H242 0.950 . S
C262 C261 1.405 . S
C262 C263 1.367 . S
C263 H243 0.950 . S
C263 C258 1.386 . S
C263 C262 1.367 . S
C264 C258 1.483 . S
C264 C265 1.382 . S
C264 C266 1.403 . S
C265 H244 0.950 . S
C265 C264 1.382 . S
C265 C281 1.411 . S
C266 C264 1.403 . S
C266 C267 1.489 . S
C266 C280 1.411 . S
C267 C266 1.489 . S
C267 C268 1.383 . S
C267 C272 1.382 . S
C268 H245 0.950 . S
C268 C267 1.383 . S
C268 C269 1.395 . S
C269 H246 0.950 . S
C269 C268 1.395 . S
C269 C270 1.288 . S
C270 C269 1.288 . S
C270 C271 1.392 . S
C271 H247 0.951 . S
C271 C270 1.392 . S
C271 C272 1.392 . S
C272 H248 0.949 . S
C272 C267 1.382 . S
C272 C271 1.392 . S
C273 C274 1.376 . S
C273 C278 1.386 . S
C273 C279 1.483 . S
C274 H249 0.949 . S
C274 C273 1.376 . S
C274 C275 1.397 . S
C275 H250 0.950 . S
C275 C274 1.397 . S
C275 C276 1.391 . S
C276 C275 1.391 . S
C276 C277 1.405 . S
C277 H251 0.950 . S
C277 C276 1.405 . S
C277 C278 1.367 . S
C278 H252 0.950 . S
C278 C273 1.386 . S
C278 C277 1.367 . S
C279 C273 1.483 . S
C279 C280 1.382 . S
C279 C281 1.403 . S
C280 H253 0.950 . S
C280 C266 1.411 . S
C280 C279 1.382 . S
C281 C265 1.411 . S
C281 C279 1.403 . S
C281 C282 1.489 . S
C282 C281 1.489 . S
C282 C283 1.383 . S
C282 C287 1.382 . S
C283 H254 0.950 . S
C283 C282 1.383 . S
C283 C284 1.395 . S
C284 H255 0.950 . S
C284 C283 1.395 . S
C284 C285 1.288 . S
C285 C284 1.288 . S
C285 C286 1.392 . S
C286 H256 0.951 . S
C286 C285 1.392 . S
C286 C287 1.392 . S
C287 H257 0.949 . S
C287 C282 1.382 . S
C287 C286 1.392 . S
Mg288 O289 2.028 . S
Mg288 O295 1.986 . S
Mg288 O297 2.114 . S
Mg288 O298 2.251 . S
Mg288 O301 2.010 . S
O289 Mg288 2.028 . S
O289 C292 1.250 . S
O290 Mg291 2.028 . S
O290 C292 1.248 . S
Mg291 O290 2.028 . S
Mg291 O296 2.032 . S
Mg291 O298 2.079 . S
C292 O289 1.250 . S
C292 O290 1.248 . S
C293 O294 1.264 . S
C293 O301 1.249 . S
O294 C293 1.264 . S
O295 Mg288 1.986 . S
O295 C299 1.246 . S
O296 Mg291 2.032 . S
O296 C299 1.259 . S
O297 Mg288 2.114 . S
O297 C300 1.252 . S
O298 Mg288 2.251 . S
O298 Mg291 2.079 . S
O298 C300 1.273 . S
C299 O295 1.246 . S
C299 O296 1.259 . S
C300 O297 1.252 . S
C300 O298 1.273 . S
O301 Mg288 2.010 . S
O301 C293 1.249 . S
Mg302 O303 2.028 . S
Mg302 O309 1.986 . S
Mg302 O311 2.114 . S
Mg302 O312 2.251 . S
Mg302 O315 2.010 . S
O303 Mg302 2.028 . S
O303 C306 1.250 . S
O304 Mg305 2.028 . S
O304 C306 1.248 . S
Mg305 O304 2.028 . S
Mg305 O310 2.032 . S
Mg305 O312 2.079 . S
C306 O303 1.250 . S
C306 O304 1.248 . S
C307 O308 1.264 . S
C307 O315 1.249 . S
O308 C307 1.264 . S
O309 Mg302 1.986 . S
O309 C313 1.246 . S
O310 Mg305 2.032 . S
O310 C313 1.259 . S
O311 Mg302 2.114 . S
O311 C314 1.252 . S
O312 Mg302 2.251 . S
O312 Mg305 2.079 . S
O312 C314 1.273 . S
C313 O309 1.246 . S
C313 O310 1.259 . S
C314 O311 1.252 . S
C314 O312 1.273 . S
O315 Mg302 2.010 . S
O315 C307 1.249 . S
Mg316 O317 2.028 . S
Mg316 O323 1.986 . S
Mg316 O325 2.114 . S
Mg316 O326 2.251 . S
Mg316 O329 2.010 . S
O317 Mg316 2.028 . S
O317 C320 1.250 . S
O318 Mg319 2.028 . S
O318 C320 1.248 . S
Mg319 O318 2.028 . S
Mg319 O324 2.032 . S
Mg319 O326 2.079 . S
C320 O317 1.250 . S
C320 O318 1.248 . S
C321 O322 1.264 . S
C321 O329 1.249 . S
O322 C321 1.264 . S
O323 Mg316 1.986 . S
O323 C327 1.246 . S
O324 Mg319 2.032 . S
O324 C327 1.259 . S
O325 Mg316 2.114 . S
O325 C328 1.252 . S
O326 Mg316 2.251 . S
O326 Mg319 2.079 . S
O326 C328 1.273 . S
C327 O323 1.246 . S
C327 O324 1.259 . S
C328 O325 1.252 . S
C328 O326 1.273 . S
O329 Mg316 2.010 . S
O329 C321 1.249 . S
Mg330 O331 2.028 . S
Mg330 O337 1.986 . S
Mg330 O339 2.114 . S
Mg330 O340 2.251 . S
Mg330 O343 2.010 . S
O331 Mg330 2.028 . S
O331 C334 1.250 . S
O332 Mg333 2.028 . S
O332 C334 1.248 . S
Mg333 O332 2.028 . S
Mg333 O338 2.032 . S
Mg333 O340 2.079 . S
C334 O331 1.250 . S
C334 O332 1.248 . S
C335 O336 1.264 . S
C335 O343 1.249 . S
O336 C335 1.264 . S
O337 Mg330 1.986 . S
O337 C341 1.246 . S
O338 Mg333 2.032 . S
O338 C341 1.259 . S
O339 Mg330 2.114 . S
O339 C342 1.252 . S
O340 Mg330 2.251 . S
O340 Mg333 2.079 . S
O340 C342 1.273 . S
C341 O337 1.246 . S
C341 O338 1.259 . S
C342 O339 1.252 . S
C342 O340 1.273 . S
O343 Mg330 2.010 . S
O343 C335 1.249 . S
Mg344 O345 2.028 . S
Mg344 O351 1.986 . S
Mg344 O353 2.114 . S
Mg344 O354 2.251 . S
Mg344 O357 2.010 . S
O345 Mg344 2.028 . S
O345 C348 1.250 . S
O346 Mg347 2.028 . S
O346 C348 1.248 . S
Mg347 O346 2.028 . S
Mg347 O352 2.032 . S
Mg347 O354 2.079 . S
C348 O345 1.250 . S
C348 O346 1.248 . S
C349 O350 1.264 . S
C349 O357 1.249 . S
O350 C349 1.264 . S
O351 Mg344 1.986 . S
O351 C355 1.246 . S
O352 Mg347 2.032 . S
O352 C355 1.259 . S
O353 Mg344 2.114 . S
O353 C356 1.252 . S
O354 Mg344 2.251 . S
O354 Mg347 2.079 . S
O354 C356 1.273 . S
C355 O351 1.246 . S
C355 O352 1.259 . S
C356 O353 1.252 . S
C356 O354 1.273 . S
O357 Mg344 2.010 . S
O357 C349 1.249 . S
Mg358 O359 2.028 . S
Mg358 O365 1.986 . S
Mg358 O367 2.114 . S
Mg358 O368 2.251 . S
Mg358 O371 2.010 . S
O359 Mg358 2.028 . S
O359 C362 1.250 . S
O360 Mg361 2.028 . S
O360 C362 1.248 . S
Mg361 O360 2.028 . S
Mg361 O366 2.032 . S
Mg361 O368 2.079 . S
C362 O359 1.250 . S
C362 O360 1.248 . S
C363 O364 1.264 . S
C363 O371 1.249 . S
O364 C363 1.264 . S
O365 Mg358 1.986 . S
O365 C369 1.246 . S
O366 Mg361 2.032 . S
O366 C369 1.259 . S
O367 Mg358 2.114 . S
O367 C370 1.252 . S
O368 Mg358 2.251 . S
O368 Mg361 2.079 . S
O368 C370 1.273 . S
C369 O365 1.246 . S
C369 O366 1.259 . S
C370 O367 1.252 . S
C370 O368 1.273 . S
O371 Mg358 2.010 . S
O371 C363 1.249 . S
C372 C373 1.387 . S
C372 H376 0.950 . S
C372 C381 1.390 . S
C373 C372 1.387 . S
C373 C375 1.387 . S
H374 C381 0.950 . S
C375 C373 1.387 . S
C375 C377 1.390 . S
C375 H379 0.950 . S
H376 C372 0.950 . S
C377 C375 1.390 . S
C377 C378 1.387 . S
C377 H380 0.950 . S
C378 C377 1.387 . S
C378 C381 1.387 . S
H379 C375 0.950 . S
H380 C377 0.950 . S
C381 C372 1.390 . S
C381 H374 0.950 . S
C381 C378 1.387 . S
C382 C383 1.387 . S
C382 H386 0.950 . S
C382 C391 1.390 . S
C383 C382 1.387 . S
C383 C385 1.387 . S
H384 C391 0.950 . S
C385 C383 1.387 . S
C385 C387 1.390 . S
C385 H389 0.950 . S
H386 C382 0.950 . S
C387 C385 1.390 . S
C387 C388 1.387 . S
C387 H390 0.950 . S
C388 C387 1.387 . S
C388 C391 1.387 . S
H389 C385 0.950 . S
H390 C387 0.950 . S
C391 C382 1.390 . S
C391 H384 0.950 . S
C391 C388 1.387 . S
C392 C393 1.387 . S
C392 H396 0.950 . S
C392 C401 1.390 . S
C393 C392 1.387 . S
C393 C395 1.387 . S
H394 C401 0.950 . S
C395 C393 1.387 . S
C395 C397 1.390 . S
C395 H399 0.950 . S
H396 C392 0.950 . S
C397 C395 1.390 . S
C397 C398 1.387 . S
C397 H400 0.950 . S
C398 C397 1.387 . S
C398 C401 1.387 . S
H399 C395 0.950 . S
H400 C397 0.950 . S
C401 C392 1.390 . S
C401 H394 0.950 . S
C401 C398 1.387 . S
C402 C403 1.387 . S
C402 H406 0.950 . S
C402 C411 1.390 . S
C403 C402 1.387 . S
C403 C405 1.387 . S
H404 C411 0.950 . S
C405 C403 1.387 . S
C405 C407 1.390 . S
C405 H409 0.950 . S
H406 C402 0.950 . S
C407 C405 1.390 . S
C407 C408 1.387 . S
C407 H410 0.950 . S
C408 C407 1.387 . S
C408 C411 1.387 . S
H409 C405 0.950 . S
H410 C407 0.950 . S
C411 C402 1.390 . S
C411 H404 0.950 . S
C411 C408 1.387 . S
C412 C413 1.387 . S
C412 H416 0.950 . S
C412 C421 1.390 . S
C413 C412 1.387 . S
C413 C415 1.387 . S
H414 C421 0.950 . S
C415 C413 1.387 . S
C415 C417 1.390 . S
C415 H419 0.950 . S
H416 C412 0.950 . S
C417 C415 1.390 . S
C417 C418 1.387 . S
C417 H420 0.950 . S
C418 C417 1.387 . S
C418 C421 1.387 . S
H419 C415 0.950 . S
H420 C417 0.950 . S
C421 C412 1.390 . S
C421 H414 0.950 . S
C421 C418 1.387 . S
C422 C423 1.387 . S
C422 H426 0.950 . S
C422 C431 1.390 . S
C423 C422 1.387 . S
C423 C425 1.387 . S
H424 C431 0.950 . S
C425 C423 1.387 . S
C425 C427 1.390 . S
C425 H429 0.950 . S
H426 C422 0.950 . S
C427 C425 1.390 . S
C427 C428 1.387 . S
C427 H430 0.950 . S
C428 C427 1.387 . S
C428 C431 1.387 . S
H429 C425 0.950 . S
H430 C427 0.950 . S
C431 C422 1.390 . S
C431 H424 0.950 . S
C431 C428 1.387 . S
C432 C433 1.387 . S
C432 H436 0.950 . S
C432 C441 1.390 . S
C433 C432 1.387 . S
C433 C435 1.387 . S
H434 C441 0.950 . S
C435 C433 1.387 . S
C435 C437 1.390 . S
C435 H439 0.950 . S
H436 C432 0.950 . S
C437 C435 1.390 . S
C437 C438 1.387 . S
C437 H440 0.950 . S
C438 C437 1.387 . S
C438 C441 1.387 . S
H439 C435 0.950 . S
H440 C437 0.950 . S
C441 C432 1.390 . S
C441 H434 0.950 . S
C441 C438 1.387 . S
C442 C443 1.387 . S
C442 H446 0.950 . S
C442 C451 1.390 . S
C443 C442 1.387 . S
C443 C445 1.387 . S
H444 C451 0.950 . S
C445 C443 1.387 . S
C445 C447 1.390 . S
C445 H449 0.950 . S
H446 C442 0.950 . S
C447 C445 1.390 . S
C447 C448 1.387 . S
C447 H450 0.950 . S
C448 C447 1.387 . S
C448 C451 1.387 . S
H449 C445 0.950 . S
H450 C447 0.950 . S
C451 C442 1.390 . S
C451 H444 0.950 . S
C451 C448 1.387 . S
C452 C453 1.387 . S
C452 H456 0.950 . S
C452 C461 1.390 . S
C453 C452 1.387 . S
C453 C455 1.387 . S
H454 C461 0.950 . S
C455 C453 1.387 . S
C455 C457 1.390 . S
C455 H459 0.950 . S
H456 C452 0.950 . S
C457 C455 1.390 . S
C457 C458 1.387 . S
C457 H460 0.950 . S
C458 C457 1.387 . S
C458 C461 1.387 . S
H459 C455 0.950 . S
H460 C457 0.950 . S
C461 C452 1.390 . S
C461 H454 0.950 . S
C461 C458 1.387 . S
C462 C463 1.387 . S
C462 H466 0.950 1_554 S
C462 C471 1.390 . S
C463 C462 1.387 . S
C463 C465 1.387 . S
H464 C471 0.950 . S
C465 C463 1.387 . S
C465 C467 1.390 . S
C465 H469 0.950 . S
H466 C462 0.950 1_556 S
C467 C465 1.390 . S
C467 C468 1.387 . S
C467 H470 0.950 . S
C468 C467 1.387 . S
C468 C471 1.387 . S
H469 C465 0.950 . S
H470 C467 0.950 . S
C471 C462 1.390 . S
C471 H464 0.950 . S
C471 C468 1.387 . S
C472 C473 1.387 . S
C472 H476 0.950 . S
C472 C481 1.390 . S
C473 C472 1.387 . S
C473 C475 1.387 . S
H474 C481 0.950 . S
C475 C473 1.387 . S
C475 C477 1.390 . S
C475 H479 0.950 . S
H476 C472 0.950 . S
C477 C475 1.390 . S
C477 C478 1.387 . S
C477 H480 0.950 . S
C478 C477 1.387 . S
C478 C481 1.387 . S
H479 C475 0.950 . S
H480 C477 0.950 . S
C481 C472 1.390 . S
C481 H474 0.950 . S
C481 C478 1.387 . S
C482 C483 1.387 . S
C482 H486 0.950 . S
C482 C491 1.390 . S
C483 C482 1.387 . S
C483 C485 1.387 . S
H484 C491 0.950 . S
C485 C483 1.387 . S
C485 C487 1.390 . S
C485 H489 0.950 . S
H486 C482 0.950 . S
C487 C485 1.390 . S
C487 C488 1.387 . S
C487 H490 0.950 . S
C488 C487 1.387 . S
C488 C491 1.387 . S
H489 C485 0.950 . S
H490 C487 0.950 . S
C491 C482 1.390 . S
C491 H484 0.950 . S
C491 C488 1.387 . S
C492 C493 1.387 . S
C492 H496 0.950 . S
C492 C501 1.390 . S
C493 C492 1.387 . S
C493 C495 1.387 . S
H494 C501 0.950 . S
C495 C493 1.387 . S
C495 C497 1.390 . S
C495 H499 0.950 . S
H496 C492 0.950 . S
C497 C495 1.390 . S
C497 C498 1.387 . S
C497 H500 0.950 . S
C498 C497 1.387 . S
C498 C501 1.387 . S
H499 C495 0.950 . S
H500 C497 0.950 . S
C501 C492 1.390 . S
C501 H494 0.950 . S
C501 C498 1.387 . S
C502 C503 1.387 . S
C502 H506 0.950 . S
C502 C511 1.390 . S
C503 C502 1.387 . S
C503 C505 1.387 . S
H504 C511 0.950 . S
C505 C503 1.387 . S
C505 C507 1.390 . S
C505 H509 0.950 . S
H506 C502 0.950 . S
C507 C505 1.390 . S
C507 C508 1.387 . S
C507 H510 0.950 . S
C508 C507 1.387 . S
C508 C511 1.387 . S
H509 C505 0.950 . S
H510 C507 0.950 . S
C511 C502 1.390 . S
C511 H504 0.950 . S
C511 C508 1.387 . S
C512 C513 1.387 . S
C512 H516 0.950 . S
C512 C521 1.390 . S
C513 C512 1.387 . S
C513 C515 1.387 . S
H514 C521 0.950 . S
C515 C513 1.387 . S
C515 C517 1.390 . S
C515 H519 0.950 . S
H516 C512 0.950 . S
C517 C515 1.390 . S
C517 C518 1.387 . S
C517 H520 0.950 . S
C518 C517 1.387 . S
C518 C521 1.387 . S
H519 C515 0.950 . S
H520 C517 0.950 . S
C521 C512 1.390 . S
C521 H514 0.950 . S
C521 C518 1.387 . S
C522 C523 1.387 . S
C522 H526 0.950 . S
C522 C531 1.390 . S
C523 C522 1.387 . S
C523 C525 1.387 . S
H524 C531 0.950 1_554 S
C525 C523 1.387 . S
C525 C527 1.390 . S
C525 H529 0.950 . S
H526 C522 0.950 . S
C527 C525 1.390 . S
C527 C528 1.387 . S
C527 H530 0.950 . S
C528 C527 1.387 . S
C528 C531 1.387 . S
H529 C525 0.950 . S
H530 C527 0.950 . S
C531 C522 1.390 . S
C531 H524 0.950 1_556 S
C531 C528 1.387 . S
C532 C533 1.387 . S
C532 H536 0.950 . S
C532 C541 1.390 . S
C533 C532 1.387 . S
C533 C535 1.387 . S
H534 C541 0.950 . S
C535 C533 1.387 . S
C535 C537 1.390 . S
C535 H539 0.950 . S
H536 C532 0.950 . S
C537 C535 1.390 . S
C537 C538 1.387 . S
C537 H540 0.950 . S
C538 C537 1.387 . S
C538 C541 1.387 . S
H539 C535 0.950 . S
H540 C537 0.950 . S
C541 C532 1.390 . S
C541 H534 0.950 . S
C541 C538 1.387 . S
C542 C543 1.387 . S
C542 H546 0.950 . S
C542 C551 1.390 . S
C543 C542 1.387 . S
C543 C545 1.387 . S
H544 C551 0.950 . S
C545 C543 1.387 . S
C545 C547 1.390 . S
C545 H549 0.950 . S
H546 C542 0.950 . S
C547 C545 1.390 . S
C547 C548 1.387 . S
C547 H550 0.950 . S
C548 C547 1.387 . S
C548 C551 1.387 . S
H549 C545 0.950 . S
H550 C547 0.950 . S
C551 C542 1.390 . S
C551 H544 0.950 . S
C551 C548 1.387 . S
C552 C553 1.387 . S
C552 H556 0.950 . S
C552 C561 1.390 . S
C553 C552 1.387 . S
C553 C555 1.387 . S
H554 C561 0.950 . S
C555 C553 1.387 . S
C555 C557 1.390 . S
C555 H559 0.950 . S
H556 C552 0.950 . S
C557 C555 1.390 . S
C557 C558 1.387 . S
C557 H560 0.950 . S
C558 C557 1.387 . S
C558 C561 1.387 . S
H559 C555 0.950 . S
H560 C557 0.950 . S
C561 C552 1.390 . S
C561 H554 0.950 . S
C561 C558 1.387 . S
C562 C563 1.387 . S
C562 H566 0.950 . S
C562 C571 1.390 . S
C563 C562 1.387 . S
C563 C565 1.387 . S
H564 C571 0.950 . S
C565 C563 1.387 . S
C565 C567 1.390 . S
C565 H569 0.950 . S
H566 C562 0.950 . S
C567 C565 1.390 . S
C567 C568 1.387 . S
C567 H570 0.950 . S
C568 C567 1.387 . S
C568 C571 1.387 . S
H569 C565 0.950 . S
H570 C567 0.950 . S
C571 C562 1.390 . S
C571 H564 0.950 . S
C571 C568 1.387 . S
C572 C573 1.387 . S
C572 H576 0.950 . S
C572 C581 1.390 . S
C573 C572 1.387 . S
C573 C575 1.387 . S
H574 C581 0.950 . S
C575 C573 1.387 . S
C575 C577 1.390 . S
C575 H579 0.950 . S
H576 C572 0.950 . S
C577 C575 1.390 . S
C577 C578 1.387 . S
C577 H580 0.950 . S
C578 C577 1.387 . S
C578 C581 1.387 . S
H579 C575 0.950 . S
H580 C577 0.950 . S
C581 C572 1.390 . S
C581 H574 0.950 . S
C581 C578 1.387 . S
C582 C583 1.387 . S
C582 H586 0.950 . S
C582 C591 1.390 . S
C583 C582 1.387 . S
C583 C585 1.387 . S
H584 C591 0.950 . S
C585 C583 1.387 . S
C585 C587 1.390 . S
C585 H589 0.950 . S
H586 C582 0.950 . S
C587 C585 1.390 . S
C587 C588 1.387 . S
C587 H590 0.950 . S
C588 C587 1.387 . S
C588 C591 1.387 . S
H589 C585 0.950 . S
H590 C587 0.950 . S
C591 C582 1.390 . S
C591 H584 0.950 . S
C591 C588 1.387 . S
C592 C593 1.375 1_556 S
C592 H596 0.948 1_556 S
C592 C601 1.405 . S
C593 C592 1.375 1_554 S
C593 C595 1.387 . S
H594 C601 0.950 . S
C595 C593 1.387 . S
C595 C597 1.390 1_554 S
C595 H599 0.950 . S
H596 C592 0.948 1_554 S
C597 C595 1.390 1_556 S
C597 C598 1.387 . S
C597 H600 0.950 . S
C598 C597 1.387 . S
C598 C601 1.387 . S
H599 C595 0.950 . S
H600 C597 0.950 . S
C601 C592 1.405 . S
C601 H594 0.950 . S
C601 C598 1.387 . S
C602 C603 1.387 . S
C602 H606 0.950 . S
C602 C611 1.390 . S
C603 C602 1.387 . S
C603 C605 1.387 . S
H604 C611 0.950 . S
C605 C603 1.387 . S
C605 C607 1.390 . S
C605 H609 0.950 . S
H606 C602 0.950 . S
C607 C605 1.390 . S
C607 C608 1.387 . S
C607 H610 0.950 . S
C608 C607 1.387 . S
C608 C611 1.387 . S
H609 C605 0.950 . S
H610 C607 0.950 . S
C611 C602 1.390 . S
C611 H604 0.950 . S
C611 C608 1.387 . S
C378 C363 1.323 . S
C373 C45 1.603 . S
C383 C84 1.621 . S
C388 C293 1.353 . S
C393 C126 1.549 . S
C398 C313 1.631 . S
C403 C189 1.557 . S
C408 C327 1.568 . S
C418 C335 1.294 . S
C413 C228 1.570 . S
C423 C270 1.528 . S
C428 C349 1.297 . S
C433 C69 1.583 . S
C438 C307 1.332 . S
C443 C141 1.581 . S
C448 C321 1.301 . S
C453 C174 1.485 . S
C458 C341 1.558 . S
C468 C355 1.607 . S
C463 C213 1.546 . S
C478 C369 1.609 . S
C473 C285 1.596 . S
C488 C299 1.626 . S
C483 C30 1.545 . S
C493 C36 1.488 . S
C498 C306 1.463 . S
C503 C93 1.490 . S
C508 C320 1.460 . S
C518 C342 1.480 . S
C513 C117 1.477 . S
C523 C180 1.494 . S
C528 C356 1.491 1_556 S
C538 C370 1.454 . S
C533 C237 1.465 . S
C548 C300 1.449 . S
C543 C261 1.446 . S
C558 C362 1.447 . S
C553 C78 1.464 . S
C563 C132 1.485 . S
C568 C292 1.460 . S
C578 C314 1.477 . S
C573 C165 1.473 . S
C583 C222 1.465 . S
C588 C328 1.474 . S
C593 C276 1.521 . S
C598 C334 1.499 . S
C603 C21 1.502 . S
C608 C348 1.486 . S
