# Generated by pormake.
# Topology anh, (6,3)-cn, num edge types: 1
# Building blocks:
#     Node 0, Type 0, BuildingBlock: BETDAH_clean_sbu_0, # of connection points: 6
#     Node 1, Type 0, BuildingBlock: BETDAH_clean_sbu_0, # of connection points: 6
#     Node 2, Type 0, BuildingBlock: BETDAH_clean_sbu_0, # of connection points: 6
#     Node 3, Type 1, BuildingBlock: BETDIP_clean_linker_0, # of connection points: 3
#     Node 4, Type 1, BuildingBlock: BETDIP_clean_linker_0, # of connection points: 3
#     Node 5, Type 1, BuildingBlock: BETDIP_clean_linker_0, # of connection points: 3
#     Node 6, Type 1, BuildingBlock: BETDIP_clean_linker_0, # of connection points: 3
#     Node 7, Type 1, BuildingBlock: BETDIP_clean_linker_0, # of connection points: 3
#     Node 8, Type 1, BuildingBlock: BETDIP_clean_linker_0, # of connection points: 3
#     Edge 9, Type (0, 1), BuildingBlock: XUDNAN_clean_linker_2, # of connection points: 2
#     Edge 10, Type (0, 1), BuildingBlock: XUDNAN_clean_linker_2, # of connection points: 2
#     Edge 11, Type (0, 1), BuildingBlock: XUDNAN_clean_linker_2, # of connection points: 2
#     Edge 12, Type (0, 1), BuildingBlock: XUDNAN_clean_linker_2, # of connection points: 2
#     Edge 13, Type (0, 1), BuildingBlock: XUDNAN_clean_linker_2, # of connection points: 2
#     Edge 14, Type (0, 1), BuildingBlock: XUDNAN_clean_linker_2, # of connection points: 2
#     Edge 15, Type (0, 1), BuildingBlock: XUDNAN_clean_linker_2, # of connection points: 2
#     Edge 16, Type (0, 1), BuildingBlock: XUDNAN_clean_linker_2, # of connection points: 2
#     Edge 17, Type (0, 1), BuildingBlock: XUDNAN_clean_linker_2, # of connection points: 2
#     Edge 18, Type (0, 1), BuildingBlock: XUDNAN_clean_linker_2, # of connection points: 2
#     Edge 19, Type (0, 1), BuildingBlock: XUDNAN_clean_linker_2, # of connection points: 2
#     Edge 20, Type (0, 1), BuildingBlock: XUDNAN_clean_linker_2, # of connection points: 2
#     Edge 21, Type (0, 1), BuildingBlock: XUDNAN_clean_linker_2, # of connection points: 2
#     Edge 22, Type (0, 1), BuildingBlock: XUDNAN_clean_linker_2, # of connection points: 2
#     Edge 23, Type (0, 1), BuildingBlock: XUDNAN_clean_linker_2, # of connection points: 2
#     Edge 24, Type (0, 1), BuildingBlock: XUDNAN_clean_linker_2, # of connection points: 2
#     Edge 25, Type (0, 1), BuildingBlock: XUDNAN_clean_linker_2, # of connection points: 2
#     Edge 26, Type (0, 1), BuildingBlock: XUDNAN_clean_linker_2, # of connection points: 2
# Relax obj value: 0.158
# Max RMSD: 0.182
# Mean RMSD: 0.126
data_MOF--net-anh--node1-BETDAH_clean_sbu_0--node2-BETDIP_clean_linker_0--edge1-XUDNAN_clean_linker_2
_symmetry_space_group_name_H-M    P1
_symmetry_Int_Tables_number       1
_symmetry_cell_setting            triclinic
loop_
_symmetry_equiv_pos_as_xyz
'x, y, z'
_cell_length_a     31.479997
_cell_length_b     37.961467
_cell_length_c     49.323929
_cell_angle_alpha  96.101836
_cell_angle_beta   88.884459
_cell_angle_gamma 130.00565
loop_
_atom_site_label
_atom_site_type_symbol
_atom_site_fract_x
_atom_site_fract_y
_atom_site_fract_z
_atom_type_partial_charge
Ho0 Ho 0.14321 0.55271 0.14258 0.0
Ho1 Ho 1.07339 0.57694 0.16515 0.0
C2 C 0.19678 0.66108 0.15383 0.0
C3 C 0.19932 0.53561 0.11471 0.0
C4 C 0.19081 0.4927 0.1083 0.0
C5 C 0.2026 0.48255 0.08256 0.0
C6 C 0.19465 0.44182 0.07633 0.0
C7 C 0.17506 0.4108 0.09585 0.0
C8 C 0.16203 0.42053 0.12141 0.0
C9 C 0.16935 0.46096 0.12751 0.0
C10 C 0.13651 0.55478 0.1969 0.0
C11 C 1.0176 0.46753 0.15359 0.0
C12 C 1.00511 0.57927 0.19309 0.0
C13 C 0.94379 0.5454 0.19257 0.0
C14 C 0.91709 0.52049 0.21491 0.0
C15 C 0.85939 0.4847 0.21329 0.0
C16 C 0.82756 0.47327 0.18927 0.0
C17 C 0.85419 0.49927 0.16734 0.0
C18 C 0.91155 0.53479 0.16892 0.0
C19 C 1.07251 0.56519 0.10989 0.0
O20 O 0.19817 0.6301 0.1397 0.0
O21 O 0.15511 0.64873 0.16895 0.0
O22 O 0.16205 0.53559 0.10345 0.0
O23 O 0.21244 0.55365 0.14037 0.0
O24 O 0.13775 0.52566 0.18146 0.0
O25 O 0.14216 0.58369 0.18307 0.0
O26 O 1.01466 0.49885 0.16551 0.0
O27 O 1.06189 0.47987 0.14076 0.0
O28 O 1.0268 0.60054 0.17135 0.0
O29 O 1.03059 0.56567 0.2023 0.0
O30 O 1.06976 0.59507 0.12303 0.0
O31 O 1.07156 0.54201 0.12649 0.0
H32 H 0.21854 0.50637 0.0674 0.0
H33 H 0.20571 0.4354 0.05659 0.0
H34 H 0.14672 0.39708 0.13674 0.0
H35 H 0.15883 0.46764 0.14734 0.0
H36 H 0.94105 0.52792 0.23334 0.0
H37 H 0.8399 0.46523 0.23049 0.0
H38 H 0.83063 0.49205 0.14879 0.0
H39 H 0.93057 0.55321 0.1513 0.0
Ho40 Ho 0.66639 0.0812 0.4794 0.0
Ho41 Ho 0.59359 0.10558 0.47334 0.0
C42 C 0.53062 0.99883 0.47419 0.0
C43 C 0.71515 0.05153 0.49509 0.0
C44 C 0.70417 1.00746 0.49534 0.0
C45 C 0.67088 0.97743 0.51481 0.0
C46 C 0.66559 0.93837 0.51671 0.0
C47 C 0.69343 0.92857 0.49922 0.0
C48 C 0.72511 0.95764 0.47914 0.0
C49 C 0.73067 0.99688 0.47733 0.0
C50 C 0.64458 0.0839 0.42725 0.0
C51 C 0.72868 0.18776 0.47735 0.0
C52 C 0.54725 0.13795 0.45883 0.0
C53 C 0.56276 0.1838 0.4629 0.0
C54 C 0.61427 0.22206 0.47596 0.0
C55 C 0.62758 0.26511 0.4812 0.0
C56 C 0.58937 0.2705 0.47365 0.0
C57 C 0.5381 0.23211 0.46018 0.0
C58 C 0.52497 0.1891 0.45483 0.0
C59 C 0.6177 0.10448 0.52543 0.0
O60 O 0.57949 0.01158 0.48168 0.0
O61 O 0.52625 0.02868 0.46644 0.0
O62 O 0.72145 0.06619 0.47133 0.0
O63 O 0.6866 0.0582 0.51102 0.0
O64 O 0.69157 0.09727 0.43676 0.0
O65 O 0.61024 0.06696 0.44557 0.0
O66 O 0.67977 0.17362 0.46873 0.0
O67 O 0.7331 0.15869 0.48654 0.0
O68 O 0.53639 0.11822 0.48101 0.0
O69 O 0.57827 0.1341 0.44305 0.0
O70 O 0.57035 0.09148 0.51694 0.0
O71 O 0.6504 0.12015 0.50653 0.0
H72 H 0.65 0.98462 0.52907 0.0
H73 H 0.64048 0.91624 0.5322 0.0
H74 H 0.74752 0.95118 0.46561 0.0
H75 H 0.75704 0.01967 0.46233 0.0
H76 H 0.64383 0.21851 0.48251 0.0
H77 H 0.66763 0.29409 0.49132 0.0
H78 H 0.50744 0.23493 0.45445 0.0
H79 H 0.48487 0.15976 0.4449 0.0
Ho80 Ho 0.66401 0.59663 0.84697 0.0
Ho81 Ho 0.58012 0.49278 0.83931 0.0
C82 C 0.53036 0.54664 0.84649 0.0
C83 C 0.73349 0.68311 0.83943 0.0
C84 C 0.7283 0.71873 0.83722 0.0
C85 C 0.77451 0.76584 0.84351 0.0
C86 C 0.77069 0.79985 0.8398 0.0
C87 C 0.7206 0.78732 0.82955 0.0
C88 C 0.67411 0.73998 0.82373 0.0
C89 C 0.67787 0.70607 0.82761 0.0
C90 C 0.62045 0.55759 0.89314 0.0
C91 C 0.71557 0.54356 0.84326 0.0
C92 C 0.52526 0.40456 0.83698 0.0
C93 C 0.53888 0.37363 0.83576 0.0
C94 C 0.56576 0.37288 0.85783 0.0
C95 C 0.57915 0.34389 0.85541 0.0
C96 C 0.56706 0.31575 0.83068 0.0
C97 C 0.54043 0.31704 0.80868 0.0
C98 C 0.52594 0.34503 0.81133 0.0
C99 C 0.59486 0.53369 0.79477 0.0
O100 O 0.58136 0.58274 0.84015 0.0
O101 O 0.52137 0.50842 0.85171 0.0
O102 O 0.7271 0.66907 0.86343 0.0
O103 O 0.70783 0.64887 0.81957 0.0
O104 O 0.63176 0.59573 0.88839 0.0
O105 O 0.63474 0.54344 0.87389 0.0
O106 O 0.66264 0.50496 0.83731 0.0
O107 O 0.72694 0.58416 0.84916 0.0
O108 O 0.53752 0.42626 0.81557 0.0
O109 O 0.53651 0.43089 0.85987 0.0
O110 O 0.54669 0.4991 0.80203 0.0
O111 O 0.6327 0.54461 0.81127 0.0
H112 H 0.81382 0.77635 0.85085 0.0
H113 H 0.80738 0.83599 0.84428 0.0
H114 H 0.63472 0.72911 0.8162 0.0
H115 H 0.64153 0.66991 0.82268 0.0
H116 H 0.57699 0.39491 0.87685 0.0
H117 H 0.59891 0.34363 0.87301 0.0
H118 H 0.53165 0.29721 0.78902 0.0
H119 H 0.50545 0.34501 0.79391 0.0
H120 H 0.55764 0.02649 0.14942 0.0
H121 H 0.65318 0.10372 0.22578 0.0
H122 H 0.5084 0.95972 0.22238 0.0
H123 H 0.66033 0.16214 0.20401 0.0
C124 C 0.67587 0.15672 0.18557 0.0
C125 C 0.56437 0.02801 0.17112 0.0
C126 C 0.5283 0.98774 0.18419 0.0
C127 C 0.60913 0.07038 0.18614 0.0
C128 C 0.61772 0.07184 0.21433 0.0
C129 C 0.58215 0.03187 0.22755 0.0
C130 C 0.53746 0.99034 0.21226 0.0
N131 N 0.64664 0.11056 0.17252 0.0
H132 H 0.69931 0.5985 0.52751 0.0
H133 H 0.6854 0.65381 0.60448 0.0
H134 H 0.64384 0.52122 0.59672 0.0
H135 H 0.7331 0.71936 0.58632 0.0
C136 C 0.72247 0.70963 0.5645 0.0
C137 C 0.68993 0.59529 0.54881 0.0
C138 C 0.67063 0.55508 0.55997 0.0
C139 C 0.69597 0.63126 0.56456 0.0
C140 C 0.6831 0.6273 0.59209 0.0
C141 C 0.66559 0.58816 0.60383 0.0
C142 C 0.65977 0.55227 0.58782 0.0
N143 N 0.71058 0.66882 0.55131 0.0
H144 H 0.08208 0.54714 0.83042 0.0
H145 H 0.15008 0.54656 0.90571 0.0
H146 H 1.01649 0.54948 0.90802 0.0
H147 H 0.16918 0.50578 0.87794 0.0
C148 C 0.19152 0.52987 0.86289 0.0
C149 C 0.08258 0.5476 0.85238 0.0
C150 C 1.04328 0.54935 0.86747 0.0
C151 C 0.1226 0.54654 0.86606 0.0
C152 C 0.12084 0.54657 0.89453 0.0
C153 C 0.08302 0.54764 0.90934 0.0
C154 C 1.04593 0.54985 0.89597 0.0
N155 N 0.16527 0.54721 0.85228 0.0
H156 H 0.16342 0.64188 0.4761 0.0
H157 H 0.08109 0.54121 0.40477 0.0
H158 H 0.2287 0.68035 0.39692 0.0
H159 H 1.00302 0.52089 0.43243 0.0
C160 C 1.0203 0.51583 0.44896 0.0
C161 C 0.16098 0.63307 0.45424 0.0
C162 C 0.2016 0.66718 0.43797 0.0
C163 C 0.11689 0.58758 0.4423 0.0
C164 C 0.11432 0.57628 0.41403 0.0
C165 C 0.15468 0.6093 0.3976 0.0
C166 C 0.19787 0.6547 0.40964 0.0
N167 N 0.07675 0.55278 0.45879 0.0
H168 H 0.65175 0.08273 0.79811 0.0
H169 H 0.6658 0.03208 0.71904 0.0
H170 H 0.62994 0.12421 0.72533 0.0
H171 H 0.63908 0.97154 0.74122 0.0
C172 C 0.65979 0.98756 0.76147 0.0
C173 C 0.64998 0.08105 0.77604 0.0
C174 C 0.63913 0.10644 0.76364 0.0
C175 C 0.65769 0.05279 0.7602 0.0
C176 C 0.6572 0.05181 0.73155 0.0
C177 C 0.64678 0.07729 0.71888 0.0
C178 C 0.6367 0.1037 0.73502 0.0
N179 N 0.66786 0.02731 0.77379 0.0
H180 H 0.35849 0.26256 0.08789 0.0
H181 H 0.50996 0.35492 0.0475 0.0
H182 H 0.36708 0.34099 0.02819 0.0
H183 H 0.41938 0.28239 0.12207 0.0
C184 C 0.45559 0.28934 0.11321 0.0
C185 C 0.38163 0.28653 0.07296 0.0
C186 C 0.35578 0.29794 0.05765 0.0
C187 C 0.43734 0.30678 0.06913 0.0
C188 C 0.46654 0.33812 0.04977 0.0
C189 C 0.44153 0.35107 0.03532 0.0
C190 C 0.38597 0.33011 0.03892 0.0
N191 N 0.46678 0.2995 0.08577 0.0
H192 H 0.221 0.38827 0.12817 0.0
H193 H 0.12971 0.34641 0.05048 0.0
H194 H 0.1449 0.29073 0.03778 0.0
H195 H 0.3248 0.39851 0.104 0.0
H196 H 0.33794 0.37784 0.13122 0.0
H197 H 0.30407 0.40143 0.13796 0.0
H198 H 0.2212 0.32555 0.15628 0.0
H199 H 0.25512 0.30156 0.14941 0.0
H200 H 0.1856 0.27083 0.13514 0.0
H201 H 0.18974 0.25719 0.02858 0.0
H202 H 0.26475 0.25344 0.02255 0.0
H203 H 0.32787 0.31587 0.10598 0.0
C204 C 0.2018 0.36554 0.10911 0.0
C205 C 0.17366 0.371 0.09042 0.0
C206 C 0.15109 0.34236 0.06512 0.0
C207 C 0.15908 0.31036 0.05789 0.0
C208 C 0.18951 0.30732 0.07624 0.0
C209 C 0.2102 0.33397 0.10151 0.0
C210 C 0.25075 0.33148 0.11515 0.0
C211 C 0.3077 0.38017 0.12245 0.0
C212 C 0.22671 0.30581 0.1405 0.0
C213 C 0.2538 0.303 0.09256 0.0
C214 C 0.21635 0.2877 0.07075 0.0
C215 C 0.21779 0.26745 0.04582 0.0
C216 C 0.26041 0.26534 0.04254 0.0
C217 C 0.30105 0.28359 0.06402 0.0
C218 C 0.2958 0.3001 0.08972 0.0
H219 H 0.73955 0.25519 0.45307 0.0
H220 H 0.83236 0.23329 0.50185 0.0
H221 H 0.91599 0.31557 0.50201 0.0
H222 H 0.84961 0.3307 0.41089 0.0
H223 H 0.8316 0.36687 0.4089 0.0
H224 H 0.77864 0.30693 0.41383 0.0
H225 H 0.75189 0.3313 0.45738 0.0
H226 H 0.80504 0.39144 0.45284 0.0
H227 H 0.80427 0.37134 0.4845 0.0
H228 H 0.99081 0.40132 0.49638 0.0
H229 H 1.05046 0.48088 0.48318 0.0
H230 H 0.90958 0.44583 0.437 0.0
C231 C 0.77732 0.26767 0.46395 0.0
C232 C 0.77907 0.23753 0.47755 0.0
C233 C 0.82972 0.25546 0.49127 0.0
C234 C 0.87753 0.3023 0.49155 0.0
C235 C 0.87439 0.33101 0.47792 0.0
C236 C 0.82558 0.31424 0.46424 0.0
C237 C 0.83363 0.35174 0.45027 0.0
C238 C 0.82274 0.33825 0.41913 0.0
C239 C 0.79651 0.36206 0.46195 0.0
C240 C 0.89466 0.39216 0.45805 0.0
C241 C 0.91739 0.37973 0.47424 0.0
C242 C 0.97332 0.41137 0.48374 0.0
C243 C 1.00693 0.45657 0.47622 0.0
C244 C 0.98466 0.46963 0.45914 0.0
C245 C 0.9277 0.4369 0.45018 0.0
H246 H 0.67055 0.78849 0.78502 0.0
H247 H 0.76285 0.86787 0.86241 0.0
H248 H 0.75736 0.92788 0.85372 0.0
H249 H 0.73337 0.88544 0.74744 0.0
H250 H 0.67026 0.86015 0.72761 0.0
H251 H 0.68091 0.82334 0.74017 0.0
H252 H 0.58833 0.78051 0.76412 0.0
H253 H 0.57734 0.81715 0.7516 0.0
H254 H 0.57742 0.81332 0.78771 0.0
H255 H 0.74077 0.97905 0.83656 0.0
H256 H 0.71658 0.01799 0.81184 0.0
H257 H 0.63613 0.90546 0.74548 0.0
C258 C 0.68918 0.81827 0.80028 0.0
C259 C 0.71702 0.82338 0.82446 0.0
C260 C 0.74171 0.86336 0.84365 0.0
C261 C 0.73856 0.89751 0.83894 0.0
C262 C 0.71081 0.89136 0.81488 0.0
C263 C 0.6867 0.85278 0.79583 0.0
C264 C 0.66005 0.85474 0.77143 0.0
C265 C 0.68782 0.85601 0.74511 0.0
C266 C 0.59705 0.81402 0.76856 0.0
C267 C 0.67282 0.90042 0.77971 0.0
C268 C 0.70194 0.92097 0.80489 0.0
C269 C 0.71803 0.96327 0.81682 0.0
C270 C 0.70405 0.98512 0.80263 0.0
C271 C 0.67447 0.9647 0.77674 0.0
C272 C 0.65884 0.92186 0.76523 0.0
H273 H 0.76703 0.40791 0.14543 0.0
H274 H 0.75089 0.45256 0.2267 0.0
H275 H 0.64855 0.39629 0.21868 0.0
H276 H 0.67305 0.40617 0.11327 0.0
H277 H 0.64501 0.35617 0.08868 0.0
H278 H 0.71473 0.39034 0.10324 0.0
H279 H 0.69161 0.3175 0.11988 0.0
H280 H 0.62152 0.28277 0.10514 0.0
H281 H 0.63362 0.28299 0.14075 0.0
H282 H 0.55025 0.34636 0.19872 0.0
H283 H 0.46631 0.30969 0.1685 0.0
H284 H 0.54799 0.3005 0.09981 0.0
C285 C 0.74186 0.40505 0.16177 0.0
C286 C 0.7667 0.43461 0.18662 0.0
C287 C 0.73259 0.42982 0.20761 0.0
C288 C 0.67445 0.39793 0.20322 0.0
C289 C 0.65131 0.37077 0.1779 0.0
C290 C 0.68411 0.37375 0.15763 0.0
C291 C 0.6503 0.34581 0.13104 0.0
C292 C 0.67206 0.37647 0.10771 0.0
C293 C 0.64918 0.30482 0.12378 0.0
C294 C 0.59396 0.32934 0.13886 0.0
C295 C 0.59482 0.34271 0.1662 0.0
C296 C 0.54879 0.33488 0.17746 0.0
C297 C 0.50136 0.3141 0.16018 0.0
C298 C 0.50097 0.30247 0.13192 0.0
C299 C 0.54717 0.30886 0.12139 0.0
H300 H 0.50763 0.91784 0.45158 0.0
H301 H 0.43587 0.97059 0.49687 0.0
H302 H 0.34646 0.8908 0.496 0.0
H303 H 0.38762 0.83431 0.40668 0.0
H304 H 0.3953 0.79097 0.4044 0.0
H305 H 0.45556 0.85141 0.41132 0.0
H306 H 0.48133 0.83548 0.4553 0.0
H307 H 0.42107 0.77492 0.44849 0.0
H308 H 0.43103 0.8074 0.4807 0.0
H309 H 0.26377 0.80544 0.4892 0.0
H310 H 0.19151 0.72193 0.47313 0.0
H311 H 0.3138 0.72407 0.4293 0.0
C312 C 0.4733 0.91229 0.46175 0.0
C313 C 0.47879 0.95025 0.47473 0.0
C314 C 0.43255 0.94191 0.48705 0.0
C315 C 0.38167 0.8967 0.48672 0.0
C316 C 0.37717 0.85997 0.47355 0.0
C317 C 0.42151 0.86723 0.461 0.0
C318 C 0.40392 0.82204 0.44616 0.0
C319 C 0.41102 0.82487 0.41531 0.0
C320 C 0.43627 0.80921 0.4584 0.0
C321 C 0.34286 0.78848 0.45215 0.0
C322 C 0.32859 0.81098 0.4684 0.0
C323 C 0.27453 0.78745 0.47651 0.0
C324 C 0.23375 0.73991 0.46742 0.0
C325 C 0.24679 0.71631 0.44999 0.0
C326 C 0.3024 0.7411 0.44255 0.0
H327 H 0.51375 0.23186 0.79831 0.0
H328 H 0.65796 0.33236 0.85485 0.0
H329 H 0.68675 0.28539 0.84725 0.0
H330 H 0.48811 0.12814 0.81268 0.0
H331 H 0.47103 0.1035 0.77731 0.0
H332 H 0.45777 0.14178 0.78984 0.0
H333 H 0.5165 0.19471 0.75254 0.0
H334 H 0.52982 0.15659 0.73987 0.0
H335 H 0.58703 0.21723 0.74987 0.0
H336 H 0.70271 0.22912 0.83152 0.0
H337 H 0.7076 0.17171 0.80668 0.0
H338 H 0.55777 0.11256 0.75771 0.0
C339 C 0.55155 0.24442 0.80914 0.0
C340 C 0.5832 0.2861 0.82736 0.0
C341 C 0.63192 0.30021 0.84128 0.0
C342 C 0.64896 0.27384 0.83696 0.0
C343 C 0.61725 0.23357 0.81846 0.0
C344 C 0.56979 0.21916 0.80464 0.0
C345 C 0.54547 0.17677 0.78417 0.0
C346 C 0.48714 0.13508 0.79145 0.0
C347 C 0.54469 0.18696 0.75489 0.0
C348 C 0.58705 0.16984 0.78839 0.0
C349 C 0.62766 0.20246 0.80858 0.0
C350 C 0.67099 0.20333 0.81577 0.0
C351 C 0.67332 0.1705 0.80166 0.0
C352 C 0.63306 0.13775 0.78034 0.0
C353 C 0.58915 0.13728 0.7739 0.0
H354 H 0.7082 0.90757 0.54741 0.0
H355 H 0.67882 0.86397 0.46008 0.0
H356 H 0.68302 0.8026 0.46708 0.0
H357 H 0.80566 0.89192 0.55881 0.0
H358 H 0.78155 0.87127 0.59152 0.0
H359 H 0.77393 0.91032 0.57969 0.0
H360 H 0.66791 0.85174 0.58551 0.0
H361 H 0.67525 0.81265 0.59758 0.0
H362 H 0.62732 0.79315 0.5689 0.0
H363 H 0.69159 0.74679 0.48383 0.0
H364 H 0.70365 0.70053 0.50894 0.0
H365 H 0.72879 0.78203 0.58518 0.0
C366 C 0.70173 0.88462 0.5298 0.0
C367 C 0.69279 0.89017 0.50322 0.0
C368 C 0.68586 0.86025 0.4806 0.0
C369 C 0.68804 0.82532 0.48439 0.0
C370 C 0.69743 0.82108 0.51089 0.0
C371 C 0.7041 0.8499 0.5332 0.0
C372 C 0.71506 0.83899 0.55948 0.0
C373 C 0.77246 0.8806 0.57317 0.0
C374 C 0.66861 0.82318 0.57901 0.0
C375 C 0.71366 0.79953 0.5485 0.0
C376 C 0.70325 0.78958 0.52045 0.0
C377 C 0.69977 0.75427 0.50579 0.0
C378 C 0.70674 0.72824 0.52023 0.0
C379 C 0.7173 0.73795 0.54898 0.0
C380 C 0.72105 0.77416 0.56318 0.0
H381 H 0.82315 0.59961 0.87235 0.0
H382 H 0.71646 0.47896 0.81229 0.0
H383 H 0.78831 0.47079 0.80912 0.0
H384 H 0.95715 0.64564 0.84487 0.0
H385 H 0.99306 0.66239 0.8778 0.0
H386 H 0.93481 0.66068 0.87446 0.0
H387 H 0.88595 0.60507 0.91135 0.0
H388 H 0.94422 0.60688 0.91492 0.0
H389 H 0.8752 0.55202 0.90721 0.0
H390 H 0.87747 0.47668 0.81172 0.0
H391 H 0.96314 0.48977 0.82425 0.0
H392 H 1.01116 0.60249 0.88515 0.0
C393 C 0.81481 0.57159 0.85831 0.0
C394 C 0.76267 0.54031 0.84223 0.0
C395 C 0.75488 0.50385 0.8248 0.0
C396 C 0.79617 0.49894 0.82279 0.0
C397 C 0.84662 0.53011 0.8387 0.0
C398 C 0.8556 0.56538 0.85654 0.0
C399 C 0.91207 0.59246 0.87265 0.0
C400 C 0.95161 0.64332 0.86712 0.0
C401 C 0.90388 0.58891 0.90336 0.0
C402 C 0.93364 0.56748 0.86106 0.0
C403 C 0.89558 0.53192 0.84116 0.0
C404 C 0.90699 0.50453 0.8274 0.0
C405 C 0.95675 0.51259 0.83447 0.0
C406 C 0.99606 0.54758 0.8556 0.0
C407 C 0.98337 0.57551 0.8687 0.0
H408 H 0.30927 0.71186 0.16313 0.0
H409 H 0.18601 0.72322 0.14179 0.0
H410 H 0.26034 0.80759 0.1406 0.0
H411 H 0.3882 0.81424 0.20973 0.0
H412 H 0.45459 0.83047 0.20218 0.0
H413 H 0.39284 0.77043 0.19739 0.0
H414 H 0.41435 0.7641 0.14697 0.0
H415 H 0.476 0.82437 0.15159 0.0
H416 H 0.42387 0.80322 0.1248 0.0
H417 H 0.34808 0.89174 0.14389 0.0
H418 H 0.43923 0.96924 0.15774 0.0
H419 H 0.5044 0.90415 0.18037 0.0
C420 C 0.29829 0.73211 0.15765 0.0
C421 C 0.24213 0.7111 0.15207 0.0
C422 C 0.22892 0.73876 0.14589 0.0
C423 C 0.27088 0.78661 0.14502 0.0
C424 C 0.32596 0.80656 0.15082 0.0
C425 C 0.33966 0.78026 0.15742 0.0
C426 C 0.40107 0.81092 0.16596 0.0
C427 C 0.40965 0.80624 0.19557 0.0
C428 C 0.43055 0.79999 0.14614 0.0
C429 C 0.41958 0.85849 0.16349 0.0
C430 C 0.37595 0.8552 0.15409 0.0
C431 C 0.38262 0.89467 0.15106 0.0
C432 C 0.43462 0.93857 0.15874 0.0
C433 C 0.47894 0.94265 0.16975 0.0
C434 C 0.47143 0.90198 0.17155 0.0
H435 H 0.63928 0.32931 0.52146 0.0
H436 H 0.56708 0.31293 0.44217 0.0
H437 H 0.58265 0.38522 0.45527 0.0
H438 H 0.58265 0.37205 0.5602 0.0
H439 H 0.6433 0.413 0.58327 0.0
H440 H 0.62904 0.36118 0.56729 0.0
H441 H 0.72633 0.41058 0.5477 0.0
H442 H 0.74112 0.46261 0.5638 0.0
H443 H 0.74676 0.45562 0.52753 0.0
H444 H 0.60101 0.45629 0.4778 0.0
H445 H 0.62327 0.52304 0.50771 0.0
H446 H 0.68793 0.49551 0.57169 0.0
C447 C 0.62771 0.34135 0.50662 0.0
C448 C 0.6019 0.31543 0.48077 0.0
C449 C 0.5863 0.33192 0.4622 0.0
C450 C 0.59528 0.37306 0.46938 0.0
C451 C 0.6202 0.3974 0.49514 0.0
C452 C 0.63654 0.38239 0.51341 0.0
C453 C 0.66114 0.41441 0.54006 0.0
C454 C 0.62698 0.38861 0.56412 0.0
C455 C 0.72249 0.43716 0.54505 0.0
C456 C 0.6553 0.44943 0.53405 0.0
C457 C 0.63172 0.439 0.508 0.0
C458 C 0.62032 0.46527 0.49808 0.0
C459 C 0.6335 0.50335 0.51522 0.0
C460 C 0.65817 0.51507 0.54198 0.0
C461 C 0.66912 0.48756 0.5514 0.0
H462 H 0.42141 0.49128 0.86824 0.0
H463 H 0.52966 0.60961 0.82358 0.0
H464 H 0.45815 0.61774 0.82134 0.0
H465 H 0.2898 0.44396 0.833 0.0
H466 H 0.25122 0.4272 0.86329 0.0
H467 H 0.31027 0.42965 0.86092 0.0
H468 H 0.35501 0.48567 0.90576 0.0
H469 H 0.29601 0.48324 0.90828 0.0
H470 H 0.36505 0.53836 0.90867 0.0
H471 H 0.369 0.61252 0.82331 0.0
H472 H 0.28022 0.59683 0.83194 0.0
H473 H 0.22966 0.48473 0.87696 0.0
C474 C 0.43031 0.5189 0.85787 0.0
C475 C 0.48301 0.54964 0.84597 0.0
C476 C 0.49105 0.58526 0.833 0.0
C477 C 0.44992 0.5902 0.83153 0.0
C478 C 0.39902 0.55968 0.84335 0.0
C479 C 0.38937 0.52484 0.85654 0.0
C480 C 0.3317 0.4975 0.86833 0.0
C481 C 0.29348 0.44654 0.85564 0.0
C482 C 0.33728 0.50142 0.89962 0.0
C483 C 0.31036 0.52189 0.8597 0.0
C484 C 0.34963 0.55761 0.84508 0.0
C485 C 0.33849 0.58452 0.83485 0.0
C486 C 0.28723 0.57525 0.83976 0.0
C487 C 0.24613 0.53928 0.85511 0.0
C488 C 0.25908 0.51252 0.86502 0.0
H489 H 0.92355 0.42826 0.18238 0.0
H490 H 1.00098 0.3928 0.1252 0.0
H491 H 0.92019 0.30971 0.12525 0.0
H492 H 0.86769 0.33583 0.22239 0.0
H493 H 0.80451 0.32636 0.22826 0.0
H494 H 0.86701 0.383 0.22258 0.0
H495 H 0.8159 0.38372 0.18253 0.0
H496 H 0.75301 0.32714 0.18808 0.0
H497 H 0.78111 0.337 0.15491 0.0
H498 H 0.83013 0.22953 0.13178 0.0
H499 H 0.74194 0.15968 0.14659 0.0
H500 H 0.72514 0.24731 0.20072 0.0
C501 C 0.92353 0.40311 0.16974 0.0
C502 C 0.96885 0.41735 0.15369 0.0
C503 C 0.96699 0.38302 0.13766 0.0
C504 C 0.92108 0.33563 0.13748 0.0
C505 C 0.87718 0.32282 0.15351 0.0
C506 C 0.8782 0.35562 0.16947 0.0
C507 C 0.82673 0.33275 0.18565 0.0
C508 C 0.84245 0.34522 0.21655 0.0
C509 C 0.79213 0.34591 0.17728 0.0
C510 C 0.79692 0.28194 0.17661 0.0
C511 C 0.82628 0.27689 0.15777 0.0
C512 C 0.80686 0.23314 0.14652 0.0
C513 C 0.75661 0.1936 0.15498 0.0
C514 C 0.72665 0.19803 0.17477 0.0
C515 C 0.74714 0.24287 0.18552 0.0
H516 H 0.08009 0.61412 0.06944 0.0
H517 H 1.05956 0.49281 0.08263 0.0
H518 H 1.06081 0.47613 0.03321 0.0
H519 H 0.99095 0.56149 0.00639 0.0
H520 H 1.03328 0.61395 0.99035 0.0
H521 H 1.03124 0.61709 0.02701 0.0
H522 H 0.13842 0.66887 0.03181 0.0
H523 H 0.14078 0.66579 0.99518 0.0
H524 H 0.17142 0.64859 0.01456 0.0
H525 H 1.06762 0.47353 0.98308 0.0
H526 H 0.07372 0.48249 0.93399 0.0
H527 H 0.0853 0.60296 0.95159 0.0
C528 C 0.07565 0.58401 0.06182 0.0
C529 C 1.07072 0.55521 0.07992 0.0
C530 C 1.06456 0.51591 0.06922 0.0
C531 C 1.06494 0.50597 0.04114 0.0
C532 C 1.07071 0.53527 0.02385 0.0
C533 C 0.07535 0.57321 0.0336 0.0
C534 C 0.08034 0.59851 0.01024 0.0
C535 C 1.03101 0.59769 0.00839 0.0
C536 C 0.13606 0.6484 0.01313 0.0
C537 C 0.07815 0.56898 0.98601 0.0
C538 C 1.07291 0.53287 0.99446 0.0
C539 C 1.07144 0.5015 0.97614 0.0
C540 C 0.07521 0.50699 0.94834 0.0
C541 C 0.08002 0.54337 0.93904 0.0
C542 C 0.08126 0.57465 0.95817 0.0
H543 H 0.6519 0.13139 0.38689 0.0
H544 H 0.60116 0.99931 0.40262 0.0
H545 H 0.58138 0.97228 0.35303 0.0
H546 H 0.54657 0.08385 0.33095 0.0
H547 H 0.59251 0.13213 0.3118 0.0
H548 H 0.6015 0.14053 0.34853 0.0
H549 H 0.70377 0.17509 0.34504 0.0
H550 H 0.69487 0.16619 0.3083 0.0
H551 H 0.7187 0.14162 0.32553 0.0
H552 H 0.57373 0.96187 0.30225 0.0
H553 H 0.56776 0.96437 0.25297 0.0
H554 H 0.61704 0.10136 0.26963 0.0
C555 C 0.63588 0.09661 0.37974 0.0
C556 C 0.62757 0.06707 0.39821 0.0
C557 C 0.60716 0.02199 0.38851 0.0
C558 C 0.59615 1.00654 0.36048 0.0
C559 C 0.60545 0.03661 0.3426 0.0
C560 C 0.62398 0.08041 0.35177 0.0
C561 C 0.62983 0.10541 0.32808 0.0
C562 C 0.59023 0.11609 0.32996 0.0
C563 C 0.6904 0.1497 0.32667 0.0
C564 C 0.61225 0.06898 0.30421 0.0
C565 C 0.59889 0.02981 0.31312 0.0
C566 C 0.58309 0.99199 0.29501 0.0
C567 C 0.57954 0.9937 0.26702 0.0
C568 C 0.59085 0.03268 0.25728 0.0
C569 C 0.6082 0.07107 0.27627 0.0
H570 H 0.67448 0.5539 0.76001 0.0
H571 H 0.53211 0.54695 0.76887 0.0
H572 H 0.53868 0.5653 0.7215 0.0
H573 H 0.75063 0.64534 0.71417 0.0
H574 H 0.77227 0.61746 0.69402 0.0
H575 H 0.76131 0.61049 0.72973 0.0
H576 H 0.69191 0.52131 0.71725 0.0
H577 H 0.70212 0.52794 0.68153 0.0
H578 H 0.63312 0.49508 0.69355 0.0
H579 H 0.55779 0.58053 0.67288 0.0
H580 H 0.58545 0.58815 0.62514 0.0
H581 H 0.71016 0.57834 0.6465 0.0
C582 C 0.6458 0.55757 0.75211 0.0
C583 C 0.6034 0.54996 0.76796 0.0
C584 C 0.56515 0.55324 0.7569 0.0
C585 C 0.56864 0.56366 0.73012 0.0
C586 C 0.61006 0.56986 0.71466 0.0
C587 C 0.64782 0.56673 0.72515 0.0
C588 C 0.68476 0.57041 0.7034 0.0
C589 C 0.74587 0.6135 0.71077 0.0
C590 C 0.67751 0.52604 0.69866 0.0
C591 C 0.66147 0.57558 0.679 0.0
C592 C 0.61903 0.57596 0.68608 0.0
C593 C 0.59101 0.58038 0.66708 0.0
C594 C 0.60687 0.58462 0.64011 0.0
C595 C 0.64961 0.58361 0.63237 0.0
C596 C 0.67711 0.5789 0.65202 0.0
H597 H 0.55249 0.0764 0.56921 0.0
H598 H 0.71572 0.13006 0.54492 0.0
H599 H 0.73841 0.12382 0.5909 0.0
H600 H 0.60012 0.13967 0.63667 0.0
H601 H 0.53891 0.09414 0.65242 0.0
H602 H 0.53432 0.1 0.61708 0.0
H603 H 0.49205 0.01484 0.60344 0.0
H604 H 0.49684 1.00881 0.63874 0.0
H605 H 0.52915 0.99638 0.6135 0.0
H606 H 0.74262 0.11034 0.63933 0.0
H607 H 0.73241 0.09956 0.68836 0.0
H608 H 0.56952 0.06065 0.68228 0.0
C609 C 0.59291 0.08666 0.57358 0.0
C610 C 0.63191 0.10263 0.55334 0.0
C611 C 0.68476 0.11664 0.55994 0.0
C612 C 0.69806 0.11332 0.58601 0.0
C613 C 0.65842 0.0968 0.60543 0.0
C614 C 0.60727 0.08446 0.59969 0.0
C615 C 0.57345 0.07043 0.6247 0.0
C616 C 0.56099 0.10301 0.63322 0.0
C617 C 0.51969 0.01959 0.61979 0.0
C618 C 0.61356 0.07684 0.64538 0.0
C619 C 0.66198 0.09137 0.63373 0.0
C620 C 0.70497 0.09911 0.6487 0.0
C621 C 0.69872 0.09265 0.67644 0.0
C622 C 0.65023 0.07926 0.68898 0.0
C623 C 0.60704 0.07099 0.67315 0.0
H624 H 0.59826 0.47895 0.90549 0.0
H625 H 0.59001 0.5854 0.93705 0.0
H626 H 0.54934 0.54666 0.97863 0.0
H627 H 0.46587 0.38429 0.92936 0.0
H628 H 0.48941 0.35335 0.93607 0.0
H629 H 0.51907 0.39116 0.90981 0.0
H630 H 0.61717 0.43502 0.93363 0.0
H631 H 0.5866 0.3981 0.96042 0.0
H632 H 0.63091 0.46009 0.96881 0.0
H633 H 0.5054 0.49441 0.01535 0.0
H634 H 0.45911 0.4312 0.04454 0.0
H635 H 0.49539 0.3583 0.98908 0.0
C636 C 0.58775 0.49402 0.92112 0.0
C637 C 0.59703 0.53504 0.91812 0.0
C638 C 0.58323 0.554 0.93905 0.0
C639 C 0.56023 0.53229 0.9627 0.0
C640 C 0.55122 0.49165 0.96495 0.0
C641 C 0.5642 0.47252 0.94466 0.0
C642 C 0.54773 0.42732 0.95147 0.0
C643 C 0.50289 0.38663 0.93044 0.0
C644 C 0.59866 0.43035 0.95372 0.0
C645 C 0.52409 0.42426 0.97897 0.0
C646 C 0.52631 0.46167 0.98629 0.0
C647 C 0.5039 0.46522 0.00996 0.0
C648 C 0.47771 0.42925 0.02636 0.0
C649 C 0.4743 0.39037 0.01903 0.0
C650 C 0.49851 0.38817 0.99529 0.0
H651 H 0.15241 0.62154 0.23575 0.0
H652 H 0.11837 0.49026 0.22568 0.0
H653 H 0.12036 0.491 0.2755 0.0
H654 H 0.24726 0.67194 0.29513 0.0
H655 H 0.22331 0.70035 0.31193 0.0
H656 H 0.21795 0.6897 0.27518 0.0
H657 H 0.11219 0.64541 0.27475 0.0
H658 H 0.11729 0.65622 0.3115 0.0
H659 H 1.06927 0.59769 0.29465 0.0
H660 H 0.12788 0.50557 0.32559 0.0
H661 H 0.13736 0.53239 0.3745 0.0
H662 H 0.16622 0.65437 0.3539 0.0
C663 C 0.14509 0.59295 0.24414 0.0
C664 C 0.13544 0.55591 0.22689 0.0
C665 C 0.1261 0.51909 0.23851 0.0
C666 C 0.12713 0.51914 0.2668 0.0
C667 C 0.13752 0.55627 0.28331 0.0
C668 C 0.1461 0.59246 0.27259 0.0
C669 C 0.1566 0.62805 0.29531 0.0
C670 C 0.21474 0.67531 0.29432 0.0
C671 C 0.11112 0.63206 0.29397 0.0
C672 C 0.15283 0.60614 0.3203 0.0
C673 C 0.14175 0.56474 0.31273 0.0
C674 C 0.13624 0.53781 0.33185 0.0
C675 C 0.14151 0.55325 0.35957 0.0
C676 C 0.1521 0.59524 0.368 0.0
C677 C 0.15842 0.62227 0.34804 0.0
loop_
_geom_bond_atom_site_label_1
_geom_bond_atom_site_label_2
_geom_bond_distance
_geom_bond_site_symmetry_2
_ccdc_geom_bond_type
Ho0 C3 2.811 . S
Ho0 O20 2.322 . S
Ho0 O22 2.378 . S
Ho0 O23 2.524 . S
Ho0 O24 2.381 . S
Ho0 O25 2.669 . S
Ho0 O27 2.346 . S
Ho0 O31 2.305 . S
Ho1 C12 2.811 1_455 S
Ho1 O21 2.346 . S
Ho1 O25 2.305 . S
Ho1 O26 2.322 1_455 S
Ho1 O28 2.378 1_455 S
Ho1 O29 2.524 1_455 S
Ho1 O30 2.381 . S
Ho1 O31 2.669 . S
C2 O20 1.259 . S
C2 O21 1.268 . S
C3 Ho0 2.811 . S
C3 C4 1.488 . S
C3 O22 1.215 . S
C3 O23 1.289 . S
C4 C3 1.488 . S
C4 C5 1.348 . S
C4 C9 1.413 . S
C5 C4 1.348 . S
C5 C6 1.442 . S
C5 H32 0.930 . S
C6 C5 1.442 . S
C6 C7 1.381 . S
C6 H33 0.931 . S
C7 C6 1.381 . S
C7 C8 1.321 . S
C8 C7 1.321 . S
C8 C9 1.403 . S
C8 H34 0.934 . S
C9 C4 1.413 . S
C9 C8 1.403 . S
C9 H35 0.930 . S
C10 O24 1.275 . S
C10 O25 1.256 . S
C11 O26 1.259 . S
C11 O27 1.268 1_655 S
C12 Ho1 2.811 1_655 S
C12 C13 1.488 . S
C12 O28 1.215 . S
C12 O29 1.289 . S
C13 C12 1.488 . S
C13 C14 1.348 . S
C13 C18 1.413 . S
C14 C13 1.348 . S
C14 C15 1.442 . S
C14 H36 0.930 . S
C15 C14 1.442 . S
C15 C16 1.381 . S
C15 H37 0.931 . S
C16 C15 1.381 . S
C16 C17 1.321 . S
C17 C16 1.321 . S
C17 C18 1.403 . S
C17 H38 0.934 . S
C18 C13 1.413 . S
C18 C17 1.403 . S
C18 H39 0.930 . S
C19 O30 1.275 . S
C19 O31 1.256 . S
O20 Ho0 2.322 . S
O20 C2 1.259 . S
O21 Ho1 2.346 . S
O21 C2 1.268 . S
O22 Ho0 2.378 . S
O22 C3 1.215 . S
O23 Ho0 2.524 . S
O23 C3 1.289 . S
O24 Ho0 2.381 . S
O24 C10 1.275 . S
O25 Ho0 2.669 . S
O25 Ho1 2.305 . S
O25 C10 1.256 . S
O26 Ho1 2.322 1_655 S
O26 C11 1.259 . S
O27 Ho0 2.346 . S
O27 C11 1.268 1_455 S
O28 Ho1 2.378 1_655 S
O28 C12 1.215 . S
O29 Ho1 2.524 1_655 S
O29 C12 1.289 . S
O30 Ho1 2.381 . S
O30 C19 1.275 . S
O31 Ho0 2.305 . S
O31 Ho1 2.669 . S
O31 C19 1.256 . S
H32 C5 0.930 . S
H33 C6 0.931 . S
H34 C8 0.934 . S
H35 C9 0.930 . S
H36 C14 0.930 . S
H37 C15 0.931 . S
H38 C17 0.934 . S
H39 C18 0.930 . S
Ho40 C43 2.811 1_545 S
Ho40 O60 2.322 1_545 S
Ho40 O62 2.378 1_545 S
Ho40 O63 2.524 1_545 S
Ho40 O64 2.381 . S
Ho40 O65 2.669 . S
Ho40 O67 2.346 . S
Ho40 O71 2.305 . S
Ho41 C52 2.811 . S
Ho41 O61 2.346 1_545 S
Ho41 O65 2.305 . S
Ho41 O66 2.322 . S
Ho41 O68 2.378 . S
Ho41 O69 2.524 . S
Ho41 O70 2.381 . S
Ho41 O71 2.669 . S
C42 O60 1.259 . S
C42 O61 1.268 . S
C43 Ho40 2.811 1_565 S
C43 C44 1.488 . S
C43 O62 1.215 . S
C43 O63 1.289 . S
C44 C43 1.488 . S
C44 C45 1.348 . S
C44 C49 1.413 . S
C45 C44 1.348 . S
C45 C46 1.442 . S
C45 H72 0.930 . S
C46 C45 1.442 . S
C46 C47 1.381 . S
C46 H73 0.931 . S
C47 C46 1.381 . S
C47 C48 1.321 . S
C48 C47 1.321 . S
C48 C49 1.403 . S
C48 H74 0.934 . S
C49 C44 1.413 . S
C49 C48 1.403 . S
C49 H75 0.930 . S
C50 O64 1.275 . S
C50 O65 1.256 . S
C51 O66 1.259 . S
C51 O67 1.268 . S
C52 Ho41 2.811 . S
C52 C53 1.488 . S
C52 O68 1.215 . S
C52 O69 1.289 . S
C53 C52 1.488 . S
C53 C54 1.348 . S
C53 C58 1.413 . S
C54 C53 1.348 . S
C54 C55 1.442 . S
C54 H76 0.930 . S
C55 C54 1.442 . S
C55 C56 1.381 . S
C55 H77 0.931 . S
C56 C55 1.381 . S
C56 C57 1.321 . S
C57 C56 1.321 . S
C57 C58 1.403 . S
C57 H78 0.934 . S
C58 C53 1.413 . S
C58 C57 1.403 . S
C58 H79 0.930 . S
C59 O70 1.275 . S
C59 O71 1.256 . S
O60 Ho40 2.322 1_565 S
O60 C42 1.259 . S
O61 Ho41 2.346 1_565 S
O61 C42 1.268 . S
O62 Ho40 2.378 1_565 S
O62 C43 1.215 . S
O63 Ho40 2.524 1_565 S
O63 C43 1.289 . S
O64 Ho40 2.381 . S
O64 C50 1.275 . S
O65 Ho40 2.669 . S
O65 Ho41 2.305 . S
O65 C50 1.256 . S
O66 Ho41 2.322 . S
O66 C51 1.259 . S
O67 Ho40 2.346 . S
O67 C51 1.268 . S
O68 Ho41 2.378 . S
O68 C52 1.215 . S
O69 Ho41 2.524 . S
O69 C52 1.289 . S
O70 Ho41 2.381 . S
O70 C59 1.275 . S
O71 Ho40 2.305 . S
O71 Ho41 2.669 . S
O71 C59 1.256 . S
H72 C45 0.930 . S
H73 C46 0.931 . S
H74 C48 0.934 . S
H75 C49 0.930 . S
H76 C54 0.930 . S
H77 C55 0.931 . S
H78 C57 0.934 . S
H79 C58 0.930 . S
Ho80 C83 2.811 . S
Ho80 O100 2.322 . S
Ho80 O102 2.378 . S
Ho80 O103 2.524 . S
Ho80 O104 2.381 . S
Ho80 O105 2.669 . S
Ho80 O107 2.346 . S
Ho80 O111 2.305 . S
Ho81 C92 2.811 . S
Ho81 O101 2.346 . S
Ho81 O105 2.305 . S
Ho81 O106 2.322 . S
Ho81 O108 2.378 . S
Ho81 O109 2.524 . S
Ho81 O110 2.381 . S
Ho81 O111 2.669 . S
C82 O100 1.259 . S
C82 O101 1.268 . S
C83 Ho80 2.811 . S
C83 C84 1.488 . S
C83 O102 1.215 . S
C83 O103 1.289 . S
C84 C83 1.488 . S
C84 C85 1.348 . S
C84 C89 1.413 . S
C85 C84 1.348 . S
C85 C86 1.442 . S
C85 H112 0.930 . S
C86 C85 1.442 . S
C86 C87 1.381 . S
C86 H113 0.931 . S
C87 C86 1.381 . S
C87 C88 1.321 . S
C88 C87 1.321 . S
C88 C89 1.403 . S
C88 H114 0.934 . S
C89 C84 1.413 . S
C89 C88 1.403 . S
C89 H115 0.930 . S
C90 O104 1.275 . S
C90 O105 1.256 . S
C91 O106 1.259 . S
C91 O107 1.268 . S
C92 Ho81 2.811 . S
C92 C93 1.488 . S
C92 O108 1.215 . S
C92 O109 1.289 . S
C93 C92 1.488 . S
C93 C94 1.348 . S
C93 C98 1.413 . S
C94 C93 1.348 . S
C94 C95 1.442 . S
C94 H116 0.930 . S
C95 C94 1.442 . S
C95 C96 1.381 . S
C95 H117 0.931 . S
C96 C95 1.381 . S
C96 C97 1.321 . S
C97 C96 1.321 . S
C97 C98 1.403 . S
C97 H118 0.934 . S
C98 C93 1.413 . S
C98 C97 1.403 . S
C98 H119 0.930 . S
C99 O110 1.275 . S
C99 O111 1.256 . S
O100 Ho80 2.322 . S
O100 C82 1.259 . S
O101 Ho81 2.346 . S
O101 C82 1.268 . S
O102 Ho80 2.378 . S
O102 C83 1.215 . S
O103 Ho80 2.524 . S
O103 C83 1.289 . S
O104 Ho80 2.381 . S
O104 C90 1.275 . S
O105 Ho80 2.669 . S
O105 Ho81 2.305 . S
O105 C90 1.256 . S
O106 Ho81 2.322 . S
O106 C91 1.259 . S
O107 Ho80 2.346 . S
O107 C91 1.268 . S
O108 Ho81 2.378 . S
O108 C92 1.215 . S
O109 Ho81 2.524 . S
O109 C92 1.289 . S
O110 Ho81 2.381 . S
O110 C99 1.275 . S
O111 Ho80 2.305 . S
O111 Ho81 2.669 . S
O111 C99 1.256 . S
H112 C85 0.930 . S
H113 C86 0.931 . S
H114 C88 0.934 . S
H115 C89 0.930 . S
H116 C94 0.930 . S
H117 C95 0.931 . S
H118 C97 0.934 . S
H119 C98 0.930 . S
H120 C125 0.930 . S
H121 C128 0.930 . S
H122 C130 0.930 1_565 S
H123 C124 1.016 . S
C124 H123 1.016 . S
C124 N131 1.286 . S
C125 H120 0.930 . S
C125 C126 1.397 1_545 S
C125 C127 1.361 . S
C126 C125 1.397 1_565 S
C126 C130 1.390 1_565 S
C127 C125 1.361 . S
C127 C128 1.393 . S
C127 N131 1.413 . S
C128 H121 0.930 . S
C128 C127 1.393 . S
C128 C129 1.399 . S
C129 C128 1.399 . S
C129 C130 1.381 . S
C130 H122 0.930 1_545 S
C130 C126 1.390 1_545 S
C130 C129 1.381 . S
N131 C124 1.286 . S
N131 C127 1.413 . S
H132 C137 0.930 . S
H133 C140 0.930 . S
H134 C142 0.930 . S
H135 C136 1.016 . S
C136 H135 1.016 . S
C136 N143 1.286 . S
C137 H132 0.930 . S
C137 C138 1.397 . S
C137 C139 1.361 . S
C138 C137 1.397 . S
C138 C142 1.390 . S
C139 C137 1.361 . S
C139 C140 1.393 . S
C139 N143 1.413 . S
C140 H133 0.930 . S
C140 C139 1.393 . S
C140 C141 1.399 . S
C141 C140 1.399 . S
C141 C142 1.381 . S
C142 H134 0.930 . S
C142 C138 1.390 . S
C142 C141 1.381 . S
N143 C136 1.286 . S
N143 C139 1.413 . S
H144 C149 0.930 . S
H145 C152 0.930 . S
H146 C154 0.930 1_655 S
H147 C148 1.016 . S
C148 H147 1.016 . S
C148 N155 1.286 . S
C149 H144 0.930 . S
C149 C150 1.397 1_455 S
C149 C151 1.361 . S
C150 C149 1.397 1_655 S
C150 C154 1.390 1_655 S
C151 C149 1.361 . S
C151 C152 1.393 . S
C151 N155 1.413 . S
C152 H145 0.930 . S
C152 C151 1.393 . S
C152 C153 1.399 . S
C153 C152 1.399 . S
C153 C154 1.381 . S
C154 H146 0.930 1_455 S
C154 C150 1.390 1_455 S
C154 C153 1.381 . S
N155 C148 1.286 . S
N155 C151 1.413 . S
H156 C161 0.930 . S
H157 C164 0.930 . S
H158 C166 0.930 . S
H159 C160 1.016 . S
C160 H159 1.016 . S
C160 N167 1.286 . S
C161 H156 0.930 . S
C161 C162 1.397 . S
C161 C163 1.361 1_455 S
C162 C161 1.397 . S
C162 C166 1.390 . S
C163 C161 1.361 1_655 S
C163 C164 1.393 . S
C163 N167 1.413 . S
C164 H157 0.930 . S
C164 C163 1.393 . S
C164 C165 1.399 1_655 S
C165 C164 1.399 1_455 S
C165 C166 1.381 . S
C166 H158 0.930 . S
C166 C162 1.390 . S
C166 C165 1.381 . S
N167 C160 1.286 . S
N167 C163 1.413 . S
H168 C173 0.930 . S
H169 C176 0.906 1_565 S
H170 C178 0.930 . S
H171 C172 1.016 . S
C172 H171 1.016 . S
C172 N179 1.286 . S
C173 H168 0.930 . S
C173 C174 1.397 . S
C173 C175 1.361 . S
C174 C173 1.397 . S
C174 C178 1.390 . S
C175 C173 1.361 . S
C175 C176 1.394 . S
C175 N179 1.413 1_545 S
C176 H169 0.906 1_545 S
C176 C175 1.394 . S
C176 C177 1.423 . S
C177 C176 1.423 . S
C177 C178 1.381 . S
C178 H170 0.930 . S
C178 C174 1.390 . S
C178 C177 1.381 . S
N179 C172 1.286 . S
N179 C175 1.413 1_565 S
H180 C185 0.930 . S
H181 C188 0.930 . S
H182 C190 0.930 . S
H183 C184 1.016 . S
C184 H183 1.016 . S
C184 N191 1.286 . S
C185 H180 0.930 . S
C185 C186 1.397 . S
C185 C187 1.361 . S
C186 C185 1.397 . S
C186 C190 1.390 . S
C187 C185 1.361 . S
C187 C188 1.393 . S
C187 N191 1.413 . S
C188 H181 0.930 . S
C188 C187 1.393 . S
C188 C189 1.399 . S
C189 C188 1.399 . S
C189 C190 1.381 . S
C190 H182 0.930 . S
C190 C186 1.390 . S
C190 C189 1.381 . S
N191 C184 1.286 . S
N191 C187 1.413 . S
H192 C204 0.930 . S
H193 C206 0.930 . S
H194 C207 0.930 . S
H195 C211 0.959 . S
H196 C211 0.959 . S
H197 C211 0.961 . S
H198 C212 0.960 . S
H199 C212 0.961 . S
H200 C212 0.959 . S
H201 C215 0.929 . S
H202 C216 0.931 . S
H203 C218 0.930 . S
C204 H192 0.930 . S
C204 C205 1.399 . S
C204 C209 1.399 . S
C205 C204 1.399 . S
C205 C206 1.376 . S
C206 H193 0.930 . S
C206 C205 1.376 . S
C206 C207 1.388 . S
C207 H194 0.930 . S
C207 C206 1.388 . S
C207 C208 1.390 . S
C208 C207 1.390 . S
C208 C209 1.394 . S
C208 C214 1.465 . S
C209 C204 1.399 . S
C209 C208 1.394 . S
C209 C210 1.516 . S
C210 C209 1.516 . S
C210 C211 1.502 . S
C210 C212 1.561 . S
C210 C213 1.526 . S
C211 H195 0.959 . S
C211 H196 0.959 . S
C211 H197 0.961 . S
C211 C210 1.502 . S
C212 H198 0.960 . S
C212 H199 0.961 . S
C212 H200 0.959 . S
C212 C210 1.561 . S
C213 C210 1.526 . S
C213 C214 1.396 . S
C213 C218 1.390 . S
C214 C208 1.465 . S
C214 C213 1.396 . S
C214 C215 1.399 . S
C215 H201 0.929 . S
C215 C214 1.399 . S
C215 C216 1.385 . S
C216 H202 0.931 . S
C216 C215 1.385 . S
C216 C217 1.389 . S
C217 C216 1.389 . S
C217 C218 1.387 . S
C218 H203 0.930 . S
C218 C213 1.390 . S
C218 C217 1.387 . S
H219 C231 0.930 . S
H220 C233 0.930 . S
H221 C234 0.930 . S
H222 C238 0.959 . S
H223 C238 0.959 . S
H224 C238 0.961 . S
H225 C239 0.960 . S
H226 C239 0.961 . S
H227 C239 0.959 . S
H228 C242 0.929 . S
H229 C243 0.931 . S
H230 C245 0.930 . S
C231 H219 0.930 . S
C231 C232 1.399 . S
C231 C236 1.399 . S
C232 C231 1.399 . S
C232 C233 1.376 . S
C233 H220 0.930 . S
C233 C232 1.376 . S
C233 C234 1.388 . S
C234 H221 0.930 . S
C234 C233 1.388 . S
C234 C235 1.390 . S
C235 C234 1.390 . S
C235 C236 1.394 . S
C235 C241 1.465 . S
C236 C231 1.399 . S
C236 C235 1.394 . S
C236 C237 1.516 . S
C237 C236 1.516 . S
C237 C238 1.502 . S
C237 C239 1.561 . S
C237 C240 1.526 . S
C238 H222 0.959 . S
C238 H223 0.959 . S
C238 H224 0.961 . S
C238 C237 1.502 . S
C239 H225 0.960 . S
C239 H226 0.961 . S
C239 H227 0.959 . S
C239 C237 1.561 . S
C240 C237 1.526 . S
C240 C241 1.396 . S
C240 C245 1.390 . S
C241 C235 1.465 . S
C241 C240 1.396 . S
C241 C242 1.399 . S
C242 H228 0.929 . S
C242 C241 1.399 . S
C242 C243 1.385 . S
C243 H229 0.931 . S
C243 C242 1.385 . S
C243 C244 1.389 . S
C244 C243 1.389 . S
C244 C245 1.387 . S
C245 H230 0.930 . S
C245 C240 1.390 . S
C245 C244 1.387 . S
H246 C258 0.930 . S
H247 C260 0.930 . S
H248 C261 0.930 . S
H249 C265 0.959 . S
H250 C265 0.959 . S
H251 C265 0.961 . S
H252 C266 0.960 . S
H253 C266 0.961 . S
H254 C266 0.959 . S
H255 C269 0.929 . S
H256 C270 0.931 . S
H257 C272 0.930 . S
C258 H246 0.930 . S
C258 C259 1.399 . S
C258 C263 1.399 . S
C259 C258 1.399 . S
C259 C260 1.376 . S
C260 H247 0.930 . S
C260 C259 1.376 . S
C260 C261 1.388 . S
C261 H248 0.930 . S
C261 C260 1.388 . S
C261 C262 1.390 . S
C262 C261 1.390 . S
C262 C263 1.394 . S
C262 C268 1.465 . S
C263 C258 1.399 . S
C263 C262 1.394 . S
C263 C264 1.516 . S
C264 C263 1.516 . S
C264 C265 1.502 . S
C264 C266 1.561 . S
C264 C267 1.526 . S
C265 H249 0.959 . S
C265 H250 0.959 . S
C265 H251 0.961 . S
C265 C264 1.502 . S
C266 H252 0.960 . S
C266 H253 0.961 . S
C266 H254 0.959 . S
C266 C264 1.561 . S
C267 C264 1.526 . S
C267 C268 1.396 . S
C267 C272 1.390 . S
C268 C262 1.465 . S
C268 C267 1.396 . S
C268 C269 1.399 . S
C269 H255 0.929 . S
C269 C268 1.399 . S
C269 C270 1.385 . S
C270 H256 0.931 . S
C270 C269 1.385 . S
C270 C271 1.389 . S
C271 C270 1.389 . S
C271 C272 1.387 . S
C272 H257 0.930 . S
C272 C267 1.390 . S
C272 C271 1.387 . S
H273 C285 0.930 . S
H274 C287 0.930 . S
H275 C288 0.930 . S
H276 C292 0.959 . S
H277 C292 0.959 . S
H278 C292 0.961 . S
H279 C293 0.960 . S
H280 C293 0.961 . S
H281 C293 0.959 . S
H282 C296 0.929 . S
H283 C297 0.931 . S
H284 C299 0.930 . S
C285 H273 0.930 . S
C285 C286 1.399 . S
C285 C290 1.399 . S
C286 C285 1.399 . S
C286 C287 1.376 . S
C287 H274 0.930 . S
C287 C286 1.376 . S
C287 C288 1.388 . S
C288 H275 0.930 . S
C288 C287 1.388 . S
C288 C289 1.390 . S
C289 C288 1.390 . S
C289 C290 1.394 . S
C289 C295 1.465 . S
C290 C285 1.399 . S
C290 C289 1.394 . S
C290 C291 1.516 . S
C291 C290 1.516 . S
C291 C292 1.502 . S
C291 C293 1.561 . S
C291 C294 1.526 . S
C292 H276 0.959 . S
C292 H277 0.959 . S
C292 H278 0.961 . S
C292 C291 1.502 . S
C293 H279 0.960 . S
C293 H280 0.961 . S
C293 H281 0.959 . S
C293 C291 1.561 . S
C294 C291 1.526 . S
C294 C295 1.396 . S
C294 C299 1.390 . S
C295 C289 1.465 . S
C295 C294 1.396 . S
C295 C296 1.399 . S
C296 H282 0.929 . S
C296 C295 1.399 . S
C296 C297 1.385 . S
C297 H283 0.931 . S
C297 C296 1.385 . S
C297 C298 1.389 . S
C298 C297 1.389 . S
C298 C299 1.387 . S
C299 H284 0.930 . S
C299 C294 1.390 . S
C299 C298 1.387 . S
H300 C312 0.930 . S
H301 C314 0.930 . S
H302 C315 0.930 . S
H303 C319 0.959 . S
H304 C319 0.959 . S
H305 C319 0.961 . S
H306 C320 0.960 . S
H307 C320 0.961 . S
H308 C320 0.959 . S
H309 C323 0.929 . S
H310 C324 0.931 . S
H311 C326 0.930 . S
C312 H300 0.930 . S
C312 C313 1.399 . S
C312 C317 1.399 . S
C313 C312 1.399 . S
C313 C314 1.376 . S
C314 H301 0.930 . S
C314 C313 1.376 . S
C314 C315 1.388 . S
C315 H302 0.930 . S
C315 C314 1.388 . S
C315 C316 1.390 . S
C316 C315 1.390 . S
C316 C317 1.394 . S
C316 C322 1.465 . S
C317 C312 1.399 . S
C317 C316 1.394 . S
C317 C318 1.516 . S
C318 C317 1.516 . S
C318 C319 1.502 . S
C318 C320 1.561 . S
C318 C321 1.526 . S
C319 H303 0.959 . S
C319 H304 0.959 . S
C319 H305 0.961 . S
C319 C318 1.502 . S
C320 H306 0.960 . S
C320 H307 0.961 . S
C320 H308 0.959 . S
C320 C318 1.561 . S
C321 C318 1.526 . S
C321 C322 1.396 . S
C321 C326 1.390 . S
C322 C316 1.465 . S
C322 C321 1.396 . S
C322 C323 1.399 . S
C323 H309 0.929 . S
C323 C322 1.399 . S
C323 C324 1.385 . S
C324 H310 0.931 . S
C324 C323 1.385 . S
C324 C325 1.389 . S
C325 C324 1.389 . S
C325 C326 1.387 . S
C326 H311 0.930 . S
C326 C321 1.390 . S
C326 C325 1.387 . S
H327 C339 0.930 . S
H328 C341 0.930 . S
H329 C342 0.930 . S
H330 C346 0.959 . S
H331 C346 0.959 . S
H332 C346 0.961 . S
H333 C347 0.960 . S
H334 C347 0.961 . S
H335 C347 0.959 . S
H336 C350 0.929 . S
H337 C351 0.931 . S
H338 C353 0.930 . S
C339 H327 0.930 . S
C339 C340 1.399 . S
C339 C344 1.399 . S
C340 C339 1.399 . S
C340 C341 1.376 . S
C341 H328 0.930 . S
C341 C340 1.376 . S
C341 C342 1.388 . S
C342 H329 0.930 . S
C342 C341 1.388 . S
C342 C343 1.390 . S
C343 C342 1.390 . S
C343 C344 1.394 . S
C343 C349 1.465 . S
C344 C339 1.399 . S
C344 C343 1.394 . S
C344 C345 1.516 . S
C345 C344 1.516 . S
C345 C346 1.502 . S
C345 C347 1.561 . S
C345 C348 1.526 . S
C346 H330 0.959 . S
C346 H331 0.959 . S
C346 H332 0.961 . S
C346 C345 1.502 . S
C347 H333 0.960 . S
C347 H334 0.961 . S
C347 H335 0.959 . S
C347 C345 1.561 . S
C348 C345 1.526 . S
C348 C349 1.396 . S
C348 C353 1.390 . S
C349 C343 1.465 . S
C349 C348 1.396 . S
C349 C350 1.399 . S
C350 H336 0.929 . S
C350 C349 1.399 . S
C350 C351 1.385 . S
C351 H337 0.931 . S
C351 C350 1.385 . S
C351 C352 1.389 . S
C352 C351 1.389 . S
C352 C353 1.387 . S
C353 H338 0.930 . S
C353 C348 1.390 . S
C353 C352 1.387 . S
H354 C366 0.930 . S
H355 C368 0.930 . S
H356 C369 0.930 . S
H357 C373 0.959 . S
H358 C373 0.959 . S
H359 C373 0.961 . S
H360 C374 0.960 . S
H361 C374 0.961 . S
H362 C374 0.959 . S
H363 C377 0.929 . S
H364 C378 0.931 . S
H365 C380 0.930 . S
C366 H354 0.930 . S
C366 C367 1.399 . S
C366 C371 1.399 . S
C367 C366 1.399 . S
C367 C368 1.376 . S
C368 H355 0.930 . S
C368 C367 1.376 . S
C368 C369 1.388 . S
C369 H356 0.930 . S
C369 C368 1.388 . S
C369 C370 1.390 . S
C370 C369 1.390 . S
C370 C371 1.394 . S
C370 C376 1.465 . S
C371 C366 1.399 . S
C371 C370 1.394 . S
C371 C372 1.516 . S
C372 C371 1.516 . S
C372 C373 1.502 . S
C372 C374 1.561 . S
C372 C375 1.526 . S
C373 H357 0.959 . S
C373 H358 0.959 . S
C373 H359 0.961 . S
C373 C372 1.502 . S
C374 H360 0.960 . S
C374 H361 0.961 . S
C374 H362 0.959 . S
C374 C372 1.561 . S
C375 C372 1.526 . S
C375 C376 1.396 . S
C375 C380 1.390 . S
C376 C370 1.465 . S
C376 C375 1.396 . S
C376 C377 1.399 . S
C377 H363 0.929 . S
C377 C376 1.399 . S
C377 C378 1.385 . S
C378 H364 0.931 . S
C378 C377 1.385 . S
C378 C379 1.389 . S
C379 C378 1.389 . S
C379 C380 1.387 . S
C380 H365 0.930 . S
C380 C375 1.390 . S
C380 C379 1.387 . S
H381 C393 0.930 . S
H382 C395 0.930 . S
H383 C396 0.930 . S
H384 C400 0.959 . S
H385 C400 0.959 . S
H386 C400 0.961 . S
H387 C401 0.960 . S
H388 C401 0.961 . S
H389 C401 0.959 . S
H390 C404 0.929 . S
H391 C405 0.931 . S
H392 C407 0.930 . S
C393 H381 0.930 . S
C393 C394 1.399 . S
C393 C398 1.399 . S
C394 C393 1.399 . S
C394 C395 1.376 . S
C395 H382 0.930 . S
C395 C394 1.376 . S
C395 C396 1.388 . S
C396 H383 0.930 . S
C396 C395 1.388 . S
C396 C397 1.390 . S
C397 C396 1.390 . S
C397 C398 1.394 . S
C397 C403 1.465 . S
C398 C393 1.399 . S
C398 C397 1.394 . S
C398 C399 1.516 . S
C399 C398 1.516 . S
C399 C400 1.502 . S
C399 C401 1.561 . S
C399 C402 1.526 . S
C400 H384 0.959 . S
C400 H385 0.959 . S
C400 H386 0.961 . S
C400 C399 1.502 . S
C401 H387 0.960 . S
C401 H388 0.961 . S
C401 H389 0.959 . S
C401 C399 1.561 . S
C402 C399 1.526 . S
C402 C403 1.396 . S
C402 C407 1.390 . S
C403 C397 1.465 . S
C403 C402 1.396 . S
C403 C404 1.399 . S
C404 H390 0.929 . S
C404 C403 1.399 . S
C404 C405 1.385 . S
C405 H391 0.931 . S
C405 C404 1.385 . S
C405 C406 1.389 . S
C406 C405 1.389 . S
C406 C407 1.387 . S
C407 H392 0.930 . S
C407 C402 1.390 . S
C407 C406 1.387 . S
H408 C420 0.930 . S
H409 C422 0.930 . S
H410 C423 0.930 . S
H411 C427 0.959 . S
H412 C427 0.959 . S
H413 C427 0.961 . S
H414 C428 0.960 . S
H415 C428 0.961 . S
H416 C428 0.959 . S
H417 C431 0.929 . S
H418 C432 0.931 . S
H419 C434 0.930 . S
C420 H408 0.930 . S
C420 C421 1.399 . S
C420 C425 1.399 . S
C421 C420 1.399 . S
C421 C422 1.376 . S
C422 H409 0.930 . S
C422 C421 1.376 . S
C422 C423 1.388 . S
C423 H410 0.930 . S
C423 C422 1.388 . S
C423 C424 1.390 . S
C424 C423 1.390 . S
C424 C425 1.394 . S
C424 C430 1.465 . S
C425 C420 1.399 . S
C425 C424 1.394 . S
C425 C426 1.516 . S
C426 C425 1.516 . S
C426 C427 1.502 . S
C426 C428 1.561 . S
C426 C429 1.526 . S
C427 H411 0.959 . S
C427 H412 0.959 . S
C427 H413 0.961 . S
C427 C426 1.502 . S
C428 H414 0.960 . S
C428 H415 0.961 . S
C428 H416 0.959 . S
C428 C426 1.561 . S
C429 C426 1.526 . S
C429 C430 1.396 . S
C429 C434 1.390 . S
C430 C424 1.465 . S
C430 C429 1.396 . S
C430 C431 1.399 . S
C431 H417 0.929 . S
C431 C430 1.399 . S
C431 C432 1.385 . S
C432 H418 0.931 . S
C432 C431 1.385 . S
C432 C433 1.389 . S
C433 C432 1.389 . S
C433 C434 1.387 . S
C434 H419 0.930 . S
C434 C429 1.390 . S
C434 C433 1.387 . S
H435 C447 0.930 . S
H436 C449 0.930 . S
H437 C450 0.930 . S
H438 C454 0.959 . S
H439 C454 0.959 . S
H440 C454 0.961 . S
H441 C455 0.960 . S
H442 C455 0.961 . S
H443 C455 0.959 . S
H444 C458 0.929 . S
H445 C459 0.931 . S
H446 C461 0.930 . S
C447 H435 0.930 . S
C447 C448 1.399 . S
C447 C452 1.399 . S
C448 C447 1.399 . S
C448 C449 1.376 . S
C449 H436 0.930 . S
C449 C448 1.376 . S
C449 C450 1.388 . S
C450 H437 0.930 . S
C450 C449 1.388 . S
C450 C451 1.390 . S
C451 C450 1.390 . S
C451 C452 1.394 . S
C451 C457 1.465 . S
C452 C447 1.399 . S
C452 C451 1.394 . S
C452 C453 1.516 . S
C453 C452 1.516 . S
C453 C454 1.502 . S
C453 C455 1.561 . S
C453 C456 1.526 . S
C454 H438 0.959 . S
C454 H439 0.959 . S
C454 H440 0.961 . S
C454 C453 1.502 . S
C455 H441 0.960 . S
C455 H442 0.961 . S
C455 H443 0.959 . S
C455 C453 1.561 . S
C456 C453 1.526 . S
C456 C457 1.396 . S
C456 C461 1.390 . S
C457 C451 1.465 . S
C457 C456 1.396 . S
C457 C458 1.399 . S
C458 H444 0.929 . S
C458 C457 1.399 . S
C458 C459 1.385 . S
C459 H445 0.931 . S
C459 C458 1.385 . S
C459 C460 1.389 . S
C460 C459 1.389 . S
C460 C461 1.387 . S
C461 H446 0.930 . S
C461 C456 1.390 . S
C461 C460 1.387 . S
H462 C474 0.930 . S
H463 C476 0.930 . S
H464 C477 0.930 . S
H465 C481 0.959 . S
H466 C481 0.959 . S
H467 C481 0.961 . S
H468 C482 0.960 . S
H469 C482 0.961 . S
H470 C482 0.959 . S
H471 C485 0.929 . S
H472 C486 0.931 . S
H473 C488 0.930 . S
C474 H462 0.930 . S
C474 C475 1.399 . S
C474 C479 1.399 . S
C475 C474 1.399 . S
C475 C476 1.376 . S
C476 H463 0.930 . S
C476 C475 1.376 . S
C476 C477 1.388 . S
C477 H464 0.930 . S
C477 C476 1.388 . S
C477 C478 1.390 . S
C478 C477 1.390 . S
C478 C479 1.394 . S
C478 C484 1.465 . S
C479 C474 1.399 . S
C479 C478 1.394 . S
C479 C480 1.516 . S
C480 C479 1.516 . S
C480 C481 1.502 . S
C480 C482 1.561 . S
C480 C483 1.526 . S
C481 H465 0.959 . S
C481 H466 0.959 . S
C481 H467 0.961 . S
C481 C480 1.502 . S
C482 H468 0.960 . S
C482 H469 0.961 . S
C482 H470 0.959 . S
C482 C480 1.561 . S
C483 C480 1.526 . S
C483 C484 1.396 . S
C483 C488 1.390 . S
C484 C478 1.465 . S
C484 C483 1.396 . S
C484 C485 1.399 . S
C485 H471 0.929 . S
C485 C484 1.399 . S
C485 C486 1.385 . S
C486 H472 0.931 . S
C486 C485 1.385 . S
C486 C487 1.389 . S
C487 C486 1.389 . S
C487 C488 1.387 . S
C488 H473 0.930 . S
C488 C483 1.390 . S
C488 C487 1.387 . S
H489 C501 0.930 . S
H490 C503 0.930 . S
H491 C504 0.930 . S
H492 C508 0.959 . S
H493 C508 0.959 . S
H494 C508 0.961 . S
H495 C509 0.960 . S
H496 C509 0.961 . S
H497 C509 0.959 . S
H498 C512 0.929 . S
H499 C513 0.931 . S
H500 C515 0.930 . S
C501 H489 0.930 . S
C501 C502 1.399 . S
C501 C506 1.399 . S
C502 C501 1.399 . S
C502 C503 1.376 . S
C503 H490 0.930 . S
C503 C502 1.376 . S
C503 C504 1.388 . S
C504 H491 0.930 . S
C504 C503 1.388 . S
C504 C505 1.390 . S
C505 C504 1.390 . S
C505 C506 1.394 . S
C505 C511 1.465 . S
C506 C501 1.399 . S
C506 C505 1.394 . S
C506 C507 1.516 . S
C507 C506 1.516 . S
C507 C508 1.502 . S
C507 C509 1.561 . S
C507 C510 1.526 . S
C508 H492 0.959 . S
C508 H493 0.959 . S
C508 H494 0.961 . S
C508 C507 1.502 . S
C509 H495 0.960 . S
C509 H496 0.961 . S
C509 H497 0.959 . S
C509 C507 1.561 . S
C510 C507 1.526 . S
C510 C511 1.396 . S
C510 C515 1.390 . S
C511 C505 1.465 . S
C511 C510 1.396 . S
C511 C512 1.399 . S
C512 H498 0.929 . S
C512 C511 1.399 . S
C512 C513 1.385 . S
C513 H499 0.931 . S
C513 C512 1.385 . S
C513 C514 1.389 . S
C514 C513 1.389 . S
C514 C515 1.387 . S
C515 H500 0.930 . S
C515 C510 1.390 . S
C515 C514 1.387 . S
H516 C528 0.930 . S
H517 C530 0.930 . S
H518 C531 0.930 . S
H519 C535 0.959 . S
H520 C535 0.959 . S
H521 C535 0.961 . S
H522 C536 0.960 . S
H523 C536 0.961 1_556 S
H524 C536 0.959 . S
H525 C539 0.929 . S
H526 C540 0.931 . S
H527 C542 0.930 . S
C528 H516 0.930 . S
C528 C529 1.399 . S
C528 C533 1.399 . S
C529 C528 1.399 . S
C529 C530 1.376 . S
C530 H517 0.930 . S
C530 C529 1.376 . S
C530 C531 1.388 . S
C531 H518 0.930 . S
C531 C530 1.388 . S
C531 C532 1.390 . S
C532 C531 1.390 . S
C532 C533 1.394 . S
C532 C538 1.465 1_554 S
C533 C528 1.399 . S
C533 C532 1.394 . S
C533 C534 1.516 . S
C534 C533 1.516 . S
C534 C535 1.502 . S
C534 C536 1.561 . S
C534 C537 1.526 1_554 S
C535 H519 0.959 . S
C535 H520 0.959 . S
C535 H521 0.961 . S
C535 C534 1.502 . S
C536 H522 0.960 . S
C536 H523 0.961 1_554 S
C536 H524 0.959 . S
C536 C534 1.561 . S
C537 C534 1.526 1_556 S
C537 C538 1.396 . S
C537 C542 1.390 . S
C538 C532 1.465 1_556 S
C538 C537 1.396 . S
C538 C539 1.399 . S
C539 H525 0.929 . S
C539 C538 1.399 . S
C539 C540 1.385 . S
C540 H526 0.931 . S
C540 C539 1.385 . S
C540 C541 1.389 . S
C541 C540 1.389 . S
C541 C542 1.387 . S
C542 H527 0.930 . S
C542 C537 1.390 . S
C542 C541 1.387 . S
H543 C555 0.930 . S
H544 C557 0.921 1_565 S
H545 C558 0.930 . S
H546 C562 0.959 . S
H547 C562 0.959 . S
H548 C562 0.961 . S
H549 C563 0.960 . S
H550 C563 0.961 . S
H551 C563 0.959 . S
H552 C566 0.929 1_565 S
H553 C567 0.931 1_565 S
H554 C569 0.930 . S
C555 H543 0.930 . S
C555 C556 1.399 . S
C555 C560 1.399 . S
C556 C555 1.399 . S
C556 C557 1.388 . S
C557 H544 0.921 1_545 S
C557 C556 1.388 . S
C557 C558 1.387 1_545 S
C558 H545 0.930 . S
C558 C557 1.387 1_565 S
C558 C559 1.390 1_565 S
C559 C558 1.390 1_545 S
C559 C560 1.394 . S
C559 C565 1.465 . S
C560 C555 1.399 . S
C560 C559 1.394 . S
C560 C561 1.516 . S
C561 C560 1.516 . S
C561 C562 1.502 . S
C561 C563 1.561 . S
C561 C564 1.526 . S
C562 H546 0.959 . S
C562 H547 0.959 . S
C562 H548 0.961 . S
C562 C561 1.502 . S
C563 H549 0.960 . S
C563 H550 0.961 . S
C563 H551 0.959 . S
C563 C561 1.561 . S
C564 C561 1.526 . S
C564 C565 1.396 . S
C564 C569 1.390 . S
C565 C559 1.465 . S
C565 C564 1.396 . S
C565 C566 1.399 . S
C566 H552 0.929 1_545 S
C566 C565 1.399 . S
C566 C567 1.385 . S
C567 H553 0.931 1_545 S
C567 C566 1.385 . S
C567 C568 1.389 . S
C568 C567 1.389 . S
C568 C569 1.387 . S
C569 H554 0.930 . S
C569 C564 1.390 . S
C569 C568 1.387 . S
H570 C582 0.930 . S
H571 C584 0.930 . S
H572 C585 0.930 . S
H573 C589 0.959 . S
H574 C589 0.959 . S
H575 C589 0.961 . S
H576 C590 0.960 . S
H577 C590 0.961 . S
H578 C590 0.959 . S
H579 C593 0.929 . S
H580 C594 0.931 . S
H581 C596 0.930 . S
C582 H570 0.930 . S
C582 C583 1.399 . S
C582 C587 1.399 . S
C583 C582 1.399 . S
C583 C584 1.376 . S
C584 H571 0.930 . S
C584 C583 1.376 . S
C584 C585 1.388 . S
C585 H572 0.930 . S
C585 C584 1.388 . S
C585 C586 1.390 . S
C586 C585 1.390 . S
C586 C587 1.394 . S
C586 C592 1.465 . S
C587 C582 1.399 . S
C587 C586 1.394 . S
C587 C588 1.516 . S
C588 C587 1.516 . S
C588 C589 1.502 . S
C588 C590 1.561 . S
C588 C591 1.526 . S
C589 H573 0.959 . S
C589 H574 0.959 . S
C589 H575 0.961 . S
C589 C588 1.502 . S
C590 H576 0.960 . S
C590 H577 0.961 . S
C590 H578 0.959 . S
C590 C588 1.561 . S
C591 C588 1.526 . S
C591 C592 1.396 . S
C591 C596 1.390 . S
C592 C586 1.465 . S
C592 C591 1.396 . S
C592 C593 1.399 . S
C593 H579 0.929 . S
C593 C592 1.399 . S
C593 C594 1.385 . S
C594 H580 0.931 . S
C594 C593 1.385 . S
C594 C595 1.389 . S
C595 C594 1.389 . S
C595 C596 1.387 . S
C596 H581 0.930 . S
C596 C591 1.390 . S
C596 C595 1.387 . S
H597 C609 0.930 . S
H598 C611 0.930 . S
H599 C612 0.930 . S
H600 C616 0.959 . S
H601 C616 0.959 . S
H602 C616 0.961 . S
H603 C617 0.960 . S
H604 C617 0.961 . S
H605 C617 0.959 . S
H606 C620 0.929 . S
H607 C621 0.931 . S
H608 C623 0.930 . S
C609 H597 0.930 . S
C609 C610 1.399 1_565 S
C609 C614 1.399 1_565 S
C610 C609 1.399 1_545 S
C610 C611 1.376 . S
C611 H598 0.930 . S
C611 C610 1.376 . S
C611 C612 1.388 . S
C612 H599 0.930 . S
C612 C611 1.388 . S
C612 C613 1.390 . S
C613 C612 1.390 . S
C613 C614 1.394 . S
C613 C619 1.465 . S
C614 C609 1.399 1_545 S
C614 C613 1.394 . S
C614 C615 1.516 1_545 S
C615 C614 1.516 1_565 S
C615 C616 1.502 . S
C615 C617 1.561 . S
C615 C618 1.526 1_565 S
C616 H600 0.959 . S
C616 H601 0.959 . S
C616 H602 0.961 . S
C616 C615 1.502 . S
C617 H603 0.960 . S
C617 H604 0.961 . S
C617 H605 0.959 . S
C617 C615 1.561 . S
C618 C615 1.526 1_545 S
C618 C619 1.396 . S
C618 C623 1.390 1_545 S
C619 C613 1.465 . S
C619 C618 1.396 . S
C619 C620 1.399 . S
C620 H606 0.929 . S
C620 C619 1.399 . S
C620 C621 1.385 . S
C621 H607 0.931 . S
C621 C620 1.385 . S
C621 C622 1.389 . S
C622 C621 1.389 . S
C622 C623 1.387 1_545 S
C623 H608 0.930 . S
C623 C618 1.390 1_565 S
C623 C622 1.387 1_565 S
H624 C636 0.930 . S
H625 C638 0.930 . S
H626 C639 0.930 . S
H627 C643 0.959 . S
H628 C643 0.959 . S
H629 C643 0.961 . S
H630 C644 0.960 . S
H631 C644 0.961 . S
H632 C644 0.959 . S
H633 C647 0.929 . S
H634 C648 0.931 . S
H635 C650 0.930 . S
C636 H624 0.930 . S
C636 C637 1.399 . S
C636 C641 1.399 . S
C637 C636 1.399 . S
C637 C638 1.376 . S
C638 H625 0.930 . S
C638 C637 1.376 . S
C638 C639 1.388 . S
C639 H626 0.930 . S
C639 C638 1.388 . S
C639 C640 1.390 . S
C640 C639 1.390 . S
C640 C641 1.394 . S
C640 C646 1.465 . S
C641 C636 1.399 . S
C641 C640 1.394 . S
C641 C642 1.516 . S
C642 C641 1.516 . S
C642 C643 1.502 . S
C642 C644 1.561 . S
C642 C645 1.526 . S
C643 H627 0.959 . S
C643 H628 0.959 . S
C643 H629 0.961 . S
C643 C642 1.502 . S
C644 H630 0.960 . S
C644 H631 0.961 . S
C644 H632 0.959 . S
C644 C642 1.561 . S
C645 C642 1.526 . S
C645 C646 1.396 . S
C645 C650 1.390 1_556 S
C646 C640 1.465 . S
C646 C645 1.396 . S
C646 C647 1.399 1_556 S
C647 H633 0.929 . S
C647 C646 1.399 1_554 S
C647 C648 1.385 . S
C648 H634 0.931 . S
C648 C647 1.385 . S
C648 C649 1.389 . S
C649 C648 1.389 . S
C649 C650 1.387 . S
C650 H635 0.930 . S
C650 C645 1.390 1_554 S
C650 C649 1.387 . S
H651 C663 0.930 . S
H652 C665 0.930 1_655 S
H653 C666 0.930 . S
H654 C670 0.959 . S
H655 C670 0.959 . S
H656 C670 0.961 . S
H657 C671 0.960 . S
H658 C671 0.961 . S
H659 C671 0.959 . S
H660 C674 0.929 . S
H661 C675 0.931 . S
H662 C677 0.930 . S
C663 H651 0.930 . S
C663 C664 1.399 . S
C663 C668 1.399 . S
C664 C663 1.399 . S
C664 C665 1.376 . S
C665 H652 0.930 1_455 S
C665 C664 1.376 . S
C665 C666 1.388 1_455 S
C666 H653 0.930 . S
C666 C665 1.388 1_655 S
C666 C667 1.390 1_655 S
C667 C666 1.390 1_455 S
C667 C668 1.394 . S
C667 C673 1.465 . S
C668 C663 1.399 . S
C668 C667 1.394 . S
C668 C669 1.516 . S
C669 C668 1.516 . S
C669 C670 1.502 . S
C669 C671 1.561 . S
C669 C672 1.526 . S
C670 H654 0.959 . S
C670 H655 0.959 . S
C670 H656 0.961 . S
C670 C669 1.502 . S
C671 H657 0.960 . S
C671 H658 0.961 . S
C671 H659 0.959 . S
C671 C669 1.561 . S
C672 C669 1.526 . S
C672 C673 1.396 . S
C672 C677 1.390 . S
C673 C667 1.465 . S
C673 C672 1.396 . S
C673 C674 1.399 1_455 S
C674 H660 0.929 . S
C674 C673 1.399 1_655 S
C674 C675 1.385 . S
C675 H661 0.931 . S
C675 C674 1.385 . S
C675 C676 1.389 1_655 S
C676 C675 1.389 1_455 S
C676 C677 1.387 . S
C677 H662 0.930 . S
C677 C672 1.390 . S
C677 C676 1.387 . S
C205 C7 0.759 . S
C217 C186 0.894 . S
C232 C51 1.933 . S
C244 C160 1.878 . S
C259 C87 1.261 . S
C271 C172 1.246 . S
C286 C16 0.424 . S
C298 C184 0.409 . S
C325 C162 1.821 . S
C313 C42 1.853 . S
C352 C174 1.129 . S
C340 C96 1.136 . S
C367 C47 1.322 . S
C379 C136 1.309 . S
C394 C91 3.350 . S
C406 C150 3.311 . S
C421 C2 1.863 . S
C433 C126 1.858 . S
C460 C138 1.142 . S
C448 C56 1.129 . S
C487 C148 2.684 . S
C475 C82 2.783 . S
C502 C11 1.932 . S
C514 C124 1.894 . S
C541 C153 1.760 . S
C529 C19 1.721 . S
C556 C50 1.370 . S
C568 C129 1.461 . S
C583 C99 1.485 . S
C595 C141 1.504 . S
C622 C177 1.517 . S
C610 C59 1.523 . S
C649 C189 1.233 . S
C637 C90 1.192 . S
C664 C10 1.405 . S
C676 C165 1.452 . S
