# Generated by pormake.
# Topology llk, (3,12)-cn, num edge types: 1
# Building blocks:
#     Node 0, Type 0, BuildingBlock: KAKCAD_clean_linker_0, # of connection points: 3
#     Node 1, Type 0, BuildingBlock: KAKCAD_clean_linker_0, # of connection points: 3
#     Node 2, Type 0, BuildingBlock: KAKCAD_clean_linker_0, # of connection points: 3
#     Node 3, Type 0, BuildingBlock: KAKCAD_clean_linker_0, # of connection points: 3
#     Node 4, Type 0, BuildingBlock: KAKCAD_clean_linker_0, # of connection points: 3
#     Node 5, Type 0, BuildingBlock: KAKCAD_clean_linker_0, # of connection points: 3
#     Node 6, Type 0, BuildingBlock: KAKCAD_clean_linker_0, # of connection points: 3
#     Node 7, Type 0, BuildingBlock: KAKCAD_clean_linker_0, # of connection points: 3
#     Node 8, Type 0, BuildingBlock: KAKCAD_clean_linker_0, # of connection points: 3
#     Node 9, Type 0, BuildingBlock: KAKCAD_clean_linker_0, # of connection points: 3
#     Node 10, Type 0, BuildingBlock: KAKCAD_clean_linker_0, # of connection points: 3
#     Node 11, Type 0, BuildingBlock: KAKCAD_clean_linker_0, # of connection points: 3
#     Node 12, Type 0, BuildingBlock: KAKCAD_clean_linker_0, # of connection points: 3
#     Node 13, Type 0, BuildingBlock: KAKCAD_clean_linker_0, # of connection points: 3
#     Node 14, Type 0, BuildingBlock: KAKCAD_clean_linker_0, # of connection points: 3
#     Node 15, Type 0, BuildingBlock: KAKCAD_clean_linker_0, # of connection points: 3
#     Node 16, Type 0, BuildingBlock: KAKCAD_clean_linker_0, # of connection points: 3
#     Node 17, Type 0, BuildingBlock: KAKCAD_clean_linker_0, # of connection points: 3
#     Node 18, Type 0, BuildingBlock: KAKCAD_clean_linker_0, # of connection points: 3
#     Node 19, Type 0, BuildingBlock: KAKCAD_clean_linker_0, # of connection points: 3
#     Node 20, Type 0, BuildingBlock: KAKCAD_clean_linker_0, # of connection points: 3
#     Node 21, Type 0, BuildingBlock: KAKCAD_clean_linker_0, # of connection points: 3
#     Node 22, Type 0, BuildingBlock: KAKCAD_clean_linker_0, # of connection points: 3
#     Node 23, Type 0, BuildingBlock: KAKCAD_clean_linker_0, # of connection points: 3
#     Node 24, Type 1, BuildingBlock: EZIPEK_clean_sbu_0, # of connection points: 12
#     Node 25, Type 1, BuildingBlock: EZIPEK_clean_sbu_0, # of connection points: 12
#     Node 26, Type 1, BuildingBlock: EZIPEK_clean_sbu_0, # of connection points: 12
#     Node 27, Type 1, BuildingBlock: EZIPEK_clean_sbu_0, # of connection points: 12
#     Node 28, Type 1, BuildingBlock: EZIPEK_clean_sbu_0, # of connection points: 12
#     Node 29, Type 1, BuildingBlock: EZIPEK_clean_sbu_0, # of connection points: 12
#     Edge 30, Type (0, 1), BuildingBlock: UVAHIK_clean_linker_0, # of connection points: 2
#     Edge 31, Type (0, 1), BuildingBlock: UVAHIK_clean_linker_0, # of connection points: 2
#     Edge 32, Type (0, 1), BuildingBlock: UVAHIK_clean_linker_0, # of connection points: 2
#     Edge 33, Type (0, 1), BuildingBlock: UVAHIK_clean_linker_0, # of connection points: 2
#     Edge 34, Type (0, 1), BuildingBlock: UVAHIK_clean_linker_0, # of connection points: 2
#     Edge 35, Type (0, 1), BuildingBlock: UVAHIK_clean_linker_0, # of connection points: 2
#     Edge 36, Type (0, 1), BuildingBlock: UVAHIK_clean_linker_0, # of connection points: 2
#     Edge 37, Type (0, 1), BuildingBlock: UVAHIK_clean_linker_0, # of connection points: 2
#     Edge 38, Type (0, 1), BuildingBlock: UVAHIK_clean_linker_0, # of connection points: 2
#     Edge 39, Type (0, 1), BuildingBlock: UVAHIK_clean_linker_0, # of connection points: 2
#     Edge 40, Type (0, 1), BuildingBlock: UVAHIK_clean_linker_0, # of connection points: 2
#     Edge 41, Type (0, 1), BuildingBlock: UVAHIK_clean_linker_0, # of connection points: 2
#     Edge 42, Type (0, 1), BuildingBlock: UVAHIK_clean_linker_0, # of connection points: 2
#     Edge 43, Type (0, 1), BuildingBlock: UVAHIK_clean_linker_0, # of connection points: 2
#     Edge 44, Type (0, 1), BuildingBlock: UVAHIK_clean_linker_0, # of connection points: 2
#     Edge 45, Type (0, 1), BuildingBlock: UVAHIK_clean_linker_0, # of connection points: 2
#     Edge 46, Type (0, 1), BuildingBlock: UVAHIK_clean_linker_0, # of connection points: 2
#     Edge 47, Type (0, 1), BuildingBlock: UVAHIK_clean_linker_0, # of connection points: 2
#     Edge 48, Type (0, 1), BuildingBlock: UVAHIK_clean_linker_0, # of connection points: 2
#     Edge 49, Type (0, 1), BuildingBlock: UVAHIK_clean_linker_0, # of connection points: 2
#     Edge 50, Type (0, 1), BuildingBlock: UVAHIK_clean_linker_0, # of connection points: 2
#     Edge 51, Type (0, 1), BuildingBlock: UVAHIK_clean_linker_0, # of connection points: 2
#     Edge 52, Type (0, 1), BuildingBlock: UVAHIK_clean_linker_0, # of connection points: 2
#     Edge 53, Type (0, 1), BuildingBlock: UVAHIK_clean_linker_0, # of connection points: 2
#     Edge 54, Type (0, 1), BuildingBlock: UVAHIK_clean_linker_0, # of connection points: 2
#     Edge 55, Type (0, 1), BuildingBlock: UVAHIK_clean_linker_0, # of connection points: 2
#     Edge 56, Type (0, 1), BuildingBlock: UVAHIK_clean_linker_0, # of connection points: 2
#     Edge 57, Type (0, 1), BuildingBlock: UVAHIK_clean_linker_0, # of connection points: 2
#     Edge 58, Type (0, 1), BuildingBlock: UVAHIK_clean_linker_0, # of connection points: 2
#     Edge 59, Type (0, 1), BuildingBlock: UVAHIK_clean_linker_0, # of connection points: 2
#     Edge 60, Type (0, 1), BuildingBlock: UVAHIK_clean_linker_0, # of connection points: 2
#     Edge 61, Type (0, 1), BuildingBlock: UVAHIK_clean_linker_0, # of connection points: 2
#     Edge 62, Type (0, 1), BuildingBlock: UVAHIK_clean_linker_0, # of connection points: 2
#     Edge 63, Type (0, 1), BuildingBlock: UVAHIK_clean_linker_0, # of connection points: 2
#     Edge 64, Type (0, 1), BuildingBlock: UVAHIK_clean_linker_0, # of connection points: 2
#     Edge 65, Type (0, 1), BuildingBlock: UVAHIK_clean_linker_0, # of connection points: 2
#     Edge 66, Type (0, 1), BuildingBlock: UVAHIK_clean_linker_0, # of connection points: 2
#     Edge 67, Type (0, 1), BuildingBlock: UVAHIK_clean_linker_0, # of connection points: 2
#     Edge 68, Type (0, 1), BuildingBlock: UVAHIK_clean_linker_0, # of connection points: 2
#     Edge 69, Type (0, 1), BuildingBlock: UVAHIK_clean_linker_0, # of connection points: 2
#     Edge 70, Type (0, 1), BuildingBlock: UVAHIK_clean_linker_0, # of connection points: 2
#     Edge 71, Type (0, 1), BuildingBlock: UVAHIK_clean_linker_0, # of connection points: 2
#     Edge 72, Type (0, 1), BuildingBlock: UVAHIK_clean_linker_0, # of connection points: 2
#     Edge 73, Type (0, 1), BuildingBlock: UVAHIK_clean_linker_0, # of connection points: 2
#     Edge 74, Type (0, 1), BuildingBlock: UVAHIK_clean_linker_0, # of connection points: 2
#     Edge 75, Type (0, 1), BuildingBlock: UVAHIK_clean_linker_0, # of connection points: 2
#     Edge 76, Type (0, 1), BuildingBlock: UVAHIK_clean_linker_0, # of connection points: 2
#     Edge 77, Type (0, 1), BuildingBlock: UVAHIK_clean_linker_0, # of connection points: 2
#     Edge 78, Type (0, 1), BuildingBlock: UVAHIK_clean_linker_0, # of connection points: 2
#     Edge 79, Type (0, 1), BuildingBlock: UVAHIK_clean_linker_0, # of connection points: 2
#     Edge 80, Type (0, 1), BuildingBlock: UVAHIK_clean_linker_0, # of connection points: 2
#     Edge 81, Type (0, 1), BuildingBlock: UVAHIK_clean_linker_0, # of connection points: 2
#     Edge 82, Type (0, 1), BuildingBlock: UVAHIK_clean_linker_0, # of connection points: 2
#     Edge 83, Type (0, 1), BuildingBlock: UVAHIK_clean_linker_0, # of connection points: 2
#     Edge 84, Type (0, 1), BuildingBlock: UVAHIK_clean_linker_0, # of connection points: 2
#     Edge 85, Type (0, 1), BuildingBlock: UVAHIK_clean_linker_0, # of connection points: 2
#     Edge 86, Type (0, 1), BuildingBlock: UVAHIK_clean_linker_0, # of connection points: 2
#     Edge 87, Type (0, 1), BuildingBlock: UVAHIK_clean_linker_0, # of connection points: 2
#     Edge 88, Type (0, 1), BuildingBlock: UVAHIK_clean_linker_0, # of connection points: 2
#     Edge 89, Type (0, 1), BuildingBlock: UVAHIK_clean_linker_0, # of connection points: 2
#     Edge 90, Type (0, 1), BuildingBlock: UVAHIK_clean_linker_0, # of connection points: 2
#     Edge 91, Type (0, 1), BuildingBlock: UVAHIK_clean_linker_0, # of connection points: 2
#     Edge 92, Type (0, 1), BuildingBlock: UVAHIK_clean_linker_0, # of connection points: 2
#     Edge 93, Type (0, 1), BuildingBlock: UVAHIK_clean_linker_0, # of connection points: 2
#     Edge 94, Type (0, 1), BuildingBlock: UVAHIK_clean_linker_0, # of connection points: 2
#     Edge 95, Type (0, 1), BuildingBlock: UVAHIK_clean_linker_0, # of connection points: 2
#     Edge 96, Type (0, 1), BuildingBlock: UVAHIK_clean_linker_0, # of connection points: 2
#     Edge 97, Type (0, 1), BuildingBlock: UVAHIK_clean_linker_0, # of connection points: 2
#     Edge 98, Type (0, 1), BuildingBlock: UVAHIK_clean_linker_0, # of connection points: 2
#     Edge 99, Type (0, 1), BuildingBlock: UVAHIK_clean_linker_0, # of connection points: 2
#     Edge 100, Type (0, 1), BuildingBlock: UVAHIK_clean_linker_0, # of connection points: 2
#     Edge 101, Type (0, 1), BuildingBlock: UVAHIK_clean_linker_0, # of connection points: 2
# Relax obj value: 0.107
# Max RMSD: 0.160
# Mean RMSD: 0.134
data_MOF--net-llk--node1-EZIPEK_clean_sbu_0--node2-KAKCAD_clean_linker_0--edge1-UVAHIK_clean_linker_0
_symmetry_space_group_name_H-M    P1
_symmetry_Int_Tables_number       1
_symmetry_cell_setting            triclinic
loop_
_symmetry_equiv_pos_as_xyz
'x, y, z'
_cell_length_a     68.619927
_cell_length_b     68.731467
_cell_length_c     68.738117
_cell_angle_alpha  89.972956
_cell_angle_beta   89.953098
_cell_angle_gamma 89.988567
loop_
_atom_site_label
_atom_site_type_symbol
_atom_site_fract_x
_atom_site_fract_y
_atom_site_fract_z
_atom_type_partial_charge
C0 C 0.98926 0.30609 0.29452 0.0
C1 C 0.00455 0.3069 0.30803 0.0
C2 C 0.98931 0.29195 0.27997 0.0
C3 C 0.00442 0.27824 0.27908 0.0
C4 C 0.01959 0.2789 0.29272 0.0
C5 C 0.01977 0.29331 0.307 0.0
C6 C 0.00438 0.26326 0.26386 0.0
C7 C 0.00493 0.26862 0.2443 0.0
C8 C 0.00514 0.25447 0.22963 0.0
C9 C 0.00429 0.23456 0.23468 0.0
C10 C 0.00349 0.22918 0.25451 0.0
C11 C 0.0038 0.24362 0.2689 0.0
C12 C 1.00203 0.20883 0.26131 0.0
C13 C 0.98421 0.20237 0.26897 0.0
C14 C 0.01908 0.19843 0.26569 0.0
C15 C 0.01851 0.1827 0.27868 0.0
C16 C 1.00089 0.1773 0.2877 0.0
C17 C 0.00657 0.2616 0.20939 0.0
C18 C 0.98949 0.26606 0.19908 0.0
C19 C 0.02435 0.26945 0.20304 0.0
C20 C 0.02486 0.28273 0.18763 0.0
C21 C 0.00757 0.28848 0.17828 0.0
C22 C 0.99 0.2793 0.18355 0.0
C23 C 0.98362 0.18675 0.28201 0.0
H24 H 0.97745 0.31653 0.2951 0.0
H25 H 0.97748 0.29157 0.26955 0.0
H26 H 0.03138 0.26843 0.29215 0.0
H27 H 0.03164 0.29373 0.31738 0.0
H28 H 0.00551 0.28393 0.24047 0.0
H29 H 0.00326 0.23953 0.28415 0.0
H30 H 0.00425 0.22351 0.22345 0.0
H31 H 0.97094 0.21044 0.26614 0.0
H32 H 0.03306 0.2035 0.26039 0.0
H33 H 0.03208 0.1758 0.28283 0.0
H34 H 0.97554 0.26061 0.20407 0.0
H35 H 0.03763 0.26655 0.21106 0.0
H36 H 0.96979 0.18277 0.28848 0.0
H37 H 0.97641 0.28349 0.17672 0.0
H38 H 0.03867 0.28932 0.18373 0.0
C39 C 0.71517 0.01414 0.30882 0.0
C40 C 0.7 1.00045 0.30818 0.0
C41 C 0.7294 0.0144 0.29434 0.0
C42 C 0.72874 1.00096 0.27898 0.0
C43 C 0.7136 0.98722 0.27838 0.0
C44 C 0.69935 0.98698 0.29285 0.0
C45 C 0.74375 1.00135 0.26354 0.0
C46 C 0.76338 0.00384 0.26829 0.0
C47 C 0.77778 0.00444 0.25382 0.0
C48 C 0.77236 0.00249 0.23407 0.0
C49 C 0.7525 0.99994 0.2292 0.0
C50 C 0.73846 0.99939 0.24402 0.0
C51 C 0.74522 0.9984 0.20895 0.0
C52 C 0.74382 0.01513 0.19733 0.0
C53 C 0.73471 0.98173 0.20354 0.0
C54 C 0.7218 0.98223 0.18781 0.0
C55 C 0.71904 0.99947 0.17709 0.0
C56 C 0.79818 0.00666 0.26051 0.0
C57 C 0.8032 0.02328 0.27129 0.0
C58 C 0.81053 0.9904 0.2612 0.0
C59 C 0.82671 0.99022 0.27369 0.0
C60 C 0.83077 0.00626 0.28582 0.0
C61 C 0.81928 0.02311 0.28377 0.0
C62 C 0.73089 0.01565 0.18152 0.0
H63 H 0.71586 0.02487 0.32034 0.0
H64 H 0.74075 0.02534 0.295 0.0
H65 H 0.7129 0.97651 0.26685 0.0
H66 H 0.68794 0.97611 0.29215 0.0
H67 H 0.76759 0.00494 0.28347 0.0
H68 H 0.72318 0.9979 0.24025 0.0
H69 H 0.78334 0.00297 0.22275 0.0
H70 H 0.7515 0.02828 0.2014 0.0
H71 H 0.73526 0.96877 0.21251 0.0
H72 H 0.71292 0.96951 0.18507 0.0
H73 H 0.79367 0.03586 0.2713 0.0
H74 H 0.80678 0.97728 0.25331 0.0
H75 H 0.72948 0.02906 0.17337 0.0
H76 H 0.82172 0.03571 0.29289 0.0
H77 H 0.83544 0.97712 0.27455 0.0
C78 C 0.98904 0.71325 0.30894 0.0
C79 C 0.99679 0.69468 0.30521 0.0
C80 C 0.99006 0.72787 0.29488 0.0
C81 C 0.99918 0.72438 0.27689 0.0
C82 C 0.00672 0.70575 0.2731 0.0
C83 C 0.00533 0.69103 0.28698 0.0
C84 C 1.00145 0.74024 0.26237 0.0
C85 C 0.0054 0.7593 0.26838 0.0
C86 C 0.00847 0.77422 0.2548 0.0
C87 C 0.00807 0.76995 0.23473 0.0
C88 C 0.00423 0.75075 0.22858 0.0
C89 C 1.00056 0.73624 0.24243 0.0
C90 C 0.00511 0.74443 0.20805 0.0
C91 C 0.98773 0.74003 0.19826 0.0
C92 C 0.02273 0.73697 0.20084 0.0
C93 C 0.0228 0.72403 0.18511 0.0
C94 C 0.00521 0.71826 0.17627 0.0
C95 C 0.01217 0.79391 0.26266 0.0
C96 C 0.99657 0.80693 0.26491 0.0
C97 C 0.02953 0.79734 0.27288 0.0
C98 C 0.03078 0.81263 0.28624 0.0
C99 C 0.01463 0.82475 0.28976 0.0
C100 C 0.99781 0.82228 0.27829 0.0
C101 C 0.98779 0.72721 0.18243 0.0
H102 H 0.98255 0.7167 0.32287 0.0
H103 H 0.98379 0.74194 0.2982 0.0
H104 H 0.01411 0.70255 0.25955 0.0
H105 H 0.0111 0.67682 0.2834 0.0
H106 H 0.00646 0.76262 0.28376 0.0
H107 H 0.99733 0.7216 0.23751 0.0
H108 H 0.01091 0.78127 0.22413 0.0
H109 H 0.97392 0.74527 0.20384 0.0
H110 H 0.03624 0.73972 0.20852 0.0
H111 H 0.0365 0.7174 0.18095 0.0
H112 H 0.98287 0.80427 0.25756 0.0
H113 H 0.04161 0.78726 0.27164 0.0
H114 H 0.97401 0.72349 0.17573 0.0
H115 H 0.98507 0.83126 0.28069 0.0
H116 H 0.04407 0.81434 0.29455 0.0
C117 C 0.3078 0.02482 0.29356 0.0
C118 C 0.31173 0.00876 0.30555 0.0
C119 C 0.29287 0.02383 0.27981 0.0
C120 C 0.28148 0.00695 0.27826 0.0
C121 C 0.28525 0.99104 0.29047 0.0
C122 C 0.30039 0.99187 0.30391 0.0
C123 C 0.2659 0.0056 0.26367 0.0
C124 C 0.27018 0.00791 0.24399 0.0
C125 C 0.25587 0.00485 0.22976 0.0
C126 C 0.23667 0.9999 0.23554 0.0
C127 C 0.23222 0.99795 0.25558 0.0
C128 C 0.24702 1.00076 0.26937 0.0
C129 C 0.21251 0.99315 0.26321 0.0
C130 C 0.19697 0.00624 0.26104 0.0
C131 C 0.21067 0.97795 0.27676 0.0
C132 C 0.19463 0.97698 0.28924 0.0
C133 C 0.17971 0.99103 0.28836 0.0
C134 C 0.26247 0.00554 0.20922 0.0
C135 C 0.27111 0.0227 0.2022 0.0
C136 C 0.26553 0.98813 0.199 0.0
C137 C 0.27833 0.98761 0.18305 0.0
C138 C 0.28834 0.0045 0.17704 0.0
C139 C 0.28385 0.02221 0.1863 0.0
C140 C 0.18067 0.00513 0.27341 0.0
H141 H 0.31646 0.03795 0.29465 0.0
H142 H 0.29012 0.03624 0.27048 0.0
H143 H 0.27667 0.97785 0.28937 0.0
H144 H 0.30318 0.97939 0.31314 0.0
H145 H 0.28504 0.0112 0.23966 0.0
H146 H 0.24382 0.99927 0.28476 0.0
H147 H 0.22552 0.99739 0.22469 0.0
H148 H 0.19807 0.0182 0.25083 0.0
H149 H 0.22251 0.96772 0.27883 0.0
H150 H 0.1948 0.96596 0.30049 0.0
H151 H 0.26931 0.03624 0.21007 0.0
H152 H 0.25936 0.97463 0.20433 0.0
H153 H 0.16928 0.0159 0.2718 0.0
H154 H 0.2913 0.0355 0.18228 0.0
H155 H 0.28111 0.97377 0.17605 0.0
C156 C 0.99346 0.69554 0.71203 0.0
C157 C 0.00739 0.69629 0.69707 0.0
C158 C 0.99321 0.70973 0.7265 0.0
C159 C 0.00684 0.72497 0.72625 0.0
C160 C 0.02084 0.72566 0.71135 0.0
C161 C 0.02115 0.71142 0.69691 0.0
C162 C 0.0062 0.74026 0.74134 0.0
C163 C 0.00369 0.7353 0.76088 0.0
C164 C 1.00246 0.74967 0.77528 0.0
C165 C 0.00366 0.76949 0.76999 0.0
C166 C 0.00633 0.77456 0.75023 0.0
C167 C 0.00765 0.75986 0.73616 0.0
C168 C 0.00711 0.79488 0.74314 0.0
C169 C 0.98975 0.80532 0.74046 0.0
C170 C 0.02418 0.80148 0.734 0.0
C171 C 0.02364 0.81735 0.72127 0.0
C172 C 0.00595 0.82691 0.71727 0.0
C173 C 1.00006 0.74283 0.79554 0.0
C174 C 0.9823 0.73425 0.80095 0.0
C175 C 0.01666 0.73926 0.80691 0.0
C176 C 0.01585 0.72608 0.82248 0.0
C177 C 0.99844 0.71612 0.82681 0.0
C178 C 0.98147 0.72109 0.81645 0.0
C179 C 0.98917 0.82121 0.72766 0.0
H180 H 0.98281 0.68392 0.7126 0.0
H181 H 0.98214 0.70896 0.73773 0.0
H182 H 0.03161 0.73719 0.71092 0.0
H183 H 0.03195 0.71241 0.68545 0.0
H184 H 1.00287 0.72008 0.76501 0.0
H185 H 0.00922 0.76379 0.72095 0.0
H186 H 1.00256 0.78072 0.78098 0.0
H187 H 0.97632 0.80026 0.74703 0.0
H188 H 0.03764 0.79337 0.7355 0.0
H189 H 0.03682 0.82113 0.71347 0.0
H190 H 0.9694 0.73647 0.79213 0.0
H191 H 0.03063 0.74528 0.80268 0.0
H192 H 0.97536 0.82843 0.72518 0.0
H193 H 0.96776 0.71394 0.81961 0.0
H194 H 0.02921 0.72255 0.83007 0.0
C195 C 0.30591 0.98504 0.70793 0.0
C196 C 0.30822 1.00141 0.69596 0.0
C197 C 0.29191 0.98506 0.72265 0.0
C198 C 0.27983 1.00131 0.72529 0.0
C199 C 0.28199 0.0176 0.71318 0.0
C200 C 0.29625 0.01773 0.69872 0.0
C201 C 0.26498 1.00129 0.74071 0.0
C202 C 0.27034 0.998 0.75999 0.0
C203 C 0.25641 0.99829 0.77493 0.0
C204 C 0.23658 1.00145 0.77026 0.0
C205 C 0.23112 0.00448 0.75065 0.0
C206 C 0.24548 0.00463 0.73614 0.0
C207 C 0.21068 0.00669 0.7441 0.0
C208 C 0.19878 0.99017 0.7424 0.0
C209 C 0.20526 0.02377 0.73427 0.0
C210 C 0.18922 0.02391 0.72173 0.0
C211 C 0.17825 0.00689 0.71863 0.0
C212 C 0.26377 0.99622 0.7951 0.0
C213 C 0.2749 0.97975 0.79993 0.0
C214 C 0.26446 0.0125 0.80739 0.0
C215 C 0.27735 0.01291 0.82324 0.0
C216 C 0.28981 0.99704 0.82706 0.0
C217 C 0.28774 0.98013 0.81571 0.0
C218 C 0.1827 0.99027 0.7298 0.0
H219 H 0.3151 0.97235 0.70604 0.0
H220 H 0.29037 0.97234 0.73184 0.0
H221 H 0.27282 0.03029 0.71509 0.0
H222 H 0.29782 0.03046 0.68955 0.0
H223 H 0.28561 0.99579 0.76346 0.0
H224 H 0.24137 0.00684 0.72105 0.0
H225 H 0.22564 1.00153 0.78163 0.0
H226 H 0.20287 0.97671 0.74952 0.0
H227 H 0.21446 0.03657 0.73502 0.0
H228 H 0.18642 0.03694 0.71334 0.0
H229 H 0.27485 0.96713 0.79049 0.0
H230 H 0.25627 0.0255 0.80381 0.0
H231 H 0.17437 0.977 0.72807 0.0
H232 H 0.2971 0.96766 0.81801 0.0
H233 H 0.27824 0.02604 0.8319 0.0
C234 C 0.98313 0.29175 0.69702 0.0
C235 C 0.99414 0.30893 0.69825 0.0
C236 C 0.98502 0.27731 0.71118 0.0
C237 C 0.99796 0.27981 0.72681 0.0
C238 C 0.00884 0.29707 0.7281 0.0
C239 C 0.00694 0.31148 0.71397 0.0
C240 C 1.00059 0.2643 0.74149 0.0
C241 C 1.00246 0.24487 0.73576 0.0
C242 C 0.0061 0.2302 0.74945 0.0
C243 C 0.00782 0.23502 0.76934 0.0
C244 C 0.0058 0.25461 0.77518 0.0
C245 C 1.00212 0.26899 0.76122 0.0
C246 C 0.00794 0.26124 0.79551 0.0
C247 C 0.99122 0.26383 0.80698 0.0
C248 C 0.0253 0.27052 0.80102 0.0
C249 C 0.02558 0.28332 0.81684 0.0
C250 C 0.00845 0.28722 0.82744 0.0
C251 C 0.00873 0.21026 0.74184 0.0
C252 C 0.99229 0.19875 0.73804 0.0
C253 C 0.02658 0.20528 0.73319 0.0
C254 C 0.02767 0.18989 0.7199 0.0
C255 C 0.0109 0.17921 0.71494 0.0
C256 C 0.99338 0.18327 0.72481 0.0
C257 C 0.99149 0.27661 0.82285 0.0
H258 H 0.973 0.28951 0.68515 0.0
H259 H 0.9763 0.26424 0.70996 0.0
H260 H 0.01919 0.29925 0.73978 0.0
H261 H 0.01588 0.32442 0.71511 0.0
H262 H 1.00165 0.24115 0.72044 0.0
H263 H 1.00053 0.28401 0.76581 0.0
H264 H 0.01088 0.22382 0.78 0.0
H265 H 0.97756 0.25718 0.80272 0.0
H266 H 0.03822 0.26917 0.79204 0.0
H267 H 0.03887 0.29129 0.81976 0.0
H268 H 0.97825 0.20268 0.74412 0.0
H269 H 0.03934 0.21426 0.73555 0.0
H270 H 0.97811 0.27895 0.83089 0.0
H271 H 0.98015 0.17545 0.72125 0.0
H272 H 0.04145 0.18698 0.71278 0.0
C273 C 0.70759 0.9919 0.70021 0.0
C274 C 0.69627 0.0088 0.69842 0.0
C275 C 0.72273 0.99115 0.71367 0.0
C276 C 0.72652 0.00716 0.72573 0.0
C277 C 0.71515 0.02404 0.72403 0.0
C278 C 0.70022 0.02494 0.71026 0.0
C279 C 0.74212 0.00593 0.74033 0.0
C280 C 0.761 1.00108 0.73467 0.0
C281 C 0.77585 0.99857 0.74847 0.0
C282 C 0.77142 1.00081 0.76848 0.0
C283 C 0.75222 0.00576 0.77424 0.0
C284 C 0.73786 0.00851 0.75997 0.0
C285 C 0.74569 0.00682 0.79481 0.0
C286 C 0.7442 0.98975 0.80593 0.0
C287 C 0.73587 0.02358 0.80121 0.0
C288 C 0.7234 0.02286 0.81729 0.0
C289 C 0.72043 0.00533 0.82746 0.0
C290 C 0.79559 0.99386 0.74089 0.0
C291 C 0.79755 0.97862 0.7274 0.0
C292 C 0.81107 0.00702 0.74305 0.0
C293 C 0.8274 0.00595 0.73073 0.0
C294 C 0.82847 0.99182 0.71583 0.0
C295 C 0.81362 0.97769 0.71497 0.0
C296 C 0.73172 0.98901 0.82212 0.0
H297 H 0.70479 0.97935 0.6911 0.0
H298 H 0.7313 0.97796 0.71489 0.0
H299 H 0.71791 0.03652 0.73324 0.0
H300 H 0.69157 0.03807 0.70906 0.0
H301 H 0.76418 0.99942 0.71929 0.0
H302 H 0.72299 0.01179 0.76425 0.0
H303 H 0.78263 0.99857 0.77935 0.0
H304 H 0.75136 0.97654 0.80116 0.0
H305 H 0.73655 0.03686 0.79272 0.0
H306 H 0.71497 0.03572 0.82073 0.0
H307 H 0.78578 0.96832 0.72535 0.0
H308 H 0.80989 0.019 0.75322 0.0
H309 H 0.73019 0.97536 0.82984 0.0
H310 H 0.81354 0.96665 0.70376 0.0
H311 H 0.83873 0.01678 0.73234 0.0
C312 C 0.30601 0.29639 0.98515 0.0
C313 C 0.30837 0.30835 1.0015 0.0
C314 C 0.29198 0.28171 0.98522 0.0
C315 C 0.27992 0.27911 1.0015 0.0
C316 C 0.28215 0.29121 0.01778 0.0
C317 C 0.29644 0.30563 0.01786 0.0
C318 C 0.26501 0.26376 1.00151 0.0
C319 C 0.27027 0.24446 0.99815 0.0
C320 C 0.25627 0.2296 0.99842 0.0
C321 C 0.23646 0.23438 1.00162 0.0
C322 C 0.2311 0.25401 0.00473 0.0
C323 C 0.24554 0.26844 0.0049 0.0
C324 C 0.2107 0.26069 0.00697 0.0
C325 C 0.19886 0.26264 0.99045 0.0
C326 C 0.20533 0.27041 0.02413 0.0
C327 C 0.1894 0.2831 0.02434 0.0
C328 C 0.17849 0.28646 0.00733 0.0
C329 C 0.26352 0.2094 0.99623 0.0
C330 C 0.27461 0.20461 0.97972 0.0
C331 C 0.26412 0.19698 0.01242 0.0
C332 C 0.2769 0.18102 0.01271 0.0
C333 C 0.28935 0.17724 0.99681 0.0
C334 C 0.28736 0.18874 0.97998 0.0
C335 C 0.18288 0.27539 0.99063 0.0
H336 H 0.31517 0.29825 0.97244 0.0
H337 H 0.29039 0.27253 0.97251 0.0
H338 H 0.27299 0.28933 0.03049 0.0
H339 H 0.29804 0.3148 0.03057 0.0
H340 H 0.28552 0.24091 0.9959 0.0
H341 H 0.24151 0.28354 0.00715 0.0
H342 H 0.22546 0.22308 1.00167 0.0
H343 H 0.20292 0.25561 0.97694 0.0
H344 H 0.2145 0.26947 0.03693 0.0
H345 H 0.18663 0.2914 0.03744 0.0
H346 H 0.27463 0.21416 0.96716 0.0
H347 H 0.25595 0.20051 0.02544 0.0
H348 H 0.1746 0.27732 0.97737 0.0
H349 H 0.29671 0.18647 0.9675 0.0
H350 H 0.27773 0.17226 0.02577 0.0
C351 C 0.30957 0.71284 0.02012 0.0
C352 C 0.30904 0.69716 0.00704 0.0
C353 C 0.29523 0.7272 0.01949 0.0
C354 C 0.28014 0.72616 0.00574 0.0
C355 C 0.27959 0.71045 0.99269 0.0
C356 C 0.2939 0.69608 0.99334 0.0
C357 C 0.26503 0.74147 0.00492 0.0
C358 C 0.27019 0.76107 0.00633 0.0
C359 C 0.25605 0.77578 0.00534 0.0
C360 C 0.23624 0.77068 0.00285 0.0
C361 C 0.23097 0.75084 1.00153 0.0
C362 C 0.24544 0.7365 0.00256 0.0
C363 C 0.21067 0.74389 0.99949 0.0
C364 C 0.19937 0.74087 0.01625 0.0
C365 C 0.20518 0.73463 0.98213 0.0
C366 C 0.18966 0.72143 0.98186 0.0
C367 C 0.17932 0.71707 0.99902 0.0
C368 C 0.26317 0.79611 0.00648 0.0
C369 C 0.27341 0.80198 0.02315 0.0
C370 C 0.2647 0.80737 0.98951 0.0
C371 C 0.2775 0.82329 0.98881 0.0
C372 C 0.28908 0.82818 0.00504 0.0
C373 C 0.28619 0.81781 0.02247 0.0
C374 C 0.18381 0.72763 0.01601 0.0
H375 H 0.32095 0.71388 0.03098 0.0
H376 H 0.29584 0.73901 0.0299 0.0
H377 H 0.26828 0.70944 0.98175 0.0
H378 H 0.29332 0.6843 0.98289 0.0
H379 H 0.28544 0.765 0.00777 0.0
H380 H 0.24132 0.72127 1.00185 0.0
H381 H 0.22518 0.78189 1.00204 0.0
H382 H 0.20359 0.74747 0.02992 0.0
H383 H 0.21401 0.73632 0.96916 0.0
H384 H 0.18681 0.71353 0.96854 0.0
H385 H 0.27277 0.79329 0.0363 0.0
H386 H 0.25723 0.80293 0.97637 0.0
H387 H 0.17596 0.72493 0.02941 0.0
H388 H 0.29488 0.8209 0.03523 0.0
H389 H 0.27901 0.83117 0.97524 0.0
C390 C 0.7132 0.30805 0.9941 0.0
C391 C 0.69855 0.30702 0.00832 0.0
C392 C 0.72794 0.29412 0.9935 0.0
C393 C 0.72834 0.27891 0.00714 0.0
C394 C 0.71381 0.27799 0.02152 0.0
C395 C 0.69905 0.29196 0.02213 0.0
C396 C 0.74362 0.2638 0.00592 0.0
C397 C 0.76291 0.26899 1.00211 0.0
C398 C 0.77738 0.25483 0.99942 0.0
C399 C 0.77238 0.23491 1.00093 0.0
C400 C 0.7529 0.22958 0.00513 0.0
C401 C 0.73878 0.24414 0.00759 0.0
C402 C 0.74594 0.20915 0.00599 0.0
C403 C 0.74412 0.19825 0.98883 0.0
C404 C 0.73611 0.20279 0.02276 0.0
C405 C 0.72339 0.18692 0.02201 0.0
C406 C 0.72016 0.17694 0.00443 0.0
C407 C 0.79731 0.262 0.99495 0.0
C408 C 0.79971 0.27505 0.9794 0.0
C409 C 0.81238 0.26019 0.00862 0.0
C410 C 0.82875 0.27244 0.00765 0.0
C411 C 0.83024 0.28694 0.99312 0.0
C412 C 0.81582 0.28742 0.97856 0.0
C413 C 0.73139 0.18227 0.98806 0.0
H414 H 0.7133 0.31964 0.98341 0.0
H415 H 0.73882 0.29507 0.98211 0.0
H416 H 0.71387 0.26648 0.0323 0.0
H417 H 0.68785 0.29076 0.03318 0.0
H418 H 0.76674 0.28428 1.00124 0.0
H419 H 0.72371 0.24006 0.01007 0.0
H420 H 0.78337 0.2238 0.99872 0.0
H421 H 0.75128 0.20303 0.97561 0.0
H422 H 0.737 0.21116 0.0361 0.0
H423 H 0.715 0.18349 0.03491 0.0
H424 H 0.7882 0.27687 0.96877 0.0
H425 H 0.81081 0.25039 0.02087 0.0
H426 H 0.72965 0.1747 0.97436 0.0
H427 H 0.81605 0.29833 0.96721 0.0
H428 H 0.83976 0.27114 0.01884 0.0
C429 C 0.71064 0.6992 0.01904 0.0
C430 C 0.69879 0.6964 0.00266 0.0
C431 C 0.72507 0.71349 0.01886 0.0
C432 C 0.72752 0.72538 0.00245 0.0
C433 C 0.71553 0.72273 0.98615 0.0
C434 C 0.70137 0.70817 0.98617 0.0
C435 C 0.74261 0.74057 0.00234 0.0
C436 C 0.76202 0.7357 0.00578 0.0
C437 C 0.77663 0.74996 0.00548 0.0
C438 C 0.77149 0.76962 0.00218 0.0
C439 C 0.75174 0.77459 0.99896 0.0
C440 C 0.73757 0.75989 0.99882 0.0
C441 C 0.74473 0.79487 0.99669 0.0
C442 C 0.74435 0.80736 0.01282 0.0
C443 C 0.73363 0.79972 0.98022 0.0
C444 C 0.72108 0.81574 0.98048 0.0
C445 C 0.71928 0.82731 0.99727 0.0
C446 C 0.797 0.74312 0.0077 0.0
C447 C 0.80196 0.73208 0.02418 0.0
C448 C 0.8095 0.74283 0.99154 0.0
C449 C 0.8257 0.73036 0.99123 0.0
C450 C 0.82967 0.71792 0.00707 0.0
C451 C 0.81809 0.71965 0.02389 0.0
C452 C 0.73175 0.82345 0.01311 0.0
H453 H 0.70888 0.69018 0.03185 0.0
H454 H 0.73417 0.71541 0.03159 0.0
H455 H 0.71729 0.73175 0.97334 0.0
H456 H 0.69228 0.70624 0.97344 0.0
H457 H 0.76585 0.72055 0.00811 0.0
H458 H 0.72236 0.7636 0.99655 0.0
H459 H 0.78261 0.7808 1.00212 0.0
H460 H 0.75253 0.80377 0.02581 0.0
H461 H 0.73346 0.79013 0.9677 0.0
H462 H 0.71169 0.81807 0.96804 0.0
H463 H 0.79238 0.73184 0.03672 0.0
H464 H 0.80584 0.75097 0.97855 0.0
H465 H 0.73107 0.83227 0.02615 0.0
H466 H 0.82049 0.71029 0.03634 0.0
H467 H 0.83453 0.72975 0.97818 0.0
C468 C 0.49378 0.80981 0.79044 0.0
C469 C 0.50479 0.80729 0.80748 0.0
C470 C 0.4937 0.79548 0.77609 0.0
C471 C 0.50461 0.77837 0.77853 0.0
C472 C 0.51559 0.77582 0.79557 0.0
C473 C 0.51569 0.79016 0.80991 0.0
C474 C 0.50453 0.76319 0.76331 0.0
C475 C 0.50648 0.76828 0.74373 0.0
C476 C 0.50642 0.75405 0.72913 0.0
C477 C 0.50435 0.73424 0.73426 0.0
C478 C 0.50239 0.72906 0.75406 0.0
C479 C 0.50249 0.74361 0.76834 0.0
C480 C 0.50036 0.70878 0.76102 0.0
C481 C 0.48264 0.70308 0.76952 0.0
C482 C 0.51714 0.6977 0.76473 0.0
C483 C 0.51652 0.68214 0.77796 0.0
C484 C 0.49912 0.67755 0.78783 0.0
C485 C 0.50838 0.76106 0.70886 0.0
C486 C 0.49158 0.76465 0.69778 0.0
C487 C 0.52604 0.76967 0.70315 0.0
C488 C 0.52658 0.78289 0.68768 0.0
C489 C 0.50944 0.78784 0.6776 0.0
C490 C 0.49212 0.77786 0.68221 0.0
C491 C 0.48201 0.68762 0.78275 0.0
H492 H 0.485 0.82273 0.78832 0.0
H493 H 0.48489 0.79767 0.7632 0.0
H494 H 0.52434 0.76287 0.79768 0.0
H495 H 0.52454 0.78796 0.82277 0.0
H496 H 0.50822 0.78346 0.73977 0.0
H497 H 0.50083 0.7396 0.78352 0.0
H498 H 0.50428 0.72311 0.7231 0.0
H499 H 0.46959 0.71165 0.76719 0.0
H500 H 0.53107 0.70214 0.75877 0.0
H501 H 0.52997 0.67475 0.78158 0.0
H502 H 0.4777 0.75859 0.70223 0.0
H503 H 0.5391 0.76743 0.71171 0.0
H504 H 0.46831 0.68426 0.78983 0.0
H505 H 0.47864 0.78138 0.67481 0.0
H506 H 0.54023 0.79006 0.6843 0.0
C507 C 0.21096 0.51631 0.8059 0.0
C508 C 0.19916 0.49985 0.80851 0.0
C509 C 0.22531 0.51642 0.79153 0.0
C510 C 0.22773 0.50022 0.77936 0.0
C511 C 0.21583 0.48382 0.78186 0.0
C512 C 0.20175 0.48356 0.7965 0.0
C513 C 0.24266 0.5005 0.76401 0.0
C514 C 0.26208 0.50407 0.76871 0.0
C515 C 0.27651 0.50432 0.75426 0.0
C516 C 0.27118 0.50147 0.73459 0.0
C517 C 0.25142 0.49807 0.72979 0.0
C518 C 0.23743 0.49736 0.74467 0.0
C519 C 0.24419 0.49617 0.70955 0.0
C520 C 0.2436 0.51254 0.69736 0.0
C521 C 0.23319 0.4797 0.70449 0.0
C522 C 0.22055 0.48015 0.68856 0.0
C523 C 0.21857 0.49712 0.67727 0.0
C524 C 0.29687 0.50678 0.76092 0.0
C525 C 0.30198 0.52389 0.77085 0.0
C526 C 0.30898 0.49041 0.76263 0.0
C527 C 0.32496 0.49065 0.77535 0.0
C528 C 0.32911 0.50728 0.78662 0.0
C529 C 0.31793 0.52417 0.78351 0.0
C530 C 0.23092 0.51301 0.68135 0.0
H531 H 0.20919 0.52898 0.81511 0.0
H532 H 0.23434 0.52923 0.78973 0.0
H533 H 0.21758 0.47117 0.77261 0.0
H534 H 0.19269 0.47076 0.79828 0.0
H535 H 0.26609 0.50616 0.78384 0.0
H536 H 0.22221 0.49499 0.74111 0.0
H537 H 0.28216 0.50188 0.72327 0.0
H538 H 0.25171 0.52553 0.70111 0.0
H539 H 0.23318 0.467 0.71385 0.0
H540 H 0.21127 0.46766 0.68607 0.0
H541 H 0.29261 0.53656 0.7701 0.0
H542 H 0.30512 0.47693 0.75544 0.0
H543 H 0.23009 0.52619 0.67276 0.0
H544 H 0.3205 0.5372 0.79197 0.0
H545 H 0.33346 0.47749 0.7771 0.0
C546 C 0.50198 0.214 0.81097 0.0
C547 C 0.51474 0.19827 0.80819 0.0
C548 C 0.49988 0.22817 0.79662 0.0
C549 C 0.51052 0.22691 0.7792 0.0
C550 C 0.52341 0.21127 0.77646 0.0
C551 C 0.5255 0.19706 0.79084 0.0
C552 C 0.50766 0.24165 0.76378 0.0
C553 C 0.50615 0.26135 0.76857 0.0
C554 C 0.50212 0.27536 0.75432 0.0
C555 C 0.49975 0.26958 0.73477 0.0
C556 C 0.50149 0.24972 0.72983 0.0
C557 C 0.50547 0.23598 0.74437 0.0
C558 C 0.49852 0.24219 0.70992 0.0
C559 C 0.48064 0.23345 0.70528 0.0
C560 C 0.51476 0.23859 0.69803 0.0
C561 C 0.51345 0.22543 0.68251 0.0
C562 C 0.49593 0.21545 0.67879 0.0
C563 C 0.49993 0.29563 0.76109 0.0
C564 C 0.48247 0.3011 0.77023 0.0
C565 C 0.51665 0.307 0.764 0.0
C566 C 0.51627 0.32272 0.77697 0.0
C567 C 0.49921 0.32723 0.78746 0.0
C568 C 0.48208 0.31676 0.78323 0.0
C569 C 0.47934 0.22024 0.68985 0.0
H570 H 0.49322 0.21512 0.82403 0.0
H571 H 0.48956 0.23986 0.79898 0.0
H572 H 0.53194 0.21006 0.76325 0.0
H573 H 0.53559 0.18518 0.78841 0.0
H574 H 0.50799 0.26589 0.78357 0.0
H575 H 0.50627 0.22068 0.74057 0.0
H576 H 0.4964 0.28027 0.72368 0.0
H577 H 0.46805 0.23567 0.71454 0.0
H578 H 0.52882 0.24474 0.70169 0.0
H579 H 0.52654 0.222 0.67439 0.0
H580 H 0.46955 0.29219 0.76863 0.0
H581 H 0.53038 0.30277 0.75746 0.0
H582 H 0.46556 0.21302 0.6872 0.0
H583 H 0.46871 0.31964 0.7911 0.0
H584 H 0.52964 0.33067 0.77956 0.0
C585 C 0.81045 0.51514 0.79118 0.0
C586 C 0.80993 0.50153 0.80642 0.0
C587 C 0.79598 0.51515 0.77696 0.0
C588 C 0.78074 0.50152 0.7777 0.0
C589 C 0.78026 0.48788 0.79291 0.0
C590 C 0.79471 0.48789 0.80715 0.0
C591 C 0.76535 0.50159 0.76267 0.0
C592 C 0.77017 0.50389 0.74307 0.0
C593 C 0.75574 0.50405 0.72864 0.0
C594 C 0.73596 0.50184 0.73401 0.0
C595 C 0.73102 0.4995 0.75386 0.0
C596 C 0.74581 0.4994 0.76792 0.0
C597 C 0.71075 0.49769 0.7611 0.0
C598 C 0.69895 0.5143 0.76261 0.0
C599 C 0.70554 0.48094 0.77161 0.0
C600 C 0.68987 0.48127 0.78463 0.0
C601 C 0.67901 0.49841 0.7875 0.0
C602 C 0.76253 0.50601 0.70826 0.0
C603 C 0.77302 0.52275 0.70298 0.0
C604 C 0.76372 0.4895 0.69632 0.0
C605 C 0.77645 0.48922 0.68033 0.0
C606 C 0.78833 0.50543 0.67604 0.0
C607 C 0.78574 0.52249 0.68708 0.0
C608 C 0.68319 0.51464 0.77564 0.0
H609 H 0.82188 0.52599 0.79043 0.0
H610 H 0.79655 0.52601 0.76555 0.0
H611 H 0.76883 0.47703 0.79367 0.0
H612 H 0.79412 0.47707 0.81859 0.0
H613 H 0.78537 0.50517 0.7389 0.0
H614 H 0.74197 0.49805 0.78318 0.0
H615 H 0.72467 0.50194 0.72301 0.0
H616 H 0.70288 0.5275 0.75494 0.0
H617 H 0.71466 0.46808 0.771 0.0
H618 H 0.68731 0.46851 0.79351 0.0
H619 H 0.77265 0.53553 0.7122 0.0
H620 H 0.75607 0.47629 0.70029 0.0
H621 H 0.67492 0.52797 0.77713 0.0
H622 H 0.79465 0.53522 0.68445 0.0
H623 H 0.77772 0.47595 0.67194 0.0
C624 C 0.49503 0.19357 0.21484 0.0
C625 C 0.5025 0.19756 0.19621 0.0
C626 C 0.49504 0.20787 0.22923 0.0
C627 C 0.50287 0.22638 0.22546 0.0
C628 C 0.51048 0.23033 0.20688 0.0
C629 C 0.51013 0.21616 0.19239 0.0
C630 C 0.50314 0.24152 0.24085 0.0
C631 C 0.50675 0.23649 0.26024 0.0
C632 C 0.50682 0.2506 0.27497 0.0
C633 C 0.50375 0.27034 0.27013 0.0
C634 C 0.50037 0.27556 0.25054 0.0
C635 C 0.49982 0.26105 0.23621 0.0
C636 C 0.49797 0.29588 0.24378 0.0
C637 C 0.48025 0.30131 0.23513 0.0
C638 C 0.51457 0.30733 0.24036 0.0
C639 C 0.51382 0.32292 0.22718 0.0
C640 C 0.49648 0.32719 0.21709 0.0
C641 C 0.50956 0.24349 0.29512 0.0
C642 C 0.49321 0.24055 0.30706 0.0
C643 C 0.52715 0.23425 0.29998 0.0
C644 C 0.52796 0.22103 0.31543 0.0
C645 C 0.51116 0.21668 0.32633 0.0
C646 C 0.49401 0.22731 0.32259 0.0
C647 C 0.4795 0.31682 0.22197 0.0
H648 H 0.4893 0.17934 0.21844 0.0
H649 H 0.48878 0.20439 0.24327 0.0
H650 H 0.5169 0.24432 0.20353 0.0
H651 H 0.51573 0.21988 0.17814 0.0
H652 H 0.50953 0.22142 0.26403 0.0
H653 H 0.49682 0.26514 0.22127 0.0
H654 H 0.50399 0.2814 0.28135 0.0
H655 H 0.46734 0.29249 0.23728 0.0
H656 H 0.5285 0.30313 0.24646 0.0
H657 H 0.52719 0.33055 0.22373 0.0
H658 H 0.47936 0.24713 0.30332 0.0
H659 H 0.53986 0.23603 0.29078 0.0
H660 H 0.46583 0.31995 0.21474 0.0
H661 H 0.48079 0.22428 0.33065 0.0
H662 H 0.5415 0.21339 0.31814 0.0
C663 C 0.81018 0.49501 0.21219 0.0
C664 C 0.80885 0.50898 0.19733 0.0
C665 C 0.79587 0.49393 0.22655 0.0
C666 C 0.77998 0.50681 0.22634 0.0
C667 C 0.77872 0.52086 0.21154 0.0
C668 C 0.79302 0.52192 0.19716 0.0
C669 C 0.76468 0.50546 0.24143 0.0
C670 C 0.76971 0.50271 0.26092 0.0
C671 C 0.75536 0.50121 0.27536 0.0
C672 C 0.73547 0.50245 0.27016 0.0
C673 C 0.73032 0.50532 0.25046 0.0
C674 C 0.74502 0.50678 0.23634 0.0
C675 C 0.70993 0.5064 0.24346 0.0
C676 C 0.69863 0.48945 0.24212 0.0
C677 C 0.70393 0.52307 0.23326 0.0
C678 C 0.68794 0.52238 0.22069 0.0
C679 C 0.67752 0.50495 0.21799 0.0
C680 C 0.76231 0.49888 0.29559 0.0
C681 C 0.77191 0.48158 0.30074 0.0
C682 C 0.76486 0.51542 0.30726 0.0
C683 C 0.77799 0.51509 0.32289 0.0
C684 C 0.78889 0.49822 0.32707 0.0
C685 C 0.78499 0.48122 0.31634 0.0
C686 C 0.68254 0.48873 0.22954 0.0
H687 H 0.82209 0.48467 0.2125 0.0
H688 H 0.79706 0.48277 0.23762 0.0
H689 H 0.76676 0.53115 0.2112 0.0
H690 H 0.79178 0.533 0.18601 0.0
H691 H 0.78496 0.50207 0.26501 0.0
H692 H 0.74105 0.5085 0.22116 0.0
H693 H 0.72426 0.5013 0.28121 0.0
H694 H 0.70315 0.47631 0.24958 0.0
H695 H 0.71263 0.53622 0.23379 0.0
H696 H 0.68476 0.53513 0.21202 0.0
H697 H 0.77057 0.46879 0.29164 0.0
H698 H 0.75797 0.52905 0.30331 0.0
H699 H 0.67463 0.47517 0.22817 0.0
H700 H 0.79316 0.468 0.31896 0.0
H701 H 0.78034 0.52836 0.33105 0.0
C702 C 0.48879 0.79468 0.19762 0.0
C703 C 0.50395 0.80834 0.19682 0.0
C704 C 0.48892 0.78015 0.21179 0.0
C705 C 0.50398 0.77942 0.22555 0.0
C706 C 0.51903 0.79321 0.22489 0.0
C707 C 0.51913 0.80748 0.21045 0.0
C708 C 0.50401 0.76424 0.2406 0.0
C709 C 0.50474 0.74467 0.23534 0.0
C710 C 0.50503 0.73005 0.24955 0.0
C711 C 0.50409 0.73518 0.26944 0.0
C712 C 0.50311 0.75503 0.27472 0.0
C713 C 0.50333 0.76936 0.26021 0.0
C714 C 0.50159 0.7619 0.29504 0.0
C715 C 0.48375 0.7696 0.30143 0.0
C716 C 0.5186 0.76627 0.30548 0.0
C717 C 0.51799 0.77929 0.32118 0.0
C718 C 0.50036 0.78834 0.32651 0.0
C719 C 0.50665 0.70979 0.24254 0.0
C720 C 0.48968 0.69919 0.23834 0.0
C721 C 0.52446 0.7036 0.23461 0.0
C722 C 0.52508 0.68804 0.22152 0.0
C723 C 0.50788 0.67837 0.21603 0.0
C724 C 0.4903 0.68352 0.22528 0.0
C725 C 0.48313 0.78266 0.31702 0.0
H726 H 0.47701 0.79514 0.18715 0.0
H727 H 0.47718 0.76961 0.21217 0.0
H728 H 0.53078 0.79277 0.2354 0.0
H729 H 0.5309 0.81797 0.21004 0.0
H730 H 0.50539 0.74078 0.22004 0.0
H731 H 0.50265 0.78462 0.26422 0.0
H732 H 0.50413 0.72399 0.28055 0.0
H733 H 0.47051 0.76677 0.29333 0.0
H734 H 0.53259 0.76094 0.30047 0.0
H735 H 0.53153 0.78343 0.32811 0.0
H736 H 0.47571 0.70405 0.24385 0.0
H737 H 0.53766 0.71182 0.23731 0.0
H738 H 0.46928 0.78914 0.32094 0.0
H739 H 0.47678 0.67645 0.2213 0.0
H740 H 0.53889 0.68425 0.21488 0.0
C741 C 0.20769 0.49162 0.20047 0.0
C742 C 0.19641 0.50854 0.19857 0.0
C743 C 0.22283 0.49092 0.21393 0.0
C744 C 0.22665 0.50699 0.22589 0.0
C745 C 0.21533 0.52389 0.22409 0.0
C746 C 0.2004 0.52474 0.21031 0.0
C747 C 0.24221 0.50579 0.24054 0.0
C748 C 0.2611 0.5009 0.23495 0.0
C749 C 0.2759 0.49839 0.2488 0.0
C750 C 0.27142 0.50068 0.26879 0.0
C751 C 0.25221 0.50567 0.27448 0.0
C752 C 0.2379 0.50842 0.26016 0.0
C753 C 0.24561 0.50672 0.29502 0.0
C754 C 0.24406 0.48964 0.30611 0.0
C755 C 0.23579 0.52349 0.3014 0.0
C756 C 0.22324 0.52276 0.31742 0.0
C757 C 0.2202 0.50521 0.32754 0.0
C758 C 0.29567 0.49363 0.24131 0.0
C759 C 0.29765 0.4784 0.22782 0.0
C760 C 0.31117 0.50673 0.24359 0.0
C761 C 0.32758 0.50561 0.23136 0.0
C762 C 0.32869 0.49149 0.21646 0.0
C763 C 0.31379 0.47742 0.21548 0.0
C764 C 0.2315 0.48889 0.32224 0.0
H765 H 0.20485 0.47903 0.19143 0.0
H766 H 0.23136 0.47771 0.21523 0.0
H767 H 0.21812 0.53642 0.23323 0.0
H768 H 0.19179 0.53789 0.20903 0.0
H769 H 0.26432 0.49919 0.21958 0.0
H770 H 0.22302 0.51173 0.26439 0.0
H771 H 0.28258 0.49842 0.2797 0.0
H772 H 0.25124 0.47643 0.30136 0.0
H773 H 0.23652 0.53678 0.29293 0.0
H774 H 0.2148 0.53562 0.32085 0.0
H775 H 0.28585 0.46813 0.22569 0.0
H776 H 0.30998 0.5187 0.25377 0.0
H777 H 0.22991 0.47523 0.32993 0.0
H778 H 0.31374 0.46639 0.20427 0.0
H779 H 0.33894 0.51639 0.23306 0.0
C780 C 0.80693 0.79557 0.48508 0.0
C781 C 0.80959 0.80761 0.50133 0.0
C782 C 0.79268 0.78111 0.48536 0.0
C783 C 0.78069 0.77882 0.50174 0.0
C784 C 0.78322 0.791 0.51791 0.0
C785 C 0.79773 0.80519 0.51778 0.0
C786 C 0.76554 0.76371 0.50198 0.0
C787 C 0.77047 0.74431 0.49874 0.0
C788 C 0.75625 0.72967 0.49923 0.0
C789 C 0.73653 0.73478 0.50256 0.0
C790 C 0.7315 0.75453 0.50558 0.0
C791 C 0.74617 0.76872 0.50549 0.0
C792 C 0.7112 0.76157 0.50797 0.0
C793 C 0.69879 0.76248 0.49178 0.0
C794 C 0.70644 0.77246 0.52461 0.0
C795 C 0.69063 0.78531 0.52448 0.0
C796 C 0.67917 0.78763 0.50766 0.0
C797 C 0.76324 0.70935 0.49714 0.0
C798 C 0.774 0.70428 0.48049 0.0
C799 C 0.76413 0.69715 0.51349 0.0
C800 C 0.77687 0.68116 0.51377 0.0
C801 C 0.78902 0.6771 0.4977 0.0
C802 C 0.78672 0.68838 0.48075 0.0
C803 C 0.6829 0.77536 0.49164 0.0
H804 H 0.81603 0.7972 0.4723 0.0
H805 H 0.79085 0.77186 0.47273 0.0
H806 H 0.77412 0.78936 0.5307 0.0
H807 H 0.79955 0.81443 0.53042 0.0
H808 H 0.78565 0.74051 0.49639 0.0
H809 H 0.74242 0.78391 0.50763 0.0
H810 H 0.72537 0.72364 0.50279 0.0
H811 H 0.70232 0.7545 0.47866 0.0
H812 H 0.71599 0.77228 0.53716 0.0
H813 H 0.68842 0.79451 0.53707 0.0
H814 H 0.77383 0.71365 0.46781 0.0
H815 H 0.75624 0.70091 0.52662 0.0
H816 H 0.67416 0.77641 0.47857 0.0
H817 H 0.79583 0.68592 0.46812 0.0
H818 H 0.77791 0.67258 0.52694 0.0
C819 C 0.80979 0.21207 0.51504 0.0
C820 C 0.80903 0.19687 0.50143 0.0
C821 C 0.79545 0.22645 0.51517 0.0
C822 C 0.78012 0.2259 0.50165 0.0
C823 C 0.77938 0.2107 0.48802 0.0
C824 C 0.79369 0.1963 0.48793 0.0
C825 C 0.76492 0.24115 0.50176 0.0
C826 C 0.77001 0.2607 0.50401 0.0
C827 C 0.75577 0.27534 0.50407 0.0
C828 C 0.73594 0.27025 0.50184 0.0
C829 C 0.73073 0.25048 0.49957 0.0
C830 C 0.74531 0.23619 0.49957 0.0
C831 C 0.71036 0.24357 0.49769 0.0
C832 C 0.69835 0.24255 0.51418 0.0
C833 C 0.70511 0.23298 0.48103 0.0
C834 C 0.68916 0.22033 0.48136 0.0
C835 C 0.67804 0.21793 0.49841 0.0
C836 C 0.76281 0.29564 0.50591 0.0
C837 C 0.77342 0.30086 0.52258 0.0
C838 C 0.76395 0.30756 0.48938 0.0
C839 C 0.77674 0.32349 0.48901 0.0
C840 C 0.7887 0.32773 0.50514 0.0
C841 C 0.78618 0.31671 0.52222 0.0
C842 C 0.6823 0.22989 0.51453 0.0
H843 H 0.82131 0.2127 0.52579 0.0
H844 H 0.79622 0.23785 0.52601 0.0
H845 H 0.76788 0.21007 0.47725 0.0
H846 H 0.79292 0.18488 0.4771 0.0
H847 H 0.78526 0.26465 0.50528 0.0
H848 H 0.74126 0.22099 0.49825 0.0
H849 H 0.7248 0.28143 0.50185 0.0
H850 H 0.70229 0.25031 0.52733 0.0
H851 H 0.71438 0.23324 0.46825 0.0
H852 H 0.68655 0.21135 0.46869 0.0
H853 H 0.77307 0.29165 0.53538 0.0
H854 H 0.75619 0.30363 0.47623 0.0
H855 H 0.67385 0.22876 0.52779 0.0
H856 H 0.79517 0.31932 0.5349 0.0
H857 H 0.77797 0.33188 0.47572 0.0
C858 C 0.21493 0.81065 0.49862 0.0
C859 C 0.20061 0.80902 0.51314 0.0
C860 C 0.22899 0.79619 0.49638 0.0
C861 C 0.22901 0.77982 0.50862 0.0
C862 C 0.21483 0.7783 0.52329 0.0
C863 C 0.20075 0.79276 0.52552 0.0
C864 C 0.24362 0.76424 0.50585 0.0
C865 C 0.26311 0.76889 0.50227 0.0
C866 C 0.27705 0.75428 0.49932 0.0
C867 C 0.27136 0.73454 0.49991 0.0
C868 C 0.25167 0.72976 0.50363 0.0
C869 C 0.23805 0.7447 0.50655 0.0
C870 C 0.24421 0.70952 0.50415 0.0
C871 C 0.24252 0.69872 0.48692 0.0
C872 C 0.23425 0.70312 0.52083 0.0
C873 C 0.22162 0.6872 0.51994 0.0
C874 C 0.21859 0.67725 0.50231 0.0
C875 C 0.29737 0.7608 0.49631 0.0
C876 C 0.30205 0.7708 0.47911 0.0
C877 C 0.30976 0.76258 0.51243 0.0
C878 C 0.32564 0.7754 0.51188 0.0
C879 C 0.32937 0.78674 0.4952 0.0
C880 C 0.31793 0.78356 0.47852 0.0
C881 C 0.22985 0.68271 0.48601 0.0
H882 H 0.21498 0.82288 0.48867 0.0
H883 H 0.23958 0.7976 0.48476 0.0
H884 H 0.21469 0.76597 0.53311 0.0
H885 H 0.19001 0.79126 0.53699 0.0
H886 H 0.2676 0.78402 0.5021 0.0
H887 H 0.22285 0.74105 0.50889 0.0
H888 H 0.28203 0.72315 0.49764 0.0
H889 H 0.24981 0.70354 0.47379 0.0
H890 H 0.23509 0.71139 0.53422 0.0
H891 H 0.21317 0.68368 0.53277 0.0
H892 H 0.2924 0.77004 0.46666 0.0
H893 H 0.30619 0.75537 0.526 0.0
H894 H 0.22821 0.67517 0.47228 0.0
H895 H 0.32022 0.79209 0.46547 0.0
H896 H 0.33435 0.77723 0.52489 0.0
C897 C 0.20817 0.20015 0.51254 0.0
C898 C 0.1969 0.19816 0.49565 0.0
C899 C 0.2232 0.21374 0.51322 0.0
C900 C 0.2269 0.22576 0.49714 0.0
C901 C 0.21557 0.22388 0.48027 0.0
C902 C 0.20077 0.20997 0.47944 0.0
C903 C 0.24236 0.24052 0.49831 0.0
C904 C 0.26129 0.23505 0.50315 0.0
C905 C 0.27599 0.24901 0.50568 0.0
C906 C 0.27138 0.26898 0.50346 0.0
C907 C 0.25212 0.27454 0.49851 0.0
C908 C 0.23791 0.26013 0.49573 0.0
C909 C 0.24538 0.29504 0.49751 0.0
C910 C 0.24373 0.30606 0.51462 0.0
C911 C 0.23554 0.30141 0.48076 0.0
C912 C 0.2229 0.31736 0.48152 0.0
C913 C 0.21978 0.32741 0.49909 0.0
C914 C 0.2958 0.24162 0.51042 0.0
C915 C 0.29786 0.22823 0.52573 0.0
C916 C 0.31122 0.24379 0.49718 0.0
C917 C 0.32762 0.23156 0.49827 0.0
C918 C 0.3288 0.21675 0.51249 0.0
C919 C 0.314 0.21589 0.52668 0.0
C920 C 0.23108 0.32211 0.5154 0.0
H921 H 0.20543 0.19107 0.52514 0.0
H922 H 0.23173 0.21511 0.5264 0.0
H923 H 0.21828 0.23306 0.46774 0.0
H924 H 0.19215 0.20862 0.46631 0.0
H925 H 0.26462 0.2197 0.50483 0.0
H926 H 0.223 0.26425 0.49247 0.0
H927 H 0.28246 0.27995 0.50573 0.0
H928 H 0.25092 0.30131 0.52782 0.0
H929 H 0.23633 0.29299 0.46745 0.0
H930 H 0.21447 0.32077 0.46866 0.0
H931 H 0.28611 0.22616 0.53608 0.0
H932 H 0.30996 0.25388 0.48513 0.0
H933 H 0.22944 0.32975 0.52907 0.0
H934 H 0.31399 0.20474 0.5378 0.0
H935 H 0.33891 0.23317 0.48739 0.0
C936 C 1.00227 0.95571 0.55036 0.0
C937 C 0.00549 0.95466 0.45528 0.0
C938 C 0.00303 0.04956 0.54928 0.0
C939 C 0.00568 0.04859 0.45434 0.0
C940 C 0.95687 0.04909 0.50092 0.0
C941 C 0.95725 0.95479 0.50107 0.0
C942 C 0.05135 0.04917 0.50216 0.0
C943 C 0.05153 0.9549 0.50534 0.0
C944 C 0.0527 1.00173 0.45617 0.0
C945 C 0.95872 1.00139 0.45324 0.0
C946 C 0.04973 0.00266 0.55124 0.0
C947 C 0.95572 0.00269 0.54824 0.0
Eu948 Eu 0.00438 0.96497 0.50272 0.0
O949 O 0.98751 0.98449 0.48486 0.0
O950 O 0.0211 0.98495 0.52011 0.0
Eu951 Eu 0.9671 1.00194 0.50105 0.0
Eu952 Eu 0.04141 1.00202 0.50337 0.0
O953 O 0.98631 0.98483 0.51901 0.0
O954 O 0.02233 0.98441 0.48576 0.0
Eu955 Eu 1.00302 0.00253 0.5386 0.0
Eu956 Eu 0.00541 1.00172 0.4659 0.0
O957 O 0.98619 0.01962 0.51859 0.0
O958 O 0.98731 0.0193 0.4844 0.0
O959 O 0.02208 0.01924 0.48564 0.0
O960 O 0.02112 0.01966 0.51969 0.0
Eu961 Eu 0.00415 0.03916 0.50191 0.0
O962 O 0.00348 0.94911 0.53206 0.0
O963 O 0.00531 0.94845 0.47376 0.0
O964 O 0.00387 0.05573 0.53082 0.0
O965 O 0.00468 0.05512 0.47267 0.0
O966 O 0.95094 0.03059 0.50073 0.0
O967 O 0.95117 0.9732 0.49997 0.0
O968 O 0.05746 0.03073 0.5022 0.0
O969 O 0.05751 0.97338 0.50509 0.0
O970 O 0.03428 0.00255 0.45011 0.0
O971 O 0.97755 1.00119 0.44841 0.0
O972 O 0.03089 0.00235 0.556 0.0
O973 O 0.97413 0.00381 0.55429 0.0
O974 O 0.03287 0.05519 0.50239 0.0
O975 O 0.97536 0.05511 0.50137 0.0
O976 O 0.03305 0.94892 0.50445 0.0
O977 O 0.9757 0.94883 0.50249 0.0
O978 O 0.00567 0.97323 0.44968 0.0
O979 O 0.00609 0.02993 0.44909 0.0
O980 O 1.00175 0.97441 0.55546 0.0
O981 O 1.00257 0.031 0.55488 0.0
O982 O 0.94995 1.00125 0.52968 0.0
O983 O 0.95179 1.00197 0.47146 0.0
O984 O 0.05669 0.00292 0.53301 0.0
O985 O 0.05851 1.00076 0.47474 0.0
C986 C 0.50402 0.95548 0.04919 0.0
C987 C 0.50392 0.04976 0.04893 0.0
C988 C 0.50494 0.95526 0.95486 0.0
C989 C 0.50589 0.04968 0.95461 0.0
C990 C 0.55281 1.00109 0.95558 0.0
C991 C 0.55145 0.00394 0.04946 0.0
C992 C 0.4575 0.00373 0.95444 0.0
C993 C 0.4561 1.00175 0.0482 0.0
C994 C 0.45702 0.04957 0.00251 0.0
C995 C 0.55234 0.04936 1.00092 0.0
C996 C 0.45689 0.95569 1.00046 0.0
C997 C 0.55213 0.95557 0.00351 0.0
Eu998 Eu 0.50391 0.0026 0.03907 0.0
O999 O 0.52139 0.01994 0.01952 0.0
O1000 O 0.48714 0.98512 0.01915 0.0
Eu1001 Eu 0.54088 0.00249 0.00238 0.0
Eu1002 Eu 0.46823 0.00262 1.00146 0.0
O1003 O 0.52135 0.98516 0.01962 0.0
O1004 O 0.48726 0.02005 0.01903 0.0
Eu1005 Eu 0.50453 0.9654 1.00203 0.0
Eu1006 Eu 0.50467 0.03971 1.00183 0.0
O1007 O 0.52183 0.98509 0.98475 0.0
O1008 O 0.52188 0.01986 0.98468 0.0
O1009 O 0.48773 0.02002 0.98421 0.0
O1010 O 0.48772 0.98515 0.98434 0.0
Eu1011 Eu 0.50504 0.00249 0.96475 0.0
O1012 O 0.50333 0.97393 0.05518 0.0
O1013 O 0.50297 0.03134 0.055 0.0
O1014 O 0.50501 0.97373 0.94882 0.0
O1015 O 0.50589 0.03119 0.94866 0.0
O1016 O 0.55792 1.00083 0.9743 0.0
O1017 O 0.55705 0.00417 0.03089 0.0
O1018 O 0.45195 0.00401 0.97302 0.0
O1019 O 0.4511 1.0015 0.02947 0.0
O1020 O 0.47547 0.05596 1.00182 0.0
O1021 O 0.53393 0.05582 1.00177 0.0
O1022 O 0.47529 0.94926 1.00175 0.0
O1023 O 0.53373 0.94919 0.00227 0.0
O1024 O 0.476 0.00281 0.94822 0.0
O1025 O 0.53447 1.00209 0.94896 0.0
O1026 O 0.47444 0.00246 0.05487 0.0
O1027 O 0.53293 0.00294 0.05564 0.0
O1028 O 0.50505 0.05577 0.0305 0.0
O1029 O 0.50529 0.05566 0.97308 0.0
O1030 O 0.50479 0.9494 0.03077 0.0
O1031 O 0.5048 0.94932 0.97335 0.0
O1032 O 0.55747 0.97421 0.00407 0.0
O1033 O 0.55764 0.0307 1.00078 0.0
O1034 O 0.45158 0.97435 0.99989 0.0
O1035 O 0.45165 0.03093 0.00266 0.0
C1036 C 1.00225 0.45538 0.05003 0.0
C1037 C 0.00353 0.45404 0.95623 0.0
C1038 C 0.0033 0.55044 0.04862 0.0
C1039 C 0.00553 0.54911 0.9548 0.0
C1040 C 0.95742 0.5505 1.00059 0.0
C1041 C 0.95597 0.45553 0.00295 0.0
C1042 C 0.05137 0.54923 0.00271 0.0
C1043 C 0.04995 0.45395 0.00348 0.0
C1044 C 0.0515 0.50096 0.95585 0.0
C1045 C 0.95707 0.50232 0.95464 0.0
C1046 C 0.05039 0.50277 0.0501 0.0
C1047 C 0.95593 0.50387 0.04899 0.0
Eu1048 Eu 0.00309 0.46601 0.00301 0.0
O1049 O 0.98621 0.4852 0.985 0.0
O1050 O 0.02079 0.48511 0.02034 0.0
Eu1051 Eu 0.96655 0.50284 1.00192 0.0
Eu1052 Eu 0.04096 0.50172 0.00286 0.0
O1053 O 0.98577 0.48576 0.0199 0.0
O1054 O 0.02104 0.48477 0.98554 0.0
Eu1055 Eu 0.00333 0.50274 0.03954 0.0
Eu1056 Eu 0.00417 0.50175 0.96529 0.0
O1057 O 0.98642 0.51977 0.01932 0.0
O1058 O 0.98673 0.5194 0.98449 0.0
O1059 O 0.02164 0.51882 0.98497 0.0
O1060 O 0.02117 0.5193 0.01974 0.0
Eu1061 Eu 0.00425 0.53855 1.00185 0.0
O1062 O 1.00231 0.44976 0.03148 0.0
O1063 O 1.00273 0.44902 0.97495 0.0
O1064 O 0.00325 0.55551 0.0299 0.0
O1065 O 0.00592 0.55475 0.97335 0.0
O1066 O 0.95075 0.5322 1.00146 0.0
O1067 O 0.94987 0.47398 1.00159 0.0
O1068 O 0.0576 0.53073 0.0023 0.0
O1069 O 0.05668 0.47226 0.00371 0.0
O1070 O 0.03311 0.5018 0.9496 0.0
O1071 O 0.97565 0.50182 0.94888 0.0
O1072 O 0.03184 0.50239 0.05592 0.0
O1073 O 0.97436 0.50357 0.05518 0.0
O1074 O 0.03275 0.55473 0.00283 0.0
O1075 O 0.97617 0.55558 1.00037 0.0
O1076 O 0.03117 0.44897 0.00318 0.0
O1077 O 0.97449 0.44978 0.00397 0.0
O1078 O 0.00439 0.47235 0.94957 0.0
O1079 O 0.00444 0.53065 0.94868 0.0
O1080 O 1.00282 0.47385 0.0562 0.0
O1081 O 0.00366 0.53212 0.0553 0.0
O1082 O 0.95015 0.50359 0.03044 0.0
O1083 O 0.95086 0.50281 0.97305 0.0
O1084 O 0.05669 0.50283 0.03173 0.0
O1085 O 0.05734 0.50045 0.97436 0.0
C1086 C 0.50314 0.45511 0.04977 0.0
C1087 C 0.5032 0.54896 0.04999 0.0
C1088 C 0.50416 0.45539 0.95463 0.0
C1089 C 0.50526 0.54928 0.95496 0.0
C1090 C 0.55162 0.50251 0.95539 0.0
C1091 C 0.55006 0.50117 0.05051 0.0
C1092 C 0.45768 0.50279 0.95387 0.0
C1093 C 0.456 0.50235 0.04896 0.0
C1094 C 0.45693 0.54965 0.00244 0.0
C1095 C 0.55143 0.54884 0.00304 0.0
C1096 C 0.45619 0.45539 1.00136 0.0
C1097 C 0.55056 0.45447 0.00339 0.0
Eu1098 Eu 0.50319 0.50207 0.03861 0.0
O1099 O 0.52119 0.51938 0.01974 0.0
O1100 O 0.48588 0.4848 0.0191 0.0
Eu1101 Eu 0.54101 0.50179 0.00282 0.0
Eu1102 Eu 0.46664 0.50239 1.00161 0.0
O1103 O 0.52071 0.48463 0.01948 0.0
O1104 O 0.48624 0.51958 0.01906 0.0
Eu1105 Eu 0.50344 0.46502 0.00223 0.0
Eu1106 Eu 0.50413 0.53928 0.00248 0.0
O1107 O 0.52142 0.48455 0.98539 0.0
O1108 O 0.52164 0.51945 0.98562 0.0
O1109 O 0.48683 0.51979 0.98497 0.0
O1110 O 0.48657 0.48493 0.98484 0.0
Eu1111 Eu 0.50448 0.5023 0.96601 0.0
O1112 O 0.50308 0.47373 0.0552 0.0
O1113 O 0.5029 0.53031 0.05533 0.0
O1114 O 0.50483 0.47405 0.94938 0.0
O1115 O 0.50536 0.53067 0.94952 0.0
O1116 O 0.55775 0.50172 0.97389 0.0
O1117 O 0.55675 0.50166 0.0322 0.0
O1118 O 0.45093 0.50301 0.97218 0.0
O1119 O 0.44993 0.50149 0.03047 0.0
O1120 O 0.47548 0.55549 0.00257 0.0
O1121 O 0.533 0.55505 0.00334 0.0
O1122 O 0.47459 0.4492 0.00245 0.0
O1123 O 0.53199 0.44871 0.00291 0.0
O1124 O 0.47646 0.50248 0.9489 0.0
O1125 O 0.53303 0.5028 0.9498 0.0
O1126 O 0.47452 0.503 0.05477 0.0
O1127 O 0.53131 0.50127 0.05562 0.0
O1128 O 0.50392 0.5554 0.03162 0.0
O1129 O 0.50455 0.55562 0.97339 0.0
O1130 O 0.50303 0.44876 0.03134 0.0
O1131 O 0.50338 0.44892 0.97301 0.0
O1132 O 0.55677 0.47288 0.00336 0.0
O1133 O 0.55733 0.53035 0.00256 0.0
O1134 O 0.45032 0.47387 1.00045 0.0
O1135 O 0.4508 0.53121 1.00209 0.0
C1136 C 0.0033 0.45498 0.54926 0.0
C1137 C 0.00465 0.45456 0.45493 0.0
C1138 C 0.00452 0.54938 0.54874 0.0
C1139 C 0.00344 0.54886 0.45442 0.0
C1140 C 0.95642 0.54878 0.50269 0.0
C1141 C 0.95665 0.45499 0.50069 0.0
C1142 C 0.05168 0.54892 0.49992 0.0
C1143 C 0.05193 0.45507 0.50347 0.0
C1144 C 0.05222 0.50063 0.4551 0.0
C1145 C 0.95684 0.50227 0.4547 0.0
C1146 C 0.05164 0.50331 0.54889 0.0
C1147 C 0.95636 0.50108 0.54855 0.0
Eu1148 Eu 0.00427 0.46481 0.50202 0.0
O1149 O 0.98733 0.4845 0.48441 0.0
O1150 O 0.02127 0.48463 0.51942 0.0
Eu1151 Eu 0.96792 0.50189 0.50168 0.0
Eu1152 Eu 0.04057 0.50198 0.50193 0.0
O1153 O 0.9871 0.48461 0.51926 0.0
O1154 O 0.02145 0.48444 0.48454 0.0
Eu1155 Eu 0.00404 0.50213 0.53896 0.0
Eu1156 Eu 0.00451 0.50176 0.46461 0.0
O1157 O 0.98699 0.51947 0.51912 0.0
O1158 O 0.98724 0.5192 0.48421 0.0
O1159 O 0.02138 0.51934 0.48435 0.0
O1160 O 0.02114 0.51945 0.51913 0.0
Eu1161 Eu 0.00408 0.5391 0.5016 0.0
O1162 O 0.00355 0.4489 0.53081 0.0
O1163 O 0.00399 0.44862 0.47341 0.0
O1164 O 0.00461 0.55526 0.53022 0.0
O1165 O 1.00276 0.55497 0.47283 0.0
O1166 O 0.95113 0.53011 0.50278 0.0
O1167 O 0.9513 0.47363 0.50035 0.0
O1168 O 0.05711 0.5303 0.50006 0.0
O1169 O 0.05725 0.47372 0.50376 0.0
O1170 O 0.03384 0.50174 0.44859 0.0
O1171 O 0.9753 0.50152 0.44832 0.0
O1172 O 0.03319 0.50221 0.55523 0.0
O1173 O 0.97474 0.50217 0.55503 0.0
O1174 O 0.03325 0.55531 0.50076 0.0
O1175 O 0.97484 0.55523 0.50202 0.0
O1176 O 0.03352 0.44865 0.5024 0.0
O1177 O 0.97507 0.44859 0.50172 0.0
O1178 O 0.0052 0.47297 0.44877 0.0
O1179 O 0.00461 0.53042 0.44845 0.0
O1180 O 0.00358 0.47349 0.55513 0.0
O1181 O 0.00417 0.53093 0.55482 0.0
O1182 O 0.95113 0.50056 0.52988 0.0
O1183 O 0.9515 0.50277 0.47334 0.0
O1184 O 0.05705 0.50373 0.53026 0.0
O1185 O 0.05743 0.50021 0.47378 0.0
C1186 C 0.50308 0.95476 0.54902 0.0
C1187 C 0.5052 0.95487 0.45523 0.0
C1188 C 0.50314 0.04984 0.54904 0.0
C1189 C 0.50358 0.04992 0.45512 0.0
C1190 C 0.45624 0.04933 0.50187 0.0
C1191 C 0.45736 0.95424 0.50109 0.0
C1192 C 0.55029 0.05045 0.50289 0.0
C1193 C 0.55131 0.95525 0.50234 0.0
C1194 C 0.55154 0.00257 0.45539 0.0
C1195 C 0.45708 0.00284 0.4546 0.0
C1196 C 0.55048 0.00329 0.54972 0.0
C1197 C 0.45612 1.00159 0.54884 0.0
Eu1198 Eu 0.50421 0.96611 0.50213 0.0
O1199 O 0.48668 0.98509 0.48452 0.0
O1200 O 0.52134 0.98542 0.51978 0.0
Eu1201 Eu 0.4666 1.00192 0.50183 0.0
Eu1202 Eu 0.541 0.00278 0.50248 0.0
O1203 O 0.48637 0.98508 0.5194 0.0
O1204 O 0.52158 0.98556 0.48492 0.0
Eu1205 Eu 0.5034 0.00231 0.53924 0.0
Eu1206 Eu 0.50418 0.00237 0.46501 0.0
O1207 O 0.486 0.01928 0.51937 0.0
O1208 O 0.4864 0.01918 0.48463 0.0
O1209 O 0.52126 0.01972 0.48484 0.0
O1210 O 0.52075 0.01956 0.5196 0.0
Eu1211 Eu 0.50337 0.03873 0.50207 0.0
O1212 O 0.50334 0.9494 0.53039 0.0
O1213 O 0.50535 0.94949 0.47386 0.0
O1214 O 0.50315 0.05527 0.53042 0.0
O1215 O 0.50326 0.05531 0.47375 0.0
O1216 O 0.45006 0.03087 0.50288 0.0
O1217 O 0.45071 0.97258 0.50088 0.0
O1218 O 0.55689 0.0321 0.50246 0.0
O1219 O 0.55756 0.97373 0.50277 0.0
O1220 O 0.53309 0.00236 0.44926 0.0
O1221 O 0.47561 1.00211 0.44875 0.0
O1222 O 0.53195 0.00238 0.55556 0.0
O1223 O 0.47452 0.00259 0.55503 0.0
O1224 O 0.53156 0.05562 0.50281 0.0
O1225 O 0.47478 0.05503 0.50107 0.0
O1226 O 0.53268 0.94976 0.5022 0.0
O1227 O 0.4761 0.94917 0.50153 0.0
O1228 O 0.50444 0.97326 0.44882 0.0
O1229 O 0.5042 0.03151 0.44875 0.0
O1230 O 0.50333 0.97316 0.55544 0.0
O1231 O 0.50304 0.03142 0.55543 0.0
O1232 O 0.45026 1.00075 0.53036 0.0
O1233 O 0.45082 0.00321 0.47299 0.0
O1234 O 0.55674 0.00382 0.53134 0.0
O1235 O 0.55736 0.0028 0.47392 0.0
C1236 C 0.18112 0.16901 0.48105 0.0
C1237 C 0.1811 0.18376 0.49511 0.0
C1238 C 0.16684 0.15457 0.48143 0.0
C1239 C 0.13045 0.13245 0.51474 0.0
H1240 H 0.11091 0.10928 0.46715 0.0
C1241 C 0.063 0.08245 0.51044 0.0
C1242 C 0.06639 0.06436 0.50158 0.0
C1243 C 0.07715 0.09698 0.50966 0.0
C1244 C 0.11636 0.11562 0.48051 0.0
H1245 H 0.16602 0.19571 0.52004 0.0
H1246 H 0.14047 0.17108 0.52024 0.0
H1247 H 0.13477 0.13556 0.46532 0.0
H1248 H 0.08695 0.04724 0.48479 0.0
H1249 H 0.11156 0.07298 0.48303 0.0
H1250 H 0.11141 0.11285 0.5298 0.0
C1251 C 0.15185 0.1701 0.50936 0.0
C1252 C 0.13007 0.13057 0.47951 0.0
C1253 C 0.16634 0.18429 0.50918 0.0
C1254 C 0.08408 0.06104 0.49185 0.0
C1255 C 0.09806 0.07573 0.49072 0.0
C1256 C 0.11649 0.11776 0.51569 0.0
C1257 C 0.1521 0.15487 0.49569 0.0
C1258 C 0.13732 0.13914 0.49663 0.0
C1259 C 0.09468 0.09375 0.49967 0.0
C1260 C 0.10942 0.10922 0.4986 0.0
H1261 H 0.19253 0.16833 0.47017 0.0
H1262 H 0.16768 0.14293 0.47086 0.0
H1263 H 0.13602 0.13836 0.52823 0.0
H1264 H 0.0495 0.08531 0.51811 0.0
H1265 H 0.0743 0.11084 0.5166 0.0
C1266 C 0.84395 0.18665 0.50319 0.0
C1267 C 0.82421 0.18162 0.5013 0.0
C1268 C 0.85828 0.17226 0.50299 0.0
C1269 C 0.86571 0.12011 0.51145 0.0
H1270 H 0.91279 0.12788 0.48115 0.0
C1271 C 0.92184 0.05914 0.4991 0.0
C1272 C 0.94161 0.06426 0.50068 0.0
C1273 C 0.90745 0.07346 0.499 0.0
C1274 C 0.89981 0.1256 0.48984 0.0
H1275 H 0.80391 0.15768 0.49797 0.0
H1276 H 0.829 0.13253 0.49739 0.0
H1277 H 0.8877 0.15302 0.48141 0.0
H1278 H 0.96172 0.08854 0.50342 0.0
H1279 H 0.93656 0.11344 0.50343 0.0
H1280 H 0.87784 0.09274 0.51994 0.0
C1281 C 0.83336 0.14757 0.49913 0.0
C1282 C 0.88547 0.13997 0.48998 0.0
C1283 C 0.81904 0.16196 0.49927 0.0
C1284 C 0.94665 0.08404 0.50211 0.0
C1285 C 0.93225 0.09834 0.50202 0.0
C1286 C 0.88007 0.10576 0.51133 0.0
C1287 C 0.85311 0.1526 0.50097 0.0
C1288 C 0.86829 0.13736 0.50079 0.0
C1289 C 0.91252 0.09319 0.50049 0.0
C1290 C 0.89725 0.10837 0.50053 0.0
H1291 H 0.84834 0.20172 0.5046 0.0
H1292 H 0.87339 0.17652 0.50461 0.0
H1293 H 0.85272 0.11785 0.52013 0.0
H1294 H 0.9174 0.04407 0.49788 0.0
H1295 H 0.89235 0.06909 0.49755 0.0
C1296 C 0.83896 0.8231 0.51579 0.0
C1297 C 0.82478 0.82268 0.50115 0.0
C1298 C 0.85345 0.83731 0.51557 0.0
C1299 C 0.87677 0.87379 0.48315 0.0
H1300 H 0.89567 0.89467 0.53205 0.0
C1301 C 0.92469 0.94264 0.49064 0.0
C1302 C 0.94218 0.93964 0.50081 0.0
C1303 C 0.9104 0.92823 0.49039 0.0
C1304 C 0.89052 0.88886 0.51833 0.0
H1305 H 0.81414 0.83669 0.47504 0.0
H1306 H 0.83892 0.86213 0.47503 0.0
H1307 H 0.87011 0.87002 0.53226 0.0
H1308 H 0.95842 0.91949 0.5189 0.0
H1309 H 0.93308 0.89444 0.51886 0.0
H1310 H 0.89682 0.89332 0.46933 0.0
C1311 C 0.83937 0.85117 0.48633 0.0
C1312 C 0.87601 0.87468 0.51841 0.0
C1313 C 0.82511 0.83672 0.48637 0.0
C1314 C 0.9451 0.92208 0.51085 0.0
C1315 C 0.93064 0.90784 0.51093 0.0
C1316 C 0.89103 0.88824 0.48309 0.0
C1317 C 0.85377 0.8516 0.5009 0.0
C1318 C 0.86903 0.86688 0.50081 0.0
C1319 C 0.91325 0.91081 0.50064 0.0
C1320 C 0.89805 0.89576 0.50068 0.0
H1321 H 0.839 0.81223 0.52722 0.0
H1322 H 0.86451 0.83693 0.52679 0.0
H1323 H 0.87204 0.86787 0.46934 0.0
H1324 H 0.92216 0.95603 0.48271 0.0
H1325 H 0.89702 0.93076 0.48243 0.0
C1326 C 0.16567 0.8184 0.51736 0.0
C1327 C 0.18521 0.82395 0.51489 0.0
C1328 C 0.15098 0.83242 0.51783 0.0
C1329 C 0.1419 0.88468 0.52521 0.0
H1330 H 0.09613 0.87509 0.49355 0.0
C1331 C 0.08655 0.94471 0.50641 0.0
C1332 C 0.06668 0.93973 0.50702 0.0
C1333 C 0.10083 0.9304 0.50826 0.0
C1334 C 0.1087 0.87787 0.50266 0.0
H1335 H 0.20483 0.84847 0.51165 0.0
H1336 H 0.17911 0.87298 0.5122 0.0
H1337 H 0.12142 0.85032 0.49582 0.0
H1338 H 0.0463 0.91572 0.51019 0.0
H1339 H 0.07126 0.89085 0.51355 0.0
H1340 H 0.12921 0.91231 0.53194 0.0
C1341 C 0.17517 0.85781 0.51388 0.0
C1342 C 0.12316 0.86369 0.50397 0.0
C1343 C 0.18985 0.8438 0.51337 0.0
C1344 C 0.06145 0.9201 0.50952 0.0
C1345 C 0.07574 0.90581 0.51139 0.0
C1346 C 0.12741 0.89886 0.52392 0.0
C1347 C 0.15558 0.85224 0.51588 0.0
C1348 C 0.13994 0.867 0.51518 0.0
C1349 C 0.09557 0.91082 0.51078 0.0
C1350 C 0.11072 0.89563 0.51255 0.0
H1351 H 0.16166 0.8032 0.51841 0.0
H1352 H 0.13601 0.82774 0.51959 0.0
H1353 H 0.15458 0.8875 0.53415 0.0
H1354 H 0.09114 0.95966 0.50443 0.0
H1355 H 0.11601 0.93464 0.50746 0.0
C1356 C 0.51782 0.1811 0.1674 0.0
C1357 C 0.50241 0.18237 0.18087 0.0
C1358 C 0.51768 0.1669 0.15293 0.0
C1359 C 0.50174 0.11865 0.14214 0.0
H1360 H 0.50329 0.13356 0.08774 0.0
C1361 C 0.49307 0.06207 0.08122 0.0
C1362 C 0.50366 0.06489 0.06399 0.0
C1363 C 0.49261 0.07655 0.09541 0.0
C1364 C 0.5032 0.1291 0.10285 0.0
H1365 H 0.47465 0.16973 0.18943 0.0
H1366 H 0.47501 0.14435 0.16464 0.0
H1367 H 0.50357 0.15864 0.11283 0.0
H1368 H 0.52242 0.08469 0.04813 0.0
H1369 H 0.52243 0.10961 0.07326 0.0
H1370 H 0.5022 0.08917 0.13245 0.0
C1371 C 0.48704 0.15453 0.16535 0.0
C1372 C 0.50322 0.14348 0.11715 0.0
C1373 C 0.48696 0.16897 0.17959 0.0
C1374 C 0.51397 0.08229 0.06123 0.0
C1375 C 0.51386 0.0966 0.0756 0.0
C1376 C 0.50213 0.10425 0.12787 0.0
C1377 C 0.50236 0.15348 0.15191 0.0
C1378 C 0.5024 0.13832 0.13685 0.0
C1379 C 0.50308 0.09396 0.09283 0.0
C1380 C 0.50279 0.10929 0.10803 0.0
H1381 H 0.53016 0.19088 0.16816 0.0
H1382 H 0.52971 0.16616 0.14273 0.0
H1383 H 0.50128 0.11445 0.15733 0.0
H1384 H 0.48483 0.04883 0.08356 0.0
H1385 H 0.48382 0.07415 0.10827 0.0
C1386 C 0.81835 0.51193 0.16233 0.0
C1387 C 0.82383 0.50984 0.1819 0.0
C1388 C 0.83244 0.51213 0.14771 0.0
C1389 C 0.88465 0.52033 0.13904 0.0
H1390 H 0.87595 0.489 0.09293 0.0
C1391 C 0.94542 0.50386 0.08386 0.0
C1392 C 0.94055 0.5048 0.06402 0.0
C1393 C 0.93095 0.505 0.09806 0.0
C1394 C 0.87847 0.498 0.10561 0.0
H1395 H 0.8483 0.50675 0.20161 0.0
H1396 H 0.87294 0.50683 0.17602 0.0
H1397 H 0.85097 0.4904 0.11814 0.0
H1398 H 0.91657 0.50775 0.04358 0.0
H1399 H 0.8914 0.50986 0.06841 0.0
H1400 H 0.91218 0.52787 0.12656 0.0
C1401 C 0.85777 0.50844 0.17201 0.0
C1402 C 0.86418 0.49881 0.12002 0.0
C1403 C 0.84367 0.50819 0.18662 0.0
C1404 C 0.92087 0.50687 0.05871 0.0
C1405 C 0.90641 0.50801 0.07293 0.0
C1406 C 0.89892 0.51954 0.12462 0.0
C1407 C 0.85227 0.51029 0.15241 0.0
C1408 C 0.86718 0.50991 0.13691 0.0
C1409 C 0.91132 0.50712 0.09273 0.0
C1410 C 0.89601 0.50829 0.10782 0.0
H1411 H 0.80313 0.51305 0.15829 0.0
H1412 H 0.82783 0.51375 0.13273 0.0
H1413 H 0.88721 0.52922 0.1518 0.0
H1414 H 0.9604 0.50219 0.08852 0.0
H1415 H 0.93512 0.50399 0.11322 0.0
C1416 C 0.5195 0.82479 0.16855 0.0
C1417 C 0.50395 0.82348 0.18174 0.0
C1418 C 0.51938 0.839 0.15406 0.0
C1419 C 0.50332 0.88708 0.14292 0.0
H1420 H 0.50405 0.87184 0.08861 0.0
C1421 C 0.49374 0.94336 0.08176 0.0
C1422 C 0.50395 0.9404 0.06433 0.0
C1423 C 0.49352 0.92897 0.09606 0.0
C1424 C 0.5042 0.87641 0.10368 0.0
H1425 H 0.47632 0.83585 0.19059 0.0
H1426 H 0.47642 0.86129 0.16549 0.0
H1427 H 0.50469 0.84692 0.11387 0.0
H1428 H 0.5223 0.92043 0.04822 0.0
H1429 H 0.52276 0.89566 0.07353 0.0
H1430 H 0.50366 0.91651 0.13302 0.0
C1431 C 0.48849 0.85114 0.16624 0.0
C1432 C 0.50442 0.86211 0.11808 0.0
C1433 C 0.4884 0.83666 0.18046 0.0
C1434 C 0.51413 0.92294 0.06148 0.0
C1435 C 0.51427 0.90871 0.07595 0.0
C1436 C 0.50352 0.90141 0.12854 0.0
C1437 C 0.50392 0.8523 0.1529 0.0
C1438 C 0.50388 0.86738 0.13775 0.0
C1439 C 0.50388 0.9115 0.09339 0.0
C1440 C 0.50386 0.89626 0.10872 0.0
H1441 H 0.53159 0.81467 0.16933 0.0
H1442 H 0.53143 0.83976 0.14389 0.0
H1443 H 0.50306 0.89138 0.15808 0.0
H1444 H 0.48561 0.95666 0.08418 0.0
H1445 H 0.48501 0.93149 0.10909 0.0
C1446 C 0.18036 0.52322 0.1696 0.0
C1447 C 0.18048 0.50912 0.18431 0.0
C1448 C 0.16591 0.52293 0.15534 0.0
C1449 C 0.12916 0.48986 0.13358 0.0
H1450 H 0.10968 0.53762 0.11063 0.0
C1451 C 0.06174 0.49455 0.08352 0.0
C1452 C 0.06527 0.50339 0.06543 0.0
C1453 C 0.07579 0.49529 0.09814 0.0
C1454 C 0.1151 0.52421 0.11692 0.0
H1455 H 0.1655 0.48418 0.19638 0.0
H1456 H 0.13966 0.48414 0.17207 0.0
H1457 H 0.1337 0.53924 0.13676 0.0
H1458 H 0.08598 0.52014 0.04844 0.0
H1459 H 0.11041 0.52183 0.07432 0.0
H1460 H 0.10995 0.47496 0.11406 0.0
C1461 C 0.15105 0.49499 0.17097 0.0
C1462 C 0.1289 0.52509 0.13178 0.0
C1463 C 0.1657 0.49507 0.18498 0.0
C1464 C 0.08299 0.51309 0.06223 0.0
C1465 C 0.09687 0.51418 0.077 0.0
C1466 C 0.1151 0.48902 0.11898 0.0
C1467 C 0.15114 0.50872 0.15578 0.0
C1468 C 0.13616 0.50791 0.14024 0.0
C1469 C 0.09337 0.50523 0.095 0.0
C1470 C 0.10807 0.50618 0.11051 0.0
H1471 H 0.19178 0.53408 0.16881 0.0
H1472 H 0.16664 0.53354 0.14371 0.0
H1473 H 0.13471 0.47631 0.1394 0.0
H1474 H 0.04822 0.4869 0.08629 0.0
H1475 H 0.07284 0.48834 0.11198 0.0
C1476 C 0.50614 0.84224 0.81752 0.0
C1477 C 0.5049 0.8225 0.82268 0.0
C1478 C 0.50618 0.8566 0.83185 0.0
C1479 C 0.51631 0.86443 0.88365 0.0
H1480 H 0.48469 0.9107 0.87673 0.0
C1481 C 0.5042 0.92023 0.94487 0.0
C1482 C 0.505 0.94002 0.9397 0.0
C1483 C 0.50423 0.90586 0.93057 0.0
C1484 C 0.49375 0.89796 0.87876 0.0
H1485 H 0.50248 0.8023 0.84682 0.0
H1486 H 0.50262 0.82742 0.87187 0.0
H1487 H 0.4847 0.88558 0.8517 0.0
H1488 H 0.50656 0.96015 0.91535 0.0
H1489 H 0.5068 0.93503 0.89048 0.0
H1490 H 0.52541 0.87682 0.91069 0.0
C1491 C 0.50381 0.83174 0.85676 0.0
C1492 C 0.49375 0.88359 0.86445 0.0
C1493 C 0.50374 0.81739 0.84244 0.0
C1494 C 0.50585 0.94508 0.91989 0.0
C1495 C 0.50589 0.93069 0.90561 0.0
C1496 C 0.51634 0.87881 0.89795 0.0
C1497 C 0.50502 0.85148 0.85159 0.0
C1498 C 0.50503 0.8667 0.86676 0.0
C1499 C 0.50506 0.91095 0.9108 0.0
C1500 C 0.50505 0.89571 0.89564 0.0
H1501 H 0.50735 0.84659 0.80242 0.0
H1502 H 0.50741 0.87169 0.82748 0.0
H1503 H 0.52535 0.85166 0.88567 0.0
H1504 H 0.50347 0.91577 0.95997 0.0
H1505 H 0.50333 0.89076 0.93499 0.0
C1506 C 0.16983 0.51432 0.82407 0.0
C1507 C 0.18409 0.49974 0.8237 0.0
C1508 C 0.15547 0.51423 0.83843 0.0
C1509 C 0.13265 0.48224 0.87563 0.0
H1510 H 0.11349 0.5314 0.89572 0.0
C1511 C 0.0844 0.49082 0.94429 0.0
C1512 C 0.06679 0.50065 0.94089 0.0
C1513 C 0.09884 0.49042 0.93 0.0
C1514 C 0.11872 0.51761 0.89015 0.0
H1515 H 0.19498 0.47385 0.83792 0.0
H1516 H 0.17043 0.47407 0.86362 0.0
H1517 H 0.13899 0.53133 0.871 0.0
H1518 H 0.05047 0.51801 0.92017 0.0
H1519 H 0.07606 0.51774 0.89535 0.0
H1520 H 0.11272 0.46866 0.89546 0.0
C1521 C 0.16982 0.48522 0.85252 0.0
C1522 C 0.1332 0.51752 0.87592 0.0
C1523 C 0.18395 0.48513 0.83792 0.0
C1524 C 0.0639 0.51023 0.92308 0.0
C1525 C 0.0785 0.51017 0.90897 0.0
C1526 C 0.11843 0.48236 0.89014 0.0
C1527 C 0.15536 0.49975 0.85292 0.0
C1528 C 0.14024 0.49983 0.86836 0.0
C1529 C 0.096 0.5002 0.91232 0.0
C1530 C 0.1113 0.50005 0.89736 0.0
H1531 H 0.16963 0.52561 0.81307 0.0
H1532 H 0.14434 0.52539 0.838 0.0
H1533 H 0.13743 0.46836 0.86992 0.0
H1534 H 0.08691 0.48323 0.95788 0.0
H1535 H 0.11231 0.48269 0.93283 0.0
C1536 C 0.51619 0.16317 0.81781 0.0
C1537 C 0.51623 0.1829 0.82317 0.0
C1538 C 0.51612 0.14867 0.83203 0.0
C1539 C 0.50202 0.14072 0.88279 0.0
H1540 H 0.53315 0.09385 0.87827 0.0
C1541 C 0.50766 0.08466 0.94462 0.0
C1542 C 0.50698 0.06488 0.93943 0.0
C1543 C 0.50913 0.099 0.93034 0.0
C1544 C 0.52422 0.10677 0.8796 0.0
H1545 H 0.51714 0.20293 0.84753 0.0
H1546 H 0.51702 0.17758 0.87236 0.0
H1547 H 0.53582 0.11914 0.85345 0.0
H1548 H 0.50718 0.04473 0.91506 0.0
H1549 H 0.50951 0.06984 0.89021 0.0
H1550 H 0.49032 0.12836 0.90884 0.0
C1551 C 0.51669 0.17335 0.85719 0.0
C1552 C 0.52578 0.12124 0.86543 0.0
C1553 C 0.51677 0.18784 0.84299 0.0
C1554 C 0.50771 0.05981 0.91962 0.0
C1555 C 0.50917 0.07417 0.90536 0.0
C1556 C 0.50045 0.12627 0.89693 0.0
C1557 C 0.51608 0.15365 0.85185 0.0
C1558 C 0.51471 0.13836 0.86692 0.0
C1559 C 0.50993 0.0939 0.91058 0.0
C1560 C 0.51155 0.10916 0.89549 0.0
H1561 H 0.51554 0.15895 0.80265 0.0
H1562 H 0.51545 0.13359 0.8275 0.0
H1563 H 0.49304 0.15362 0.88412 0.0
H1564 H 0.50722 0.08915 0.95971 0.0
H1565 H 0.50993 0.11409 0.93482 0.0
C1566 C 0.84487 0.50378 0.81644 0.0
C1567 C 0.82517 0.50163 0.82157 0.0
C1568 C 0.85925 0.50392 0.83077 0.0
C1569 C 0.86662 0.51288 0.88283 0.0
H1570 H 0.91409 0.48315 0.87531 0.0
C1571 C 0.9222 0.50067 0.94418 0.0
C1572 C 0.94203 0.50233 0.93929 0.0
C1573 C 0.90799 0.50067 0.92969 0.0
C1574 C 0.901 0.49169 0.8775 0.0
H1575 H 0.805 0.49813 0.84562 0.0
H1576 H 0.83018 0.4981 0.87066 0.0
H1577 H 0.88908 0.48301 0.85011 0.0
H1578 H 0.96245 0.5054 0.91529 0.0
H1579 H 0.93759 0.50558 0.89009 0.0
H1580 H 0.87853 0.52159 0.9102 0.0
C1581 C 0.83447 0.49982 0.85559 0.0
C1582 C 0.88671 0.4916 0.8631 0.0
C1583 C 0.8201 0.49963 0.84126 0.0
C1584 C 0.94733 0.50399 0.9196 0.0
C1585 C 0.9331 0.50401 0.90512 0.0
C1586 C 0.88092 0.51299 0.89721 0.0
C1587 C 0.85417 0.50197 0.85046 0.0
C1588 C 0.86938 0.50217 0.86565 0.0
C1589 C 0.91331 0.50236 0.91004 0.0
C1590 C 0.89823 0.50237 0.89471 0.0
H1591 H 0.84918 0.50518 0.80135 0.0
H1592 H 0.87432 0.50576 0.82644 0.0
H1593 H 0.85351 0.52138 0.88503 0.0
H1594 H 0.91757 0.49924 0.95918 0.0
H1595 H 0.89285 0.49911 0.93388 0.0
C1596 C 0.66945 0.68097 0.01732 0.0
C1597 C 0.68374 0.68119 0.00276 0.0
C1598 C 0.65507 0.66664 0.01733 0.0
C1599 C 0.63228 0.62936 0.98547 0.0
H1600 H 0.61275 0.60949 0.03459 0.0
C1601 C 0.58448 0.56055 0.99366 0.0
C1602 C 0.56668 0.56382 0.00321 0.0
C1603 C 0.59882 0.57492 0.99354 0.0
C1604 C 0.61808 0.61501 0.02081 0.0
H1605 H 0.69469 0.6667 0.97704 0.0
H1606 H 0.67011 0.64108 0.97744 0.0
H1607 H 0.6382 0.63426 0.03456 0.0
H1608 H 0.54997 0.58435 0.02043 0.0
H1609 H 0.57541 0.60932 0.02064 0.0
H1610 H 0.61254 0.60942 0.97185 0.0
C1611 C 0.66948 0.65228 0.9885 0.0
C1612 C 0.63254 0.62927 0.02074 0.0
C1613 C 0.68363 0.66683 0.9883 0.0
C1614 C 0.56354 0.58155 0.01286 0.0
C1615 C 0.57805 0.59575 0.01308 0.0
C1616 C 0.61811 0.61483 0.98557 0.0
C1617 C 0.65495 0.65205 0.00297 0.0
C1618 C 0.63975 0.6367 0.00306 0.0
C1619 C 0.59571 0.59255 0.00331 0.0
C1620 C 0.61086 0.60766 0.00323 0.0
H1621 H 0.66924 0.69207 0.02851 0.0
H1622 H 0.64391 0.66719 0.02846 0.0
H1623 H 0.63717 0.63499 0.97159 0.0
H1624 H 0.58718 0.54702 0.98603 0.0
H1625 H 0.61242 0.5722 0.98598 0.0
C1626 C 0.31937 0.66231 0.00586 0.0
C1627 C 0.32434 0.68206 0.0075 0.0
C1628 C 0.33384 0.64808 0.00585 0.0
C1629 C 0.38575 0.64109 0.99567 0.0
H1630 H 0.37907 0.59346 0.02523 0.0
C1631 C 0.44708 0.58465 0.00462 0.0
C1632 C 0.44182 0.56495 0.00294 0.0
C1633 C 0.4328 0.59906 0.0054 0.0
C1634 C 0.38104 0.6066 0.01675 0.0
H1635 H 0.34827 0.70245 0.01042 0.0
H1636 H 0.37359 0.67752 0.01066 0.0
H1637 H 0.35394 0.61853 0.02649 0.0
H1638 H 0.41735 0.54501 1.00056 0.0
H1639 H 0.39253 0.57021 1.00171 0.0
H1640 H 0.41279 0.62913 0.98584 0.0
C1641 C 0.35851 0.67308 0.00923 0.0
C1642 C 0.36668 0.62094 0.01749 0.0
C1643 C 0.34403 0.68731 0.0093 0.0
C1644 C 0.42196 0.56001 1.00195 0.0
C1645 C 0.4077 0.57444 0.00272 0.0
C1646 C 0.4001 0.62674 0.99491 0.0
C1647 C 0.35355 0.65334 0.00744 0.0
C1648 C 0.3689 0.63829 0.00693 0.0
C1649 C 0.41299 0.59408 0.00449 0.0
C1650 C 0.39785 0.60935 0.00541 0.0
H1651 H 0.30427 0.65785 0.00464 0.0
H1652 H 0.32963 0.63297 0.00428 0.0
H1653 H 0.38769 0.65421 0.98716 0.0
H1654 H 0.46222 0.58901 0.0055 0.0
H1655 H 0.43728 0.61409 0.00699 0.0
C1656 C 0.32359 0.33777 0.98685 0.0
C1657 C 0.32335 0.32363 1.00153 0.0
C1658 C 0.33773 0.35234 0.98693 0.0
C1659 C 0.37438 0.37582 0.01905 0.0
H1660 H 0.39513 0.39457 0.96999 0.0
C1661 C 0.44378 0.42282 0.01126 0.0
C1662 C 0.44094 0.44041 1.00127 0.0
C1663 C 0.42918 0.40872 0.01144 0.0
C1664 C 0.38935 0.38947 0.98375 0.0
H1665 H 0.33759 0.31316 0.02758 0.0
H1666 H 0.3629 0.33806 0.02735 0.0
H1667 H 0.3703 0.36919 0.96998 0.0
H1668 H 0.42092 0.45704 0.98339 0.0
H1669 H 0.39553 0.43201 0.98328 0.0
H1670 H 0.39414 0.39571 0.03272 0.0
C1671 C 0.35185 0.33843 0.01612 0.0
C1672 C 0.37506 0.37505 0.98379 0.0
C1673 C 0.33748 0.3241 0.01622 0.0
C1674 C 0.42339 0.44362 0.99128 0.0
C1675 C 0.40896 0.42934 0.99113 0.0
C1676 C 0.38893 0.38997 0.01899 0.0
C1677 C 0.35211 0.35278 1.00151 0.0
C1678 C 0.36735 0.36809 1.00145 0.0
C1679 C 0.41174 0.41187 1.0013 0.0
C1680 C 0.39644 0.39691 1.00134 0.0
H1681 H 0.31266 0.33771 0.97548 0.0
H1682 H 0.33722 0.36336 0.97568 0.0
H1683 H 0.36852 0.37112 0.03291 0.0
H1684 H 0.45715 0.42007 0.01918 0.0
H1685 H 0.43157 0.39526 0.01931 0.0
C1686 C 0.67379 0.32724 0.991 0.0
C1687 C 0.68265 0.32153 0.0085 0.0
C1688 C 0.65906 0.34119 0.99102 0.0
C1689 C 0.63959 0.38169 0.01969 0.0
H1690 H 0.5943 0.37511 0.9866 0.0
C1691 C 0.58547 0.44379 0.00407 0.0
C1692 C 0.56554 0.43904 0.00422 0.0
C1693 C 0.59955 0.42919 0.00508 0.0
C1694 C 0.60679 0.37707 0.99603 0.0
H1695 H 0.68305 0.32582 0.03975 0.0
H1696 H 0.65701 0.35007 0.03982 0.0
H1697 H 0.61893 0.34959 0.98795 0.0
H1698 H 0.54483 0.41513 0.00563 0.0
H1699 H 0.56943 0.38978 0.00752 0.0
H1700 H 0.62731 0.40908 0.02794 0.0
C1701 C 0.66163 0.34387 0.02608 0.0
C1702 C 0.62096 0.36257 0.99665 0.0
C1703 C 0.67637 0.32988 0.02607 0.0
C1704 C 0.56003 0.41936 0.00538 0.0
C1705 C 0.57412 0.40479 0.00639 0.0
C1706 C 0.62541 0.39621 0.01905 0.0
C1707 C 0.65288 0.34969 0.00854 0.0
C1708 C 0.63754 0.36478 0.00841 0.0
C1709 C 0.594 0.40956 0.00624 0.0
C1710 C 0.60891 0.39407 0.00716 0.0
H1711 H 0.67819 0.32087 0.97727 0.0
H1712 H 0.65271 0.34553 0.97726 0.0
H1713 H 0.65231 0.38385 0.02875 0.0
H1714 H 0.59026 0.45877 0.00314 0.0
H1715 H 0.6148 0.43326 0.00469 0.0
C1716 C 0.02497 0.67294 0.67535 0.0
C1717 C 0.00741 0.68141 0.68156 0.0
C1718 C 0.02493 0.65882 0.66078 0.0
C1719 C 0.01846 0.621 0.63883 0.0
H1720 H 0.98627 0.62822 0.59302 0.0
C1721 C 0.00413 0.55968 0.58368 0.0
C1722 C 0.00495 0.56466 0.56385 0.0
C1723 C 0.00467 0.57409 0.59793 0.0
C1724 C 0.99543 0.62607 0.60567 0.0
H1725 H 0.97611 0.68204 0.67728 0.0
H1726 H 0.97601 0.65718 0.65198 0.0
H1727 H 0.98709 0.65341 0.618 0.0
H1728 H 0.00707 0.58881 0.54351 0.0
H1729 H 0.00812 0.61387 0.56844 0.0
H1730 H 0.02697 0.59376 0.6264 0.0
C1731 C 0.9898 0.66154 0.65828 0.0
C1732 C 0.99575 0.64038 0.62003 0.0
C1733 C 0.98983 0.6756 0.67289 0.0
C1734 C 0.00631 0.5844 0.55862 0.0
C1735 C 0.00684 0.59881 0.57289 0.0
C1736 C 0.0181 0.60666 0.62449 0.0
C1737 C 0.00734 0.653 0.65212 0.0
C1738 C 0.00723 0.63796 0.63676 0.0
C1739 C 0.00604 0.59378 0.59267 0.0
C1740 C 0.00656 0.60905 0.60779 0.0
H1741 H 0.03871 0.67707 0.6819 0.0
H1742 H 0.03867 0.65258 0.65617 0.0
H1743 H 0.02732 0.61869 0.65167 0.0
H1744 H 1.00301 0.54464 0.58827 0.0
H1745 H 0.00378 0.56983 0.61308 0.0
C1746 C 0.32345 0.98685 0.6665 0.0
C1747 C 0.32319 1.0015 0.68066 0.0
C1748 C 0.33759 0.98698 0.65193 0.0
C1749 C 0.37426 0.0192 0.62847 0.0
H1750 H 0.39501 0.97018 0.60964 0.0
C1751 C 0.44369 0.01148 0.58141 0.0
C1752 C 0.44085 1.00151 0.56382 0.0
C1753 C 0.42908 0.01166 0.59552 0.0
C1754 C 0.38923 0.98393 0.61476 0.0
H1755 H 0.33741 0.02756 0.69115 0.0
H1756 H 0.36272 0.02741 0.66623 0.0
H1757 H 0.37017 0.9701 0.63504 0.0
H1758 H 0.42081 0.98368 0.54719 0.0
H1759 H 0.39541 0.98355 0.57223 0.0
H1760 H 0.39403 0.03291 0.60859 0.0
C1761 C 0.35168 0.01617 0.66586 0.0
C1762 C 0.37493 0.98393 0.62919 0.0
C1763 C 0.3373 0.01622 0.6802 0.0
C1764 C 0.42328 0.99155 0.56061 0.0
C1765 C 0.40884 0.99139 0.5749 0.0
C1766 C 0.38882 0.01917 0.61432 0.0
C1767 C 0.35196 1.00159 0.65149 0.0
C1768 C 0.36722 1.00157 0.63618 0.0
C1769 C 0.41162 1.00153 0.59237 0.0
C1770 C 0.39632 1.00154 0.60734 0.0
H1771 H 0.31253 0.97546 0.66656 0.0
H1772 H 0.3371 0.97575 0.6409 0.0
H1773 H 0.3684 0.03304 0.63319 0.0
H1774 H 0.45707 0.01938 0.58415 0.0
H1775 H 0.43147 0.01951 0.60897 0.0
C1776 C 0.99256 0.34378 0.68785 0.0
C1777 C 0.99285 0.32396 0.6829 0.0
C1778 C 0.99273 0.35798 0.67337 0.0
C1779 C 0.98336 0.36626 0.62131 0.0
H1780 H 0.01908 0.40946 0.62812 0.0
C1781 C 1.0015 0.42005 0.55959 0.0
C1782 C 1.00228 0.43988 0.56456 0.0
C1783 C 1.00005 0.40586 0.57404 0.0
C1784 C 0.00888 0.39761 0.62612 0.0
H1785 H 0.99324 0.30344 0.65893 0.0
H1786 H 0.99348 0.3283 0.6336 0.0
H1787 H 0.01635 0.38481 0.65346 0.0
H1788 H 1.0022 0.46029 0.58872 0.0
H1789 H 0.99951 0.43553 0.6138 0.0
H1790 H 0.97593 0.37906 0.59393 0.0
C1791 C 0.99293 0.33283 0.64868 0.0
C1792 C 0.00731 0.38351 0.64062 0.0
C1793 C 0.99277 0.31861 0.66317 0.0
C1794 C 1.00169 0.44517 0.58431 0.0
C1795 C 1.00025 0.43098 0.59873 0.0
C1796 C 0.98493 0.38038 0.6068 0.0
C1797 C 0.99317 0.35265 0.65366 0.0
C1798 C 0.99453 0.36771 0.63836 0.0
C1799 C 0.99936 0.4112 0.59374 0.0
C1800 C 0.99771 0.39618 0.60907 0.0
H1801 H 0.9923 0.34831 0.70294 0.0
H1802 H 0.99256 0.37316 0.67761 0.0
H1803 H 0.97324 0.35434 0.6193 0.0
H1804 H 1.00195 0.41541 0.54454 0.0
H1805 H 0.99965 0.3907 0.56978 0.0
C1806 C 0.68018 0.0237 0.66958 0.0
C1807 C 0.68036 0.00944 0.68414 0.0
C1808 C 0.66577 0.02345 0.65527 0.0
C1809 C 0.6294 0.9903 0.63302 0.0
H1810 H 0.60949 0.03813 0.61059 0.0
C1811 C 0.56201 0.99476 0.58299 0.0
C1812 C 0.56536 0.00394 0.56504 0.0
C1813 C 0.57607 0.9955 0.5976 0.0
C1814 C 0.61503 0.02471 0.61673 0.0
H1815 H 0.66552 0.98427 0.69591 0.0
H1816 H 0.63976 0.9843 0.67151 0.0
H1817 H 0.63344 0.03969 0.63679 0.0
H1818 H 0.58578 0.02128 0.54829 0.0
H1819 H 0.61023 0.02295 0.57416 0.0
H1820 H 0.61038 0.97544 0.6133 0.0
C1821 C 0.65106 0.99524 0.67057 0.0
C1822 C 0.6288 0.02555 0.63163 0.0
C1823 C 0.66568 0.99529 0.68463 0.0
C1824 C 0.58292 0.01398 0.56197 0.0
C1825 C 0.59681 0.01505 0.57674 0.0
C1826 C 0.61538 0.9895 0.61839 0.0
C1827 C 0.65111 0.00913 0.65552 0.0
C1828 C 0.6362 0.00835 0.63991 0.0
C1829 C 0.59348 0.00575 0.5946 0.0
C1830 C 0.60819 0.00668 0.61011 0.0
H1831 H 0.69152 0.03464 0.66893 0.0
H1832 H 0.66645 0.03419 0.64375 0.0
H1833 H 0.63508 0.97675 0.63871 0.0
H1834 H 0.54862 0.98684 0.58567 0.0
H1835 H 0.57325 0.98828 0.61134 0.0
C1836 C 0.02014 0.33516 0.32436 0.0
C1837 C 0.00464 0.32197 0.32317 0.0
C1838 C 0.02011 0.34964 0.33856 0.0
C1839 C 0.98719 0.37482 0.37349 0.0
H1840 H 0.0361 0.39147 0.39634 0.0
C1841 C 0.99463 0.42187 0.44297 0.0
C1842 C 0.00474 0.43937 0.43993 0.0
C1843 C 0.99449 0.40756 0.4286 0.0
C1844 C 0.02239 0.38693 0.38998 0.0
H1845 H 0.97719 0.31301 0.33579 0.0
H1846 H 0.97747 0.33767 0.3613 0.0
H1847 H 0.03614 0.36587 0.37178 0.0
H1848 H 0.0229 0.4556 0.41982 0.0
H1849 H 0.02314 0.43016 0.39487 0.0
H1850 H 0.97352 0.39547 0.39246 0.0
C1851 C 0.98934 0.33743 0.35091 0.0
C1852 C 0.02237 0.3724 0.37583 0.0
C1853 C 0.9892 0.32322 0.33644 0.0
C1854 C 0.01491 0.44226 0.42243 0.0
C1855 C 0.01513 0.42775 0.40825 0.0
C1856 C 0.98721 0.38905 0.38793 0.0
C1857 C 0.00474 0.35091 0.35209 0.0
C1858 C 0.00477 0.36622 0.36732 0.0
C1859 C 0.00482 0.41039 0.41122 0.0
C1860 C 0.00481 0.39524 0.39616 0.0
H1861 H 0.0321 0.33446 0.31408 0.0
H1862 H 0.03201 0.35998 0.33872 0.0
H1863 H 0.97341 0.37077 0.36701 0.0
H1864 H 0.98659 0.41938 0.45631 0.0
H1865 H 0.9865 0.39419 0.43111 0.0
C1866 C 0.68989 0.00239 0.34308 0.0
C1867 C 0.68479 1.00035 0.32341 0.0
C1868 C 0.67551 0.00252 0.35743 0.0
C1869 C 0.62344 0.01193 0.36474 0.0
H1870 H 0.63067 0.98237 0.41228 0.0
C1871 C 0.56193 1.00085 0.42052 0.0
C1872 C 0.56689 0.00247 0.4403 0.0
C1873 C 0.57641 1.00063 0.40629 0.0
C1874 C 0.62856 0.99087 0.39917 0.0
H1875 H 0.66073 0.99696 0.30325 0.0
H1876 H 0.6356 0.99693 0.32837 0.0
H1877 H 0.6559 0.9818 0.38726 0.0
H1878 H 0.59102 0.00529 0.46058 0.0
H1879 H 0.6162 0.00509 0.43567 0.0
H1880 H 0.59614 0.02105 0.37665 0.0
C1881 C 0.65069 0.99857 0.33267 0.0
C1882 C 0.64297 0.99052 0.38487 0.0
C1883 C 0.66507 0.99838 0.31833 0.0
C1884 C 0.58665 0.00392 0.4455 0.0
C1885 C 0.60111 0.00372 0.43125 0.0
C1886 C 0.60905 0.0123 0.37905 0.0
C1887 C 0.65578 1.00067 0.35234 0.0
C1888 C 0.64053 1.00103 0.36751 0.0
C1889 C 0.59613 1.00205 0.41151 0.0
C1890 C 0.61146 1.00176 0.39639 0.0
H1891 H 0.705 0.00376 0.3474 0.0
H1892 H 0.67982 0.00432 0.37248 0.0
H1893 H 0.62133 0.02039 0.35161 0.0
H1894 H 0.54688 0.99962 0.41596 0.0
H1895 H 0.57216 0.99908 0.39119 0.0
C1896 C 0.01212 0.66618 0.32215 0.0
C1897 C 0.99648 0.67932 0.32042 0.0
C1898 C 0.01197 0.65182 0.33646 0.0
C1899 C 0.99617 0.64128 0.38454 0.0
H1900 H 0.99907 0.58674 0.37039 0.0
C1901 C 0.99143 0.58079 0.44226 0.0
C1902 C 1.00246 0.56388 0.43925 0.0
C1903 C 0.99002 0.59481 0.42765 0.0
C1904 C 0.99859 0.6019 0.37464 0.0
H1905 H 0.96831 0.68744 0.33243 0.0
H1906 H 0.96863 0.66282 0.35808 0.0
H1907 H 0.99807 0.61148 0.34496 0.0
H1908 H 0.02106 0.54843 0.419 0.0
H1909 H 0.01945 0.5733 0.39383 0.0
H1910 H 0.99765 0.63204 0.41414 0.0
C1911 C 0.98083 0.66369 0.3481 0.0
C1912 C 0.99784 0.61599 0.36007 0.0
C1913 C 0.98076 0.67782 0.33351 0.0
C1914 C 0.0123 0.56129 0.42155 0.0
C1915 C 0.01124 0.5755 0.4071 0.0
C1916 C 0.99733 0.62724 0.39915 0.0
C1917 C 0.9964 0.65058 0.34957 0.0
C1918 C 0.99661 0.63574 0.36495 0.0
C1919 C 0.99995 0.59237 0.4099 0.0
C1920 C 0.99856 0.60735 0.39438 0.0
H1921 H 0.0247 0.66715 0.31268 0.0
H1922 H 0.02421 0.64192 0.33756 0.0
H1923 H 0.99542 0.65652 0.38853 0.0
H1924 H 0.98352 0.58298 0.45573 0.0
H1925 H 0.98088 0.60739 0.43021 0.0
C1926 C 0.34233 0.9953 0.31938 0.0
C1927 C 0.32765 0.00946 0.31981 0.0
C1928 C 0.35688 0.99524 0.3335 0.0
C1929 C 0.37899 0.02541 0.37258 0.0
H1930 H 0.39714 0.9752 0.39097 0.0
C1931 C 0.42463 0.01353 0.44238 0.0
C1932 C 0.44219 0.0035 0.4393 0.0
C1933 C 0.41075 0.01465 0.4276 0.0
C1934 C 0.39222 0.98928 0.38587 0.0
H1935 H 0.31645 0.03468 0.33495 0.0
H1936 H 0.34143 0.03419 0.36022 0.0
H1937 H 0.37258 0.97665 0.36544 0.0
H1938 H 0.45896 0.98646 0.41866 0.0
H1939 H 0.43435 0.98799 0.39296 0.0
H1940 H 0.39825 0.03788 0.39372 0.0
C1941 C 0.34215 0.02347 0.34871 0.0
C1942 C 0.37828 0.99017 0.37117 0.0
C1943 C 0.3278 0.02373 0.33435 0.0
C1944 C 0.44556 0.99437 0.42134 0.0
C1945 C 0.43152 0.99516 0.40672 0.0
C1946 C 0.39268 0.02449 0.38754 0.0
C1947 C 0.35678 0.00911 0.34854 0.0
C1948 C 0.37158 0.00825 0.36424 0.0
C1949 C 0.41411 0.00542 0.40972 0.0
C1950 C 0.39943 0.00642 0.39418 0.0
H1951 H 0.34251 0.98428 0.30811 0.0
H1952 H 0.36817 0.98427 0.33261 0.0
H1953 H 0.37442 0.03958 0.36741 0.0
H1954 H 0.42176 0.02079 0.45607 0.0
H1955 H 0.39734 0.02256 0.43018 0.0
C1956 C 0.99048 0.16831 0.32155 0.0
C1957 C 1.00081 0.16356 0.3045 0.0
C1958 C 0.9912 0.15619 0.33789 0.0
C1959 C 1.00084 0.10588 0.35327 0.0
H1960 H 0.00918 0.12862 0.40423 0.0
C1961 C 0.01438 0.05743 0.42013 0.0
C1962 C 0.00637 0.06292 0.43815 0.0
C1963 C 0.01413 0.07014 0.40428 0.0
C1964 C 0.00656 0.12201 0.39018 0.0
H1965 H 0.01985 0.1422 0.29124 0.0
H1966 H 0.02091 0.12082 0.31978 0.0
H1967 H 0.0076 0.14959 0.37559 0.0
H1968 H 0.99209 0.08633 0.45369 0.0
H1969 H 0.99114 0.10847 0.4258 0.0
H1970 H 0.99932 0.07839 0.3677 0.0
C1971 C 0.01226 0.13399 0.32044 0.0
C1972 C 0.00573 0.13406 0.37374 0.0
C1973 C 0.01173 0.14625 0.30414 0.0
C1974 C 0.99846 0.08169 0.44004 0.0
C1975 C 0.99797 0.09439 0.42403 0.0
C1976 C 1.00146 0.09387 0.3697 0.0
C1977 C 1.00212 0.1389 0.33757 0.0
C1978 C 1.00295 0.12612 0.35507 0.0
C1979 C 0.0056 0.08868 0.40583 0.0
C1980 C 0.00448 0.10171 0.3884 0.0
H1981 H 0.98217 0.18168 0.32245 0.0
H1982 H 0.9831 0.16032 0.35077 0.0
H1983 H 0.99836 0.09934 0.33916 0.0
H1984 H 0.02089 0.0432 0.4182 0.0
H1985 H 0.02067 0.06535 0.39077 0.0
C1986 C 0.84737 0.9875 0.31269 0.0
C1987 C 0.84538 0.00485 0.30195 0.0
C1988 C 0.85949 0.98664 0.32906 0.0
C1989 C 0.88197 0.01783 0.36668 0.0
H1990 H 0.91484 0.97295 0.37618 0.0
C1991 C 0.92514 0.00669 0.43894 0.0
C1992 C 0.94467 1.00083 0.43673 0.0
C1993 C 0.91243 0.0068 0.42292 0.0
C1994 C 0.90576 0.98561 0.37374 0.0
H1995 H 0.85538 0.03473 0.29986 0.0
H1996 H 0.87635 0.03325 0.32848 0.0
H1997 H 0.89471 0.97415 0.34694 0.0
H1998 H 0.96588 0.98998 0.41591 0.0
H1999 H 0.94385 0.99009 0.38831 0.0
H2000 H 0.89321 0.02935 0.39342 0.0
C2001 C 0.86827 0.02037 0.32433 0.0
C2002 C 0.89411 0.98623 0.35704 0.0
C2003 C 0.85626 0.02119 0.30786 0.0
C2004 C 0.95101 0.99472 0.41822 0.0
C2005 C 0.93831 0.99463 0.40235 0.0
C2006 C 0.89351 0.01712 0.38349 0.0
C2007 C 0.86989 0.00314 0.33526 0.0
C2008 C 0.88217 0.00241 0.35319 0.0
C2009 C 0.91889 1.00076 0.40442 0.0
C2010 C 0.90569 1.00108 0.38715 0.0
H2011 H 0.83898 0.9747 0.30893 0.0
H2012 H 0.86022 0.97318 0.33723 0.0
H2013 H 0.87276 0.03041 0.3643 0.0
H2014 H 0.91977 0.01152 0.45295 0.0
H2015 H 0.89751 0.01148 0.42503 0.0
C2016 C 0.00616 0.857 0.3053 0.0
C2017 C 0.01464 0.83841 0.30665 0.0
C2018 C 0.00539 0.86927 0.32158 0.0
C2019 C 0.00665 0.8685 0.37545 0.0
H2020 H 0.01835 0.92338 0.37009 0.0
C2021 C 0.01223 0.92099 0.44196 0.0
C2022 C 0.00546 0.94011 0.43926 0.0
C2023 C 0.01332 0.90806 0.42616 0.0
C2024 C 0.01476 0.90814 0.37186 0.0
H2025 H 0.02867 0.81812 0.32637 0.0
H2026 H 0.02751 0.83954 0.35457 0.0
H2027 H 0.02021 0.90226 0.34174 0.0
H2028 H 0.99352 0.96022 0.41798 0.0
H2029 H 0.99498 0.93777 0.39089 0.0
H2030 H 1.00097 0.87442 0.40555 0.0
C2031 C 0.02143 0.84463 0.34095 0.0
C2032 C 0.01588 0.89601 0.35555 0.0
C2033 C 0.02232 0.83245 0.32468 0.0
C2034 C 0.99918 0.94573 0.4206 0.0
C2035 C 1.00012 0.93284 0.40495 0.0
C2036 C 0.00542 0.88066 0.39178 0.0
C2037 C 0.01289 0.86318 0.33965 0.0
C2038 C 0.01178 0.87605 0.3571 0.0
C2039 C 0.00752 0.91393 0.40736 0.0
C2040 C 0.00935 0.90069 0.39019 0.0
H2041 H 1.00012 0.86206 0.29165 0.0
H2042 H 0.99857 0.8834 0.3201 0.0
H2043 H 0.00319 0.85321 0.37713 0.0
H2044 H 0.01721 0.91621 0.45612 0.0
H2045 H 0.01919 0.89364 0.42859 0.0
C2046 C 0.15861 0.97503 0.31417 0.0
C2047 C 0.16451 0.99196 0.30412 0.0
C2048 C 0.14656 0.97622 0.3306 0.0
C2049 C 0.10891 0.00392 0.35446 0.0
H2050 H 0.12992 0.9855 0.40347 0.0
C2051 C 0.06609 0.01587 0.42562 0.0
C2052 C 0.06759 1.00208 0.4406 0.0
C2053 C 0.07855 0.01516 0.40953 0.0
C2054 C 0.12356 0.99041 0.38993 0.0
H2055 H 0.16137 0.02345 0.30356 0.0
H2056 H 0.13944 0.0252 0.33142 0.0
H2057 H 0.14916 0.9824 0.37376 0.0
H2058 H 0.08334 0.97678 0.45066 0.0
H2059 H 0.10454 0.97477 0.42214 0.0
H2060 H 0.08298 0.01106 0.37003 0.0
C2061 C 0.14459 0.01109 0.32665 0.0
C2062 C 0.13472 0.98873 0.3729 0.0
C2063 C 0.15704 0.01 0.3105 0.0
C2064 C 0.08207 0.98774 0.43939 0.0
C2065 C 0.09426 0.98667 0.42299 0.0
C2066 C 0.09754 0.00516 0.37135 0.0
C2067 C 0.1396 0.99427 0.33711 0.0
C2068 C 0.12755 0.9956 0.35504 0.0
C2069 C 0.09252 1.00023 0.40761 0.0
C2070 C 0.10472 0.99862 0.38947 0.0
H2071 H 0.16348 0.96079 0.30956 0.0
H2072 H 0.14268 0.96299 0.33825 0.0
H2073 H 0.10298 0.00917 0.34083 0.0
H2074 H 0.05509 0.02717 0.42629 0.0
H2075 H 0.07703 0.02633 0.39855 0.0
C2076 C 0.9889 0.84085 0.68794 0.0
C2077 C 0.00474 0.84124 0.70094 0.0
C2078 C 0.98856 0.85294 0.67153 0.0
C2079 C 0.01079 0.89759 0.65067 0.0
H2080 H 0.99083 0.87731 0.60195 0.0
C2081 C 0.99653 0.94789 0.5855 0.0
C2082 C 1.00159 0.94147 0.56671 0.0
C2083 C 0.99682 0.93518 0.60134 0.0
C2084 C 0.99661 0.88315 0.61538 0.0
H2085 H 0.03243 0.85516 0.70698 0.0
H2086 H 0.03198 0.87601 0.67829 0.0
H2087 H 0.99174 0.85641 0.63069 0.0
H2088 H 0.01049 0.91629 0.54992 0.0
H2089 H 0.01113 0.89399 0.57776 0.0
H2090 H 0.01602 0.92417 0.63537 0.0
C2091 C 0.01971 0.86645 0.68084 0.0
C2092 C 0.9969 0.87125 0.63196 0.0
C2093 C 0.02005 0.85435 0.69726 0.0
C2094 C 0.00649 0.92175 0.56415 0.0
C2095 C 0.00682 0.90896 0.58012 0.0
C2096 C 0.0105 0.90946 0.63414 0.0
C2097 C 0.00405 0.86577 0.66764 0.0
C2098 C 0.00391 0.87834 0.64987 0.0
C2099 C 1.00224 0.91561 0.59898 0.0
C2100 C 0.00325 0.90249 0.6163 0.0
H2101 H 0.97697 0.83076 0.69009 0.0
H2102 H 0.97612 0.8522 0.66188 0.0
H2103 H 0.01615 0.90364 0.66419 0.0
H2104 H 0.99237 0.96286 0.58812 0.0
H2105 H 0.99271 0.94075 0.6155 0.0
C2106 C 0.16275 0.98951 0.69029 0.0
C2107 C 0.16377 0.00601 0.70238 0.0
C2108 C 0.15064 0.98929 0.67389 0.0
C2109 C 0.13312 0.9968 0.63385 0.0
H2110 H 0.08214 0.02095 0.63568 0.0
C2111 C 0.08382 0.00581 0.56515 0.0
C2112 C 0.06371 0.00279 0.56786 0.0
C2113 C 0.09652 0.00642 0.58119 0.0
C2114 C 0.09629 0.01402 0.6349 0.0
H2115 H 0.15226 0.03506 0.70681 0.0
H2116 H 0.13143 0.03482 0.67811 0.0
H2117 H 0.10256 0.02099 0.66457 0.0
H2118 H 0.04145 0.99746 0.58977 0.0
H2119 H 0.06338 0.99828 0.61726 0.0
H2120 H 0.12656 0.98939 0.60426 0.0
C2121 C 0.13989 0.02194 0.68139 0.0
C2122 C 0.10813 0.01425 0.65147 0.0
C2123 C 0.15199 0.02214 0.6978 0.0
C2124 C 0.05676 1.00008 0.58696 0.0
C2125 C 0.06938 1.00066 0.60287 0.0
C2126 C 0.12125 0.99656 0.61725 0.0
C2127 C 0.1392 0.00558 0.66907 0.0
C2128 C 0.12668 0.00555 0.65124 0.0
C2129 C 0.08941 0.00402 0.60029 0.0
C2130 C 0.10258 0.00502 0.6176 0.0
H2131 H 0.17179 0.9769 0.69311 0.0
H2132 H 0.15029 0.97632 0.66496 0.0
H2133 H 0.14743 0.99021 0.63299 0.0
H2134 H 0.08973 0.00796 0.5507 0.0
H2135 H 0.11186 0.00914 0.57864 0.0
C2136 C 1.00116 0.14761 0.69893 0.0
C2137 C 0.01119 0.16544 0.69817 0.0
C2138 C 1.00058 0.13533 0.68266 0.0
C2139 C 0.0053 0.13573 0.62908 0.0
H2140 H 0.01257 0.08015 0.63506 0.0
C2141 C 0.01073 0.08283 0.56291 0.0
C2142 C 1.00273 0.06415 0.56524 0.0
C2143 C 0.01175 0.09571 0.57876 0.0
C2144 C 0.01022 0.0956 0.63309 0.0
H2145 H 0.02827 0.18438 0.67953 0.0
H2146 H 0.02736 0.16294 0.65128 0.0
H2147 H 0.01436 0.10118 0.66347 0.0
H2148 H 0.98857 0.04478 0.58581 0.0
H2149 H 0.9898 0.06719 0.61298 0.0
H2150 H 1.00086 0.13013 0.59873 0.0
C2151 C 0.01994 0.15845 0.66445 0.0
C2152 C 0.0113 0.10767 0.64944 0.0
C2153 C 0.02067 0.17062 0.68075 0.0
C2154 C 0.99514 0.05893 0.58353 0.0
C2155 C 0.99597 0.07178 0.59922 0.0
C2156 C 0.00405 0.12362 0.61271 0.0
C2157 C 0.00982 0.14069 0.66516 0.0
C2158 C 0.00881 0.12788 0.64767 0.0
C2159 C 0.00462 0.09022 0.59723 0.0
C2160 C 0.00639 0.10335 0.6145 0.0
H2161 H 0.99373 0.14317 0.71211 0.0
H2162 H 0.99254 0.12181 0.68366 0.0
H2163 H 0.0031 0.15122 0.62723 0.0
H2164 H 0.01679 0.08727 0.54904 0.0
H2165 H 0.01862 0.10973 0.57665 0.0
C2166 C 0.85109 0.01085 0.69369 0.0
C2167 C 0.8437 0.99279 0.7001 0.0
C2168 C 0.86357 0.01197 0.67756 0.0
C2169 C 0.87353 0.98981 0.63135 0.0
H2170 H 0.92542 0.01172 0.6344 0.0
C2171 C 0.92622 0.98884 0.56492 0.0
C2172 C 0.94081 0.00309 0.56379 0.0
C2173 C 0.91402 0.98777 0.58131 0.0
C2174 C 0.91082 0.00595 0.63303 0.0
H2175 H 0.84489 0.96161 0.69475 0.0
H2176 H 0.86573 0.96386 0.66608 0.0
H2177 H 0.90537 0.0098 0.66357 0.0
H2178 H 0.95348 0.02799 0.57826 0.0
H2179 H 0.9315 0.02714 0.60598 0.0
H2180 H 0.87834 0.98673 0.60078 0.0
C2181 C 0.86177 0.97708 0.6737 0.0
C2182 C 0.89943 0.00468 0.6499 0.0
C2183 C 0.8497 0.97587 0.69011 0.0
C2184 C 0.9424 0.01677 0.57885 0.0
C2185 C 0.92991 0.01606 0.59492 0.0
C2186 C 0.88471 0.99151 0.61434 0.0
C2187 C 0.86865 0.99515 0.66716 0.0
C2188 C 0.88073 0.99651 0.64925 0.0
C2189 C 0.91584 1.00122 0.59675 0.0
C2190 C 0.90361 0.99957 0.61487 0.0
H2191 H 0.84668 0.02429 0.70058 0.0
H2192 H 0.86866 0.0261 0.67276 0.0
H2193 H 0.85905 0.98359 0.63045 0.0
H2194 H 0.92489 0.97796 0.5536 0.0
H2195 H 0.90366 0.97593 0.58208 0.0
C2196 C 0.30833 0.01876 0.14956 0.0
C2197 C 0.30476 0.00345 0.16269 0.0
C2198 C 0.32481 0.0186 0.13749 0.0
C2199 C 0.35532 0.01037 0.10642 0.0
H2200 H 0.40403 0.98981 0.1263 0.0
C2201 C 0.42066 0.99694 0.05576 0.0
C2202 C 0.4396 1.00128 0.06237 0.0
C2203 C 0.40476 0.99722 0.06844 0.0
C2204 C 0.39061 0.99577 0.12056 0.0
H2205 H 0.31595 0.97581 0.17314 0.0
H2206 H 0.34418 0.97521 0.1517 0.0
H2207 H 0.37526 0.99047 0.14721 0.0
H2208 H 0.45651 0.009 0.08784 0.0
H2209 H 0.42855 0.00967 0.11008 0.0
H2210 H 0.37069 0.01609 0.07996 0.0
C2211 C 0.33442 0.98757 0.15096 0.0
C2212 C 0.37399 0.99591 0.13248 0.0
C2213 C 0.31796 0.98775 0.16306 0.0
C2214 C 0.44218 0.00555 0.08222 0.0
C2215 C 0.42613 0.00588 0.09498 0.0
C2216 C 0.3719 0.01026 0.09454 0.0
C2217 C 0.33821 0.00308 0.13813 0.0
C2218 C 0.35606 0.00311 0.12554 0.0
C2219 C 0.40715 1.00193 0.08819 0.0
C2220 C 0.38976 0.0028 0.10135 0.0
H2221 H 0.29847 0.03104 0.14872 0.0
H2222 H 0.32725 0.0309 0.12795 0.0
H2223 H 0.34181 0.01588 0.10044 0.0
H2224 H 0.41799 0.9933 0.04067 0.0
H2225 H 0.39052 0.9936 0.06271 0.0
C2226 C 0.01782 0.32249 0.1697 0.0
C2227 C 0.00758 0.30545 0.16476 0.0
C2228 C 0.01708 0.33895 0.15775 0.0
C2229 C 0.00762 0.35466 0.10753 0.0
H2230 H 0.99904 0.40551 0.13046 0.0
C2231 C 0.99349 0.42134 0.05924 0.0
C2232 C 1.00149 0.4394 0.06458 0.0
C2233 C 0.99383 0.40557 0.07202 0.0
C2234 C 1.00173 0.39149 0.12381 0.0
H2235 H 0.98864 0.29237 0.14323 0.0
H2236 H 0.98753 0.32111 0.12215 0.0
H2237 H 1.00071 0.37678 0.15133 0.0
H2238 H 0.01579 0.45513 0.08783 0.0
H2239 H 0.01689 0.42733 0.11015 0.0
H2240 H 0.0091 0.3692 0.0801 0.0
C2241 C 0.99615 0.32167 0.13534 0.0
C2242 C 1.00261 0.37499 0.13579 0.0
C2243 C 0.99669 0.30525 0.14744 0.0
C2244 C 0.00943 0.44144 0.08331 0.0
C2245 C 0.01001 0.42548 0.0961 0.0
C2246 C 0.00694 0.37113 0.09559 0.0
C2247 C 0.00622 0.33877 0.14043 0.0
C2248 C 0.00544 0.35636 0.12776 0.0
C2249 C 1.00246 0.40722 0.09049 0.0
C2250 C 0.0038 0.38979 0.1035 0.0
H2251 H 0.0261 0.32327 0.18309 0.0
H2252 H 0.02513 0.35182 0.16202 0.0
H2253 H 0.01016 0.34058 0.10092 0.0
H2254 H 0.98698 0.4193 0.04504 0.0
H2255 H 0.98732 0.39202 0.06732 0.0
C2256 C 0.69685 0.98504 0.15148 0.0
C2257 C 0.70253 1.00105 0.16294 0.0
C2258 C 0.68012 0.98593 0.13982 0.0
C2259 C 0.64607 0.02036 0.11614 0.0
H2260 H 0.61113 0.97601 0.11479 0.0
C2261 C 0.58581 0.01223 0.05839 0.0
C2262 C 0.56746 0.00498 0.06404 0.0
C2263 C 0.60143 0.01248 0.07139 0.0
C2264 C 0.62063 0.98858 0.11516 0.0
H2265 H 0.69482 0.03065 0.17083 0.0
H2266 H 0.66602 0.0323 0.15025 0.0
H2267 H 0.64037 0.9749 0.13511 0.0
H2268 H 0.5512 0.9925 0.08803 0.0
H2269 H 0.57873 0.99283 0.11086 0.0
H2270 H 0.62641 0.03403 0.09617 0.0
C2271 C 0.67459 0.01906 0.15021 0.0
C2272 C 0.63753 0.98786 0.12661 0.0
C2273 C 0.69124 0.01814 0.16196 0.0
C2274 C 0.5651 0.99823 0.08322 0.0
C2275 C 0.5809 0.99828 0.09624 0.0
C2276 C 0.62929 0.02102 0.10459 0.0
C2277 C 0.66866 0.00289 0.13918 0.0
C2278 C 0.65053 0.0037 0.12716 0.0
C2279 C 0.59928 0.00538 0.09043 0.0
C2280 C 0.61641 0.00509 0.10382 0.0
H2281 H 0.70527 0.97172 0.15159 0.0
H2282 H 0.67619 0.97332 0.13123 0.0
H2283 H 0.65577 0.03278 0.11611 0.0
H2284 H 0.58821 0.01768 0.0438 0.0
H2285 H 0.61538 0.01785 0.06633 0.0
C2286 C 0.98973 0.68767 0.16325 0.0
C2287 C 0.00482 0.70154 0.16234 0.0
C2288 C 0.98998 0.67116 0.15135 0.0
C2289 C 0.01237 0.65099 0.10642 0.0
H2290 H 0.9935 0.60193 0.12703 0.0
C2291 C 0.99816 0.58568 0.05632 0.0
C2292 C 1.00302 0.56684 0.06278 0.0
C2293 C 0.9987 0.60153 0.06898 0.0
C2294 C 0.99901 0.61545 0.12109 0.0
H2295 H 0.03188 0.70884 0.14773 0.0
H2296 H 0.03254 0.67986 0.1273 0.0
H2297 H 0.99429 0.63063 0.14788 0.0
H2298 H 0.01191 0.55 0.08792 0.0
H2299 H 0.01308 0.57789 0.11011 0.0
H2300 H 0.01753 0.63577 0.07979 0.0
C2301 C 0.02035 0.68189 0.1371 0.0
C2302 C 0.99921 0.63201 0.13298 0.0
C2303 C 0.02006 0.69847 0.14897 0.0
C2304 C 0.00805 0.56427 0.08245 0.0
C2305 C 0.00868 0.58027 0.09517 0.0
C2306 C 0.01223 0.63444 0.09457 0.0
C2307 C 0.00537 0.66792 0.13822 0.0
C2308 C 0.00573 0.65008 0.12576 0.0
C2309 C 0.00422 0.59917 0.08851 0.0
C2310 C 0.00532 0.61648 0.10164 0.0
H2311 H 0.97791 0.68926 0.17356 0.0
H2312 H 0.97802 0.66094 0.15245 0.0
H2313 H 0.01735 0.6646 0.10024 0.0
H2314 H 0.9939 0.58829 0.04138 0.0
H2315 H 0.99466 0.61571 0.0634 0.0
C2316 C 0.31251 0.98259 0.85222 0.0
C2317 C 0.30628 0.99873 0.84124 0.0
C2318 C 0.32923 0.98369 0.86388 0.0
C2319 C 0.36227 0.01861 0.8883 0.0
H2320 H 0.39846 0.97524 0.88873 0.0
C2321 C 0.42293 0.01129 0.94566 0.0
C2322 C 0.44143 0.00454 0.93991 0.0
C2323 C 0.40727 0.0113 0.93272 0.0
C2324 C 0.3886 0.98755 0.88862 0.0
H2325 H 0.31297 0.02879 0.83417 0.0
H2326 H 0.34176 0.03078 0.8547 0.0
H2327 H 0.36922 0.97372 0.86845 0.0
H2328 H 0.45792 0.9927 0.91575 0.0
H2329 H 0.43034 0.99264 0.89299 0.0
H2330 H 0.3816 0.03246 0.90843 0.0
C2331 C 0.33363 0.01728 0.8544 0.0
C2332 C 0.37171 0.98658 0.87719 0.0
C2333 C 0.31699 0.01615 0.84268 0.0
C2334 C 0.4439 0.99804 0.92066 0.0
C2335 C 0.42807 0.99788 0.90767 0.0
C2336 C 0.37907 0.01952 0.8998 0.0
C2337 C 0.34013 1.001 0.86497 0.0
C2338 C 0.35825 1.00206 0.87697 0.0
C2339 C 0.40954 0.00448 0.9136 0.0
C2340 C 0.39239 0.00395 0.90025 0.0
H2341 H 0.30454 0.969 0.85173 0.0
H2342 H 0.33359 0.97097 0.87211 0.0
H2343 H 0.35221 0.03075 0.88859 0.0
H2344 H 0.42042 0.01653 0.96031 0.0
H2345 H 0.3932 0.01627 0.93788 0.0
C2346 C 0.9916 0.31628 0.84214 0.0
C2347 C 0.00779 0.3037 0.84162 0.0
C2348 C 0.9915 0.33271 0.85417 0.0
C2349 C 0.01562 0.35433 0.89737 0.0
H2350 H 0.99231 0.40215 0.87844 0.0
C2351 C 1.0002 0.41852 0.94864 0.0
C2352 C 0.00367 0.43763 0.94206 0.0
C2353 C 1.00103 0.40275 0.93589 0.0
C2354 C 0.99905 0.38899 0.88389 0.0
H2355 H 0.03647 0.29852 0.8538 0.0
H2356 H 0.03645 0.32731 0.87453 0.0
H2357 H 0.99344 0.37356 0.8574 0.0
H2358 H 0.01044 0.45496 0.91657 0.0
H2359 H 0.01203 0.42725 0.89421 0.0
H2360 H 0.02154 0.36979 0.92371 0.0
C2361 C 0.0237 0.32436 0.86574 0.0
C2362 C 0.99947 0.37248 0.87192 0.0
C2363 C 0.02378 0.3079 0.85371 0.0
C2364 C 0.00766 0.4405 0.92218 0.0
C2365 C 0.00852 0.4246 0.90935 0.0
C2366 C 0.0152 0.37081 0.90932 0.0
C2367 C 0.00762 0.3371 0.86601 0.0
C2368 C 0.00762 0.35487 0.87855 0.0
C2369 C 0.00542 0.40548 0.91612 0.0
C2370 C 0.00673 0.38831 0.90284 0.0
H2371 H 0.97913 0.31377 0.83283 0.0
H2372 H 0.97874 0.34198 0.85417 0.0
H2373 H 0.02189 0.34105 0.90308 0.0
H2374 H 0.99683 0.41561 0.96376 0.0
H2375 H 0.99808 0.38835 0.94158 0.0
C2376 C 0.69266 0.98675 0.8429 0.0
C2377 C 0.70421 0.00368 0.84201 0.0
C2378 C 0.67622 0.98586 0.85498 0.0
C2379 C 0.63985 0.01721 0.87928 0.0
H2380 H 0.62844 0.97107 0.90969 0.0
C2381 C 0.56706 0.00687 0.92209 0.0
C2382 C 0.56915 1.00018 0.94132 0.0
C2383 C 0.58304 0.00684 0.90928 0.0
C2384 C 0.63141 0.98408 0.90129 0.0
H2385 H 0.70766 0.0327 0.85396 0.0
H2386 H 0.67888 0.0312 0.87478 0.0
H2387 H 0.65777 0.97211 0.88956 0.0
H2388 H 0.58965 0.98767 0.96189 0.0
H2389 H 0.61717 0.98749 0.93966 0.0
H2390 H 0.61353 0.02922 0.89117 0.0
C2391 C 0.68247 0.01869 0.86589 0.0
C2392 C 0.64817 0.98462 0.88964 0.0
C2393 C 0.69902 0.01952 0.85395 0.0
C2394 C 0.58745 0.99306 0.94724 0.0
C2395 C 0.60327 0.99281 0.93443 0.0
C2396 C 0.62296 0.01659 0.89078 0.0
C2397 C 0.67073 1.00192 0.86641 0.0
C2398 C 0.65271 1.00126 0.87862 0.0
C2399 C 0.60136 0.99982 0.91533 0.0
C2400 C 0.61863 1.00008 0.90208 0.0
H2401 H 0.69583 0.97437 0.8337 0.0
H2402 H 0.66742 0.97278 0.85487 0.0
H2403 H 0.64277 0.03017 0.87079 0.0
H2404 H 0.55321 0.0125 0.91705 0.0
H2405 H 0.58105 0.01223 0.8946 0.0
C2406 C 0.00894 0.6995 0.8579 0.0
C2407 C 0.99847 0.69912 0.84033 0.0
C2408 C 0.00983 0.68296 0.86983 0.0
C2409 C 0.98598 0.63478 0.87859 0.0
H2410 H 0.03408 0.62354 0.9059 0.0
C2411 C 0.99859 0.56266 0.92133 0.0
C2412 C 0.00627 0.56501 0.94014 0.0
C2413 C 0.99813 0.57841 0.90829 0.0
C2414 C 0.02051 0.62651 0.89842 0.0
H2415 H 0.98104 0.68083 0.82142 0.0
H2416 H 0.98276 0.65211 0.84197 0.0
H2417 H 0.03191 0.65242 0.88543 0.0
H2418 H 0.02017 0.58559 0.95968 0.0
H2419 H 0.01951 0.61271 0.93703 0.0
H2420 H 0.97472 0.60869 0.89153 0.0
C2421 C 0.98987 0.66528 0.84689 0.0
C2422 C 0.01921 0.64317 0.88676 0.0
C2423 C 0.98887 0.68182 0.83506 0.0
C2424 C 0.014 0.58324 0.94536 0.0
C2425 C 0.01377 0.59882 0.93231 0.0
C2426 C 0.98735 0.61803 0.89014 0.0
C2427 C 1.00044 0.66554 0.86442 0.0
C2428 C 1.00187 0.64765 0.87678 0.0
C2429 C 0.00564 0.5967 0.91369 0.0
C2430 C 0.00458 0.61378 0.90034 0.0
H2431 H 0.01641 0.71261 0.86245 0.0
H2432 H 0.01783 0.68389 0.88337 0.0
H2433 H 0.97229 0.63782 0.87139 0.0
H2434 H 0.99246 0.54885 0.91687 0.0
H2435 H 0.99189 0.57628 0.89398 0.0
C2436 C 0.15235 0.30737 0.0227 0.0
C2437 C 0.16414 0.30284 0.00656 0.0
C2438 C 0.14035 0.32387 0.02259 0.0
C2439 C 0.10871 0.35395 0.015 0.0
H2440 H 0.12726 0.4013 0.99047 0.0
C2441 C 0.0573 0.41832 1.00064 0.0
C2442 C 0.06409 0.43744 0.00357 0.0
C2443 C 0.07001 0.40249 1.00123 0.0
C2444 C 0.12192 0.38827 0.99755 0.0
H2445 H 0.17231 0.31232 0.97755 0.0
H2446 H 0.15099 0.34062 0.97714 0.0
H2447 H 0.14814 0.37252 0.99124 0.0
H2448 H 0.08993 0.45472 0.00909 0.0
H2449 H 0.11224 0.42687 0.01029 0.0
H2450 H 0.08267 0.36971 0.02164 0.0
C2451 C 0.15125 0.33158 0.99004 0.0
C2452 C 0.1338 0.37165 0.99777 0.0
C2453 C 0.16326 0.31509 0.99015 0.0
C2454 C 0.08415 0.44025 0.00678 0.0
C2455 C 0.09695 0.42427 0.00741 0.0
C2456 C 0.09687 0.37052 0.01479 0.0
C2457 C 0.13977 0.33633 0.00634 0.0
C2458 C 0.1273 0.3542 0.00638 0.0
C2459 C 0.08997 0.40514 0.00483 0.0
C2460 C 0.1032 0.38787 0.0059 0.0
H2461 H 0.15252 0.29824 0.03554 0.0
H2462 H 0.13186 0.32708 0.03548 0.0
H2463 H 0.10309 0.3408 0.02164 0.0
H2464 H 0.04204 0.41544 0.99784 0.0
H2465 H 0.06413 0.38809 0.99869 0.0
C2466 C 0.16537 0.68741 0.01557 0.0
C2467 C 0.16549 0.70024 0.99958 0.0
C2468 C 0.15368 0.6707 0.01551 0.0
C2469 C 0.13626 0.63069 0.00726 0.0
H2470 H 0.08421 0.63314 0.98562 0.0
C2471 C 0.08573 0.56246 0.99874 0.0
C2472 C 0.06587 0.56542 0.00294 0.0
C2473 C 0.0987 0.57832 0.99802 0.0
C2474 C 0.09868 0.63218 0.99183 0.0
H2475 H 0.15295 0.70553 0.97112 0.0
H2476 H 0.1328 0.67632 0.9709 0.0
H2477 H 0.1046 0.66205 0.98541 0.0
H2478 H 0.04443 0.58748 0.01053 0.0
H2479 H 0.06679 0.61457 0.00948 0.0
H2480 H 0.13001 0.60086 0.01415 0.0
C2481 C 0.14165 0.67926 0.98359 0.0
C2482 C 0.11049 0.64876 0.99149 0.0
C2483 C 0.15335 0.69598 0.98365 0.0
C2484 C 0.0595 0.5845 0.0069 0.0
C2485 C 0.07236 0.60019 0.00621 0.0
C2486 C 0.1244 0.61405 0.00759 0.0
C2487 C 0.14175 0.66629 0.99947 0.0
C2488 C 0.1294 0.64834 0.99936 0.0
C2489 C 0.09208 0.59744 1.00148 0.0
C2490 C 0.10535 0.61465 1.00009 0.0
H2491 H 0.17473 0.68996 0.02798 0.0
H2492 H 0.15396 0.66126 0.02812 0.0
H2493 H 0.15084 0.6297 0.01319 0.0
H2494 H 0.09117 0.54801 0.99562 0.0
H2495 H 0.11381 0.57565 0.9943 0.0
C2496 C 0.31192 0.15207 0.98214 0.0
C2497 C 0.30572 0.16291 0.99839 0.0
C2498 C 0.32858 0.1403 0.98313 0.0
C2499 C 0.36146 0.11525 0.01774 0.0
H2500 H 0.39785 0.11553 0.97452 0.0
C2501 C 0.42227 0.05802 0.00975 0.0
C2502 C 0.44082 0.06397 0.00328 0.0
C2503 C 0.40656 0.07092 0.00985 0.0
C2504 C 0.38793 0.11543 0.98678 0.0
H2505 H 0.31239 0.16959 0.02853 0.0
H2506 H 0.34107 0.14884 0.03033 0.0
H2507 H 0.36862 0.13587 0.97321 0.0
H2508 H 0.45731 0.08841 0.99203 0.0
H2509 H 0.42963 0.11107 0.99211 0.0
H2510 H 0.38071 0.09483 0.03132 0.0
C2511 C 0.33297 0.14936 0.01682 0.0
C2512 C 0.37105 0.1269 0.98594 0.0
C2513 C 0.31639 0.1612 0.01581 0.0
C2514 C 0.44326 0.08335 0.99713 0.0
C2515 C 0.42738 0.09628 0.99705 0.0
C2516 C 0.37824 0.10369 0.01852 0.0
C2517 C 0.33945 0.13895 1.00043 0.0
C2518 C 0.35753 0.12688 1.00136 0.0
C2519 C 0.40881 0.09018 0.00339 0.0
C2520 C 0.39164 0.10351 0.003 0.0
H2521 H 0.30398 0.15277 0.96855 0.0
H2522 H 0.33293 0.13221 0.97033 0.0
H2523 H 0.35135 0.11478 0.02984 0.0
H2524 H 0.41978 0.04327 0.01472 0.0
H2525 H 0.39247 0.06564 0.01461 0.0
C2526 C 0.8522 0.30964 0.0122 0.0
C2527 C 0.8454 0.30271 0.99411 0.0
C2528 C 0.86456 0.32585 0.01324 0.0
C2529 C 0.87465 0.37159 0.99073 0.0
H2530 H 0.92663 0.36905 0.01248 0.0
C2531 C 0.92672 0.43843 0.98918 0.0
C2532 C 0.94131 0.43976 0.0034 0.0
C2533 C 0.91469 0.42192 0.98823 0.0
C2534 C 0.912 0.37028 0.00675 0.0
H2535 H 0.84756 0.3072 0.96284 0.0
H2536 H 0.8682 0.33602 0.96492 0.0
H2537 H 0.90682 0.33971 0.01081 0.0
H2538 H 0.95413 0.42556 0.02837 0.0
H2539 H 0.93247 0.39762 0.02772 0.0
H2540 H 0.87918 0.40219 0.98745 0.0
C2541 C 0.86386 0.32873 0.97821 0.0
C2542 C 0.90076 0.35331 0.00562 0.0
C2543 C 0.8519 0.31225 0.9771 0.0
C2544 C 0.94307 0.42479 0.01716 0.0
C2545 C 0.93076 0.4086 0.01657 0.0
C2546 C 0.88569 0.38869 0.99229 0.0
C2547 C 0.87012 0.3358 0.99629 0.0
C2548 C 0.88203 0.35379 0.99751 0.0
C2549 C 0.91668 0.40657 1.00177 0.0
C2550 C 0.90462 0.38835 1.00028 0.0
H2551 H 0.84739 0.30311 0.02569 0.0
H2552 H 0.86919 0.33106 0.02737 0.0
H2553 H 0.86015 0.37233 0.98455 0.0
H2554 H 0.92524 0.4497 0.97825 0.0
H2555 H 0.90431 0.421 0.97643 0.0
C2556 C 0.69688 0.85266 0.98268 0.0
C2557 C 0.70303 0.84176 0.99891 0.0
C2558 C 0.6803 0.86453 0.98374 0.0
C2559 C 0.64757 0.88965 0.01847 0.0
H2560 H 0.61117 0.88965 0.97531 0.0
C2561 C 0.58684 0.94701 0.01083 0.0
C2562 C 0.56831 0.94114 0.0043 0.0
C2563 C 0.60254 0.93409 0.01087 0.0
C2564 C 0.62109 0.88967 0.98756 0.0
H2565 H 0.69638 0.83508 0.02907 0.0
H2566 H 0.66782 0.85599 0.03096 0.0
H2567 H 0.64032 0.86922 0.9739 0.0
H2568 H 0.55182 0.91679 0.99288 0.0
H2569 H 0.57945 0.89409 0.99289 0.0
H2570 H 0.62837 0.91006 0.03216 0.0
C2571 C 0.67591 0.85545 0.01744 0.0
C2572 C 0.63793 0.87815 0.98665 0.0
C2573 C 0.69241 0.84352 0.01636 0.0
C2574 C 0.56586 0.9218 0.99804 0.0
C2575 C 0.58172 0.90885 0.99792 0.0
C2576 C 0.63082 0.90125 0.01932 0.0
C2577 C 0.66947 0.86592 1.00107 0.0
C2578 C 0.65145 0.87807 1.00206 0.0
C2579 C 0.60027 0.91488 0.0043 0.0
C2580 C 0.61742 0.90153 0.00383 0.0
H2581 H 0.7048 0.85192 0.96907 0.0
H2582 H 0.67598 0.87267 0.97095 0.0
H2583 H 0.65768 0.89005 0.03055 0.0
H2584 H 0.58934 0.96173 0.01587 0.0
H2585 H 0.61662 0.93933 0.01567 0.0
C2586 C 0.84609 0.69125 0.98794 0.0
C2587 C 0.84423 0.70179 0.00541 0.0
C2588 C 0.8581 0.67481 0.98686 0.0
C2589 C 0.88058 0.63676 0.0176 0.0
H2590 H 0.91289 0.62737 0.97228 0.0
C2591 C 0.92374 0.56455 0.00596 0.0
C2592 C 0.94319 0.56684 0.99986 0.0
C2593 C 0.91094 0.58052 0.00613 0.0
C2594 C 0.90396 0.62977 0.98506 0.0
H2595 H 0.85433 0.70348 0.03527 0.0
H2596 H 0.87517 0.67476 0.03338 0.0
H2597 H 0.89294 0.65671 0.97389 0.0
H2598 H 0.96417 0.58773 0.98867 0.0
H2599 H 0.94201 0.61522 0.98894 0.0
H2600 H 0.89186 0.6099 0.02887 0.0
C2601 C 0.86706 0.67911 0.02059 0.0
C2602 C 0.89241 0.64654 0.98592 0.0
C2603 C 0.85513 0.69563 0.02164 0.0
C2604 C 0.94935 0.58535 0.99357 0.0
C2605 C 0.93657 0.60116 0.99357 0.0
C2606 C 0.89204 0.61989 0.01668 0.0
C2607 C 0.86853 0.66835 0.00324 0.0
C2608 C 0.88068 0.65035 0.00226 0.0
C2609 C 0.91725 0.59904 0.99996 0.0
C2610 C 0.90403 0.61628 1.00047 0.0
H2611 H 0.83766 0.69521 0.97523 0.0
H2612 H 0.85871 0.66678 0.97332 0.0
H2613 H 0.87153 0.6391 0.0303 0.0
H2614 H 0.91852 0.55054 0.01095 0.0
H2615 H 0.89609 0.57836 0.01102 0.0
C2616 C 0.31695 0.84329 0.98638 0.0
C2617 C 0.30548 0.84248 0.00337 0.0
C2618 C 0.33352 0.85515 0.98545 0.0
C2619 C 0.37018 0.87919 0.01668 0.0
H2620 H 0.38168 0.90933 0.9704 0.0
C2621 C 0.44287 0.92212 0.00636 0.0
C2622 C 0.4407 0.9413 0.99952 0.0
C2623 C 0.42697 0.90922 0.00632 0.0
C2624 C 0.37869 0.901 0.98344 0.0
H2625 H 0.30232 0.85431 0.03248 0.0
H2626 H 0.3313 0.87482 0.03087 0.0
H2627 H 0.35229 0.88936 0.97156 0.0
H2628 H 0.42015 0.96165 0.98671 0.0
H2629 H 0.39278 0.9393 0.98656 0.0
H2630 H 0.39651 0.89106 0.02863 0.0
C2631 C 0.32756 0.86602 0.01835 0.0
C2632 C 0.3619 0.88944 0.98406 0.0
C2633 C 0.31089 0.85426 0.01925 0.0
C2634 C 0.42241 0.94706 0.99223 0.0
C2635 C 0.40668 0.93417 0.99198 0.0
C2636 C 0.38709 0.89063 0.016 0.0
C2637 C 0.33921 0.86646 1.00151 0.0
C2638 C 0.35731 0.87852 1.00075 0.0
C2639 C 0.40866 0.91514 0.99915 0.0
C2640 C 0.39145 0.90184 0.99944 0.0
H2641 H 0.31359 0.83418 0.97398 0.0
H2642 H 0.34225 0.85498 0.97231 0.0
H2643 H 0.36723 0.87077 0.02968 0.0
H2644 H 0.45671 0.91721 0.01212 0.0
H2645 H 0.42901 0.8946 0.01183 0.0
C2646 C 0.69205 0.16202 0.98601 0.0
C2647 C 0.70378 0.1626 0.00282 0.0
C2648 C 0.67549 0.15012 0.98519 0.0
C2649 C 0.63928 0.12569 0.01667 0.0
H2650 H 0.62728 0.09588 0.97035 0.0
C2651 C 0.56642 0.0829 0.0068 0.0
C2652 C 0.56855 0.06373 0.99994 0.0
C2653 C 0.58234 0.09578 0.00668 0.0
C2654 C 0.63041 0.10412 0.9834 0.0
H2655 H 0.70742 0.1503 0.03168 0.0
H2656 H 0.67845 0.12978 0.03028 0.0
H2657 H 0.65666 0.11589 0.97126 0.0
H2658 H 0.58901 0.04337 0.98701 0.0
H2659 H 0.61641 0.06571 0.98668 0.0
H2660 H 0.61308 0.11372 0.02887 0.0
C2661 C 0.68198 0.13877 0.01783 0.0
C2662 C 0.6472 0.1157 0.98387 0.0
C2663 C 0.69865 0.15055 0.0186 0.0
C2664 C 0.5868 0.05796 0.99255 0.0
C2665 C 0.60254 0.07084 0.99221 0.0
C2666 C 0.62236 0.11425 0.01613 0.0
C2667 C 0.67007 0.13856 1.00119 0.0
C2668 C 0.65197 0.12649 1.00058 0.0
C2669 C 0.60061 0.08986 0.99939 0.0
C2670 C 0.61782 0.10315 0.99955 0.0
H2671 H 0.69519 0.17132 0.97369 0.0
H2672 H 0.66656 0.15046 0.97221 0.0
H2673 H 0.64238 0.134 0.02969 0.0
H2674 H 0.5526 0.08781 0.01265 0.0
H2675 H 0.58034 0.1104 0.01222 0.0
C2676 C 0.48953 0.66913 0.82211 0.0
C2677 C 0.49921 0.66397 0.80479 0.0
C2678 C 0.49037 0.65711 0.83852 0.0
C2679 C 0.49934 0.60659 0.854 0.0
H2680 H 0.50879 0.62944 0.90471 0.0
C2681 C 0.51373 0.55823 0.92073 0.0
C2682 C 0.50595 0.56373 0.93886 0.0
C2683 C 0.51332 0.57095 0.90489 0.0
C2684 C 0.50586 0.62281 0.89073 0.0
H2685 H 0.51725 0.64196 0.7912 0.0
H2686 H 0.51859 0.62082 0.81988 0.0
H2687 H 0.50701 0.65031 0.876 0.0
H2688 H 0.492 0.5872 0.9546 0.0
H2689 H 0.49084 0.6094 0.92672 0.0
H2690 H 0.49778 0.57917 0.86859 0.0
C2691 C 0.51031 0.63422 0.82068 0.0
C2692 C 0.50491 0.63479 0.87424 0.0
C2693 C 0.50964 0.64636 0.80429 0.0
C2694 C 0.49818 0.58254 0.94086 0.0
C2695 C 0.49756 0.59527 0.92486 0.0
C2696 C 0.50012 0.59464 0.87047 0.0
C2697 C 0.5008 0.63952 0.83806 0.0
C2698 C 0.50174 0.62681 0.85565 0.0
C2699 C 0.50489 0.58953 0.90655 0.0
C2700 C 0.50355 0.60252 0.88909 0.0
H2701 H 0.48163 0.68273 0.82314 0.0
H2702 H 0.48275 0.66157 0.85159 0.0
H2703 H 0.49654 0.59999 0.83997 0.0
H2704 H 0.52014 0.54398 0.91869 0.0
H2705 H 0.51965 0.56613 0.89129 0.0
C2706 C 0.34456 0.48996 0.81503 0.0
C2707 C 0.34347 0.50649 0.80297 0.0
C2708 C 0.35657 0.4898 0.8315 0.0
C2709 C 0.37389 0.49733 0.87164 0.0
H2710 H 0.42481 0.52159 0.86987 0.0
C2711 C 0.42348 0.50606 0.94023 0.0
C2712 C 0.44355 0.50294 0.93738 0.0
C2713 C 0.41067 0.50676 0.92428 0.0
C2714 C 0.41067 0.51464 0.87063 0.0
H2715 H 0.3547 0.53567 0.79869 0.0
H2716 H 0.37539 0.53551 0.8275 0.0
H2717 H 0.40437 0.52174 0.84099 0.0
H2718 H 0.46563 0.49748 0.91531 0.0
H2719 H 0.44353 0.49848 0.88799 0.0
H2720 H 0.3805 0.48979 0.9012 0.0
C2721 C 0.36705 0.52257 0.82415 0.0
C2722 C 0.39883 0.51493 0.85407 0.0
C2723 C 0.35504 0.52272 0.80766 0.0
C2724 C 0.45036 0.50019 0.91823 0.0
C2725 C 0.43764 0.50087 0.90242 0.0
C2726 C 0.38577 0.49704 0.88824 0.0
C2727 C 0.36784 0.50618 0.83642 0.0
C2728 C 0.38031 0.50616 0.85427 0.0
C2729 C 0.41766 0.50437 0.90513 0.0
C2730 C 0.40442 0.50552 0.88789 0.0
H2731 H 0.33567 0.47728 0.81212 0.0
H2732 H 0.35699 0.47681 0.8404 0.0
H2733 H 0.3596 0.49068 0.87246 0.0
H2734 H 0.41768 0.50823 0.95473 0.0
H2735 H 0.39537 0.50957 0.92692 0.0
C2736 C 0.48377 0.35332 0.80832 0.0
C2737 C 0.49973 0.34117 0.80414 0.0
C2738 C 0.48375 0.36516 0.82492 0.0
C2739 C 0.50758 0.37079 0.87328 0.0
H2740 H 0.48623 0.42291 0.87062 0.0
C2741 C 0.4997 0.42129 0.94127 0.0
C2742 C 0.50407 0.44108 0.93833 0.0
C2743 C 0.49875 0.40841 0.92541 0.0
C2744 C 0.49236 0.40842 0.87163 0.0
H2745 H 0.52822 0.33203 0.81439 0.0
H2746 H 0.52845 0.35306 0.84283 0.0
H2747 H 0.48579 0.40237 0.84182 0.0
H2748 H 0.5116 0.46253 0.91629 0.0
H2749 H 0.51018 0.44027 0.88913 0.0
H2750 H 0.51464 0.37714 0.90301 0.0
C2751 C 0.51578 0.35325 0.83345 0.0
C2752 C 0.49189 0.39653 0.85512 0.0
C2753 C 0.51579 0.34141 0.81689 0.0
C2754 C 0.5079 0.44749 0.91924 0.0
C2755 C 0.50698 0.4347 0.90353 0.0
C2756 C 0.50806 0.38271 0.88983 0.0
C2757 C 0.4997 0.36517 0.8378 0.0
C2758 C 0.49965 0.37761 0.85564 0.0
C2759 C 0.50214 0.41504 0.9063 0.0
C2760 C 0.50065 0.40178 0.88915 0.0
H2761 H 0.47119 0.35361 0.79882 0.0
H2762 H 0.47104 0.37403 0.82784 0.0
H2763 H 0.51343 0.3562 0.87434 0.0
H2764 H 0.49665 0.41582 0.95573 0.0
H2765 H 0.49492 0.39336 0.92808 0.0
C2766 C 0.66394 0.51695 0.8154 0.0
C2767 C 0.66497 0.49985 0.80415 0.0
C2768 C 0.65231 0.51778 0.83213 0.0
C2769 C 0.62912 0.48648 0.86941 0.0
H2770 H 0.59824 0.5324 0.88047 0.0
C2771 C 0.58551 0.49683 0.94181 0.0
C2772 C 0.56623 0.50336 0.93938 0.0
C2773 C 0.59859 0.49688 0.92603 0.0
C2774 C 0.60679 0.51946 0.87762 0.0
H2775 H 0.65385 0.47041 0.80158 0.0
H2776 H 0.63368 0.47187 0.83082 0.0
H2777 H 0.61815 0.53125 0.85108 0.0
H2778 H 0.54588 0.51561 0.91849 0.0
H2779 H 0.56849 0.51579 0.8914 0.0
H2780 H 0.61745 0.4746 0.89587 0.0
C2781 C 0.64214 0.48455 0.82679 0.0
C2782 C 0.61832 0.51885 0.86081 0.0
C2783 C 0.65369 0.48374 0.80997 0.0
C2784 C 0.56055 0.51034 0.92097 0.0
C2785 C 0.57359 0.5106 0.90539 0.0
C2786 C 0.61768 0.48715 0.88633 0.0
C2787 C 0.64144 0.50153 0.8382 0.0
C2788 C 0.62949 0.50228 0.85637 0.0
C2789 C 0.59274 0.50377 0.90761 0.0
C2790 C 0.60619 0.50356 0.89052 0.0
H2791 H 0.67269 0.52953 0.81172 0.0
H2792 H 0.65229 0.53103 0.84066 0.0
H2793 H 0.63773 0.47358 0.86658 0.0
H2794 H 0.59037 0.49133 0.95575 0.0
H2795 H 0.6133 0.49162 0.92825 0.0
C2796 C 0.50682 0.35837 0.20047 0.0
C2797 C 0.49658 0.34067 0.20004 0.0
C2798 C 0.50763 0.37034 0.18394 0.0
C2799 C 0.48386 0.37864 0.13558 0.0
H2800 H 0.53129 0.40731 0.1248 0.0
C2801 C 0.49639 0.42161 0.06345 0.0
C2802 C 0.50355 0.44063 0.06586 0.0
C2803 C 0.49593 0.40863 0.07926 0.0
C2804 C 0.51791 0.39945 0.12764 0.0
H2805 H 0.47955 0.3215 0.18164 0.0
H2806 H 0.48118 0.34205 0.15294 0.0
H2807 H 0.52941 0.38674 0.15362 0.0
H2808 H 0.51643 0.46063 0.08664 0.0
H2809 H 0.5158 0.43809 0.11385 0.0
H2810 H 0.47251 0.39128 0.10938 0.0
C2811 C 0.48814 0.34709 0.16614 0.0
C2812 C 0.51677 0.38772 0.14427 0.0
C2813 C 0.48719 0.33525 0.18267 0.0
C2814 C 0.51068 0.44616 0.08424 0.0
C2815 C 0.51047 0.43316 0.09987 0.0
C2816 C 0.48508 0.39024 0.11884 0.0
C2817 C 0.49841 0.3648 0.16646 0.0
C2818 C 0.49967 0.37724 0.14859 0.0
C2819 C 0.50294 0.4143 0.09767 0.0
C2820 C 0.50206 0.40093 0.11476 0.0
H2821 H 0.51413 0.36303 0.21362 0.0
H2822 H 0.5154 0.38401 0.18493 0.0
H2823 H 0.47033 0.37108 0.13848 0.0
H2824 H 0.49075 0.41691 0.04952 0.0
H2825 H 0.49015 0.39413 0.07706 0.0
C2826 C 0.65126 0.5192 0.19643 0.0
C2827 C 0.66303 0.50329 0.20178 0.0
C2828 C 0.63942 0.51836 0.17985 0.0
C2829 C 0.61558 0.48434 0.14576 0.0
H2830 H 0.61489 0.5287 0.11083 0.0
C2831 C 0.55819 0.49346 0.08517 0.0
C2832 C 0.56429 0.50026 0.06682 0.0
C2833 C 0.57101 0.49307 0.10093 0.0
C2834 C 0.61506 0.51614 0.12035 0.0
H2835 H 0.67117 0.47383 0.19373 0.0
H2836 H 0.65018 0.47223 0.16524 0.0
H2837 H 0.63514 0.52957 0.1401 0.0
H2838 H 0.58885 0.51186 0.05073 0.0
H2839 H 0.61132 0.51138 0.07851 0.0
H2840 H 0.59542 0.47096 0.12609 0.0
C2841 C 0.65012 0.48538 0.17392 0.0
C2842 C 0.62648 0.51672 0.13724 0.0
C2843 C 0.66209 0.48627 0.1904 0.0
C2844 C 0.58369 0.5065 0.06463 0.0
C2845 C 0.59651 0.50634 0.08056 0.0
C2846 C 0.60402 0.48385 0.12899 0.0
C2847 C 0.63887 0.50151 0.16826 0.0
C2848 C 0.62681 0.50086 0.15021 0.0
C2849 C 0.59028 0.49963 0.09892 0.0
C2850 C 0.60352 0.49977 0.11612 0.0
H2851 H 0.65131 0.53245 0.20496 0.0
H2852 H 0.63066 0.53092 0.17611 0.0
H2853 H 0.61543 0.47191 0.15545 0.0
H2854 H 0.54341 0.4884 0.08744 0.0
H2855 H 0.56566 0.488 0.11487 0.0
C2856 C 0.49731 0.64717 0.19975 0.0
C2857 C 0.50796 0.66463 0.19924 0.0
C2858 C 0.49684 0.63485 0.18349 0.0
C2859 C 0.50302 0.63481 0.13013 0.0
H2860 H 0.5103 0.57927 0.13642 0.0
C2861 C 0.51036 0.58217 0.06404 0.0
C2862 C 0.50266 0.56334 0.06613 0.0
C2863 C 0.51089 0.59496 0.07998 0.0
C2864 C 0.50792 0.5947 0.13435 0.0
H2865 H 0.52615 0.68299 0.18106 0.0
H2866 H 0.52532 0.66155 0.15282 0.0
H2867 H 0.51114 0.60036 0.16485 0.0
H2868 H 0.48859 0.54357 0.08637 0.0
H2869 H 0.48889 0.56585 0.11366 0.0
H2870 H 0.49943 0.62917 0.09969 0.0
C2871 C 0.51739 0.65733 0.16579 0.0
C2872 C 0.50847 0.6068 0.15071 0.0
C2873 C 0.51805 0.6695 0.18208 0.0
C2874 C 0.49493 0.55786 0.08428 0.0
C2875 C 0.49523 0.57064 0.10005 0.0
C2876 C 0.50226 0.62267 0.11376 0.0
C2877 C 0.50676 0.63987 0.16626 0.0
C2878 C 0.50603 0.627 0.14882 0.0
C2879 C 0.50353 0.58927 0.09829 0.0
C2880 C 0.50464 0.60241 0.11563 0.0
H2881 H 0.48938 0.64301 0.21273 0.0
H2882 H 0.48841 0.62155 0.18428 0.0
H2883 H 0.50089 0.6503 0.1282 0.0
H2884 H 0.51651 0.58682 0.05028 0.0
H2885 H 0.51754 0.60912 0.07804 0.0
C2886 C 0.35001 0.4755 0.19085 0.0
C2887 C 0.344 0.49243 0.20082 0.0
C2888 C 0.36215 0.47669 0.17449 0.0
C2889 C 0.40018 0.50353 0.15097 0.0
H2890 H 0.3784 0.48762 0.10144 0.0
C2891 C 0.44343 0.51588 0.08013 0.0
C2892 C 0.4413 0.50269 0.06471 0.0
C2893 C 0.431 0.51517 0.09624 0.0
C2894 C 0.38496 0.49182 0.11511 0.0
H2895 H 0.34705 0.52393 0.20133 0.0
H2896 H 0.36916 0.52569 0.17359 0.0
H2897 H 0.35902 0.48447 0.13106 0.0
H2898 H 0.42447 0.47842 0.05391 0.0
H2899 H 0.4033 0.47635 0.08245 0.0
H2900 H 0.42642 0.50996 0.13561 0.0
C2901 C 0.364 0.51158 0.17837 0.0
C2902 C 0.37373 0.49012 0.13208 0.0
C2903 C 0.35146 0.51048 0.19445 0.0
C2904 C 0.42624 0.48892 0.06553 0.0
C2905 C 0.41408 0.48782 0.08194 0.0
C2906 C 0.41161 0.50478 0.13412 0.0
C2907 C 0.36908 0.49475 0.16799 0.0
C2908 C 0.38119 0.49609 0.15013 0.0
C2909 C 0.41641 0.50079 0.09773 0.0
C2910 C 0.40416 0.49913 0.11582 0.0
H2911 H 0.34514 0.46125 0.19546 0.0
H2912 H 0.3661 0.46347 0.16687 0.0
H2913 H 0.40631 0.50808 0.16476 0.0
H2914 H 0.45486 0.52676 0.07977 0.0
H2915 H 0.43301 0.5259 0.10757 0.0
C2916 C 0.81049 0.52018 0.65052 0.0
C2917 C 0.80475 0.504 0.66173 0.0
C2918 C 0.82717 0.51939 0.63875 0.0
C2919 C 0.86087 0.48518 0.61426 0.0
H2920 H 0.8963 0.52916 0.6138 0.0
C2921 C 0.92166 0.49351 0.55696 0.0
C2922 C 0.94008 0.50031 0.56289 0.0
C2923 C 0.90588 0.49336 0.56981 0.0
C2924 C 0.88665 0.51669 0.61391 0.0
H2925 H 0.81228 0.4742 0.66904 0.0
H2926 H 0.84096 0.47273 0.64825 0.0
H2927 H 0.86703 0.53018 0.63413 0.0
H2928 H 0.95627 0.51213 0.58722 0.0
H2929 H 0.92849 0.51197 0.60978 0.0
H2930 H 0.88043 0.4717 0.59405 0.0
C2931 C 0.83249 0.48602 0.6485 0.0
C2932 C 0.86974 0.51736 0.62537 0.0
C2933 C 0.8159 0.48685 0.66037 0.0
C2934 C 0.94233 0.50676 0.58218 0.0
C2935 C 0.92638 0.5068 0.59505 0.0
C2936 C 0.87767 0.48457 0.6027 0.0
C2937 C 0.83849 0.50236 0.63773 0.0
C2938 C 0.85658 0.50165 0.62563 0.0
C2939 C 0.90795 0.5001 0.58898 0.0
C2940 C 0.89073 0.50036 0.60227 0.0
H2941 H 0.80217 0.53357 0.65093 0.0
H2942 H 0.83116 0.53214 0.63037 0.0
H2943 H 0.85104 0.47286 0.61401 0.0
H2944 H 0.91931 0.48831 0.54228 0.0
H2945 H 0.89189 0.48831 0.56455 0.0
C2946 C 0.49893 0.80415 0.64634 0.0
C2947 C 0.50925 0.80477 0.664 0.0
C2948 C 0.49821 0.8205 0.63414 0.0
C2949 C 0.50318 0.87409 0.63455 0.0
H2950 H 0.51095 0.86833 0.57903 0.0
C2951 C 0.50999 0.94066 0.5823 0.0
C2952 C 0.50246 0.93859 0.5634 0.0
C2953 C 0.5106 0.92466 0.59503 0.0
C2954 C 0.50843 0.87024 0.59446 0.0
H2955 H 0.52656 0.82331 0.68279 0.0
H2956 H 0.52534 0.85169 0.66154 0.0
H2957 H 0.51217 0.83977 0.59994 0.0
H2958 H 0.4887 0.91833 0.54348 0.0
H2959 H 0.48919 0.8909 0.56564 0.0
H2960 H 0.49914 0.90452 0.62908 0.0
C2961 C 0.51785 0.83856 0.65709 0.0
C2962 C 0.50919 0.8538 0.60647 0.0
C2963 C 0.51875 0.82218 0.66916 0.0
C2964 C 0.49494 0.9204 0.55781 0.0
C2965 C 0.49534 0.90456 0.57053 0.0
C2966 C 0.50223 0.89054 0.62251 0.0
C2967 C 0.50755 0.83796 0.63944 0.0
C2968 C 0.50658 0.8555 0.62666 0.0
C2969 C 0.5035 0.90629 0.58921 0.0
C2970 C 0.50479 0.88886 0.60226 0.0
H2971 H 0.49145 0.79099 0.64194 0.0
H2972 H 0.49003 0.8196 0.6207 0.0
H2973 H 0.5009 0.87588 0.65004 0.0
H2974 H 0.51597 0.95445 0.58703 0.0
H2975 H 0.51713 0.92658 0.60923 0.0
C2976 C 0.19629 0.4827 0.65175 0.0
C2977 C 0.20231 0.49883 0.66286 0.0
C2978 C 0.17971 0.48377 0.6399 0.0
C2979 C 0.14677 0.51851 0.61512 0.0
H2980 H 0.11065 0.4751 0.61473 0.0
C2981 C 0.08628 0.51078 0.55755 0.0
C2982 C 0.06776 0.50413 0.56336 0.0
C2983 C 0.10193 0.51087 0.57051 0.0
C2984 C 0.12049 0.48742 0.61482 0.0
H2985 H 0.19542 0.52884 0.6699 0.0
H2986 H 0.16687 0.53079 0.64899 0.0
H2987 H 0.13976 0.47371 0.63519 0.0
H2988 H 0.05125 0.49251 0.58763 0.0
H2989 H 0.07881 0.49258 0.61039 0.0
H2990 H 0.12754 0.53223 0.59477 0.0
C2991 C 0.17506 0.51732 0.64938 0.0
C2992 C 0.13731 0.48652 0.62636 0.0
C2993 C 0.19156 0.51622 0.66131 0.0
C2994 C 0.06528 0.49778 0.58267 0.0
C2995 C 0.08109 0.49769 0.59566 0.0
C2996 C 0.13004 0.51934 0.6035 0.0
C2997 C 0.16875 0.50103 0.63872 0.0
C2998 C 0.15073 0.50202 0.62658 0.0
C2999 C 0.09963 0.50421 0.58969 0.0
C3000 C 0.11675 0.50376 0.60308 0.0
H3001 H 0.20431 0.46914 0.65231 0.0
H3002 H 0.17549 0.47106 0.63161 0.0
H3003 H 0.1568 0.53067 0.61484 0.0
H3004 H 0.0888 0.5159 0.54285 0.0
H3005 H 0.11601 0.51578 0.56533 0.0
C3006 C 0.48634 0.1812 0.67036 0.0
C3007 C 0.4955 0.19872 0.66498 0.0
C3008 C 0.48697 0.16493 0.65813 0.0
C3009 C 0.49447 0.15009 0.60716 0.0
H3010 H 0.5063 0.09951 0.62926 0.0
C3011 C 0.51028 0.08436 0.55798 0.0
C3012 C 0.50325 0.06593 0.56348 0.0
C3013 C 0.50947 0.10008 0.5708 0.0
C3014 C 0.5027 0.11345 0.62285 0.0
H3015 H 0.51227 0.2129 0.64233 0.0
H3016 H 0.51326 0.1845 0.62087 0.0
H3017 H 0.50424 0.12796 0.65042 0.0
H3018 H 0.49017 0.04954 0.58703 0.0
H3019 H 0.48834 0.07719 0.60943 0.0
H3020 H 0.4926 0.1357 0.57968 0.0
C3021 C 0.50556 0.18339 0.63459 0.0
C3022 C 0.50157 0.12979 0.635 0.0
C3023 C 0.50509 0.19963 0.64692 0.0
C3024 C 0.49578 0.06352 0.58237 0.0
C3025 C 0.49478 0.07939 0.59521 0.0
C3026 C 0.49543 0.13376 0.59505 0.0
C3027 C 0.49665 0.16579 0.64013 0.0
C3028 C 0.49757 0.14833 0.62728 0.0
C3029 C 0.50139 0.09797 0.58949 0.0
C3030 C 0.49974 0.11521 0.60267 0.0
H3031 H 0.47908 0.17986 0.68429 0.0
H3032 H 0.47981 0.15167 0.66277 0.0
H3033 H 0.49103 0.16409 0.60078 0.0
H3034 H 0.51645 0.08671 0.54366 0.0
H3035 H 0.51524 0.11393 0.566 0.0
C3036 C 0.81821 0.51499 0.34141 0.0
C3037 C 0.80562 0.49881 0.34099 0.0
C3038 C 0.83489 0.51498 0.35313 0.0
C3039 C 0.87505 0.50685 0.37033 0.0
H3040 H 0.87281 0.48464 0.42209 0.0
C3041 C 0.94347 0.4983 0.4205 0.0
C3042 C 0.94054 0.5024 0.44035 0.0
C3043 C 0.92756 0.49755 0.40761 0.0
C3044 C 0.87371 0.491 0.4077 0.0
H3045 H 0.8007 0.47006 0.35303 0.0
H3046 H 0.82987 0.46993 0.37326 0.0
H3047 H 0.84384 0.48438 0.40173 0.0
H3048 H 0.91846 0.50967 0.46189 0.0
H3049 H 0.89126 0.50855 0.43966 0.0
H3050 H 0.90486 0.51392 0.37661 0.0
C3051 C 0.82676 0.48273 0.36462 0.0
C3052 C 0.8571 0.49064 0.39591 0.0
C3053 C 0.81007 0.48274 0.35288 0.0
C3054 C 0.92142 0.50617 0.44681 0.0
C3055 C 0.90567 0.50542 0.43403 0.0
C3056 C 0.89171 0.50719 0.38215 0.0
C3057 C 0.83951 0.49879 0.36478 0.0
C3058 C 0.85746 0.49871 0.37712 0.0
C3059 C 0.90842 0.50085 0.41431 0.0
C3060 C 0.89118 0.49948 0.4011 0.0
H3061 H 0.8155 0.52751 0.33224 0.0
H3062 H 0.84417 0.52772 0.35307 0.0
H3063 H 0.87598 0.51294 0.35583 0.0
H3064 H 0.95795 0.49532 0.41499 0.0
H3065 H 0.93021 0.49394 0.39251 0.0
C3066 C 0.51114 0.8048 0.35755 0.0
C3067 C 0.50024 0.80514 0.34024 0.0
C3068 C 0.51163 0.8211 0.36981 0.0
C3069 C 0.505 0.87441 0.36969 0.0
H3070 H 0.4988 0.86835 0.42538 0.0
C3071 C 0.49789 0.94068 0.42213 0.0
C3072 C 0.50592 0.93876 0.44084 0.0
C3073 C 0.49736 0.92469 0.40941 0.0
C3074 C 0.50088 0.87035 0.40989 0.0
H3075 H 0.48162 0.82307 0.3221 0.0
H3076 H 0.48248 0.85139 0.34344 0.0
H3077 H 0.49781 0.8398 0.40446 0.0
H3078 H 0.5206 0.91881 0.46043 0.0
H3079 H 0.52028 0.89142 0.43826 0.0
H3080 H 0.50842 0.90492 0.3751 0.0
C3081 C 0.49058 0.83852 0.34759 0.0
C3082 C 0.50024 0.85393 0.39789 0.0
C3083 C 0.4899 0.82218 0.33548 0.0
C3084 C 0.514 0.92075 0.44625 0.0
C3085 C 0.51369 0.90493 0.43353 0.0
C3086 C 0.50585 0.89086 0.38172 0.0
C3087 C 0.50149 0.83822 0.36488 0.0
C3088 C 0.50229 0.85574 0.37764 0.0
C3089 C 0.50504 0.90649 0.41505 0.0
C3090 C 0.50385 0.88907 0.40203 0.0
H3091 H 0.51926 0.79192 0.36162 0.0
H3092 H 0.52027 0.82045 0.38297 0.0
H3093 H 0.50683 0.87628 0.35415 0.0
H3094 H 0.49146 0.95433 0.41756 0.0
H3095 H 0.49044 0.92647 0.39538 0.0
C3096 C 0.19227 0.48664 0.34266 0.0
C3097 C 0.20387 0.50354 0.34196 0.0
C3098 C 0.17574 0.48573 0.35461 0.0
C3099 C 0.13934 0.51704 0.37898 0.0
H3100 H 0.12758 0.47063 0.40883 0.0
C3101 C 0.06642 0.50668 0.42162 0.0
C3102 C 0.06849 0.49974 0.44077 0.0
C3103 C 0.08239 0.50669 0.40879 0.0
C3104 C 0.13064 0.48371 0.40058 0.0
H3105 H 0.20733 0.53248 0.35409 0.0
H3106 H 0.1784 0.53094 0.37471 0.0
H3107 H 0.15699 0.47175 0.38886 0.0
H3108 H 0.08893 0.48683 0.46116 0.0
H3109 H 0.11641 0.48673 0.43892 0.0
H3110 H 0.11304 0.52905 0.39091 0.0
C3111 C 0.18201 0.51847 0.36577 0.0
C3112 C 0.14745 0.4843 0.38903 0.0
C3113 C 0.19865 0.51933 0.35394 0.0
C3114 C 0.08674 0.49241 0.44658 0.0
C3115 C 0.10254 0.49221 0.43376 0.0
C3116 C 0.1224 0.51638 0.39041 0.0
C3117 C 0.17022 0.50174 0.36611 0.0
C3118 C 0.15213 0.50103 0.37821 0.0
C3119 C 0.10067 0.49947 0.41475 0.0
C3120 C 0.11794 0.49977 0.40151 0.0
H3121 H 0.19547 0.4743 0.33341 0.0
H3122 H 0.1669 0.47268 0.35435 0.0
H3123 H 0.14236 0.53007 0.37065 0.0
H3124 H 0.0526 0.51248 0.41668 0.0
H3125 H 0.08043 0.51227 0.39419 0.0
C3126 C 0.50134 0.2006 0.35796 0.0
C3127 C 0.51101 0.19973 0.33993 0.0
C3128 C 0.50058 0.18424 0.37016 0.0
C3129 C 0.50424 0.13049 0.36947 0.0
H3130 H 0.51331 0.13603 0.4248 0.0
C3131 C 0.51057 0.06382 0.42173 0.0
C3132 C 0.50323 0.06608 0.4407 0.0
C3133 C 0.51137 0.07978 0.40895 0.0
C3134 C 0.51044 0.13418 0.40943 0.0
H3135 H 0.52711 0.18074 0.32049 0.0
H3136 H 0.52588 0.15238 0.34175 0.0
H3137 H 0.51477 0.16456 0.40387 0.0
H3138 H 0.49006 0.08671 0.46069 0.0
H3139 H 0.49092 0.11404 0.43847 0.0
H3140 H 0.49964 0.10014 0.37504 0.0
C3141 C 0.51891 0.1657 0.34649 0.0
C3142 C 0.51133 0.15061 0.39741 0.0
C3143 C 0.51983 0.18207 0.33441 0.0
C3144 C 0.49612 0.08445 0.44631 0.0
C3145 C 0.49674 0.10024 0.43355 0.0
C3146 C 0.50319 0.11405 0.38152 0.0
C3147 C 0.50925 0.16654 0.3645 0.0
C3148 C 0.50822 0.149 0.37728 0.0
C3149 C 0.5047 0.0983 0.4148 0.0
C3150 C 0.5062 0.11567 0.40171 0.0
H3151 H 0.4944 0.21395 0.36266 0.0
H3152 H 0.49289 0.18535 0.38388 0.0
H3153 H 0.50156 0.12875 0.35404 0.0
H3154 H 0.51622 0.0499 0.41696 0.0
H3155 H 0.51771 0.0777 0.39467 0.0
C3156 C 0.65419 0.81034 0.52254 0.0
C3157 C 0.66497 0.80414 0.50623 0.0
C3158 C 0.6425 0.82706 0.52166 0.0
C3159 C 0.61744 0.86008 0.48719 0.0
H3160 H 0.6177 0.89626 0.53049 0.0
C3161 C 0.55996 0.92057 0.49537 0.0
C3162 C 0.56583 0.93913 0.50175 0.0
C3163 C 0.57295 0.90493 0.49528 0.0
C3164 C 0.61761 0.8864 0.5182 0.0
H3165 H 0.67164 0.81094 0.4761 0.0
H3166 H 0.65103 0.83971 0.47448 0.0
H3167 H 0.63808 0.86706 0.53171 0.0
H3168 H 0.59024 0.95572 0.51291 0.0
H3169 H 0.61306 0.92815 0.51291 0.0
H3170 H 0.59697 0.87934 0.47368 0.0
C3171 C 0.65153 0.83155 0.48796 0.0
C3172 C 0.6291 0.86953 0.519 0.0
C3173 C 0.66329 0.81491 0.48887 0.0
C3174 C 0.58523 0.94165 0.50788 0.0
C3175 C 0.59825 0.92583 0.50799 0.0
C3176 C 0.60586 0.87684 0.48646 0.0
C3177 C 0.64116 0.838 0.5044 0.0
C3178 C 0.62909 0.85609 0.50353 0.0
C3179 C 0.59223 0.90727 0.50169 0.0
C3180 C 0.60566 0.89016 0.50201 0.0
H3181 H 0.65485 0.80233 0.53609 0.0
H3182 H 0.63445 0.83138 0.5345 0.0
H3183 H 0.61696 0.85003 0.47506 0.0
H3184 H 0.54521 0.91799 0.49041 0.0
H3185 H 0.56771 0.89084 0.49056 0.0
C3186 C 0.65247 0.19583 0.48373 0.0
C3187 C 0.66363 0.20162 0.49991 0.0
C3188 C 0.64064 0.17923 0.48458 0.0
C3189 C 0.61581 0.14587 0.5188 0.0
H3190 H 0.61592 0.11012 0.47514 0.0
C3191 C 0.5585 0.08519 0.51014 0.0
C3192 C 0.56458 0.06673 0.50366 0.0
C3193 C 0.57135 0.10093 0.51036 0.0
C3194 C 0.61586 0.11986 0.48752 0.0
H3195 H 0.67078 0.19428 0.52979 0.0
H3196 H 0.64987 0.16572 0.53137 0.0
H3197 H 0.63628 0.13932 0.47409 0.0
H3198 H 0.58919 0.05041 0.49249 0.0
H3199 H 0.61176 0.07814 0.49273 0.0
H3200 H 0.59537 0.12648 0.53221 0.0
C3201 C 0.65022 0.1741 0.51802 0.0
C3202 C 0.62735 0.13672 0.48683 0.0
C3203 C 0.66215 0.19061 0.51714 0.0
C3204 C 0.58403 0.0644 0.49759 0.0
C3205 C 0.5969 0.08031 0.49761 0.0
C3206 C 0.60421 0.12912 0.51942 0.0
C3207 C 0.63952 0.16803 0.50167 0.0
C3208 C 0.6274 0.14999 0.50243 0.0
C3209 C 0.59068 0.09878 0.50399 0.0
C3210 C 0.60399 0.11596 0.50374 0.0
H3211 H 0.65297 0.20405 0.47029 0.0
H3212 H 0.63233 0.17517 0.47182 0.0
H3213 H 0.61541 0.15579 0.53103 0.0
H3214 H 0.54369 0.08758 0.51505 0.0
H3215 H 0.56599 0.11496 0.51517 0.0
C3216 C 0.81625 0.66106 0.51646 0.0
C3217 C 0.80537 0.66272 0.49917 0.0
C3218 C 0.83277 0.64911 0.51737 0.0
C3219 C 0.87038 0.6262 0.48624 0.0
H3220 H 0.88028 0.59428 0.53168 0.0
C3221 C 0.94258 0.5825 0.49715 0.0
C3222 C 0.94019 0.56317 0.50344 0.0
C3223 C 0.9267 0.59544 0.49707 0.0
C3224 C 0.87774 0.60309 0.51886 0.0
H3225 H 0.80323 0.65236 0.46943 0.0
H3226 H 0.83209 0.63166 0.471 0.0
H3227 H 0.85103 0.61441 0.53038 0.0
H3228 H 0.91922 0.54253 0.5151 0.0
H3229 H 0.89189 0.56492 0.51503 0.0
H3230 H 0.89703 0.61462 0.47464 0.0
C3231 C 0.82794 0.63987 0.4838 0.0
C3232 C 0.86102 0.61476 0.51818 0.0
C3233 C 0.81133 0.65173 0.48292 0.0
C3234 C 0.92168 0.55726 0.51003 0.0
C3235 C 0.90596 0.57017 0.51015 0.0
C3236 C 0.88722 0.61463 0.48699 0.0
C3237 C 0.83899 0.63855 0.50098 0.0
C3238 C 0.85701 0.62634 0.50179 0.0
C3239 C 0.90817 0.58939 0.50357 0.0
C3240 C 0.89101 0.60277 0.50323 0.0
H3241 H 0.81246 0.66956 0.52917 0.0
H3242 H 0.84103 0.64863 0.53078 0.0
H3243 H 0.86789 0.63512 0.47349 0.0
H3244 H 0.9566 0.58753 0.49192 0.0
H3245 H 0.92894 0.6102 0.49202 0.0
C3246 C 0.35509 0.80798 0.4796 0.0
C3247 C 0.3435 0.80328 0.49583 0.0
C3248 C 0.36701 0.82454 0.47972 0.0
C3249 C 0.39875 0.85452 0.48789 0.0
H3250 H 0.3796 0.90188 0.51193 0.0
C3251 C 0.44976 0.91871 0.50413 0.0
C3252 C 0.44316 0.93782 0.50073 0.0
C3253 C 0.43704 0.90291 0.50313 0.0
C3254 C 0.38511 0.88885 0.505 0.0
H3255 H 0.33543 0.81253 0.52493 0.0
H3256 H 0.35649 0.84102 0.5253 0.0
H3257 H 0.35876 0.87309 0.5107 0.0
H3258 H 0.41764 0.95516 0.49399 0.0
H3259 H 0.3953 0.92737 0.49213 0.0
H3260 H 0.42498 0.87026 0.48197 0.0
C3261 C 0.35623 0.83203 0.51237 0.0
C3262 C 0.37325 0.87224 0.5045 0.0
C3263 C 0.34437 0.81546 0.51227 0.0
C3264 C 0.42326 0.94068 0.49669 0.0
C3265 C 0.41045 0.92475 0.49567 0.0
C3266 C 0.4106 0.87108 0.48841 0.0
C3267 C 0.36758 0.83691 0.49604 0.0
C3268 C 0.37997 0.8548 0.49608 0.0
C3269 C 0.41726 0.90563 0.49866 0.0
C3270 C 0.40404 0.88841 0.49716 0.0
H3271 H 0.35486 0.79891 0.46672 0.0
H3272 H 0.37545 0.82788 0.46683 0.0
H3273 H 0.4045 0.84136 0.48139 0.0
H3274 H 0.46488 0.9158 0.5076 0.0
H3275 H 0.44274 0.8885 0.50601 0.0
C3276 C 0.19178 0.34241 0.51766 0.0
C3277 C 0.20341 0.34177 0.50077 0.0
C3278 C 0.17523 0.35432 0.51859 0.0
C3279 C 0.13886 0.37876 0.48731 0.0
H3280 H 0.12706 0.40852 0.53374 0.0
C3281 C 0.06602 0.42152 0.49758 0.0
C3282 C 0.06813 0.44067 0.50449 0.0
C3283 C 0.08195 0.40865 0.49762 0.0
C3284 C 0.13013 0.4003 0.52066 0.0
H3285 H 0.20688 0.35398 0.47185 0.0
H3286 H 0.17793 0.37454 0.47342 0.0
H3287 H 0.15645 0.38853 0.53262 0.0
H3288 H 0.08859 0.461 0.51743 0.0
H3289 H 0.116 0.43867 0.51763 0.0
H3290 H 0.1126 0.39073 0.47529 0.0
C3291 C 0.18153 0.36558 0.48587 0.0
C3292 C 0.14693 0.38873 0.52007 0.0
C3293 C 0.19818 0.35378 0.485 0.0
C3294 C 0.08638 0.44642 0.51187 0.0
C3295 C 0.10214 0.43355 0.51213 0.0
C3296 C 0.12194 0.3902 0.48797 0.0
C3297 C 0.16972 0.36585 0.5026 0.0
C3298 C 0.15162 0.37794 0.50332 0.0
C3299 C 0.10022 0.41455 0.50487 0.0
C3300 C 0.11746 0.40128 0.50459 0.0
H3301 H 0.19498 0.33313 0.52999 0.0
H3302 H 0.16638 0.35402 0.53164 0.0
H3303 H 0.1419 0.37046 0.47427 0.0
H3304 H 0.05221 0.41662 0.49174 0.0
H3305 H 0.07996 0.39405 0.49204 0.0
C3306 C 0.35141 0.19459 0.49349 0.0
C3307 C 0.34408 0.20109 0.51155 0.0
C3308 C 0.36394 0.17851 0.49242 0.0
C3309 C 0.37366 0.13228 0.51338 0.0
H3310 H 0.42697 0.13623 0.49528 0.0
C3311 C 0.42616 0.06572 0.51489 0.0
C3312 C 0.44161 0.06517 0.50153 0.0
C3313 C 0.41397 0.08212 0.51597 0.0
C3314 C 0.412 0.13463 0.49997 0.0
H3315 H 0.34544 0.19593 0.54276 0.0
H3316 H 0.3664 0.16734 0.54059 0.0
H3317 H 0.40679 0.16533 0.49708 0.0
H3318 H 0.45583 0.08072 0.47812 0.0
H3319 H 0.434 0.10851 0.47895 0.0
H3320 H 0.37828 0.10159 0.51546 0.0
C3321 C 0.36235 0.17487 0.52735 0.0
C3322 C 0.40053 0.15145 0.50118 0.0
C3323 C 0.35021 0.19123 0.52851 0.0
C3324 C 0.44412 0.08086 0.4887 0.0
C3325 C 0.43168 0.09696 0.4894 0.0
C3326 C 0.38495 0.11535 0.51173 0.0
C3327 C 0.36916 0.16826 0.50928 0.0
C3328 C 0.3813 0.15044 0.50799 0.0
C3329 C 0.41669 0.09816 0.50339 0.0
C3330 C 0.40438 0.11621 0.50503 0.0
H3331 H 0.3469 0.20138 0.48003 0.0
H3332 H 0.36901 0.17364 0.47831 0.0
H3333 H 0.35878 0.13115 0.51855 0.0
H3334 H 0.42406 0.05388 0.5251 0.0
H3335 H 0.40286 0.08239 0.52714 0.0
C3336 C 0.81627 0.34325 0.48645 0.0
C3337 C 0.80513 0.342 0.50362 0.0
C3338 C 0.83289 0.35506 0.48555 0.0
C3339 C 0.87016 0.3782 0.51679 0.0
H3340 H 0.88103 0.40924 0.47095 0.0
C3341 C 0.94273 0.42133 0.50631 0.0
C3342 C 0.94047 0.44059 0.49976 0.0
C3343 C 0.92682 0.40843 0.50627 0.0
C3344 C 0.87822 0.40066 0.48387 0.0
H3345 H 0.80257 0.35292 0.53312 0.0
H3346 H 0.8316 0.37339 0.53157 0.0
H3347 H 0.8516 0.38936 0.47218 0.0
H3348 H 0.91976 0.46112 0.48747 0.0
H3349 H 0.89241 0.4388 0.48736 0.0
H3350 H 0.89669 0.38978 0.52858 0.0
C3351 C 0.82759 0.36498 0.51887 0.0
C3352 C 0.8614 0.38915 0.48452 0.0
C3353 C 0.81089 0.35326 0.51973 0.0
C3354 C 0.9221 0.44645 0.49277 0.0
C3355 C 0.90637 0.43358 0.49254 0.0
C3356 C 0.88709 0.38962 0.51608 0.0
C3357 C 0.83892 0.36588 0.50183 0.0
C3358 C 0.85704 0.3779 0.50105 0.0
C3359 C 0.90843 0.41445 0.49941 0.0
C3360 C 0.89122 0.40116 0.49969 0.0
H3361 H 0.81263 0.33454 0.47385 0.0
H3362 H 0.84136 0.35522 0.47225 0.0
H3363 H 0.8674 0.36953 0.52966 0.0
H3364 H 0.95664 0.41634 0.51183 0.0
H3365 H 0.92893 0.39373 0.51155 0.0
C3366 C 0.19745 0.65055 0.51634 0.0
C3367 C 0.20239 0.66276 0.50062 0.0
C3368 C 0.18088 0.63868 0.51557 0.0
C3369 C 0.14602 0.61561 0.48179 0.0
H3370 H 0.11213 0.6136 0.52695 0.0
C3371 C 0.086 0.55762 0.49115 0.0
C3372 C 0.06777 0.56337 0.49862 0.0
C3373 C 0.10165 0.57058 0.49058 0.0
C3374 C 0.12135 0.61415 0.51417 0.0
H3375 H 0.19365 0.67161 0.47158 0.0
H3376 H 0.16514 0.65055 0.47009 0.0
H3377 H 0.14136 0.63398 0.5276 0.0
H3378 H 0.05176 0.58747 0.51119 0.0
H3379 H 0.07936 0.6102 0.51038 0.0
H3380 H 0.12611 0.59569 0.4684 0.0
C3381 C 0.17414 0.65019 0.48303 0.0
C3382 C 0.13822 0.62563 0.51461 0.0
C3383 C 0.19062 0.6622 0.48385 0.0
C3384 C 0.06556 0.58258 0.5053 0.0
C3385 C 0.0814 0.59555 0.50496 0.0
C3386 C 0.12927 0.60398 0.48141 0.0
C3387 C 0.16888 0.63852 0.49899 0.0
C3388 C 0.15082 0.62643 0.49846 0.0
C3389 C 0.09965 0.58966 0.49762 0.0
C3390 C 0.11678 0.60301 0.49764 0.0
H3391 H 0.20629 0.65029 0.52937 0.0
H3392 H 0.17745 0.62958 0.52798 0.0
H3393 H 0.15543 0.61582 0.46913 0.0
H3394 H 0.08826 0.54299 0.48575 0.0
H3395 H 0.11552 0.56549 0.48502 0.0
loop_
_geom_bond_atom_site_label_1
_geom_bond_atom_site_label_2
_geom_bond_distance
_geom_bond_site_symmetry_2
_ccdc_geom_bond_type
C0 C1 1.356 1_655 S
C0 C2 1.397 . S
C0 H24 0.931 . S
C1 C0 1.356 1_455 S
C1 C5 1.430 . S
C2 C0 1.397 . S
C2 C3 1.350 1_655 S
C2 H25 0.930 . S
C3 C2 1.350 1_455 S
C3 C4 1.414 . S
C3 C6 1.480 . S
C4 C3 1.414 . S
C4 C5 1.389 . S
C4 H26 0.929 . S
C5 C1 1.430 . S
C5 C4 1.389 . S
C5 H27 0.931 . S
C6 C3 1.480 . S
C6 C7 1.387 1_455 S
C6 C11 1.390 . S
C7 C6 1.387 1_655 S
C7 C8 1.400 1_655 S
C7 H28 0.928 . S
C8 C7 1.400 1_455 S
C8 C9 1.376 . S
C8 C17 1.510 1_455 S
C9 C8 1.376 . S
C9 C10 1.393 . S
C9 H30 0.930 1_455 S
C10 C9 1.393 . S
C10 C11 1.363 . S
C10 C12 1.500 . S
C11 C6 1.390 . S
C11 C10 1.363 . S
C11 H29 0.931 . S
C12 C10 1.500 . S
C12 C13 1.371 1_455 S
C12 C14 1.365 . S
C13 C12 1.371 1_655 S
C13 C23 1.386 . S
C13 H31 0.931 . S
C14 C12 1.365 . S
C14 C15 1.409 . S
C14 H32 0.929 . S
C15 C14 1.409 . S
C15 C16 1.380 . S
C15 H33 0.930 . S
C16 C15 1.380 . S
C16 C23 1.357 1_455 S
C17 C8 1.510 1_655 S
C17 C18 1.344 . S
C17 C19 1.368 1_655 S
C18 C17 1.344 . S
C18 C22 1.394 . S
C18 H34 0.930 . S
C19 C17 1.368 1_455 S
C19 C20 1.392 . S
C19 H35 0.931 . S
C20 C19 1.392 . S
C20 C21 1.342 . S
C20 H38 0.932 . S
C21 C20 1.342 . S
C21 C22 1.326 1_455 S
C22 C18 1.394 . S
C22 C21 1.326 1_655 S
C22 H37 0.929 . S
C23 C13 1.386 . S
C23 C16 1.357 1_655 S
C23 H36 0.928 . S
H24 C0 0.931 . S
H25 C2 0.930 . S
H26 C4 0.929 . S
H27 C5 0.931 . S
H28 C7 0.928 . S
H29 C11 0.931 . S
H30 C9 0.930 1_655 S
H31 C13 0.931 . S
H32 C14 0.929 . S
H33 C15 0.930 . S
H34 C18 0.930 . S
H35 C19 0.931 . S
H36 C23 0.928 . S
H37 C22 0.929 . S
H38 C20 0.932 . S
C39 C40 1.394 . S
C39 C41 1.397 . S
C39 H63 0.931 . S
C40 C39 1.394 . S
C40 C44 1.389 1_545 S
C41 C39 1.397 . S
C41 C42 1.389 . S
C41 H64 0.930 . S
C42 C41 1.389 . S
C42 C43 1.373 1_545 S
C42 C45 1.480 . S
C43 C42 1.373 1_565 S
C43 C44 1.389 . S
C43 H65 0.929 . S
C44 C40 1.389 1_565 S
C44 C43 1.389 . S
C44 H66 0.931 . S
C45 C42 1.480 . S
C45 C46 1.388 . S
C45 C50 1.390 . S
C46 C45 1.388 . S
C46 C47 1.402 . S
C46 H67 0.930 . S
C47 C46 1.402 . S
C47 C48 1.376 . S
C47 C56 1.513 . S
C48 C47 1.376 . S
C48 C49 1.392 . S
C48 H69 0.934 . S
C49 C48 1.392 . S
C49 C50 1.361 . S
C49 C51 1.499 1_545 S
C50 C45 1.390 . S
C50 C49 1.361 . S
C50 H68 0.931 . S
C51 C49 1.499 1_565 S
C51 C52 1.363 1_565 S
C51 C53 1.374 . S
C52 C51 1.363 1_545 S
C52 C62 1.386 . S
C52 H70 0.931 . S
C53 C51 1.374 . S
C53 C54 1.409 . S
C53 H71 0.929 . S
C54 C53 1.409 . S
C54 C55 1.378 . S
C54 H72 0.930 . S
C55 C54 1.378 . S
C55 C62 1.359 1_565 S
C56 C47 1.513 . S
C56 C57 1.341 . S
C56 C58 1.371 1_545 S
C57 C56 1.341 . S
C57 C61 1.394 . S
C57 H73 0.930 . S
C58 C56 1.371 1_565 S
C58 C59 1.392 . S
C58 H74 0.931 . S
C59 C58 1.392 . S
C59 C60 1.322 1_565 S
C59 H77 0.932 . S
C60 C59 1.322 1_545 S
C60 C61 1.345 . S
C61 C57 1.394 . S
C61 C60 1.345 . S
C61 H76 0.929 . S
C62 C52 1.386 . S
C62 C55 1.359 1_545 S
C62 H75 0.928 . S
H63 C39 0.931 . S
H64 C41 0.930 . S
H65 C43 0.929 . S
H66 C44 0.931 . S
H67 C46 0.930 . S
H68 C50 0.931 . S
H69 C48 0.934 . S
H70 C52 0.931 . S
H71 C53 0.929 . S
H72 C54 0.930 . S
H73 C57 0.930 . S
H74 C58 0.931 . S
H75 C62 0.928 . S
H76 C61 0.929 . S
H77 C59 0.932 . S
C78 C79 1.356 1_655 S
C78 C80 1.397 . S
C78 H102 0.931 . S
C79 C78 1.356 1_455 S
C79 C83 1.430 . S
C80 C78 1.397 . S
C80 C81 1.350 1_655 S
C80 H103 0.930 . S
C81 C80 1.350 1_455 S
C81 C82 1.414 . S
C81 C84 1.480 . S
C82 C81 1.414 . S
C82 C83 1.389 . S
C82 H104 0.929 . S
C83 C79 1.430 . S
C83 C82 1.389 . S
C83 H105 0.931 . S
C84 C81 1.480 . S
C84 C85 1.387 1_455 S
C84 C89 1.390 . S
C85 C84 1.387 1_655 S
C85 C86 1.400 1_655 S
C85 H106 0.928 . S
C86 C85 1.400 1_455 S
C86 C87 1.376 . S
C86 C95 1.510 1_455 S
C87 C86 1.376 . S
C87 C88 1.393 . S
C87 H108 0.930 1_455 S
C88 C87 1.393 . S
C88 C89 1.363 . S
C88 C90 1.500 . S
C89 C84 1.390 . S
C89 C88 1.363 . S
C89 H107 0.931 . S
C90 C88 1.500 . S
C90 C91 1.371 1_455 S
C90 C92 1.365 . S
C91 C90 1.371 1_655 S
C91 C101 1.386 . S
C91 H109 0.931 . S
C92 C90 1.365 . S
C92 C93 1.409 . S
C92 H110 0.929 . S
C93 C92 1.409 . S
C93 C94 1.380 . S
C93 H111 0.930 . S
C94 C93 1.380 . S
C94 C101 1.357 1_455 S
C95 C86 1.510 1_655 S
C95 C96 1.344 . S
C95 C97 1.368 1_655 S
C96 C95 1.344 . S
C96 C100 1.394 . S
C96 H112 0.930 . S
C97 C95 1.368 1_455 S
C97 C98 1.392 . S
C97 H113 0.931 . S
C98 C97 1.392 . S
C98 C99 1.342 . S
C98 H116 0.932 . S
C99 C98 1.342 . S
C99 C100 1.326 1_455 S
C100 C96 1.394 . S
C100 C99 1.326 1_655 S
C100 H115 0.929 . S
C101 C91 1.386 . S
C101 C94 1.357 1_655 S
C101 H114 0.928 . S
H102 C78 0.931 . S
H103 C80 0.930 . S
H104 C82 0.929 . S
H105 C83 0.931 . S
H106 C85 0.928 . S
H107 C89 0.931 . S
H108 C87 0.930 1_655 S
H109 C91 0.931 . S
H110 C92 0.929 . S
H111 C93 0.930 . S
H112 C96 0.930 . S
H113 C97 0.931 . S
H114 C101 0.928 . S
H115 C100 0.929 . S
H116 C98 0.932 . S
C117 C118 1.394 . S
C117 C119 1.397 . S
C117 H141 0.931 . S
C118 C117 1.394 . S
C118 C122 1.389 1_545 S
C119 C117 1.397 . S
C119 C120 1.389 . S
C119 H142 0.930 . S
C120 C119 1.389 . S
C120 C121 1.373 1_545 S
C120 C123 1.480 . S
C121 C120 1.373 1_565 S
C121 C122 1.389 . S
C121 H143 0.929 . S
C122 C118 1.389 1_565 S
C122 C121 1.389 . S
C122 H144 0.931 . S
C123 C120 1.480 . S
C123 C124 1.388 . S
C123 C128 1.390 . S
C124 C123 1.388 . S
C124 C125 1.402 . S
C124 H145 0.930 . S
C125 C124 1.402 . S
C125 C126 1.376 . S
C125 C134 1.513 . S
C126 C125 1.376 . S
C126 C127 1.392 . S
C126 H147 0.934 . S
C127 C126 1.392 . S
C127 C128 1.361 . S
C127 C129 1.499 1_545 S
C128 C123 1.390 . S
C128 C127 1.361 . S
C128 H146 0.931 . S
C129 C127 1.499 1_565 S
C129 C130 1.363 1_565 S
C129 C131 1.374 . S
C130 C129 1.363 1_545 S
C130 C140 1.386 . S
C130 H148 0.931 . S
C131 C129 1.374 . S
C131 C132 1.409 . S
C131 H149 0.929 . S
C132 C131 1.409 . S
C132 C133 1.378 . S
C132 H150 0.930 . S
C133 C132 1.378 . S
C133 C140 1.359 1_565 S
C134 C125 1.513 . S
C134 C135 1.341 . S
C134 C136 1.371 1_545 S
C135 C134 1.341 . S
C135 C139 1.394 . S
C135 H151 0.930 . S
C136 C134 1.371 1_565 S
C136 C137 1.392 . S
C136 H152 0.931 . S
C137 C136 1.392 . S
C137 C138 1.322 1_565 S
C137 H155 0.932 . S
C138 C137 1.322 1_545 S
C138 C139 1.345 . S
C139 C135 1.394 . S
C139 C138 1.345 . S
C139 H154 0.929 . S
C140 C130 1.386 . S
C140 C133 1.359 1_545 S
C140 H153 0.928 . S
H141 C117 0.931 . S
H142 C119 0.930 . S
H143 C121 0.929 . S
H144 C122 0.931 . S
H145 C124 0.930 . S
H146 C128 0.931 . S
H147 C126 0.934 . S
H148 C130 0.931 . S
H149 C131 0.929 . S
H150 C132 0.930 . S
H151 C135 0.930 . S
H152 C136 0.931 . S
H153 C140 0.928 . S
H154 C139 0.929 . S
H155 C137 0.932 . S
C156 C157 1.356 1_655 S
C156 C158 1.397 . S
C156 H180 0.931 . S
C157 C156 1.356 1_455 S
C157 C161 1.430 . S
C158 C156 1.397 . S
C158 C159 1.350 1_655 S
C158 H181 0.930 . S
C159 C158 1.350 1_455 S
C159 C160 1.414 . S
C159 C162 1.480 . S
C160 C159 1.414 . S
C160 C161 1.389 . S
C160 H182 0.929 . S
C161 C157 1.430 . S
C161 C160 1.389 . S
C161 H183 0.931 . S
C162 C159 1.480 . S
C162 C163 1.387 1_455 S
C162 C167 1.390 . S
C163 C162 1.387 1_655 S
C163 C164 1.400 1_655 S
C163 H184 0.928 . S
C164 C163 1.400 1_455 S
C164 C165 1.376 . S
C164 C173 1.510 1_455 S
C165 C164 1.376 . S
C165 C166 1.393 . S
C165 H186 0.930 1_455 S
C166 C165 1.393 . S
C166 C167 1.363 . S
C166 C168 1.500 . S
C167 C162 1.390 . S
C167 C166 1.363 . S
C167 H185 0.931 . S
C168 C166 1.500 . S
C168 C169 1.371 1_455 S
C168 C170 1.365 . S
C169 C168 1.371 1_655 S
C169 C179 1.386 . S
C169 H187 0.931 . S
C170 C168 1.365 . S
C170 C171 1.409 . S
C170 H188 0.929 . S
C171 C170 1.409 . S
C171 C172 1.380 . S
C171 H189 0.930 . S
C172 C171 1.380 . S
C172 C179 1.357 1_455 S
C173 C164 1.510 1_655 S
C173 C174 1.344 . S
C173 C175 1.368 1_655 S
C174 C173 1.344 . S
C174 C178 1.394 . S
C174 H190 0.930 . S
C175 C173 1.368 1_455 S
C175 C176 1.392 . S
C175 H191 0.931 . S
C176 C175 1.392 . S
C176 C177 1.342 . S
C176 H194 0.932 . S
C177 C176 1.342 . S
C177 C178 1.326 1_455 S
C178 C174 1.394 . S
C178 C177 1.326 1_655 S
C178 H193 0.929 . S
C179 C169 1.386 . S
C179 C172 1.357 1_655 S
C179 H192 0.928 . S
H180 C156 0.931 . S
H181 C158 0.930 . S
H182 C160 0.929 . S
H183 C161 0.931 . S
H184 C163 0.928 . S
H185 C167 0.931 . S
H186 C165 0.930 1_655 S
H187 C169 0.931 . S
H188 C170 0.929 . S
H189 C171 0.930 . S
H190 C174 0.930 . S
H191 C175 0.931 . S
H192 C179 0.928 . S
H193 C178 0.929 . S
H194 C176 0.932 . S
C195 C196 1.386 . S
C195 C197 1.397 . S
C195 H219 0.931 . S
C196 C195 1.386 . S
C196 C200 1.397 1_565 S
C197 C195 1.397 . S
C197 C198 1.381 . S
C197 H220 0.930 . S
C198 C197 1.381 . S
C198 C199 1.381 1_565 S
C198 C201 1.480 . S
C199 C198 1.381 1_545 S
C199 C200 1.389 . S
C199 H221 0.929 . S
C200 C196 1.397 1_545 S
C200 C199 1.389 . S
C200 H222 0.931 . S
C201 C198 1.480 . S
C201 C202 1.386 . S
C201 C206 1.390 . S
C202 C201 1.386 . S
C202 C203 1.400 . S
C202 H223 0.936 . S
C203 C202 1.400 . S
C203 C204 1.376 . S
C203 C212 1.512 . S
C204 C203 1.376 . S
C204 C205 1.392 1_565 S
C204 H225 0.933 . S
C205 C204 1.392 1_545 S
C205 C206 1.361 1_545 S
C205 C207 1.499 . S
C206 C201 1.390 . S
C206 C205 1.361 1_565 S
C206 H224 0.931 1_565 S
C207 C205 1.499 . S
C207 C208 1.357 1_545 S
C207 C209 1.380 . S
C208 C207 1.357 1_565 S
C208 C218 1.386 . S
C208 H226 0.931 . S
C209 C207 1.380 . S
C209 C210 1.409 . S
C209 H227 0.929 . S
C210 C209 1.409 . S
C210 C211 1.384 . S
C210 H228 0.930 . S
C211 C210 1.384 . S
C211 C218 1.353 1_545 S
C212 C203 1.512 . S
C212 C213 1.341 . S
C212 C214 1.371 1_565 S
C213 C212 1.341 . S
C213 C217 1.394 . S
C213 H229 0.930 . S
C214 C212 1.371 1_545 S
C214 C215 1.392 . S
C214 H230 0.931 . S
C215 C214 1.392 . S
C215 C216 1.326 1_545 S
C215 H233 0.932 . S
C216 C215 1.326 1_565 S
C216 C217 1.341 . S
C217 C213 1.394 . S
C217 C216 1.341 . S
C217 H232 0.929 . S
C218 C208 1.386 . S
C218 C211 1.353 1_565 S
C218 H231 0.928 . S
H219 C195 0.931 . S
H220 C197 0.930 . S
H221 C199 0.929 . S
H222 C200 0.931 . S
H223 C202 0.936 . S
H224 C206 0.931 1_545 S
H225 C204 0.933 . S
H226 C208 0.931 . S
H227 C209 0.929 . S
H228 C210 0.930 . S
H229 C213 0.930 . S
H230 C214 0.931 . S
H231 C218 0.928 . S
H232 C217 0.929 . S
H233 C215 0.932 . S
C234 C235 1.356 1_655 S
C234 C236 1.397 . S
C234 H258 0.931 . S
C235 C234 1.356 1_455 S
C235 C239 1.430 . S
C236 C234 1.397 . S
C236 C237 1.350 1_655 S
C236 H259 0.930 . S
C237 C236 1.350 1_455 S
C237 C238 1.414 . S
C237 C240 1.480 . S
C238 C237 1.414 . S
C238 C239 1.389 . S
C238 H260 0.929 . S
C239 C235 1.430 . S
C239 C238 1.389 . S
C239 H261 0.931 . S
C240 C237 1.480 . S
C240 C241 1.387 1_455 S
C240 C245 1.390 . S
C241 C240 1.387 1_655 S
C241 C242 1.400 1_655 S
C241 H262 0.928 . S
C242 C241 1.400 1_455 S
C242 C243 1.376 . S
C242 C251 1.510 1_455 S
C243 C242 1.376 . S
C243 C244 1.393 . S
C243 H264 0.930 1_455 S
C244 C243 1.393 . S
C244 C245 1.363 . S
C244 C246 1.500 . S
C245 C240 1.390 . S
C245 C244 1.363 . S
C245 H263 0.931 . S
C246 C244 1.500 . S
C246 C247 1.371 1_455 S
C246 C248 1.365 . S
C247 C246 1.371 1_655 S
C247 C257 1.386 . S
C247 H265 0.931 . S
C248 C246 1.365 . S
C248 C249 1.409 . S
C248 H266 0.929 . S
C249 C248 1.409 . S
C249 C250 1.380 . S
C249 H267 0.930 . S
C250 C249 1.380 . S
C250 C257 1.357 1_455 S
C251 C242 1.510 1_655 S
C251 C252 1.344 . S
C251 C253 1.368 1_655 S
C252 C251 1.344 . S
C252 C256 1.394 . S
C252 H268 0.930 . S
C253 C251 1.368 1_455 S
C253 C254 1.392 . S
C253 H269 0.931 . S
C254 C253 1.392 . S
C254 C255 1.342 . S
C254 H272 0.932 . S
C255 C254 1.342 . S
C255 C256 1.326 1_455 S
C256 C252 1.394 . S
C256 C255 1.326 1_655 S
C256 H271 0.929 . S
C257 C247 1.386 . S
C257 C250 1.357 1_655 S
C257 H270 0.928 . S
H258 C234 0.931 . S
H259 C236 0.930 . S
H260 C238 0.929 . S
H261 C239 0.931 . S
H262 C241 0.928 . S
H263 C245 0.931 . S
H264 C243 0.930 1_655 S
H265 C247 0.931 . S
H266 C248 0.929 . S
H267 C249 0.930 . S
H268 C252 0.930 . S
H269 C253 0.931 . S
H270 C257 0.928 . S
H271 C256 0.929 . S
H272 C254 0.932 . S
C273 C274 1.386 . S
C273 C275 1.397 . S
C273 H297 0.931 . S
C274 C273 1.386 . S
C274 C278 1.397 1_565 S
C275 C273 1.397 . S
C275 C276 1.381 . S
C275 H298 0.930 . S
C276 C275 1.381 . S
C276 C277 1.381 1_565 S
C276 C279 1.480 . S
C277 C276 1.381 1_545 S
C277 C278 1.389 . S
C277 H299 0.929 . S
C278 C274 1.397 1_545 S
C278 C277 1.389 . S
C278 H300 0.931 . S
C279 C276 1.480 . S
C279 C280 1.386 . S
C279 C284 1.390 . S
C280 C279 1.386 . S
C280 C281 1.400 . S
C280 H301 0.936 . S
C281 C280 1.400 . S
C281 C282 1.376 . S
C281 C290 1.512 . S
C282 C281 1.376 . S
C282 C283 1.392 1_565 S
C282 H303 0.933 . S
C283 C282 1.392 1_545 S
C283 C284 1.361 1_545 S
C283 C285 1.499 . S
C284 C279 1.390 . S
C284 C283 1.361 1_565 S
C284 H302 0.931 1_565 S
C285 C283 1.499 . S
C285 C286 1.357 1_545 S
C285 C287 1.380 . S
C286 C285 1.357 1_565 S
C286 C296 1.386 . S
C286 H304 0.931 . S
C287 C285 1.380 . S
C287 C288 1.409 . S
C287 H305 0.929 . S
C288 C287 1.409 . S
C288 C289 1.384 . S
C288 H306 0.930 . S
C289 C288 1.384 . S
C289 C296 1.353 1_545 S
C290 C281 1.512 . S
C290 C291 1.341 . S
C290 C292 1.371 1_565 S
C291 C290 1.341 . S
C291 C295 1.394 . S
C291 H307 0.930 . S
C292 C290 1.371 1_545 S
C292 C293 1.392 . S
C292 H308 0.931 . S
C293 C292 1.392 . S
C293 C294 1.326 1_545 S
C293 H311 0.932 . S
C294 C293 1.326 1_565 S
C294 C295 1.341 . S
C295 C291 1.394 . S
C295 C294 1.341 . S
C295 H310 0.929 . S
C296 C286 1.386 . S
C296 C289 1.353 1_565 S
C296 H309 0.928 . S
H297 C273 0.931 . S
H298 C275 0.930 . S
H299 C277 0.929 . S
H300 C278 0.931 . S
H301 C280 0.936 . S
H302 C284 0.931 1_545 S
H303 C282 0.933 . S
H304 C286 0.931 . S
H305 C287 0.929 . S
H306 C288 0.930 . S
H307 C291 0.930 . S
H308 C292 0.931 . S
H309 C296 0.928 . S
H310 C295 0.929 . S
H311 C293 0.932 . S
C312 C313 1.386 . S
C312 C314 1.397 . S
C312 H336 0.931 . S
C313 C312 1.386 . S
C313 C317 1.397 1_556 S
C314 C312 1.397 . S
C314 C315 1.381 . S
C314 H337 0.930 . S
C315 C314 1.381 . S
C315 C316 1.381 1_556 S
C315 C318 1.480 . S
C316 C315 1.381 1_554 S
C316 C317 1.389 . S
C316 H338 0.929 . S
C317 C313 1.397 1_554 S
C317 C316 1.389 . S
C317 H339 0.931 . S
C318 C315 1.480 . S
C318 C319 1.386 . S
C318 C323 1.390 . S
C319 C318 1.386 . S
C319 C320 1.400 . S
C319 H340 0.936 . S
C320 C319 1.400 . S
C320 C321 1.376 . S
C320 C329 1.512 . S
C321 C320 1.376 . S
C321 C322 1.392 1_556 S
C321 H342 0.933 . S
C322 C321 1.392 1_554 S
C322 C323 1.361 1_554 S
C322 C324 1.499 . S
C323 C318 1.390 . S
C323 C322 1.361 1_556 S
C323 H341 0.931 1_556 S
C324 C322 1.499 . S
C324 C325 1.357 1_554 S
C324 C326 1.380 . S
C325 C324 1.357 1_556 S
C325 C335 1.386 . S
C325 H343 0.931 . S
C326 C324 1.380 . S
C326 C327 1.409 . S
C326 H344 0.929 . S
C327 C326 1.409 . S
C327 C328 1.384 . S
C327 H345 0.930 . S
C328 C327 1.384 . S
C328 C335 1.353 1_554 S
C329 C320 1.512 . S
C329 C330 1.341 . S
C329 C331 1.371 1_556 S
C330 C329 1.341 . S
C330 C334 1.394 . S
C330 H346 0.930 . S
C331 C329 1.371 1_554 S
C331 C332 1.392 . S
C331 H347 0.931 . S
C332 C331 1.392 . S
C332 C333 1.326 1_554 S
C332 H350 0.932 . S
C333 C332 1.326 1_556 S
C333 C334 1.341 . S
C334 C330 1.394 . S
C334 C333 1.341 . S
C334 H349 0.929 . S
C335 C325 1.386 . S
C335 C328 1.353 1_556 S
C335 H348 0.928 . S
H336 C312 0.931 . S
H337 C314 0.930 . S
H338 C316 0.929 . S
H339 C317 0.931 . S
H340 C319 0.936 . S
H341 C323 0.931 1_554 S
H342 C321 0.933 . S
H343 C325 0.931 . S
H344 C326 0.929 . S
H345 C327 0.930 . S
H346 C330 0.930 . S
H347 C331 0.931 . S
H348 C335 0.928 . S
H349 C334 0.929 . S
H350 C332 0.932 . S
C351 C352 1.394 . S
C351 C353 1.397 . S
C351 H375 0.931 . S
C352 C351 1.394 . S
C352 C356 1.389 1_554 S
C353 C351 1.397 . S
C353 C354 1.389 . S
C353 H376 0.930 . S
C354 C353 1.389 . S
C354 C355 1.373 1_554 S
C354 C357 1.480 . S
C355 C354 1.373 1_556 S
C355 C356 1.389 . S
C355 H377 0.929 . S
C356 C352 1.389 1_556 S
C356 C355 1.389 . S
C356 H378 0.931 . S
C357 C354 1.480 . S
C357 C358 1.388 . S
C357 C362 1.390 . S
C358 C357 1.388 . S
C358 C359 1.402 . S
C358 H379 0.930 . S
C359 C358 1.402 . S
C359 C360 1.376 . S
C359 C368 1.513 . S
C360 C359 1.376 . S
C360 C361 1.392 . S
C360 H381 0.934 . S
C361 C360 1.392 . S
C361 C362 1.361 . S
C361 C363 1.499 1_554 S
C362 C357 1.390 . S
C362 C361 1.361 . S
C362 H380 0.931 . S
C363 C361 1.499 1_556 S
C363 C364 1.363 1_556 S
C363 C365 1.374 . S
C364 C363 1.363 1_554 S
C364 C374 1.386 . S
C364 H382 0.931 . S
C365 C363 1.374 . S
C365 C366 1.409 . S
C365 H383 0.929 . S
C366 C365 1.409 . S
C366 C367 1.378 . S
C366 H384 0.930 . S
C367 C366 1.378 . S
C367 C374 1.359 1_556 S
C368 C359 1.513 . S
C368 C369 1.341 . S
C368 C370 1.371 1_554 S
C369 C368 1.341 . S
C369 C373 1.394 . S
C369 H385 0.930 . S
C370 C368 1.371 1_556 S
C370 C371 1.392 . S
C370 H386 0.931 . S
C371 C370 1.392 . S
C371 C372 1.322 1_556 S
C371 H389 0.932 . S
C372 C371 1.322 1_554 S
C372 C373 1.345 . S
C373 C369 1.394 . S
C373 C372 1.345 . S
C373 H388 0.929 . S
C374 C364 1.386 . S
C374 C367 1.359 1_554 S
C374 H387 0.928 . S
H375 C351 0.931 . S
H376 C353 0.930 . S
H377 C355 0.929 . S
H378 C356 0.931 . S
H379 C358 0.930 . S
H380 C362 0.931 . S
H381 C360 0.934 . S
H382 C364 0.931 . S
H383 C365 0.929 . S
H384 C366 0.930 . S
H385 C369 0.930 . S
H386 C370 0.931 . S
H387 C374 0.928 . S
H388 C373 0.929 . S
H389 C371 0.932 . S
C390 C391 1.386 . S
C390 C392 1.397 . S
C390 H414 0.931 . S
C391 C390 1.386 . S
C391 C395 1.397 1_556 S
C392 C390 1.397 . S
C392 C393 1.381 . S
C392 H415 0.930 . S
C393 C392 1.381 . S
C393 C394 1.381 1_556 S
C393 C396 1.480 . S
C394 C393 1.381 1_554 S
C394 C395 1.389 . S
C394 H416 0.929 . S
C395 C391 1.397 1_554 S
C395 C394 1.389 . S
C395 H417 0.931 . S
C396 C393 1.480 . S
C396 C397 1.386 . S
C396 C401 1.390 . S
C397 C396 1.386 . S
C397 C398 1.400 . S
C397 H418 0.936 . S
C398 C397 1.400 . S
C398 C399 1.376 . S
C398 C407 1.512 . S
C399 C398 1.376 . S
C399 C400 1.392 1_556 S
C399 H420 0.933 . S
C400 C399 1.392 1_554 S
C400 C401 1.361 1_554 S
C400 C402 1.499 . S
C401 C396 1.390 . S
C401 C400 1.361 1_556 S
C401 H419 0.931 1_556 S
C402 C400 1.499 . S
C402 C403 1.357 1_554 S
C402 C404 1.380 . S
C403 C402 1.357 1_556 S
C403 C413 1.386 . S
C403 H421 0.931 . S
C404 C402 1.380 . S
C404 C405 1.409 . S
C404 H422 0.929 . S
C405 C404 1.409 . S
C405 C406 1.384 . S
C405 H423 0.930 . S
C406 C405 1.384 . S
C406 C413 1.353 1_554 S
C407 C398 1.512 . S
C407 C408 1.341 . S
C407 C409 1.371 1_556 S
C408 C407 1.341 . S
C408 C412 1.394 . S
C408 H424 0.930 . S
C409 C407 1.371 1_554 S
C409 C410 1.392 . S
C409 H425 0.931 . S
C410 C409 1.392 . S
C410 C411 1.326 1_554 S
C410 H428 0.932 . S
C411 C410 1.326 1_556 S
C411 C412 1.341 . S
C412 C408 1.394 . S
C412 C411 1.341 . S
C412 H427 0.929 . S
C413 C403 1.386 . S
C413 C406 1.353 1_556 S
C413 H426 0.928 . S
H414 C390 0.931 . S
H415 C392 0.930 . S
H416 C394 0.929 . S
H417 C395 0.931 . S
H418 C397 0.936 . S
H419 C401 0.931 1_554 S
H420 C399 0.933 . S
H421 C403 0.931 . S
H422 C404 0.929 . S
H423 C405 0.930 . S
H424 C408 0.930 . S
H425 C409 0.931 . S
H426 C413 0.928 . S
H427 C412 0.929 . S
H428 C410 0.932 . S
C429 C430 1.394 . S
C429 C431 1.397 . S
C429 H453 0.931 . S
C430 C429 1.394 . S
C430 C434 1.389 1_554 S
C431 C429 1.397 . S
C431 C432 1.389 . S
C431 H454 0.930 . S
C432 C431 1.389 . S
C432 C433 1.373 1_554 S
C432 C435 1.480 . S
C433 C432 1.373 1_556 S
C433 C434 1.389 . S
C433 H455 0.929 . S
C434 C430 1.389 1_556 S
C434 C433 1.389 . S
C434 H456 0.931 . S
C435 C432 1.480 . S
C435 C436 1.388 . S
C435 C440 1.390 . S
C436 C435 1.388 . S
C436 C437 1.402 . S
C436 H457 0.930 . S
C437 C436 1.402 . S
C437 C438 1.376 . S
C437 C446 1.513 . S
C438 C437 1.376 . S
C438 C439 1.392 . S
C438 H459 0.934 . S
C439 C438 1.392 . S
C439 C440 1.361 . S
C439 C441 1.499 1_554 S
C440 C435 1.390 . S
C440 C439 1.361 . S
C440 H458 0.931 . S
C441 C439 1.499 1_556 S
C441 C442 1.363 1_556 S
C441 C443 1.374 . S
C442 C441 1.363 1_554 S
C442 C452 1.386 . S
C442 H460 0.931 . S
C443 C441 1.374 . S
C443 C444 1.409 . S
C443 H461 0.929 . S
C444 C443 1.409 . S
C444 C445 1.378 . S
C444 H462 0.930 . S
C445 C444 1.378 . S
C445 C452 1.359 1_556 S
C446 C437 1.513 . S
C446 C447 1.341 . S
C446 C448 1.371 1_554 S
C447 C446 1.341 . S
C447 C451 1.394 . S
C447 H463 0.930 . S
C448 C446 1.371 1_556 S
C448 C449 1.392 . S
C448 H464 0.931 . S
C449 C448 1.392 . S
C449 C450 1.322 1_556 S
C449 H467 0.932 . S
C450 C449 1.322 1_554 S
C450 C451 1.345 . S
C451 C447 1.394 . S
C451 C450 1.345 . S
C451 H466 0.929 . S
C452 C442 1.386 . S
C452 C445 1.359 1_554 S
C452 H465 0.928 . S
H453 C429 0.931 . S
H454 C431 0.930 . S
H455 C433 0.929 . S
H456 C434 0.931 . S
H457 C436 0.930 . S
H458 C440 0.931 . S
H459 C438 0.934 . S
H460 C442 0.931 . S
H461 C443 0.929 . S
H462 C444 0.930 . S
H463 C447 0.930 . S
H464 C448 0.931 . S
H465 C452 0.928 . S
H466 C451 0.929 . S
H467 C449 0.932 . S
C468 C469 1.386 . S
C468 C470 1.397 . S
C468 H492 0.931 . S
C469 C468 1.386 . S
C469 C473 1.397 . S
C470 C468 1.397 . S
C470 C471 1.384 . S
C470 H493 0.930 . S
C471 C470 1.384 . S
C471 C472 1.377 . S
C471 C474 1.481 . S
C472 C471 1.377 . S
C472 C473 1.389 . S
C472 H494 0.929 . S
C473 C469 1.397 . S
C473 C472 1.389 . S
C473 H495 0.931 . S
C474 C471 1.481 . S
C474 C475 1.387 . S
C474 C479 1.390 . S
C475 C474 1.387 . S
C475 C476 1.401 . S
C475 H496 0.930 . S
C476 C475 1.401 . S
C476 C477 1.376 . S
C476 C485 1.511 . S
C477 C476 1.376 . S
C477 C478 1.392 . S
C477 H498 0.931 . S
C478 C477 1.392 . S
C478 C479 1.361 . S
C478 C480 1.500 . S
C479 C474 1.390 . S
C479 C478 1.361 . S
C479 H497 0.931 . S
C480 C478 1.500 . S
C480 C481 1.371 . S
C480 C482 1.365 . S
C481 C480 1.371 . S
C481 C491 1.386 . S
C481 H499 0.931 . S
C482 C480 1.365 . S
C482 C483 1.409 . S
C482 H500 0.929 . S
C483 C482 1.409 . S
C483 C484 1.380 . S
C483 H501 0.930 . S
C484 C483 1.380 . S
C484 C491 1.357 . S
C485 C476 1.511 . S
C485 C486 1.341 . S
C485 C487 1.371 . S
C486 C485 1.341 . S
C486 C490 1.394 . S
C486 H502 0.930 . S
C487 C485 1.371 . S
C487 C488 1.392 . S
C487 H503 0.931 . S
C488 C487 1.392 . S
C488 C489 1.331 . S
C488 H506 0.932 . S
C489 C488 1.331 . S
C489 C490 1.336 . S
C490 C486 1.394 . S
C490 C489 1.336 . S
C490 H505 0.929 . S
C491 C481 1.386 . S
C491 C484 1.357 . S
C491 H504 0.928 . S
H492 C468 0.931 . S
H493 C470 0.930 . S
H494 C472 0.929 . S
H495 C473 0.931 . S
H496 C475 0.930 . S
H497 C479 0.931 . S
H498 C477 0.931 . S
H499 C481 0.931 . S
H500 C482 0.929 . S
H501 C483 0.930 . S
H502 C486 0.930 . S
H503 C487 0.931 . S
H504 C491 0.928 . S
H505 C490 0.929 . S
H506 C488 0.932 . S
C507 C508 1.386 . S
C507 C509 1.397 . S
C507 H531 0.931 . S
C508 C507 1.386 . S
C508 C512 1.397 . S
C509 C507 1.397 . S
C509 C510 1.384 . S
C509 H532 0.930 . S
C510 C509 1.384 . S
C510 C511 1.377 . S
C510 C513 1.481 . S
C511 C510 1.377 . S
C511 C512 1.389 . S
C511 H533 0.929 . S
C512 C508 1.397 . S
C512 C511 1.389 . S
C512 H534 0.931 . S
C513 C510 1.481 . S
C513 C514 1.387 . S
C513 C518 1.390 . S
C514 C513 1.387 . S
C514 C515 1.401 . S
C514 H535 0.930 . S
C515 C514 1.401 . S
C515 C516 1.376 . S
C515 C524 1.511 . S
C516 C515 1.376 . S
C516 C517 1.392 . S
C516 H537 0.931 . S
C517 C516 1.392 . S
C517 C518 1.361 . S
C517 C519 1.500 . S
C518 C513 1.390 . S
C518 C517 1.361 . S
C518 H536 0.931 . S
C519 C517 1.500 . S
C519 C520 1.371 . S
C519 C521 1.365 . S
C520 C519 1.371 . S
C520 C530 1.386 . S
C520 H538 0.931 . S
C521 C519 1.365 . S
C521 C522 1.409 . S
C521 H539 0.929 . S
C522 C521 1.409 . S
C522 C523 1.380 . S
C522 H540 0.930 . S
C523 C522 1.380 . S
C523 C530 1.357 . S
C524 C515 1.511 . S
C524 C525 1.341 . S
C524 C526 1.371 . S
C525 C524 1.341 . S
C525 C529 1.394 . S
C525 H541 0.930 . S
C526 C524 1.371 . S
C526 C527 1.392 . S
C526 H542 0.931 . S
C527 C526 1.392 . S
C527 C528 1.331 . S
C527 H545 0.932 . S
C528 C527 1.331 . S
C528 C529 1.336 . S
C529 C525 1.394 . S
C529 C528 1.336 . S
C529 H544 0.929 . S
C530 C520 1.386 . S
C530 C523 1.357 . S
C530 H543 0.928 . S
H531 C507 0.931 . S
H532 C509 0.930 . S
H533 C511 0.929 . S
H534 C512 0.931 . S
H535 C514 0.930 . S
H536 C518 0.931 . S
H537 C516 0.931 . S
H538 C520 0.931 . S
H539 C521 0.929 . S
H540 C522 0.930 . S
H541 C525 0.930 . S
H542 C526 0.931 . S
H543 C530 0.928 . S
H544 C529 0.929 . S
H545 C527 0.932 . S
C546 C547 1.386 . S
C546 C548 1.397 . S
C546 H570 0.931 . S
C547 C546 1.386 . S
C547 C551 1.397 . S
C548 C546 1.397 . S
C548 C549 1.384 . S
C548 H571 0.930 . S
C549 C548 1.384 . S
C549 C550 1.377 . S
C549 C552 1.481 . S
C550 C549 1.377 . S
C550 C551 1.389 . S
C550 H572 0.929 . S
C551 C547 1.397 . S
C551 C550 1.389 . S
C551 H573 0.931 . S
C552 C549 1.481 . S
C552 C553 1.387 . S
C552 C557 1.390 . S
C553 C552 1.387 . S
C553 C554 1.401 . S
C553 H574 0.930 . S
C554 C553 1.401 . S
C554 C555 1.376 . S
C554 C563 1.511 . S
C555 C554 1.376 . S
C555 C556 1.392 . S
C555 H576 0.931 . S
C556 C555 1.392 . S
C556 C557 1.361 . S
C556 C558 1.500 . S
C557 C552 1.390 . S
C557 C556 1.361 . S
C557 H575 0.931 . S
C558 C556 1.500 . S
C558 C559 1.371 . S
C558 C560 1.365 . S
C559 C558 1.371 . S
C559 C569 1.386 . S
C559 H577 0.931 . S
C560 C558 1.365 . S
C560 C561 1.409 . S
C560 H578 0.929 . S
C561 C560 1.409 . S
C561 C562 1.380 . S
C561 H579 0.930 . S
C562 C561 1.380 . S
C562 C569 1.357 . S
C563 C554 1.511 . S
C563 C564 1.341 . S
C563 C565 1.371 . S
C564 C563 1.341 . S
C564 C568 1.394 . S
C564 H580 0.930 . S
C565 C563 1.371 . S
C565 C566 1.392 . S
C565 H581 0.931 . S
C566 C565 1.392 . S
C566 C567 1.331 . S
C566 H584 0.932 . S
C567 C566 1.331 . S
C567 C568 1.336 . S
C568 C564 1.394 . S
C568 C567 1.336 . S
C568 H583 0.929 . S
C569 C559 1.386 . S
C569 C562 1.357 . S
C569 H582 0.928 . S
H570 C546 0.931 . S
H571 C548 0.930 . S
H572 C550 0.929 . S
H573 C551 0.931 . S
H574 C553 0.930 . S
H575 C557 0.931 . S
H576 C555 0.931 . S
H577 C559 0.931 . S
H578 C560 0.929 . S
H579 C561 0.930 . S
H580 C564 0.930 . S
H581 C565 0.931 . S
H582 C569 0.928 . S
H583 C568 0.929 . S
H584 C566 0.932 . S
C585 C586 1.386 . S
C585 C587 1.397 . S
C585 H609 0.931 . S
C586 C585 1.386 . S
C586 C590 1.397 . S
C587 C585 1.397 . S
C587 C588 1.384 . S
C587 H610 0.930 . S
C588 C587 1.384 . S
C588 C589 1.377 . S
C588 C591 1.481 . S
C589 C588 1.377 . S
C589 C590 1.389 . S
C589 H611 0.929 . S
C590 C586 1.397 . S
C590 C589 1.389 . S
C590 H612 0.931 . S
C591 C588 1.481 . S
C591 C592 1.387 . S
C591 C596 1.390 . S
C592 C591 1.387 . S
C592 C593 1.401 . S
C592 H613 0.930 . S
C593 C592 1.401 . S
C593 C594 1.376 . S
C593 C602 1.511 . S
C594 C593 1.376 . S
C594 C595 1.392 . S
C594 H615 0.931 . S
C595 C594 1.392 . S
C595 C596 1.361 . S
C595 C597 1.500 . S
C596 C591 1.390 . S
C596 C595 1.361 . S
C596 H614 0.931 . S
C597 C595 1.500 . S
C597 C598 1.371 . S
C597 C599 1.365 . S
C598 C597 1.371 . S
C598 C608 1.386 . S
C598 H616 0.931 . S
C599 C597 1.365 . S
C599 C600 1.409 . S
C599 H617 0.929 . S
C600 C599 1.409 . S
C600 C601 1.380 . S
C600 H618 0.930 . S
C601 C600 1.380 . S
C601 C608 1.357 . S
C602 C593 1.511 . S
C602 C603 1.341 . S
C602 C604 1.371 . S
C603 C602 1.341 . S
C603 C607 1.394 . S
C603 H619 0.930 . S
C604 C602 1.371 . S
C604 C605 1.392 . S
C604 H620 0.931 . S
C605 C604 1.392 . S
C605 C606 1.331 . S
C605 H623 0.932 . S
C606 C605 1.331 . S
C606 C607 1.336 . S
C607 C603 1.394 . S
C607 C606 1.336 . S
C607 H622 0.929 . S
C608 C598 1.386 . S
C608 C601 1.357 . S
C608 H621 0.928 . S
H609 C585 0.931 . S
H610 C587 0.930 . S
H611 C589 0.929 . S
H612 C590 0.931 . S
H613 C592 0.930 . S
H614 C596 0.931 . S
H615 C594 0.931 . S
H616 C598 0.931 . S
H617 C599 0.929 . S
H618 C600 0.930 . S
H619 C603 0.930 . S
H620 C604 0.931 . S
H621 C608 0.928 . S
H622 C607 0.929 . S
H623 C605 0.932 . S
C624 C625 1.386 . S
C624 C626 1.397 . S
C624 H648 0.931 . S
C625 C624 1.386 . S
C625 C629 1.397 . S
C626 C624 1.397 . S
C626 C627 1.384 . S
C626 H649 0.930 . S
C627 C626 1.384 . S
C627 C628 1.377 . S
C627 C630 1.481 . S
C628 C627 1.377 . S
C628 C629 1.389 . S
C628 H650 0.929 . S
C629 C625 1.397 . S
C629 C628 1.389 . S
C629 H651 0.931 . S
C630 C627 1.481 . S
C630 C631 1.387 . S
C630 C635 1.390 . S
C631 C630 1.387 . S
C631 C632 1.401 . S
C631 H652 0.930 . S
C632 C631 1.401 . S
C632 C633 1.376 . S
C632 C641 1.511 . S
C633 C632 1.376 . S
C633 C634 1.392 . S
C633 H654 0.931 . S
C634 C633 1.392 . S
C634 C635 1.361 . S
C634 C636 1.500 . S
C635 C630 1.390 . S
C635 C634 1.361 . S
C635 H653 0.931 . S
C636 C634 1.500 . S
C636 C637 1.371 . S
C636 C638 1.365 . S
C637 C636 1.371 . S
C637 C647 1.386 . S
C637 H655 0.931 . S
C638 C636 1.365 . S
C638 C639 1.409 . S
C638 H656 0.929 . S
C639 C638 1.409 . S
C639 C640 1.380 . S
C639 H657 0.930 . S
C640 C639 1.380 . S
C640 C647 1.357 . S
C641 C632 1.511 . S
C641 C642 1.341 . S
C641 C643 1.371 . S
C642 C641 1.341 . S
C642 C646 1.394 . S
C642 H658 0.930 . S
C643 C641 1.371 . S
C643 C644 1.392 . S
C643 H659 0.931 . S
C644 C643 1.392 . S
C644 C645 1.331 . S
C644 H662 0.932 . S
C645 C644 1.331 . S
C645 C646 1.336 . S
C646 C642 1.394 . S
C646 C645 1.336 . S
C646 H661 0.929 . S
C647 C637 1.386 . S
C647 C640 1.357 . S
C647 H660 0.928 . S
H648 C624 0.931 . S
H649 C626 0.930 . S
H650 C628 0.929 . S
H651 C629 0.931 . S
H652 C631 0.930 . S
H653 C635 0.931 . S
H654 C633 0.931 . S
H655 C637 0.931 . S
H656 C638 0.929 . S
H657 C639 0.930 . S
H658 C642 0.930 . S
H659 C643 0.931 . S
H660 C647 0.928 . S
H661 C646 0.929 . S
H662 C644 0.932 . S
C663 C664 1.386 . S
C663 C665 1.397 . S
C663 H687 0.931 . S
C664 C663 1.386 . S
C664 C668 1.397 . S
C665 C663 1.397 . S
C665 C666 1.384 . S
C665 H688 0.930 . S
C666 C665 1.384 . S
C666 C667 1.377 . S
C666 C669 1.481 . S
C667 C666 1.377 . S
C667 C668 1.389 . S
C667 H689 0.929 . S
C668 C664 1.397 . S
C668 C667 1.389 . S
C668 H690 0.931 . S
C669 C666 1.481 . S
C669 C670 1.387 . S
C669 C674 1.390 . S
C670 C669 1.387 . S
C670 C671 1.401 . S
C670 H691 0.930 . S
C671 C670 1.401 . S
C671 C672 1.376 . S
C671 C680 1.511 . S
C672 C671 1.376 . S
C672 C673 1.392 . S
C672 H693 0.931 . S
C673 C672 1.392 . S
C673 C674 1.361 . S
C673 C675 1.500 . S
C674 C669 1.390 . S
C674 C673 1.361 . S
C674 H692 0.931 . S
C675 C673 1.500 . S
C675 C676 1.371 . S
C675 C677 1.365 . S
C676 C675 1.371 . S
C676 C686 1.386 . S
C676 H694 0.931 . S
C677 C675 1.365 . S
C677 C678 1.409 . S
C677 H695 0.929 . S
C678 C677 1.409 . S
C678 C679 1.380 . S
C678 H696 0.930 . S
C679 C678 1.380 . S
C679 C686 1.357 . S
C680 C671 1.511 . S
C680 C681 1.341 . S
C680 C682 1.371 . S
C681 C680 1.341 . S
C681 C685 1.394 . S
C681 H697 0.930 . S
C682 C680 1.371 . S
C682 C683 1.392 . S
C682 H698 0.931 . S
C683 C682 1.392 . S
C683 C684 1.331 . S
C683 H701 0.932 . S
C684 C683 1.331 . S
C684 C685 1.336 . S
C685 C681 1.394 . S
C685 C684 1.336 . S
C685 H700 0.929 . S
C686 C676 1.386 . S
C686 C679 1.357 . S
C686 H699 0.928 . S
H687 C663 0.931 . S
H688 C665 0.930 . S
H689 C667 0.929 . S
H690 C668 0.931 . S
H691 C670 0.930 . S
H692 C674 0.931 . S
H693 C672 0.931 . S
H694 C676 0.931 . S
H695 C677 0.929 . S
H696 C678 0.930 . S
H697 C681 0.930 . S
H698 C682 0.931 . S
H699 C686 0.928 . S
H700 C685 0.929 . S
H701 C683 0.932 . S
C702 C703 1.386 . S
C702 C704 1.397 . S
C702 H726 0.931 . S
C703 C702 1.386 . S
C703 C707 1.397 . S
C704 C702 1.397 . S
C704 C705 1.384 . S
C704 H727 0.930 . S
C705 C704 1.384 . S
C705 C706 1.377 . S
C705 C708 1.481 . S
C706 C705 1.377 . S
C706 C707 1.389 . S
C706 H728 0.929 . S
C707 C703 1.397 . S
C707 C706 1.389 . S
C707 H729 0.931 . S
C708 C705 1.481 . S
C708 C709 1.387 . S
C708 C713 1.390 . S
C709 C708 1.387 . S
C709 C710 1.401 . S
C709 H730 0.930 . S
C710 C709 1.401 . S
C710 C711 1.376 . S
C710 C719 1.511 . S
C711 C710 1.376 . S
C711 C712 1.392 . S
C711 H732 0.931 . S
C712 C711 1.392 . S
C712 C713 1.361 . S
C712 C714 1.500 . S
C713 C708 1.390 . S
C713 C712 1.361 . S
C713 H731 0.931 . S
C714 C712 1.500 . S
C714 C715 1.371 . S
C714 C716 1.365 . S
C715 C714 1.371 . S
C715 C725 1.386 . S
C715 H733 0.931 . S
C716 C714 1.365 . S
C716 C717 1.409 . S
C716 H734 0.929 . S
C717 C716 1.409 . S
C717 C718 1.380 . S
C717 H735 0.930 . S
C718 C717 1.380 . S
C718 C725 1.357 . S
C719 C710 1.511 . S
C719 C720 1.341 . S
C719 C721 1.371 . S
C720 C719 1.341 . S
C720 C724 1.394 . S
C720 H736 0.930 . S
C721 C719 1.371 . S
C721 C722 1.392 . S
C721 H737 0.931 . S
C722 C721 1.392 . S
C722 C723 1.331 . S
C722 H740 0.932 . S
C723 C722 1.331 . S
C723 C724 1.336 . S
C724 C720 1.394 . S
C724 C723 1.336 . S
C724 H739 0.929 . S
C725 C715 1.386 . S
C725 C718 1.357 . S
C725 H738 0.928 . S
H726 C702 0.931 . S
H727 C704 0.930 . S
H728 C706 0.929 . S
H729 C707 0.931 . S
H730 C709 0.930 . S
H731 C713 0.931 . S
H732 C711 0.931 . S
H733 C715 0.931 . S
H734 C716 0.929 . S
H735 C717 0.930 . S
H736 C720 0.930 . S
H737 C721 0.931 . S
H738 C725 0.928 . S
H739 C724 0.929 . S
H740 C722 0.932 . S
C741 C742 1.386 . S
C741 C743 1.397 . S
C741 H765 0.931 . S
C742 C741 1.386 . S
C742 C746 1.397 . S
C743 C741 1.397 . S
C743 C744 1.384 . S
C743 H766 0.930 . S
C744 C743 1.384 . S
C744 C745 1.377 . S
C744 C747 1.481 . S
C745 C744 1.377 . S
C745 C746 1.389 . S
C745 H767 0.929 . S
C746 C742 1.397 . S
C746 C745 1.389 . S
C746 H768 0.931 . S
C747 C744 1.481 . S
C747 C748 1.387 . S
C747 C752 1.390 . S
C748 C747 1.387 . S
C748 C749 1.401 . S
C748 H769 0.930 . S
C749 C748 1.401 . S
C749 C750 1.376 . S
C749 C758 1.511 . S
C750 C749 1.376 . S
C750 C751 1.392 . S
C750 H771 0.931 . S
C751 C750 1.392 . S
C751 C752 1.361 . S
C751 C753 1.500 . S
C752 C747 1.390 . S
C752 C751 1.361 . S
C752 H770 0.931 . S
C753 C751 1.500 . S
C753 C754 1.371 . S
C753 C755 1.365 . S
C754 C753 1.371 . S
C754 C764 1.386 . S
C754 H772 0.931 . S
C755 C753 1.365 . S
C755 C756 1.409 . S
C755 H773 0.929 . S
C756 C755 1.409 . S
C756 C757 1.380 . S
C756 H774 0.930 . S
C757 C756 1.380 . S
C757 C764 1.357 . S
C758 C749 1.511 . S
C758 C759 1.341 . S
C758 C760 1.371 . S
C759 C758 1.341 . S
C759 C763 1.394 . S
C759 H775 0.930 . S
C760 C758 1.371 . S
C760 C761 1.392 . S
C760 H776 0.931 . S
C761 C760 1.392 . S
C761 C762 1.331 . S
C761 H779 0.932 . S
C762 C761 1.331 . S
C762 C763 1.336 . S
C763 C759 1.394 . S
C763 C762 1.336 . S
C763 H778 0.929 . S
C764 C754 1.386 . S
C764 C757 1.357 . S
C764 H777 0.928 . S
H765 C741 0.931 . S
H766 C743 0.930 . S
H767 C745 0.929 . S
H768 C746 0.931 . S
H769 C748 0.930 . S
H770 C752 0.931 . S
H771 C750 0.931 . S
H772 C754 0.931 . S
H773 C755 0.929 . S
H774 C756 0.930 . S
H775 C759 0.930 . S
H776 C760 0.931 . S
H777 C764 0.928 . S
H778 C763 0.929 . S
H779 C761 0.932 . S
C780 C781 1.386 . S
C780 C782 1.397 . S
C780 H804 0.931 . S
C781 C780 1.386 . S
C781 C785 1.397 . S
C782 C780 1.397 . S
C782 C783 1.384 . S
C782 H805 0.930 . S
C783 C782 1.384 . S
C783 C784 1.377 . S
C783 C786 1.481 . S
C784 C783 1.377 . S
C784 C785 1.389 . S
C784 H806 0.929 . S
C785 C781 1.397 . S
C785 C784 1.389 . S
C785 H807 0.931 . S
C786 C783 1.481 . S
C786 C787 1.387 . S
C786 C791 1.390 . S
C787 C786 1.387 . S
C787 C788 1.401 . S
C787 H808 0.930 . S
C788 C787 1.401 . S
C788 C789 1.376 . S
C788 C797 1.511 . S
C789 C788 1.376 . S
C789 C790 1.392 . S
C789 H810 0.931 . S
C790 C789 1.392 . S
C790 C791 1.361 . S
C790 C792 1.500 . S
C791 C786 1.390 . S
C791 C790 1.361 . S
C791 H809 0.931 . S
C792 C790 1.500 . S
C792 C793 1.371 . S
C792 C794 1.365 . S
C793 C792 1.371 . S
C793 C803 1.386 . S
C793 H811 0.931 . S
C794 C792 1.365 . S
C794 C795 1.409 . S
C794 H812 0.929 . S
C795 C794 1.409 . S
C795 C796 1.380 . S
C795 H813 0.930 . S
C796 C795 1.380 . S
C796 C803 1.357 . S
C797 C788 1.511 . S
C797 C798 1.341 . S
C797 C799 1.371 . S
C798 C797 1.341 . S
C798 C802 1.394 . S
C798 H814 0.930 . S
C799 C797 1.371 . S
C799 C800 1.392 . S
C799 H815 0.931 . S
C800 C799 1.392 . S
C800 C801 1.331 . S
C800 H818 0.932 . S
C801 C800 1.331 . S
C801 C802 1.336 . S
C802 C798 1.394 . S
C802 C801 1.336 . S
C802 H817 0.929 . S
C803 C793 1.386 . S
C803 C796 1.357 . S
C803 H816 0.928 . S
H804 C780 0.931 . S
H805 C782 0.930 . S
H806 C784 0.929 . S
H807 C785 0.931 . S
H808 C787 0.930 . S
H809 C791 0.931 . S
H810 C789 0.931 . S
H811 C793 0.931 . S
H812 C794 0.929 . S
H813 C795 0.930 . S
H814 C798 0.930 . S
H815 C799 0.931 . S
H816 C803 0.928 . S
H817 C802 0.929 . S
H818 C800 0.932 . S
C819 C820 1.386 . S
C819 C821 1.397 . S
C819 H843 0.931 . S
C820 C819 1.386 . S
C820 C824 1.397 . S
C821 C819 1.397 . S
C821 C822 1.384 . S
C821 H844 0.930 . S
C822 C821 1.384 . S
C822 C823 1.377 . S
C822 C825 1.481 . S
C823 C822 1.377 . S
C823 C824 1.389 . S
C823 H845 0.929 . S
C824 C820 1.397 . S
C824 C823 1.389 . S
C824 H846 0.931 . S
C825 C822 1.481 . S
C825 C826 1.387 . S
C825 C830 1.390 . S
C826 C825 1.387 . S
C826 C827 1.401 . S
C826 H847 0.930 . S
C827 C826 1.401 . S
C827 C828 1.376 . S
C827 C836 1.511 . S
C828 C827 1.376 . S
C828 C829 1.392 . S
C828 H849 0.931 . S
C829 C828 1.392 . S
C829 C830 1.361 . S
C829 C831 1.500 . S
C830 C825 1.390 . S
C830 C829 1.361 . S
C830 H848 0.931 . S
C831 C829 1.500 . S
C831 C832 1.371 . S
C831 C833 1.365 . S
C832 C831 1.371 . S
C832 C842 1.386 . S
C832 H850 0.931 . S
C833 C831 1.365 . S
C833 C834 1.409 . S
C833 H851 0.929 . S
C834 C833 1.409 . S
C834 C835 1.380 . S
C834 H852 0.930 . S
C835 C834 1.380 . S
C835 C842 1.357 . S
C836 C827 1.511 . S
C836 C837 1.341 . S
C836 C838 1.371 . S
C837 C836 1.341 . S
C837 C841 1.394 . S
C837 H853 0.930 . S
C838 C836 1.371 . S
C838 C839 1.392 . S
C838 H854 0.931 . S
C839 C838 1.392 . S
C839 C840 1.331 . S
C839 H857 0.932 . S
C840 C839 1.331 . S
C840 C841 1.336 . S
C841 C837 1.394 . S
C841 C840 1.336 . S
C841 H856 0.929 . S
C842 C832 1.386 . S
C842 C835 1.357 . S
C842 H855 0.928 . S
H843 C819 0.931 . S
H844 C821 0.930 . S
H845 C823 0.929 . S
H846 C824 0.931 . S
H847 C826 0.930 . S
H848 C830 0.931 . S
H849 C828 0.931 . S
H850 C832 0.931 . S
H851 C833 0.929 . S
H852 C834 0.930 . S
H853 C837 0.930 . S
H854 C838 0.931 . S
H855 C842 0.928 . S
H856 C841 0.929 . S
H857 C839 0.932 . S
C858 C859 1.386 . S
C858 C860 1.397 . S
C858 H882 0.931 . S
C859 C858 1.386 . S
C859 C863 1.397 . S
C860 C858 1.397 . S
C860 C861 1.384 . S
C860 H883 0.930 . S
C861 C860 1.384 . S
C861 C862 1.377 . S
C861 C864 1.481 . S
C862 C861 1.377 . S
C862 C863 1.389 . S
C862 H884 0.929 . S
C863 C859 1.397 . S
C863 C862 1.389 . S
C863 H885 0.931 . S
C864 C861 1.481 . S
C864 C865 1.387 . S
C864 C869 1.390 . S
C865 C864 1.387 . S
C865 C866 1.401 . S
C865 H886 0.930 . S
C866 C865 1.401 . S
C866 C867 1.376 . S
C866 C875 1.511 . S
C867 C866 1.376 . S
C867 C868 1.392 . S
C867 H888 0.931 . S
C868 C867 1.392 . S
C868 C869 1.361 . S
C868 C870 1.500 . S
C869 C864 1.390 . S
C869 C868 1.361 . S
C869 H887 0.931 . S
C870 C868 1.500 . S
C870 C871 1.371 . S
C870 C872 1.365 . S
C871 C870 1.371 . S
C871 C881 1.386 . S
C871 H889 0.931 . S
C872 C870 1.365 . S
C872 C873 1.409 . S
C872 H890 0.929 . S
C873 C872 1.409 . S
C873 C874 1.380 . S
C873 H891 0.930 . S
C874 C873 1.380 . S
C874 C881 1.357 . S
C875 C866 1.511 . S
C875 C876 1.341 . S
C875 C877 1.371 . S
C876 C875 1.341 . S
C876 C880 1.394 . S
C876 H892 0.930 . S
C877 C875 1.371 . S
C877 C878 1.392 . S
C877 H893 0.931 . S
C878 C877 1.392 . S
C878 C879 1.331 . S
C878 H896 0.932 . S
C879 C878 1.331 . S
C879 C880 1.336 . S
C880 C876 1.394 . S
C880 C879 1.336 . S
C880 H895 0.929 . S
C881 C871 1.386 . S
C881 C874 1.357 . S
C881 H894 0.928 . S
H882 C858 0.931 . S
H883 C860 0.930 . S
H884 C862 0.929 . S
H885 C863 0.931 . S
H886 C865 0.930 . S
H887 C869 0.931 . S
H888 C867 0.931 . S
H889 C871 0.931 . S
H890 C872 0.929 . S
H891 C873 0.930 . S
H892 C876 0.930 . S
H893 C877 0.931 . S
H894 C881 0.928 . S
H895 C880 0.929 . S
H896 C878 0.932 . S
C897 C898 1.386 . S
C897 C899 1.397 . S
C897 H921 0.931 . S
C898 C897 1.386 . S
C898 C902 1.397 . S
C899 C897 1.397 . S
C899 C900 1.384 . S
C899 H922 0.930 . S
C900 C899 1.384 . S
C900 C901 1.377 . S
C900 C903 1.481 . S
C901 C900 1.377 . S
C901 C902 1.389 . S
C901 H923 0.929 . S
C902 C898 1.397 . S
C902 C901 1.389 . S
C902 H924 0.931 . S
C903 C900 1.481 . S
C903 C904 1.387 . S
C903 C908 1.390 . S
C904 C903 1.387 . S
C904 C905 1.401 . S
C904 H925 0.930 . S
C905 C904 1.401 . S
C905 C906 1.376 . S
C905 C914 1.511 . S
C906 C905 1.376 . S
C906 C907 1.392 . S
C906 H927 0.931 . S
C907 C906 1.392 . S
C907 C908 1.361 . S
C907 C909 1.500 . S
C908 C903 1.390 . S
C908 C907 1.361 . S
C908 H926 0.931 . S
C909 C907 1.500 . S
C909 C910 1.371 . S
C909 C911 1.365 . S
C910 C909 1.371 . S
C910 C920 1.386 . S
C910 H928 0.931 . S
C911 C909 1.365 . S
C911 C912 1.409 . S
C911 H929 0.929 . S
C912 C911 1.409 . S
C912 C913 1.380 . S
C912 H930 0.930 . S
C913 C912 1.380 . S
C913 C920 1.357 . S
C914 C905 1.511 . S
C914 C915 1.341 . S
C914 C916 1.371 . S
C915 C914 1.341 . S
C915 C919 1.394 . S
C915 H931 0.930 . S
C916 C914 1.371 . S
C916 C917 1.392 . S
C916 H932 0.931 . S
C917 C916 1.392 . S
C917 C918 1.331 . S
C917 H935 0.932 . S
C918 C917 1.331 . S
C918 C919 1.336 . S
C919 C915 1.394 . S
C919 C918 1.336 . S
C919 H934 0.929 . S
C920 C910 1.386 . S
C920 C913 1.357 . S
C920 H933 0.928 . S
H921 C897 0.931 . S
H922 C899 0.930 . S
H923 C901 0.929 . S
H924 C902 0.931 . S
H925 C904 0.930 . S
H926 C908 0.931 . S
H927 C906 0.931 . S
H928 C910 0.931 . S
H929 C911 0.929 . S
H930 C912 0.930 . S
H931 C915 0.930 . S
H932 C916 0.931 . S
H933 C920 0.928 . S
H934 C919 0.929 . S
H935 C917 0.932 . S
C936 O962 1.283 . S
C936 O980 1.283 . S
C937 O963 1.283 . S
C937 O978 1.283 . S
C938 O964 1.283 . S
C938 O981 1.283 . S
C939 O965 1.283 . S
C939 O979 1.283 . S
C940 O966 1.283 . S
C940 O975 1.283 . S
C941 O967 1.283 . S
C941 O977 1.283 . S
C942 O968 1.283 . S
C942 O974 1.283 . S
C943 O969 1.283 . S
C943 O976 1.283 . S
C944 O970 1.283 . S
C944 O985 1.283 . S
C945 O971 1.283 . S
C945 O983 1.283 . S
C946 O972 1.283 . S
C946 O984 1.283 . S
C947 O973 1.283 . S
C947 O982 1.283 . S
Eu948 O949 2.370 1_455 S
Eu948 O950 2.370 . S
Eu948 O953 2.370 1_455 S
Eu948 O954 2.370 . S
Eu948 O962 2.363 . S
Eu948 O963 2.363 . S
Eu948 O976 2.363 . S
Eu948 O977 2.363 1_455 S
O949 Eu948 2.370 1_655 S
O949 Eu951 2.370 1_565 S
O949 Eu956 2.370 1_665 S
O950 Eu948 2.370 . S
O950 Eu952 2.370 1_565 S
O950 Eu955 2.370 1_565 S
Eu951 O949 2.370 1_545 S
Eu951 O953 2.370 1_545 S
Eu951 O957 2.370 . S
Eu951 O958 2.370 . S
Eu951 O966 2.363 . S
Eu951 O967 2.363 1_545 S
Eu951 O982 2.363 . S
Eu951 O983 2.363 . S
Eu952 O950 2.370 1_545 S
Eu952 O954 2.370 1_545 S
Eu952 O959 2.370 . S
Eu952 O960 2.370 . S
Eu952 O968 2.363 . S
Eu952 O969 2.363 1_545 S
Eu952 O984 2.363 . S
Eu952 O985 2.363 . S
O953 Eu948 2.370 1_655 S
O953 Eu951 2.370 1_565 S
O953 Eu955 2.370 1_665 S
O954 Eu948 2.370 . S
O954 Eu952 2.370 1_565 S
O954 Eu956 2.370 1_565 S
Eu955 O950 2.370 1_545 S
Eu955 O953 2.370 1_445 S
Eu955 O957 2.370 1_455 S
Eu955 O960 2.370 . S
Eu955 O972 2.363 . S
Eu955 O973 2.363 1_455 S
Eu955 O980 2.363 1_545 S
Eu955 O981 2.363 . S
Eu956 O949 2.370 1_445 S
Eu956 O954 2.370 1_545 S
Eu956 O958 2.370 1_455 S
Eu956 O959 2.370 . S
Eu956 O970 2.363 . S
Eu956 O971 2.363 1_455 S
Eu956 O978 2.363 1_545 S
Eu956 O979 2.363 . S
O957 Eu951 2.370 . S
O957 Eu955 2.370 1_655 S
O957 Eu961 2.370 1_655 S
O958 Eu951 2.370 . S
O958 Eu956 2.370 1_655 S
O958 Eu961 2.370 1_655 S
O959 Eu952 2.370 . S
O959 Eu956 2.370 . S
O959 Eu961 2.370 . S
O960 Eu952 2.370 . S
O960 Eu955 2.370 . S
O960 Eu961 2.370 . S
Eu961 O957 2.370 1_455 S
Eu961 O958 2.370 1_455 S
Eu961 O959 2.370 . S
Eu961 O960 2.370 . S
Eu961 O964 2.363 . S
Eu961 O965 2.363 . S
Eu961 O974 2.363 . S
Eu961 O975 2.363 1_455 S
O962 C936 1.283 . S
O962 Eu948 2.363 . S
O963 C937 1.283 . S
O963 Eu948 2.363 . S
O964 C938 1.283 . S
O964 Eu961 2.363 . S
O965 C939 1.283 . S
O965 Eu961 2.363 . S
O966 C940 1.283 . S
O966 Eu951 2.363 . S
O967 C941 1.283 . S
O967 Eu951 2.363 1_565 S
O968 C942 1.283 . S
O968 Eu952 2.363 . S
O969 C943 1.283 . S
O969 Eu952 2.363 1_565 S
O970 C944 1.283 . S
O970 Eu956 2.363 . S
O971 C945 1.283 . S
O971 Eu956 2.363 1_655 S
O972 C946 1.283 . S
O972 Eu955 2.363 . S
O973 C947 1.283 . S
O973 Eu955 2.363 1_655 S
O974 C942 1.283 . S
O974 Eu961 2.363 . S
O975 C940 1.283 . S
O975 Eu961 2.363 1_655 S
O976 C943 1.283 . S
O976 Eu948 2.363 . S
O977 C941 1.283 . S
O977 Eu948 2.363 1_655 S
O978 C937 1.283 . S
O978 Eu956 2.363 1_565 S
O979 C939 1.283 . S
O979 Eu956 2.363 . S
O980 C936 1.283 . S
O980 Eu955 2.363 1_565 S
O981 C938 1.283 . S
O981 Eu955 2.363 . S
O982 C947 1.283 . S
O982 Eu951 2.363 . S
O983 C945 1.283 . S
O983 Eu951 2.363 . S
O984 C946 1.283 . S
O984 Eu952 2.363 . S
O985 C944 1.283 . S
O985 Eu952 2.363 . S
C986 O1012 1.283 . S
C986 O1030 1.283 . S
C987 O1013 1.283 . S
C987 O1028 1.283 . S
C988 O1014 1.283 . S
C988 O1031 1.283 . S
C989 O1015 1.283 . S
C989 O1029 1.283 . S
C990 O1016 1.283 . S
C990 O1025 1.283 . S
C991 O1017 1.283 . S
C991 O1027 1.283 . S
C992 O1018 1.283 . S
C992 O1024 1.283 . S
C993 O1019 1.283 . S
C993 O1026 1.283 . S
C994 O1020 1.283 . S
C994 O1035 1.283 . S
C995 O1021 1.283 . S
C995 O1033 1.283 . S
C996 O1022 1.283 . S
C996 O1034 1.283 . S
C997 O1023 1.283 . S
C997 O1032 1.283 . S
Eu998 O999 2.371 . S
Eu998 O1000 2.369 1_545 S
Eu998 O1003 2.369 1_545 S
Eu998 O1004 2.371 . S
Eu998 O1012 2.362 1_545 S
Eu998 O1013 2.364 . S
Eu998 O1026 2.363 . S
Eu998 O1027 2.363 . S
O999 Eu998 2.371 . S
O999 Eu1001 2.370 . S
O999 Eu1006 2.369 . S
O1000 Eu998 2.369 1_565 S
O1000 Eu1002 2.370 1_565 S
O1000 Eu1005 2.371 . S
Eu1001 O999 2.370 . S
Eu1001 O1003 2.370 1_545 S
Eu1001 O1007 2.370 1_544 S
Eu1001 O1008 2.370 1_554 S
Eu1001 O1016 2.363 1_554 S
Eu1001 O1017 2.363 . S
Eu1001 O1032 2.363 1_545 S
Eu1001 O1033 2.363 . S
Eu1002 O1000 2.370 1_545 S
Eu1002 O1004 2.370 . S
Eu1002 O1009 2.370 1_554 S
Eu1002 O1010 2.370 1_544 S
Eu1002 O1018 2.363 1_554 S
Eu1002 O1019 2.363 . S
Eu1002 O1034 2.363 1_545 S
Eu1002 O1035 2.363 . S
O1003 Eu998 2.369 1_565 S
O1003 Eu1001 2.370 1_565 S
O1003 Eu1005 2.371 . S
O1004 Eu998 2.371 . S
O1004 Eu1002 2.370 . S
O1004 Eu1006 2.369 . S
Eu1005 O1000 2.371 . S
Eu1005 O1003 2.371 . S
Eu1005 O1007 2.369 1_554 S
Eu1005 O1010 2.369 1_554 S
Eu1005 O1022 2.363 . S
Eu1005 O1023 2.363 . S
Eu1005 O1030 2.364 . S
Eu1005 O1031 2.362 1_554 S
Eu1006 O999 2.369 . S
Eu1006 O1004 2.369 . S
Eu1006 O1008 2.371 1_554 S
Eu1006 O1009 2.371 1_554 S
Eu1006 O1020 2.363 . S
Eu1006 O1021 2.363 . S
Eu1006 O1028 2.362 . S
Eu1006 O1029 2.364 1_554 S
O1007 Eu1001 2.370 1_566 S
O1007 Eu1005 2.369 1_556 S
O1007 Eu1011 2.371 1_565 S
O1008 Eu1001 2.370 1_556 S
O1008 Eu1006 2.371 1_556 S
O1008 Eu1011 2.369 . S
O1009 Eu1002 2.370 1_556 S
O1009 Eu1006 2.371 1_556 S
O1009 Eu1011 2.369 . S
O1010 Eu1002 2.370 1_566 S
O1010 Eu1005 2.369 1_556 S
O1010 Eu1011 2.371 1_565 S
Eu1011 O1007 2.371 1_545 S
Eu1011 O1008 2.369 . S
Eu1011 O1009 2.369 . S
Eu1011 O1010 2.371 1_545 S
Eu1011 O1014 2.364 1_545 S
Eu1011 O1015 2.362 . S
Eu1011 O1024 2.363 . S
Eu1011 O1025 2.363 . S
O1012 C986 1.283 . S
O1012 Eu998 2.362 1_565 S
O1013 C987 1.283 . S
O1013 Eu998 2.364 . S
O1014 C988 1.283 . S
O1014 Eu1011 2.364 1_565 S
O1015 C989 1.283 . S
O1015 Eu1011 2.362 . S
O1016 C990 1.283 . S
O1016 Eu1001 2.363 1_556 S
O1017 C991 1.283 . S
O1017 Eu1001 2.363 . S
O1018 C992 1.283 . S
O1018 Eu1002 2.363 1_556 S
O1019 C993 1.283 . S
O1019 Eu1002 2.363 . S
O1020 C994 1.283 . S
O1020 Eu1006 2.363 . S
O1021 C995 1.283 . S
O1021 Eu1006 2.363 . S
O1022 C996 1.283 . S
O1022 Eu1005 2.363 . S
O1023 C997 1.283 . S
O1023 Eu1005 2.363 . S
O1024 C992 1.283 . S
O1024 Eu1011 2.363 . S
O1025 C990 1.283 . S
O1025 Eu1011 2.363 . S
O1026 C993 1.283 . S
O1026 Eu998 2.363 . S
O1027 C991 1.283 . S
O1027 Eu998 2.363 . S
O1028 C987 1.283 . S
O1028 Eu1006 2.362 . S
O1029 C989 1.283 . S
O1029 Eu1006 2.364 1_556 S
O1030 C986 1.283 . S
O1030 Eu1005 2.364 . S
O1031 C988 1.283 . S
O1031 Eu1005 2.362 1_556 S
O1032 C997 1.283 . S
O1032 Eu1001 2.363 1_565 S
O1033 C995 1.283 . S
O1033 Eu1001 2.363 . S
O1034 C996 1.283 . S
O1034 Eu1002 2.363 1_565 S
O1035 C994 1.283 . S
O1035 Eu1002 2.363 . S
C1036 O1062 1.283 . S
C1036 O1080 1.283 . S
C1037 O1063 1.283 . S
C1037 O1078 1.283 . S
C1038 O1064 1.283 . S
C1038 O1081 1.283 . S
C1039 O1065 1.283 . S
C1039 O1079 1.283 . S
C1040 O1066 1.283 . S
C1040 O1075 1.283 . S
C1041 O1067 1.283 . S
C1041 O1077 1.283 . S
C1042 O1068 1.283 . S
C1042 O1074 1.283 . S
C1043 O1069 1.283 . S
C1043 O1076 1.283 . S
C1044 O1070 1.283 . S
C1044 O1085 1.283 . S
C1045 O1071 1.283 . S
C1045 O1083 1.283 . S
C1046 O1072 1.283 . S
C1046 O1084 1.283 . S
C1047 O1073 1.283 . S
C1047 O1082 1.283 . S
Eu1048 O1049 2.370 1_454 S
Eu1048 O1050 2.370 . S
Eu1048 O1053 2.370 1_455 S
Eu1048 O1054 2.370 1_554 S
Eu1048 O1062 2.363 . S
Eu1048 O1063 2.363 1_554 S
Eu1048 O1076 2.363 . S
Eu1048 O1077 2.363 1_455 S
O1049 Eu1048 2.370 1_656 S
O1049 Eu1051 2.370 1_556 S
O1049 Eu1056 2.370 1_655 S
O1050 Eu1048 2.370 . S
O1050 Eu1052 2.370 . S
O1050 Eu1055 2.370 . S
Eu1051 O1049 2.370 1_554 S
Eu1051 O1053 2.370 . S
Eu1051 O1057 2.370 . S
Eu1051 O1058 2.370 1_554 S
Eu1051 O1066 2.363 . S
Eu1051 O1067 2.363 . S
Eu1051 O1082 2.363 . S
Eu1051 O1083 2.363 1_554 S
Eu1052 O1050 2.370 . S
Eu1052 O1054 2.370 1_554 S
Eu1052 O1059 2.370 1_554 S
Eu1052 O1060 2.370 . S
Eu1052 O1068 2.363 . S
Eu1052 O1069 2.363 . S
Eu1052 O1084 2.363 . S
Eu1052 O1085 2.363 1_554 S
O1053 Eu1048 2.370 1_655 S
O1053 Eu1051 2.370 . S
O1053 Eu1055 2.370 1_655 S
O1054 Eu1048 2.370 1_556 S
O1054 Eu1052 2.370 1_556 S
O1054 Eu1056 2.370 . S
Eu1055 O1050 2.370 . S
Eu1055 O1053 2.370 1_455 S
Eu1055 O1057 2.370 1_455 S
Eu1055 O1060 2.370 . S
Eu1055 O1072 2.363 . S
Eu1055 O1073 2.363 1_455 S
Eu1055 O1080 2.363 . S
Eu1055 O1081 2.363 . S
Eu1056 O1049 2.370 1_455 S
Eu1056 O1054 2.370 . S
Eu1056 O1058 2.370 1_455 S
Eu1056 O1059 2.370 . S
Eu1056 O1070 2.363 . S
Eu1056 O1071 2.363 1_455 S
Eu1056 O1078 2.363 . S
Eu1056 O1079 2.363 . S
O1057 Eu1051 2.370 . S
O1057 Eu1055 2.370 1_655 S
O1057 Eu1061 2.370 1_655 S
O1058 Eu1051 2.370 1_556 S
O1058 Eu1056 2.370 1_655 S
O1058 Eu1061 2.370 1_656 S
O1059 Eu1052 2.370 1_556 S
O1059 Eu1056 2.370 . S
O1059 Eu1061 2.370 1_556 S
O1060 Eu1052 2.370 . S
O1060 Eu1055 2.370 . S
O1060 Eu1061 2.370 . S
Eu1061 O1057 2.370 1_455 S
Eu1061 O1058 2.370 1_454 S
Eu1061 O1059 2.370 1_554 S
Eu1061 O1060 2.370 . S
Eu1061 O1064 2.363 . S
Eu1061 O1065 2.363 1_554 S
Eu1061 O1074 2.363 . S
Eu1061 O1075 2.363 1_455 S
O1062 C1036 1.283 . S
O1062 Eu1048 2.363 . S
O1063 C1037 1.283 . S
O1063 Eu1048 2.363 1_556 S
O1064 C1038 1.283 . S
O1064 Eu1061 2.363 . S
O1065 C1039 1.283 . S
O1065 Eu1061 2.363 1_556 S
O1066 C1040 1.283 . S
O1066 Eu1051 2.363 . S
O1067 C1041 1.283 . S
O1067 Eu1051 2.363 . S
O1068 C1042 1.283 . S
O1068 Eu1052 2.363 . S
O1069 C1043 1.283 . S
O1069 Eu1052 2.363 . S
O1070 C1044 1.283 . S
O1070 Eu1056 2.363 . S
O1071 C1045 1.283 . S
O1071 Eu1056 2.363 1_655 S
O1072 C1046 1.283 . S
O1072 Eu1055 2.363 . S
O1073 C1047 1.283 . S
O1073 Eu1055 2.363 1_655 S
O1074 C1042 1.283 . S
O1074 Eu1061 2.363 . S
O1075 C1040 1.283 . S
O1075 Eu1061 2.363 1_655 S
O1076 C1043 1.283 . S
O1076 Eu1048 2.363 . S
O1077 C1041 1.283 . S
O1077 Eu1048 2.363 1_655 S
O1078 C1037 1.283 . S
O1078 Eu1056 2.363 . S
O1079 C1039 1.283 . S
O1079 Eu1056 2.363 . S
O1080 C1036 1.283 . S
O1080 Eu1055 2.363 . S
O1081 C1038 1.283 . S
O1081 Eu1055 2.363 . S
O1082 C1047 1.283 . S
O1082 Eu1051 2.363 . S
O1083 C1045 1.283 . S
O1083 Eu1051 2.363 1_556 S
O1084 C1046 1.283 . S
O1084 Eu1052 2.363 . S
O1085 C1044 1.283 . S
O1085 Eu1052 2.363 1_556 S
C1086 O1112 1.283 . S
C1086 O1130 1.283 . S
C1087 O1113 1.283 . S
C1087 O1128 1.283 . S
C1088 O1114 1.283 . S
C1088 O1131 1.283 . S
C1089 O1115 1.283 . S
C1089 O1129 1.283 . S
C1090 O1116 1.283 . S
C1090 O1125 1.283 . S
C1091 O1117 1.283 . S
C1091 O1127 1.283 . S
C1092 O1118 1.283 . S
C1092 O1124 1.283 . S
C1093 O1119 1.283 . S
C1093 O1126 1.283 . S
C1094 O1120 1.283 . S
C1094 O1135 1.283 . S
C1095 O1121 1.283 . S
C1095 O1133 1.283 . S
C1096 O1122 1.283 . S
C1096 O1134 1.283 . S
C1097 O1123 1.283 . S
C1097 O1132 1.283 . S
Eu1098 O1099 2.370 . S
Eu1098 O1100 2.370 . S
Eu1098 O1103 2.370 . S
Eu1098 O1104 2.370 . S
Eu1098 O1112 2.363 . S
Eu1098 O1113 2.363 . S
Eu1098 O1126 2.363 . S
Eu1098 O1127 2.363 . S
O1099 Eu1098 2.370 . S
O1099 Eu1101 2.370 . S
O1099 Eu1106 2.370 . S
O1100 Eu1098 2.370 . S
O1100 Eu1102 2.370 . S
O1100 Eu1105 2.370 . S
Eu1101 O1099 2.370 . S
Eu1101 O1103 2.370 . S
Eu1101 O1107 2.370 1_554 S
Eu1101 O1108 2.370 1_554 S
Eu1101 O1116 2.363 1_554 S
Eu1101 O1117 2.363 . S
Eu1101 O1132 2.363 . S
Eu1101 O1133 2.363 . S
Eu1102 O1100 2.370 . S
Eu1102 O1104 2.370 . S
Eu1102 O1109 2.370 1_554 S
Eu1102 O1110 2.370 1_554 S
Eu1102 O1118 2.363 1_554 S
Eu1102 O1119 2.363 . S
Eu1102 O1134 2.363 . S
Eu1102 O1135 2.363 . S
O1103 Eu1098 2.370 . S
O1103 Eu1101 2.370 . S
O1103 Eu1105 2.370 . S
O1104 Eu1098 2.370 . S
O1104 Eu1102 2.370 . S
O1104 Eu1106 2.370 . S
Eu1105 O1100 2.370 . S
Eu1105 O1103 2.370 . S
Eu1105 O1107 2.370 1_554 S
Eu1105 O1110 2.370 1_554 S
Eu1105 O1122 2.363 . S
Eu1105 O1123 2.363 . S
Eu1105 O1130 2.363 . S
Eu1105 O1131 2.363 1_554 S
Eu1106 O1099 2.370 . S
Eu1106 O1104 2.370 . S
Eu1106 O1108 2.370 1_554 S
Eu1106 O1109 2.370 1_554 S
Eu1106 O1120 2.363 . S
Eu1106 O1121 2.363 . S
Eu1106 O1128 2.363 . S
Eu1106 O1129 2.363 1_554 S
O1107 Eu1101 2.370 1_556 S
O1107 Eu1105 2.370 1_556 S
O1107 Eu1111 2.370 . S
O1108 Eu1101 2.370 1_556 S
O1108 Eu1106 2.370 1_556 S
O1108 Eu1111 2.370 . S
O1109 Eu1102 2.370 1_556 S
O1109 Eu1106 2.370 1_556 S
O1109 Eu1111 2.370 . S
O1110 Eu1102 2.370 1_556 S
O1110 Eu1105 2.370 1_556 S
O1110 Eu1111 2.370 . S
Eu1111 O1107 2.370 . S
Eu1111 O1108 2.370 . S
Eu1111 O1109 2.370 . S
Eu1111 O1110 2.370 . S
Eu1111 O1114 2.363 . S
Eu1111 O1115 2.363 . S
Eu1111 O1124 2.363 . S
Eu1111 O1125 2.363 . S
O1112 C1086 1.283 . S
O1112 Eu1098 2.363 . S
O1113 C1087 1.283 . S
O1113 Eu1098 2.363 . S
O1114 C1088 1.283 . S
O1114 Eu1111 2.363 . S
O1115 C1089 1.283 . S
O1115 Eu1111 2.363 . S
O1116 C1090 1.283 . S
O1116 Eu1101 2.363 1_556 S
O1117 C1091 1.283 . S
O1117 Eu1101 2.363 . S
O1118 C1092 1.283 . S
O1118 Eu1102 2.363 1_556 S
O1119 C1093 1.283 . S
O1119 Eu1102 2.363 . S
O1120 C1094 1.283 . S
O1120 Eu1106 2.363 . S
O1121 C1095 1.283 . S
O1121 Eu1106 2.363 . S
O1122 C1096 1.283 . S
O1122 Eu1105 2.363 . S
O1123 C1097 1.283 . S
O1123 Eu1105 2.363 . S
O1124 C1092 1.283 . S
O1124 Eu1111 2.363 . S
O1125 C1090 1.283 . S
O1125 Eu1111 2.363 . S
O1126 C1093 1.283 . S
O1126 Eu1098 2.363 . S
O1127 C1091 1.283 . S
O1127 Eu1098 2.363 . S
O1128 C1087 1.283 . S
O1128 Eu1106 2.363 . S
O1129 C1089 1.283 . S
O1129 Eu1106 2.363 1_556 S
O1130 C1086 1.283 . S
O1130 Eu1105 2.363 . S
O1131 C1088 1.283 . S
O1131 Eu1105 2.363 1_556 S
O1132 C1097 1.283 . S
O1132 Eu1101 2.363 . S
O1133 C1095 1.283 . S
O1133 Eu1101 2.363 . S
O1134 C1096 1.283 . S
O1134 Eu1102 2.363 . S
O1135 C1094 1.283 . S
O1135 Eu1102 2.363 . S
C1136 O1162 1.283 . S
C1136 O1180 1.283 . S
C1137 O1163 1.283 . S
C1137 O1178 1.283 . S
C1138 O1164 1.283 . S
C1138 O1181 1.283 . S
C1139 O1165 1.283 . S
C1139 O1179 1.283 . S
C1140 O1166 1.283 . S
C1140 O1175 1.283 . S
C1141 O1167 1.283 . S
C1141 O1177 1.283 . S
C1142 O1168 1.283 . S
C1142 O1174 1.283 . S
C1143 O1169 1.283 . S
C1143 O1176 1.283 . S
C1144 O1170 1.283 . S
C1144 O1185 1.283 . S
C1145 O1171 1.283 . S
C1145 O1183 1.283 . S
C1146 O1172 1.283 . S
C1146 O1184 1.283 . S
C1147 O1173 1.283 . S
C1147 O1182 1.283 . S
Eu1148 O1149 2.370 1_455 S
Eu1148 O1150 2.370 . S
Eu1148 O1153 2.370 1_455 S
Eu1148 O1154 2.370 . S
Eu1148 O1162 2.363 . S
Eu1148 O1163 2.363 . S
Eu1148 O1176 2.363 . S
Eu1148 O1177 2.363 1_455 S
O1149 Eu1148 2.370 1_655 S
O1149 Eu1151 2.370 . S
O1149 Eu1156 2.370 1_655 S
O1150 Eu1148 2.370 . S
O1150 Eu1152 2.370 . S
O1150 Eu1155 2.370 . S
Eu1151 O1149 2.370 . S
Eu1151 O1153 2.370 . S
Eu1151 O1157 2.370 . S
Eu1151 O1158 2.370 . S
Eu1151 O1166 2.363 . S
Eu1151 O1167 2.363 . S
Eu1151 O1182 2.363 . S
Eu1151 O1183 2.363 . S
Eu1152 O1150 2.370 . S
Eu1152 O1154 2.370 . S
Eu1152 O1159 2.370 . S
Eu1152 O1160 2.370 . S
Eu1152 O1168 2.363 . S
Eu1152 O1169 2.363 . S
Eu1152 O1184 2.363 . S
Eu1152 O1185 2.363 . S
O1153 Eu1148 2.370 1_655 S
O1153 Eu1151 2.370 . S
O1153 Eu1155 2.370 1_655 S
O1154 Eu1148 2.370 . S
O1154 Eu1152 2.370 . S
O1154 Eu1156 2.370 . S
Eu1155 O1150 2.370 . S
Eu1155 O1153 2.370 1_455 S
Eu1155 O1157 2.370 1_455 S
Eu1155 O1160 2.370 . S
Eu1155 O1172 2.363 . S
Eu1155 O1173 2.363 1_455 S
Eu1155 O1180 2.363 . S
Eu1155 O1181 2.363 . S
Eu1156 O1149 2.370 1_455 S
Eu1156 O1154 2.370 . S
Eu1156 O1158 2.370 1_455 S
Eu1156 O1159 2.370 . S
Eu1156 O1170 2.363 . S
Eu1156 O1171 2.363 1_455 S
Eu1156 O1178 2.363 . S
Eu1156 O1179 2.363 . S
O1157 Eu1151 2.370 . S
O1157 Eu1155 2.370 1_655 S
O1157 Eu1161 2.370 1_655 S
O1158 Eu1151 2.370 . S
O1158 Eu1156 2.370 1_655 S
O1158 Eu1161 2.370 1_655 S
O1159 Eu1152 2.370 . S
O1159 Eu1156 2.370 . S
O1159 Eu1161 2.370 . S
O1160 Eu1152 2.370 . S
O1160 Eu1155 2.370 . S
O1160 Eu1161 2.370 . S
Eu1161 O1157 2.370 1_455 S
Eu1161 O1158 2.370 1_455 S
Eu1161 O1159 2.370 . S
Eu1161 O1160 2.370 . S
Eu1161 O1164 2.363 . S
Eu1161 O1165 2.363 . S
Eu1161 O1174 2.363 . S
Eu1161 O1175 2.363 1_455 S
O1162 C1136 1.283 . S
O1162 Eu1148 2.363 . S
O1163 C1137 1.283 . S
O1163 Eu1148 2.363 . S
O1164 C1138 1.283 . S
O1164 Eu1161 2.363 . S
O1165 C1139 1.283 . S
O1165 Eu1161 2.363 . S
O1166 C1140 1.283 . S
O1166 Eu1151 2.363 . S
O1167 C1141 1.283 . S
O1167 Eu1151 2.363 . S
O1168 C1142 1.283 . S
O1168 Eu1152 2.363 . S
O1169 C1143 1.283 . S
O1169 Eu1152 2.363 . S
O1170 C1144 1.283 . S
O1170 Eu1156 2.363 . S
O1171 C1145 1.283 . S
O1171 Eu1156 2.363 1_655 S
O1172 C1146 1.283 . S
O1172 Eu1155 2.363 . S
O1173 C1147 1.283 . S
O1173 Eu1155 2.363 1_655 S
O1174 C1142 1.283 . S
O1174 Eu1161 2.363 . S
O1175 C1140 1.283 . S
O1175 Eu1161 2.363 1_655 S
O1176 C1143 1.283 . S
O1176 Eu1148 2.363 . S
O1177 C1141 1.283 . S
O1177 Eu1148 2.363 1_655 S
O1178 C1137 1.283 . S
O1178 Eu1156 2.363 . S
O1179 C1139 1.283 . S
O1179 Eu1156 2.363 . S
O1180 C1136 1.283 . S
O1180 Eu1155 2.363 . S
O1181 C1138 1.283 . S
O1181 Eu1155 2.363 . S
O1182 C1147 1.283 . S
O1182 Eu1151 2.363 . S
O1183 C1145 1.283 . S
O1183 Eu1151 2.363 . S
O1184 C1146 1.283 . S
O1184 Eu1152 2.363 . S
O1185 C1144 1.283 . S
O1185 Eu1152 2.363 . S
C1186 O1212 1.283 . S
C1186 O1230 1.283 . S
C1187 O1213 1.283 . S
C1187 O1228 1.283 . S
C1188 O1214 1.283 . S
C1188 O1231 1.283 . S
C1189 O1215 1.283 . S
C1189 O1229 1.283 . S
C1190 O1216 1.283 . S
C1190 O1225 1.283 . S
C1191 O1217 1.283 . S
C1191 O1227 1.283 . S
C1192 O1218 1.283 . S
C1192 O1224 1.283 . S
C1193 O1219 1.283 . S
C1193 O1226 1.283 . S
C1194 O1220 1.283 . S
C1194 O1235 1.283 . S
C1195 O1221 1.283 . S
C1195 O1233 1.283 . S
C1196 O1222 1.283 . S
C1196 O1234 1.283 . S
C1197 O1223 1.283 . S
C1197 O1232 1.283 . S
Eu1198 O1199 2.370 . S
Eu1198 O1200 2.370 . S
Eu1198 O1203 2.370 . S
Eu1198 O1204 2.370 . S
Eu1198 O1212 2.363 . S
Eu1198 O1213 2.363 . S
Eu1198 O1226 2.363 . S
Eu1198 O1227 2.363 . S
O1199 Eu1198 2.370 . S
O1199 Eu1201 2.370 1_565 S
O1199 Eu1206 2.370 1_565 S
O1200 Eu1198 2.370 . S
O1200 Eu1202 2.370 1_565 S
O1200 Eu1205 2.370 1_565 S
Eu1201 O1199 2.370 1_545 S
Eu1201 O1203 2.370 1_545 S
Eu1201 O1207 2.370 . S
Eu1201 O1208 2.370 . S
Eu1201 O1216 2.363 . S
Eu1201 O1217 2.363 1_545 S
Eu1201 O1232 2.363 . S
Eu1201 O1233 2.363 . S
Eu1202 O1200 2.370 1_545 S
Eu1202 O1204 2.370 1_545 S
Eu1202 O1209 2.370 . S
Eu1202 O1210 2.370 . S
Eu1202 O1218 2.363 . S
Eu1202 O1219 2.363 1_545 S
Eu1202 O1234 2.363 . S
Eu1202 O1235 2.363 . S
O1203 Eu1198 2.370 . S
O1203 Eu1201 2.370 1_565 S
O1203 Eu1205 2.370 1_565 S
O1204 Eu1198 2.370 . S
O1204 Eu1202 2.370 1_565 S
O1204 Eu1206 2.370 1_565 S
Eu1205 O1200 2.370 1_545 S
Eu1205 O1203 2.370 1_545 S
Eu1205 O1207 2.370 . S
Eu1205 O1210 2.370 . S
Eu1205 O1222 2.363 . S
Eu1205 O1223 2.363 . S
Eu1205 O1230 2.363 1_545 S
Eu1205 O1231 2.363 . S
Eu1206 O1199 2.370 1_545 S
Eu1206 O1204 2.370 1_545 S
Eu1206 O1208 2.370 . S
Eu1206 O1209 2.370 . S
Eu1206 O1220 2.363 . S
Eu1206 O1221 2.363 . S
Eu1206 O1228 2.363 1_545 S
Eu1206 O1229 2.363 . S
O1207 Eu1201 2.370 . S
O1207 Eu1205 2.370 . S
O1207 Eu1211 2.370 . S
O1208 Eu1201 2.370 . S
O1208 Eu1206 2.370 . S
O1208 Eu1211 2.370 . S
O1209 Eu1202 2.370 . S
O1209 Eu1206 2.370 . S
O1209 Eu1211 2.370 . S
O1210 Eu1202 2.370 . S
O1210 Eu1205 2.370 . S
O1210 Eu1211 2.370 . S
Eu1211 O1207 2.370 . S
Eu1211 O1208 2.370 . S
Eu1211 O1209 2.370 . S
Eu1211 O1210 2.370 . S
Eu1211 O1214 2.363 . S
Eu1211 O1215 2.363 . S
Eu1211 O1224 2.363 . S
Eu1211 O1225 2.363 . S
O1212 C1186 1.283 . S
O1212 Eu1198 2.363 . S
O1213 C1187 1.283 . S
O1213 Eu1198 2.363 . S
O1214 C1188 1.283 . S
O1214 Eu1211 2.363 . S
O1215 C1189 1.283 . S
O1215 Eu1211 2.363 . S
O1216 C1190 1.283 . S
O1216 Eu1201 2.363 . S
O1217 C1191 1.283 . S
O1217 Eu1201 2.363 1_565 S
O1218 C1192 1.283 . S
O1218 Eu1202 2.363 . S
O1219 C1193 1.283 . S
O1219 Eu1202 2.363 1_565 S
O1220 C1194 1.283 . S
O1220 Eu1206 2.363 . S
O1221 C1195 1.283 . S
O1221 Eu1206 2.363 . S
O1222 C1196 1.283 . S
O1222 Eu1205 2.363 . S
O1223 C1197 1.283 . S
O1223 Eu1205 2.363 . S
O1224 C1192 1.283 . S
O1224 Eu1211 2.363 . S
O1225 C1190 1.283 . S
O1225 Eu1211 2.363 . S
O1226 C1193 1.283 . S
O1226 Eu1198 2.363 . S
O1227 C1191 1.283 . S
O1227 Eu1198 2.363 . S
O1228 C1187 1.283 . S
O1228 Eu1206 2.363 1_565 S
O1229 C1189 1.283 . S
O1229 Eu1206 2.363 . S
O1230 C1186 1.283 . S
O1230 Eu1205 2.363 1_565 S
O1231 C1188 1.283 . S
O1231 Eu1205 2.363 . S
O1232 C1197 1.283 . S
O1232 Eu1201 2.363 . S
O1233 C1195 1.283 . S
O1233 Eu1201 2.363 . S
O1234 C1196 1.283 . S
O1234 Eu1202 2.363 . S
O1235 C1194 1.283 . S
O1235 Eu1202 2.363 . S
C1236 C1237 1.349 . S
C1236 C1238 1.327 . S
C1236 H1261 0.950 . S
C1237 C1236 1.349 . S
C1237 C1253 1.349 . S
C1238 C1236 1.327 . S
C1238 C1257 1.429 . S
C1238 H1262 0.950 . S
C1239 C1256 1.574 . S
C1239 C1258 1.368 . S
C1239 H1263 0.949 . S
H1240 C1244 0.949 . S
C1241 C1242 1.349 . S
C1241 C1243 1.327 . S
C1241 H1264 0.950 . S
C1242 C1241 1.349 . S
C1242 C1254 1.349 . S
C1243 C1241 1.327 . S
C1243 C1259 1.429 . S
C1243 H1265 0.950 . S
C1244 H1240 0.949 . S
C1244 C1252 1.574 . S
C1244 C1260 1.368 . S
H1245 C1253 0.950 . S
H1246 C1251 0.950 . S
H1247 C1252 0.949 . S
H1248 C1254 0.950 . S
H1249 C1255 0.950 . S
H1250 C1256 0.949 . S
C1251 H1246 0.950 . S
C1251 C1253 1.327 . S
C1251 C1257 1.429 . S
C1252 C1244 1.574 . S
C1252 H1247 0.949 . S
C1252 C1258 1.368 . S
C1253 C1237 1.349 . S
C1253 H1245 0.950 . S
C1253 C1251 1.327 . S
C1254 C1242 1.349 . S
C1254 H1248 0.950 . S
C1254 C1255 1.327 . S
C1255 H1249 0.950 . S
C1255 C1254 1.327 . S
C1255 C1259 1.429 . S
C1256 C1239 1.574 . S
C1256 H1250 0.949 . S
C1256 C1260 1.368 . S
C1257 C1238 1.429 . S
C1257 C1251 1.429 . S
C1257 C1258 1.523 . S
C1258 C1239 1.368 . S
C1258 C1252 1.368 . S
C1258 C1257 1.523 . S
C1259 C1243 1.429 . S
C1259 C1255 1.429 . S
C1259 C1260 1.523 . S
C1260 C1244 1.368 . S
C1260 C1256 1.368 . S
C1260 C1259 1.523 . S
H1261 C1236 0.950 . S
H1262 C1238 0.950 . S
H1263 C1239 0.949 . S
H1264 C1241 0.950 . S
H1265 C1243 0.950 . S
C1266 C1267 1.349 . S
C1266 C1268 1.327 . S
C1266 H1291 0.950 . S
C1267 C1266 1.349 . S
C1267 C1283 1.349 . S
C1268 C1266 1.327 . S
C1268 C1287 1.429 . S
C1268 H1292 0.950 . S
C1269 C1286 1.574 . S
C1269 C1288 1.368 . S
C1269 H1293 0.949 . S
H1270 C1274 0.949 . S
C1271 C1272 1.349 . S
C1271 C1273 1.327 . S
C1271 H1294 0.950 . S
C1272 C1271 1.349 . S
C1272 C1284 1.349 . S
C1273 C1271 1.327 . S
C1273 C1289 1.429 . S
C1273 H1295 0.950 . S
C1274 H1270 0.949 . S
C1274 C1282 1.574 . S
C1274 C1290 1.368 . S
H1275 C1283 0.950 . S
H1276 C1281 0.950 . S
H1277 C1282 0.949 . S
H1278 C1284 0.950 . S
H1279 C1285 0.950 . S
H1280 C1286 0.949 . S
C1281 H1276 0.950 . S
C1281 C1283 1.327 . S
C1281 C1287 1.429 . S
C1282 C1274 1.574 . S
C1282 H1277 0.949 . S
C1282 C1288 1.368 . S
C1283 C1267 1.349 . S
C1283 H1275 0.950 . S
C1283 C1281 1.327 . S
C1284 C1272 1.349 . S
C1284 H1278 0.950 . S
C1284 C1285 1.327 . S
C1285 H1279 0.950 . S
C1285 C1284 1.327 . S
C1285 C1289 1.429 . S
C1286 C1269 1.574 . S
C1286 H1280 0.949 . S
C1286 C1290 1.368 . S
C1287 C1268 1.429 . S
C1287 C1281 1.429 . S
C1287 C1288 1.523 . S
C1288 C1269 1.368 . S
C1288 C1282 1.368 . S
C1288 C1287 1.523 . S
C1289 C1273 1.429 . S
C1289 C1285 1.429 . S
C1289 C1290 1.523 . S
C1290 C1274 1.368 . S
C1290 C1286 1.368 . S
C1290 C1289 1.523 . S
H1291 C1266 0.950 . S
H1292 C1268 0.950 . S
H1293 C1269 0.949 . S
H1294 C1271 0.950 . S
H1295 C1273 0.950 . S
C1296 C1297 1.349 . S
C1296 C1298 1.327 . S
C1296 H1321 0.950 . S
C1297 C1296 1.349 . S
C1297 C1313 1.349 . S
C1298 C1296 1.327 . S
C1298 C1317 1.429 . S
C1298 H1322 0.950 . S
C1299 C1316 1.574 . S
C1299 C1318 1.368 . S
C1299 H1323 0.949 . S
H1300 C1304 0.949 . S
C1301 C1302 1.349 . S
C1301 C1303 1.327 . S
C1301 H1324 0.950 . S
C1302 C1301 1.349 . S
C1302 C1314 1.349 . S
C1303 C1301 1.327 . S
C1303 C1319 1.429 . S
C1303 H1325 0.950 . S
C1304 H1300 0.949 . S
C1304 C1312 1.574 . S
C1304 C1320 1.368 . S
H1305 C1313 0.950 . S
H1306 C1311 0.950 . S
H1307 C1312 0.949 . S
H1308 C1314 0.950 . S
H1309 C1315 0.950 . S
H1310 C1316 0.949 . S
C1311 H1306 0.950 . S
C1311 C1313 1.327 . S
C1311 C1317 1.429 . S
C1312 C1304 1.574 . S
C1312 H1307 0.949 . S
C1312 C1318 1.368 . S
C1313 C1297 1.349 . S
C1313 H1305 0.950 . S
C1313 C1311 1.327 . S
C1314 C1302 1.349 . S
C1314 H1308 0.950 . S
C1314 C1315 1.327 . S
C1315 H1309 0.950 . S
C1315 C1314 1.327 . S
C1315 C1319 1.429 . S
C1316 C1299 1.574 . S
C1316 H1310 0.949 . S
C1316 C1320 1.368 . S
C1317 C1298 1.429 . S
C1317 C1311 1.429 . S
C1317 C1318 1.523 . S
C1318 C1299 1.368 . S
C1318 C1312 1.368 . S
C1318 C1317 1.523 . S
C1319 C1303 1.429 . S
C1319 C1315 1.429 . S
C1319 C1320 1.523 . S
C1320 C1304 1.368 . S
C1320 C1316 1.368 . S
C1320 C1319 1.523 . S
H1321 C1296 0.950 . S
H1322 C1298 0.950 . S
H1323 C1299 0.949 . S
H1324 C1301 0.950 . S
H1325 C1303 0.950 . S
C1326 C1327 1.349 . S
C1326 C1328 1.327 . S
C1326 H1351 0.950 . S
C1327 C1326 1.349 . S
C1327 C1343 1.349 . S
C1328 C1326 1.327 . S
C1328 C1347 1.429 . S
C1328 H1352 0.950 . S
C1329 C1346 1.574 . S
C1329 C1348 1.368 . S
C1329 H1353 0.949 . S
H1330 C1334 0.949 . S
C1331 C1332 1.349 . S
C1331 C1333 1.327 . S
C1331 H1354 0.950 . S
C1332 C1331 1.349 . S
C1332 C1344 1.349 . S
C1333 C1331 1.327 . S
C1333 C1349 1.429 . S
C1333 H1355 0.950 . S
C1334 H1330 0.949 . S
C1334 C1342 1.574 . S
C1334 C1350 1.368 . S
H1335 C1343 0.950 . S
H1336 C1341 0.950 . S
H1337 C1342 0.949 . S
H1338 C1344 0.950 . S
H1339 C1345 0.950 . S
H1340 C1346 0.949 . S
C1341 H1336 0.950 . S
C1341 C1343 1.327 . S
C1341 C1347 1.429 . S
C1342 C1334 1.574 . S
C1342 H1337 0.949 . S
C1342 C1348 1.368 . S
C1343 C1327 1.349 . S
C1343 H1335 0.950 . S
C1343 C1341 1.327 . S
C1344 C1332 1.349 . S
C1344 H1338 0.950 . S
C1344 C1345 1.327 . S
C1345 H1339 0.950 . S
C1345 C1344 1.327 . S
C1345 C1349 1.429 . S
C1346 C1329 1.574 . S
C1346 H1340 0.949 . S
C1346 C1350 1.368 . S
C1347 C1328 1.429 . S
C1347 C1341 1.429 . S
C1347 C1348 1.523 . S
C1348 C1329 1.368 . S
C1348 C1342 1.368 . S
C1348 C1347 1.523 . S
C1349 C1333 1.429 . S
C1349 C1345 1.429 . S
C1349 C1350 1.523 . S
C1350 C1334 1.368 . S
C1350 C1346 1.368 . S
C1350 C1349 1.523 . S
H1351 C1326 0.950 . S
H1352 C1328 0.950 . S
H1353 C1329 0.949 . S
H1354 C1331 0.950 . S
H1355 C1333 0.950 . S
C1356 C1357 1.349 . S
C1356 C1358 1.327 . S
C1356 H1381 0.950 . S
C1357 C1356 1.349 . S
C1357 C1373 1.349 . S
C1358 C1356 1.327 . S
C1358 C1377 1.429 . S
C1358 H1382 0.950 . S
C1359 C1376 1.574 . S
C1359 C1378 1.368 . S
C1359 H1383 0.949 . S
H1360 C1364 0.949 . S
C1361 C1362 1.349 . S
C1361 C1363 1.327 . S
C1361 H1384 0.950 . S
C1362 C1361 1.349 . S
C1362 C1374 1.349 . S
C1363 C1361 1.327 . S
C1363 C1379 1.429 . S
C1363 H1385 0.950 . S
C1364 H1360 0.949 . S
C1364 C1372 1.574 . S
C1364 C1380 1.368 . S
H1365 C1373 0.950 . S
H1366 C1371 0.950 . S
H1367 C1372 0.949 . S
H1368 C1374 0.950 . S
H1369 C1375 0.950 . S
H1370 C1376 0.949 . S
C1371 H1366 0.950 . S
C1371 C1373 1.327 . S
C1371 C1377 1.429 . S
C1372 C1364 1.574 . S
C1372 H1367 0.949 . S
C1372 C1378 1.368 . S
C1373 C1357 1.349 . S
C1373 H1365 0.950 . S
C1373 C1371 1.327 . S
C1374 C1362 1.349 . S
C1374 H1368 0.950 . S
C1374 C1375 1.327 . S
C1375 H1369 0.950 . S
C1375 C1374 1.327 . S
C1375 C1379 1.429 . S
C1376 C1359 1.574 . S
C1376 H1370 0.949 . S
C1376 C1380 1.368 . S
C1377 C1358 1.429 . S
C1377 C1371 1.429 . S
C1377 C1378 1.523 . S
C1378 C1359 1.368 . S
C1378 C1372 1.368 . S
C1378 C1377 1.523 . S
C1379 C1363 1.429 . S
C1379 C1375 1.429 . S
C1379 C1380 1.523 . S
C1380 C1364 1.368 . S
C1380 C1376 1.368 . S
C1380 C1379 1.523 . S
H1381 C1356 0.950 . S
H1382 C1358 0.950 . S
H1383 C1359 0.949 . S
H1384 C1361 0.950 . S
H1385 C1363 0.950 . S
C1386 C1387 1.349 . S
C1386 C1388 1.327 . S
C1386 H1411 0.950 . S
C1387 C1386 1.349 . S
C1387 C1403 1.349 . S
C1388 C1386 1.327 . S
C1388 C1407 1.429 . S
C1388 H1412 0.950 . S
C1389 C1406 1.574 . S
C1389 C1408 1.368 . S
C1389 H1413 0.949 . S
H1390 C1394 0.949 . S
C1391 C1392 1.349 . S
C1391 C1393 1.327 . S
C1391 H1414 0.950 . S
C1392 C1391 1.349 . S
C1392 C1404 1.349 . S
C1393 C1391 1.327 . S
C1393 C1409 1.429 . S
C1393 H1415 0.950 . S
C1394 H1390 0.949 . S
C1394 C1402 1.574 . S
C1394 C1410 1.368 . S
H1395 C1403 0.950 . S
H1396 C1401 0.950 . S
H1397 C1402 0.949 . S
H1398 C1404 0.950 . S
H1399 C1405 0.950 . S
H1400 C1406 0.949 . S
C1401 H1396 0.950 . S
C1401 C1403 1.327 . S
C1401 C1407 1.429 . S
C1402 C1394 1.574 . S
C1402 H1397 0.949 . S
C1402 C1408 1.368 . S
C1403 C1387 1.349 . S
C1403 H1395 0.950 . S
C1403 C1401 1.327 . S
C1404 C1392 1.349 . S
C1404 H1398 0.950 . S
C1404 C1405 1.327 . S
C1405 H1399 0.950 . S
C1405 C1404 1.327 . S
C1405 C1409 1.429 . S
C1406 C1389 1.574 . S
C1406 H1400 0.949 . S
C1406 C1410 1.368 . S
C1407 C1388 1.429 . S
C1407 C1401 1.429 . S
C1407 C1408 1.523 . S
C1408 C1389 1.368 . S
C1408 C1402 1.368 . S
C1408 C1407 1.523 . S
C1409 C1393 1.429 . S
C1409 C1405 1.429 . S
C1409 C1410 1.523 . S
C1410 C1394 1.368 . S
C1410 C1406 1.368 . S
C1410 C1409 1.523 . S
H1411 C1386 0.950 . S
H1412 C1388 0.950 . S
H1413 C1389 0.949 . S
H1414 C1391 0.950 . S
H1415 C1393 0.950 . S
C1416 C1417 1.349 . S
C1416 C1418 1.327 . S
C1416 H1441 0.950 . S
C1417 C1416 1.349 . S
C1417 C1433 1.349 . S
C1418 C1416 1.327 . S
C1418 C1437 1.429 . S
C1418 H1442 0.950 . S
C1419 C1436 1.574 . S
C1419 C1438 1.368 . S
C1419 H1443 0.949 . S
H1420 C1424 0.949 . S
C1421 C1422 1.349 . S
C1421 C1423 1.327 . S
C1421 H1444 0.950 . S
C1422 C1421 1.349 . S
C1422 C1434 1.349 . S
C1423 C1421 1.327 . S
C1423 C1439 1.429 . S
C1423 H1445 0.950 . S
C1424 H1420 0.949 . S
C1424 C1432 1.574 . S
C1424 C1440 1.368 . S
H1425 C1433 0.950 . S
H1426 C1431 0.950 . S
H1427 C1432 0.949 . S
H1428 C1434 0.950 . S
H1429 C1435 0.950 . S
H1430 C1436 0.949 . S
C1431 H1426 0.950 . S
C1431 C1433 1.327 . S
C1431 C1437 1.429 . S
C1432 C1424 1.574 . S
C1432 H1427 0.949 . S
C1432 C1438 1.368 . S
C1433 C1417 1.349 . S
C1433 H1425 0.950 . S
C1433 C1431 1.327 . S
C1434 C1422 1.349 . S
C1434 H1428 0.950 . S
C1434 C1435 1.327 . S
C1435 H1429 0.950 . S
C1435 C1434 1.327 . S
C1435 C1439 1.429 . S
C1436 C1419 1.574 . S
C1436 H1430 0.949 . S
C1436 C1440 1.368 . S
C1437 C1418 1.429 . S
C1437 C1431 1.429 . S
C1437 C1438 1.523 . S
C1438 C1419 1.368 . S
C1438 C1432 1.368 . S
C1438 C1437 1.523 . S
C1439 C1423 1.429 . S
C1439 C1435 1.429 . S
C1439 C1440 1.523 . S
C1440 C1424 1.368 . S
C1440 C1436 1.368 . S
C1440 C1439 1.523 . S
H1441 C1416 0.950 . S
H1442 C1418 0.950 . S
H1443 C1419 0.949 . S
H1444 C1421 0.950 . S
H1445 C1423 0.950 . S
C1446 C1447 1.349 . S
C1446 C1448 1.327 . S
C1446 H1471 0.950 . S
C1447 C1446 1.349 . S
C1447 C1463 1.349 . S
C1448 C1446 1.327 . S
C1448 C1467 1.429 . S
C1448 H1472 0.950 . S
C1449 C1466 1.574 . S
C1449 C1468 1.368 . S
C1449 H1473 0.949 . S
H1450 C1454 0.949 . S
C1451 C1452 1.349 . S
C1451 C1453 1.327 . S
C1451 H1474 0.950 . S
C1452 C1451 1.349 . S
C1452 C1464 1.349 . S
C1453 C1451 1.327 . S
C1453 C1469 1.429 . S
C1453 H1475 0.950 . S
C1454 H1450 0.949 . S
C1454 C1462 1.574 . S
C1454 C1470 1.368 . S
H1455 C1463 0.950 . S
H1456 C1461 0.950 . S
H1457 C1462 0.949 . S
H1458 C1464 0.950 . S
H1459 C1465 0.950 . S
H1460 C1466 0.949 . S
C1461 H1456 0.950 . S
C1461 C1463 1.327 . S
C1461 C1467 1.429 . S
C1462 C1454 1.574 . S
C1462 H1457 0.949 . S
C1462 C1468 1.368 . S
C1463 C1447 1.349 . S
C1463 H1455 0.950 . S
C1463 C1461 1.327 . S
C1464 C1452 1.349 . S
C1464 H1458 0.950 . S
C1464 C1465 1.327 . S
C1465 H1459 0.950 . S
C1465 C1464 1.327 . S
C1465 C1469 1.429 . S
C1466 C1449 1.574 . S
C1466 H1460 0.949 . S
C1466 C1470 1.368 . S
C1467 C1448 1.429 . S
C1467 C1461 1.429 . S
C1467 C1468 1.523 . S
C1468 C1449 1.368 . S
C1468 C1462 1.368 . S
C1468 C1467 1.523 . S
C1469 C1453 1.429 . S
C1469 C1465 1.429 . S
C1469 C1470 1.523 . S
C1470 C1454 1.368 . S
C1470 C1466 1.368 . S
C1470 C1469 1.523 . S
H1471 C1446 0.950 . S
H1472 C1448 0.950 . S
H1473 C1449 0.949 . S
H1474 C1451 0.950 . S
H1475 C1453 0.950 . S
C1476 C1477 1.349 . S
C1476 C1478 1.327 . S
C1476 H1501 0.950 . S
C1477 C1476 1.349 . S
C1477 C1493 1.349 . S
C1478 C1476 1.327 . S
C1478 C1497 1.429 . S
C1478 H1502 0.950 . S
C1479 C1496 1.574 . S
C1479 C1498 1.368 . S
C1479 H1503 0.949 . S
H1480 C1484 0.949 . S
C1481 C1482 1.349 . S
C1481 C1483 1.327 . S
C1481 H1504 0.950 . S
C1482 C1481 1.349 . S
C1482 C1494 1.349 . S
C1483 C1481 1.327 . S
C1483 C1499 1.429 . S
C1483 H1505 0.950 . S
C1484 H1480 0.949 . S
C1484 C1492 1.574 . S
C1484 C1500 1.368 . S
H1485 C1493 0.950 . S
H1486 C1491 0.950 . S
H1487 C1492 0.949 . S
H1488 C1494 0.950 . S
H1489 C1495 0.950 . S
H1490 C1496 0.949 . S
C1491 H1486 0.950 . S
C1491 C1493 1.327 . S
C1491 C1497 1.429 . S
C1492 C1484 1.574 . S
C1492 H1487 0.949 . S
C1492 C1498 1.368 . S
C1493 C1477 1.349 . S
C1493 H1485 0.950 . S
C1493 C1491 1.327 . S
C1494 C1482 1.349 . S
C1494 H1488 0.950 . S
C1494 C1495 1.327 . S
C1495 H1489 0.950 . S
C1495 C1494 1.327 . S
C1495 C1499 1.429 . S
C1496 C1479 1.574 . S
C1496 H1490 0.949 . S
C1496 C1500 1.368 . S
C1497 C1478 1.429 . S
C1497 C1491 1.429 . S
C1497 C1498 1.523 . S
C1498 C1479 1.368 . S
C1498 C1492 1.368 . S
C1498 C1497 1.523 . S
C1499 C1483 1.429 . S
C1499 C1495 1.429 . S
C1499 C1500 1.523 . S
C1500 C1484 1.368 . S
C1500 C1496 1.368 . S
C1500 C1499 1.523 . S
H1501 C1476 0.950 . S
H1502 C1478 0.950 . S
H1503 C1479 0.949 . S
H1504 C1481 0.950 . S
H1505 C1483 0.950 . S
C1506 C1507 1.349 . S
C1506 C1508 1.327 . S
C1506 H1531 0.950 . S
C1507 C1506 1.349 . S
C1507 C1523 1.349 . S
C1508 C1506 1.327 . S
C1508 C1527 1.429 . S
C1508 H1532 0.950 . S
C1509 C1526 1.574 . S
C1509 C1528 1.368 . S
C1509 H1533 0.949 . S
H1510 C1514 0.949 . S
C1511 C1512 1.349 . S
C1511 C1513 1.327 . S
C1511 H1534 0.950 . S
C1512 C1511 1.349 . S
C1512 C1524 1.349 . S
C1513 C1511 1.327 . S
C1513 C1529 1.429 . S
C1513 H1535 0.950 . S
C1514 H1510 0.949 . S
C1514 C1522 1.574 . S
C1514 C1530 1.368 . S
H1515 C1523 0.950 . S
H1516 C1521 0.950 . S
H1517 C1522 0.949 . S
H1518 C1524 0.950 . S
H1519 C1525 0.950 . S
H1520 C1526 0.949 . S
C1521 H1516 0.950 . S
C1521 C1523 1.327 . S
C1521 C1527 1.429 . S
C1522 C1514 1.574 . S
C1522 H1517 0.949 . S
C1522 C1528 1.368 . S
C1523 C1507 1.349 . S
C1523 H1515 0.950 . S
C1523 C1521 1.327 . S
C1524 C1512 1.349 . S
C1524 H1518 0.950 . S
C1524 C1525 1.327 . S
C1525 H1519 0.950 . S
C1525 C1524 1.327 . S
C1525 C1529 1.429 . S
C1526 C1509 1.574 . S
C1526 H1520 0.949 . S
C1526 C1530 1.368 . S
C1527 C1508 1.429 . S
C1527 C1521 1.429 . S
C1527 C1528 1.523 . S
C1528 C1509 1.368 . S
C1528 C1522 1.368 . S
C1528 C1527 1.523 . S
C1529 C1513 1.429 . S
C1529 C1525 1.429 . S
C1529 C1530 1.523 . S
C1530 C1514 1.368 . S
C1530 C1526 1.368 . S
C1530 C1529 1.523 . S
H1531 C1506 0.950 . S
H1532 C1508 0.950 . S
H1533 C1509 0.949 . S
H1534 C1511 0.950 . S
H1535 C1513 0.950 . S
C1536 C1537 1.349 . S
C1536 C1538 1.327 . S
C1536 H1561 0.950 . S
C1537 C1536 1.349 . S
C1537 C1553 1.349 . S
C1538 C1536 1.327 . S
C1538 C1557 1.429 . S
C1538 H1562 0.950 . S
C1539 C1556 1.574 . S
C1539 C1558 1.368 . S
C1539 H1563 0.949 . S
H1540 C1544 0.949 . S
C1541 C1542 1.349 . S
C1541 C1543 1.327 . S
C1541 H1564 0.950 . S
C1542 C1541 1.349 . S
C1542 C1554 1.349 . S
C1543 C1541 1.327 . S
C1543 C1559 1.429 . S
C1543 H1565 0.950 . S
C1544 H1540 0.949 . S
C1544 C1552 1.574 . S
C1544 C1560 1.368 . S
H1545 C1553 0.950 . S
H1546 C1551 0.950 . S
H1547 C1552 0.949 . S
H1548 C1554 0.950 . S
H1549 C1555 0.950 . S
H1550 C1556 0.949 . S
C1551 H1546 0.950 . S
C1551 C1553 1.327 . S
C1551 C1557 1.429 . S
C1552 C1544 1.574 . S
C1552 H1547 0.949 . S
C1552 C1558 1.368 . S
C1553 C1537 1.349 . S
C1553 H1545 0.950 . S
C1553 C1551 1.327 . S
C1554 C1542 1.349 . S
C1554 H1548 0.950 . S
C1554 C1555 1.327 . S
C1555 H1549 0.950 . S
C1555 C1554 1.327 . S
C1555 C1559 1.429 . S
C1556 C1539 1.574 . S
C1556 H1550 0.949 . S
C1556 C1560 1.368 . S
C1557 C1538 1.429 . S
C1557 C1551 1.429 . S
C1557 C1558 1.523 . S
C1558 C1539 1.368 . S
C1558 C1552 1.368 . S
C1558 C1557 1.523 . S
C1559 C1543 1.429 . S
C1559 C1555 1.429 . S
C1559 C1560 1.523 . S
C1560 C1544 1.368 . S
C1560 C1556 1.368 . S
C1560 C1559 1.523 . S
H1561 C1536 0.950 . S
H1562 C1538 0.950 . S
H1563 C1539 0.949 . S
H1564 C1541 0.950 . S
H1565 C1543 0.950 . S
C1566 C1567 1.349 . S
C1566 C1568 1.327 . S
C1566 H1591 0.950 . S
C1567 C1566 1.349 . S
C1567 C1583 1.349 . S
C1568 C1566 1.327 . S
C1568 C1587 1.429 . S
C1568 H1592 0.950 . S
C1569 C1586 1.574 . S
C1569 C1588 1.368 . S
C1569 H1593 0.949 . S
H1570 C1574 0.949 . S
C1571 C1572 1.349 . S
C1571 C1573 1.327 . S
C1571 H1594 0.950 . S
C1572 C1571 1.349 . S
C1572 C1584 1.349 . S
C1573 C1571 1.327 . S
C1573 C1589 1.429 . S
C1573 H1595 0.950 . S
C1574 H1570 0.949 . S
C1574 C1582 1.574 . S
C1574 C1590 1.368 . S
H1575 C1583 0.950 . S
H1576 C1581 0.950 . S
H1577 C1582 0.949 . S
H1578 C1584 0.950 . S
H1579 C1585 0.950 . S
H1580 C1586 0.949 . S
C1581 H1576 0.950 . S
C1581 C1583 1.327 . S
C1581 C1587 1.429 . S
C1582 C1574 1.574 . S
C1582 H1577 0.949 . S
C1582 C1588 1.368 . S
C1583 C1567 1.349 . S
C1583 H1575 0.950 . S
C1583 C1581 1.327 . S
C1584 C1572 1.349 . S
C1584 H1578 0.950 . S
C1584 C1585 1.327 . S
C1585 H1579 0.950 . S
C1585 C1584 1.327 . S
C1585 C1589 1.429 . S
C1586 C1569 1.574 . S
C1586 H1580 0.949 . S
C1586 C1590 1.368 . S
C1587 C1568 1.429 . S
C1587 C1581 1.429 . S
C1587 C1588 1.523 . S
C1588 C1569 1.368 . S
C1588 C1582 1.368 . S
C1588 C1587 1.523 . S
C1589 C1573 1.429 . S
C1589 C1585 1.429 . S
C1589 C1590 1.523 . S
C1590 C1574 1.368 . S
C1590 C1586 1.368 . S
C1590 C1589 1.523 . S
H1591 C1566 0.950 . S
H1592 C1568 0.950 . S
H1593 C1569 0.949 . S
H1594 C1571 0.950 . S
H1595 C1573 0.950 . S
C1596 C1597 1.351 . S
C1596 C1598 1.327 . S
C1596 H1621 0.950 . S
C1597 C1596 1.351 . S
C1597 C1613 1.347 1_554 S
C1598 C1596 1.327 . S
C1598 C1617 1.430 . S
C1598 H1622 0.950 . S
C1599 C1616 1.574 . S
C1599 C1618 1.367 1_556 S
C1599 H1623 0.949 . S
H1600 C1604 0.949 . S
C1601 C1602 1.349 1_556 S
C1601 C1603 1.327 . S
C1601 H1624 0.950 . S
C1602 C1601 1.349 1_554 S
C1602 C1614 1.349 . S
C1603 C1601 1.327 . S
C1603 C1619 1.428 1_556 S
C1603 H1625 0.950 . S
C1604 H1600 0.949 . S
C1604 C1612 1.574 . S
C1604 C1620 1.369 . S
H1605 C1613 0.950 . S
H1606 C1611 0.950 . S
H1607 C1612 0.949 . S
H1608 C1614 0.950 . S
H1609 C1615 0.950 . S
H1610 C1616 0.949 . S
C1611 H1606 0.950 . S
C1611 C1613 1.327 . S
C1611 C1617 1.427 1_556 S
C1612 C1604 1.574 . S
C1612 H1607 0.949 . S
C1612 C1618 1.370 . S
C1613 C1597 1.347 1_556 S
C1613 H1605 0.950 . S
C1613 C1611 1.327 . S
C1614 C1602 1.349 . S
C1614 H1608 0.950 . S
C1614 C1615 1.327 . S
C1615 H1609 0.950 . S
C1615 C1614 1.327 . S
C1615 C1619 1.429 . S
C1616 C1599 1.574 . S
C1616 H1610 0.949 . S
C1616 C1620 1.367 1_556 S
C1617 C1598 1.430 . S
C1617 C1611 1.427 1_554 S
C1617 C1618 1.523 . S
C1618 C1599 1.367 1_554 S
C1618 C1612 1.370 . S
C1618 C1617 1.523 . S
C1619 C1603 1.428 1_554 S
C1619 C1615 1.429 . S
C1619 C1620 1.523 . S
C1620 C1604 1.369 . S
C1620 C1616 1.367 1_554 S
C1620 C1619 1.523 . S
H1621 C1596 0.950 . S
H1622 C1598 0.950 . S
H1623 C1599 0.949 . S
H1624 C1601 0.950 . S
H1625 C1603 0.950 . S
C1626 C1627 1.349 . S
C1626 C1628 1.327 . S
C1626 H1651 0.950 . S
C1627 C1626 1.349 . S
C1627 C1643 1.349 1_554 S
C1628 C1626 1.327 . S
C1628 C1647 1.428 . S
C1628 H1652 0.950 . S
C1629 C1646 1.574 . S
C1629 C1648 1.369 1_556 S
C1629 H1653 0.949 . S
H1630 C1634 0.949 . S
C1631 C1632 1.350 1_556 S
C1631 C1633 1.327 . S
C1631 H1654 0.950 . S
C1632 C1631 1.350 1_554 S
C1632 C1644 1.347 . S
C1633 C1631 1.327 . S
C1633 C1649 1.430 1_556 S
C1633 H1655 0.950 . S
C1634 H1630 0.949 . S
C1634 C1642 1.574 . S
C1634 C1650 1.367 . S
H1635 C1643 0.950 . S
H1636 C1641 0.950 . S
H1637 C1642 0.949 . S
H1638 C1644 0.950 . S
H1639 C1645 0.950 . S
H1640 C1646 0.949 . S
C1641 H1636 0.950 . S
C1641 C1643 1.327 . S
C1641 C1647 1.429 1_556 S
C1642 C1634 1.574 . S
C1642 H1637 0.949 . S
C1642 C1648 1.368 . S
C1643 C1627 1.349 1_556 S
C1643 H1635 0.950 . S
C1643 C1641 1.327 . S
C1644 C1632 1.347 . S
C1644 H1638 0.950 . S
C1644 C1645 1.327 . S
C1645 H1639 0.950 . S
C1645 C1644 1.327 . S
C1645 C1649 1.427 . S
C1646 C1629 1.574 . S
C1646 H1640 0.949 . S
C1646 C1650 1.369 1_556 S
C1647 C1628 1.428 . S
C1647 C1641 1.429 1_554 S
C1647 C1648 1.523 . S
C1648 C1629 1.369 1_554 S
C1648 C1642 1.368 . S
C1648 C1647 1.523 . S
C1649 C1633 1.430 1_554 S
C1649 C1645 1.427 . S
C1649 C1650 1.523 . S
C1650 C1634 1.367 . S
C1650 C1646 1.369 1_554 S
C1650 C1649 1.523 . S
H1651 C1626 0.950 . S
H1652 C1628 0.950 . S
H1653 C1629 0.949 . S
H1654 C1631 0.950 . S
H1655 C1633 0.950 . S
C1656 C1657 1.349 1_556 S
C1656 C1658 1.327 . S
C1656 H1681 0.950 . S
C1657 C1656 1.349 1_554 S
C1657 C1673 1.349 . S
C1658 C1656 1.327 . S
C1658 C1677 1.428 1_556 S
C1658 H1682 0.950 . S
C1659 C1676 1.574 . S
C1659 C1678 1.369 . S
C1659 H1683 0.949 . S
H1660 C1664 0.949 . S
C1661 C1662 1.351 . S
C1661 C1663 1.327 . S
C1661 H1684 0.950 . S
C1662 C1661 1.351 . S
C1662 C1674 1.347 1_554 S
C1663 C1661 1.327 . S
C1663 C1679 1.430 . S
C1663 H1685 0.950 . S
C1664 H1660 0.949 . S
C1664 C1672 1.574 . S
C1664 C1680 1.367 1_556 S
H1665 C1673 0.950 . S
H1666 C1671 0.950 . S
H1667 C1672 0.949 . S
H1668 C1674 0.950 . S
H1669 C1675 0.950 . S
H1670 C1676 0.949 . S
C1671 H1666 0.950 . S
C1671 C1673 1.327 . S
C1671 C1677 1.429 . S
C1672 C1664 1.574 . S
C1672 H1667 0.949 . S
C1672 C1678 1.368 1_556 S
C1673 C1657 1.349 . S
C1673 H1665 0.950 . S
C1673 C1671 1.327 . S
C1674 C1662 1.347 1_556 S
C1674 H1668 0.950 . S
C1674 C1675 1.327 . S
C1675 H1669 0.950 . S
C1675 C1674 1.327 . S
C1675 C1679 1.427 1_556 S
C1676 C1659 1.574 . S
C1676 H1670 0.949 . S
C1676 C1680 1.369 . S
C1677 C1658 1.428 1_554 S
C1677 C1671 1.429 . S
C1677 C1678 1.523 . S
C1678 C1659 1.369 . S
C1678 C1672 1.368 1_554 S
C1678 C1677 1.523 . S
C1679 C1663 1.430 . S
C1679 C1675 1.427 1_554 S
C1679 C1680 1.523 . S
C1680 C1664 1.367 1_554 S
C1680 C1676 1.369 . S
C1680 C1679 1.523 . S
H1681 C1656 0.950 . S
H1682 C1658 0.950 . S
H1683 C1659 0.949 . S
H1684 C1661 0.950 . S
H1685 C1663 0.950 . S
C1686 C1687 1.351 1_556 S
C1686 C1688 1.327 . S
C1686 H1711 0.950 . S
C1687 C1686 1.351 1_554 S
C1687 C1703 1.347 . S
C1688 C1686 1.327 . S
C1688 C1707 1.430 1_556 S
C1688 H1712 0.950 . S
C1689 C1706 1.574 . S
C1689 C1708 1.367 . S
C1689 H1713 0.949 . S
H1690 C1694 0.949 . S
C1691 C1692 1.349 . S
C1691 C1693 1.327 . S
C1691 H1714 0.950 . S
C1692 C1691 1.349 . S
C1692 C1704 1.349 1_554 S
C1693 C1691 1.327 . S
C1693 C1709 1.428 . S
C1693 H1715 0.950 . S
C1694 H1690 0.949 . S
C1694 C1702 1.574 . S
C1694 C1710 1.369 1_556 S
H1695 C1703 0.950 . S
H1696 C1701 0.950 . S
H1697 C1702 0.949 . S
H1698 C1704 0.950 . S
H1699 C1705 0.950 . S
H1700 C1706 0.949 . S
C1701 H1696 0.950 . S
C1701 C1703 1.327 . S
C1701 C1707 1.427 . S
C1702 C1694 1.574 . S
C1702 H1697 0.949 . S
C1702 C1708 1.370 1_556 S
C1703 C1687 1.347 . S
C1703 H1695 0.950 . S
C1703 C1701 1.327 . S
C1704 C1692 1.349 1_556 S
C1704 H1698 0.950 . S
C1704 C1705 1.327 . S
C1705 H1699 0.950 . S
C1705 C1704 1.327 . S
C1705 C1709 1.429 1_556 S
C1706 C1689 1.574 . S
C1706 H1700 0.949 . S
C1706 C1710 1.367 . S
C1707 C1688 1.430 1_554 S
C1707 C1701 1.427 . S
C1707 C1708 1.523 . S
C1708 C1689 1.367 . S
C1708 C1702 1.370 1_554 S
C1708 C1707 1.523 . S
C1709 C1693 1.428 . S
C1709 C1705 1.429 1_554 S
C1709 C1710 1.523 . S
C1710 C1694 1.369 1_554 S
C1710 C1706 1.367 . S
C1710 C1709 1.523 . S
H1711 C1686 0.950 . S
H1712 C1688 0.950 . S
H1713 C1689 0.949 . S
H1714 C1691 0.950 . S
H1715 C1693 0.950 . S
C1716 C1717 1.349 . S
C1716 C1718 1.327 . S
C1716 H1741 0.950 . S
C1717 C1716 1.349 . S
C1717 C1733 1.349 1_455 S
C1718 C1716 1.327 . S
C1718 C1737 1.429 . S
C1718 H1742 0.950 . S
C1719 C1736 1.574 . S
C1719 C1738 1.368 1_655 S
C1719 H1743 0.949 . S
H1720 C1724 0.949 . S
C1721 C1722 1.349 1_655 S
C1721 C1723 1.327 . S
C1721 H1744 0.950 . S
C1722 C1721 1.349 1_455 S
C1722 C1734 1.349 . S
C1723 C1721 1.327 . S
C1723 C1739 1.429 1_655 S
C1723 H1745 0.950 . S
C1724 H1720 0.949 . S
C1724 C1732 1.574 . S
C1724 C1740 1.368 . S
H1725 C1733 0.950 . S
H1726 C1731 0.950 . S
H1727 C1732 0.949 . S
H1728 C1734 0.950 . S
H1729 C1735 0.950 . S
H1730 C1736 0.949 . S
C1731 H1726 0.950 . S
C1731 C1733 1.327 . S
C1731 C1737 1.429 1_655 S
C1732 C1724 1.574 . S
C1732 H1727 0.949 . S
C1732 C1738 1.368 . S
C1733 C1717 1.349 1_655 S
C1733 H1725 0.950 . S
C1733 C1731 1.327 . S
C1734 C1722 1.349 . S
C1734 H1728 0.950 . S
C1734 C1735 1.327 . S
C1735 H1729 0.950 . S
C1735 C1734 1.327 . S
C1735 C1739 1.429 . S
C1736 C1719 1.574 . S
C1736 H1730 0.949 . S
C1736 C1740 1.368 1_655 S
C1737 C1718 1.429 . S
C1737 C1731 1.429 1_455 S
C1737 C1738 1.523 . S
C1738 C1719 1.368 1_455 S
C1738 C1732 1.368 . S
C1738 C1737 1.523 . S
C1739 C1723 1.429 1_455 S
C1739 C1735 1.429 . S
C1739 C1740 1.523 . S
C1740 C1724 1.368 . S
C1740 C1736 1.368 1_455 S
C1740 C1739 1.523 . S
H1741 C1716 0.950 . S
H1742 C1718 0.950 . S
H1743 C1719 0.949 . S
H1744 C1721 0.950 . S
H1745 C1723 0.950 . S
C1746 C1747 1.349 1_565 S
C1746 C1748 1.327 . S
C1746 H1771 0.950 . S
C1747 C1746 1.349 1_545 S
C1747 C1763 1.349 . S
C1748 C1746 1.327 . S
C1748 C1767 1.428 1_565 S
C1748 H1772 0.950 . S
C1749 C1766 1.574 . S
C1749 C1768 1.369 . S
C1749 H1773 0.949 . S
H1750 C1754 0.949 . S
C1751 C1752 1.351 . S
C1751 C1753 1.327 . S
C1751 H1774 0.950 . S
C1752 C1751 1.351 . S
C1752 C1764 1.347 1_545 S
C1753 C1751 1.327 . S
C1753 C1769 1.430 . S
C1753 H1775 0.950 . S
C1754 H1750 0.949 . S
C1754 C1762 1.574 . S
C1754 C1770 1.367 1_565 S
H1755 C1763 0.950 . S
H1756 C1761 0.950 . S
H1757 C1762 0.949 . S
H1758 C1764 0.950 . S
H1759 C1765 0.950 . S
H1760 C1766 0.949 . S
C1761 H1756 0.950 . S
C1761 C1763 1.327 . S
C1761 C1767 1.429 . S
C1762 C1754 1.574 . S
C1762 H1757 0.949 . S
C1762 C1768 1.368 1_565 S
C1763 C1747 1.349 . S
C1763 H1755 0.950 . S
C1763 C1761 1.327 . S
C1764 C1752 1.347 1_565 S
C1764 H1758 0.950 . S
C1764 C1765 1.327 . S
C1765 H1759 0.950 . S
C1765 C1764 1.327 . S
C1765 C1769 1.427 1_565 S
C1766 C1749 1.574 . S
C1766 H1760 0.949 . S
C1766 C1770 1.369 . S
C1767 C1748 1.428 1_545 S
C1767 C1761 1.429 . S
C1767 C1768 1.523 . S
C1768 C1749 1.369 . S
C1768 C1762 1.368 1_545 S
C1768 C1767 1.523 . S
C1769 C1753 1.430 . S
C1769 C1765 1.427 1_545 S
C1769 C1770 1.523 . S
C1770 C1754 1.367 1_545 S
C1770 C1766 1.369 . S
C1770 C1769 1.523 . S
H1771 C1746 0.950 . S
H1772 C1748 0.950 . S
H1773 C1749 0.949 . S
H1774 C1751 0.950 . S
H1775 C1753 0.950 . S
C1776 C1777 1.349 . S
C1776 C1778 1.327 . S
C1776 H1801 0.950 . S
C1777 C1776 1.349 . S
C1777 C1793 1.349 1_455 S
C1778 C1776 1.327 . S
C1778 C1797 1.429 . S
C1778 H1802 0.950 . S
C1779 C1796 1.574 . S
C1779 C1798 1.368 1_655 S
C1779 H1803 0.949 . S
H1780 C1784 0.949 . S
C1781 C1782 1.349 1_655 S
C1781 C1783 1.327 . S
C1781 H1804 0.950 . S
C1782 C1781 1.349 1_455 S
C1782 C1794 1.349 . S
C1783 C1781 1.327 . S
C1783 C1799 1.429 1_655 S
C1783 H1805 0.950 . S
C1784 H1780 0.949 . S
C1784 C1792 1.574 . S
C1784 C1800 1.368 . S
H1785 C1793 0.950 . S
H1786 C1791 0.950 . S
H1787 C1792 0.949 . S
H1788 C1794 0.950 . S
H1789 C1795 0.950 . S
H1790 C1796 0.949 . S
C1791 H1786 0.950 . S
C1791 C1793 1.327 . S
C1791 C1797 1.429 1_655 S
C1792 C1784 1.574 . S
C1792 H1787 0.949 . S
C1792 C1798 1.368 . S
C1793 C1777 1.349 1_655 S
C1793 H1785 0.950 . S
C1793 C1791 1.327 . S
C1794 C1782 1.349 . S
C1794 H1788 0.950 . S
C1794 C1795 1.327 . S
C1795 H1789 0.950 . S
C1795 C1794 1.327 . S
C1795 C1799 1.429 . S
C1796 C1779 1.574 . S
C1796 H1790 0.949 . S
C1796 C1800 1.368 1_655 S
C1797 C1778 1.429 . S
C1797 C1791 1.429 1_455 S
C1797 C1798 1.523 . S
C1798 C1779 1.368 1_455 S
C1798 C1792 1.368 . S
C1798 C1797 1.523 . S
C1799 C1783 1.429 1_455 S
C1799 C1795 1.429 . S
C1799 C1800 1.523 . S
C1800 C1784 1.368 . S
C1800 C1796 1.368 1_455 S
C1800 C1799 1.523 . S
H1801 C1776 0.950 . S
H1802 C1778 0.950 . S
H1803 C1779 0.949 . S
H1804 C1781 0.950 . S
H1805 C1783 0.950 . S
C1806 C1807 1.349 . S
C1806 C1808 1.327 . S
C1806 H1831 0.950 . S
C1807 C1806 1.349 . S
C1807 C1823 1.349 1_545 S
C1808 C1806 1.327 . S
C1808 C1827 1.429 . S
C1808 H1832 0.950 . S
C1809 C1826 1.574 . S
C1809 C1828 1.368 1_565 S
C1809 H1833 0.949 . S
H1810 C1814 0.949 . S
C1811 C1812 1.347 1_565 S
C1811 C1813 1.327 . S
C1811 H1834 0.950 . S
C1812 C1811 1.347 1_545 S
C1812 C1824 1.351 . S
C1813 C1811 1.327 . S
C1813 C1829 1.427 1_565 S
C1813 H1835 0.950 . S
C1814 H1810 0.949 . S
C1814 C1822 1.574 . S
C1814 C1830 1.369 . S
H1815 C1823 0.950 . S
H1816 C1821 0.950 . S
H1817 C1822 0.949 . S
H1818 C1824 0.950 . S
H1819 C1825 0.950 . S
H1820 C1826 0.949 . S
C1821 H1816 0.950 . S
C1821 C1823 1.327 . S
C1821 C1827 1.428 1_565 S
C1822 C1814 1.574 . S
C1822 H1817 0.949 . S
C1822 C1828 1.369 . S
C1823 C1807 1.349 1_565 S
C1823 H1815 0.950 . S
C1823 C1821 1.327 . S
C1824 C1812 1.351 . S
C1824 H1818 0.950 . S
C1824 C1825 1.327 . S
C1825 H1819 0.950 . S
C1825 C1824 1.327 . S
C1825 C1829 1.430 . S
C1826 C1809 1.574 . S
C1826 H1820 0.949 . S
C1826 C1830 1.367 1_565 S
C1827 C1808 1.429 . S
C1827 C1821 1.428 1_545 S
C1827 C1828 1.523 . S
C1828 C1809 1.368 1_545 S
C1828 C1822 1.369 . S
C1828 C1827 1.523 . S
C1829 C1813 1.427 1_545 S
C1829 C1825 1.430 . S
C1829 C1830 1.523 . S
C1830 C1814 1.369 . S
C1830 C1826 1.367 1_545 S
C1830 C1829 1.523 . S
H1831 C1806 0.950 . S
H1832 C1808 0.950 . S
H1833 C1809 0.949 . S
H1834 C1811 0.950 . S
H1835 C1813 0.950 . S
C1836 C1837 1.349 . S
C1836 C1838 1.327 . S
C1836 H1861 0.950 . S
C1837 C1836 1.349 . S
C1837 C1853 1.349 1_455 S
C1838 C1836 1.327 . S
C1838 C1857 1.429 . S
C1838 H1862 0.950 . S
C1839 C1856 1.574 . S
C1839 C1858 1.368 1_655 S
C1839 H1863 0.949 . S
H1840 C1844 0.949 . S
C1841 C1842 1.349 1_655 S
C1841 C1843 1.327 . S
C1841 H1864 0.950 . S
C1842 C1841 1.349 1_455 S
C1842 C1854 1.349 . S
C1843 C1841 1.327 . S
C1843 C1859 1.429 1_655 S
C1843 H1865 0.950 . S
C1844 H1840 0.949 . S
C1844 C1852 1.574 . S
C1844 C1860 1.368 . S
H1845 C1853 0.950 . S
H1846 C1851 0.950 . S
H1847 C1852 0.949 . S
H1848 C1854 0.950 . S
H1849 C1855 0.950 . S
H1850 C1856 0.949 . S
C1851 H1846 0.950 . S
C1851 C1853 1.327 . S
C1851 C1857 1.429 1_655 S
C1852 C1844 1.574 . S
C1852 H1847 0.949 . S
C1852 C1858 1.368 . S
C1853 C1837 1.349 1_655 S
C1853 H1845 0.950 . S
C1853 C1851 1.327 . S
C1854 C1842 1.349 . S
C1854 H1848 0.950 . S
C1854 C1855 1.327 . S
C1855 H1849 0.950 . S
C1855 C1854 1.327 . S
C1855 C1859 1.429 . S
C1856 C1839 1.574 . S
C1856 H1850 0.949 . S
C1856 C1860 1.368 1_655 S
C1857 C1838 1.429 . S
C1857 C1851 1.429 1_455 S
C1857 C1858 1.523 . S
C1858 C1839 1.368 1_455 S
C1858 C1852 1.368 . S
C1858 C1857 1.523 . S
C1859 C1843 1.429 1_455 S
C1859 C1855 1.429 . S
C1859 C1860 1.523 . S
C1860 C1844 1.368 . S
C1860 C1856 1.368 1_455 S
C1860 C1859 1.523 . S
H1861 C1836 0.950 . S
H1862 C1838 0.950 . S
H1863 C1839 0.949 . S
H1864 C1841 0.950 . S
H1865 C1843 0.950 . S
C1866 C1867 1.347 1_565 S
C1866 C1868 1.327 . S
C1866 H1891 0.950 . S
C1867 C1866 1.347 1_545 S
C1867 C1883 1.351 . S
C1868 C1866 1.327 . S
C1868 C1887 1.427 1_565 S
C1868 H1892 0.950 . S
C1869 C1886 1.574 . S
C1869 C1888 1.370 . S
C1869 H1893 0.949 . S
H1870 C1874 0.949 . S
C1871 C1872 1.349 . S
C1871 C1873 1.327 . S
C1871 H1894 0.950 . S
C1872 C1871 1.349 . S
C1872 C1884 1.349 1_545 S
C1873 C1871 1.327 . S
C1873 C1889 1.429 . S
C1873 H1895 0.950 . S
C1874 H1870 0.949 . S
C1874 C1882 1.574 . S
C1874 C1890 1.367 1_565 S
H1875 C1883 0.950 . S
H1876 C1881 0.950 . S
H1877 C1882 0.949 . S
H1878 C1884 0.950 . S
H1879 C1885 0.950 . S
H1880 C1886 0.949 . S
C1881 H1876 0.950 . S
C1881 C1883 1.327 . S
C1881 C1887 1.430 . S
C1882 C1874 1.574 . S
C1882 H1877 0.949 . S
C1882 C1888 1.367 1_565 S
C1883 C1867 1.351 . S
C1883 H1875 0.950 . S
C1883 C1881 1.327 . S
C1884 C1872 1.349 1_565 S
C1884 H1878 0.950 . S
C1884 C1885 1.327 . S
C1885 H1879 0.950 . S
C1885 C1884 1.327 . S
C1885 C1889 1.428 1_565 S
C1886 C1869 1.574 . S
C1886 H1880 0.949 . S
C1886 C1890 1.369 . S
C1887 C1868 1.427 1_545 S
C1887 C1881 1.430 . S
C1887 C1888 1.523 . S
C1888 C1869 1.370 . S
C1888 C1882 1.367 1_545 S
C1888 C1887 1.523 . S
C1889 C1873 1.429 . S
C1889 C1885 1.428 1_545 S
C1889 C1890 1.523 . S
C1890 C1874 1.367 1_545 S
C1890 C1886 1.369 . S
C1890 C1889 1.523 . S
H1891 C1866 0.950 . S
H1892 C1868 0.950 . S
H1893 C1869 0.949 . S
H1894 C1871 0.950 . S
H1895 C1873 0.950 . S
C1896 C1897 1.349 . S
C1896 C1898 1.327 . S
C1896 H1921 0.950 . S
C1897 C1896 1.349 . S
C1897 C1913 1.349 1_455 S
C1898 C1896 1.327 . S
C1898 C1917 1.429 . S
C1898 H1922 0.950 . S
C1899 C1916 1.574 . S
C1899 C1918 1.368 1_655 S
C1899 H1923 0.949 . S
H1900 C1904 0.949 . S
C1901 C1902 1.349 1_655 S
C1901 C1903 1.327 . S
C1901 H1924 0.950 . S
C1902 C1901 1.349 1_455 S
C1902 C1914 1.349 . S
C1903 C1901 1.327 . S
C1903 C1919 1.429 1_655 S
C1903 H1925 0.950 . S
C1904 H1900 0.949 . S
C1904 C1912 1.574 . S
C1904 C1920 1.368 . S
H1905 C1913 0.950 . S
H1906 C1911 0.950 . S
H1907 C1912 0.949 . S
H1908 C1914 0.950 . S
H1909 C1915 0.950 . S
H1910 C1916 0.949 . S
C1911 H1906 0.950 . S
C1911 C1913 1.327 . S
C1911 C1917 1.429 1_655 S
C1912 C1904 1.574 . S
C1912 H1907 0.949 . S
C1912 C1918 1.368 . S
C1913 C1897 1.349 1_655 S
C1913 H1905 0.950 . S
C1913 C1911 1.327 . S
C1914 C1902 1.349 . S
C1914 H1908 0.950 . S
C1914 C1915 1.327 . S
C1915 H1909 0.950 . S
C1915 C1914 1.327 . S
C1915 C1919 1.429 . S
C1916 C1899 1.574 . S
C1916 H1910 0.949 . S
C1916 C1920 1.368 1_655 S
C1917 C1898 1.429 . S
C1917 C1911 1.429 1_455 S
C1917 C1918 1.523 . S
C1918 C1899 1.368 1_455 S
C1918 C1912 1.368 . S
C1918 C1917 1.523 . S
C1919 C1903 1.429 1_455 S
C1919 C1915 1.429 . S
C1919 C1920 1.523 . S
C1920 C1904 1.368 . S
C1920 C1916 1.368 1_455 S
C1920 C1919 1.523 . S
H1921 C1896 0.950 . S
H1922 C1898 0.950 . S
H1923 C1899 0.949 . S
H1924 C1901 0.950 . S
H1925 C1903 0.950 . S
C1926 C1927 1.347 1_565 S
C1926 C1928 1.327 . S
C1926 H1951 0.950 . S
C1927 C1926 1.347 1_545 S
C1927 C1943 1.351 . S
C1928 C1926 1.327 . S
C1928 C1947 1.427 1_565 S
C1928 H1952 0.950 . S
C1929 C1946 1.574 . S
C1929 C1948 1.370 . S
C1929 H1953 0.949 . S
H1930 C1934 0.949 . S
C1931 C1932 1.349 . S
C1931 C1933 1.327 . S
C1931 H1954 0.950 . S
C1932 C1931 1.349 . S
C1932 C1944 1.349 1_545 S
C1933 C1931 1.327 . S
C1933 C1949 1.429 . S
C1933 H1955 0.950 . S
C1934 H1930 0.949 . S
C1934 C1942 1.574 . S
C1934 C1950 1.367 1_565 S
H1935 C1943 0.950 . S
H1936 C1941 0.950 . S
H1937 C1942 0.949 . S
H1938 C1944 0.950 . S
H1939 C1945 0.950 . S
H1940 C1946 0.949 . S
C1941 H1936 0.950 . S
C1941 C1943 1.327 . S
C1941 C1947 1.430 . S
C1942 C1934 1.574 . S
C1942 H1937 0.949 . S
C1942 C1948 1.367 1_565 S
C1943 C1927 1.351 . S
C1943 H1935 0.950 . S
C1943 C1941 1.327 . S
C1944 C1932 1.349 1_565 S
C1944 H1938 0.950 . S
C1944 C1945 1.327 . S
C1945 H1939 0.950 . S
C1945 C1944 1.327 . S
C1945 C1949 1.428 1_565 S
C1946 C1929 1.574 . S
C1946 H1940 0.949 . S
C1946 C1950 1.369 . S
C1947 C1928 1.427 1_545 S
C1947 C1941 1.430 . S
C1947 C1948 1.523 . S
C1948 C1929 1.370 . S
C1948 C1942 1.367 1_545 S
C1948 C1947 1.523 . S
C1949 C1933 1.429 . S
C1949 C1945 1.428 1_545 S
C1949 C1950 1.523 . S
C1950 C1934 1.367 1_545 S
C1950 C1946 1.369 . S
C1950 C1949 1.523 . S
H1951 C1926 0.950 . S
H1952 C1928 0.950 . S
H1953 C1929 0.949 . S
H1954 C1931 0.950 . S
H1955 C1933 0.950 . S
C1956 C1957 1.349 1_655 S
C1956 C1958 1.327 . S
C1956 H1981 0.950 . S
C1957 C1956 1.349 1_455 S
C1957 C1973 1.349 . S
C1958 C1956 1.327 . S
C1958 C1977 1.429 1_655 S
C1958 H1982 0.950 . S
C1959 C1976 1.574 . S
C1959 C1978 1.368 . S
C1959 H1983 0.949 . S
H1960 C1964 0.949 . S
C1961 C1962 1.349 . S
C1961 C1963 1.327 . S
C1961 H1984 0.950 . S
C1962 C1961 1.349 . S
C1962 C1974 1.349 1_455 S
C1963 C1961 1.327 . S
C1963 C1979 1.429 . S
C1963 H1985 0.950 . S
C1964 H1960 0.949 . S
C1964 C1972 1.574 . S
C1964 C1980 1.368 1_655 S
H1965 C1973 0.950 . S
H1966 C1971 0.950 . S
H1967 C1972 0.949 . S
H1968 C1974 0.950 . S
H1969 C1975 0.950 . S
H1970 C1976 0.949 . S
C1971 H1966 0.950 . S
C1971 C1973 1.327 . S
C1971 C1977 1.429 . S
C1972 C1964 1.574 . S
C1972 H1967 0.949 . S
C1972 C1978 1.368 1_655 S
C1973 C1957 1.349 . S
C1973 H1965 0.950 . S
C1973 C1971 1.327 . S
C1974 C1962 1.349 1_655 S
C1974 H1968 0.950 . S
C1974 C1975 1.327 . S
C1975 H1969 0.950 . S
C1975 C1974 1.327 . S
C1975 C1979 1.429 1_655 S
C1976 C1959 1.574 . S
C1976 H1970 0.949 . S
C1976 C1980 1.368 . S
C1977 C1958 1.429 1_455 S
C1977 C1971 1.429 . S
C1977 C1978 1.523 . S
C1978 C1959 1.368 . S
C1978 C1972 1.368 1_455 S
C1978 C1977 1.523 . S
C1979 C1963 1.429 . S
C1979 C1975 1.429 1_455 S
C1979 C1980 1.523 . S
C1980 C1964 1.368 1_455 S
C1980 C1976 1.368 . S
C1980 C1979 1.523 . S
H1981 C1956 0.950 . S
H1982 C1958 0.950 . S
H1983 C1959 0.949 . S
H1984 C1961 0.950 . S
H1985 C1963 0.950 . S
C1986 C1987 1.349 1_565 S
C1986 C1988 1.327 . S
C1986 H2011 0.950 . S
C1987 C1986 1.349 1_545 S
C1987 C2003 1.349 . S
C1988 C1986 1.327 . S
C1988 C2007 1.429 1_565 S
C1988 H2012 0.950 . S
C1989 C2006 1.574 . S
C1989 C2008 1.368 . S
C1989 H2013 0.949 . S
H1990 C1994 0.949 . S
C1991 C1992 1.348 . S
C1991 C1993 1.327 . S
C1991 H2014 0.950 . S
C1992 C1991 1.348 . S
C1992 C2004 1.350 1_545 S
C1993 C1991 1.327 . S
C1993 C2009 1.428 . S
C1993 H2015 0.950 . S
C1994 H1990 0.949 . S
C1994 C2002 1.574 . S
C1994 C2010 1.369 1_565 S
H1995 C2003 0.950 . S
H1996 C2001 0.950 . S
H1997 C2002 0.949 . S
H1998 C2004 0.950 . S
H1999 C2005 0.950 . S
H2000 C2006 0.949 . S
C2001 H1996 0.950 . S
C2001 C2003 1.327 . S
C2001 C2007 1.428 . S
C2002 C1994 1.574 . S
C2002 H1997 0.949 . S
C2002 C2008 1.369 1_565 S
C2003 C1987 1.349 . S
C2003 H1995 0.950 . S
C2003 C2001 1.327 . S
C2004 C1992 1.350 1_565 S
C2004 H1998 0.950 . S
C2004 C2005 1.327 . S
C2005 H1999 0.950 . S
C2005 C2004 1.327 . S
C2005 C2009 1.430 1_565 S
C2006 C1989 1.574 . S
C2006 H2000 0.949 . S
C2006 C2010 1.367 . S
C2007 C1988 1.429 1_545 S
C2007 C2001 1.428 . S
C2007 C2008 1.523 . S
C2008 C1989 1.368 . S
C2008 C2002 1.369 1_545 S
C2008 C2007 1.523 . S
C2009 C1993 1.428 . S
C2009 C2005 1.430 1_545 S
C2009 C2010 1.523 . S
C2010 C1994 1.369 1_545 S
C2010 C2006 1.367 . S
C2010 C2009 1.523 . S
H2011 C1986 0.950 . S
H2012 C1988 0.950 . S
H2013 C1989 0.949 . S
H2014 C1991 0.950 . S
H2015 C1993 0.950 . S
C2016 C2017 1.349 1_655 S
C2016 C2018 1.327 . S
C2016 H2041 0.950 . S
C2017 C2016 1.349 1_455 S
C2017 C2033 1.349 . S
C2018 C2016 1.327 . S
C2018 C2037 1.429 1_655 S
C2018 H2042 0.950 . S
C2019 C2036 1.574 . S
C2019 C2038 1.368 . S
C2019 H2043 0.949 . S
H2020 C2024 0.949 . S
C2021 C2022 1.349 . S
C2021 C2023 1.327 . S
C2021 H2044 0.950 . S
C2022 C2021 1.349 . S
C2022 C2034 1.349 1_455 S
C2023 C2021 1.327 . S
C2023 C2039 1.429 . S
C2023 H2045 0.950 . S
C2024 H2020 0.949 . S
C2024 C2032 1.574 . S
C2024 C2040 1.368 1_655 S
H2025 C2033 0.950 . S
H2026 C2031 0.950 . S
H2027 C2032 0.949 . S
H2028 C2034 0.950 . S
H2029 C2035 0.950 . S
H2030 C2036 0.949 . S
C2031 H2026 0.950 . S
C2031 C2033 1.327 . S
C2031 C2037 1.429 . S
C2032 C2024 1.574 . S
C2032 H2027 0.949 . S
C2032 C2038 1.368 1_655 S
C2033 C2017 1.349 . S
C2033 H2025 0.950 . S
C2033 C2031 1.327 . S
C2034 C2022 1.349 1_655 S
C2034 H2028 0.950 . S
C2034 C2035 1.327 . S
C2035 H2029 0.950 . S
C2035 C2034 1.327 . S
C2035 C2039 1.429 1_655 S
C2036 C2019 1.574 . S
C2036 H2030 0.949 . S
C2036 C2040 1.368 . S
C2037 C2018 1.429 1_455 S
C2037 C2031 1.429 . S
C2037 C2038 1.523 . S
C2038 C2019 1.368 . S
C2038 C2032 1.368 1_455 S
C2038 C2037 1.523 . S
C2039 C2023 1.429 . S
C2039 C2035 1.429 1_455 S
C2039 C2040 1.523 . S
C2040 C2024 1.368 1_455 S
C2040 C2036 1.368 . S
C2040 C2039 1.523 . S
H2041 C2016 0.950 . S
H2042 C2018 0.950 . S
H2043 C2019 0.949 . S
H2044 C2021 0.950 . S
H2045 C2023 0.950 . S
C2046 C2047 1.349 1_565 S
C2046 C2048 1.327 . S
C2046 H2071 0.950 . S
C2047 C2046 1.349 1_545 S
C2047 C2063 1.349 . S
C2048 C2046 1.327 . S
C2048 C2067 1.429 1_565 S
C2048 H2072 0.950 . S
C2049 C2066 1.574 . S
C2049 C2068 1.368 . S
C2049 H2073 0.949 . S
H2050 C2054 0.949 . S
C2051 C2052 1.347 . S
C2051 C2053 1.327 . S
C2051 H2074 0.950 . S
C2052 C2051 1.347 . S
C2052 C2064 1.350 1_545 S
C2053 C2051 1.327 . S
C2053 C2069 1.428 . S
C2053 H2075 0.950 . S
C2054 H2050 0.949 . S
C2054 C2062 1.574 . S
C2054 C2070 1.369 1_565 S
H2055 C2063 0.950 . S
H2056 C2061 0.950 . S
H2057 C2062 0.949 . S
H2058 C2064 0.950 . S
H2059 C2065 0.950 . S
H2060 C2066 0.949 . S
C2061 H2056 0.950 . S
C2061 C2063 1.327 . S
C2061 C2067 1.428 . S
C2062 C2054 1.574 . S
C2062 H2057 0.949 . S
C2062 C2068 1.369 1_565 S
C2063 C2047 1.349 . S
C2063 H2055 0.950 . S
C2063 C2061 1.327 . S
C2064 C2052 1.350 1_565 S
C2064 H2058 0.950 . S
C2064 C2065 1.327 . S
C2065 H2059 0.950 . S
C2065 C2064 1.327 . S
C2065 C2069 1.430 1_565 S
C2066 C2049 1.574 . S
C2066 H2060 0.949 . S
C2066 C2070 1.367 . S
C2067 C2048 1.429 1_545 S
C2067 C2061 1.428 . S
C2067 C2068 1.523 . S
C2068 C2049 1.368 . S
C2068 C2062 1.369 1_545 S
C2068 C2067 1.523 . S
C2069 C2053 1.428 . S
C2069 C2065 1.430 1_545 S
C2069 C2070 1.523 . S
C2070 C2054 1.369 1_545 S
C2070 C2066 1.367 . S
C2070 C2069 1.523 . S
H2071 C2046 0.950 . S
H2072 C2048 0.950 . S
H2073 C2049 0.949 . S
H2074 C2051 0.950 . S
H2075 C2053 0.950 . S
C2076 C2077 1.349 1_655 S
C2076 C2078 1.327 . S
C2076 H2101 0.950 . S
C2077 C2076 1.349 1_455 S
C2077 C2093 1.349 . S
C2078 C2076 1.327 . S
C2078 C2097 1.429 1_655 S
C2078 H2102 0.950 . S
C2079 C2096 1.574 . S
C2079 C2098 1.368 . S
C2079 H2103 0.949 . S
H2080 C2084 0.949 . S
C2081 C2082 1.349 . S
C2081 C2083 1.327 . S
C2081 H2104 0.950 . S
C2082 C2081 1.349 . S
C2082 C2094 1.349 1_455 S
C2083 C2081 1.327 . S
C2083 C2099 1.429 . S
C2083 H2105 0.950 . S
C2084 H2080 0.949 . S
C2084 C2092 1.574 . S
C2084 C2100 1.368 1_655 S
H2085 C2093 0.950 . S
H2086 C2091 0.950 . S
H2087 C2092 0.949 . S
H2088 C2094 0.950 . S
H2089 C2095 0.950 . S
H2090 C2096 0.949 . S
C2091 H2086 0.950 . S
C2091 C2093 1.327 . S
C2091 C2097 1.429 . S
C2092 C2084 1.574 . S
C2092 H2087 0.949 . S
C2092 C2098 1.368 1_655 S
C2093 C2077 1.349 . S
C2093 H2085 0.950 . S
C2093 C2091 1.327 . S
C2094 C2082 1.349 1_655 S
C2094 H2088 0.950 . S
C2094 C2095 1.327 . S
C2095 H2089 0.950 . S
C2095 C2094 1.327 . S
C2095 C2099 1.429 1_655 S
C2096 C2079 1.574 . S
C2096 H2090 0.949 . S
C2096 C2100 1.368 . S
C2097 C2078 1.429 1_455 S
C2097 C2091 1.429 . S
C2097 C2098 1.523 . S
C2098 C2079 1.368 . S
C2098 C2092 1.368 1_455 S
C2098 C2097 1.523 . S
C2099 C2083 1.429 . S
C2099 C2095 1.429 1_455 S
C2099 C2100 1.523 . S
C2100 C2084 1.368 1_455 S
C2100 C2096 1.368 . S
C2100 C2099 1.523 . S
H2101 C2076 0.950 . S
H2102 C2078 0.950 . S
H2103 C2079 0.949 . S
H2104 C2081 0.950 . S
H2105 C2083 0.950 . S
C2106 C2107 1.351 1_565 S
C2106 C2108 1.327 . S
C2106 H2131 0.950 . S
C2107 C2106 1.351 1_545 S
C2107 C2123 1.347 . S
C2108 C2106 1.327 . S
C2108 C2127 1.430 1_565 S
C2108 H2132 0.950 . S
C2109 C2126 1.574 . S
C2109 C2128 1.367 . S
C2109 H2133 0.949 . S
H2110 C2114 0.949 . S
C2111 C2112 1.348 . S
C2111 C2113 1.327 . S
C2111 H2134 0.950 . S
C2112 C2111 1.348 . S
C2112 C2124 1.349 1_545 S
C2113 C2111 1.327 . S
C2113 C2129 1.428 . S
C2113 H2135 0.950 . S
C2114 H2110 0.949 . S
C2114 C2122 1.574 . S
C2114 C2130 1.369 1_565 S
H2115 C2123 0.950 . S
H2116 C2121 0.950 . S
H2117 C2122 0.949 . S
H2118 C2124 0.950 . S
H2119 C2125 0.950 . S
H2120 C2126 0.949 . S
C2121 H2116 0.950 . S
C2121 C2123 1.327 . S
C2121 C2127 1.427 . S
C2122 C2114 1.574 . S
C2122 H2117 0.949 . S
C2122 C2128 1.370 1_565 S
C2123 C2107 1.347 . S
C2123 H2115 0.950 . S
C2123 C2121 1.327 . S
C2124 C2112 1.349 1_565 S
C2124 H2118 0.950 . S
C2124 C2125 1.327 . S
C2125 H2119 0.950 . S
C2125 C2124 1.327 . S
C2125 C2129 1.429 1_565 S
C2126 C2109 1.574 . S
C2126 H2120 0.949 . S
C2126 C2130 1.367 . S
C2127 C2108 1.430 1_545 S
C2127 C2121 1.427 . S
C2127 C2128 1.523 . S
C2128 C2109 1.367 . S
C2128 C2122 1.370 1_545 S
C2128 C2127 1.523 . S
C2129 C2113 1.428 . S
C2129 C2125 1.429 1_545 S
C2129 C2130 1.523 . S
C2130 C2114 1.369 1_545 S
C2130 C2126 1.367 . S
C2130 C2129 1.523 . S
H2131 C2106 0.950 . S
H2132 C2108 0.950 . S
H2133 C2109 0.949 . S
H2134 C2111 0.950 . S
H2135 C2113 0.950 . S
C2136 C2137 1.349 1_655 S
C2136 C2138 1.327 . S
C2136 H2161 0.950 . S
C2137 C2136 1.349 1_455 S
C2137 C2153 1.349 . S
C2138 C2136 1.327 . S
C2138 C2157 1.429 1_655 S
C2138 H2162 0.950 . S
C2139 C2156 1.574 . S
C2139 C2158 1.368 . S
C2139 H2163 0.949 . S
H2140 C2144 0.949 . S
C2141 C2142 1.349 . S
C2141 C2143 1.327 . S
C2141 H2164 0.950 . S
C2142 C2141 1.349 . S
C2142 C2154 1.349 1_455 S
C2143 C2141 1.327 . S
C2143 C2159 1.429 . S
C2143 H2165 0.950 . S
C2144 H2140 0.949 . S
C2144 C2152 1.574 . S
C2144 C2160 1.368 1_655 S
H2145 C2153 0.950 . S
H2146 C2151 0.950 . S
H2147 C2152 0.949 . S
H2148 C2154 0.950 . S
H2149 C2155 0.950 . S
H2150 C2156 0.949 . S
C2151 H2146 0.950 . S
C2151 C2153 1.327 . S
C2151 C2157 1.429 . S
C2152 C2144 1.574 . S
C2152 H2147 0.949 . S
C2152 C2158 1.368 1_655 S
C2153 C2137 1.349 . S
C2153 H2145 0.950 . S
C2153 C2151 1.327 . S
C2154 C2142 1.349 1_655 S
C2154 H2148 0.950 . S
C2154 C2155 1.327 . S
C2155 H2149 0.950 . S
C2155 C2154 1.327 . S
C2155 C2159 1.429 1_655 S
C2156 C2139 1.574 . S
C2156 H2150 0.949 . S
C2156 C2160 1.368 . S
C2157 C2138 1.429 1_455 S
C2157 C2151 1.429 . S
C2157 C2158 1.523 . S
C2158 C2139 1.368 . S
C2158 C2152 1.368 1_455 S
C2158 C2157 1.523 . S
C2159 C2143 1.429 . S
C2159 C2155 1.429 1_455 S
C2159 C2160 1.523 . S
C2160 C2144 1.368 1_455 S
C2160 C2156 1.368 . S
C2160 C2159 1.523 . S
H2161 C2136 0.950 . S
H2162 C2138 0.950 . S
H2163 C2139 0.949 . S
H2164 C2141 0.950 . S
H2165 C2143 0.950 . S
C2166 C2167 1.347 . S
C2166 C2168 1.327 . S
C2166 H2191 0.950 . S
C2167 C2166 1.347 . S
C2167 C2183 1.351 1_545 S
C2168 C2166 1.327 . S
C2168 C2187 1.427 . S
C2168 H2192 0.950 . S
C2169 C2186 1.574 . S
C2169 C2188 1.370 1_565 S
C2169 H2193 0.949 . S
H2170 C2174 0.949 . S
C2171 C2172 1.349 1_565 S
C2171 C2173 1.327 . S
C2171 H2194 0.950 . S
C2172 C2171 1.349 1_545 S
C2172 C2184 1.348 . S
C2173 C2171 1.327 . S
C2173 C2189 1.429 1_565 S
C2173 H2195 0.950 . S
C2174 H2170 0.949 . S
C2174 C2182 1.574 . S
C2174 C2190 1.367 . S
H2175 C2183 0.950 . S
H2176 C2181 0.950 . S
H2177 C2182 0.949 . S
H2178 C2184 0.950 . S
H2179 C2185 0.950 . S
H2180 C2186 0.949 . S
C2181 H2176 0.950 . S
C2181 C2183 1.327 . S
C2181 C2187 1.430 1_565 S
C2182 C2174 1.574 . S
C2182 H2177 0.949 . S
C2182 C2188 1.367 . S
C2183 C2167 1.351 1_565 S
C2183 H2175 0.950 . S
C2183 C2181 1.327 . S
C2184 C2172 1.348 . S
C2184 H2178 0.950 . S
C2184 C2185 1.327 . S
C2185 H2179 0.950 . S
C2185 C2184 1.327 . S
C2185 C2189 1.428 . S
C2186 C2169 1.574 . S
C2186 H2180 0.949 . S
C2186 C2190 1.369 1_565 S
C2187 C2168 1.427 . S
C2187 C2181 1.430 1_545 S
C2187 C2188 1.523 . S
C2188 C2169 1.370 1_545 S
C2188 C2182 1.367 . S
C2188 C2187 1.523 . S
C2189 C2173 1.429 1_545 S
C2189 C2185 1.428 . S
C2189 C2190 1.523 . S
C2190 C2174 1.367 . S
C2190 C2186 1.369 1_545 S
C2190 C2189 1.523 . S
H2191 C2166 0.950 . S
H2192 C2168 0.950 . S
H2193 C2169 0.949 . S
H2194 C2171 0.950 . S
H2195 C2173 0.950 . S
C2196 C2197 1.351 . S
C2196 C2198 1.327 . S
C2196 H2221 0.950 . S
C2197 C2196 1.351 . S
C2197 C2213 1.347 1_545 S
C2198 C2196 1.327 . S
C2198 C2217 1.430 . S
C2198 H2222 0.950 . S
C2199 C2216 1.574 . S
C2199 C2218 1.367 1_565 S
C2199 H2223 0.949 . S
H2200 C2204 0.949 . S
C2201 C2202 1.348 1_565 S
C2201 C2203 1.327 . S
C2201 H2224 0.950 . S
C2202 C2201 1.348 1_545 S
C2202 C2214 1.350 . S
C2203 C2201 1.327 . S
C2203 C2219 1.427 1_565 S
C2203 H2225 0.950 . S
C2204 H2200 0.949 . S
C2204 C2212 1.574 . S
C2204 C2220 1.370 . S
H2205 C2213 0.950 . S
H2206 C2211 0.950 . S
H2207 C2212 0.949 . S
H2208 C2214 0.950 . S
H2209 C2215 0.950 . S
H2210 C2216 0.949 . S
C2211 H2206 0.950 . S
C2211 C2213 1.327 . S
C2211 C2217 1.427 1_565 S
C2212 C2204 1.574 . S
C2212 H2207 0.949 . S
C2212 C2218 1.370 . S
C2213 C2197 1.347 1_565 S
C2213 H2205 0.950 . S
C2213 C2211 1.327 . S
C2214 C2202 1.350 . S
C2214 H2208 0.950 . S
C2214 C2215 1.327 . S
C2215 H2209 0.950 . S
C2215 C2214 1.327 . S
C2215 C2219 1.430 . S
C2216 C2199 1.574 . S
C2216 H2210 0.949 . S
C2216 C2220 1.367 1_565 S
C2217 C2198 1.430 . S
C2217 C2211 1.427 1_545 S
C2217 C2218 1.523 . S
C2218 C2199 1.367 1_545 S
C2218 C2212 1.370 . S
C2218 C2217 1.523 . S
C2219 C2203 1.427 1_545 S
C2219 C2215 1.430 . S
C2219 C2220 1.523 . S
C2220 C2204 1.370 . S
C2220 C2216 1.367 1_545 S
C2220 C2219 1.523 . S
H2221 C2196 0.950 . S
H2222 C2198 0.950 . S
H2223 C2199 0.949 . S
H2224 C2201 0.950 . S
H2225 C2203 0.950 . S
C2226 C2227 1.349 . S
C2226 C2228 1.327 . S
C2226 H2251 0.950 . S
C2227 C2226 1.349 . S
C2227 C2243 1.349 1_455 S
C2228 C2226 1.327 . S
C2228 C2247 1.429 . S
C2228 H2252 0.950 . S
C2229 C2246 1.574 . S
C2229 C2248 1.368 1_655 S
C2229 H2253 0.949 . S
H2230 C2234 0.949 . S
C2231 C2232 1.349 1_655 S
C2231 C2233 1.327 . S
C2231 H2254 0.950 . S
C2232 C2231 1.349 1_455 S
C2232 C2244 1.349 . S
C2233 C2231 1.327 . S
C2233 C2249 1.429 1_655 S
C2233 H2255 0.950 . S
C2234 H2230 0.949 . S
C2234 C2242 1.574 . S
C2234 C2250 1.368 . S
H2235 C2243 0.950 . S
H2236 C2241 0.950 . S
H2237 C2242 0.949 . S
H2238 C2244 0.950 . S
H2239 C2245 0.950 . S
H2240 C2246 0.949 . S
C2241 H2236 0.950 . S
C2241 C2243 1.327 . S
C2241 C2247 1.429 1_655 S
C2242 C2234 1.574 . S
C2242 H2237 0.949 . S
C2242 C2248 1.368 . S
C2243 C2227 1.349 1_655 S
C2243 H2235 0.950 . S
C2243 C2241 1.327 . S
C2244 C2232 1.349 . S
C2244 H2238 0.950 . S
C2244 C2245 1.327 . S
C2245 H2239 0.950 . S
C2245 C2244 1.327 . S
C2245 C2249 1.429 . S
C2246 C2229 1.574 . S
C2246 H2240 0.949 . S
C2246 C2250 1.368 1_655 S
C2247 C2228 1.429 . S
C2247 C2241 1.429 1_455 S
C2247 C2248 1.523 . S
C2248 C2229 1.368 1_455 S
C2248 C2242 1.368 . S
C2248 C2247 1.523 . S
C2249 C2233 1.429 1_455 S
C2249 C2245 1.429 . S
C2249 C2250 1.523 . S
C2250 C2234 1.368 . S
C2250 C2246 1.368 1_455 S
C2250 C2249 1.523 . S
H2251 C2226 0.950 . S
H2252 C2228 0.950 . S
H2253 C2229 0.949 . S
H2254 C2231 0.950 . S
H2255 C2233 0.950 . S
C2256 C2257 1.347 1_565 S
C2256 C2258 1.327 . S
C2256 H2281 0.950 . S
C2257 C2256 1.347 1_545 S
C2257 C2273 1.351 . S
C2258 C2256 1.327 . S
C2258 C2277 1.427 1_565 S
C2258 H2282 0.950 . S
C2259 C2276 1.574 . S
C2259 C2278 1.370 . S
C2259 H2283 0.949 . S
H2260 C2264 0.949 . S
C2261 C2262 1.350 . S
C2261 C2263 1.327 . S
C2261 H2284 0.950 . S
C2262 C2261 1.350 . S
C2262 C2274 1.348 1_545 S
C2263 C2261 1.327 . S
C2263 C2279 1.430 . S
C2263 H2285 0.950 . S
C2264 H2260 0.949 . S
C2264 C2272 1.574 . S
C2264 C2280 1.367 1_565 S
H2265 C2273 0.950 . S
H2266 C2271 0.950 . S
H2267 C2272 0.949 . S
H2268 C2274 0.950 . S
H2269 C2275 0.950 . S
H2270 C2276 0.949 . S
C2271 H2266 0.950 . S
C2271 C2273 1.327 . S
C2271 C2277 1.430 . S
C2272 C2264 1.574 . S
C2272 H2267 0.949 . S
C2272 C2278 1.367 1_565 S
C2273 C2257 1.351 . S
C2273 H2265 0.950 . S
C2273 C2271 1.327 . S
C2274 C2262 1.348 1_565 S
C2274 H2268 0.950 . S
C2274 C2275 1.327 . S
C2275 H2269 0.950 . S
C2275 C2274 1.327 . S
C2275 C2279 1.427 1_565 S
C2276 C2259 1.574 . S
C2276 H2270 0.949 . S
C2276 C2280 1.370 . S
C2277 C2258 1.427 1_545 S
C2277 C2271 1.430 . S
C2277 C2278 1.523 . S
C2278 C2259 1.370 . S
C2278 C2272 1.367 1_545 S
C2278 C2277 1.523 . S
C2279 C2263 1.430 . S
C2279 C2275 1.427 1_545 S
C2279 C2280 1.523 . S
C2280 C2264 1.367 1_545 S
C2280 C2276 1.370 . S
C2280 C2279 1.523 . S
H2281 C2256 0.950 . S
H2282 C2258 0.950 . S
H2283 C2259 0.949 . S
H2284 C2261 0.950 . S
H2285 C2263 0.950 . S
C2286 C2287 1.349 1_655 S
C2286 C2288 1.327 . S
C2286 H2311 0.950 . S
C2287 C2286 1.349 1_455 S
C2287 C2303 1.349 . S
C2288 C2286 1.327 . S
C2288 C2307 1.429 1_655 S
C2288 H2312 0.950 . S
C2289 C2306 1.574 . S
C2289 C2308 1.368 . S
C2289 H2313 0.949 . S
H2290 C2294 0.949 . S
C2291 C2292 1.349 . S
C2291 C2293 1.327 . S
C2291 H2314 0.950 . S
C2292 C2291 1.349 . S
C2292 C2304 1.349 1_455 S
C2293 C2291 1.327 . S
C2293 C2309 1.429 . S
C2293 H2315 0.950 . S
C2294 H2290 0.949 . S
C2294 C2302 1.574 . S
C2294 C2310 1.368 1_655 S
H2295 C2303 0.950 . S
H2296 C2301 0.950 . S
H2297 C2302 0.949 . S
H2298 C2304 0.950 . S
H2299 C2305 0.950 . S
H2300 C2306 0.949 . S
C2301 H2296 0.950 . S
C2301 C2303 1.327 . S
C2301 C2307 1.429 . S
C2302 C2294 1.574 . S
C2302 H2297 0.949 . S
C2302 C2308 1.368 1_655 S
C2303 C2287 1.349 . S
C2303 H2295 0.950 . S
C2303 C2301 1.327 . S
C2304 C2292 1.349 1_655 S
C2304 H2298 0.950 . S
C2304 C2305 1.327 . S
C2305 H2299 0.950 . S
C2305 C2304 1.327 . S
C2305 C2309 1.429 1_655 S
C2306 C2289 1.574 . S
C2306 H2300 0.949 . S
C2306 C2310 1.368 . S
C2307 C2288 1.429 1_455 S
C2307 C2301 1.429 . S
C2307 C2308 1.523 . S
C2308 C2289 1.368 . S
C2308 C2302 1.368 1_455 S
C2308 C2307 1.523 . S
C2309 C2293 1.429 . S
C2309 C2305 1.429 1_455 S
C2309 C2310 1.523 . S
C2310 C2294 1.368 1_455 S
C2310 C2306 1.368 . S
C2310 C2309 1.523 . S
H2311 C2286 0.950 . S
H2312 C2288 0.950 . S
H2313 C2289 0.949 . S
H2314 C2291 0.950 . S
H2315 C2293 0.950 . S
C2316 C2317 1.349 1_565 S
C2316 C2318 1.327 . S
C2316 H2341 0.950 . S
C2317 C2316 1.349 1_545 S
C2317 C2333 1.349 . S
C2318 C2316 1.327 . S
C2318 C2337 1.428 1_565 S
C2318 H2342 0.950 . S
C2319 C2336 1.574 . S
C2319 C2338 1.369 . S
C2319 H2343 0.949 . S
H2320 C2324 0.949 . S
C2321 C2322 1.350 . S
C2321 C2323 1.327 . S
C2321 H2344 0.950 . S
C2322 C2321 1.350 . S
C2322 C2334 1.348 1_545 S
C2323 C2321 1.327 . S
C2323 C2339 1.429 . S
C2323 H2345 0.950 . S
C2324 H2320 0.949 . S
C2324 C2332 1.574 . S
C2324 C2340 1.368 1_565 S
H2325 C2333 0.950 . S
H2326 C2331 0.950 . S
H2327 C2332 0.949 . S
H2328 C2334 0.950 . S
H2329 C2335 0.950 . S
H2330 C2336 0.949 . S
C2331 H2326 0.950 . S
C2331 C2333 1.327 . S
C2331 C2337 1.429 . S
C2332 C2324 1.574 . S
C2332 H2327 0.949 . S
C2332 C2338 1.368 1_565 S
C2333 C2317 1.349 . S
C2333 H2325 0.950 . S
C2333 C2331 1.327 . S
C2334 C2322 1.348 1_565 S
C2334 H2328 0.950 . S
C2334 C2335 1.327 . S
C2335 H2329 0.950 . S
C2335 C2334 1.327 . S
C2335 C2339 1.428 1_565 S
C2336 C2319 1.574 . S
C2336 H2330 0.949 . S
C2336 C2340 1.369 . S
C2337 C2318 1.428 1_545 S
C2337 C2331 1.429 . S
C2337 C2338 1.523 . S
C2338 C2319 1.369 . S
C2338 C2332 1.368 1_545 S
C2338 C2337 1.523 . S
C2339 C2323 1.429 . S
C2339 C2335 1.428 1_545 S
C2339 C2340 1.523 . S
C2340 C2324 1.368 1_545 S
C2340 C2336 1.369 . S
C2340 C2339 1.523 . S
H2341 C2316 0.950 . S
H2342 C2318 0.950 . S
H2343 C2319 0.949 . S
H2344 C2321 0.950 . S
H2345 C2323 0.950 . S
C2346 C2347 1.349 1_655 S
C2346 C2348 1.327 . S
C2346 H2371 0.950 . S
C2347 C2346 1.349 1_455 S
C2347 C2363 1.349 . S
C2348 C2346 1.327 . S
C2348 C2367 1.429 1_655 S
C2348 H2372 0.950 . S
C2349 C2366 1.574 . S
C2349 C2368 1.368 . S
C2349 H2373 0.949 . S
H2350 C2354 0.949 . S
C2351 C2352 1.349 . S
C2351 C2353 1.327 . S
C2351 H2374 0.950 . S
C2352 C2351 1.349 . S
C2352 C2364 1.349 1_455 S
C2353 C2351 1.327 . S
C2353 C2369 1.429 . S
C2353 H2375 0.950 . S
C2354 H2350 0.949 . S
C2354 C2362 1.574 . S
C2354 C2370 1.368 1_655 S
H2355 C2363 0.950 . S
H2356 C2361 0.950 . S
H2357 C2362 0.949 . S
H2358 C2364 0.950 . S
H2359 C2365 0.950 . S
H2360 C2366 0.949 . S
C2361 H2356 0.950 . S
C2361 C2363 1.327 . S
C2361 C2367 1.429 . S
C2362 C2354 1.574 . S
C2362 H2357 0.949 . S
C2362 C2368 1.368 1_655 S
C2363 C2347 1.349 . S
C2363 H2355 0.950 . S
C2363 C2361 1.327 . S
C2364 C2352 1.349 1_655 S
C2364 H2358 0.950 . S
C2364 C2365 1.327 . S
C2365 H2359 0.950 . S
C2365 C2364 1.327 . S
C2365 C2369 1.429 1_655 S
C2366 C2349 1.574 . S
C2366 H2360 0.949 . S
C2366 C2370 1.368 . S
C2367 C2348 1.429 1_455 S
C2367 C2361 1.429 . S
C2367 C2368 1.523 . S
C2368 C2349 1.368 . S
C2368 C2362 1.368 1_455 S
C2368 C2367 1.523 . S
C2369 C2353 1.429 . S
C2369 C2365 1.429 1_455 S
C2369 C2370 1.523 . S
C2370 C2354 1.368 1_455 S
C2370 C2366 1.368 . S
C2370 C2369 1.523 . S
H2371 C2346 0.950 . S
H2372 C2348 0.950 . S
H2373 C2349 0.949 . S
H2374 C2351 0.950 . S
H2375 C2353 0.950 . S
C2376 C2377 1.351 1_565 S
C2376 C2378 1.327 . S
C2376 H2401 0.950 . S
C2377 C2376 1.351 1_545 S
C2377 C2393 1.347 . S
C2378 C2376 1.327 . S
C2378 C2397 1.430 1_565 S
C2378 H2402 0.950 . S
C2379 C2396 1.574 . S
C2379 C2398 1.366 . S
C2379 H2403 0.949 . S
H2380 C2384 0.949 . S
C2381 C2382 1.348 . S
C2381 C2383 1.327 . S
C2381 H2404 0.950 . S
C2382 C2381 1.348 . S
C2382 C2394 1.350 1_545 S
C2383 C2381 1.327 . S
C2383 C2399 1.427 . S
C2383 H2405 0.950 . S
C2384 H2380 0.949 . S
C2384 C2392 1.574 . S
C2384 C2400 1.370 1_565 S
H2385 C2393 0.950 . S
H2386 C2391 0.950 . S
H2387 C2392 0.949 . S
H2388 C2394 0.950 . S
H2389 C2395 0.950 . S
H2390 C2396 0.949 . S
C2391 H2386 0.950 . S
C2391 C2393 1.327 . S
C2391 C2397 1.427 . S
C2392 C2384 1.574 . S
C2392 H2387 0.949 . S
C2392 C2398 1.370 1_565 S
C2393 C2377 1.347 . S
C2393 H2385 0.950 . S
C2393 C2391 1.327 . S
C2394 C2382 1.350 1_565 S
C2394 H2388 0.950 . S
C2394 C2395 1.327 . S
C2395 H2389 0.950 . S
C2395 C2394 1.327 . S
C2395 C2399 1.430 1_565 S
C2396 C2379 1.574 . S
C2396 H2390 0.949 . S
C2396 C2400 1.367 . S
C2397 C2378 1.430 1_545 S
C2397 C2391 1.427 . S
C2397 C2398 1.523 . S
C2398 C2379 1.366 . S
C2398 C2392 1.370 1_545 S
C2398 C2397 1.523 . S
C2399 C2383 1.427 . S
C2399 C2395 1.430 1_545 S
C2399 C2400 1.523 . S
C2400 C2384 1.370 1_545 S
C2400 C2396 1.367 . S
C2400 C2399 1.523 . S
H2401 C2376 0.950 . S
H2402 C2378 0.950 . S
H2403 C2379 0.949 . S
H2404 C2381 0.950 . S
H2405 C2383 0.950 . S
C2406 C2407 1.349 . S
C2406 C2408 1.327 . S
C2406 H2431 0.950 . S
C2407 C2406 1.349 . S
C2407 C2423 1.349 1_455 S
C2408 C2406 1.327 . S
C2408 C2427 1.429 . S
C2408 H2432 0.950 . S
C2409 C2426 1.574 . S
C2409 C2428 1.368 1_655 S
C2409 H2433 0.949 . S
H2410 C2414 0.949 . S
C2411 C2412 1.349 1_655 S
C2411 C2413 1.327 . S
C2411 H2434 0.950 . S
C2412 C2411 1.349 1_455 S
C2412 C2424 1.349 . S
C2413 C2411 1.327 . S
C2413 C2429 1.429 1_655 S
C2413 H2435 0.950 . S
C2414 H2410 0.949 . S
C2414 C2422 1.574 . S
C2414 C2430 1.368 . S
H2415 C2423 0.950 . S
H2416 C2421 0.950 . S
H2417 C2422 0.949 . S
H2418 C2424 0.950 . S
H2419 C2425 0.950 . S
H2420 C2426 0.949 . S
C2421 H2416 0.950 . S
C2421 C2423 1.327 . S
C2421 C2427 1.429 1_655 S
C2422 C2414 1.574 . S
C2422 H2417 0.949 . S
C2422 C2428 1.368 . S
C2423 C2407 1.349 1_655 S
C2423 H2415 0.950 . S
C2423 C2421 1.327 . S
C2424 C2412 1.349 . S
C2424 H2418 0.950 . S
C2424 C2425 1.327 . S
C2425 H2419 0.950 . S
C2425 C2424 1.327 . S
C2425 C2429 1.429 . S
C2426 C2409 1.574 . S
C2426 H2420 0.949 . S
C2426 C2430 1.368 1_655 S
C2427 C2408 1.429 . S
C2427 C2421 1.429 1_455 S
C2427 C2428 1.523 . S
C2428 C2409 1.368 1_455 S
C2428 C2422 1.368 . S
C2428 C2427 1.523 . S
C2429 C2413 1.429 1_455 S
C2429 C2425 1.429 . S
C2429 C2430 1.523 . S
C2430 C2414 1.368 . S
C2430 C2426 1.368 1_455 S
C2430 C2429 1.523 . S
H2431 C2406 0.950 . S
H2432 C2408 0.950 . S
H2433 C2409 0.949 . S
H2434 C2411 0.950 . S
H2435 C2413 0.950 . S
C2436 C2437 1.347 . S
C2436 C2438 1.327 . S
C2436 H2461 0.950 . S
C2437 C2436 1.347 . S
C2437 C2453 1.351 1_554 S
C2438 C2436 1.327 . S
C2438 C2457 1.427 . S
C2438 H2462 0.950 . S
C2439 C2456 1.574 . S
C2439 C2458 1.370 1_556 S
C2439 H2463 0.949 . S
H2440 C2444 0.949 . S
C2441 C2442 1.349 1_556 S
C2441 C2443 1.327 . S
C2441 H2464 0.950 . S
C2442 C2441 1.349 1_554 S
C2442 C2454 1.348 . S
C2443 C2441 1.327 . S
C2443 C2459 1.429 1_556 S
C2443 H2465 0.950 . S
C2444 H2440 0.949 . S
C2444 C2452 1.574 . S
C2444 C2460 1.367 . S
H2445 C2453 0.950 . S
H2446 C2451 0.950 . S
H2447 C2452 0.949 . S
H2448 C2454 0.950 . S
H2449 C2455 0.950 . S
H2450 C2456 0.949 . S
C2451 H2446 0.950 . S
C2451 C2453 1.327 . S
C2451 C2457 1.430 1_556 S
C2452 C2444 1.574 . S
C2452 H2447 0.949 . S
C2452 C2458 1.367 . S
C2453 C2437 1.351 1_556 S
C2453 H2445 0.950 . S
C2453 C2451 1.327 . S
C2454 C2442 1.348 . S
C2454 H2448 0.950 . S
C2454 C2455 1.327 . S
C2455 H2449 0.950 . S
C2455 C2454 1.327 . S
C2455 C2459 1.428 . S
C2456 C2439 1.574 . S
C2456 H2450 0.949 . S
C2456 C2460 1.369 1_556 S
C2457 C2438 1.427 . S
C2457 C2451 1.430 1_554 S
C2457 C2458 1.523 . S
C2458 C2439 1.370 1_554 S
C2458 C2452 1.367 . S
C2458 C2457 1.523 . S
C2459 C2443 1.429 1_554 S
C2459 C2455 1.428 . S
C2459 C2460 1.523 . S
C2460 C2444 1.367 . S
C2460 C2456 1.369 1_554 S
C2460 C2459 1.523 . S
H2461 C2436 0.950 . S
H2462 C2438 0.950 . S
H2463 C2439 0.949 . S
H2464 C2441 0.950 . S
H2465 C2443 0.950 . S
C2466 C2467 1.349 . S
C2466 C2468 1.327 . S
C2466 H2491 0.950 . S
C2467 C2466 1.349 . S
C2467 C2483 1.349 1_554 S
C2468 C2466 1.327 . S
C2468 C2487 1.428 . S
C2468 H2492 0.950 . S
C2469 C2486 1.574 . S
C2469 C2488 1.369 1_556 S
C2469 H2493 0.949 . S
H2470 C2474 0.949 . S
C2471 C2472 1.350 1_556 S
C2471 C2473 1.327 . S
C2471 H2494 0.950 . S
C2472 C2471 1.350 1_554 S
C2472 C2484 1.347 . S
C2473 C2471 1.327 . S
C2473 C2489 1.430 1_556 S
C2473 H2495 0.950 . S
C2474 H2470 0.949 . S
C2474 C2482 1.574 . S
C2474 C2490 1.367 . S
H2475 C2483 0.950 . S
H2476 C2481 0.950 . S
H2477 C2482 0.949 . S
H2478 C2484 0.950 . S
H2479 C2485 0.950 . S
H2480 C2486 0.949 . S
C2481 H2476 0.950 . S
C2481 C2483 1.327 . S
C2481 C2487 1.429 1_556 S
C2482 C2474 1.574 . S
C2482 H2477 0.949 . S
C2482 C2488 1.368 . S
C2483 C2467 1.349 1_556 S
C2483 H2475 0.950 . S
C2483 C2481 1.327 . S
C2484 C2472 1.347 . S
C2484 H2478 0.950 . S
C2484 C2485 1.327 . S
C2485 H2479 0.950 . S
C2485 C2484 1.327 . S
C2485 C2489 1.428 . S
C2486 C2469 1.574 . S
C2486 H2480 0.949 . S
C2486 C2490 1.369 1_556 S
C2487 C2468 1.428 . S
C2487 C2481 1.429 1_554 S
C2487 C2488 1.523 . S
C2488 C2469 1.369 1_554 S
C2488 C2482 1.368 . S
C2488 C2487 1.523 . S
C2489 C2473 1.430 1_554 S
C2489 C2485 1.428 . S
C2489 C2490 1.523 . S
C2490 C2474 1.367 . S
C2490 C2486 1.369 1_554 S
C2490 C2489 1.523 . S
H2491 C2466 0.950 . S
H2492 C2468 0.950 . S
H2493 C2469 0.949 . S
H2494 C2471 0.950 . S
H2495 C2473 0.950 . S
C2496 C2497 1.351 1_556 S
C2496 C2498 1.327 . S
C2496 H2521 0.950 . S
C2497 C2496 1.351 1_554 S
C2497 C2513 1.347 . S
C2498 C2496 1.327 . S
C2498 C2517 1.430 1_556 S
C2498 H2522 0.950 . S
C2499 C2516 1.574 . S
C2499 C2518 1.366 . S
C2499 H2523 0.949 . S
H2500 C2504 0.949 . S
C2501 C2502 1.348 . S
C2501 C2503 1.327 . S
C2501 H2524 0.950 . S
C2502 C2501 1.348 . S
C2502 C2514 1.350 1_554 S
C2503 C2501 1.327 . S
C2503 C2519 1.427 . S
C2503 H2525 0.950 . S
C2504 H2500 0.949 . S
C2504 C2512 1.574 . S
C2504 C2520 1.370 1_556 S
H2505 C2513 0.950 . S
H2506 C2511 0.950 . S
H2507 C2512 0.949 . S
H2508 C2514 0.950 . S
H2509 C2515 0.950 . S
H2510 C2516 0.949 . S
C2511 H2506 0.950 . S
C2511 C2513 1.327 . S
C2511 C2517 1.427 . S
C2512 C2504 1.574 . S
C2512 H2507 0.949 . S
C2512 C2518 1.370 1_556 S
C2513 C2497 1.347 . S
C2513 H2505 0.950 . S
C2513 C2511 1.327 . S
C2514 C2502 1.350 1_556 S
C2514 H2508 0.950 . S
C2514 C2515 1.327 . S
C2515 H2509 0.950 . S
C2515 C2514 1.327 . S
C2515 C2519 1.430 1_556 S
C2516 C2499 1.574 . S
C2516 H2510 0.949 . S
C2516 C2520 1.367 . S
C2517 C2498 1.430 1_554 S
C2517 C2511 1.427 . S
C2517 C2518 1.523 . S
C2518 C2499 1.366 . S
C2518 C2512 1.370 1_554 S
C2518 C2517 1.523 . S
C2519 C2503 1.427 . S
C2519 C2515 1.430 1_554 S
C2519 C2520 1.523 . S
C2520 C2504 1.370 1_554 S
C2520 C2516 1.367 . S
C2520 C2519 1.523 . S
H2521 C2496 0.950 . S
H2522 C2498 0.950 . S
H2523 C2499 0.949 . S
H2524 C2501 0.950 . S
H2525 C2503 0.950 . S
C2526 C2527 1.347 . S
C2526 C2528 1.327 . S
C2526 H2551 0.950 . S
C2527 C2526 1.347 . S
C2527 C2543 1.351 1_554 S
C2528 C2526 1.327 . S
C2528 C2547 1.427 . S
C2528 H2552 0.950 . S
C2529 C2546 1.574 . S
C2529 C2548 1.370 1_556 S
C2529 H2553 0.949 . S
H2530 C2534 0.949 . S
C2531 C2532 1.349 1_556 S
C2531 C2533 1.327 . S
C2531 H2554 0.950 . S
C2532 C2531 1.349 1_554 S
C2532 C2544 1.348 . S
C2533 C2531 1.327 . S
C2533 C2549 1.429 1_556 S
C2533 H2555 0.950 . S
C2534 H2530 0.949 . S
C2534 C2542 1.574 . S
C2534 C2550 1.367 . S
H2535 C2543 0.950 . S
H2536 C2541 0.950 . S
H2537 C2542 0.949 . S
H2538 C2544 0.950 . S
H2539 C2545 0.950 . S
H2540 C2546 0.949 . S
C2541 H2536 0.950 . S
C2541 C2543 1.327 . S
C2541 C2547 1.430 1_556 S
C2542 C2534 1.574 . S
C2542 H2537 0.949 . S
C2542 C2548 1.367 . S
C2543 C2527 1.351 1_556 S
C2543 H2535 0.950 . S
C2543 C2541 1.327 . S
C2544 C2532 1.348 . S
C2544 H2538 0.950 . S
C2544 C2545 1.327 . S
C2545 H2539 0.950 . S
C2545 C2544 1.327 . S
C2545 C2549 1.428 . S
C2546 C2529 1.574 . S
C2546 H2540 0.949 . S
C2546 C2550 1.369 1_556 S
C2547 C2528 1.427 . S
C2547 C2541 1.430 1_554 S
C2547 C2548 1.523 . S
C2548 C2529 1.370 1_554 S
C2548 C2542 1.367 . S
C2548 C2547 1.523 . S
C2549 C2533 1.429 1_554 S
C2549 C2545 1.428 . S
C2549 C2550 1.523 . S
C2550 C2534 1.367 . S
C2550 C2546 1.369 1_554 S
C2550 C2549 1.523 . S
H2551 C2526 0.950 . S
H2552 C2528 0.950 . S
H2553 C2529 0.949 . S
H2554 C2531 0.950 . S
H2555 C2533 0.950 . S
C2556 C2557 1.349 1_556 S
C2556 C2558 1.327 . S
C2556 H2581 0.950 . S
C2557 C2556 1.349 1_554 S
C2557 C2573 1.349 . S
C2558 C2556 1.327 . S
C2558 C2577 1.429 1_556 S
C2558 H2582 0.950 . S
C2559 C2576 1.574 . S
C2559 C2578 1.368 . S
C2559 H2583 0.949 . S
H2560 C2564 0.949 . S
C2561 C2562 1.348 . S
C2561 C2563 1.327 . S
C2561 H2584 0.950 . S
C2562 C2561 1.348 . S
C2562 C2574 1.349 1_554 S
C2563 C2561 1.327 . S
C2563 C2579 1.428 . S
C2563 H2585 0.950 . S
C2564 H2560 0.949 . S
C2564 C2572 1.574 . S
C2564 C2580 1.369 1_556 S
H2565 C2573 0.950 . S
H2566 C2571 0.950 . S
H2567 C2572 0.949 . S
H2568 C2574 0.950 . S
H2569 C2575 0.950 . S
H2570 C2576 0.949 . S
C2571 H2566 0.950 . S
C2571 C2573 1.327 . S
C2571 C2577 1.428 . S
C2572 C2564 1.574 . S
C2572 H2567 0.949 . S
C2572 C2578 1.369 1_556 S
C2573 C2557 1.349 . S
C2573 H2565 0.950 . S
C2573 C2571 1.327 . S
C2574 C2562 1.349 1_556 S
C2574 H2568 0.950 . S
C2574 C2575 1.327 . S
C2575 H2569 0.950 . S
C2575 C2574 1.327 . S
C2575 C2579 1.429 1_556 S
C2576 C2559 1.574 . S
C2576 H2570 0.949 . S
C2576 C2580 1.368 . S
C2577 C2558 1.429 1_554 S
C2577 C2571 1.428 . S
C2577 C2578 1.523 . S
C2578 C2559 1.368 . S
C2578 C2572 1.369 1_554 S
C2578 C2577 1.523 . S
C2579 C2563 1.428 . S
C2579 C2575 1.429 1_554 S
C2579 C2580 1.523 . S
C2580 C2564 1.369 1_554 S
C2580 C2576 1.368 . S
C2580 C2579 1.523 . S
H2581 C2556 0.950 . S
H2582 C2558 0.950 . S
H2583 C2559 0.949 . S
H2584 C2561 0.950 . S
H2585 C2563 0.950 . S
C2586 C2587 1.349 1_556 S
C2586 C2588 1.327 . S
C2586 H2611 0.950 . S
C2587 C2586 1.349 1_554 S
C2587 C2603 1.349 . S
C2588 C2586 1.327 . S
C2588 C2607 1.429 1_556 S
C2588 H2612 0.950 . S
C2589 C2606 1.574 . S
C2589 C2608 1.368 . S
C2589 H2613 0.949 . S
H2590 C2594 0.949 . S
C2591 C2592 1.348 . S
C2591 C2593 1.327 . S
C2591 H2614 0.950 . S
C2592 C2591 1.348 . S
C2592 C2604 1.350 1_554 S
C2593 C2591 1.327 . S
C2593 C2609 1.428 . S
C2593 H2615 0.950 . S
C2594 H2590 0.949 . S
C2594 C2602 1.574 . S
C2594 C2610 1.369 1_556 S
H2595 C2603 0.950 . S
H2596 C2601 0.950 . S
H2597 C2602 0.949 . S
H2598 C2604 0.950 . S
H2599 C2605 0.950 . S
H2600 C2606 0.949 . S
C2601 H2596 0.950 . S
C2601 C2603 1.327 . S
C2601 C2607 1.428 . S
C2602 C2594 1.574 . S
C2602 H2597 0.949 . S
C2602 C2608 1.369 1_556 S
C2603 C2587 1.349 . S
C2603 H2595 0.950 . S
C2603 C2601 1.327 . S
C2604 C2592 1.350 1_556 S
C2604 H2598 0.950 . S
C2604 C2605 1.327 . S
C2605 H2599 0.950 . S
C2605 C2604 1.327 . S
C2605 C2609 1.430 1_556 S
C2606 C2589 1.574 . S
C2606 H2600 0.949 . S
C2606 C2610 1.367 . S
C2607 C2588 1.429 1_554 S
C2607 C2601 1.428 . S
C2607 C2608 1.523 . S
C2608 C2589 1.368 . S
C2608 C2602 1.369 1_554 S
C2608 C2607 1.523 . S
C2609 C2593 1.428 . S
C2609 C2605 1.430 1_554 S
C2609 C2610 1.523 . S
C2610 C2594 1.369 1_554 S
C2610 C2606 1.367 . S
C2610 C2609 1.523 . S
H2611 C2586 0.950 . S
H2612 C2588 0.950 . S
H2613 C2589 0.949 . S
H2614 C2591 0.950 . S
H2615 C2593 0.950 . S
C2616 C2617 1.347 1_556 S
C2616 C2618 1.327 . S
C2616 H2641 0.950 . S
C2617 C2616 1.347 1_554 S
C2617 C2633 1.351 . S
C2618 C2616 1.327 . S
C2618 C2637 1.427 1_556 S
C2618 H2642 0.950 . S
C2619 C2636 1.574 . S
C2619 C2638 1.370 . S
C2619 H2643 0.949 . S
H2620 C2624 0.949 . S
C2621 C2622 1.350 . S
C2621 C2623 1.327 . S
C2621 H2644 0.950 . S
C2622 C2621 1.350 . S
C2622 C2634 1.348 1_554 S
C2623 C2621 1.327 . S
C2623 C2639 1.430 . S
C2623 H2645 0.950 . S
C2624 H2620 0.949 . S
C2624 C2632 1.574 . S
C2624 C2640 1.367 1_556 S
H2625 C2633 0.950 . S
H2626 C2631 0.950 . S
H2627 C2632 0.949 . S
H2628 C2634 0.950 . S
H2629 C2635 0.950 . S
H2630 C2636 0.949 . S
C2631 H2626 0.950 . S
C2631 C2633 1.327 . S
C2631 C2637 1.430 . S
C2632 C2624 1.574 . S
C2632 H2627 0.949 . S
C2632 C2638 1.367 1_556 S
C2633 C2617 1.351 . S
C2633 H2625 0.950 . S
C2633 C2631 1.327 . S
C2634 C2622 1.348 1_556 S
C2634 H2628 0.950 . S
C2634 C2635 1.327 . S
C2635 H2629 0.950 . S
C2635 C2634 1.327 . S
C2635 C2639 1.427 1_556 S
C2636 C2619 1.574 . S
C2636 H2630 0.949 . S
C2636 C2640 1.370 . S
C2637 C2618 1.427 1_554 S
C2637 C2631 1.430 . S
C2637 C2638 1.523 . S
C2638 C2619 1.370 . S
C2638 C2632 1.367 1_554 S
C2638 C2637 1.523 . S
C2639 C2623 1.430 . S
C2639 C2635 1.427 1_554 S
C2639 C2640 1.523 . S
C2640 C2624 1.367 1_554 S
C2640 C2636 1.370 . S
C2640 C2639 1.523 . S
H2641 C2616 0.950 . S
H2642 C2618 0.950 . S
H2643 C2619 0.949 . S
H2644 C2621 0.950 . S
H2645 C2623 0.950 . S
C2646 C2647 1.351 1_556 S
C2646 C2648 1.327 . S
C2646 H2671 0.950 . S
C2647 C2646 1.351 1_554 S
C2647 C2663 1.347 . S
C2648 C2646 1.327 . S
C2648 C2667 1.430 1_556 S
C2648 H2672 0.950 . S
C2649 C2666 1.574 . S
C2649 C2668 1.366 . S
C2649 H2673 0.949 . S
H2650 C2654 0.949 . S
C2651 C2652 1.348 . S
C2651 C2653 1.327 . S
C2651 H2674 0.950 . S
C2652 C2651 1.348 . S
C2652 C2664 1.350 1_554 S
C2653 C2651 1.327 . S
C2653 C2669 1.427 . S
C2653 H2675 0.950 . S
C2654 H2650 0.949 . S
C2654 C2662 1.574 . S
C2654 C2670 1.370 1_556 S
H2655 C2663 0.950 . S
H2656 C2661 0.950 . S
H2657 C2662 0.949 . S
H2658 C2664 0.950 . S
H2659 C2665 0.950 . S
H2660 C2666 0.949 . S
C2661 H2656 0.950 . S
C2661 C2663 1.327 . S
C2661 C2667 1.427 . S
C2662 C2654 1.574 . S
C2662 H2657 0.949 . S
C2662 C2668 1.370 1_556 S
C2663 C2647 1.347 . S
C2663 H2655 0.950 . S
C2663 C2661 1.327 . S
C2664 C2652 1.350 1_556 S
C2664 H2658 0.950 . S
C2664 C2665 1.327 . S
C2665 H2659 0.950 . S
C2665 C2664 1.327 . S
C2665 C2669 1.430 1_556 S
C2666 C2649 1.574 . S
C2666 H2660 0.949 . S
C2666 C2670 1.367 . S
C2667 C2648 1.430 1_554 S
C2667 C2661 1.427 . S
C2667 C2668 1.523 . S
C2668 C2649 1.366 . S
C2668 C2662 1.370 1_554 S
C2668 C2667 1.523 . S
C2669 C2653 1.427 . S
C2669 C2665 1.430 1_554 S
C2669 C2670 1.523 . S
C2670 C2654 1.370 1_554 S
C2670 C2666 1.367 . S
C2670 C2669 1.523 . S
H2671 C2646 0.950 . S
H2672 C2648 0.950 . S
H2673 C2649 0.949 . S
H2674 C2651 0.950 . S
H2675 C2653 0.950 . S
C2676 C2677 1.349 . S
C2676 C2678 1.327 . S
C2676 H2701 0.950 . S
C2677 C2676 1.349 . S
C2677 C2693 1.349 . S
C2678 C2676 1.327 . S
C2678 C2697 1.429 . S
C2678 H2702 0.950 . S
C2679 C2696 1.574 . S
C2679 C2698 1.368 . S
C2679 H2703 0.949 . S
H2680 C2684 0.949 . S
C2681 C2682 1.349 . S
C2681 C2683 1.327 . S
C2681 H2704 0.950 . S
C2682 C2681 1.349 . S
C2682 C2694 1.349 . S
C2683 C2681 1.327 . S
C2683 C2699 1.429 . S
C2683 H2705 0.950 . S
C2684 H2680 0.949 . S
C2684 C2692 1.574 . S
C2684 C2700 1.368 . S
H2685 C2693 0.950 . S
H2686 C2691 0.950 . S
H2687 C2692 0.949 . S
H2688 C2694 0.950 . S
H2689 C2695 0.950 . S
H2690 C2696 0.949 . S
C2691 H2686 0.950 . S
C2691 C2693 1.327 . S
C2691 C2697 1.429 . S
C2692 C2684 1.574 . S
C2692 H2687 0.949 . S
C2692 C2698 1.368 . S
C2693 C2677 1.349 . S
C2693 H2685 0.950 . S
C2693 C2691 1.327 . S
C2694 C2682 1.349 . S
C2694 H2688 0.950 . S
C2694 C2695 1.327 . S
C2695 H2689 0.950 . S
C2695 C2694 1.327 . S
C2695 C2699 1.429 . S
C2696 C2679 1.574 . S
C2696 H2690 0.949 . S
C2696 C2700 1.368 . S
C2697 C2678 1.429 . S
C2697 C2691 1.429 . S
C2697 C2698 1.523 . S
C2698 C2679 1.368 . S
C2698 C2692 1.368 . S
C2698 C2697 1.523 . S
C2699 C2683 1.429 . S
C2699 C2695 1.429 . S
C2699 C2700 1.523 . S
C2700 C2684 1.368 . S
C2700 C2696 1.368 . S
C2700 C2699 1.523 . S
H2701 C2676 0.950 . S
H2702 C2678 0.950 . S
H2703 C2679 0.949 . S
H2704 C2681 0.950 . S
H2705 C2683 0.950 . S
C2706 C2707 1.349 . S
C2706 C2708 1.327 . S
C2706 H2731 0.950 . S
C2707 C2706 1.349 . S
C2707 C2723 1.349 . S
C2708 C2706 1.327 . S
C2708 C2727 1.429 . S
C2708 H2732 0.950 . S
C2709 C2726 1.574 . S
C2709 C2728 1.368 . S
C2709 H2733 0.949 . S
H2710 C2714 0.949 . S
C2711 C2712 1.349 . S
C2711 C2713 1.327 . S
C2711 H2734 0.950 . S
C2712 C2711 1.349 . S
C2712 C2724 1.349 . S
C2713 C2711 1.327 . S
C2713 C2729 1.429 . S
C2713 H2735 0.950 . S
C2714 H2710 0.949 . S
C2714 C2722 1.574 . S
C2714 C2730 1.368 . S
H2715 C2723 0.950 . S
H2716 C2721 0.950 . S
H2717 C2722 0.949 . S
H2718 C2724 0.950 . S
H2719 C2725 0.950 . S
H2720 C2726 0.949 . S
C2721 H2716 0.950 . S
C2721 C2723 1.327 . S
C2721 C2727 1.429 . S
C2722 C2714 1.574 . S
C2722 H2717 0.949 . S
C2722 C2728 1.368 . S
C2723 C2707 1.349 . S
C2723 H2715 0.950 . S
C2723 C2721 1.327 . S
C2724 C2712 1.349 . S
C2724 H2718 0.950 . S
C2724 C2725 1.327 . S
C2725 H2719 0.950 . S
C2725 C2724 1.327 . S
C2725 C2729 1.429 . S
C2726 C2709 1.574 . S
C2726 H2720 0.949 . S
C2726 C2730 1.368 . S
C2727 C2708 1.429 . S
C2727 C2721 1.429 . S
C2727 C2728 1.523 . S
C2728 C2709 1.368 . S
C2728 C2722 1.368 . S
C2728 C2727 1.523 . S
C2729 C2713 1.429 . S
C2729 C2725 1.429 . S
C2729 C2730 1.523 . S
C2730 C2714 1.368 . S
C2730 C2726 1.368 . S
C2730 C2729 1.523 . S
H2731 C2706 0.950 . S
H2732 C2708 0.950 . S
H2733 C2709 0.949 . S
H2734 C2711 0.950 . S
H2735 C2713 0.950 . S
C2736 C2737 1.349 . S
C2736 C2738 1.327 . S
C2736 H2761 0.950 . S
C2737 C2736 1.349 . S
C2737 C2753 1.349 . S
C2738 C2736 1.327 . S
C2738 C2757 1.429 . S
C2738 H2762 0.950 . S
C2739 C2756 1.574 . S
C2739 C2758 1.368 . S
C2739 H2763 0.949 . S
H2740 C2744 0.949 . S
C2741 C2742 1.349 . S
C2741 C2743 1.327 . S
C2741 H2764 0.950 . S
C2742 C2741 1.349 . S
C2742 C2754 1.349 . S
C2743 C2741 1.327 . S
C2743 C2759 1.429 . S
C2743 H2765 0.950 . S
C2744 H2740 0.949 . S
C2744 C2752 1.574 . S
C2744 C2760 1.368 . S
H2745 C2753 0.950 . S
H2746 C2751 0.950 . S
H2747 C2752 0.949 . S
H2748 C2754 0.950 . S
H2749 C2755 0.950 . S
H2750 C2756 0.949 . S
C2751 H2746 0.950 . S
C2751 C2753 1.327 . S
C2751 C2757 1.429 . S
C2752 C2744 1.574 . S
C2752 H2747 0.949 . S
C2752 C2758 1.368 . S
C2753 C2737 1.349 . S
C2753 H2745 0.950 . S
C2753 C2751 1.327 . S
C2754 C2742 1.349 . S
C2754 H2748 0.950 . S
C2754 C2755 1.327 . S
C2755 H2749 0.950 . S
C2755 C2754 1.327 . S
C2755 C2759 1.429 . S
C2756 C2739 1.574 . S
C2756 H2750 0.949 . S
C2756 C2760 1.368 . S
C2757 C2738 1.429 . S
C2757 C2751 1.429 . S
C2757 C2758 1.523 . S
C2758 C2739 1.368 . S
C2758 C2752 1.368 . S
C2758 C2757 1.523 . S
C2759 C2743 1.429 . S
C2759 C2755 1.429 . S
C2759 C2760 1.523 . S
C2760 C2744 1.368 . S
C2760 C2756 1.368 . S
C2760 C2759 1.523 . S
H2761 C2736 0.950 . S
H2762 C2738 0.950 . S
H2763 C2739 0.949 . S
H2764 C2741 0.950 . S
H2765 C2743 0.950 . S
C2766 C2767 1.349 . S
C2766 C2768 1.327 . S
C2766 H2791 0.950 . S
C2767 C2766 1.349 . S
C2767 C2783 1.349 . S
C2768 C2766 1.327 . S
C2768 C2787 1.429 . S
C2768 H2792 0.950 . S
C2769 C2786 1.574 . S
C2769 C2788 1.368 . S
C2769 H2793 0.949 . S
H2770 C2774 0.949 . S
C2771 C2772 1.349 . S
C2771 C2773 1.327 . S
C2771 H2794 0.950 . S
C2772 C2771 1.349 . S
C2772 C2784 1.349 . S
C2773 C2771 1.327 . S
C2773 C2789 1.429 . S
C2773 H2795 0.950 . S
C2774 H2770 0.949 . S
C2774 C2782 1.574 . S
C2774 C2790 1.368 . S
H2775 C2783 0.950 . S
H2776 C2781 0.950 . S
H2777 C2782 0.949 . S
H2778 C2784 0.950 . S
H2779 C2785 0.950 . S
H2780 C2786 0.949 . S
C2781 H2776 0.950 . S
C2781 C2783 1.327 . S
C2781 C2787 1.429 . S
C2782 C2774 1.574 . S
C2782 H2777 0.949 . S
C2782 C2788 1.368 . S
C2783 C2767 1.349 . S
C2783 H2775 0.950 . S
C2783 C2781 1.327 . S
C2784 C2772 1.349 . S
C2784 H2778 0.950 . S
C2784 C2785 1.327 . S
C2785 H2779 0.950 . S
C2785 C2784 1.327 . S
C2785 C2789 1.429 . S
C2786 C2769 1.574 . S
C2786 H2780 0.949 . S
C2786 C2790 1.368 . S
C2787 C2768 1.429 . S
C2787 C2781 1.429 . S
C2787 C2788 1.523 . S
C2788 C2769 1.368 . S
C2788 C2782 1.368 . S
C2788 C2787 1.523 . S
C2789 C2773 1.429 . S
C2789 C2785 1.429 . S
C2789 C2790 1.523 . S
C2790 C2774 1.368 . S
C2790 C2786 1.368 . S
C2790 C2789 1.523 . S
H2791 C2766 0.950 . S
H2792 C2768 0.950 . S
H2793 C2769 0.949 . S
H2794 C2771 0.950 . S
H2795 C2773 0.950 . S
C2796 C2797 1.349 . S
C2796 C2798 1.327 . S
C2796 H2821 0.950 . S
C2797 C2796 1.349 . S
C2797 C2813 1.349 . S
C2798 C2796 1.327 . S
C2798 C2817 1.429 . S
C2798 H2822 0.950 . S
C2799 C2816 1.574 . S
C2799 C2818 1.368 . S
C2799 H2823 0.949 . S
H2800 C2804 0.949 . S
C2801 C2802 1.349 . S
C2801 C2803 1.327 . S
C2801 H2824 0.950 . S
C2802 C2801 1.349 . S
C2802 C2814 1.349 . S
C2803 C2801 1.327 . S
C2803 C2819 1.429 . S
C2803 H2825 0.950 . S
C2804 H2800 0.949 . S
C2804 C2812 1.574 . S
C2804 C2820 1.368 . S
H2805 C2813 0.950 . S
H2806 C2811 0.950 . S
H2807 C2812 0.949 . S
H2808 C2814 0.950 . S
H2809 C2815 0.950 . S
H2810 C2816 0.949 . S
C2811 H2806 0.950 . S
C2811 C2813 1.327 . S
C2811 C2817 1.429 . S
C2812 C2804 1.574 . S
C2812 H2807 0.949 . S
C2812 C2818 1.368 . S
C2813 C2797 1.349 . S
C2813 H2805 0.950 . S
C2813 C2811 1.327 . S
C2814 C2802 1.349 . S
C2814 H2808 0.950 . S
C2814 C2815 1.327 . S
C2815 H2809 0.950 . S
C2815 C2814 1.327 . S
C2815 C2819 1.429 . S
C2816 C2799 1.574 . S
C2816 H2810 0.949 . S
C2816 C2820 1.368 . S
C2817 C2798 1.429 . S
C2817 C2811 1.429 . S
C2817 C2818 1.523 . S
C2818 C2799 1.368 . S
C2818 C2812 1.368 . S
C2818 C2817 1.523 . S
C2819 C2803 1.429 . S
C2819 C2815 1.429 . S
C2819 C2820 1.523 . S
C2820 C2804 1.368 . S
C2820 C2816 1.368 . S
C2820 C2819 1.523 . S
H2821 C2796 0.950 . S
H2822 C2798 0.950 . S
H2823 C2799 0.949 . S
H2824 C2801 0.950 . S
H2825 C2803 0.950 . S
C2826 C2827 1.349 . S
C2826 C2828 1.327 . S
C2826 H2851 0.950 . S
C2827 C2826 1.349 . S
C2827 C2843 1.349 . S
C2828 C2826 1.327 . S
C2828 C2847 1.429 . S
C2828 H2852 0.950 . S
C2829 C2846 1.574 . S
C2829 C2848 1.368 . S
C2829 H2853 0.949 . S
H2830 C2834 0.949 . S
C2831 C2832 1.349 . S
C2831 C2833 1.327 . S
C2831 H2854 0.950 . S
C2832 C2831 1.349 . S
C2832 C2844 1.349 . S
C2833 C2831 1.327 . S
C2833 C2849 1.429 . S
C2833 H2855 0.950 . S
C2834 H2830 0.949 . S
C2834 C2842 1.574 . S
C2834 C2850 1.368 . S
H2835 C2843 0.950 . S
H2836 C2841 0.950 . S
H2837 C2842 0.949 . S
H2838 C2844 0.950 . S
H2839 C2845 0.950 . S
H2840 C2846 0.949 . S
C2841 H2836 0.950 . S
C2841 C2843 1.327 . S
C2841 C2847 1.429 . S
C2842 C2834 1.574 . S
C2842 H2837 0.949 . S
C2842 C2848 1.368 . S
C2843 C2827 1.349 . S
C2843 H2835 0.950 . S
C2843 C2841 1.327 . S
C2844 C2832 1.349 . S
C2844 H2838 0.950 . S
C2844 C2845 1.327 . S
C2845 H2839 0.950 . S
C2845 C2844 1.327 . S
C2845 C2849 1.429 . S
C2846 C2829 1.574 . S
C2846 H2840 0.949 . S
C2846 C2850 1.368 . S
C2847 C2828 1.429 . S
C2847 C2841 1.429 . S
C2847 C2848 1.523 . S
C2848 C2829 1.368 . S
C2848 C2842 1.368 . S
C2848 C2847 1.523 . S
C2849 C2833 1.429 . S
C2849 C2845 1.429 . S
C2849 C2850 1.523 . S
C2850 C2834 1.368 . S
C2850 C2846 1.368 . S
C2850 C2849 1.523 . S
H2851 C2826 0.950 . S
H2852 C2828 0.950 . S
H2853 C2829 0.949 . S
H2854 C2831 0.950 . S
H2855 C2833 0.950 . S
C2856 C2857 1.349 . S
C2856 C2858 1.327 . S
C2856 H2881 0.950 . S
C2857 C2856 1.349 . S
C2857 C2873 1.349 . S
C2858 C2856 1.327 . S
C2858 C2877 1.429 . S
C2858 H2882 0.950 . S
C2859 C2876 1.574 . S
C2859 C2878 1.368 . S
C2859 H2883 0.949 . S
H2860 C2864 0.949 . S
C2861 C2862 1.349 . S
C2861 C2863 1.327 . S
C2861 H2884 0.950 . S
C2862 C2861 1.349 . S
C2862 C2874 1.349 . S
C2863 C2861 1.327 . S
C2863 C2879 1.429 . S
C2863 H2885 0.950 . S
C2864 H2860 0.949 . S
C2864 C2872 1.574 . S
C2864 C2880 1.368 . S
H2865 C2873 0.950 . S
H2866 C2871 0.950 . S
H2867 C2872 0.949 . S
H2868 C2874 0.950 . S
H2869 C2875 0.950 . S
H2870 C2876 0.949 . S
C2871 H2866 0.950 . S
C2871 C2873 1.327 . S
C2871 C2877 1.429 . S
C2872 C2864 1.574 . S
C2872 H2867 0.949 . S
C2872 C2878 1.368 . S
C2873 C2857 1.349 . S
C2873 H2865 0.950 . S
C2873 C2871 1.327 . S
C2874 C2862 1.349 . S
C2874 H2868 0.950 . S
C2874 C2875 1.327 . S
C2875 H2869 0.950 . S
C2875 C2874 1.327 . S
C2875 C2879 1.429 . S
C2876 C2859 1.574 . S
C2876 H2870 0.949 . S
C2876 C2880 1.368 . S
C2877 C2858 1.429 . S
C2877 C2871 1.429 . S
C2877 C2878 1.523 . S
C2878 C2859 1.368 . S
C2878 C2872 1.368 . S
C2878 C2877 1.523 . S
C2879 C2863 1.429 . S
C2879 C2875 1.429 . S
C2879 C2880 1.523 . S
C2880 C2864 1.368 . S
C2880 C2876 1.368 . S
C2880 C2879 1.523 . S
H2881 C2856 0.950 . S
H2882 C2858 0.950 . S
H2883 C2859 0.949 . S
H2884 C2861 0.950 . S
H2885 C2863 0.950 . S
C2886 C2887 1.349 . S
C2886 C2888 1.327 . S
C2886 H2911 0.950 . S
C2887 C2886 1.349 . S
C2887 C2903 1.349 . S
C2888 C2886 1.327 . S
C2888 C2907 1.429 . S
C2888 H2912 0.950 . S
C2889 C2906 1.574 . S
C2889 C2908 1.368 . S
C2889 H2913 0.949 . S
H2890 C2894 0.949 . S
C2891 C2892 1.349 . S
C2891 C2893 1.327 . S
C2891 H2914 0.950 . S
C2892 C2891 1.349 . S
C2892 C2904 1.349 . S
C2893 C2891 1.327 . S
C2893 C2909 1.429 . S
C2893 H2915 0.950 . S
C2894 H2890 0.949 . S
C2894 C2902 1.574 . S
C2894 C2910 1.368 . S
H2895 C2903 0.950 . S
H2896 C2901 0.950 . S
H2897 C2902 0.949 . S
H2898 C2904 0.950 . S
H2899 C2905 0.950 . S
H2900 C2906 0.949 . S
C2901 H2896 0.950 . S
C2901 C2903 1.327 . S
C2901 C2907 1.429 . S
C2902 C2894 1.574 . S
C2902 H2897 0.949 . S
C2902 C2908 1.368 . S
C2903 C2887 1.349 . S
C2903 H2895 0.950 . S
C2903 C2901 1.327 . S
C2904 C2892 1.349 . S
C2904 H2898 0.950 . S
C2904 C2905 1.327 . S
C2905 H2899 0.950 . S
C2905 C2904 1.327 . S
C2905 C2909 1.429 . S
C2906 C2889 1.574 . S
C2906 H2900 0.949 . S
C2906 C2910 1.368 . S
C2907 C2888 1.429 . S
C2907 C2901 1.429 . S
C2907 C2908 1.523 . S
C2908 C2889 1.368 . S
C2908 C2902 1.368 . S
C2908 C2907 1.523 . S
C2909 C2893 1.429 . S
C2909 C2905 1.429 . S
C2909 C2910 1.523 . S
C2910 C2894 1.368 . S
C2910 C2906 1.368 . S
C2910 C2909 1.523 . S
H2911 C2886 0.950 . S
H2912 C2888 0.950 . S
H2913 C2889 0.949 . S
H2914 C2891 0.950 . S
H2915 C2893 0.950 . S
C2916 C2917 1.349 . S
C2916 C2918 1.327 . S
C2916 H2941 0.950 . S
C2917 C2916 1.349 . S
C2917 C2933 1.349 . S
C2918 C2916 1.327 . S
C2918 C2937 1.429 . S
C2918 H2942 0.950 . S
C2919 C2936 1.574 . S
C2919 C2938 1.368 . S
C2919 H2943 0.949 . S
H2920 C2924 0.949 . S
C2921 C2922 1.349 . S
C2921 C2923 1.327 . S
C2921 H2944 0.950 . S
C2922 C2921 1.349 . S
C2922 C2934 1.349 . S
C2923 C2921 1.327 . S
C2923 C2939 1.429 . S
C2923 H2945 0.950 . S
C2924 H2920 0.949 . S
C2924 C2932 1.574 . S
C2924 C2940 1.368 . S
H2925 C2933 0.950 . S
H2926 C2931 0.950 . S
H2927 C2932 0.949 . S
H2928 C2934 0.950 . S
H2929 C2935 0.950 . S
H2930 C2936 0.949 . S
C2931 H2926 0.950 . S
C2931 C2933 1.327 . S
C2931 C2937 1.429 . S
C2932 C2924 1.574 . S
C2932 H2927 0.949 . S
C2932 C2938 1.368 . S
C2933 C2917 1.349 . S
C2933 H2925 0.950 . S
C2933 C2931 1.327 . S
C2934 C2922 1.349 . S
C2934 H2928 0.950 . S
C2934 C2935 1.327 . S
C2935 H2929 0.950 . S
C2935 C2934 1.327 . S
C2935 C2939 1.429 . S
C2936 C2919 1.574 . S
C2936 H2930 0.949 . S
C2936 C2940 1.368 . S
C2937 C2918 1.429 . S
C2937 C2931 1.429 . S
C2937 C2938 1.523 . S
C2938 C2919 1.368 . S
C2938 C2932 1.368 . S
C2938 C2937 1.523 . S
C2939 C2923 1.429 . S
C2939 C2935 1.429 . S
C2939 C2940 1.523 . S
C2940 C2924 1.368 . S
C2940 C2936 1.368 . S
C2940 C2939 1.523 . S
H2941 C2916 0.950 . S
H2942 C2918 0.950 . S
H2943 C2919 0.949 . S
H2944 C2921 0.950 . S
H2945 C2923 0.950 . S
C2946 C2947 1.349 . S
C2946 C2948 1.327 . S
C2946 H2971 0.950 . S
C2947 C2946 1.349 . S
C2947 C2963 1.349 . S
C2948 C2946 1.327 . S
C2948 C2967 1.429 . S
C2948 H2972 0.950 . S
C2949 C2966 1.574 . S
C2949 C2968 1.368 . S
C2949 H2973 0.949 . S
H2950 C2954 0.949 . S
C2951 C2952 1.349 . S
C2951 C2953 1.327 . S
C2951 H2974 0.950 . S
C2952 C2951 1.349 . S
C2952 C2964 1.349 . S
C2953 C2951 1.327 . S
C2953 C2969 1.429 . S
C2953 H2975 0.950 . S
C2954 H2950 0.949 . S
C2954 C2962 1.574 . S
C2954 C2970 1.368 . S
H2955 C2963 0.950 . S
H2956 C2961 0.950 . S
H2957 C2962 0.949 . S
H2958 C2964 0.950 . S
H2959 C2965 0.950 . S
H2960 C2966 0.949 . S
C2961 H2956 0.950 . S
C2961 C2963 1.327 . S
C2961 C2967 1.429 . S
C2962 C2954 1.574 . S
C2962 H2957 0.949 . S
C2962 C2968 1.368 . S
C2963 C2947 1.349 . S
C2963 H2955 0.950 . S
C2963 C2961 1.327 . S
C2964 C2952 1.349 . S
C2964 H2958 0.950 . S
C2964 C2965 1.327 . S
C2965 H2959 0.950 . S
C2965 C2964 1.327 . S
C2965 C2969 1.429 . S
C2966 C2949 1.574 . S
C2966 H2960 0.949 . S
C2966 C2970 1.368 . S
C2967 C2948 1.429 . S
C2967 C2961 1.429 . S
C2967 C2968 1.523 . S
C2968 C2949 1.368 . S
C2968 C2962 1.368 . S
C2968 C2967 1.523 . S
C2969 C2953 1.429 . S
C2969 C2965 1.429 . S
C2969 C2970 1.523 . S
C2970 C2954 1.368 . S
C2970 C2966 1.368 . S
C2970 C2969 1.523 . S
H2971 C2946 0.950 . S
H2972 C2948 0.950 . S
H2973 C2949 0.949 . S
H2974 C2951 0.950 . S
H2975 C2953 0.950 . S
C2976 C2977 1.349 . S
C2976 C2978 1.327 . S
C2976 H3001 0.950 . S
C2977 C2976 1.349 . S
C2977 C2993 1.349 . S
C2978 C2976 1.327 . S
C2978 C2997 1.429 . S
C2978 H3002 0.950 . S
C2979 C2996 1.574 . S
C2979 C2998 1.368 . S
C2979 H3003 0.949 . S
H2980 C2984 0.949 . S
C2981 C2982 1.349 . S
C2981 C2983 1.327 . S
C2981 H3004 0.950 . S
C2982 C2981 1.349 . S
C2982 C2994 1.349 . S
C2983 C2981 1.327 . S
C2983 C2999 1.429 . S
C2983 H3005 0.950 . S
C2984 H2980 0.949 . S
C2984 C2992 1.574 . S
C2984 C3000 1.368 . S
H2985 C2993 0.950 . S
H2986 C2991 0.950 . S
H2987 C2992 0.949 . S
H2988 C2994 0.950 . S
H2989 C2995 0.950 . S
H2990 C2996 0.949 . S
C2991 H2986 0.950 . S
C2991 C2993 1.327 . S
C2991 C2997 1.429 . S
C2992 C2984 1.574 . S
C2992 H2987 0.949 . S
C2992 C2998 1.368 . S
C2993 C2977 1.349 . S
C2993 H2985 0.950 . S
C2993 C2991 1.327 . S
C2994 C2982 1.349 . S
C2994 H2988 0.950 . S
C2994 C2995 1.327 . S
C2995 H2989 0.950 . S
C2995 C2994 1.327 . S
C2995 C2999 1.429 . S
C2996 C2979 1.574 . S
C2996 H2990 0.949 . S
C2996 C3000 1.368 . S
C2997 C2978 1.429 . S
C2997 C2991 1.429 . S
C2997 C2998 1.523 . S
C2998 C2979 1.368 . S
C2998 C2992 1.368 . S
C2998 C2997 1.523 . S
C2999 C2983 1.429 . S
C2999 C2995 1.429 . S
C2999 C3000 1.523 . S
C3000 C2984 1.368 . S
C3000 C2996 1.368 . S
C3000 C2999 1.523 . S
H3001 C2976 0.950 . S
H3002 C2978 0.950 . S
H3003 C2979 0.949 . S
H3004 C2981 0.950 . S
H3005 C2983 0.950 . S
C3006 C3007 1.349 . S
C3006 C3008 1.327 . S
C3006 H3031 0.950 . S
C3007 C3006 1.349 . S
C3007 C3023 1.349 . S
C3008 C3006 1.327 . S
C3008 C3027 1.429 . S
C3008 H3032 0.950 . S
C3009 C3026 1.574 . S
C3009 C3028 1.368 . S
C3009 H3033 0.949 . S
H3010 C3014 0.949 . S
C3011 C3012 1.349 . S
C3011 C3013 1.327 . S
C3011 H3034 0.950 . S
C3012 C3011 1.349 . S
C3012 C3024 1.349 . S
C3013 C3011 1.327 . S
C3013 C3029 1.429 . S
C3013 H3035 0.950 . S
C3014 H3010 0.949 . S
C3014 C3022 1.574 . S
C3014 C3030 1.368 . S
H3015 C3023 0.950 . S
H3016 C3021 0.950 . S
H3017 C3022 0.949 . S
H3018 C3024 0.950 . S
H3019 C3025 0.950 . S
H3020 C3026 0.949 . S
C3021 H3016 0.950 . S
C3021 C3023 1.327 . S
C3021 C3027 1.429 . S
C3022 C3014 1.574 . S
C3022 H3017 0.949 . S
C3022 C3028 1.368 . S
C3023 C3007 1.349 . S
C3023 H3015 0.950 . S
C3023 C3021 1.327 . S
C3024 C3012 1.349 . S
C3024 H3018 0.950 . S
C3024 C3025 1.327 . S
C3025 H3019 0.950 . S
C3025 C3024 1.327 . S
C3025 C3029 1.429 . S
C3026 C3009 1.574 . S
C3026 H3020 0.949 . S
C3026 C3030 1.368 . S
C3027 C3008 1.429 . S
C3027 C3021 1.429 . S
C3027 C3028 1.523 . S
C3028 C3009 1.368 . S
C3028 C3022 1.368 . S
C3028 C3027 1.523 . S
C3029 C3013 1.429 . S
C3029 C3025 1.429 . S
C3029 C3030 1.523 . S
C3030 C3014 1.368 . S
C3030 C3026 1.368 . S
C3030 C3029 1.523 . S
H3031 C3006 0.950 . S
H3032 C3008 0.950 . S
H3033 C3009 0.949 . S
H3034 C3011 0.950 . S
H3035 C3013 0.950 . S
C3036 C3037 1.349 . S
C3036 C3038 1.327 . S
C3036 H3061 0.950 . S
C3037 C3036 1.349 . S
C3037 C3053 1.349 . S
C3038 C3036 1.327 . S
C3038 C3057 1.429 . S
C3038 H3062 0.950 . S
C3039 C3056 1.574 . S
C3039 C3058 1.368 . S
C3039 H3063 0.949 . S
H3040 C3044 0.949 . S
C3041 C3042 1.349 . S
C3041 C3043 1.327 . S
C3041 H3064 0.950 . S
C3042 C3041 1.349 . S
C3042 C3054 1.349 . S
C3043 C3041 1.327 . S
C3043 C3059 1.429 . S
C3043 H3065 0.950 . S
C3044 H3040 0.949 . S
C3044 C3052 1.574 . S
C3044 C3060 1.368 . S
H3045 C3053 0.950 . S
H3046 C3051 0.950 . S
H3047 C3052 0.949 . S
H3048 C3054 0.950 . S
H3049 C3055 0.950 . S
H3050 C3056 0.949 . S
C3051 H3046 0.950 . S
C3051 C3053 1.327 . S
C3051 C3057 1.429 . S
C3052 C3044 1.574 . S
C3052 H3047 0.949 . S
C3052 C3058 1.368 . S
C3053 C3037 1.349 . S
C3053 H3045 0.950 . S
C3053 C3051 1.327 . S
C3054 C3042 1.349 . S
C3054 H3048 0.950 . S
C3054 C3055 1.327 . S
C3055 H3049 0.950 . S
C3055 C3054 1.327 . S
C3055 C3059 1.429 . S
C3056 C3039 1.574 . S
C3056 H3050 0.949 . S
C3056 C3060 1.368 . S
C3057 C3038 1.429 . S
C3057 C3051 1.429 . S
C3057 C3058 1.523 . S
C3058 C3039 1.368 . S
C3058 C3052 1.368 . S
C3058 C3057 1.523 . S
C3059 C3043 1.429 . S
C3059 C3055 1.429 . S
C3059 C3060 1.523 . S
C3060 C3044 1.368 . S
C3060 C3056 1.368 . S
C3060 C3059 1.523 . S
H3061 C3036 0.950 . S
H3062 C3038 0.950 . S
H3063 C3039 0.949 . S
H3064 C3041 0.950 . S
H3065 C3043 0.950 . S
C3066 C3067 1.349 . S
C3066 C3068 1.327 . S
C3066 H3091 0.950 . S
C3067 C3066 1.349 . S
C3067 C3083 1.349 . S
C3068 C3066 1.327 . S
C3068 C3087 1.429 . S
C3068 H3092 0.950 . S
C3069 C3086 1.574 . S
C3069 C3088 1.368 . S
C3069 H3093 0.949 . S
H3070 C3074 0.949 . S
C3071 C3072 1.349 . S
C3071 C3073 1.327 . S
C3071 H3094 0.950 . S
C3072 C3071 1.349 . S
C3072 C3084 1.349 . S
C3073 C3071 1.327 . S
C3073 C3089 1.429 . S
C3073 H3095 0.950 . S
C3074 H3070 0.949 . S
C3074 C3082 1.574 . S
C3074 C3090 1.368 . S
H3075 C3083 0.950 . S
H3076 C3081 0.950 . S
H3077 C3082 0.949 . S
H3078 C3084 0.950 . S
H3079 C3085 0.950 . S
H3080 C3086 0.949 . S
C3081 H3076 0.950 . S
C3081 C3083 1.327 . S
C3081 C3087 1.429 . S
C3082 C3074 1.574 . S
C3082 H3077 0.949 . S
C3082 C3088 1.368 . S
C3083 C3067 1.349 . S
C3083 H3075 0.950 . S
C3083 C3081 1.327 . S
C3084 C3072 1.349 . S
C3084 H3078 0.950 . S
C3084 C3085 1.327 . S
C3085 H3079 0.950 . S
C3085 C3084 1.327 . S
C3085 C3089 1.429 . S
C3086 C3069 1.574 . S
C3086 H3080 0.949 . S
C3086 C3090 1.368 . S
C3087 C3068 1.429 . S
C3087 C3081 1.429 . S
C3087 C3088 1.523 . S
C3088 C3069 1.368 . S
C3088 C3082 1.368 . S
C3088 C3087 1.523 . S
C3089 C3073 1.429 . S
C3089 C3085 1.429 . S
C3089 C3090 1.523 . S
C3090 C3074 1.368 . S
C3090 C3086 1.368 . S
C3090 C3089 1.523 . S
H3091 C3066 0.950 . S
H3092 C3068 0.950 . S
H3093 C3069 0.949 . S
H3094 C3071 0.950 . S
H3095 C3073 0.950 . S
C3096 C3097 1.349 . S
C3096 C3098 1.327 . S
C3096 H3121 0.950 . S
C3097 C3096 1.349 . S
C3097 C3113 1.349 . S
C3098 C3096 1.327 . S
C3098 C3117 1.429 . S
C3098 H3122 0.950 . S
C3099 C3116 1.574 . S
C3099 C3118 1.368 . S
C3099 H3123 0.949 . S
H3100 C3104 0.949 . S
C3101 C3102 1.349 . S
C3101 C3103 1.327 . S
C3101 H3124 0.950 . S
C3102 C3101 1.349 . S
C3102 C3114 1.349 . S
C3103 C3101 1.327 . S
C3103 C3119 1.429 . S
C3103 H3125 0.950 . S
C3104 H3100 0.949 . S
C3104 C3112 1.574 . S
C3104 C3120 1.368 . S
H3105 C3113 0.950 . S
H3106 C3111 0.950 . S
H3107 C3112 0.949 . S
H3108 C3114 0.950 . S
H3109 C3115 0.950 . S
H3110 C3116 0.949 . S
C3111 H3106 0.950 . S
C3111 C3113 1.327 . S
C3111 C3117 1.429 . S
C3112 C3104 1.574 . S
C3112 H3107 0.949 . S
C3112 C3118 1.368 . S
C3113 C3097 1.349 . S
C3113 H3105 0.950 . S
C3113 C3111 1.327 . S
C3114 C3102 1.349 . S
C3114 H3108 0.950 . S
C3114 C3115 1.327 . S
C3115 H3109 0.950 . S
C3115 C3114 1.327 . S
C3115 C3119 1.429 . S
C3116 C3099 1.574 . S
C3116 H3110 0.949 . S
C3116 C3120 1.368 . S
C3117 C3098 1.429 . S
C3117 C3111 1.429 . S
C3117 C3118 1.523 . S
C3118 C3099 1.368 . S
C3118 C3112 1.368 . S
C3118 C3117 1.523 . S
C3119 C3103 1.429 . S
C3119 C3115 1.429 . S
C3119 C3120 1.523 . S
C3120 C3104 1.368 . S
C3120 C3116 1.368 . S
C3120 C3119 1.523 . S
H3121 C3096 0.950 . S
H3122 C3098 0.950 . S
H3123 C3099 0.949 . S
H3124 C3101 0.950 . S
H3125 C3103 0.950 . S
C3126 C3127 1.349 . S
C3126 C3128 1.327 . S
C3126 H3151 0.950 . S
C3127 C3126 1.349 . S
C3127 C3143 1.349 . S
C3128 C3126 1.327 . S
C3128 C3147 1.429 . S
C3128 H3152 0.950 . S
C3129 C3146 1.574 . S
C3129 C3148 1.368 . S
C3129 H3153 0.949 . S
H3130 C3134 0.949 . S
C3131 C3132 1.349 . S
C3131 C3133 1.327 . S
C3131 H3154 0.950 . S
C3132 C3131 1.349 . S
C3132 C3144 1.349 . S
C3133 C3131 1.327 . S
C3133 C3149 1.429 . S
C3133 H3155 0.950 . S
C3134 H3130 0.949 . S
C3134 C3142 1.574 . S
C3134 C3150 1.368 . S
H3135 C3143 0.950 . S
H3136 C3141 0.950 . S
H3137 C3142 0.949 . S
H3138 C3144 0.950 . S
H3139 C3145 0.950 . S
H3140 C3146 0.949 . S
C3141 H3136 0.950 . S
C3141 C3143 1.327 . S
C3141 C3147 1.429 . S
C3142 C3134 1.574 . S
C3142 H3137 0.949 . S
C3142 C3148 1.368 . S
C3143 C3127 1.349 . S
C3143 H3135 0.950 . S
C3143 C3141 1.327 . S
C3144 C3132 1.349 . S
C3144 H3138 0.950 . S
C3144 C3145 1.327 . S
C3145 H3139 0.950 . S
C3145 C3144 1.327 . S
C3145 C3149 1.429 . S
C3146 C3129 1.574 . S
C3146 H3140 0.949 . S
C3146 C3150 1.368 . S
C3147 C3128 1.429 . S
C3147 C3141 1.429 . S
C3147 C3148 1.523 . S
C3148 C3129 1.368 . S
C3148 C3142 1.368 . S
C3148 C3147 1.523 . S
C3149 C3133 1.429 . S
C3149 C3145 1.429 . S
C3149 C3150 1.523 . S
C3150 C3134 1.368 . S
C3150 C3146 1.368 . S
C3150 C3149 1.523 . S
H3151 C3126 0.950 . S
H3152 C3128 0.950 . S
H3153 C3129 0.949 . S
H3154 C3131 0.950 . S
H3155 C3133 0.950 . S
C3156 C3157 1.349 . S
C3156 C3158 1.327 . S
C3156 H3181 0.950 . S
C3157 C3156 1.349 . S
C3157 C3173 1.349 . S
C3158 C3156 1.327 . S
C3158 C3177 1.429 . S
C3158 H3182 0.950 . S
C3159 C3176 1.574 . S
C3159 C3178 1.368 . S
C3159 H3183 0.949 . S
H3160 C3164 0.949 . S
C3161 C3162 1.349 . S
C3161 C3163 1.327 . S
C3161 H3184 0.950 . S
C3162 C3161 1.349 . S
C3162 C3174 1.349 . S
C3163 C3161 1.327 . S
C3163 C3179 1.429 . S
C3163 H3185 0.950 . S
C3164 H3160 0.949 . S
C3164 C3172 1.574 . S
C3164 C3180 1.368 . S
H3165 C3173 0.950 . S
H3166 C3171 0.950 . S
H3167 C3172 0.949 . S
H3168 C3174 0.950 . S
H3169 C3175 0.950 . S
H3170 C3176 0.949 . S
C3171 H3166 0.950 . S
C3171 C3173 1.327 . S
C3171 C3177 1.429 . S
C3172 C3164 1.574 . S
C3172 H3167 0.949 . S
C3172 C3178 1.368 . S
C3173 C3157 1.349 . S
C3173 H3165 0.950 . S
C3173 C3171 1.327 . S
C3174 C3162 1.349 . S
C3174 H3168 0.950 . S
C3174 C3175 1.327 . S
C3175 H3169 0.950 . S
C3175 C3174 1.327 . S
C3175 C3179 1.429 . S
C3176 C3159 1.574 . S
C3176 H3170 0.949 . S
C3176 C3180 1.368 . S
C3177 C3158 1.429 . S
C3177 C3171 1.429 . S
C3177 C3178 1.523 . S
C3178 C3159 1.368 . S
C3178 C3172 1.368 . S
C3178 C3177 1.523 . S
C3179 C3163 1.429 . S
C3179 C3175 1.429 . S
C3179 C3180 1.523 . S
C3180 C3164 1.368 . S
C3180 C3176 1.368 . S
C3180 C3179 1.523 . S
H3181 C3156 0.950 . S
H3182 C3158 0.950 . S
H3183 C3159 0.949 . S
H3184 C3161 0.950 . S
H3185 C3163 0.950 . S
C3186 C3187 1.349 . S
C3186 C3188 1.327 . S
C3186 H3211 0.950 . S
C3187 C3186 1.349 . S
C3187 C3203 1.349 . S
C3188 C3186 1.327 . S
C3188 C3207 1.429 . S
C3188 H3212 0.950 . S
C3189 C3206 1.574 . S
C3189 C3208 1.368 . S
C3189 H3213 0.949 . S
H3190 C3194 0.949 . S
C3191 C3192 1.349 . S
C3191 C3193 1.327 . S
C3191 H3214 0.950 . S
C3192 C3191 1.349 . S
C3192 C3204 1.349 . S
C3193 C3191 1.327 . S
C3193 C3209 1.429 . S
C3193 H3215 0.950 . S
C3194 H3190 0.949 . S
C3194 C3202 1.574 . S
C3194 C3210 1.368 . S
H3195 C3203 0.950 . S
H3196 C3201 0.950 . S
H3197 C3202 0.949 . S
H3198 C3204 0.950 . S
H3199 C3205 0.950 . S
H3200 C3206 0.949 . S
C3201 H3196 0.950 . S
C3201 C3203 1.327 . S
C3201 C3207 1.429 . S
C3202 C3194 1.574 . S
C3202 H3197 0.949 . S
C3202 C3208 1.368 . S
C3203 C3187 1.349 . S
C3203 H3195 0.950 . S
C3203 C3201 1.327 . S
C3204 C3192 1.349 . S
C3204 H3198 0.950 . S
C3204 C3205 1.327 . S
C3205 H3199 0.950 . S
C3205 C3204 1.327 . S
C3205 C3209 1.429 . S
C3206 C3189 1.574 . S
C3206 H3200 0.949 . S
C3206 C3210 1.368 . S
C3207 C3188 1.429 . S
C3207 C3201 1.429 . S
C3207 C3208 1.523 . S
C3208 C3189 1.368 . S
C3208 C3202 1.368 . S
C3208 C3207 1.523 . S
C3209 C3193 1.429 . S
C3209 C3205 1.429 . S
C3209 C3210 1.523 . S
C3210 C3194 1.368 . S
C3210 C3206 1.368 . S
C3210 C3209 1.523 . S
H3211 C3186 0.950 . S
H3212 C3188 0.950 . S
H3213 C3189 0.949 . S
H3214 C3191 0.950 . S
H3215 C3193 0.950 . S
C3216 C3217 1.349 . S
C3216 C3218 1.327 . S
C3216 H3241 0.950 . S
C3217 C3216 1.349 . S
C3217 C3233 1.349 . S
C3218 C3216 1.327 . S
C3218 C3237 1.429 . S
C3218 H3242 0.950 . S
C3219 C3236 1.574 . S
C3219 C3238 1.368 . S
C3219 H3243 0.949 . S
H3220 C3224 0.949 . S
C3221 C3222 1.349 . S
C3221 C3223 1.327 . S
C3221 H3244 0.950 . S
C3222 C3221 1.349 . S
C3222 C3234 1.349 . S
C3223 C3221 1.327 . S
C3223 C3239 1.429 . S
C3223 H3245 0.950 . S
C3224 H3220 0.949 . S
C3224 C3232 1.574 . S
C3224 C3240 1.368 . S
H3225 C3233 0.950 . S
H3226 C3231 0.950 . S
H3227 C3232 0.949 . S
H3228 C3234 0.950 . S
H3229 C3235 0.950 . S
H3230 C3236 0.949 . S
C3231 H3226 0.950 . S
C3231 C3233 1.327 . S
C3231 C3237 1.429 . S
C3232 C3224 1.574 . S
C3232 H3227 0.949 . S
C3232 C3238 1.368 . S
C3233 C3217 1.349 . S
C3233 H3225 0.950 . S
C3233 C3231 1.327 . S
C3234 C3222 1.349 . S
C3234 H3228 0.950 . S
C3234 C3235 1.327 . S
C3235 H3229 0.950 . S
C3235 C3234 1.327 . S
C3235 C3239 1.429 . S
C3236 C3219 1.574 . S
C3236 H3230 0.949 . S
C3236 C3240 1.368 . S
C3237 C3218 1.429 . S
C3237 C3231 1.429 . S
C3237 C3238 1.523 . S
C3238 C3219 1.368 . S
C3238 C3232 1.368 . S
C3238 C3237 1.523 . S
C3239 C3223 1.429 . S
C3239 C3235 1.429 . S
C3239 C3240 1.523 . S
C3240 C3224 1.368 . S
C3240 C3236 1.368 . S
C3240 C3239 1.523 . S
H3241 C3216 0.950 . S
H3242 C3218 0.950 . S
H3243 C3219 0.949 . S
H3244 C3221 0.950 . S
H3245 C3223 0.950 . S
C3246 C3247 1.349 . S
C3246 C3248 1.327 . S
C3246 H3271 0.950 . S
C3247 C3246 1.349 . S
C3247 C3263 1.349 . S
C3248 C3246 1.327 . S
C3248 C3267 1.429 . S
C3248 H3272 0.950 . S
C3249 C3266 1.574 . S
C3249 C3268 1.368 . S
C3249 H3273 0.949 . S
H3250 C3254 0.949 . S
C3251 C3252 1.349 . S
C3251 C3253 1.327 . S
C3251 H3274 0.950 . S
C3252 C3251 1.349 . S
C3252 C3264 1.349 . S
C3253 C3251 1.327 . S
C3253 C3269 1.429 . S
C3253 H3275 0.950 . S
C3254 H3250 0.949 . S
C3254 C3262 1.574 . S
C3254 C3270 1.368 . S
H3255 C3263 0.950 . S
H3256 C3261 0.950 . S
H3257 C3262 0.949 . S
H3258 C3264 0.950 . S
H3259 C3265 0.950 . S
H3260 C3266 0.949 . S
C3261 H3256 0.950 . S
C3261 C3263 1.327 . S
C3261 C3267 1.429 . S
C3262 C3254 1.574 . S
C3262 H3257 0.949 . S
C3262 C3268 1.368 . S
C3263 C3247 1.349 . S
C3263 H3255 0.950 . S
C3263 C3261 1.327 . S
C3264 C3252 1.349 . S
C3264 H3258 0.950 . S
C3264 C3265 1.327 . S
C3265 H3259 0.950 . S
C3265 C3264 1.327 . S
C3265 C3269 1.429 . S
C3266 C3249 1.574 . S
C3266 H3260 0.949 . S
C3266 C3270 1.368 . S
C3267 C3248 1.429 . S
C3267 C3261 1.429 . S
C3267 C3268 1.523 . S
C3268 C3249 1.368 . S
C3268 C3262 1.368 . S
C3268 C3267 1.523 . S
C3269 C3253 1.429 . S
C3269 C3265 1.429 . S
C3269 C3270 1.523 . S
C3270 C3254 1.368 . S
C3270 C3266 1.368 . S
C3270 C3269 1.523 . S
H3271 C3246 0.950 . S
H3272 C3248 0.950 . S
H3273 C3249 0.949 . S
H3274 C3251 0.950 . S
H3275 C3253 0.950 . S
C3276 C3277 1.349 . S
C3276 C3278 1.327 . S
C3276 H3301 0.950 . S
C3277 C3276 1.349 . S
C3277 C3293 1.349 . S
C3278 C3276 1.327 . S
C3278 C3297 1.429 . S
C3278 H3302 0.950 . S
C3279 C3296 1.574 . S
C3279 C3298 1.368 . S
C3279 H3303 0.949 . S
H3280 C3284 0.949 . S
C3281 C3282 1.349 . S
C3281 C3283 1.327 . S
C3281 H3304 0.950 . S
C3282 C3281 1.349 . S
C3282 C3294 1.349 . S
C3283 C3281 1.327 . S
C3283 C3299 1.429 . S
C3283 H3305 0.950 . S
C3284 H3280 0.949 . S
C3284 C3292 1.574 . S
C3284 C3300 1.368 . S
H3285 C3293 0.950 . S
H3286 C3291 0.950 . S
H3287 C3292 0.949 . S
H3288 C3294 0.950 . S
H3289 C3295 0.950 . S
H3290 C3296 0.949 . S
C3291 H3286 0.950 . S
C3291 C3293 1.327 . S
C3291 C3297 1.429 . S
C3292 C3284 1.574 . S
C3292 H3287 0.949 . S
C3292 C3298 1.368 . S
C3293 C3277 1.349 . S
C3293 H3285 0.950 . S
C3293 C3291 1.327 . S
C3294 C3282 1.349 . S
C3294 H3288 0.950 . S
C3294 C3295 1.327 . S
C3295 H3289 0.950 . S
C3295 C3294 1.327 . S
C3295 C3299 1.429 . S
C3296 C3279 1.574 . S
C3296 H3290 0.949 . S
C3296 C3300 1.368 . S
C3297 C3278 1.429 . S
C3297 C3291 1.429 . S
C3297 C3298 1.523 . S
C3298 C3279 1.368 . S
C3298 C3292 1.368 . S
C3298 C3297 1.523 . S
C3299 C3283 1.429 . S
C3299 C3295 1.429 . S
C3299 C3300 1.523 . S
C3300 C3284 1.368 . S
C3300 C3296 1.368 . S
C3300 C3299 1.523 . S
H3301 C3276 0.950 . S
H3302 C3278 0.950 . S
H3303 C3279 0.949 . S
H3304 C3281 0.950 . S
H3305 C3283 0.950 . S
C3306 C3307 1.349 . S
C3306 C3308 1.327 . S
C3306 H3331 0.950 . S
C3307 C3306 1.349 . S
C3307 C3323 1.349 . S
C3308 C3306 1.327 . S
C3308 C3327 1.429 . S
C3308 H3332 0.950 . S
C3309 C3326 1.574 . S
C3309 C3328 1.368 . S
C3309 H3333 0.949 . S
H3310 C3314 0.949 . S
C3311 C3312 1.349 . S
C3311 C3313 1.327 . S
C3311 H3334 0.950 . S
C3312 C3311 1.349 . S
C3312 C3324 1.349 . S
C3313 C3311 1.327 . S
C3313 C3329 1.429 . S
C3313 H3335 0.950 . S
C3314 H3310 0.949 . S
C3314 C3322 1.574 . S
C3314 C3330 1.368 . S
H3315 C3323 0.950 . S
H3316 C3321 0.950 . S
H3317 C3322 0.949 . S
H3318 C3324 0.950 . S
H3319 C3325 0.950 . S
H3320 C3326 0.949 . S
C3321 H3316 0.950 . S
C3321 C3323 1.327 . S
C3321 C3327 1.429 . S
C3322 C3314 1.574 . S
C3322 H3317 0.949 . S
C3322 C3328 1.368 . S
C3323 C3307 1.349 . S
C3323 H3315 0.950 . S
C3323 C3321 1.327 . S
C3324 C3312 1.349 . S
C3324 H3318 0.950 . S
C3324 C3325 1.327 . S
C3325 H3319 0.950 . S
C3325 C3324 1.327 . S
C3325 C3329 1.429 . S
C3326 C3309 1.574 . S
C3326 H3320 0.949 . S
C3326 C3330 1.368 . S
C3327 C3308 1.429 . S
C3327 C3321 1.429 . S
C3327 C3328 1.523 . S
C3328 C3309 1.368 . S
C3328 C3322 1.368 . S
C3328 C3327 1.523 . S
C3329 C3313 1.429 . S
C3329 C3325 1.429 . S
C3329 C3330 1.523 . S
C3330 C3314 1.368 . S
C3330 C3326 1.368 . S
C3330 C3329 1.523 . S
H3331 C3306 0.950 . S
H3332 C3308 0.950 . S
H3333 C3309 0.949 . S
H3334 C3311 0.950 . S
H3335 C3313 0.950 . S
C3336 C3337 1.349 . S
C3336 C3338 1.327 . S
C3336 H3361 0.950 . S
C3337 C3336 1.349 . S
C3337 C3353 1.349 . S
C3338 C3336 1.327 . S
C3338 C3357 1.429 . S
C3338 H3362 0.950 . S
C3339 C3356 1.574 . S
C3339 C3358 1.368 . S
C3339 H3363 0.949 . S
H3340 C3344 0.949 . S
C3341 C3342 1.349 . S
C3341 C3343 1.327 . S
C3341 H3364 0.950 . S
C3342 C3341 1.349 . S
C3342 C3354 1.349 . S
C3343 C3341 1.327 . S
C3343 C3359 1.429 . S
C3343 H3365 0.950 . S
C3344 H3340 0.949 . S
C3344 C3352 1.574 . S
C3344 C3360 1.368 . S
H3345 C3353 0.950 . S
H3346 C3351 0.950 . S
H3347 C3352 0.949 . S
H3348 C3354 0.950 . S
H3349 C3355 0.950 . S
H3350 C3356 0.949 . S
C3351 H3346 0.950 . S
C3351 C3353 1.327 . S
C3351 C3357 1.429 . S
C3352 C3344 1.574 . S
C3352 H3347 0.949 . S
C3352 C3358 1.368 . S
C3353 C3337 1.349 . S
C3353 H3345 0.950 . S
C3353 C3351 1.327 . S
C3354 C3342 1.349 . S
C3354 H3348 0.950 . S
C3354 C3355 1.327 . S
C3355 H3349 0.950 . S
C3355 C3354 1.327 . S
C3355 C3359 1.429 . S
C3356 C3339 1.574 . S
C3356 H3350 0.949 . S
C3356 C3360 1.368 . S
C3357 C3338 1.429 . S
C3357 C3351 1.429 . S
C3357 C3358 1.523 . S
C3358 C3339 1.368 . S
C3358 C3352 1.368 . S
C3358 C3357 1.523 . S
C3359 C3343 1.429 . S
C3359 C3355 1.429 . S
C3359 C3360 1.523 . S
C3360 C3344 1.368 . S
C3360 C3356 1.368 . S
C3360 C3359 1.523 . S
H3361 C3336 0.950 . S
H3362 C3338 0.950 . S
H3363 C3339 0.949 . S
H3364 C3341 0.950 . S
H3365 C3343 0.950 . S
C3366 C3367 1.349 . S
C3366 C3368 1.327 . S
C3366 H3391 0.950 . S
C3367 C3366 1.349 . S
C3367 C3383 1.349 . S
C3368 C3366 1.327 . S
C3368 C3387 1.429 . S
C3368 H3392 0.950 . S
C3369 C3386 1.574 . S
C3369 C3388 1.368 . S
C3369 H3393 0.949 . S
H3370 C3374 0.949 . S
C3371 C3372 1.349 . S
C3371 C3373 1.327 . S
C3371 H3394 0.950 . S
C3372 C3371 1.349 . S
C3372 C3384 1.349 . S
C3373 C3371 1.327 . S
C3373 C3389 1.429 . S
C3373 H3395 0.950 . S
C3374 H3370 0.949 . S
C3374 C3382 1.574 . S
C3374 C3390 1.368 . S
H3375 C3383 0.950 . S
H3376 C3381 0.950 . S
H3377 C3382 0.949 . S
H3378 C3384 0.950 . S
H3379 C3385 0.950 . S
H3380 C3386 0.949 . S
C3381 H3376 0.950 . S
C3381 C3383 1.327 . S
C3381 C3387 1.429 . S
C3382 C3374 1.574 . S
C3382 H3377 0.949 . S
C3382 C3388 1.368 . S
C3383 C3367 1.349 . S
C3383 H3375 0.950 . S
C3383 C3381 1.327 . S
C3384 C3372 1.349 . S
C3384 H3378 0.950 . S
C3384 C3385 1.327 . S
C3385 H3379 0.950 . S
C3385 C3384 1.327 . S
C3385 C3389 1.429 . S
C3386 C3369 1.574 . S
C3386 H3380 0.949 . S
C3386 C3390 1.368 . S
C3387 C3368 1.429 . S
C3387 C3381 1.429 . S
C3387 C3388 1.523 . S
C3388 C3369 1.368 . S
C3388 C3382 1.368 . S
C3388 C3387 1.523 . S
C3389 C3373 1.429 . S
C3389 C3385 1.429 . S
C3389 C3390 1.523 . S
C3390 C3374 1.368 . S
C3390 C3386 1.368 . S
C3390 C3389 1.523 . S
H3391 C3366 0.950 . S
H3392 C3368 0.950 . S
H3393 C3369 0.949 . S
H3394 C3371 0.950 . S
H3395 C3373 0.950 . S
C1242 C942 0.944 . S
C1237 C898 0.941 . S
C1267 C820 0.943 . S
C1272 C940 0.941 . S
C1302 C941 0.944 . S
C1297 C781 0.946 . S
C1327 C859 0.944 . S
C1332 C943 0.947 . S
C1362 C987 0.944 . S
C1357 C625 0.938 . S
C1392 C1047 0.943 . S
C1387 C664 0.940 . S
C1417 C703 0.944 . S
C1422 C986 0.944 . S
C1452 C1046 0.944 . S
C1447 C742 0.941 . S
C1477 C469 0.944 . S
C1482 C988 0.950 . S
C1512 C1044 0.944 . S
C1507 C508 0.947 . S
C1537 C547 0.944 . S
C1542 C989 0.944 . S
C1567 C586 0.944 . S
C1572 C1045 0.946 . S
C1602 C1095 0.944 . S
C1597 C430 0.944 . S
C1627 C352 0.943 . S
C1632 C1094 0.943 . S
C1657 C313 0.943 1_554 S
C1662 C1096 0.944 . S
C1692 C1097 0.944 . S
C1687 C391 0.944 1_554 S
C1717 C157 0.946 . S
C1722 C1138 0.944 . S
C1747 C196 0.943 1_545 S
C1752 C1197 0.943 . S
C1777 C235 0.946 . S
C1782 C1136 0.944 . S
C1807 C274 0.944 1_545 S
C1812 C1196 0.944 . S
C1842 C1137 0.944 . S
C1837 C1 0.946 . S
C1872 C1194 0.944 . S
C1867 C40 0.944 . S
C1897 C79 0.946 . S
C1902 C1139 0.944 . S
C1932 C1195 0.944 . S
C1927 C118 0.943 . S
C1962 C939 1.872 . S
C1957 C16 1.774 . S
C1987 C60 1.776 . S
C1992 C945 1.869 . S
C2017 C99 1.780 . S
C2022 C937 1.875 . S
C2047 C133 1.781 1_545 S
C2052 C944 1.875 . S
C2077 C172 1.777 . S
C2082 C936 1.875 . S
C2112 C946 1.875 . S
C2107 C211 1.780 . S
C2137 C255 1.780 . S
C2142 C938 1.869 . S
C2172 C947 1.869 . S
C2167 C294 1.776 1_545 S
C2202 C993 1.870 . S
C2197 C138 1.774 . S
C2227 C21 1.780 . S
C2232 C1036 1.869 . S
C2262 C991 1.874 . S
C2257 C55 1.776 1_545 S
C2292 C1038 1.872 . S
C2287 C94 1.774 . S
C2317 C216 1.777 1_545 S
C2322 C992 1.873 . S
C2352 C1037 1.872 . S
C2347 C250 1.781 . S
C2382 C990 1.874 . S
C2377 C289 1.782 . S
C2412 C1039 1.872 . S
C2407 C177 1.783 . S
C2442 C1043 1.875 . S
C2437 C328 1.781 . S
C2467 C367 1.780 1_554 S
C2472 C1042 1.875 . S
C2502 C994 1.870 . S
C2497 C333 1.774 1_554 S
C2532 C1041 1.869 . S
C2527 C411 1.776 1_554 S
C2557 C445 1.779 1_554 S
C2562 C997 1.876 . S
C2587 C450 1.776 . S
C2592 C1040 1.869 . S
C2622 C996 1.870 . S
C2617 C372 1.780 . S
C2652 C995 1.874 . S
C2647 C406 1.776 . S
C2682 C1089 1.872 . S
C2677 C484 1.780 . S
C2712 C1092 1.869 . S
C2707 C528 1.779 . S
C2737 C567 1.779 . S
C2742 C1088 1.875 . S
C2772 C1090 1.875 . S
C2767 C601 1.783 . S
C2802 C1086 1.872 . S
C2797 C640 1.775 . S
C2827 C679 1.780 . S
C2832 C1091 1.872 . S
C2857 C723 1.779 . S
C2862 C1087 1.869 . S
C2892 C1093 1.869 . S
C2887 C762 1.773 . S
C2922 C1147 1.870 . S
C2917 C606 1.777 . S
C2947 C489 1.779 . S
C2952 C1186 1.875 . S
C2982 C1146 1.874 . S
C2977 C523 1.779 . S
C3012 C1188 1.872 . S
C3007 C562 1.775 . S
C3042 C1145 1.870 . S
C3037 C684 1.777 . S
C3067 C718 1.778 . S
C3072 C1187 1.875 . S
C3102 C1144 1.874 . S
C3097 C757 1.779 . S
C3132 C1189 1.872 . S
C3127 C645 1.776 . S
C3162 C1193 1.875 . S
C3157 C796 1.783 . S
C3187 C835 1.780 . S
C3192 C1192 1.872 . S
C3222 C1140 1.870 . S
C3217 C801 1.777 . S
C3247 C879 1.776 . S
C3252 C1191 1.872 . S
C3282 C1143 1.874 . S
C3277 C913 1.779 . S
C3312 C1190 1.869 . S
C3307 C918 1.773 . S
C3342 C1141 1.870 . S
C3337 C840 1.777 . S
C3367 C874 1.779 . S
C3372 C1142 1.874 . S
