# Generated by pormake.
# Topology rtl, (3,6)-cn, num edge types: 1
# Building blocks:
#     Node 0, Type 0, BuildingBlock: KAKCAD_clean_linker_0, # of connection points: 3
#     Node 1, Type 0, BuildingBlock: KAKCAD_clean_linker_0, # of connection points: 3
#     Node 2, Type 0, BuildingBlock: KAKCAD_clean_linker_0, # of connection points: 3
#     Node 3, Type 0, BuildingBlock: KAKCAD_clean_linker_0, # of connection points: 3
#     Node 4, Type 1, BuildingBlock: KUMBUR_clean_sbu_1, # of connection points: 6
#     Node 5, Type 1, BuildingBlock: KUMBUR_clean_sbu_1, # of connection points: 6
#     Edge 6, Type (0, 1), BuildingBlock: XIVTED_clean_linker_0, # of connection points: 2
#     Edge 7, Type (0, 1), BuildingBlock: XIVTED_clean_linker_0, # of connection points: 2
#     Edge 8, Type (0, 1), BuildingBlock: XIVTED_clean_linker_0, # of connection points: 2
#     Edge 9, Type (0, 1), BuildingBlock: XIVTED_clean_linker_0, # of connection points: 2
#     Edge 10, Type (0, 1), BuildingBlock: XIVTED_clean_linker_0, # of connection points: 2
#     Edge 11, Type (0, 1), BuildingBlock: XIVTED_clean_linker_0, # of connection points: 2
#     Edge 12, Type (0, 1), BuildingBlock: XIVTED_clean_linker_0, # of connection points: 2
#     Edge 13, Type (0, 1), BuildingBlock: XIVTED_clean_linker_0, # of connection points: 2
#     Edge 14, Type (0, 1), BuildingBlock: XIVTED_clean_linker_0, # of connection points: 2
#     Edge 15, Type (0, 1), BuildingBlock: XIVTED_clean_linker_0, # of connection points: 2
#     Edge 16, Type (0, 1), BuildingBlock: XIVTED_clean_linker_0, # of connection points: 2
#     Edge 17, Type (0, 1), BuildingBlock: XIVTED_clean_linker_0, # of connection points: 2
# Relax obj value: 0.018
# Max RMSD: 0.097
# Mean RMSD: 0.058
data_MOF--net-rtl--node1-KUMBUR_clean_sbu_1--node2-KAKCAD_clean_linker_0--edge1-XIVTED_clean_linker_0
_symmetry_space_group_name_H-M    P1
_symmetry_Int_Tables_number       1
_symmetry_cell_setting            triclinic
loop_
_symmetry_equiv_pos_as_xyz
'x, y, z'
_cell_length_a     39.927134
_cell_length_b     40.394151
_cell_length_c     35.199934
_cell_angle_alpha  80.411794
_cell_angle_beta   99.279427
_cell_angle_gamma 90.504037
loop_
_atom_site_label
_atom_site_type_symbol
_atom_site_fract_x
_atom_site_fract_y
_atom_site_fract_z
_atom_type_partial_charge
C0 C 0.17675 0.88756 0.88088 0.0
C1 C 0.16571 0.92114 0.86877 0.0
C2 C 0.19515 0.87702 0.91801 0.0
C3 C 0.20347 0.89978 0.94411 0.0
C4 C 0.19236 0.93341 0.93227 0.0
C5 C 0.17374 0.94401 0.8949 0.0
C6 C 0.22392 0.88791 0.98324 0.0
C7 C 0.2507 0.86485 0.98666 0.0
C8 C 0.26741 0.84918 0.02325 0.0
C9 C 0.25894 0.85899 0.05705 0.0
C10 C 0.23262 0.88278 0.05456 0.0
C11 C 0.21519 0.897 0.01728 0.0
C12 C 0.22154 0.89082 0.09071 0.0
C13 C 0.22254 0.86604 0.12417 0.0
C14 C 0.2086 0.92292 0.09168 0.0
C15 C 0.19596 0.92967 0.12452 0.0
C16 C 0.1964 0.90467 0.1577 0.0
C17 C 0.29111 0.82038 0.0256 0.0
C18 C 0.28295 0.79679 1.00045 0.0
C19 C 0.32132 0.81566 0.05279 0.0
C20 C 0.34302 0.78817 0.05433 0.0
C21 C 0.33494 0.76499 0.02862 0.0
C22 C 0.30459 0.76962 1.00184 0.0
C23 C 0.21052 0.87297 0.15724 0.0
H24 H 0.17154 0.86933 0.86145 0.0
H25 H 0.20274 0.8508 0.92634 0.0
H26 H 0.19843 0.95156 0.95167 0.0
H27 H 0.16537 0.97002 0.88662 0.0
H28 H 0.258 0.85826 0.96047 0.0
H29 H 0.19363 0.91376 0.01473 0.0
H30 H 0.27216 0.84722 0.0853 0.0
H31 H 0.23176 0.84084 0.12468 0.0
H32 H 0.20787 0.94291 0.06688 0.0
H33 H 0.18501 0.95431 0.12331 0.0
H34 H 0.25943 0.79899 0.97993 0.0
H35 H 0.32839 0.8334 0.07249 0.0
H36 H 0.21206 0.85318 0.18234 0.0
H37 H 0.29716 0.7518 0.98231 0.0
H38 H 0.36632 0.78531 0.07524 0.0
C39 C 0.61693 0.6966 0.73421 0.0
C40 C 0.61464 0.66147 0.74325 0.0
C41 C 0.62626 0.7117 0.6987 0.0
C42 C 0.63289 0.69199 0.6713 0.0
C43 C 0.63062 0.6569 0.68043 0.0
C44 C 0.62176 0.64182 0.71603 0.0
C45 C 0.64196 0.70764 0.63309 0.0
C46 C 0.6676 0.73173 0.63109 0.0
C47 C 0.67808 0.74422 0.59521 0.0
C48 C 0.66177 0.73338 0.56113 0.0
C49 C 0.63595 0.70965 0.56245 0.0
C50 C 0.62619 0.69693 0.59861 0.0
C51 C 0.62123 0.69646 0.52644 0.0
C52 C 0.6142 0.71796 0.49019 0.0
C53 C 0.61641 0.66183 0.52761 0.0
C54 C 0.60597 0.64889 0.49329 0.0
C55 C 0.60004 0.67023 0.45686 0.0
C56 C 0.70746 0.76689 0.593 0.0
C57 C 0.71036 0.79538 0.61132 0.0
C58 C 0.73245 0.76047 0.57113 0.0
C59 C 0.7591 0.78253 0.56653 0.0
C60 C 0.76151 0.8117 0.5836 0.0
C61 C 0.7371 0.81765 0.60659 0.0
C62 C 0.60377 0.705 0.4558 0.0
H63 H 0.61177 0.71236 0.75473 0.0
H64 H 0.62774 0.7388 0.69237 0.0
H65 H 0.63592 0.64103 0.66006 0.0
H66 H 0.61991 0.61474 0.72196 0.0
H67 H 0.68057 0.73939 0.65764 0.0
H68 H 0.60625 0.6786 0.59997 0.0
H69 H 0.67002 0.74275 0.53352 0.0
H70 H 0.61718 0.74483 0.48835 0.0
H71 H 0.62211 0.64448 0.5549 0.0
H72 H 0.60393 0.62193 0.49521 0.0
H73 H 0.69142 0.80096 0.6283 0.0
H74 H 0.73137 0.7383 0.55742 0.0
H75 H 0.59894 0.72219 0.42833 0.0
H76 H 0.73812 0.83994 0.62004 0.0
H77 H 0.77792 0.77661 0.54957 0.0
C78 C 0.80568 0.08249 0.19156 0.0
C79 C 0.84133 0.08489 0.19788 0.0
C80 C 0.78676 0.09352 0.15463 0.0
C81 C 0.80309 0.10661 0.12311 0.0
C82 C 0.83864 0.10843 0.12911 0.0
C83 C 0.85751 0.0979 0.16607 0.0
C84 C 0.78332 0.11952 0.08421 0.0
C85 C 0.7568 0.14299 0.08029 0.0
C86 C 0.74058 0.15842 0.04312 0.0
C87 C 0.75076 0.1493 0.0097 0.0
C88 C 0.77744 0.12594 0.01333 0.0
C89 C 0.79316 0.11085 0.05068 0.0
C90 C 0.7917 0.12 0.97863 0.0
C91 C 0.77074 0.11382 0.94449 0.0
C92 C 0.82697 0.12112 0.97958 0.0
C93 C 0.84108 0.11633 0.94722 0.0
C94 C 0.82032 0.11035 0.91296 0.0
C95 C 0.71578 0.1865 0.03962 0.0
C96 C 0.69243 0.1854 0.06576 0.0
C97 C 0.71705 0.21577 0.01198 0.0
C98 C 0.69618 0.24354 0.01119 0.0
C99 C 0.67366 0.24281 0.03815 0.0
C100 C 0.67169 0.21328 0.06511 0.0
C101 C 0.785 0.10875 0.91195 0.0
H102 H 0.79231 0.07202 0.21509 0.0
H103 H 0.75937 0.09166 0.15062 0.0
H104 H 0.85183 0.11892 0.10539 0.0
H105 H 0.88476 0.10085 0.16978 0.0
H106 H 0.75036 0.15082 0.10625 0.0
H107 H 0.81379 0.09283 0.05371 0.0
H108 H 0.73898 0.16142 0.98089 0.0
H109 H 0.74346 0.11274 0.94307 0.0
H110 H 0.84376 0.12625 0.00526 0.0
H111 H 0.86842 0.11723 0.94909 0.0
H112 H 0.69047 0.1631 0.08707 0.0
H113 H 0.73514 0.21781 0.99189 0.0
H114 H 0.76843 0.10422 0.88585 0.0
H115 H 0.65419 0.21175 0.08584 0.0
H116 H 0.69862 0.26604 0.99036 0.0
C117 C 0.36596 0.34549 0.32583 0.0
C118 C 0.40078 0.34871 0.32412 0.0
C119 C 0.35501 0.32876 0.35962 0.0
C120 C 0.3787 0.31554 0.39255 0.0
C121 C 0.41351 0.3186 0.39078 0.0
C122 C 0.42446 0.33475 0.35675 0.0
C123 C 0.3672 0.2998 0.42925 0.0
C124 C 0.34309 0.27425 0.42919 0.0
C125 C 0.33212 0.25954 0.46405 0.0
C126 C 0.34538 0.27096 0.49895 0.0
C127 C 0.36855 0.29738 0.49939 0.0
C128 C 0.37964 0.3113 0.4643 0.0
C129 C 0.37949 0.31162 0.5359 0.0
C130 C 0.35692 0.31294 0.5625 0.0
C131 C 0.41203 0.32501 0.54399 0.0
C132 C 0.42132 0.3401 0.57708 0.0
C133 C 0.39856 0.34167 0.60345 0.0
C134 C 0.3054 0.23363 0.46425 0.0
C135 C 0.27611 0.2376 0.43562 0.0
C136 C 0.30768 0.20618 0.49496 0.0
C137 C 0.28063 0.18428 0.49815 0.0
C138 C 0.25067 0.1892 0.47063 0.0
C139 C 0.24904 0.21559 0.43876 0.0
C140 C 0.36646 0.32728 0.59596 0.0
H141 H 0.34721 0.35588 0.30098 0.0
H142 H 0.32803 0.3269 0.36039 0.0
H143 H 0.43225 0.30852 0.41578 0.0
H144 H 0.45144 0.33705 0.35625 0.0
H145 H 0.33325 0.26556 0.40211 0.0
H146 H 0.39689 0.33217 0.46365 0.0
H147 H 0.33684 0.25972 0.52576 0.0
H148 H 0.3314 0.30357 0.55722 0.0
H149 H 0.43041 0.32405 0.52468 0.0
H150 H 0.44614 0.35117 0.58137 0.0
H151 H 0.27343 0.25864 0.41178 0.0
H152 H 0.33017 0.202 0.51704 0.0
H153 H 0.34839 0.32718 0.61583 0.0
H154 H 0.22625 0.22018 0.41717 0.0
H155 H 0.28298 0.16375 0.52257 0.0
Tb156 Tb 0.02911 0.96876 0.51276 0.0
C157 C 0.95408 0.1044 0.49475 0.0
N158 N 0.9825 0.09289 0.52016 0.0
C159 C 0.00866 0.14623 0.50503 0.0
C160 C 0.95235 0.13683 0.47222 0.0
C161 C 0.00881 0.11411 0.52727 0.0
C162 C 0.98056 0.15743 0.47683 0.0
C163 C 0.89463 0.09651 0.47071 0.0
C164 C 0.92565 0.08464 0.49388 0.0
C165 C 0.89321 0.12805 0.44659 0.0
C166 C 0.92205 0.14816 0.44728 0.0
Tb167 Tb 0.97994 0.03923 0.55344 0.0
N168 N 0.92809 0.05425 0.51737 0.0
C169 C 0.86583 0.07677 0.47355 0.0
C170 C 0.89975 0.03586 0.52227 0.0
C171 C 0.86829 0.04658 0.49998 0.0
H172 H 0.02974 0.10673 0.55062 0.0
H173 H 0.846 0.03159 0.50319 0.0
H174 H 0.98715 0.90011 0.53959 0.0
H175 H 0.16146 1.00073 0.54854 0.0
H176 H 0.90163 0.01272 0.54296 0.0
H177 H 0.84146 0.08503 0.45632 0.0
H178 H 0.10433 0.00685 0.50982 0.0
H179 H 0.02994 0.16258 0.51023 0.0
H180 H 0.86971 0.13753 0.42819 0.0
H181 H 0.92032 0.17289 0.42948 0.0
H182 H 0.99779 0.84767 0.58712 0.0
H183 H 0.98028 0.18253 0.46011 0.0
H184 H 0.17572 0.95216 0.60161 0.0
N185 N 0.03625 0.9194 0.55544 0.0
C186 C 0.06781 0.91297 0.57649 0.0
C187 C 0.0176 0.86601 0.58475 0.0
C188 C 0.07511 0.88329 0.60392 0.0
C189 C 0.01151 0.89599 0.55815 0.0
C190 C 0.04944 0.85976 0.60804 0.0
N191 N 0.08447 0.96483 0.54364 0.0
C192 C 0.10924 0.98682 0.53436 0.0
C193 C 0.12544 0.93141 0.59281 0.0
C194 C 0.09255 0.93677 0.57092 0.0
C195 C 0.15015 0.9553 0.58539 0.0
C196 C 0.14213 0.98285 0.55562 0.0
H197 H 0.05403 0.83657 0.62872 0.0
H198 H 0.11372 0.8556 0.64775 0.0
H199 H 0.1578 0.89776 0.63809 0.0
O200 O 0.06138 0.95214 0.47757 0.0
O201 O 0.02674 0.96623 0.57539 0.0
O202 O 0.02947 0.02077 0.58529 0.0
O203 O 0.00936 0.9373 0.473 0.0
O204 O 0.0448 0.02105 0.49723 0.0
O205 O 0.0335 0.04849 0.54702 0.0
O206 O 0.959 0.02366 0.60444 0.0
O207 O 0.95963 0.02459 0.49719 0.0
O208 O 0.00652 0.01269 0.47156 0.0
O209 O 0.96978 0.07551 0.58677 0.0
O210 O 0.96506 0.98659 0.56628 0.0
O211 O 0.97492 0.96046 0.51496 0.0
C212 C 0.03808 0.98898 0.59668 0.0
C213 C 0.03291 0.94786 0.41452 0.0
C214 C 0.05656 0.95324 0.35385 0.0
C215 C 0.02662 0.97003 0.33365 0.0
C216 C 1.00302 0.96424 0.39342 0.0
C217 C 0.99999 0.97521 0.35329 0.0
C218 C 0.05952 0.94199 0.3944 0.0
C219 C 0.04985 0.04566 0.51787 0.0
C220 C 0.03689 0.93796 0.45746 0.0
C221 C 0.10765 0.87815 0.6263 0.0
C222 C 0.13272 0.9022 0.62084 0.0
C223 C 0.9752 0.02402 0.46726 0.0
C224 C 0.97287 0.05604 0.65396 0.0
C225 C 0.96285 0.06536 0.7178 0.0
C226 C 0.99797 0.06189 0.73147 0.0
C227 C 0.0078 0.0528 0.66788 0.0
C228 C 0.95047 0.06204 0.67898 0.0
C229 C 0.02025 0.05549 0.70662 0.0
C230 C 0.95759 0.96419 0.54302 0.0
C231 C 0.95925 0.05357 0.61338 0.0
H232 H 0.02357 0.97859 0.30241 0.0
H233 H 0.982 0.9688 0.40794 0.0
H234 H 0.97688 0.9878 0.33732 0.0
H235 H 0.08263 0.92926 0.41032 0.0
H236 H 0.00816 0.06406 0.76137 0.0
H237 H 0.02534 0.04849 0.64873 0.0
H238 H 0.9235 0.06498 0.66792 0.0
H239 H 0.04723 0.05287 0.71733 0.0
Tb240 Tb 0.4699 0.48721 0.99636 0.0
C241 C 0.6045 0.5576 0.03515 0.0
N242 N 0.59495 0.52651 0.05036 0.0
C243 C 0.6477 0.50309 0.04196 0.0
C244 C 0.63555 0.56247 0.02104 0.0
C245 C 0.61646 0.49951 0.05523 0.0
C246 C 0.65714 0.53465 0.02438 0.0
C247 C 0.5914 0.61709 0.01753 0.0
C248 C 0.58268 0.58441 0.03343 0.0
C249 C 0.62187 0.62208 1.00232 0.0
C250 C 0.64395 0.59484 0.00419 0.0
Tb251 Tb 0.54363 0.52319 0.07099 0.0
N252 N 0.55347 0.57852 0.04852 0.0
C253 C 0.56965 0.64384 0.01825 0.0
C254 C 0.53378 0.6049 0.05225 0.0
C255 C 0.54102 0.63777 0.03632 0.0
H256 H 0.60971 0.47521 0.06951 0.0
H257 H 0.52487 0.65846 0.03868 0.0
H258 H 0.40739 0.54572 0.97514 0.0
H259 H 0.46448 0.35429 0.04743 0.0
H260 H 0.51308 0.60107 0.06853 0.0
H261 H 0.57538 0.66935 0.00628 0.0
H262 H 0.48843 0.40638 0.01529 0.0
H263 H 0.66451 0.48155 0.04542 0.0
H264 H 0.62889 0.64699 0.98972 0.0
H265 H 0.66757 0.59911 0.99285 0.0
H266 H 0.35208 0.55356 0.99493 0.0
H267 H 0.68129 0.53733 0.014 0.0
H268 H 0.41088 0.35701 0.07386 0.0
N269 N 0.41653 0.49686 0.00918 0.0
C270 C 0.40219 0.47034 0.02935 0.0
C271 C 0.36618 0.53018 0.00545 0.0
C272 C 0.36992 0.47314 0.04002 0.0
C273 C 0.39804 0.5259 0.99505 0.0
C274 C 0.35232 0.5039 0.02871 0.0
N275 N 0.44942 0.43796 0.02491 0.0
C276 C 0.4651 0.40762 0.02688 0.0
C277 C 0.40428 0.41077 0.05533 0.0
C278 C 0.41892 0.43962 0.03682 0.0
C279 C 0.42129 0.37983 0.05983 0.0
C280 C 0.45157 0.37818 0.04496 0.0
H281 H 0.32745 0.50714 0.0363 0.0
H282 H 0.33115 0.44659 0.06902 0.0
H283 H 0.36135 0.3919 0.08251 0.0
O284 O 0.48158 0.46202 0.95247 0.0
O285 O 0.48192 0.46381 0.05802 0.0
O286 O 0.49557 0.50779 0.09037 0.0
O287 O 0.43341 0.48695 0.94588 0.0
O288 O 0.52144 0.46624 0.00387 0.0
O289 O 0.54731 0.46947 0.0672 0.0
O290 O 0.5625 0.54878 0.11754 0.0
O291 O 0.5493 0.52273 0.00986 0.0
O292 O 0.49581 0.5328 0.97466 0.0
O293 O 0.56911 0.49449 0.12304 0.0
O294 O 0.49245 0.5458 0.06316 0.0
O295 O 0.46666 0.54105 1.00027 0.0
C296 C 0.4819 0.47839 0.08854 0.0
C297 C 0.45635 0.48392 0.88874 0.0
C298 C 0.45426 0.47435 0.82184 0.0
C299 C 0.46769 0.50636 0.81221 0.0
C300 C 0.46924 0.516 0.87856 0.0
C301 C 0.47489 0.52713 0.84042 0.0
C302 C 0.44853 0.46332 0.86025 0.0
C303 C 0.54262 0.45457 0.03606 0.0
C304 C 0.45319 0.47055 0.92937 0.0
C305 C 0.35577 0.44486 0.06022 0.0
C306 C 0.37292 0.41369 0.06782 0.0
C307 C 0.52874 0.53741 0.97883 0.0
C308 C 0.59219 0.5195 0.17993 0.0
C309 C 0.60065 0.54018 0.24206 0.0
C310 C 0.62288 0.51292 0.25837 0.0
C311 C 0.61456 0.49251 0.19681 0.0
C312 C 0.58574 0.54376 0.20252 0.0
C313 C 0.63 0.48944 0.23574 0.0
C314 C 0.4703 0.55604 0.03127 0.0
C315 C 0.57419 0.52097 0.13968 0.0
H316 H 0.47222 0.51544 0.78277 0.0
H317 H 0.47523 0.53222 0.90013 0.0
H318 H 0.48506 0.55184 0.83277 0.0
H319 H 0.43884 0.43839 0.8682 0.0
H320 H 0.63472 0.50981 0.28872 0.0
H321 H 0.61995 0.47362 0.17998 0.0
H322 H 0.56812 0.56445 0.18997 0.0
H323 H 0.64718 0.46853 0.24857 0.0
H324 H 0.20666 0.16211 0.41589 0.0
H325 H 0.08866 0.07995 0.56929 0.0
H326 H 0.22594 0.16858 0.53862 0.0
H327 H 0.07505 0.06363 0.44976 0.0
H328 H 0.13691 0.11559 0.5573 0.0
H329 H 0.15654 0.12858 0.42653 0.0
C330 C 0.20033 0.15652 0.44505 0.0
C331 C 0.22065 0.16805 0.47644 0.0
C332 C 0.12331 0.10435 0.53361 0.0
C333 C 0.16334 0.12974 0.48883 0.0
C334 C 0.09558 0.08422 0.54037 0.0
C335 C 0.07773 0.06898 0.51041 0.0
C336 C 0.13329 0.10932 0.49659 0.0
C337 C 0.08818 0.0749 0.47369 0.0
C338 C 0.1718 0.13729 0.45113 0.0
C339 C 0.21137 0.15981 0.51366 0.0
N340 N 0.11529 0.09458 0.46781 0.0
N341 N 0.18341 0.14125 0.51878 0.0
H342 H 0.36792 0.72287 0.09289 0.0
H343 H 0.44195 0.60084 0.96714 0.0
H344 H 0.35289 0.73995 0.96694 0.0
H345 H 0.45215 0.58078 0.09278 0.0
H346 H 0.41024 0.65257 0.96645 0.0
H347 H 0.40121 0.6721 0.09363 0.0
C348 C 0.37192 0.71614 0.06542 0.0
C349 C 0.35741 0.73558 0.02981 0.0
C350 C 0.41935 0.63683 0.99419 0.0
C351 C 0.3951 0.67728 0.03038 0.0
C352 C 0.43725 0.6072 0.99455 0.0
C353 C 0.44963 0.5865 0.03006 0.0
C354 C 0.41383 0.64586 0.02961 0.0
C355 C 0.44317 0.59613 0.06475 0.0
C356 C 0.39069 0.687 0.06583 0.0
C357 C 0.36314 0.72543 0.99507 0.0
N358 N 0.42579 0.62513 0.06367 0.0
N359 N 0.38143 0.69698 0.99623 0.0
H360 H 0.78713 0.8315 0.51583 0.0
H361 H 0.92487 0.95384 0.60645 0.0
H362 H 0.79907 0.84708 0.63563 0.0
H363 H 0.92373 0.92445 0.49381 0.0
H364 H 0.87636 0.91805 0.61605 0.0
H365 H 0.83447 0.86868 0.50574 0.0
C366 C 0.7998 0.84259 0.54013 0.0
C367 C 0.78925 0.83576 0.57681 0.0
C368 C 0.88673 0.91938 0.58926 0.0
C369 C 0.84337 0.87892 0.56518 0.0
C370 C 0.91443 0.93986 0.58368 0.0
C371 C 0.92849 0.94211 0.54926 0.0
C372 C 0.87274 0.9011 0.56012 0.0
C373 C 0.91387 0.92334 0.52089 0.0
C374 C 0.82677 0.86397 0.53425 0.0
C375 C 0.80614 0.85169 0.60682 0.0
N376 N 0.88676 0.90369 0.52692 0.0
N377 N 0.83241 0.87243 0.60037 0.0
H378 H 0.66166 0.26896 0.10191 0.0
H379 H 0.54936 0.42377 0.9742 0.0
H380 H 0.63935 0.28604 0.97603 0.0
H381 H 0.58034 0.4143 0.09893 0.0
H382 H 0.58031 0.37197 0.97513 0.0
H383 H 0.62965 0.3203 0.10219 0.0
C384 C 0.64978 0.28335 0.07434 0.0
C385 C 0.6532 0.27318 0.03887 0.0
C386 C 0.58043 0.38118 1.00233 0.0
C387 C 0.61685 0.33214 0.03899 0.0
C388 C 0.56269 0.41082 1.00186 0.0
C389 C 0.56221 0.42349 0.03658 0.0
C390 C 0.59782 0.36382 0.03779 0.0
C391 C 0.58011 0.40555 0.07145 0.0
C392 C 0.63174 0.31279 0.07453 0.0
C393 C 0.6377 0.29309 0.00403 0.0
N394 N 0.59714 0.37656 0.07118 0.0
N395 N 0.62021 0.32156 0.00498 0.0
H396 H 0.16288 0.86032 0.20635 0.0
H397 H 0.08648 0.99872 0.30393 0.0
H398 H 0.19374 0.9638 0.18723 0.0
H399 H 0.08792 0.89346 0.35278 0.0
H400 H 0.12537 0.98686 0.26049 0.0
H401 H 0.13508 0.87186 0.2595 0.0
C402 C 0.16436 0.88538 0.21352 0.0
C403 C 0.18082 0.9111 0.19179 0.0
C404 C 0.11758 0.9664 0.28107 0.0
C405 C 0.14783 0.92464 0.2524 0.0
C406 C 0.09538 0.97315 0.30579 0.0
C407 C 0.08389 0.94698 0.33178 0.0
C408 C 0.12785 0.93311 0.28176 0.0
C409 C 0.09627 0.91433 0.33321 0.0
C410 C 0.14822 0.89195 0.24389 0.0
C411 C 0.18086 0.94323 0.20231 0.0
N412 N 0.11718 0.90822 0.30809 0.0
N413 N 0.16433 0.94914 0.23152 0.0
H414 H 0.64339 0.60614 0.79335 0.0
H415 H 0.49777 0.58959 0.92604 0.0
H416 H 0.56227 0.67939 0.77792 0.0
H417 H 0.59122 0.5316 0.9576 0.0
H418 H 0.52001 0.62173 0.87049 0.0
H419 H 0.62394 0.5775 0.85256 0.0
C420 C 0.6215 0.61622 0.80249 0.0
C421 C 0.60434 0.64513 0.78058 0.0
C422 C 0.53579 0.60218 0.88974 0.0
C423 C 0.58187 0.61241 0.84831 0.0
C424 C 0.52306 0.58374 0.92132 0.0
C425 C 0.54271 0.55791 0.94638 0.0
C426 C 0.56833 0.59454 0.88292 0.0
C427 C 0.57536 0.5515 0.93914 0.0
C428 C 0.61052 0.59996 0.83639 0.0
C429 C 0.57638 0.65731 0.79405 0.0
N430 N 0.58708 0.56953 0.90791 0.0
N431 N 0.56584 0.64073 0.82684 0.0
H432 H 0.90539 0.05584 0.218 0.0
H433 H 0.90648 0.02544 0.4458 0.0
H434 H 0.82362 0.09109 0.26876 0.0
H435 H 0.99932 0.0421 0.39811 0.0
H436 H 0.87406 0.04117 0.3805 0.0
H437 H 0.93878 0.04204 0.28335 0.0
C438 C 0.89442 0.06088 0.24269 0.0
C439 C 0.86151 0.07485 0.23758 0.0
C440 C 0.90152 0.04158 0.38436 0.0
C441 C 0.89946 0.05826 0.31245 0.0
C442 C 0.92007 0.03293 0.42169 0.0
C443 C 0.95564 0.03314 0.42756 0.0
C444 C 0.91866 0.04966 0.35241 0.0
C445 C 0.97189 0.04171 0.39487 0.0
C446 C 0.91353 0.05286 0.27996 0.0
C447 C 0.84852 0.07988 0.27104 0.0
N448 N 0.95325 0.04945 0.35854 0.0
N449 N 0.86747 0.07146 0.30702 0.0
H450 H 0.46158 0.34646 0.64812 0.0
H451 H 0.3951 0.44211 0.80258 0.0
H452 H 0.35654 0.37712 0.6378 0.0
H453 H 0.49558 0.4568 0.77334 0.0
H454 H 0.38186 0.40758 0.75109 0.0
H455 H 0.47576 0.37727 0.70258 0.0
C456 C 0.44145 0.35963 0.65702 0.0
C457 C 0.40771 0.35909 0.63788 0.0
C458 C 0.40681 0.41833 0.75607 0.0
C459 C 0.42387 0.39349 0.70117 0.0
C460 C 0.4144 0.43784 0.78546 0.0
C461 C 0.44636 0.45245 0.79188 0.0
C462 C 0.43159 0.4129 0.73353 0.0
C463 C 0.47051 0.44625 0.76891 0.0
C464 C 0.44963 0.37702 0.68833 0.0
C465 C 0.38278 0.37605 0.65181 0.0
N466 N 0.46269 0.4268 0.7408 0.0
N467 N 0.39134 0.39241 0.68262 0.0
H468 H 0.55831 0.61781 0.44264 0.0
H469 H 0.61171 0.6079 0.23479 0.0
H470 H 0.62373 0.68962 0.38747 0.0
H471 H 0.57146 0.52542 0.3071 0.0
H472 H 0.6051 0.64407 0.28308 0.0
H473 H 0.55173 0.58975 0.38565 0.0
C474 C 0.57116 0.62781 0.41847 0.0
C475 C 0.59208 0.65581 0.42023 0.0
C476 C 0.5973 0.61817 0.28806 0.0
C477 C 0.5844 0.62389 0.35461 0.0
C478 C 0.6009 0.59767 0.26049 0.0
C479 C 0.59236 0.5637 0.26736 0.0
C480 C 0.58471 0.60454 0.32231 0.0
C481 C 0.57861 0.55146 0.30106 0.0
C482 C 0.56728 0.61184 0.38586 0.0
C483 C 0.60733 0.66815 0.38747 0.0
N484 N 0.57535 0.5718 0.32735 0.0
N485 N 0.60348 0.65191 0.35617 0.0
H486 H 0.80785 0.06246 0.86541 0.0
H487 H 0.97037 0.1133 0.76426 0.0
H488 H 0.86894 0.14896 0.88272 0.0
H489 H 0.90185 0.03667 0.72944 0.0
H490 H 0.93233 0.12655 0.80745 0.0
H491 H 0.8399 0.05291 0.81403 0.0
C492 C 0.82765 0.07968 0.858 0.0
C493 C 0.83614 0.10624 0.87869 0.0
C494 C 0.92544 0.10687 0.79033 0.0
C495 C 0.87296 0.09535 0.82058 0.0
C496 C 0.94732 0.09915 0.7659 0.0
C497 C 0.9394 0.07365 0.7436 0.0
C498 C 0.89545 0.08875 0.79289 0.0
C499 C 0.90884 0.05655 0.74621 0.0
C500 C 0.84602 0.07414 0.82887 0.0
C501 C 0.86206 0.12775 0.86808 0.0
N502 N 0.88805 0.06421 0.77072 0.0
N503 N 0.87968 0.12167 0.84006 0.0
H504 H 0.44781 0.32845 0.2838 0.0
H505 H 0.45266 0.50388 0.14273 0.0
H506 H 0.38047 0.41116 0.28444 0.0
H507 H 0.48354 0.41066 0.11312 0.0
H508 H 0.43211 0.47213 0.19999 0.0
H509 H 0.46738 0.36005 0.22591 0.0
C510 C 0.43721 0.35328 0.27173 0.0
C511 C 0.41244 0.36723 0.28875 0.0
C512 C 0.44326 0.45867 0.18082 0.0
C513 C 0.43488 0.40355 0.22303 0.0
C514 C 0.45512 0.47674 0.14837 0.0
C515 C 0.46955 0.45978 0.12315 0.0
C516 C 0.44654 0.42348 0.18845 0.0
C517 C 0.47211 0.42462 0.13159 0.0
C518 C 0.44824 0.37121 0.23867 0.0
C519 C 0.39939 0.39943 0.27192 0.0
N520 N 0.46092 0.40761 0.16368 0.0
N521 N 0.41095 0.41664 0.24014 0.0
H522 H 0.11617 0.8866 0.82916 0.0
H523 H 0.08326 0.02665 0.63699 0.0
H524 H 0.17014 0.97989 0.81737 0.0
H525 H 0.03888 0.92851 0.64542 0.0
H526 H 0.11432 0.01087 0.70336 0.0
H527 H 0.08656 0.90248 0.76253 0.0
C528 C 0.12194 0.91041 0.81253 0.0
C529 C 0.14599 0.93179 0.82895 0.0
C530 C 0.09796 0.9927 0.69065 0.0
C531 C 0.11162 0.95038 0.7524 0.0
C532 C 0.08016 1.00172 0.65283 0.0
C533 C 0.05841 0.97885 0.63579 0.0
C534 C 0.09393 0.96058 0.71165 0.0
C535 C 0.05559 0.94679 0.65736 0.0
C536 C 0.10487 0.91952 0.77444 0.0
C537 C 0.15166 0.9627 0.80614 0.0
N538 N 0.07304 0.93865 0.69423 0.0
N539 N 0.13465 0.97104 0.76901 0.0
loop_
_geom_bond_atom_site_label_1
_geom_bond_atom_site_label_2
_geom_bond_distance
_geom_bond_site_symmetry_2
_ccdc_geom_bond_type
C0 C1 1.386 . S
C0 C2 1.397 . S
C0 H24 0.931 . S
C1 C0 1.386 . S
C1 C5 1.397 . S
C2 C0 1.397 . S
C2 C3 1.384 . S
C2 H25 0.930 . S
C3 C2 1.384 . S
C3 C4 1.377 . S
C3 C6 1.481 . S
C4 C3 1.377 . S
C4 C5 1.389 . S
C4 H26 0.929 . S
C5 C1 1.397 . S
C5 C4 1.389 . S
C5 H27 0.931 . S
C6 C3 1.481 . S
C6 C7 1.387 . S
C6 C11 1.390 1_556 S
C7 C6 1.387 . S
C7 C8 1.401 1_556 S
C7 H28 0.930 . S
C8 C7 1.401 1_554 S
C8 C9 1.376 . S
C8 C17 1.511 . S
C9 C8 1.376 . S
C9 C10 1.392 . S
C9 H30 0.931 . S
C10 C9 1.392 . S
C10 C11 1.361 . S
C10 C12 1.500 . S
C11 C6 1.390 1_554 S
C11 C10 1.361 . S
C11 H29 0.931 . S
C12 C10 1.500 . S
C12 C13 1.371 . S
C12 C14 1.365 . S
C13 C12 1.371 . S
C13 C23 1.386 . S
C13 H31 0.931 . S
C14 C12 1.365 . S
C14 C15 1.409 . S
C14 H32 0.929 . S
C15 C14 1.409 . S
C15 C16 1.380 . S
C15 H33 0.930 . S
C16 C15 1.380 . S
C16 C23 1.357 . S
C17 C8 1.511 . S
C17 C18 1.339 1_554 S
C17 C19 1.371 . S
C18 C17 1.339 1_556 S
C18 C22 1.394 1_556 S
C18 H34 0.932 . S
C19 C17 1.371 . S
C19 C20 1.392 . S
C19 H35 0.931 . S
C20 C19 1.392 . S
C20 C21 1.331 . S
C20 H38 0.932 . S
C21 C20 1.331 . S
C21 C22 1.336 . S
C22 C18 1.394 1_554 S
C22 C21 1.336 . S
C22 H37 0.929 1_554 S
C23 C13 1.386 . S
C23 C16 1.357 . S
C23 H36 0.928 . S
H24 C0 0.931 . S
H25 C2 0.930 . S
H26 C4 0.929 . S
H27 C5 0.931 . S
H28 C7 0.930 . S
H29 C11 0.931 . S
H30 C9 0.931 . S
H31 C13 0.931 . S
H32 C14 0.929 . S
H33 C15 0.930 . S
H34 C18 0.932 . S
H35 C19 0.931 . S
H36 C23 0.928 . S
H37 C22 0.929 1_556 S
H38 C20 0.932 . S
C39 C40 1.386 . S
C39 C41 1.397 . S
C39 H63 0.931 . S
C40 C39 1.386 . S
C40 C44 1.397 . S
C41 C39 1.397 . S
C41 C42 1.384 . S
C41 H64 0.930 . S
C42 C41 1.384 . S
C42 C43 1.377 . S
C42 C45 1.481 . S
C43 C42 1.377 . S
C43 C44 1.389 . S
C43 H65 0.929 . S
C44 C40 1.397 . S
C44 C43 1.389 . S
C44 H66 0.931 . S
C45 C42 1.481 . S
C45 C46 1.387 . S
C45 C50 1.390 . S
C46 C45 1.387 . S
C46 C47 1.401 . S
C46 H67 0.930 . S
C47 C46 1.401 . S
C47 C48 1.376 . S
C47 C56 1.511 . S
C48 C47 1.376 . S
C48 C49 1.392 . S
C48 H69 0.931 . S
C49 C48 1.392 . S
C49 C50 1.361 . S
C49 C51 1.500 . S
C50 C45 1.390 . S
C50 C49 1.361 . S
C50 H68 0.931 . S
C51 C49 1.500 . S
C51 C52 1.371 . S
C51 C53 1.365 . S
C52 C51 1.371 . S
C52 C62 1.386 . S
C52 H70 0.931 . S
C53 C51 1.365 . S
C53 C54 1.409 . S
C53 H71 0.929 . S
C54 C53 1.409 . S
C54 C55 1.380 . S
C54 H72 0.930 . S
C55 C54 1.380 . S
C55 C62 1.357 . S
C56 C47 1.511 . S
C56 C57 1.341 . S
C56 C58 1.371 . S
C57 C56 1.341 . S
C57 C61 1.394 . S
C57 H73 0.930 . S
C58 C56 1.371 . S
C58 C59 1.392 . S
C58 H74 0.931 . S
C59 C58 1.392 . S
C59 C60 1.331 . S
C59 H77 0.932 . S
C60 C59 1.331 . S
C60 C61 1.336 . S
C61 C57 1.394 . S
C61 C60 1.336 . S
C61 H76 0.929 . S
C62 C52 1.386 . S
C62 C55 1.357 . S
C62 H75 0.928 . S
H63 C39 0.931 . S
H64 C41 0.930 . S
H65 C43 0.929 . S
H66 C44 0.931 . S
H67 C46 0.930 . S
H68 C50 0.931 . S
H69 C48 0.931 . S
H70 C52 0.931 . S
H71 C53 0.929 . S
H72 C54 0.930 . S
H73 C57 0.930 . S
H74 C58 0.931 . S
H75 C62 0.928 . S
H76 C61 0.929 . S
H77 C59 0.932 . S
C78 C79 1.386 . S
C78 C80 1.397 . S
C78 H102 0.931 . S
C79 C78 1.386 . S
C79 C83 1.397 . S
C80 C78 1.397 . S
C80 C81 1.384 . S
C80 H103 0.930 . S
C81 C80 1.384 . S
C81 C82 1.377 . S
C81 C84 1.481 . S
C82 C81 1.377 . S
C82 C83 1.389 . S
C82 H104 0.929 . S
C83 C79 1.397 . S
C83 C82 1.389 . S
C83 H105 0.931 . S
C84 C81 1.481 . S
C84 C85 1.387 . S
C84 C89 1.390 . S
C85 C84 1.387 . S
C85 C86 1.401 . S
C85 H106 0.930 . S
C86 C85 1.401 . S
C86 C87 1.376 . S
C86 C95 1.511 . S
C87 C86 1.376 . S
C87 C88 1.392 . S
C87 H108 0.931 1_554 S
C88 C87 1.392 . S
C88 C89 1.361 . S
C88 C90 1.500 1_554 S
C89 C84 1.390 . S
C89 C88 1.361 . S
C89 H107 0.931 . S
C90 C88 1.500 1_556 S
C90 C91 1.371 . S
C90 C92 1.365 . S
C91 C90 1.371 . S
C91 C101 1.386 . S
C91 H109 0.931 . S
C92 C90 1.365 . S
C92 C93 1.409 . S
C92 H110 0.946 . S
C93 C92 1.409 . S
C93 C94 1.380 . S
C93 H111 0.930 . S
C94 C93 1.380 . S
C94 C101 1.357 . S
C95 C86 1.511 . S
C95 C96 1.341 . S
C95 C97 1.371 1_554 S
C96 C95 1.341 . S
C96 C100 1.394 . S
C96 H112 0.930 . S
C97 C95 1.371 1_556 S
C97 C98 1.392 . S
C97 H113 0.931 . S
C98 C97 1.392 . S
C98 C99 1.331 1_556 S
C98 H116 0.932 . S
C99 C98 1.331 1_554 S
C99 C100 1.336 . S
C100 C96 1.394 . S
C100 C99 1.336 . S
C100 H115 0.929 . S
C101 C91 1.386 . S
C101 C94 1.357 . S
C101 H114 0.928 . S
H102 C78 0.931 . S
H103 C80 0.930 . S
H104 C82 0.929 . S
H105 C83 0.931 . S
H106 C85 0.930 . S
H107 C89 0.931 . S
H108 C87 0.931 1_556 S
H109 C91 0.931 . S
H110 C92 0.946 . S
H111 C93 0.930 . S
H112 C96 0.930 . S
H113 C97 0.931 . S
H114 C101 0.928 . S
H115 C100 0.929 . S
H116 C98 0.932 . S
C117 C118 1.386 . S
C117 C119 1.397 . S
C117 H141 0.931 . S
C118 C117 1.386 . S
C118 C122 1.397 . S
C119 C117 1.397 . S
C119 C120 1.384 . S
C119 H142 0.930 . S
C120 C119 1.384 . S
C120 C121 1.377 . S
C120 C123 1.481 . S
C121 C120 1.377 . S
C121 C122 1.389 . S
C121 H143 0.929 . S
C122 C118 1.397 . S
C122 C121 1.389 . S
C122 H144 0.931 . S
C123 C120 1.481 . S
C123 C124 1.387 . S
C123 C128 1.390 . S
C124 C123 1.387 . S
C124 C125 1.401 . S
C124 H145 0.930 . S
C125 C124 1.401 . S
C125 C126 1.376 . S
C125 C134 1.511 . S
C126 C125 1.376 . S
C126 C127 1.392 . S
C126 H147 0.931 . S
C127 C126 1.392 . S
C127 C128 1.361 . S
C127 C129 1.500 . S
C128 C123 1.390 . S
C128 C127 1.361 . S
C128 H146 0.931 . S
C129 C127 1.500 . S
C129 C130 1.371 . S
C129 C131 1.365 . S
C130 C129 1.371 . S
C130 C140 1.386 . S
C130 H148 0.931 . S
C131 C129 1.365 . S
C131 C132 1.409 . S
C131 H149 0.929 . S
C132 C131 1.409 . S
C132 C133 1.380 . S
C132 H150 0.930 . S
C133 C132 1.380 . S
C133 C140 1.357 . S
C134 C125 1.511 . S
C134 C135 1.341 . S
C134 C136 1.371 . S
C135 C134 1.341 . S
C135 C139 1.394 . S
C135 H151 0.930 . S
C136 C134 1.371 . S
C136 C137 1.392 . S
C136 H152 0.931 . S
C137 C136 1.392 . S
C137 C138 1.331 . S
C137 H155 0.932 . S
C138 C137 1.331 . S
C138 C139 1.336 . S
C139 C135 1.394 . S
C139 C138 1.336 . S
C139 H154 0.929 . S
C140 C130 1.386 . S
C140 C133 1.357 . S
C140 H153 0.928 . S
H141 C117 0.931 . S
H142 C119 0.930 . S
H143 C121 0.929 . S
H144 C122 0.931 . S
H145 C124 0.930 . S
H146 C128 0.931 . S
H147 C126 0.931 . S
H148 C130 0.931 . S
H149 C131 0.929 . S
H150 C132 0.930 . S
H151 C135 0.930 . S
H152 C136 0.931 . S
H153 C140 0.928 . S
H154 C139 0.929 . S
H155 C137 0.932 . S
Tb156 N185 2.617 . S
Tb156 N191 2.572 . S
Tb156 O200 2.465 . S
Tb156 O201 2.387 . S
Tb156 O203 2.428 . S
Tb156 O204 2.308 1_565 S
Tb156 O208 2.349 1_455 S
Tb156 O211 2.393 1_455 S
Tb156 C220 2.802 . S
C157 N158 1.379 . S
C157 C160 1.416 . S
C157 C164 1.424 . S
N158 C157 1.379 . S
N158 C161 1.334 1_655 S
N158 Tb167 2.617 . S
C159 C161 1.390 1_655 S
C159 C162 1.339 . S
C159 H179 0.930 1_655 S
C160 C157 1.416 . S
C160 C162 1.416 . S
C160 C166 1.448 . S
C161 N158 1.334 1_455 S
C161 C159 1.390 1_455 S
C161 H172 0.930 . S
C162 C159 1.339 . S
C162 C160 1.416 . S
C162 H183 0.930 . S
C163 C164 1.413 . S
C163 C165 1.427 . S
C163 C169 1.416 . S
C164 C157 1.424 . S
C164 C163 1.413 . S
C164 N168 1.361 . S
C165 C163 1.427 . S
C165 C166 1.328 . S
C165 H180 0.929 . S
C166 C160 1.448 . S
C166 C165 1.328 . S
C166 H181 0.930 . S
Tb167 N158 2.617 . S
Tb167 N168 2.572 . S
Tb167 O202 2.349 1_655 S
Tb167 O205 2.393 1_655 S
Tb167 O206 2.465 . S
Tb167 O207 2.387 . S
Tb167 O209 2.428 . S
Tb167 O210 2.308 1_545 S
Tb167 C231 2.802 . S
N168 C164 1.361 . S
N168 Tb167 2.572 . S
N168 C170 1.340 . S
C169 C163 1.416 . S
C169 C171 1.332 . S
C169 H177 0.931 . S
C170 N168 1.340 . S
C170 C171 1.407 . S
C170 H176 0.930 . S
C171 C169 1.332 . S
C171 C170 1.407 . S
C171 H173 0.929 . S
H172 C161 0.930 . S
H173 C171 0.929 . S
H174 C189 0.930 1_655 S
H175 C196 0.929 . S
H176 C170 0.930 . S
H177 C169 0.931 . S
H178 C192 0.930 . S
H179 C159 0.930 1_455 S
H180 C165 0.929 . S
H181 C166 0.930 . S
H182 C187 0.930 1_655 S
H183 C162 0.930 . S
H184 C195 0.931 . S
N185 Tb156 2.617 . S
N185 C186 1.379 . S
N185 C189 1.334 . S
C186 N185 1.379 . S
C186 C188 1.416 . S
C186 C194 1.424 . S
C187 H182 0.930 1_455 S
C187 C189 1.390 . S
C187 C190 1.339 . S
C188 C186 1.416 . S
C188 C190 1.416 . S
C188 C221 1.448 . S
C189 H174 0.930 1_455 S
C189 N185 1.334 . S
C189 C187 1.390 . S
C190 C187 1.339 . S
C190 C188 1.416 . S
C190 H197 0.930 . S
N191 Tb156 2.572 . S
N191 C192 1.340 . S
N191 C194 1.361 . S
C192 H178 0.930 . S
C192 N191 1.340 . S
C192 C196 1.407 . S
C193 C194 1.413 . S
C193 C195 1.416 . S
C193 C222 1.427 . S
C194 C186 1.424 . S
C194 N191 1.361 . S
C194 C193 1.413 . S
C195 H184 0.931 . S
C195 C193 1.416 . S
C195 C196 1.332 . S
C196 H175 0.929 . S
C196 C192 1.407 . S
C196 C195 1.332 . S
H197 C190 0.930 . S
H198 C221 0.930 . S
H199 C222 0.929 . S
O200 Tb156 2.465 . S
O200 C220 1.264 . S
O201 Tb156 2.387 . S
O201 C212 1.264 . S
O202 Tb167 2.349 1_455 S
O202 C212 1.243 1_545 S
O203 Tb156 2.428 . S
O203 C220 1.256 . S
O204 Tb156 2.308 1_545 S
O204 C219 1.266 . S
O205 Tb167 2.393 1_455 S
O205 C219 1.248 . S
O206 Tb167 2.465 . S
O206 C231 1.264 . S
O207 Tb167 2.387 . S
O207 C223 1.264 . S
O208 Tb156 2.349 1_655 S
O208 C223 1.243 1_565 S
O209 Tb167 2.428 . S
O209 C231 1.256 . S
O210 Tb167 2.308 1_565 S
O210 C230 1.266 . S
O211 Tb156 2.393 1_655 S
O211 C230 1.248 . S
C212 O201 1.264 . S
C212 O202 1.243 1_565 S
C213 C216 1.399 . S
C213 C218 1.383 . S
C213 C220 1.496 . S
C214 C215 1.399 . S
C214 C218 1.389 . S
C215 C214 1.399 . S
C215 C217 1.380 . S
C215 H232 0.929 . S
C216 C213 1.399 . S
C216 C217 1.392 . S
C216 H233 0.929 . S
C217 C215 1.380 . S
C217 C216 1.392 . S
C217 H234 0.929 . S
C218 C213 1.383 . S
C218 C214 1.389 . S
C218 H235 0.931 . S
C219 O204 1.266 . S
C219 O205 1.248 . S
C220 Tb156 2.802 . S
C220 O200 1.264 . S
C220 O203 1.256 . S
C220 C213 1.496 . S
C221 C188 1.448 . S
C221 H198 0.930 . S
C221 C222 1.328 . S
C222 C193 1.427 . S
C222 H199 0.929 . S
C222 C221 1.328 . S
C223 O207 1.264 . S
C223 O208 1.243 1_545 S
C224 C227 1.399 . S
C224 C228 1.383 . S
C224 C231 1.496 . S
C225 C226 1.399 . S
C225 C228 1.389 . S
C226 C225 1.399 . S
C226 C229 1.380 . S
C226 H236 0.929 . S
C227 C224 1.399 . S
C227 C229 1.392 . S
C227 H237 0.929 . S
C228 C224 1.383 . S
C228 C225 1.389 . S
C228 H238 0.931 . S
C229 C226 1.380 . S
C229 C227 1.392 . S
C229 H239 0.929 . S
C230 O210 1.266 . S
C230 O211 1.248 . S
C231 Tb167 2.802 . S
C231 O206 1.264 . S
C231 O209 1.256 . S
C231 C224 1.496 . S
H232 C215 0.929 . S
H233 C216 0.929 . S
H234 C217 0.929 . S
H235 C218 0.931 . S
H236 C226 0.929 . S
H237 C227 0.929 . S
H238 C228 0.931 . S
H239 C229 0.929 . S
Tb240 N269 2.617 . S
Tb240 N275 2.572 1_556 S
Tb240 O284 2.465 . S
Tb240 O285 2.387 1_556 S
Tb240 O287 2.428 . S
Tb240 O288 2.308 1_556 S
Tb240 O292 2.349 . S
Tb240 O295 2.402 . S
Tb240 C304 2.802 . S
C241 N242 1.379 . S
C241 C244 1.416 . S
C241 C248 1.424 . S
N242 C241 1.379 . S
N242 C245 1.334 . S
N242 Tb251 2.617 . S
C243 C245 1.390 . S
C243 C246 1.339 . S
C243 H263 0.930 . S
C244 C241 1.416 . S
C244 C246 1.416 . S
C244 C250 1.448 . S
C245 N242 1.334 . S
C245 C243 1.390 . S
C245 H256 0.930 . S
C246 C243 1.339 . S
C246 C244 1.416 . S
C246 H267 0.930 . S
C247 C248 1.413 . S
C247 C249 1.427 . S
C247 C253 1.416 . S
C248 C241 1.424 . S
C248 C247 1.413 . S
C248 N252 1.361 . S
C249 C247 1.427 . S
C249 C250 1.328 . S
C249 H264 0.929 . S
C250 C244 1.448 . S
C250 C249 1.328 . S
C250 H265 0.930 . S
Tb251 N242 2.617 . S
Tb251 N252 2.572 . S
Tb251 O286 2.349 . S
Tb251 O289 2.393 . S
Tb251 O290 2.465 . S
Tb251 O291 2.387 1_554 S
Tb251 O293 2.428 . S
Tb251 O294 2.308 . S
Tb251 C315 2.802 . S
N252 C248 1.361 . S
N252 Tb251 2.572 . S
N252 C254 1.340 . S
C253 C247 1.416 . S
C253 C255 1.332 . S
C253 H261 0.931 . S
C254 N252 1.340 . S
C254 C255 1.407 . S
C254 H260 0.930 . S
C255 C253 1.332 . S
C255 C254 1.407 . S
C255 H257 0.929 . S
H256 C245 0.930 . S
H257 C255 0.929 . S
H258 C273 0.930 . S
H259 C280 0.929 . S
H260 C254 0.930 . S
H261 C253 0.931 . S
H262 C276 0.930 . S
H263 C243 0.930 . S
H264 C249 0.929 . S
H265 C250 0.930 . S
H266 C271 0.930 . S
H267 C246 0.930 . S
H268 C279 0.931 . S
N269 Tb240 2.617 . S
N269 C270 1.379 1_556 S
N269 C273 1.334 . S
C270 N269 1.379 1_554 S
C270 C272 1.416 . S
C270 C278 1.424 . S
C271 H266 0.930 . S
C271 C273 1.390 . S
C271 C274 1.339 1_556 S
C272 C270 1.416 . S
C272 C274 1.416 . S
C272 C305 1.448 . S
C273 H258 0.930 . S
C273 N269 1.334 . S
C273 C271 1.390 . S
C274 C271 1.339 1_554 S
C274 C272 1.416 . S
C274 H281 0.930 . S
N275 Tb240 2.572 1_554 S
N275 C276 1.340 . S
N275 C278 1.361 . S
C276 H262 0.930 . S
C276 N275 1.340 . S
C276 C280 1.407 . S
C277 C278 1.413 . S
C277 C279 1.416 . S
C277 C306 1.427 . S
C278 C270 1.424 . S
C278 N275 1.361 . S
C278 C277 1.413 . S
C279 H268 0.931 . S
C279 C277 1.416 . S
C279 C280 1.332 . S
C280 H259 0.929 . S
C280 C276 1.407 . S
C280 C279 1.332 . S
H281 C274 0.930 . S
H282 C305 0.930 . S
H283 C306 0.929 . S
O284 Tb240 2.465 . S
O284 C304 1.264 . S
O285 Tb240 2.387 1_554 S
O285 C296 1.264 . S
O286 Tb251 2.349 . S
O286 C296 1.243 . S
O287 Tb240 2.428 . S
O287 C304 1.256 . S
O288 Tb240 2.308 1_554 S
O288 C303 1.266 . S
O289 Tb251 2.393 . S
O289 C303 1.248 . S
O290 Tb251 2.465 . S
O290 C315 1.264 . S
O291 Tb251 2.387 1_556 S
O291 C307 1.264 . S
O292 Tb240 2.349 . S
O292 C307 1.243 . S
O293 Tb251 2.428 . S
O293 C315 1.256 . S
O294 Tb251 2.308 . S
O294 C314 1.266 . S
O295 Tb240 2.402 . S
O295 C314 1.228 1_556 S
C296 O285 1.264 . S
C296 O286 1.243 . S
C297 C300 1.399 . S
C297 C302 1.383 . S
C297 C304 1.496 . S
C298 C299 1.399 . S
C298 C302 1.389 . S
C299 C298 1.399 . S
C299 C301 1.380 . S
C299 H316 0.929 . S
C300 C297 1.399 . S
C300 C301 1.392 . S
C300 H317 0.929 . S
C301 C299 1.380 . S
C301 C300 1.392 . S
C301 H318 0.929 . S
C302 C297 1.383 . S
C302 C298 1.389 . S
C302 H319 0.931 . S
C303 O288 1.266 . S
C303 O289 1.248 . S
C304 Tb240 2.802 . S
C304 O284 1.264 . S
C304 O287 1.256 . S
C304 C297 1.496 . S
C305 C272 1.448 . S
C305 H282 0.930 . S
C305 C306 1.328 . S
C306 C277 1.427 . S
C306 H283 0.929 . S
C306 C305 1.328 . S
C307 O291 1.264 . S
C307 O292 1.243 . S
C308 C311 1.399 . S
C308 C312 1.383 . S
C308 C315 1.496 . S
C309 C310 1.399 . S
C309 C312 1.389 . S
C310 C309 1.399 . S
C310 C313 1.380 . S
C310 H320 0.929 . S
C311 C308 1.399 . S
C311 C313 1.392 . S
C311 H321 0.929 . S
C312 C308 1.383 . S
C312 C309 1.389 . S
C312 H322 0.931 . S
C313 C310 1.380 . S
C313 C311 1.392 . S
C313 H323 0.929 . S
C314 O294 1.266 . S
C314 O295 1.228 1_554 S
C315 Tb251 2.802 . S
C315 O290 1.264 . S
C315 O293 1.256 . S
C315 C308 1.496 . S
H316 C299 0.929 . S
H317 C300 0.929 . S
H318 C301 0.929 . S
H319 C302 0.931 . S
H320 C310 0.929 . S
H321 C311 0.929 . S
H322 C312 0.931 . S
H323 C313 0.929 . S
H324 C330 0.930 . S
H325 C334 0.930 . S
H326 C339 0.929 . S
H327 C337 0.929 . S
H328 C332 0.929 . S
H329 C338 0.929 . S
C330 H324 0.930 . S
C330 C331 1.367 . S
C330 C338 1.378 . S
C331 C330 1.367 . S
C331 C339 1.433 . S
C332 H328 0.929 . S
C332 C334 1.378 . S
C332 C336 1.350 . S
C333 C336 1.463 . S
C333 C338 1.350 . S
C333 N341 1.427 . S
C334 H325 0.930 . S
C334 C332 1.378 . S
C334 C335 1.367 . S
C335 C334 1.367 . S
C335 C337 1.433 . S
C336 C332 1.350 . S
C336 C333 1.463 . S
C336 N340 1.427 . S
C337 H327 0.929 . S
C337 C335 1.433 . S
C337 N340 1.384 . S
C338 H329 0.929 . S
C338 C330 1.378 . S
C338 C333 1.350 . S
C339 H326 0.929 . S
C339 C331 1.433 . S
C339 N341 1.384 . S
N340 C336 1.427 . S
N340 C337 1.384 . S
N341 C333 1.427 . S
N341 C339 1.384 . S
H342 C348 0.930 . S
H343 C352 0.935 . S
H344 C357 0.929 . S
H345 C355 0.929 . S
H346 C350 0.929 . S
H347 C356 0.929 . S
C348 H342 0.930 . S
C348 C349 1.367 . S
C348 C356 1.378 . S
C349 C348 1.367 . S
C349 C357 1.433 . S
C350 H346 0.929 . S
C350 C352 1.378 . S
C350 C354 1.350 . S
C351 C354 1.463 . S
C351 C356 1.350 . S
C351 N359 1.427 . S
C352 H343 0.935 . S
C352 C350 1.378 . S
C352 C353 1.367 . S
C353 C352 1.367 . S
C353 C355 1.433 . S
C354 C350 1.350 . S
C354 C351 1.463 . S
C354 N358 1.427 . S
C355 H345 0.929 . S
C355 C353 1.433 . S
C355 N358 1.384 . S
C356 H347 0.929 . S
C356 C348 1.378 . S
C356 C351 1.350 . S
C357 H344 0.929 . S
C357 C349 1.433 . S
C357 N359 1.384 . S
N358 C354 1.427 . S
N358 C355 1.384 . S
N359 C351 1.427 . S
N359 C357 1.384 . S
H360 C366 0.930 . S
H361 C370 0.930 . S
H362 C375 0.929 . S
H363 C373 0.929 . S
H364 C368 0.929 . S
H365 C374 0.929 . S
C366 H360 0.930 . S
C366 C367 1.367 . S
C366 C374 1.378 . S
C367 C366 1.367 . S
C367 C375 1.433 . S
C368 H364 0.929 . S
C368 C370 1.378 . S
C368 C372 1.350 . S
C369 C372 1.463 . S
C369 C374 1.350 . S
C369 N377 1.427 . S
C370 H361 0.930 . S
C370 C368 1.378 . S
C370 C371 1.367 . S
C371 C370 1.367 . S
C371 C373 1.433 . S
C372 C368 1.350 . S
C372 C369 1.463 . S
C372 N376 1.427 . S
C373 H363 0.929 . S
C373 C371 1.433 . S
C373 N376 1.384 . S
C374 H365 0.929 . S
C374 C366 1.378 . S
C374 C369 1.350 . S
C375 H362 0.929 . S
C375 C367 1.433 . S
C375 N377 1.384 . S
N376 C372 1.427 . S
N376 C373 1.384 . S
N377 C369 1.427 . S
N377 C375 1.384 . S
H378 C384 0.930 . S
H379 C388 0.930 . S
H380 C393 0.929 . S
H381 C391 0.929 . S
H382 C386 0.929 . S
H383 C392 0.929 . S
C384 H378 0.930 . S
C384 C385 1.367 . S
C384 C392 1.378 . S
C385 C384 1.367 . S
C385 C393 1.433 1_554 S
C386 H382 0.929 . S
C386 C388 1.378 . S
C386 C390 1.350 1_556 S
C387 C390 1.463 . S
C387 C392 1.350 . S
C387 N395 1.427 1_554 S
C388 H379 0.930 . S
C388 C386 1.378 . S
C388 C389 1.367 1_556 S
C389 C388 1.367 1_554 S
C389 C391 1.433 . S
C390 C386 1.350 1_554 S
C390 C387 1.463 . S
C390 N394 1.427 . S
C391 H381 0.929 . S
C391 C389 1.433 . S
C391 N394 1.384 . S
C392 H383 0.929 . S
C392 C384 1.378 . S
C392 C387 1.350 . S
C393 H380 0.929 . S
C393 C385 1.433 1_556 S
C393 N395 1.384 . S
N394 C390 1.427 . S
N394 C391 1.384 . S
N395 C387 1.427 1_556 S
N395 C393 1.384 . S
H396 C402 0.930 . S
H397 C406 0.930 1_545 S
H398 C411 0.929 . S
H399 C409 0.929 . S
H400 C404 0.929 . S
H401 C410 0.929 . S
C402 H396 0.930 . S
C402 C403 1.367 . S
C402 C410 1.378 . S
C403 C402 1.367 . S
C403 C411 1.433 . S
C404 H400 0.929 . S
C404 C406 1.378 . S
C404 C408 1.350 . S
C405 C408 1.463 . S
C405 C410 1.350 . S
C405 N413 1.427 . S
C406 H397 0.930 1_565 S
C406 C404 1.378 . S
C406 C407 1.367 . S
C407 C406 1.367 . S
C407 C409 1.433 . S
C408 C404 1.350 . S
C408 C405 1.463 . S
C408 N412 1.427 . S
C409 H399 0.929 . S
C409 C407 1.433 . S
C409 N412 1.384 . S
C410 H401 0.929 . S
C410 C402 1.378 . S
C410 C405 1.350 . S
C411 H398 0.929 . S
C411 C403 1.433 . S
C411 N413 1.384 . S
N412 C408 1.427 . S
N412 C409 1.384 . S
N413 C405 1.427 . S
N413 C411 1.384 . S
H414 C420 0.930 . S
H415 C424 0.930 . S
H416 C429 0.929 . S
H417 C427 0.929 . S
H418 C422 0.929 . S
H419 C428 0.929 . S
C420 H414 0.930 . S
C420 C421 1.367 . S
C420 C428 1.378 . S
C421 C420 1.367 . S
C421 C429 1.433 . S
C422 H418 0.929 . S
C422 C424 1.378 . S
C422 C426 1.350 . S
C423 C426 1.463 . S
C423 C428 1.350 . S
C423 N431 1.427 . S
C424 H415 0.930 . S
C424 C422 1.378 . S
C424 C425 1.367 . S
C425 C424 1.367 . S
C425 C427 1.433 . S
C426 C422 1.350 . S
C426 C423 1.463 . S
C426 N430 1.427 . S
C427 H417 0.929 . S
C427 C425 1.433 . S
C427 N430 1.384 . S
C428 H419 0.929 . S
C428 C420 1.378 . S
C428 C423 1.350 . S
C429 H416 0.929 . S
C429 C421 1.433 . S
C429 N431 1.384 . S
N430 C426 1.427 . S
N430 C427 1.384 . S
N431 C423 1.427 . S
N431 C429 1.384 . S
H432 C438 0.930 . S
H433 C442 0.930 . S
H434 C447 0.929 . S
H435 C445 0.929 . S
H436 C440 0.929 . S
H437 C446 0.929 . S
C438 H432 0.930 . S
C438 C439 1.367 . S
C438 C446 1.378 . S
C439 C438 1.367 . S
C439 C447 1.433 . S
C440 H436 0.929 . S
C440 C442 1.378 . S
C440 C444 1.350 . S
C441 C444 1.463 . S
C441 C446 1.350 . S
C441 N449 1.427 . S
C442 H433 0.930 . S
C442 C440 1.378 . S
C442 C443 1.367 . S
C443 C442 1.367 . S
C443 C445 1.433 . S
C444 C440 1.350 . S
C444 C441 1.463 . S
C444 N448 1.427 . S
C445 H435 0.929 . S
C445 C443 1.433 . S
C445 N448 1.384 . S
C446 H437 0.929 . S
C446 C438 1.378 . S
C446 C441 1.350 . S
C447 H434 0.929 . S
C447 C439 1.433 . S
C447 N449 1.384 . S
N448 C444 1.427 . S
N448 C445 1.384 . S
N449 C441 1.427 . S
N449 C447 1.384 . S
H450 C456 0.930 . S
H451 C460 0.930 . S
H452 C465 0.929 . S
H453 C463 0.929 . S
H454 C458 0.929 . S
H455 C464 0.929 . S
C456 H450 0.930 . S
C456 C457 1.367 . S
C456 C464 1.378 . S
C457 C456 1.367 . S
C457 C465 1.433 . S
C458 H454 0.929 . S
C458 C460 1.378 . S
C458 C462 1.350 . S
C459 C462 1.463 . S
C459 C464 1.350 . S
C459 N467 1.427 . S
C460 H451 0.930 . S
C460 C458 1.378 . S
C460 C461 1.367 . S
C461 C460 1.367 . S
C461 C463 1.433 . S
C462 C458 1.350 . S
C462 C459 1.463 . S
C462 N466 1.427 . S
C463 H453 0.929 . S
C463 C461 1.433 . S
C463 N466 1.384 . S
C464 H455 0.929 . S
C464 C456 1.378 . S
C464 C459 1.350 . S
C465 H452 0.929 . S
C465 C457 1.433 . S
C465 N467 1.384 . S
N466 C462 1.427 . S
N466 C463 1.384 . S
N467 C459 1.427 . S
N467 C465 1.384 . S
H468 C474 0.930 . S
H469 C478 0.930 . S
H470 C483 0.929 . S
H471 C481 0.929 . S
H472 C476 0.929 . S
H473 C482 0.929 . S
C474 H468 0.930 . S
C474 C475 1.367 . S
C474 C482 1.378 . S
C475 C474 1.367 . S
C475 C483 1.433 . S
C476 H472 0.929 . S
C476 C478 1.378 . S
C476 C480 1.350 . S
C477 C480 1.463 . S
C477 C482 1.350 . S
C477 N485 1.427 . S
C478 H469 0.930 . S
C478 C476 1.378 . S
C478 C479 1.367 . S
C479 C478 1.367 . S
C479 C481 1.433 . S
C480 C476 1.350 . S
C480 C477 1.463 . S
C480 N484 1.427 . S
C481 H471 0.929 . S
C481 C479 1.433 . S
C481 N484 1.384 . S
C482 H473 0.929 . S
C482 C474 1.378 . S
C482 C477 1.350 . S
C483 H470 0.929 . S
C483 C475 1.433 . S
C483 N485 1.384 . S
N484 C480 1.427 . S
N484 C481 1.384 . S
N485 C477 1.427 . S
N485 C483 1.384 . S
H486 C492 0.930 . S
H487 C496 0.930 . S
H488 C501 0.929 . S
H489 C499 0.929 . S
H490 C494 0.929 . S
H491 C500 0.929 . S
C492 H486 0.930 . S
C492 C493 1.367 . S
C492 C500 1.378 . S
C493 C492 1.367 . S
C493 C501 1.433 . S
C494 H490 0.929 . S
C494 C496 1.378 . S
C494 C498 1.350 . S
C495 C498 1.463 . S
C495 C500 1.350 . S
C495 N503 1.427 . S
C496 H487 0.930 . S
C496 C494 1.378 . S
C496 C497 1.367 . S
C497 C496 1.367 . S
C497 C499 1.433 . S
C498 C494 1.350 . S
C498 C495 1.463 . S
C498 N502 1.427 . S
C499 H489 0.929 . S
C499 C497 1.433 . S
C499 N502 1.384 . S
C500 H491 0.929 . S
C500 C492 1.378 . S
C500 C495 1.350 . S
C501 H488 0.929 . S
C501 C493 1.433 . S
C501 N503 1.384 . S
N502 C498 1.427 . S
N502 C499 1.384 . S
N503 C495 1.427 . S
N503 C501 1.384 . S
H504 C510 0.930 . S
H505 C514 0.930 . S
H506 C519 0.929 . S
H507 C517 0.929 . S
H508 C512 0.929 . S
H509 C518 0.929 . S
C510 H504 0.930 . S
C510 C511 1.367 . S
C510 C518 1.378 . S
C511 C510 1.367 . S
C511 C519 1.433 . S
C512 H508 0.929 . S
C512 C514 1.378 . S
C512 C516 1.350 . S
C513 C516 1.463 . S
C513 C518 1.350 . S
C513 N521 1.427 . S
C514 H505 0.930 . S
C514 C512 1.378 . S
C514 C515 1.367 . S
C515 C514 1.367 . S
C515 C517 1.433 . S
C516 C512 1.350 . S
C516 C513 1.463 . S
C516 N520 1.427 . S
C517 H507 0.929 . S
C517 C515 1.433 . S
C517 N520 1.384 . S
C518 H509 0.929 . S
C518 C510 1.378 . S
C518 C513 1.350 . S
C519 H506 0.929 . S
C519 C511 1.433 . S
C519 N521 1.384 . S
N520 C516 1.427 . S
N520 C517 1.384 . S
N521 C513 1.427 . S
N521 C519 1.384 . S
H522 C528 0.930 . S
H523 C532 0.930 1_545 S
H524 C537 0.929 . S
H525 C535 0.929 . S
H526 C530 0.929 1_545 S
H527 C536 0.929 . S
C528 H522 0.930 . S
C528 C529 1.367 . S
C528 C536 1.378 . S
C529 C528 1.367 . S
C529 C537 1.433 . S
C530 H526 0.929 1_565 S
C530 C532 1.378 . S
C530 C534 1.350 . S
C531 C534 1.463 . S
C531 C536 1.350 . S
C531 N539 1.427 . S
C532 H523 0.930 1_565 S
C532 C530 1.378 . S
C532 C533 1.367 . S
C533 C532 1.367 . S
C533 C535 1.433 . S
C534 C530 1.350 . S
C534 C531 1.463 . S
C534 N538 1.427 . S
C535 H525 0.929 . S
C535 C533 1.433 . S
C535 N538 1.384 . S
C536 H527 0.929 . S
C536 C528 1.378 . S
C536 C531 1.350 . S
C537 H524 0.929 . S
C537 C529 1.433 . S
C537 N539 1.384 . S
N538 C534 1.427 . S
N538 C535 1.384 . S
N539 C531 1.427 . S
N539 C537 1.384 . S
C335 C219 1.633 . S
C331 C138 1.632 . S
C349 C21 1.614 . S
C353 C314 1.621 . S
C367 C60 1.631 . S
C371 C230 1.640 . S
C385 C99 1.624 . S
C389 C303 1.628 . S
C407 C214 1.427 . S
C403 C16 1.554 . S
C425 C307 1.615 . S
C421 C40 1.602 . S
C439 C79 1.603 . S
C443 C223 1.622 . S
C457 C133 1.542 . S
C461 C298 1.394 . S
C479 C309 1.406 . S
C475 C55 1.540 . S
C497 C225 1.405 . S
C493 C94 1.556 . S
C515 C296 1.615 . S
C511 C118 1.606 . S
C529 C1 1.594 . S
C533 C212 1.621 . S
