# Generated by pormake.
# Topology zzz, (3,6)-cn, num edge types: 1
# Building blocks:
#     Node 0, Type 0, BuildingBlock: MIDCAF_clean_linker_0, # of connection points: 3
#     Node 1, Type 0, BuildingBlock: MIDCAF_clean_linker_0, # of connection points: 3
#     Node 2, Type 0, BuildingBlock: MIDCAF_clean_linker_0, # of connection points: 3
#     Node 3, Type 0, BuildingBlock: MIDCAF_clean_linker_0, # of connection points: 3
#     Node 4, Type 0, BuildingBlock: MIDCAF_clean_linker_0, # of connection points: 3
#     Node 5, Type 0, BuildingBlock: MIDCAF_clean_linker_0, # of connection points: 3
#     Node 6, Type 0, BuildingBlock: MIDCAF_clean_linker_0, # of connection points: 3
#     Node 7, Type 0, BuildingBlock: MIDCAF_clean_linker_0, # of connection points: 3
#     Node 8, Type 1, BuildingBlock: VOLQOD_clean_sbu_1, # of connection points: 6
#     Node 9, Type 1, BuildingBlock: VOLQOD_clean_sbu_1, # of connection points: 6
#     Node 10, Type 1, BuildingBlock: VOLQOD_clean_sbu_1, # of connection points: 6
#     Node 11, Type 1, BuildingBlock: VOLQOD_clean_sbu_1, # of connection points: 6
#     Edge 12, Type (0, 1), None
#     Edge 13, Type (0, 1), None
#     Edge 14, Type (0, 1), None
#     Edge 15, Type (0, 1), None
#     Edge 16, Type (0, 1), None
#     Edge 17, Type (0, 1), None
#     Edge 18, Type (0, 1), None
#     Edge 19, Type (0, 1), None
#     Edge 20, Type (0, 1), None
#     Edge 21, Type (0, 1), None
#     Edge 22, Type (0, 1), None
#     Edge 23, Type (0, 1), None
#     Edge 24, Type (0, 1), None
#     Edge 25, Type (0, 1), None
#     Edge 26, Type (0, 1), None
#     Edge 27, Type (0, 1), None
#     Edge 28, Type (0, 1), None
#     Edge 29, Type (0, 1), None
#     Edge 30, Type (0, 1), None
#     Edge 31, Type (0, 1), None
#     Edge 32, Type (0, 1), None
#     Edge 33, Type (0, 1), None
#     Edge 34, Type (0, 1), None
#     Edge 35, Type (0, 1), None
# Relax obj value: 0.360
# Max RMSD: 0.259
# Mean RMSD: 0.209
data_MOF--net-zzz--node1-VOLQOD_clean_sbu_1--node2-MIDCAF_clean_linker_0--edge1-none
_symmetry_space_group_name_H-M    P1
_symmetry_Int_Tables_number       1
_symmetry_cell_setting            triclinic
loop_
_symmetry_equiv_pos_as_xyz
'x, y, z'
_cell_length_a     32.09805
_cell_length_b     31.643068
_cell_length_c     12.690887
_cell_angle_alpha  90.089975
_cell_angle_beta   90.171028
_cell_angle_gamma 92.522945
loop_
_atom_site_label
_atom_site_type_symbol
_atom_site_fract_x
_atom_site_fract_y
_atom_site_fract_z
_atom_type_partial_charge
C0 C 0.86138 0.52513 0.52798 0.0
C1 C 0.89768 0.54988 0.50455 0.0
C2 C 0.89871 0.57397 0.4118 0.0
C3 C 0.86708 0.56782 0.33626 0.0
H4 H 0.71997 0.55714 0.11084 0.0
H5 H 0.65905 0.56084 0.9938 0.0
H6 H 0.66918 0.42848 0.91725 0.0
H7 H 0.72902 0.42505 0.03239 0.0
H8 H 0.83323 0.42169 0.94497 0.0
H9 H 0.89245 0.41358 0.82986 0.0
H10 H 0.97637 0.4428 0.0895 0.0
H11 H 0.91714 0.45033 0.20518 0.0
H12 H 0.80494 0.49567 0.46737 0.0
H13 H 0.85957 0.50654 0.5996 0.0
H14 H 0.92624 0.59327 0.39162 0.0
H15 H 0.87154 0.58191 0.2591 0.0
N16 N 0.78068 0.51445 0.21919 0.0
N17 N 0.79861 0.46284 0.09501 0.0
N18 N 0.84718 0.48601 0.22113 0.0
C19 C 0.77011 0.48904 0.13508 0.0
C20 C 0.83716 0.46102 0.13779 0.0
C21 C 0.81953 0.51247 0.26237 0.0
C22 C 0.72943 0.49089 0.08023 0.0
C23 C 0.7085 0.5288 0.07028 0.0
C24 C 0.67392 0.53098 0.00246 0.0
C25 C 0.65963 0.49518 0.94431 0.0
C26 C 0.6795 0.45692 0.95913 0.0
C27 C 0.71387 0.45487 0.02575 0.0
C28 C 0.87052 0.43915 0.08253 0.0
C29 C 0.86425 0.4247 0.97874 0.0
C30 C 0.89838 0.41989 0.9126 0.0
C31 C 0.93902 0.42987 0.9495 0.0
C32 C 0.94532 0.43638 0.05795 0.0
C33 C 0.91124 0.4409 0.12421 0.0
C34 C 0.83406 0.53788 0.35319 0.0
C35 C 0.82965 0.51938 0.45294 0.0
C36 C 0.96328 0.85442 0.42013 0.0
C37 C 0.98475 0.86147 0.51543 0.0
C38 C 0.01559 0.83356 0.54513 0.0
C39 C 0.02933 0.80365 0.47305 0.0
H40 H 0.03787 0.66532 0.19616 0.0
H41 H 0.03003 0.60297 0.08112 0.0
H42 H 0.04135 0.68389 0.80766 0.0
H43 H 0.04982 0.74532 0.9215 0.0
H44 H 0.12071 0.82254 0.9567 0.0
H45 H 0.1196 0.88317 0.83902 0.0
H46 H 0.07725 0.96066 0.0931 0.0
H47 H 0.07896 0.90068 0.21238 0.0
H48 H 0.96242 0.82243 0.27148 0.0
H49 H 0.93964 0.87573 0.39519 0.0
H50 H 0.033 0.8387 0.61766 0.0
H51 H 0.05713 0.78683 0.4913 0.0
N52 N 0.03243 0.75283 0.22837 0.0
N53 N 0.07633 0.78087 0.09513 0.0
N54 N 0.06189 0.82201 0.24172 0.0
C55 C 0.05248 0.74808 0.13461 0.0
C56 C 0.0814 0.81794 0.1482 0.0
C57 C 0.03788 0.78984 0.28279 0.0
C58 C 0.04486 0.71009 0.06792 0.0
C59 C 0.03834 0.66959 0.11149 0.0
C60 C 0.03399 0.63398 0.04557 0.0
C61 C 0.03517 0.63846 0.93506 0.0
C62 C 0.04023 0.6792 0.89216 0.0
C63 C 0.04535 0.71446 0.95766 0.0
C64 C 0.0981 0.85623 0.09277 0.0
C65 C 0.11322 0.85293 0.98928 0.0
C66 C 0.11304 0.88776 0.92188 0.0
C67 C 0.09796 0.92615 0.95737 0.0
C68 C 0.0892 0.93127 0.06452 0.0
C69 C 0.08983 0.89663 0.13243 0.0
C70 C 0.01142 0.80053 0.37222 0.0
C71 C 0.97617 0.82369 0.34961 0.0
C72 C 0.68002 0.96681 0.48209 0.0
C73 C 0.64404 0.94356 0.4483 0.0
C74 C 0.64282 0.92693 0.34577 0.0
C75 C 0.67441 0.93797 0.27427 0.0
H76 H 0.82655 0.95113 0.09 0.0
H77 H 0.88993 0.94612 0.98341 0.0
H78 H 0.87846 0.07578 0.88447 0.0
H79 H 0.81602 0.08051 0.98921 0.0
H80 H 0.7111 0.07459 0.89027 0.0
H81 H 0.65161 0.0742 0.77146 0.0
H82 H 0.5678 0.05945 0.03469 0.0
H83 H 0.62716 0.05962 0.15491 0.0
H84 H 0.73577 0.00136 0.43336 0.0
H85 H 0.68153 0.98035 0.56055 0.0
H86 H 0.61544 0.90898 0.31781 0.0
H87 H 0.67023 0.92877 0.19246 0.0
N88 N 0.7631 0.99311 0.1815 0.0
N89 N 0.74648 0.04414 0.05473 0.0
N90 N 0.69642 0.02098 0.17636 0.0
C91 C 0.77474 0.01848 0.09856 0.0
C92 C 0.70726 0.04567 0.09333 0.0
C93 C 0.7238 0.99505 0.22119 0.0
C94 C 0.81613 0.01614 0.04763 0.0
C95 C 0.8381 0.97864 0.04661 0.0
C96 C 0.87416 0.97568 0.9848 0.0
C97 C 0.88905 0.01032 0.92394 0.0
C98 C 0.86787 0.04823 0.92915 0.0
C99 C 0.83194 0.05102 0.98964 0.0
C100 C 0.6739 0.06511 0.03155 0.0
C101 C 0.68011 0.07357 0.92396 0.0
C102 C 0.64598 0.07369 0.85564 0.0
C103 C 0.60543 0.06615 0.89435 0.0
C104 C 0.59886 0.06544 0.00333 0.0
C105 C 0.63301 0.06504 0.07189 0.0
C106 C 0.7072 0.96648 0.30353 0.0
C107 C 0.71131 0.97861 0.40956 0.0
C108 C 0.46264 0.57066 0.06536 0.0
C109 C 0.45456 0.57687 0.95814 0.0
C110 C 0.4411 0.61612 0.92409 0.0
C111 C 0.44224 0.65059 0.99294 0.0
H112 H 0.57331 0.80579 0.09856 0.0
H113 H 0.57791 0.86292 0.96734 0.0
H114 H 0.44523 0.84624 0.91111 0.0
H115 H 0.44099 0.7901 0.04011 0.0
H116 H 0.51713 0.72105 0.48441 0.0
H117 H 0.53708 0.66823 0.61316 0.0
H118 H 0.61576 0.6124 0.38094 0.0
H119 H 0.59691 0.66607 0.25406 0.0
H120 H 0.47447 0.6002 0.2144 0.0
H121 H 0.47326 0.54056 0.09295 0.0
H122 H 0.43493 0.62149 0.84128 0.0
H123 H 0.43613 0.68147 0.96124 0.0
N124 N 0.47836 0.72176 0.10461 0.0
N125 N 0.52952 0.74716 0.22521 0.0
N126 N 0.50131 0.67739 0.23655 0.0
C127 C 0.50415 0.75383 0.14081 0.0
C128 C 0.52719 0.70887 0.27443 0.0
C129 C 0.47678 0.68335 0.15166 0.0
C130 C 0.50681 0.79343 0.07904 0.0
C131 C 0.54515 0.81518 0.05944 0.0
C132 C 0.54783 0.84748 0.98346 0.0
C133 C 0.51214 0.85858 0.9267 0.0
C134 C 0.47359 0.8382 0.95142 0.0
C135 C 0.47102 0.80608 0.02614 0.0
C136 C 0.55552 0.69751 0.35965 0.0
C137 C 0.54125 0.69962 0.46383 0.0
C138 C 0.55249 0.6691 0.5373 0.0
C139 C 0.57731 0.63579 0.50604 0.0
C140 C 0.5965 0.63768 0.40684 0.0
C141 C 0.58598 0.66867 0.33446 0.0
C142 C 0.4575 0.64611 0.09615 0.0
C143 C 0.46375 0.60509 0.13451 0.0
C144 C 0.20621 0.50266 0.84346 0.0
C145 C 0.17292 0.47492 0.8734 0.0
C146 C 0.1745 0.45465 0.97141 0.0
C147 C 0.20628 0.46563 0.04307 0.0
H148 H 0.37666 0.51665 0.18168 0.0
H149 H 0.43766 0.5015 0.29038 0.0
H150 H 0.36248 0.50995 0.57098 0.0
H151 H 0.30248 0.52599 0.46334 0.0
H152 H 0.23687 0.60134 0.44579 0.0
H153 H 0.17639 0.60367 0.55991 0.0
H154 H 0.09484 0.58504 0.29213 0.0
H155 H 0.15506 0.58289 0.17647 0.0
H156 H 0.25951 0.54021 0.89709 0.0
H157 H 0.20532 0.51917 0.76879 0.0
H158 H 0.14901 0.43346 0.9965 0.0
H159 H 0.20422 0.45298 0.12232 0.0
N160 N 0.28871 0.5148 0.15778 0.0
N161 N 0.27086 0.56095 0.29456 0.0
N162 N 0.22608 0.55051 0.15116 0.0
C163 C 0.29822 0.53427 0.25141 0.0
C164 C 0.23479 0.56956 0.24459 0.0
C165 C 0.25267 0.52357 0.10695 0.0
C166 C 0.33497 0.52276 0.31409 0.0
C167 C 0.37332 0.51494 0.2665 0.0
C168 C 0.40816 0.50637 0.32878 0.0
C169 C 0.40489 0.50439 0.43944 0.0
C170 C 0.36611 0.51098 0.48617 0.0
C171 C 0.33175 0.52048 0.4244 0.0
C172 C 0.20089 0.58979 0.30267 0.0
C173 C 0.20618 0.59993 0.40989 0.0
C174 C 0.17148 0.60179 0.47545 0.0
C175 C 0.13123 0.59399 0.43449 0.0
C176 C 0.12566 0.59135 0.3252 0.0
C177 C 0.16036 0.58956 0.25929 0.0
C178 C 0.23621 0.49781 0.01878 0.0
C179 C 0.2374 0.51457 0.91654 0.0
C180 C 0.09652 0.15031 0.93186 0.0
C181 C 0.07065 0.15034 0.84257 0.0
C182 C 0.04774 0.18628 0.82156 0.0
C183 C 0.04535 0.21832 0.89689 0.0
H184 H 0.95981 0.3152 0.31279 0.0
H185 H 0.96582 0.3747 0.43242 0.0
H186 H 0.09854 0.38647 0.37423 0.0
H187 H 0.09211 0.32602 0.25235 0.0
H188 H 0.94813 0.20812 0.39894 0.0
H189 H 0.93411 0.1481 0.51388 0.0
H190 H 0.96732 0.06314 0.26366 0.0
H191 H 0.98077 0.1231 0.14815 0.0
H192 H 0.10889 0.17815 0.08325 0.0
H193 H 0.11454 0.12306 0.94987 0.0
H194 H 0.02792 0.18732 0.7524 0.0
H195 H 0.02287 0.24248 0.88525 0.0
N196 N 0.0457 0.26604 0.13234 0.0
N197 N 0.99476 0.24452 0.25702 0.0
N198 N 0.01487 0.19719 0.12836 0.0
C199 C 0.02163 0.27491 0.21754 0.0
C200 C 0.99113 0.20559 0.21275 0.0
C201 C 0.04185 0.22686 0.0876 0.0
C202 C 0.02551 0.31583 0.27374 0.0
C203 C 0.99024 0.33077 0.32432 0.0
C204 C 0.9938 0.36488 0.39354 0.0
C205 C 0.03287 0.38494 0.41502 0.0
C206 C 0.06806 0.3714 0.36042 0.0
C207 C 0.06436 0.33714 0.28986 0.0
C208 C 0.96786 0.17049 0.26647 0.0
C209 C 0.95099 0.17661 0.36704 0.0
C210 C 0.94278 0.14203 0.433 0.0
C211 C 0.95175 0.101 0.39948 0.0
C212 C 0.96137 0.09448 0.29297 0.0
C213 C 0.96935 0.12903 0.2268 0.0
C214 C 0.06523 0.21434 0.99454 0.0
C215 C 0.09367 0.18219 0.0078 0.0
C216 C 0.33544 0.9853 0.80751 0.0
C217 C 0.36976 0.01344 0.8277 0.0
C218 C 0.36806 0.04092 0.91439 0.0
C219 C 0.33579 0.03562 0.98808 0.0
H220 H 0.1669 0.98928 0.15992 0.0
H221 H 0.10783 0.00225 0.27657 0.0
H222 H 0.19016 0.99939 0.54647 0.0
H223 H 0.24826 0.98567 0.43086 0.0
H224 H 0.30511 0.89601 0.40039 0.0
H225 H 0.36554 0.88601 0.51104 0.0
H226 H 0.44654 0.91053 0.24468 0.0
H227 H 0.38613 0.91958 0.13313 0.0
H228 H 0.28036 0.95429 0.87031 0.0
H229 H 0.33553 0.96415 0.74028 0.0
H230 H 0.39394 0.06296 0.93189 0.0
H231 H 0.3382 0.05308 0.06155 0.0
N232 N 0.25565 0.99214 0.12524 0.0
N233 N 0.27352 0.94517 0.26041 0.0
N234 N 0.31568 0.95246 0.1121 0.0
C235 C 0.24709 0.97351 0.22029 0.0
C236 C 0.30774 0.93417 0.20638 0.0
C237 C 0.2901 0.98106 0.0709 0.0
C238 C 0.21198 0.98628 0.2865 0.0
C239 C 0.17222 0.99206 0.24403 0.0
C240 C 0.13849 0.99926 0.31092 0.0
C241 C 0.14426 0.00171 0.42104 0.0
C242 C 0.18452 0.99776 0.46233 0.0
C243 C 0.21783 0.98974 0.39602 0.0
C244 C 0.34091 0.91103 0.25953 0.0
C245 C 0.33566 0.89751 0.3642 0.0
C246 C 0.37047 0.89152 0.42769 0.0
C247 C 0.41083 0.89963 0.38744 0.0
C248 C 0.41578 0.90539 0.27849 0.0
C249 C 0.38098 0.91078 0.21466 0.0
C250 C 0.30499 0.00297 0.97554 0.0
C251 C 0.30333 0.9801 0.881 0.0
C252 C 0.58996 0.40282 0.30139 0.0
C253 C 0.59822 0.39709 0.40898 0.0
C254 C 0.60509 0.35606 0.44598 0.0
C255 C 0.59673 0.32105 0.38108 0.0
H256 H 0.51647 0.21763 0.43758 0.0
H257 H 0.50759 0.15408 0.54316 0.0
H258 H 0.50331 0.07804 0.25963 0.0
H259 H 0.51158 0.14262 0.15302 0.0
H260 H 0.54138 0.25977 0.88377 0.0
H261 H 0.53552 0.31611 0.75483 0.0
H262 H 0.43904 0.3704 0.9411 0.0
H263 H 0.445 0.31364 0.06979 0.0
H264 H 0.57209 0.3734 0.15598 0.0
H265 H 0.58547 0.43411 0.2699 0.0
H266 H 0.6123 0.35053 0.52811 0.0
H267 H 0.59819 0.28974 0.41492 0.0
N268 N 0.551 0.25407 0.27101 0.0
N269 N 0.50636 0.23175 0.13193 0.0
N270 N 0.54113 0.29875 0.1285 0.0
C271 C 0.5249 0.224 0.22661 0.0
C272 C 0.51481 0.26947 0.08305 0.0
C273 C 0.55961 0.2914 0.22194 0.0
C274 C 0.51498 0.185 0.28711 0.0
C275 C 0.51321 0.18738 0.39755 0.0
C276 C 0.50795 0.15089 0.45817 0.0
C277 C 0.50505 0.11087 0.41008 0.0
C278 C 0.50564 0.10842 0.29914 0.0
C279 C 0.51015 0.14529 0.23803 0.0
C280 C 0.49376 0.28251 0.98656 0.0
C281 C 0.51682 0.2819 0.89315 0.0
C282 C 0.5139 0.31468 0.82029 0.0
C283 C 0.48776 0.34837 0.83996 0.0
C284 C 0.45959 0.34502 0.92418 0.0
C285 C 0.46266 0.31217 0.99732 0.0
C286 C 0.58196 0.32665 0.278 0.0
C287 C 0.58207 0.36785 0.23619 0.0
O288 O 0.11527 0.01557 0.58988 0.0
Zn289 Zn 0.07794 0.02155 0.71711 0.0
O290 O 0.01911 0.00769 0.67762 0.0
Zn291 Zn 0.98554 0.05569 0.70609 0.0
Zn292 Zn 0.01472 0.99464 0.52732 0.0
Zn293 Zn 0.99625 0.95938 0.75834 0.0
O294 O 0.93952 0.04132 0.80788 0.0
O295 O 0.94369 0.97281 0.84083 0.0
O296 O 0.08546 0.08161 0.77622 0.0
O297 O 0.02073 0.10334 0.76569 0.0
O298 O 0.96118 0.07918 0.57536 0.0
O299 O 0.98099 0.03638 0.44869 0.0
O300 O 0.99214 0.93525 0.50375 0.0
O301 O 0.09762 0.98101 0.82908 0.0
O302 O 0.987 0.90757 0.66435 0.0
O303 O 0.03898 0.94313 0.86253 0.0
C304 C 0.10846 0.00591 0.49349 0.0
C305 C 0.92608 0.0078 0.85429 0.0
C306 C 0.96224 0.0689 0.47863 0.0
C307 C 0.05905 0.11019 0.78827 0.0
C308 C 0.98503 0.90375 0.56443 0.0
C309 C 0.07721 0.95263 0.88092 0.0
O310 O 0.07165 0.99747 0.45959 0.0
O311 O 0.49698 0.0758 0.57507 0.0
Zn312 Zn 0.49602 0.03567 0.69879 0.0
O313 O 0.50934 0.97852 0.64782 0.0
Zn314 Zn 0.46372 0.93921 0.68282 0.0
Zn315 Zn 0.51638 0.97794 0.49535 0.0
Zn316 Zn 0.56015 0.95894 0.71411 0.0
O317 O 0.4803 0.89879 0.79407 0.0
O318 O 0.54826 0.91066 0.81856 0.0
O319 O 0.43818 0.03636 0.76769 0.0
O320 O 0.41617 0.96977 0.74122 0.0
O321 O 0.43957 0.90824 0.55818 0.0
O322 O 0.47227 0.94063 0.42553 0.0
O323 O 0.57292 0.95817 0.45616 0.0
O324 O 0.54056 0.05876 0.80146 0.0
O325 O 0.60478 0.9451 0.6076 0.0
O326 O 0.58523 0.00687 0.79581 0.0
C327 C 0.50371 0.07227 0.47647 0.0
C328 C 0.51399 0.89092 0.84181 0.0
C329 C 0.44455 0.91417 0.45993 0.0
C330 C 0.40967 0.00701 0.77279 0.0
C331 C 0.60473 0.94677 0.50729 0.0
C332 C 0.57531 0.04337 0.82594 0.0
O333 O 0.51162 0.03676 0.4353 0.0
O334 O 0.43661 0.48648 0.60263 0.0
Zn335 Zn 0.47577 0.47846 0.72604 0.0
O336 O 0.53382 0.49395 0.68281 0.0
Zn337 Zn 0.5693 0.44745 0.7118 0.0
Zn338 Zn 0.53619 0.50523 0.53199 0.0
Zn339 Zn 0.55618 0.54385 0.75901 0.0
O340 O 0.61338 0.4631 0.81848 0.0
O341 O 0.60636 0.53125 0.85153 0.0
O342 O 0.46988 0.41732 0.77978 0.0
O343 O 0.53554 0.39858 0.76828 0.0
O344 O 0.59491 0.42395 0.58245 0.0
O345 O 0.56628 0.4605 0.45466 0.0
O346 O 0.56292 0.56249 0.50299 0.0
O347 O 0.45678 0.51784 0.84157 0.0
O348 O 0.56968 0.5931 0.66021 0.0
O349 O 0.51196 0.56288 0.85473 0.0
C350 C 0.44187 0.49773 0.50688 0.0
C351 C 0.62464 0.49684 0.86756 0.0
C352 C 0.58879 0.43069 0.48508 0.0
C353 C 0.49752 0.3898 0.78993 0.0
C354 C 0.5724 0.59464 0.56012 0.0
C355 C 0.47526 0.55057 0.88135 0.0
O356 O 0.47818 0.50578 0.46981 0.0
O357 O 0.96625 0.57013 0.5692 0.0
Zn358 Zn 0.02398 0.56726 0.63894 0.0
O359 O 0.0355 0.50898 0.68526 0.0
Zn360 Zn 0.04432 0.50676 0.83731 0.0
Zn361 Zn 0.98809 0.47159 0.65079 0.0
Zn362 Zn 0.08475 0.4879 0.61496 0.0
O363 O 0.10141 0.48738 0.87203 0.0
O364 O 0.13129 0.47558 0.7177 0.0
O365 O 0.02642 0.60623 0.76599 0.0
O366 O 0.04018 0.56477 0.90188 0.0
O367 O 1.00135 0.46889 0.90839 0.0
O368 O 0.96368 0.44181 0.77624 0.0
O369 O 0.00269 0.42932 0.54159 0.0
O370 O 0.06863 0.58975 0.53648 0.0
O371 O 0.0709 0.43798 0.51677 0.0
O372 O 0.10881 0.53421 0.52721 0.0
C373 C 0.93678 0.54182 0.56181 0.0
C374 C 0.13266 0.47688 0.81794 0.0
C375 C 0.97138 0.44492 0.87428 0.0
C376 C 0.03312 0.60106 0.86425 0.0
C377 C 0.03591 0.41921 0.49517 0.0
C378 C 0.10077 0.57187 0.50248 0.0
O379 O 0.94177 0.50409 0.59184 0.0
loop_
_geom_bond_atom_site_label_1
_geom_bond_atom_site_label_2
_geom_bond_distance
_geom_bond_site_symmetry_2
_ccdc_geom_bond_type
C0 C1 1.384 . S
C0 H13 0.947 . S
C0 C35 1.382 . S
C1 C0 1.384 . S
C1 C2 1.378 . S
C2 C1 1.378 . S
C2 C3 1.378 . S
C2 H14 0.952 . S
C3 C2 1.378 . S
C3 H15 0.950 . S
C3 C34 1.383 . S
H4 C23 0.947 . S
H5 C24 0.946 . S
H6 C26 0.953 . S
H7 C27 0.945 . S
H8 C29 0.952 . S
H9 C30 0.949 . S
H10 C32 0.950 . S
H11 C33 0.948 . S
H12 C35 0.951 . S
H13 C0 0.947 . S
H14 C2 0.952 . S
H15 C3 0.950 . S
N16 C19 1.382 . S
N16 C21 1.363 . S
N17 C19 1.371 1_556 S
N17 C20 1.372 . S
N18 C20 1.361 1_554 S
N18 C21 1.377 . S
C19 N16 1.382 . S
C19 N17 1.371 1_554 S
C19 C22 1.480 1_554 S
C20 N17 1.372 . S
C20 N18 1.361 1_556 S
C20 C28 1.457 . S
C21 N16 1.363 . S
C21 N18 1.377 . S
C21 C34 1.479 . S
C22 C19 1.480 1_556 S
C22 C23 1.383 1_556 S
C22 C27 1.385 . S
C23 H4 0.947 . S
C23 C22 1.383 1_554 S
C23 C24 1.388 . S
C24 H5 0.946 . S
C24 C23 1.388 . S
C24 C25 1.384 1_554 S
C25 C24 1.384 1_556 S
C25 C26 1.377 . S
C26 H6 0.953 . S
C26 C25 1.377 . S
C26 C27 1.369 . S
C27 H7 0.945 . S
C27 C22 1.385 . S
C27 C26 1.369 . S
C28 C20 1.457 . S
C28 C29 1.372 . S
C28 C33 1.364 . S
C29 H8 0.952 . S
C29 C28 1.372 . S
C29 C30 1.389 . S
C30 H9 0.949 . S
C30 C29 1.389 . S
C30 C31 1.387 . S
C31 C30 1.387 . S
C31 C32 1.372 . S
C32 H10 0.950 . S
C32 C31 1.372 . S
C32 C33 1.379 . S
C33 H11 0.948 . S
C33 C28 1.364 . S
C33 C32 1.379 . S
C34 C3 1.383 . S
C34 C21 1.479 . S
C34 C35 1.398 . S
C35 C0 1.382 . S
C35 H12 0.951 . S
C35 C34 1.398 . S
C36 C37 1.384 . S
C36 H49 0.947 . S
C36 C71 1.382 . S
C37 C36 1.384 . S
C37 C38 1.378 . S
C38 C37 1.378 . S
C38 C39 1.377 1_655 S
C38 H50 0.952 . S
C39 C38 1.377 1_455 S
C39 H51 0.951 . S
C39 C70 1.383 1_455 S
H40 C59 0.947 . S
H41 C60 0.946 . S
H42 C62 0.953 . S
H43 C63 0.945 1_455 S
H44 C65 0.952 . S
H45 C66 0.949 . S
H46 C68 0.950 . S
H47 C69 0.948 1_554 S
H48 C71 0.951 . S
H49 C36 0.947 . S
H50 C38 0.952 . S
H51 C39 0.951 . S
N52 C55 1.382 . S
N52 C57 1.363 1_655 S
N53 C55 1.371 1_556 S
N53 C56 1.372 1_656 S
N54 C56 1.361 1_655 S
N54 C57 1.376 1_655 S
C55 N52 1.382 . S
C55 N53 1.371 1_554 S
C55 C58 1.480 . S
C56 N53 1.372 1_454 S
C56 N54 1.361 1_455 S
C56 C64 1.457 1_554 S
C57 N52 1.363 1_455 S
C57 N54 1.376 1_455 S
C57 C70 1.479 1_455 S
C58 C55 1.480 . S
C58 C59 1.383 . S
C58 C63 1.385 1_554 S
C59 H40 0.947 . S
C59 C58 1.383 . S
C59 C60 1.388 . S
C60 H41 0.946 . S
C60 C59 1.388 . S
C60 C61 1.384 1_554 S
C61 C60 1.384 1_556 S
C61 C62 1.377 . S
C62 H42 0.953 . S
C62 C61 1.377 . S
C62 C63 1.369 . S
C63 H43 0.945 1_655 S
C63 C58 1.385 1_556 S
C63 C62 1.369 . S
C64 C56 1.457 1_556 S
C64 C65 1.372 1_455 S
C64 C69 1.364 . S
C65 H44 0.952 . S
C65 C64 1.372 1_655 S
C65 C66 1.389 . S
C66 H45 0.949 . S
C66 C65 1.389 . S
C66 C67 1.387 . S
C67 C66 1.387 . S
C67 C68 1.372 1_655 S
C68 H46 0.950 . S
C68 C67 1.372 1_455 S
C68 C69 1.379 . S
C69 H47 0.948 1_556 S
C69 C64 1.364 . S
C69 C68 1.379 . S
C70 C39 1.383 1_655 S
C70 C57 1.479 1_655 S
C70 C71 1.398 . S
C71 C36 1.382 . S
C71 H48 0.951 . S
C71 C70 1.398 . S
C72 C73 1.384 . S
C72 H85 0.947 1_545 S
C72 C107 1.382 . S
C73 C72 1.384 . S
C73 C74 1.378 . S
C74 C73 1.378 . S
C74 C75 1.378 . S
C74 H86 0.952 . S
C75 C74 1.378 . S
C75 H87 0.950 . S
C75 C106 1.383 . S
H76 C95 0.947 . S
H77 C96 0.946 . S
H78 C98 0.953 . S
H79 C99 0.945 . S
H80 C101 0.952 1_565 S
H81 C102 0.949 . S
H82 C104 0.950 . S
H83 C105 0.948 1_554 S
H84 C107 0.950 1_565 S
H85 C72 0.947 1_565 S
H86 C74 0.952 . S
H87 C75 0.950 . S
N88 C91 1.382 . S
N88 C93 1.363 . S
N89 C91 1.371 1_556 S
N89 C92 1.372 . S
N90 C92 1.361 1_554 S
N90 C93 1.377 . S
C91 N88 1.382 . S
C91 N89 1.371 1_554 S
C91 C94 1.480 . S
C92 N89 1.372 . S
C92 N90 1.361 1_556 S
C92 C100 1.457 . S
C93 N88 1.363 . S
C93 N90 1.377 . S
C93 C106 1.479 . S
C94 C91 1.480 . S
C94 C95 1.383 . S
C94 C99 1.385 1_554 S
C95 H76 0.947 . S
C95 C94 1.383 . S
C95 C96 1.388 1_545 S
C96 H77 0.946 . S
C96 C95 1.388 1_565 S
C96 C97 1.384 1_564 S
C97 C96 1.384 1_546 S
C97 C98 1.377 . S
C98 H78 0.953 . S
C98 C97 1.377 . S
C98 C99 1.369 . S
C99 H79 0.945 . S
C99 C94 1.385 1_556 S
C99 C98 1.369 . S
C100 C92 1.457 . S
C100 C101 1.372 . S
C100 C105 1.364 . S
C101 H80 0.952 1_545 S
C101 C100 1.372 . S
C101 C102 1.389 1_545 S
C102 H81 0.949 . S
C102 C101 1.389 1_565 S
C102 C103 1.387 1_565 S
C103 C102 1.387 1_545 S
C103 C104 1.372 . S
C104 H82 0.950 . S
C104 C103 1.372 . S
C104 C105 1.379 . S
C105 H83 0.948 1_556 S
C105 C100 1.364 . S
C105 C104 1.379 . S
C106 C75 1.383 . S
C106 C93 1.479 . S
C106 C107 1.399 . S
C107 C72 1.382 . S
C107 H84 0.950 1_545 S
C107 C106 1.399 . S
C108 C109 1.384 . S
C108 H121 0.947 . S
C108 C143 1.382 . S
C109 C108 1.384 . S
C109 C110 1.378 . S
C110 C109 1.378 . S
C110 C111 1.378 . S
C110 H122 0.952 . S
C111 C110 1.378 . S
C111 H123 0.950 . S
C111 C142 1.383 . S
H112 C131 0.947 . S
H113 C132 0.946 . S
H114 C134 0.953 . S
H115 C135 0.945 . S
H116 C137 0.952 . S
H117 C138 0.949 . S
H118 C140 0.950 . S
H119 C141 0.948 . S
H120 C143 0.951 . S
H121 C108 0.947 . S
H122 C110 0.952 . S
H123 C111 0.950 . S
N124 C127 1.382 1_556 S
N124 C129 1.363 . S
N125 C127 1.371 . S
N125 C128 1.372 . S
N126 C128 1.361 . S
N126 C129 1.377 1_554 S
C127 N124 1.382 1_554 S
C127 N125 1.371 . S
C127 C130 1.480 . S
C128 N125 1.372 . S
C128 N126 1.361 . S
C128 C136 1.457 . S
C129 N124 1.363 . S
C129 N126 1.377 1_556 S
C129 C142 1.479 . S
C130 C127 1.480 . S
C130 C131 1.383 1_554 S
C130 C135 1.385 . S
C131 H112 0.947 . S
C131 C130 1.383 1_556 S
C131 C132 1.388 . S
C132 H113 0.946 . S
C132 C131 1.388 . S
C132 C133 1.384 . S
C133 C132 1.384 . S
C133 C134 1.377 1_556 S
C134 H114 0.953 . S
C134 C133 1.377 1_554 S
C134 C135 1.369 . S
C135 H115 0.945 . S
C135 C130 1.385 . S
C135 C134 1.369 . S
C136 C128 1.457 . S
C136 C137 1.372 . S
C136 C141 1.364 . S
C137 H116 0.952 . S
C137 C136 1.372 . S
C137 C138 1.389 . S
C138 H117 0.949 . S
C138 C137 1.389 . S
C138 C139 1.387 . S
C139 C138 1.387 . S
C139 C140 1.372 . S
C140 H118 0.950 . S
C140 C139 1.372 . S
C140 C141 1.379 . S
C141 H119 0.948 . S
C141 C136 1.364 . S
C141 C140 1.379 . S
C142 C111 1.383 . S
C142 C129 1.479 . S
C142 C143 1.398 . S
C143 C108 1.382 . S
C143 H120 0.951 . S
C143 C142 1.398 . S
C144 C145 1.384 . S
C144 H157 0.947 . S
C144 C179 1.382 1_556 S
C145 C144 1.384 . S
C145 C146 1.378 . S
C146 C145 1.378 . S
C146 C147 1.378 . S
C146 H158 0.952 . S
C147 C146 1.378 . S
C147 H159 0.950 . S
C147 C178 1.383 1_556 S
H148 C167 0.947 . S
H149 C168 0.946 . S
H150 C170 0.953 . S
H151 C171 0.945 . S
H152 C173 0.952 . S
H153 C174 0.949 . S
H154 C176 0.950 . S
H155 C177 0.948 . S
H156 C179 0.951 . S
H157 C144 0.947 . S
H158 C146 0.952 . S
H159 C147 0.950 . S
N160 C163 1.382 . S
N160 C165 1.363 . S
N161 C163 1.371 . S
N161 C164 1.372 . S
N162 C164 1.361 . S
N162 C165 1.377 . S
C163 N160 1.382 . S
C163 N161 1.371 . S
C163 C166 1.480 . S
C164 N161 1.372 . S
C164 N162 1.361 . S
C164 C172 1.457 . S
C165 N160 1.363 . S
C165 N162 1.377 . S
C165 C178 1.479 . S
C166 C163 1.480 . S
C166 C167 1.383 . S
C166 C171 1.385 . S
C167 H148 0.947 . S
C167 C166 1.383 . S
C167 C168 1.388 . S
C168 H149 0.946 . S
C168 C167 1.388 . S
C168 C169 1.384 . S
C169 C168 1.384 . S
C169 C170 1.377 . S
C170 H150 0.953 . S
C170 C169 1.377 . S
C170 C171 1.369 . S
C171 H151 0.945 . S
C171 C166 1.385 . S
C171 C170 1.369 . S
C172 C164 1.457 . S
C172 C173 1.372 . S
C172 C177 1.364 . S
C173 H152 0.952 . S
C173 C172 1.372 . S
C173 C174 1.389 . S
C174 H153 0.949 . S
C174 C173 1.389 . S
C174 C175 1.387 . S
C175 C174 1.387 . S
C175 C176 1.372 . S
C176 H154 0.950 . S
C176 C175 1.372 . S
C176 C177 1.379 . S
C177 H155 0.948 . S
C177 C172 1.364 . S
C177 C176 1.379 . S
C178 C147 1.383 1_554 S
C178 C165 1.479 . S
C178 C179 1.398 . S
C179 C144 1.382 1_554 S
C179 H156 0.951 . S
C179 C178 1.398 . S
C180 C181 1.392 . S
C180 H193 0.950 . S
C180 C215 1.371 1_556 S
C181 C180 1.392 . S
C181 C182 1.378 . S
C182 C181 1.378 . S
C182 C183 1.378 1_556 S
C182 H194 0.952 . S
C183 C182 1.378 1_554 S
C183 H195 0.950 . S
C183 C214 1.383 . S
H184 C203 0.947 . S
H185 C204 0.946 . S
H186 C206 0.953 . S
H187 C207 0.945 . S
H188 C209 0.952 . S
H189 C210 0.949 . S
H190 C212 0.950 . S
H191 C213 0.948 . S
H192 C215 0.951 . S
H193 C180 0.950 . S
H194 C182 0.952 . S
H195 C183 0.950 . S
N196 C199 1.382 . S
N196 C201 1.363 . S
N197 C199 1.371 . S
N197 C200 1.372 . S
N198 C200 1.361 . S
N198 C201 1.377 . S
C199 N196 1.382 . S
C199 N197 1.371 . S
C199 C202 1.480 . S
C200 N197 1.372 . S
C200 N198 1.361 . S
C200 C208 1.457 . S
C201 N196 1.363 . S
C201 N198 1.377 . S
C201 C214 1.479 . S
C202 C199 1.480 . S
C202 C203 1.383 . S
C202 C207 1.385 . S
C203 H184 0.947 . S
C203 C202 1.383 . S
C203 C204 1.388 . S
C204 H185 0.946 . S
C204 C203 1.388 . S
C204 C205 1.384 . S
C205 C204 1.384 . S
C205 C206 1.377 . S
C206 H186 0.953 . S
C206 C205 1.377 . S
C206 C207 1.369 . S
C207 H187 0.945 . S
C207 C202 1.385 . S
C207 C206 1.369 . S
C208 C200 1.457 . S
C208 C209 1.372 . S
C208 C213 1.364 . S
C209 H188 0.952 . S
C209 C208 1.372 . S
C209 C210 1.389 . S
C210 H189 0.949 . S
C210 C209 1.389 . S
C210 C211 1.387 . S
C211 C210 1.387 . S
C211 C212 1.372 . S
C212 H190 0.950 . S
C212 C211 1.372 . S
C212 C213 1.379 . S
C213 H191 0.948 . S
C213 C208 1.364 . S
C213 C212 1.379 . S
C214 C183 1.383 . S
C214 C201 1.479 . S
C214 C215 1.398 . S
C215 C180 1.371 1_554 S
C215 H192 0.951 . S
C215 C214 1.398 . S
C216 C217 1.384 . S
C216 H229 0.947 1_545 S
C216 C251 1.382 1_556 S
C217 C216 1.384 . S
C217 C218 1.378 . S
C218 C217 1.378 . S
C218 C219 1.378 . S
C218 H230 0.952 . S
C219 C218 1.378 . S
C219 H231 0.950 1_556 S
C219 C250 1.383 1_556 S
H220 C239 0.947 . S
H221 C240 0.946 . S
H222 C242 0.953 . S
H223 C243 0.945 . S
H224 C245 0.952 1_565 S
H225 C246 0.953 . S
H226 C248 0.950 . S
H227 C249 0.948 . S
H228 C251 0.949 1_565 S
H229 C216 0.947 1_565 S
H230 C218 0.952 . S
H231 C219 0.950 1_554 S
N232 C235 1.382 . S
N232 C237 1.363 . S
N233 C235 1.371 . S
N233 C236 1.372 . S
N234 C236 1.361 . S
N234 C237 1.377 . S
C235 N232 1.382 . S
C235 N233 1.371 . S
C235 C238 1.480 . S
C236 N233 1.372 . S
C236 N234 1.361 . S
C236 C244 1.457 . S
C237 N232 1.363 . S
C237 N234 1.377 . S
C237 C250 1.479 . S
C238 C235 1.480 . S
C238 C239 1.383 . S
C238 C243 1.385 . S
C239 H220 0.947 . S
C239 C238 1.383 . S
C239 C240 1.388 1_545 S
C240 H221 0.946 . S
C240 C239 1.388 1_565 S
C240 C241 1.384 1_565 S
C241 C240 1.384 1_545 S
C241 C242 1.377 . S
C242 H222 0.953 . S
C242 C241 1.377 . S
C242 C243 1.369 . S
C243 H223 0.945 . S
C243 C238 1.385 . S
C243 C242 1.369 . S
C244 C236 1.457 . S
C244 C245 1.372 . S
C244 C249 1.364 . S
C245 H224 0.952 1_545 S
C245 C244 1.372 . S
C245 C246 1.387 1_545 S
C246 H225 0.953 . S
C246 C245 1.387 1_565 S
C246 C247 1.385 1_565 S
C247 C246 1.385 1_545 S
C247 C248 1.372 . S
C248 H226 0.950 . S
C248 C247 1.372 . S
C248 C249 1.379 . S
C249 H227 0.948 . S
C249 C244 1.364 . S
C249 C248 1.379 . S
C250 C219 1.383 1_554 S
C250 C237 1.479 . S
C250 C251 1.401 . S
C251 C216 1.382 1_554 S
C251 H228 0.949 1_545 S
C251 C250 1.401 . S
C252 C253 1.384 . S
C252 H265 0.947 . S
C252 C287 1.382 . S
C253 C252 1.384 . S
C253 C254 1.378 . S
C254 C253 1.378 . S
C254 C255 1.378 . S
C254 H266 0.952 . S
C255 C254 1.378 . S
C255 H267 0.950 . S
C255 C286 1.383 . S
H256 C275 0.947 . S
H257 C276 0.946 . S
H258 C278 0.953 . S
H259 C279 0.945 . S
H260 C281 0.952 . S
H261 C282 0.949 . S
H262 C284 0.950 . S
H263 C285 0.948 . S
H264 C287 0.951 . S
H265 C252 0.947 . S
H266 C254 0.952 . S
H267 C255 0.950 . S
N268 C271 1.382 . S
N268 C273 1.363 . S
N269 C271 1.371 . S
N269 C272 1.372 . S
N270 C272 1.361 . S
N270 C273 1.377 . S
C271 N268 1.382 . S
C271 N269 1.371 . S
C271 C274 1.480 . S
C272 N269 1.372 . S
C272 N270 1.361 . S
C272 C280 1.457 . S
C273 N268 1.363 . S
C273 N270 1.377 . S
C273 C286 1.479 . S
C274 C271 1.480 . S
C274 C275 1.383 . S
C274 C279 1.385 . S
C275 H256 0.947 . S
C275 C274 1.383 . S
C275 C276 1.388 . S
C276 H257 0.946 . S
C276 C275 1.388 . S
C276 C277 1.384 . S
C277 C276 1.384 . S
C277 C278 1.377 . S
C278 H258 0.953 . S
C278 C277 1.377 . S
C278 C279 1.369 . S
C279 H259 0.945 . S
C279 C274 1.385 . S
C279 C278 1.369 . S
C280 C272 1.457 . S
C280 C281 1.372 1_554 S
C280 C285 1.364 . S
C281 H260 0.952 . S
C281 C280 1.372 1_556 S
C281 C282 1.389 . S
C282 H261 0.949 . S
C282 C281 1.389 . S
C282 C283 1.387 . S
C283 C282 1.387 . S
C283 C284 1.372 . S
C284 H262 0.950 . S
C284 C283 1.372 . S
C284 C285 1.379 1_556 S
C285 H263 0.948 . S
C285 C280 1.364 . S
C285 C284 1.379 1_554 S
C286 C255 1.383 . S
C286 C273 1.479 . S
C286 C287 1.398 . S
C287 C252 1.382 . S
C287 H264 0.951 . S
C287 C286 1.398 . S
O288 Zn289 1.953 . S
O288 C304 1.225 . S
Zn289 O288 1.953 . S
Zn289 O290 1.949 . S
Zn289 O296 1.919 1_565 S
Zn289 O301 1.924 . S
O290 Zn289 1.949 . S
O290 Zn291 1.923 1_565 S
O290 Zn292 1.950 . S
O290 Zn293 1.945 1_455 S
Zn291 O290 1.923 1_545 S
Zn291 O294 1.933 1_455 S
Zn291 O297 1.941 . S
Zn291 O298 1.965 . S
Zn292 O290 1.950 . S
Zn292 O299 1.938 1_565 S
Zn292 O300 1.906 . S
Zn292 O310 1.953 . S
Zn293 O290 1.945 1_655 S
Zn293 O295 1.932 . S
Zn293 O302 1.977 . S
Zn293 O303 1.910 1_655 S
O294 Zn291 1.933 1_655 S
O294 C305 1.226 . S
O295 Zn293 1.932 . S
O295 C305 1.307 1_565 S
O296 Zn289 1.919 1_545 S
O296 C307 1.253 . S
O297 Zn291 1.941 . S
O297 C307 1.283 . S
O298 Zn291 1.965 . S
O298 C306 1.303 . S
O299 Zn292 1.938 1_545 S
O299 C306 1.247 . S
O300 Zn292 1.906 . S
O300 C308 1.304 1_455 S
O301 Zn289 1.924 . S
O301 C309 1.311 . S
O302 Zn293 1.977 . S
O302 C308 1.272 . S
O303 Zn293 1.910 1_455 S
O303 C309 1.231 . S
C304 O288 1.225 . S
C304 O310 1.298 . S
C305 O294 1.226 . S
C305 O295 1.307 1_545 S
C306 O298 1.303 . S
C306 O299 1.247 . S
C307 O296 1.253 . S
C307 O297 1.283 . S
C308 O300 1.304 1_655 S
C308 O302 1.272 . S
C309 O301 1.311 . S
C309 O303 1.231 . S
O310 Zn292 1.953 . S
O310 C304 1.298 . S
O311 Zn312 1.953 . S
O311 C327 1.225 . S
Zn312 O311 1.953 . S
Zn312 O313 1.949 . S
Zn312 O319 1.919 . S
Zn312 O324 1.924 . S
O313 Zn312 1.949 . S
O313 Zn314 1.923 1_545 S
O313 Zn315 1.950 . S
O313 Zn316 1.945 1_545 S
Zn314 O313 1.923 1_565 S
Zn314 O317 1.933 . S
Zn314 O320 1.941 . S
Zn314 O321 1.965 . S
Zn315 O313 1.950 . S
Zn315 O322 1.938 . S
Zn315 O323 1.906 1_545 S
Zn315 O333 1.953 . S
Zn316 O313 1.945 1_565 S
Zn316 O318 1.932 . S
Zn316 O325 1.977 . S
Zn316 O326 1.910 1_565 S
O317 Zn314 1.933 . S
O317 C328 1.226 . S
O318 Zn316 1.932 . S
O318 C328 1.307 . S
O319 Zn312 1.919 . S
O319 C330 1.253 . S
O320 Zn314 1.941 . S
O320 C330 1.283 1_565 S
O321 Zn314 1.965 . S
O321 C329 1.303 . S
O322 Zn315 1.938 . S
O322 C329 1.247 1_545 S
O323 Zn315 1.906 1_565 S
O323 C331 1.304 . S
O324 Zn312 1.924 . S
O324 C332 1.311 . S
O325 Zn316 1.977 . S
O325 C331 1.272 . S
O326 Zn316 1.910 1_545 S
O326 C332 1.231 . S
C327 O311 1.225 . S
C327 O333 1.298 . S
C328 O317 1.226 . S
C328 O318 1.307 . S
C329 O321 1.303 . S
C329 O322 1.247 1_565 S
C330 O319 1.253 . S
C330 O320 1.283 1_545 S
C331 O323 1.304 . S
C331 O325 1.272 . S
C332 O324 1.311 . S
C332 O326 1.231 . S
O333 Zn315 1.953 . S
O333 C327 1.298 . S
O334 Zn335 1.953 . S
O334 C350 1.225 . S
Zn335 O334 1.953 . S
Zn335 O336 1.949 . S
Zn335 O342 1.919 . S
Zn335 O347 1.924 . S
O336 Zn335 1.949 . S
O336 Zn337 1.923 . S
O336 Zn338 1.950 . S
O336 Zn339 1.945 . S
Zn337 O336 1.923 . S
Zn337 O340 1.933 . S
Zn337 O343 1.941 . S
Zn337 O344 1.965 . S
Zn338 O336 1.950 . S
Zn338 O345 1.938 . S
Zn338 O346 1.906 . S
Zn338 O356 1.953 . S
Zn339 O336 1.945 . S
Zn339 O341 1.932 . S
Zn339 O348 1.977 . S
Zn339 O349 1.910 . S
O340 Zn337 1.933 . S
O340 C351 1.226 . S
O341 Zn339 1.932 . S
O341 C351 1.307 . S
O342 Zn335 1.919 . S
O342 C353 1.253 . S
O343 Zn337 1.941 . S
O343 C353 1.283 . S
O344 Zn337 1.965 . S
O344 C352 1.303 . S
O345 Zn338 1.938 . S
O345 C352 1.247 . S
O346 Zn338 1.906 . S
O346 C354 1.304 . S
O347 Zn335 1.924 . S
O347 C355 1.311 . S
O348 Zn339 1.977 . S
O348 C354 1.272 . S
O349 Zn339 1.910 . S
O349 C355 1.231 . S
C350 O334 1.225 . S
C350 O356 1.298 . S
C351 O340 1.226 . S
C351 O341 1.307 . S
C352 O344 1.303 . S
C352 O345 1.247 . S
C353 O342 1.253 . S
C353 O343 1.283 . S
C354 O346 1.304 . S
C354 O348 1.272 . S
C355 O347 1.311 . S
C355 O349 1.231 . S
O356 Zn338 1.953 . S
O356 C350 1.298 . S
O357 Zn358 1.953 1_655 S
O357 C373 1.225 . S
Zn358 O357 1.953 1_455 S
Zn358 O359 1.949 . S
Zn358 O365 1.919 . S
Zn358 O370 1.924 . S
O359 Zn358 1.949 . S
O359 Zn360 1.923 . S
O359 Zn361 1.950 1_455 S
O359 Zn362 1.945 . S
Zn360 O359 1.923 . S
Zn360 O363 1.933 . S
Zn360 O366 1.941 1_455 S
Zn360 O367 1.965 1_455 S
Zn361 O359 1.950 1_655 S
Zn361 O368 1.938 . S
Zn361 O369 1.906 . S
Zn361 O379 1.953 . S
Zn362 O359 1.945 . S
Zn362 O364 1.932 . S
Zn362 O371 1.977 . S
Zn362 O372 1.910 . S
O363 Zn360 1.933 . S
O363 C374 1.226 . S
O364 Zn362 1.932 . S
O364 C374 1.307 . S
O365 Zn358 1.919 . S
O365 C376 1.254 . S
O366 Zn360 1.941 1_655 S
O366 C376 1.280 1_655 S
O367 Zn360 1.965 1_655 S
O367 C375 1.303 . S
O368 Zn361 1.938 . S
O368 C375 1.247 . S
O369 Zn361 1.906 . S
O369 C377 1.304 1_655 S
O370 Zn358 1.924 . S
O370 C378 1.311 . S
O371 Zn362 1.977 . S
O371 C377 1.272 . S
O372 Zn362 1.910 . S
O372 C378 1.231 . S
C373 O357 1.225 . S
C373 O379 1.298 . S
C374 O363 1.226 . S
C374 O364 1.307 . S
C375 O367 1.303 . S
C375 O368 1.247 . S
C376 O365 1.254 . S
C376 O366 1.280 1_455 S
C377 O369 1.304 1_455 S
C377 O371 1.272 . S
C378 O370 1.311 . S
C378 O372 1.231 . S
O379 Zn361 1.953 . S
O379 C373 1.298 . S
C241 C304 2.993 1_545 S
C327 C277 3.423 . S
C350 C169 2.837 . S
C377 C205 2.784 . S
C305 C97 2.417 . S
C133 C328 2.995 . S
C25 C351 2.496 . S
C61 C376 2.814 1_655 S
C306 C211 2.506 . S
C329 C247 1.437 1_565 S
C352 C253 1.776 . S
C175 C378 1.464 . S
C67 C309 1.855 1_655 S
C332 C103 1.712 . S
C355 C109 2.409 . S
C31 C375 0.953 . S
C181 C307 3.146 . S
C217 C330 3.117 . S
C353 C283 3.149 . S
C374 C145 3.132 . S
C37 C308 3.457 . S
C331 C73 3.084 1_565 S
C354 C139 3.041 . S
C1 C373 3.432 . S
