# Generated by pormake.
# Topology rtl, (3,6)-cn, num edge types: 1
# Building blocks:
#     Node 0, Type 0, BuildingBlock: BELTOD_clean_linker_0, # of connection points: 3
#     Node 1, Type 0, BuildingBlock: BELTOD_clean_linker_0, # of connection points: 3
#     Node 2, Type 0, BuildingBlock: BELTOD_clean_linker_0, # of connection points: 3
#     Node 3, Type 0, BuildingBlock: BELTOD_clean_linker_0, # of connection points: 3
#     Node 4, Type 1, BuildingBlock: FUNLAD_clean_sbu_0, # of connection points: 6
#     Node 5, Type 1, BuildingBlock: FUNLAD_clean_sbu_0, # of connection points: 6
#     Edge 6, Type (0, 1), BuildingBlock: ZUJKAS_clean_linker_0, # of connection points: 2
#     Edge 7, Type (0, 1), BuildingBlock: ZUJKAS_clean_linker_0, # of connection points: 2
#     Edge 8, Type (0, 1), BuildingBlock: ZUJKAS_clean_linker_0, # of connection points: 2
#     Edge 9, Type (0, 1), BuildingBlock: ZUJKAS_clean_linker_0, # of connection points: 2
#     Edge 10, Type (0, 1), BuildingBlock: ZUJKAS_clean_linker_0, # of connection points: 2
#     Edge 11, Type (0, 1), BuildingBlock: ZUJKAS_clean_linker_0, # of connection points: 2
#     Edge 12, Type (0, 1), BuildingBlock: ZUJKAS_clean_linker_0, # of connection points: 2
#     Edge 13, Type (0, 1), BuildingBlock: ZUJKAS_clean_linker_0, # of connection points: 2
#     Edge 14, Type (0, 1), BuildingBlock: ZUJKAS_clean_linker_0, # of connection points: 2
#     Edge 15, Type (0, 1), BuildingBlock: ZUJKAS_clean_linker_0, # of connection points: 2
#     Edge 16, Type (0, 1), BuildingBlock: ZUJKAS_clean_linker_0, # of connection points: 2
#     Edge 17, Type (0, 1), BuildingBlock: ZUJKAS_clean_linker_0, # of connection points: 2
# Relax obj value: 0.024
# Max RMSD: 0.078
# Mean RMSD: 0.068
data_MOF--net-rtl--node1-FUNLAD_clean_sbu_0--node2-BELTOD_clean_linker_0--edge1-ZUJKAS_clean_linker_0
_symmetry_space_group_name_H-M    P1
_symmetry_Int_Tables_number       1
_symmetry_cell_setting            triclinic
loop_
_symmetry_equiv_pos_as_xyz
'x, y, z'
_cell_length_a     56.517993
_cell_length_b     46.952972
_cell_length_c     32.912656
_cell_angle_alpha  89.156062
_cell_angle_beta   90.94447
_cell_angle_gamma 90.611737
loop_
_atom_site_label
_atom_site_type_symbol
_atom_site_fract_x
_atom_site_fract_y
_atom_site_fract_z
_atom_type_partial_charge
P0 P 0.15308 0.7987 0.01833 0.0
H1 H 0.16707 0.82148 0.09716 0.0
H2 H 0.14475 0.83165 0.15791 0.0
H3 H 0.08291 0.79099 0.1046 0.0
H4 H 0.1054 0.78133 0.0434 0.0
H5 H 0.19071 0.7816 0.96575 0.0
H6 H 0.21444 0.73867 0.96223 0.0
H7 H 0.17329 0.69991 0.05821 0.0
H8 H 0.14964 0.74325 0.06174 0.0
H9 H 0.11926 0.84347 0.00281 0.0
H10 H 0.14247 0.76829 0.94175 0.0
O11 O 0.17323 0.82492 0.01661 0.0
H12 H 0.09391 0.85561 0.94456 0.0
H13 H 0.11706 0.78033 0.88323 0.0
C14 C 0.13769 0.80132 0.06551 0.0
C15 C 0.14879 0.81444 0.09874 0.0
C16 C 0.13603 0.82004 0.13364 0.0
C17 C 0.11193 0.81242 0.13596 0.0
C18 C 0.1013 0.7976 0.10346 0.0
C19 C 0.11414 0.79199 0.06855 0.0
C20 C 0.16865 0.76569 0.01426 0.0
C21 C 0.18667 0.76376 0.98581 0.0
C22 C 0.20009 0.73911 0.98362 0.0
C23 C 0.19575 0.71585 0.00996 0.0
C24 C 0.17719 0.71757 0.03779 0.0
C25 C 0.16364 0.7423 0.03977 0.0
C26 C 0.13268 0.80498 0.97671 0.0
C27 C 0.11861 0.82933 0.97708 0.0
C28 C 0.10403 0.83617 0.94383 0.0
C29 C 0.10343 0.81888 0.90931 0.0
C30 C 0.11727 0.79415 0.9093 0.0
C31 C 0.13177 0.78722 0.94282 0.0
P32 P 0.64506 0.71216 0.51817 0.0
H33 H 0.66063 0.68672 0.4431 0.0
H34 H 0.6398 0.67429 0.38025 0.0
H35 H 0.57677 0.71471 0.4233 0.0
H36 H 0.59778 0.72678 0.48656 0.0
H37 H 0.68383 0.73241 0.56902 0.0
H38 H 0.7083 0.77547 0.5672 0.0
H39 H 0.66468 0.80924 0.46909 0.0
H40 H 0.64033 0.76579 0.4709 0.0
H41 H 0.60834 0.66984 0.53164 0.0
H42 H 0.63662 0.74312 0.59417 0.0
O43 O 0.66512 0.68658 0.52449 0.0
H44 H 0.58291 0.65896 0.58895 0.0
H45 H 0.61109 0.73232 0.65188 0.0
C46 C 0.63052 0.70694 0.4698 0.0
C47 C 0.64239 0.69314 0.43886 0.0
C48 C 0.6305 0.68626 0.40276 0.0
C49 C 0.60653 0.69327 0.39693 0.0
C50 C 0.5951 0.7086 0.42719 0.0
C51 C 0.60707 0.71554 0.46328 0.0
C52 C 0.66056 0.74575 0.5197 0.0
C53 C 0.67937 0.74923 0.54744 0.0
C54 C 0.69322 0.77399 0.54657 0.0
C55 C 0.68849 0.79575 0.51785 0.0
C56 C 0.66892 0.79269 0.49122 0.0
C57 C 0.65497 0.76789 0.49229 0.0
C58 C 0.62414 0.70747 0.55836 0.0
C59 C 0.60867 0.68398 0.55735 0.0
C60 C 0.59407 0.67784 0.59013 0.0
C61 C 0.59489 0.69488 0.62489 0.0
C62 C 0.61013 0.71877 0.62554 0.0
C63 C 0.62467 0.72501 0.59249 0.0
P64 P 0.9029 0.29178 0.00113 0.0
H65 H 0.92053 0.30475 0.92002 0.0
H66 H 0.92834 0.27507 0.86134 0.0
H67 H 0.90377 0.20089 0.92822 0.0
H68 H 0.89575 0.23071 0.98646 0.0
H69 H 0.88296 0.34542 0.02696 0.0
H70 H 0.84274 0.36379 0.02672 0.0
H71 H 0.81693 0.28491 0.97522 0.0
H72 H 0.85738 0.26719 0.97423 0.0
H73 H 0.94575 0.28264 0.04982 0.0
H74 H 0.87263 0.25553 0.05264 0.0
O75 O 0.92174 0.31938 -0.00033 0.0
H76 H 0.95429 0.25319 0.11009 0.0
H77 H 0.88102 0.22617 0.11298 0.0
C78 C 0.90803 0.26984 0.95785 0.0
C79 C 0.91688 0.28209 0.92205 0.0
C80 C 0.92139 0.2651 0.88859 0.0
C81 C 0.91685 0.2356 0.89025 0.0
C82 C 0.90734 0.22356 0.92588 0.0
C83 C 0.90293 0.24057 0.95936 0.0
C84 C 0.87319 0.30518 -8e-05 0.0
C85 C 0.86866 0.33221 0.01523 0.0
C86 C 0.84559 0.34257 0.01546 0.0
C87 C 0.82652 0.32586 0.00091 0.0
C88 C 0.83119 0.29858 0.98596 0.0
C89 C 0.85433 0.28835 0.98549 0.0
C90 C 0.90849 0.2717 0.04722 0.0
C91 C 0.93146 0.27068 0.06376 0.0
C92 C 0.93632 0.25388 0.09823 0.0
C93 C 0.9183 0.23747 0.11637 0.0
C94 C 0.89529 0.23847 0.09956 0.0
C95 C 0.89043 0.25545 0.06525 0.0
P96 P 0.40948 0.20486 0.51671 0.0
H97 H 0.41664 0.19433 0.6034 0.0
H98 H 0.42336 0.22599 0.66105 0.0
H99 H 0.41859 0.29895 0.57986 0.0
H100 H 0.41204 0.26729 0.52257 0.0
H101 H 0.38812 0.15003 0.49556 0.0
H102 H 0.34734 0.13232 0.49537 0.0
H103 H 0.32381 0.21434 0.53598 0.0
H104 H 0.36476 0.23148 0.53735 0.0
H105 H 0.4537 0.21823 0.47632 0.0
H106 H 0.37935 0.23311 0.45477 0.0
O107 O 0.4278 0.17737 0.52215 0.0
H108 H 0.46313 0.24644 0.41553 0.0
H109 H 0.38861 0.26171 0.3946 0.0
C110 C 0.41439 0.22842 0.55867 0.0
C111 C 0.41716 0.21715 0.59808 0.0
C112 C 0.42081 0.23526 0.63098 0.0
C113 C 0.42168 0.26496 0.62492 0.0
C114 C 0.41843 0.27615 0.58538 0.0
C115 C 0.41467 0.25803 0.55258 0.0
C116 C 0.37946 0.19185 0.51718 0.0
C117 C 0.37419 0.16408 0.50477 0.0
C118 C 0.35081 0.15409 0.50431 0.0
C119 C 0.33224 0.17187 0.51577 0.0
C120 C 0.33767 0.19988 0.52773 0.0
C121 C 0.36108 0.20976 0.52841 0.0
C122 C 0.41584 0.22311 0.46963 0.0
C123 C 0.4394 0.22726 0.4582 0.0
C124 C 0.44476 0.24362 0.42369 0.0
C125 C 0.42661 0.25631 0.40019 0.0
C126 C 0.40298 0.25184 0.41163 0.0
C127 C 0.39765 0.2355 0.44616 0.0
C128 C 0.01091 0.97502 0.45111 0.0
N129 N 0.04771 0.04039 0.51086 0.0
C130 C 0.06669 0.02282 0.51049 0.0
C131 C 0.08963 0.03409 0.5105 0.0
C132 C 0.0931 0.06373 0.51118 0.0
C133 C 0.07321 0.08138 0.51195 0.0
C134 C 0.05055 0.0692 0.5116 0.0
Zn135 Zn 0.01449 0.02278 0.50984 0.0
C136 C 0.983 0.05065 0.44852 0.0
N137 N 0.94555 0.98495 0.50757 0.0
C138 C 0.94316 0.95611 0.50709 0.0
C139 C 0.92629 0.00211 0.50743 0.0
C140 C 0.9035 0.99033 0.50691 0.0
C141 C 0.90049 0.96059 0.50648 0.0
C142 C 0.92072 0.94344 0.50646 0.0
Zn143 Zn 0.97867 0.0027 0.50863 0.0
O144 O 0.02506 0.99363 0.46555 0.0
C145 C 0.01025 0.97487 0.56992 0.0
O146 O 0.98975 0.97387 0.46354 0.0
H147 H 0.92861 0.025 0.50785 0.0
H148 H 0.06406 -2e-05 0.51016 0.0
H149 H 0.9587 0.94287 0.50713 0.0
O150 O 0.02455 0.99372 0.55656 0.0
O151 O 0.98939 0.9735 0.55502 0.0
H152 H 0.03521 0.08277 0.51173 0.0
O153 O 0.96818 0.03167 0.55382 0.0
O154 O 0.00343 0.05168 0.55423 0.0
O155 O 0.96846 0.0322 0.46228 0.0
O156 O 0.00397 0.05156 0.46306 0.0
C157 C 0.98249 0.05037 0.56765 0.0
H158 H 0.10451 0.01974 0.51042 0.0
H159 H 0.07515 0.10435 0.51215 0.0
H160 H 0.88843 0.00436 0.50742 0.0
H161 H 0.91926 0.92045 0.5055 0.0
C162 C 0.48028 0.45268 0.9536 0.0
N163 N 0.54639 0.46346 0.01142 0.0
C164 C 0.54893 0.43477 0.00867 0.0
C165 C 0.57145 0.42289 0.0073 0.0
C166 C 0.59155 0.44069 0.00912 0.0
C167 C 0.58841 0.4702 0.01213 0.0
C168 C 0.56558 0.48119 0.01306 0.0
Zn169 Zn 0.51322 0.48038 0.01294 0.0
C170 C 0.5078 0.52904 0.95484 0.0
N171 N 0.44404 0.5159 0.01592 0.0
C172 C 0.42443 0.49882 0.01662 0.0
C173 C 0.44224 0.54475 0.01624 0.0
C174 C 0.42011 0.55753 0.01729 0.0
C175 C 0.39953 0.5405 0.01813 0.0
C176 C 0.40189 0.51074 0.01772 0.0
Zn177 Zn 0.47705 0.49865 0.01439 0.0
O178 O 0.50153 0.45253 0.96683 0.0
C179 C 0.48257 0.44994 0.0725 0.0
O180 O 0.46572 0.47003 0.96838 0.0
H181 H 0.45803 0.55795 0.01555 0.0
H182 H 0.53345 0.42104 0.00758 0.0
H183 H 0.42627 0.47592 0.0164 0.0
O184 O 0.50326 0.45008 0.05792 0.0
O185 O 0.46768 0.46824 0.05973 0.0
H186 H 0.56318 0.50395 0.015 0.0
O187 O 0.48892 0.52702 0.06032 0.0
O188 O 0.52439 0.50861 0.05895 0.0
O189 O 0.48701 0.52878 0.96898 0.0
O190 O 0.52268 0.51088 0.96803 0.0
C191 C 0.51019 0.52646 0.07345 0.0
H192 H 0.57312 0.39999 0.00538 0.0
H193 H 0.60345 0.48468 0.01315 0.0
H194 H 0.41916 0.58055 0.01683 0.0
H195 H 0.38651 0.4968 0.01869 0.0
H196 H 0.29743 0.18234 0.57055 0.0
H197 H 0.2565 0.16481 0.56925 0.0
H198 H 0.26979 0.1195 0.45914 0.0
H199 H 0.31054 0.13751 0.4594 0.0
H200 H 0.22139 0.17112 0.50032 0.0
H201 H 0.24252 0.05908 0.5434 0.0
H202 H 0.26259 0.08842 0.55357 0.0
H203 H 0.25949 0.07493 0.50301 0.0
C204 C 0.29162 0.16891 0.54577 0.0
C205 C 0.30734 0.16128 0.51513 0.0
C206 C 0.26827 0.1588 0.54525 0.0
C207 C 0.26029 0.14068 0.51434 0.0
C208 C 0.27578 0.13316 0.48356 0.0
H209 H 0.13004 0.0484 0.46405 0.0
H210 H 0.17026 0.06821 0.46443 0.0
C211 C 0.29909 0.14338 0.4839 0.0
C212 C 0.23568 0.12974 0.51411 0.0
H213 H 0.20275 0.06898 0.52588 0.0
C214 C 0.21722 0.14883 0.50603 0.0
C215 C 0.23047 0.10065 0.52141 0.0
C216 C 0.24974 0.0795 0.53113 0.0
C217 C 0.19356 0.13943 0.50427 0.0
C218 C 0.18829 0.1103 0.51185 0.0
C219 C 0.20683 0.09128 0.52007 0.0
C220 C 0.1637 0.09898 0.51114 0.0
C221 C 0.17455 0.16063 0.49322 0.0
C222 C 0.14671 0.10957 0.5375 0.0
C223 C 0.12369 0.09837 0.5372 0.0
C224 C 0.11736 0.07609 0.51097 0.0
C225 C 0.13446 0.06539 0.48484 0.0
C226 C 0.1574 0.07674 0.48494 0.0
H227 H 0.18193 0.17966 0.47725 0.0
H228 H 0.16063 0.15088 0.47352 0.0
H229 H 0.16613 0.16794 0.52139 0.0
H230 H 0.15134 0.1262 0.55873 0.0
H231 H 0.11099 0.10672 0.55811 0.0
H232 H 0.21314 0.68847 0.94415 0.0
H233 H 0.24389 0.6522 0.94409 0.0
H234 H 0.24537 0.65084 0.07515 0.0
H235 H 0.21474 0.68722 0.07548 0.0
H236 H 0.28833 0.66198 0.97759 0.0
H237 H 0.24712 0.56589 0.04779 0.0
H238 H 0.22993 0.59506 0.027 0.0
H239 H 0.24359 0.59775 0.07653 0.0
C240 C 0.21979 0.68016 0.97296 0.0
C241 C 0.21162 0.69085 0.00983 0.0
C242 C 0.23726 0.65935 0.97287 0.0
C243 C 0.24677 0.64867 0.0096 0.0
C244 C 0.23792 0.65835 0.04646 0.0
H245 H 0.38633 0.58684 0.06141 0.0
H246 H 0.34839 0.61132 0.05846 0.0
C247 C 0.22043 0.67918 0.04659 0.0
C248 C 0.26778 0.63008 0.00934 0.0
H249 H 0.28939 0.56619 0.04329 0.0
C250 C 0.28847 0.64091 0.99158 0.0
C251 C 0.26789 0.60257 0.02746 0.0
C252 C 0.24589 0.58946 0.04546 0.0
C253 C 0.30948 0.62533 0.99248 0.0
C254 C 0.30986 0.59835 0.01203 0.0
C255 C 0.28902 0.58704 0.02869 0.0
C256 C 0.33203 0.58207 0.01608 0.0
C257 C 0.3312 0.63792 0.97274 0.0
C258 C 0.3351 0.55713 0.99396 0.0
C259 C 0.35686 0.54318 0.99528 0.0
C260 C 0.37584 0.55393 0.01891 0.0
C261 C 0.37228 0.57835 0.04223 0.0
C262 C 0.35059 0.59228 0.04078 0.0
H263 H 0.32673 0.65582 0.95163 0.0
H264 H 0.34343 0.64617 0.99665 0.0
H265 H 0.3407 0.62145 0.95568 0.0
H266 H 0.32092 0.54898 0.97472 0.0
H267 H 0.35905 0.52455 0.97674 0.0
H268 H 0.70978 0.82663 0.57851 0.0
H269 H 0.74225 0.86108 0.57169 0.0
H270 H 0.73756 0.85459 0.44123 0.0
H271 H 0.70556 0.81948 0.44782 0.0
H272 H 0.78201 0.84409 0.47212 0.0
H273 H 0.74796 0.94427 0.5348 0.0
H274 H 0.74351 0.91397 0.56782 0.0
H275 H 0.72872 0.91535 0.51903 0.0
C276 C 0.71544 0.83286 0.54834 0.0
C277 C 0.7052 0.8202 0.51372 0.0
C278 C 0.73381 0.8528 0.54448 0.0
C279 C 0.74216 0.86059 0.50593 0.0
C280 C 0.73125 0.849 0.47124 0.0
H281 H 0.86097 0.9785 0.46418 0.0
H282 H 0.82174 0.95579 0.46227 0.0
C283 C 0.71286 0.82907 0.47506 0.0
C284 C 0.76408 0.87793 0.50216 0.0
H285 H 0.79022 0.94077 0.52992 0.0
C286 C 0.7837 0.86538 0.48427 0.0
C287 C 0.76621 0.90575 0.5178 0.0
C288 C 0.74541 0.92077 0.53559 0.0
C289 C 0.80566 0.87947 0.483 0.0
C290 C 0.80811 0.90665 0.50052 0.0
C291 C 0.78829 0.91975 0.51694 0.0
C292 C 0.83137 0.92123 0.50319 0.0
C293 C 0.82617 0.86504 0.46328 0.0
C294 C 0.84953 0.90954 0.52747 0.0
C295 C 0.87186 0.92251 0.52889 0.0
C296 C 0.87645 0.94745 0.50603 0.0
C297 C 0.85799 0.95945 0.48241 0.0
C298 C 0.8356 0.94648 0.48113 0.0
H299 H 0.8201 0.84772 0.44283 0.0
H300 H 0.83688 0.88062 0.44551 0.0
H301 H 0.83779 0.85553 0.48725 0.0
H302 H 0.84644 0.89029 0.54522 0.0
H303 H 0.88549 0.91304 0.54806 0.0
H304 H 0.80595 0.35762 0.05978 0.0
H305 H 0.76584 0.37661 0.05981 0.0
H306 H 0.75096 0.33749 0.94442 0.0
H307 H 0.79129 0.31909 0.94334 0.0
H308 H 0.74413 0.41279 0.9922 0.0
H309 H 0.6966 0.31077 0.02529 0.0
H310 H 0.72756 0.31609 0.03794 0.0
H311 H 0.71849 0.31067 0.98614 0.0
C312 C 0.79427 0.35325 0.03416 0.0
C313 C 0.80192 0.33684 0.0015 0.0
C314 C 0.77131 0.36397 0.03441 0.0
C315 C 0.75548 0.35823 0.00229 0.0
C316 C 0.7629 0.34182 0.96973 0.0
H317 H 0.6076 0.3996 0.95872 0.0
H318 H 0.64757 0.38013 0.95618 0.0
C319 C 0.78592 0.33123 0.96928 0.0
C320 C 0.73134 0.37001 0.00246 0.0
H321 H 0.67324 0.35143 0.01331 0.0
C322 C 0.72859 0.39945 0.99686 0.0
C323 C 0.71121 0.35243 0.00824 0.0
C324 C 0.71343 0.32072 0.015 0.0
C325 C 0.70609 0.41183 0.99648 0.0
C326 C 0.68591 0.39433 0.00305 0.0
C327 C 0.68872 0.36482 0.00839 0.0
C328 C 0.66173 0.40622 0.00469 0.0
C329 C 0.70416 0.44343 0.98813 0.0
C330 C 0.65633 0.42703 0.0332 0.0
C331 C 0.63358 0.43828 0.03455 0.0
C332 C 0.61567 0.42859 0.00784 0.0
C333 C 0.62099 0.40734 0.97985 0.0
C334 C 0.64382 0.39628 0.97829 0.0
H335 H 0.71989 0.45191 0.97195 0.0
H336 H 0.68807 0.44839 0.96965 0.0
H337 H 0.70305 0.45472 0.01741 0.0
H338 H 0.66968 0.43444 0.05465 0.0
H339 H 0.62989 0.45426 0.05692 0.0
H340 H 0.06733 0.83441 0.13288 0.0
H341 H 0.04616 0.85701 0.18772 0.0
H342 H 0.10327 0.83686 0.27135 0.0
H343 H 0.1243 0.81335 0.21694 0.0
H344 H 0.05654 0.83055 0.30468 0.0
H345 H 0.07134 0.93517 0.22716 0.0
H346 H 0.05658 0.90856 0.19701 0.0
H347 H 0.08676 0.90341 0.21319 0.0
C348 C 0.07513 0.83407 0.16315 0.0
C349 C 0.09763 0.8223 0.17044 0.0
C350 C 0.06309 0.84725 0.19436 0.0
C351 C 0.07337 0.84903 0.23332 0.0
C352 C 0.09513 0.83585 0.24136 0.0
H353 H 0.05491 0.9725 0.41867 0.0
H354 H 0.06861 0.9403 0.36674 0.0
C355 C 0.10718 0.82261 0.21019 0.0
C356 C 0.06243 0.86658 0.26479 0.0
H357 H 0.0497 0.93535 0.28766 0.0
C358 C 0.05489 0.85344 0.30097 0.0
C359 C 0.06063 0.89647 0.25994 0.0
C360 C 0.06941 0.91187 0.22242 0.0
C361 C 0.04558 0.8695 0.33257 0.0
C362 C 0.04365 0.89936 0.32753 0.0
C363 C 0.05108 0.91242 0.29126 0.0
C364 C 0.03519 0.91782 0.36023 0.0
C365 C 0.03855 0.85459 0.37151 0.0
C366 C 0.01179 0.91588 0.3737 0.0
C367 C 0.00384 0.93433 0.40347 0.0
C368 C 0.01917 0.95508 0.42008 0.0
C369 C 0.04262 0.95681 0.40653 0.0
C370 C 0.0505 0.93842 0.37685 0.0
H371 H 0.0455 0.83256 0.3736 0.0
H372 H 0.04509 0.86665 0.39829 0.0
H373 H 0.01896 0.85338 0.37289 0.0
H374 H 0.99958 0.90043 0.36075 0.0
H375 H 0.98566 0.93249 0.4132 0.0
H376 H 0.54915 0.67534 0.62802 0.0
H377 H 0.52942 0.65334 0.68639 0.0
H378 H 0.59057 0.67167 0.76203 0.0
H379 H 0.6104 0.6936 0.70391 0.0
H380 H 0.54736 0.60606 0.72502 0.0
H381 H 0.53615 0.69248 0.83568 0.0
H382 H 0.54173 0.69938 0.78252 0.0
H383 H 0.56571 0.69051 0.81687 0.0
C384 C 0.55822 0.67511 0.65727 0.0
C385 C 0.58138 0.68606 0.66133 0.0
C386 C 0.54689 0.66265 0.69059 0.0
C387 C 0.55845 0.66108 0.7286 0.0
C388 C 0.58111 0.67322 0.73321 0.0
H389 H 0.54969 0.53286 0.91488 0.0
H390 H 0.56028 0.56612 0.86019 0.0
C391 C 0.59245 0.68573 0.69991 0.0
C392 C 0.54819 0.64362 0.76188 0.0
H393 H 0.53338 0.64456 0.86204 0.0
C394 C 0.54401 0.61457 0.75482 0.0
C395 C 0.54371 0.65479 0.80065 0.0
C396 C 0.54683 0.68606 0.80936 0.0
C397 C 0.5363 0.59618 0.78588 0.0
C398 C 0.53298 0.60706 0.82514 0.0
C399 C 0.53623 0.63628 0.83194 0.0
C400 C 0.52682 0.58807 0.85965 0.0
C401 C 0.53198 0.56516 0.77659 0.0
C402 C 0.50469 0.58991 0.87798 0.0
C403 C 0.49853 0.57088 0.90925 0.0
C404 C 0.51452 0.54988 0.92283 0.0
C405 C 0.53692 0.54866 0.90501 0.0
C406 C 0.543 0.56759 0.87371 0.0
H407 H 0.52984 0.56162 0.74342 0.0
H408 H 0.54732 0.55255 0.78776 0.0
H409 H 0.51594 0.55698 0.79213 0.0
H410 H 0.49203 0.60568 0.86755 0.0
H411 H 0.48119 0.57248 0.92249 0.0
H412 H 0.9039 0.18239 0.12926 0.0
H413 H 0.91361 0.15121 0.18736 0.0
H414 H 0.9549 0.21885 0.24158 0.0
H415 H 0.94506 0.2503 0.1838 0.0
H416 H 0.96143 0.13661 0.21472 0.0
H417 H 0.90898 0.18996 0.33262 0.0
H418 H 0.90311 0.19481 0.27884 0.0
H419 H 0.92778 0.21278 0.30252 0.0
C420 C 0.91479 0.19073 0.15381 0.0
C421 C 0.92366 0.21882 0.15206 0.0
C422 C 0.92041 0.17287 0.18681 0.0
C423 C 0.93476 0.18286 0.21883 0.0
C424 C 0.94356 0.21089 0.21734 0.0
H425 H 0.01088 0.08833 0.40638 0.0
H426 H 0.99891 0.12034 0.35058 0.0
C427 C 0.93808 0.22873 0.18421 0.0
C428 C 0.94121 0.1636 0.25311 0.0
H429 H 0.93451 0.15303 0.35516 0.0
C430 C 0.95553 0.14013 0.24542 0.0
C431 C 0.9333 0.16823 0.29297 0.0
C432 C 0.91728 0.19267 0.30242 0.0
C433 C 0.96249 0.12133 0.27682 0.0
C434 C 0.95498 0.12628 0.31683 0.0
C435 C 0.94034 0.14948 0.32442 0.0
C436 C 0.96208 0.1074 0.35113 0.0
C437 C 0.97763 0.09615 0.26702 0.0
C438 C 0.9452 0.08994 0.37024 0.0
C439 C 0.95197 0.07154 0.40202 0.0
C440 C 0.97571 0.07055 0.41548 0.0
C441 C 0.99248 0.08852 0.39669 0.0
C442 C 0.98571 0.10676 0.36474 0.0
H443 H 0.97814 0.09231 0.23381 0.0
H444 H 0.99599 0.10017 0.2781 0.0
H445 H 0.97095 0.07657 0.28255 0.0
H446 H 0.92686 0.09027 0.36016 0.0
H447 H 0.93861 0.05807 0.41596 0.0
H448 H 0.45124 0.31131 0.6273 0.0
H449 H 0.45933 0.34271 0.68461 0.0
H450 H 0.41057 0.29385 0.75794 0.0
H451 H 0.40247 0.26222 0.70073 0.0
H452 H 0.42929 0.37648 0.72721 0.0
H453 H 0.47042 0.29473 0.82862 0.0
H454 H 0.46495 0.28898 0.77519 0.0
H455 H 0.44119 0.28559 0.81064 0.0
C456 C 0.44214 0.30734 0.65556 0.0
C457 C 0.42629 0.28422 0.65958 0.0
C458 C 0.44683 0.32524 0.6883 0.0
C459 C 0.43581 0.32036 0.72568 0.0
C460 C 0.41967 0.2976 0.72963 0.0
H461 H 0.43573 0.44464 0.92136 0.0
H462 H 0.4238 0.41238 0.86677 0.0
C463 C 0.41505 0.27958 0.69694 0.0
C464 C 0.44119 0.33929 0.76033 0.0
H465 H 0.4641 0.34003 0.85692 0.0
C466 C 0.43687 0.36855 0.75561 0.0
C467 C 0.45133 0.32887 0.79714 0.0
C468 C 0.45747 0.29788 0.80323 0.0
C469 C 0.44245 0.38772 0.78674 0.0
C470 C 0.45216 0.37723 0.82385 0.0
C471 C 0.45645 0.34796 0.82856 0.0
C472 C 0.45905 0.39639 0.85749 0.0
C473 C 0.43855 0.41912 0.77915 0.0
C474 C 0.48268 0.39748 0.87114 0.0
C475 C 0.48951 0.41563 0.90252 0.0
C476 C 0.4728 0.43306 0.92094 0.0
C477 C 0.44905 0.43166 0.90759 0.0
C478 C 0.44222 0.41336 0.87626 0.0
H479 H 0.43662 0.42425 0.7462 0.0
H480 H 0.42207 0.42557 0.79423 0.0
H481 H 0.45343 0.43198 0.79187 0.0
H482 H 0.49593 0.38448 0.85716 0.0
H483 H 0.50793 0.41614 0.9121 0.0
H484 H 0.56211 0.66973 0.39507 0.0
H485 H 0.54238 0.64582 0.33818 0.0
H486 H 0.60124 0.66704 0.26135 0.0
H487 H 0.62088 0.69172 0.31782 0.0
H488 H 0.55468 0.67201 0.22286 0.0
H489 H 0.56931 0.56813 0.30236 0.0
H490 H 0.55407 0.59442 0.33087 0.0
H491 H 0.58439 0.60047 0.31741 0.0
C492 C 0.57061 0.66998 0.36582 0.0
C493 C 0.59318 0.68241 0.36105 0.0
C494 C 0.5594 0.65608 0.33347 0.0
C495 C 0.57056 0.6543 0.29588 0.0
C496 C 0.59243 0.66807 0.29027 0.0
H497 H 0.55417 0.52989 0.10865 0.0
H498 H 0.56777 0.56238 0.16158 0.0
C499 C 0.60368 0.68197 0.3226 0.0
C500 C 0.56038 0.63627 0.26341 0.0
H501 H 0.54854 0.567 0.23974 0.0
C502 C 0.5532 0.64907 0.2265 0.0
C503 C 0.55882 0.60633 0.26824 0.0
C504 C 0.56721 0.59139 0.30668 0.0
C505 C 0.5444 0.63261 0.19418 0.0
C506 C 0.54263 0.6027 0.19922 0.0
C507 C 0.54981 0.58997 0.23615 0.0
C508 C 0.53431 0.58395 0.16609 0.0
C509 C 0.53766 0.6472 0.15459 0.0
C510 C 0.51092 0.58526 0.15129 0.0
C511 C 0.50304 0.56665 0.12103 0.0
C512 C 0.51842 0.54638 0.10522 0.0
C513 C 0.54186 0.54522 0.12015 0.0
C514 C 0.54968 0.56378 0.15038 0.0
H515 H 0.54462 0.66939 0.15287 0.0
H516 H 0.54437 0.6352 0.12841 0.0
H517 H 0.51808 0.64793 0.15171 0.0
H518 H 0.49868 0.60037 0.16355 0.0
H519 H 0.48487 0.56805 0.11022 0.0
H520 H 0.95646 0.2376 0.84375 0.0
H521 H 0.96629 0.20674 0.78731 0.0
H522 H 0.90041 0.16091 0.80219 0.0
H523 H 0.89019 0.19206 0.85817 0.0
H524 H 0.97018 0.14601 0.79158 0.0
H525 H 0.90165 0.18132 0.67922 0.0
H526 H 0.91003 0.20215 0.72297 0.0
H527 H 0.89097 0.17156 0.7287 0.0
C528 C 0.94389 0.22124 0.83461 0.0
C529 C 0.9225 0.21734 0.85531 0.0
C530 C 0.94961 0.20353 0.80255 0.0
C531 C 0.93396 0.18179 0.79034 0.0
C532 C 0.91256 0.17785 0.81079 0.0
H533 H 0.94007 0.05114 0.60658 0.0
H534 H 0.92839 0.08278 0.661 0.0
C535 C 0.90686 0.19548 0.84299 0.0
C536 C 0.94051 0.16254 0.75724 0.0
H537 H 0.9247 0.1417 0.66154 0.0
C538 C 0.96031 0.14511 0.76307 0.0
C539 C 0.92747 0.16134 0.72026 0.0
C540 C 0.90644 0.18022 0.71207 0.0
C541 C 0.96731 0.1262 0.73302 0.0
C542 C 0.95444 0.12522 0.69581 0.0
C543 C 0.93454 0.14255 0.69008 0.0
C544 C 0.96146 0.10643 0.66238 0.0
C545 C 0.98811 0.10704 0.74176 0.0
C546 C 0.98376 0.10959 0.64465 0.0
C547 C 0.99053 0.09149 0.6137 0.0
C548 C 0.97502 0.07005 0.59962 0.0
C549 C 0.95247 0.06737 0.61681 0.0
C550 C 0.94575 0.08544 0.64788 0.0
H551 H 0.99177 0.10475 0.77492 0.0
H552 H 0.98502 0.08553 0.729 0.0
H553 H 0.00413 0.11639 0.72753 0.0
H554 H 0.99594 0.12608 0.65475 0.0
H555 H 0.00795 0.09429 0.60089 0.0
H556 H 0.46204 0.29624 0.39447 0.0
H557 H 0.47071 0.32797 0.33696 0.0
H558 H 0.41244 0.29121 0.2689 0.0
H559 H 0.40405 0.25873 0.3259 0.0
H560 H 0.45407 0.29815 0.22392 0.0
H561 H 0.43077 0.39728 0.30321 0.0
H562 H 0.45219 0.3758 0.33002 0.0
H563 H 0.42261 0.3623 0.32212 0.0
C564 C 0.45122 0.29465 0.36711 0.0
C565 C 0.4323 0.275 0.3648 0.0
C566 C 0.45604 0.31303 0.33446 0.0
C567 C 0.44196 0.31224 0.299 0.0
C568 C 0.42338 0.29228 0.29618 0.0
H569 H 0.43983 0.44335 0.10952 0.0
H570 H 0.42927 0.40888 0.16283 0.0
C571 C 0.41853 0.27388 0.32884 0.0
C572 C 0.44669 0.3322 0.26479 0.0
H573 H 0.44967 0.4029 0.23957 0.0
C574 C 0.45302 0.32106 0.22722 0.0
C575 C 0.44496 0.36203 0.2691 0.0
C576 C 0.43705 0.37513 0.30815 0.0
C577 C 0.45822 0.33903 0.19401 0.0
C578 C 0.45737 0.36889 0.19881 0.0
C579 C 0.45051 0.38 0.23611 0.0
C580 C 0.46365 0.38906 0.16559 0.0
C581 C 0.46432 0.3259 0.154 0.0
C582 C 0.48654 0.38945 0.14973 0.0
C583 C 0.49264 0.40908 0.11924 0.0
C584 C 0.47598 0.42883 0.10428 0.0
C585 C 0.45307 0.42842 0.12033 0.0
C586 C 0.44699 0.40875 0.1508 0.0
H587 H 0.45801 0.30345 0.15222 0.0
H588 H 0.45652 0.33819 0.12809 0.0
H589 H 0.48384 0.32603 0.15075 0.0
H590 H 0.49981 0.37483 0.16133 0.0
H591 H 0.51047 0.40891 0.10769 0.0
H592 H 0.05859 0.84026 0.90573 0.0
H593 H 0.03819 0.86117 0.84647 0.0
H594 H 0.09692 0.83951 0.77124 0.0
H595 H 0.11738 0.81858 0.83025 0.0
H596 H 0.05561 0.90674 0.80403 0.0
H597 H 0.04046 0.81626 0.7003 0.0
H598 H 0.04751 0.81133 0.75367 0.0
H599 H 0.07058 0.81913 0.71804 0.0
C600 C 0.067 0.83961 0.87643 0.0
C601 C 0.08963 0.82787 0.87267 0.0
C602 C 0.05529 0.85144 0.8426 0.0
C603 C 0.06593 0.85164 0.80438 0.0
C604 C 0.08813 0.83899 0.80023 0.0
H605 H 0.0529 0.97382 0.61004 0.0
H606 H 0.06478 0.94276 0.66678 0.0
C607 C 0.09983 0.82707 0.83403 0.0
C608 C 0.05512 0.86787 0.77 0.0
H609 H 0.03757 0.86314 0.6705 0.0
C610 C 0.0514 0.89711 0.775 0.0
C611 C 0.04947 0.85526 0.73225 0.0
C612 C 0.05198 0.82371 0.72577 0.0
C613 C 0.04297 0.91428 0.74285 0.0
C614 C 0.03849 0.90196 0.70453 0.0
C615 C 0.04132 0.87254 0.69984 0.0
C616 C 0.03151 0.91961 0.66882 0.0
C617 C 0.03907 0.94554 0.75005 0.0
C618 C 0.00908 0.9163 0.65055 0.0
C619 C 0.0022 0.93404 0.61804 0.0
C620 C 0.01773 0.95522 0.60315 0.0
C621 C 0.04044 0.95787 0.62091 0.0
C622 C 0.04725 0.9402 0.65341 0.0
H623 H 0.03756 0.95012 0.78293 0.0
H624 H 0.05433 0.95798 0.73816 0.0
H625 H 0.02282 0.95303 0.73396 0.0
H626 H 0.99676 0.9004 0.66198 0.0
H627 H 0.98463 0.93136 0.60489 0.0
loop_
_geom_bond_atom_site_label_1
_geom_bond_atom_site_label_2
_geom_bond_distance
_geom_bond_site_symmetry_2
_ccdc_geom_bond_type
P0 O11 1.490 . S
P0 C14 1.812 . S
P0 C20 1.803 . S
P0 C26 1.819 1_554 S
H1 C15 0.941 . S
H2 C16 0.939 . S
H3 C18 0.940 . S
H4 C19 0.940 . S
H5 C21 0.939 1_556 S
H6 C22 0.942 1_556 S
H7 C24 0.940 . S
H8 C25 0.939 . S
H9 C27 0.941 . S
H10 C31 0.939 . S
O11 P0 1.490 . S
H12 C28 0.939 . S
H13 C30 0.940 . S
C14 P0 1.812 . S
C14 C15 1.389 . S
C14 C19 1.391 . S
C15 H1 0.941 . S
C15 C14 1.389 . S
C15 C16 1.397 . S
C16 H2 0.939 . S
C16 C15 1.397 . S
C16 C17 1.378 . S
C17 C16 1.378 . S
C17 C18 1.378 . S
C18 H3 0.940 . S
C18 C17 1.378 . S
C18 C19 1.396 . S
C19 H4 0.940 . S
C19 C14 1.391 . S
C19 C18 1.396 . S
C20 P0 1.803 . S
C20 C21 1.378 . S
C20 C25 1.400 . S
C21 H5 0.939 1_554 S
C21 C20 1.378 . S
C21 C22 1.361 . S
C22 H6 0.942 1_554 S
C22 C21 1.361 . S
C22 C23 1.369 . S
C23 C22 1.369 . S
C23 C24 1.404 . S
C24 H7 0.940 . S
C24 C23 1.404 . S
C24 C25 1.389 . S
C25 H8 0.939 . S
C25 C20 1.400 . S
C25 C24 1.389 . S
C26 P0 1.819 1_556 S
C26 C27 1.391 . S
C26 C31 1.391 . S
C27 H9 0.941 . S
C27 C26 1.391 . S
C27 C28 1.396 . S
C28 H12 0.939 . S
C28 C27 1.396 . S
C28 C29 1.397 . S
C29 C28 1.397 . S
C29 C30 1.385 . S
C30 H13 0.940 . S
C30 C29 1.385 . S
C30 C31 1.388 . S
C31 H10 0.939 . S
C31 C26 1.391 . S
C31 C30 1.388 . S
P32 O43 1.490 . S
P32 C46 1.812 . S
P32 C52 1.803 . S
P32 C58 1.819 . S
H33 C47 0.941 . S
H34 C48 0.939 . S
H35 C50 0.940 . S
H36 C51 0.940 . S
H37 C53 0.939 . S
H38 C54 0.942 . S
H39 C56 0.940 . S
H40 C57 0.939 . S
H41 C59 0.941 . S
H42 C63 0.939 . S
O43 P32 1.490 . S
H44 C60 0.939 . S
H45 C62 0.940 . S
C46 P32 1.812 . S
C46 C47 1.389 . S
C46 C51 1.391 . S
C47 H33 0.941 . S
C47 C46 1.389 . S
C47 C48 1.397 . S
C48 H34 0.939 . S
C48 C47 1.397 . S
C48 C49 1.378 . S
C49 C48 1.378 . S
C49 C50 1.378 . S
C50 H35 0.940 . S
C50 C49 1.378 . S
C50 C51 1.396 . S
C51 H36 0.940 . S
C51 C46 1.391 . S
C51 C50 1.396 . S
C52 P32 1.803 . S
C52 C53 1.378 . S
C52 C57 1.400 . S
C53 H37 0.939 . S
C53 C52 1.378 . S
C53 C54 1.361 . S
C54 H38 0.942 . S
C54 C53 1.361 . S
C54 C55 1.369 . S
C55 C54 1.369 . S
C55 C56 1.404 . S
C56 H39 0.940 . S
C56 C55 1.404 . S
C56 C57 1.389 . S
C57 H40 0.939 . S
C57 C52 1.400 . S
C57 C56 1.389 . S
C58 P32 1.819 . S
C58 C59 1.391 . S
C58 C63 1.391 . S
C59 H41 0.941 . S
C59 C58 1.391 . S
C59 C60 1.396 . S
C60 H44 0.939 . S
C60 C59 1.396 . S
C60 C61 1.397 . S
C61 C60 1.397 . S
C61 C62 1.385 . S
C62 H45 0.940 . S
C62 C61 1.385 . S
C62 C63 1.388 . S
C63 H42 0.939 . S
C63 C58 1.391 . S
C63 C62 1.388 . S
P64 O75 1.490 . S
P64 C78 1.812 1_554 S
P64 C84 1.803 . S
P64 C90 1.819 . S
H65 C79 0.941 . S
H66 C80 0.939 . S
H67 C82 0.940 . S
H68 C83 0.940 . S
H69 C85 0.939 . S
H70 C86 0.942 . S
H71 C88 0.940 . S
H72 C89 0.939 . S
H73 C91 0.941 . S
H74 C95 0.939 . S
O75 P64 1.490 . S
H76 C92 0.939 . S
H77 C94 0.940 . S
C78 P64 1.812 1_556 S
C78 C79 1.389 . S
C78 C83 1.391 . S
C79 H65 0.941 . S
C79 C78 1.389 . S
C79 C80 1.397 . S
C80 H66 0.939 . S
C80 C79 1.397 . S
C80 C81 1.378 . S
C81 C80 1.378 . S
C81 C82 1.378 . S
C82 H67 0.940 . S
C82 C81 1.378 . S
C82 C83 1.396 . S
C83 H68 0.940 . S
C83 C78 1.391 . S
C83 C82 1.396 . S
C84 P64 1.803 . S
C84 C85 1.378 . S
C84 C89 1.400 1_554 S
C85 H69 0.939 . S
C85 C84 1.378 . S
C85 C86 1.361 . S
C86 H70 0.942 . S
C86 C85 1.361 . S
C86 C87 1.369 . S
C87 C86 1.369 . S
C87 C88 1.404 1_554 S
C88 H71 0.940 . S
C88 C87 1.404 1_556 S
C88 C89 1.389 . S
C89 H72 0.939 . S
C89 C84 1.400 1_556 S
C89 C88 1.389 . S
C90 P64 1.819 . S
C90 C91 1.391 . S
C90 C95 1.391 . S
C91 H73 0.941 . S
C91 C90 1.391 . S
C91 C92 1.396 . S
C92 H76 0.939 . S
C92 C91 1.396 . S
C92 C93 1.397 . S
C93 C92 1.397 . S
C93 C94 1.385 . S
C94 H77 0.940 . S
C94 C93 1.385 . S
C94 C95 1.388 . S
C95 H74 0.939 . S
C95 C90 1.391 . S
C95 C94 1.388 . S
P96 O107 1.490 . S
P96 C110 1.812 . S
P96 C116 1.803 . S
P96 C122 1.819 . S
H97 C111 0.941 . S
H98 C112 0.939 . S
H99 C114 0.940 . S
H100 C115 0.940 . S
H101 C117 0.939 . S
H102 C118 0.942 . S
H103 C120 0.940 . S
H104 C121 0.939 . S
H105 C123 0.941 . S
H106 C127 0.939 . S
O107 P96 1.490 . S
H108 C124 0.939 . S
H109 C126 0.940 . S
C110 P96 1.812 . S
C110 C111 1.389 . S
C110 C115 1.391 . S
C111 H97 0.941 . S
C111 C110 1.389 . S
C111 C112 1.397 . S
C112 H98 0.939 . S
C112 C111 1.397 . S
C112 C113 1.378 . S
C113 C112 1.378 . S
C113 C114 1.378 . S
C114 H99 0.940 . S
C114 C113 1.378 . S
C114 C115 1.396 . S
C115 H100 0.940 . S
C115 C110 1.391 . S
C115 C114 1.396 . S
C116 P96 1.803 . S
C116 C117 1.378 . S
C116 C121 1.400 . S
C117 H101 0.939 . S
C117 C116 1.378 . S
C117 C118 1.361 . S
C118 H102 0.942 . S
C118 C117 1.361 . S
C118 C119 1.369 . S
C119 C118 1.369 . S
C119 C120 1.404 . S
C120 H103 0.940 . S
C120 C119 1.404 . S
C120 C121 1.389 . S
C121 H104 0.939 . S
C121 C116 1.400 . S
C121 C120 1.389 . S
C122 P96 1.819 . S
C122 C123 1.391 . S
C122 C127 1.391 . S
C123 H105 0.941 . S
C123 C122 1.391 . S
C123 C124 1.396 . S
C124 H108 0.939 . S
C124 C123 1.396 . S
C124 C125 1.397 . S
C125 C124 1.397 . S
C125 C126 1.385 . S
C126 H109 0.940 . S
C126 C125 1.385 . S
C126 C127 1.388 . S
C127 H106 0.939 . S
C127 C122 1.391 . S
C127 C126 1.388 . S
C128 O144 1.251 . S
C128 O146 1.254 1_455 S
N129 C130 1.333 . S
N129 C134 1.307 . S
N129 Zn135 2.020 . S
C130 N129 1.333 . S
C130 C131 1.379 . S
C130 H148 0.952 . S
C131 C130 1.379 . S
C131 C132 1.390 . S
C131 H158 0.949 . S
C132 C131 1.390 . S
C132 C133 1.357 . S
C133 C132 1.357 . S
C133 C134 1.370 . S
C133 H159 0.950 . S
C134 N129 1.307 . S
C134 C133 1.370 . S
C134 H152 0.948 . S
Zn135 N129 2.020 . S
Zn135 O144 2.039 1_545 S
Zn135 O150 2.034 1_545 S
Zn135 O154 2.025 . S
Zn135 O156 2.024 . S
C136 O155 1.246 . S
C136 O156 1.249 1_655 S
N137 C138 1.307 . S
N137 C139 1.333 . S
N137 Zn143 2.020 . S
C138 N137 1.307 . S
C138 C142 1.370 . S
C138 H149 0.948 . S
C139 N137 1.333 . S
C139 C140 1.379 . S
C139 H147 0.952 . S
C140 C139 1.379 . S
C140 C141 1.390 . S
C140 H160 0.949 . S
C141 C140 1.390 . S
C141 C142 1.357 . S
C142 C138 1.370 . S
C142 C141 1.357 . S
C142 H161 0.950 . S
Zn143 N137 2.020 . S
Zn143 O146 2.025 . S
Zn143 O151 2.024 . S
Zn143 O153 2.039 1_565 S
Zn143 O155 2.034 1_565 S
O144 C128 1.251 . S
O144 Zn135 2.039 1_565 S
C145 O150 1.246 . S
C145 O151 1.249 1_455 S
O146 C128 1.254 1_655 S
O146 Zn143 2.025 . S
H147 C139 0.952 . S
H148 C130 0.952 . S
H149 C138 0.948 . S
O150 Zn135 2.034 1_565 S
O150 C145 1.246 . S
O151 Zn143 2.024 . S
O151 C145 1.249 1_655 S
H152 C134 0.948 . S
O153 Zn143 2.039 1_545 S
O153 C157 1.251 . S
O154 Zn135 2.025 . S
O154 C157 1.254 1_455 S
O155 C136 1.246 . S
O155 Zn143 2.034 1_545 S
O156 Zn135 2.024 . S
O156 C136 1.249 1_455 S
C157 O153 1.251 . S
C157 O154 1.254 1_655 S
H158 C131 0.949 . S
H159 C133 0.950 . S
H160 C140 0.949 . S
H161 C142 0.950 . S
C162 O178 1.251 . S
C162 O180 1.254 . S
N163 C164 1.343 . S
N163 C168 1.307 . S
N163 Zn169 2.020 . S
C164 N163 1.343 . S
C164 C165 1.379 1_554 S
C164 H182 0.943 1_554 S
C165 C164 1.379 1_556 S
C165 C166 1.390 1_556 S
C165 H192 0.948 . S
C166 C165 1.390 1_554 S
C166 C167 1.357 . S
C167 C166 1.357 . S
C167 C168 1.370 . S
C167 H193 0.950 . S
C168 N163 1.307 . S
C168 C167 1.370 . S
C168 H186 0.948 . S
Zn169 N163 2.020 . S
Zn169 O178 2.039 1_554 S
Zn169 O184 2.034 . S
Zn169 O188 2.025 . S
Zn169 O190 2.024 1_554 S
C170 O189 1.246 . S
C170 O190 1.249 . S
N171 C172 1.307 . S
N171 C173 1.333 . S
N171 Zn177 2.020 . S
C172 N171 1.307 . S
C172 C176 1.370 . S
C172 H183 0.948 1_554 S
C173 N171 1.333 . S
C173 C174 1.379 . S
C173 H181 0.952 . S
C174 C173 1.379 . S
C174 C175 1.390 . S
C174 H194 0.949 . S
C175 C174 1.390 . S
C175 C176 1.357 . S
C176 C172 1.370 . S
C176 C175 1.357 . S
C176 H195 0.950 1_554 S
Zn177 N171 2.020 . S
Zn177 O180 2.025 1_554 S
Zn177 O185 2.024 . S
Zn177 O187 2.039 . S
Zn177 O189 2.034 1_554 S
O178 C162 1.251 . S
O178 Zn169 2.039 1_556 S
C179 O184 1.246 . S
C179 O185 1.249 . S
O180 C162 1.254 . S
O180 Zn177 2.025 1_556 S
H181 C173 0.952 . S
H182 C164 0.943 1_556 S
H183 C172 0.948 1_556 S
O184 Zn169 2.034 . S
O184 C179 1.246 . S
O185 Zn177 2.024 . S
O185 C179 1.249 . S
H186 C168 0.948 . S
O187 Zn177 2.039 . S
O187 C191 1.251 . S
O188 Zn169 2.025 . S
O188 C191 1.254 . S
O189 C170 1.246 . S
O189 Zn177 2.034 1_556 S
O190 Zn169 2.024 1_556 S
O190 C170 1.249 . S
C191 O187 1.251 . S
C191 O188 1.254 . S
H192 C165 0.948 . S
H193 C167 0.950 . S
H194 C174 0.949 . S
H195 C176 0.950 1_556 S
H196 C204 0.929 . S
H197 C206 0.930 . S
H198 C208 0.930 . S
H199 C211 0.929 . S
H200 C214 0.930 . S
H201 C216 0.960 . S
H202 C216 0.960 . S
H203 C216 0.960 . S
C204 H196 0.929 . S
C204 C205 1.377 . S
C204 C206 1.384 . S
C205 C204 1.377 . S
C205 C211 1.390 . S
C206 H197 0.930 . S
C206 C204 1.384 . S
C206 C207 1.372 . S
C207 C206 1.372 . S
C207 C208 1.400 . S
C207 C212 1.490 . S
C208 H198 0.930 . S
C208 C207 1.400 . S
C208 C211 1.386 . S
H209 C225 0.930 . S
H210 C226 0.931 . S
C211 H199 0.929 . S
C211 C205 1.390 . S
C211 C208 1.386 . S
C212 C207 1.490 . S
C212 C214 1.395 . S
C212 C215 1.403 . S
H213 C219 0.930 . S
C214 H200 0.930 . S
C214 C212 1.395 . S
C214 C217 1.403 . S
C215 C212 1.403 . S
C215 C216 1.524 . S
C215 C219 1.400 . S
C216 H201 0.960 . S
C216 H202 0.960 . S
C216 H203 0.960 . S
C216 C215 1.524 . S
C217 C214 1.403 . S
C217 C218 1.392 . S
C217 C221 1.495 . S
C218 C217 1.392 . S
C218 C219 1.385 . S
C218 C220 1.478 . S
C219 H213 0.930 . S
C219 C215 1.400 . S
C219 C218 1.385 . S
C220 C218 1.478 . S
C220 C222 1.381 . S
C220 C226 1.383 . S
C221 C217 1.495 . S
C221 H227 0.959 . S
C221 H228 0.961 . S
C221 H229 0.960 . S
C222 C220 1.381 . S
C222 C223 1.394 . S
C222 H230 0.930 . S
C223 C222 1.394 . S
C223 C224 1.383 . S
C223 H231 0.929 . S
C224 C223 1.383 . S
C224 C225 1.377 . S
C225 H209 0.930 . S
C225 C224 1.377 . S
C225 C226 1.379 . S
C226 H210 0.931 . S
C226 C220 1.383 . S
C226 C225 1.379 . S
H227 C221 0.959 . S
H228 C221 0.961 . S
H229 C221 0.960 . S
H230 C222 0.930 . S
H231 C223 0.929 . S
H232 C240 0.929 . S
H233 C242 0.930 . S
H234 C244 0.930 . S
H235 C247 0.929 . S
H236 C250 0.930 . S
H237 C252 0.960 . S
H238 C252 0.960 . S
H239 C252 0.960 . S
C240 H232 0.929 . S
C240 C241 1.377 1_556 S
C240 C242 1.384 . S
C241 C240 1.377 1_554 S
C241 C247 1.390 . S
C242 H233 0.930 . S
C242 C240 1.384 . S
C242 C243 1.372 1_556 S
C243 C242 1.372 1_554 S
C243 C244 1.400 . S
C243 C248 1.490 . S
C244 H234 0.930 . S
C244 C243 1.400 . S
C244 C247 1.386 . S
H245 C261 0.930 . S
H246 C262 0.931 . S
C247 H235 0.929 . S
C247 C241 1.390 . S
C247 C244 1.386 . S
C248 C243 1.490 . S
C248 C250 1.395 1_554 S
C248 C251 1.403 . S
H249 C255 0.930 . S
C250 H236 0.930 . S
C250 C248 1.395 1_556 S
C250 C253 1.403 . S
C251 C248 1.403 . S
C251 C252 1.524 . S
C251 C255 1.400 . S
C252 H237 0.960 . S
C252 H238 0.960 . S
C252 H239 0.960 . S
C252 C251 1.524 . S
C253 C250 1.403 . S
C253 C254 1.392 1_556 S
C253 C257 1.495 . S
C254 C253 1.392 1_554 S
C254 C255 1.385 . S
C254 C256 1.478 . S
C255 H249 0.930 . S
C255 C251 1.400 . S
C255 C254 1.385 . S
C256 C254 1.478 . S
C256 C258 1.381 1_554 S
C256 C262 1.383 . S
C257 C253 1.495 . S
C257 H263 0.959 . S
C257 H264 0.961 . S
C257 H265 0.960 . S
C258 C256 1.381 1_556 S
C258 C259 1.394 . S
C258 H266 0.930 . S
C259 C258 1.394 . S
C259 C260 1.383 1_556 S
C259 H267 0.929 . S
C260 C259 1.383 1_554 S
C260 C261 1.377 . S
C261 H245 0.930 . S
C261 C260 1.377 . S
C261 C262 1.379 . S
C262 H246 0.931 . S
C262 C256 1.383 . S
C262 C261 1.379 . S
H263 C257 0.959 . S
H264 C257 0.961 . S
H265 C257 0.960 . S
H266 C258 0.930 . S
H267 C259 0.929 . S
H268 C276 0.929 . S
H269 C278 0.930 . S
H270 C280 0.930 . S
H271 C283 0.929 . S
H272 C286 0.930 . S
H273 C288 0.960 . S
H274 C288 0.960 . S
H275 C288 0.960 . S
C276 H268 0.929 . S
C276 C277 1.377 . S
C276 C278 1.384 . S
C277 C276 1.377 . S
C277 C283 1.390 . S
C278 H269 0.930 . S
C278 C276 1.384 . S
C278 C279 1.372 . S
C279 C278 1.372 . S
C279 C280 1.400 . S
C279 C284 1.490 . S
C280 H270 0.930 . S
C280 C279 1.400 . S
C280 C283 1.386 . S
H281 C297 0.930 . S
H282 C298 0.931 . S
C283 H271 0.929 . S
C283 C277 1.390 . S
C283 C280 1.386 . S
C284 C279 1.490 . S
C284 C286 1.395 . S
C284 C287 1.403 . S
H285 C291 0.930 . S
C286 H272 0.930 . S
C286 C284 1.395 . S
C286 C289 1.403 . S
C287 C284 1.403 . S
C287 C288 1.524 . S
C287 C291 1.400 . S
C288 H273 0.960 . S
C288 H274 0.960 . S
C288 H275 0.960 . S
C288 C287 1.524 . S
C289 C286 1.403 . S
C289 C290 1.392 . S
C289 C293 1.495 . S
C290 C289 1.392 . S
C290 C291 1.385 . S
C290 C292 1.478 . S
C291 H285 0.930 . S
C291 C287 1.400 . S
C291 C290 1.385 . S
C292 C290 1.478 . S
C292 C294 1.381 . S
C292 C298 1.383 . S
C293 C289 1.495 . S
C293 H299 0.959 . S
C293 H300 0.961 . S
C293 H301 0.960 . S
C294 C292 1.381 . S
C294 C295 1.394 . S
C294 H302 0.930 . S
C295 C294 1.394 . S
C295 C296 1.383 . S
C295 H303 0.929 . S
C296 C295 1.383 . S
C296 C297 1.377 . S
C297 H281 0.930 . S
C297 C296 1.377 . S
C297 C298 1.379 . S
C298 H282 0.931 . S
C298 C292 1.383 . S
C298 C297 1.379 . S
H299 C293 0.959 . S
H300 C293 0.961 . S
H301 C293 0.960 . S
H302 C294 0.930 . S
H303 C295 0.929 . S
H304 C312 0.929 . S
H305 C314 0.930 . S
H306 C316 0.930 . S
H307 C319 0.929 . S
H308 C322 0.930 . S
H309 C324 0.961 . S
H310 C324 0.960 . S
H311 C324 0.960 1_556 S
C312 H304 0.929 . S
C312 C313 1.377 . S
C312 C314 1.384 . S
C313 C312 1.377 . S
C313 C319 1.390 1_554 S
C314 H305 0.930 . S
C314 C312 1.384 . S
C314 C315 1.372 . S
C315 C314 1.372 . S
C315 C316 1.400 1_554 S
C315 C320 1.490 . S
C316 H306 0.930 . S
C316 C315 1.400 1_556 S
C316 C319 1.386 . S
H317 C333 0.930 . S
H318 C334 0.931 . S
C319 H307 0.929 . S
C319 C313 1.390 1_556 S
C319 C316 1.386 . S
C320 C315 1.490 . S
C320 C322 1.395 . S
C320 C323 1.403 . S
H321 C327 0.930 . S
C322 H308 0.930 . S
C322 C320 1.395 . S
C322 C325 1.403 . S
C323 C320 1.403 . S
C323 C324 1.524 . S
C323 C327 1.400 . S
C324 H309 0.961 . S
C324 H310 0.960 . S
C324 H311 0.960 1_554 S
C324 C323 1.524 . S
C325 C322 1.403 . S
C325 C326 1.392 . S
C325 C329 1.495 . S
C326 C325 1.392 . S
C326 C327 1.385 . S
C326 C328 1.478 . S
C327 H321 0.930 . S
C327 C323 1.400 . S
C327 C326 1.385 . S
C328 C326 1.478 . S
C328 C330 1.381 . S
C328 C334 1.383 1_554 S
C329 C325 1.495 . S
C329 H335 0.959 . S
C329 H336 0.961 1_554 S
C329 H337 0.960 . S
C330 C328 1.381 . S
C330 C331 1.394 . S
C330 H338 0.930 . S
C331 C330 1.394 . S
C331 C332 1.383 . S
C331 H339 0.929 . S
C332 C331 1.383 . S
C332 C333 1.377 1_554 S
C333 H317 0.930 . S
C333 C332 1.377 1_556 S
C333 C334 1.379 . S
C334 H318 0.931 . S
C334 C328 1.383 1_556 S
C334 C333 1.379 . S
H335 C329 0.959 . S
H336 C329 0.961 1_556 S
H337 C329 0.960 . S
H338 C330 0.930 . S
H339 C331 0.929 . S
H340 C348 0.929 . S
H341 C350 0.930 . S
H342 C352 0.930 . S
H343 C355 0.929 . S
H344 C358 0.930 . S
H345 C360 0.960 . S
H346 C360 0.960 . S
H347 C360 0.960 . S
C348 H340 0.929 . S
C348 C349 1.377 . S
C348 C350 1.384 . S
C349 C348 1.377 . S
C349 C355 1.390 . S
C350 H341 0.930 . S
C350 C348 1.384 . S
C350 C351 1.372 . S
C351 C350 1.372 . S
C351 C352 1.400 . S
C351 C356 1.490 . S
C352 H342 0.930 . S
C352 C351 1.400 . S
C352 C355 1.386 . S
H353 C369 0.930 . S
H354 C370 0.931 . S
C355 H343 0.929 . S
C355 C349 1.390 . S
C355 C352 1.386 . S
C356 C351 1.490 . S
C356 C358 1.395 . S
C356 C359 1.403 . S
H357 C363 0.930 . S
C358 H344 0.930 . S
C358 C356 1.395 . S
C358 C361 1.403 . S
C359 C356 1.403 . S
C359 C360 1.524 . S
C359 C363 1.400 . S
C360 H345 0.960 . S
C360 H346 0.960 . S
C360 H347 0.960 . S
C360 C359 1.524 . S
C361 C358 1.403 . S
C361 C362 1.392 . S
C361 C365 1.495 . S
C362 C361 1.392 . S
C362 C363 1.385 . S
C362 C364 1.478 . S
C363 H357 0.930 . S
C363 C359 1.400 . S
C363 C362 1.385 . S
C364 C362 1.478 . S
C364 C366 1.381 . S
C364 C370 1.383 . S
C365 C361 1.495 . S
C365 H371 0.959 . S
C365 H372 0.961 . S
C365 H373 0.960 . S
C366 C364 1.381 . S
C366 C367 1.394 . S
C366 H374 0.930 . S
C367 C366 1.394 . S
C367 C368 1.383 . S
C367 H375 0.929 1_455 S
C368 C367 1.383 . S
C368 C369 1.377 . S
C369 H353 0.930 . S
C369 C368 1.377 . S
C369 C370 1.379 . S
C370 H354 0.931 . S
C370 C364 1.383 . S
C370 C369 1.379 . S
H371 C365 0.959 . S
H372 C365 0.961 . S
H373 C365 0.960 . S
H374 C366 0.930 . S
H375 C367 0.929 1_655 S
H376 C384 0.929 . S
H377 C386 0.930 . S
H378 C388 0.930 . S
H379 C391 0.929 . S
H380 C394 0.930 . S
H381 C396 0.960 . S
H382 C396 0.960 . S
H383 C396 0.960 . S
C384 H376 0.929 . S
C384 C385 1.377 . S
C384 C386 1.384 . S
C385 C384 1.377 . S
C385 C391 1.390 . S
C386 H377 0.930 . S
C386 C384 1.384 . S
C386 C387 1.372 . S
C387 C386 1.372 . S
C387 C388 1.400 . S
C387 C392 1.490 . S
C388 H378 0.930 . S
C388 C387 1.400 . S
C388 C391 1.386 . S
H389 C405 0.930 . S
H390 C406 0.931 . S
C391 H379 0.929 . S
C391 C385 1.390 . S
C391 C388 1.386 . S
C392 C387 1.490 . S
C392 C394 1.395 . S
C392 C395 1.403 . S
H393 C399 0.930 . S
C394 H380 0.930 . S
C394 C392 1.395 . S
C394 C397 1.403 . S
C395 C392 1.403 . S
C395 C396 1.524 . S
C395 C399 1.400 . S
C396 H381 0.960 . S
C396 H382 0.960 . S
C396 H383 0.960 . S
C396 C395 1.524 . S
C397 C394 1.403 . S
C397 C398 1.392 . S
C397 C401 1.495 . S
C398 C397 1.392 . S
C398 C399 1.385 . S
C398 C400 1.478 . S
C399 H393 0.930 . S
C399 C395 1.400 . S
C399 C398 1.385 . S
C400 C398 1.478 . S
C400 C402 1.381 . S
C400 C406 1.383 . S
C401 C397 1.495 . S
C401 H407 0.959 . S
C401 H408 0.961 . S
C401 H409 0.960 . S
C402 C400 1.381 . S
C402 C403 1.394 . S
C402 H410 0.930 . S
C403 C402 1.394 . S
C403 C404 1.383 . S
C403 H411 0.929 . S
C404 C403 1.383 . S
C404 C405 1.377 . S
C405 H389 0.930 . S
C405 C404 1.377 . S
C405 C406 1.379 . S
C406 H390 0.931 . S
C406 C400 1.383 . S
C406 C405 1.379 . S
H407 C401 0.959 . S
H408 C401 0.961 . S
H409 C401 0.960 . S
H410 C402 0.930 . S
H411 C403 0.929 . S
H412 C420 0.929 . S
H413 C422 0.930 . S
H414 C424 0.930 . S
H415 C427 0.929 . S
H416 C430 0.930 . S
H417 C432 0.960 . S
H418 C432 0.960 . S
H419 C432 0.960 . S
C420 H412 0.929 . S
C420 C421 1.377 . S
C420 C422 1.384 . S
C421 C420 1.377 . S
C421 C427 1.390 . S
C422 H413 0.930 . S
C422 C420 1.384 . S
C422 C423 1.372 . S
C423 C422 1.372 . S
C423 C424 1.400 . S
C423 C428 1.490 . S
C424 H414 0.930 . S
C424 C423 1.400 . S
C424 C427 1.386 . S
H425 C441 0.930 . S
H426 C442 0.931 . S
C427 H415 0.929 . S
C427 C421 1.390 . S
C427 C424 1.386 . S
C428 C423 1.490 . S
C428 C430 1.395 . S
C428 C431 1.403 . S
H429 C435 0.930 . S
C430 H416 0.930 . S
C430 C428 1.395 . S
C430 C433 1.403 . S
C431 C428 1.403 . S
C431 C432 1.524 . S
C431 C435 1.400 . S
C432 H417 0.960 . S
C432 H418 0.960 . S
C432 H419 0.960 . S
C432 C431 1.524 . S
C433 C430 1.403 . S
C433 C434 1.392 . S
C433 C437 1.495 . S
C434 C433 1.392 . S
C434 C435 1.385 . S
C434 C436 1.478 . S
C435 H429 0.930 . S
C435 C431 1.400 . S
C435 C434 1.385 . S
C436 C434 1.478 . S
C436 C438 1.381 . S
C436 C442 1.383 . S
C437 C433 1.495 . S
C437 H443 0.959 . S
C437 H444 0.961 . S
C437 H445 0.960 . S
C438 C436 1.381 . S
C438 C439 1.394 . S
C438 H446 0.930 . S
C439 C438 1.394 . S
C439 C440 1.383 . S
C439 H447 0.929 . S
C440 C439 1.383 . S
C440 C441 1.377 . S
C441 H425 0.930 . S
C441 C440 1.377 . S
C441 C442 1.379 . S
C442 H426 0.931 . S
C442 C436 1.383 . S
C442 C441 1.379 . S
H443 C437 0.959 . S
H444 C437 0.961 . S
H445 C437 0.960 . S
H446 C438 0.930 . S
H447 C439 0.929 . S
H448 C456 0.929 . S
H449 C458 0.930 . S
H450 C460 0.930 . S
H451 C463 0.929 . S
H452 C466 0.930 . S
H453 C468 0.960 . S
H454 C468 0.960 . S
H455 C468 0.960 . S
C456 H448 0.929 . S
C456 C457 1.377 . S
C456 C458 1.384 . S
C457 C456 1.377 . S
C457 C463 1.390 . S
C458 H449 0.930 . S
C458 C456 1.384 . S
C458 C459 1.372 . S
C459 C458 1.372 . S
C459 C460 1.400 . S
C459 C464 1.490 . S
C460 H450 0.930 . S
C460 C459 1.400 . S
C460 C463 1.386 . S
H461 C477 0.930 . S
H462 C478 0.931 . S
C463 H451 0.929 . S
C463 C457 1.390 . S
C463 C460 1.386 . S
C464 C459 1.490 . S
C464 C466 1.395 . S
C464 C467 1.403 . S
H465 C471 0.930 . S
C466 H452 0.930 . S
C466 C464 1.395 . S
C466 C469 1.403 . S
C467 C464 1.403 . S
C467 C468 1.524 . S
C467 C471 1.400 . S
C468 H453 0.960 . S
C468 H454 0.960 . S
C468 H455 0.960 . S
C468 C467 1.524 . S
C469 C466 1.403 . S
C469 C470 1.392 . S
C469 C473 1.495 . S
C470 C469 1.392 . S
C470 C471 1.385 . S
C470 C472 1.478 . S
C471 H465 0.930 . S
C471 C467 1.400 . S
C471 C470 1.385 . S
C472 C470 1.478 . S
C472 C474 1.381 . S
C472 C478 1.383 . S
C473 C469 1.495 . S
C473 H479 0.959 . S
C473 H480 0.961 . S
C473 H481 0.960 . S
C474 C472 1.381 . S
C474 C475 1.394 . S
C474 H482 0.930 . S
C475 C474 1.394 . S
C475 C476 1.383 . S
C475 H483 0.929 . S
C476 C475 1.383 . S
C476 C477 1.377 . S
C477 H461 0.930 . S
C477 C476 1.377 . S
C477 C478 1.379 . S
C478 H462 0.931 . S
C478 C472 1.383 . S
C478 C477 1.379 . S
H479 C473 0.959 . S
H480 C473 0.961 . S
H481 C473 0.960 . S
H482 C474 0.930 . S
H483 C475 0.929 . S
H484 C492 0.929 . S
H485 C494 0.930 . S
H486 C496 0.930 . S
H487 C499 0.929 . S
H488 C502 0.930 . S
H489 C504 0.960 . S
H490 C504 0.960 . S
H491 C504 0.960 . S
C492 H484 0.929 . S
C492 C493 1.377 . S
C492 C494 1.384 . S
C493 C492 1.377 . S
C493 C499 1.390 . S
C494 H485 0.930 . S
C494 C492 1.384 . S
C494 C495 1.372 . S
C495 C494 1.372 . S
C495 C496 1.400 . S
C495 C500 1.490 . S
C496 H486 0.930 . S
C496 C495 1.400 . S
C496 C499 1.386 . S
H497 C513 0.930 . S
H498 C514 0.931 . S
C499 H487 0.929 . S
C499 C493 1.390 . S
C499 C496 1.386 . S
C500 C495 1.490 . S
C500 C502 1.395 . S
C500 C503 1.403 . S
H501 C507 0.930 . S
C502 H488 0.930 . S
C502 C500 1.395 . S
C502 C505 1.403 . S
C503 C500 1.403 . S
C503 C504 1.524 . S
C503 C507 1.400 . S
C504 H489 0.960 . S
C504 H490 0.960 . S
C504 H491 0.960 . S
C504 C503 1.524 . S
C505 C502 1.403 . S
C505 C506 1.392 . S
C505 C509 1.495 . S
C506 C505 1.392 . S
C506 C507 1.385 . S
C506 C508 1.478 . S
C507 H501 0.930 . S
C507 C503 1.400 . S
C507 C506 1.385 . S
C508 C506 1.478 . S
C508 C510 1.381 . S
C508 C514 1.383 . S
C509 C505 1.495 . S
C509 H515 0.959 . S
C509 H516 0.961 . S
C509 H517 0.960 . S
C510 C508 1.381 . S
C510 C511 1.394 . S
C510 H518 0.930 . S
C511 C510 1.394 . S
C511 C512 1.383 . S
C511 H519 0.929 . S
C512 C511 1.383 . S
C512 C513 1.377 . S
C513 H497 0.930 . S
C513 C512 1.377 . S
C513 C514 1.379 . S
C514 H498 0.931 . S
C514 C508 1.383 . S
C514 C513 1.379 . S
H515 C509 0.959 . S
H516 C509 0.961 . S
H517 C509 0.960 . S
H518 C510 0.930 . S
H519 C511 0.929 . S
H520 C528 0.929 . S
H521 C530 0.930 . S
H522 C532 0.930 . S
H523 C535 0.929 . S
H524 C538 0.930 . S
H525 C540 0.960 . S
H526 C540 0.960 . S
H527 C540 0.960 . S
C528 H520 0.929 . S
C528 C529 1.377 . S
C528 C530 1.384 . S
C529 C528 1.377 . S
C529 C535 1.390 . S
C530 H521 0.930 . S
C530 C528 1.384 . S
C530 C531 1.372 . S
C531 C530 1.372 . S
C531 C532 1.400 . S
C531 C536 1.490 . S
C532 H522 0.930 . S
C532 C531 1.400 . S
C532 C535 1.386 . S
H533 C549 0.930 . S
H534 C550 0.931 . S
C535 H523 0.929 . S
C535 C529 1.390 . S
C535 C532 1.386 . S
C536 C531 1.490 . S
C536 C538 1.395 . S
C536 C539 1.403 . S
H537 C543 0.930 . S
C538 H524 0.930 . S
C538 C536 1.395 . S
C538 C541 1.403 . S
C539 C536 1.403 . S
C539 C540 1.524 . S
C539 C543 1.400 . S
C540 H525 0.960 . S
C540 H526 0.960 . S
C540 H527 0.960 . S
C540 C539 1.524 . S
C541 C538 1.403 . S
C541 C542 1.392 . S
C541 C545 1.495 1_655 S
C542 C541 1.392 . S
C542 C543 1.385 . S
C542 C544 1.478 . S
C543 H537 0.930 . S
C543 C539 1.400 . S
C543 C542 1.385 . S
C544 C542 1.478 . S
C544 C546 1.381 . S
C544 C550 1.383 . S
C545 C541 1.495 1_455 S
C545 H551 0.959 . S
C545 H552 0.961 . S
C545 H553 0.960 . S
C546 C544 1.381 . S
C546 C547 1.394 . S
C546 H554 0.930 . S
C547 C546 1.394 . S
C547 C548 1.383 . S
C547 H555 0.928 . S
C548 C547 1.383 . S
C548 C549 1.377 . S
C549 H533 0.930 . S
C549 C548 1.377 . S
C549 C550 1.379 . S
C550 H534 0.931 . S
C550 C544 1.383 . S
C550 C549 1.379 . S
H551 C545 0.959 . S
H552 C545 0.961 . S
H553 C545 0.960 . S
H554 C546 0.930 . S
H555 C547 0.928 . S
H556 C564 0.929 . S
H557 C566 0.930 . S
H558 C568 0.930 . S
H559 C571 0.929 . S
H560 C574 0.930 . S
H561 C576 0.960 . S
H562 C576 0.960 . S
H563 C576 0.960 . S
C564 H556 0.929 . S
C564 C565 1.377 . S
C564 C566 1.384 . S
C565 C564 1.377 . S
C565 C571 1.390 . S
C566 H557 0.930 . S
C566 C564 1.384 . S
C566 C567 1.372 . S
C567 C566 1.372 . S
C567 C568 1.400 . S
C567 C572 1.490 . S
C568 H558 0.930 . S
C568 C567 1.400 . S
C568 C571 1.386 . S
H569 C585 0.930 . S
H570 C586 0.931 . S
C571 H559 0.929 . S
C571 C565 1.390 . S
C571 C568 1.386 . S
C572 C567 1.490 . S
C572 C574 1.395 . S
C572 C575 1.403 . S
H573 C579 0.930 . S
C574 H560 0.930 . S
C574 C572 1.395 . S
C574 C577 1.403 . S
C575 C572 1.403 . S
C575 C576 1.524 . S
C575 C579 1.400 . S
C576 H561 0.960 . S
C576 H562 0.960 . S
C576 H563 0.960 . S
C576 C575 1.524 . S
C577 C574 1.403 . S
C577 C578 1.392 . S
C577 C581 1.495 . S
C578 C577 1.392 . S
C578 C579 1.385 . S
C578 C580 1.478 . S
C579 H573 0.930 . S
C579 C575 1.400 . S
C579 C578 1.385 . S
C580 C578 1.478 . S
C580 C582 1.381 . S
C580 C586 1.383 . S
C581 C577 1.495 . S
C581 H587 0.959 . S
C581 H588 0.961 . S
C581 H589 0.960 . S
C582 C580 1.381 . S
C582 C583 1.394 . S
C582 H590 0.930 . S
C583 C582 1.394 . S
C583 C584 1.383 . S
C583 H591 0.929 . S
C584 C583 1.383 . S
C584 C585 1.377 . S
C585 H569 0.930 . S
C585 C584 1.377 . S
C585 C586 1.379 . S
C586 H570 0.931 . S
C586 C580 1.383 . S
C586 C585 1.379 . S
H587 C581 0.959 . S
H588 C581 0.961 . S
H589 C581 0.960 . S
H590 C582 0.930 . S
H591 C583 0.929 . S
H592 C600 0.929 . S
H593 C602 0.930 . S
H594 C604 0.930 . S
H595 C607 0.929 . S
H596 C610 0.930 . S
H597 C612 0.960 . S
H598 C612 0.960 . S
H599 C612 0.960 . S
C600 H592 0.929 . S
C600 C601 1.377 . S
C600 C602 1.384 . S
C601 C600 1.377 . S
C601 C607 1.390 . S
C602 H593 0.930 . S
C602 C600 1.384 . S
C602 C603 1.372 . S
C603 C602 1.372 . S
C603 C604 1.400 . S
C603 C608 1.490 . S
C604 H594 0.930 . S
C604 C603 1.400 . S
C604 C607 1.386 . S
H605 C621 0.930 . S
H606 C622 0.931 . S
C607 H595 0.929 . S
C607 C601 1.390 . S
C607 C604 1.386 . S
C608 C603 1.490 . S
C608 C610 1.395 . S
C608 C611 1.403 . S
H609 C615 0.930 . S
C610 H596 0.930 . S
C610 C608 1.395 . S
C610 C613 1.403 . S
C611 C608 1.403 . S
C611 C612 1.524 . S
C611 C615 1.400 . S
C612 H597 0.960 . S
C612 H598 0.960 . S
C612 H599 0.960 . S
C612 C611 1.524 . S
C613 C610 1.403 . S
C613 C614 1.392 . S
C613 C617 1.495 . S
C614 C613 1.392 . S
C614 C615 1.385 . S
C614 C616 1.478 . S
C615 H609 0.930 . S
C615 C611 1.400 . S
C615 C614 1.385 . S
C616 C614 1.478 . S
C616 C618 1.381 . S
C616 C622 1.383 . S
C617 C613 1.495 . S
C617 H623 0.959 . S
C617 H624 0.961 . S
C617 H625 0.929 1_455 S
C618 C616 1.381 . S
C618 C619 1.394 . S
C618 H626 0.930 . S
C619 C618 1.394 . S
C619 C620 1.383 . S
C619 H627 0.929 1_455 S
C620 C619 1.383 . S
C620 C621 1.377 . S
C621 H605 0.930 . S
C621 C620 1.377 . S
C621 C622 1.379 . S
C622 H606 0.931 . S
C622 C616 1.383 . S
C622 C621 1.379 . S
H623 C617 0.959 . S
H624 C617 0.961 . S
H625 C617 0.929 1_655 S
H626 C618 0.930 . S
H627 C619 0.929 1_655 S
C224 C132 1.596 . S
C205 C119 1.598 . S
C241 C23 1.469 . S
C260 C175 1.535 . S
C277 C55 1.509 . S
C296 C141 1.594 . S
C313 C87 1.536 . S
C332 C166 1.523 . S
C368 C128 1.559 . S
C349 C17 1.489 . S
C404 C170 1.644 . S
C385 C61 1.536 . S
C421 C93 1.562 . S
C440 C136 1.560 . S
C457 C113 1.642 . S
C476 C162 1.640 . S
C512 C191 1.635 . S
C493 C49 1.543 . S
C548 C157 1.559 . S
C529 C81 1.566 . S
C584 C179 1.637 . S
C565 C125 1.645 . S
C601 C29 1.477 . S
C620 C145 1.560 . S
