# Generated by pormake.
# Topology pyr, (3,6)-cn, num edge types: 1
# Building blocks:
#     Node 0, Type 0, BuildingBlock: QEWDON_clean_linker_0, # of connection points: 3
#     Node 1, Type 0, BuildingBlock: QEWDON_clean_linker_0, # of connection points: 3
#     Node 2, Type 0, BuildingBlock: QEWDON_clean_linker_0, # of connection points: 3
#     Node 3, Type 0, BuildingBlock: QEWDON_clean_linker_0, # of connection points: 3
#     Node 4, Type 0, BuildingBlock: QEWDON_clean_linker_0, # of connection points: 3
#     Node 5, Type 0, BuildingBlock: QEWDON_clean_linker_0, # of connection points: 3
#     Node 6, Type 0, BuildingBlock: QEWDON_clean_linker_0, # of connection points: 3
#     Node 7, Type 0, BuildingBlock: QEWDON_clean_linker_0, # of connection points: 3
#     Node 8, Type 1, BuildingBlock: BETDAH_clean_sbu_0, # of connection points: 6
#     Node 9, Type 1, BuildingBlock: BETDAH_clean_sbu_0, # of connection points: 6
#     Node 10, Type 1, BuildingBlock: BETDAH_clean_sbu_0, # of connection points: 6
#     Node 11, Type 1, BuildingBlock: BETDAH_clean_sbu_0, # of connection points: 6
#     Edge 12, Type (0, 1), BuildingBlock: TEMPAE_clean_linker_10, # of connection points: 2
#     Edge 13, Type (0, 1), BuildingBlock: TEMPAE_clean_linker_10, # of connection points: 2
#     Edge 14, Type (0, 1), BuildingBlock: TEMPAE_clean_linker_10, # of connection points: 2
#     Edge 15, Type (0, 1), BuildingBlock: TEMPAE_clean_linker_10, # of connection points: 2
#     Edge 16, Type (0, 1), BuildingBlock: TEMPAE_clean_linker_10, # of connection points: 2
#     Edge 17, Type (0, 1), BuildingBlock: TEMPAE_clean_linker_10, # of connection points: 2
#     Edge 18, Type (0, 1), BuildingBlock: TEMPAE_clean_linker_10, # of connection points: 2
#     Edge 19, Type (0, 1), BuildingBlock: TEMPAE_clean_linker_10, # of connection points: 2
#     Edge 20, Type (0, 1), BuildingBlock: TEMPAE_clean_linker_10, # of connection points: 2
#     Edge 21, Type (0, 1), BuildingBlock: TEMPAE_clean_linker_10, # of connection points: 2
#     Edge 22, Type (0, 1), BuildingBlock: TEMPAE_clean_linker_10, # of connection points: 2
#     Edge 23, Type (0, 1), BuildingBlock: TEMPAE_clean_linker_10, # of connection points: 2
#     Edge 24, Type (0, 1), BuildingBlock: TEMPAE_clean_linker_10, # of connection points: 2
#     Edge 25, Type (0, 1), BuildingBlock: TEMPAE_clean_linker_10, # of connection points: 2
#     Edge 26, Type (0, 1), BuildingBlock: TEMPAE_clean_linker_10, # of connection points: 2
#     Edge 27, Type (0, 1), BuildingBlock: TEMPAE_clean_linker_10, # of connection points: 2
#     Edge 28, Type (0, 1), BuildingBlock: TEMPAE_clean_linker_10, # of connection points: 2
#     Edge 29, Type (0, 1), BuildingBlock: TEMPAE_clean_linker_10, # of connection points: 2
#     Edge 30, Type (0, 1), BuildingBlock: TEMPAE_clean_linker_10, # of connection points: 2
#     Edge 31, Type (0, 1), BuildingBlock: TEMPAE_clean_linker_10, # of connection points: 2
#     Edge 32, Type (0, 1), BuildingBlock: TEMPAE_clean_linker_10, # of connection points: 2
#     Edge 33, Type (0, 1), BuildingBlock: TEMPAE_clean_linker_10, # of connection points: 2
#     Edge 34, Type (0, 1), BuildingBlock: TEMPAE_clean_linker_10, # of connection points: 2
#     Edge 35, Type (0, 1), BuildingBlock: TEMPAE_clean_linker_10, # of connection points: 2
# Relax obj value: 0.169
# Max RMSD: 0.266
# Mean RMSD: 0.196
data_MOF--net-pyr--node1-BETDAH_clean_sbu_0--node2-QEWDON_clean_linker_0--edge1-TEMPAE_clean_linker_10
_symmetry_space_group_name_H-M    P1
_symmetry_Int_Tables_number       1
_symmetry_cell_setting            triclinic
loop_
_symmetry_equiv_pos_as_xyz
'x, y, z'
_cell_length_a     38.637964
_cell_length_b     41.111844
_cell_length_c     39.807497
_cell_angle_alpha  92.170984
_cell_angle_beta   89.265907
_cell_angle_gamma 109.03653
loop_
_atom_site_label
_atom_site_type_symbol
_atom_site_fract_x
_atom_site_fract_y
_atom_site_fract_z
_atom_type_partial_charge
H0 H 0.43165 0.35669 0.21639 0.0
C1 C 0.41458 0.34418 0.23705 0.0
C2 C 0.41153 0.3099 0.24447 0.0
C3 C 0.39542 0.36216 0.25682 0.0
H4 H 0.38736 0.26816 0.2777 0.0
C5 C 0.39003 0.29443 0.27182 0.0
C6 C 0.37178 0.31248 0.29156 0.0
C7 C 0.37422 0.34598 0.28391 0.0
C8 C 0.40021 0.39913 0.25303 0.0
H9 H 0.3599 0.35972 0.29949 0.0
C10 C 0.37303 0.40988 0.2378 0.0
C11 C 0.37494 0.44507 0.2394 0.0
C12 C 0.42851 0.42334 0.27106 0.0
H13 H 0.44841 0.41533 0.28451 0.0
C14 C 0.43055 0.45778 0.27319 0.0
H15 H 0.34997 0.39051 0.22592 0.0
C16 C 0.40457 0.46868 0.25719 0.0
H17 H 0.40829 0.4959 0.25876 0.0
H18 H 0.45238 0.4762 0.2875 0.0
H19 H 0.23425 0.89744 0.74172 0.0
C20 C 0.25309 0.89291 0.72319 0.0
C21 C 0.29109 0.9082 0.72731 0.0
C22 C 0.23939 0.87072 0.69505 0.0
H23 H 0.3431 0.91784 0.7025 0.0
C24 C 0.31385 0.90441 0.70098 0.0
C25 C 0.30119 0.87662 0.67807 0.0
C26 C 0.26367 0.86064 0.67392 0.0
C27 C 0.20119 0.86247 0.68454 0.0
H28 H 0.25358 0.84062 0.65453 0.0
C29 C 0.189 0.8902 0.6788 0.0
C30 C 0.15787 0.88547 0.65955 0.0
C31 C 0.18026 0.8292 0.67301 0.0
H32 H 0.1897 0.80751 0.67668 0.0
C33 C 0.14792 0.8242 0.65507 0.0
H34 H 0.2059 0.91618 0.68619 0.0
C35 C 0.13711 0.85243 0.64764 0.0
H36 H 0.11332 0.84872 0.63195 0.0
H37 H 0.1322 0.7987 0.64558 0.0
H38 H 0.72157 0.45207 0.9128 0.0
C39 C 0.71253 0.42596 0.92137 0.0
C40 C 0.73427 0.41604 0.94469 0.0
C41 C 0.67947 0.40216 0.90916 0.0
H42 H 0.73649 0.37706 0.97808 0.0
C43 C 0.7209 0.38287 0.95821 0.0
C44 C 0.68786 0.35816 0.94675 0.0
C45 C 0.66986 0.36777 0.92002 0.0
C46 C 0.65292 0.41233 0.88717 0.0
H47 H 0.64772 0.34825 0.90741 0.0
C48 C 0.66274 0.44123 0.86562 0.0
C49 C 0.63539 0.44846 0.84611 0.0
C50 C 0.61544 0.3925 0.88906 0.0
H51 H 0.60537 0.37219 0.90672 0.0
C52 C 0.5895 0.39828 0.86858 0.0
H53 H 0.69083 0.45805 0.8643 0.0
C54 C 0.59937 0.42537 0.84701 0.0
H55 H 0.5781 0.4288 0.83144 0.0
H56 H 0.56121 0.38187 0.86987 0.0
H57 H 0.90424 0.77868 0.37264 0.0
C58 C 0.88753 0.76183 0.39109 0.0
C59 C 0.88523 0.7745 0.42461 0.0
C60 C 0.86542 0.72811 0.38063 0.0
H61 H 0.86054 0.76001 0.47349 0.0
C62 C 0.86219 0.75194 0.44748 0.0
C63 C 0.83786 0.72018 0.43683 0.0
C64 C 0.84036 0.70788 0.40397 0.0
C65 C 0.86179 0.71576 0.34433 0.0
H66 H 0.82105 0.68317 0.39604 0.0
C67 C 0.8916 0.71438 0.32335 0.0
C68 C 0.88489 0.69986 0.28991 0.0
C69 C 0.8261 0.70315 0.33101 0.0
H70 H 0.80279 0.70441 0.34579 0.0
C71 C 0.81952 0.68814 0.29892 0.0
H72 H 0.91934 0.72421 0.3329 0.0
C73 C 0.84838 0.68618 0.27877 0.0
H74 H 0.84195 0.67377 0.25407 0.0
H75 H 0.79172 0.67783 0.28959 0.0
H76 H 0.67782 0.78362 0.91141 0.0
C77 C 0.68781 0.79028 0.88619 0.0
C78 C 0.71523 0.778 0.87233 0.0
C79 C 0.67213 0.80974 0.86648 0.0
H80 H 0.74566 0.77386 0.82825 0.0
C81 C 0.72622 0.78515 0.83907 0.0
C82 C 0.71503 0.80844 0.82075 0.0
C83 C 0.68698 0.81986 0.83446 0.0
C84 C 0.63719 0.81556 0.87622 0.0
H85 H 0.6764 0.83669 0.82057 0.0
C86 C 0.63453 0.83916 0.90224 0.0
C87 C 0.60085 0.84548 0.90832 0.0
C88 C 0.6061 0.79826 0.85683 0.0
H89 H 0.60752 0.78029 0.83664 0.0
C90 C 0.5731 0.80424 0.86272 0.0
H91 H 0.65849 0.85274 0.91714 0.0
C92 C 0.5705 0.8277 0.88795 0.0
H93 H 0.54466 0.83249 0.89087 0.0
H94 H 0.5495 0.791 0.84725 0.0
H95 H 0.81729 0.2575 0.54395 0.0
C96 C 0.80382 0.2493 0.51995 0.0
C97 C 0.81445 0.22677 0.49772 0.0
C98 C 0.77363 0.25931 0.51215 0.0
H99 H 0.79784 0.19286 0.45404 0.0
C100 C 0.79332 0.21377 0.46876 0.0
C101 C 0.76496 0.22585 0.45971 0.0
C102 C 0.75685 0.25031 0.48081 0.0
C103 C 0.75271 0.27008 0.53875 0.0
H104 H 0.73489 0.26005 0.47466 0.0
C105 C 0.76537 0.30276 0.5547 0.0
C106 C 0.74242 0.3128 0.57756 0.0
C107 C 0.71761 0.24742 0.54603 0.0
H108 H 0.70742 0.22219 0.5336 0.0
C109 C 0.69491 0.25738 0.56848 0.0
H110 H 0.79207 0.32054 0.54846 0.0
C111 C 0.70705 0.28989 0.58401 0.0
H112 H 0.68811 0.29758 0.6002 0.0
H113 H 0.66754 0.24018 0.57325 0.0
H114 H 0.4234 0.80017 0.28843 0.0
C115 C 0.39674 0.78889 0.27684 0.0
C116 C 0.3846 0.8078 0.25308 0.0
C117 C 0.37501 0.75469 0.2842 0.0
H118 H 0.34194 0.80666 0.21834 0.0
C119 C 0.35076 0.79251 0.23706 0.0
C120 C 0.32917 0.75864 0.24303 0.0
C121 C 0.34121 0.74005 0.26674 0.0
C122 C 0.38917 0.73143 0.30495 0.0
H123 H 0.32452 0.71368 0.27099 0.0
C124 C 0.40292 0.73891 0.33874 0.0
C125 C 0.41303 0.71368 0.35665 0.0
C126 C 0.38725 0.69934 0.28991 0.0
H127 H 0.37773 0.69276 0.26426 0.0
C128 C 0.39726 0.67509 0.30728 0.0
H129 H 0.40477 0.76334 0.35109 0.0
C130 C 0.40975 0.68204 0.3402 0.0
H131 H 0.41711 0.66242 0.353 0.0
H132 H 0.39516 0.65052 0.29512 0.0
H133 H 0.23347 0.47562 0.74749 0.0
C134 C 0.22173 0.45193 0.73279 0.0
C135 C 0.2398 0.44506 0.70361 0.0
C136 C 0.18997 0.42742 0.74479 0.0
H137 H 0.23695 0.40823 0.66252 0.0
C138 C 0.22345 0.4137 0.68494 0.0
C139 C 0.19049 0.38893 0.69567 0.0
C140 C 0.17452 0.39638 0.72589 0.0
C141 C 0.17685 0.43088 0.77994 0.0
H142 H 0.15072 0.37719 0.73601 0.0
C143 C 0.1695 0.46069 0.79312 0.0
C144 C 0.15691 0.46168 0.82678 0.0
C145 C 0.17281 0.40332 0.80119 0.0
H146 H 0.17907 0.38063 0.79229 0.0
C147 C 0.16144 0.40472 0.8343 0.0
H148 H 0.17247 0.48223 0.7772 0.0
C149 C 0.1535 0.43345 0.84695 0.0
H150 H 0.14462 0.43363 0.87287 0.0
H151 H 0.15873 0.38332 0.85031 0.0
Ho152 Ho 0.04603 0.09596 0.52307 0.0
Ho153 Ho 0.02179 0.06819 0.59126 0.0
C154 C 0.06932 0.1474 0.58971 0.0
C155 C 0.06668 0.13181 0.47063 0.0
C156 C 0.10301 0.15579 0.46315 0.0
C157 C 0.10709 0.18181 0.44036 0.0
C158 C 0.14202 0.2036 0.43231 0.0
C159 C 0.17328 0.19955 0.44698 0.0
C160 C 0.16891 0.17417 0.47076 0.0
C161 C 0.13401 0.15258 0.47892 0.0
C162 C 0.09305 0.07042 0.55403 0.0
C163 C 0.99871 1.01807 0.52336 0.0
C164 C 1.00101 1.02949 0.64206 0.0
C165 C 0.96541 1.00308 0.64946 0.0
C166 C 0.96335 0.96877 0.65409 0.0
C167 C 0.92993 0.94404 0.6623 0.0
C168 C 0.8982 0.95338 0.66625 0.0
C169 C 0.89994 0.98726 0.66026 0.0
C170 C 0.93309 1.01181 0.65172 0.0
C171 C 0.97603 0.0954 0.56211 0.0
O172 O 0.06102 0.14408 0.55727 0.0
O173 O 0.06233 0.11969 0.60815 0.0
O174 O 0.06505 0.09962 0.47181 0.0
O175 O 0.04943 0.14136 0.49558 0.0
O176 O 0.08593 0.06629 0.52228 0.0
O177 O 0.07538 0.08799 0.56745 0.0
O178 O 1.00739 1.02073 0.5557 0.0
O179 O 1.00446 0.04599 0.50584 0.0
O180 O 1.0013 0.06139 0.64207 0.0
O181 O 0.01994 1.0221 0.6172 0.0
O182 O 0.98159 0.09705 0.59407 0.0
O183 O 0.99251 0.07739 0.54731 0.0
H184 H 0.08338 0.18479 0.4283 0.0
H185 H 0.14462 0.22271 0.4136 0.0
H186 H 0.19247 0.1707 0.48263 0.0
H187 H 0.13127 0.13292 0.49709 0.0
H188 H 0.98773 0.96128 0.65206 0.0
H189 H 0.92922 0.91807 0.66713 0.0
H190 H 0.87575 0.99497 0.66314 0.0
H191 H 0.93343 0.0378 0.64762 0.0
Ho192 Ho 0.56294 0.09008 0.11284 0.0
Ho193 Ho 0.49409 0.07417 0.07761 0.0
C194 C 0.50313 0.12495 0.13953 0.0
C195 C 0.62706 0.12233 0.13523 0.0
C196 C 0.6371 0.13361 0.17023 0.0
C197 C 0.63071 0.16319 0.18389 0.0
C198 C 0.6347 0.17098 0.21816 0.0
C199 C 0.6457 0.14969 0.23933 0.0
C200 C 0.65263 0.12042 0.2257 0.0
C201 C 0.64838 0.11246 0.19142 0.0
C202 C 0.51574 0.03848 0.14829 0.0
C203 C 0.54986 0.03361 0.05295 0.0
C204 C 0.43336 0.04723 0.04587 0.0
C205 C 0.42427 1.02918 1.01306 0.0
C206 C 0.42375 0.99496 1.00791 0.0
C207 C 0.41546 0.97869 0.97626 0.0
C208 C 0.40773 0.99648 0.9495 0.0
C209 C 0.40886 1.03076 0.95468 0.0
C210 C 0.41694 0.04689 0.98615 0.0
C211 C 0.54669 0.13248 0.05749 0.0
O212 O 0.53831 0.12923 0.13551 0.0
O213 O 0.47846 0.09944 0.12353 0.0
O214 O 0.6155 0.08898 0.12932 0.0
O215 O 0.60694 0.13782 0.12054 0.0
O216 O 0.54905 0.05534 0.15682 0.0
O217 O 0.50777 0.05155 0.12237 0.0
O218 O 0.51832 0.03872 0.04789 0.0
O219 O 0.57302 0.05154 0.0761 0.0
O220 O 0.45265 0.07981 0.04491 0.0
O221 O 0.44445 1.03136 0.06913 0.0
O222 O 0.51317 0.13022 0.06425 0.0
O223 O 0.55101 0.10376 0.06232 0.0
H224 H 0.62166 0.17991 0.16832 0.0
H225 H 0.62905 0.19362 0.22812 0.0
H226 H 0.66191 0.10397 0.24142 0.0
H227 H 0.65324 0.08938 0.18162 0.0
H228 H 0.42955 0.98073 0.02823 0.0
H229 H 0.41482 0.95223 0.97277 0.0
H230 H 0.40228 0.04487 0.93465 0.0
H231 H 0.41718 0.07325 0.98947 0.0
Ho232 Ho 0.55676 0.59016 0.58917 0.0
Ho233 Ho 0.56375 0.65284 0.63516 0.0
C234 C 0.59057 0.59426 0.66551 0.0
C235 C 0.58411 0.55203 0.5525 0.0
C236 C 0.59939 0.52513 0.56069 0.0
C237 C 0.63698 0.53209 0.55511 0.0
C238 C 0.65518 0.51194 0.56914 0.0
C239 C 0.63599 0.48389 0.58833 0.0
C240 C 0.59804 0.47578 0.59287 0.0
C241 C 0.57983 0.4967 0.57952 0.0
C242 C 0.49698 0.57249 0.62886 0.0
C243 C 0.52262 0.64524 0.56084 0.0
C244 C 0.55626 0.70434 0.6695 0.0
C245 C 0.5344 0.72593 0.66221 0.0
C246 C 0.50451 0.71284 0.64047 0.0
C247 C 0.48383 0.73309 0.63217 0.0
C248 C 0.49174 0.76622 0.64667 0.0
C249 C 0.52264 0.78011 0.66733 0.0
C250 C 0.54421 0.75995 0.6749 0.0
C251 C 0.62222 0.65717 0.5957 0.0
O252 O 0.58526 0.57946 0.63503 0.0
O253 O 0.58211 0.62235 0.6728 0.0
O254 O 0.54858 0.54577 0.55481 0.0
O255 O 0.60304 0.58163 0.56632 0.0
O256 O 0.50392 0.55256 0.6056 0.0
O257 O 0.5224 0.60147 0.62999 0.0
O258 O 0.53044 0.66153 0.59084 0.0
O259 O 0.5315 0.6172 0.55343 0.0
O260 O 0.58297 0.70712 0.64829 0.0
O261 O 0.5376 0.6723 0.67571 0.0
O262 O 0.62482 0.66794 0.62689 0.0
O263 O 0.58896 0.64477 0.58762 0.0
H264 H 0.6527 0.55431 0.54125 0.0
H265 H 0.68434 0.51817 0.5648 0.0
H266 H 0.58281 0.45384 0.60729 0.0
H267 H 0.55096 0.4913 0.58478 0.0
H268 H 0.49637 0.68658 0.63065 0.0
H269 H 0.46019 0.7221 0.61601 0.0
H270 H 0.5289 0.80565 0.67891 0.0
H271 H 0.56775 0.77046 0.69123 0.0
Ho272 Ho 0.05911 0.58493 0.06442 0.0
Ho273 Ho 0.04699 0.65101 0.03171 0.0
C274 C 0.11627 0.66214 0.08073 0.0
C275 C 0.09055 0.53935 0.07463 0.0
C276 C 0.12237 0.53653 0.09362 0.0
C277 C 0.1526 0.53294 0.07576 0.0
C278 C 0.18179 0.5275 0.09251 0.0
C279 C 0.1817 0.5255 0.12776 0.0
C280 C 0.15198 0.53047 0.14575 0.0
C281 C 0.12264 0.5358 0.12891 0.0
C282 C 0.0275 0.61941 0.10895 0.0
C283 C 0.98408 0.57312 0.02484 0.0
C284 C 0.01851 0.69636 1.01181 0.0
C285 C 0.98448 0.69863 0.99587 0.0
C286 C 0.95433 0.69926 1.01574 0.0
C287 C 0.92371 0.70457 1.00144 0.0
C288 C 0.92199 0.70936 0.96669 0.0
C289 C 0.9521 0.70846 0.94669 0.0
C290 C 0.98292 0.70332 0.96109 0.0
C291 C 0.08771 0.61898 0.99538 0.0
O292 O 0.11022 0.62857 0.0776 0.0
O293 O 0.09448 0.67749 0.0672 0.0
O294 O 0.06149 0.54064 0.09133 0.0
O295 O 0.0985 0.56025 0.04964 0.0
O296 O 0.03189 0.59009 0.11483 0.0
O297 O 0.04055 0.6274 0.08007 0.0
O298 O 0.99406 0.60692 1.02041 0.0
O299 O 1.00512 0.55801 0.03961 0.0
O300 O 0.04035 0.68465 0.99322 0.0
O301 O 1.01617 0.68578 0.04267 0.0
O302 O 0.09255 0.65184 0.99526 0.0
O303 O 0.05973 0.60469 1.01317 0.0
H304 H 0.15327 0.53344 0.04856 0.0
H305 H 0.20374 0.52352 0.07754 0.0
H306 H 0.15113 0.52992 0.17292 0.0
H307 H 0.09998 0.53881 0.14353 0.0
H308 H 0.95464 0.69642 0.04266 0.0
H309 H 0.90175 0.70587 1.01803 0.0
H310 H 0.95195 0.71169 0.91983 0.0
H311 H 1.00579 0.70352 0.94498 0.0
C312 C 0.31235 0.27518 0.31216 0.0
C313 C 0.34817 0.29584 0.31924 0.0
C314 C 0.288 0.26136 0.33815 0.0
C315 C 0.30016 0.26821 0.37194 0.0
C316 C 0.33672 0.28868 0.37917 0.0
C317 C 0.36042 0.30252 0.35252 0.0
C318 C 0.24906 0.23999 0.32943 0.0
C319 C 0.35064 0.29599 0.41485 0.0
C320 C 0.21864 0.25463 0.42869 0.0
C321 C 0.21017 0.2196 0.43498 0.0
C322 C 0.25032 0.27211 0.41089 0.0
C323 C 0.27382 0.25397 0.39919 0.0
C324 C 0.26737 0.21965 0.40851 0.0
C325 C 0.23543 0.20275 0.42625 0.0
C326 C 0.25671 0.30896 0.40192 0.0
C327 C 0.29221 0.1997 0.39691 0.0
H328 H 0.30322 0.27056 0.28623 0.0
H329 H 0.38833 0.31878 0.35758 0.0
H330 H 0.24255 0.21392 0.33961 0.0
H331 H 0.22978 0.25205 0.3411 0.0
H332 H 0.24417 0.23722 0.30187 0.0
H333 H 0.37893 0.31455 0.41624 0.0
H334 H 0.33241 0.30643 0.43042 0.0
H335 H 0.35046 0.27167 0.42612 0.0
H336 H 0.19953 0.26788 0.43618 0.0
H337 H 0.22902 0.17565 0.43108 0.0
H338 H 0.24988 0.30975 0.37503 0.0
H339 H 0.28589 0.32467 0.40539 0.0
H340 H 0.23954 0.32091 0.41729 0.0
H341 H 0.28748 0.19259 0.36978 0.0
H342 H 0.2871 0.17571 0.41091 0.0
H343 H 0.32137 0.21565 0.39997 0.0
C344 C 0.29233 0.93801 0.78429 0.0
C345 C 0.30802 0.92089 0.76066 0.0
C346 C 0.30851 0.94813 0.81609 0.0
C347 C 0.34046 0.94031 0.82428 0.0
C348 C 0.3557 0.92229 0.80101 0.0
C349 C 0.33963 0.91333 0.76964 0.0
C350 C 0.29205 0.96784 0.84064 0.0
C351 C 0.38948 0.91264 0.80808 0.0
C352 C 0.40686 0.99686 0.8873 0.0
C353 C 0.39513 0.97906 0.91686 0.0
C354 C 0.38907 0.98447 0.85691 0.0
C355 C 0.35968 0.95311 0.85614 0.0
C356 C 0.35023 0.93325 0.88511 0.0
C357 C 0.36779 0.94677 0.91547 0.0
C358 C 0.40139 1.00512 0.82579 0.0
C359 C 0.32134 0.89812 0.88411 0.0
H360 H 0.26801 0.94401 0.77781 0.0
H361 H 0.35237 0.89996 0.75243 0.0
H362 H 0.28526 0.9541 0.86454 0.0
H363 H 0.31236 0.99353 0.84659 0.0
H364 H 0.26685 0.9714 0.83068 0.0
H365 H 0.41239 0.92797 0.79219 0.0
H366 H 0.39834 0.91667 0.83471 0.0
H367 H 0.38439 0.88513 0.80073 0.0
H368 H 0.42896 1.02126 0.88829 0.0
H369 H 0.35895 0.93282 0.93829 0.0
H370 H 0.3777 1.00958 0.81365 0.0
H371 H 0.41291 0.99044 0.80741 0.0
H372 H 0.4226 1.03041 0.8314 0.0
H373 H 0.29409 0.90075 0.87982 0.0
H374 H 0.32034 0.88444 0.90783 0.0
H375 H 0.32671 0.88205 0.86292 0.0
C376 C 0.61452 0.49605 0.82606 0.0
C377 C 0.64137 0.47966 0.82506 0.0
C378 C 0.61139 0.51773 0.80064 0.0
C379 C 0.63738 0.52575 0.77424 0.0
C380 C 0.66737 0.51281 0.77526 0.0
C381 C 0.6687 0.48943 0.80028 0.0
C382 C 0.57839 0.52981 0.80082 0.0
C383 C 0.69777 0.52334 0.74969 0.0
C384 C 0.60005 0.54223 0.69011 0.0
C385 C 0.60548 0.57773 0.69235 0.0
C386 C 0.61161 0.5254 0.71582 0.0
C387 C 0.63047 0.54452 0.74435 0.0
C388 C 0.63812 0.5808 0.74575 0.0
C389 C 0.62481 0.59679 0.72027 0.0
C390 C 0.60208 0.48674 0.71303 0.0
C391 C 0.65996 0.60287 0.77434 0.0
H392 H 0.59391 0.48972 0.84568 0.0
H393 H 0.69002 0.47763 0.79945 0.0
H394 H 0.58721 0.55828 0.80262 0.0
H395 H 0.5629 0.52143 0.77698 0.0
H396 H 0.55956 0.51966 0.8221 0.0
H397 H 0.71739 0.5089 0.75187 0.0
H398 H 0.68664 0.51947 0.72377 0.0
H399 H 0.71289 0.55125 0.75347 0.0
H400 H 0.58534 0.52718 0.6687 0.0
H401 H 0.62984 0.62432 0.72213 0.0
H402 H 0.5848 0.47491 0.73471 0.0
H403 H 0.62732 0.47955 0.71383 0.0
H404 H 0.58716 0.47558 0.68942 0.0
H405 H 0.64157 0.60319 0.79585 0.0
H406 H 0.67316 0.6299 0.76688 0.0
H407 H 0.68146 0.59266 0.78305 0.0
C408 C 0.94112 0.68331 0.2733 0.0
C409 C 0.91416 0.69785 0.26527 0.0
C410 C 0.96287 0.67445 0.24784 0.0
C411 C 0.95721 0.67968 0.21346 0.0
C412 C 0.93145 0.69608 0.20563 0.0
C413 C 0.91096 0.70543 0.23148 0.0
C414 C 0.99077 0.65804 0.25757 0.0
C415 C 0.92338 0.70146 0.16963 0.0
C416 C 0.02354 0.6714 0.14286 0.0
C417 C 1.00783 0.63684 0.13204 0.0
C418 C 1.00788 0.68563 0.16966 0.0
C419 C 0.97522 0.66511 0.18545 0.0
C420 C 0.95876 0.63056 0.17356 0.0
C421 C 0.97563 0.61679 0.14768 0.0
C422 C 0.02698 0.72222 0.18192 0.0
C423 C 0.92346 0.60775 0.18848 0.0
H424 H 0.94389 0.67717 0.29915 0.0
H425 H 0.89061 0.71707 0.22491 0.0
H426 H 0.98183 0.63073 0.24846 0.0
H427 H 1.01748 0.6712 0.24547 0.0
H428 H 0.99474 0.65894 0.28522 0.0
H429 H 0.90448 0.71671 0.16778 0.0
H430 H 0.94902 0.71479 0.15606 0.0
H431 H 0.91065 0.67608 0.15656 0.0
H432 H 0.04902 0.68678 0.13157 0.0
H433 H 0.96368 0.58993 0.13976 0.0
H434 H 0.03515 0.72245 0.20858 0.0
H435 H 1.00809 0.73749 0.18098 0.0
H436 H 0.05176 0.73503 0.16687 0.0
H437 H 0.92825 0.60224 0.21475 0.0
H438 H 0.9122 0.58288 0.17411 0.0
H439 H 0.90258 0.62097 0.18913 0.0
C440 C 0.40897 0.26457 0.20025 0.0
C441 C 0.4295 0.28875 0.22424 0.0
C442 C 0.42183 0.23868 0.1862 0.0
C443 C 0.45602 0.23659 0.19659 0.0
C444 C 0.47736 0.26168 0.22016 0.0
C445 C 0.46377 0.28735 0.2338 0.0
C446 C 0.39812 0.21275 0.16114 0.0
C447 C 0.51402 0.26075 0.23179 0.0
C448 C 0.4704 0.14867 0.18473 0.0
C449 C 0.49188 0.15326 0.15555 0.0
C450 C 0.4593 0.17581 0.19887 0.0
C451 C 0.46911 0.20798 0.18297 0.0
C452 C 0.49054 0.21238 0.15333 0.0
C453 C 0.5017 0.18511 0.14025 0.0
C454 C 0.437 0.17008 0.2308 0.0
C455 C 0.50115 0.24571 0.13498 0.0
H456 H 0.38203 0.26506 0.19355 0.0
H457 H 0.47923 0.30546 0.25302 0.0
H458 H 0.41389 0.21158 0.1379 0.0
H459 H 0.38947 0.18676 0.17179 0.0
H460 H 0.37324 0.21895 0.15433 0.0
H461 H 0.52695 0.28161 0.25072 0.0
H462 H 0.51081 0.23558 0.24292 0.0
H463 H 0.53281 0.26332 0.21001 0.0
H464 H 0.46253 0.12401 0.19658 0.0
H465 H 0.5173 0.18836 0.11731 0.0
H466 H 0.41029 0.17384 0.22641 0.0
H467 H 0.45146 0.18931 0.25055 0.0
H468 H 0.4319 0.14387 0.24031 0.0
H469 H 0.4762 0.25131 0.12739 0.0
H470 H 0.51776 0.24496 0.11215 0.0
H471 H 0.51708 0.26733 0.15188 0.0
C472 C 0.16508 0.92831 0.61631 0.0
C473 C 0.15139 0.91609 0.64769 0.0
C474 C 0.1614 0.95877 0.6051 0.0
C475 C 0.14289 0.97663 0.62563 0.0
C476 C 0.13101 0.96539 0.65825 0.0
C477 C 0.13572 0.93513 0.66907 0.0
C478 C 0.17543 0.97074 0.57057 0.0
C479 C 0.11072 0.98354 0.68061 0.0
C480 C 0.13671 0.06011 0.59384 0.0
C481 C 0.10627 0.04725 0.57278 0.0
C482 C 0.14916 0.03751 0.61194 0.0
C483 C 0.12917 1.00187 0.61001 0.0
C484 C 0.09708 0.98934 0.59025 0.0
C485 C 0.08702 1.01212 0.57069 0.0
C486 C 0.18431 0.0515 0.63168 0.0
C487 C 0.07398 0.95171 0.58866 0.0
H488 H 0.17857 0.91395 0.60057 0.0
H489 H 0.12643 0.92588 0.69384 0.0
H490 H 0.15205 0.9648 0.55287 0.0
H491 H 0.18929 0.99903 0.57114 0.0
H492 H 0.19485 0.9579 0.56062 0.0
H493 H 0.11124 0.97682 0.70733 0.0
H494 H 0.12237 1.01189 0.67882 0.0
H495 H 0.08173 0.97566 0.67235 0.0
H496 H 0.15136 0.08756 0.59522 0.0
H497 H 0.06379 1.00251 0.55404 0.0
H498 H 0.20638 0.04499 0.61775 0.0
H499 H 0.18169 0.03963 0.65655 0.0
H500 H 0.19281 0.07993 0.63549 0.0
H501 H 0.08565 0.93779 0.56964 0.0
H502 H 0.04537 0.94825 0.58141 0.0
H503 H 0.07321 0.93952 0.61315 0.0
C504 C 0.77562 0.4742 0.96645 0.0
C505 C 0.77102 0.44022 0.95539 0.0
C506 C 0.81003 0.49663 0.97745 0.0
C507 C 0.84098 0.48522 0.97659 0.0
C508 C 0.83661 0.45117 0.96466 0.0
C509 C 0.80174 0.42905 0.95467 0.0
C510 C 0.81312 0.53244 0.99041 0.0
C511 C 0.86884 0.43807 0.96236 0.0
C512 C 0.93651 0.55323 0.97941 0.0
C513 C 0.94752 0.55111 1.01246 0.0
C514 C 0.90225 0.53166 0.96721 0.0
C515 C 0.87769 0.50843 0.989 0.0
C516 C 0.88851 0.50696 0.02269 0.0
C517 C 0.92351 0.52775 0.03376 0.0
C518 C 0.89266 0.53325 0.93081 0.0
C519 C 0.86293 0.48365 0.04723 0.0
H520 H 0.75205 0.483 0.96725 0.0
H521 H 0.79855 0.40297 0.9458 0.0
H522 H 0.82612 0.53747 1.01563 0.0
H523 H 0.83088 0.55172 0.97344 0.0
H524 H 0.78606 0.53643 0.9922 0.0
H525 H 0.86139 0.4117 0.95075 0.0
H526 H 0.89105 0.45561 0.94729 0.0
H527 H 0.88002 0.43773 0.98782 0.0
H528 H 0.95517 0.57113 0.96282 0.0
H529 H 0.93186 0.5263 0.05941 0.0
H530 H 0.86792 0.54113 0.92905 0.0
H531 H 0.88613 0.50735 0.91835 0.0
H532 H 0.91527 0.55163 0.9168 0.0
H533 H 0.83679 0.48939 0.04866 0.0
H534 H 0.8748 0.48656 0.07288 0.0
H535 H 0.85632 0.45639 0.03841 0.0
C536 C 0.77284 0.71246 0.44955 0.0
C537 C 0.80467 0.70513 0.45746 0.0
C538 C 0.743 0.7051 0.47178 0.0
C539 C 0.74447 0.68877 0.5022 0.0
C540 C 0.776 0.67978 0.50952 0.0
C541 C 0.80617 0.68892 0.48744 0.0
C542 C 0.71045 0.71584 0.46307 0.0
C543 C 0.77776 0.66034 0.54052 0.0
C544 C 0.6851 0.69372 0.57833 0.0
C545 C 0.65301 0.66619 0.57133 0.0
C546 C 0.71423 0.70256 0.55512 0.0
C547 C 0.71294 0.68097 0.52614 0.0
C548 C 0.68064 0.65294 0.51932 0.0
C549 C 0.65021 0.64793 0.5405 0.0
C550 C 0.74552 0.73571 0.56088 0.0
C551 C 0.67749 0.62783 0.48991 0.0
H552 H 0.77207 0.72564 0.42662 0.0
H553 H 0.83105 0.68375 0.49372 0.0
H554 H 0.687 0.69277 0.45593 0.0
H555 H 0.70197 0.72884 0.48508 0.0
H556 H 0.71628 0.73342 0.44167 0.0
H557 H 0.80274 0.6526 0.541 0.0
H558 H 0.77758 0.67642 0.56345 0.0
H559 H 0.75327 0.6369 0.54169 0.0
H560 H 0.68679 0.7093 0.60122 0.0
H561 H 0.62448 0.62926 0.53283 0.0
H562 H 0.75001 0.75119 0.53798 0.0
H563 H 0.77118 0.73023 0.56579 0.0
H564 H 0.7403 0.75147 0.58242 0.0
H565 H 0.66238 0.6345 0.4692 0.0
H566 H 0.66137 0.60134 0.49719 0.0
H567 H 0.7045 0.62755 0.4804 0.0
C568 C 0.34025 0.48791 0.23494 0.0
C569 C 0.3465 0.45746 0.22313 0.0
C570 C 0.31552 0.50095 0.21893 0.0
C571 C 0.29453 0.48231 0.1914 0.0
C572 C 0.29979 0.45127 0.17971 0.0
C573 C 0.32598 0.43959 0.19522 0.0
C574 C 0.3117 0.53469 0.23169 0.0
C575 C 0.27774 0.43037 0.15062 0.0
C576 C 0.20305 0.49498 0.17304 0.0
C577 C 0.21134 0.5163 0.14525 0.0
C578 C 0.22991 0.4843 0.18849 0.0
C579 C 0.26612 0.49461 0.17569 0.0
C580 C 0.27492 0.51646 0.14792 0.0
C581 C 0.24763 0.52728 0.13333 0.0
C582 C 0.2193 0.46133 0.2182 0.0
C583 C 0.31323 0.52869 0.13369 0.0
H584 H 0.35436 0.5018 0.25704 0.0
H585 H 0.33049 0.41653 0.18502 0.0
H586 H 0.3149 0.55242 0.21067 0.0
H587 H 0.28392 0.53018 0.24234 0.0
H588 H 0.33223 0.54764 0.25135 0.0
H589 H 0.28481 0.4067 0.14452 0.0
H590 H 0.2481 0.4228 0.15662 0.0
H591 H 0.28242 0.44618 0.12797 0.0
H592 H 0.17519 0.48575 0.18233 0.0
H593 H 0.25485 0.54441 0.11246 0.0
H594 H 0.23747 0.47295 0.23987 0.0
H595 H 0.22285 0.43611 0.21176 0.0
H596 H 0.19048 0.45682 0.22611 0.0
H597 H 0.33147 0.54794 0.15147 0.0
H598 H 0.3143 0.5408 0.10905 0.0
H599 H 0.32432 0.50703 0.13047 0.0
C600 C 0.69122 0.30953 0.98471 0.0
C601 C 0.67112 0.32317 0.96299 0.0
C602 C 0.67479 0.27834 1.00145 0.0
C603 C 0.63762 0.25865 0.99528 0.0
C604 C 0.61746 0.27141 0.97278 0.0
C605 C 0.63384 0.30351 0.958 0.0
C606 C 0.69723 0.26679 0.02626 0.0
C607 C 0.57797 0.25137 0.96468 0.0
C608 C 0.59687 0.1627 1.01647 0.0
C609 C 0.57429 0.16413 0.04402 0.0
C610 C 0.61857 0.19317 1.00089 0.0
C611 C 0.61868 0.226 1.01374 0.0
C612 C 0.59771 0.22736 0.04291 0.0
C613 C 0.57547 0.19663 0.05709 0.0
C614 C 0.63987 0.19015 0.96961 0.0
C615 C 0.59789 0.26137 0.05878 0.0
H616 H 0.71991 0.32308 0.98918 0.0
H617 H 0.61646 0.31314 0.94301 0.0
H618 H 0.68189 0.25962 0.05011 0.0
H619 H 0.70286 0.24362 1.01587 0.0
H620 H 0.7238 0.28706 0.03201 0.0
H621 H 0.56729 0.26247 0.94373 0.0
H622 H 0.57501 0.2242 0.95772 0.0
H623 H 0.56067 0.25122 0.98716 0.0
H624 H 0.59607 0.13775 1.00598 0.0
H625 H 0.55869 0.19815 0.07848 0.0
H626 H 0.66907 0.20587 0.9728 0.0
H627 H 0.62918 0.2004 0.94807 0.0
H628 H 0.6381 0.1631 0.96333 0.0
H629 H 0.62646 0.27872 0.06255 0.0
H630 H 0.58353 0.25822 0.08341 0.0
H631 H 0.58425 0.27423 0.04185 0.0
C632 C 0.88643 0.82657 0.4613 0.0
C633 C 0.90302 0.81175 0.43588 0.0
C634 C 0.9034 0.85993 0.47479 0.0
C635 C 0.93671 0.88078 0.46093 0.0
C636 C 0.95276 0.86714 0.43394 0.0
C637 C 0.93615 0.83267 0.42216 0.0
C638 C 0.88558 0.87271 0.50419 0.0
C639 C 0.98777 0.88885 0.41782 0.0
C640 C 0.95969 0.97767 0.47893 0.0
C641 C 0.9832 0.98326 0.50669 0.0
C642 C 0.94472 0.9446 0.46349 0.0
C643 C 0.95456 0.91663 0.47522 0.0
C644 C 0.97908 0.92243 0.50266 0.0
C645 C 0.99233 0.95535 0.51842 0.0
C646 C 0.91762 0.93937 0.43519 0.0
C647 C 0.99051 0.89363 0.51614 0.0
H648 H 0.85977 0.81222 0.47104 0.0
H649 H 0.94942 0.82213 0.4025 0.0
H650 H 0.90548 0.88247 0.52505 0.0
H651 H 0.87674 0.89442 0.49651 0.0
H652 H 0.86138 0.85226 0.51394 0.0
H653 H 0.9955 0.87546 0.39566 0.0
H654 H 0.98486 0.91337 0.40975 0.0
H655 H 1.01037 0.89551 0.43642 0.0
H656 H 0.95216 0.99898 0.46985 0.0
H657 H 1.01016 0.95926 0.5399 0.0
H658 H 0.89045 0.922 0.44312 0.0
H659 H 0.92632 0.92677 0.41303 0.0
H660 H 0.91448 0.96397 0.42756 0.0
H661 H 0.96709 0.8756 0.52951 0.0
H662 H 1.01387 0.90332 0.53391 0.0
H663 H 0.9984 0.87876 0.49532 0.0
C664 C 0.34787 0.85178 0.69351 0.0
C665 C 0.32706 0.85881 0.668 0.0
C666 C 0.37691 0.84014 0.68622 0.0
C667 C 0.38204 0.83057 0.65264 0.0
C668 C 0.35861 0.83393 0.62683 0.0
C669 C 0.33174 0.84919 0.63469 0.0
C670 C 0.40087 0.83762 0.71518 0.0
C671 C 0.36138 0.82053 0.59146 0.0
C672 C 0.47267 0.81741 0.63673 0.0
C673 C 0.46385 0.78294 0.64504 0.0
C674 C 0.4455 0.83309 0.63712 0.0
C675 C 0.40925 0.81346 0.64581 0.0
C676 C 0.40038 0.77856 0.65389 0.0
C677 C 0.42793 0.76381 0.65359 0.0
C678 C 0.45595 0.87104 0.63077 0.0
C679 C 0.36257 0.75745 0.66549 0.0
H680 H 0.34164 0.85569 0.71952 0.0
H681 H 0.31449 0.85336 0.61519 0.0
H682 H 0.42662 0.83322 0.70724 0.0
H683 H 0.40812 0.86172 0.73107 0.0
H684 H 0.38517 0.81641 0.73139 0.0
H685 H 0.34075 0.82467 0.57446 0.0
H686 H 0.38913 0.83332 0.58121 0.0
H687 H 0.35732 0.79252 0.59168 0.0
H688 H 0.50072 0.83208 0.63062 0.0
H689 H 0.42159 0.73744 0.66123 0.0
H690 H 0.45263 0.88505 0.65435 0.0
H691 H 0.43753 0.87566 0.61173 0.0
H692 H 0.48472 0.88201 0.62204 0.0
H693 H 0.35893 0.76452 0.69218 0.0
H694 H 0.35845 0.7294 0.66381 0.0
H695 H 0.34103 0.76261 0.65051 0.0
C696 C 0.77213 0.82404 0.78525 0.0
C697 C 0.7354 0.82272 0.78928 0.0
C698 C 0.79334 0.83986 0.75811 0.0
C699 C 0.77873 0.85736 0.7353 0.0
C700 C 0.74143 0.85511 0.73784 0.0
C701 C 0.71995 0.83722 0.76443 0.0
C702 C 0.83274 0.84071 0.75605 0.0
C703 C 0.72493 0.87341 0.71374 0.0
C704 C 0.85218 0.93924 0.71183 0.0
C705 C 0.86473 0.92954 0.6812 0.0
C706 C 0.82265 0.91652 0.72863 0.0
C707 C 0.80469 0.88337 0.7141 0.0
C708 C 0.81598 0.87402 0.68219 0.0
C709 C 0.8464 0.89713 0.66627 0.0
C710 C 0.81236 0.92725 0.76306 0.0
C711 C 0.79719 0.8391 0.66576 0.0
H712 H 0.78576 0.81459 0.80427 0.0
H713 H 0.69152 0.83578 0.7662 0.0
H714 H 0.84075 0.837 0.72971 0.0
H715 H 0.85091 0.86618 0.76561 0.0
H716 H 0.83762 0.82051 0.77127 0.0
H717 H 0.69488 0.86686 0.71721 0.0
H718 H 0.7378 0.90166 0.71757 0.0
H719 H 0.73053 0.86678 0.68742 0.0
H720 H 0.86666 0.96421 0.72345 0.0
H721 H 0.85611 0.88979 0.64243 0.0
H722 H 0.81934 0.91161 0.78236 0.0
H723 H 0.78245 0.92255 0.76457 0.0
H724 H 0.82689 0.95486 0.76944 0.0
H725 H 0.80456 0.81915 0.67921 0.0
H726 H 0.80518 0.83789 0.63895 0.0
H727 H 0.76701 0.83257 0.66732 0.0
C728 C 0.75702 0.19905 0.40161 0.0
C729 C 0.74195 0.21085 0.42989 0.0
C730 C 0.73563 0.18499 0.37337 0.0
C731 C 0.69909 0.18501 0.37255 0.0
C732 C 0.68342 0.19641 0.40088 0.0
C733 C 0.70469 0.20804 0.4297 0.0
C734 C 0.75278 0.17172 0.34385 0.0
C735 C 0.64486 0.19785 0.40023 0.0
C736 C 0.673 0.19375 0.28405 0.0
C737 C 0.65319 0.15956 0.27503 0.0
C738 C 0.68582 0.20283 0.31675 0.0
C739 C 0.67906 0.1769 0.34062 0.0
C740 C 0.65696 0.14278 0.33238 0.0
C741 C 0.64397 0.13451 0.2995 0.0
C742 C 0.70896 0.23966 0.32494 0.0
C743 C 0.64974 0.11449 0.35727 0.0
H744 H 0.78576 0.20136 0.40105 0.0
H745 H 0.69204 0.2154 0.45182 0.0
H746 H 0.73348 0.14744 0.33292 0.0
H747 H 0.75963 0.19098 0.32395 0.0
H748 H 0.77832 0.16691 0.35111 0.0
H749 H 0.63686 0.20757 0.42452 0.0
H750 H 0.64244 0.21501 0.38015 0.0
H751 H 0.62513 0.17194 0.39423 0.0
H752 H 0.68045 0.21311 0.26512 0.0
H753 H 0.62802 0.10816 0.29256 0.0
H754 H 0.73816 0.24137 0.32642 0.0
H755 H 0.70116 0.24852 0.3497 0.0
H756 H 0.70638 0.25747 0.30555 0.0
H757 H 0.6749 0.10743 0.36011 0.0
H758 H 0.62716 0.09107 0.3489 0.0
H759 H 0.64285 0.12319 0.38241 0.0
C760 C 0.46473 0.73061 0.3988 0.0
C761 C 0.4269 0.71759 0.39237 0.0
C762 C 0.48 0.72322 0.42868 0.0
C763 C 0.45717 0.70177 0.45295 0.0
C764 C 0.41871 0.69059 0.44761 0.0
C765 C 0.40421 0.69841 0.41756 0.0
C766 C 0.52099 0.73633 0.43306 0.0
C767 C 0.39292 0.66819 0.4726 0.0
C768 C 0.49702 0.64303 0.50204 0.0
C769 C 0.50488 0.65967 0.53394 0.0
C770 C 0.48166 0.65642 0.47598 0.0
C771 C 0.47352 0.68752 0.48132 0.0
C772 C 0.48101 0.70438 0.5136 0.0
C773 C 0.49662 0.69043 0.53927 0.0
C774 C 0.47422 0.63711 0.44241 0.0
C775 C 0.47314 0.73753 0.52098 0.0
H776 H 0.48275 0.74451 0.37928 0.0
H777 H 0.3751 0.68733 0.41264 0.0
H778 H 0.52831 0.74738 0.45888 0.0
H779 H 0.53191 0.71459 0.42951 0.0
H780 H 0.5346 0.75625 0.41472 0.0
H781 H 0.36378 0.66423 0.46665 0.0
H782 H 0.39696 0.64268 0.47267 0.0
H783 H 0.39889 0.67987 0.49835 0.0
H784 H 0.50312 0.61936 0.49718 0.0
H785 H 0.50262 0.70392 0.5635 0.0
H786 H 0.48982 0.65386 0.4224 0.0
H787 H 0.44473 0.62999 0.43612 0.0
H788 H 0.48186 0.61329 0.4421 0.0
H789 H 0.49261 0.75848 0.50676 0.0
H790 H 0.47584 0.7451 0.54816 0.0
H791 H 0.44513 0.73522 0.51262 0.0
C792 C 0.11207 0.4831 0.8587 0.0
C793 C 0.14603 0.49074 0.84226 0.0
C794 C 0.10387 0.5071 0.88077 0.0
C795 C 0.13 0.54018 0.88649 0.0
C796 C 0.16336 0.54906 0.868 0.0
C797 C 0.17109 0.52417 0.84626 0.0
C798 C 0.06799 0.49616 0.89964 0.0
C799 C 0.19187 0.58411 0.87255 0.0
C800 C 0.09158 0.60397 0.93385 0.0
C801 C 0.10087 0.60082 0.96729 0.0
C802 C 0.10253 0.58593 0.90704 0.0
C803 C 0.12304 0.56387 0.91372 0.0
C804 C 0.13384 0.56192 0.94734 0.0
C805 C 0.12305 0.5807 0.97351 0.0
C806 C 0.09147 0.58989 0.87162 0.0
C807 C 0.15594 0.53911 0.95589 0.0
H808 H 0.0925 0.45737 0.85566 0.0
H809 H 0.19752 0.53028 0.83396 0.0
H810 H 0.07333 0.49594 0.92695 0.0
H811 H 0.05318 0.5148 0.89618 0.0
H812 H 0.04992 0.47013 0.89131 0.0
H813 H 0.21157 0.58984 0.85126 0.0
H814 H 0.17898 0.60458 0.87494 0.0
H815 H 0.20745 0.585 0.89597 0.0
H816 H 0.07514 0.62012 0.92871 0.0
H817 H 0.13231 0.57978 0.99879 0.0
H818 H 0.07193 0.56517 0.86189 0.0
H819 H 0.11579 0.59639 0.85487 0.0
H820 H 0.07841 0.61019 0.87012 0.0
H821 H 0.13979 0.51181 0.94995 0.0
H822 H 0.16379 0.5417 0.98286 0.0
H823 H 0.18119 0.54546 0.94042 0.0
C824 C 0.62406 0.90354 0.93927 0.0
C825 C 0.59667 0.87149 0.93427 0.0
C826 C 0.61794 0.92981 0.95996 0.0
C827 C 0.58354 0.92414 0.97598 0.0
C828 C 0.55641 0.89136 0.97226 0.0
C829 C 0.56339 0.86551 0.95182 0.0
C830 C 0.64788 0.96413 0.96373 0.0
C831 C 0.5194 0.88386 0.9889 0.0
C832 C 0.57594 0.98525 0.04848 0.0
C833 C 0.55907 1.00625 0.03294 0.0
C834 C 0.58356 0.9582 0.03046 0.0
C835 C 0.57542 0.95273 0.99567 0.0
C836 C 0.55878 0.97421 0.97979 0.0
C837 C 0.55021 1.00027 0.99873 0.0
C838 C 0.59952 0.93496 0.04887 0.0
C839 C 0.55005 0.9697 0.94271 0.0
H840 H 0.64977 0.90869 0.92588 0.0
H841 H 0.54223 0.84065 0.94898 0.0
H842 H 0.63849 0.98455 0.95346 0.0
H843 H 0.65417 0.97086 0.99073 0.0
H844 H 0.67344 0.96423 0.95057 0.0
H845 H 0.50279 0.85615 0.98658 0.0
H846 H 0.52254 0.89175 1.01595 0.0
H847 H 0.50401 0.89898 0.97711 0.0
H848 H 0.5822 0.98936 0.07509 0.0
H849 H 0.53712 1.01638 0.98664 0.0
H850 H 0.62558 0.93489 0.03691 0.0
H851 H 0.58041 0.90811 0.04724 0.0
H852 H 0.60475 0.94288 0.07582 0.0
H853 H 0.57523 0.9716 0.92807 0.0
H854 H 0.5384 0.98925 0.93386 0.0
H855 H 0.53014 0.94373 0.93723 0.0
C856 C 0.85234 0.20794 0.53889 0.0
C857 C 0.84465 0.21337 0.50561 0.0
C858 C 0.8774 0.19104 0.54584 0.0
C859 C 0.89352 0.17773 0.51888 0.0
C860 C 0.88696 0.18402 0.48539 0.0
C861 C 0.86373 0.20296 0.47925 0.0
C862 C 0.88536 0.18609 0.582 0.0
C863 C 0.90263 0.16899 0.45603 0.0
C864 C 0.97381 0.14937 0.53974 0.0
C865 C 0.95611 0.11466 0.54576 0.0
C866 C 0.9539 0.17014 0.52955 0.0
C867 C 0.91554 0.15553 0.52578 0.0
C868 C 0.89784 0.11995 0.53046 0.0
C869 C 0.91854 0.09982 0.54062 0.0
C870 C 0.97357 0.20799 0.52486 0.0
C871 C 0.85694 0.10353 0.52638 0.0
H872 H 0.83785 0.2155 0.55958 0.0
H873 H 0.85931 0.20825 0.45349 0.0
H874 H 0.87312 0.15855 0.58797 0.0
H875 H 0.91534 0.1934 0.58608 0.0
H876 H 0.87418 0.20158 0.59984 0.0
H877 H 0.89614 0.17764 0.43149 0.0
H878 H 0.93277 0.17611 0.4584 0.0
H879 H 0.89126 0.14046 0.45603 0.0
H880 H 1.00292 0.1606 0.54437 0.0
H881 H 0.90521 0.0729 0.54588 0.0
H882 H 0.96534 0.22325 0.54513 0.0
H883 H 0.96586 0.21609 0.5006 0.0
H884 H 1.00382 0.2144 0.52556 0.0
H885 H 0.84275 0.1125 0.54736 0.0
H886 H 0.84836 0.07497 0.52641 0.0
H887 H 0.84764 0.11127 0.50261 0.0
C888 C 0.29369 0.71579 0.19866 0.0
C889 C 0.29556 0.74268 0.22209 0.0
C890 C 0.26467 0.70402 0.17525 0.0
C891 C 0.23643 0.71915 0.17549 0.0
C892 C 0.23774 0.74561 0.19986 0.0
C893 C 0.26744 0.75733 0.22245 0.0
C894 C 0.26487 0.6761 0.14958 0.0
C895 C 0.20777 0.76168 0.20198 0.0
C896 C 0.17551 0.70904 0.0973 0.0
C897 C 0.14532 0.68056 0.1054 0.0
C898 C 0.20541 0.72201 0.11983 0.0
C899 C 0.20478 0.70644 0.15128 0.0
C900 C 0.17366 0.67837 0.15972 0.0
C901 C 0.14466 0.66578 0.13673 0.0
C902 C 0.23823 0.75159 0.10954 0.0
C903 C 0.17131 0.66085 0.19273 0.0
H904 H 0.31572 0.70486 0.19779 0.0
H905 H 0.26891 0.77831 0.24032 0.0
H906 H 0.23817 0.65506 0.14933 0.0
H907 H 0.26903 0.68693 0.12415 0.0
H908 H 0.28689 0.66498 0.15441 0.0
H909 H 0.21224 0.78133 0.22284 0.0
H910 H 0.20614 0.77401 0.17801 0.0
H911 H 0.18093 0.74147 0.20577 0.0
H912 H 0.17648 0.72016 0.07291 0.0
H913 H 0.12142 0.64362 0.14304 0.0
H914 H 0.26274 0.74315 0.10814 0.0
H915 H 0.24393 0.77298 0.12869 0.0
H916 H 0.23432 0.76146 0.08476 0.0
H917 H 0.19248 0.64803 0.1935 0.0
H918 H 0.14409 0.64117 0.1966 0.0
H919 H 0.17678 0.6801 0.21398 0.0
C920 C 0.28887 0.47407 0.66097 0.0
C921 C 0.27714 0.46937 0.69458 0.0
C922 C 0.32466 0.49509 0.65277 0.0
C923 C 0.34953 0.51242 0.67864 0.0
C924 C 0.33746 0.50899 0.71243 0.0
C925 C 0.3019 0.4873 0.71997 0.0
C926 C 0.33629 0.4979 0.61636 0.0
C927 C 0.36262 0.52733 0.74085 0.0
C928 C 0.44985 0.52684 0.65829 0.0
C929 C 0.46256 0.56117 0.64866 0.0
C930 C 0.4138 0.51137 0.66945 0.0
C931 C 0.3892 0.53048 0.67067 0.0
C932 C 0.40243 0.5659 0.6628 0.0
C933 C 0.43908 0.58091 0.6519 0.0
C934 C 0.40152 0.47386 0.67816 0.0
C935 C 0.3774 0.58742 0.6639 0.0
H936 H 0.2702 0.4611 0.64092 0.0
H937 H 0.29407 0.48362 0.74612 0.0
H938 H 0.34763 0.52536 0.60984 0.0
H939 H 0.35834 0.48636 0.61222 0.0
H940 H 0.3133 0.48465 0.59903 0.0
H941 H 0.34822 0.52458 0.76545 0.0
H942 H 0.38553 0.51679 0.74266 0.0
H943 H 0.37475 0.55515 0.73589 0.0
H944 H 0.4679 0.51147 0.65566 0.0
H945 H 0.44852 0.60729 0.64389 0.0
H946 H 0.38071 0.45854 0.65972 0.0
H947 H 0.38851 0.47041 0.70336 0.0
H948 H 0.42457 0.46329 0.67807 0.0
H949 H 0.35946 0.58087 0.6414 0.0
H950 H 0.39303 0.6154 0.66401 0.0
H951 H 0.35946 0.58199 0.6864 0.0
C952 C 0.7429 0.73138 0.87879 0.0
C953 C 0.73667 0.76114 0.89213 0.0
C954 C 0.772 0.7212 0.89019 0.0
C955 C 0.79521 0.74086 0.91609 0.0
C956 C 0.78767 0.76976 0.93099 0.0
C957 C 0.75856 0.77956 0.91881 0.0
C958 C 0.77909 0.69052 0.87319 0.0
C959 C 0.81169 0.7916 0.95851 0.0
C960 C 0.85401 0.7004 0.96524 0.0
C961 C 0.88923 0.71594 0.95193 0.0
C962 C 0.82338 0.70808 0.95365 0.0
C963 C 0.82749 0.73142 0.9275 0.0
C964 C 0.86257 0.74627 0.91293 0.0
C965 C 0.89295 0.73855 0.9254 0.0
C966 C 0.78658 0.69166 0.96991 0.0
C967 C 0.86806 0.77052 0.88427 0.0
H968 H 0.72637 0.71735 0.85778 0.0
H969 H 0.75456 0.80306 0.92857 0.0
H970 H 0.80655 0.69875 0.86125 0.0
H971 H 0.77905 0.67131 0.89201 0.0
H972 H 0.75836 0.67784 0.85359 0.0
H973 H 0.80008 0.81092 0.96981 0.0
H974 H 0.81559 0.77517 0.97864 0.0
H975 H 0.8391 0.80544 0.94808 0.0
H976 H 0.85024 0.68214 0.98498 0.0
H977 H 0.91979 0.75097 0.91482 0.0
H978 H 0.76645 0.67676 0.95076 0.0
H979 H 0.7762 0.71194 0.98084 0.0
H980 H 0.78783 0.67416 0.9901 0.0
H981 H 0.85136 0.75692 0.86237 0.0
H982 H 0.89716 0.78074 0.87629 0.0
H983 H 0.85857 0.7925 0.89164 0.0
C984 C 0.39542 0.87111 0.24927 0.0
C985 C 0.40712 0.84271 0.24191 0.0
C986 C 0.41144 0.90282 0.23366 0.0
C987 C 0.43952 0.90632 0.20936 0.0
C988 C 0.45126 0.87752 0.20167 0.0
C989 C 0.43509 0.84622 0.21811 0.0
C990 C 0.39783 0.93248 0.24283 0.0
C991 C 0.48052 0.87954 0.1756 0.0
C992 C 0.46238 0.98209 0.14923 0.0
C993 C 0.49377 1.00561 0.1643 0.0
C994 C 0.44441 0.94971 0.1634 0.0
C995 C 0.45791 0.94058 0.1935 0.0
C996 C 0.48928 0.96451 0.20886 0.0
C997 C 0.5067 0.99639 0.19415 0.0
C998 C 0.41131 0.92501 0.14586 0.0
C999 C 0.50473 0.95632 0.24091 0.0
H1000 H 0.37293 0.86818 0.26675 0.0
H1001 H 0.44327 0.82399 0.21133 0.0
H1002 H 0.42096 0.95516 0.25167 0.0
H1003 H 0.38613 0.94009 0.2203 0.0
H1004 H 0.37655 0.92599 0.26278 0.0
H1005 H 0.48461 0.85428 0.17054 0.0
H1006 H 0.47322 0.88872 0.15169 0.0
H1007 H 0.50684 0.89844 0.18426 0.0
H1008 H 0.45238 0.98862 0.12598 0.0
H1009 H 0.53099 1.01414 0.20601 0.0
H1010 H 0.38729 0.919 0.16291 0.0
H1011 H 0.41624 0.90039 0.13942 0.0
H1012 H 0.40448 0.93552 0.12247 0.0
H1013 H 0.4836 0.95106 0.26096 0.0
H1014 H 0.5292 0.97763 0.24989 0.0
H1015 H 0.51247 0.93274 0.23691 0.0
C1016 C 0.13559 0.33686 0.67869 0.0
C1017 C 0.17361 0.35438 0.6771 0.0
C1018 C 0.11954 0.30346 0.66428 0.0
C1019 C 0.14147 0.28692 0.64647 0.0
C1020 C 0.17952 0.3048 0.64332 0.0
C1021 C 0.19512 0.33788 0.65889 0.0
C1022 C 0.07894 0.28561 0.66859 0.0
C1023 C 0.20387 0.28887 0.62353 0.0
C1024 C 0.10379 0.18809 0.63675 0.0
C1025 C 0.08823 0.18288 0.60447 0.0
C1026 C 0.12186 0.2216 0.65032 0.0
C1027 C 0.12438 0.25094 0.63142 0.0
C1028 C 0.109 0.24575 0.59869 0.0
C1029 C 0.09122 0.21204 0.58574 0.0
C1030 C 0.13806 0.22565 0.68513 0.0
C1031 C 0.11079 0.27585 0.57738 0.0
H1032 H 0.11799 0.34917 0.6914 0.0
H1033 H 0.22443 0.35035 0.6573 0.0
H1034 H 0.06545 0.27933 0.64365 0.0
H1035 H 0.07415 0.26095 0.68129 0.0
H1036 H 0.06564 0.30156 0.6836 0.0
H1037 H 0.23299 0.30559 0.62385 0.0
H1038 H 0.202 0.26364 0.63379 0.0
H1039 H 0.19447 0.28399 0.59702 0.0
H1040 H 0.10198 0.16593 0.65145 0.0
H1041 H 0.07933 0.20861 0.56081 0.0
H1042 H 0.12477 0.24031 0.70183 0.0
H1043 H 0.16768 0.24064 0.68426 0.0
H1044 H 0.1347 0.20047 0.69635 0.0
H1045 H 0.09348 0.2902 0.58878 0.0
H1046 H 0.10113 0.26759 0.55128 0.0
H1047 H 0.13922 0.29397 0.5764 0.0
C1048 C 0.7408 0.35361 0.62413 0.0
C1049 C 0.75174 0.34842 0.59124 0.0
C1050 C 0.72889 0.38157 0.63221 0.0
C1051 C 0.73053 0.40559 0.60731 0.0
C1052 C 0.74981 0.40462 0.57699 0.0
C1053 C 0.75984 0.37545 0.56894 0.0
C1054 C 0.70832 0.38131 0.66472 0.0
C1055 C 0.75408 0.43114 0.55068 0.0
C1056 C 0.64555 0.42758 0.58909 0.0
C1057 C 0.65585 0.46185 0.60063 0.0
C1058 C 0.66917 0.40848 0.59259 0.0
C1059 C 0.70369 0.42421 0.60829 0.0
C1060 C 0.71289 0.45797 0.62243 0.0
C1061 C 0.68872 0.47654 0.61835 0.0
C1062 C 0.65819 0.37235 0.57721 0.0
C1063 C 0.74922 0.47536 0.63951 0.0
H1064 H 0.7358 0.33303 0.64169 0.0
H1065 H 0.76924 0.37193 0.5437 0.0
H1066 H 0.71031 0.40765 0.67388 0.0
H1067 H 0.67894 0.36658 0.66045 0.0
H1068 H 0.71856 0.36848 0.68457 0.0
H1069 H 0.77684 0.43181 0.53308 0.0
H1070 H 0.72843 0.42459 0.53584 0.0
H1071 H 0.75924 0.45718 0.56248 0.0
H1072 H 0.62026 0.41657 0.57509 0.0
H1073 H 0.69638 0.50318 0.62731 0.0
H1074 H 0.66254 0.35423 0.59536 0.0
H1075 H 0.67544 0.37186 0.55482 0.0
H1076 H 0.62906 0.3629 0.56917 0.0
H1077 H 0.7561 0.45769 0.6566 0.0
H1078 H 0.74942 0.49899 0.65411 0.0
H1079 H 0.77109 0.48267 0.62019 0.0
loop_
_geom_bond_atom_site_label_1
_geom_bond_atom_site_label_2
_geom_bond_distance
_geom_bond_site_symmetry_2
_ccdc_geom_bond_type
H0 C1 0.949 . S
C1 H0 0.949 . S
C1 C2 1.395 . S
C1 C3 1.391 . S
C2 C1 1.395 . S
C2 C5 1.390 . S
C3 C1 1.391 . S
C3 C7 1.387 . S
C3 C8 1.491 . S
H4 C5 0.950 . S
C5 C2 1.390 . S
C5 H4 0.950 . S
C5 C6 1.378 . S
C6 C5 1.378 . S
C6 C7 1.409 . S
C7 C3 1.387 . S
C7 C6 1.409 . S
C7 H9 0.951 . S
C8 C3 1.491 . S
C8 C10 1.382 . S
C8 C12 1.404 . S
H9 C7 0.951 . S
C10 C8 1.382 . S
C10 C11 1.390 . S
C10 H15 0.949 . S
C11 C10 1.390 . S
C11 C16 1.399 . S
C12 C8 1.404 . S
C12 H13 0.950 . S
C12 C14 1.375 . S
H13 C12 0.950 . S
C14 C12 1.375 . S
C14 C16 1.382 . S
C14 H18 0.950 . S
H15 C10 0.949 . S
C16 C11 1.399 . S
C16 C14 1.382 . S
C16 H17 0.952 . S
H17 C16 0.952 . S
H18 C14 0.950 . S
H19 C20 0.949 . S
C20 H19 0.949 . S
C20 C21 1.395 . S
C20 C22 1.391 . S
C21 C20 1.395 . S
C21 C24 1.390 . S
C22 C20 1.391 . S
C22 C26 1.387 . S
C22 C27 1.491 . S
H23 C24 0.950 . S
C24 C21 1.390 . S
C24 H23 0.950 . S
C24 C25 1.378 . S
C25 C24 1.378 . S
C25 C26 1.409 . S
C26 C22 1.387 . S
C26 C25 1.409 . S
C26 H28 0.951 . S
C27 C22 1.491 . S
C27 C29 1.382 . S
C27 C31 1.404 . S
H28 C26 0.951 . S
C29 C27 1.382 . S
C29 C30 1.390 . S
C29 H34 0.949 . S
C30 C29 1.390 . S
C30 C35 1.399 . S
C31 C27 1.404 . S
C31 H32 0.950 . S
C31 C33 1.375 . S
H32 C31 0.950 . S
C33 C31 1.375 . S
C33 C35 1.382 . S
C33 H37 0.950 . S
H34 C29 0.949 . S
C35 C30 1.399 . S
C35 C33 1.382 . S
C35 H36 0.952 . S
H36 C35 0.952 . S
H37 C33 0.950 . S
H38 C39 0.949 . S
C39 H38 0.949 . S
C39 C40 1.395 . S
C39 C41 1.391 . S
C40 C39 1.395 . S
C40 C43 1.390 . S
C41 C39 1.391 . S
C41 C45 1.387 . S
C41 C46 1.491 . S
H42 C43 0.950 . S
C43 C40 1.390 . S
C43 H42 0.950 . S
C43 C44 1.378 . S
C44 C43 1.378 . S
C44 C45 1.409 . S
C45 C41 1.387 . S
C45 C44 1.409 . S
C45 H47 0.951 . S
C46 C41 1.491 . S
C46 C48 1.382 . S
C46 C50 1.404 . S
H47 C45 0.951 . S
C48 C46 1.382 . S
C48 C49 1.390 . S
C48 H53 0.949 . S
C49 C48 1.390 . S
C49 C54 1.399 . S
C50 C46 1.404 . S
C50 H51 0.950 . S
C50 C52 1.375 . S
H51 C50 0.950 . S
C52 C50 1.375 . S
C52 C54 1.382 . S
C52 H56 0.950 . S
H53 C48 0.949 . S
C54 C49 1.399 . S
C54 C52 1.382 . S
C54 H55 0.952 . S
H55 C54 0.952 . S
H56 C52 0.950 . S
H57 C58 0.949 . S
C58 H57 0.949 . S
C58 C59 1.395 . S
C58 C60 1.391 . S
C59 C58 1.395 . S
C59 C62 1.390 . S
C60 C58 1.391 . S
C60 C64 1.387 . S
C60 C65 1.491 . S
H61 C62 0.950 . S
C62 C59 1.390 . S
C62 H61 0.950 . S
C62 C63 1.378 . S
C63 C62 1.378 . S
C63 C64 1.409 . S
C64 C60 1.387 . S
C64 C63 1.409 . S
C64 H66 0.951 . S
C65 C60 1.491 . S
C65 C67 1.382 . S
C65 C69 1.404 . S
H66 C64 0.951 . S
C67 C65 1.382 . S
C67 C68 1.390 . S
C67 H72 0.949 . S
C68 C67 1.390 . S
C68 C73 1.399 . S
C69 C65 1.404 . S
C69 H70 0.950 . S
C69 C71 1.375 . S
H70 C69 0.950 . S
C71 C69 1.375 . S
C71 C73 1.382 . S
C71 H75 0.950 . S
H72 C67 0.949 . S
C73 C68 1.399 . S
C73 C71 1.382 . S
C73 H74 0.952 . S
H74 C73 0.952 . S
H75 C71 0.950 . S
H76 C77 0.949 . S
C77 H76 0.949 . S
C77 C78 1.395 . S
C77 C79 1.391 . S
C78 C77 1.395 . S
C78 C81 1.390 . S
C79 C77 1.391 . S
C79 C83 1.387 . S
C79 C84 1.491 . S
H80 C81 0.950 . S
C81 C78 1.390 . S
C81 H80 0.950 . S
C81 C82 1.378 . S
C82 C81 1.378 . S
C82 C83 1.409 . S
C83 C79 1.387 . S
C83 C82 1.409 . S
C83 H85 0.951 . S
C84 C79 1.491 . S
C84 C86 1.382 . S
C84 C88 1.404 . S
H85 C83 0.951 . S
C86 C84 1.382 . S
C86 C87 1.390 . S
C86 H91 0.949 . S
C87 C86 1.390 . S
C87 C92 1.399 . S
C88 C84 1.404 . S
C88 H89 0.950 . S
C88 C90 1.375 . S
H89 C88 0.950 . S
C90 C88 1.375 . S
C90 C92 1.382 . S
C90 H94 0.950 . S
H91 C86 0.949 . S
C92 C87 1.399 . S
C92 C90 1.382 . S
C92 H93 0.952 . S
H93 C92 0.952 . S
H94 C90 0.950 . S
H95 C96 0.949 . S
C96 H95 0.949 . S
C96 C97 1.395 . S
C96 C98 1.391 . S
C97 C96 1.395 . S
C97 C100 1.390 . S
C98 C96 1.391 . S
C98 C102 1.387 . S
C98 C103 1.491 . S
H99 C100 0.950 . S
C100 C97 1.390 . S
C100 H99 0.950 . S
C100 C101 1.378 . S
C101 C100 1.378 . S
C101 C102 1.409 . S
C102 C98 1.387 . S
C102 C101 1.409 . S
C102 H104 0.951 . S
C103 C98 1.491 . S
C103 C105 1.382 . S
C103 C107 1.404 . S
H104 C102 0.951 . S
C105 C103 1.382 . S
C105 C106 1.390 . S
C105 H110 0.949 . S
C106 C105 1.390 . S
C106 C111 1.399 . S
C107 C103 1.404 . S
C107 H108 0.950 . S
C107 C109 1.375 . S
H108 C107 0.950 . S
C109 C107 1.375 . S
C109 C111 1.382 . S
C109 H113 0.950 . S
H110 C105 0.949 . S
C111 C106 1.399 . S
C111 C109 1.382 . S
C111 H112 0.952 . S
H112 C111 0.952 . S
H113 C109 0.950 . S
H114 C115 0.949 . S
C115 H114 0.949 . S
C115 C116 1.395 . S
C115 C117 1.391 . S
C116 C115 1.395 . S
C116 C119 1.390 . S
C117 C115 1.391 . S
C117 C121 1.387 . S
C117 C122 1.491 . S
H118 C119 0.950 . S
C119 C116 1.390 . S
C119 H118 0.950 . S
C119 C120 1.378 . S
C120 C119 1.378 . S
C120 C121 1.409 . S
C121 C117 1.387 . S
C121 C120 1.409 . S
C121 H123 0.951 . S
C122 C117 1.491 . S
C122 C124 1.382 . S
C122 C126 1.404 . S
H123 C121 0.951 . S
C124 C122 1.382 . S
C124 C125 1.390 . S
C124 H129 0.949 . S
C125 C124 1.390 . S
C125 C130 1.399 . S
C126 C122 1.404 . S
C126 H127 0.950 . S
C126 C128 1.375 . S
H127 C126 0.950 . S
C128 C126 1.375 . S
C128 C130 1.382 . S
C128 H132 0.950 . S
H129 C124 0.949 . S
C130 C125 1.399 . S
C130 C128 1.382 . S
C130 H131 0.952 . S
H131 C130 0.952 . S
H132 C128 0.950 . S
H133 C134 0.949 . S
C134 H133 0.949 . S
C134 C135 1.395 . S
C134 C136 1.391 . S
C135 C134 1.395 . S
C135 C138 1.390 . S
C136 C134 1.391 . S
C136 C140 1.387 . S
C136 C141 1.491 . S
H137 C138 0.950 . S
C138 C135 1.390 . S
C138 H137 0.950 . S
C138 C139 1.378 . S
C139 C138 1.378 . S
C139 C140 1.409 . S
C140 C136 1.387 . S
C140 C139 1.409 . S
C140 H142 0.951 . S
C141 C136 1.491 . S
C141 C143 1.382 . S
C141 C145 1.404 . S
H142 C140 0.951 . S
C143 C141 1.382 . S
C143 C144 1.390 . S
C143 H148 0.949 . S
C144 C143 1.390 . S
C144 C149 1.399 . S
C145 C141 1.404 . S
C145 H146 0.950 . S
C145 C147 1.375 . S
H146 C145 0.950 . S
C147 C145 1.375 . S
C147 C149 1.382 . S
C147 H151 0.950 . S
H148 C143 0.949 . S
C149 C144 1.399 . S
C149 C147 1.382 . S
C149 H150 0.952 . S
H150 C149 0.952 . S
H151 C147 0.950 . S
Ho152 C155 2.811 . S
Ho152 O172 2.322 . S
Ho152 O174 2.378 . S
Ho152 O175 2.524 . S
Ho152 O176 2.381 . S
Ho152 O177 2.669 . S
Ho152 O179 2.346 1_545 S
Ho152 O183 2.305 1_455 S
Ho153 C164 2.811 1_545 S
Ho153 O173 2.346 1_655 S
Ho153 O177 2.305 1_655 S
Ho153 O178 2.322 1_545 S
Ho153 O180 2.378 1_545 S
Ho153 O181 2.524 1_545 S
Ho153 O182 2.381 . S
Ho153 O183 2.669 . S
C154 O172 1.259 . S
C154 O173 1.268 . S
C155 Ho152 2.811 . S
C155 C156 1.488 . S
C155 O174 1.215 . S
C155 O175 1.289 . S
C156 C155 1.488 . S
C156 C157 1.348 . S
C156 C161 1.413 . S
C157 C156 1.348 . S
C157 C158 1.442 . S
C157 H184 0.930 . S
C158 C157 1.442 . S
C158 C159 1.381 . S
C158 H185 0.931 . S
C159 C158 1.381 . S
C159 C160 1.321 . S
C160 C159 1.321 . S
C160 C161 1.403 . S
C160 H186 0.934 . S
C161 C156 1.413 . S
C161 C160 1.403 . S
C161 H187 0.930 . S
C162 O176 1.275 . S
C162 O177 1.256 . S
C163 O178 1.259 . S
C163 O179 1.268 1_655 S
C164 Ho153 2.811 1_565 S
C164 C165 1.488 . S
C164 O180 1.215 . S
C164 O181 1.289 . S
C165 C164 1.488 . S
C165 C166 1.348 . S
C165 C170 1.413 . S
C166 C165 1.348 . S
C166 C167 1.442 . S
C166 H188 0.930 . S
C167 C166 1.442 . S
C167 C168 1.381 . S
C167 H189 0.931 . S
C168 C167 1.381 . S
C168 C169 1.321 . S
C169 C168 1.321 . S
C169 C170 1.403 . S
C169 H190 0.934 . S
C170 C165 1.413 . S
C170 C169 1.403 . S
C170 H191 0.930 . S
C171 O182 1.275 . S
C171 O183 1.256 . S
O172 Ho152 2.322 . S
O172 C154 1.259 . S
O173 Ho153 2.346 1_455 S
O173 C154 1.268 . S
O174 Ho152 2.378 . S
O174 C155 1.215 . S
O175 Ho152 2.524 . S
O175 C155 1.289 . S
O176 Ho152 2.381 . S
O176 C162 1.275 . S
O177 Ho152 2.669 . S
O177 Ho153 2.305 1_455 S
O177 C162 1.256 . S
O178 Ho153 2.322 1_565 S
O178 C163 1.259 . S
O179 Ho152 2.346 1_565 S
O179 C163 1.268 1_455 S
O180 Ho153 2.378 1_565 S
O180 C164 1.215 . S
O181 Ho153 2.524 1_565 S
O181 C164 1.289 . S
O182 Ho153 2.381 . S
O182 C171 1.275 . S
O183 Ho152 2.305 1_655 S
O183 Ho153 2.669 . S
O183 C171 1.256 . S
H184 C157 0.930 . S
H185 C158 0.931 . S
H186 C160 0.934 . S
H187 C161 0.930 . S
H188 C166 0.930 . S
H189 C167 0.931 . S
H190 C169 0.934 . S
H191 C170 0.930 . S
Ho192 C195 2.811 . S
Ho192 O212 2.322 . S
Ho192 O214 2.378 . S
Ho192 O215 2.524 . S
Ho192 O216 2.381 1_545 S
Ho192 O217 2.666 1_545 S
Ho192 O219 2.346 . S
Ho192 O223 2.305 . S
Ho193 C204 2.811 1_544 S
Ho193 O213 2.346 . S
Ho193 O217 2.296 1_545 S
Ho193 O218 2.322 . S
Ho193 O220 2.378 1_554 S
Ho193 O221 2.524 1_545 S
Ho193 O222 2.381 . S
Ho193 O223 2.669 . S
C194 O212 1.259 . S
C194 O213 1.268 . S
C195 Ho192 2.811 . S
C195 C196 1.488 . S
C195 O214 1.215 . S
C195 O215 1.289 . S
C196 C195 1.488 . S
C196 C197 1.348 . S
C196 C201 1.413 . S
C197 C196 1.348 . S
C197 C198 1.442 . S
C197 H224 0.930 . S
C198 C197 1.442 . S
C198 C199 1.381 . S
C198 H225 0.931 . S
C199 C198 1.381 . S
C199 C200 1.321 . S
C200 C199 1.321 . S
C200 C201 1.403 . S
C200 H226 0.934 . S
C201 C196 1.413 . S
C201 C200 1.403 . S
C201 H227 0.930 . S
C202 O216 1.275 . S
C202 O217 1.264 . S
C203 O218 1.259 1_565 S
C203 O219 1.268 1_565 S
C204 Ho193 2.811 1_566 S
C204 C205 1.488 . S
C204 O220 1.215 1_565 S
C204 O221 1.289 1_556 S
C205 C204 1.488 . S
C205 C206 1.348 . S
C205 C210 1.413 . S
C206 C205 1.348 . S
C206 C207 1.442 . S
C206 H228 0.930 . S
C207 C206 1.442 . S
C207 C208 1.381 . S
C207 H229 0.931 . S
C208 C207 1.381 . S
C208 C209 1.321 . S
C209 C208 1.321 . S
C209 C210 1.403 . S
C209 H230 0.934 . S
C210 C205 1.413 . S
C210 C209 1.403 . S
C210 H231 0.930 1_565 S
C211 O222 1.275 . S
C211 O223 1.256 . S
O212 Ho192 2.322 . S
O212 C194 1.259 . S
O213 Ho193 2.346 . S
O213 C194 1.268 . S
O214 Ho192 2.378 . S
O214 C195 1.215 . S
O215 Ho192 2.524 . S
O215 C195 1.289 . S
O216 Ho192 2.381 1_565 S
O216 C202 1.275 . S
O217 Ho192 2.666 1_565 S
O217 Ho193 2.296 1_565 S
O217 C202 1.264 . S
O218 Ho193 2.322 . S
O218 C203 1.259 1_545 S
O219 Ho192 2.346 . S
O219 C203 1.268 1_545 S
O220 Ho193 2.378 1_556 S
O220 C204 1.215 1_545 S
O221 Ho193 2.524 1_565 S
O221 C204 1.289 1_554 S
O222 Ho193 2.381 . S
O222 C211 1.275 . S
O223 Ho192 2.305 . S
O223 Ho193 2.669 . S
O223 C211 1.256 . S
H224 C197 0.930 . S
H225 C198 0.931 . S
H226 C200 0.934 . S
H227 C201 0.930 . S
H228 C206 0.930 . S
H229 C207 0.931 . S
H230 C209 0.934 . S
H231 C210 0.930 1_545 S
Ho232 C235 2.811 . S
Ho232 O252 2.322 . S
Ho232 O254 2.378 . S
Ho232 O255 2.524 . S
Ho232 O256 2.381 . S
Ho232 O257 2.669 . S
Ho232 O259 2.346 . S
Ho232 O263 2.305 . S
Ho233 C244 2.811 . S
Ho233 O253 2.346 . S
Ho233 O257 2.305 . S
Ho233 O258 2.322 . S
Ho233 O260 2.378 . S
Ho233 O261 2.524 . S
Ho233 O262 2.381 . S
Ho233 O263 2.669 . S
C234 O252 1.259 . S
C234 O253 1.268 . S
C235 Ho232 2.811 . S
C235 C236 1.488 . S
C235 O254 1.215 . S
C235 O255 1.289 . S
C236 C235 1.488 . S
C236 C237 1.348 . S
C236 C241 1.413 . S
C237 C236 1.348 . S
C237 C238 1.442 . S
C237 H264 0.930 . S
C238 C237 1.442 . S
C238 C239 1.381 . S
C238 H265 0.931 . S
C239 C238 1.381 . S
C239 C240 1.321 . S
C240 C239 1.321 . S
C240 C241 1.403 . S
C240 H266 0.934 . S
C241 C236 1.413 . S
C241 C240 1.403 . S
C241 H267 0.930 . S
C242 O256 1.275 . S
C242 O257 1.256 . S
C243 O258 1.259 . S
C243 O259 1.268 . S
C244 Ho233 2.811 . S
C244 C245 1.488 . S
C244 O260 1.215 . S
C244 O261 1.289 . S
C245 C244 1.488 . S
C245 C246 1.348 . S
C245 C250 1.413 . S
C246 C245 1.348 . S
C246 C247 1.442 . S
C246 H268 0.930 . S
C247 C246 1.442 . S
C247 C248 1.381 . S
C247 H269 0.931 . S
C248 C247 1.381 . S
C248 C249 1.321 . S
C249 C248 1.321 . S
C249 C250 1.403 . S
C249 H270 0.934 . S
C250 C245 1.413 . S
C250 C249 1.403 . S
C250 H271 0.930 . S
C251 O262 1.275 . S
C251 O263 1.256 . S
O252 Ho232 2.322 . S
O252 C234 1.259 . S
O253 Ho233 2.346 . S
O253 C234 1.268 . S
O254 Ho232 2.378 . S
O254 C235 1.215 . S
O255 Ho232 2.524 . S
O255 C235 1.289 . S
O256 Ho232 2.381 . S
O256 C242 1.275 . S
O257 Ho232 2.669 . S
O257 Ho233 2.305 . S
O257 C242 1.256 . S
O258 Ho233 2.322 . S
O258 C243 1.259 . S
O259 Ho232 2.346 . S
O259 C243 1.268 . S
O260 Ho233 2.378 . S
O260 C244 1.215 . S
O261 Ho233 2.524 . S
O261 C244 1.289 . S
O262 Ho233 2.381 . S
O262 C251 1.275 . S
O263 Ho232 2.305 . S
O263 Ho233 2.669 . S
O263 C251 1.256 . S
H264 C237 0.930 . S
H265 C238 0.931 . S
H266 C240 0.934 . S
H267 C241 0.930 . S
H268 C246 0.930 . S
H269 C247 0.931 . S
H270 C249 0.934 . S
H271 C250 0.930 . S
Ho272 C275 2.811 . S
Ho272 O292 2.322 . S
Ho272 O294 2.378 . S
Ho272 O295 2.524 . S
Ho272 O296 2.381 . S
Ho272 O297 2.669 . S
Ho272 O299 2.346 1_455 S
Ho272 O303 2.305 1_554 S
Ho273 C284 2.811 1_455 S
Ho273 O293 2.346 1_556 S
Ho273 O297 2.305 1_556 S
Ho273 O298 2.322 1_455 S
Ho273 O300 2.378 . S
Ho273 O301 2.524 1_455 S
Ho273 O302 2.381 . S
Ho273 O303 2.669 . S
C274 O292 1.259 . S
C274 O293 1.268 . S
C275 Ho272 2.811 . S
C275 C276 1.488 . S
C275 O294 1.215 . S
C275 O295 1.289 . S
C276 C275 1.488 . S
C276 C277 1.348 . S
C276 C281 1.413 . S
C277 C276 1.348 . S
C277 C278 1.442 . S
C277 H304 0.930 . S
C278 C277 1.442 . S
C278 C279 1.381 . S
C278 H305 0.931 . S
C279 C278 1.381 . S
C279 C280 1.321 . S
C280 C279 1.321 . S
C280 C281 1.403 . S
C280 H306 0.934 . S
C281 C276 1.413 . S
C281 C280 1.403 . S
C281 H307 0.930 . S
C282 O296 1.275 . S
C282 O297 1.256 . S
C283 O298 1.259 . S
C283 O299 1.268 1_556 S
C284 Ho273 2.811 1_655 S
C284 C285 1.488 . S
C284 O300 1.215 1_655 S
C284 O301 1.289 . S
C285 C284 1.488 . S
C285 C286 1.348 . S
C285 C290 1.413 . S
C286 C285 1.348 . S
C286 C287 1.442 . S
C286 H308 0.930 . S
C287 C286 1.442 . S
C287 C288 1.381 . S
C287 H309 0.931 . S
C288 C287 1.381 . S
C288 C289 1.321 . S
C289 C288 1.321 . S
C289 C290 1.403 . S
C289 H310 0.934 . S
C290 C285 1.413 . S
C290 C289 1.403 . S
C290 H311 0.930 . S
C291 O302 1.275 . S
C291 O303 1.256 . S
O292 Ho272 2.322 . S
O292 C274 1.259 . S
O293 Ho273 2.346 1_554 S
O293 C274 1.268 . S
O294 Ho272 2.378 . S
O294 C275 1.215 . S
O295 Ho272 2.524 . S
O295 C275 1.289 . S
O296 Ho272 2.381 . S
O296 C282 1.275 . S
O297 Ho272 2.669 . S
O297 Ho273 2.305 1_554 S
O297 C282 1.256 . S
O298 Ho273 2.322 1_655 S
O298 C283 1.259 . S
O299 Ho272 2.346 1_655 S
O299 C283 1.268 1_554 S
O300 Ho273 2.378 . S
O300 C284 1.215 1_455 S
O301 Ho273 2.524 1_655 S
O301 C284 1.289 . S
O302 Ho273 2.381 . S
O302 C291 1.275 . S
O303 Ho272 2.305 1_556 S
O303 Ho273 2.669 . S
O303 C291 1.256 . S
H304 C277 0.930 . S
H305 C278 0.931 . S
H306 C280 0.934 . S
H307 C281 0.930 . S
H308 C286 0.930 . S
H309 C287 0.931 . S
H310 C289 0.934 . S
H311 C290 0.930 . S
C312 C313 1.391 . S
C312 C314 1.394 . S
C312 H328 0.931 . S
C313 C312 1.391 . S
C313 C317 1.376 . S
C314 C312 1.394 . S
C314 C315 1.369 . S
C314 C318 1.531 . S
C315 C314 1.369 . S
C315 C316 1.410 . S
C315 C323 1.503 . S
C316 C315 1.410 . S
C316 C317 1.392 . S
C316 C319 1.511 . S
C317 C313 1.376 . S
C317 C316 1.392 . S
C317 H329 0.929 . S
C318 C314 1.531 . S
C318 H330 0.960 . S
C318 H331 0.962 . S
C318 H332 0.960 . S
C319 C316 1.511 . S
C319 H333 0.961 . S
C319 H334 0.961 . S
C319 H335 0.961 . S
C320 C321 1.370 . S
C320 C322 1.363 . S
C320 H336 0.931 . S
C321 C320 1.370 . S
C321 C325 1.408 . S
C322 C320 1.363 . S
C322 C323 1.370 . S
C322 C326 1.524 . S
C323 C315 1.503 . S
C323 C322 1.370 . S
C323 C324 1.403 . S
C324 C323 1.403 . S
C324 C325 1.404 . S
C324 C327 1.539 . S
C325 C321 1.408 . S
C325 C324 1.404 . S
C325 H337 0.930 . S
C326 C322 1.524 . S
C326 H338 0.956 . S
C326 H339 0.961 . S
C326 H340 0.961 . S
C327 C324 1.539 . S
C327 H341 0.958 . S
C327 H342 0.961 . S
C327 H343 0.960 . S
H328 C312 0.931 . S
H329 C317 0.929 . S
H330 C318 0.960 . S
H331 C318 0.962 . S
H332 C318 0.960 . S
H333 C319 0.961 . S
H334 C319 0.961 . S
H335 C319 0.961 . S
H336 C320 0.931 . S
H337 C325 0.930 . S
H338 C326 0.956 . S
H339 C326 0.961 . S
H340 C326 0.961 . S
H341 C327 0.958 . S
H342 C327 0.961 . S
H343 C327 0.960 . S
C344 C345 1.391 . S
C344 C346 1.394 . S
C344 H360 0.931 . S
C345 C344 1.391 . S
C345 C349 1.376 . S
C346 C344 1.394 . S
C346 C347 1.369 . S
C346 C350 1.531 . S
C347 C346 1.369 . S
C347 C348 1.410 . S
C347 C355 1.503 . S
C348 C347 1.410 . S
C348 C349 1.392 . S
C348 C351 1.511 . S
C349 C345 1.376 . S
C349 C348 1.392 . S
C349 H361 0.929 . S
C350 C346 1.531 . S
C350 H362 0.960 . S
C350 H363 0.962 . S
C350 H364 0.960 . S
C351 C348 1.511 . S
C351 H365 0.961 . S
C351 H366 0.961 . S
C351 H367 0.961 . S
C352 C353 1.370 . S
C352 C354 1.363 . S
C352 H368 0.931 . S
C353 C352 1.370 . S
C353 C357 1.408 . S
C354 C352 1.363 . S
C354 C355 1.370 . S
C354 C358 1.524 . S
C355 C347 1.503 . S
C355 C354 1.370 . S
C355 C356 1.403 . S
C356 C355 1.403 . S
C356 C357 1.404 . S
C356 C359 1.539 . S
C357 C353 1.408 . S
C357 C356 1.404 . S
C357 H369 0.930 . S
C358 C354 1.524 . S
C358 H370 0.956 . S
C358 H371 0.961 . S
C358 H372 0.961 . S
C359 C356 1.539 . S
C359 H373 0.958 . S
C359 H374 0.961 . S
C359 H375 0.960 . S
H360 C344 0.931 . S
H361 C349 0.929 . S
H362 C350 0.960 . S
H363 C350 0.962 . S
H364 C350 0.960 . S
H365 C351 0.961 . S
H366 C351 0.961 . S
H367 C351 0.961 . S
H368 C352 0.931 . S
H369 C357 0.930 . S
H370 C358 0.956 . S
H371 C358 0.961 . S
H372 C358 0.961 . S
H373 C359 0.958 . S
H374 C359 0.961 . S
H375 C359 0.960 . S
C376 C377 1.391 . S
C376 C378 1.394 . S
C376 H392 0.931 . S
C377 C376 1.391 . S
C377 C381 1.376 . S
C378 C376 1.394 . S
C378 C379 1.369 . S
C378 C382 1.531 . S
C379 C378 1.369 . S
C379 C380 1.410 . S
C379 C387 1.503 . S
C380 C379 1.410 . S
C380 C381 1.392 . S
C380 C383 1.511 . S
C381 C377 1.376 . S
C381 C380 1.392 . S
C381 H393 0.929 . S
C382 C378 1.531 . S
C382 H394 0.960 . S
C382 H395 0.962 . S
C382 H396 0.960 . S
C383 C380 1.511 . S
C383 H397 0.961 . S
C383 H398 0.961 . S
C383 H399 0.961 . S
C384 C385 1.370 . S
C384 C386 1.363 . S
C384 H400 0.931 . S
C385 C384 1.370 . S
C385 C389 1.408 . S
C386 C384 1.363 . S
C386 C387 1.370 . S
C386 C390 1.524 . S
C387 C379 1.503 . S
C387 C386 1.370 . S
C387 C388 1.403 . S
C388 C387 1.403 . S
C388 C389 1.404 . S
C388 C391 1.539 . S
C389 C385 1.408 . S
C389 C388 1.404 . S
C389 H401 0.930 . S
C390 C386 1.524 . S
C390 H402 0.956 . S
C390 H403 0.961 . S
C390 H404 0.961 . S
C391 C388 1.539 . S
C391 H405 0.958 . S
C391 H406 0.961 . S
C391 H407 0.960 . S
H392 C376 0.931 . S
H393 C381 0.929 . S
H394 C382 0.960 . S
H395 C382 0.962 . S
H396 C382 0.960 . S
H397 C383 0.961 . S
H398 C383 0.961 . S
H399 C383 0.961 . S
H400 C384 0.931 . S
H401 C389 0.930 . S
H402 C390 0.956 . S
H403 C390 0.961 . S
H404 C390 0.961 . S
H405 C391 0.958 . S
H406 C391 0.961 . S
H407 C391 0.960 . S
C408 C409 1.391 . S
C408 C410 1.394 . S
C408 H424 0.931 . S
C409 C408 1.391 . S
C409 C413 1.376 . S
C410 C408 1.394 . S
C410 C411 1.369 . S
C410 C414 1.531 . S
C411 C410 1.369 . S
C411 C412 1.410 . S
C411 C419 1.503 . S
C412 C411 1.410 . S
C412 C413 1.392 . S
C412 C415 1.511 . S
C413 C409 1.376 . S
C413 C412 1.392 . S
C413 H425 0.929 . S
C414 C410 1.531 . S
C414 H426 0.960 . S
C414 H427 0.962 . S
C414 H428 0.960 . S
C415 C412 1.511 . S
C415 H429 0.961 . S
C415 H430 0.961 . S
C415 H431 0.961 . S
C416 C417 1.370 . S
C416 C418 1.363 . S
C416 H432 0.931 1_655 S
C417 C416 1.370 . S
C417 C421 1.408 . S
C418 C416 1.363 . S
C418 C419 1.370 . S
C418 C422 1.524 . S
C419 C411 1.503 . S
C419 C418 1.370 . S
C419 C420 1.403 . S
C420 C419 1.403 . S
C420 C421 1.404 . S
C420 C423 1.539 . S
C421 C417 1.408 . S
C421 C420 1.404 . S
C421 H433 0.930 . S
C422 C418 1.524 . S
C422 H434 0.956 . S
C422 H435 0.961 . S
C422 H436 0.961 1_655 S
C423 C420 1.539 . S
C423 H437 0.958 . S
C423 H438 0.961 . S
C423 H439 0.960 . S
H424 C408 0.931 . S
H425 C413 0.929 . S
H426 C414 0.960 . S
H427 C414 0.962 . S
H428 C414 0.960 . S
H429 C415 0.961 . S
H430 C415 0.961 . S
H431 C415 0.961 . S
H432 C416 0.931 1_455 S
H433 C421 0.930 . S
H434 C422 0.956 . S
H435 C422 0.961 . S
H436 C422 0.961 1_455 S
H437 C423 0.958 . S
H438 C423 0.961 . S
H439 C423 0.960 . S
C440 C441 1.391 . S
C440 C442 1.394 . S
C440 H456 0.931 . S
C441 C440 1.391 . S
C441 C445 1.376 . S
C442 C440 1.394 . S
C442 C443 1.369 . S
C442 C446 1.531 . S
C443 C442 1.369 . S
C443 C444 1.410 . S
C443 C451 1.503 . S
C444 C443 1.410 . S
C444 C445 1.392 . S
C444 C447 1.511 . S
C445 C441 1.376 . S
C445 C444 1.392 . S
C445 H457 0.929 . S
C446 C442 1.531 . S
C446 H458 0.960 . S
C446 H459 0.962 . S
C446 H460 0.960 . S
C447 C444 1.511 . S
C447 H461 0.961 . S
C447 H462 0.961 . S
C447 H463 0.961 . S
C448 C449 1.370 . S
C448 C450 1.363 . S
C448 H464 0.931 . S
C449 C448 1.370 . S
C449 C453 1.408 . S
C450 C448 1.363 . S
C450 C451 1.370 . S
C450 C454 1.524 . S
C451 C443 1.503 . S
C451 C450 1.370 . S
C451 C452 1.403 . S
C452 C451 1.403 . S
C452 C453 1.404 . S
C452 C455 1.539 . S
C453 C449 1.408 . S
C453 C452 1.404 . S
C453 H465 0.930 . S
C454 C450 1.524 . S
C454 H466 0.956 . S
C454 H467 0.961 . S
C454 H468 0.961 . S
C455 C452 1.539 . S
C455 H469 0.958 . S
C455 H470 0.961 . S
C455 H471 0.960 . S
H456 C440 0.931 . S
H457 C445 0.929 . S
H458 C446 0.960 . S
H459 C446 0.962 . S
H460 C446 0.960 . S
H461 C447 0.961 . S
H462 C447 0.961 . S
H463 C447 0.961 . S
H464 C448 0.931 . S
H465 C453 0.930 . S
H466 C454 0.956 . S
H467 C454 0.961 . S
H468 C454 0.961 . S
H469 C455 0.958 . S
H470 C455 0.961 . S
H471 C455 0.960 . S
C472 C473 1.391 . S
C472 C474 1.394 . S
C472 H488 0.931 . S
C473 C472 1.391 . S
C473 C477 1.376 . S
C474 C472 1.394 . S
C474 C475 1.369 . S
C474 C478 1.531 . S
C475 C474 1.369 . S
C475 C476 1.410 . S
C475 C483 1.503 . S
C476 C475 1.410 . S
C476 C477 1.392 . S
C476 C479 1.511 . S
C477 C473 1.376 . S
C477 C476 1.392 . S
C477 H489 0.929 . S
C478 C474 1.531 . S
C478 H490 0.960 . S
C478 H491 0.962 . S
C478 H492 0.960 . S
C479 C476 1.511 . S
C479 H493 0.961 . S
C479 H494 0.961 . S
C479 H495 0.961 . S
C480 C481 1.370 . S
C480 C482 1.363 1_545 S
C480 H496 0.931 . S
C481 C480 1.370 . S
C481 C485 1.408 1_545 S
C482 C480 1.363 1_565 S
C482 C483 1.370 . S
C482 C486 1.524 1_565 S
C483 C475 1.503 . S
C483 C482 1.370 . S
C483 C484 1.403 . S
C484 C483 1.403 . S
C484 C485 1.404 . S
C484 C487 1.539 . S
C485 C481 1.408 1_565 S
C485 C484 1.404 . S
C485 H497 0.930 . S
C486 C482 1.524 1_545 S
C486 H498 0.956 . S
C486 H499 0.961 . S
C486 H500 0.961 . S
C487 C484 1.539 . S
C487 H501 0.958 . S
C487 H502 0.961 . S
C487 H503 0.960 . S
H488 C472 0.931 . S
H489 C477 0.929 . S
H490 C478 0.960 . S
H491 C478 0.962 . S
H492 C478 0.960 . S
H493 C479 0.961 . S
H494 C479 0.961 . S
H495 C479 0.961 . S
H496 C480 0.931 . S
H497 C485 0.930 . S
H498 C486 0.956 . S
H499 C486 0.961 . S
H500 C486 0.961 . S
H501 C487 0.958 . S
H502 C487 0.961 . S
H503 C487 0.960 . S
C504 C505 1.391 . S
C504 C506 1.394 . S
C504 H520 0.931 . S
C505 C504 1.391 . S
C505 C509 1.376 . S
C506 C504 1.394 . S
C506 C507 1.369 . S
C506 C510 1.531 . S
C507 C506 1.369 . S
C507 C508 1.410 . S
C507 C515 1.503 . S
C508 C507 1.410 . S
C508 C509 1.392 . S
C508 C511 1.511 . S
C509 C505 1.376 . S
C509 C508 1.392 . S
C509 H521 0.929 . S
C510 C506 1.531 . S
C510 H522 0.960 . S
C510 H523 0.962 . S
C510 H524 0.960 . S
C511 C508 1.511 . S
C511 H525 0.961 . S
C511 H526 0.961 . S
C511 H527 0.961 . S
C512 C513 1.370 . S
C512 C514 1.363 . S
C512 H528 0.931 . S
C513 C512 1.370 . S
C513 C517 1.408 1_556 S
C514 C512 1.363 . S
C514 C515 1.370 . S
C514 C518 1.524 . S
C515 C507 1.503 . S
C515 C514 1.370 . S
C515 C516 1.403 . S
C516 C515 1.403 . S
C516 C517 1.404 1_556 S
C516 C519 1.539 1_556 S
C517 C513 1.408 1_554 S
C517 C516 1.404 1_554 S
C517 H529 0.930 . S
C518 C514 1.524 . S
C518 H530 0.956 . S
C518 H531 0.961 . S
C518 H532 0.961 . S
C519 C516 1.539 1_554 S
C519 H533 0.958 . S
C519 H534 0.961 . S
C519 H535 0.960 . S
H520 C504 0.931 . S
H521 C509 0.929 . S
H522 C510 0.960 . S
H523 C510 0.962 . S
H524 C510 0.960 . S
H525 C511 0.961 . S
H526 C511 0.961 . S
H527 C511 0.961 . S
H528 C512 0.931 . S
H529 C517 0.930 . S
H530 C518 0.956 . S
H531 C518 0.961 . S
H532 C518 0.961 . S
H533 C519 0.958 . S
H534 C519 0.961 . S
H535 C519 0.960 . S
C536 C537 1.391 . S
C536 C538 1.394 . S
C536 H552 0.931 . S
C537 C536 1.391 . S
C537 C541 1.376 . S
C538 C536 1.394 . S
C538 C539 1.369 . S
C538 C542 1.531 . S
C539 C538 1.369 . S
C539 C540 1.410 . S
C539 C547 1.503 . S
C540 C539 1.410 . S
C540 C541 1.392 . S
C540 C543 1.511 . S
C541 C537 1.376 . S
C541 C540 1.392 . S
C541 H553 0.929 . S
C542 C538 1.531 . S
C542 H554 0.960 . S
C542 H555 0.962 . S
C542 H556 0.960 . S
C543 C540 1.511 . S
C543 H557 0.961 . S
C543 H558 0.961 . S
C543 H559 0.961 . S
C544 C545 1.370 . S
C544 C546 1.363 . S
C544 H560 0.931 . S
C545 C544 1.370 . S
C545 C549 1.408 . S
C546 C544 1.363 . S
C546 C547 1.370 . S
C546 C550 1.524 . S
C547 C539 1.503 . S
C547 C546 1.370 . S
C547 C548 1.403 . S
C548 C547 1.403 . S
C548 C549 1.404 . S
C548 C551 1.539 . S
C549 C545 1.408 . S
C549 C548 1.404 . S
C549 H561 0.930 . S
C550 C546 1.524 . S
C550 H562 0.956 . S
C550 H563 0.961 . S
C550 H564 0.961 . S
C551 C548 1.539 . S
C551 H565 0.958 . S
C551 H566 0.961 . S
C551 H567 0.960 . S
H552 C536 0.931 . S
H553 C541 0.929 . S
H554 C542 0.960 . S
H555 C542 0.962 . S
H556 C542 0.960 . S
H557 C543 0.961 . S
H558 C543 0.961 . S
H559 C543 0.961 . S
H560 C544 0.931 . S
H561 C549 0.930 . S
H562 C550 0.956 . S
H563 C550 0.961 . S
H564 C550 0.961 . S
H565 C551 0.958 . S
H566 C551 0.961 . S
H567 C551 0.960 . S
C568 C569 1.391 . S
C568 C570 1.394 . S
C568 H584 0.931 . S
C569 C568 1.391 . S
C569 C573 1.376 . S
C570 C568 1.394 . S
C570 C571 1.369 . S
C570 C574 1.531 . S
C571 C570 1.369 . S
C571 C572 1.410 . S
C571 C579 1.503 . S
C572 C571 1.410 . S
C572 C573 1.392 . S
C572 C575 1.511 . S
C573 C569 1.376 . S
C573 C572 1.392 . S
C573 H585 0.929 . S
C574 C570 1.531 . S
C574 H586 0.960 . S
C574 H587 0.962 . S
C574 H588 0.960 . S
C575 C572 1.511 . S
C575 H589 0.961 . S
C575 H590 0.961 . S
C575 H591 0.961 . S
C576 C577 1.370 . S
C576 C578 1.363 . S
C576 H592 0.931 . S
C577 C576 1.370 . S
C577 C581 1.408 . S
C578 C576 1.363 . S
C578 C579 1.370 . S
C578 C582 1.524 . S
C579 C571 1.503 . S
C579 C578 1.370 . S
C579 C580 1.403 . S
C580 C579 1.403 . S
C580 C581 1.404 . S
C580 C583 1.539 . S
C581 C577 1.408 . S
C581 C580 1.404 . S
C581 H593 0.930 . S
C582 C578 1.524 . S
C582 H594 0.956 . S
C582 H595 0.961 . S
C582 H596 0.961 . S
C583 C580 1.539 . S
C583 H597 0.958 . S
C583 H598 0.961 . S
C583 H599 0.960 . S
H584 C568 0.931 . S
H585 C573 0.929 . S
H586 C574 0.960 . S
H587 C574 0.962 . S
H588 C574 0.960 . S
H589 C575 0.961 . S
H590 C575 0.961 . S
H591 C575 0.961 . S
H592 C576 0.931 . S
H593 C581 0.930 . S
H594 C582 0.956 . S
H595 C582 0.961 . S
H596 C582 0.961 . S
H597 C583 0.958 . S
H598 C583 0.961 . S
H599 C583 0.960 . S
C600 C601 1.391 . S
C600 C602 1.394 . S
C600 H616 0.931 . S
C601 C600 1.391 . S
C601 C605 1.376 . S
C602 C600 1.394 . S
C602 C603 1.369 . S
C602 C606 1.531 1_556 S
C603 C602 1.369 . S
C603 C604 1.410 . S
C603 C611 1.503 . S
C604 C603 1.410 . S
C604 C605 1.392 . S
C604 C607 1.511 . S
C605 C601 1.376 . S
C605 C604 1.392 . S
C605 H617 0.929 . S
C606 C602 1.531 1_554 S
C606 H618 0.960 . S
C606 H619 0.962 . S
C606 H620 0.960 . S
C607 C604 1.511 . S
C607 H621 0.961 . S
C607 H622 0.961 . S
C607 H623 0.961 . S
C608 C609 1.370 1_556 S
C608 C610 1.363 . S
C608 H624 0.931 . S
C609 C608 1.370 1_554 S
C609 C613 1.408 . S
C610 C608 1.363 . S
C610 C611 1.370 . S
C610 C614 1.524 . S
C611 C603 1.503 . S
C611 C610 1.370 . S
C611 C612 1.403 1_556 S
C612 C611 1.403 1_554 S
C612 C613 1.404 . S
C612 C615 1.539 . S
C613 C609 1.408 . S
C613 C612 1.404 . S
C613 H625 0.930 . S
C614 C610 1.524 . S
C614 H626 0.956 . S
C614 H627 0.961 . S
C614 H628 0.961 . S
C615 C612 1.539 . S
C615 H629 0.958 . S
C615 H630 0.961 . S
C615 H631 0.960 . S
H616 C600 0.931 . S
H617 C605 0.929 . S
H618 C606 0.960 . S
H619 C606 0.962 . S
H620 C606 0.960 . S
H621 C607 0.961 . S
H622 C607 0.961 . S
H623 C607 0.961 . S
H624 C608 0.931 . S
H625 C613 0.930 . S
H626 C614 0.956 . S
H627 C614 0.961 . S
H628 C614 0.961 . S
H629 C615 0.958 . S
H630 C615 0.961 . S
H631 C615 0.960 . S
C632 C633 1.391 . S
C632 C634 1.394 . S
C632 H648 0.931 . S
C633 C632 1.391 . S
C633 C637 1.376 . S
C634 C632 1.394 . S
C634 C635 1.369 . S
C634 C638 1.531 . S
C635 C634 1.369 . S
C635 C636 1.410 . S
C635 C643 1.503 . S
C636 C635 1.410 . S
C636 C637 1.392 . S
C636 C639 1.511 . S
C637 C633 1.376 . S
C637 C636 1.392 . S
C637 H649 0.929 . S
C638 C634 1.531 . S
C638 H650 0.960 . S
C638 H651 0.962 . S
C638 H652 0.960 . S
C639 C636 1.511 . S
C639 H653 0.961 . S
C639 H654 0.961 . S
C639 H655 0.961 . S
C640 C641 1.370 . S
C640 C642 1.363 . S
C640 H656 0.931 . S
C641 C640 1.370 . S
C641 C645 1.408 . S
C642 C640 1.363 . S
C642 C643 1.370 . S
C642 C646 1.524 . S
C643 C635 1.503 . S
C643 C642 1.370 . S
C643 C644 1.403 . S
C644 C643 1.403 . S
C644 C645 1.404 . S
C644 C647 1.539 . S
C645 C641 1.408 . S
C645 C644 1.404 . S
C645 H657 0.930 . S
C646 C642 1.524 . S
C646 H658 0.956 . S
C646 H659 0.961 . S
C646 H660 0.961 . S
C647 C644 1.539 . S
C647 H661 0.958 . S
C647 H662 0.961 . S
C647 H663 0.960 . S
H648 C632 0.931 . S
H649 C637 0.929 . S
H650 C638 0.960 . S
H651 C638 0.962 . S
H652 C638 0.960 . S
H653 C639 0.961 . S
H654 C639 0.961 . S
H655 C639 0.961 . S
H656 C640 0.931 . S
H657 C645 0.930 . S
H658 C646 0.956 . S
H659 C646 0.961 . S
H660 C646 0.961 . S
H661 C647 0.958 . S
H662 C647 0.961 . S
H663 C647 0.960 . S
C664 C665 1.391 . S
C664 C666 1.394 . S
C664 H680 0.931 . S
C665 C664 1.391 . S
C665 C669 1.376 . S
C666 C664 1.394 . S
C666 C667 1.369 . S
C666 C670 1.531 . S
C667 C666 1.369 . S
C667 C668 1.410 . S
C667 C675 1.503 . S
C668 C667 1.410 . S
C668 C669 1.392 . S
C668 C671 1.511 . S
C669 C665 1.376 . S
C669 C668 1.392 . S
C669 H681 0.929 . S
C670 C666 1.531 . S
C670 H682 0.960 . S
C670 H683 0.962 . S
C670 H684 0.960 . S
C671 C668 1.511 . S
C671 H685 0.961 . S
C671 H686 0.961 . S
C671 H687 0.961 . S
C672 C673 1.370 . S
C672 C674 1.363 . S
C672 H688 0.931 . S
C673 C672 1.370 . S
C673 C677 1.408 . S
C674 C672 1.363 . S
C674 C675 1.370 . S
C674 C678 1.524 . S
C675 C667 1.503 . S
C675 C674 1.370 . S
C675 C676 1.403 . S
C676 C675 1.403 . S
C676 C677 1.404 . S
C676 C679 1.539 . S
C677 C673 1.408 . S
C677 C676 1.404 . S
C677 H689 0.930 . S
C678 C674 1.524 . S
C678 H690 0.956 . S
C678 H691 0.961 . S
C678 H692 0.961 . S
C679 C676 1.539 . S
C679 H693 0.958 . S
C679 H694 0.961 . S
C679 H695 0.960 . S
H680 C664 0.931 . S
H681 C669 0.929 . S
H682 C670 0.960 . S
H683 C670 0.962 . S
H684 C670 0.960 . S
H685 C671 0.961 . S
H686 C671 0.961 . S
H687 C671 0.961 . S
H688 C672 0.931 . S
H689 C677 0.930 . S
H690 C678 0.956 . S
H691 C678 0.961 . S
H692 C678 0.961 . S
H693 C679 0.958 . S
H694 C679 0.961 . S
H695 C679 0.960 . S
C696 C697 1.391 . S
C696 C698 1.394 . S
C696 H712 0.931 . S
C697 C696 1.391 . S
C697 C701 1.376 . S
C698 C696 1.394 . S
C698 C699 1.369 . S
C698 C702 1.531 . S
C699 C698 1.369 . S
C699 C700 1.410 . S
C699 C707 1.503 . S
C700 C699 1.410 . S
C700 C701 1.392 . S
C700 C703 1.511 . S
C701 C697 1.376 . S
C701 C700 1.392 . S
C701 H713 0.929 . S
C702 C698 1.531 . S
C702 H714 0.960 . S
C702 H715 0.962 . S
C702 H716 0.960 . S
C703 C700 1.511 . S
C703 H717 0.961 . S
C703 H718 0.961 . S
C703 H719 0.961 . S
C704 C705 1.370 . S
C704 C706 1.363 . S
C704 H720 0.931 . S
C705 C704 1.370 . S
C705 C709 1.408 . S
C706 C704 1.363 . S
C706 C707 1.370 . S
C706 C710 1.524 . S
C707 C699 1.503 . S
C707 C706 1.370 . S
C707 C708 1.403 . S
C708 C707 1.403 . S
C708 C709 1.404 . S
C708 C711 1.539 . S
C709 C705 1.408 . S
C709 C708 1.404 . S
C709 H721 0.930 . S
C710 C706 1.524 . S
C710 H722 0.956 . S
C710 H723 0.961 . S
C710 H724 0.961 . S
C711 C708 1.539 . S
C711 H725 0.958 . S
C711 H726 0.961 . S
C711 H727 0.960 . S
H712 C696 0.931 . S
H713 C701 0.929 . S
H714 C702 0.960 . S
H715 C702 0.962 . S
H716 C702 0.960 . S
H717 C703 0.961 . S
H718 C703 0.961 . S
H719 C703 0.961 . S
H720 C704 0.931 . S
H721 C709 0.930 . S
H722 C710 0.956 . S
H723 C710 0.961 . S
H724 C710 0.961 . S
H725 C711 0.958 . S
H726 C711 0.961 . S
H727 C711 0.960 . S
C728 C729 1.391 . S
C728 C730 1.394 . S
C728 H744 0.931 . S
C729 C728 1.391 . S
C729 C733 1.376 . S
C730 C728 1.394 . S
C730 C731 1.369 . S
C730 C734 1.531 . S
C731 C730 1.369 . S
C731 C732 1.410 . S
C731 C739 1.503 . S
C732 C731 1.410 . S
C732 C733 1.392 . S
C732 C735 1.511 . S
C733 C729 1.376 . S
C733 C732 1.392 . S
C733 H745 0.929 . S
C734 C730 1.531 . S
C734 H746 0.960 . S
C734 H747 0.962 . S
C734 H748 0.960 . S
C735 C732 1.511 . S
C735 H749 0.961 . S
C735 H750 0.961 . S
C735 H751 0.961 . S
C736 C737 1.370 . S
C736 C738 1.363 . S
C736 H752 0.931 . S
C737 C736 1.370 . S
C737 C741 1.408 . S
C738 C736 1.363 . S
C738 C739 1.370 . S
C738 C742 1.524 . S
C739 C731 1.503 . S
C739 C738 1.370 . S
C739 C740 1.403 . S
C740 C739 1.403 . S
C740 C741 1.404 . S
C740 C743 1.539 . S
C741 C737 1.408 . S
C741 C740 1.404 . S
C741 H753 0.930 . S
C742 C738 1.524 . S
C742 H754 0.956 . S
C742 H755 0.961 . S
C742 H756 0.961 . S
C743 C740 1.539 . S
C743 H757 0.958 . S
C743 H758 0.961 . S
C743 H759 0.960 . S
H744 C728 0.931 . S
H745 C733 0.929 . S
H746 C734 0.960 . S
H747 C734 0.962 . S
H748 C734 0.960 . S
H749 C735 0.961 . S
H750 C735 0.961 . S
H751 C735 0.961 . S
H752 C736 0.931 . S
H753 C741 0.930 . S
H754 C742 0.956 . S
H755 C742 0.961 . S
H756 C742 0.961 . S
H757 C743 0.958 . S
H758 C743 0.961 . S
H759 C743 0.960 . S
C760 C761 1.391 . S
C760 C762 1.394 . S
C760 H776 0.931 . S
C761 C760 1.391 . S
C761 C765 1.376 . S
C762 C760 1.394 . S
C762 C763 1.369 . S
C762 C766 1.531 . S
C763 C762 1.369 . S
C763 C764 1.410 . S
C763 C771 1.503 . S
C764 C763 1.410 . S
C764 C765 1.392 . S
C764 C767 1.511 . S
C765 C761 1.376 . S
C765 C764 1.392 . S
C765 H777 0.929 . S
C766 C762 1.531 . S
C766 H778 0.960 . S
C766 H779 0.962 . S
C766 H780 0.960 . S
C767 C764 1.511 . S
C767 H781 0.961 . S
C767 H782 0.961 . S
C767 H783 0.961 . S
C768 C769 1.370 . S
C768 C770 1.363 . S
C768 H784 0.931 . S
C769 C768 1.370 . S
C769 C773 1.408 . S
C770 C768 1.363 . S
C770 C771 1.370 . S
C770 C774 1.524 . S
C771 C763 1.503 . S
C771 C770 1.370 . S
C771 C772 1.403 . S
C772 C771 1.403 . S
C772 C773 1.404 . S
C772 C775 1.539 . S
C773 C769 1.408 . S
C773 C772 1.404 . S
C773 H785 0.930 . S
C774 C770 1.524 . S
C774 H786 0.956 . S
C774 H787 0.961 . S
C774 H788 0.961 . S
C775 C772 1.539 . S
C775 H789 0.958 . S
C775 H790 0.961 . S
C775 H791 0.960 . S
H776 C760 0.931 . S
H777 C765 0.929 . S
H778 C766 0.960 . S
H779 C766 0.962 . S
H780 C766 0.960 . S
H781 C767 0.961 . S
H782 C767 0.961 . S
H783 C767 0.961 . S
H784 C768 0.931 . S
H785 C773 0.930 . S
H786 C774 0.956 . S
H787 C774 0.961 . S
H788 C774 0.961 . S
H789 C775 0.958 . S
H790 C775 0.961 . S
H791 C775 0.960 . S
C792 C793 1.391 . S
C792 C794 1.394 . S
C792 H808 0.931 . S
C793 C792 1.391 . S
C793 C797 1.376 . S
C794 C792 1.394 . S
C794 C795 1.369 . S
C794 C798 1.531 . S
C795 C794 1.369 . S
C795 C796 1.410 . S
C795 C803 1.503 . S
C796 C795 1.410 . S
C796 C797 1.392 . S
C796 C799 1.511 . S
C797 C793 1.376 . S
C797 C796 1.392 . S
C797 H809 0.929 . S
C798 C794 1.531 . S
C798 H810 0.960 . S
C798 H811 0.962 . S
C798 H812 0.960 . S
C799 C796 1.511 . S
C799 H813 0.961 . S
C799 H814 0.961 . S
C799 H815 0.961 . S
C800 C801 1.370 . S
C800 C802 1.363 . S
C800 H816 0.931 . S
C801 C800 1.370 . S
C801 C805 1.408 . S
C802 C800 1.363 . S
C802 C803 1.370 . S
C802 C806 1.524 . S
C803 C795 1.503 . S
C803 C802 1.370 . S
C803 C804 1.403 . S
C804 C803 1.403 . S
C804 C805 1.404 . S
C804 C807 1.539 . S
C805 C801 1.408 . S
C805 C804 1.404 . S
C805 H817 0.930 . S
C806 C802 1.524 . S
C806 H818 0.956 . S
C806 H819 0.961 . S
C806 H820 0.961 . S
C807 C804 1.539 . S
C807 H821 0.958 . S
C807 H822 0.961 . S
C807 H823 0.960 . S
H808 C792 0.931 . S
H809 C797 0.929 . S
H810 C798 0.960 . S
H811 C798 0.962 . S
H812 C798 0.960 . S
H813 C799 0.961 . S
H814 C799 0.961 . S
H815 C799 0.961 . S
H816 C800 0.931 . S
H817 C805 0.930 . S
H818 C806 0.956 . S
H819 C806 0.961 . S
H820 C806 0.961 . S
H821 C807 0.958 . S
H822 C807 0.961 . S
H823 C807 0.960 . S
C824 C825 1.391 . S
C824 C826 1.394 . S
C824 H840 0.931 . S
C825 C824 1.391 . S
C825 C829 1.376 . S
C826 C824 1.394 . S
C826 C827 1.369 . S
C826 C830 1.531 . S
C827 C826 1.369 . S
C827 C828 1.410 . S
C827 C835 1.503 . S
C828 C827 1.410 . S
C828 C829 1.392 . S
C828 C831 1.511 . S
C829 C825 1.376 . S
C829 C828 1.392 . S
C829 H841 0.929 . S
C830 C826 1.531 . S
C830 H842 0.960 . S
C830 H843 0.962 . S
C830 H844 0.960 . S
C831 C828 1.511 . S
C831 H845 0.961 . S
C831 H846 0.961 . S
C831 H847 0.961 . S
C832 C833 1.370 . S
C832 C834 1.365 . S
C832 H848 0.931 . S
C833 C832 1.370 . S
C833 C837 1.408 1_554 S
C834 C832 1.365 . S
C834 C835 1.367 1_554 S
C834 C838 1.526 . S
C835 C827 1.503 . S
C835 C834 1.367 1_556 S
C835 C836 1.403 . S
C836 C835 1.403 . S
C836 C837 1.404 . S
C836 C839 1.539 . S
C837 C833 1.408 1_556 S
C837 C836 1.404 . S
C837 H849 0.930 . S
C838 C834 1.526 . S
C838 H850 0.956 . S
C838 H851 0.961 . S
C838 H852 0.961 . S
C839 C836 1.539 . S
C839 H853 0.958 . S
C839 H854 0.961 . S
C839 H855 0.960 . S
H840 C824 0.931 . S
H841 C829 0.929 . S
H842 C830 0.960 . S
H843 C830 0.962 . S
H844 C830 0.960 . S
H845 C831 0.961 . S
H846 C831 0.961 . S
H847 C831 0.961 . S
H848 C832 0.931 . S
H849 C837 0.930 . S
H850 C838 0.956 . S
H851 C838 0.961 . S
H852 C838 0.961 . S
H853 C839 0.958 . S
H854 C839 0.961 . S
H855 C839 0.960 . S
C856 C857 1.391 . S
C856 C858 1.394 . S
C856 H872 0.931 . S
C857 C856 1.391 . S
C857 C861 1.376 . S
C858 C856 1.394 . S
C858 C859 1.369 . S
C858 C862 1.531 . S
C859 C858 1.369 . S
C859 C860 1.410 . S
C859 C867 1.503 . S
C860 C859 1.410 . S
C860 C861 1.392 . S
C860 C863 1.511 . S
C861 C857 1.376 . S
C861 C860 1.392 . S
C861 H873 0.929 . S
C862 C858 1.531 . S
C862 H874 0.960 . S
C862 H875 0.962 . S
C862 H876 0.960 . S
C863 C860 1.511 . S
C863 H877 0.961 . S
C863 H878 0.961 . S
C863 H879 0.961 . S
C864 C865 1.370 . S
C864 C866 1.363 . S
C864 H880 0.931 . S
C865 C864 1.370 . S
C865 C869 1.408 . S
C866 C864 1.363 . S
C866 C867 1.370 . S
C866 C870 1.524 . S
C867 C859 1.503 . S
C867 C866 1.370 . S
C867 C868 1.403 . S
C868 C867 1.403 . S
C868 C869 1.404 . S
C868 C871 1.539 . S
C869 C865 1.408 . S
C869 C868 1.404 . S
C869 H881 0.930 . S
C870 C866 1.524 . S
C870 H882 0.956 . S
C870 H883 0.961 . S
C870 H884 0.961 . S
C871 C868 1.539 . S
C871 H885 0.958 . S
C871 H886 0.961 . S
C871 H887 0.960 . S
H872 C856 0.931 . S
H873 C861 0.929 . S
H874 C862 0.960 . S
H875 C862 0.962 . S
H876 C862 0.960 . S
H877 C863 0.961 . S
H878 C863 0.961 . S
H879 C863 0.961 . S
H880 C864 0.931 . S
H881 C869 0.930 . S
H882 C870 0.956 . S
H883 C870 0.961 . S
H884 C870 0.961 . S
H885 C871 0.958 . S
H886 C871 0.961 . S
H887 C871 0.960 . S
C888 C889 1.391 . S
C888 C890 1.394 . S
C888 H904 0.931 . S
C889 C888 1.391 . S
C889 C893 1.376 . S
C890 C888 1.394 . S
C890 C891 1.369 . S
C890 C894 1.531 . S
C891 C890 1.369 . S
C891 C892 1.410 . S
C891 C899 1.503 . S
C892 C891 1.410 . S
C892 C893 1.392 . S
C892 C895 1.511 . S
C893 C889 1.376 . S
C893 C892 1.392 . S
C893 H905 0.929 . S
C894 C890 1.531 . S
C894 H906 0.960 . S
C894 H907 0.962 . S
C894 H908 0.960 . S
C895 C892 1.511 . S
C895 H909 0.961 . S
C895 H910 0.961 . S
C895 H911 0.961 . S
C896 C897 1.370 . S
C896 C898 1.363 . S
C896 H912 0.931 . S
C897 C896 1.370 . S
C897 C901 1.408 . S
C898 C896 1.363 . S
C898 C899 1.370 . S
C898 C902 1.524 . S
C899 C891 1.503 . S
C899 C898 1.370 . S
C899 C900 1.403 . S
C900 C899 1.403 . S
C900 C901 1.404 . S
C900 C903 1.539 . S
C901 C897 1.408 . S
C901 C900 1.404 . S
C901 H913 0.930 . S
C902 C898 1.524 . S
C902 H914 0.956 . S
C902 H915 0.961 . S
C902 H916 0.961 . S
C903 C900 1.539 . S
C903 H917 0.958 . S
C903 H918 0.961 . S
C903 H919 0.960 . S
H904 C888 0.931 . S
H905 C893 0.929 . S
H906 C894 0.960 . S
H907 C894 0.962 . S
H908 C894 0.960 . S
H909 C895 0.961 . S
H910 C895 0.961 . S
H911 C895 0.961 . S
H912 C896 0.931 . S
H913 C901 0.930 . S
H914 C902 0.956 . S
H915 C902 0.961 . S
H916 C902 0.961 . S
H917 C903 0.958 . S
H918 C903 0.961 . S
H919 C903 0.960 . S
C920 C921 1.391 . S
C920 C922 1.394 . S
C920 H936 0.931 . S
C921 C920 1.391 . S
C921 C925 1.376 . S
C922 C920 1.394 . S
C922 C923 1.369 . S
C922 C926 1.531 . S
C923 C922 1.369 . S
C923 C924 1.410 . S
C923 C931 1.503 . S
C924 C923 1.410 . S
C924 C925 1.392 . S
C924 C927 1.511 . S
C925 C921 1.376 . S
C925 C924 1.392 . S
C925 H937 0.929 . S
C926 C922 1.531 . S
C926 H938 0.960 . S
C926 H939 0.962 . S
C926 H940 0.960 . S
C927 C924 1.511 . S
C927 H941 0.961 . S
C927 H942 0.961 . S
C927 H943 0.961 . S
C928 C929 1.370 . S
C928 C930 1.363 . S
C928 H944 0.931 . S
C929 C928 1.370 . S
C929 C933 1.408 . S
C930 C928 1.363 . S
C930 C931 1.370 . S
C930 C934 1.524 . S
C931 C923 1.503 . S
C931 C930 1.370 . S
C931 C932 1.403 . S
C932 C931 1.403 . S
C932 C933 1.404 . S
C932 C935 1.539 . S
C933 C929 1.408 . S
C933 C932 1.404 . S
C933 H945 0.930 . S
C934 C930 1.524 . S
C934 H946 0.956 . S
C934 H947 0.961 . S
C934 H948 0.961 . S
C935 C932 1.539 . S
C935 H949 0.958 . S
C935 H950 0.961 . S
C935 H951 0.960 . S
H936 C920 0.931 . S
H937 C925 0.929 . S
H938 C926 0.960 . S
H939 C926 0.962 . S
H940 C926 0.960 . S
H941 C927 0.961 . S
H942 C927 0.961 . S
H943 C927 0.961 . S
H944 C928 0.931 . S
H945 C933 0.930 . S
H946 C934 0.956 . S
H947 C934 0.961 . S
H948 C934 0.961 . S
H949 C935 0.958 . S
H950 C935 0.961 . S
H951 C935 0.960 . S
C952 C953 1.391 . S
C952 C954 1.394 . S
C952 H968 0.931 . S
C953 C952 1.391 . S
C953 C957 1.376 . S
C954 C952 1.394 . S
C954 C955 1.369 . S
C954 C958 1.531 . S
C955 C954 1.369 . S
C955 C956 1.410 . S
C955 C963 1.503 . S
C956 C955 1.410 . S
C956 C957 1.392 . S
C956 C959 1.511 . S
C957 C953 1.376 . S
C957 C956 1.392 . S
C957 H969 0.929 . S
C958 C954 1.531 . S
C958 H970 0.960 . S
C958 H971 0.962 . S
C958 H972 0.960 . S
C959 C956 1.511 . S
C959 H973 0.961 . S
C959 H974 0.961 . S
C959 H975 0.961 . S
C960 C961 1.370 . S
C960 C962 1.363 . S
C960 H976 0.931 . S
C961 C960 1.370 . S
C961 C965 1.408 . S
C962 C960 1.363 . S
C962 C963 1.370 . S
C962 C966 1.524 . S
C963 C955 1.503 . S
C963 C962 1.370 . S
C963 C964 1.403 . S
C964 C963 1.403 . S
C964 C965 1.404 . S
C964 C967 1.539 . S
C965 C961 1.408 . S
C965 C964 1.404 . S
C965 H977 0.930 . S
C966 C962 1.524 . S
C966 H978 0.956 . S
C966 H979 0.961 . S
C966 H980 0.961 . S
C967 C964 1.539 . S
C967 H981 0.958 . S
C967 H982 0.961 . S
C967 H983 0.960 . S
H968 C952 0.931 . S
H969 C957 0.929 . S
H970 C958 0.960 . S
H971 C958 0.962 . S
H972 C958 0.960 . S
H973 C959 0.961 . S
H974 C959 0.961 . S
H975 C959 0.961 . S
H976 C960 0.931 . S
H977 C965 0.930 . S
H978 C966 0.956 . S
H979 C966 0.961 . S
H980 C966 0.961 . S
H981 C967 0.958 . S
H982 C967 0.961 . S
H983 C967 0.960 . S
C984 C985 1.391 . S
C984 C986 1.394 . S
C984 H1000 0.931 . S
C985 C984 1.391 . S
C985 C989 1.376 . S
C986 C984 1.394 . S
C986 C987 1.369 . S
C986 C990 1.531 . S
C987 C986 1.369 . S
C987 C988 1.410 . S
C987 C995 1.503 . S
C988 C987 1.410 . S
C988 C989 1.392 . S
C988 C991 1.511 . S
C989 C985 1.376 . S
C989 C988 1.392 . S
C989 H1001 0.929 . S
C990 C986 1.531 . S
C990 H1002 0.960 . S
C990 H1003 0.962 . S
C990 H1004 0.960 . S
C991 C988 1.511 . S
C991 H1005 0.961 . S
C991 H1006 0.961 . S
C991 H1007 0.961 . S
C992 C993 1.370 . S
C992 C994 1.363 . S
C992 H1008 0.931 . S
C993 C992 1.370 . S
C993 C997 1.408 . S
C994 C992 1.363 . S
C994 C995 1.370 . S
C994 C998 1.524 . S
C995 C987 1.503 . S
C995 C994 1.370 . S
C995 C996 1.403 . S
C996 C995 1.403 . S
C996 C997 1.404 . S
C996 C999 1.539 . S
C997 C993 1.408 . S
C997 C996 1.404 . S
C997 H1009 0.930 . S
C998 C994 1.524 . S
C998 H1010 0.956 . S
C998 H1011 0.961 . S
C998 H1012 0.961 . S
C999 C996 1.539 . S
C999 H1013 0.958 . S
C999 H1014 0.961 . S
C999 H1015 0.960 . S
H1000 C984 0.931 . S
H1001 C989 0.929 . S
H1002 C990 0.960 . S
H1003 C990 0.962 . S
H1004 C990 0.960 . S
H1005 C991 0.961 . S
H1006 C991 0.961 . S
H1007 C991 0.961 . S
H1008 C992 0.931 . S
H1009 C997 0.930 . S
H1010 C998 0.956 . S
H1011 C998 0.961 . S
H1012 C998 0.961 . S
H1013 C999 0.958 . S
H1014 C999 0.961 . S
H1015 C999 0.960 . S
C1016 C1017 1.391 . S
C1016 C1018 1.394 . S
C1016 H1032 0.931 . S
C1017 C1016 1.391 . S
C1017 C1021 1.376 . S
C1018 C1016 1.394 . S
C1018 C1019 1.369 . S
C1018 C1022 1.531 . S
C1019 C1018 1.369 . S
C1019 C1020 1.410 . S
C1019 C1027 1.503 . S
C1020 C1019 1.410 . S
C1020 C1021 1.392 . S
C1020 C1023 1.511 . S
C1021 C1017 1.376 . S
C1021 C1020 1.392 . S
C1021 H1033 0.929 . S
C1022 C1018 1.531 . S
C1022 H1034 0.960 . S
C1022 H1035 0.962 . S
C1022 H1036 0.960 . S
C1023 C1020 1.511 . S
C1023 H1037 0.961 . S
C1023 H1038 0.961 . S
C1023 H1039 0.961 . S
C1024 C1025 1.370 . S
C1024 C1026 1.363 . S
C1024 H1040 0.931 . S
C1025 C1024 1.370 . S
C1025 C1029 1.408 . S
C1026 C1024 1.363 . S
C1026 C1027 1.370 . S
C1026 C1030 1.524 . S
C1027 C1019 1.503 . S
C1027 C1026 1.370 . S
C1027 C1028 1.403 . S
C1028 C1027 1.403 . S
C1028 C1029 1.404 . S
C1028 C1031 1.539 . S
C1029 C1025 1.408 . S
C1029 C1028 1.404 . S
C1029 H1041 0.930 . S
C1030 C1026 1.524 . S
C1030 H1042 0.956 . S
C1030 H1043 0.961 . S
C1030 H1044 0.961 . S
C1031 C1028 1.539 . S
C1031 H1045 0.958 . S
C1031 H1046 0.961 . S
C1031 H1047 0.960 . S
H1032 C1016 0.931 . S
H1033 C1021 0.929 . S
H1034 C1022 0.960 . S
H1035 C1022 0.962 . S
H1036 C1022 0.960 . S
H1037 C1023 0.961 . S
H1038 C1023 0.961 . S
H1039 C1023 0.961 . S
H1040 C1024 0.931 . S
H1041 C1029 0.930 . S
H1042 C1030 0.956 . S
H1043 C1030 0.961 . S
H1044 C1030 0.961 . S
H1045 C1031 0.958 . S
H1046 C1031 0.961 . S
H1047 C1031 0.960 . S
C1048 C1049 1.391 . S
C1048 C1050 1.394 . S
C1048 H1064 0.931 . S
C1049 C1048 1.391 . S
C1049 C1053 1.376 . S
C1050 C1048 1.394 . S
C1050 C1051 1.369 . S
C1050 C1054 1.531 . S
C1051 C1050 1.369 . S
C1051 C1052 1.410 . S
C1051 C1059 1.503 . S
C1052 C1051 1.410 . S
C1052 C1053 1.392 . S
C1052 C1055 1.511 . S
C1053 C1049 1.376 . S
C1053 C1052 1.392 . S
C1053 H1065 0.929 . S
C1054 C1050 1.531 . S
C1054 H1066 0.960 . S
C1054 H1067 0.962 . S
C1054 H1068 0.960 . S
C1055 C1052 1.511 . S
C1055 H1069 0.961 . S
C1055 H1070 0.961 . S
C1055 H1071 0.961 . S
C1056 C1057 1.370 . S
C1056 C1058 1.363 . S
C1056 H1072 0.931 . S
C1057 C1056 1.370 . S
C1057 C1061 1.408 . S
C1058 C1056 1.363 . S
C1058 C1059 1.370 . S
C1058 C1062 1.524 . S
C1059 C1051 1.503 . S
C1059 C1058 1.370 . S
C1059 C1060 1.403 . S
C1060 C1059 1.403 . S
C1060 C1061 1.404 . S
C1060 C1063 1.539 . S
C1061 C1057 1.408 . S
C1061 C1060 1.404 . S
C1061 H1073 0.930 . S
C1062 C1058 1.524 . S
C1062 H1074 0.956 . S
C1062 H1075 0.961 . S
C1062 H1076 0.961 . S
C1063 C1060 1.539 . S
C1063 H1077 0.958 . S
C1063 H1078 0.961 . S
C1063 H1079 0.960 . S
H1064 C1048 0.931 . S
H1065 C1053 0.929 . S
H1066 C1054 0.960 . S
H1067 C1054 0.962 . S
H1068 C1054 0.960 . S
H1069 C1055 0.961 . S
H1070 C1055 0.961 . S
H1071 C1055 0.961 . S
H1072 C1056 0.931 . S
H1073 C1061 0.930 . S
H1074 C1062 0.956 . S
H1075 C1062 0.961 . S
H1076 C1062 0.961 . S
H1077 C1063 0.958 . S
H1078 C1063 0.961 . S
H1079 C1063 0.960 . S
C313 C6 1.211 . S
C321 C159 1.207 . S
C345 C21 1.452 . S
C353 C208 1.494 . S
C385 C234 1.854 . S
C377 C49 1.803 . S
C409 C68 2.044 . S
C417 C282 2.123 1_655 S
C449 C194 3.015 . S
C441 C2 2.916 . S
C481 C162 0.393 . S
C473 C30 0.342 . S
C513 C283 1.880 . S
C505 C40 1.917 . S
C545 C251 1.511 . S
C537 C63 1.519 . S
C569 C11 1.447 . S
C577 C279 1.569 . S
C609 C211 2.605 . S
C601 C44 2.669 . S
C633 C59 1.959 . S
C641 C163 1.967 . S
C665 C25 1.268 . S
C673 C248 1.219 . S
C705 C168 1.460 . S
C697 C82 1.466 . S
C729 C101 1.258 . S
C737 C199 1.233 . S
C761 C125 2.272 . S
C769 C243 2.369 . S
C793 C144 1.773 . S
C801 C291 1.895 . S
C825 C87 1.866 . S
C833 C203 2.038 . S
C865 C171 1.773 . S
C857 C97 1.801 . S
C897 C274 1.656 . S
C889 C120 1.735 . S
C929 C242 1.550 . S
C921 C135 1.612 . S
C953 C78 1.894 . S
C961 C288 2.042 . S
C993 C202 1.877 . S
C985 C116 1.943 . S
C1025 C154 2.641 . S
C1017 C139 2.640 . S
C1049 C106 0.927 . S
C1057 C239 0.917 . S
