# Generated by pormake.
# Topology pyr, (3,6)-cn, num edge types: 1
# Building blocks:
#     Node 0, Type 0, BuildingBlock: BETDIP_clean_linker_0, # of connection points: 3
#     Node 1, Type 0, BuildingBlock: BETDIP_clean_linker_0, # of connection points: 3
#     Node 2, Type 0, BuildingBlock: BETDIP_clean_linker_0, # of connection points: 3
#     Node 3, Type 0, BuildingBlock: BETDIP_clean_linker_0, # of connection points: 3
#     Node 4, Type 0, BuildingBlock: BETDIP_clean_linker_0, # of connection points: 3
#     Node 5, Type 0, BuildingBlock: BETDIP_clean_linker_0, # of connection points: 3
#     Node 6, Type 0, BuildingBlock: BETDIP_clean_linker_0, # of connection points: 3
#     Node 7, Type 0, BuildingBlock: BETDIP_clean_linker_0, # of connection points: 3
#     Node 8, Type 1, BuildingBlock: PAMTUU_clean_sbu_0, # of connection points: 6
#     Node 9, Type 1, BuildingBlock: PAMTUU_clean_sbu_0, # of connection points: 6
#     Node 10, Type 1, BuildingBlock: PAMTUU_clean_sbu_0, # of connection points: 6
#     Node 11, Type 1, BuildingBlock: PAMTUU_clean_sbu_0, # of connection points: 6
#     Edge 12, Type (0, 1), BuildingBlock: KIFKEQ_clean_linker_1, # of connection points: 2
#     Edge 13, Type (0, 1), BuildingBlock: KIFKEQ_clean_linker_1, # of connection points: 2
#     Edge 14, Type (0, 1), BuildingBlock: KIFKEQ_clean_linker_1, # of connection points: 2
#     Edge 15, Type (0, 1), BuildingBlock: KIFKEQ_clean_linker_1, # of connection points: 2
#     Edge 16, Type (0, 1), BuildingBlock: KIFKEQ_clean_linker_1, # of connection points: 2
#     Edge 17, Type (0, 1), BuildingBlock: KIFKEQ_clean_linker_1, # of connection points: 2
#     Edge 18, Type (0, 1), BuildingBlock: KIFKEQ_clean_linker_1, # of connection points: 2
#     Edge 19, Type (0, 1), BuildingBlock: KIFKEQ_clean_linker_1, # of connection points: 2
#     Edge 20, Type (0, 1), BuildingBlock: KIFKEQ_clean_linker_1, # of connection points: 2
#     Edge 21, Type (0, 1), BuildingBlock: KIFKEQ_clean_linker_1, # of connection points: 2
#     Edge 22, Type (0, 1), BuildingBlock: KIFKEQ_clean_linker_1, # of connection points: 2
#     Edge 23, Type (0, 1), BuildingBlock: KIFKEQ_clean_linker_1, # of connection points: 2
#     Edge 24, Type (0, 1), BuildingBlock: KIFKEQ_clean_linker_1, # of connection points: 2
#     Edge 25, Type (0, 1), BuildingBlock: KIFKEQ_clean_linker_1, # of connection points: 2
#     Edge 26, Type (0, 1), BuildingBlock: KIFKEQ_clean_linker_1, # of connection points: 2
#     Edge 27, Type (0, 1), BuildingBlock: KIFKEQ_clean_linker_1, # of connection points: 2
#     Edge 28, Type (0, 1), BuildingBlock: KIFKEQ_clean_linker_1, # of connection points: 2
#     Edge 29, Type (0, 1), BuildingBlock: KIFKEQ_clean_linker_1, # of connection points: 2
#     Edge 30, Type (0, 1), BuildingBlock: KIFKEQ_clean_linker_1, # of connection points: 2
#     Edge 31, Type (0, 1), BuildingBlock: KIFKEQ_clean_linker_1, # of connection points: 2
#     Edge 32, Type (0, 1), BuildingBlock: KIFKEQ_clean_linker_1, # of connection points: 2
#     Edge 33, Type (0, 1), BuildingBlock: KIFKEQ_clean_linker_1, # of connection points: 2
#     Edge 34, Type (0, 1), BuildingBlock: KIFKEQ_clean_linker_1, # of connection points: 2
#     Edge 35, Type (0, 1), BuildingBlock: KIFKEQ_clean_linker_1, # of connection points: 2
# Relax obj value: 0.121
# Max RMSD: 0.160
# Mean RMSD: 0.131
data_MOF--net-pyr--node1-PAMTUU_clean_sbu_0--node2-BETDIP_clean_linker_0--edge1-KIFKEQ_clean_linker_1
_symmetry_space_group_name_H-M    P1
_symmetry_Int_Tables_number       1
_symmetry_cell_setting            triclinic
loop_
_symmetry_equiv_pos_as_xyz
'x, y, z'
_cell_length_a     39.213372
_cell_length_b     39.056201
_cell_length_c     38.083396
_cell_angle_alpha  90.241225
_cell_angle_beta   88.549695
_cell_angle_gamma 107.15799
loop_
_atom_site_label
_atom_site_type_symbol
_atom_site_fract_x
_atom_site_fract_y
_atom_site_fract_z
_atom_type_partial_charge
H0 H 0.30115 0.29174 0.26322 0.0
H1 H 0.34343 0.26121 0.16739 0.0
H2 H 0.38218 0.23789 0.26639 0.0
H3 H 0.3145 0.29684 0.14117 0.0
C4 C 0.29314 0.29773 0.15951 0.0
C5 C 0.32062 0.28102 0.25014 0.0
C6 C 0.3416 0.26492 0.2697 0.0
C7 C 0.32177 0.28076 0.21346 0.0
C8 C 0.34419 0.26382 0.19566 0.0
C9 C 0.3657 0.24771 0.21478 0.0
C10 C 0.36529 0.24982 0.25165 0.0
N11 N 0.29667 0.29413 0.19619 0.0
H12 H 0.15741 0.79236 0.76631 0.0
H13 H 0.18439 0.75278 0.66713 0.0
H14 H 0.24498 0.74734 0.7581 0.0
H15 H 0.13881 0.77157 0.64597 0.0
C16 C 0.13348 0.79012 0.66511 0.0
C17 C 0.17371 0.77926 0.75116 0.0
C18 C 0.20211 0.77074 0.7669 0.0
C19 C 0.16731 0.77352 0.71535 0.0
C20 C 0.18851 0.75701 0.69498 0.0
C21 C 0.2156 0.7461 0.71096 0.0
C22 C 0.22233 0.75332 0.74671 0.0
N23 N 0.14154 0.78808 0.701 0.0
H24 H 0.71927 0.42863 0.85912 0.0
H25 H 0.62759 0.33531 0.85375 0.0
H26 H 0.70475 0.34288 0.93379 0.0
H27 H 0.60271 0.37584 0.82914 0.0
C28 C 0.62412 0.39316 0.81306 0.0
C29 C 0.70381 0.4028 0.86955 0.0
C30 C 0.71648 0.3878 0.89827 0.0
C31 C 0.67132 0.38468 0.85381 0.0
C32 C 0.65171 0.35032 0.86656 0.0
C33 C 0.66413 0.33455 0.89497 0.0
C34 C 0.696 0.35402 0.9109 0.0
N35 N 0.66003 0.40119 0.82451 0.0
H36 H 0.82144 0.642 0.37558 0.0
H37 H 0.90516 0.74056 0.35848 0.0
H38 H 0.82254 0.73602 0.43574 0.0
H39 H 0.90799 0.71803 0.30462 0.0
C40 C 0.90013 0.68905 0.30698 0.0
C41 C 0.83327 0.67002 0.38183 0.0
C42 C 0.81785 0.6864 0.40832 0.0
C43 C 0.86393 0.68946 0.36284 0.0
C44 C 0.88068 0.72548 0.37178 0.0
C45 C 0.86581 0.74226 0.39829 0.0
C46 C 0.83421 0.72272 0.41585 0.0
N47 N 0.87708 0.67169 0.3352 0.0
H48 H 0.64867 0.78817 0.95771 0.0
H49 H 0.70366 0.75553 0.87073 0.0
H50 H 0.66284 0.84525 0.85927 0.0
H51 H 0.6791 0.69813 0.90214 0.0
C52 C 0.69236 0.71179 0.92521 0.0
C53 C 0.65767 0.79118 0.93044 0.0
C54 C 0.65289 0.81923 0.90999 0.0
C55 C 0.67531 0.76768 0.91633 0.0
C56 C 0.68868 0.77257 0.88151 0.0
C57 C 0.68432 0.80051 0.86088 0.0
C58 C 0.66589 0.82335 0.87507 0.0
N59 N 0.68246 0.7416 0.9385 0.0
H60 H 0.84963 0.26083 0.32417 0.0
H61 H 0.83692 0.30692 0.42429 0.0
H62 H 0.78387 0.33115 0.33429 0.0
H63 H 0.89332 0.29535 0.43315 0.0
C64 C 0.88773 0.26941 0.42041 0.0
C65 C 0.83939 0.27921 0.33957 0.0
C66 C 0.81638 0.29618 0.32449 0.0
C67 C 0.84769 0.28361 0.37508 0.0
C68 C 0.83224 0.30495 0.39635 0.0
C69 C 0.80913 0.32232 0.38164 0.0
C70 C 0.80222 0.31848 0.34556 0.0
N71 N 0.86838 0.26277 0.38889 0.0
H72 H 0.31158 0.63564 0.23634 0.0
H73 H 0.39791 0.73342 0.24633 0.0
H74 H 0.31718 0.7267 0.17069 0.0
H75 H 0.41983 0.70397 0.28379 0.0
C76 C 0.4012 0.67842 0.29139 0.0
C77 C 0.3247 0.66304 0.22829 0.0
C78 C 0.31041 0.67857 0.20106 0.0
C79 C 0.35627 0.68218 0.245 0.0
C80 C 0.37385 0.7178 0.23394 0.0
C81 C 0.35974 0.73403 0.20708 0.0
C82 C 0.32809 0.71418 0.19116 0.0
N83 N 0.36879 0.66463 0.27282 0.0
H84 H 0.12081 0.33481 0.74596 0.0
H85 H 0.20996 0.43017 0.73456 0.0
H86 H 0.19961 0.34207 0.66372 0.0
H87 H 0.19696 0.44148 0.78901 0.0
C88 C 0.16888 0.42815 0.79437 0.0
C89 C 0.14544 0.34955 0.73253 0.0
C90 C 0.15759 0.33479 0.7028 0.0
C91 C 0.16445 0.3836 0.74478 0.0
C92 C 0.19591 0.40324 0.72659 0.0
C93 C 0.20883 0.38857 0.69708 0.0
C94 C 0.18952 0.35421 0.68573 0.0
N95 N 0.15042 0.39749 0.77469 0.0
Tb96 Tb 0.04845 0.04371 0.52948 0.0
Tb97 Tb 0.97687 0.02689 0.58152 0.0
C98 C 0.97942 0.97953 0.51435 0.0
C99 C 0.13506 0.08593 0.48208 0.0
C100 C 0.19257 0.14456 0.46008 0.0
C101 C 0.19448 0.10931 0.45647 0.0
C102 C 0.16598 0.08029 0.46741 0.0
C103 C 0.13291 0.12097 0.48616 0.0
C104 C 0.16147 0.15015 0.47505 0.0
C105 C 0.10623 0.05494 0.49449 0.0
O106 O 0.01537 0.07255 0.5049 0.0
O107 O 0.97549 0.0727 0.55063 0.0
O108 O 0.01989 0.06786 0.60678 0.0
O109 O 0.05477 0.0924 0.55869 0.0
O110 O 0.92285 1.02294 0.59037 0.0
O111 O 0.95594 1.01624 0.63289 0.0
O112 O 0.99842 0.98217 0.58744 0.0
O113 O 0.05569 1.01581 0.57678 0.0
O114 O 0.01441 0.99216 0.51249 0.0
O115 O 0.95977 0.99288 0.53583 0.0
C116 C 0.98953 0.08337 0.51947 0.0
O117 O 0.10347 0.0508 0.52842 0.0
O118 O 0.07518 0.04968 0.48029 0.0
C119 C 0.04455 0.09436 0.59143 0.0
C120 C 0.89446 0.9861 0.6377 0.0
C121 C 0.83821 0.93091 0.66777 0.0
C122 C 0.84354 0.9668 0.67775 0.0
C123 C 0.87135 0.99408 0.66279 0.0
C124 C 0.8893 0.9505 0.62717 0.0
C125 C 0.86131 0.923 0.64218 0.0
C126 C 0.92396 1.01553 0.62358 0.0
C127 C 0.03269 0.9864 0.58875 0.0
H128 H 0.21768 0.10402 0.44433 0.0
H129 H 0.16805 0.05337 0.46432 0.0
H130 H 0.10923 0.12568 0.49789 0.0
H131 H 0.15927 0.177 0.47818 0.0
H132 H 0.82686 0.97381 0.69794 0.0
H133 H 0.87515 1.02146 0.67124 0.0
H134 H 0.90703 0.94403 0.60768 0.0
H135 H 0.85781 0.89565 0.63389 0.0
Tb136 Tb 0.5404 0.04583 0.08033 0.0
Tb137 Tb 0.47405 0.02739 1.02594 0.0
C138 C 0.53773 0.99651 1.0159 0.0
C139 C 0.62581 0.08845 0.12566 0.0
C140 C 0.68669 0.14565 0.14032 0.0
C141 C 0.67959 0.11287 0.1585 0.0
C142 C 0.64937 0.08455 0.15121 0.0
C143 C 0.63371 0.12023 0.10597 0.0
C144 C 0.66399 0.14867 0.11323 0.0
C145 C 0.59169 0.06051 0.12222 0.0
O146 O 0.55141 0.09373 0.04773 0.0
O147 O 0.51571 0.07121 1.00071 0.0
O148 O 0.47298 0.07471 0.05487 0.0
O149 O 0.49592 0.06043 0.10502 0.0
O150 O 0.45453 1.01523 0.97524 0.0
O151 O 0.41981 1.02138 1.01843 0.0
O152 O 0.45562 0.99001 0.07007 0.0
O153 O 0.50929 0.99141 0.094 0.0
O154 O 0.5573 1.02501 1.03204 0.0
O155 O 0.50288 0.98863 1.01654 0.0
C156 C 0.5413 0.09663 1.01542 0.0
O157 O 0.56336 0.07112 0.12623 0.0
O158 O 0.58908 0.0388 0.09576 0.0
C159 C 0.47767 0.07844 0.08866 0.0
C160 C 0.39446 0.97992 0.97469 0.0
C161 C 0.34211 0.91868 0.95123 0.0
C162 C 0.33837 0.95306 0.9463 0.0
C163 C 0.36434 0.98338 0.95794 0.0
C164 C 0.39808 0.94572 0.98054 0.0
C165 C 0.37212 0.91526 0.96874 0.0
C166 C 0.4218 1.01233 0.98561 0.0
C167 C 0.47485 0.97631 0.09066 0.0
H168 H 0.69609 0.10975 0.17991 0.0
H169 H 0.64355 0.06018 0.16668 0.0
H170 H 0.61571 0.12353 0.08607 0.0
H171 H 0.66889 0.17343 0.09858 0.0
H172 H 0.31595 0.95669 0.93234 0.0
H173 H 0.36118 1.00963 0.95332 0.0
H174 H 0.42115 0.94266 0.99379 0.0
H175 H 0.37562 0.88912 0.97303 0.0
Tb176 Tb 0.51209 0.49963 0.52927 0.0
Tb177 Tb 0.51491 0.57157 0.57495 0.0
C178 C 0.48262 0.55931 0.49819 0.0
C179 C 0.54901 0.43267 0.48968 0.0
C180 C 0.61015 0.41001 0.47636 0.0
C181 C 0.57725 0.39187 0.46136 0.0
C182 C 0.54694 0.40313 0.46798 0.0
C183 C 0.58162 0.45069 0.5049 0.0
C184 C 0.61186 0.43944 0.4984 0.0
C185 C 0.5176 0.44532 0.49609 0.0
O186 O 0.55657 0.54321 0.50948 0.0
O187 O 0.57004 0.5767 0.55941 0.0
O188 O 0.52355 0.5325 0.61184 0.0
O189 O 0.54788 0.5012 0.57295 0.0
O190 O 0.52763 0.62772 0.57768 0.0
O191 O 0.50495 0.59464 0.6225 0.0
O192 O 0.45898 0.54122 0.57386 0.0
O193 O 0.46406 0.48504 0.56273 0.0
O194 O 0.47787 0.52451 0.50044 0.0
O195 O 0.50146 0.58169 0.52139 0.0
C196 C 0.57908 0.56744 0.52817 0.0
O197 O 0.50667 0.44447 0.52875 0.0
O198 O 0.51905 0.47567 0.48116 0.0
C199 C 0.54212 0.51006 0.60541 0.0
C200 C 0.48441 0.64395 0.61249 0.0
C201 C 0.42556 0.67024 0.62511 0.0
C202 C 0.45612 0.68164 0.64579 0.0
C203 C 0.48527 0.66851 0.63956 0.0
C204 C 0.45458 0.63349 0.59095 0.0
C205 C 0.42544 0.64659 0.59714 0.0
C206 C 0.51283 0.62661 0.60885 0.0
C207 C 0.44576 0.50621 0.57449 0.0
H208 H 0.57508 0.36943 0.44387 0.0
H209 H 0.52201 0.38902 0.45589 0.0
H210 H 0.58374 0.47363 0.52171 0.0
H211 H 0.63654 0.45375 0.51076 0.0
H212 H 0.45723 0.70019 0.66724 0.0
H213 H 0.50802 0.67674 0.6565 0.0
H214 H 0.45334 0.61425 0.57008 0.0
H215 H 0.40222 0.63697 0.58099 0.0
Tb216 Tb 0.01618 0.57408 1.03096 0.0
Tb217 Tb 1.0074 0.49833 0.07228 0.0
C218 C 0.04834 0.51665 0.99885 0.0
C219 C 0.98543 0.64451 0.99405 0.0
C220 C 0.92536 0.66764 0.98117 0.0
C221 C 0.95866 0.68513 0.96508 0.0
C222 C 0.98859 0.67368 0.97162 0.0
C223 C 0.95222 0.62698 1.00992 0.0
C224 C 0.92254 0.63852 1.0037 0.0
C225 C 0.016 0.63117 1.00047 0.0
O226 O 0.97146 0.53394 1.00785 0.0
O227 O 0.95409 0.49479 0.05405 0.0
O228 O 0.99391 0.53381 0.11092 0.0
O229 O 0.97643 0.57004 0.07279 0.0
O230 O 0.9897 0.44207 0.07184 0.0
O231 O 0.01584 0.47069 0.11689 0.0
O232 O 0.06358 0.52862 0.07628 0.0
O233 O 0.05974 0.58558 0.06788 0.0
O234 O 0.05369 0.5511 1.00396 0.0
O235 O 0.02602 0.49247 1.0189 0.0
C236 C 0.94744 0.50756 1.0239 0.0
O237 O 0.02356 0.6295 1.03344 0.0
O238 O 0.01556 0.60179 0.9839 0.0
C239 C 0.97804 0.55834 0.10474 0.0
C240 C 0.03053 0.41892 0.10053 0.0
C241 C 0.08398 0.38397 0.10209 0.0
C242 C 0.05723 0.37784 0.12871 0.0
C243 C 0.03074 0.39519 0.12791 0.0
C244 C 0.0567 0.42463 0.07356 0.0
C245 C 0.08306 0.40719 0.07423 0.0
C246 C 1.00484 0.43972 0.10144 0.0
C247 C 0.07678 0.56357 0.07933 0.0
H248 H 0.96154 0.70767 0.94762 0.0
H249 H 0.01401 0.68735 0.95901 0.0
H250 H 0.94911 0.60403 1.02687 0.0
H251 H 0.89714 0.62406 1.01589 0.0
H252 H 0.05743 0.36061 0.15085 0.0
H253 H 0.01097 0.3908 0.14912 0.0
H254 H 0.05716 0.44313 0.05231 0.0
H255 H 0.10294 0.4122 0.0531 0.0
H256 H 0.32265 0.30841 0.31921 0.0
H257 H 0.3414 0.20516 0.30703 0.0
H258 H 0.29375 0.28929 0.37642 0.0
H259 H 0.31442 0.18724 0.36415 0.0
H260 H 0.26445 0.1559 0.46577 0.0
H261 H 0.31154 0.19588 0.42932 0.0
H262 H 0.23413 0.24107 0.38485 0.0
H263 H 0.1871 0.20098 0.42088 0.0
C264 C 0.32155 0.28211 0.32898 0.0
C265 C 0.33376 0.25813 0.30797 0.0
C266 C 0.30523 0.27133 0.36184 0.0
C267 C 0.30159 0.23671 0.37456 0.0
C268 C 0.31718 0.21427 0.35527 0.0
C269 C 0.33286 0.22472 0.32231 0.0
C270 C 0.25768 0.17498 0.44878 0.0
C271 C 0.22197 0.17471 0.44547 0.0
C272 C 0.28465 0.19797 0.42813 0.0
C273 C 0.27639 0.22117 0.40393 0.0
C274 C 0.24136 0.22365 0.40346 0.0
C275 C 0.21434 0.20056 0.42404 0.0
H276 H 0.2012 0.83461 0.79581 0.0
H277 H 0.23082 0.73883 0.81841 0.0
H278 H 0.22856 0.86164 0.84924 0.0
H279 H 0.25973 0.76701 0.87178 0.0
H280 H 0.26935 0.90265 0.9516 0.0
H281 H 0.22833 0.85878 0.91475 0.0
H282 H 0.31521 0.81999 0.87803 0.0
H283 H 0.35625 0.86394 0.91458 0.0
C284 C 0.21251 0.81874 0.81265 0.0
C285 C 0.21381 0.78445 0.80253 0.0
C286 C 0.22837 0.83441 0.84339 0.0
C287 C 0.24633 0.81646 0.86466 0.0
C288 C 0.24623 0.78151 0.85568 0.0
C289 C 0.22986 0.76553 0.82503 0.0
C290 C 0.27953 0.88429 0.93614 0.0
C291 C 0.31613 0.8872 0.93542 0.0
C292 C 0.25604 0.85914 0.91518 0.0
C293 C 0.26869 0.83635 0.8932 0.0
C294 C 0.30465 0.83704 0.8949 0.0
C295 C 0.32819 0.86228 0.91582 0.0
H296 H 0.55774 0.39378 0.79582 0.0
H297 H 0.6676 0.43303 0.75996 0.0
H298 H 0.53947 0.42258 0.74583 0.0
H299 H 0.64923 0.46171 0.7094 0.0
H300 H 0.59148 0.47215 0.60394 0.0
H301 H 0.61297 0.44507 0.65354 0.0
H302 H 0.54604 0.48471 0.72459 0.0
H303 H 0.52483 0.5119 0.6754 0.0
C304 C 0.57803 0.40863 0.77722 0.0
C305 C 0.61413 0.41123 0.78207 0.0
C306 C 0.56756 0.42528 0.74859 0.0
C307 C 0.59284 0.44466 0.72353 0.0
C308 C 0.62901 0.44689 0.72806 0.0
C309 C 0.63958 0.43061 0.75714 0.0
C310 C 0.58146 0.47524 0.63016 0.0
C311 C 0.55631 0.49426 0.6355 0.0
C312 C 0.59394 0.45984 0.65864 0.0
C313 C 0.58117 0.46253 0.69315 0.0
C314 C 0.55622 0.48173 0.69841 0.0
C315 C 0.54417 0.49753 0.67011 0.0
H316 H 0.8861 0.61577 0.30129 0.0
H317 H 0.93736 0.71532 0.24731 0.0
H318 H 0.90258 0.58252 0.25239 0.0
H319 H 0.95419 0.68224 0.19865 0.0
H320 H 0.94675 0.61231 0.10215 0.0
H321 H 0.9265 0.64222 0.15112 0.0
H322 H 0.95572 0.57184 0.22395 0.0
H323 H 0.97567 0.54149 0.17488 0.0
C324 C 0.90095 0.63056 0.27902 0.0
C325 C 0.91039 0.66819 0.27805 0.0
C326 C 0.91053 0.61151 0.25106 0.0
C327 C 0.92955 0.62968 0.22147 0.0
C328 C 0.93906 0.66734 0.22073 0.0
C329 C 0.92965 0.68633 0.2487 0.0
C330 C 0.9486 0.60292 0.12855 0.0
C331 C 0.96299 0.5745 0.1345 0.0
C332 C 0.9372 0.62029 0.15668 0.0
C333 C 0.93977 0.60968 0.19152 0.0
C334 C 0.95314 0.58056 0.19746 0.0
C335 C 0.9647 0.56323 0.16929 0.0
H336 H 0.40531 0.26081 0.15302 0.0
H337 H 0.36903 0.18217 0.23581 0.0
H338 H 0.43476 0.22125 0.12309 0.0
H339 H 0.39842 0.14305 0.2062 0.0
H340 H 0.48139 0.09434 0.159 0.0
H341 H 0.45734 0.13746 0.18987 0.0
H342 H 0.4166 0.16362 0.09243 0.0
H343 H 0.44093 0.12116 0.06157 0.0
C344 C 0.40371 0.2352 0.16485 0.0
C345 C 0.38512 0.22484 0.19694 0.0
C346 C 0.42053 0.21254 0.14775 0.0
C347 C 0.41903 0.17907 0.16238 0.0
C348 C 0.40071 0.16892 0.19458 0.0
C349 C 0.38389 0.19145 0.21158 0.0
C350 C 0.46733 0.10931 0.1442 0.0
C351 C 0.46297 0.10416 0.10787 0.0
C352 C 0.4535 0.13396 0.16187 0.0
C353 C 0.43514 0.15403 0.14355 0.0
C354 C 0.43106 0.14902 0.10721 0.0
C355 C 0.44476 0.12438 0.08959 0.0
H356 H 0.09837 0.79299 0.60465 0.0
H357 H 0.132 0.85028 0.70108 0.0
H358 H 0.07196 0.83987 0.58674 0.0
H359 H 0.10632 0.89685 0.68301 0.0
H360 H 0.09879 0.9918 0.61305 0.0
H361 H 0.1219 0.94322 0.6314 0.0
H362 H 0.0201 0.86627 0.6111 0.0
H363 H 0.9966 0.915 0.5932 0.0
C364 C 0.10002 0.81547 0.62195 0.0
C365 C 0.11703 0.81787 0.65425 0.0
C366 C 0.08484 0.84211 0.61183 0.0
C367 C 0.08719 0.87189 0.63355 0.0
C368 C 0.1043 0.87425 0.66575 0.0
C369 C 0.11883 0.84744 0.67611 0.0
C370 C 0.08124 0.96456 0.61275 0.0
C371 C 0.04583 0.95721 0.60192 0.0
C372 C 0.09447 0.93681 0.62326 0.0
C373 C 0.07278 0.90108 0.62252 0.0
C374 C 0.03738 0.89362 0.61166 0.0
C375 C 0.0239 0.92149 0.60177 0.0
H376 H 0.76691 0.35868 0.92329 0.0
H377 H 0.74487 0.46007 0.91213 0.0
H378 H 0.82103 0.38822 0.95444 0.0
H379 H 0.79968 0.4898 0.94296 0.0
H380 H 0.9205 0.53336 0.96744 0.0
H381 H 0.86519 0.50564 0.93703 0.0
H382 H 0.83966 0.41751 1.01075 0.0
H383 H 0.89523 0.44509 1.04106 0.0
C384 C 0.7734 0.38728 0.92765 0.0
C385 C 0.75103 0.4068 0.91539 0.0
C386 C 0.80457 0.40425 0.9456 0.0
C387 C 0.81468 0.44139 0.95165 0.0
C388 C 0.79288 0.46118 0.93865 0.0
C389 C 0.76145 0.44411 0.92083 0.0
C390 C 0.9031 0.5081 0.9773 0.0
C391 C 0.91258 0.4914 1.00668 0.0
C392 C 0.87118 0.4923 0.95992 0.0
C393 C 0.84792 0.45918 0.97122 0.0
C394 C 0.85713 0.44277 1.00096 0.0
C395 C 0.88893 0.45872 1.01853 0.0
H396 H 0.79842 0.69352 0.4774 0.0
H397 H 0.76087 0.63297 0.38345 0.0
H398 H 0.74147 0.66587 0.50662 0.0
H399 H 0.70548 0.60232 0.41398 0.0
H400 H 0.59486 0.58337 0.45961 0.0
H401 H 0.6528 0.61103 0.43208 0.0
H402 H 0.70205 0.61683 0.53329 0.0
H403 H 0.64311 0.5913 0.56101 0.0
C404 C 0.77817 0.67416 0.46292 0.0
C405 C 0.78432 0.6662 0.42763 0.0
C406 C 0.74553 0.65766 0.48005 0.0
C407 C 0.71831 0.63198 0.46273 0.0
C408 C 0.72518 0.62268 0.42804 0.0
C409 C 0.75748 0.63983 0.41062 0.0
C410 C 0.61812 0.59075 0.47596 0.0
C411 C 0.61459 0.58528 0.51241 0.0
C412 C 0.65154 0.60628 0.46012 0.0
C413 C 0.68258 0.61587 0.48018 0.0
C414 C 0.6789 0.61037 0.51687 0.0
C415 C 0.64516 0.59562 0.53286 0.0
H416 H 0.23009 0.28996 0.19516 0.0
H417 H 0.28418 0.32495 0.09564 0.0
H418 H 0.17899 0.30758 0.17633 0.0
H419 H 0.2324 0.34271 0.07654 0.0
H420 H 0.15488 0.41522 0.08614 0.0
H421 H 0.20437 0.39067 0.09513 0.0
H422 H 0.13035 0.29188 0.13319 0.0
H423 H 0.08064 0.31612 0.12367 0.0
C424 C 0.23101 0.30129 0.16912 0.0
C425 C 0.2613 0.30648 0.14693 0.0
C426 C 0.20151 0.31107 0.15822 0.0
C427 C 0.20165 0.32648 0.12496 0.0
C428 C 0.23168 0.33107 0.10242 0.0
C429 C 0.26118 0.32085 0.11324 0.0
C430 C 0.149 0.38795 0.09564 0.0
C431 C 0.11374 0.36775 0.10446 0.0
C432 C 0.17742 0.3739 0.10078 0.0
C433 C 0.17125 0.33946 0.11506 0.0
C434 C 0.13593 0.31873 0.1226 0.0
C435 C 0.1075 0.33267 0.11728 0.0
H436 H 0.69284 0.2823 0.91623 0.0
H437 H 0.59134 0.3026 0.90382 0.0
H438 H 0.66272 0.22478 0.94344 0.0
H439 H 0.56098 0.24419 0.93063 0.0
H440 H 0.51971 0.12087 0.95442 0.0
H441 H 0.54802 0.17708 0.92292 0.0
H442 H 0.63052 0.20506 0.99991 0.0
H443 H 0.60249 0.14928 1.03122 0.0
C444 C 0.66405 0.27459 0.91935 0.0
C445 C 0.64468 0.29764 0.90831 0.0
C446 C 0.64675 0.24145 0.93495 0.0
C447 C 0.60944 0.22996 0.93972 0.0
C448 C 0.58976 0.25215 0.92729 0.0
C449 C 0.60718 0.28563 0.91185 0.0
C450 C 0.54399 0.13893 0.96454 0.0
C451 C 0.55881 0.13031 0.9954 0.0
C452 C 0.56006 0.1713 0.94659 0.0
C453 C 0.59164 0.19561 0.95875 0.0
C454 C 0.60648 0.18684 0.98948 0.0
C455 C 0.59025 0.1548 1.00759 0.0
H456 H 0.93602 0.77293 0.41318 0.0
H457 H 0.83524 0.79612 0.40824 0.0
H458 H 0.9632 0.83197 0.43836 0.0
H459 H 0.86242 0.85544 0.43275 0.0
H460 H 0.9104 0.93594 0.52004 0.0
H461 H 0.88361 0.88059 0.48835 0.0
H462 H 0.98213 0.89529 0.42868 0.0
H463 H 0.00919 0.95004 0.46099 0.0
C464 C 0.91991 0.791 0.41675 0.0
C465 C 0.88349 0.77984 0.40897 0.0
C466 C 0.93544 0.82488 0.4312 0.0
C467 C 0.91493 0.84845 0.43794 0.0
C468 C 0.87884 0.83775 0.42867 0.0
C469 C 0.8633 0.80384 0.41444 0.0
C470 C 0.92625 0.92755 0.49994 0.0
C471 C 0.96201 0.9474 0.49323 0.0
C472 C 0.91083 0.89584 0.48161 0.0
C473 C 0.93072 0.88331 0.45596 0.0
C474 C 0.96619 0.90373 0.44864 0.0
C475 C 0.98165 0.93529 0.46709 0.0
H476 H 0.25585 0.77204 0.6518 0.0
H477 H 0.23002 0.68406 0.72556 0.0
H478 H 0.30518 0.75199 0.62741 0.0
H479 H 0.27858 0.66358 0.70098 0.0
H480 H 0.39683 0.67388 0.69037 0.0
H481 H 0.34285 0.68938 0.7061 0.0
H482 H 0.32524 0.70458 0.59649 0.0
H483 H 0.38031 0.68999 0.58069 0.0
C484 C 0.26004 0.74777 0.66196 0.0
C485 C 0.23943 0.7297 0.69068 0.0
C486 C 0.28829 0.73633 0.64811 0.0
C487 C 0.29624 0.70664 0.66279 0.0
C488 C 0.27372 0.68708 0.68969 0.0
C489 C 0.24574 0.69857 0.70356 0.0
C490 C 0.38177 0.68096 0.66959 0.0
C491 C 0.39302 0.68087 0.63429 0.0
C492 C 0.35047 0.68931 0.67856 0.0
C493 C 0.32947 0.69776 0.6525 0.0
C494 C 0.34085 0.69817 0.61716 0.0
C495 C 0.37224 0.68963 0.60812 0.0
H496 H 0.75344 0.80584 0.84444 0.0
H497 H 0.65638 0.81414 0.79921 0.0
H498 H 0.7863 0.82869 0.79047 0.0
H499 H 0.68899 0.83593 0.74427 0.0
H500 H 0.77048 0.93099 0.68627 0.0
H501 H 0.72969 0.89097 0.72737 0.0
H502 H 0.80013 0.82421 0.73036 0.0
H503 H 0.8422 0.86586 0.69089 0.0
C504 C 0.73893 0.8115 0.82244 0.0
C505 C 0.70247 0.80855 0.82604 0.0
C506 C 0.75773 0.82446 0.79133 0.0
C507 C 0.74041 0.83448 0.76295 0.0
C508 C 0.70334 0.82918 0.76582 0.0
C509 C 0.68461 0.81661 0.79717 0.0
C510 C 0.77715 0.90761 0.69549 0.0
C511 C 0.81002 0.90214 0.68605 0.0
C512 C 0.75344 0.88426 0.71872 0.0
C513 C 0.76183 0.85457 0.73274 0.0
C514 C 0.79321 0.84729 0.72073 0.0
C515 C 0.81715 0.87093 0.69772 0.0
H516 H 0.85413 0.28518 0.26571 0.0
H517 H 0.74829 0.28355 0.302 0.0
H518 H 0.82943 0.25788 0.21039 0.0
H519 H 0.72412 0.25727 0.24712 0.0
H520 H 0.68209 0.21368 0.14837 0.0
H521 H 0.72032 0.26111 0.18354 0.0
H522 H 0.79118 0.19651 0.19893 0.0
H523 H 0.75379 0.14968 0.16242 0.0
C524 C 0.82578 0.27968 0.26167 0.0
C525 C 0.80319 0.28633 0.28846 0.0
C526 C 0.81171 0.26419 0.22997 0.0
C527 C 0.77484 0.25536 0.22439 0.0
C528 C 0.75273 0.26433 0.25021 0.0
C529 C 0.76669 0.27949 0.28186 0.0
C530 C 0.7066 0.21015 0.15796 0.0
C531 C 0.7145 0.17755 0.15325 0.0
C532 C 0.72833 0.23724 0.17842 0.0
C533 C 0.75826 0.2322 0.19469 0.0
C534 C 0.76828 0.20126 0.18682 0.0
C535 C 0.74662 0.1742 0.16623 0.0
H536 H 0.36496 0.61171 0.31992 0.0
H537 H 0.46029 0.70061 0.33043 0.0
H538 H 0.38269 0.58157 0.36973 0.0
H539 H 0.47823 0.67064 0.37949 0.0
H540 H 0.48341 0.62891 0.48873 0.0
H541 H 0.46206 0.65551 0.43964 0.0
H542 H 0.42645 0.55201 0.38978 0.0
H543 H 0.44757 0.52498 0.43966 0.0
C544 C 0.38972 0.62479 0.33276 0.0
C545 C 0.41113 0.65873 0.32125 0.0
C546 C 0.40002 0.60742 0.36125 0.0
C547 C 0.43184 0.62366 0.37907 0.0
C548 C 0.45324 0.65743 0.36709 0.0
C549 C 0.44305 0.67462 0.33871 0.0
C550 C 0.47102 0.61159 0.46743 0.0
C551 C 0.4676 0.57467 0.46829 0.0
C552 C 0.45887 0.62701 0.439 0.0
C553 C 0.44284 0.60616 0.41024 0.0
C554 C 0.43848 0.569 0.41142 0.0
C555 C 0.45075 0.55347 0.44002 0.0
H556 H 0.0996 0.40111 0.8192 0.0
H557 H 0.19774 0.48495 0.83639 0.0
H558 H 0.0711 0.42329 0.86833 0.0
H559 H 0.16942 0.50692 0.88598 0.0
H560 H 0.09467 0.55741 0.94919 0.0
H561 H 0.12357 0.53637 0.89952 0.0
H562 H 0.07356 0.42684 0.93208 0.0
H563 H 0.04433 0.44767 0.98125 0.0
C564 C 0.11513 0.42424 0.83352 0.0
C565 C 0.15096 0.4413 0.82401 0.0
C566 C 0.09885 0.43686 0.86183 0.0
C567 C 0.11799 0.46685 0.88121 0.0
C568 C 0.15377 0.48402 0.87142 0.0
C569 C 0.17007 0.47133 0.84317 0.0
C570 C 0.08988 0.52885 0.9458 0.0
C571 C 0.06702 0.50428 0.9692 0.0
C572 C 0.10658 0.51679 0.91739 0.0
C573 C 0.10075 0.47989 0.91168 0.0
C574 C 0.07818 0.45541 0.93531 0.0
C575 C 0.06157 0.46742 0.96369 0.0
H576 H 0.67567 0.8921 0.9034 0.0
H577 H 0.59261 0.80574 0.95188 0.0
H578 H 0.64775 0.93537 0.9277 0.0
H579 H 0.5652 0.84921 0.97714 0.0
H580 H 0.5053 0.93347 0.98293 0.0
H581 H 0.53331 0.89095 0.95722 0.0
H582 H 0.63702 0.96023 0.98475 0.0
H583 H 0.60913 1.00311 1.01009 0.0
C584 C 0.65135 0.88236 0.91917 0.0
C585 C 0.63614 0.84548 0.9255 0.0
C586 C 0.6356 0.90719 0.93341 0.0
C587 C 0.60424 0.89571 0.95427 0.0
C588 C 0.58913 0.85884 0.9608 0.0
C589 C 0.60498 0.83398 0.94664 0.0
C590 C 0.53411 0.9398 0.98333 0.0
C591 C 0.55498 0.97173 0.99857 0.0
C592 C 0.55011 0.91526 0.96883 0.0
C593 C 0.58734 0.92213 0.96913 0.0
C594 C 0.60828 0.95432 0.98384 0.0
C595 C 0.59227 0.97884 0.99845 0.0
H596 H 0.86774 0.19784 0.40611 0.0
H597 H 0.94449 0.27983 0.46336 0.0
H598 H 0.89426 0.15287 0.42748 0.0
H599 H 0.97164 0.23454 0.48419 0.0
H600 H 0.02678 0.14008 0.47804 0.0
H601 H 1.00369 0.18646 0.45257 0.0
H602 H 0.89851 0.13169 0.49443 0.0
H603 H 0.92151 0.0862 0.52048 0.0
C604 C 0.89051 0.20631 0.423 0.0
C605 C 0.90414 0.24233 0.43313 0.0
C606 C 0.90562 0.18056 0.43519 0.0
C607 C 0.93506 0.19039 0.45721 0.0
C608 C 0.94916 0.22647 0.46691 0.0
C609 C 0.93352 0.25221 0.45526 0.0
C610 C 0.9987 0.1379 0.48142 0.0
C611 C 0.97587 0.10964 0.50114 0.0
C612 C 0.98562 0.16447 0.46716 0.0
C613 C 0.9494 0.16252 0.47169 0.0
C614 C 0.92651 0.13369 0.49053 0.0
C615 C 0.93968 0.10775 0.50543 0.0
H616 H 0.2495 0.62995 0.22899 0.0
H617 H 0.29547 0.68054 0.13108 0.0
H618 H 0.19398 0.60031 0.1992 0.0
H619 H 0.23975 0.65205 0.10198 0.0
H620 H 0.12054 0.63269 0.07664 0.0
H621 H 0.17717 0.658 0.10575 0.0
H622 H 0.16904 0.55451 0.15052 0.0
H623 H 0.11236 0.52892 0.12108 0.0
C624 C 0.24804 0.63455 0.20114 0.0
C625 C 0.27709 0.65819 0.18272 0.0
C626 C 0.2161 0.61762 0.18408 0.0
C627 C 0.21227 0.62417 0.14829 0.0
C628 C 0.24155 0.64697 0.12971 0.0
C629 C 0.27352 0.66346 0.14655 0.0
C630 C 0.1308 0.61523 0.09256 0.0
C631 C 0.11183 0.57871 0.09638 0.0
C632 C 0.16339 0.62974 0.10915 0.0
C633 C 0.17767 0.60828 0.13046 0.0
C634 C 0.15866 0.5718 0.13448 0.0
C635 C 0.1263 0.55712 0.11739 0.0
H636 H 0.27057 0.4324 0.72478 0.0
H637 H 0.22374 0.39044 0.62608 0.0
H638 H 0.32659 0.4625 0.69372 0.0
H639 H 0.28026 0.41927 0.59556 0.0
H640 H 0.40192 0.43752 0.56791 0.0
H641 H 0.34362 0.41094 0.59669 0.0
H642 H 0.35007 0.51214 0.64627 0.0
H643 H 0.40804 0.53897 0.61727 0.0
C644 C 0.27199 0.42983 0.69651 0.0
C645 C 0.24254 0.40866 0.67809 0.0
C646 C 0.30417 0.44696 0.67876 0.0
C647 C 0.30779 0.44293 0.6423 0.0
C648 C 0.27833 0.42236 0.62376 0.0
C649 C 0.24601 0.40572 0.64136 0.0
C650 C 0.3908 0.45417 0.58475 0.0
C651 C 0.40962 0.49034 0.59027 0.0
C652 C 0.3574 0.43898 0.6011 0.0
C653 C 0.34245 0.45949 0.62377 0.0
C654 C 0.36112 0.49569 0.62912 0.0
C655 C 0.3942 0.51104 0.61232 0.0
H656 H 0.72484 0.66699 0.89426 0.0
H657 H 0.73595 0.74276 0.97923 0.0
H658 H 0.7825 0.65888 0.90798 0.0
H659 H 0.79378 0.73492 0.9928 0.0
H660 H 0.87504 0.67661 1.02817 0.0
H661 H 0.81862 0.68798 1.0155 0.0
H662 H 0.84649 0.69468 0.90475 0.0
H663 H 0.90264 0.68257 0.9174 0.0
C664 C 0.73958 0.68174 0.91598 0.0
C665 C 0.726 0.70544 0.93566 0.0
C666 C 0.7727 0.67739 0.92362 0.0
C667 C 0.79279 0.69653 0.95125 0.0
C668 C 0.77882 0.71972 0.97143 0.0
C669 C 0.74575 0.72423 0.96364 0.0
C670 C 0.86913 0.68067 1.00114 0.0
C671 C 0.8931 0.6785 0.97373 0.0
C672 C 0.83697 0.68742 0.99392 0.0
C673 C 0.82802 0.69191 0.95912 0.0
C674 C 0.85248 0.69082 0.93179 0.0
C675 C 0.88478 0.68431 0.93904 0.0
H676 H 0.32917 0.78735 0.19478 0.0
H677 H 0.43083 0.76559 0.19071 0.0
H678 H 0.35665 0.84619 0.1687 0.0
H679 H 0.45846 0.82435 0.16391 0.0
H680 H 0.50402 0.94396 0.14076 0.0
H681 H 0.47699 0.8875 0.17134 0.0
H682 H 0.37999 0.87356 0.11433 0.0
H683 H 0.40677 0.93062 0.08442 0.0
C684 C 0.35748 0.79517 0.1883 0.0
C685 C 0.37772 0.77155 0.19469 0.0
C686 C 0.37327 0.82893 0.17309 0.0
C687 C 0.40983 0.8402 0.16361 0.0
C688 C 0.43033 0.81698 0.17106 0.0
C689 C 0.41451 0.78319 0.18649 0.0
C690 C 0.47684 0.92899 0.13479 0.0
C691 C 0.45763 0.94211 0.11005 0.0
C692 C 0.46136 0.89632 0.15225 0.0
C693 C 0.42619 0.87559 0.14547 0.0
C694 C 0.40691 0.88886 0.12083 0.0
C695 C 0.42236 0.92164 0.10346 0.0
H696 H 0.12886 0.27161 0.73887 0.0
H697 H 0.14012 0.31806 0.63502 0.0
H698 H 0.1005 0.21228 0.71403 0.0
H699 H 0.11143 0.2594 0.61034 0.0
H700 H 0.10306 0.14879 0.57162 0.0
H701 H 0.12815 0.20576 0.60047 0.0
H702 H 0.04811 0.17419 0.68371 0.0
H703 H 0.02319 0.11623 0.65498 0.0
C704 C 0.12477 0.26918 0.71084 0.0
C705 C 0.13714 0.29932 0.6888 0.0
C706 C 0.10853 0.23526 0.69661 0.0
C707 C 0.10426 0.23096 0.6601 0.0
C708 C 0.11519 0.26152 0.63843 0.0
C709 C 0.13151 0.29519 0.65257 0.0
C710 C 0.09076 0.15378 0.59614 0.0
C711 C 0.06089 0.12797 0.61083 0.0
C712 C 0.10506 0.18666 0.6126 0.0
C713 C 0.08979 0.19487 0.64412 0.0
C714 C 0.06056 0.16869 0.65949 0.0
C715 C 0.04624 0.13552 0.643 0.0
H716 H 0.77148 0.29784 0.44245 0.0
H717 H 0.79786 0.38698 0.36995 0.0
H718 H 0.72654 0.32116 0.47121 0.0
H719 H 0.75235 0.4097 0.39779 0.0
H720 H 0.67849 0.45307 0.46397 0.0
H721 H 0.73138 0.43506 0.44862 0.0
H722 H 0.6683 0.32385 0.4537 0.0
H723 H 0.61575 0.34182 0.4706 0.0
C724 C 0.76834 0.32292 0.43327 0.0
C725 C 0.78806 0.3405 0.40384 0.0
C726 C 0.74223 0.33601 0.4494 0.0
C727 C 0.7354 0.367 0.43649 0.0
C728 C 0.75693 0.38588 0.4086 0.0
C729 C 0.78294 0.37278 0.39249 0.0
C730 C 0.67601 0.42474 0.46249 0.0
C731 C 0.64275 0.3989 0.46838 0.0
C732 C 0.70631 0.41443 0.45335 0.0
C733 C 0.70415 0.378 0.44981 0.0
C734 C 0.6711 0.35213 0.4566 0.0
C735 C 0.64079 0.36245 0.46577 0.0
loop_
_geom_bond_atom_site_label_1
_geom_bond_atom_site_label_2
_geom_bond_distance
_geom_bond_site_symmetry_2
_ccdc_geom_bond_type
H0 C5 0.930 . S
H1 C8 0.930 . S
H2 C10 0.930 . S
H3 C4 1.016 . S
C4 H3 1.016 . S
C4 N11 1.286 . S
C5 H0 0.930 . S
C5 C6 1.397 . S
C5 C7 1.361 . S
C6 C5 1.397 . S
C6 C10 1.390 . S
C7 C5 1.361 . S
C7 C8 1.393 . S
C7 N11 1.413 . S
C8 H1 0.930 . S
C8 C7 1.393 . S
C8 C9 1.399 . S
C9 C8 1.399 . S
C9 C10 1.381 . S
C10 H2 0.930 . S
C10 C6 1.390 . S
C10 C9 1.381 . S
N11 C4 1.286 . S
N11 C7 1.413 . S
H12 C17 0.930 . S
H13 C20 0.930 . S
H14 C22 0.930 . S
H15 C16 1.016 . S
C16 H15 1.016 . S
C16 N23 1.286 . S
C17 H12 0.930 . S
C17 C18 1.397 . S
C17 C19 1.361 . S
C18 C17 1.397 . S
C18 C22 1.390 . S
C19 C17 1.361 . S
C19 C20 1.393 . S
C19 N23 1.413 . S
C20 H13 0.930 . S
C20 C19 1.393 . S
C20 C21 1.399 . S
C21 C20 1.399 . S
C21 C22 1.381 . S
C22 H14 0.930 . S
C22 C18 1.390 . S
C22 C21 1.381 . S
N23 C16 1.286 . S
N23 C19 1.413 . S
H24 C29 0.930 . S
H25 C32 0.930 . S
H26 C34 0.930 . S
H27 C28 1.016 . S
C28 H27 1.016 . S
C28 N35 1.286 . S
C29 H24 0.930 . S
C29 C30 1.397 . S
C29 C31 1.361 . S
C30 C29 1.397 . S
C30 C34 1.390 . S
C31 C29 1.361 . S
C31 C32 1.393 . S
C31 N35 1.413 . S
C32 H25 0.930 . S
C32 C31 1.393 . S
C32 C33 1.399 . S
C33 C32 1.399 . S
C33 C34 1.381 . S
C34 H26 0.930 . S
C34 C30 1.390 . S
C34 C33 1.381 . S
N35 C28 1.286 . S
N35 C31 1.413 . S
H36 C41 0.930 . S
H37 C44 0.930 . S
H38 C46 0.930 . S
H39 C40 1.016 . S
C40 H39 1.016 . S
C40 N47 1.286 . S
C41 H36 0.930 . S
C41 C42 1.397 . S
C41 C43 1.361 . S
C42 C41 1.397 . S
C42 C46 1.390 . S
C43 C41 1.361 . S
C43 C44 1.393 . S
C43 N47 1.413 . S
C44 H37 0.930 . S
C44 C43 1.393 . S
C44 C45 1.399 . S
C45 C44 1.399 . S
C45 C46 1.381 . S
C46 H38 0.930 . S
C46 C42 1.390 . S
C46 C45 1.381 . S
N47 C40 1.286 . S
N47 C43 1.413 . S
H48 C53 0.930 . S
H49 C56 0.930 . S
H50 C58 0.930 . S
H51 C52 1.016 . S
C52 H51 1.016 . S
C52 N59 1.286 . S
C53 H48 0.930 . S
C53 C54 1.397 . S
C53 C55 1.361 . S
C54 C53 1.397 . S
C54 C58 1.390 . S
C55 C53 1.361 . S
C55 C56 1.393 . S
C55 N59 1.413 . S
C56 H49 0.930 . S
C56 C55 1.393 . S
C56 C57 1.399 . S
C57 C56 1.399 . S
C57 C58 1.381 . S
C58 H50 0.930 . S
C58 C54 1.390 . S
C58 C57 1.381 . S
N59 C52 1.286 . S
N59 C55 1.413 . S
H60 C65 0.930 . S
H61 C68 0.930 . S
H62 C70 0.930 . S
H63 C64 1.016 . S
C64 H63 1.016 . S
C64 N71 1.286 . S
C65 H60 0.930 . S
C65 C66 1.397 . S
C65 C67 1.361 . S
C66 C65 1.397 . S
C66 C70 1.390 . S
C67 C65 1.361 . S
C67 C68 1.393 . S
C67 N71 1.413 . S
C68 H61 0.930 . S
C68 C67 1.393 . S
C68 C69 1.399 . S
C69 C68 1.399 . S
C69 C70 1.381 . S
C70 H62 0.930 . S
C70 C66 1.390 . S
C70 C69 1.381 . S
N71 C64 1.286 . S
N71 C67 1.413 . S
H72 C77 0.930 . S
H73 C80 0.930 . S
H74 C82 0.930 . S
H75 C76 1.016 . S
C76 H75 1.016 . S
C76 N83 1.286 . S
C77 H72 0.930 . S
C77 C78 1.397 . S
C77 C79 1.361 . S
C78 C77 1.397 . S
C78 C82 1.390 . S
C79 C77 1.361 . S
C79 C80 1.393 . S
C79 N83 1.413 . S
C80 H73 0.930 . S
C80 C79 1.393 . S
C80 C81 1.399 . S
C81 C80 1.399 . S
C81 C82 1.381 . S
C82 H74 0.930 . S
C82 C78 1.390 . S
C82 C81 1.381 . S
N83 C76 1.286 . S
N83 C79 1.413 . S
H84 C89 0.930 . S
H85 C92 0.930 . S
H86 C94 0.930 . S
H87 C88 1.016 . S
C88 H87 1.016 . S
C88 N95 1.286 . S
C89 H84 0.930 . S
C89 C90 1.397 . S
C89 C91 1.361 . S
C90 C89 1.397 . S
C90 C94 1.390 . S
C91 C89 1.361 . S
C91 C92 1.393 . S
C91 N95 1.413 . S
C92 H85 0.930 . S
C92 C91 1.393 . S
C92 C93 1.399 . S
C93 C92 1.399 . S
C93 C94 1.381 . S
C94 H86 0.930 . S
C94 C90 1.390 . S
C94 C93 1.381 . S
N95 C88 1.286 . S
N95 C91 1.413 . S
Tb96 C105 2.764 . S
Tb96 O106 2.311 1_455 S
Tb96 O109 2.303 . S
Tb96 O113 2.322 1_545 S
Tb96 O114 2.349 1_545 S
Tb96 O117 2.415 . S
Tb96 O118 2.399 . S
Tb97 O107 2.312 1_565 S
Tb97 O108 2.339 1_565 S
Tb97 O110 2.427 . S
Tb97 O111 2.401 . S
Tb97 O112 2.335 1_655 S
Tb97 O115 2.312 . S
Tb97 C126 2.772 . S
C98 O114 1.261 1_655 S
C98 O115 1.257 . S
C99 C102 1.358 . S
C99 C103 1.332 . S
C99 C105 1.504 . S
C100 C101 1.373 . S
C100 C104 1.308 . S
C101 C100 1.373 . S
C101 C102 1.429 . S
C101 H128 0.932 . S
C102 C99 1.358 . S
C102 C101 1.429 . S
C102 H129 0.930 . S
C103 C99 1.332 . S
C103 C104 1.394 . S
C103 H130 0.932 . S
C104 C100 1.308 . S
C104 C103 1.394 . S
C104 H131 0.929 . S
C105 Tb96 2.764 . S
C105 C99 1.504 . S
C105 O117 1.239 . S
C105 O118 1.263 . S
O106 Tb96 2.311 1_655 S
O106 C116 1.250 . S
O107 Tb97 2.312 1_545 S
O107 C116 1.257 . S
O108 Tb97 2.339 1_545 S
O108 C119 1.261 1_655 S
O109 Tb96 2.303 . S
O109 C119 1.257 . S
O110 Tb97 2.427 . S
O110 C126 1.239 . S
O111 Tb97 2.401 . S
O111 C126 1.263 . S
O112 Tb97 2.335 1_455 S
O112 C127 1.236 . S
O113 Tb96 2.322 1_565 S
O113 C127 1.257 . S
O114 Tb96 2.349 1_565 S
O114 C98 1.261 1_455 S
O115 Tb97 2.312 . S
O115 C98 1.257 . S
C116 O106 1.250 . S
C116 O107 1.257 . S
O117 Tb96 2.415 . S
O117 C105 1.239 . S
O118 Tb96 2.399 . S
O118 C105 1.263 . S
C119 O108 1.261 1_455 S
C119 O109 1.257 . S
C120 C123 1.358 . S
C120 C124 1.332 . S
C120 C126 1.504 . S
C121 C122 1.373 . S
C121 C125 1.308 . S
C122 C121 1.373 . S
C122 C123 1.429 . S
C122 H132 0.932 . S
C123 C120 1.358 . S
C123 C122 1.429 . S
C123 H133 0.930 . S
C124 C120 1.332 . S
C124 C125 1.394 . S
C124 H134 0.932 . S
C125 C121 1.308 . S
C125 C124 1.394 . S
C125 H135 0.929 . S
C126 Tb97 2.772 . S
C126 O110 1.239 . S
C126 O111 1.263 . S
C126 C120 1.504 . S
C127 O112 1.236 . S
C127 O113 1.257 . S
H128 C101 0.932 . S
H129 C102 0.930 . S
H130 C103 0.932 . S
H131 C104 0.929 . S
H132 C122 0.932 . S
H133 C123 0.930 . S
H134 C124 0.932 . S
H135 C125 0.929 . S
Tb136 C145 2.764 . S
Tb136 O146 2.325 . S
Tb136 O149 2.303 . S
Tb136 O153 2.322 1_545 S
Tb136 O154 2.349 1_545 S
Tb136 O157 2.415 . S
Tb136 O158 2.399 . S
Tb137 O147 2.322 . S
Tb137 O148 2.349 1_556 S
Tb137 O150 2.415 1_545 S
Tb137 O151 2.399 1_545 S
Tb137 O152 2.325 1_546 S
Tb137 O155 2.303 1_545 S
Tb137 C166 2.764 1_545 S
C138 O154 1.261 1_556 S
C138 O155 1.257 . S
C139 C142 1.358 . S
C139 C143 1.332 . S
C139 C145 1.504 . S
C140 C141 1.373 . S
C140 C144 1.308 . S
C141 C140 1.373 . S
C141 C142 1.429 . S
C141 H168 0.932 . S
C142 C139 1.358 . S
C142 C141 1.429 . S
C142 H169 0.930 . S
C143 C139 1.332 . S
C143 C144 1.394 . S
C143 H170 0.932 . S
C144 C140 1.308 . S
C144 C143 1.394 . S
C144 H171 0.929 . S
C145 Tb136 2.764 . S
C145 C139 1.504 . S
C145 O157 1.239 . S
C145 O158 1.263 . S
O146 Tb136 2.325 . S
O146 C156 1.236 1_554 S
O147 Tb137 2.322 . S
O147 C156 1.257 . S
O148 Tb137 2.349 1_554 S
O148 C159 1.261 . S
O149 Tb136 2.303 . S
O149 C159 1.257 . S
O150 Tb137 2.415 1_565 S
O150 C166 1.239 . S
O151 Tb137 2.399 1_565 S
O151 C166 1.263 . S
O152 Tb137 2.325 1_564 S
O152 C167 1.236 . S
O153 Tb136 2.322 1_565 S
O153 C167 1.257 . S
O154 Tb136 2.349 1_565 S
O154 C138 1.261 1_554 S
O155 Tb137 2.303 1_565 S
O155 C138 1.257 . S
C156 O146 1.236 1_556 S
C156 O147 1.257 . S
O157 Tb136 2.415 . S
O157 C145 1.239 . S
O158 Tb136 2.399 . S
O158 C145 1.263 . S
C159 O148 1.261 . S
C159 O149 1.257 . S
C160 C163 1.358 . S
C160 C164 1.332 . S
C160 C166 1.504 . S
C161 C162 1.373 . S
C161 C165 1.308 . S
C162 C161 1.373 . S
C162 C163 1.429 . S
C162 H172 0.932 . S
C163 C160 1.358 . S
C163 C162 1.429 . S
C163 H173 0.930 . S
C164 C160 1.332 . S
C164 C165 1.394 . S
C164 H174 0.932 . S
C165 C161 1.308 . S
C165 C164 1.394 . S
C165 H175 0.929 . S
C166 Tb137 2.764 1_565 S
C166 O150 1.239 . S
C166 O151 1.263 . S
C166 C160 1.504 . S
C167 O152 1.236 . S
C167 O153 1.257 . S
H168 C141 0.932 . S
H169 C142 0.930 . S
H170 C143 0.932 . S
H171 C144 0.929 . S
H172 C162 0.932 . S
H173 C163 0.930 . S
H174 C164 0.932 . S
H175 C165 0.929 . S
Tb176 C185 2.764 . S
Tb176 O186 2.325 . S
Tb176 O189 2.303 . S
Tb176 O193 2.322 . S
Tb176 O194 2.349 . S
Tb176 O197 2.415 . S
Tb176 O198 2.399 . S
Tb177 O187 2.322 . S
Tb177 O188 2.349 . S
Tb177 O190 2.415 . S
Tb177 O191 2.399 . S
Tb177 O192 2.325 . S
Tb177 O195 2.303 . S
Tb177 C206 2.764 . S
C178 O194 1.261 . S
C178 O195 1.257 . S
C179 C182 1.358 . S
C179 C183 1.332 . S
C179 C185 1.504 . S
C180 C181 1.373 . S
C180 C184 1.308 . S
C181 C180 1.373 . S
C181 C182 1.429 . S
C181 H208 0.932 . S
C182 C179 1.358 . S
C182 C181 1.429 . S
C182 H209 0.930 . S
C183 C179 1.332 . S
C183 C184 1.394 . S
C183 H210 0.932 . S
C184 C180 1.308 . S
C184 C183 1.394 . S
C184 H211 0.929 . S
C185 Tb176 2.764 . S
C185 C179 1.504 . S
C185 O197 1.239 . S
C185 O198 1.263 . S
O186 Tb176 2.325 . S
O186 C196 1.236 . S
O187 Tb177 2.322 . S
O187 C196 1.257 . S
O188 Tb177 2.349 . S
O188 C199 1.261 . S
O189 Tb176 2.303 . S
O189 C199 1.257 . S
O190 Tb177 2.415 . S
O190 C206 1.239 . S
O191 Tb177 2.399 . S
O191 C206 1.263 . S
O192 Tb177 2.325 . S
O192 C207 1.236 . S
O193 Tb176 2.322 . S
O193 C207 1.257 . S
O194 Tb176 2.349 . S
O194 C178 1.261 . S
O195 Tb177 2.303 . S
O195 C178 1.257 . S
C196 O186 1.236 . S
C196 O187 1.257 . S
O197 Tb176 2.415 . S
O197 C185 1.239 . S
O198 Tb176 2.399 . S
O198 C185 1.263 . S
C199 O188 1.261 . S
C199 O189 1.257 . S
C200 C203 1.358 . S
C200 C204 1.332 . S
C200 C206 1.504 . S
C201 C202 1.373 . S
C201 C205 1.308 . S
C202 C201 1.373 . S
C202 C203 1.429 . S
C202 H212 0.932 . S
C203 C200 1.358 . S
C203 C202 1.429 . S
C203 H213 0.930 . S
C204 C200 1.332 . S
C204 C205 1.394 . S
C204 H214 0.932 . S
C205 C201 1.308 . S
C205 C204 1.394 . S
C205 H215 0.929 . S
C206 Tb177 2.764 . S
C206 O190 1.239 . S
C206 O191 1.263 . S
C206 C200 1.504 . S
C207 O192 1.236 . S
C207 O193 1.257 . S
H208 C181 0.932 . S
H209 C182 0.930 . S
H210 C183 0.932 . S
H211 C184 0.929 . S
H212 C202 0.932 . S
H213 C203 0.930 . S
H214 C204 0.932 . S
H215 C205 0.929 . S
Tb216 C225 2.764 1_455 S
Tb216 O226 2.325 1_455 S
Tb216 O229 2.303 1_456 S
Tb216 O233 2.322 1_556 S
Tb216 O234 2.349 . S
Tb216 O237 2.415 1_455 S
Tb216 O238 2.399 1_455 S
Tb217 O227 2.322 1_455 S
Tb217 O228 2.349 1_455 S
Tb217 O230 2.415 . S
Tb217 O231 2.399 . S
Tb217 O232 2.325 . S
Tb217 O235 2.303 1_554 S
Tb217 C246 2.764 . S
C218 O234 1.261 . S
C218 O235 1.257 . S
C219 C222 1.358 . S
C219 C223 1.332 . S
C219 C225 1.504 . S
C220 C221 1.373 . S
C220 C224 1.308 . S
C221 C220 1.373 . S
C221 C222 1.429 . S
C221 H248 0.932 . S
C222 C219 1.358 . S
C222 C221 1.429 . S
C222 H249 0.930 . S
C223 C219 1.332 . S
C223 C224 1.394 . S
C223 H250 0.932 . S
C224 C220 1.308 . S
C224 C223 1.394 . S
C224 H251 0.929 . S
C225 Tb216 2.764 1_655 S
C225 C219 1.504 . S
C225 O237 1.239 . S
C225 O238 1.263 . S
O226 Tb216 2.325 1_655 S
O226 C236 1.236 . S
O227 Tb217 2.322 1_655 S
O227 C236 1.257 1_554 S
O228 Tb217 2.349 1_655 S
O228 C239 1.261 . S
O229 Tb216 2.303 1_654 S
O229 C239 1.257 . S
O230 Tb217 2.415 . S
O230 C246 1.239 . S
O231 Tb217 2.399 . S
O231 C246 1.263 . S
O232 Tb217 2.325 . S
O232 C247 1.236 . S
O233 Tb216 2.322 1_554 S
O233 C247 1.257 . S
O234 Tb216 2.349 . S
O234 C218 1.261 . S
O235 Tb217 2.303 1_556 S
O235 C218 1.257 . S
C236 O226 1.236 . S
C236 O227 1.257 1_556 S
O237 Tb216 2.415 1_655 S
O237 C225 1.239 . S
O238 Tb216 2.399 1_655 S
O238 C225 1.263 . S
C239 O228 1.261 . S
C239 O229 1.257 . S
C240 C243 1.358 . S
C240 C244 1.332 . S
C240 C246 1.504 . S
C241 C242 1.373 . S
C241 C245 1.308 . S
C242 C241 1.373 . S
C242 C243 1.429 . S
C242 H252 0.932 . S
C243 C240 1.358 . S
C243 C242 1.429 . S
C243 H253 0.930 . S
C244 C240 1.332 . S
C244 C245 1.394 . S
C244 H254 0.932 . S
C245 C241 1.308 . S
C245 C244 1.394 . S
C245 H255 0.929 . S
C246 Tb217 2.764 . S
C246 O230 1.239 . S
C246 O231 1.263 . S
C246 C240 1.504 . S
C247 O232 1.236 . S
C247 O233 1.257 . S
H248 C221 0.932 . S
H249 C222 0.930 . S
H250 C223 0.932 . S
H251 C224 0.929 . S
H252 C242 0.932 . S
H253 C243 0.930 . S
H254 C244 0.932 . S
H255 C245 0.929 . S
H256 C264 0.950 . S
H257 C269 0.950 . S
H258 C266 0.950 . S
H259 C268 0.950 . S
H260 C270 0.950 . S
H261 C272 0.950 . S
H262 C274 0.950 . S
H263 C275 0.950 . S
C264 H256 0.950 . S
C264 C265 1.386 . S
C264 C266 1.391 . S
C265 C264 1.386 . S
C265 C269 1.393 . S
C266 H258 0.950 . S
C266 C264 1.391 . S
C266 C267 1.400 . S
C267 C266 1.400 . S
C267 C268 1.398 . S
C267 C273 1.491 . S
C268 H259 0.950 . S
C268 C267 1.398 . S
C268 C269 1.391 . S
C269 H257 0.950 . S
C269 C265 1.393 . S
C269 C268 1.391 . S
C270 H260 0.950 . S
C270 C271 1.386 . S
C270 C272 1.391 . S
C271 C270 1.386 . S
C271 C275 1.393 . S
C272 H261 0.950 . S
C272 C270 1.391 . S
C272 C273 1.400 . S
C273 C267 1.491 . S
C273 C272 1.400 . S
C273 C274 1.398 . S
C274 H262 0.950 . S
C274 C273 1.398 . S
C274 C275 1.391 . S
C275 H263 0.950 . S
C275 C271 1.393 . S
C275 C274 1.391 . S
H276 C284 0.950 . S
H277 C289 0.950 . S
H278 C286 0.950 . S
H279 C288 0.950 . S
H280 C290 0.950 . S
H281 C292 0.950 . S
H282 C294 0.950 . S
H283 C295 0.950 . S
C284 H276 0.950 . S
C284 C285 1.386 . S
C284 C286 1.391 . S
C285 C284 1.386 . S
C285 C289 1.393 . S
C286 H278 0.950 . S
C286 C284 1.391 . S
C286 C287 1.400 . S
C287 C286 1.400 . S
C287 C288 1.398 . S
C287 C293 1.491 . S
C288 H279 0.950 . S
C288 C287 1.398 . S
C288 C289 1.391 . S
C289 H277 0.950 . S
C289 C285 1.393 . S
C289 C288 1.391 . S
C290 H280 0.950 . S
C290 C291 1.386 . S
C290 C292 1.391 . S
C291 C290 1.386 . S
C291 C295 1.393 . S
C292 H281 0.950 . S
C292 C290 1.391 . S
C292 C293 1.400 . S
C293 C287 1.491 . S
C293 C292 1.400 . S
C293 C294 1.398 . S
C294 H282 0.950 . S
C294 C293 1.398 . S
C294 C295 1.391 . S
C295 H283 0.950 . S
C295 C291 1.393 . S
C295 C294 1.391 . S
H296 C304 0.950 . S
H297 C309 0.950 . S
H298 C306 0.950 . S
H299 C308 0.950 . S
H300 C310 0.950 . S
H301 C312 0.950 . S
H302 C314 0.950 . S
H303 C315 0.950 . S
C304 H296 0.950 . S
C304 C305 1.386 . S
C304 C306 1.391 . S
C305 C304 1.386 . S
C305 C309 1.393 . S
C306 H298 0.950 . S
C306 C304 1.391 . S
C306 C307 1.400 . S
C307 C306 1.400 . S
C307 C308 1.398 . S
C307 C313 1.491 . S
C308 H299 0.950 . S
C308 C307 1.398 . S
C308 C309 1.391 . S
C309 H297 0.950 . S
C309 C305 1.393 . S
C309 C308 1.391 . S
C310 H300 0.950 . S
C310 C311 1.386 . S
C310 C312 1.391 . S
C311 C310 1.386 . S
C311 C315 1.393 . S
C312 H301 0.950 . S
C312 C310 1.391 . S
C312 C313 1.400 . S
C313 C307 1.491 . S
C313 C312 1.400 . S
C313 C314 1.398 . S
C314 H302 0.950 . S
C314 C313 1.398 . S
C314 C315 1.391 . S
C315 H303 0.950 . S
C315 C311 1.393 . S
C315 C314 1.391 . S
H316 C324 0.950 . S
H317 C329 0.950 . S
H318 C326 0.950 . S
H319 C328 0.950 . S
H320 C330 0.950 . S
H321 C332 0.950 . S
H322 C334 0.950 . S
H323 C335 0.950 . S
C324 H316 0.950 . S
C324 C325 1.386 . S
C324 C326 1.391 . S
C325 C324 1.386 . S
C325 C329 1.393 . S
C326 H318 0.950 . S
C326 C324 1.391 . S
C326 C327 1.400 . S
C327 C326 1.400 . S
C327 C328 1.398 . S
C327 C333 1.491 . S
C328 H319 0.950 . S
C328 C327 1.398 . S
C328 C329 1.391 . S
C329 H317 0.950 . S
C329 C325 1.393 . S
C329 C328 1.391 . S
C330 H320 0.950 . S
C330 C331 1.386 . S
C330 C332 1.391 . S
C331 C330 1.386 . S
C331 C335 1.393 . S
C332 H321 0.950 . S
C332 C330 1.391 . S
C332 C333 1.400 . S
C333 C327 1.491 . S
C333 C332 1.400 . S
C333 C334 1.398 . S
C334 H322 0.950 . S
C334 C333 1.398 . S
C334 C335 1.391 . S
C335 H323 0.950 . S
C335 C331 1.393 . S
C335 C334 1.391 . S
H336 C344 0.950 . S
H337 C349 0.950 . S
H338 C346 0.950 . S
H339 C348 0.950 . S
H340 C350 0.950 . S
H341 C352 0.950 . S
H342 C354 0.950 . S
H343 C355 0.950 . S
C344 H336 0.950 . S
C344 C345 1.386 . S
C344 C346 1.391 . S
C345 C344 1.386 . S
C345 C349 1.393 . S
C346 H338 0.950 . S
C346 C344 1.391 . S
C346 C347 1.400 . S
C347 C346 1.400 . S
C347 C348 1.398 . S
C347 C353 1.491 . S
C348 H339 0.950 . S
C348 C347 1.398 . S
C348 C349 1.391 . S
C349 H337 0.950 . S
C349 C345 1.393 . S
C349 C348 1.391 . S
C350 H340 0.950 . S
C350 C351 1.386 . S
C350 C352 1.391 . S
C351 C350 1.386 . S
C351 C355 1.393 . S
C352 H341 0.950 . S
C352 C350 1.391 . S
C352 C353 1.400 . S
C353 C347 1.491 . S
C353 C352 1.400 . S
C353 C354 1.398 . S
C354 H342 0.950 . S
C354 C353 1.398 . S
C354 C355 1.391 . S
C355 H343 0.950 . S
C355 C351 1.393 . S
C355 C354 1.391 . S
H356 C364 0.950 . S
H357 C369 0.950 . S
H358 C366 0.950 . S
H359 C368 0.950 . S
H360 C370 0.950 . S
H361 C372 0.950 . S
H362 C374 0.950 . S
H363 C375 0.950 1_655 S
C364 H356 0.950 . S
C364 C365 1.386 . S
C364 C366 1.391 . S
C365 C364 1.386 . S
C365 C369 1.393 . S
C366 H358 0.950 . S
C366 C364 1.391 . S
C366 C367 1.400 . S
C367 C366 1.400 . S
C367 C368 1.398 . S
C367 C373 1.491 . S
C368 H359 0.950 . S
C368 C367 1.398 . S
C368 C369 1.391 . S
C369 H357 0.950 . S
C369 C365 1.393 . S
C369 C368 1.391 . S
C370 H360 0.950 . S
C370 C371 1.386 . S
C370 C372 1.391 . S
C371 C370 1.386 . S
C371 C375 1.393 . S
C372 H361 0.950 . S
C372 C370 1.391 . S
C372 C373 1.400 . S
C373 C367 1.491 . S
C373 C372 1.400 . S
C373 C374 1.398 . S
C374 H362 0.950 . S
C374 C373 1.398 . S
C374 C375 1.391 . S
C375 H363 0.950 1_455 S
C375 C371 1.393 . S
C375 C374 1.391 . S
H376 C384 0.950 . S
H377 C389 0.950 . S
H378 C386 0.950 . S
H379 C388 0.950 . S
H380 C390 0.950 . S
H381 C392 0.950 . S
H382 C394 0.950 . S
H383 C395 0.950 . S
C384 H376 0.950 . S
C384 C385 1.386 . S
C384 C386 1.391 . S
C385 C384 1.386 . S
C385 C389 1.393 . S
C386 H378 0.950 . S
C386 C384 1.391 . S
C386 C387 1.400 . S
C387 C386 1.400 . S
C387 C388 1.398 . S
C387 C393 1.491 . S
C388 H379 0.950 . S
C388 C387 1.398 . S
C388 C389 1.391 . S
C389 H377 0.950 . S
C389 C385 1.393 . S
C389 C388 1.391 . S
C390 H380 0.950 . S
C390 C391 1.386 . S
C390 C392 1.391 . S
C391 C390 1.386 . S
C391 C395 1.393 . S
C392 H381 0.950 . S
C392 C390 1.391 . S
C392 C393 1.400 . S
C393 C387 1.491 . S
C393 C392 1.400 . S
C393 C394 1.398 . S
C394 H382 0.950 . S
C394 C393 1.398 . S
C394 C395 1.391 . S
C395 H383 0.950 . S
C395 C391 1.393 . S
C395 C394 1.391 . S
H396 C404 0.950 . S
H397 C409 0.950 . S
H398 C406 0.950 . S
H399 C408 0.950 . S
H400 C410 0.950 . S
H401 C412 0.950 . S
H402 C414 0.950 . S
H403 C415 0.950 . S
C404 H396 0.950 . S
C404 C405 1.386 . S
C404 C406 1.391 . S
C405 C404 1.386 . S
C405 C409 1.393 . S
C406 H398 0.950 . S
C406 C404 1.391 . S
C406 C407 1.400 . S
C407 C406 1.400 . S
C407 C408 1.398 . S
C407 C413 1.491 . S
C408 H399 0.950 . S
C408 C407 1.398 . S
C408 C409 1.391 . S
C409 H397 0.950 . S
C409 C405 1.393 . S
C409 C408 1.391 . S
C410 H400 0.950 . S
C410 C411 1.386 . S
C410 C412 1.391 . S
C411 C410 1.386 . S
C411 C415 1.393 . S
C412 H401 0.950 . S
C412 C410 1.391 . S
C412 C413 1.400 . S
C413 C407 1.491 . S
C413 C412 1.400 . S
C413 C414 1.398 . S
C414 H402 0.950 . S
C414 C413 1.398 . S
C414 C415 1.391 . S
C415 H403 0.950 . S
C415 C411 1.393 . S
C415 C414 1.391 . S
H416 C424 0.950 . S
H417 C429 0.950 . S
H418 C426 0.950 . S
H419 C428 0.950 . S
H420 C430 0.950 . S
H421 C432 0.950 . S
H422 C434 0.950 . S
H423 C435 0.950 . S
C424 H416 0.950 . S
C424 C425 1.386 . S
C424 C426 1.391 . S
C425 C424 1.386 . S
C425 C429 1.393 . S
C426 H418 0.950 . S
C426 C424 1.391 . S
C426 C427 1.400 . S
C427 C426 1.400 . S
C427 C428 1.398 . S
C427 C433 1.491 . S
C428 H419 0.950 . S
C428 C427 1.398 . S
C428 C429 1.391 . S
C429 H417 0.950 . S
C429 C425 1.393 . S
C429 C428 1.391 . S
C430 H420 0.950 . S
C430 C431 1.386 . S
C430 C432 1.391 . S
C431 C430 1.386 . S
C431 C435 1.393 . S
C432 H421 0.950 . S
C432 C430 1.391 . S
C432 C433 1.400 . S
C433 C427 1.491 . S
C433 C432 1.400 . S
C433 C434 1.398 . S
C434 H422 0.950 . S
C434 C433 1.398 . S
C434 C435 1.391 . S
C435 H423 0.950 . S
C435 C431 1.393 . S
C435 C434 1.391 . S
H436 C444 0.950 . S
H437 C449 0.950 . S
H438 C446 0.950 . S
H439 C448 0.950 . S
H440 C450 0.950 . S
H441 C452 0.950 . S
H442 C454 0.950 . S
H443 C455 0.950 . S
C444 H436 0.950 . S
C444 C445 1.386 . S
C444 C446 1.391 . S
C445 C444 1.386 . S
C445 C449 1.393 . S
C446 H438 0.950 . S
C446 C444 1.391 . S
C446 C447 1.400 . S
C447 C446 1.400 . S
C447 C448 1.398 . S
C447 C453 1.491 . S
C448 H439 0.950 . S
C448 C447 1.398 . S
C448 C449 1.391 . S
C449 H437 0.950 . S
C449 C445 1.393 . S
C449 C448 1.391 . S
C450 H440 0.950 . S
C450 C451 1.386 . S
C450 C452 1.391 . S
C451 C450 1.386 . S
C451 C455 1.393 . S
C452 H441 0.950 . S
C452 C450 1.391 . S
C452 C453 1.400 . S
C453 C447 1.491 . S
C453 C452 1.400 . S
C453 C454 1.398 . S
C454 H442 0.950 . S
C454 C453 1.398 . S
C454 C455 1.391 . S
C455 H443 0.950 . S
C455 C451 1.393 . S
C455 C454 1.391 . S
H456 C464 0.950 . S
H457 C469 0.950 . S
H458 C466 0.950 . S
H459 C468 0.950 . S
H460 C470 0.950 . S
H461 C472 0.950 . S
H462 C474 0.950 . S
H463 C475 0.950 . S
C464 H456 0.950 . S
C464 C465 1.386 . S
C464 C466 1.391 . S
C465 C464 1.386 . S
C465 C469 1.393 . S
C466 H458 0.950 . S
C466 C464 1.391 . S
C466 C467 1.400 . S
C467 C466 1.400 . S
C467 C468 1.398 . S
C467 C473 1.491 . S
C468 H459 0.950 . S
C468 C467 1.398 . S
C468 C469 1.391 . S
C469 H457 0.950 . S
C469 C465 1.393 . S
C469 C468 1.391 . S
C470 H460 0.950 . S
C470 C471 1.386 . S
C470 C472 1.391 . S
C471 C470 1.386 . S
C471 C475 1.393 . S
C472 H461 0.950 . S
C472 C470 1.391 . S
C472 C473 1.400 . S
C473 C467 1.491 . S
C473 C472 1.400 . S
C473 C474 1.398 . S
C474 H462 0.950 . S
C474 C473 1.398 . S
C474 C475 1.391 . S
C475 H463 0.950 . S
C475 C471 1.393 . S
C475 C474 1.391 . S
H476 C484 0.950 . S
H477 C489 0.950 . S
H478 C486 0.950 . S
H479 C488 0.950 . S
H480 C490 0.950 . S
H481 C492 0.950 . S
H482 C494 0.950 . S
H483 C495 0.950 . S
C484 H476 0.950 . S
C484 C485 1.386 . S
C484 C486 1.391 . S
C485 C484 1.386 . S
C485 C489 1.393 . S
C486 H478 0.950 . S
C486 C484 1.391 . S
C486 C487 1.400 . S
C487 C486 1.400 . S
C487 C488 1.398 . S
C487 C493 1.491 . S
C488 H479 0.950 . S
C488 C487 1.398 . S
C488 C489 1.391 . S
C489 H477 0.950 . S
C489 C485 1.393 . S
C489 C488 1.391 . S
C490 H480 0.950 . S
C490 C491 1.386 . S
C490 C492 1.391 . S
C491 C490 1.386 . S
C491 C495 1.393 . S
C492 H481 0.950 . S
C492 C490 1.391 . S
C492 C493 1.400 . S
C493 C487 1.491 . S
C493 C492 1.400 . S
C493 C494 1.398 . S
C494 H482 0.950 . S
C494 C493 1.398 . S
C494 C495 1.391 . S
C495 H483 0.950 . S
C495 C491 1.393 . S
C495 C494 1.391 . S
H496 C504 0.950 . S
H497 C509 0.950 . S
H498 C506 0.950 . S
H499 C508 0.950 . S
H500 C510 0.950 . S
H501 C512 0.950 . S
H502 C514 0.950 . S
H503 C515 0.950 . S
C504 H496 0.950 . S
C504 C505 1.386 . S
C504 C506 1.391 . S
C505 C504 1.386 . S
C505 C509 1.393 . S
C506 H498 0.950 . S
C506 C504 1.391 . S
C506 C507 1.400 . S
C507 C506 1.400 . S
C507 C508 1.398 . S
C507 C513 1.491 . S
C508 H499 0.950 . S
C508 C507 1.398 . S
C508 C509 1.391 . S
C509 H497 0.950 . S
C509 C505 1.393 . S
C509 C508 1.391 . S
C510 H500 0.950 . S
C510 C511 1.386 . S
C510 C512 1.391 . S
C511 C510 1.386 . S
C511 C515 1.393 . S
C512 H501 0.950 . S
C512 C510 1.391 . S
C512 C513 1.400 . S
C513 C507 1.491 . S
C513 C512 1.400 . S
C513 C514 1.398 . S
C514 H502 0.950 . S
C514 C513 1.398 . S
C514 C515 1.391 . S
C515 H503 0.950 . S
C515 C511 1.393 . S
C515 C514 1.391 . S
H516 C524 0.950 . S
H517 C529 0.950 . S
H518 C526 0.950 . S
H519 C528 0.950 . S
H520 C530 0.950 . S
H521 C532 0.950 . S
H522 C534 0.950 . S
H523 C535 0.950 . S
C524 H516 0.950 . S
C524 C525 1.386 . S
C524 C526 1.391 . S
C525 C524 1.386 . S
C525 C529 1.393 . S
C526 H518 0.950 . S
C526 C524 1.391 . S
C526 C527 1.400 . S
C527 C526 1.400 . S
C527 C528 1.398 . S
C527 C533 1.491 . S
C528 H519 0.950 . S
C528 C527 1.398 . S
C528 C529 1.391 . S
C529 H517 0.950 . S
C529 C525 1.393 . S
C529 C528 1.391 . S
C530 H520 0.950 . S
C530 C531 1.386 . S
C530 C532 1.391 . S
C531 C530 1.386 . S
C531 C535 1.393 . S
C532 H521 0.950 . S
C532 C530 1.391 . S
C532 C533 1.400 . S
C533 C527 1.491 . S
C533 C532 1.400 . S
C533 C534 1.398 . S
C534 H522 0.950 . S
C534 C533 1.398 . S
C534 C535 1.391 . S
C535 H523 0.950 . S
C535 C531 1.393 . S
C535 C534 1.391 . S
H536 C544 0.950 . S
H537 C549 0.950 . S
H538 C546 0.950 . S
H539 C548 0.950 . S
H540 C550 0.950 . S
H541 C552 0.950 . S
H542 C554 0.950 . S
H543 C555 0.950 . S
C544 H536 0.950 . S
C544 C545 1.386 . S
C544 C546 1.391 . S
C545 C544 1.386 . S
C545 C549 1.393 . S
C546 H538 0.950 . S
C546 C544 1.391 . S
C546 C547 1.400 . S
C547 C546 1.400 . S
C547 C548 1.398 . S
C547 C553 1.491 . S
C548 H539 0.950 . S
C548 C547 1.398 . S
C548 C549 1.391 . S
C549 H537 0.950 . S
C549 C545 1.393 . S
C549 C548 1.391 . S
C550 H540 0.950 . S
C550 C551 1.386 . S
C550 C552 1.391 . S
C551 C550 1.386 . S
C551 C555 1.393 . S
C552 H541 0.950 . S
C552 C550 1.391 . S
C552 C553 1.400 . S
C553 C547 1.491 . S
C553 C552 1.400 . S
C553 C554 1.398 . S
C554 H542 0.950 . S
C554 C553 1.398 . S
C554 C555 1.391 . S
C555 H543 0.950 . S
C555 C551 1.393 . S
C555 C554 1.391 . S
H556 C564 0.950 . S
H557 C569 0.950 . S
H558 C566 0.950 . S
H559 C568 0.950 . S
H560 C570 0.950 . S
H561 C572 0.950 . S
H562 C574 0.950 . S
H563 C575 0.950 . S
C564 H556 0.950 . S
C564 C565 1.386 . S
C564 C566 1.391 . S
C565 C564 1.386 . S
C565 C569 1.393 . S
C566 H558 0.950 . S
C566 C564 1.391 . S
C566 C567 1.400 . S
C567 C566 1.400 . S
C567 C568 1.398 . S
C567 C573 1.491 . S
C568 H559 0.950 . S
C568 C567 1.398 . S
C568 C569 1.391 . S
C569 H557 0.950 . S
C569 C565 1.393 . S
C569 C568 1.391 . S
C570 H560 0.950 . S
C570 C571 1.386 . S
C570 C572 1.391 . S
C571 C570 1.386 . S
C571 C575 1.393 . S
C572 H561 0.950 . S
C572 C570 1.391 . S
C572 C573 1.400 . S
C573 C567 1.491 . S
C573 C572 1.400 . S
C573 C574 1.398 . S
C574 H562 0.950 . S
C574 C573 1.398 . S
C574 C575 1.391 . S
C575 H563 0.950 . S
C575 C571 1.393 . S
C575 C574 1.391 . S
H576 C584 0.950 . S
H577 C589 0.950 . S
H578 C586 0.950 . S
H579 C588 0.950 . S
H580 C590 0.950 . S
H581 C592 0.950 . S
H582 C594 0.950 . S
H583 C595 0.950 . S
C584 H576 0.950 . S
C584 C585 1.386 . S
C584 C586 1.391 . S
C585 C584 1.386 . S
C585 C589 1.393 . S
C586 H578 0.950 . S
C586 C584 1.391 . S
C586 C587 1.400 . S
C587 C586 1.400 . S
C587 C588 1.398 . S
C587 C593 1.491 . S
C588 H579 0.950 . S
C588 C587 1.398 . S
C588 C589 1.391 . S
C589 H577 0.950 . S
C589 C585 1.393 . S
C589 C588 1.391 . S
C590 H580 0.950 . S
C590 C591 1.386 . S
C590 C592 1.391 . S
C591 C590 1.386 . S
C591 C595 1.393 . S
C592 H581 0.950 . S
C592 C590 1.391 . S
C592 C593 1.400 . S
C593 C587 1.491 . S
C593 C592 1.400 . S
C593 C594 1.398 . S
C594 H582 0.950 . S
C594 C593 1.398 . S
C594 C595 1.391 . S
C595 H583 0.950 . S
C595 C591 1.393 . S
C595 C594 1.391 . S
H596 C604 0.950 . S
H597 C609 0.950 . S
H598 C606 0.950 . S
H599 C608 0.950 . S
H600 C610 0.950 1_455 S
H601 C612 0.950 1_455 S
H602 C614 0.950 . S
H603 C615 0.950 . S
C604 H596 0.950 . S
C604 C605 1.386 . S
C604 C606 1.391 . S
C605 C604 1.386 . S
C605 C609 1.393 . S
C606 H598 0.950 . S
C606 C604 1.391 . S
C606 C607 1.400 . S
C607 C606 1.400 . S
C607 C608 1.398 . S
C607 C613 1.491 . S
C608 H599 0.950 . S
C608 C607 1.398 . S
C608 C609 1.391 . S
C609 H597 0.950 . S
C609 C605 1.393 . S
C609 C608 1.391 . S
C610 H600 0.950 1_655 S
C610 C611 1.386 . S
C610 C612 1.391 . S
C611 C610 1.386 . S
C611 C615 1.393 . S
C612 H601 0.950 1_655 S
C612 C610 1.391 . S
C612 C613 1.400 . S
C613 C607 1.491 . S
C613 C612 1.400 . S
C613 C614 1.398 . S
C614 H602 0.950 . S
C614 C613 1.398 . S
C614 C615 1.391 . S
C615 H603 0.950 . S
C615 C611 1.393 . S
C615 C614 1.391 . S
H616 C624 0.950 . S
H617 C629 0.950 . S
H618 C626 0.950 . S
H619 C628 0.950 . S
H620 C630 0.950 1_556 S
H621 C632 0.950 . S
H622 C634 0.950 . S
H623 C635 0.950 . S
C624 H616 0.950 . S
C624 C625 1.386 . S
C624 C626 1.391 . S
C625 C624 1.386 . S
C625 C629 1.393 . S
C626 H618 0.950 . S
C626 C624 1.391 . S
C626 C627 1.400 . S
C627 C626 1.400 . S
C627 C628 1.398 . S
C627 C633 1.491 . S
C628 H619 0.950 . S
C628 C627 1.398 . S
C628 C629 1.391 . S
C629 H617 0.950 . S
C629 C625 1.393 . S
C629 C628 1.391 . S
C630 H620 0.950 1_554 S
C630 C631 1.386 . S
C630 C632 1.391 . S
C631 C630 1.386 . S
C631 C635 1.393 . S
C632 H621 0.950 . S
C632 C630 1.391 . S
C632 C633 1.400 . S
C633 C627 1.491 . S
C633 C632 1.400 . S
C633 C634 1.398 . S
C634 H622 0.950 . S
C634 C633 1.398 . S
C634 C635 1.391 . S
C635 H623 0.950 . S
C635 C631 1.393 . S
C635 C634 1.391 . S
H636 C644 0.950 . S
H637 C649 0.950 . S
H638 C646 0.950 . S
H639 C648 0.950 . S
H640 C650 0.950 . S
H641 C652 0.950 . S
H642 C654 0.950 . S
H643 C655 0.950 . S
C644 H636 0.950 . S
C644 C645 1.386 . S
C644 C646 1.391 . S
C645 C644 1.386 . S
C645 C649 1.393 . S
C646 H638 0.950 . S
C646 C644 1.391 . S
C646 C647 1.400 . S
C647 C646 1.400 . S
C647 C648 1.398 . S
C647 C653 1.491 . S
C648 H639 0.950 . S
C648 C647 1.398 . S
C648 C649 1.391 . S
C649 H637 0.950 . S
C649 C645 1.393 . S
C649 C648 1.391 . S
C650 H640 0.950 . S
C650 C651 1.386 . S
C650 C652 1.391 . S
C651 C650 1.386 . S
C651 C655 1.393 . S
C652 H641 0.950 . S
C652 C650 1.391 . S
C652 C653 1.400 . S
C653 C647 1.491 . S
C653 C652 1.400 . S
C653 C654 1.398 . S
C654 H642 0.950 . S
C654 C653 1.398 . S
C654 C655 1.391 . S
C655 H643 0.950 . S
C655 C651 1.393 . S
C655 C654 1.391 . S
H656 C664 0.950 . S
H657 C669 0.950 . S
H658 C666 0.950 . S
H659 C668 0.950 . S
H660 C670 0.950 . S
H661 C672 0.950 . S
H662 C674 0.950 . S
H663 C675 0.950 . S
C664 H656 0.950 . S
C664 C665 1.386 . S
C664 C666 1.391 . S
C665 C664 1.386 . S
C665 C669 1.393 . S
C666 H658 0.950 . S
C666 C664 1.391 . S
C666 C667 1.400 . S
C667 C666 1.400 . S
C667 C668 1.398 . S
C667 C673 1.491 . S
C668 H659 0.950 . S
C668 C667 1.398 . S
C668 C669 1.391 . S
C669 H657 0.950 . S
C669 C665 1.393 . S
C669 C668 1.391 . S
C670 H660 0.950 . S
C670 C671 1.386 . S
C670 C672 1.391 . S
C671 C670 1.386 . S
C671 C675 1.393 . S
C672 H661 0.950 . S
C672 C670 1.391 . S
C672 C673 1.400 . S
C673 C667 1.491 . S
C673 C672 1.400 . S
C673 C674 1.398 . S
C674 H662 0.950 . S
C674 C673 1.398 . S
C674 C675 1.391 . S
C675 H663 0.950 . S
C675 C671 1.393 . S
C675 C674 1.391 . S
H676 C684 0.950 . S
H677 C689 0.950 . S
H678 C686 0.950 . S
H679 C688 0.950 . S
H680 C690 0.950 . S
H681 C692 0.950 . S
H682 C694 0.950 . S
H683 C695 0.950 . S
C684 H676 0.950 . S
C684 C685 1.386 . S
C684 C686 1.391 . S
C685 C684 1.386 . S
C685 C689 1.393 . S
C686 H678 0.950 . S
C686 C684 1.391 . S
C686 C687 1.400 . S
C687 C686 1.400 . S
C687 C688 1.398 . S
C687 C693 1.491 . S
C688 H679 0.950 . S
C688 C687 1.398 . S
C688 C689 1.391 . S
C689 H677 0.950 . S
C689 C685 1.393 . S
C689 C688 1.391 . S
C690 H680 0.950 . S
C690 C691 1.386 . S
C690 C692 1.391 . S
C691 C690 1.386 . S
C691 C695 1.393 . S
C692 H681 0.950 . S
C692 C690 1.391 . S
C692 C693 1.400 . S
C693 C687 1.491 . S
C693 C692 1.400 . S
C693 C694 1.398 . S
C694 H682 0.950 . S
C694 C693 1.398 . S
C694 C695 1.391 . S
C695 H683 0.950 . S
C695 C691 1.393 . S
C695 C694 1.391 . S
H696 C704 0.950 . S
H697 C709 0.950 . S
H698 C706 0.950 . S
H699 C708 0.950 . S
H700 C710 0.950 . S
H701 C712 0.950 . S
H702 C714 0.950 . S
H703 C715 0.950 . S
C704 H696 0.950 . S
C704 C705 1.386 . S
C704 C706 1.391 . S
C705 C704 1.386 . S
C705 C709 1.393 . S
C706 H698 0.950 . S
C706 C704 1.391 . S
C706 C707 1.400 . S
C707 C706 1.400 . S
C707 C708 1.398 . S
C707 C713 1.491 . S
C708 H699 0.950 . S
C708 C707 1.398 . S
C708 C709 1.391 . S
C709 H697 0.950 . S
C709 C705 1.393 . S
C709 C708 1.391 . S
C710 H700 0.950 . S
C710 C711 1.386 . S
C710 C712 1.391 . S
C711 C710 1.386 . S
C711 C715 1.393 . S
C712 H701 0.950 . S
C712 C710 1.391 . S
C712 C713 1.400 . S
C713 C707 1.491 . S
C713 C712 1.400 . S
C713 C714 1.398 . S
C714 H702 0.950 . S
C714 C713 1.398 . S
C714 C715 1.391 . S
C715 H703 0.950 . S
C715 C711 1.393 . S
C715 C714 1.391 . S
H716 C724 0.950 . S
H717 C729 0.950 . S
H718 C726 0.950 . S
H719 C728 0.950 . S
H720 C730 0.950 . S
H721 C732 0.950 . S
H722 C734 0.950 . S
H723 C735 0.950 . S
C724 H716 0.950 . S
C724 C725 1.386 . S
C724 C726 1.391 . S
C725 C724 1.386 . S
C725 C729 1.393 . S
C726 H718 0.950 . S
C726 C724 1.391 . S
C726 C727 1.400 . S
C727 C726 1.400 . S
C727 C728 1.398 . S
C727 C733 1.491 . S
C728 H719 0.950 . S
C728 C727 1.398 . S
C728 C729 1.391 . S
C729 H717 0.950 . S
C729 C725 1.393 . S
C729 C728 1.391 . S
C730 H720 0.950 . S
C730 C731 1.386 . S
C730 C732 1.391 . S
C731 C730 1.386 . S
C731 C735 1.393 . S
C732 H721 0.950 . S
C732 C730 1.391 . S
C732 C733 1.400 . S
C733 C727 1.491 . S
C733 C732 1.400 . S
C733 C734 1.398 . S
C734 H722 0.950 . S
C734 C733 1.398 . S
C734 C735 1.391 . S
C735 H723 0.950 . S
C735 C731 1.393 . S
C735 C734 1.391 . S
C265 C6 0.882 . S
C271 C100 0.903 . S
C285 C18 1.306 . S
C291 C161 1.316 . S
C311 C199 2.639 . S
C305 C28 2.677 . S
C325 C40 1.752 . S
C331 C239 1.707 . S
C351 C159 1.419 . S
C345 C9 1.416 . S
C371 C127 1.920 . S
C365 C16 1.838 . S
C391 C236 1.774 . S
C385 C30 1.787 . S
C411 C196 1.520 . S
C405 C42 1.535 . S
C425 C4 1.021 . S
C431 C241 1.015 . S
C451 C156 2.595 . S
C445 C33 2.588 . S
C465 C45 1.914 . S
C471 C98 1.889 . S
C485 C21 1.476 . S
C491 C201 1.533 . S
C511 C121 0.935 . S
C505 C57 0.937 . S
C525 C66 1.287 . S
C531 C140 1.320 . S
C545 C76 2.724 . S
C551 C178 2.685 . S
C565 C88 1.664 . S
C571 C218 1.635 . S
C585 C54 1.394 . S
C591 C138 1.401 . S
C611 C116 2.003 . S
C605 C64 1.946 . S
C631 C247 1.651 . S
C625 C78 1.659 . S
C651 C207 1.585 . S
C645 C93 1.592 . S
C665 C52 0.978 . S
C671 C220 1.007 . S
C691 C167 2.594 . S
C685 C81 2.577 . S
C711 C119 1.870 . S
C705 C90 1.892 . S
C725 C69 1.492 . S
C731 C180 1.557 . S
