# Generated by pormake.
# Topology anh, (6,3)-cn, num edge types: 1
# Building blocks:
#     Node 0, Type 0, BuildingBlock: PAMTUU_clean_sbu_0, # of connection points: 6
#     Node 1, Type 0, BuildingBlock: PAMTUU_clean_sbu_0, # of connection points: 6
#     Node 2, Type 0, BuildingBlock: PAMTUU_clean_sbu_0, # of connection points: 6
#     Node 3, Type 1, BuildingBlock: BETDIP_clean_linker_0, # of connection points: 3
#     Node 4, Type 1, BuildingBlock: BETDIP_clean_linker_0, # of connection points: 3
#     Node 5, Type 1, BuildingBlock: BETDIP_clean_linker_0, # of connection points: 3
#     Node 6, Type 1, BuildingBlock: BETDIP_clean_linker_0, # of connection points: 3
#     Node 7, Type 1, BuildingBlock: BETDIP_clean_linker_0, # of connection points: 3
#     Node 8, Type 1, BuildingBlock: BETDIP_clean_linker_0, # of connection points: 3
#     Edge 9, Type (0, 1), BuildingBlock: XIVTED_clean_linker_0, # of connection points: 2
#     Edge 10, Type (0, 1), BuildingBlock: XIVTED_clean_linker_0, # of connection points: 2
#     Edge 11, Type (0, 1), BuildingBlock: XIVTED_clean_linker_0, # of connection points: 2
#     Edge 12, Type (0, 1), BuildingBlock: XIVTED_clean_linker_0, # of connection points: 2
#     Edge 13, Type (0, 1), BuildingBlock: XIVTED_clean_linker_0, # of connection points: 2
#     Edge 14, Type (0, 1), BuildingBlock: XIVTED_clean_linker_0, # of connection points: 2
#     Edge 15, Type (0, 1), BuildingBlock: XIVTED_clean_linker_0, # of connection points: 2
#     Edge 16, Type (0, 1), BuildingBlock: XIVTED_clean_linker_0, # of connection points: 2
#     Edge 17, Type (0, 1), BuildingBlock: XIVTED_clean_linker_0, # of connection points: 2
#     Edge 18, Type (0, 1), BuildingBlock: XIVTED_clean_linker_0, # of connection points: 2
#     Edge 19, Type (0, 1), BuildingBlock: XIVTED_clean_linker_0, # of connection points: 2
#     Edge 20, Type (0, 1), BuildingBlock: XIVTED_clean_linker_0, # of connection points: 2
#     Edge 21, Type (0, 1), BuildingBlock: XIVTED_clean_linker_0, # of connection points: 2
#     Edge 22, Type (0, 1), BuildingBlock: XIVTED_clean_linker_0, # of connection points: 2
#     Edge 23, Type (0, 1), BuildingBlock: XIVTED_clean_linker_0, # of connection points: 2
#     Edge 24, Type (0, 1), BuildingBlock: XIVTED_clean_linker_0, # of connection points: 2
#     Edge 25, Type (0, 1), BuildingBlock: XIVTED_clean_linker_0, # of connection points: 2
#     Edge 26, Type (0, 1), BuildingBlock: XIVTED_clean_linker_0, # of connection points: 2
# Relax obj value: 0.249
# Max RMSD: 0.171
# Mean RMSD: 0.118
data_MOF--net-anh--node1-PAMTUU_clean_sbu_0--node2-BETDIP_clean_linker_0--edge1-XIVTED_clean_linker_0
_symmetry_space_group_name_H-M    P1
_symmetry_Int_Tables_number       1
_symmetry_cell_setting            triclinic
loop_
_symmetry_equiv_pos_as_xyz
'x, y, z'
_cell_length_a     30.573422
_cell_length_b     30.474562
_cell_length_c     50.134951
_cell_angle_alpha  94.458301
_cell_angle_beta   91.204242
_cell_angle_gamma 119.99642
loop_
_atom_site_label
_atom_site_type_symbol
_atom_site_fract_x
_atom_site_fract_y
_atom_site_fract_z
_atom_type_partial_charge
Tb0 Tb 0.13858 0.74301 0.14697 0.0
Tb1 Tb 0.20259 0.69375 0.16987 0.0
C2 C 0.18871 0.69805 0.10785 0.0
C3 C 1.02689 0.7462 0.12757 0.0
C4 C 0.92614 0.66586 0.11931 0.0
C5 C 0.95053 0.69522 0.09834 0.0
C6 C 1.00048 0.73531 0.10249 0.0
C7 C 1.00095 0.71975 0.14914 0.0
C8 C 0.95083 0.68008 0.14506 0.0
C9 C 1.08259 0.77391 0.12905 0.0
O10 O 1.08325 0.66011 0.14398 0.0
O11 O 0.12319 0.63761 0.17458 0.0
O12 O 0.18758 0.73086 0.20446 0.0
O13 O 1.11619 0.72774 0.18733 0.0
O14 O 0.20671 0.62877 0.17609 0.0
O15 O 0.26589 0.7033 0.19259 0.0
O16 O 0.25981 0.76738 0.15741 0.0
O17 O 0.21435 0.80857 0.16053 0.0
O18 O 0.17811 0.73429 0.11347 0.0
O19 O 0.19403 0.6728 0.12656 0.0
C20 C 1.0824 0.62685 0.15969 0.0
O21 O 1.10598 0.78945 0.15292 0.0
O22 O 1.10121 0.75139 0.11396 0.0
C23 C 0.14563 0.73186 0.2078 0.0
C24 C 0.28797 0.64072 0.1812 0.0
C25 C 0.35068 0.60335 0.16341 0.0
C26 C 0.32613 0.58881 0.18722 0.0
C27 C 0.29504 0.60746 0.19605 0.0
C28 C 0.31334 0.65648 0.15778 0.0
C29 C 0.34478 0.63809 0.149 0.0
C30 C 0.25073 0.65485 0.18929 0.0
C31 C 0.25832 0.81001 0.15968 0.0
H32 H 0.93196 0.68524 0.07836 0.0
H33 H 1.01986 0.7548 0.08553 0.0
H34 H 1.02049 0.72675 0.16864 0.0
H35 H 0.93293 0.65788 0.16152 0.0
H36 H 0.33049 0.5625 0.19881 0.0
H37 H 0.27543 0.59486 0.21413 0.0
H38 H 0.30771 0.68179 0.14597 0.0
H39 H 0.36292 0.64948 0.13044 0.0
Tb40 Tb 0.61752 0.10356 0.47427 0.0
Tb41 Tb 0.73938 0.1649 0.48926 0.0
C42 C 0.69363 0.13939 0.42948 0.0
C43 C 0.47724 1.01673 0.4738 0.0
C44 C 0.38751 0.93772 0.49141 0.0
C45 C 0.39056 0.98348 0.48547 0.0
C46 C 0.43492 1.02246 0.47674 0.0
C47 C 0.47516 0.97173 0.4803 0.0
C48 C 0.43037 0.93228 0.48889 0.0
C49 C 0.52299 1.05913 0.46458 0.0
O50 O 0.63674 1.04226 0.47415 0.0
O51 O 0.72105 0.08554 0.48997 0.0
O52 O 0.70079 0.16179 0.5262 0.0
O53 O 0.62718 0.08767 0.51397 0.0
O54 O 0.81344 0.21033 0.47794 0.0
O55 O 0.79989 0.19168 0.51858 0.0
O56 O 0.72235 0.22502 0.4819 0.0
O57 O 0.63777 0.18257 0.48835 0.0
O58 O 0.65132 0.1342 0.43792 0.0
O59 O 0.7293 0.14243 0.44597 0.0
C60 C 0.6785 1.04261 0.48244 0.0
O61 O 0.54826 0.09814 0.48238 0.0
O62 O 0.55266 1.04843 0.45059 0.0
C63 C 0.6588 0.12217 0.53242 0.0
C64 C 0.85653 0.27709 0.51138 0.0
C65 C 0.88654 0.38089 0.5122 0.0
C66 C 0.91745 0.36261 0.50164 0.0
C67 C 0.90239 0.31098 0.50112 0.0
C68 C 0.82837 0.29625 0.5244 0.0
C69 C 0.84331 0.34768 0.52488 0.0
C70 C 0.83204 0.22228 0.50272 0.0
C71 C 0.6804 0.22555 0.48634 0.0
H72 H 0.358 0.98855 0.48659 0.0
H73 H 0.436 1.05706 0.47196 0.0
H74 H 0.50781 0.96693 0.47853 0.0
H75 H 0.42911 0.89747 0.49334 0.0
H76 H 0.95157 0.38751 0.4922 0.0
H77 H 0.92442 0.29691 0.4908 0.0
H78 H 0.79238 0.2708 0.53214 0.0
H79 H 0.81834 0.36017 0.533 0.0
Tb80 Tb 0.69992 0.56289 0.81721 0.0
Tb81 Tb 0.75665 0.68466 0.82894 0.0
C82 C 0.72409 0.63011 0.77045 0.0
C83 C 0.65771 0.42559 0.82009 0.0
C84 C 0.66361 0.34335 0.83795 0.0
C85 C 0.61639 0.33879 0.83149 0.0
C86 C 0.61356 0.3795 0.82266 0.0
C87 C 0.70505 0.43135 0.82736 0.0
C88 C 0.70799 0.39028 0.83608 0.0
C89 C 0.65266 0.46715 0.81057 0.0
O90 O 0.78091 0.58626 0.8139 0.0
O91 O 0.81964 0.6695 0.83294 0.0
O92 O 0.72783 0.65018 0.8663 0.0
O93 O 0.73777 0.58226 0.85639 0.0
O94 O 0.78427 0.7564 0.81498 0.0
O95 O 0.79119 0.74964 0.85705 0.0
O96 O 0.67678 0.66297 0.82122 0.0
O97 O 0.64136 0.5805 0.83083 0.0
O98 O 0.68892 0.59033 0.78071 0.0
O99 O 0.76132 0.6674 0.78605 0.0
C100 C 0.82214 0.62891 0.82388 0.0
O101 O 0.64361 0.49362 0.82896 0.0
O102 O 0.68572 0.49578 0.79434 0.0
C103 C 0.73302 0.61278 0.87412 0.0
C104 C 0.76531 0.8064 0.84419 0.0
C105 C 0.69872 0.8441 0.83853 0.0
C106 C 0.74932 0.8727 0.83184 0.0
C107 C 0.78229 0.85376 0.83448 0.0
C108 C 0.71651 0.78031 0.85341 0.0
C109 C 0.68351 0.799 0.85064 0.0
C110 C 0.79314 0.77925 0.83914 0.0
C111 C 0.63708 0.62071 0.82718 0.0
H112 H 0.58148 0.30296 0.83205 0.0
H113 H 0.57674 0.37468 0.81737 0.0
H114 H 0.73955 0.46718 0.82592 0.0
H115 H 0.74485 0.3949 0.84091 0.0
H116 H 0.76249 0.90811 0.82296 0.0
H117 H 0.81972 0.87426 0.82714 0.0
H118 H 0.70242 0.74339 0.86077 0.0
H119 H 0.64483 0.77575 0.85585 0.0
H120 H 0.62615 0.18072 0.16025 0.0
H121 H 0.73015 0.23818 0.23071 0.0
H122 H 0.58539 0.10203 0.23132 0.0
H123 H 0.78658 0.26007 0.19731 0.0
C124 C 0.77362 0.28166 0.18666 0.0
C125 C 0.6354 0.17775 0.18075 0.0
C126 C 0.59994 0.13604 0.19429 0.0
C127 C 0.68327 0.21523 0.19375 0.0
C128 C 0.69429 0.21008 0.22045 0.0
C129 C 0.65974 0.16922 0.23415 0.0
C130 C 0.6128 0.13308 0.22086 0.0
N131 N 0.7198 0.25806 0.18044 0.0
H132 H 0.6943 0.60118 0.4901 0.0
H133 H 0.70288 0.68744 0.56462 0.0
H134 H 0.70211 0.54618 0.56566 0.0
H135 H 0.64131 0.69549 0.53555 0.0
C136 C 0.66871 0.71311 0.52072 0.0
C137 C 0.69701 0.6059 0.51181 0.0
C138 C 0.69778 0.56775 0.52632 0.0
C139 C 0.69771 0.64923 0.52553 0.0
C140 C 0.70147 0.6545 0.55383 0.0
C141 C 0.70309 0.61764 0.56843 0.0
C142 C 0.70088 0.57465 0.55446 0.0
N143 N 0.69509 0.6874 0.51119 0.0
H144 H 0.1915 0.62904 0.83018 0.0
H145 H 0.26212 0.63056 0.90611 0.0
H146 H 0.12791 0.64252 0.90399 0.0
H147 H 0.28154 0.57748 0.87871 0.0
C148 C 0.2996 0.60346 0.86357 0.0
C149 C 0.19232 0.63076 0.85184 0.0
C150 C 0.15368 0.63488 0.86546 0.0
C151 C 0.23227 0.62922 0.86643 0.0
C152 C 0.23226 0.63156 0.89471 0.0
C153 C 0.19453 0.63565 0.90851 0.0
C154 C 0.1563 0.63793 0.89358 0.0
N155 N 0.27288 0.62701 0.85301 0.0
H156 H 0.99234 0.73029 0.4668 0.0
H157 H 0.94626 0.71171 0.38305 0.0
H158 H 1.09179 0.73235 0.40721 0.0
H159 H 0.86624 0.7027 0.46402 0.0
C160 C 0.88943 0.6895 0.45415 0.0
C161 C 0.99971 0.72687 0.44592 0.0
C162 C 1.04564 0.7305 0.43933 0.0
C163 C 0.96353 0.71944 0.42557 0.0
C164 C 0.97424 0.71726 0.39858 0.0
C165 C 1.02001 0.72039 0.39169 0.0
C166 C 1.05528 0.72709 0.41226 0.0
N167 N 0.91619 0.7143 0.43196 0.0
H168 H 0.48128 0.96712 0.78051 0.0
H169 H 0.4639 0.94502 0.69447 0.0
H170 H 0.59472 1.07673 0.7345 0.0
H171 H 0.3729 0.84727 0.76383 0.0
C172 C 0.41139 0.87002 0.75808 0.0
C173 C 0.49589 0.97946 0.76132 0.0
C174 C 0.54232 1.02461 0.76047 0.0
C175 C 0.46782 0.95047 0.7375 0.0
C176 C 0.48581 0.96757 0.71272 0.0
C177 C 0.53243 1.01258 0.71145 0.0
C178 C 0.56024 1.04064 0.73541 0.0
N179 N 0.42118 0.90411 0.73816 0.0
H180 H 0.50798 0.37632 0.09648 0.0
H181 H 0.61209 0.39363 0.03659 0.0
H182 H 0.56126 0.50196 0.04848 0.0
H183 H 0.60274 0.29762 0.07505 0.0
C184 C 0.60394 0.33376 0.07883 0.0
C185 C 0.5301 0.39689 0.08044 0.0
C186 C 0.53269 0.4424 0.07465 0.0
C187 C 0.55889 0.37953 0.06685 0.0
C188 C 0.5894 0.40705 0.04672 0.0
C189 C 0.59095 0.45176 0.03997 0.0
C190 C 0.5619 0.46858 0.05394 0.0
N191 N 0.55874 0.33552 0.07448 0.0
H192 H 0.44405 0.65114 0.14339 0.0
H193 H 0.43696 0.39285 0.09267 0.0
H194 H 0.3238 0.50305 0.15936 0.0
H195 H 0.56976 0.54187 0.09333 0.0
H196 H 0.39409 0.43177 0.11693 0.0
H197 H 0.49005 0.61128 0.12405 0.0
C198 C 0.42747 0.61024 0.14285 0.0
C199 C 0.38016 0.58028 0.15292 0.0
C200 C 0.43271 0.45584 0.11185 0.0
C201 C 0.43228 0.53441 0.13086 0.0
C202 C 0.45719 0.43363 0.0981 0.0
C203 C 0.50669 0.46426 0.09064 0.0
C204 C 0.45793 0.50896 0.11803 0.0
C205 C 0.53112 0.51695 0.09809 0.0
C206 C 0.45376 0.58752 0.13196 0.0
C207 C 0.36046 0.52751 0.15201 0.0
N208 N 0.50637 0.53765 0.11118 0.0
N209 N 0.38646 0.50615 0.14097 0.0
H210 H 0.87256 0.45003 0.54441 0.0
H211 H 0.90073 0.61723 0.42384 0.0
H212 H 0.91567 0.42526 0.46565 0.0
H213 H 0.87575 0.65753 0.50414 0.0
H214 H 0.90494 0.54578 0.43938 0.0
H215 H 0.87319 0.52589 0.53085 0.0
C216 C 0.88276 0.46083 0.52441 0.0
C217 C 0.89428 0.43119 0.5062 0.0
C218 C 0.89894 0.57037 0.45375 0.0
C219 C 0.89485 0.51769 0.49057 0.0
C220 C 0.89691 0.61149 0.44489 0.0
C221 C 0.88962 0.64432 0.46298 0.0
C222 C 0.89283 0.56137 0.48083 0.0
C223 C 0.88225 0.63342 0.48972 0.0
C224 C 0.88313 0.50412 0.51671 0.0
C225 C 0.90746 0.44723 0.4806 0.0
N226 N 0.88426 0.59288 0.49793 0.0
N227 N 0.90706 0.48908 0.47354 0.0
H228 H 0.69242 0.8786 0.79082 0.0
H229 H 0.42046 0.8503 0.80939 0.0
H230 H 0.61557 0.83509 0.86378 0.0
H231 H 0.49419 0.87564 0.73516 0.0
H232 H 0.49243 0.84847 0.83105 0.0
H233 H 0.6229 0.88609 0.77217 0.0
C234 C 0.66145 0.87167 0.80321 0.0
C235 C 0.66005 0.85625 0.82899 0.0
C236 C 0.49282 0.85458 0.81005 0.0
C237 C 0.57895 0.86303 0.80721 0.0
C238 C 0.45176 0.85529 0.79771 0.0
C239 C 0.45221 0.86438 0.77073 0.0
C240 C 0.53416 0.86268 0.79511 0.0
C241 C 0.49314 0.87013 0.75626 0.0
C242 C 0.62125 0.87523 0.79234 0.0
C243 C 0.61803 0.84657 0.84372 0.0
N244 N 0.5326 0.86954 0.76867 0.0
N245 N 0.57894 0.84982 0.83255 0.0
H246 H 0.90453 0.59073 0.07951 0.0
H247 H 0.62004 0.41233 0.11568 0.0
H248 H 0.84014 0.6289 0.14691 0.0
H249 H 0.69765 0.36004 0.06285 0.0
H250 H 0.69908 0.49298 0.12653 0.0
H251 H 0.82743 0.50759 0.07159 0.0
C252 C 0.87377 0.58176 0.09242 0.0
C253 C 0.87825 0.61688 0.11365 0.0
C254 C 0.69899 0.46383 0.11269 0.0
C255 C 0.79033 0.52164 0.10497 0.0
C256 C 0.65389 0.41798 0.10638 0.0
C257 C 0.65243 0.38027 0.08786 0.0
C258 C 0.74282 0.47194 0.10032 0.0
C259 C 0.69741 0.38859 0.07701 0.0
C260 C 0.83007 0.53412 0.08809 0.0
C261 C 0.83794 0.6029 0.13024 0.0
N262 N 0.74081 0.43392 0.08314 0.0
N263 N 0.79543 0.55639 0.12544 0.0
H264 H 0.31783 0.93998 0.52425 0.0
H265 H 1.10392 0.68623 0.44373 0.0
H266 H 0.34367 0.83743 0.47167 0.0
H267 H 1.08134 0.80471 0.48156 0.0
H268 H 0.18651 0.72472 0.46852 0.0
H269 H 0.22829 0.875 0.52317 0.0
C270 C 0.30487 0.90335 0.51296 0.0
C271 C 0.33789 0.89465 0.49732 0.0
C272 C 0.16294 0.74155 0.47196 0.0
C273 C 0.2357 0.82031 0.49604 0.0
C274 C 1.11583 0.71959 0.45785 0.0
C275 C 1.08656 0.74325 0.46007 0.0
C276 C 0.18095 0.78767 0.48819 0.0
C277 C 1.10307 0.78567 0.47902 0.0
C278 C 0.25381 0.86626 0.51242 0.0
C279 C 0.31947 0.84604 0.48375 0.0
N280 N 0.14981 0.8073 0.49189 0.0
N281 N 0.26932 0.81107 0.48292 0.0
H282 H 0.72813 0.31318 0.81797 0.0
H283 H 0.50221 1.04571 0.80479 0.0
H284 H 0.60285 0.26696 0.86839 0.0
H285 H 0.64506 0.08121 0.77292 0.0
H286 H 0.54663 0.11832 0.83833 0.0
H287 H 0.71072 0.22584 0.81229 0.0
C288 C 0.69807 0.28505 0.82869 0.0
C289 C 0.66549 0.2969 0.84273 0.0
C290 C 0.56861 0.10962 0.82449 0.0
C291 C 0.64416 0.1964 0.8355 0.0
C292 C 0.54312 1.06778 0.8053 0.0
C293 C 0.56972 1.05851 0.78527 0.0
C294 C 0.62076 0.14309 0.82317 0.0
C295 C 0.62279 0.08841 0.78723 0.0
C296 C 0.68786 0.23487 0.82529 0.0
C297 C 0.62751 0.25888 0.85639 0.0
N298 N 0.64646 0.13033 0.80528 0.0
N299 N 0.61677 0.20993 0.85172 0.0
H300 H 0.59525 0.94593 0.48302 0.0
H301 H 0.74793 0.79443 0.49731 0.0
H302 H 0.75831 1.02379 0.48759 0.0
H303 H 0.5966 0.74007 0.52169 0.0
H304 H 0.75118 0.87389 0.48622 0.0
H305 H 0.59365 0.86616 0.4896 0.0
C306 C 0.63082 0.94642 0.48512 0.0
C307 C 0.67699 0.99243 0.48473 0.0
C308 C 0.7171 0.84429 0.49376 0.0
C309 C 0.67536 0.89971 0.49219 0.0
C310 C 0.7151 0.79864 0.49989 0.0
C311 C 0.67173 0.75992 0.51033 0.0
C312 C 0.67512 0.85116 0.4976 0.0
C313 C 0.63079 0.76845 0.51362 0.0
C314 C 0.62986 0.9006 0.48902 0.0
C315 C 0.72167 0.98975 0.4878 0.0
N316 N 0.63338 0.81246 0.50723 0.0
N317 N 0.71975 0.94456 0.49128 0.0
H318 H 0.91521 0.70961 0.84381 0.0
H319 H 1.07175 0.5598 0.83238 0.0
H320 H 0.84633 0.553 0.8104 0.0
H321 H 0.13222 0.71232 0.87019 0.0
H322 H 0.99203 0.55798 0.82011 0.0
H323 H 0.99606 0.71228 0.85003 0.0
C324 C 0.91683 0.67566 0.83759 0.0
C325 C 0.87291 0.63098 0.82648 0.0
C326 C 1.02302 0.59221 0.8307 0.0
C327 C 0.96742 0.63387 0.83375 0.0
C328 C 1.069 0.59351 0.83739 0.0
C329 C 1.10971 0.6367 0.85194 0.0
C330 C 1.01713 0.63439 0.83861 0.0
C331 C 1.1026 0.67847 0.85861 0.0
C332 C 0.96348 0.67725 0.84121 0.0
C333 C 0.87861 0.58848 0.81898 0.0
N334 N 1.05775 0.67618 0.85204 0.0
N335 N 0.92452 0.59095 0.82278 0.0
H336 H 0.2756 0.90809 0.17295 0.0
H337 H 0.57945 1.04827 0.1636 0.0
H338 H 0.35508 0.82839 0.15138 0.0
H339 H 0.50492 0.12351 0.19977 0.0
H340 H 0.49653 0.97039 0.15331 0.0
H341 H 0.35698 0.98879 0.17784 0.0
C342 C 0.30993 0.90733 0.16905 0.0
C343 C 0.30771 0.86059 0.16174 0.0
C344 C 0.49801 1.00414 0.16304 0.0
C345 C 0.40218 0.95411 0.16723 0.0
C346 C 0.5455 1.04901 0.16856 0.0
C347 C 0.54946 0.09339 0.18185 0.0
C348 C 0.45343 1.0029 0.17095 0.0
C349 C 0.50387 0.09092 0.18881 0.0
C350 C 0.35665 0.95369 0.17192 0.0
C351 C 0.35422 0.86292 0.15712 0.0
N352 N 0.45817 1.04683 0.18334 0.0
N353 N 0.39899 0.9084 0.15988 0.0
H354 H 0.60308 0.24473 0.49858 0.0
H355 H 0.77109 0.55202 0.50308 0.0
H356 H 0.76067 0.32319 0.482 0.0
H357 H 0.61606 0.47118 0.52346 0.0
H358 H 0.76722 0.46968 0.49193 0.0
H359 H 0.60632 0.32696 0.50489 0.0
C360 C 0.63844 0.27907 0.49618 0.0
C361 C 0.68164 0.27617 0.48976 0.0
C362 C 0.73369 0.4698 0.49838 0.0
C363 C 0.68568 0.37205 0.49705 0.0
C364 C 0.73575 0.51699 0.50442 0.0
C365 C 0.6934 0.51889 0.51357 0.0
C366 C 0.68897 0.42364 0.50161 0.0
C367 C 0.64928 0.47186 0.5159 0.0
C368 C 0.64028 0.32637 0.49982 0.0
C369 C 0.72626 0.32285 0.48701 0.0
N370 N 0.64827 0.4267 0.51005 0.0
N371 N 0.7271 0.36838 0.49067 0.0
H372 H 0.54923 0.54377 0.845 0.0
H373 H 0.37638 0.67567 0.83377 0.0
H374 H 0.60863 0.69269 0.81784 0.0
H375 H 0.3365 0.54181 0.87372 0.0
H376 H 0.45815 0.68112 0.82392 0.0
H377 H 0.46882 0.54075 0.85174 0.0
C378 C 0.54559 0.57595 0.84033 0.0
C379 C 0.58671 0.61858 0.83081 0.0
C380 C 0.43129 0.65039 0.83471 0.0
C381 C 0.49268 0.61526 0.83856 0.0
C382 C 0.3843 0.6471 0.8402 0.0
C383 C 0.34877 0.60795 0.85454 0.0
C384 C 0.44291 0.614 0.84334 0.0
C385 C 0.36214 0.5726 0.86256 0.0
C386 C 0.49925 0.57422 0.84426 0.0
C387 C 0.57856 0.65892 0.82527 0.0
N388 N 0.40735 0.57638 0.85686 0.0
N389 N 0.53288 0.65625 0.82915 0.0
H390 H 1.07226 0.54676 0.18561 0.0
H391 H 0.76935 0.35875 0.15977 0.0
H392 H 0.98222 0.59002 0.13908 0.0
H393 H 0.8735 0.32361 0.19865 0.0
H394 H 0.8423 0.44295 0.15179 0.0
H395 H 0.99693 0.46583 0.19055 0.0
C396 C 1.03664 0.53946 0.17632 0.0
C397 C 1.03452 0.57618 0.16182 0.0
C398 C 0.84901 0.41662 0.16201 0.0
C399 C 0.9457 0.48111 0.16762 0.0
C400 C 0.80725 0.36842 0.16656 0.0
C401 C 0.81488 0.33346 0.17996 0.0
C402 C 0.89878 0.43016 0.17103 0.0
C403 C 0.8652 0.34874 0.18825 0.0
C404 C 0.99312 0.49265 0.17917 0.0
C405 C 0.98631 0.56325 0.15036 0.0
N406 N 0.90446 0.3952 0.18376 0.0
N407 N 0.94403 0.5171 0.15354 0.0
H408 H 0.25545 0.67291 0.08429 0.0
H409 H 1.11271 0.59588 0.93968 0.0
H410 H 0.12766 0.69173 0.06619 0.0
H411 H 0.27631 0.6804 0.94665 0.0
H412 H 1.11268 0.60819 0.98827 0.0
H413 H 0.259 0.65394 0.03569 0.0
C414 C 0.228 0.67261 0.07015 0.0
C415 C 0.19136 0.68414 0.07918 0.0
C416 C 0.14854 0.62371 0.9791 0.0
C417 C 0.19444 0.66145 0.02418 0.0
C418 C 0.14875 0.61718 0.95126 0.0
C419 C 0.19462 0.63824 0.9386 0.0
C420 C 0.19443 0.65033 -0.0052 0.0
C421 C 0.23992 0.66336 0.95523 0.0
C422 C 0.23021 0.6621 0.04255 0.0
C423 C 0.15676 0.68347 0.06006 0.0
N424 N 0.2387 0.66882 0.98246 0.0
N425 N 0.15884 0.67188 0.03358 0.0
H426 H 0.76761 0.21466 0.40308 0.0
H427 H 0.63414 0.0812 0.25746 0.0
H428 H 0.63047 1.06888 0.38997 0.0
H429 H 0.71474 0.24477 0.27569 0.0
H430 H 0.649 1.07258 0.30425 0.0
H431 H 0.76564 0.22222 0.35442 0.0
C432 C 0.73797 0.18373 0.38984 0.0
C433 C 0.69936 0.1409 0.40035 0.0
C434 C 0.66366 0.11035 0.29791 0.0
C435 C 0.69676 0.14922 0.34514 0.0
C436 C 0.65483 0.11542 0.27119 0.0
C437 C 0.67226 0.16386 0.2624 0.0
C438 C 0.691 0.15392 0.31614 0.0
C439 C 0.70063 0.20662 0.28125 0.0
C440 C 0.73654 0.18827 0.36223 0.0
C441 C 0.66108 0.10233 0.38254 0.0
N442 N 0.70897 0.20065 0.30721 0.0
N443 N 0.66078 0.10732 0.35584 0.0
H444 H 0.6545 0.55564 0.7337 0.0
H445 H 0.76432 0.7027 0.60363 0.0
H446 H 0.78638 0.70618 0.7392 0.0
H447 H 0.64852 0.54468 0.60167 0.0
H448 H 0.77005 0.70852 0.65295 0.0
H449 H 0.64912 0.55492 0.68535 0.0
C450 C 0.68246 0.58878 0.7248 0.0
C451 C 0.72113 0.63105 0.74078 0.0
C452 C 0.74341 0.67264 0.64168 0.0
C453 C 0.71498 0.63032 0.68465 0.0
C454 C 0.73988 0.66936 0.61355 0.0
C455 C 0.70606 0.62301 0.59841 0.0
C456 C 0.71252 0.62941 0.6548 0.0
C457 C 0.67564 0.58098 0.61238 0.0
C458 C 0.67933 0.58824 0.697 0.0
C459 C 0.75602 0.6727 0.72775 0.0
N460 N 0.67959 0.58523 0.63963 0.0
N461 N 0.75213 0.67131 0.70044 0.0
H462 H 0.71928 0.15147 0.57956 0.0
H463 H 0.47864 1.01275 0.66711 0.0
H464 H 0.56357 1.07761 0.54823 0.0
H465 H 0.63031 1.05691 0.69644 0.0
H466 H 0.51121 1.04616 0.62479 0.0
H467 H 0.68961 0.1286 0.62452 0.0
C468 C 0.67904 0.13121 0.58224 0.0
C469 C 0.64381 0.11588 0.56023 0.0
C470 C 0.53745 1.0486 0.64048 0.0
C471 C 0.60978 0.08966 0.61104 0.0
C472 C 0.51874 1.02908 0.66458 0.0
C473 C 0.55167 1.03168 0.68533 0.0
C474 C 0.58955 1.07101 0.637 0.0
C475 C 0.60357 1.05447 0.68107 0.0
C476 C 0.66212 0.11785 0.60775 0.0
C477 C 0.59205 0.08953 0.56463 0.0
N478 N 0.62092 1.07319 0.65737 0.0
N479 N 0.57667 1.07714 0.58945 0.0
H480 H 0.74497 0.53928 0.89471 0.0
H481 H 0.64183 0.5557 0.037 0.0
H482 H 0.7024 0.65209 0.91662 0.0
H483 H 0.61101 0.41438 -0.00708 0.0
H484 H 0.68405 0.60096 -0.00124 0.0
H485 H 0.7182 0.50442 0.93723 0.0
C486 C 0.7306 0.55729 0.9086 0.0
C487 C 0.72511 0.59827 0.90184 0.0
C488 C 0.66824 0.5601 -0.00232 0.0
C489 C 0.69465 0.55828 0.95076 0.0
C490 C 0.64378 0.53401 0.01938 0.0
C491 C 0.62177 0.48068 0.01815 0.0
C492 C 0.67194 0.53298 0.97486 0.0
C493 C 0.62748 0.45532 -0.00494 0.0
C494 C 0.71521 0.53712 0.93285 0.0
C495 C 0.70693 0.62028 0.92093 0.0
N496 N 0.65192 0.48169 0.97436 0.0
N497 N 0.6919 0.5997 0.94456 0.0
H498 H 0.18057 0.71405 0.25408 0.0
H499 H 1.00159 0.76375 0.34979 0.0
H500 H 1.07134 0.75144 0.2236 0.0
H501 H 1.06796 0.67288 0.36885 0.0
H502 H 1.03171 0.76732 0.3046 0.0
H503 H 0.14715 0.70942 0.29826 0.0
C504 C 0.14991 0.72178 0.25672 0.0
C505 C 0.12869 0.7331 0.23511 0.0
C506 C 1.03938 0.74644 0.31871 0.0
C507 C 1.09013 0.72762 0.28559 0.0
C508 C 1.02189 0.74404 0.34442 0.0
C509 C 1.03275 0.71849 0.3633 0.0
C510 C 1.06831 0.72357 0.31199 0.0
C511 C 1.05971 0.69409 0.35523 0.0
C512 C 0.13057 0.71871 0.2819 0.0
C513 C 1.08872 0.74242 0.2397 0.0
N514 N 1.07696 0.69767 0.33033 0.0
N515 N 1.07078 0.7396 0.26447 0.0
loop_
_geom_bond_atom_site_label_1
_geom_bond_atom_site_label_2
_geom_bond_distance
_geom_bond_site_symmetry_2
_ccdc_geom_bond_type
Tb0 C9 2.764 1_455 S
Tb0 O10 2.325 1_455 S
Tb0 O13 2.303 . S
Tb0 O17 2.322 . S
Tb0 O18 2.349 . S
Tb0 O21 2.415 1_455 S
Tb0 O22 2.399 1_455 S
Tb1 O11 2.322 . S
Tb1 O12 2.349 . S
Tb1 O14 2.415 . S
Tb1 O15 2.399 . S
Tb1 O16 2.325 . S
Tb1 O19 2.303 . S
Tb1 C30 2.764 . S
C2 O18 1.261 . S
C2 O19 1.257 . S
C3 C6 1.358 . S
C3 C7 1.332 . S
C3 C9 1.504 . S
C4 C5 1.373 . S
C4 C8 1.308 . S
C5 C4 1.373 . S
C5 C6 1.429 . S
C5 H32 0.932 . S
C6 C3 1.358 . S
C6 C5 1.429 . S
C6 H33 0.930 . S
C7 C3 1.332 . S
C7 C8 1.394 . S
C7 H34 0.932 . S
C8 C4 1.308 . S
C8 C7 1.394 . S
C8 H35 0.929 . S
C9 Tb0 2.764 1_655 S
C9 C3 1.504 . S
C9 O21 1.239 . S
C9 O22 1.263 . S
O10 Tb0 2.325 1_655 S
O10 C20 1.236 . S
O11 Tb1 2.322 . S
O11 C20 1.257 1_455 S
O12 Tb1 2.349 . S
O12 C23 1.261 . S
O13 Tb0 2.303 . S
O13 C23 1.257 . S
O14 Tb1 2.415 . S
O14 C30 1.239 . S
O15 Tb1 2.399 . S
O15 C30 1.263 . S
O16 Tb1 2.325 . S
O16 C31 1.236 . S
O17 Tb0 2.322 . S
O17 C31 1.257 . S
O18 Tb0 2.349 . S
O18 C2 1.261 . S
O19 Tb1 2.303 . S
O19 C2 1.257 . S
C20 O10 1.236 . S
C20 O11 1.257 1_655 S
O21 Tb0 2.415 1_655 S
O21 C9 1.239 . S
O22 Tb0 2.399 1_655 S
O22 C9 1.263 . S
C23 O12 1.261 . S
C23 O13 1.257 . S
C24 C27 1.358 . S
C24 C28 1.332 . S
C24 C30 1.504 . S
C25 C26 1.373 . S
C25 C29 1.308 . S
C26 C25 1.373 . S
C26 C27 1.429 . S
C26 H36 0.932 . S
C27 C24 1.358 . S
C27 C26 1.429 . S
C27 H37 0.930 . S
C28 C24 1.332 . S
C28 C29 1.394 . S
C28 H38 0.932 . S
C29 C25 1.308 . S
C29 C28 1.394 . S
C29 H39 0.929 . S
C30 Tb1 2.764 . S
C30 O14 1.239 . S
C30 O15 1.263 . S
C30 C24 1.504 . S
C31 O16 1.236 . S
C31 O17 1.257 . S
H32 C5 0.932 . S
H33 C6 0.930 . S
H34 C7 0.932 . S
H35 C8 0.929 . S
H36 C26 0.932 . S
H37 C27 0.930 . S
H38 C28 0.932 . S
H39 C29 0.929 . S
Tb40 C49 2.764 1_545 S
Tb40 O50 2.325 1_545 S
Tb40 O53 2.303 . S
Tb40 O57 2.322 . S
Tb40 O58 2.349 . S
Tb40 O61 2.415 1_545 S
Tb40 O62 2.399 1_545 S
Tb41 O51 2.322 . S
Tb41 O52 2.349 . S
Tb41 O54 2.415 . S
Tb41 O55 2.399 . S
Tb41 O56 2.325 . S
Tb41 O59 2.303 . S
Tb41 C70 2.764 . S
C42 O58 1.261 . S
C42 O59 1.257 . S
C43 C46 1.358 . S
C43 C47 1.332 . S
C43 C49 1.504 . S
C44 C45 1.373 . S
C44 C48 1.308 . S
C45 C44 1.373 . S
C45 C46 1.429 . S
C45 H72 0.932 . S
C46 C43 1.358 . S
C46 C45 1.429 . S
C46 H73 0.930 . S
C47 C43 1.332 . S
C47 C48 1.394 . S
C47 H74 0.932 . S
C48 C44 1.308 . S
C48 C47 1.394 . S
C48 H75 0.929 . S
C49 Tb40 2.764 1_565 S
C49 C43 1.504 . S
C49 O61 1.239 . S
C49 O62 1.263 . S
O50 Tb40 2.325 1_565 S
O50 C60 1.236 . S
O51 Tb41 2.322 . S
O51 C60 1.257 1_545 S
O52 Tb41 2.349 . S
O52 C63 1.261 . S
O53 Tb40 2.303 . S
O53 C63 1.257 . S
O54 Tb41 2.415 . S
O54 C70 1.239 . S
O55 Tb41 2.399 . S
O55 C70 1.263 . S
O56 Tb41 2.325 . S
O56 C71 1.236 . S
O57 Tb40 2.322 . S
O57 C71 1.257 . S
O58 Tb40 2.349 . S
O58 C42 1.261 . S
O59 Tb41 2.303 . S
O59 C42 1.257 . S
C60 O50 1.236 . S
C60 O51 1.257 1_565 S
O61 Tb40 2.415 1_565 S
O61 C49 1.239 . S
O62 Tb40 2.399 1_565 S
O62 C49 1.263 . S
C63 O52 1.261 . S
C63 O53 1.257 . S
C64 C67 1.358 . S
C64 C68 1.332 . S
C64 C70 1.504 . S
C65 C66 1.373 . S
C65 C69 1.308 . S
C66 C65 1.373 . S
C66 C67 1.429 . S
C66 H76 0.932 . S
C67 C64 1.358 . S
C67 C66 1.429 . S
C67 H77 0.930 . S
C68 C64 1.332 . S
C68 C69 1.394 . S
C68 H78 0.932 . S
C69 C65 1.308 . S
C69 C68 1.394 . S
C69 H79 0.929 . S
C70 Tb41 2.764 . S
C70 O54 1.239 . S
C70 O55 1.263 . S
C70 C64 1.504 . S
C71 O56 1.236 . S
C71 O57 1.257 . S
H72 C45 0.932 . S
H73 C46 0.930 . S
H74 C47 0.932 . S
H75 C48 0.929 . S
H76 C66 0.932 . S
H77 C67 0.930 . S
H78 C68 0.932 . S
H79 C69 0.929 . S
Tb80 C89 2.764 . S
Tb80 O90 2.325 . S
Tb80 O93 2.303 . S
Tb80 O97 2.322 . S
Tb80 O98 2.349 . S
Tb80 O101 2.415 . S
Tb80 O102 2.399 . S
Tb81 O91 2.322 . S
Tb81 O92 2.349 . S
Tb81 O94 2.415 . S
Tb81 O95 2.399 . S
Tb81 O96 2.325 . S
Tb81 O99 2.303 . S
Tb81 C110 2.764 . S
C82 O98 1.261 . S
C82 O99 1.257 . S
C83 C86 1.358 . S
C83 C87 1.332 . S
C83 C89 1.504 . S
C84 C85 1.373 . S
C84 C88 1.308 . S
C85 C84 1.373 . S
C85 C86 1.429 . S
C85 H112 0.932 . S
C86 C83 1.358 . S
C86 C85 1.429 . S
C86 H113 0.930 . S
C87 C83 1.332 . S
C87 C88 1.394 . S
C87 H114 0.932 . S
C88 C84 1.308 . S
C88 C87 1.394 . S
C88 H115 0.929 . S
C89 Tb80 2.764 . S
C89 C83 1.504 . S
C89 O101 1.239 . S
C89 O102 1.263 . S
O90 Tb80 2.325 . S
O90 C100 1.236 . S
O91 Tb81 2.322 . S
O91 C100 1.257 . S
O92 Tb81 2.349 . S
O92 C103 1.261 . S
O93 Tb80 2.303 . S
O93 C103 1.257 . S
O94 Tb81 2.415 . S
O94 C110 1.239 . S
O95 Tb81 2.399 . S
O95 C110 1.263 . S
O96 Tb81 2.325 . S
O96 C111 1.236 . S
O97 Tb80 2.322 . S
O97 C111 1.257 . S
O98 Tb80 2.349 . S
O98 C82 1.261 . S
O99 Tb81 2.303 . S
O99 C82 1.257 . S
C100 O90 1.236 . S
C100 O91 1.257 . S
O101 Tb80 2.415 . S
O101 C89 1.239 . S
O102 Tb80 2.399 . S
O102 C89 1.263 . S
C103 O92 1.261 . S
C103 O93 1.257 . S
C104 C107 1.358 . S
C104 C108 1.332 . S
C104 C110 1.504 . S
C105 C106 1.373 . S
C105 C109 1.308 . S
C106 C105 1.373 . S
C106 C107 1.429 . S
C106 H116 0.932 . S
C107 C104 1.358 . S
C107 C106 1.429 . S
C107 H117 0.930 . S
C108 C104 1.332 . S
C108 C109 1.394 . S
C108 H118 0.932 . S
C109 C105 1.308 . S
C109 C108 1.394 . S
C109 H119 0.929 . S
C110 Tb81 2.764 . S
C110 O94 1.239 . S
C110 O95 1.263 . S
C110 C104 1.504 . S
C111 O96 1.236 . S
C111 O97 1.257 . S
H112 C85 0.932 . S
H113 C86 0.930 . S
H114 C87 0.932 . S
H115 C88 0.929 . S
H116 C106 0.932 . S
H117 C107 0.930 . S
H118 C108 0.932 . S
H119 C109 0.929 . S
H120 C125 0.930 . S
H121 C128 0.930 . S
H122 C130 0.930 . S
H123 C124 1.016 . S
C124 H123 1.016 . S
C124 N131 1.286 . S
C125 H120 0.930 . S
C125 C126 1.397 . S
C125 C127 1.361 . S
C126 C125 1.397 . S
C126 C130 1.390 . S
C127 C125 1.361 . S
C127 C128 1.393 . S
C127 N131 1.413 . S
C128 H121 0.930 . S
C128 C127 1.393 . S
C128 C129 1.399 . S
C129 C128 1.399 . S
C129 C130 1.381 . S
C130 H122 0.930 . S
C130 C126 1.390 . S
C130 C129 1.381 . S
N131 C124 1.286 . S
N131 C127 1.413 . S
H132 C137 0.930 . S
H133 C140 0.930 . S
H134 C142 0.930 . S
H135 C136 1.016 . S
C136 H135 1.016 . S
C136 N143 1.286 . S
C137 H132 0.930 . S
C137 C138 1.397 . S
C137 C139 1.361 . S
C138 C137 1.397 . S
C138 C142 1.390 . S
C139 C137 1.361 . S
C139 C140 1.393 . S
C139 N143 1.413 . S
C140 H133 0.930 . S
C140 C139 1.393 . S
C140 C141 1.399 . S
C141 C140 1.399 . S
C141 C142 1.381 . S
C142 H134 0.930 . S
C142 C138 1.390 . S
C142 C141 1.381 . S
N143 C136 1.286 . S
N143 C139 1.413 . S
H144 C149 0.930 . S
H145 C152 0.930 . S
H146 C154 0.930 1_655 S
H147 C148 1.016 . S
C148 H147 1.016 . S
C148 N155 1.286 . S
C149 H144 0.930 . S
C149 C150 1.397 1_455 S
C149 C151 1.361 . S
C150 C149 1.397 1_655 S
C150 C154 1.390 1_655 S
C151 C149 1.361 . S
C151 C152 1.393 . S
C151 N155 1.413 . S
C152 H145 0.930 . S
C152 C151 1.393 . S
C152 C153 1.399 . S
C153 C152 1.399 . S
C153 C154 1.381 . S
C154 H146 0.930 1_455 S
C154 C150 1.390 1_455 S
C154 C153 1.381 . S
N155 C148 1.286 . S
N155 C151 1.413 . S
H156 C161 0.930 . S
H157 C164 0.930 . S
H158 C166 0.930 . S
H159 C160 1.016 . S
C160 H159 1.016 . S
C160 N167 1.286 . S
C161 H156 0.930 . S
C161 C162 1.397 . S
C161 C163 1.361 1_455 S
C162 C161 1.397 . S
C162 C166 1.390 . S
C163 C161 1.361 1_655 S
C163 C164 1.393 . S
C163 N167 1.413 . S
C164 H157 0.930 . S
C164 C163 1.393 . S
C164 C165 1.399 1_655 S
C165 C164 1.399 1_455 S
C165 C166 1.381 . S
C166 H158 0.930 . S
C166 C162 1.390 . S
C166 C165 1.381 . S
N167 C160 1.286 . S
N167 C163 1.413 . S
H168 C173 0.930 . S
H169 C176 0.930 . S
H170 C178 0.930 . S
H171 C172 1.016 . S
C172 H171 1.016 . S
C172 N179 1.286 . S
C173 H168 0.930 . S
C173 C174 1.397 . S
C173 C175 1.361 . S
C174 C173 1.397 . S
C174 C178 1.390 . S
C175 C173 1.361 . S
C175 C176 1.393 1_545 S
C175 N179 1.413 1_545 S
C176 H169 0.930 . S
C176 C175 1.393 1_565 S
C176 C177 1.399 1_565 S
C177 C176 1.399 1_545 S
C177 C178 1.381 . S
C178 H170 0.930 . S
C178 C174 1.390 . S
C178 C177 1.381 . S
N179 C172 1.286 . S
N179 C175 1.413 1_565 S
H180 C185 0.930 . S
H181 C188 0.930 . S
H182 C190 0.930 . S
H183 C184 1.016 . S
C184 H183 1.016 . S
C184 N191 1.286 . S
C185 H180 0.930 . S
C185 C186 1.397 . S
C185 C187 1.361 . S
C186 C185 1.397 . S
C186 C190 1.390 . S
C187 C185 1.361 . S
C187 C188 1.393 . S
C187 N191 1.413 . S
C188 H181 0.930 . S
C188 C187 1.393 . S
C188 C189 1.399 . S
C189 C188 1.399 . S
C189 C190 1.381 . S
C190 H182 0.930 . S
C190 C186 1.390 . S
C190 C189 1.381 . S
N191 C184 1.286 . S
N191 C187 1.413 . S
H192 C198 0.930 . S
H193 C202 0.930 . S
H194 C207 0.929 . S
H195 C205 0.929 . S
H196 C200 0.929 . S
H197 C206 0.929 . S
C198 H192 0.930 . S
C198 C199 1.367 . S
C198 C206 1.378 . S
C199 C198 1.367 . S
C199 C207 1.433 . S
C200 H196 0.929 . S
C200 C202 1.378 . S
C200 C204 1.350 . S
C201 C204 1.463 . S
C201 C206 1.350 . S
C201 N209 1.427 . S
C202 H193 0.930 . S
C202 C200 1.378 . S
C202 C203 1.367 . S
C203 C202 1.367 . S
C203 C205 1.433 . S
C204 C200 1.350 . S
C204 C201 1.463 . S
C204 N208 1.427 . S
C205 H195 0.929 . S
C205 C203 1.433 . S
C205 N208 1.384 . S
C206 H197 0.929 . S
C206 C198 1.378 . S
C206 C201 1.350 . S
C207 H194 0.929 . S
C207 C199 1.433 . S
C207 N209 1.384 . S
N208 C204 1.427 . S
N208 C205 1.384 . S
N209 C201 1.427 . S
N209 C207 1.384 . S
H210 C216 0.930 . S
H211 C220 0.930 . S
H212 C225 0.929 . S
H213 C223 0.929 . S
H214 C218 0.929 . S
H215 C224 0.929 . S
C216 H210 0.930 . S
C216 C217 1.367 . S
C216 C224 1.378 . S
C217 C216 1.367 . S
C217 C225 1.433 . S
C218 H214 0.929 . S
C218 C220 1.378 . S
C218 C222 1.350 . S
C219 C222 1.463 . S
C219 C224 1.350 . S
C219 N227 1.427 . S
C220 H211 0.930 . S
C220 C218 1.378 . S
C220 C221 1.367 . S
C221 C220 1.367 . S
C221 C223 1.433 . S
C222 C218 1.350 . S
C222 C219 1.463 . S
C222 N226 1.427 . S
C223 H213 0.929 . S
C223 C221 1.433 . S
C223 N226 1.384 . S
C224 H215 0.929 . S
C224 C216 1.378 . S
C224 C219 1.350 . S
C225 H212 0.929 . S
C225 C217 1.433 . S
C225 N227 1.384 . S
N226 C222 1.427 . S
N226 C223 1.384 . S
N227 C219 1.427 . S
N227 C225 1.384 . S
H228 C234 0.930 . S
H229 C238 0.930 . S
H230 C243 0.929 . S
H231 C241 0.929 . S
H232 C236 0.929 . S
H233 C242 0.929 . S
C234 H228 0.930 . S
C234 C235 1.367 . S
C234 C242 1.378 . S
C235 C234 1.367 . S
C235 C243 1.433 . S
C236 H232 0.929 . S
C236 C238 1.378 . S
C236 C240 1.350 . S
C237 C240 1.463 . S
C237 C242 1.350 . S
C237 N245 1.427 . S
C238 H229 0.930 . S
C238 C236 1.378 . S
C238 C239 1.367 . S
C239 C238 1.367 . S
C239 C241 1.433 . S
C240 C236 1.350 . S
C240 C237 1.463 . S
C240 N244 1.427 . S
C241 H231 0.929 . S
C241 C239 1.433 . S
C241 N244 1.384 . S
C242 H233 0.929 . S
C242 C234 1.378 . S
C242 C237 1.350 . S
C243 H230 0.929 . S
C243 C235 1.433 . S
C243 N245 1.384 . S
N244 C240 1.427 . S
N244 C241 1.384 . S
N245 C237 1.427 . S
N245 C243 1.384 . S
H246 C252 0.930 . S
H247 C256 0.930 . S
H248 C261 0.929 . S
H249 C259 0.929 . S
H250 C254 0.929 . S
H251 C260 0.929 . S
C252 H246 0.930 . S
C252 C253 1.367 . S
C252 C260 1.378 . S
C253 C252 1.367 . S
C253 C261 1.433 . S
C254 H250 0.929 . S
C254 C256 1.378 . S
C254 C258 1.350 . S
C255 C258 1.463 . S
C255 C260 1.350 . S
C255 N263 1.427 . S
C256 H247 0.930 . S
C256 C254 1.378 . S
C256 C257 1.367 . S
C257 C256 1.367 . S
C257 C259 1.433 . S
C258 C254 1.350 . S
C258 C255 1.463 . S
C258 N262 1.427 . S
C259 H249 0.929 . S
C259 C257 1.433 . S
C259 N262 1.384 . S
C260 H251 0.929 . S
C260 C252 1.378 . S
C260 C255 1.350 . S
C261 H248 0.929 . S
C261 C253 1.433 . S
C261 N263 1.384 . S
N262 C258 1.427 . S
N262 C259 1.384 . S
N263 C255 1.427 . S
N263 C261 1.384 . S
H264 C270 0.930 . S
H265 C274 0.930 . S
H266 C279 0.929 . S
H267 C277 0.929 . S
H268 C272 0.929 . S
H269 C278 0.929 . S
C270 H264 0.930 . S
C270 C271 1.367 . S
C270 C278 1.378 . S
C271 C270 1.367 . S
C271 C279 1.433 . S
C272 H268 0.929 . S
C272 C274 1.378 . S
C272 C276 1.350 . S
C273 C276 1.463 . S
C273 C278 1.350 . S
C273 N281 1.427 . S
C274 H265 0.930 . S
C274 C272 1.378 . S
C274 C275 1.367 . S
C275 C274 1.367 . S
C275 C277 1.433 . S
C276 C272 1.350 . S
C276 C273 1.463 . S
C276 N280 1.427 . S
C277 H267 0.929 . S
C277 C275 1.433 . S
C277 N280 1.384 . S
C278 H269 0.929 . S
C278 C270 1.378 . S
C278 C273 1.350 . S
C279 H266 0.929 . S
C279 C271 1.433 . S
C279 N281 1.384 . S
N280 C276 1.427 . S
N280 C277 1.384 . S
N281 C273 1.427 . S
N281 C279 1.384 . S
H282 C288 0.930 . S
H283 C292 0.930 . S
H284 C297 0.929 . S
H285 C295 0.929 . S
H286 C290 0.929 . S
H287 C296 0.929 . S
C288 H282 0.930 . S
C288 C289 1.367 . S
C288 C296 1.378 . S
C289 C288 1.367 . S
C289 C297 1.433 . S
C290 H286 0.929 . S
C290 C292 1.378 . S
C290 C294 1.350 . S
C291 C294 1.463 . S
C291 C296 1.350 . S
C291 N299 1.427 . S
C292 H283 0.930 . S
C292 C290 1.378 . S
C292 C293 1.367 . S
C293 C292 1.367 . S
C293 C295 1.433 . S
C294 C290 1.350 . S
C294 C291 1.463 . S
C294 N298 1.427 . S
C295 H285 0.929 . S
C295 C293 1.433 . S
C295 N298 1.384 . S
C296 H287 0.929 . S
C296 C288 1.378 . S
C296 C291 1.350 . S
C297 H284 0.929 . S
C297 C289 1.433 . S
C297 N299 1.384 . S
N298 C294 1.427 . S
N298 C295 1.384 . S
N299 C291 1.427 . S
N299 C297 1.384 . S
H300 C306 0.930 . S
H301 C310 0.930 . S
H302 C315 0.929 . S
H303 C313 0.929 . S
H304 C308 0.929 . S
H305 C314 0.929 . S
C306 H300 0.930 . S
C306 C307 1.367 . S
C306 C314 1.378 . S
C307 C306 1.367 . S
C307 C315 1.433 . S
C308 H304 0.929 . S
C308 C310 1.378 . S
C308 C312 1.350 . S
C309 C312 1.463 . S
C309 C314 1.350 . S
C309 N317 1.427 . S
C310 H301 0.930 . S
C310 C308 1.378 . S
C310 C311 1.367 . S
C311 C310 1.367 . S
C311 C313 1.433 . S
C312 C308 1.350 . S
C312 C309 1.463 . S
C312 N316 1.427 . S
C313 H303 0.929 . S
C313 C311 1.433 . S
C313 N316 1.384 . S
C314 H305 0.929 . S
C314 C306 1.378 . S
C314 C309 1.350 . S
C315 H302 0.929 . S
C315 C307 1.433 . S
C315 N317 1.384 . S
N316 C312 1.427 . S
N316 C313 1.384 . S
N317 C309 1.427 . S
N317 C315 1.384 . S
H318 C324 0.930 . S
H319 C328 0.930 . S
H320 C333 0.929 . S
H321 C331 0.929 . S
H322 C326 0.929 . S
H323 C332 0.929 . S
C324 H318 0.930 . S
C324 C325 1.367 . S
C324 C332 1.378 . S
C325 C324 1.367 . S
C325 C333 1.433 . S
C326 H322 0.929 . S
C326 C328 1.378 . S
C326 C330 1.350 . S
C327 C330 1.463 . S
C327 C332 1.350 . S
C327 N335 1.427 . S
C328 H319 0.930 . S
C328 C326 1.378 . S
C328 C329 1.367 . S
C329 C328 1.367 . S
C329 C331 1.433 . S
C330 C326 1.350 . S
C330 C327 1.463 . S
C330 N334 1.427 . S
C331 H321 0.929 . S
C331 C329 1.433 . S
C331 N334 1.384 . S
C332 H323 0.929 . S
C332 C324 1.378 . S
C332 C327 1.350 . S
C333 H320 0.929 . S
C333 C325 1.433 . S
C333 N335 1.384 . S
N334 C330 1.427 . S
N334 C331 1.384 . S
N335 C327 1.427 . S
N335 C333 1.384 . S
H336 C342 0.930 . S
H337 C346 0.930 . S
H338 C351 0.929 . S
H339 C349 0.929 . S
H340 C344 0.929 . S
H341 C350 0.929 . S
C342 H336 0.930 . S
C342 C343 1.367 . S
C342 C350 1.378 . S
C343 C342 1.367 . S
C343 C351 1.433 . S
C344 H340 0.929 . S
C344 C346 1.378 . S
C344 C348 1.350 . S
C345 C348 1.463 . S
C345 C350 1.350 . S
C345 N353 1.427 . S
C346 H337 0.930 . S
C346 C344 1.378 . S
C346 C347 1.367 . S
C347 C346 1.367 . S
C347 C349 1.433 . S
C348 C344 1.350 . S
C348 C345 1.463 . S
C348 N352 1.427 . S
C349 H339 0.929 . S
C349 C347 1.433 . S
C349 N352 1.384 . S
C350 H341 0.929 . S
C350 C342 1.378 . S
C350 C345 1.350 . S
C351 H338 0.929 . S
C351 C343 1.433 . S
C351 N353 1.384 . S
N352 C348 1.427 . S
N352 C349 1.384 . S
N353 C345 1.427 . S
N353 C351 1.384 . S
H354 C360 0.930 . S
H355 C364 0.930 . S
H356 C369 0.929 . S
H357 C367 0.929 . S
H358 C362 0.929 . S
H359 C368 0.929 . S
C360 H354 0.930 . S
C360 C361 1.367 . S
C360 C368 1.378 . S
C361 C360 1.367 . S
C361 C369 1.433 . S
C362 H358 0.929 . S
C362 C364 1.378 . S
C362 C366 1.350 . S
C363 C366 1.463 . S
C363 C368 1.350 . S
C363 N371 1.427 . S
C364 H355 0.930 . S
C364 C362 1.378 . S
C364 C365 1.367 . S
C365 C364 1.367 . S
C365 C367 1.433 . S
C366 C362 1.350 . S
C366 C363 1.463 . S
C366 N370 1.427 . S
C367 H357 0.929 . S
C367 C365 1.433 . S
C367 N370 1.384 . S
C368 H359 0.929 . S
C368 C360 1.378 . S
C368 C363 1.350 . S
C369 H356 0.929 . S
C369 C361 1.433 . S
C369 N371 1.384 . S
N370 C366 1.427 . S
N370 C367 1.384 . S
N371 C363 1.427 . S
N371 C369 1.384 . S
H372 C378 0.930 . S
H373 C382 0.930 . S
H374 C387 0.929 . S
H375 C385 0.929 . S
H376 C380 0.929 . S
H377 C386 0.929 . S
C378 H372 0.930 . S
C378 C379 1.367 . S
C378 C386 1.378 . S
C379 C378 1.367 . S
C379 C387 1.433 . S
C380 H376 0.929 . S
C380 C382 1.378 . S
C380 C384 1.350 . S
C381 C384 1.463 . S
C381 C386 1.350 . S
C381 N389 1.427 . S
C382 H373 0.930 . S
C382 C380 1.378 . S
C382 C383 1.367 . S
C383 C382 1.367 . S
C383 C385 1.433 . S
C384 C380 1.350 . S
C384 C381 1.463 . S
C384 N388 1.427 . S
C385 H375 0.929 . S
C385 C383 1.433 . S
C385 N388 1.384 . S
C386 H377 0.929 . S
C386 C378 1.378 . S
C386 C381 1.350 . S
C387 H374 0.929 . S
C387 C379 1.433 . S
C387 N389 1.384 . S
N388 C384 1.427 . S
N388 C385 1.384 . S
N389 C381 1.427 . S
N389 C387 1.384 . S
H390 C396 0.930 . S
H391 C400 0.930 . S
H392 C405 0.929 . S
H393 C403 0.929 . S
H394 C398 0.929 . S
H395 C404 0.929 . S
C396 H390 0.930 . S
C396 C397 1.367 . S
C396 C404 1.378 . S
C397 C396 1.367 . S
C397 C405 1.433 . S
C398 H394 0.929 . S
C398 C400 1.378 . S
C398 C402 1.350 . S
C399 C402 1.463 . S
C399 C404 1.350 . S
C399 N407 1.427 . S
C400 H391 0.930 . S
C400 C398 1.378 . S
C400 C401 1.367 . S
C401 C400 1.367 . S
C401 C403 1.433 . S
C402 C398 1.350 . S
C402 C399 1.463 . S
C402 N406 1.427 . S
C403 H393 0.929 . S
C403 C401 1.433 . S
C403 N406 1.384 . S
C404 H395 0.929 . S
C404 C396 1.378 . S
C404 C399 1.350 . S
C405 H392 0.929 . S
C405 C397 1.433 . S
C405 N407 1.384 . S
N406 C402 1.427 . S
N406 C403 1.384 . S
N407 C399 1.427 . S
N407 C405 1.384 . S
H408 C414 0.930 . S
H409 C418 0.930 1_655 S
H410 C423 0.929 . S
H411 C421 0.929 . S
H412 C416 0.929 1_655 S
H413 C422 0.929 . S
C414 H408 0.930 . S
C414 C415 1.367 . S
C414 C422 1.378 . S
C415 C414 1.367 . S
C415 C423 1.433 . S
C416 H412 0.929 1_455 S
C416 C418 1.378 . S
C416 C420 1.350 . S
C417 C420 1.463 1_554 S
C417 C422 1.350 . S
C417 N425 1.427 . S
C418 H409 0.930 1_455 S
C418 C416 1.378 . S
C418 C419 1.367 . S
C419 C418 1.367 . S
C419 C421 1.433 . S
C420 C416 1.350 . S
C420 C417 1.463 1_556 S
C420 N424 1.427 . S
C421 H411 0.929 . S
C421 C419 1.433 . S
C421 N424 1.384 . S
C422 H413 0.929 . S
C422 C414 1.378 . S
C422 C417 1.350 . S
C423 H410 0.929 . S
C423 C415 1.433 . S
C423 N425 1.384 . S
N424 C420 1.427 . S
N424 C421 1.384 . S
N425 C417 1.427 . S
N425 C423 1.384 . S
H426 C432 0.930 . S
H427 C436 0.930 1_565 S
H428 C441 0.929 1_565 S
H429 C439 0.929 . S
H430 C434 0.929 1_565 S
H431 C440 0.929 . S
C432 H426 0.930 . S
C432 C433 1.367 . S
C432 C440 1.378 . S
C433 C432 1.367 . S
C433 C441 1.433 . S
C434 H430 0.929 1_545 S
C434 C436 1.378 . S
C434 C438 1.350 . S
C435 C438 1.463 . S
C435 C440 1.350 . S
C435 N443 1.427 . S
C436 H427 0.930 1_545 S
C436 C434 1.378 . S
C436 C437 1.367 . S
C437 C436 1.367 . S
C437 C439 1.433 . S
C438 C434 1.350 . S
C438 C435 1.463 . S
C438 N442 1.427 . S
C439 H429 0.929 . S
C439 C437 1.433 . S
C439 N442 1.384 . S
C440 H431 0.929 . S
C440 C432 1.378 . S
C440 C435 1.350 . S
C441 H428 0.929 1_545 S
C441 C433 1.433 . S
C441 N443 1.384 . S
N442 C438 1.427 . S
N442 C439 1.384 . S
N443 C435 1.427 . S
N443 C441 1.384 . S
H444 C450 0.930 . S
H445 C454 0.930 . S
H446 C459 0.929 . S
H447 C457 0.929 . S
H448 C452 0.929 . S
H449 C458 0.929 . S
C450 H444 0.930 . S
C450 C451 1.367 . S
C450 C458 1.378 . S
C451 C450 1.367 . S
C451 C459 1.433 . S
C452 H448 0.929 . S
C452 C454 1.378 . S
C452 C456 1.350 . S
C453 C456 1.463 . S
C453 C458 1.350 . S
C453 N461 1.427 . S
C454 H445 0.930 . S
C454 C452 1.378 . S
C454 C455 1.367 . S
C455 C454 1.367 . S
C455 C457 1.433 . S
C456 C452 1.350 . S
C456 C453 1.463 . S
C456 N460 1.427 . S
C457 H447 0.929 . S
C457 C455 1.433 . S
C457 N460 1.384 . S
C458 H449 0.929 . S
C458 C450 1.378 . S
C458 C453 1.350 . S
C459 H446 0.929 . S
C459 C451 1.433 . S
C459 N461 1.384 . S
N460 C456 1.427 . S
N460 C457 1.384 . S
N461 C453 1.427 . S
N461 C459 1.384 . S
H462 C468 0.930 . S
H463 C472 0.930 . S
H464 C477 0.929 1_565 S
H465 C475 0.929 . S
H466 C470 0.929 . S
H467 C476 0.929 . S
C468 H462 0.930 . S
C468 C469 1.367 . S
C468 C476 1.378 . S
C469 C468 1.367 . S
C469 C477 1.433 . S
C470 H466 0.929 . S
C470 C472 1.378 . S
C470 C474 1.350 1_565 S
C471 C474 1.463 . S
C471 C476 1.350 . S
C471 N479 1.427 . S
C472 H463 0.930 . S
C472 C470 1.378 . S
C472 C473 1.367 1_565 S
C473 C472 1.367 1_545 S
C473 C475 1.433 . S
C474 C470 1.350 1_545 S
C474 C471 1.463 . S
C474 N478 1.427 . S
C475 H465 0.929 . S
C475 C473 1.433 . S
C475 N478 1.384 . S
C476 H467 0.929 . S
C476 C468 1.378 . S
C476 C471 1.350 . S
C477 H464 0.929 1_545 S
C477 C469 1.433 . S
C477 N479 1.384 . S
N478 C474 1.427 . S
N478 C475 1.384 . S
N479 C471 1.427 . S
N479 C477 1.384 . S
H480 C486 0.930 . S
H481 C490 0.930 . S
H482 C495 0.929 . S
H483 C493 0.929 . S
H484 C488 0.941 . S
H485 C494 0.929 . S
C486 H480 0.930 . S
C486 C487 1.367 . S
C486 C494 1.378 . S
C487 C486 1.367 . S
C487 C495 1.433 . S
C488 H484 0.941 . S
C488 C490 1.378 . S
C488 C492 1.350 1_554 S
C489 C492 1.463 . S
C489 C494 1.350 . S
C489 N497 1.427 . S
C490 H481 0.930 . S
C490 C488 1.378 . S
C490 C491 1.367 . S
C491 C490 1.367 . S
C491 C493 1.433 . S
C492 C488 1.350 1_556 S
C492 C489 1.463 . S
C492 N496 1.427 . S
C493 H483 0.929 . S
C493 C491 1.433 . S
C493 N496 1.384 1_554 S
C494 H485 0.929 . S
C494 C486 1.378 . S
C494 C489 1.350 . S
C495 H482 0.929 . S
C495 C487 1.433 . S
C495 N497 1.384 . S
N496 C492 1.427 . S
N496 C493 1.384 1_556 S
N497 C489 1.427 . S
N497 C495 1.384 . S
H498 C504 0.930 . S
H499 C508 0.930 . S
H500 C513 0.929 . S
H501 C511 0.929 . S
H502 C506 0.929 . S
H503 C512 0.929 . S
C504 H498 0.930 . S
C504 C505 1.367 . S
C504 C512 1.378 . S
C505 C504 1.367 . S
C505 C513 1.433 . S
C506 H502 0.929 . S
C506 C508 1.378 . S
C506 C510 1.350 . S
C507 C510 1.463 . S
C507 C512 1.350 . S
C507 N515 1.427 . S
C508 H499 0.930 . S
C508 C506 1.378 . S
C508 C509 1.367 . S
C509 C508 1.367 . S
C509 C511 1.433 . S
C510 C506 1.350 . S
C510 C507 1.463 . S
C510 N514 1.427 . S
C511 H501 0.929 . S
C511 C509 1.433 . S
C511 N514 1.384 . S
C512 H503 0.929 . S
C512 C504 1.378 . S
C512 C507 1.350 . S
C513 H500 0.929 . S
C513 C505 1.433 . S
C513 N515 1.384 . S
N514 C510 1.427 . S
N514 C511 1.384 . S
N515 C507 1.427 . S
N515 C513 1.384 . S
C199 C25 0.612 . S
C203 C186 0.613 . S
C217 C65 0.328 . S
C221 C160 0.289 . S
C235 C105 0.408 . S
C239 C172 0.265 . S
C253 C4 0.362 . S
C257 C184 0.279 . S
C275 C162 0.164 . S
C271 C44 0.276 . S
C293 C174 0.225 . S
C289 C84 0.205 . S
C307 C60 3.032 . S
C311 C136 2.955 . S
C325 C100 3.345 . S
C329 C150 3.313 . S
C343 C31 2.995 . S
C347 C126 2.943 1_565 S
C365 C138 2.949 . S
C361 C71 2.994 . S
C383 C148 2.627 . S
C379 C111 2.723 . S
C397 C20 3.035 . S
C401 C124 2.960 . S
C419 C153 1.801 . S
C415 C2 1.724 . S
C433 C42 1.758 . S
C437 C129 1.767 . S
C451 C82 1.716 . S
C455 C141 1.743 . S
C473 C177 1.196 . S
C469 C63 1.167 . S
C491 C189 1.217 . S
C487 C103 1.208 . S
C505 C23 1.148 . S
C509 C165 1.164 . S
