# Generated by pormake.
# Topology sqc, (4,8)-cn, num edge types: 1
# Building blocks:
#     Node 0, Type 0, BuildingBlock: MIFKUJ_clean_linker_1, # of connection points: 4
#     Node 1, Type 0, BuildingBlock: MIFKUJ_clean_linker_1, # of connection points: 4
#     Node 2, Type 0, BuildingBlock: MIFKUJ_clean_linker_1, # of connection points: 4
#     Node 3, Type 0, BuildingBlock: MIFKUJ_clean_linker_1, # of connection points: 4
#     Node 4, Type 0, BuildingBlock: MIFKUJ_clean_linker_1, # of connection points: 4
#     Node 5, Type 0, BuildingBlock: MIFKUJ_clean_linker_1, # of connection points: 4
#     Node 6, Type 0, BuildingBlock: MIFKUJ_clean_linker_1, # of connection points: 4
#     Node 7, Type 0, BuildingBlock: MIFKUJ_clean_linker_1, # of connection points: 4
#     Node 8, Type 1, BuildingBlock: TAGTUT_clean_sbu_3, # of connection points: 8
#     Node 9, Type 1, BuildingBlock: TAGTUT_clean_sbu_3, # of connection points: 8
#     Node 10, Type 1, BuildingBlock: TAGTUT_clean_sbu_3, # of connection points: 8
#     Node 11, Type 1, BuildingBlock: TAGTUT_clean_sbu_3, # of connection points: 8
#     Edge 12, Type (0, 1), BuildingBlock: XIVTED_clean_linker_0, # of connection points: 2
#     Edge 13, Type (0, 1), BuildingBlock: XIVTED_clean_linker_0, # of connection points: 2
#     Edge 14, Type (0, 1), BuildingBlock: XIVTED_clean_linker_0, # of connection points: 2
#     Edge 15, Type (0, 1), BuildingBlock: XIVTED_clean_linker_0, # of connection points: 2
#     Edge 16, Type (0, 1), BuildingBlock: XIVTED_clean_linker_0, # of connection points: 2
#     Edge 17, Type (0, 1), BuildingBlock: XIVTED_clean_linker_0, # of connection points: 2
#     Edge 18, Type (0, 1), BuildingBlock: XIVTED_clean_linker_0, # of connection points: 2
#     Edge 19, Type (0, 1), BuildingBlock: XIVTED_clean_linker_0, # of connection points: 2
#     Edge 20, Type (0, 1), BuildingBlock: XIVTED_clean_linker_0, # of connection points: 2
#     Edge 21, Type (0, 1), BuildingBlock: XIVTED_clean_linker_0, # of connection points: 2
#     Edge 22, Type (0, 1), BuildingBlock: XIVTED_clean_linker_0, # of connection points: 2
#     Edge 23, Type (0, 1), BuildingBlock: XIVTED_clean_linker_0, # of connection points: 2
#     Edge 24, Type (0, 1), BuildingBlock: XIVTED_clean_linker_0, # of connection points: 2
#     Edge 25, Type (0, 1), BuildingBlock: XIVTED_clean_linker_0, # of connection points: 2
#     Edge 26, Type (0, 1), BuildingBlock: XIVTED_clean_linker_0, # of connection points: 2
#     Edge 27, Type (0, 1), BuildingBlock: XIVTED_clean_linker_0, # of connection points: 2
#     Edge 28, Type (0, 1), BuildingBlock: XIVTED_clean_linker_0, # of connection points: 2
#     Edge 29, Type (0, 1), BuildingBlock: XIVTED_clean_linker_0, # of connection points: 2
#     Edge 30, Type (0, 1), BuildingBlock: XIVTED_clean_linker_0, # of connection points: 2
#     Edge 31, Type (0, 1), BuildingBlock: XIVTED_clean_linker_0, # of connection points: 2
#     Edge 32, Type (0, 1), BuildingBlock: XIVTED_clean_linker_0, # of connection points: 2
#     Edge 33, Type (0, 1), BuildingBlock: XIVTED_clean_linker_0, # of connection points: 2
#     Edge 34, Type (0, 1), BuildingBlock: XIVTED_clean_linker_0, # of connection points: 2
#     Edge 35, Type (0, 1), BuildingBlock: XIVTED_clean_linker_0, # of connection points: 2
#     Edge 36, Type (0, 1), BuildingBlock: XIVTED_clean_linker_0, # of connection points: 2
#     Edge 37, Type (0, 1), BuildingBlock: XIVTED_clean_linker_0, # of connection points: 2
#     Edge 38, Type (0, 1), BuildingBlock: XIVTED_clean_linker_0, # of connection points: 2
#     Edge 39, Type (0, 1), BuildingBlock: XIVTED_clean_linker_0, # of connection points: 2
#     Edge 40, Type (0, 1), BuildingBlock: XIVTED_clean_linker_0, # of connection points: 2
#     Edge 41, Type (0, 1), BuildingBlock: XIVTED_clean_linker_0, # of connection points: 2
#     Edge 42, Type (0, 1), BuildingBlock: XIVTED_clean_linker_0, # of connection points: 2
#     Edge 43, Type (0, 1), BuildingBlock: XIVTED_clean_linker_0, # of connection points: 2
# Relax obj value: 0.149
# Max RMSD: 0.261
# Mean RMSD: 0.181
data_MOF--net-sqc--node1-TAGTUT_clean_sbu_3--node2-MIFKUJ_clean_linker_1--edge1-XIVTED_clean_linker_0
_symmetry_space_group_name_H-M    P1
_symmetry_Int_Tables_number       1
_symmetry_cell_setting            triclinic
loop_
_symmetry_equiv_pos_as_xyz
'x, y, z'
_cell_length_a     28.564666
_cell_length_b     28.54418
_cell_length_c     85.080008
_cell_angle_alpha  91.063801
_cell_angle_beta   90.052798
_cell_angle_gamma 89.936982
loop_
_atom_site_label
_atom_site_type_symbol
_atom_site_fract_x
_atom_site_fract_y
_atom_site_fract_z
_atom_type_partial_charge
H0 H 0.93 0.9238 0.50149 0.0
H1 H 0.85712 0.90623 0.48774 0.0
H2 H 0.90891 0.97846 0.44699 0.0
H3 H 0.97967 -0.00054 0.46142 0.0
H4 H 0.04844 0.94568 0.47428 0.0
H5 H 0.9603 0.95999 0.52953 0.0
H6 H 0.88545 0.97684 0.54212 0.0
H7 H 0.86632 0.09508 0.51157 0.0
H8 H 0.9397 0.07517 0.49827 0.0
H9 H 0.1045 0.10372 0.50917 0.0
H10 H 0.17413 0.14036 0.5206 0.0
H11 H 0.22971 0.00344 0.53104 0.0
H12 H 0.16003 0.967 0.51931 0.0
H13 H 0.03929 0.04336 0.52303 0.0
H14 H 0.16316 0.03678 0.48354 0.0
H15 H 0.23898 0.01036 0.47396 0.0
H16 H 0.18906 0.86714 0.47355 0.0
H17 H 0.1154 0.89358 0.48482 0.0
C18 C 0.95981 0.96402 0.48264 0.0
C19 C 0.92512 0.93681 0.48974 0.0
C20 C 0.88366 0.92612 0.48172 0.0
C21 C 0.87658 0.94128 0.46624 0.0
C22 C 0.91223 0.96729 0.45903 0.0
C23 C 0.9532 0.97873 0.46717 0.0
C24 C 0.00265 0.97828 0.49133 0.0
C25 C 0.04663 0.96676 0.485 0.0
C26 C 0.00027 0.00509 0.50541 0.0
C27 C 0.95523 0.01639 0.51303 0.0
C28 C 0.93964 0.98934 0.52553 0.0
C29 C 0.8969 -0.00069 0.53277 0.0
C30 C 0.8696 0.0377 0.52803 0.0
C31 C 0.88564 0.06474 0.51541 0.0
C32 C 0.92792 0.05389 0.5079 0.0
C33 C 0.12724 0.03271 0.51337 0.0
C34 C 0.13163 0.08165 0.514 0.0
C35 C 0.17144 0.10252 0.52054 0.0
C36 C 0.20756 0.07485 0.52671 0.0
C37 C 0.2029 0.02573 0.52616 0.0
C38 C 0.16299 0.00484 0.51958 0.0
C39 C 0.08542 0.01143 0.50587 0.0
C40 C 0.04147 0.02185 0.5124 0.0
C41 C 0.08826 0.98237 0.49221 0.0
C42 C 0.13376 0.96714 0.48532 0.0
C43 C 0.16896 -0.00042 0.48176 0.0
C44 C 0.21227 0.98432 0.47598 0.0
C45 C 0.22084 0.93633 0.47299 0.0
C46 C 0.18479 0.90417 0.47609 0.0
C47 C 0.14205 0.91935 0.48231 0.0
H48 H 0.36687 0.83099 0.77071 0.0
H49 H 0.32715 0.90422 0.7776 0.0
H50 H 0.1948 0.84236 0.76375 0.0
H51 H 0.23486 0.76862 0.75753 0.0
H52 H 0.29249 0.7082 0.77549 0.0
H53 H 0.44406 0.79618 0.74178 0.0
H54 H 0.46007 0.85689 0.72259 0.0
H55 H 0.31358 0.8585 0.70976 0.0
H56 H 0.29788 0.7983 0.72904 0.0
H57 H 0.36922 0.6411 0.71826 0.0
H58 H 0.40644 0.57385 0.70544 0.0
H59 H 0.45921 0.52827 0.75017 0.0
H60 H 0.42326 0.59746 0.76313 0.0
H61 H 0.40901 0.71066 0.73234 0.0
H62 H 0.30464 0.58615 0.74747 0.0
H63 H 0.2866 0.51252 0.76029 0.0
H64 H 0.32294 0.57586 0.80526 0.0
H65 H 0.34389 0.64804 0.79221 0.0
C66 C 0.30371 0.79441 0.76373 0.0
C67 C 0.32924 0.83324 0.76928 0.0
C68 C 0.30648 0.87529 0.77301 0.0
C69 C 0.25769 0.87952 0.77111 0.0
C70 C 0.23226 0.84032 0.76556 0.0
C71 C 0.25504 0.79808 0.76201 0.0
C72 C 0.3283 0.75101 0.75874 0.0
C73 C 0.31813 0.70859 0.76609 0.0
C74 C 0.36153 0.75152 0.74651 0.0
C75 C 0.36978 0.79321 0.7369 0.0
C76 C 0.41535 0.81037 0.73503 0.0
C77 C 0.42446 0.84466 0.72398 0.0
C78 C 0.38814 0.86204 0.71457 0.0
C79 C 0.34219 0.84613 0.71694 0.0
C80 C 0.33312 0.81186 0.728 0.0
C81 C 0.3936 0.62444 0.74164 0.0
C82 C 0.38904 0.61695 0.72537 0.0
C83 C 0.41022 0.5786 0.71804 0.0
C84 C 0.43586 0.54652 0.72686 0.0
C85 C 0.43958 0.5529 0.74321 0.0
C86 C 0.41898 0.59211 0.75057 0.0
C87 C 0.37276 0.6673 0.74877 0.0
C88 C 0.38402 0.71004 0.74194 0.0
C89 C 0.33966 0.66645 0.76113 0.0
C90 C 0.32641 0.62234 0.76886 0.0
C91 C 0.3094 0.58384 0.76007 0.0
C92 C 0.29865 0.54187 0.76744 0.0
C93 C 0.30374 0.53791 0.78382 0.0
C94 C 0.3198 0.57702 0.79259 0.0
C95 C 0.33114 0.61867 0.78518 0.0
H96 H 0.54723 0.05071 0.02994 0.0
H97 H 0.48274 0.03718 0.04816 0.0
H98 H 0.42795 0.92996 0.01681 0.0
H99 H 0.49358 0.94229 -0.00122 0.0
H100 H 0.61081 0.98498 0.02378 0.0
H101 H 0.49251 0.06679 0.99131 0.0
H102 H 0.42669 0.07601 0.97302 0.0
H103 H 0.48444 0.96718 0.9429 0.0
H104 H 0.54918 0.95712 0.96128 0.0
H105 H 0.69078 0.96559 0.9621 0.0
H106 H 0.75719 0.99061 0.94633 0.0
H107 H 0.7779 0.10901 0.97812 0.0
H108 H 0.71327 0.08176 0.9943 0.0
H109 H 0.61204 0.02343 0.96726 0.0
H110 H 0.72063 0.93641 0.99318 0.0
H111 H 0.78722 0.90602 0.00779 0.0
H112 H 0.74902 0.99276 0.04785 0.0
H113 H 0.68345 0.0251 0.03295 0.0
C114 C 0.52514 -0.00245 0.013 0.0
C115 C 0.521 0.02469 0.02687 0.0
C116 C 0.48434 0.01698 0.03726 0.0
C117 C 0.45086 0.98245 0.03384 0.0
C118 C 0.45338 0.95702 0.01958 0.0
C119 C 0.49063 0.96419 0.00927 0.0
C120 C 0.56846 0.00092 0.00363 0.0
C121 C 0.61115 0.9945 0.01149 0.0
C122 C 0.56868 0.00887 0.98729 0.0
C123 C 0.52569 0.01125 0.97765 0.0
C124 C 0.49029 0.04409 0.98099 0.0
C125 C 0.45288 0.04942 0.97054 0.0
C126 C 0.45099 0.02252 0.95655 0.0
C127 C 0.4855 0.98861 0.95354 0.0
C128 C 0.52236 0.98286 0.96404 0.0
C129 C 0.6974 0.0219 0.97929 0.0
C130 C 0.71034 -0.00359 0.96577 0.0
C131 C 0.74796 0.01112 0.95671 0.0
C132 C 0.77242 0.0524 0.96077 0.0
C133 C 0.76027 0.07686 0.9747 0.0
C134 C 0.72323 0.06148 0.98394 0.0
C135 C 0.65403 0.01018 0.98766 0.0
C136 C 0.61162 0.01458 0.97962 0.0
C137 C 0.65399 -0.00217 0.0036 0.0
C138 C 0.69733 0.9837 0.01185 0.0
C139 C 0.72742 0.95033 0.00488 0.0
C140 C 0.7652 0.93256 0.01327 0.0
C141 C 0.77284 0.94699 0.0289 0.0
C142 C 0.74341 0.98093 0.03582 0.0
C143 C 0.70612 -0.0006 0.02732 0.0
H144 H 0.25472 0.22609 0.28792 0.0
H145 H 0.2792 0.16374 0.30554 0.0
H146 H 0.37294 0.10973 0.26973 0.0
H147 H 0.34833 0.17221 0.25216 0.0
H148 H 0.3232 0.28984 0.27694 0.0
H149 H 0.2013 0.18836 0.25518 0.0
H150 H 0.17471 0.11254 0.24443 0.0
H151 H 0.27743 0.1215 0.20739 0.0
H152 H 0.30361 0.19732 0.21811 0.0
H153 H 0.30592 0.34255 0.21096 0.0
H154 H 0.29371 0.41322 0.19586 0.0
H155 H 0.23348 0.48179 0.2369 0.0
H156 H 0.24179 0.40974 0.25138 0.0
H157 H 0.25136 0.28252 0.22384 0.0
H158 H 0.3736 0.38367 0.24506 0.0
H159 H 0.4086 0.4536 0.25757 0.0
H160 H 0.31343 0.44038 0.2967 0.0
H161 H 0.27853 0.37134 0.28414 0.0
C162 C 0.29963 0.20348 0.26877 0.0
C163 C 0.27974 0.20013 0.28377 0.0
C164 C 0.29365 0.16454 0.29378 0.0
C165 C 0.3282 0.13227 0.28901 0.0
C166 C 0.34656 0.13451 0.27372 0.0
C167 C 0.33226 0.16982 0.26365 0.0
C168 C 0.29113 0.24552 0.25934 0.0
C169 C 0.30674 0.28849 0.26544 0.0
C170 C 0.27145 0.24317 0.24415 0.0
C171 C 0.25435 0.19829 0.2374 0.0
C172 C 0.21795 0.17393 0.24472 0.0
C173 C 0.20281 0.13079 0.23859 0.0
C174 C 0.22429 0.11111 0.22517 0.0
C175 C 0.26072 0.13563 0.21787 0.0
C176 C 0.27538 0.17905 0.22387 0.0
C177 C 0.27545 0.37086 0.23239 0.0
C178 C 0.28969 0.3727 0.21665 0.0
C179 C 0.28335 0.41357 0.20809 0.0
C180 C 0.26305 0.45377 0.21515 0.0
C181 C 0.2488 0.45165 0.23095 0.0
C182 C 0.25422 0.4105 0.23937 0.0
C183 C 0.2828 0.32767 0.24158 0.0
C184 C 0.2675 0.28425 0.23538 0.0
C185 C 0.30345 0.32935 0.2567 0.0
C186 C 0.32333 0.37271 0.26367 0.0
C187 C 0.36007 0.39631 0.25625 0.0
C188 C 0.38018 0.4359 0.26343 0.0
C189 C 0.36351 0.45245 0.27804 0.0
C190 C 0.32649 0.42883 0.28532 0.0
C191 C 0.30673 0.38925 0.27823 0.0
H192 H 0.77643 0.30503 0.22169 0.0
H193 H 0.79439 0.36227 0.20146 0.0
H194 H 0.94228 0.3434 0.21031 0.0
H195 H 0.92398 0.28552 0.23014 0.0
H196 H 0.87272 0.20462 0.22074 0.0
H197 H 0.72507 0.27478 0.2618 0.0
H198 H 0.69481 0.34894 0.27193 0.0
H199 H 0.82978 0.41315 0.26404 0.0
H200 H 0.86092 0.33769 0.25552 0.0
H201 H 0.83826 0.14936 0.28435 0.0
H202 H 0.81848 0.07865 0.2986 0.0
H203 H 0.75032 0.02207 0.25698 0.0
H204 H 0.76751 0.09414 0.24321 0.0
H205 H 0.78436 0.2158 0.27081 0.0
H206 H 0.90191 0.09905 0.25109 0.0
H207 H 0.92615 0.02605 0.23761 0.0
H208 H 0.83886 0.06115 0.19799 0.0
H209 H 0.81452 0.13302 0.21152 0.0
C210 C 0.84894 0.29134 0.22735 0.0
C211 C 0.81261 0.31407 0.21944 0.0
C212 C 0.82295 0.34664 0.2079 0.0
C213 C 0.86978 0.35673 0.20413 0.0
C214 C 0.90591 0.3355 0.21268 0.0
C215 C 0.89556 0.30287 0.22411 0.0
C216 C 0.83894 0.25106 0.23738 0.0
C217 C 0.85369 0.20717 0.23177 0.0
C218 C 0.81328 0.2547 0.25156 0.0
C219 C 0.79522 0.30046 0.25767 0.0
C220 C 0.74834 0.3047 0.26243 0.0
C221 C 0.73079 0.3476 0.26798 0.0
C222 C 0.7595 0.38769 0.26869 0.0
C223 C 0.80651 0.38326 0.26388 0.0
C224 C 0.8243 0.34005 0.25871 0.0
C225 C 0.80486 0.12679 0.26268 0.0
C226 C 0.81875 0.12182 0.27836 0.0
C227 C 0.808 0.08102 0.2864 0.0
C228 C 0.78328 0.04428 0.27888 0.0
C229 C 0.76912 0.04965 0.26318 0.0
C230 C 0.77935 0.0907 0.25523 0.0
C231 C 0.81787 0.16934 0.25402 0.0
C232 C 0.80376 0.21356 0.25987 0.0
C233 C 0.84292 0.16632 0.23974 0.0
C234 C 0.85643 0.1212 0.23227 0.0
C235 C 0.88775 0.09056 0.23957 0.0
C236 C 0.90168 0.04914 0.23185 0.0
C237 C 0.88417 0.03785 0.21679 0.0
C238 C 0.85234 0.06846 0.20968 0.0
C239 C 0.83872 0.10973 0.21733 0.0
H240 H 0.74989 0.85473 0.72357 0.0
H241 H 0.73264 0.92482 0.70839 0.0
H242 H 0.88051 0.94511 0.70046 0.0
H243 H 0.89759 0.8751 0.71576 0.0
H244 H 0.80117 0.76953 0.71664 0.0
H245 H 0.80572 0.90646 0.75015 0.0
H246 H 0.82883 0.98145 0.76193 0.0
H247 H 0.97099 0.93083 0.76621 0.0
H248 H 0.94814 0.85711 0.75352 0.0
H249 H 0.93919 0.72672 0.76457 0.0
H250 H 0.95664 0.67259 0.78534 0.0
H251 H 0.81277 0.62497 0.78457 0.0
H252 H 0.79461 0.68295 0.76473 0.0
H253 H 0.88788 0.79817 0.76639 0.0
H254 H 0.88254 0.6574 0.73508 0.0
H255 H 0.85643 0.57904 0.72732 0.0
H256 H 0.71711 0.63322 0.71926 0.0
H257 H 0.74272 0.71056 0.72814 0.0
C258 C 0.82495 0.85989 0.72075 0.0
C259 C 0.77849 0.87396 0.71838 0.0
C260 C 0.76877 0.91423 0.7099 0.0
C261 C 0.80534 0.94057 0.70344 0.0
C262 C 0.85175 0.92542 0.70534 0.0
C263 C 0.8615 0.8855 0.71402 0.0
C264 C 0.83536 0.821 0.73143 0.0
C265 C 0.82002 0.77553 0.72756 0.0
C266 C 0.86049 0.82898 0.7455 0.0
C267 C 0.8753 0.87632 0.75086 0.0
C268 C 0.84216 0.91211 0.75314 0.0
C269 C 0.85532 0.95476 0.76008 0.0
C270 C 0.90167 0.96202 0.76518 0.0
C271 C 0.93514 0.92676 0.76227 0.0
C272 C 0.92206 0.88436 0.75515 0.0
C273 C 0.86568 0.70876 0.76297 0.0
C274 C 0.91132 0.70469 0.76888 0.0
C275 C 0.92138 0.67313 0.78068 0.0
C276 C 0.88626 0.64389 0.78665 0.0
C277 C 0.84063 0.6473 0.78046 0.0
C278 C 0.83032 0.67987 0.76888 0.0
C279 C 0.85505 0.74589 0.75153 0.0
C280 C 0.86989 0.79146 0.75533 0.0
C281 C 0.82992 0.73757 0.73738 0.0
C282 C 0.81448 0.68988 0.7324 0.0
C283 C 0.84615 0.65219 0.73193 0.0
C284 C 0.83124 0.60739 0.7273 0.0
C285 C 0.78453 0.59948 0.72269 0.0
C286 C 0.75305 0.6375 0.72306 0.0
C287 C 0.76782 0.68207 0.72791 0.0
H288 H 0.46841 0.36865 0.98702 0.0
H289 H 0.39595 0.34956 0.97283 0.0
H290 H 0.36977 0.49715 0.96649 0.0
H291 H 0.44254 0.51586 0.98028 0.0
H292 H 0.54654 0.41287 0.97691 0.0
H293 H 0.44018 0.43268 0.01887 0.0
H294 H 0.36793 0.45761 0.03201 0.0
H295 H 0.40297 0.60218 0.02359 0.0
H296 H 0.47509 0.57697 0.01031 0.0
H297 H 0.61504 0.57892 0.00927 0.0
H298 H 0.68785 0.61183 0.0192 0.0
H299 H 0.74453 0.47173 0.02325 0.0
H300 H 0.66963 0.43941 0.01528 0.0
H301 H 0.55044 0.52833 0.02124 0.0
H302 H 0.65871 0.49928 0.97666 0.0
H303 H 0.73128 0.46679 0.96579 0.0
H304 H 0.69254 0.32988 0.9824 0.0
H305 H 0.61954 0.36253 0.9928 0.0
C306 C 0.46074 0.44363 0.98475 0.0
C307 C 0.44692 0.39681 0.9826 0.0
C308 C 0.40531 0.38602 0.97465 0.0
C309 C 0.37711 0.42191 0.96859 0.0
C310 C 0.39086 0.46875 0.97094 0.0
C311 C 0.43229 0.47948 0.9789 0.0
C312 C 0.50532 0.45558 0.9928 0.0
C313 C 0.54742 0.43761 0.98674 0.0
C314 C 0.50651 0.48755 0.00566 0.0
C315 C 0.46291 0.50302 0.01362 0.0
C316 C 0.43212 0.46973 0.01977 0.0
C317 C 0.39097 0.48398 0.02729 0.0
C318 C 0.37978 0.53179 0.02875 0.0
C319 C 0.41042 0.56506 0.02243 0.0
C320 C 0.45182 0.55079 0.01502 0.0
C321 C 0.63687 0.5066 0.01121 0.0
C322 C 0.64298 0.55529 0.01253 0.0
C323 C 0.68525 0.57414 0.01796 0.0
C324 C 0.723 0.54476 0.0219 0.0
C325 C 0.71653 0.49588 0.0206 0.0
C326 C 0.6737 0.47711 0.01569 0.0
C327 C 0.59209 0.48713 0.00496 0.0
C328 C 0.54975 0.50355 0.01142 0.0
C329 C 0.59076 0.45294 0.99266 0.0
C330 C 0.6339 0.43327 0.98553 0.0
C331 C 0.66592 0.46226 0.97789 0.0
C332 C 0.7076 0.44368 0.97184 0.0
C333 C 0.71799 0.39571 0.97331 0.0
C334 C 0.68551 0.36681 0.98089 0.0
C335 C 0.64375 0.38537 0.98685 0.0
H336 H 0.05251 0.46308 0.4628 0.0
H337 H 0.9902 0.48205 0.44426 0.0
H338 H 0.95512 0.60481 0.47234 0.0
H339 H 0.01791 0.58569 0.49085 0.0
H340 H 0.12764 0.52535 0.4687 0.0
H341 H 0.00057 0.45178 0.49776 0.0
H342 H 0.93327 0.43978 0.51507 0.0
H343 H 0.98848 0.54298 0.54785 0.0
H344 H 0.05495 0.55586 0.5304 0.0
H345 H 0.18638 0.52627 0.53532 0.0
H346 H 0.24908 0.49593 0.55189 0.0
H347 H 0.29468 0.40521 0.51375 0.0
H348 H 0.23068 0.43378 0.49738 0.0
H349 H 0.11558 0.48645 0.52503 0.0
H350 H 0.23474 0.56818 0.4998 0.0
H351 H 0.30541 0.59053 0.4856 0.0
H352 H 0.2682 0.49451 0.44774 0.0
H353 H 0.1985 0.4713 0.46219 0.0
C354 C 0.03957 0.52296 0.47816 0.0
C355 C 0.03088 0.49368 0.46507 0.0
C356 C 0.99523 0.50443 0.45454 0.0
C357 C 0.96806 0.54499 0.45685 0.0
C358 C 0.97591 0.57356 0.47024 0.0
C359 C 0.01139 0.56252 0.48086 0.0
C360 C 0.08093 0.51424 0.48806 0.0
C361 C 0.12511 0.51621 0.48099 0.0
C362 C 0.07767 0.50563 0.50428 0.0
C363 C 0.03273 0.50466 0.51283 0.0
C364 C -0.00271 0.47307 0.50838 0.0
C365 C 0.95902 0.46612 0.51828 0.0
C366 C 0.95627 0.49019 0.5328 0.0
C367 C 0.99023 0.52379 0.53676 0.0
C368 C 0.02804 0.53115 0.5268 0.0
C369 C 0.20387 0.48256 0.51505 0.0
C370 C 0.20984 0.49988 0.53049 0.0
C371 C 0.24553 0.48258 0.53995 0.0
C372 C 0.27629 0.44824 0.53404 0.0
C373 C 0.27141 0.43195 0.51847 0.0
C374 C 0.23513 0.44857 0.5091 0.0
C375 C 0.16267 0.49695 0.50568 0.0
C376 C 0.11849 0.496 0.51279 0.0
C377 C 0.16608 0.50889 0.48969 0.0
C378 C 0.2115 0.518 0.48205 0.0
C379 C 0.24246 0.55113 0.48862 0.0
C380 C 0.28252 0.56423 0.48043 0.0
C381 C 0.29215 0.54449 0.46553 0.0
C382 C 0.26201 0.50998 0.45927 0.0
C383 C 0.222 0.49692 0.46746 0.0
C384 C 0.13825 0.67102 0.13956 0.0
C385 C 0.97344 0.59435 0.12798 0.0
C386 C 0.98011 0.67209 0.08549 0.0
Mg387 Mg 0.17835 0.77084 0.12841 0.0
Mg388 Mg 0.10909 0.85724 0.11791 0.0
O389 O 0.12486 0.79416 0.11542 0.0
Mg390 Mg 0.07808 0.74456 0.11964 0.0
O391 O 0.03537 0.69144 0.12372 0.0
Mg392 Mg 0.06747 0.64171 0.11059 0.0
Mg393 Mg 0.97149 0.70012 0.11985 0.0
C394 C 0.02275 0.82213 0.09782 0.0
O395 O 0.0363 0.78705 0.13809 0.0
O396 O 0.22283 0.8285 0.1163 0.0
O397 O 0.96189 0.76268 0.13437 0.0
O398 O 0.16262 0.82311 0.14918 0.0
O399 O 0.17249 0.88433 0.1086 0.0
O400 O 0.10624 0.87306 0.14243 0.0
O401 O 0.11643 0.69913 0.10132 0.0
O402 O 0.18993 0.71874 0.10804 0.0
C403 C 0.16087 0.69465 0.09972 0.0
C404 C 0.21383 0.86721 0.10937 0.0
O405 O 0.0295 0.77914 0.10147 0.0
O406 O 0.01482 0.59054 0.1221 0.0
O407 O 0.04707 0.85624 0.10347 0.0
O408 O 0.01605 0.64841 0.08958 0.0
O409 O 0.9507 0.63309 0.12827 0.0
O410 O 0.95982 0.70034 0.09504 0.0
O411 O 0.12783 0.71441 0.13794 0.0
O412 O 0.11875 0.63854 0.13125 0.0
C413 C 0.13462 0.85694 0.15255 0.0
C414 C 0.99223 0.78957 0.14108 0.0
C415 C 0.65612 0.80786 0.39021 0.0
C416 C 0.72609 0.64297 0.37946 0.0
C417 C 0.64712 0.64616 0.33613 0.0
Mg418 Mg 0.55982 0.85465 0.37927 0.0
Mg419 Mg 0.4672 0.79188 0.3702 0.0
O420 O 0.53064 0.80231 0.36657 0.0
Mg421 Mg 0.57758 0.75177 0.37006 0.0
O422 O 0.62913 0.70601 0.37357 0.0
Mg423 Mg 0.68019 0.73552 0.3609 0.0
Mg424 Mg 0.62057 0.64169 0.37062 0.0
C425 C 0.49267 0.70224 0.34925 0.0
O426 O 0.53436 0.71155 0.3884 0.0
O427 O 0.50471 0.9029 0.36756 0.0
O428 O 0.55753 0.63642 0.38452 0.0
O429 O 0.50904 0.84579 0.40041 0.0
O430 O 0.44283 0.85741 0.3613 0.0
O431 O 0.45501 0.79165 0.39492 0.0
O432 O 0.62395 0.78633 0.35169 0.0
O433 O 0.6102 0.86125 0.35858 0.0
C434 C 0.63113 0.83023 0.35007 0.0
C435 C 0.46375 0.8971 0.36153 0.0
O436 O 0.53702 0.70648 0.35169 0.0
O437 O 0.73022 0.68278 0.37277 0.0
O438 O 0.46207 0.72853 0.3561 0.0
O439 O 0.67088 0.68278 0.33984 0.0
O440 O 0.68706 0.62098 0.38009 0.0
O441 O 0.62022 0.62661 0.34598 0.0
O442 O 0.61231 0.79972 0.38852 0.0
O443 O 0.68705 0.78723 0.38165 0.0
C444 C 0.47405 0.82078 0.40447 0.0
C445 C 0.53094 0.6674 0.39107 0.0
C446 C 0.64928 0.167 0.638 0.0
C447 C 0.47836 0.09987 0.63624 0.0
C448 C 0.46446 0.1863 0.59549 0.0
Mg449 Mg 0.68931 0.26572 0.62609 0.0
Mg450 Mg 0.62192 0.35813 0.62146 0.0
O451 O 0.63161 0.29476 0.61693 0.0
Mg452 Mg 0.58434 0.24743 0.62314 0.0
O453 O 0.5413 0.19597 0.62912 0.0
Mg454 Mg 0.5626 0.14636 0.61361 0.0
Mg455 Mg 0.47695 0.20683 0.63048 0.0
C456 C 0.52481 0.3318 0.60584 0.0
O457 O 0.55517 0.29036 0.6441 0.0
O458 O 0.73085 0.32281 0.6128 0.0
O459 O 0.48 0.26674 0.64652 0.0
O460 O 0.68895 0.31432 0.64843 0.0
O461 O 0.68139 0.38302 0.60894 0.0
O462 O 0.63351 0.36889 0.64605 0.0
O463 O 0.60925 0.20236 0.60237 0.0
O464 O 0.68609 0.21759 0.60428 0.0
C465 C 0.65149 0.19648 0.59766 0.0
C466 C 0.72132 0.36324 0.60716 0.0
O467 O 0.53017 0.28785 0.60842 0.0
O468 O 0.51475 0.09544 0.62743 0.0
O469 O 0.55363 0.36333 0.61072 0.0
O470 O 0.50122 0.16072 0.59635 0.0
O471 O 0.45865 0.13948 0.639 0.0
O472 O 0.4507 0.21164 0.60709 0.0
O473 O 0.64076 0.21112 0.63763 0.0
O474 O 0.62377 0.13687 0.63061 0.0
C475 C 0.6654 0.349 0.65403 0.0
C476 C 0.51454 0.29308 0.65056 0.0
C477 C 0.15847 0.28861 0.8911 0.0
C478 C 0.21169 0.11997 0.87871 0.0
C479 C 0.13828 0.1375 0.83437 0.0
Mg480 Mg 0.06704 0.34498 0.88057 0.0
Mg481 Mg 0.97191 0.29334 0.86667 0.0
O482 O 0.03683 0.29988 0.86527 0.0
Mg483 Mg 0.07813 0.24494 0.86871 0.0
O484 O 0.12357 0.19374 0.87234 0.0
Mg485 Mg 0.17881 0.21919 0.86075 0.0
Mg486 Mg 0.10814 0.13109 0.86862 0.0
C487 C 0.99527 0.20711 0.84426 0.0
O488 O 0.02764 0.20753 0.88536 0.0
O489 O 0.01807 0.40073 0.86971 0.0
O490 O 0.04192 0.13054 0.88086 0.0
O491 O 0.01139 0.33184 0.90032 0.0
O492 O 0.95438 0.36348 0.86013 0.0
O493 O 0.95552 0.28473 0.89073 0.0
O494 O 0.13027 0.27846 0.85203 0.0
O495 O 0.12166 0.35257 0.86099 0.0
C496 C 0.14145 0.322 0.85192 0.0
C497 C 0.97837 0.40083 0.86257 0.0
O498 O 0.03845 0.20719 0.84856 0.0
O499 O 0.22111 0.1591 0.87215 0.0
O500 O 0.96439 0.23449 0.85044 0.0
O501 O 0.16558 0.17111 0.83857 0.0
O502 O 0.17027 0.1028 0.87901 0.0
O503 O 0.10951 0.11942 0.84394 0.0
O504 O 0.11425 0.28484 0.88879 0.0
O505 O 0.18834 0.26652 0.8825 0.0
C506 C 0.9742 0.30737 0.90214 0.0
C507 C 0.01817 0.164 0.88723 0.0
H508 H 0.27987 0.98303 0.45292 0.0
H509 H 0.41003 0.76742 0.4201 0.0
H510 H 0.26646 0.85184 0.47717 0.0
H511 H 0.47908 0.90185 0.42197 0.0
H512 H 0.3556 0.7952 0.44041 0.0
H513 H 0.35092 0.95355 0.44051 0.0
C514 C 0.29196 0.94839 0.45591 0.0
C515 C 0.2663 0.91994 0.46612 0.0
C516 C 0.38346 0.81811 0.43664 0.0
C517 C 0.3473 0.88551 0.45137 0.0
C518 C 0.41467 0.80224 0.4251 0.0
C519 C 0.44914 0.83235 0.41928 0.0
C520 C 0.38585 0.86482 0.44199 0.0
C521 C 0.45308 0.87741 0.42608 0.0
C522 C 0.33262 0.93156 0.44872 0.0
C523 C 0.28386 0.87477 0.46907 0.0
N524 N 0.42099 0.89272 0.43679 0.0
N525 N 0.32274 0.85864 0.4615 0.0
H526 H 0.33789 0.93914 0.70592 0.0
H527 H 0.52065 0.01432 0.64001 0.0
H528 H 0.46147 0.85899 0.69393 0.0
H529 H 0.39587 0.09263 0.65211 0.0
H530 H 0.49566 0.95261 0.6577 0.0
H531 H 0.35535 0.9922 0.68456 0.0
C532 C 0.36859 0.93261 0.69874 0.0
C533 C 0.39848 0.89486 0.70178 0.0
C534 C 0.47357 0.98312 0.65634 0.0
C535 C 0.41887 0.95551 0.67737 0.0
C536 C 0.48768 0.01822 0.64618 0.0
C537 C 0.46066 0.059 0.64476 0.0
C538 C 0.43221 0.98896 0.6651 0.0
C539 C 0.41821 0.06214 0.65302 0.0
C540 C 0.37861 0.96293 0.68656 0.0
C541 C 0.438 0.88824 0.69219 0.0
N542 N 0.40556 0.02782 0.66295 0.0
N543 N 0.44716 0.91839 0.68044 0.0
H544 H 0.35601 0.02731 0.96028 0.0
H545 H 0.3067 0.1314 0.87655 0.0
H546 H 0.46513 0.03941 0.9256 0.0
H547 H 0.20045 0.05796 0.90243 0.0
H548 H 0.36573 0.10268 0.8949 0.0
H549 H 0.29774 0.04464 0.93995 0.0
C550 C 0.36753 0.03354 0.94838 0.0
C551 C 0.41516 0.03188 0.94452 0.0
C552 C 0.32954 0.0924 0.8964 0.0
C553 C 0.34936 0.05193 0.9214 0.0
C554 C 0.2959 0.10874 0.88595 0.0
C555 C 0.2486 0.09721 0.88801 0.0
C556 C 0.31555 0.06524 0.90915 0.0
C557 C 0.23653 0.06765 0.90038 0.0
C558 C 0.33444 0.04307 0.9368 0.0
C559 C 0.42858 0.04003 0.92895 0.0
N560 N 0.26971 0.05327 0.91064 0.0
N561 N 0.39584 0.05018 0.91796 0.0
H562 H 0.27744 0.03588 0.21598 0.0
H563 H 0.07558 0.92279 0.16545 0.0
H564 H 0.13438 0.08358 0.21901 0.0
H565 H 0.20661 0.85185 0.17379 0.0
H566 H 0.09334 0.97732 0.18698 0.0
H567 H 0.25075 0.96487 0.20217 0.0
C568 C 0.24034 0.03111 0.21384 0.0
C569 C 0.20808 0.06578 0.21844 0.0
C570 C 0.11782 0.94928 0.18432 0.0
C571 C 0.17727 0.98489 0.20262 0.0
C572 C 0.10761 0.91794 0.17204 0.0
C573 C 0.13989 0.88292 0.16766 0.0
C574 C 0.16114 0.94635 0.19204 0.0
C575 C 0.18083 0.87848 0.17666 0.0
C576 C 0.22507 0.99048 0.20607 0.0
C577 C 0.16035 0.05767 0.21562 0.0
N578 N 0.19077 0.9105 0.18821 0.0
N579 N 0.14643 0.01838 0.20766 0.0
H580 H 0.29966 0.04755 0.52452 0.0
H581 H 0.3842 0.23514 0.58914 0.0
H582 H 0.21054 0.15334 0.54571 0.0
H583 H 0.47247 0.12443 0.57054 0.0
H584 H 0.32487 0.2145 0.56966 0.0
H585 H 0.36684 0.0824 0.5382 0.0
C586 C 0.29421 0.07813 0.53202 0.0
C587 C 0.24926 0.09723 0.53408 0.0
C588 C 0.35746 0.19509 0.56969 0.0
C589 C 0.32608 0.13765 0.54962 0.0
C590 C 0.39157 0.20705 0.58078 0.0
C591 C 0.43317 0.18099 0.58169 0.0
C592 C 0.36475 0.15651 0.5595 0.0
C593 C 0.44074 0.14518 0.57042 0.0
C594 C 0.33264 0.09823 0.53973 0.0
C595 C 0.2445 0.13753 0.54367 0.0
N596 N 0.40652 0.13349 0.55996 0.0
N597 N 0.28232 0.15612 0.55117 0.0
H598 H 0.28847 0.97027 0.76758 0.0
H599 H 0.08067 0.07337 0.82003 0.0
H600 H 0.17126 0.8907 0.78481 0.0
H601 H 0.21316 0.14359 0.81423 0.0
H602 H 0.10321 0.01654 0.79975 0.0
H603 H 0.25213 0.04184 0.77812 0.0
C604 C 0.25502 0.96775 0.77348 0.0
C605 C 0.23343 0.92403 0.77556 0.0
C606 C 0.12702 0.04489 0.80269 0.0
C607 C 0.19121 0.00608 0.78727 0.0
C608 C 0.11404 0.07765 0.81421 0.0
C609 C 0.14554 0.11273 0.81913 0.0
C610 C 0.172 0.04688 0.79613 0.0
C611 C 0.18804 0.11674 0.81098 0.0
C612 C 0.23415 0.00872 0.77935 0.0
C613 C 0.18934 0.92335 0.78285 0.0
N614 N 0.20052 0.08348 0.80011 0.0
N615 N 0.16999 0.96363 0.78856 0.0
H616 H 0.35605 0.97795 0.0303 0.0
H617 H 0.30891 0.85198 0.11049 0.0
H618 H 0.46652 0.95907 0.06418 0.0
H619 H 0.20328 0.93487 0.08748 0.0
H620 H 0.36786 0.88469 0.09285 0.0
H621 H 0.29879 0.95481 0.05018 0.0
C622 C 0.36804 0.96906 0.04195 0.0
C623 C 0.4157 0.97045 0.04572 0.0
C624 C 0.33179 0.89599 0.09186 0.0
C625 C 0.35116 0.9436 0.06829 0.0
C626 C 0.2982 0.87736 0.10188 0.0
C627 C 0.25108 0.89048 0.10041 0.0
C628 C 0.31782 0.92707 0.08015 0.0
C629 C 0.23915 0.92363 0.08906 0.0
C630 C 0.33555 0.95615 0.05328 0.0
C631 C 0.42985 0.95871 0.06095 0.0
N632 N 0.2722 0.94026 0.07922 0.0
N633 N 0.39769 0.94524 0.07168 0.0
H634 H 0.42007 0.11458 0.29506 0.0
H635 H 0.37158 0.90642 0.35346 0.0
H636 H 0.28059 0.07503 0.30894 0.0
H637 H 0.50514 0.97641 0.35047 0.0
H638 H 0.33737 0.96604 0.33672 0.0
H639 H 0.4522 0.06099 0.31437 0.0
C640 C 0.39624 0.09427 0.30211 0.0
C641 C 0.34765 0.09883 0.30035 0.0
C642 C 0.37402 0.96862 0.33988 0.0
C643 C 0.38407 0.03793 0.32255 0.0
C644 C 0.3936 0.93461 0.34942 0.0
C645 C 0.44138 0.93629 0.35328 0.0
C646 C 0.40257 0.00412 0.33395 0.0
C647 C 0.46816 0.97376 0.3478 0.0
C648 C 0.41457 0.06412 0.31324 0.0
C649 C 0.31828 0.07246 0.30998 0.0
N650 N 0.44851 0.00589 0.33824 0.0
N651 N 0.33697 0.04281 0.32061 0.0
H652 H 0.78859 0.07876 0.51679 0.0
H653 H 0.67929 0.10782 0.60272 0.0
H654 H 0.85111 0.02759 0.55949 0.0
H655 H 0.65325 0.20615 0.56596 0.0
H656 H 0.72292 0.05821 0.58404 0.0
H657 H 0.72209 0.10794 0.53228 0.0
C658 C 0.78844 0.0733 0.52934 0.0
C659 C 0.82622 0.05104 0.53679 0.0
C660 C 0.70656 0.08998 0.57994 0.0
C661 C 0.74928 0.08286 0.55439 0.0
C662 C 0.68139 0.11795 0.59054 0.0
C663 C 0.66281 0.16071 0.58575 0.0
C664 C 0.71342 0.10532 0.56453 0.0
C665 C 0.66689 0.17302 0.56996 0.0
C666 C 0.75018 0.08958 0.53811 0.0
C667 C 0.82297 0.04386 0.55306 0.0
N668 N 0.69243 0.14569 0.55988 0.0
N669 N 0.78541 0.05991 0.56128 0.0
H670 H 0.83542 -0.00228 0.30088 0.0
H671 H 0.70699 0.8829 0.35693 0.0
H672 H 0.70221 0.99283 0.2768 0.0
H673 H 0.63322 0.81692 0.31831 0.0
H674 H 0.75527 0.92516 0.33824 0.0
H675 H 0.80955 0.93349 0.31738 0.0
C676 C 0.8008 0.9832 0.29903 0.0
C677 C 0.77055 0.00159 0.28765 0.0
C678 C 0.72975 0.90022 0.33379 0.0
C679 C 0.74112 0.92788 0.30637 0.0
C680 C 0.70211 0.87635 0.34445 0.0
C681 C 0.66653 0.84653 0.33904 0.0
C682 C 0.72072 0.89503 0.31763 0.0
C683 C 0.66077 0.83946 0.32283 0.0
C684 C 0.78621 0.94645 0.30841 0.0
C685 C 0.72678 0.98002 0.2854 0.0
N686 N 0.68688 0.8646 0.31263 0.0
N687 N 0.71324 0.94456 0.29478 0.0
H688 H 0.86505 0.93783 0.02124 0.0
H689 H 0.93257 0.79048 0.09677 0.0
H690 H 0.76486 0.90569 0.05735 0.0
H691 H 0.03023 0.88071 0.07338 0.0
H692 H 0.87067 0.81653 0.07878 0.0
H693 H 0.92667 0.90125 0.03696 0.0
C694 C 0.85615 0.92288 0.03246 0.0
C695 C 0.81022 0.92507 0.03817 0.0
C696 C 0.90582 0.83017 0.07754 0.0
C697 C 0.87975 0.88283 0.05595 0.0
C698 C 0.94103 0.81503 0.08765 0.0
C699 C 0.98622 0.83353 0.08642 0.0
C700 C 0.91643 0.86331 0.06608 0.0
C701 C 0.99557 0.86593 0.07467 0.0
C702 C 0.89114 0.90215 0.04139 0.0
C703 C 0.80015 0.90519 0.05272 0.0
N704 N 0.96093 0.87979 0.0649 0.0
N705 N 0.83472 0.88471 0.06114 0.0
H706 H 0.9834 0.01315 0.76499 0.0
H707 H 0.90712 0.17445 0.83848 0.0
H708 H 0.84864 0.00575 0.78783 0.0
H709 H 0.04889 0.16628 0.82117 0.0
H710 H 0.88283 0.11943 0.81778 0.0
H711 H 0.00587 0.07598 0.78342 0.0
C712 C 0.95842 0.0249 0.77379 0.0
C713 C 0.9141 0.00392 0.77488 0.0
C714 C 0.91929 0.12961 0.8185 0.0
C715 C 0.93943 0.07602 0.79585 0.0
C716 C 0.93316 0.16107 0.8303 0.0
C717 C 0.98025 0.17432 0.83167 0.0
C718 C 0.95269 0.11148 0.80793 0.0
C719 C 0.01246 0.15606 0.82073 0.0
C720 C 0.97124 0.06083 0.78426 0.0
C721 C 0.88291 0.02117 0.78635 0.0
N722 N -0.0019 0.12545 0.80931 0.0
N723 N 0.89627 0.05601 0.79642 0.0
H724 H 0.82401 0.86057 0.46797 0.0
H725 H 0.70901 0.88545 0.38666 0.0
H726 H 0.82953 0.99302 0.44421 0.0
H727 H 0.64371 0.80047 0.42172 0.0
H728 H 0.75307 0.92657 0.40739 0.0
H729 H 0.75777 0.83771 0.45149 0.0
C730 C 0.81097 0.88531 0.45953 0.0
C731 C 0.8332 0.92866 0.45739 0.0
C732 C 0.72818 0.89981 0.41061 0.0
C733 C 0.7579 0.90186 0.4382 0.0
C734 C 0.70306 0.87651 0.39881 0.0
C735 C 0.67276 0.83996 0.40261 0.0
C736 C 0.72414 0.88509 0.4262 0.0
C737 C 0.66654 0.82892 0.41844 0.0
C738 C 0.77309 0.87208 0.45009 0.0
C739 C 0.81473 0.95866 0.446 0.0
N740 N 0.69297 0.85068 0.42969 0.0
N741 N 0.77876 0.94435 0.43664 0.0
H742 H 0.97371 0.00419 0.21381 0.0
H743 H 0.90319 0.82226 0.14552 0.0
H744 H 0.83128 0.97593 0.1996 0.0
H745 H 0.04319 0.83311 0.16431 0.0
H746 H 0.87638 0.87813 0.16559 0.0
H747 H 0.00026 0.94028 0.19642 0.0
C748 C 0.94798 0.98401 0.20724 0.0
C749 C 0.90028 0.99561 0.20801 0.0
C750 C 0.91301 0.86834 0.16534 0.0
C751 C 0.93034 0.92318 0.18795 0.0
C752 C 0.92836 0.83651 0.15385 0.0
C753 C 0.97572 0.82373 0.15307 0.0
C754 C 0.94524 0.88758 0.17613 0.0
C755 C 0.00668 0.84308 0.16422 0.0
C756 C 0.96316 0.94778 0.19723 0.0
C757 C 0.86847 0.96868 0.19912 0.0
N758 N 0.99095 0.87422 0.17527 0.0
N759 N 0.88411 0.93399 0.18937 0.0
H760 H 0.85397 0.09929 0.96838 0.0
H761 H 0.95521 0.09447 0.88224 0.0
H762 H 0.7727 0.04941 0.92858 0.0
H763 H 0.99366 0.20399 0.91537 0.0
H764 H 0.89357 0.06954 0.90019 0.0
H765 H 0.91154 0.13104 0.95017 0.0
C766 C 0.84802 0.09511 0.95587 0.0
C767 C 0.80847 0.07119 0.95005 0.0
C768 C 0.91526 0.09927 0.90347 0.0
C769 C 0.87463 0.10653 0.92929 0.0
C770 C 0.95035 0.11335 0.89328 0.0
C771 C 0.97908 0.15133 0.8974 0.0
C772 C 0.9098 0.12264 0.918 0.0
C773 C 0.97172 0.17476 0.9118 0.0
C774 C 0.88094 0.11318 0.94551 0.0
C775 C 0.80314 0.06635 0.93368 0.0
N776 N 0.93799 0.15965 0.92174 0.0
N777 N 0.83604 0.08352 0.92388 0.0
H778 H 0.83841 0.96509 0.67463 0.0
H779 H 0.66987 0.18797 0.66867 0.0
H780 H 0.74837 0.01337 0.71225 0.0
H781 H 0.71426 0.10302 0.62901 0.0
H782 H 0.72013 0.1409 0.68582 0.0
H783 H 0.81372 0.03211 0.65903 0.0
C784 C 0.81405 0.99026 0.67969 0.0
C785 C 0.79474 0.98344 0.69461 0.0
C786 C 0.71969 0.13346 0.67329 0.0
C787 C 0.76673 0.05998 0.67696 0.0
C788 C 0.69147 0.16049 0.66353 0.0
C789 C 0.68787 0.14884 0.64751 0.0
C790 C 0.74469 0.09527 0.66684 0.0
C791 C 0.71594 0.11267 0.64136 0.0
C792 C 0.79996 0.02835 0.67079 0.0
C793 C 0.76329 0.017 0.70064 0.0
N794 N 0.74291 0.08684 0.65106 0.0
N795 N 0.74995 0.05372 0.69174 0.0
H796 H 0.72947 0.31078 0.95821 0.0
H797 H 0.98391 0.37156 0.92646 0.0
H798 H 0.80611 0.4347 0.97258 0.0
H799 H 0.90226 0.25161 0.91146 0.0
H800 H 0.92677 0.38716 0.94737 0.0
H801 H 0.79925 0.28116 0.94502 0.0
C802 C 0.76114 0.33154 0.95881 0.0
C803 C 0.76158 0.37566 0.96638 0.0
C804 C 0.92194 0.35688 0.93968 0.0
C805 C 0.84176 0.34219 0.95093 0.0
C806 C 0.95474 0.34776 0.92781 0.0
C807 C 0.94753 0.31063 0.91703 0.0
C808 C 0.88183 0.32861 0.94074 0.0
C809 C 0.90905 0.28097 0.91936 0.0
C810 C 0.80104 0.31466 0.95118 0.0
C811 C 0.80374 0.40105 0.96656 0.0
N812 N 0.8774 0.29097 0.9308 0.0
N813 N 0.84198 0.3842 0.95879 0.0
H814 H 0.93833 0.3447 0.18201 0.0
H815 H 0.88626 0.58845 0.14103 0.0
H816 H 0.82695 0.43892 0.19603 0.0
H817 H 0.01305 0.50844 0.13347 0.0
H818 H 0.85676 0.52663 0.15765 0.0
H819 H 0.9594 0.39796 0.16107 0.0
C820 C 0.91839 0.3767 0.18072 0.0
C821 C 0.88127 0.38779 0.19095 0.0
C822 C 0.89086 0.52243 0.15224 0.0
C823 C 0.90467 0.44834 0.16682 0.0
C824 C 0.90777 0.55766 0.14271 0.0
C825 C 0.95261 0.55402 0.13603 0.0
C826 C 0.91893 0.48321 0.15514 0.0
C827 C 0.9785 0.51298 0.13849 0.0
C828 C 0.93023 0.40686 0.16869 0.0
C829 C 0.85576 0.42897 0.18842 0.0
N830 N 0.96145 0.47934 0.14799 0.0
N831 N 0.86815 0.45794 0.17665 0.0
H832 H 0.95544 0.63136 0.44432 0.0
H833 H 0.7358 0.55586 0.39205 0.0
H834 H 0.90315 0.48965 0.44181 0.0
H835 H 0.80751 0.68805 0.38743 0.0
H836 H 0.79689 0.53032 0.41005 0.0
H837 H 0.90014 0.6531 0.42379 0.0
C838 C 0.932 0.60493 0.43952 0.0
C839 C 0.93357 0.55874 0.44482 0.0
C840 C 0.7995 0.56471 0.40496 0.0
C841 C 0.87072 0.58313 0.4212 0.0
C842 C 0.76468 0.57931 0.39466 0.0
C843 C 0.76629 0.62435 0.38832 0.0
C844 C 0.83592 0.59554 0.40908 0.0
C845 C 0.80472 0.65309 0.39205 0.0
C846 C 0.90083 0.61721 0.42769 0.0
C847 C 0.90311 0.52562 0.43799 0.0
N848 N 0.83772 0.63839 0.40235 0.0
N849 N 0.87271 0.53852 0.42658 0.0
H850 H 0.83476 0.53495 0.70513 0.0
H851 H 0.61368 0.40575 0.67351 0.0
H852 H 0.69892 0.55662 0.72638 0.0
H853 H 0.75161 0.34621 0.66807 0.0
H854 H 0.6433 0.45761 0.69428 0.0
H855 H 0.8059 0.46296 0.69279 0.0
C856 C 0.79914 0.52428 0.70749 0.0
C857 C 0.7691 0.55262 0.71666 0.0
C858 C 0.66692 0.43247 0.68882 0.0
C859 C 0.73553 0.47043 0.70217 0.0
C860 C 0.64992 0.40272 0.67697 0.0
C861 C 0.68019 0.37184 0.66896 0.0
C862 C 0.7149 0.43227 0.69238 0.0
C863 C 0.72702 0.36956 0.67391 0.0
C864 C 0.78265 0.48308 0.70037 0.0
C865 C 0.72305 0.53686 0.71903 0.0
N866 N 0.74324 0.40024 0.68506 0.0
N867 N 0.70746 0.4973 0.71161 0.0
H868 H 0.76382 0.63011 0.01498 0.0
H869 H 0.98766 0.59031 0.06859 0.0
H870 H 0.78645 0.50599 0.04246 0.0
H871 H 0.91458 0.72284 0.06936 0.0
H872 H 0.93076 0.55997 0.04952 0.0
H873 H 0.83429 0.66452 0.02675 0.0
C874 C 0.78327 0.60985 0.0234 0.0
C875 C 0.76817 0.56495 0.0278 0.0
C876 C 0.92805 0.59606 0.05359 0.0
C877 C 0.85032 0.60358 0.04054 0.0
C878 C 0.96067 0.61362 0.06437 0.0
C879 C 0.95537 0.65898 0.07079 0.0
C880 C 0.89053 0.62434 0.04899 0.0
C881 C 0.91953 0.68746 0.06487 0.0
C882 C 0.82382 0.62948 0.02993 0.0
C883 C 0.79641 0.54019 0.03838 0.0
N884 N 0.88801 0.66947 0.0544 0.0
N885 N 0.83601 0.55983 0.04436 0.0
H886 H 0.66968 0.42331 0.2665 0.0
H887 H 0.72514 0.65339 0.31775 0.0
H888 H 0.80657 0.45704 0.28527 0.0
H889 H 0.59429 0.57865 0.32114 0.0
H890 H 0.75121 0.59648 0.29774 0.0
H891 H 0.63872 0.49418 0.2793 0.0
C892 C 0.69339 0.44541 0.27323 0.0
C893 C 0.74089 0.43328 0.27496 0.0
C894 C 0.71637 0.59334 0.30263 0.0
C895 C 0.70569 0.51558 0.28902 0.0
C896 C 0.70125 0.62599 0.31394 0.0
C897 C 0.65763 0.62048 0.32128 0.0
C898 C 0.68737 0.55549 0.29845 0.0
C899 C 0.62831 0.58406 0.3159 0.0
C900 C 0.67564 0.48613 0.28037 0.0
C901 C 0.76992 0.46465 0.28339 0.0
N902 N 0.6439 0.55263 0.3049 0.0
N903 N 0.75182 0.50417 0.29014 0.0
H904 H 0.97282 0.46462 0.56282 0.0
H905 H 0.70552 0.42978 0.58523 0.0
H906 H 0.86123 0.48351 0.52933 0.0
H907 H 0.8163 0.34948 0.60646 0.0
H908 H 0.76275 0.46447 0.56761 0.0
H909 H 0.91567 0.43687 0.58195 0.0
C910 C 0.93612 0.46345 0.5596 0.0
C911 C 0.92141 0.47642 0.54457 0.0
C912 C 0.77443 0.43941 0.57618 0.0
C913 C 0.85636 0.44492 0.56626 0.0
C914 C 0.74196 0.41981 0.5863 0.0
C915 C 0.75625 0.38658 0.59729 0.0
C916 C 0.82156 0.42631 0.57724 0.0
C917 C 0.80384 0.37475 0.59809 0.0
C918 C 0.90374 0.44735 0.57044 0.0
C919 C 0.87373 0.47369 0.54083 0.0
N920 N 0.83494 0.39476 0.5882 0.0
N921 N 0.84269 0.45836 0.55167 0.0
H922 H 0.82978 0.61521 0.81101 0.0
H923 H 0.03184 0.4748 0.85369 0.0
H924 H 0.96849 0.59626 0.79153 0.0
H925 H 0.8892 0.42482 0.85401 0.0
H926 H 0.00766 0.53864 0.83671 0.0
H927 H 0.85026 0.56091 0.83189 0.0
C928 C 0.86438 0.59972 0.81102 0.0
C929 C 0.89744 0.61065 0.7994 0.0
C930 C 0.98164 0.51403 0.84073 0.0
C931 C 0.92132 0.55038 0.82364 0.0
C932 C 0.99524 0.47788 0.85051 0.0
C933 C 0.96252 0.4442 0.85509 0.0
C934 C 0.93493 0.5169 0.83576 0.0
C935 C 0.91558 0.4498 0.85055 0.0
C936 C 0.87605 0.56917 0.82304 0.0
C937 C 0.94207 0.59008 0.80034 0.0
N938 N 0.90313 0.48542 0.84103 0.0
N939 N 0.95275 0.56121 0.8123 0.0
H940 H 0.31473 0.59816 0.02082 0.0
H941 H 0.22242 0.62688 0.10703 0.0
H942 H 0.34994 0.50065 0.05714 0.0
H943 H 0.14538 0.68334 0.06815 0.0
H944 H 0.26735 0.57794 0.08868 0.0
H945 H 0.25093 0.62873 0.03736 0.0
C946 C 0.3087 0.58292 0.03221 0.0
C947 C 0.33787 0.54716 0.03771 0.0
C948 C 0.24 0.60022 0.08412 0.0
C949 C 0.26535 0.58189 0.05662 0.0
C950 C 0.21438 0.62805 0.0946 0.0
C951 C 0.18036 0.65887 0.08901 0.0
C952 C 0.23254 0.60442 0.0679 0.0
C953 C 0.17128 0.65962 0.07283 0.0
C954 C 0.27212 0.60008 0.04157 0.0
C955 C 0.32823 0.52817 0.05244 0.0
N956 N 0.19802 0.63344 0.06275 0.0
N957 N 0.29326 0.54626 0.06148 0.0
H958 H 0.34582 0.49813 0.8094 0.0
H959 H 0.1496 0.30255 0.82048 0.0
H960 H 0.2314 0.47732 0.77675 0.0
H961 H 0.21302 0.38089 0.85869 0.0
H962 H 0.19907 0.34533 0.80186 0.0
H963 H 0.31596 0.4336 0.82495 0.0
C964 C 0.31467 0.47989 0.8054 0.0
C965 C 0.29043 0.49417 0.79193 0.0
C966 C 0.20283 0.35213 0.81437 0.0
C967 C 0.2572 0.41934 0.80943 0.0
C968 C 0.17499 0.32765 0.82495 0.0
C969 C 0.17731 0.33868 0.84104 0.0
C970 C 0.23362 0.3868 0.82009 0.0
C971 C 0.2102 0.37173 0.84633 0.0
C972 C 0.29799 0.44282 0.81422 0.0
C973 C 0.25127 0.46782 0.78704 0.0
N974 N 0.23699 0.39484 0.83586 0.0
N975 N 0.23554 0.43197 0.7959 0.0
H976 H 0.36979 0.44226 0.52821 0.0
H977 H 0.43363 0.30184 0.60527 0.0
H978 H 0.26523 0.40983 0.56287 0.0
H979 H 0.52992 0.39609 0.58305 0.0
H980 H 0.37175 0.32776 0.58722 0.0
H981 H 0.43029 0.41127 0.54567 0.0
C982 C 0.35971 0.42835 0.53947 0.0
C983 C 0.31283 0.42876 0.54424 0.0
C984 C 0.40652 0.34258 0.58634 0.0
C985 C 0.38116 0.39309 0.56406 0.0
C986 C 0.4417 0.3276 0.59651 0.0
C987 C 0.48666 0.34683 0.59553 0.0
C988 C 0.41703 0.37614 0.57501 0.0
C989 C 0.49547 0.38074 0.58421 0.0
C990 C 0.39406 0.41092 0.54942 0.0
C991 C 0.30125 0.41047 0.55893 0.0
N992 N 0.46102 0.3941 0.5743 0.0
N993 N 0.33527 0.39311 0.56834 0.0
H994 H 0.45689 0.47213 0.28205 0.0
H995 H 0.40195 0.67778 0.34381 0.0
H996 H 0.31877 0.5257 0.29238 0.0
H997 H 0.54281 0.64622 0.32855 0.0
H998 H 0.37221 0.62105 0.32488 0.0
H999 H 0.49056 0.53554 0.29834 0.0
C1000 C 0.43375 0.49766 0.28755 0.0
C1001 C 0.38497 0.49345 0.28607 0.0
C1002 C 0.40968 0.62639 0.3256 0.0
C1003 C 0.42298 0.5652 0.30476 0.0
C1004 C 0.42682 0.65882 0.33649 0.0
C1005 C 0.47516 0.66657 0.3379 0.0
C1006 C 0.44094 0.60102 0.316 0.0
C1007 C 0.50541 0.64077 0.32803 0.0
C1008 C 0.45294 0.53359 0.29689 0.0
C1009 C 0.35651 0.52716 0.29348 0.0
N1010 N 0.48781 0.60889 0.3175 0.0
N1011 N 0.37592 0.56134 0.30259 0.0
H1012 H 0.30879 0.35635 0.974 0.0
H1013 H 0.21847 0.35986 0.88675 0.0
H1014 H 0.35083 0.46111 0.94093 0.0
H1015 H 0.1427 0.2879 0.92276 0.0
H1016 H 0.26355 0.40132 0.90699 0.0
H1017 H 0.24499 0.3331 0.95619 0.0
C1018 C 0.30433 0.3747 0.96307 0.0
C1019 C 0.33539 0.41044 0.95887 0.0
C1020 C 0.23642 0.37729 0.91056 0.0
C1021 C 0.26269 0.38415 0.93853 0.0
C1022 C 0.21062 0.35382 0.899 0.0
C1023 C 0.17695 0.3208 0.90319 0.0
C1024 C 0.22949 0.36648 0.92642 0.0
C1025 C 0.16825 0.31355 0.91916 0.0
C1026 C 0.26772 0.36171 0.95299 0.0
C1027 C 0.32764 0.43353 0.94469 0.0
N1028 N 0.19514 0.33555 0.93026 0.0
N1029 N 0.2925 0.41957 0.93494 0.0
H1030 H 0.50091 0.55055 0.70385 0.0
H1031 H 0.46564 0.28279 0.67777 0.0
H1032 H 0.41989 0.45317 0.73071 0.0
H1033 H 0.54555 0.38283 0.65166 0.0
H1034 H 0.45405 0.34204 0.69867 0.0
H1035 H 0.52603 0.48631 0.68648 0.0
C1036 C 0.48918 0.51528 0.7062 0.0
C1037 C 0.45826 0.50681 0.71858 0.0
C1038 C 0.47452 0.35089 0.68844 0.0
C1039 C 0.48549 0.43348 0.69859 0.0
C1040 C 0.48088 0.31726 0.67651 0.0
C1041 C 0.5072 0.32804 0.66317 0.0
C1042 C 0.49411 0.39566 0.68682 0.0
C1043 C 0.52614 0.37295 0.66198 0.0
C1044 C 0.50322 0.47869 0.69627 0.0
C1045 C 0.44391 0.46077 0.72125 0.0
N1046 N 0.51899 0.40524 0.67362 0.0
N1047 N 0.45712 0.42573 0.71116 0.0
H1048 H 0.35341 0.49365 0.44731 0.0
H1049 H 0.4834 0.71864 0.41354 0.0
H1050 H 0.31972 0.63541 0.46186 0.0
H1051 H 0.49989 0.57806 0.39475 0.0
H1052 H 0.42757 0.68893 0.43279 0.0
H1053 H 0.4128 0.52404 0.42962 0.0
C1054 C 0.35866 0.53117 0.44681 0.0
C1055 C 0.33145 0.56205 0.45599 0.0
C1056 C 0.4433 0.66473 0.42438 0.0
C1057 C 0.39932 0.59713 0.43581 0.0
C1058 C 0.47484 0.68172 0.41333 0.0
C1059 C 0.49594 0.65092 0.40243 0.0
C1060 C 0.43299 0.61663 0.4245 0.0
C1061 C 0.48452 0.60315 0.40294 0.0
C1062 C 0.39257 0.54852 0.43673 0.0
C1063 C 0.34023 0.61032 0.45509 0.0
N1064 N 0.45383 0.58752 0.41377 0.0
N1065 N 0.37328 0.62643 0.44509 0.0
H1066 H 0.31723 0.48962 0.19139 0.0
H1067 H 0.13545 0.69244 0.17089 0.0
H1068 H 0.19029 0.517 0.21766 0.0
H1069 H 0.21306 0.61377 0.13592 0.0
H1070 H 0.17593 0.64875 0.19156 0.0
H1071 H 0.29775 0.55476 0.17431 0.0
C1072 C 0.28545 0.50929 0.19368 0.0
C1073 C 0.25493 0.49685 0.20587 0.0
C1074 C 0.185 0.64216 0.17936 0.0
C1075 C 0.23365 0.57261 0.18669 0.0
C1076 C 0.16234 0.6673 0.16763 0.0
C1077 C 0.17106 0.65633 0.15179 0.0
C1078 C 0.2169 0.60664 0.1751 0.0
C1079 C 0.2055 0.62298 0.14805 0.0
C1080 C 0.27474 0.54679 0.18401 0.0
C1081 C 0.21516 0.52505 0.20852 0.0
N1082 N 0.22698 0.59896 0.15963 0.0
N1083 N 0.2055 0.56134 0.19893 0.0
loop_
_geom_bond_atom_site_label_1
_geom_bond_atom_site_label_2
_geom_bond_distance
_geom_bond_site_symmetry_2
_ccdc_geom_bond_type
H0 C19 0.949 . S
H1 C20 0.950 . S
H2 C22 0.950 1_545 S
H3 C23 0.972 . S
H4 C25 0.950 . S
H5 C28 0.950 1_565 S
H6 C29 0.950 . S
H7 C31 0.951 . S
H8 C32 0.949 . S
H9 C34 0.949 . S
H10 C35 0.950 . S
H11 C37 0.950 1_565 S
H12 C38 0.948 . S
H13 C40 0.950 . S
H14 C43 0.950 1_545 S
H15 C44 0.958 . S
H16 C46 0.951 . S
H17 C47 0.949 . S
C18 C19 1.376 . S
C18 C23 1.371 1_565 S
C18 C24 1.483 . S
C19 H0 0.949 . S
C19 C18 1.376 . S
C19 C20 1.397 . S
C20 H1 0.950 . S
C20 C19 1.397 . S
C20 C21 1.391 . S
C21 C20 1.391 . S
C21 C22 1.405 . S
C22 H2 0.950 1_565 S
C22 C21 1.405 . S
C22 C23 1.361 1_565 S
C23 H3 0.972 . S
C23 C18 1.371 1_545 S
C23 C22 1.361 1_545 S
C24 C18 1.483 . S
C24 C25 1.382 1_655 S
C24 C26 1.403 1_565 S
C25 H4 0.950 . S
C25 C24 1.382 1_455 S
C25 C41 1.411 . S
C26 C24 1.403 1_545 S
C26 C27 1.489 . S
C26 C40 1.411 1_655 S
C27 C26 1.489 . S
C27 C28 1.383 . S
C27 C32 1.382 . S
C28 H5 0.950 1_545 S
C28 C27 1.383 . S
C28 C29 1.395 . S
C29 H6 0.950 . S
C29 C28 1.395 . S
C29 C30 1.288 . S
C30 C29 1.288 . S
C30 C31 1.392 . S
C31 H7 0.951 . S
C31 C30 1.392 . S
C31 C32 1.392 . S
C32 H8 0.949 . S
C32 C27 1.382 . S
C32 C31 1.392 . S
C33 C34 1.376 . S
C33 C38 1.388 1_545 S
C33 C39 1.483 . S
C34 H9 0.949 . S
C34 C33 1.376 . S
C34 C35 1.397 . S
C35 H10 0.950 . S
C35 C34 1.397 . S
C35 C36 1.391 . S
C36 C35 1.391 . S
C36 C37 1.405 . S
C37 H11 0.950 1_545 S
C37 C36 1.405 . S
C37 C38 1.368 1_545 S
C38 H12 0.948 . S
C38 C33 1.388 1_565 S
C38 C37 1.368 1_565 S
C39 C33 1.483 . S
C39 C40 1.382 . S
C39 C41 1.403 1_545 S
C40 H13 0.950 . S
C40 C26 1.411 1_455 S
C40 C39 1.382 . S
C41 C25 1.411 . S
C41 C39 1.403 1_565 S
C41 C42 1.489 . S
C42 C41 1.489 . S
C42 C43 1.383 . S
C42 C47 1.382 . S
C43 H14 0.950 1_565 S
C43 C42 1.383 . S
C43 C44 1.395 . S
C44 H15 0.958 . S
C44 C43 1.395 . S
C44 C45 1.288 . S
C45 C44 1.288 . S
C45 C46 1.392 . S
C46 H16 0.951 . S
C46 C45 1.392 . S
C46 C47 1.392 . S
C47 H17 0.949 . S
C47 C42 1.382 . S
C47 C46 1.392 . S
H48 C67 0.949 . S
H49 C68 0.950 . S
H50 C70 0.950 . S
H51 C71 0.950 . S
H52 C73 0.950 . S
H53 C76 0.950 . S
H54 C77 0.950 . S
H55 C79 0.951 . S
H56 C80 0.949 . S
H57 C82 0.949 . S
H58 C83 0.950 . S
H59 C85 0.950 . S
H60 C86 0.950 . S
H61 C88 0.950 . S
H62 C91 0.950 . S
H63 C92 0.950 . S
H64 C94 0.951 . S
H65 C95 0.949 . S
C66 C67 1.376 . S
C66 C71 1.386 . S
C66 C72 1.483 . S
C67 H48 0.949 . S
C67 C66 1.376 . S
C67 C68 1.397 . S
C68 H49 0.950 . S
C68 C67 1.397 . S
C68 C69 1.391 . S
C69 C68 1.391 . S
C69 C70 1.405 . S
C70 H50 0.950 . S
C70 C69 1.405 . S
C70 C71 1.367 . S
C71 H51 0.950 . S
C71 C66 1.386 . S
C71 C70 1.367 . S
C72 C66 1.483 . S
C72 C73 1.382 . S
C72 C74 1.403 . S
C73 H52 0.950 . S
C73 C72 1.382 . S
C73 C89 1.411 . S
C74 C72 1.403 . S
C74 C75 1.489 . S
C74 C88 1.411 . S
C75 C74 1.489 . S
C75 C76 1.383 . S
C75 C80 1.382 . S
C76 H53 0.950 . S
C76 C75 1.383 . S
C76 C77 1.395 . S
C77 H54 0.950 . S
C77 C76 1.395 . S
C77 C78 1.288 . S
C78 C77 1.288 . S
C78 C79 1.392 . S
C79 H55 0.951 . S
C79 C78 1.392 . S
C79 C80 1.392 . S
C80 H56 0.949 . S
C80 C75 1.382 . S
C80 C79 1.392 . S
C81 C82 1.376 . S
C81 C86 1.386 . S
C81 C87 1.483 . S
C82 H57 0.949 . S
C82 C81 1.376 . S
C82 C83 1.397 . S
C83 H58 0.950 . S
C83 C82 1.397 . S
C83 C84 1.391 . S
C84 C83 1.391 . S
C84 C85 1.405 . S
C85 H59 0.950 . S
C85 C84 1.405 . S
C85 C86 1.367 . S
C86 H60 0.950 . S
C86 C81 1.386 . S
C86 C85 1.367 . S
C87 C81 1.483 . S
C87 C88 1.382 . S
C87 C89 1.403 . S
C88 H61 0.950 . S
C88 C74 1.411 . S
C88 C87 1.382 . S
C89 C73 1.411 . S
C89 C87 1.403 . S
C89 C90 1.489 . S
C90 C89 1.489 . S
C90 C91 1.383 . S
C90 C95 1.382 . S
C91 H62 0.950 . S
C91 C90 1.383 . S
C91 C92 1.395 . S
C92 H63 0.950 . S
C92 C91 1.395 . S
C92 C93 1.288 . S
C93 C92 1.288 . S
C93 C94 1.392 . S
C94 H64 0.951 . S
C94 C93 1.392 . S
C94 C95 1.392 . S
C95 H65 0.949 . S
C95 C90 1.382 . S
C95 C94 1.392 . S
H96 C115 0.949 1_545 S
H97 C116 0.950 . S
H98 C118 0.950 . S
H99 C119 0.950 1_556 S
H100 C121 0.950 . S
H101 C124 0.950 1_554 S
H102 C125 0.950 . S
H103 C127 0.951 . S
H104 C128 0.949 1_565 S
H105 C130 0.949 1_565 S
H106 C131 0.950 . S
H107 C133 0.950 . S
H108 C134 0.950 1_554 S
H109 C136 0.950 . S
H110 C139 0.878 1_556 S
H111 C140 0.950 . S
H112 C142 0.951 . S
H113 C143 0.949 1_545 S
C114 C115 1.376 . S
C114 C119 1.386 . S
C114 C120 1.483 . S
C115 H96 0.949 1_565 S
C115 C114 1.376 . S
C115 C116 1.397 . S
C116 H97 0.950 . S
C116 C115 1.397 . S
C116 C117 1.391 . S
C117 C116 1.391 . S
C117 C118 1.405 . S
C118 H98 0.950 . S
C118 C117 1.405 . S
C118 C119 1.367 . S
C119 H99 0.950 1_554 S
C119 C114 1.386 . S
C119 C118 1.367 . S
C120 C114 1.483 . S
C120 C121 1.382 . S
C120 C122 1.403 1_564 S
C121 H100 0.950 . S
C121 C120 1.382 . S
C121 C137 1.411 . S
C122 C120 1.403 1_546 S
C122 C123 1.489 . S
C122 C136 1.411 . S
C123 C122 1.489 . S
C123 C124 1.383 . S
C123 C128 1.382 . S
C124 H101 0.950 1_556 S
C124 C123 1.383 . S
C124 C125 1.395 . S
C125 H102 0.950 . S
C125 C124 1.395 . S
C125 C126 1.288 . S
C126 C125 1.288 . S
C126 C127 1.392 . S
C127 H103 0.951 . S
C127 C126 1.392 . S
C127 C128 1.392 . S
C128 H104 0.949 1_545 S
C128 C123 1.382 . S
C128 C127 1.392 . S
C129 C130 1.376 . S
C129 C134 1.386 . S
C129 C135 1.483 . S
C130 H105 0.949 1_545 S
C130 C129 1.376 . S
C130 C131 1.397 . S
C131 H106 0.950 . S
C131 C130 1.397 . S
C131 C132 1.391 . S
C132 C131 1.391 . S
C132 C133 1.405 . S
C133 H107 0.950 . S
C133 C132 1.405 . S
C133 C134 1.367 . S
C134 H108 0.950 1_556 S
C134 C129 1.386 . S
C134 C133 1.367 . S
C135 C129 1.483 . S
C135 C136 1.382 . S
C135 C137 1.403 1_546 S
C136 H109 0.950 . S
C136 C122 1.411 . S
C136 C135 1.382 . S
C137 C121 1.411 . S
C137 C135 1.403 1_564 S
C137 C138 1.489 . S
C138 C137 1.489 . S
C138 C139 1.383 . S
C138 C143 1.382 . S
C139 H110 0.878 1_554 S
C139 C138 1.383 . S
C139 C140 1.395 . S
C140 H111 0.950 . S
C140 C139 1.395 . S
C140 C141 1.288 . S
C141 C140 1.288 . S
C141 C142 1.392 . S
C142 H112 0.951 . S
C142 C141 1.392 . S
C142 C143 1.392 . S
C143 H113 0.949 1_565 S
C143 C138 1.382 . S
C143 C142 1.392 . S
H144 C163 0.949 . S
H145 C164 0.950 . S
H146 C166 0.950 . S
H147 C167 0.950 . S
H148 C169 0.950 . S
H149 C172 0.950 . S
H150 C173 0.950 . S
H151 C175 0.951 . S
H152 C176 0.949 . S
H153 C178 0.949 . S
H154 C179 0.950 . S
H155 C181 0.950 . S
H156 C182 0.950 . S
H157 C184 0.950 . S
H158 C187 0.950 . S
H159 C188 0.950 . S
H160 C190 0.951 . S
H161 C191 0.949 . S
C162 C163 1.376 . S
C162 C167 1.386 . S
C162 C168 1.483 . S
C163 H144 0.949 . S
C163 C162 1.376 . S
C163 C164 1.397 . S
C164 H145 0.950 . S
C164 C163 1.397 . S
C164 C165 1.391 . S
C165 C164 1.391 . S
C165 C166 1.405 . S
C166 H146 0.950 . S
C166 C165 1.405 . S
C166 C167 1.367 . S
C167 H147 0.950 . S
C167 C162 1.386 . S
C167 C166 1.367 . S
C168 C162 1.483 . S
C168 C169 1.382 . S
C168 C170 1.403 . S
C169 H148 0.950 . S
C169 C168 1.382 . S
C169 C185 1.411 . S
C170 C168 1.403 . S
C170 C171 1.489 . S
C170 C184 1.411 . S
C171 C170 1.489 . S
C171 C172 1.383 . S
C171 C176 1.382 . S
C172 H149 0.950 . S
C172 C171 1.383 . S
C172 C173 1.395 . S
C173 H150 0.950 . S
C173 C172 1.395 . S
C173 C174 1.288 . S
C174 C173 1.288 . S
C174 C175 1.392 . S
C175 H151 0.951 . S
C175 C174 1.392 . S
C175 C176 1.392 . S
C176 H152 0.949 . S
C176 C171 1.382 . S
C176 C175 1.392 . S
C177 C178 1.376 . S
C177 C182 1.386 . S
C177 C183 1.483 . S
C178 H153 0.949 . S
C178 C177 1.376 . S
C178 C179 1.397 . S
C179 H154 0.950 . S
C179 C178 1.397 . S
C179 C180 1.391 . S
C180 C179 1.391 . S
C180 C181 1.405 . S
C181 H155 0.950 . S
C181 C180 1.405 . S
C181 C182 1.367 . S
C182 H156 0.950 . S
C182 C177 1.386 . S
C182 C181 1.367 . S
C183 C177 1.483 . S
C183 C184 1.382 . S
C183 C185 1.403 . S
C184 H157 0.950 . S
C184 C170 1.411 . S
C184 C183 1.382 . S
C185 C169 1.411 . S
C185 C183 1.403 . S
C185 C186 1.489 . S
C186 C185 1.489 . S
C186 C187 1.383 . S
C186 C191 1.382 . S
C187 H158 0.950 . S
C187 C186 1.383 . S
C187 C188 1.395 . S
C188 H159 0.950 . S
C188 C187 1.395 . S
C188 C189 1.288 . S
C189 C188 1.288 . S
C189 C190 1.392 . S
C190 H160 0.951 . S
C190 C189 1.392 . S
C190 C191 1.392 . S
C191 H161 0.949 . S
C191 C186 1.382 . S
C191 C190 1.392 . S
H192 C211 0.949 . S
H193 C212 0.950 . S
H194 C214 0.950 . S
H195 C215 0.950 . S
H196 C217 0.950 . S
H197 C220 0.950 . S
H198 C221 0.950 . S
H199 C223 0.951 . S
H200 C224 0.949 . S
H201 C226 0.949 . S
H202 C227 0.950 . S
H203 C229 0.950 . S
H204 C230 0.950 . S
H205 C232 0.950 . S
H206 C235 0.950 . S
H207 C236 0.950 . S
H208 C238 0.951 . S
H209 C239 0.949 . S
C210 C211 1.376 . S
C210 C215 1.386 . S
C210 C216 1.483 . S
C211 H192 0.949 . S
C211 C210 1.376 . S
C211 C212 1.397 . S
C212 H193 0.950 . S
C212 C211 1.397 . S
C212 C213 1.391 . S
C213 C212 1.391 . S
C213 C214 1.405 . S
C214 H194 0.950 . S
C214 C213 1.405 . S
C214 C215 1.367 . S
C215 H195 0.950 . S
C215 C210 1.386 . S
C215 C214 1.367 . S
C216 C210 1.483 . S
C216 C217 1.382 . S
C216 C218 1.403 . S
C217 H196 0.950 . S
C217 C216 1.382 . S
C217 C233 1.411 . S
C218 C216 1.403 . S
C218 C219 1.489 . S
C218 C232 1.411 . S
C219 C218 1.489 . S
C219 C220 1.383 . S
C219 C224 1.382 . S
C220 H197 0.950 . S
C220 C219 1.383 . S
C220 C221 1.395 . S
C221 H198 0.950 . S
C221 C220 1.395 . S
C221 C222 1.288 . S
C222 C221 1.288 . S
C222 C223 1.392 . S
C223 H199 0.951 . S
C223 C222 1.392 . S
C223 C224 1.392 . S
C224 H200 0.949 . S
C224 C219 1.382 . S
C224 C223 1.392 . S
C225 C226 1.376 . S
C225 C230 1.386 . S
C225 C231 1.483 . S
C226 H201 0.949 . S
C226 C225 1.376 . S
C226 C227 1.397 . S
C227 H202 0.950 . S
C227 C226 1.397 . S
C227 C228 1.391 . S
C228 C227 1.391 . S
C228 C229 1.405 . S
C229 H203 0.950 . S
C229 C228 1.405 . S
C229 C230 1.367 . S
C230 H204 0.950 . S
C230 C225 1.386 . S
C230 C229 1.367 . S
C231 C225 1.483 . S
C231 C232 1.382 . S
C231 C233 1.403 . S
C232 H205 0.950 . S
C232 C218 1.411 . S
C232 C231 1.382 . S
C233 C217 1.411 . S
C233 C231 1.403 . S
C233 C234 1.489 . S
C234 C233 1.489 . S
C234 C235 1.383 . S
C234 C239 1.382 . S
C235 H206 0.950 . S
C235 C234 1.383 . S
C235 C236 1.395 . S
C236 H207 0.950 . S
C236 C235 1.395 . S
C236 C237 1.288 . S
C237 C236 1.288 . S
C237 C238 1.392 . S
C238 H208 0.951 . S
C238 C237 1.392 . S
C238 C239 1.392 . S
C239 H209 0.949 . S
C239 C234 1.382 . S
C239 C238 1.392 . S
H240 C259 0.949 . S
H241 C260 0.950 . S
H242 C262 0.950 . S
H243 C263 0.950 . S
H244 C265 0.950 . S
H245 C268 0.950 . S
H246 C269 0.950 . S
H247 C271 0.951 . S
H248 C272 0.949 . S
H249 C274 0.949 . S
H250 C275 0.950 . S
H251 C277 0.950 . S
H252 C278 0.950 . S
H253 C280 0.950 . S
H254 C283 0.950 . S
H255 C284 0.950 . S
H256 C286 0.951 . S
H257 C287 0.949 . S
C258 C259 1.376 . S
C258 C263 1.386 . S
C258 C264 1.483 . S
C259 H240 0.949 . S
C259 C258 1.376 . S
C259 C260 1.397 . S
C260 H241 0.950 . S
C260 C259 1.397 . S
C260 C261 1.391 . S
C261 C260 1.391 . S
C261 C262 1.405 . S
C262 H242 0.950 . S
C262 C261 1.405 . S
C262 C263 1.367 . S
C263 H243 0.950 . S
C263 C258 1.386 . S
C263 C262 1.367 . S
C264 C258 1.483 . S
C264 C265 1.382 . S
C264 C266 1.403 . S
C265 H244 0.950 . S
C265 C264 1.382 . S
C265 C281 1.411 . S
C266 C264 1.403 . S
C266 C267 1.489 . S
C266 C280 1.411 . S
C267 C266 1.489 . S
C267 C268 1.383 . S
C267 C272 1.382 . S
C268 H245 0.950 . S
C268 C267 1.383 . S
C268 C269 1.395 . S
C269 H246 0.950 . S
C269 C268 1.395 . S
C269 C270 1.288 . S
C270 C269 1.288 . S
C270 C271 1.392 . S
C271 H247 0.951 . S
C271 C270 1.392 . S
C271 C272 1.392 . S
C272 H248 0.949 . S
C272 C267 1.382 . S
C272 C271 1.392 . S
C273 C274 1.376 . S
C273 C278 1.386 . S
C273 C279 1.483 . S
C274 H249 0.949 . S
C274 C273 1.376 . S
C274 C275 1.397 . S
C275 H250 0.950 . S
C275 C274 1.397 . S
C275 C276 1.391 . S
C276 C275 1.391 . S
C276 C277 1.405 . S
C277 H251 0.950 . S
C277 C276 1.405 . S
C277 C278 1.367 . S
C278 H252 0.950 . S
C278 C273 1.386 . S
C278 C277 1.367 . S
C279 C273 1.483 . S
C279 C280 1.382 . S
C279 C281 1.403 . S
C280 H253 0.950 . S
C280 C266 1.411 . S
C280 C279 1.382 . S
C281 C265 1.411 . S
C281 C279 1.403 . S
C281 C282 1.489 . S
C282 C281 1.489 . S
C282 C283 1.383 . S
C282 C287 1.382 . S
C283 H254 0.950 . S
C283 C282 1.383 . S
C283 C284 1.395 . S
C284 H255 0.950 . S
C284 C283 1.395 . S
C284 C285 1.288 . S
C285 C284 1.288 . S
C285 C286 1.392 . S
C286 H256 0.951 . S
C286 C285 1.392 . S
C286 C287 1.392 . S
C287 H257 0.949 . S
C287 C282 1.382 . S
C287 C286 1.392 . S
H288 C307 0.949 . S
H289 C308 0.950 . S
H290 C310 0.950 . S
H291 C311 0.950 . S
H292 C313 0.950 . S
H293 C316 0.950 . S
H294 C317 0.950 . S
H295 C319 0.951 . S
H296 C320 0.949 . S
H297 C322 0.949 . S
H298 C323 0.950 . S
H299 C325 0.950 . S
H300 C326 0.950 . S
H301 C328 0.950 . S
H302 C331 0.950 . S
H303 C332 0.950 . S
H304 C334 0.951 . S
H305 C335 0.949 . S
C306 C307 1.376 . S
C306 C311 1.386 . S
C306 C312 1.483 . S
C307 H288 0.949 . S
C307 C306 1.376 . S
C307 C308 1.397 . S
C308 H289 0.950 . S
C308 C307 1.397 . S
C308 C309 1.391 . S
C309 C308 1.391 . S
C309 C310 1.405 . S
C310 H290 0.950 . S
C310 C309 1.405 . S
C310 C311 1.367 . S
C311 H291 0.950 . S
C311 C306 1.386 . S
C311 C310 1.367 . S
C312 C306 1.483 . S
C312 C313 1.382 . S
C312 C314 1.403 1_556 S
C313 H292 0.950 . S
C313 C312 1.382 . S
C313 C329 1.411 . S
C314 C312 1.403 1_554 S
C314 C315 1.489 . S
C314 C328 1.411 . S
C315 C314 1.489 . S
C315 C316 1.383 . S
C315 C320 1.382 . S
C316 H293 0.950 . S
C316 C315 1.383 . S
C316 C317 1.395 . S
C317 H294 0.950 . S
C317 C316 1.395 . S
C317 C318 1.288 . S
C318 C317 1.288 . S
C318 C319 1.392 . S
C319 H295 0.951 . S
C319 C318 1.392 . S
C319 C320 1.392 . S
C320 H296 0.949 . S
C320 C315 1.382 . S
C320 C319 1.392 . S
C321 C322 1.376 . S
C321 C326 1.386 . S
C321 C327 1.483 . S
C322 H297 0.949 . S
C322 C321 1.376 . S
C322 C323 1.397 . S
C323 H298 0.950 . S
C323 C322 1.397 . S
C323 C324 1.391 . S
C324 C323 1.391 . S
C324 C325 1.405 . S
C325 H299 0.950 . S
C325 C324 1.405 . S
C325 C326 1.367 . S
C326 H300 0.950 . S
C326 C321 1.386 . S
C326 C325 1.367 . S
C327 C321 1.483 . S
C327 C328 1.382 . S
C327 C329 1.403 1_554 S
C328 H301 0.950 . S
C328 C314 1.411 . S
C328 C327 1.382 . S
C329 C313 1.411 . S
C329 C327 1.403 1_556 S
C329 C330 1.489 . S
C330 C329 1.489 . S
C330 C331 1.383 . S
C330 C335 1.382 . S
C331 H302 0.950 . S
C331 C330 1.383 . S
C331 C332 1.395 . S
C332 H303 0.950 . S
C332 C331 1.395 . S
C332 C333 1.288 . S
C333 C332 1.288 . S
C333 C334 1.392 . S
C334 H304 0.951 . S
C334 C333 1.392 . S
C334 C335 1.392 . S
C335 H305 0.949 . S
C335 C330 1.382 . S
C335 C334 1.392 . S
H336 C355 0.949 . S
H337 C356 0.950 . S
H338 C358 0.950 . S
H339 C359 0.950 . S
H340 C361 0.950 . S
H341 C364 0.950 . S
H342 C365 0.950 . S
H343 C367 0.951 . S
H344 C368 0.949 . S
H345 C370 0.949 . S
H346 C371 0.950 . S
H347 C373 0.950 . S
H348 C374 0.950 . S
H349 C376 0.950 . S
H350 C379 0.950 . S
H351 C380 0.950 . S
H352 C382 0.951 . S
H353 C383 0.949 . S
C354 C355 1.376 . S
C354 C359 1.386 . S
C354 C360 1.483 . S
C355 H336 0.949 . S
C355 C354 1.376 . S
C355 C356 1.397 . S
C356 H337 0.950 . S
C356 C355 1.397 . S
C356 C357 1.391 1_455 S
C357 C356 1.391 1_655 S
C357 C358 1.405 . S
C358 H338 0.950 . S
C358 C357 1.405 . S
C358 C359 1.367 1_655 S
C359 H339 0.950 . S
C359 C354 1.386 . S
C359 C358 1.367 1_455 S
C360 C354 1.483 . S
C360 C361 1.382 . S
C360 C362 1.403 . S
C361 H340 0.950 . S
C361 C360 1.382 . S
C361 C377 1.411 . S
C362 C360 1.403 . S
C362 C363 1.489 . S
C362 C376 1.411 . S
C363 C362 1.489 . S
C363 C364 1.383 . S
C363 C368 1.382 . S
C364 H341 0.950 . S
C364 C363 1.383 . S
C364 C365 1.395 1_455 S
C365 H342 0.950 . S
C365 C364 1.395 1_655 S
C365 C366 1.288 . S
C366 C365 1.288 . S
C366 C367 1.392 1_655 S
C367 H343 0.951 . S
C367 C366 1.392 1_455 S
C367 C368 1.392 . S
C368 H344 0.949 . S
C368 C363 1.382 . S
C368 C367 1.392 . S
C369 C370 1.376 . S
C369 C374 1.386 . S
C369 C375 1.483 . S
C370 H345 0.949 . S
C370 C369 1.376 . S
C370 C371 1.397 . S
C371 H346 0.950 . S
C371 C370 1.397 . S
C371 C372 1.391 . S
C372 C371 1.391 . S
C372 C373 1.405 . S
C373 H347 0.950 . S
C373 C372 1.405 . S
C373 C374 1.367 . S
C374 H348 0.950 . S
C374 C369 1.386 . S
C374 C373 1.367 . S
C375 C369 1.483 . S
C375 C376 1.382 . S
C375 C377 1.403 . S
C376 H349 0.950 . S
C376 C362 1.411 . S
C376 C375 1.382 . S
C377 C361 1.411 . S
C377 C375 1.403 . S
C377 C378 1.489 . S
C378 C377 1.489 . S
C378 C379 1.383 . S
C378 C383 1.382 . S
C379 H350 0.950 . S
C379 C378 1.383 . S
C379 C380 1.395 . S
C380 H351 0.950 . S
C380 C379 1.395 . S
C380 C381 1.288 . S
C381 C380 1.288 . S
C381 C382 1.392 . S
C382 H352 0.951 . S
C382 C381 1.392 . S
C382 C383 1.392 . S
C383 H353 0.949 . S
C383 C378 1.382 . S
C383 C382 1.392 . S
C384 O411 1.312 . S
C384 O412 1.208 . S
C385 O406 1.331 1_655 S
C385 O409 1.244 . S
C386 O408 1.264 1_655 S
C386 O410 1.273 . S
Mg387 O389 1.936 . S
Mg387 O396 2.081 . S
Mg387 O398 2.023 . S
Mg387 O402 2.031 . S
Mg387 O411 2.291 . S
Mg388 O389 1.963 . S
Mg388 O399 1.942 . S
Mg388 O400 1.955 . S
Mg388 O407 1.986 . S
O389 Mg387 1.936 . S
O389 Mg388 1.963 . S
O389 Mg390 1.915 . S
Mg390 O389 1.915 . S
Mg390 O391 1.915 . S
Mg390 O395 2.013 . S
Mg390 O401 2.114 . S
Mg390 O405 2.013 . S
Mg390 O411 2.114 . S
O391 Mg390 1.915 . S
O391 Mg392 1.936 . S
O391 Mg393 1.963 1_455 S
Mg392 O391 1.936 . S
Mg392 O401 2.291 . S
Mg392 O406 2.081 . S
Mg392 O408 2.023 . S
Mg392 O412 2.031 . S
Mg393 O391 1.963 1_655 S
Mg393 O397 1.986 . S
Mg393 O409 1.942 . S
Mg393 O410 1.955 . S
C394 O405 1.191 . S
C394 O407 1.307 . S
O395 Mg390 2.013 . S
O395 C414 1.191 . S
O396 Mg387 2.081 . S
O396 C404 1.331 . S
O397 Mg393 1.986 . S
O397 C414 1.307 1_655 S
O398 Mg387 2.023 . S
O398 C413 1.264 . S
O399 Mg388 1.942 . S
O399 C404 1.244 . S
O400 Mg388 1.955 . S
O400 C413 1.273 . S
O401 Mg390 2.114 . S
O401 Mg392 2.291 . S
O401 C403 1.312 . S
O402 Mg387 2.031 . S
O402 C403 1.208 . S
C403 O401 1.312 . S
C403 O402 1.208 . S
C404 O396 1.331 . S
C404 O399 1.244 . S
O405 Mg390 2.013 . S
O405 C394 1.191 . S
O406 C385 1.331 1_455 S
O406 Mg392 2.081 . S
O407 Mg388 1.986 . S
O407 C394 1.307 . S
O408 C386 1.264 1_455 S
O408 Mg392 2.023 . S
O409 C385 1.244 . S
O409 Mg393 1.942 . S
O410 C386 1.273 . S
O410 Mg393 1.955 . S
O411 C384 1.312 . S
O411 Mg387 2.291 . S
O411 Mg390 2.114 . S
O412 C384 1.208 . S
O412 Mg392 2.031 . S
C413 O398 1.264 . S
C413 O400 1.273 . S
C414 O395 1.191 . S
C414 O397 1.307 1_455 S
C415 O442 1.312 . S
C415 O443 1.208 . S
C416 O437 1.331 . S
C416 O440 1.244 . S
C417 O439 1.264 . S
C417 O441 1.273 . S
Mg418 O420 1.936 . S
Mg418 O427 2.081 . S
Mg418 O429 2.023 . S
Mg418 O433 2.031 . S
Mg418 O442 2.291 . S
Mg419 O420 1.963 . S
Mg419 O430 1.942 . S
Mg419 O431 1.955 . S
Mg419 O438 1.986 . S
O420 Mg418 1.936 . S
O420 Mg419 1.963 . S
O420 Mg421 1.915 . S
Mg421 O420 1.915 . S
Mg421 O422 1.915 . S
Mg421 O426 2.013 . S
Mg421 O432 2.114 . S
Mg421 O436 2.013 . S
Mg421 O442 2.114 . S
O422 Mg421 1.915 . S
O422 Mg423 1.936 . S
O422 Mg424 1.963 . S
Mg423 O422 1.936 . S
Mg423 O432 2.291 . S
Mg423 O437 2.081 . S
Mg423 O439 2.023 . S
Mg423 O443 2.031 . S
Mg424 O422 1.963 . S
Mg424 O428 1.986 . S
Mg424 O440 1.942 . S
Mg424 O441 1.955 . S
C425 O436 1.191 . S
C425 O438 1.307 . S
O426 Mg421 2.013 . S
O426 C445 1.191 . S
O427 Mg418 2.081 . S
O427 C435 1.331 . S
O428 Mg424 1.986 . S
O428 C445 1.307 . S
O429 Mg418 2.023 . S
O429 C444 1.264 . S
O430 Mg419 1.942 . S
O430 C435 1.244 . S
O431 Mg419 1.955 . S
O431 C444 1.273 . S
O432 Mg421 2.114 . S
O432 Mg423 2.291 . S
O432 C434 1.312 . S
O433 Mg418 2.031 . S
O433 C434 1.208 . S
C434 O432 1.312 . S
C434 O433 1.208 . S
C435 O427 1.331 . S
C435 O430 1.244 . S
O436 Mg421 2.013 . S
O436 C425 1.191 . S
O437 C416 1.331 . S
O437 Mg423 2.081 . S
O438 Mg419 1.986 . S
O438 C425 1.307 . S
O439 C417 1.264 . S
O439 Mg423 2.023 . S
O440 C416 1.244 . S
O440 Mg424 1.942 . S
O441 C417 1.273 . S
O441 Mg424 1.955 . S
O442 C415 1.312 . S
O442 Mg418 2.291 . S
O442 Mg421 2.114 . S
O443 C415 1.208 . S
O443 Mg423 2.031 . S
C444 O429 1.264 . S
C444 O431 1.273 . S
C445 O426 1.191 . S
C445 O428 1.307 . S
C446 O473 1.312 . S
C446 O474 1.208 . S
C447 O468 1.331 . S
C447 O471 1.244 . S
C448 O470 1.264 . S
C448 O472 1.273 . S
Mg449 O451 1.936 . S
Mg449 O458 2.081 . S
Mg449 O460 2.023 . S
Mg449 O464 2.031 . S
Mg449 O473 2.291 . S
Mg450 O451 1.963 . S
Mg450 O461 1.942 . S
Mg450 O462 1.955 . S
Mg450 O469 1.986 . S
O451 Mg449 1.936 . S
O451 Mg450 1.963 . S
O451 Mg452 1.915 . S
Mg452 O451 1.915 . S
Mg452 O453 1.915 . S
Mg452 O457 2.013 . S
Mg452 O463 2.114 . S
Mg452 O467 2.013 . S
Mg452 O473 2.114 . S
O453 Mg452 1.915 . S
O453 Mg454 1.936 . S
O453 Mg455 1.963 . S
Mg454 O453 1.936 . S
Mg454 O463 2.291 . S
Mg454 O468 2.081 . S
Mg454 O470 2.023 . S
Mg454 O474 2.031 . S
Mg455 O453 1.963 . S
Mg455 O459 1.986 . S
Mg455 O471 1.942 . S
Mg455 O472 1.955 . S
C456 O467 1.191 . S
C456 O469 1.307 . S
O457 Mg452 2.013 . S
O457 C476 1.191 . S
O458 Mg449 2.081 . S
O458 C466 1.331 . S
O459 Mg455 1.986 . S
O459 C476 1.307 . S
O460 Mg449 2.023 . S
O460 C475 1.264 . S
O461 Mg450 1.942 . S
O461 C466 1.244 . S
O462 Mg450 1.955 . S
O462 C475 1.273 . S
O463 Mg452 2.114 . S
O463 Mg454 2.291 . S
O463 C465 1.312 . S
O464 Mg449 2.031 . S
O464 C465 1.208 . S
C465 O463 1.312 . S
C465 O464 1.208 . S
C466 O458 1.331 . S
C466 O461 1.244 . S
O467 Mg452 2.013 . S
O467 C456 1.191 . S
O468 C447 1.331 . S
O468 Mg454 2.081 . S
O469 Mg450 1.986 . S
O469 C456 1.307 . S
O470 C448 1.264 . S
O470 Mg454 2.023 . S
O471 C447 1.244 . S
O471 Mg455 1.942 . S
O472 C448 1.273 . S
O472 Mg455 1.955 . S
O473 C446 1.312 . S
O473 Mg449 2.291 . S
O473 Mg452 2.114 . S
O474 C446 1.208 . S
O474 Mg454 2.031 . S
C475 O460 1.264 . S
C475 O462 1.273 . S
C476 O457 1.191 . S
C476 O459 1.307 . S
C477 O504 1.312 . S
C477 O505 1.208 . S
C478 O499 1.331 . S
C478 O502 1.244 . S
C479 O501 1.264 . S
C479 O503 1.273 . S
Mg480 O482 1.936 . S
Mg480 O489 2.081 . S
Mg480 O491 2.023 . S
Mg480 O495 2.031 . S
Mg480 O504 2.291 . S
Mg481 O482 1.963 1_655 S
Mg481 O492 1.942 . S
Mg481 O493 1.955 . S
Mg481 O500 1.986 . S
O482 Mg480 1.936 . S
O482 Mg481 1.963 1_455 S
O482 Mg483 1.915 . S
Mg483 O482 1.915 . S
Mg483 O484 1.915 . S
Mg483 O488 2.013 . S
Mg483 O494 2.114 . S
Mg483 O498 2.013 . S
Mg483 O504 2.114 . S
O484 Mg483 1.915 . S
O484 Mg485 1.936 . S
O484 Mg486 1.963 . S
Mg485 O484 1.936 . S
Mg485 O494 2.291 . S
Mg485 O499 2.081 . S
Mg485 O501 2.023 . S
Mg485 O505 2.031 . S
Mg486 O484 1.963 . S
Mg486 O490 1.986 . S
Mg486 O502 1.942 . S
Mg486 O503 1.955 . S
C487 O498 1.191 . S
C487 O500 1.307 1_455 S
O488 Mg483 2.013 . S
O488 C507 1.191 . S
O489 Mg480 2.081 . S
O489 C497 1.331 1_455 S
O490 Mg486 1.986 . S
O490 C507 1.307 . S
O491 Mg480 2.023 . S
O491 C506 1.264 1_455 S
O492 Mg481 1.942 . S
O492 C497 1.244 . S
O493 Mg481 1.955 . S
O493 C506 1.273 . S
O494 Mg483 2.114 . S
O494 Mg485 2.291 . S
O494 C496 1.312 . S
O495 Mg480 2.031 . S
O495 C496 1.208 . S
C496 O494 1.312 . S
C496 O495 1.208 . S
C497 O489 1.331 1_655 S
C497 O492 1.244 . S
O498 Mg483 2.013 . S
O498 C487 1.191 . S
O499 C478 1.331 . S
O499 Mg485 2.081 . S
O500 Mg481 1.986 . S
O500 C487 1.307 1_655 S
O501 C479 1.264 . S
O501 Mg485 2.023 . S
O502 C478 1.244 . S
O502 Mg486 1.942 . S
O503 C479 1.273 . S
O503 Mg486 1.955 . S
O504 C477 1.312 . S
O504 Mg480 2.291 . S
O504 Mg483 2.114 . S
O505 C477 1.208 . S
O505 Mg485 2.031 . S
C506 O491 1.264 1_655 S
C506 O493 1.273 . S
C507 O488 1.191 . S
C507 O490 1.307 . S
H508 C514 0.930 . S
H509 C518 0.930 . S
H510 C523 0.929 . S
H511 C521 0.929 . S
H512 C516 0.929 . S
H513 C522 0.929 . S
C514 H508 0.930 . S
C514 C515 1.367 . S
C514 C522 1.378 . S
C515 C514 1.367 . S
C515 C523 1.433 . S
C516 H512 0.929 . S
C516 C518 1.378 . S
C516 C520 1.350 . S
C517 C520 1.463 . S
C517 C522 1.350 . S
C517 N525 1.427 . S
C518 H509 0.930 . S
C518 C516 1.378 . S
C518 C519 1.367 . S
C519 C518 1.367 . S
C519 C521 1.433 . S
C520 C516 1.350 . S
C520 C517 1.463 . S
C520 N524 1.427 . S
C521 H511 0.929 . S
C521 C519 1.433 . S
C521 N524 1.384 . S
C522 H513 0.929 . S
C522 C514 1.378 . S
C522 C517 1.350 . S
C523 H510 0.929 . S
C523 C515 1.433 . S
C523 N525 1.384 . S
N524 C520 1.427 . S
N524 C521 1.384 . S
N525 C517 1.427 . S
N525 C523 1.384 . S
H526 C532 0.930 . S
H527 C536 0.930 . S
H528 C541 0.929 . S
H529 C539 0.929 . S
H530 C534 0.929 . S
H531 C540 0.929 . S
C532 H526 0.930 . S
C532 C533 1.367 . S
C532 C540 1.378 . S
C533 C532 1.367 . S
C533 C541 1.433 . S
C534 H530 0.929 . S
C534 C536 1.378 . S
C534 C538 1.350 . S
C535 C538 1.463 1_565 S
C535 C540 1.350 . S
C535 N543 1.427 . S
C536 H527 0.930 . S
C536 C534 1.378 . S
C536 C537 1.367 . S
C537 C536 1.367 . S
C537 C539 1.433 . S
C538 C534 1.350 . S
C538 C535 1.463 1_545 S
C538 N542 1.427 . S
C539 H529 0.929 . S
C539 C537 1.433 . S
C539 N542 1.384 . S
C540 H531 0.929 . S
C540 C532 1.378 . S
C540 C535 1.350 . S
C541 H528 0.929 . S
C541 C533 1.433 . S
C541 N543 1.384 . S
N542 C538 1.427 . S
N542 C539 1.384 . S
N543 C535 1.427 . S
N543 C541 1.384 . S
H544 C550 0.930 . S
H545 C554 0.930 . S
H546 C559 0.929 . S
H547 C557 0.929 . S
H548 C552 0.929 . S
H549 C558 0.929 . S
C550 H544 0.930 . S
C550 C551 1.367 . S
C550 C558 1.378 . S
C551 C550 1.367 . S
C551 C559 1.433 . S
C552 H548 0.929 . S
C552 C554 1.378 . S
C552 C556 1.350 . S
C553 C556 1.463 . S
C553 C558 1.350 . S
C553 N561 1.427 . S
C554 H545 0.930 . S
C554 C552 1.378 . S
C554 C555 1.367 . S
C555 C554 1.367 . S
C555 C557 1.433 . S
C556 C552 1.350 . S
C556 C553 1.463 . S
C556 N560 1.427 . S
C557 H547 0.929 . S
C557 C555 1.433 . S
C557 N560 1.384 . S
C558 H549 0.929 . S
C558 C550 1.378 . S
C558 C553 1.350 . S
C559 H546 0.929 . S
C559 C551 1.433 . S
C559 N561 1.384 . S
N560 C556 1.427 . S
N560 C557 1.384 . S
N561 C553 1.427 . S
N561 C559 1.384 . S
H562 C568 0.930 . S
H563 C572 0.930 . S
H564 C577 0.929 . S
H565 C575 0.929 . S
H566 C570 0.929 1_545 S
H567 C576 0.929 1_565 S
C568 H562 0.930 . S
C568 C569 1.367 . S
C568 C576 1.378 . S
C569 C568 1.367 . S
C569 C577 1.433 . S
C570 H566 0.929 1_565 S
C570 C572 1.378 . S
C570 C574 1.350 . S
C571 C574 1.463 1_545 S
C571 C576 1.350 . S
C571 N579 1.427 . S
C572 H563 0.930 . S
C572 C570 1.378 . S
C572 C573 1.367 . S
C573 C572 1.367 . S
C573 C575 1.433 . S
C574 C570 1.350 . S
C574 C571 1.463 1_565 S
C574 N578 1.427 . S
C575 H565 0.929 . S
C575 C573 1.433 . S
C575 N578 1.384 . S
C576 H567 0.929 1_545 S
C576 C568 1.378 . S
C576 C571 1.350 . S
C577 H564 0.929 . S
C577 C569 1.433 . S
C577 N579 1.384 . S
N578 C574 1.427 . S
N578 C575 1.384 . S
N579 C571 1.427 . S
N579 C577 1.384 . S
H580 C586 0.930 . S
H581 C590 0.930 . S
H582 C595 0.929 . S
H583 C593 0.929 . S
H584 C588 0.929 . S
H585 C594 0.929 . S
C586 H580 0.930 . S
C586 C587 1.367 . S
C586 C594 1.378 . S
C587 C586 1.367 . S
C587 C595 1.433 . S
C588 H584 0.929 . S
C588 C590 1.378 . S
C588 C592 1.350 . S
C589 C592 1.463 . S
C589 C594 1.350 . S
C589 N597 1.427 . S
C590 H581 0.930 . S
C590 C588 1.378 . S
C590 C591 1.367 . S
C591 C590 1.367 . S
C591 C593 1.433 . S
C592 C588 1.350 . S
C592 C589 1.463 . S
C592 N596 1.427 . S
C593 H583 0.929 . S
C593 C591 1.433 . S
C593 N596 1.384 . S
C594 H585 0.929 . S
C594 C586 1.378 . S
C594 C589 1.350 . S
C595 H582 0.929 . S
C595 C587 1.433 . S
C595 N597 1.384 . S
N596 C592 1.427 . S
N596 C593 1.384 . S
N597 C589 1.427 . S
N597 C595 1.384 . S
H598 C604 0.930 . S
H599 C608 0.930 . S
H600 C613 0.929 . S
H601 C611 0.929 . S
H602 C606 0.929 . S
H603 C612 0.929 . S
C604 H598 0.930 . S
C604 C605 1.367 . S
C604 C612 1.378 . S
C605 C604 1.367 . S
C605 C613 1.433 . S
C606 H602 0.929 . S
C606 C608 1.378 . S
C606 C610 1.350 . S
C607 C610 1.463 1_565 S
C607 C612 1.350 . S
C607 N615 1.427 . S
C608 H599 0.930 . S
C608 C606 1.378 . S
C608 C609 1.367 . S
C609 C608 1.367 . S
C609 C611 1.433 . S
C610 C606 1.350 . S
C610 C607 1.463 1_545 S
C610 N614 1.427 . S
C611 H601 0.929 . S
C611 C609 1.433 . S
C611 N614 1.384 . S
C612 H603 0.929 . S
C612 C604 1.378 . S
C612 C607 1.350 . S
C613 H600 0.929 . S
C613 C605 1.433 . S
C613 N615 1.384 . S
N614 C610 1.427 . S
N614 C611 1.384 . S
N615 C607 1.427 . S
N615 C613 1.384 . S
H616 C622 0.930 . S
H617 C626 0.930 . S
H618 C631 0.929 . S
H619 C629 0.929 . S
H620 C624 0.929 . S
H621 C630 0.929 . S
C622 H616 0.930 . S
C622 C623 1.367 . S
C622 C630 1.378 . S
C623 C622 1.367 . S
C623 C631 1.433 . S
C624 H620 0.929 . S
C624 C626 1.378 . S
C624 C628 1.350 . S
C625 C628 1.463 . S
C625 C630 1.350 . S
C625 N633 1.427 . S
C626 H617 0.930 . S
C626 C624 1.378 . S
C626 C627 1.367 . S
C627 C626 1.367 . S
C627 C629 1.433 . S
C628 C624 1.350 . S
C628 C625 1.463 . S
C628 N632 1.427 . S
C629 H619 0.929 . S
C629 C627 1.433 . S
C629 N632 1.384 . S
C630 H621 0.929 . S
C630 C622 1.378 . S
C630 C625 1.350 . S
C631 H618 0.929 . S
C631 C623 1.433 . S
C631 N633 1.384 . S
N632 C628 1.427 . S
N632 C629 1.384 . S
N633 C625 1.427 . S
N633 C631 1.384 . S
H634 C640 0.930 . S
H635 C644 0.930 . S
H636 C649 0.929 . S
H637 C647 0.929 . S
H638 C642 0.929 . S
H639 C648 0.929 . S
C640 H634 0.930 . S
C640 C641 1.367 . S
C640 C648 1.378 . S
C641 C640 1.367 . S
C641 C649 1.433 . S
C642 H638 0.929 . S
C642 C644 1.378 . S
C642 C646 1.350 . S
C643 C646 1.463 1_545 S
C643 C648 1.350 . S
C643 N651 1.427 . S
C644 H635 0.930 . S
C644 C642 1.378 . S
C644 C645 1.367 . S
C645 C644 1.367 . S
C645 C647 1.433 . S
C646 C642 1.350 . S
C646 C643 1.463 1_565 S
C646 N650 1.427 . S
C647 H637 0.929 . S
C647 C645 1.433 . S
C647 N650 1.384 . S
C648 H639 0.929 . S
C648 C640 1.378 . S
C648 C643 1.350 . S
C649 H636 0.929 . S
C649 C641 1.433 . S
C649 N651 1.384 . S
N650 C646 1.427 . S
N650 C647 1.384 . S
N651 C643 1.427 . S
N651 C649 1.384 . S
H652 C658 0.930 . S
H653 C662 0.930 . S
H654 C667 0.929 . S
H655 C665 0.929 . S
H656 C660 0.929 . S
H657 C666 0.929 . S
C658 H652 0.930 . S
C658 C659 1.367 . S
C658 C666 1.378 . S
C659 C658 1.367 . S
C659 C667 1.433 . S
C660 H656 0.929 . S
C660 C662 1.378 . S
C660 C664 1.350 . S
C661 C664 1.463 . S
C661 C666 1.350 . S
C661 N669 1.427 . S
C662 H653 0.930 . S
C662 C660 1.378 . S
C662 C663 1.367 . S
C663 C662 1.367 . S
C663 C665 1.433 . S
C664 C660 1.350 . S
C664 C661 1.463 . S
C664 N668 1.427 . S
C665 H655 0.929 . S
C665 C663 1.433 . S
C665 N668 1.384 . S
C666 H657 0.929 . S
C666 C658 1.378 . S
C666 C661 1.350 . S
C667 H654 0.929 . S
C667 C659 1.433 . S
C667 N669 1.384 . S
N668 C664 1.427 . S
N668 C665 1.384 . S
N669 C661 1.427 . S
N669 C667 1.384 . S
H670 C676 0.930 . S
H671 C680 0.930 . S
H672 C685 0.929 . S
H673 C683 0.929 . S
H674 C678 0.929 . S
H675 C684 0.929 . S
C676 H670 0.930 . S
C676 C677 1.367 . S
C676 C684 1.378 . S
C677 C676 1.367 . S
C677 C685 1.433 1_565 S
C678 H674 0.929 . S
C678 C680 1.378 . S
C678 C682 1.350 . S
C679 C682 1.463 . S
C679 C684 1.350 . S
C679 N687 1.427 . S
C680 H671 0.930 . S
C680 C678 1.378 . S
C680 C681 1.367 . S
C681 C680 1.367 . S
C681 C683 1.433 . S
C682 C678 1.350 . S
C682 C679 1.463 . S
C682 N686 1.427 . S
C683 H673 0.929 . S
C683 C681 1.433 . S
C683 N686 1.384 . S
C684 H675 0.929 . S
C684 C676 1.378 . S
C684 C679 1.350 . S
C685 H672 0.929 . S
C685 C677 1.433 1_545 S
C685 N687 1.384 1_545 S
N686 C682 1.427 . S
N686 C683 1.384 . S
N687 C679 1.427 . S
N687 C685 1.384 1_565 S
H688 C694 0.930 . S
H689 C698 0.930 . S
H690 C703 0.929 . S
H691 C701 0.929 . S
H692 C696 0.929 . S
H693 C702 0.929 . S
C694 H688 0.930 . S
C694 C695 1.367 . S
C694 C702 1.378 . S
C695 C694 1.367 . S
C695 C703 1.433 . S
C696 H692 0.929 . S
C696 C698 1.378 . S
C696 C700 1.350 . S
C697 C700 1.463 . S
C697 C702 1.350 . S
C697 N705 1.427 . S
C698 H689 0.930 . S
C698 C696 1.378 . S
C698 C699 1.367 1_655 S
C699 C698 1.367 1_455 S
C699 C701 1.433 . S
C700 C696 1.350 . S
C700 C697 1.463 . S
C700 N704 1.427 . S
C701 H691 0.929 . S
C701 C699 1.433 . S
C701 N704 1.384 1_455 S
C702 H693 0.929 . S
C702 C694 1.378 . S
C702 C697 1.350 . S
C703 H690 0.929 . S
C703 C695 1.433 . S
C703 N705 1.384 . S
N704 C700 1.427 . S
N704 C701 1.384 1_655 S
N705 C697 1.427 . S
N705 C703 1.384 . S
H706 C712 0.930 . S
H707 C716 0.930 . S
H708 C721 0.929 1_565 S
H709 C719 0.929 . S
H710 C714 0.929 . S
H711 C720 0.929 . S
C712 H706 0.930 . S
C712 C713 1.367 . S
C712 C720 1.378 . S
C713 C712 1.367 . S
C713 C721 1.433 . S
C714 H710 0.929 . S
C714 C716 1.378 . S
C714 C718 1.350 . S
C715 C718 1.463 . S
C715 C720 1.350 . S
C715 N723 1.427 . S
C716 H707 0.930 . S
C716 C714 1.378 . S
C716 C717 1.367 1_655 S
C717 C716 1.367 1_455 S
C717 C719 1.433 . S
C718 C714 1.350 . S
C718 C715 1.463 . S
C718 N722 1.427 . S
C719 H709 0.929 . S
C719 C717 1.433 . S
C719 N722 1.384 1_455 S
C720 H711 0.929 . S
C720 C712 1.378 . S
C720 C715 1.350 . S
C721 H708 0.929 1_545 S
C721 C713 1.433 . S
C721 N723 1.384 . S
N722 C718 1.427 . S
N722 C719 1.384 1_655 S
N723 C715 1.427 . S
N723 C721 1.384 . S
H724 C730 0.930 . S
H725 C734 0.930 . S
H726 C739 0.929 . S
H727 C737 0.929 . S
H728 C732 0.929 . S
H729 C738 0.929 . S
C730 H724 0.930 . S
C730 C731 1.367 . S
C730 C738 1.378 . S
C731 C730 1.367 . S
C731 C739 1.433 . S
C732 H728 0.929 . S
C732 C734 1.378 . S
C732 C736 1.350 . S
C733 C736 1.463 . S
C733 C738 1.350 . S
C733 N741 1.427 . S
C734 H725 0.930 . S
C734 C732 1.378 . S
C734 C735 1.367 . S
C735 C734 1.367 . S
C735 C737 1.433 . S
C736 C732 1.350 . S
C736 C733 1.463 . S
C736 N740 1.427 . S
C737 H727 0.929 . S
C737 C735 1.433 . S
C737 N740 1.384 . S
C738 H729 0.929 . S
C738 C730 1.378 . S
C738 C733 1.350 . S
C739 H726 0.929 . S
C739 C731 1.433 . S
C739 N741 1.384 . S
N740 C736 1.427 . S
N740 C737 1.384 . S
N741 C733 1.427 . S
N741 C739 1.384 . S
H742 C748 0.930 1_545 S
H743 C752 0.930 . S
H744 C757 0.929 . S
H745 C755 0.929 . S
H746 C750 0.929 . S
H747 C756 0.929 1_455 S
C748 H742 0.930 1_565 S
C748 C749 1.367 . S
C748 C756 1.378 . S
C749 C748 1.367 . S
C749 C757 1.433 . S
C750 H746 0.929 . S
C750 C752 1.378 . S
C750 C754 1.350 . S
C751 C754 1.463 . S
C751 C756 1.350 . S
C751 N759 1.427 . S
C752 H743 0.930 . S
C752 C750 1.378 . S
C752 C753 1.367 1_655 S
C753 C752 1.367 1_455 S
C753 C755 1.433 . S
C754 C750 1.350 . S
C754 C751 1.463 . S
C754 N758 1.427 1_655 S
C755 H745 0.929 . S
C755 C753 1.433 . S
C755 N758 1.384 . S
C756 H747 0.929 1_655 S
C756 C748 1.378 . S
C756 C751 1.350 . S
C757 H744 0.929 . S
C757 C749 1.433 . S
C757 N759 1.384 . S
N758 C754 1.427 1_455 S
N758 C755 1.384 . S
N759 C751 1.427 . S
N759 C757 1.384 . S
H760 C766 0.930 . S
H761 C770 0.930 . S
H762 C775 0.929 . S
H763 C773 0.929 . S
H764 C768 0.929 . S
H765 C774 0.929 . S
C766 H760 0.930 . S
C766 C767 1.367 . S
C766 C774 1.378 . S
C767 C766 1.367 . S
C767 C775 1.433 . S
C768 H764 0.929 . S
C768 C770 1.378 . S
C768 C772 1.350 . S
C769 C772 1.463 . S
C769 C774 1.350 . S
C769 N777 1.427 . S
C770 H761 0.930 . S
C770 C768 1.378 . S
C770 C771 1.367 1_655 S
C771 C770 1.367 1_455 S
C771 C773 1.433 . S
C772 C768 1.350 . S
C772 C769 1.463 . S
C772 N776 1.427 . S
C773 H763 0.929 . S
C773 C771 1.433 . S
C773 N776 1.384 1_455 S
C774 H765 0.929 . S
C774 C766 1.378 . S
C774 C769 1.350 . S
C775 H762 0.929 . S
C775 C767 1.433 . S
C775 N777 1.384 . S
N776 C772 1.427 . S
N776 C773 1.384 1_655 S
N777 C769 1.427 . S
N777 C775 1.384 . S
H778 C784 0.936 . S
H779 C788 0.930 . S
H780 C793 0.929 . S
H781 C791 0.929 . S
H782 C786 0.929 . S
H783 C792 0.929 . S
C784 H778 0.936 . S
C784 C785 1.365 1_565 S
C784 C792 1.374 1_565 S
C785 C784 1.365 1_545 S
C785 C793 1.433 . S
C786 H782 0.929 . S
C786 C788 1.378 . S
C786 C790 1.350 . S
C787 C790 1.463 . S
C787 C792 1.350 . S
C787 N795 1.427 . S
C788 H779 0.930 . S
C788 C786 1.378 . S
C788 C789 1.367 . S
C789 C788 1.367 . S
C789 C791 1.433 . S
C790 C786 1.350 . S
C790 C787 1.463 . S
C790 N794 1.427 . S
C791 H781 0.929 . S
C791 C789 1.433 . S
C791 N794 1.384 . S
C792 H783 0.929 . S
C792 C784 1.374 1_545 S
C792 C787 1.350 . S
C793 H780 0.929 . S
C793 C785 1.433 . S
C793 N795 1.384 . S
N794 C790 1.427 . S
N794 C791 1.384 . S
N795 C787 1.427 . S
N795 C793 1.384 . S
H796 C802 0.930 . S
H797 C806 0.930 . S
H798 C811 0.929 . S
H799 C809 0.929 . S
H800 C804 0.929 . S
H801 C810 0.929 . S
C802 H796 0.930 . S
C802 C803 1.367 . S
C802 C810 1.378 . S
C803 C802 1.367 . S
C803 C811 1.433 . S
C804 H800 0.929 . S
C804 C806 1.378 . S
C804 C808 1.350 . S
C805 C808 1.463 . S
C805 C810 1.350 . S
C805 N813 1.427 . S
C806 H797 0.930 . S
C806 C804 1.378 . S
C806 C807 1.367 . S
C807 C806 1.367 . S
C807 C809 1.433 . S
C808 C804 1.350 . S
C808 C805 1.463 . S
C808 N812 1.427 . S
C809 H799 0.929 . S
C809 C807 1.433 . S
C809 N812 1.384 . S
C810 H801 0.929 . S
C810 C802 1.378 . S
C810 C805 1.350 . S
C811 H798 0.929 . S
C811 C803 1.433 . S
C811 N813 1.384 . S
N812 C808 1.427 . S
N812 C809 1.384 . S
N813 C805 1.427 . S
N813 C811 1.384 . S
H814 C820 0.930 . S
H815 C824 0.930 . S
H816 C829 0.929 . S
H817 C827 0.929 1_455 S
H818 C822 0.929 . S
H819 C828 0.929 . S
C820 H814 0.930 . S
C820 C821 1.367 . S
C820 C828 1.378 . S
C821 C820 1.367 . S
C821 C829 1.433 . S
C822 H818 0.929 . S
C822 C824 1.378 . S
C822 C826 1.350 . S
C823 C826 1.463 . S
C823 C828 1.350 . S
C823 N831 1.427 . S
C824 H815 0.930 . S
C824 C822 1.378 . S
C824 C825 1.367 . S
C825 C824 1.367 . S
C825 C827 1.433 . S
C826 C822 1.350 . S
C826 C823 1.463 . S
C826 N830 1.427 . S
C827 H817 0.929 1_655 S
C827 C825 1.433 . S
C827 N830 1.384 . S
C828 H819 0.929 . S
C828 C820 1.378 . S
C828 C823 1.350 . S
C829 H816 0.929 . S
C829 C821 1.433 . S
C829 N831 1.384 . S
N830 C826 1.427 . S
N830 C827 1.384 . S
N831 C823 1.427 . S
N831 C829 1.384 . S
H832 C838 0.930 . S
H833 C842 0.930 . S
H834 C847 0.929 . S
H835 C845 0.929 . S
H836 C840 0.929 . S
H837 C846 0.929 . S
C838 H832 0.930 . S
C838 C839 1.367 . S
C838 C846 1.378 . S
C839 C838 1.367 . S
C839 C847 1.433 . S
C840 H836 0.929 . S
C840 C842 1.378 . S
C840 C844 1.350 . S
C841 C844 1.463 . S
C841 C846 1.350 . S
C841 N849 1.427 . S
C842 H833 0.930 . S
C842 C840 1.378 . S
C842 C843 1.367 . S
C843 C842 1.367 . S
C843 C845 1.433 . S
C844 C840 1.350 . S
C844 C841 1.463 . S
C844 N848 1.427 . S
C845 H835 0.929 . S
C845 C843 1.433 . S
C845 N848 1.384 . S
C846 H837 0.929 . S
C846 C838 1.378 . S
C846 C841 1.350 . S
C847 H834 0.929 . S
C847 C839 1.433 . S
C847 N849 1.384 . S
N848 C844 1.427 . S
N848 C845 1.384 . S
N849 C841 1.427 . S
N849 C847 1.384 . S
H850 C856 0.930 . S
H851 C860 0.930 . S
H852 C865 0.929 . S
H853 C863 0.929 . S
H854 C858 0.929 . S
H855 C864 0.929 . S
C856 H850 0.930 . S
C856 C857 1.367 . S
C856 C864 1.378 . S
C857 C856 1.367 . S
C857 C865 1.433 . S
C858 H854 0.929 . S
C858 C860 1.378 . S
C858 C862 1.350 . S
C859 C862 1.463 . S
C859 C864 1.350 . S
C859 N867 1.427 . S
C860 H851 0.930 . S
C860 C858 1.378 . S
C860 C861 1.367 . S
C861 C860 1.367 . S
C861 C863 1.433 . S
C862 C858 1.350 . S
C862 C859 1.463 . S
C862 N866 1.427 . S
C863 H853 0.929 . S
C863 C861 1.433 . S
C863 N866 1.384 . S
C864 H855 0.929 . S
C864 C856 1.378 . S
C864 C859 1.350 . S
C865 H852 0.929 . S
C865 C857 1.433 . S
C865 N867 1.384 . S
N866 C862 1.427 . S
N866 C863 1.384 . S
N867 C859 1.427 . S
N867 C865 1.384 . S
H868 C874 0.930 . S
H869 C878 0.930 . S
H870 C883 0.929 . S
H871 C881 0.929 . S
H872 C876 0.929 . S
H873 C882 0.929 . S
C874 H868 0.930 . S
C874 C875 1.367 . S
C874 C882 1.378 . S
C875 C874 1.367 . S
C875 C883 1.433 . S
C876 H872 0.929 . S
C876 C878 1.378 . S
C876 C880 1.350 . S
C877 C880 1.463 . S
C877 C882 1.350 . S
C877 N885 1.427 . S
C878 H869 0.930 . S
C878 C876 1.378 . S
C878 C879 1.367 . S
C879 C878 1.367 . S
C879 C881 1.433 . S
C880 C876 1.350 . S
C880 C877 1.463 . S
C880 N884 1.427 . S
C881 H871 0.929 . S
C881 C879 1.433 . S
C881 N884 1.384 . S
C882 H873 0.929 . S
C882 C874 1.378 . S
C882 C877 1.350 . S
C883 H870 0.929 . S
C883 C875 1.433 . S
C883 N885 1.384 . S
N884 C880 1.427 . S
N884 C881 1.384 . S
N885 C877 1.427 . S
N885 C883 1.384 . S
H886 C892 0.930 . S
H887 C896 0.930 . S
H888 C901 0.929 . S
H889 C899 0.929 . S
H890 C894 0.929 . S
H891 C900 0.929 . S
C892 H886 0.930 . S
C892 C893 1.367 . S
C892 C900 1.378 . S
C893 C892 1.367 . S
C893 C901 1.433 . S
C894 H890 0.929 . S
C894 C896 1.378 . S
C894 C898 1.350 . S
C895 C898 1.463 . S
C895 C900 1.350 . S
C895 N903 1.427 . S
C896 H887 0.930 . S
C896 C894 1.378 . S
C896 C897 1.367 . S
C897 C896 1.367 . S
C897 C899 1.433 . S
C898 C894 1.350 . S
C898 C895 1.463 . S
C898 N902 1.427 . S
C899 H889 0.929 . S
C899 C897 1.433 . S
C899 N902 1.384 . S
C900 H891 0.929 . S
C900 C892 1.378 . S
C900 C895 1.350 . S
C901 H888 0.929 . S
C901 C893 1.433 . S
C901 N903 1.384 . S
N902 C898 1.427 . S
N902 C899 1.384 . S
N903 C895 1.427 . S
N903 C901 1.384 . S
H904 C910 0.930 . S
H905 C914 0.930 . S
H906 C919 0.929 . S
H907 C917 0.929 . S
H908 C912 0.929 . S
H909 C918 0.929 . S
C910 H904 0.930 . S
C910 C911 1.367 . S
C910 C918 1.378 . S
C911 C910 1.367 . S
C911 C919 1.433 . S
C912 H908 0.929 . S
C912 C914 1.378 . S
C912 C916 1.350 . S
C913 C916 1.463 . S
C913 C918 1.350 . S
C913 N921 1.427 . S
C914 H905 0.930 . S
C914 C912 1.378 . S
C914 C915 1.367 . S
C915 C914 1.367 . S
C915 C917 1.433 . S
C916 C912 1.350 . S
C916 C913 1.463 . S
C916 N920 1.427 . S
C917 H907 0.929 . S
C917 C915 1.433 . S
C917 N920 1.384 . S
C918 H909 0.929 . S
C918 C910 1.378 . S
C918 C913 1.350 . S
C919 H906 0.929 . S
C919 C911 1.433 . S
C919 N921 1.384 . S
N920 C916 1.427 . S
N920 C917 1.384 . S
N921 C913 1.427 . S
N921 C919 1.384 . S
H922 C928 0.930 . S
H923 C932 0.930 1_455 S
H924 C937 0.929 . S
H925 C935 0.929 . S
H926 C930 0.929 1_455 S
H927 C936 0.929 . S
C928 H922 0.930 . S
C928 C929 1.367 . S
C928 C936 1.378 . S
C929 C928 1.367 . S
C929 C937 1.433 . S
C930 H926 0.929 1_655 S
C930 C932 1.378 . S
C930 C934 1.350 . S
C931 C934 1.463 . S
C931 C936 1.350 . S
C931 N939 1.427 . S
C932 H923 0.930 1_655 S
C932 C930 1.378 . S
C932 C933 1.367 . S
C933 C932 1.367 . S
C933 C935 1.433 . S
C934 C930 1.350 . S
C934 C931 1.463 . S
C934 N938 1.427 . S
C935 H925 0.929 . S
C935 C933 1.433 . S
C935 N938 1.384 . S
C936 H927 0.929 . S
C936 C928 1.378 . S
C936 C931 1.350 . S
C937 H924 0.929 . S
C937 C929 1.433 . S
C937 N939 1.384 . S
N938 C934 1.427 . S
N938 C935 1.384 . S
N939 C931 1.427 . S
N939 C937 1.384 . S
H940 C946 0.930 . S
H941 C950 0.930 . S
H942 C955 0.929 . S
H943 C953 0.929 . S
H944 C948 0.929 . S
H945 C954 0.929 . S
C946 H940 0.930 . S
C946 C947 1.367 . S
C946 C954 1.378 . S
C947 C946 1.367 . S
C947 C955 1.433 . S
C948 H944 0.929 . S
C948 C950 1.378 . S
C948 C952 1.350 . S
C949 C952 1.463 . S
C949 C954 1.350 . S
C949 N957 1.427 . S
C950 H941 0.930 . S
C950 C948 1.378 . S
C950 C951 1.367 . S
C951 C950 1.367 . S
C951 C953 1.433 . S
C952 C948 1.350 . S
C952 C949 1.463 . S
C952 N956 1.427 . S
C953 H943 0.929 . S
C953 C951 1.433 . S
C953 N956 1.384 . S
C954 H945 0.929 . S
C954 C946 1.378 . S
C954 C949 1.350 . S
C955 H942 0.929 . S
C955 C947 1.433 . S
C955 N957 1.384 . S
N956 C952 1.427 . S
N956 C953 1.384 . S
N957 C949 1.427 . S
N957 C955 1.384 . S
H958 C964 0.930 . S
H959 C968 0.930 . S
H960 C973 0.929 . S
H961 C971 0.929 . S
H962 C966 0.929 . S
H963 C972 0.929 . S
C964 H958 0.930 . S
C964 C965 1.367 . S
C964 C972 1.378 . S
C965 C964 1.367 . S
C965 C973 1.433 . S
C966 H962 0.929 . S
C966 C968 1.378 . S
C966 C970 1.350 . S
C967 C970 1.463 . S
C967 C972 1.350 . S
C967 N975 1.427 . S
C968 H959 0.930 . S
C968 C966 1.378 . S
C968 C969 1.367 . S
C969 C968 1.367 . S
C969 C971 1.433 . S
C970 C966 1.350 . S
C970 C967 1.463 . S
C970 N974 1.427 . S
C971 H961 0.929 . S
C971 C969 1.433 . S
C971 N974 1.384 . S
C972 H963 0.929 . S
C972 C964 1.378 . S
C972 C967 1.350 . S
C973 H960 0.929 . S
C973 C965 1.433 . S
C973 N975 1.384 . S
N974 C970 1.427 . S
N974 C971 1.384 . S
N975 C967 1.427 . S
N975 C973 1.384 . S
H976 C982 0.930 . S
H977 C986 0.930 . S
H978 C991 0.929 . S
H979 C989 0.929 . S
H980 C984 0.929 . S
H981 C990 0.929 . S
C982 H976 0.930 . S
C982 C983 1.367 . S
C982 C990 1.378 . S
C983 C982 1.367 . S
C983 C991 1.433 . S
C984 H980 0.929 . S
C984 C986 1.378 . S
C984 C988 1.350 . S
C985 C988 1.463 . S
C985 C990 1.350 . S
C985 N993 1.427 . S
C986 H977 0.930 . S
C986 C984 1.378 . S
C986 C987 1.367 . S
C987 C986 1.367 . S
C987 C989 1.433 . S
C988 C984 1.350 . S
C988 C985 1.463 . S
C988 N992 1.427 . S
C989 H979 0.929 . S
C989 C987 1.433 . S
C989 N992 1.384 . S
C990 H981 0.929 . S
C990 C982 1.378 . S
C990 C985 1.350 . S
C991 H978 0.929 . S
C991 C983 1.433 . S
C991 N993 1.384 . S
N992 C988 1.427 . S
N992 C989 1.384 . S
N993 C985 1.427 . S
N993 C991 1.384 . S
H994 C1000 0.930 . S
H995 C1004 0.930 . S
H996 C1009 0.929 . S
H997 C1007 0.929 . S
H998 C1002 0.929 . S
H999 C1008 0.929 . S
C1000 H994 0.930 . S
C1000 C1001 1.367 . S
C1000 C1008 1.378 . S
C1001 C1000 1.367 . S
C1001 C1009 1.433 . S
C1002 H998 0.929 . S
C1002 C1004 1.378 . S
C1002 C1006 1.350 . S
C1003 C1006 1.463 . S
C1003 C1008 1.350 . S
C1003 N1011 1.427 . S
C1004 H995 0.930 . S
C1004 C1002 1.378 . S
C1004 C1005 1.367 . S
C1005 C1004 1.367 . S
C1005 C1007 1.433 . S
C1006 C1002 1.350 . S
C1006 C1003 1.463 . S
C1006 N1010 1.427 . S
C1007 H997 0.929 . S
C1007 C1005 1.433 . S
C1007 N1010 1.384 . S
C1008 H999 0.929 . S
C1008 C1000 1.378 . S
C1008 C1003 1.350 . S
C1009 H996 0.929 . S
C1009 C1001 1.433 . S
C1009 N1011 1.384 . S
N1010 C1006 1.427 . S
N1010 C1007 1.384 . S
N1011 C1003 1.427 . S
N1011 C1009 1.384 . S
H1012 C1018 0.930 . S
H1013 C1022 0.930 . S
H1014 C1027 0.929 . S
H1015 C1025 0.929 . S
H1016 C1020 0.929 . S
H1017 C1026 0.929 . S
C1018 H1012 0.930 . S
C1018 C1019 1.367 . S
C1018 C1026 1.378 . S
C1019 C1018 1.367 . S
C1019 C1027 1.433 . S
C1020 H1016 0.929 . S
C1020 C1022 1.378 . S
C1020 C1024 1.350 . S
C1021 C1024 1.463 . S
C1021 C1026 1.350 . S
C1021 N1029 1.427 . S
C1022 H1013 0.930 . S
C1022 C1020 1.378 . S
C1022 C1023 1.367 . S
C1023 C1022 1.367 . S
C1023 C1025 1.433 . S
C1024 C1020 1.350 . S
C1024 C1021 1.463 . S
C1024 N1028 1.427 . S
C1025 H1015 0.929 . S
C1025 C1023 1.433 . S
C1025 N1028 1.384 . S
C1026 H1017 0.929 . S
C1026 C1018 1.378 . S
C1026 C1021 1.350 . S
C1027 H1014 0.929 . S
C1027 C1019 1.433 . S
C1027 N1029 1.384 . S
N1028 C1024 1.427 . S
N1028 C1025 1.384 . S
N1029 C1021 1.427 . S
N1029 C1027 1.384 . S
H1030 C1036 0.930 . S
H1031 C1040 0.930 . S
H1032 C1045 0.929 . S
H1033 C1043 0.929 . S
H1034 C1038 0.929 . S
H1035 C1044 0.929 . S
C1036 H1030 0.930 . S
C1036 C1037 1.367 . S
C1036 C1044 1.378 . S
C1037 C1036 1.367 . S
C1037 C1045 1.433 . S
C1038 H1034 0.929 . S
C1038 C1040 1.378 . S
C1038 C1042 1.350 . S
C1039 C1042 1.463 . S
C1039 C1044 1.350 . S
C1039 N1047 1.427 . S
C1040 H1031 0.930 . S
C1040 C1038 1.378 . S
C1040 C1041 1.367 . S
C1041 C1040 1.367 . S
C1041 C1043 1.433 . S
C1042 C1038 1.350 . S
C1042 C1039 1.463 . S
C1042 N1046 1.427 . S
C1043 H1033 0.929 . S
C1043 C1041 1.433 . S
C1043 N1046 1.384 . S
C1044 H1035 0.929 . S
C1044 C1036 1.378 . S
C1044 C1039 1.350 . S
C1045 H1032 0.929 . S
C1045 C1037 1.433 . S
C1045 N1047 1.384 . S
N1046 C1042 1.427 . S
N1046 C1043 1.384 . S
N1047 C1039 1.427 . S
N1047 C1045 1.384 . S
H1048 C1054 0.930 . S
H1049 C1058 0.930 . S
H1050 C1063 0.929 . S
H1051 C1061 0.929 . S
H1052 C1056 0.929 . S
H1053 C1062 0.929 . S
C1054 H1048 0.930 . S
C1054 C1055 1.367 . S
C1054 C1062 1.378 . S
C1055 C1054 1.367 . S
C1055 C1063 1.433 . S
C1056 H1052 0.929 . S
C1056 C1058 1.378 . S
C1056 C1060 1.350 . S
C1057 C1060 1.463 . S
C1057 C1062 1.350 . S
C1057 N1065 1.427 . S
C1058 H1049 0.930 . S
C1058 C1056 1.378 . S
C1058 C1059 1.367 . S
C1059 C1058 1.367 . S
C1059 C1061 1.433 . S
C1060 C1056 1.350 . S
C1060 C1057 1.463 . S
C1060 N1064 1.427 . S
C1061 H1051 0.929 . S
C1061 C1059 1.433 . S
C1061 N1064 1.384 . S
C1062 H1053 0.929 . S
C1062 C1054 1.378 . S
C1062 C1057 1.350 . S
C1063 H1050 0.929 . S
C1063 C1055 1.433 . S
C1063 N1065 1.384 . S
N1064 C1060 1.427 . S
N1064 C1061 1.384 . S
N1065 C1057 1.427 . S
N1065 C1063 1.384 . S
H1066 C1072 0.930 . S
H1067 C1076 0.930 . S
H1068 C1081 0.929 . S
H1069 C1079 0.929 . S
H1070 C1074 0.929 . S
H1071 C1080 0.929 . S
C1072 H1066 0.930 . S
C1072 C1073 1.367 . S
C1072 C1080 1.378 . S
C1073 C1072 1.367 . S
C1073 C1081 1.433 . S
C1074 H1070 0.929 . S
C1074 C1076 1.378 . S
C1074 C1078 1.350 . S
C1075 C1078 1.463 . S
C1075 C1080 1.350 . S
C1075 N1083 1.427 . S
C1076 H1067 0.930 . S
C1076 C1074 1.378 . S
C1076 C1077 1.367 . S
C1077 C1076 1.367 . S
C1077 C1079 1.433 . S
C1078 C1074 1.350 . S
C1078 C1075 1.463 . S
C1078 N1082 1.427 . S
C1079 H1069 0.929 . S
C1079 C1077 1.433 . S
C1079 N1082 1.384 . S
C1080 H1071 0.929 . S
C1080 C1072 1.378 . S
C1080 C1075 1.350 . S
C1081 H1068 0.929 . S
C1081 C1073 1.433 . S
C1081 N1083 1.384 . S
N1082 C1078 1.427 . S
N1082 C1079 1.384 . S
N1083 C1075 1.427 . S
N1083 C1081 1.384 . S
C519 C444 1.786 . S
C515 C45 1.845 . S
C533 C78 1.742 . S
C537 C447 1.726 . S
C551 C126 1.724 . S
C555 C478 1.693 . S
C573 C413 1.754 . S
C569 C174 1.807 . S
C591 C448 1.786 . S
C587 C36 1.845 . S
C609 C479 1.767 . S
C605 C69 1.817 . S
C627 C404 1.699 . S
C623 C117 1.740 . S
C645 C435 1.730 . S
C641 C165 1.762 . S
C659 C30 1.321 . S
C663 C465 1.242 . S
C677 C228 1.315 1_565 S
C681 C434 1.227 . S
C695 C141 1.232 . S
C699 C394 1.223 . S
C717 C487 1.238 . S
C713 C270 1.246 1_545 S
C735 C415 1.258 . S
C731 C21 1.326 . S
C749 C237 1.244 1_565 S
C753 C414 1.241 . S
C767 C132 1.245 . S
C771 C507 1.225 . S
C789 C446 1.251 . S
C785 C261 1.313 1_545 S
C803 C333 1.840 . S
C807 C506 1.787 . S
C821 C213 1.762 . S
C825 C385 1.723 . S
C839 C357 1.740 . S
C843 C416 1.704 . S
C857 C285 1.819 . S
C861 C475 1.763 . S
C879 C386 1.788 . S
C875 C324 1.848 . S
C893 C222 1.808 . S
C897 C417 1.755 . S
C911 C366 1.725 . S
C915 C466 1.706 . S
C933 C497 1.730 . S
C929 C276 1.768 . S
C947 C318 1.315 . S
C951 C403 1.244 . S
C965 C93 1.302 . S
C969 C496 1.225 . S
C983 C372 1.243 . S
C987 C456 1.226 . S
C1005 C425 1.240 . S
C1001 C189 1.246 . S
C1023 C477 1.245 . S
C1019 C309 1.333 . S
C1041 C476 1.251 . S
C1037 C84 1.256 . S
C1059 C445 1.230 . S
C1055 C381 1.232 . S
C1077 C384 1.234 . S
C1073 C180 1.312 . S
