# Generated by pormake.
# Topology nom, (4,4)-cn, num edge types: 1
# Building blocks:
#     Node 0, Type 0, BuildingBlock: KUFVIS_clean_linker_0, # of connection points: 4
#     Node 1, Type 0, BuildingBlock: KUFVIS_clean_linker_0, # of connection points: 4
#     Node 2, Type 0, BuildingBlock: KUFVIS_clean_linker_0, # of connection points: 4
#     Node 3, Type 0, BuildingBlock: KUFVIS_clean_linker_0, # of connection points: 4
#     Node 4, Type 0, BuildingBlock: KUFVIS_clean_linker_0, # of connection points: 4
#     Node 5, Type 0, BuildingBlock: KUFVIS_clean_linker_0, # of connection points: 4
#     Node 6, Type 1, BuildingBlock: NAHDIM_clean_sbu_0, # of connection points: 4
#     Node 7, Type 1, BuildingBlock: NAHDIM_clean_sbu_0, # of connection points: 4
#     Node 8, Type 1, BuildingBlock: NAHDIM_clean_sbu_0, # of connection points: 4
#     Node 9, Type 1, BuildingBlock: NAHDIM_clean_sbu_0, # of connection points: 4
#     Node 10, Type 1, BuildingBlock: NAHDIM_clean_sbu_0, # of connection points: 4
#     Node 11, Type 1, BuildingBlock: NAHDIM_clean_sbu_0, # of connection points: 4
#     Edge 12, Type (0, 1), BuildingBlock: XUDNAN_clean_linker_2, # of connection points: 2
#     Edge 13, Type (0, 1), BuildingBlock: XUDNAN_clean_linker_2, # of connection points: 2
#     Edge 14, Type (0, 1), BuildingBlock: XUDNAN_clean_linker_2, # of connection points: 2
#     Edge 15, Type (0, 1), BuildingBlock: XUDNAN_clean_linker_2, # of connection points: 2
#     Edge 16, Type (0, 1), BuildingBlock: XUDNAN_clean_linker_2, # of connection points: 2
#     Edge 17, Type (0, 1), BuildingBlock: XUDNAN_clean_linker_2, # of connection points: 2
#     Edge 18, Type (0, 1), BuildingBlock: XUDNAN_clean_linker_2, # of connection points: 2
#     Edge 19, Type (0, 1), BuildingBlock: XUDNAN_clean_linker_2, # of connection points: 2
#     Edge 20, Type (0, 1), BuildingBlock: XUDNAN_clean_linker_2, # of connection points: 2
#     Edge 21, Type (0, 1), BuildingBlock: XUDNAN_clean_linker_2, # of connection points: 2
#     Edge 22, Type (0, 1), BuildingBlock: XUDNAN_clean_linker_2, # of connection points: 2
#     Edge 23, Type (0, 1), BuildingBlock: XUDNAN_clean_linker_2, # of connection points: 2
#     Edge 24, Type (0, 1), BuildingBlock: XUDNAN_clean_linker_2, # of connection points: 2
#     Edge 25, Type (0, 1), BuildingBlock: XUDNAN_clean_linker_2, # of connection points: 2
#     Edge 26, Type (0, 1), BuildingBlock: XUDNAN_clean_linker_2, # of connection points: 2
#     Edge 27, Type (0, 1), BuildingBlock: XUDNAN_clean_linker_2, # of connection points: 2
#     Edge 28, Type (0, 1), BuildingBlock: XUDNAN_clean_linker_2, # of connection points: 2
#     Edge 29, Type (0, 1), BuildingBlock: XUDNAN_clean_linker_2, # of connection points: 2
#     Edge 30, Type (0, 1), BuildingBlock: XUDNAN_clean_linker_2, # of connection points: 2
#     Edge 31, Type (0, 1), BuildingBlock: XUDNAN_clean_linker_2, # of connection points: 2
#     Edge 32, Type (0, 1), BuildingBlock: XUDNAN_clean_linker_2, # of connection points: 2
#     Edge 33, Type (0, 1), BuildingBlock: XUDNAN_clean_linker_2, # of connection points: 2
#     Edge 34, Type (0, 1), BuildingBlock: XUDNAN_clean_linker_2, # of connection points: 2
#     Edge 35, Type (0, 1), BuildingBlock: XUDNAN_clean_linker_2, # of connection points: 2
# Relax obj value: 0.021
# Max RMSD: 0.123
# Mean RMSD: 0.082
data_MOF--net-nom--node1-NAHDIM_clean_sbu_0--node2-KUFVIS_clean_linker_0--edge1-XUDNAN_clean_linker_2
_symmetry_space_group_name_H-M    P1
_symmetry_Int_Tables_number       1
_symmetry_cell_setting            triclinic
loop_
_symmetry_equiv_pos_as_xyz
'x, y, z'
_cell_length_a     45.320559
_cell_length_b     46.665616
_cell_length_c     46.789815
_cell_angle_alpha  89.887438
_cell_angle_beta   90.82262
_cell_angle_gamma 121.00735
loop_
_atom_site_label
_atom_site_type_symbol
_atom_site_fract_x
_atom_site_fract_y
_atom_site_fract_z
_atom_type_partial_charge
H0 H 0.13201 0.60279 0.34166 0.0
H1 H 0.05242 0.57592 0.27859 0.0
H2 H 0.02756 0.53162 0.36273 0.0
H3 H 0.97849 0.53226 0.35292 0.0
H4 H 0.90114 0.47396 0.28981 0.0
H5 H 1.00749 0.52316 0.26713 0.0
C6 C 0.10488 0.58909 0.33582 0.0
C7 C 0.08077 0.56794 0.35577 0.0
C8 C 0.0949 0.59211 0.3081 0.0
C9 C 0.06001 0.57309 0.29996 0.0
C10 C 0.0351 0.55111 0.3196 0.0
C11 C 0.046 0.54865 0.34745 0.0
C12 C 0.99792 0.53035 0.31115 0.0
C13 C 0.97188 0.52229 0.33137 0.0
C14 C 0.93705 0.50106 0.32394 0.0
C15 C 0.92814 0.48903 0.29591 0.0
C16 C 0.95329 0.49726 0.27531 0.0
C17 C 0.98815 0.51775 0.283 0.0
H18 H 0.54412 0.13222 0.49557 0.0
H19 H 0.49395 0.05737 0.43035 0.0
H20 H 0.50977 0.02994 0.51506 0.0
H21 H 0.45646 0.98331 0.50229 0.0
H22 H 0.43963 0.91037 0.43831 0.0
H23 H 0.50582 0.01442 0.4202 0.0
C24 C 0.53114 0.10614 0.48915 0.0
C25 C 0.52746 0.08201 0.50892 0.0
C26 C 0.51901 0.09747 0.46099 0.0
C27 C 0.50373 0.06403 0.45208 0.0
C28 C 0.50004 0.03919 0.47152 0.0
C29 C 0.51221 0.04859 0.49991 0.0
C30 C 0.48319 1.00349 0.46238 0.0
C31 C 0.46153 0.97751 0.48118 0.0
C32 C 0.44553 0.94389 0.47253 0.0
C33 C 0.45137 0.93628 0.44506 0.0
C34 C 0.47287 0.96156 0.42631 0.0
C35 C 0.48877 0.99509 0.43484 0.0
H36 H 0.54317 0.43571 0.61169 0.0
H37 H 0.49493 0.45981 0.67738 0.0
H38 H 0.50434 0.49982 0.59201 0.0
H39 H 0.45844 0.50083 0.60249 0.0
H40 H 0.43137 0.54612 0.66844 0.0
H41 H 0.49257 0.50372 0.69009 0.0
C42 C 0.53112 0.44943 0.6185 0.0
C43 C 0.52403 0.46743 0.59849 0.0
C44 C 0.52175 0.44765 0.64705 0.0
C45 C 0.50347 0.46295 0.65553 0.0
C46 C 0.49665 0.48215 0.63592 0.0
C47 C 0.50777 0.48449 0.60746 0.0
C48 C 0.47837 0.49989 0.64493 0.0
C49 C 0.46039 0.50818 0.62464 0.0
C50 C 0.44461 0.5261 0.63272 0.0
C51 C 0.44526 0.5342 0.66157 0.0
C52 C 0.46203 0.5257 0.6821 0.0
C53 C 0.47888 0.50901 0.67382 0.0
H54 H 0.13149 0.54126 0.7902 0.0
H55 H 0.05083 0.49367 0.85058 0.0
H56 H 0.02727 0.50295 0.76198 0.0
H57 H 0.97749 0.45627 0.77109 0.0
H58 H 0.89874 0.42348 0.83359 0.0
H59 H 1.00317 0.49322 0.85824 0.0
C60 C 0.10416 0.52806 0.79473 0.0
C61 C 0.08036 0.52194 0.77276 0.0
C62 C 0.09347 0.51872 0.82272 0.0
C63 C 0.05834 0.5019 0.82886 0.0
C64 C 0.0335 0.49546 0.80713 0.0
C65 C 0.04519 0.50641 0.77906 0.0
C66 C 0.99577 0.47709 0.81382 0.0
C67 C 0.97039 0.45782 0.79276 0.0
C68 C 0.93542 0.43905 0.79989 0.0
C69 C 0.92566 0.43897 0.82809 0.0
C70 C 0.95008 0.45799 0.84926 0.0
C71 C 0.98484 0.47759 0.84186 0.0
H72 H 0.47421 0.90077 -0.00689 0.0
H73 H 0.54425 0.97955 0.9382 0.0
H74 H 0.51885 1.00215 0.02097 0.0
H75 H 0.57052 0.04872 0.01675 0.0
H76 H 0.60285 0.12821 0.95673 0.0
H77 H 0.54528 0.027 0.92659 0.0
C78 C 0.49072 0.92728 0.98889 0.0
C79 C 0.49535 0.95044 0.00991 0.0
C80 C 0.50799 0.93763 0.96298 0.0
C81 C 0.53042 0.97192 0.9581 0.0
C82 C 0.53441 0.99603 0.97864 0.0
C83 C 0.51684 0.98467 0.00478 0.0
C84 C 0.55535 0.03275 0.97245 0.0
C85 C 0.57135 0.05657 -0.00515 0.0
C86 C 0.5877 0.0909 0.98914 0.0
C87 C 0.59016 0.1016 0.96094 0.0
C88 C 0.57585 0.07882 0.93825 0.0
C89 C 0.55779 0.04443 0.94413 0.0
H90 H 0.4945 0.6036 0.10906 0.0
H91 H 0.54695 0.58067 0.17343 0.0
H92 H 0.52229 0.53074 0.091 0.0
H93 H 0.56817 0.52678 0.1012 0.0
H94 H 0.5928 0.48112 0.16944 0.0
H95 H 0.53897 0.53173 0.18799 0.0
C96 C 0.50717 0.5902 0.11554 0.0
C97 C 0.50854 0.56799 0.09636 0.0
C98 C 0.52076 0.59471 0.14325 0.0
C99 C 0.53568 0.5762 0.15216 0.0
C100 C 0.53654 0.55272 0.13356 0.0
C101 C 0.52253 0.54876 0.10564 0.0
C102 C 0.5517 0.53228 0.14329 0.0
C103 C 0.56673 0.52061 0.12363 0.0
C104 C 0.58018 0.50085 0.13283 0.0
C105 C 0.58027 0.49432 0.16202 0.0
C106 C 0.56591 0.50573 0.18194 0.0
C107 C 0.55114 0.52415 0.17246 0.0
C108 C 0.59143 0.32326 0.40626 0.0
O109 O 0.58044 0.3354 0.42595 0.0
O110 O 0.68771 0.41724 0.39606 0.0
Zn111 Zn 0.63588 0.39368 0.39216 0.0
O112 O 0.61696 0.40648 0.42535 0.0
C113 C 0.63265 0.44174 0.35821 0.0
O114 O 0.64956 0.45972 0.3808 0.0
O115 O 0.61468 0.34329 0.38933 0.0
C116 C 0.58818 0.40477 0.42201 0.0
O117 O 0.57084 0.39272 0.39792 0.0
C118 C 0.70406 0.40299 0.38902 0.0
O119 O 0.6867 0.3719 0.37983 0.0
O120 O 0.62443 0.41127 0.35709 0.0
C121 C 0.29845 0.71823 0.54344 0.0
O122 O 0.27043 0.70223 0.52749 0.0
O123 O 0.30582 0.63072 0.56694 0.0
Zn124 Zn 0.2759 0.65133 0.5634 0.0
O125 O 0.24394 0.63281 0.52922 0.0
C126 C 0.23702 0.61466 0.61295 0.0
O127 O 0.25184 0.59718 0.60857 0.0
O128 O 0.30608 0.70171 0.56054 0.0
C129 C 0.2183 0.60302 0.52936 0.0
O130 O 0.21416 0.58368 0.55123 0.0
C131 C 0.30524 0.60988 0.54908 0.0
O132 O 0.2847 0.6011 0.52657 0.0
O133 O 0.24477 0.63972 0.59721 0.0
C134 C 0.6193 0.3166 0.71301 0.0
O135 O 0.65111 0.33109 0.70396 0.0
O136 O 0.68235 0.29434 0.72449 0.0
Zn137 Zn 0.63057 0.26168 0.72277 0.0
O138 O 0.61795 0.233 0.68733 0.0
C139 C 0.62897 0.23263 0.77944 0.0
O140 O 0.65816 0.2604 0.78514 0.0
O141 O 0.60503 0.2868 0.72222 0.0
C142 C 0.62127 0.20753 0.68762 0.0
O143 O 0.63408 0.20138 0.71056 0.0
C144 C 0.70448 0.28614 0.73052 0.0
O145 O 0.69405 0.25483 0.73639 0.0
O146 O 0.61373 0.22933 0.75563 0.0
C147 C 0.41083 0.71312 0.89001 0.0
O148 O 0.37715 0.69866 0.88866 0.0
O149 O 0.34442 0.62869 0.8907 0.0
Zn150 Zn 0.39538 0.64419 0.88868 0.0
O151 O 0.40997 0.62634 0.92214 0.0
C152 C 0.38465 0.59912 0.84164 0.0
O153 O 0.35351 0.5818 0.85197 0.0
O154 O 0.42428 0.69499 0.88994 0.0
C155 C 0.40622 0.59735 0.92179 0.0
O156 O 0.39134 0.57766 0.89963 0.0
C157 C 0.32105 0.60019 0.89951 0.0
O158 O 0.32922 0.5784 0.90829 0.0
O159 O 0.40611 0.62735 0.85268 0.0
C160 C 0.70654 0.39736 0.07118 0.0
O161 O 0.69987 0.37402 0.0901 0.0
O162 O 0.73584 0.33671 0.06309 0.0
Zn163 Zn 0.76243 0.38699 0.05778 0.0
O164 O 0.79623 0.41021 0.09014 0.0
C165 C 0.81791 0.39519 0.02535 0.0
O166 O 0.82284 0.38336 0.04928 0.0
O167 O 0.7317 0.40649 0.05448 0.0
C168 C 0.80111 0.39564 0.11103 0.0
O169 O 0.78148 0.36306 0.11352 0.0
C170 C 0.70649 0.31822 0.05133 0.0
O171 O 0.69282 0.33221 0.03601 0.0
O172 O 0.79163 0.39815 0.02285 0.0
C173 C 0.4428 0.74237 0.20332 0.0
O174 O 0.45395 0.76749 0.18547 0.0
O175 O 0.34564 0.73505 0.2274 0.0
Zn176 Zn 0.39725 0.76548 0.22286 0.0
O177 O 0.40434 0.79235 0.18715 0.0
C178 C 0.41539 0.82299 0.25828 0.0
O179 O 0.39502 0.82649 0.24021 0.0
O180 O 0.41904 0.73693 0.22055 0.0
C181 C 0.43158 0.82039 0.18291 0.0
O182 O 0.45727 0.83155 0.20144 0.0
C183 C 0.32809 0.7383 0.24671 0.0
O184 O 0.34386 0.76201 0.26604 0.0
O185 O 0.41944 0.79811 0.25564 0.0
H186 H 0.14483 0.65672 0.31759 0.0
H187 H 0.10775 0.57694 0.25487 0.0
H188 H 0.16205 0.6095 0.22823 0.0
H189 H 0.19799 0.7288 0.26794 0.0
H190 H 0.23076 0.74982 0.29525 0.0
H191 H 0.18629 0.72383 0.30506 0.0
H192 H 0.20303 0.68977 0.33827 0.0
H193 H 0.2473 0.71502 0.32816 0.0
H194 H 0.22502 0.67028 0.32356 0.0
H195 H 0.22431 0.64629 0.21375 0.0
H196 H 0.28717 0.68526 0.21094 0.0
H197 H 0.28332 0.73975 0.28446 0.0
C198 C 0.14765 0.64675 0.2976 0.0
C199 C 0.12215 0.61453 0.28808 0.0
C200 C 0.12679 0.60186 0.26218 0.0
C201 C 0.15763 0.62011 0.24706 0.0
C202 C 0.18322 0.65102 0.25805 0.0
C203 C 0.17821 0.66447 0.28251 0.0
C204 C 0.21079 0.69608 0.29192 0.0
C205 C 0.20618 0.72643 0.28991 0.0
C206 C 0.22218 0.69254 0.32226 0.0
C207 C 0.23542 0.69766 0.26967 0.0
C208 C 0.21903 0.67181 0.25004 0.0
C209 C 0.23721 0.66697 0.22868 0.0
C210 C 0.27296 0.68915 0.22736 0.0
C211 C 0.29022 0.71562 0.24746 0.0
C212 C 0.27095 0.71994 0.26865 0.0
H213 H 0.49815 0.14137 0.47085 0.0
H214 H 0.55087 0.11536 0.40906 0.0
H215 H 0.56963 0.16869 0.3837 0.0
H216 H 0.47324 0.18957 0.42144 0.0
H217 H 0.48125 0.21947 0.44929 0.0
H218 H 0.46612 0.17653 0.45825 0.0
H219 H 0.51834 0.19623 0.49283 0.0
H220 H 0.53399 0.23906 0.48368 0.0
H221 H 0.5613 0.22185 0.47938 0.0
H222 H 0.59086 0.22917 0.37065 0.0
H223 H 0.60999 0.28932 0.36957 0.0
H224 H 0.54363 0.27498 0.44088 0.0
C225 C 0.51253 0.14638 0.45132 0.0
C226 C 0.52288 0.12432 0.44167 0.0
C227 C 0.54223 0.13178 0.41642 0.0
C228 C 0.55311 0.16207 0.40204 0.0
C229 C 0.54399 0.18421 0.41308 0.0
C230 C 0.52361 0.17637 0.43694 0.0
C231 C 0.52046 0.20555 0.44664 0.0
C232 C 0.48304 0.19728 0.44372 0.0
C233 C 0.53436 0.21629 0.47743 0.0
C234 C 0.54331 0.2316 0.42523 0.0
C235 C 0.55636 0.21884 0.40578 0.0
C236 C 0.58021 0.23918 0.38541 0.0
C237 C 0.59103 0.27335 0.38503 0.0
C238 C 0.5782 0.28687 0.40506 0.0
C239 C 0.55369 0.26545 0.42507 0.0
H240 H 0.44439 0.58459 0.63148 0.0
H241 H 0.40256 0.48949 0.58716 0.0
H242 H 0.36645 0.50348 0.55705 0.0
H243 H 0.36627 0.5804 0.63791 0.0
H244 H 0.38341 0.62461 0.63375 0.0
H245 H 0.41034 0.60996 0.64797 0.0
H246 H 0.45502 0.64171 0.60846 0.0
H247 H 0.42832 0.6567 0.59418 0.0
H248 H 0.44147 0.63426 0.57144 0.0
H249 H 0.33072 0.52579 0.5351 0.0
H250 H 0.29778 0.55342 0.52412 0.0
H251 H 0.36016 0.6314 0.58602 0.0
C252 C 0.42793 0.56675 0.61524 0.0
C253 C 0.42634 0.53587 0.61175 0.0
C254 C 0.40469 0.51351 0.59001 0.0
C255 C 0.38393 0.52118 0.5729 0.0
C256 C 0.38516 0.55127 0.57782 0.0
C257 C 0.40671 0.5737 0.59847 0.0
C258 C 0.40099 0.60274 0.60166 0.0
C259 C 0.38957 0.6045 0.63212 0.0
C260 C 0.43338 0.63581 0.59343 0.0
C261 C 0.37216 0.5928 0.58006 0.0
C262 C 0.36379 0.5634 0.56611 0.0
C263 C 0.33726 0.54894 0.54574 0.0
C264 C 0.3187 0.56482 0.53966 0.0
C265 C 0.32636 0.59451 0.55427 0.0
C266 C 0.35365 0.60871 0.57453 0.0
H267 H 0.89137 0.37193 0.80002 0.0
H268 H 0.91638 0.46185 0.75368 0.0
H269 H 0.86141 0.43049 0.72629 0.0
H270 H 0.84368 0.31088 0.7394 0.0
H271 H 0.81309 0.28056 0.76383 0.0
H272 H 0.85694 0.30864 0.77544 0.0
H273 H 0.83482 0.32804 0.81759 0.0
H274 H 0.79105 0.30065 0.80589 0.0
H275 H 0.80741 0.34473 0.81028 0.0
H276 H 0.79919 0.39203 0.71129 0.0
H277 H 0.73772 0.3481 0.70576 0.0
H278 H 0.75457 0.28276 0.76073 0.0
C279 C 0.88584 0.38454 0.78319 0.0
C280 C 0.9081 0.41904 0.77851 0.0
C281 C 0.89986 0.43522 0.75701 0.0
C282 C 0.86863 0.41764 0.74155 0.0
C283 C 0.84638 0.38386 0.74761 0.0
C284 C 0.85503 0.3673 0.76748 0.0
C285 C 0.82561 0.33185 0.77192 0.0
C286 C 0.83542 0.30648 0.76205 0.0
C287 C 0.81405 0.32601 0.80327 0.0
C288 C 0.7985 0.33139 0.75238 0.0
C289 C 0.81092 0.36154 0.73844 0.0
C290 C 0.78948 0.36803 0.72148 0.0
C291 C 0.75457 0.34305 0.71862 0.0
C292 C 0.74152 0.3119 0.73252 0.0
C293 C 0.76397 0.30603 0.74932 0.0
H294 H 0.44662 0.88993 0.94067 0.0
H295 H 0.5556 0.9252 0.93996 0.0
H296 H 0.54308 0.87315 0.915 0.0
H297 H 0.41977 0.81044 0.95904 0.0
H298 H 0.38079 0.79051 0.93763 0.0
H299 H 0.3986 0.83296 0.94946 0.0
H300 H 0.40103 0.85231 0.89716 0.0
H301 H 0.38258 0.8097 0.88509 0.0
H302 H 0.42279 0.84209 0.87075 0.0
H303 H 0.51736 0.81299 0.89847 0.0
H304 H 0.48149 0.75225 0.88874 0.0
H305 H 0.38935 0.75713 0.90029 0.0
C306 C 0.46789 0.88721 0.93416 0.0
C307 C 0.50207 0.91156 0.94183 0.0
C308 C 0.52933 0.90703 0.9337 0.0
C309 C 0.52238 0.87748 0.91969 0.0
C310 C 0.48811 0.8531 0.91371 0.0
C311 C 0.46137 0.85803 0.92023 0.0
C312 C 0.42669 0.82693 0.91438 0.0
C313 C 0.40523 0.81449 0.94175 0.0
C314 C 0.40713 0.83314 0.89041 0.0
C315 C 0.43792 0.80316 0.9047 0.0
C316 C 0.4734 0.81869 0.90413 0.0
C317 C 0.48958 0.80082 0.89822 0.0
C318 C 0.46898 0.76627 0.89286 0.0
C319 C 0.43258 0.74992 0.89355 0.0
C320 C 0.41706 0.76889 0.89915 0.0
H321 H 0.57082 0.43837 0.13274 0.0
H322 H 0.62507 0.53335 0.08883 0.0
H323 H 0.65832 0.51356 0.06246 0.0
H324 H 0.64162 0.43308 0.14677 0.0
H325 H 0.62082 0.38836 0.1427 0.0
H326 H 0.59612 0.40676 0.15292 0.0
H327 H 0.55453 0.37813 0.10979 0.0
H328 H 0.57894 0.35926 0.09953 0.0
H329 H 0.57156 0.38421 0.07426 0.0
H330 H 0.69146 0.48627 0.04651 0.0
H331 H 0.72141 0.4547 0.04266 0.0
H332 H 0.64718 0.37925 0.09959 0.0
C333 C 0.58912 0.45475 0.11705 0.0
C334 C 0.59537 0.48741 0.11281 0.0
C335 C 0.61951 0.50808 0.09213 0.0
C336 C 0.6386 0.49706 0.07716 0.0
C337 C 0.633 0.46528 0.08302 0.0
C338 C 0.60857 0.44435 0.10236 0.0
C339 C 0.61012 0.41315 0.10762 0.0
C340 C 0.61763 0.4102 0.13937 0.0
C341 C 0.57681 0.38183 0.09716 0.0
C342 C 0.64018 0.42028 0.0891 0.0
C343 C 0.65262 0.45008 0.07458 0.0
C344 C 0.68159 0.46268 0.05745 0.0
C345 C 0.69846 0.44458 0.05544 0.0
C346 C 0.68664 0.4145 0.07085 0.0
C347 C 0.65678 0.40207 0.08746 0.0
H348 H 0.38164 0.89058 0.46082 0.0
H349 H 0.46063 0.93363 0.52712 0.0
H350 H 0.42854 0.88165 0.55532 0.0
H351 H 0.30704 0.84115 0.50886 0.0
H352 H 0.28669 0.80714 0.48346 0.0
H353 H 0.31322 0.84946 0.4711 0.0
H354 H 0.35023 0.83176 0.44302 0.0
H355 H 0.32421 0.78959 0.45556 0.0
H356 H 0.37013 0.8121 0.46177 0.0
H357 H 0.39216 0.82178 0.57236 0.0
H358 H 0.35239 0.76102 0.57871 0.0
H359 H 0.29707 0.75812 0.50125 0.0
C360 C 0.39166 0.88936 0.48166 0.0
C361 C 0.42347 0.91604 0.49194 0.0
C362 C 0.43603 0.91358 0.51913 0.0
C363 C 0.41807 0.88411 0.53517 0.0
C364 C 0.38741 0.85767 0.52382 0.0
C365 C 0.37403 0.86032 0.49789 0.0
C366 C 0.34205 0.82772 0.48934 0.0
C367 C 0.31037 0.83161 0.48813 0.0
C368 C 0.34698 0.81453 0.46074 0.0
C369 C 0.34009 0.80587 0.51401 0.0
C370 C 0.36632 0.82355 0.53379 0.0
C371 C 0.37114 0.80788 0.5573 0.0
C372 C 0.34853 0.77334 0.56064 0.0
C373 C 0.32145 0.75486 0.5406 0.0
C374 C 0.31715 0.77158 0.5172 0.0
H375 H 0.58526 0.45672 0.65523 0.0
H376 H 0.47973 0.3959 0.68266 0.0
H377 H 0.49476 0.35814 0.70787 0.0
H378 H 0.59646 0.39243 0.63744 0.0
H379 H 0.64082 0.41191 0.64902 0.0
H380 H 0.62347 0.43735 0.63826 0.0
H381 H 0.64142 0.46829 0.6871 0.0
H382 H 0.65937 0.44325 0.69795 0.0
H383 H 0.62755 0.44454 0.71968 0.0
H384 H 0.5199 0.32259 0.7234 0.0
H385 H 0.55294 0.29418 0.72982 0.0
H386 H 0.64164 0.37878 0.69124 0.0
C387 C 0.56558 0.43602 0.66734 0.0
C388 C 0.53142 0.42921 0.66724 0.0
C389 C 0.50616 0.40174 0.68292 0.0
C390 C 0.51448 0.38014 0.69713 0.0
C391 C 0.54821 0.38673 0.69565 0.0
C392 C 0.57345 0.41438 0.68146 0.0
C393 C 0.60683 0.41446 0.68052 0.0
C394 C 0.61749 0.41399 0.64948 0.0
C395 C 0.63548 0.44441 0.69732 0.0
C396 C 0.59624 0.38189 0.69546 0.0
C397 C 0.56249 0.36637 0.70437 0.0
C398 C 0.54651 0.33485 0.71697 0.0
C399 C 0.56545 0.31885 0.72042 0.0
C400 C 0.59995 0.33428 0.71112 0.0
C401 C 0.61547 0.36639 0.69884 0.0
H402 H 0.13321 0.49187 0.83411 0.0
H403 H 0.11549 0.57084 0.85938 0.0
H404 H 0.17014 0.59791 0.88734 0.0
H405 H 0.17777 0.49079 0.90352 0.0
H406 H 0.2068 0.48252 0.88428 0.0
H407 H 0.16355 0.46655 0.87091 0.0
H408 H 0.18803 0.49562 0.82251 0.0
H409 H 0.23126 0.51223 0.83579 0.0
H410 H 0.21812 0.54008 0.8219 0.0
H411 H 0.23174 0.62219 0.90292 0.0
H412 H 0.29241 0.63785 0.91119 0.0
H413 H 0.26835 0.5409 0.87943 0.0
C414 C 0.14016 0.51396 0.84674 0.0
C415 C 0.12008 0.52904 0.8453 0.0
C416 C 0.1303 0.55863 0.86099 0.0
C417 C 0.16134 0.57421 0.87673 0.0
C418 C 0.1814 0.55945 0.87687 0.0
C419 C 0.17077 0.52947 0.86293 0.0
C420 C 0.19826 0.52023 0.86447 0.0
C421 C 0.18585 0.48812 0.88184 0.0
C422 C 0.20957 0.51686 0.83439 0.0
C423 C 0.22661 0.55041 0.88024 0.0
C424 C 0.21644 0.57281 0.88719 0.0
C425 C 0.23964 0.60437 0.89852 0.0
C426 C 0.27401 0.61315 0.90298 0.0
C427 C 0.2846 0.59024 0.89654 0.0
C428 C 0.2605 0.55838 0.8854 0.0
H429 H 0.56949 0.13657 -0.00115 0.0
H430 H 0.63934 0.10511 0.02818 0.0
H431 H 0.67324 0.15836 0.05521 0.0
H432 H 0.62999 0.2137 0.98177 0.0
H433 H 0.60768 0.23476 0.99186 0.0
H434 H 0.58359 0.19131 0.98212 0.0
H435 H 0.55239 0.17644 0.03064 0.0
H436 H 0.57587 0.22011 0.04044 0.0
H437 H 0.57729 0.18982 0.06346 0.0
H438 H 0.7055 0.21927 0.07049 0.0
H439 H 0.7322 0.28065 0.07343 0.0
H440 H 0.6419 0.27231 0.03185 0.0
C441 C 0.59099 0.14031 0.01215 0.0
C442 C 0.60166 0.11676 0.0119 0.0
C443 C 0.63043 0.12264 0.0287 0.0
C444 C 0.64986 0.15288 0.04395 0.0
C445 C 0.63987 0.17663 0.04225 0.0
C446 C 0.6107 0.17035 0.02705 0.0
C447 C 0.60806 0.20131 0.02474 0.0
C448 C 0.60731 0.21081 -0.00673 0.0
C449 C 0.57653 0.19664 0.04079 0.0
C450 C 0.64117 0.22655 0.03972 0.0
C451 C 0.65886 0.21182 0.05027 0.0
C452 C 0.69149 0.23086 0.06285 0.0
C453 C 0.70651 0.26576 0.06433 0.0
C454 C 0.68912 0.2813 0.05287 0.0
C455 C 0.65577 0.26121 0.04098 0.0
H456 H 0.53744 0.65845 0.13185 0.0
H457 H 0.49403 0.58225 0.19711 0.0
H458 H 0.47487 0.61572 0.22339 0.0
H459 H 0.56265 0.73288 0.17948 0.0
H460 H 0.55046 0.75227 0.15216 0.0
H461 H 0.56698 0.7259 0.14229 0.0
H462 H 0.51231 0.6898 0.11108 0.0
H463 H 0.49529 0.71552 0.1212 0.0
H464 H 0.47055 0.67107 0.12721 0.0
H465 H 0.45151 0.65257 0.2375 0.0
H466 H 0.42965 0.6913 0.24015 0.0
H467 H 0.48788 0.74265 0.16486 0.0
C468 C 0.52501 0.64943 0.15223 0.0
C469 C 0.51735 0.61793 0.16261 0.0
C470 C 0.50062 0.6066 0.18909 0.0
C471 C 0.48948 0.62536 0.20402 0.0
C472 C 0.4957 0.6555 0.19229 0.0
C473 C 0.51365 0.66771 0.1672 0.0
C474 C 0.51389 0.69873 0.15731 0.0
C475 C 0.55069 0.72926 0.15786 0.0
C476 C 0.497 0.69344 0.12745 0.0
C477 C 0.49215 0.70143 0.18012 0.0
C478 C 0.48217 0.67654 0.2003 0.0
C479 C 0.45977 0.67256 0.22215 0.0
C480 C 0.44733 0.69457 0.22338 0.0
C481 C 0.45717 0.72014 0.2028 0.0
C482 C 0.48018 0.72367 0.18114 0.0
H483 H 0.88368 0.43851 0.3343 0.0
H484 H 0.92643 0.54219 0.35866 0.0
H485 H 0.873 0.52671 0.38468 0.0
H486 H 0.80424 0.42292 0.31682 0.0
H487 H 0.78057 0.3805 0.32955 0.0
H488 H 0.82442 0.39826 0.31867 0.0
H489 H 0.8408 0.38498 0.36817 0.0
H490 H 0.79675 0.36669 0.37917 0.0
H491 H 0.83101 0.39971 0.40018 0.0
H492 H 0.81128 0.50122 0.40037 0.0
H493 H 0.74814 0.4681 0.40592 0.0
H494 H 0.74617 0.38129 0.37038 0.0
C495 C 0.88218 0.45776 0.34593 0.0
C496 C 0.90909 0.49149 0.34466 0.0
C497 C 0.90624 0.51614 0.35979 0.0
C498 C 0.87595 0.50755 0.3745 0.0
C499 C 0.84912 0.47419 0.3741 0.0
C500 C 0.85225 0.44962 0.36053 0.0
C501 C 0.81867 0.4164 0.3603 0.0
C502 C 0.80626 0.40382 0.32952 0.0
C503 C 0.82202 0.39041 0.37802 0.0
C504 C 0.79561 0.42634 0.37471 0.0
C505 C 0.81366 0.45961 0.38295 0.0
C506 C 0.79707 0.475 0.39455 0.0
C507 C 0.76116 0.45599 0.39752 0.0
C508 C 0.74219 0.42203 0.38869 0.0
C509 C 0.7599 0.40704 0.37767 0.0
H510 H 0.12865 0.61984 0.38862 0.0
H511 H 0.06089 0.51199 0.38865 0.0
H512 H 0.08666 0.50928 0.43484 0.0
H513 H 0.20201 0.6198 0.41262 0.0
H514 H 0.21876 0.6574 0.4338 0.0
H515 H 0.19188 0.65122 0.40296 0.0
H516 H 0.14999 0.65938 0.43427 0.0
H517 H 0.17694 0.66593 0.46519 0.0
H518 H 0.13195 0.63397 0.46559 0.0
H519 H 0.12316 0.51842 0.47937 0.0
H520 H 0.16648 0.53854 0.51865 0.0
H521 H 0.21212 0.63989 0.48683 0.0
C522 C 0.11898 0.59561 0.39839 0.0
C523 C 0.0928 0.5661 0.38501 0.0
C524 C 0.08061 0.53497 0.3987 0.0
C525 C 0.09525 0.53318 0.42482 0.0
C526 C 0.12194 0.56273 0.43685 0.0
C527 C 0.13354 0.59336 0.42408 0.0
C528 C 0.16396 0.62123 0.44015 0.0
C529 C 0.19603 0.6384 0.42125 0.0
C530 C 0.15516 0.64662 0.45201 0.0
C531 C 0.16808 0.60149 0.46383 0.0
C532 C 0.14344 0.56785 0.46179 0.0
C533 C 0.14245 0.54472 0.48123 0.0
C534 C 0.16719 0.55637 0.50341 0.0
C535 C 0.19272 0.59074 0.50571 0.0
C536 C 0.19306 0.61344 0.48557 0.0
H537 H 0.52115 0.12708 0.54143 0.0
H538 H 0.56268 0.0615 0.54367 0.0
H539 H 0.58903 0.08457 0.59115 0.0
H540 H 0.59512 0.19748 0.56906 0.0
H541 H 0.57218 0.21265 0.58909 0.0
H542 H 0.55294 0.18793 0.55728 0.0
H543 H 0.49947 0.1457 0.58596 0.0
H544 H 0.51837 0.17046 0.61785 0.0
H545 H 0.50511 0.12681 0.6176 0.0
H546 H 0.61406 0.11789 0.63696 0.0
H547 H 0.6351 0.15792 0.67742 0.0
H548 H 0.57999 0.20384 0.64273 0.0
C549 C 0.53563 0.11736 0.55191 0.0
C550 C 0.53996 0.09255 0.53877 0.0
C551 C 0.55866 0.08021 0.55346 0.0
C552 C 0.57389 0.09332 0.58033 0.0
C553 C 0.57013 0.11868 0.59211 0.0
C554 C 0.55131 0.13044 0.57837 0.0
C555 C 0.55278 0.15919 0.59451 0.0
C556 C 0.56924 0.1912 0.57641 0.0
C557 C 0.51679 0.14997 0.60458 0.0
C558 C 0.57584 0.16222 0.61939 0.0
C559 C 0.58529 0.13843 0.61784 0.0
C560 C 0.6067 0.13652 0.63844 0.0
C561 C 0.61856 0.1594 0.66128 0.0
C562 C 0.60929 0.18407 0.66314 0.0
C563 C 0.58772 0.18543 0.64182 0.0
H564 H 0.48073 0.58569 0.70647 0.0
H565 H 0.43325 0.48005 0.72455 0.0
H566 H 0.41221 0.48851 0.77042 0.0
H567 H 0.50358 0.61594 0.78364 0.0
H568 H 0.49413 0.64851 0.77713 0.0
H569 H 0.51105 0.63507 0.74892 0.0
H570 H 0.45912 0.62347 0.7166 0.0
H571 H 0.44146 0.63587 0.74483 0.0
H572 H 0.41603 0.59506 0.72863 0.0
H573 H 0.38609 0.5061 0.80795 0.0
H574 H 0.36465 0.53341 0.83969 0.0
H575 H 0.43159 0.62854 0.79893 0.0
C576 C 0.46729 0.56473 0.72081 0.0
C577 C 0.45886 0.53231 0.71237 0.0
C578 C 0.44047 0.50513 0.73107 0.0
C579 C 0.42823 0.5097 0.75699 0.0
C580 C 0.43527 0.5417 0.76397 0.0
C581 C 0.45525 0.56897 0.74684 0.0
C582 C 0.45672 0.60015 0.75799 0.0
C583 C 0.49356 0.62647 0.76749 0.0
C584 C 0.44248 0.61445 0.73568 0.0
C585 C 0.43316 0.58586 0.78331 0.0
C586 C 0.42103 0.5521 0.78635 0.0
C587 C 0.39615 0.53269 0.80631 0.0
C588 C 0.38383 0.54832 0.82398 0.0
C589 C 0.39668 0.58303 0.82175 0.0
C590 C 0.42179 0.60204 0.80128 0.0
H591 H 0.89287 0.45672 0.86956 0.0
H592 H 0.98184 0.45134 0.8968 0.0
H593 H 0.95926 0.43812 0.94579 0.0
H594 H 0.88181 0.4913 0.9369 0.0
H595 H 0.83552 0.46657 0.93407 0.0
H596 H 0.86099 0.47994 0.90221 0.0
H597 H 0.83132 0.41833 0.88502 0.0
H598 H 0.8061 0.40471 0.91694 0.0
H599 H 0.83253 0.38768 0.90773 0.0
H600 H 0.924 0.41921 0.99006 0.0
H601 H 0.88037 0.39959 0.02768 0.0
H602 H 0.8138 0.41645 0.9714 0.0
C603 C 0.90787 0.45327 0.88594 0.0
C604 C 0.93917 0.45515 0.87939 0.0
C605 C 0.9581 0.45057 0.90143 0.0
C606 C 0.94536 0.44282 0.92926 0.0
C607 C 0.91381 0.43997 0.93471 0.0
C608 C 0.8955 0.44544 0.91376 0.0
C609 C 0.86131 0.43892 0.92474 0.0
C610 C 0.85984 0.47111 0.92447 0.0
C611 C 0.83104 0.41073 0.90759 0.0
C612 C 0.86287 0.4281 0.95495 0.0
C613 C 0.89343 0.42905 0.9603 0.0
C614 C 0.90017 0.41877 0.98627 0.0
C615 C 0.87511 0.40749 0.00744 0.0
C616 C 0.84369 0.40656 0.00251 0.0
C617 C 0.83763 0.41708 0.97589 0.0
H618 H 0.52629 0.95528 0.06127 0.0
H619 H 0.42667 0.9142 0.01941 0.0
H620 H 0.39849 0.88061 0.06229 0.0
H621 H 0.5117 0.88243 0.08955 0.0
H622 H 0.53441 0.89878 0.12306 0.0
H623 H 0.54642 0.92535 0.09226 0.0
H624 H 0.53719 0.96804 0.11996 0.0
H625 H 0.52583 0.94194 0.15118 0.0
H626 H 0.4967 0.95416 0.13715 0.0
H627 H 0.3825 0.84461 0.10525 0.0
H628 H 0.37896 0.81125 0.14741 0.0
H629 H 0.48914 0.87521 0.16172 0.0
C630 C 0.49844 0.94046 0.06185 0.0
C631 C 0.4784 0.93773 0.03754 0.0
C632 C 0.44217 0.91697 0.03822 0.0
C633 C 0.42605 0.89779 0.06239 0.0
C634 C 0.4466 0.89977 0.08563 0.0
C635 C 0.48199 0.92093 0.08578 0.0
C636 C 0.49843 0.91544 0.11202 0.0
C637 C 0.52425 0.90487 0.1037 0.0
C638 C 0.51554 0.94676 0.13122 0.0
C639 C 0.46695 0.88703 0.12595 0.0
C640 C 0.43731 0.87861 0.11053 0.0
C641 C 0.40541 0.85141 0.11786 0.0
C642 C 0.40372 0.83245 0.14171 0.0
C643 C 0.43375 0.84073 0.15791 0.0
C644 C 0.46568 0.86855 0.14997 0.0
H645 H 0.55421 0.44784 0.20691 0.0
H646 H 0.58565 0.55072 0.22608 0.0
H647 H 0.60161 0.5439 0.27528 0.0
H648 H 0.52288 0.41297 0.27952 0.0
H649 H 0.53967 0.38549 0.27679 0.0
H650 H 0.52495 0.39679 0.24513 0.0
H651 H 0.58429 0.41798 0.22204 0.0
H652 H 0.59942 0.40733 0.25372 0.0
H653 H 0.62277 0.44945 0.24028 0.0
H654 H 0.62197 0.52839 0.31962 0.0
H655 H 0.6414 0.50427 0.35709 0.0
H656 H 0.59809 0.41192 0.30817 0.0
C657 C 0.56367 0.46869 0.22169 0.0
C658 C 0.56867 0.49981 0.21275 0.0
C659 C 0.58114 0.52653 0.23263 0.0
C660 C 0.59047 0.52293 0.26055 0.0
C661 C 0.58687 0.4924 0.26819 0.0
C662 C 0.57328 0.46558 0.24945 0.0
C663 C 0.57481 0.43642 0.26194 0.0
C664 C 0.53841 0.40613 0.2661 0.0
C665 C 0.59662 0.42729 0.24339 0.0
C666 C 0.59243 0.45138 0.29031 0.0
C667 C 0.59887 0.48355 0.29363 0.0
C668 C 0.61657 0.50304 0.31745 0.0
C669 C 0.6277 0.48917 0.33853 0.0
C670 C 0.62123 0.45619 0.33558 0.0
C671 C 0.60327 0.43713 0.31114 0.0
H672 H 0.43448 0.95134 0.37836 0.0
H673 H 0.52074 0.94598 0.41241 0.0
H674 H 0.51962 0.91454 0.36943 0.0
H675 H 0.38859 0.87195 0.35407 0.0
H676 H 0.37152 0.87963 0.32185 0.0
H677 H 0.38353 0.90776 0.35177 0.0
H678 H 0.42478 0.95777 0.32009 0.0
H679 H 0.41234 0.92991 0.28976 0.0
H680 H 0.45715 0.95568 0.2998 0.0
H681 H 0.50195 0.87503 0.32805 0.0
H682 H 0.47266 0.83464 0.2885 0.0
H683 H 0.39841 0.86662 0.28058 0.0
C684 C 0.45416 0.94497 0.3759 0.0
C685 C 0.47835 0.95171 0.398 0.0
C686 C 0.50276 0.94173 0.39511 0.0
C687 C 0.50214 0.92376 0.37091 0.0
C688 C 0.47704 0.91625 0.34986 0.0
C689 C 0.45389 0.9271 0.35184 0.0
C690 C 0.42727 0.91279 0.32786 0.0
C691 C 0.39058 0.89179 0.33961 0.0
C692 C 0.4306 0.9407 0.30821 0.0
C693 C 0.43813 0.89107 0.31284 0.0
C694 C 0.467 0.89357 0.32574 0.0
C695 C 0.47986 0.87349 0.31732 0.0
C696 C 0.46289 0.85044 0.29502 0.0
C697 C 0.43347 0.84775 0.28137 0.0
C698 C 0.42123 0.86859 0.29028 0.0
H699 H 0.58189 0.47176 0.57645 0.0
H700 H 0.48298 0.45869 0.55182 0.0
H701 H 0.49118 0.44605 0.50235 0.0
H702 H 0.62624 0.50604 0.50749 0.0
H703 H 0.64853 0.4834 0.5102 0.0
H704 H 0.63757 0.49722 0.54212 0.0
H705 H 0.60556 0.43637 0.56084 0.0
H706 H 0.61591 0.42226 0.52887 0.0
H707 H 0.57165 0.4037 0.5393 0.0
H708 H 0.50641 0.42727 0.45761 0.0
H709 H 0.52899 0.40692 0.42011 0.0
H710 H 0.61702 0.43038 0.4747 0.0
C711 C 0.56226 0.46692 0.56051 0.0
C712 C 0.5318 0.46625 0.56797 0.0
C713 C 0.50676 0.45988 0.5465 0.0
C714 C 0.5111 0.45246 0.51839 0.0
C715 C 0.54071 0.45175 0.51213 0.0
C716 C 0.56606 0.45922 0.53251 0.0
C717 C 0.59398 0.45393 0.52107 0.0
C718 C 0.62863 0.48713 0.52016 0.0
C719 C 0.59692 0.42749 0.53856 0.0
C720 C 0.57984 0.4413 0.49131 0.0
C721 C 0.54929 0.44055 0.48645 0.0
C722 C 0.53056 0.42821 0.46101 0.0
C723 C 0.54352 0.41654 0.43991 0.0
C724 C 0.5748 0.4171 0.44446 0.0
C725 C 0.59315 0.42979 0.4705 0.0
H726 H 0.12262 0.50792 0.74341 0.0
H727 H 0.0694 0.56274 0.73765 0.0
H728 H 0.1016 0.59061 0.69377 0.0
H729 H 0.20257 0.57288 0.72583 0.0
H730 H 0.2154 0.54852 0.70537 0.0
H731 H 0.18448 0.52909 0.73331 0.0
H732 H 0.14051 0.48485 0.69752 0.0
H733 H 0.17157 0.50372 0.66949 0.0
H734 H 0.12942 0.49835 0.6651 0.0
H735 H 0.14556 0.61784 0.65467 0.0
H736 H 0.19343 0.63836 0.62069 0.0
H737 H 0.21753 0.56525 0.65271 0.0
C738 C 0.11706 0.52508 0.73238 0.0
C739 C 0.0935 0.53316 0.74364 0.0
C740 C 0.08702 0.55594 0.72899 0.0
C741 C 0.10534 0.57199 0.70424 0.0
C742 C 0.12962 0.56457 0.69442 0.0
C743 C 0.135 0.54116 0.70778 0.0
C744 C 0.16398 0.53912 0.69426 0.0
C745 C 0.19333 0.54794 0.71599 0.0
C746 C 0.15056 0.50445 0.68078 0.0
C747 C 0.17486 0.56574 0.67167 0.0
C748 C 0.1547 0.58008 0.67198 0.0
C749 C 0.16114 0.60643 0.65396 0.0
C750 C 0.18855 0.61806 0.63488 0.0
C751 C 0.20919 0.60335 0.63399 0.0
C752 C 0.20212 0.57688 0.65271 0.0
H753 H 0.63279 0.13072 0.91419 0.0
H754 H 0.5252 0.05795 0.89666 0.0
H755 H 0.52817 0.08738 0.85172 0.0
H756 H 0.62811 0.19955 0.8948 0.0
H757 H 0.67038 0.22265 0.87955 0.0
H758 H 0.66177 0.19266 0.90725 0.0
H759 H 0.68181 0.1613 0.8746 0.0
H760 H 0.6911 0.19156 0.8469 0.0
H761 H 0.66263 0.14765 0.8395 0.0
H762 H 0.54158 0.12855 0.81151 0.0
H763 H 0.56447 0.17667 0.77871 0.0
H764 H 0.66205 0.22418 0.82519 0.0
C765 C 0.60999 0.12055 0.90063 0.0
C766 C 0.57875 0.09204 0.90888 0.0
C767 C 0.54952 0.07946 0.89054 0.0
C768 C 0.55093 0.09617 0.8651 0.0
C769 C 0.58175 0.12526 0.85841 0.0
C770 C 0.61082 0.13715 0.87558 0.0
C771 C 0.63987 0.17043 0.86523 0.0
C772 C 0.65064 0.19793 0.88807 0.0
C773 C 0.67067 0.16755 0.856 0.0
C774 C 0.62242 0.17593 0.83986 0.0
C775 C 0.58908 0.14943 0.836 0.0
C776 C 0.56773 0.14928 0.81421 0.0
C777 C 0.58093 0.17678 0.79577 0.0
C778 C 0.615 0.20424 0.79949 0.0
C779 C 0.63586 0.20369 0.82189 0.0
H780 H 0.51632 0.61881 0.06227 0.0
H781 H 0.46849 0.51086 0.06425 0.0
H782 H 0.43951 0.50673 0.01786 0.0
H783 H 0.44308 0.61862 0.03821 0.0
H784 H 0.46599 0.65537 0.01641 0.0
H785 H 0.48682 0.65015 0.04731 0.0
H786 H 0.53652 0.65665 0.01585 0.0
H787 H 0.51605 0.66227 0.98484 0.0
H788 H 0.52673 0.63003 0.98495 0.0
H789 H 0.41246 0.51457 0.97302 0.0
H790 H 0.38988 0.53341 0.93348 0.0
H791 H 0.45254 0.63585 0.9637 0.0
C792 C 0.49999 0.59425 0.05288 0.0
C793 C 0.49459 0.56512 0.06692 0.0
C794 C 0.47335 0.53354 0.05371 0.0
C795 C 0.45664 0.53096 0.02748 0.0
C796 C 0.46149 0.56019 0.01487 0.0
C797 C 0.48279 0.59123 0.02714 0.0
C798 C 0.48187 0.61864 0.01063 0.0
C799 C 0.46865 0.63674 0.02925 0.0
C800 C 0.5174 0.64335 -0.00167 0.0
C801 C 0.45624 0.59817 0.98728 0.0
C802 C 0.44509 0.56457 0.98983 0.0
C803 C 0.42114 0.54082 0.97076 0.0
C804 C 0.40844 0.55177 0.94843 0.0
C805 C 0.41937 0.58608 0.94563 0.0
C806 C 0.44352 0.60945 0.9654 0.0
H807 H 0.90543 0.43416 0.2577 0.0
H808 H 0.9743 0.53427 0.2264 0.0
H809 H 0.94585 0.51736 0.17879 0.0
H810 H 0.89596 0.38827 0.18914 0.0
H811 H 0.85114 0.35883 0.19574 0.0
H812 H 0.88119 0.37719 0.2253 0.0
H813 H 0.84292 0.39769 0.24699 0.0
H814 H 0.81314 0.38004 0.21732 0.0
H815 H 0.8325 0.4238 0.22595 0.0
H816 H 0.90382 0.49234 0.13771 0.0
H817 H 0.85492 0.45966 0.10446 0.0
H818 H 0.8132 0.37578 0.16287 0.0
C819 C 0.91518 0.45221 0.24053 0.0
C820 C 0.94208 0.48547 0.24557 0.0
C821 C 0.95406 0.50854 0.22279 0.0
C822 C 0.93791 0.49919 0.19577 0.0
C823 C 0.9102 0.46663 0.19195 0.0
C824 C 0.89935 0.4433 0.21358 0.0
C825 C 0.86716 0.41089 0.20491 0.0
C826 C 0.8743 0.3821 0.20369 0.0
C827 C 0.83718 0.40265 0.22498 0.0
C828 C 0.86081 0.41999 0.17537 0.0
C829 C 0.88603 0.45215 0.16821 0.0
C830 C 0.88431 0.46692 0.14285 0.0
C831 C 0.85627 0.44823 0.12422 0.0
C832 C 0.83031 0.41512 0.13105 0.0
C833 C 0.83283 0.40087 0.15692 0.0
loop_
_geom_bond_atom_site_label_1
_geom_bond_atom_site_label_2
_geom_bond_distance
_geom_bond_site_symmetry_2
_ccdc_geom_bond_type
H0 C6 0.930 . S
H1 C9 0.931 . S
H2 C11 0.931 . S
H3 C13 0.930 . S
H4 C15 0.930 . S
H5 C17 0.931 . S
C6 H0 0.930 . S
C6 C7 1.380 . S
C6 C8 1.394 . S
C7 C6 1.380 . S
C7 C11 1.382 . S
C8 C6 1.394 . S
C8 C9 1.400 . S
C9 H1 0.931 . S
C9 C8 1.400 . S
C9 C10 1.375 . S
C10 C9 1.375 . S
C10 C11 1.415 . S
C10 C12 1.501 1_455 S
C11 H2 0.931 . S
C11 C7 1.382 . S
C11 C10 1.415 . S
C12 C10 1.501 1_655 S
C12 C13 1.384 . S
C12 C17 1.408 . S
C13 H3 0.930 . S
C13 C12 1.384 . S
C13 C14 1.389 . S
C14 C13 1.389 . S
C14 C15 1.405 . S
C15 H4 0.930 . S
C15 C14 1.405 . S
C15 C16 1.364 . S
C16 C15 1.364 . S
C16 C17 1.400 . S
C17 H5 0.931 . S
C17 C12 1.408 . S
C17 C16 1.400 . S
H18 C24 0.930 . S
H19 C27 0.931 . S
H20 C29 0.931 . S
H21 C31 0.930 . S
H22 C33 0.930 . S
H23 C35 0.931 1_545 S
C24 H18 0.930 . S
C24 C25 1.380 . S
C24 C26 1.394 . S
C25 C24 1.380 . S
C25 C29 1.382 . S
C26 C24 1.394 . S
C26 C27 1.400 . S
C27 H19 0.931 . S
C27 C26 1.400 . S
C27 C28 1.375 . S
C28 C27 1.375 . S
C28 C29 1.415 . S
C28 C30 1.501 1_545 S
C29 H20 0.931 . S
C29 C25 1.382 . S
C29 C28 1.415 . S
C30 C28 1.501 1_565 S
C30 C31 1.384 . S
C30 C35 1.408 . S
C31 H21 0.930 . S
C31 C30 1.384 . S
C31 C32 1.389 . S
C32 C31 1.389 . S
C32 C33 1.405 . S
C33 H22 0.930 . S
C33 C32 1.405 . S
C33 C34 1.364 . S
C34 C33 1.364 . S
C34 C35 1.400 . S
C35 H23 0.931 1_565 S
C35 C30 1.408 . S
C35 C34 1.400 . S
H36 C42 0.930 . S
H37 C45 0.931 . S
H38 C47 0.931 . S
H39 C49 0.930 . S
H40 C51 0.930 . S
H41 C53 0.931 . S
C42 H36 0.930 . S
C42 C43 1.380 . S
C42 C44 1.394 . S
C43 C42 1.380 . S
C43 C47 1.382 . S
C44 C42 1.394 . S
C44 C45 1.400 . S
C45 H37 0.931 . S
C45 C44 1.400 . S
C45 C46 1.375 . S
C46 C45 1.375 . S
C46 C47 1.415 . S
C46 C48 1.501 . S
C47 H38 0.931 . S
C47 C43 1.382 . S
C47 C46 1.415 . S
C48 C46 1.501 . S
C48 C49 1.384 . S
C48 C53 1.408 . S
C49 H39 0.930 . S
C49 C48 1.384 . S
C49 C50 1.389 . S
C50 C49 1.389 . S
C50 C51 1.405 . S
C51 H40 0.930 . S
C51 C50 1.405 . S
C51 C52 1.364 . S
C52 C51 1.364 . S
C52 C53 1.400 . S
C53 H41 0.931 . S
C53 C48 1.408 . S
C53 C52 1.400 . S
H54 C60 0.930 . S
H55 C63 0.931 . S
H56 C65 0.931 . S
H57 C67 0.930 . S
H58 C69 0.930 . S
H59 C71 0.931 . S
C60 H54 0.930 . S
C60 C61 1.380 . S
C60 C62 1.394 . S
C61 C60 1.380 . S
C61 C65 1.382 . S
C62 C60 1.394 . S
C62 C63 1.400 . S
C63 H55 0.931 . S
C63 C62 1.400 . S
C63 C64 1.375 . S
C64 C63 1.375 . S
C64 C65 1.415 . S
C64 C66 1.501 1_455 S
C65 H56 0.931 . S
C65 C61 1.382 . S
C65 C64 1.415 . S
C66 C64 1.501 1_655 S
C66 C67 1.384 . S
C66 C71 1.408 . S
C67 H57 0.930 . S
C67 C66 1.384 . S
C67 C68 1.389 . S
C68 C67 1.389 . S
C68 C69 1.405 . S
C69 H58 0.930 . S
C69 C68 1.405 . S
C69 C70 1.364 . S
C70 C69 1.364 . S
C70 C71 1.400 . S
C71 H59 0.931 . S
C71 C66 1.408 . S
C71 C70 1.400 . S
H72 C78 0.930 . S
H73 C81 0.931 . S
H74 C83 0.931 . S
H75 C85 0.930 . S
H76 C87 0.930 . S
H77 C89 0.931 . S
C78 H72 0.930 . S
C78 C79 1.380 . S
C78 C80 1.394 1_554 S
C79 C78 1.380 . S
C79 C83 1.382 . S
C80 C78 1.394 1_556 S
C80 C81 1.400 . S
C81 H73 0.931 . S
C81 C80 1.400 . S
C81 C82 1.375 . S
C82 C81 1.375 . S
C82 C83 1.415 1_556 S
C82 C84 1.501 1_565 S
C83 H74 0.931 . S
C83 C79 1.382 . S
C83 C82 1.415 1_554 S
C84 C82 1.501 1_545 S
C84 C85 1.384 1_556 S
C84 C89 1.408 . S
C85 H75 0.930 . S
C85 C84 1.384 1_554 S
C85 C86 1.389 1_554 S
C86 C85 1.389 1_556 S
C86 C87 1.405 . S
C87 H76 0.930 . S
C87 C86 1.405 . S
C87 C88 1.364 . S
C88 C87 1.364 . S
C88 C89 1.400 . S
C89 H77 0.931 . S
C89 C84 1.408 . S
C89 C88 1.400 . S
H90 C96 0.930 . S
H91 C99 0.931 . S
H92 C101 0.931 . S
H93 C103 0.930 . S
H94 C105 0.930 . S
H95 C107 0.931 . S
C96 H90 0.930 . S
C96 C97 1.380 . S
C96 C98 1.394 . S
C97 C96 1.380 . S
C97 C101 1.382 . S
C98 C96 1.394 . S
C98 C99 1.400 . S
C99 H91 0.931 . S
C99 C98 1.400 . S
C99 C100 1.375 . S
C100 C99 1.375 . S
C100 C101 1.415 . S
C100 C102 1.501 . S
C101 H92 0.931 . S
C101 C97 1.382 . S
C101 C100 1.415 . S
C102 C100 1.501 . S
C102 C103 1.384 . S
C102 C107 1.408 . S
C103 H93 0.930 . S
C103 C102 1.384 . S
C103 C104 1.389 . S
C104 C103 1.389 . S
C104 C105 1.405 . S
C105 H94 0.930 . S
C105 C104 1.405 . S
C105 C106 1.364 . S
C106 C105 1.364 . S
C106 C107 1.400 . S
C107 H95 0.931 . S
C107 C102 1.408 . S
C107 C106 1.400 . S
C108 O109 1.160 . S
C108 O115 1.185 . S
O109 C108 1.160 . S
O110 Zn111 1.899 . S
O110 C118 1.284 . S
Zn111 O110 1.899 . S
Zn111 O112 2.032 . S
Zn111 O115 2.086 . S
Zn111 O120 1.977 . S
O112 Zn111 2.032 . S
O112 C116 1.278 . S
C113 O114 1.203 . S
C113 O120 1.267 . S
O114 C113 1.203 . S
O115 C108 1.185 . S
O115 Zn111 2.086 . S
C116 O112 1.278 . S
C116 O117 1.211 . S
O117 C116 1.211 . S
C118 O110 1.284 . S
C118 O119 1.273 . S
O119 C118 1.273 . S
O120 Zn111 1.977 . S
O120 C113 1.267 . S
C121 O122 1.160 . S
C121 O128 1.185 . S
O122 C121 1.160 . S
O123 Zn124 1.899 . S
O123 C131 1.284 . S
Zn124 O123 1.899 . S
Zn124 O125 2.032 . S
Zn124 O128 2.086 . S
Zn124 O133 1.977 . S
O125 Zn124 2.032 . S
O125 C129 1.278 . S
C126 O127 1.203 . S
C126 O133 1.267 . S
O127 C126 1.203 . S
O128 C121 1.185 . S
O128 Zn124 2.086 . S
C129 O125 1.278 . S
C129 O130 1.211 . S
O130 C129 1.211 . S
C131 O123 1.284 . S
C131 O132 1.273 . S
O132 C131 1.273 . S
O133 Zn124 1.977 . S
O133 C126 1.267 . S
C134 O135 1.160 . S
C134 O141 1.185 . S
O135 C134 1.160 . S
O136 Zn137 1.899 . S
O136 C144 1.284 . S
Zn137 O136 1.899 . S
Zn137 O138 2.032 . S
Zn137 O141 2.086 . S
Zn137 O146 1.977 . S
O138 Zn137 2.032 . S
O138 C142 1.278 . S
C139 O140 1.203 . S
C139 O146 1.267 . S
O140 C139 1.203 . S
O141 C134 1.185 . S
O141 Zn137 2.086 . S
C142 O138 1.278 . S
C142 O143 1.211 . S
O143 C142 1.211 . S
C144 O136 1.284 . S
C144 O145 1.273 . S
O145 C144 1.273 . S
O146 Zn137 1.977 . S
O146 C139 1.267 . S
C147 O148 1.160 . S
C147 O154 1.185 . S
O148 C147 1.160 . S
O149 Zn150 1.899 . S
O149 C157 1.284 . S
Zn150 O149 1.899 . S
Zn150 O151 2.032 . S
Zn150 O154 2.086 . S
Zn150 O159 1.977 . S
O151 Zn150 2.032 . S
O151 C155 1.278 . S
C152 O153 1.203 . S
C152 O159 1.267 . S
O153 C152 1.203 . S
O154 C147 1.185 . S
O154 Zn150 2.086 . S
C155 O151 1.278 . S
C155 O156 1.211 . S
O156 C155 1.211 . S
C157 O149 1.284 . S
C157 O158 1.273 . S
O158 C157 1.273 . S
O159 Zn150 1.977 . S
O159 C152 1.267 . S
C160 O161 1.160 . S
C160 O167 1.185 . S
O161 C160 1.160 . S
O162 Zn163 1.899 . S
O162 C170 1.284 . S
Zn163 O162 1.899 . S
Zn163 O164 2.032 . S
Zn163 O167 2.086 . S
Zn163 O172 1.977 . S
O164 Zn163 2.032 . S
O164 C168 1.278 . S
C165 O166 1.203 . S
C165 O172 1.267 . S
O166 C165 1.203 . S
O167 C160 1.185 . S
O167 Zn163 2.086 . S
C168 O164 1.278 . S
C168 O169 1.211 . S
O169 C168 1.211 . S
C170 O162 1.284 . S
C170 O171 1.273 . S
O171 C170 1.273 . S
O172 Zn163 1.977 . S
O172 C165 1.267 . S
C173 O174 1.160 . S
C173 O180 1.185 . S
O174 C173 1.160 . S
O175 Zn176 1.899 . S
O175 C183 1.284 . S
Zn176 O175 1.899 . S
Zn176 O177 2.032 . S
Zn176 O180 2.086 . S
Zn176 O185 1.977 . S
O177 Zn176 2.032 . S
O177 C181 1.278 . S
C178 O179 1.203 . S
C178 O185 1.267 . S
O179 C178 1.203 . S
O180 C173 1.185 . S
O180 Zn176 2.086 . S
C181 O177 1.278 . S
C181 O182 1.211 . S
O182 C181 1.211 . S
C183 O175 1.284 . S
C183 O184 1.273 . S
O184 C183 1.273 . S
O185 Zn176 1.977 . S
O185 C178 1.267 . S
H186 C198 0.930 . S
H187 C200 0.930 . S
H188 C201 0.930 . S
H189 C205 0.959 . S
H190 C205 0.959 . S
H191 C205 0.961 . S
H192 C206 0.960 . S
H193 C206 0.961 . S
H194 C206 0.959 . S
H195 C209 0.929 . S
H196 C210 0.931 . S
H197 C212 0.930 . S
C198 H186 0.930 . S
C198 C199 1.399 . S
C198 C203 1.399 . S
C199 C198 1.399 . S
C199 C200 1.376 . S
C200 H187 0.930 . S
C200 C199 1.376 . S
C200 C201 1.388 . S
C201 H188 0.930 . S
C201 C200 1.388 . S
C201 C202 1.390 . S
C202 C201 1.390 . S
C202 C203 1.394 . S
C202 C208 1.465 . S
C203 C198 1.399 . S
C203 C202 1.394 . S
C203 C204 1.516 . S
C204 C203 1.516 . S
C204 C205 1.502 . S
C204 C206 1.561 . S
C204 C207 1.526 . S
C205 H189 0.959 . S
C205 H190 0.959 . S
C205 H191 0.961 . S
C205 C204 1.502 . S
C206 H192 0.960 . S
C206 H193 0.961 . S
C206 H194 0.959 . S
C206 C204 1.561 . S
C207 C204 1.526 . S
C207 C208 1.396 . S
C207 C212 1.390 . S
C208 C202 1.465 . S
C208 C207 1.396 . S
C208 C209 1.399 . S
C209 H195 0.929 . S
C209 C208 1.399 . S
C209 C210 1.385 . S
C210 H196 0.931 . S
C210 C209 1.385 . S
C210 C211 1.389 . S
C211 C210 1.389 . S
C211 C212 1.387 . S
C212 H197 0.930 . S
C212 C207 1.390 . S
C212 C211 1.387 . S
H213 C225 0.930 . S
H214 C227 0.930 . S
H215 C228 0.930 . S
H216 C232 0.959 . S
H217 C232 0.959 . S
H218 C232 0.961 . S
H219 C233 0.960 . S
H220 C233 0.961 . S
H221 C233 0.959 . S
H222 C236 0.929 . S
H223 C237 0.931 . S
H224 C239 0.930 . S
C225 H213 0.930 . S
C225 C226 1.399 . S
C225 C230 1.399 . S
C226 C225 1.399 . S
C226 C227 1.376 . S
C227 H214 0.930 . S
C227 C226 1.376 . S
C227 C228 1.388 . S
C228 H215 0.930 . S
C228 C227 1.388 . S
C228 C229 1.390 . S
C229 C228 1.390 . S
C229 C230 1.394 . S
C229 C235 1.465 . S
C230 C225 1.399 . S
C230 C229 1.394 . S
C230 C231 1.516 . S
C231 C230 1.516 . S
C231 C232 1.502 . S
C231 C233 1.561 . S
C231 C234 1.526 . S
C232 H216 0.959 . S
C232 H217 0.959 . S
C232 H218 0.961 . S
C232 C231 1.502 . S
C233 H219 0.960 . S
C233 H220 0.961 . S
C233 H221 0.959 . S
C233 C231 1.561 . S
C234 C231 1.526 . S
C234 C235 1.396 . S
C234 C239 1.390 . S
C235 C229 1.465 . S
C235 C234 1.396 . S
C235 C236 1.399 . S
C236 H222 0.929 . S
C236 C235 1.399 . S
C236 C237 1.385 . S
C237 H223 0.931 . S
C237 C236 1.385 . S
C237 C238 1.389 . S
C238 C237 1.389 . S
C238 C239 1.387 . S
C239 H224 0.930 . S
C239 C234 1.390 . S
C239 C238 1.387 . S
H240 C252 0.930 . S
H241 C254 0.930 . S
H242 C255 0.930 . S
H243 C259 0.959 . S
H244 C259 0.959 . S
H245 C259 0.961 . S
H246 C260 0.960 . S
H247 C260 0.961 . S
H248 C260 0.959 . S
H249 C263 0.929 . S
H250 C264 0.931 . S
H251 C266 0.930 . S
C252 H240 0.930 . S
C252 C253 1.399 . S
C252 C257 1.399 . S
C253 C252 1.399 . S
C253 C254 1.376 . S
C254 H241 0.930 . S
C254 C253 1.376 . S
C254 C255 1.388 . S
C255 H242 0.930 . S
C255 C254 1.388 . S
C255 C256 1.390 . S
C256 C255 1.390 . S
C256 C257 1.394 . S
C256 C262 1.465 . S
C257 C252 1.399 . S
C257 C256 1.394 . S
C257 C258 1.516 . S
C258 C257 1.516 . S
C258 C259 1.502 . S
C258 C260 1.561 . S
C258 C261 1.526 . S
C259 H243 0.959 . S
C259 H244 0.959 . S
C259 H245 0.961 . S
C259 C258 1.502 . S
C260 H246 0.960 . S
C260 H247 0.961 . S
C260 H248 0.959 . S
C260 C258 1.561 . S
C261 C258 1.526 . S
C261 C262 1.396 . S
C261 C266 1.390 . S
C262 C256 1.465 . S
C262 C261 1.396 . S
C262 C263 1.399 . S
C263 H249 0.929 . S
C263 C262 1.399 . S
C263 C264 1.385 . S
C264 H250 0.931 . S
C264 C263 1.385 . S
C264 C265 1.389 . S
C265 C264 1.389 . S
C265 C266 1.387 . S
C266 H251 0.930 . S
C266 C261 1.390 . S
C266 C265 1.387 . S
H267 C279 0.930 . S
H268 C281 0.930 . S
H269 C282 0.930 . S
H270 C286 0.959 . S
H271 C286 0.959 . S
H272 C286 0.961 . S
H273 C287 0.960 . S
H274 C287 0.961 . S
H275 C287 0.959 . S
H276 C290 0.929 . S
H277 C291 0.931 . S
H278 C293 0.930 . S
C279 H267 0.930 . S
C279 C280 1.399 . S
C279 C284 1.399 . S
C280 C279 1.399 . S
C280 C281 1.376 . S
C281 H268 0.930 . S
C281 C280 1.376 . S
C281 C282 1.388 . S
C282 H269 0.930 . S
C282 C281 1.388 . S
C282 C283 1.390 . S
C283 C282 1.390 . S
C283 C284 1.394 . S
C283 C289 1.465 . S
C284 C279 1.399 . S
C284 C283 1.394 . S
C284 C285 1.516 . S
C285 C284 1.516 . S
C285 C286 1.502 . S
C285 C287 1.561 . S
C285 C288 1.526 . S
C286 H270 0.959 . S
C286 H271 0.959 . S
C286 H272 0.961 . S
C286 C285 1.502 . S
C287 H273 0.960 . S
C287 H274 0.961 . S
C287 H275 0.959 . S
C287 C285 1.561 . S
C288 C285 1.526 . S
C288 C289 1.396 . S
C288 C293 1.390 . S
C289 C283 1.465 . S
C289 C288 1.396 . S
C289 C290 1.399 . S
C290 H276 0.929 . S
C290 C289 1.399 . S
C290 C291 1.385 . S
C291 H277 0.931 . S
C291 C290 1.385 . S
C291 C292 1.389 . S
C292 C291 1.389 . S
C292 C293 1.387 . S
C293 H278 0.930 . S
C293 C288 1.390 . S
C293 C292 1.387 . S
H294 C306 0.930 . S
H295 C308 0.930 1_554 S
H296 C309 0.930 . S
H297 C313 0.959 . S
H298 C313 0.959 . S
H299 C313 0.961 . S
H300 C314 0.960 . S
H301 C314 0.961 . S
H302 C314 0.959 . S
H303 C317 0.929 . S
H304 C318 0.931 . S
H305 C320 0.930 . S
C306 H294 0.930 . S
C306 C307 1.399 . S
C306 C311 1.399 . S
C307 C306 1.399 . S
C307 C308 1.376 . S
C308 H295 0.930 1_556 S
C308 C307 1.376 . S
C308 C309 1.388 . S
C309 H296 0.930 . S
C309 C308 1.388 . S
C309 C310 1.390 . S
C310 C309 1.390 . S
C310 C311 1.394 . S
C310 C316 1.465 . S
C311 C306 1.399 . S
C311 C310 1.394 . S
C311 C312 1.516 . S
C312 C311 1.516 . S
C312 C313 1.502 . S
C312 C314 1.561 . S
C312 C315 1.526 . S
C313 H297 0.959 . S
C313 H298 0.959 . S
C313 H299 0.961 . S
C313 C312 1.502 . S
C314 H300 0.960 . S
C314 H301 0.961 . S
C314 H302 0.959 . S
C314 C312 1.561 . S
C315 C312 1.526 . S
C315 C316 1.396 . S
C315 C320 1.390 . S
C316 C310 1.465 . S
C316 C315 1.396 . S
C316 C317 1.399 . S
C317 H303 0.929 . S
C317 C316 1.399 . S
C317 C318 1.385 . S
C318 H304 0.931 . S
C318 C317 1.385 . S
C318 C319 1.389 . S
C319 C318 1.389 . S
C319 C320 1.387 . S
C320 H305 0.930 . S
C320 C315 1.390 . S
C320 C319 1.387 . S
H321 C333 0.930 . S
H322 C335 0.930 . S
H323 C336 0.930 . S
H324 C340 0.959 . S
H325 C340 0.959 . S
H326 C340 0.961 . S
H327 C341 0.960 . S
H328 C341 0.961 . S
H329 C341 0.959 . S
H330 C344 0.929 . S
H331 C345 0.931 . S
H332 C347 0.930 . S
C333 H321 0.930 . S
C333 C334 1.399 . S
C333 C338 1.399 . S
C334 C333 1.399 . S
C334 C335 1.376 . S
C335 H322 0.930 . S
C335 C334 1.376 . S
C335 C336 1.388 . S
C336 H323 0.930 . S
C336 C335 1.388 . S
C336 C337 1.390 . S
C337 C336 1.390 . S
C337 C338 1.394 . S
C337 C343 1.465 . S
C338 C333 1.399 . S
C338 C337 1.394 . S
C338 C339 1.516 . S
C339 C338 1.516 . S
C339 C340 1.502 . S
C339 C341 1.561 . S
C339 C342 1.526 . S
C340 H324 0.959 . S
C340 H325 0.959 . S
C340 H326 0.961 . S
C340 C339 1.502 . S
C341 H327 0.960 . S
C341 H328 0.961 . S
C341 H329 0.959 . S
C341 C339 1.561 . S
C342 C339 1.526 . S
C342 C343 1.396 . S
C342 C347 1.390 . S
C343 C337 1.465 . S
C343 C342 1.396 . S
C343 C344 1.399 . S
C344 H330 0.929 . S
C344 C343 1.399 . S
C344 C345 1.385 . S
C345 H331 0.931 . S
C345 C344 1.385 . S
C345 C346 1.389 . S
C346 C345 1.389 . S
C346 C347 1.387 . S
C347 H332 0.930 . S
C347 C342 1.390 . S
C347 C346 1.387 . S
H348 C360 0.930 . S
H349 C362 0.930 . S
H350 C363 0.930 . S
H351 C367 0.959 . S
H352 C367 0.959 . S
H353 C367 0.961 . S
H354 C368 0.960 . S
H355 C368 0.961 . S
H356 C368 0.959 . S
H357 C371 0.929 . S
H358 C372 0.931 . S
H359 C374 0.930 . S
C360 H348 0.930 . S
C360 C361 1.399 . S
C360 C365 1.399 . S
C361 C360 1.399 . S
C361 C362 1.376 . S
C362 H349 0.930 . S
C362 C361 1.376 . S
C362 C363 1.388 . S
C363 H350 0.930 . S
C363 C362 1.388 . S
C363 C364 1.390 . S
C364 C363 1.390 . S
C364 C365 1.394 . S
C364 C370 1.465 . S
C365 C360 1.399 . S
C365 C364 1.394 . S
C365 C366 1.516 . S
C366 C365 1.516 . S
C366 C367 1.502 . S
C366 C368 1.561 . S
C366 C369 1.526 . S
C367 H351 0.959 . S
C367 H352 0.959 . S
C367 H353 0.961 . S
C367 C366 1.502 . S
C368 H354 0.960 . S
C368 H355 0.961 . S
C368 H356 0.959 . S
C368 C366 1.561 . S
C369 C366 1.526 . S
C369 C370 1.396 . S
C369 C374 1.390 . S
C370 C364 1.465 . S
C370 C369 1.396 . S
C370 C371 1.399 . S
C371 H357 0.929 . S
C371 C370 1.399 . S
C371 C372 1.385 . S
C372 H358 0.931 . S
C372 C371 1.385 . S
C372 C373 1.389 . S
C373 C372 1.389 . S
C373 C374 1.387 . S
C374 H359 0.930 . S
C374 C369 1.390 . S
C374 C373 1.387 . S
H375 C387 0.930 . S
H376 C389 0.930 . S
H377 C390 0.930 . S
H378 C394 0.959 . S
H379 C394 0.959 . S
H380 C394 0.961 . S
H381 C395 0.960 . S
H382 C395 0.961 . S
H383 C395 0.959 . S
H384 C398 0.929 . S
H385 C399 0.931 . S
H386 C401 0.930 . S
C387 H375 0.930 . S
C387 C388 1.399 . S
C387 C392 1.399 . S
C388 C387 1.399 . S
C388 C389 1.376 . S
C389 H376 0.930 . S
C389 C388 1.376 . S
C389 C390 1.388 . S
C390 H377 0.930 . S
C390 C389 1.388 . S
C390 C391 1.390 . S
C391 C390 1.390 . S
C391 C392 1.394 . S
C391 C397 1.465 . S
C392 C387 1.399 . S
C392 C391 1.394 . S
C392 C393 1.516 . S
C393 C392 1.516 . S
C393 C394 1.502 . S
C393 C395 1.561 . S
C393 C396 1.526 . S
C394 H378 0.959 . S
C394 H379 0.959 . S
C394 H380 0.961 . S
C394 C393 1.502 . S
C395 H381 0.960 . S
C395 H382 0.961 . S
C395 H383 0.959 . S
C395 C393 1.561 . S
C396 C393 1.526 . S
C396 C397 1.396 . S
C396 C401 1.390 . S
C397 C391 1.465 . S
C397 C396 1.396 . S
C397 C398 1.399 . S
C398 H384 0.929 . S
C398 C397 1.399 . S
C398 C399 1.385 . S
C399 H385 0.931 . S
C399 C398 1.385 . S
C399 C400 1.389 . S
C400 C399 1.389 . S
C400 C401 1.387 . S
C401 H386 0.930 . S
C401 C396 1.390 . S
C401 C400 1.387 . S
H402 C414 0.930 . S
H403 C416 0.930 . S
H404 C417 0.930 . S
H405 C421 0.959 . S
H406 C421 0.959 . S
H407 C421 0.961 . S
H408 C422 0.960 . S
H409 C422 0.961 . S
H410 C422 0.959 . S
H411 C425 0.929 . S
H412 C426 0.931 . S
H413 C428 0.930 . S
C414 H402 0.930 . S
C414 C415 1.399 . S
C414 C419 1.399 . S
C415 C414 1.399 . S
C415 C416 1.376 . S
C416 H403 0.930 . S
C416 C415 1.376 . S
C416 C417 1.388 . S
C417 H404 0.930 . S
C417 C416 1.388 . S
C417 C418 1.390 . S
C418 C417 1.390 . S
C418 C419 1.394 . S
C418 C424 1.465 . S
C419 C414 1.399 . S
C419 C418 1.394 . S
C419 C420 1.516 . S
C420 C419 1.516 . S
C420 C421 1.502 . S
C420 C422 1.561 . S
C420 C423 1.526 . S
C421 H405 0.959 . S
C421 H406 0.959 . S
C421 H407 0.961 . S
C421 C420 1.502 . S
C422 H408 0.960 . S
C422 H409 0.961 . S
C422 H410 0.959 . S
C422 C420 1.561 . S
C423 C420 1.526 . S
C423 C424 1.396 . S
C423 C428 1.390 . S
C424 C418 1.465 . S
C424 C423 1.396 . S
C424 C425 1.399 . S
C425 H411 0.929 . S
C425 C424 1.399 . S
C425 C426 1.385 . S
C426 H412 0.931 . S
C426 C425 1.385 . S
C426 C427 1.389 . S
C427 C426 1.389 . S
C427 C428 1.387 . S
C428 H413 0.930 . S
C428 C423 1.390 . S
C428 C427 1.387 . S
H429 C441 0.930 . S
H430 C443 0.930 . S
H431 C444 0.930 . S
H432 C448 0.959 . S
H433 C448 0.959 . S
H434 C448 0.961 . S
H435 C449 0.960 . S
H436 C449 0.961 . S
H437 C449 0.959 . S
H438 C452 0.929 1_556 S
H439 C453 0.931 . S
H440 C455 0.930 . S
C441 H429 0.930 . S
C441 C442 1.399 . S
C441 C446 1.399 . S
C442 C441 1.399 . S
C442 C443 1.376 1_554 S
C443 H430 0.930 . S
C443 C442 1.376 1_556 S
C443 C444 1.388 . S
C444 H431 0.930 . S
C444 C443 1.388 . S
C444 C445 1.390 1_556 S
C445 C444 1.390 1_554 S
C445 C446 1.394 . S
C445 C451 1.465 . S
C446 C441 1.399 . S
C446 C445 1.394 . S
C446 C447 1.516 . S
C447 C446 1.516 . S
C447 C448 1.502 . S
C447 C449 1.561 . S
C447 C450 1.526 . S
C448 H432 0.959 . S
C448 H433 0.959 . S
C448 H434 0.961 . S
C448 C447 1.502 . S
C449 H435 0.960 . S
C449 H436 0.961 . S
C449 H437 0.959 . S
C449 C447 1.561 . S
C450 C447 1.526 . S
C450 C451 1.396 . S
C450 C455 1.390 . S
C451 C445 1.465 . S
C451 C450 1.396 . S
C451 C452 1.399 . S
C452 H438 0.929 1_554 S
C452 C451 1.399 . S
C452 C453 1.385 . S
C453 H439 0.931 . S
C453 C452 1.385 . S
C453 C454 1.389 . S
C454 C453 1.389 . S
C454 C455 1.387 . S
C455 H440 0.930 . S
C455 C450 1.390 . S
C455 C454 1.387 . S
H456 C468 0.930 . S
H457 C470 0.930 . S
H458 C471 0.930 . S
H459 C475 0.959 . S
H460 C475 0.959 . S
H461 C475 0.961 . S
H462 C476 0.960 . S
H463 C476 0.961 . S
H464 C476 0.959 . S
H465 C479 0.929 . S
H466 C480 0.931 . S
H467 C482 0.930 . S
C468 H456 0.930 . S
C468 C469 1.399 . S
C468 C473 1.399 . S
C469 C468 1.399 . S
C469 C470 1.376 . S
C470 H457 0.930 . S
C470 C469 1.376 . S
C470 C471 1.388 . S
C471 H458 0.930 . S
C471 C470 1.388 . S
C471 C472 1.390 . S
C472 C471 1.390 . S
C472 C473 1.394 . S
C472 C478 1.465 . S
C473 C468 1.399 . S
C473 C472 1.394 . S
C473 C474 1.516 . S
C474 C473 1.516 . S
C474 C475 1.502 . S
C474 C476 1.561 . S
C474 C477 1.526 . S
C475 H459 0.959 . S
C475 H460 0.959 . S
C475 H461 0.961 . S
C475 C474 1.502 . S
C476 H462 0.960 . S
C476 H463 0.961 . S
C476 H464 0.959 . S
C476 C474 1.561 . S
C477 C474 1.526 . S
C477 C478 1.396 . S
C477 C482 1.390 . S
C478 C472 1.465 . S
C478 C477 1.396 . S
C478 C479 1.399 . S
C479 H465 0.929 . S
C479 C478 1.399 . S
C479 C480 1.385 . S
C480 H466 0.931 . S
C480 C479 1.385 . S
C480 C481 1.389 . S
C481 C480 1.389 . S
C481 C482 1.387 . S
C482 H467 0.930 . S
C482 C477 1.390 . S
C482 C481 1.387 . S
H483 C495 0.930 . S
H484 C497 0.930 . S
H485 C498 0.930 . S
H486 C502 0.959 . S
H487 C502 0.959 . S
H488 C502 0.961 . S
H489 C503 0.960 . S
H490 C503 0.961 . S
H491 C503 0.959 . S
H492 C506 0.929 . S
H493 C507 0.931 . S
H494 C509 0.930 . S
C495 H483 0.930 . S
C495 C496 1.399 . S
C495 C500 1.399 . S
C496 C495 1.399 . S
C496 C497 1.376 . S
C497 H484 0.930 . S
C497 C496 1.376 . S
C497 C498 1.388 . S
C498 H485 0.930 . S
C498 C497 1.388 . S
C498 C499 1.390 . S
C499 C498 1.390 . S
C499 C500 1.394 . S
C499 C505 1.465 . S
C500 C495 1.399 . S
C500 C499 1.394 . S
C500 C501 1.516 . S
C501 C500 1.516 . S
C501 C502 1.502 . S
C501 C503 1.561 . S
C501 C504 1.526 . S
C502 H486 0.959 . S
C502 H487 0.959 . S
C502 H488 0.961 . S
C502 C501 1.502 . S
C503 H489 0.960 . S
C503 H490 0.961 . S
C503 H491 0.959 . S
C503 C501 1.561 . S
C504 C501 1.526 . S
C504 C505 1.396 . S
C504 C509 1.390 . S
C505 C499 1.465 . S
C505 C504 1.396 . S
C505 C506 1.399 . S
C506 H492 0.929 . S
C506 C505 1.399 . S
C506 C507 1.385 . S
C507 H493 0.931 . S
C507 C506 1.385 . S
C507 C508 1.389 . S
C508 C507 1.389 . S
C508 C509 1.387 . S
C509 H494 0.930 . S
C509 C504 1.390 . S
C509 C508 1.387 . S
H510 C522 0.930 . S
H511 C524 0.930 . S
H512 C525 0.930 . S
H513 C529 0.959 . S
H514 C529 0.959 . S
H515 C529 0.961 . S
H516 C530 0.960 . S
H517 C530 0.961 . S
H518 C530 0.959 . S
H519 C533 0.929 . S
H520 C534 0.931 . S
H521 C536 0.930 . S
C522 H510 0.930 . S
C522 C523 1.399 . S
C522 C527 1.399 . S
C523 C522 1.399 . S
C523 C524 1.376 . S
C524 H511 0.930 . S
C524 C523 1.376 . S
C524 C525 1.388 . S
C525 H512 0.930 . S
C525 C524 1.388 . S
C525 C526 1.390 . S
C526 C525 1.390 . S
C526 C527 1.394 . S
C526 C532 1.465 . S
C527 C522 1.399 . S
C527 C526 1.394 . S
C527 C528 1.516 . S
C528 C527 1.516 . S
C528 C529 1.502 . S
C528 C530 1.561 . S
C528 C531 1.526 . S
C529 H513 0.959 . S
C529 H514 0.959 . S
C529 H515 0.961 . S
C529 C528 1.502 . S
C530 H516 0.960 . S
C530 H517 0.961 . S
C530 H518 0.959 . S
C530 C528 1.561 . S
C531 C528 1.526 . S
C531 C532 1.396 . S
C531 C536 1.390 . S
C532 C526 1.465 . S
C532 C531 1.396 . S
C532 C533 1.399 . S
C533 H519 0.929 . S
C533 C532 1.399 . S
C533 C534 1.385 . S
C534 H520 0.931 . S
C534 C533 1.385 . S
C534 C535 1.389 . S
C535 C534 1.389 . S
C535 C536 1.387 . S
C536 H521 0.930 . S
C536 C531 1.390 . S
C536 C535 1.387 . S
H537 C549 0.930 . S
H538 C551 0.930 . S
H539 C552 0.930 . S
H540 C556 0.959 . S
H541 C556 0.959 . S
H542 C556 0.961 . S
H543 C557 0.960 . S
H544 C557 0.961 . S
H545 C557 0.959 . S
H546 C560 0.929 . S
H547 C561 0.931 . S
H548 C563 0.930 . S
C549 H537 0.930 . S
C549 C550 1.399 . S
C549 C554 1.399 . S
C550 C549 1.399 . S
C550 C551 1.376 . S
C551 H538 0.930 . S
C551 C550 1.376 . S
C551 C552 1.388 . S
C552 H539 0.930 . S
C552 C551 1.388 . S
C552 C553 1.390 . S
C553 C552 1.390 . S
C553 C554 1.394 . S
C553 C559 1.465 . S
C554 C549 1.399 . S
C554 C553 1.394 . S
C554 C555 1.516 . S
C555 C554 1.516 . S
C555 C556 1.502 . S
C555 C557 1.561 . S
C555 C558 1.526 . S
C556 H540 0.959 . S
C556 H541 0.959 . S
C556 H542 0.961 . S
C556 C555 1.502 . S
C557 H543 0.960 . S
C557 H544 0.961 . S
C557 H545 0.959 . S
C557 C555 1.561 . S
C558 C555 1.526 . S
C558 C559 1.396 . S
C558 C563 1.390 . S
C559 C553 1.465 . S
C559 C558 1.396 . S
C559 C560 1.399 . S
C560 H546 0.929 . S
C560 C559 1.399 . S
C560 C561 1.385 . S
C561 H547 0.931 . S
C561 C560 1.385 . S
C561 C562 1.389 . S
C562 C561 1.389 . S
C562 C563 1.387 . S
C563 H548 0.930 . S
C563 C558 1.390 . S
C563 C562 1.387 . S
H564 C576 0.930 . S
H565 C578 0.930 . S
H566 C579 0.930 . S
H567 C583 0.959 . S
H568 C583 0.959 . S
H569 C583 0.961 . S
H570 C584 0.960 . S
H571 C584 0.961 . S
H572 C584 0.959 . S
H573 C587 0.929 . S
H574 C588 0.931 . S
H575 C590 0.930 . S
C576 H564 0.930 . S
C576 C577 1.399 . S
C576 C581 1.399 . S
C577 C576 1.399 . S
C577 C578 1.376 . S
C578 H565 0.930 . S
C578 C577 1.376 . S
C578 C579 1.388 . S
C579 H566 0.930 . S
C579 C578 1.388 . S
C579 C580 1.390 . S
C580 C579 1.390 . S
C580 C581 1.394 . S
C580 C586 1.465 . S
C581 C576 1.399 . S
C581 C580 1.394 . S
C581 C582 1.516 . S
C582 C581 1.516 . S
C582 C583 1.502 . S
C582 C584 1.561 . S
C582 C585 1.526 . S
C583 H567 0.959 . S
C583 H568 0.959 . S
C583 H569 0.961 . S
C583 C582 1.502 . S
C584 H570 0.960 . S
C584 H571 0.961 . S
C584 H572 0.959 . S
C584 C582 1.561 . S
C585 C582 1.526 . S
C585 C586 1.396 . S
C585 C590 1.390 . S
C586 C580 1.465 . S
C586 C585 1.396 . S
C586 C587 1.399 . S
C587 H573 0.929 . S
C587 C586 1.399 . S
C587 C588 1.385 . S
C588 H574 0.931 . S
C588 C587 1.385 . S
C588 C589 1.389 . S
C589 C588 1.389 . S
C589 C590 1.387 . S
C590 H575 0.930 . S
C590 C585 1.390 . S
C590 C589 1.387 . S
H591 C603 0.930 . S
H592 C605 0.930 . S
H593 C606 0.930 . S
H594 C610 0.959 . S
H595 C610 0.959 . S
H596 C610 0.961 . S
H597 C611 0.960 . S
H598 C611 0.961 . S
H599 C611 0.959 . S
H600 C614 0.929 . S
H601 C615 0.931 . S
H602 C617 0.930 . S
C603 H591 0.930 . S
C603 C604 1.399 . S
C603 C608 1.399 . S
C604 C603 1.399 . S
C604 C605 1.376 . S
C605 H592 0.930 . S
C605 C604 1.376 . S
C605 C606 1.388 . S
C606 H593 0.930 . S
C606 C605 1.388 . S
C606 C607 1.390 . S
C607 C606 1.390 . S
C607 C608 1.394 . S
C607 C613 1.465 . S
C608 C603 1.399 . S
C608 C607 1.394 . S
C608 C609 1.516 . S
C609 C608 1.516 . S
C609 C610 1.502 . S
C609 C611 1.561 . S
C609 C612 1.526 . S
C610 H594 0.959 . S
C610 H595 0.959 . S
C610 H596 0.961 . S
C610 C609 1.502 . S
C611 H597 0.960 . S
C611 H598 0.961 . S
C611 H599 0.959 . S
C611 C609 1.561 . S
C612 C609 1.526 . S
C612 C613 1.396 . S
C612 C617 1.390 . S
C613 C607 1.465 . S
C613 C612 1.396 . S
C613 C614 1.399 . S
C614 H600 0.929 . S
C614 C613 1.399 . S
C614 C615 1.385 1_556 S
C615 H601 0.931 . S
C615 C614 1.385 1_554 S
C615 C616 1.389 1_554 S
C616 C615 1.389 1_556 S
C616 C617 1.387 . S
C617 H602 0.930 . S
C617 C612 1.390 . S
C617 C616 1.387 . S
H618 C630 0.930 . S
H619 C632 0.930 . S
H620 C633 0.930 . S
H621 C637 0.959 . S
H622 C637 0.959 . S
H623 C637 0.961 . S
H624 C638 0.960 . S
H625 C638 0.961 . S
H626 C638 0.959 . S
H627 C641 0.929 . S
H628 C642 0.931 . S
H629 C644 0.930 . S
C630 H618 0.930 . S
C630 C631 1.399 . S
C630 C635 1.399 . S
C631 C630 1.399 . S
C631 C632 1.376 . S
C632 H619 0.930 . S
C632 C631 1.376 . S
C632 C633 1.388 . S
C633 H620 0.930 . S
C633 C632 1.388 . S
C633 C634 1.390 . S
C634 C633 1.390 . S
C634 C635 1.394 . S
C634 C640 1.465 . S
C635 C630 1.399 . S
C635 C634 1.394 . S
C635 C636 1.516 . S
C636 C635 1.516 . S
C636 C637 1.502 . S
C636 C638 1.561 . S
C636 C639 1.526 . S
C637 H621 0.959 . S
C637 H622 0.959 . S
C637 H623 0.961 . S
C637 C636 1.502 . S
C638 H624 0.960 . S
C638 H625 0.961 . S
C638 H626 0.959 . S
C638 C636 1.561 . S
C639 C636 1.526 . S
C639 C640 1.396 . S
C639 C644 1.390 . S
C640 C634 1.465 . S
C640 C639 1.396 . S
C640 C641 1.399 . S
C641 H627 0.929 . S
C641 C640 1.399 . S
C641 C642 1.385 . S
C642 H628 0.931 . S
C642 C641 1.385 . S
C642 C643 1.389 . S
C643 C642 1.389 . S
C643 C644 1.387 . S
C644 H629 0.930 . S
C644 C639 1.390 . S
C644 C643 1.387 . S
H645 C657 0.930 . S
H646 C659 0.930 . S
H647 C660 0.930 . S
H648 C664 0.959 . S
H649 C664 0.959 . S
H650 C664 0.961 . S
H651 C665 0.960 . S
H652 C665 0.961 . S
H653 C665 0.959 . S
H654 C668 0.929 . S
H655 C669 0.931 . S
H656 C671 0.930 . S
C657 H645 0.930 . S
C657 C658 1.399 . S
C657 C662 1.399 . S
C658 C657 1.399 . S
C658 C659 1.376 . S
C659 H646 0.930 . S
C659 C658 1.376 . S
C659 C660 1.388 . S
C660 H647 0.930 . S
C660 C659 1.388 . S
C660 C661 1.390 . S
C661 C660 1.390 . S
C661 C662 1.394 . S
C661 C667 1.465 . S
C662 C657 1.399 . S
C662 C661 1.394 . S
C662 C663 1.516 . S
C663 C662 1.516 . S
C663 C664 1.502 . S
C663 C665 1.561 . S
C663 C666 1.526 . S
C664 H648 0.959 . S
C664 H649 0.959 . S
C664 H650 0.961 . S
C664 C663 1.502 . S
C665 H651 0.960 . S
C665 H652 0.961 . S
C665 H653 0.959 . S
C665 C663 1.561 . S
C666 C663 1.526 . S
C666 C667 1.396 . S
C666 C671 1.390 . S
C667 C661 1.465 . S
C667 C666 1.396 . S
C667 C668 1.399 . S
C668 H654 0.929 . S
C668 C667 1.399 . S
C668 C669 1.385 . S
C669 H655 0.931 . S
C669 C668 1.385 . S
C669 C670 1.389 . S
C670 C669 1.389 . S
C670 C671 1.387 . S
C671 H656 0.930 . S
C671 C666 1.390 . S
C671 C670 1.387 . S
H672 C684 0.930 . S
H673 C686 0.930 . S
H674 C687 0.930 . S
H675 C691 0.959 . S
H676 C691 0.959 . S
H677 C691 0.961 . S
H678 C692 0.960 . S
H679 C692 0.961 . S
H680 C692 0.959 . S
H681 C695 0.929 . S
H682 C696 0.931 . S
H683 C698 0.930 . S
C684 H672 0.930 . S
C684 C685 1.399 . S
C684 C689 1.399 . S
C685 C684 1.399 . S
C685 C686 1.376 . S
C686 H673 0.930 . S
C686 C685 1.376 . S
C686 C687 1.388 . S
C687 H674 0.930 . S
C687 C686 1.388 . S
C687 C688 1.390 . S
C688 C687 1.390 . S
C688 C689 1.394 . S
C688 C694 1.465 . S
C689 C684 1.399 . S
C689 C688 1.394 . S
C689 C690 1.516 . S
C690 C689 1.516 . S
C690 C691 1.502 . S
C690 C692 1.561 . S
C690 C693 1.526 . S
C691 H675 0.959 . S
C691 H676 0.959 . S
C691 H677 0.961 . S
C691 C690 1.502 . S
C692 H678 0.960 . S
C692 H679 0.961 . S
C692 H680 0.959 . S
C692 C690 1.561 . S
C693 C690 1.526 . S
C693 C694 1.396 . S
C693 C698 1.390 . S
C694 C688 1.465 . S
C694 C693 1.396 . S
C694 C695 1.399 . S
C695 H681 0.929 . S
C695 C694 1.399 . S
C695 C696 1.385 . S
C696 H682 0.931 . S
C696 C695 1.385 . S
C696 C697 1.389 . S
C697 C696 1.389 . S
C697 C698 1.387 . S
C698 H683 0.930 . S
C698 C693 1.390 . S
C698 C697 1.387 . S
H699 C711 0.930 . S
H700 C713 0.930 . S
H701 C714 0.930 . S
H702 C718 0.959 . S
H703 C718 0.959 . S
H704 C718 0.961 . S
H705 C719 0.960 . S
H706 C719 0.961 . S
H707 C719 0.959 . S
H708 C722 0.929 . S
H709 C723 0.931 . S
H710 C725 0.930 . S
C711 H699 0.930 . S
C711 C712 1.399 . S
C711 C716 1.399 . S
C712 C711 1.399 . S
C712 C713 1.376 . S
C713 H700 0.930 . S
C713 C712 1.376 . S
C713 C714 1.388 . S
C714 H701 0.930 . S
C714 C713 1.388 . S
C714 C715 1.390 . S
C715 C714 1.390 . S
C715 C716 1.394 . S
C715 C721 1.465 . S
C716 C711 1.399 . S
C716 C715 1.394 . S
C716 C717 1.516 . S
C717 C716 1.516 . S
C717 C718 1.502 . S
C717 C719 1.561 . S
C717 C720 1.526 . S
C718 H702 0.959 . S
C718 H703 0.959 . S
C718 H704 0.961 . S
C718 C717 1.502 . S
C719 H705 0.960 . S
C719 H706 0.961 . S
C719 H707 0.959 . S
C719 C717 1.561 . S
C720 C717 1.526 . S
C720 C721 1.396 . S
C720 C725 1.390 . S
C721 C715 1.465 . S
C721 C720 1.396 . S
C721 C722 1.399 . S
C722 H708 0.929 . S
C722 C721 1.399 . S
C722 C723 1.385 . S
C723 H709 0.931 . S
C723 C722 1.385 . S
C723 C724 1.389 . S
C724 C723 1.389 . S
C724 C725 1.387 . S
C725 H710 0.930 . S
C725 C720 1.390 . S
C725 C724 1.387 . S
H726 C738 0.930 . S
H727 C740 0.930 . S
H728 C741 0.930 . S
H729 C745 0.959 . S
H730 C745 0.959 . S
H731 C745 0.961 . S
H732 C746 0.960 . S
H733 C746 0.961 . S
H734 C746 0.959 . S
H735 C749 0.929 . S
H736 C750 0.931 . S
H737 C752 0.930 . S
C738 H726 0.930 . S
C738 C739 1.399 . S
C738 C743 1.399 . S
C739 C738 1.399 . S
C739 C740 1.376 . S
C740 H727 0.930 . S
C740 C739 1.376 . S
C740 C741 1.388 . S
C741 H728 0.930 . S
C741 C740 1.388 . S
C741 C742 1.390 . S
C742 C741 1.390 . S
C742 C743 1.394 . S
C742 C748 1.465 . S
C743 C738 1.399 . S
C743 C742 1.394 . S
C743 C744 1.516 . S
C744 C743 1.516 . S
C744 C745 1.502 . S
C744 C746 1.561 . S
C744 C747 1.526 . S
C745 H729 0.959 . S
C745 H730 0.959 . S
C745 H731 0.961 . S
C745 C744 1.502 . S
C746 H732 0.960 . S
C746 H733 0.961 . S
C746 H734 0.959 . S
C746 C744 1.561 . S
C747 C744 1.526 . S
C747 C748 1.396 . S
C747 C752 1.390 . S
C748 C742 1.465 . S
C748 C747 1.396 . S
C748 C749 1.399 . S
C749 H735 0.929 . S
C749 C748 1.399 . S
C749 C750 1.385 . S
C750 H736 0.931 . S
C750 C749 1.385 . S
C750 C751 1.389 . S
C751 C750 1.389 . S
C751 C752 1.387 . S
C752 H737 0.930 . S
C752 C747 1.390 . S
C752 C751 1.387 . S
H753 C765 0.930 . S
H754 C767 0.930 . S
H755 C768 0.930 . S
H756 C772 0.959 . S
H757 C772 0.959 . S
H758 C772 0.961 . S
H759 C773 0.960 . S
H760 C773 0.961 . S
H761 C773 0.959 . S
H762 C776 0.929 . S
H763 C777 0.931 . S
H764 C779 0.930 . S
C765 H753 0.930 . S
C765 C766 1.399 . S
C765 C770 1.399 . S
C766 C765 1.399 . S
C766 C767 1.376 . S
C767 H754 0.930 . S
C767 C766 1.376 . S
C767 C768 1.388 . S
C768 H755 0.930 . S
C768 C767 1.388 . S
C768 C769 1.390 . S
C769 C768 1.390 . S
C769 C770 1.394 . S
C769 C775 1.465 . S
C770 C765 1.399 . S
C770 C769 1.394 . S
C770 C771 1.516 . S
C771 C770 1.516 . S
C771 C772 1.502 . S
C771 C773 1.561 . S
C771 C774 1.526 . S
C772 H756 0.959 . S
C772 H757 0.959 . S
C772 H758 0.961 . S
C772 C771 1.502 . S
C773 H759 0.960 . S
C773 H760 0.961 . S
C773 H761 0.959 . S
C773 C771 1.561 . S
C774 C771 1.526 . S
C774 C775 1.396 . S
C774 C779 1.390 . S
C775 C769 1.465 . S
C775 C774 1.396 . S
C775 C776 1.399 . S
C776 H762 0.929 . S
C776 C775 1.399 . S
C776 C777 1.385 . S
C777 H763 0.931 . S
C777 C776 1.385 . S
C777 C778 1.389 . S
C778 C777 1.389 . S
C778 C779 1.387 . S
C779 H764 0.930 . S
C779 C774 1.390 . S
C779 C778 1.387 . S
H780 C792 0.930 . S
H781 C794 0.930 . S
H782 C795 0.930 . S
H783 C799 0.959 . S
H784 C799 0.959 . S
H785 C799 0.961 . S
H786 C800 0.960 . S
H787 C800 0.961 . S
H788 C800 0.959 1_556 S
H789 C803 0.929 . S
H790 C804 0.931 . S
H791 C806 0.930 . S
C792 H780 0.930 . S
C792 C793 1.399 . S
C792 C797 1.399 . S
C793 C792 1.399 . S
C793 C794 1.376 . S
C794 H781 0.930 . S
C794 C793 1.376 . S
C794 C795 1.388 . S
C795 H782 0.930 . S
C795 C794 1.388 . S
C795 C796 1.390 . S
C796 C795 1.390 . S
C796 C797 1.394 . S
C796 C802 1.465 . S
C797 C792 1.399 . S
C797 C796 1.394 . S
C797 C798 1.516 . S
C798 C797 1.516 . S
C798 C799 1.502 . S
C798 C800 1.561 . S
C798 C801 1.526 . S
C799 H783 0.959 . S
C799 H784 0.959 . S
C799 H785 0.961 . S
C799 C798 1.502 . S
C800 H786 0.960 . S
C800 H787 0.961 . S
C800 H788 0.959 1_554 S
C800 C798 1.561 . S
C801 C798 1.526 . S
C801 C802 1.396 . S
C801 C806 1.390 1_554 S
C802 C796 1.465 . S
C802 C801 1.396 . S
C802 C803 1.399 1_554 S
C803 H789 0.929 . S
C803 C802 1.399 1_556 S
C803 C804 1.385 . S
C804 H790 0.931 . S
C804 C803 1.385 . S
C804 C805 1.389 . S
C805 C804 1.389 . S
C805 C806 1.387 . S
C806 H791 0.930 . S
C806 C801 1.390 1_556 S
C806 C805 1.387 . S
H807 C819 0.930 . S
H808 C821 0.930 . S
H809 C822 0.930 . S
H810 C826 0.959 . S
H811 C826 0.959 . S
H812 C826 0.961 . S
H813 C827 0.960 . S
H814 C827 0.961 . S
H815 C827 0.959 . S
H816 C830 0.929 . S
H817 C831 0.931 . S
H818 C833 0.930 . S
C819 H807 0.930 . S
C819 C820 1.399 . S
C819 C824 1.399 . S
C820 C819 1.399 . S
C820 C821 1.376 . S
C821 H808 0.930 . S
C821 C820 1.376 . S
C821 C822 1.388 . S
C822 H809 0.930 . S
C822 C821 1.388 . S
C822 C823 1.390 . S
C823 C822 1.390 . S
C823 C824 1.394 . S
C823 C829 1.465 . S
C824 C819 1.399 . S
C824 C823 1.394 . S
C824 C825 1.516 . S
C825 C824 1.516 . S
C825 C826 1.502 . S
C825 C827 1.561 . S
C825 C828 1.526 . S
C826 H810 0.959 . S
C826 H811 0.959 . S
C826 H812 0.961 . S
C826 C825 1.502 . S
C827 H813 0.960 . S
C827 H814 0.961 . S
C827 H815 0.959 . S
C827 C825 1.561 . S
C828 C825 1.526 . S
C828 C829 1.396 . S
C828 C833 1.390 . S
C829 C823 1.465 . S
C829 C828 1.396 . S
C829 C830 1.399 . S
C830 H816 0.929 . S
C830 C829 1.399 . S
C830 C831 1.385 . S
C831 H817 0.931 . S
C831 C830 1.385 . S
C831 C832 1.389 . S
C832 C831 1.389 . S
C832 C833 1.387 . S
C833 H818 0.930 . S
C833 C828 1.390 . S
C833 C832 1.387 . S
C211 C183 1.550 . S
C199 C8 1.492 . S
C226 C26 1.513 . S
C238 C108 1.462 . S
C253 C50 1.499 . S
C265 C131 1.567 . S
C280 C68 1.449 . S
C292 C144 1.464 . S
C319 C147 1.516 . S
C307 C80 1.479 . S
C334 C104 1.449 . S
C346 C160 1.462 . S
C361 C32 1.465 . S
C373 C121 1.427 . S
C388 C44 1.483 . S
C400 C134 1.520 . S
C415 C62 1.390 . S
C427 C157 1.470 . S
C454 C170 1.564 . S
C442 C86 1.469 1_554 S
C481 C173 1.453 . S
C469 C98 1.509 . S
C508 C118 1.555 . S
C496 C14 1.469 . S
C523 C7 1.489 . S
C535 C129 1.422 . S
C550 C25 1.471 . S
C562 C142 1.410 . S
C589 C152 1.434 . S
C577 C52 1.429 . S
C604 C70 1.442 . S
C616 C165 1.410 1_556 S
C643 C181 1.493 . S
C631 C79 1.460 . S
C670 C113 1.404 . S
C658 C106 1.409 . S
C697 C178 1.467 . S
C685 C34 1.417 . S
C712 C43 1.485 . S
C724 C116 1.438 . S
C751 C126 1.447 . S
C739 C61 1.471 . S
C766 C88 1.491 . S
C778 C139 1.491 . S
C793 C97 1.465 . S
C805 C155 1.424 . S
C820 C16 1.452 . S
C832 C168 1.438 . S
