# Generated by pormake.
# Topology ssa, (4,4)-cn, num edge types: 1
# Building blocks:
#     Node 0, Type 0, BuildingBlock: GIZVER_clean_linker_0, # of connection points: 4
#     Node 1, Type 0, BuildingBlock: GIZVER_clean_linker_0, # of connection points: 4
#     Node 2, Type 0, BuildingBlock: GIZVER_clean_linker_0, # of connection points: 4
#     Node 3, Type 0, BuildingBlock: GIZVER_clean_linker_0, # of connection points: 4
#     Node 4, Type 0, BuildingBlock: GIZVER_clean_linker_0, # of connection points: 4
#     Node 5, Type 0, BuildingBlock: GIZVER_clean_linker_0, # of connection points: 4
#     Node 6, Type 1, BuildingBlock: MUDLON_clean_sbu_0, # of connection points: 4
#     Node 7, Type 1, BuildingBlock: MUDLON_clean_sbu_0, # of connection points: 4
#     Node 8, Type 1, BuildingBlock: MUDLON_clean_sbu_0, # of connection points: 4
#     Node 9, Type 1, BuildingBlock: MUDLON_clean_sbu_0, # of connection points: 4
#     Node 10, Type 1, BuildingBlock: MUDLON_clean_sbu_0, # of connection points: 4
#     Node 11, Type 1, BuildingBlock: MUDLON_clean_sbu_0, # of connection points: 4
#     Edge 12, Type (0, 1), BuildingBlock: KIFKEQ_clean_linker_1, # of connection points: 2
#     Edge 13, Type (0, 1), BuildingBlock: KIFKEQ_clean_linker_1, # of connection points: 2
#     Edge 14, Type (0, 1), BuildingBlock: KIFKEQ_clean_linker_1, # of connection points: 2
#     Edge 15, Type (0, 1), BuildingBlock: KIFKEQ_clean_linker_1, # of connection points: 2
#     Edge 16, Type (0, 1), BuildingBlock: KIFKEQ_clean_linker_1, # of connection points: 2
#     Edge 17, Type (0, 1), BuildingBlock: KIFKEQ_clean_linker_1, # of connection points: 2
#     Edge 18, Type (0, 1), BuildingBlock: KIFKEQ_clean_linker_1, # of connection points: 2
#     Edge 19, Type (0, 1), BuildingBlock: KIFKEQ_clean_linker_1, # of connection points: 2
#     Edge 20, Type (0, 1), BuildingBlock: KIFKEQ_clean_linker_1, # of connection points: 2
#     Edge 21, Type (0, 1), BuildingBlock: KIFKEQ_clean_linker_1, # of connection points: 2
#     Edge 22, Type (0, 1), BuildingBlock: KIFKEQ_clean_linker_1, # of connection points: 2
#     Edge 23, Type (0, 1), BuildingBlock: KIFKEQ_clean_linker_1, # of connection points: 2
#     Edge 24, Type (0, 1), BuildingBlock: KIFKEQ_clean_linker_1, # of connection points: 2
#     Edge 25, Type (0, 1), BuildingBlock: KIFKEQ_clean_linker_1, # of connection points: 2
#     Edge 26, Type (0, 1), BuildingBlock: KIFKEQ_clean_linker_1, # of connection points: 2
#     Edge 27, Type (0, 1), BuildingBlock: KIFKEQ_clean_linker_1, # of connection points: 2
#     Edge 28, Type (0, 1), BuildingBlock: KIFKEQ_clean_linker_1, # of connection points: 2
#     Edge 29, Type (0, 1), BuildingBlock: KIFKEQ_clean_linker_1, # of connection points: 2
#     Edge 30, Type (0, 1), BuildingBlock: KIFKEQ_clean_linker_1, # of connection points: 2
#     Edge 31, Type (0, 1), BuildingBlock: KIFKEQ_clean_linker_1, # of connection points: 2
#     Edge 32, Type (0, 1), BuildingBlock: KIFKEQ_clean_linker_1, # of connection points: 2
#     Edge 33, Type (0, 1), BuildingBlock: KIFKEQ_clean_linker_1, # of connection points: 2
#     Edge 34, Type (0, 1), BuildingBlock: KIFKEQ_clean_linker_1, # of connection points: 2
#     Edge 35, Type (0, 1), BuildingBlock: KIFKEQ_clean_linker_1, # of connection points: 2
# Relax obj value: 0.001
# Max RMSD: 0.030
# Mean RMSD: 0.018
data_MOF--net-ssa--node1-MUDLON_clean_sbu_0--node2-GIZVER_clean_linker_0--edge1-KIFKEQ_clean_linker_1
_symmetry_space_group_name_H-M    P1
_symmetry_Int_Tables_number       1
_symmetry_cell_setting            triclinic
loop_
_symmetry_equiv_pos_as_xyz
'x, y, z'
_cell_length_a     45.340281
_cell_length_b     46.215219
_cell_length_c     40.976744
_cell_angle_alpha  89.698608
_cell_angle_beta   89.42225
_cell_angle_gamma 119.7152
loop_
_atom_site_label
_atom_site_type_symbol
_atom_site_fract_x
_atom_site_fract_y
_atom_site_fract_z
_atom_type_partial_charge
H0 H 0.07606 0.57369 0.04807 0.0
H1 H 0.05961 0.47367 0.05954 0.0
H2 H 0.09438 0.54106 0.14 0.0
H3 H 0.06554 0.53991 1.00074 0.0
H4 H 0.07366 0.50612 1.00395 0.0
H5 H 0.00657 0.52997 1.00405 0.0
H6 H 0.92906 0.432 0.97689 0.0
H7 H 0.02731 0.4484 1.00427 0.0
C8 C 0.07483 0.55392 0.06337 0.0
C9 C 0.08596 0.56079 0.09579 0.0
C10 C 0.06439 0.52205 0.05014 0.0
C11 C 0.06546 0.49745 0.06985 0.0
C12 C 0.07569 0.50421 0.10242 0.0
C13 C 0.08517 0.53552 0.11518 0.0
C14 C 0.05757 0.51602 1.01398 0.0
C15 C 0.0207 0.4917 1.00655 0.0
C16 C -0.00205 0.50366 1.00125 0.0
C17 C 0.96472 0.48214 0.99069 0.0
C18 C 0.95413 0.44833 0.98645 0.0
C19 C 0.97634 0.43583 0.99124 0.0
C20 C 0.0097 0.45765 1.00138 0.0
H21 H 0.57041 0.99012 0.60544 0.0
H22 H 0.4881 0.01151 0.6025 0.0
H23 H 0.58716 0.08669 0.63255 0.0
H24 H 0.51098 0.94494 0.60634 0.0
H25 H 0.4771 0.95385 0.60697 0.0
H26 H 0.53733 0.94196 0.5542 0.0
H27 H 0.47361 0.91886 0.47055 0.0
H28 H 0.45072 0.95739 0.55628 0.0
C29 C 0.56122 0.00767 0.60762 0.0
C30 C 0.58331 0.04026 0.61831 0.0
C31 C 0.52684 -0.00274 0.60121 0.0
C32 C 0.51477 0.01978 0.606 0.0
C33 C 0.5365 0.05225 0.61712 0.0
C34 C 0.57072 0.06228 0.62245 0.0
C35 C 0.50186 0.96089 0.59484 0.0
C36 C 0.49598 0.95263 0.55889 0.0
C37 C 0.51637 0.94224 0.542 0.0
C38 C 0.50789 0.92961 0.51032 0.0
C39 C 0.48032 0.92909 0.4949 0.0
C40 C 0.45969 0.93905 0.51107 0.0
C41 C 0.46744 0.95086 0.54319 0.0
H42 H 0.52319 0.52022 0.10355 0.0
H43 H 0.44039 0.41885 0.1056 0.0
H44 H 0.42685 0.49687 0.1463 0.0
H45 H 0.53149 0.469 0.1035 0.0
H46 H 0.49681 0.42978 0.09273 0.0
H47 H 0.56193 0.51393 0.062 0.0
H48 H 0.55168 0.48112 0.96294 0.0
H49 H 0.48073 0.41662 1.03636 0.0
C50 C 0.49676 0.50237 0.10871 0.0
C51 C 0.47623 0.51282 0.12497 0.0
C52 C 0.48397 0.46861 0.1009 0.0
C53 C 0.45009 0.44514 0.10989 0.0
C54 C 0.42919 0.45546 0.1257 0.0
C55 C 0.44238 0.48929 0.1325 0.0
C56 C 0.5081 0.45708 0.08859 0.0
C57 C 0.5184 0.46533 0.05286 0.0
C58 C 0.54764 0.49559 0.04367 0.0
C59 C 0.55944 0.50139 1.01107 0.0
C60 C 0.54201 0.47682 0.98786 0.0
C61 C 0.51433 0.44579 0.99673 0.0
C62 C 0.5018 0.44066 1.02907 0.0
H63 H -0.00068 0.56421 0.59504 0.0
H64 H 0.97967 0.46332 0.58923 0.0
H65 H 0.91127 0.48537 0.64283 0.0
H66 H 0.04566 0.55223 0.58565 0.0
H67 H 0.03781 0.51065 0.58625 0.0
H68 H 0.03092 0.57406 0.53527 0.0
H69 H 0.06272 0.54348 0.44898 0.0
H70 H 0.03388 0.48268 0.5359 0.0
C71 C 0.98276 0.53785 0.59986 0.0
C72 C 0.95273 0.52715 0.61841 0.0
C73 C 0.99255 0.51481 0.58917 0.0
C74 C 0.97163 0.4808 0.59678 0.0
C75 C 0.9422 0.46976 0.61635 0.0
C76 C 0.93276 0.49313 0.62633 0.0
C77 C 0.02826 0.52687 0.57625 0.0
C78 C 0.03148 0.52804 0.53935 0.0
C79 C 0.03511 0.55605 0.52224 0.0
C80 C 0.04643 0.56209 0.48947 0.0
C81 C 0.05214 0.53832 0.47351 0.0
C82 C 0.04713 0.50918 0.48962 0.0
C83 C 0.03668 0.50428 0.52268 0.0
H84 H 0.5099 0.95353 0.05019 0.0
H85 H 0.42078 0.96346 0.05717 0.0
H86 H 0.45253 0.92885 0.14012 0.0
H87 H 0.48289 0.95576 1.00135 0.0
H88 H 0.43991 0.94611 1.0043 0.0
H89 H 0.52899 0.01372 0.99754 0.0
H90 H 0.50076 0.08333 0.95915 0.0
H91 H 0.42408 0.9892 0.99808 0.0
C92 C 0.48925 0.95233 0.06476 0.0
C93 C 0.48516 0.94175 0.09769 0.0
C94 C 0.46585 0.95986 0.04996 0.0
C95 C 0.43884 0.95795 0.06875 0.0
C96 C 0.43391 0.94713 0.10155 0.0
C97 C 0.45731 0.93922 0.11562 0.0
C98 C 0.46584 0.96365 1.01317 0.0
C99 C 0.4758 -0.00145 1.00151 0.0
C100 C 0.51005 0.0211 0.99348 0.0
C101 C 0.51928 0.05145 0.97732 0.0
C102 C 0.49408 0.05994 0.97134 0.0
C103 C 0.45986 0.03769 0.97849 0.0
C104 C 0.45069 0.00702 0.99375 0.0
H105 H 0.59541 0.52905 0.56427 0.0
H106 H 0.49621 0.44878 0.53933 0.0
H107 H 0.52886 0.46257 0.63883 0.0
H108 H 0.58277 0.51147 0.50846 0.0
H109 H 0.54316 0.47677 0.49775 0.0
H110 H 0.59434 0.56447 0.48819 0.0
H111 H 0.51432 0.57455 0.44433 0.0
H112 H 0.49015 0.4854 0.49815 0.0
C113 C 0.57066 0.50878 0.5716 0.0
C114 C 0.56458 0.49829 0.60443 0.0
C115 C 0.54567 0.49187 0.54788 0.0
C116 C 0.51465 0.46356 0.55753 0.0
C117 C 0.50825 0.45335 0.59053 0.0
C118 C 0.53301 0.47144 0.6137 0.0
C119 C 0.55483 0.50022 0.51196 0.0
C120 C 0.54331 0.52316 0.49718 0.0
C121 C 0.56746 0.55503 0.48463 0.0
C122 C 0.557 0.57344 0.46517 0.0
C123 C 0.52239 0.56042 0.4594 0.0
C124 C 0.49819 0.52876 0.47088 0.0
C125 C 0.50862 0.51047 0.49039 0.0
Mg126 Mg 0.21727 0.41895 0.32037 0.0
C127 C 0.18872 0.45713 0.28276 0.0
O128 O 0.18377 0.46577 0.31192 0.0
C129 C 0.26715 0.43796 0.37134 0.0
O130 O 0.24303 0.40771 0.37925 0.0
C131 C 0.14723 0.39836 0.35197 0.0
O132 O 0.13665 0.39221 0.32174 0.0
O133 O 0.17743 0.40492 0.35805 0.0
O134 O 0.2044 0.44088 0.27996 0.0
O135 O 0.23254 0.38587 0.29649 0.0
C136 C 0.22642 0.3797 0.26624 0.0
O137 O 0.2031 0.38477 0.25297 0.0
O138 O 0.26331 0.45189 0.3461 0.0
Mg139 Mg 0.79838 0.21129 0.80904 0.0
C140 C 0.78688 0.16913 0.74845 0.0
O141 O 0.80766 0.19845 0.73543 0.0
C142 C 0.84084 0.22893 0.87164 0.0
O143 O 0.81097 0.21039 0.88557 0.0
C144 C 0.74258 0.16948 0.85475 0.0
O145 O 0.7581 0.15221 0.84991 0.0
O146 O 0.75406 0.19753 0.84023 0.0
O147 O 0.78222 0.16681 0.77928 0.0
O148 O 0.80994 0.25225 0.77491 0.0
C149 C 0.84138 0.27117 0.76844 0.0
O150 O 0.86358 0.26521 0.78288 0.0
O151 O 0.8431 0.23037 0.84059 0.0
Mg152 Mg 0.58059 0.78471 0.28379 0.0
C153 C 0.57792 0.81496 0.21872 0.0
O154 O 0.56088 0.78307 0.21202 0.0
C155 C 0.62115 0.77674 0.33814 0.0
O156 O 0.61034 0.79468 0.35342 0.0
C157 C 0.57217 0.82966 0.32879 0.0
O158 O 0.59619 0.85024 0.30855 0.0
O159 O 0.55818 0.79847 0.32376 0.0
O160 O 0.59295 0.82373 0.24605 0.0
O161 O 0.54674 0.73753 0.26045 0.0
C162 C 0.54653 0.71098 0.26922 0.0
O163 O 0.56244 0.71118 0.29589 0.0
O164 O 0.61789 0.774 0.30721 0.0
Mg165 Mg 0.79308 0.58057 0.81983 0.0
C166 C 0.72324 0.53828 0.79074 0.0
O167 O 0.71336 0.54449 0.81879 0.0
C168 C 0.8062 0.53187 0.86408 0.0
O169 O 0.77642 0.50738 0.85551 0.0
C170 C 0.77019 0.60149 0.88116 0.0
O171 O 0.79404 0.59694 0.89399 0.0
O172 O 0.76717 0.60042 0.85023 0.0
O173 O 0.75429 0.54648 0.78668 0.0
O174 O 0.83273 0.61085 0.78371 0.0
C175 C 0.86208 0.61383 0.78649 0.0
O176 O 0.8705 0.60689 0.81484 0.0
O177 O 0.81662 0.56101 0.85271 0.0
Mg178 Mg 0.21976 0.79787 0.30485 0.0
C179 C 0.17825 0.7377 0.2649 0.0
O180 O 0.1553 0.7415 0.28111 0.0
C181 C 0.27467 0.84564 0.34701 0.0
O182 O 0.26008 0.86219 0.33609 0.0
C183 C 0.17871 0.77593 0.36769 0.0
O184 O 0.20942 0.79301 0.37944 0.0
O185 O 0.17476 0.77735 0.33711 0.0
O186 O 0.20955 0.75718 0.27099 0.0
O187 O 0.2333 0.84064 0.27262 0.0
C188 C 0.22777 0.83603 0.24219 0.0
O189 O 0.20602 0.80599 0.23221 0.0
O190 O 0.26388 0.816 0.33698 0.0
Mg191 Mg 0.422 0.21503 0.77906 0.0
C192 C 0.47702 0.20425 0.74069 0.0
O193 O 0.50126 0.23199 0.75297 0.0
C194 C 0.43314 0.26833 0.82326 0.0
O195 O 0.40131 0.25479 0.81432 0.0
C196 C 0.41373 0.17612 0.837 0.0
O197 O 0.4453 0.20059 0.83548 0.0
O198 O 0.39354 0.17424 0.81454 0.0
O199 O 0.44622 0.19449 0.74817 0.0
O200 O 0.40063 0.23584 0.74422 0.0
C201 C 0.42457 0.26386 0.73378 0.0
O202 O 0.4554 0.27447 0.74456 0.0
O203 O 0.45152 0.25729 0.81097 0.0
H204 H 0.04375 0.47273 0.15874 0.0
H205 H 0.12553 0.48902 0.09307 0.0
H206 H 0.06914 0.45602 0.20194 0.0
H207 H 0.15178 0.4735 0.13634 0.0
H208 H 0.18627 0.43378 0.22102 0.0
H209 H 0.15301 0.43517 0.17535 0.0
H210 H 0.11832 0.49035 0.23379 0.0
H211 H 0.15071 0.48807 0.27975 0.0
C212 C 0.06641 0.47129 0.15324 0.0
C213 C 0.08262 0.48185 0.12266 0.0
C214 C 0.08136 0.46242 0.17809 0.0
C215 C 0.11304 0.4644 0.1729 0.0
C216 C 0.1274 0.47168 0.14124 0.0
C217 C 0.11224 0.48027 0.11629 0.0
C218 C 0.17165 0.44635 0.22411 0.0
C219 C 0.17119 0.46088 0.25409 0.0
C220 C 0.15253 0.44707 0.19788 0.0
C221 C 0.13257 0.46243 0.20097 0.0
C222 C 0.13265 0.47749 0.23079 0.0
C223 C 0.15164 0.47664 0.25704 0.0
H224 H 0.60396 0.00827 0.6611 0.0
H225 H 0.64134 0.09748 0.60214 0.0
H226 H 0.65803 0.03285 0.68982 0.0
H227 H 0.69464 0.1225 0.63119 0.0
H228 H 0.79129 0.16411 0.68229 0.0
H229 H 0.74658 0.12617 0.64617 0.0
H230 H 0.68277 0.07533 0.73002 0.0
H231 H 0.72788 0.11248 0.76603 0.0
C232 C 0.62412 0.03272 0.65359 0.0
C233 C 0.61837 0.05104 0.62949 0.0
C234 C 0.65496 0.04704 0.67035 0.0
C235 C 0.6807 0.07994 0.66328 0.0
C236 C 0.67575 0.09707 0.63729 0.0
C237 C 0.64505 0.08279 0.62064 0.0
C238 C 0.76804 0.14428 0.69304 0.0
C239 C 0.76306 0.14169 0.72709 0.0
C240 C 0.74225 0.12263 0.67228 0.0
C241 C 0.71064 0.098 0.68502 0.0
C242 C 0.70672 0.09377 0.71917 0.0
C243 C 0.73265 0.11525 0.73993 0.0
H244 H 0.53577 0.54791 0.15761 0.0
H245 H 0.44859 0.55377 0.12499 0.0
H246 H 0.55328 0.59758 0.19034 0.0
H247 H 0.4654 0.60275 0.15866 0.0
H248 H 0.52046 0.70537 0.20791 0.0
H249 H 0.50662 0.66084 0.16885 0.0
H250 H 0.53098 0.60743 0.24066 0.0
H251 H 0.54534 0.65202 0.27939 0.0
C252 C 0.52078 0.56026 0.15678 0.0
C253 C 0.49067 0.54677 0.13885 0.0
C254 C 0.53049 0.58841 0.17599 0.0
C255 C 0.51032 0.60371 0.1777 0.0
C256 C 0.4815 0.59159 0.15797 0.0
C257 C 0.4718 0.56345 0.13876 0.0
C258 C 0.52253 0.68396 0.21547 0.0
C259 C 0.53406 0.68231 0.24681 0.0
C260 C 0.51466 0.65847 0.19304 0.0
C261 C 0.5182 0.6308 0.20143 0.0
C262 C 0.52878 0.62877 0.23309 0.0
C263 C 0.53662 0.65418 0.25547 0.0
H264 H 0.89046 0.52274 0.62233 0.0
H265 H 0.9947 0.58502 0.65052 0.0
H266 H 0.87312 0.5533 0.65848 0.0
H267 H 0.97762 0.61672 0.68589 0.0
H268 H 0.92358 0.61647 0.78382 0.0
H269 H 0.94903 0.60428 0.73738 0.0
H270 H 0.87159 0.6018 0.67496 0.0
H271 H 0.84539 0.61303 0.72192 0.0
C272 C 0.90983 0.54364 0.6356 0.0
C273 C 0.94389 0.55111 0.63384 0.0
C274 C 0.89993 0.56143 0.65621 0.0
C275 C 0.92385 0.58733 0.67561 0.0
C276 C 0.95837 0.59655 0.67183 0.0
C277 C 0.96827 0.57865 0.65118 0.0
C278 C 0.91234 0.61411 0.76009 0.0
C279 C 0.88204 0.6152 0.75684 0.0
C280 C 0.92713 0.60726 0.73325 0.0
C281 C 0.91214 0.60145 0.70231 0.0
C282 C 0.88346 0.60538 0.69851 0.0
C283 C 0.86858 0.61216 0.72544 0.0
H284 H 0.42697 0.95497 0.16722 0.0
H285 H 0.36911 0.92353 0.07847 0.0
H286 H 0.37478 0.93416 0.19879 0.0
H287 H 0.3172 0.90574 0.10974 0.0
H288 H 0.23407 0.82717 0.1773 0.0
H289 H 0.28242 0.86051 0.14207 0.0
H290 H 0.32665 0.93483 0.21724 0.0
H291 H 0.27869 0.90011 0.2534 0.0
C292 C 0.40319 0.94416 0.1543 0.0
C293 C 0.40251 0.94034 0.12021 0.0
C294 C 0.37308 0.93271 0.17247 0.0
C295 C 0.34136 0.91766 0.15705 0.0
C296 C 0.34092 0.9163 0.12272 0.0
C297 C 0.37099 0.92714 0.1046 0.0
C298 C 0.25371 0.85094 0.18619 0.0
C299 C 0.25269 0.86062 0.21846 0.0
C300 C 0.2816 0.87034 0.16576 0.0
C301 C 0.30909 0.90034 0.17678 0.0
C302 C 0.30657 0.91146 0.20812 0.0
C303 C 0.27881 0.89173 0.22879 0.0
H304 H 0.49325 0.39095 0.57259 0.0
H305 H 0.45926 0.44349 0.63525 0.0
H306 H 0.45993 0.34013 0.60498 0.0
H307 H 0.42499 0.39256 0.66715 0.0
H308 H 0.40104 0.25154 0.67103 0.0
H309 H 0.40863 0.294 0.63015 0.0
H310 H 0.44709 0.36879 0.70517 0.0
H311 H 0.43941 0.32666 0.74524 0.0
C312 C 0.47719 0.39113 0.59225 0.0
C313 C 0.47886 0.42113 0.60146 0.0
C314 C 0.45812 0.36199 0.61097 0.0
C315 C 0.44029 0.36234 0.63921 0.0
C316 C 0.43899 0.39152 0.64604 0.0
C317 C 0.45826 0.42064 0.62753 0.0
C318 C 0.40976 0.27685 0.67878 0.0
C319 C 0.41928 0.28587 0.71128 0.0
C320 C 0.41453 0.30125 0.65537 0.0
C321 C 0.42858 0.33496 0.66422 0.0
C322 C 0.43569 0.34317 0.69733 0.0
C323 C 0.43135 0.31901 0.72043 0.0
H324 H 0.47912 0.86434 0.49717 0.0
H325 H 0.57212 0.95769 0.48423 0.0
H326 H 0.4976 0.83893 0.45604 0.0
H327 H 0.59184 0.93197 0.4437 0.0
H328 H 0.58684 0.89333 0.33967 0.0
H329 H 0.57667 0.91617 0.38898 0.0
H330 H 0.53273 0.81919 0.43574 0.0
H331 H 0.54168 0.79609 0.38561 0.0
C332 C 0.50425 0.87898 0.48635 0.0
C333 C 0.52425 0.91289 0.49368 0.0
C334 C 0.51493 0.86443 0.46274 0.0
C335 C 0.54602 0.88348 0.446 0.0
C336 C 0.56737 0.91676 0.45553 0.0
C337 C 0.55646 0.93141 0.4791 0.0
C338 C 0.57491 0.87686 0.36046 0.0
C339 C 0.5647 0.84284 0.35864 0.0
C340 C 0.56951 0.89007 0.38898 0.0
C341 C 0.55413 0.86967 0.41662 0.0
C342 C 0.54428 0.83562 0.41487 0.0
C343 C 0.5493 0.82231 0.38611 0.0
H344 H 0.62154 0.51477 1.03167 0.0
H345 H 0.5724 0.54979 0.96568 0.0
H346 H 0.67517 0.54788 1.00246 0.0
H347 H 0.62641 0.58457 0.93718 0.0
H348 H 0.77099 0.6094 0.94739 0.0
H349 H 0.72283 0.59604 0.98359 0.0
H350 H 0.65825 0.57374 0.8997 0.0
H351 H 0.70667 0.58873 0.86378 0.0
C352 C 0.62268 0.53095 1.01188 0.0
C353 C 0.5929 0.52985 1.00103 0.0
C354 C 0.6535 0.54997 0.99491 0.0
C355 C 0.65532 0.56863 0.96682 0.0
C356 C 0.626 0.56989 0.95802 0.0
C357 C 0.5951 0.55044 0.9747 0.0
C358 C 0.74665 0.60243 0.93669 0.0
C359 C 0.7427 0.59983 0.90264 0.0
C360 C 0.71885 0.59442 0.95751 0.0
C361 C 0.68619 0.58314 0.94487 0.0
C362 C 0.68283 0.58262 0.91065 0.0
C363 C 0.71073 0.59109 0.88986 0.0
H364 H 0.07318 0.62418 0.51729 0.0
H365 H 0.04279 0.57502 0.42418 0.0
H366 H 0.09597 0.67766 0.49015 0.0
H367 H 0.06909 0.62883 0.39672 0.0
H368 H 0.11362 0.7293 0.35048 0.0
H369 H 0.07404 0.67956 0.38161 0.0
H370 H 0.14467 0.71159 0.46147 0.0
H371 H 0.1827 0.76158 0.43139 0.0
C372 C 0.07085 0.62452 0.49105 0.0
C373 C 0.05641 0.59483 0.47307 0.0
C374 C 0.08468 0.65553 0.47531 0.0
C375 C 0.08542 0.65798 0.44102 0.0
C376 C 0.06913 0.62828 0.42313 0.0
C377 C 0.05452 0.59719 0.43895 0.0
C378 C 0.12014 0.72607 0.37507 0.0
C379 C 0.15153 0.74932 0.38826 0.0
C380 C 0.09762 0.6973 0.39283 0.0
C381 C 0.10614 0.69095 0.42405 0.0
C382 C 0.13665 0.71541 0.43783 0.0
C383 C 0.15881 0.74423 0.42033 0.0
H384 H 0.43562 0.07573 1.00542 0.0
H385 H 0.43024 0.02004 0.91962 0.0
H386 H 0.41008 0.10359 0.97558 0.0
H387 H 0.40631 0.04874 0.88909 0.0
H388 H 0.36971 0.10816 0.83502 0.0
H389 H 0.36687 0.0667 0.87464 0.0
H390 H 0.4363 0.14644 0.93662 0.0
H391 H 0.43826 0.18696 0.89789 0.0
C392 C 0.4277 0.06856 0.98051 0.0
C393 C 0.43452 0.04557 0.96486 0.0
C394 C 0.41354 0.08484 0.96317 0.0
C395 C 0.40678 0.0791 0.92956 0.0
C396 C 0.41082 0.05378 0.91487 0.0
C397 C 0.42454 0.03721 0.93237 0.0
C398 C 0.38329 0.11658 0.85772 0.0
C399 C 0.4044 0.15077 0.86327 0.0
C400 C 0.38201 0.09289 0.88029 0.0
C401 C 0.40163 0.10303 0.90887 0.0
C402 C 0.42045 0.13733 0.91532 0.0
C403 C 0.42183 0.16076 0.89287 0.0
H404 H 0.43784 0.49725 0.50561 0.0
H405 H 0.47948 0.5266 0.40806 0.0
H406 H 0.38053 0.47713 0.48428 0.0
H407 H 0.42291 0.50644 0.38683 0.0
H408 H 0.324 0.49869 0.36025 0.0
H409 H 0.3787 0.52108 0.38709 0.0
H410 H 0.33801 0.43394 0.44985 0.0
H411 H 0.2832 0.41201 0.4237 0.0
C412 C 0.43466 0.49912 0.47966 0.0
C413 C 0.46306 0.51391 0.45857 0.0
C414 C 0.40197 0.48771 0.46743 0.0
C415 C 0.39722 0.49079 0.4339 0.0
C416 C 0.42567 0.50461 0.41287 0.0
C417 C 0.4581 0.51598 0.42502 0.0
C418 C 0.32661 0.48453 0.38004 0.0
C419 C 0.29934 0.45343 0.38958 0.0
C420 C 0.35801 0.49723 0.3953 0.0
C421 C 0.36286 0.47906 0.42034 0.0
C422 C 0.33513 0.44866 0.43082 0.0
C423 C 0.30373 0.43601 0.41563 0.0
H424 H 0.91806 0.38014 1.00998 0.0
H425 H 0.00762 0.41298 0.94945 0.0
H426 H 0.89155 0.32632 0.98357 0.0
H427 H 0.98153 0.35839 0.92336 0.0
H428 H 0.89821 0.2856 0.85089 0.0
H429 H 0.93717 0.33192 0.88443 0.0
H430 H 0.88726 0.27448 0.97148 0.0
H431 H 0.84751 0.22861 0.93782 0.0
C432 C 0.93252 0.37536 0.99171 0.0
C433 C 0.96479 0.40085 0.98164 0.0
C434 C 0.91739 0.34436 0.97658 0.0
C435 C 0.93415 0.33792 0.95092 0.0
C436 C 0.9676 0.3626 0.94262 0.0
C437 C 0.98279 0.39374 0.95787 0.0
C438 C 0.89606 0.28251 0.87719 0.0
C439 C 0.86935 0.25355 0.89164 0.0
C440 C 0.91856 0.30913 0.89653 0.0
C441 C 0.9151 0.30733 0.9308 0.0
C442 C 0.89022 0.27717 0.9452 0.0
C443 C 0.86752 0.25072 0.92587 0.0
H444 H 0.98096 0.53536 0.95048 0.0
H445 H 0.8971 0.45661 1.00447 0.0
H446 H 0.94181 0.54876 0.92288 0.0
H447 H 0.85781 0.47028 0.97728 0.0
H448 H 0.79682 0.47234 0.8884 0.0
H449 H 0.83493 0.46338 0.92332 0.0
H450 H 0.90314 0.56969 0.92648 0.0
H451 H 0.86564 0.57855 0.89097 0.0
C452 C 0.95427 0.52163 0.95722 0.0
C453 C 0.94211 0.49488 0.97956 0.0
C454 C 0.93172 0.5292 0.9413 0.0
C455 C 0.8965 0.51028 0.94747 0.0
C456 C 0.88464 0.48485 0.97135 0.0
C457 C 0.90717 0.47722 0.98716 0.0
C458 C 0.81987 0.49378 0.89667 0.0
C459 C 0.82825 0.5261 0.88664 0.0
C460 C 0.84165 0.4887 0.91692 0.0
C461 C 0.87223 0.51583 0.92774 0.0
C462 C 0.88013 0.54818 0.91826 0.0
C463 C 0.85849 0.55324 0.89795 0.0
H464 H 0.39616 0.88778 0.52308 0.0
H465 H 0.45351 0.97257 0.45951 0.0
H466 H 0.34911 0.86539 0.48455 0.0
H467 H 0.40677 0.95048 0.42094 0.0
H468 H 0.30669 0.91008 0.36707 0.0
H469 H 0.34749 0.93516 0.41069 0.0
H470 H 0.34282 0.84091 0.42917 0.0
H471 H 0.30151 0.81554 0.38547 0.0
C472 C 0.398 0.90232 0.50154 0.0
C473 C 0.42807 0.93224 0.49455 0.0
C474 C 0.37142 0.88921 0.47916 0.0
C475 C 0.37435 0.9059 0.44943 0.0
C476 C 0.40353 0.93706 0.44365 0.0
C477 C 0.43019 0.94995 0.46587 0.0
C478 C 0.31434 0.89461 0.38035 0.0
C479 C 0.30087 0.86076 0.37263 0.0
C480 C 0.3378 0.90908 0.40538 0.0
C481 C 0.34832 0.89006 0.42359 0.0
C482 C 0.33486 0.85616 0.41594 0.0
C483 C 0.31149 0.84169 0.39065 0.0
H484 H 0.55207 0.43083 0.95516 0.0
H485 H 0.44827 0.39737 0.98475 0.0
H486 H 0.53269 0.38845 0.9137 0.0
H487 H 0.4287 0.35316 0.94421 0.0
H488 H 0.40431 0.30458 0.84387 0.0
H489 H 0.42322 0.3458 0.88679 0.0
H490 H 0.50883 0.33112 0.90412 0.0
H491 H 0.49042 0.29063 0.86014 0.0
C492 C 0.52498 0.41439 0.9528 0.0
C493 C 0.50166 0.41806 0.97286 0.0
C494 C 0.51387 0.3896 0.92929 0.0
C495 C 0.47909 0.3673 0.92538 0.0
C496 C 0.45569 0.37025 0.9461 0.0
C497 C 0.46687 0.39536 0.9696 0.0
C498 C 0.42728 0.31025 0.85675 0.0
C499 C 0.44597 0.29443 0.8485 0.0
C500 C 0.43794 0.33369 0.88165 0.0
C501 C 0.46746 0.34177 0.89921 0.0
C502 C 0.48622 0.32593 0.89088 0.0
C503 C 0.4757 0.30267 0.86568 0.0
H504 H 0.03561 0.48931 0.42579 0.0
H505 H 0.07936 0.47648 0.51403 0.0
H506 H 0.05657 0.4579 0.39571 0.0
H507 H 0.09858 0.44317 0.48432 0.0
H508 H 0.16877 0.42869 0.41118 0.0
H509 H 0.14098 0.45051 0.44626 0.0
H510 H 0.05317 0.40678 0.38423 0.0
H511 H 0.08168 0.38612 0.34839 0.0
C512 C 0.04934 0.47942 0.43893 0.0
C513 C 0.05602 0.4859 0.47238 0.0
C514 C 0.06103 0.4609 0.42169 0.0
C515 C 0.07955 0.44791 0.43737 0.0
C516 C 0.08495 0.45314 0.47116 0.0
C517 C 0.07343 0.47191 0.48839 0.0
C518 C 0.14328 0.42317 0.4053 0.0
C519 C 0.12764 0.40582 0.37671 0.0
C520 C 0.12719 0.43567 0.42558 0.0
C521 C 0.09483 0.43093 0.41805 0.0
C522 C 0.07838 0.41176 0.39051 0.0
C523 C 0.09462 0.39954 0.37006 0.0
H524 H 0.53565 0.08257 0.91767 0.0
H525 H 0.58137 0.06655 1.00295 0.0
H526 H 0.59116 0.11474 0.89216 0.0
H527 H 0.63743 0.0984 0.97661 0.0
H528 H 0.71862 0.11537 0.89533 0.0
H529 H 0.66667 0.09021 0.9283 0.0
H530 H 0.64594 0.16763 0.89692 0.0
H531 H 0.69802 0.19285 0.86362 0.0
C532 C 0.55759 0.08648 0.93139 0.0
C533 C 0.55391 0.07225 0.96271 0.0
C534 C 0.58952 0.10493 0.91659 0.0
C535 C 0.61872 0.10937 0.93243 0.0
C536 C 0.6153 0.09529 0.96376 0.0
C537 C 0.58322 0.07699 0.9788 0.0
C538 C 0.70315 0.12724 0.89561 0.0
C539 C 0.71228 0.15595 0.87656 0.0
C540 C 0.67351 0.11294 0.91477 0.0
C541 C 0.65215 0.12686 0.91515 0.0
C542 C 0.66177 0.15616 0.89687 0.0
C543 C 0.69162 0.17065 0.87788 0.0
H544 H 0.56319 0.58229 0.39983 0.0
H545 H 0.60345 0.63457 0.4896 0.0
H546 H 0.58932 0.63455 0.3697 0.0
H547 H 0.63142 0.68764 0.45923 0.0
H548 H 0.61828 0.76894 0.40441 0.0
H549 H 0.61342 0.72197 0.43527 0.0
H550 H 0.63351 0.6829 0.34739 0.0
H551 H 0.63653 0.72937 0.31607 0.0
C552 C 0.57883 0.60511 0.41293 0.0
C553 C 0.58112 0.6044 0.44707 0.0
C554 C 0.59407 0.63527 0.39559 0.0
C555 C 0.61234 0.66579 0.41184 0.0
C556 C 0.61698 0.66482 0.44582 0.0
C557 C 0.60142 0.63441 0.46328 0.0
C558 C 0.62234 0.75072 0.39164 0.0
C559 C 0.62714 0.75274 0.35752 0.0
C560 C 0.61977 0.72366 0.40954 0.0
C561 C 0.62236 0.69792 0.39396 0.0
C562 C 0.63034 0.70159 0.36025 0.0
C563 C 0.63247 0.72852 0.34223 0.0
H564 H 0.56443 0.11933 0.60596 0.0
H565 H 0.47962 0.03564 0.65395 0.0
H566 H 0.54915 0.15728 0.63267 0.0
H567 H 0.46441 0.07344 0.68075 0.0
H568 H 0.43202 0.14792 0.70896 0.0
H569 H 0.44399 0.11233 0.67437 0.0
H570 H 0.55156 0.17716 0.68801 0.0
H571 H 0.53958 0.21336 0.72224 0.0
C572 C 0.54221 0.10902 0.62184 0.0
C573 C 0.5233 0.07447 0.6279 0.0
C574 C 0.53361 0.13077 0.63734 0.0
C575 C 0.50583 0.1185 0.65923 0.0
C576 C 0.4858 0.08379 0.66385 0.0
C577 C 0.49442 0.06204 0.64834 0.0
C578 C 0.4583 0.15478 0.70452 0.0
C579 C 0.48487 0.18349 0.71861 0.0
C580 C 0.46512 0.13421 0.68473 0.0
C581 C 0.49871 0.14172 0.67847 0.0
C582 C 0.52537 0.17081 0.69198 0.0
C583 C 0.51853 0.19149 0.71181 0.0
H584 H 0.41215 0.40493 0.17002 0.0
H585 H 0.36975 0.45416 0.11368 0.0
H586 H 0.35949 0.37638 0.20265 0.0
H587 H 0.3175 0.42616 0.14608 0.0
H588 H 0.2215 0.36716 0.2008 0.0
H589 H 0.26704 0.37555 0.16309 0.0
H590 H 0.33428 0.39577 0.24426 0.0
H591 H 0.28854 0.38683 0.28206 0.0
C592 C 0.3911 0.4087 0.16388 0.0
C593 C 0.39492 0.43157 0.13918 0.0
C594 C 0.36111 0.39273 0.18283 0.0
C595 C 0.33421 0.3991 0.17726 0.0
C596 C 0.33735 0.42024 0.15097 0.0
C597 C 0.36733 0.43635 0.13231 0.0
C598 C 0.24573 0.37257 0.21073 0.0
C599 C 0.25137 0.37673 0.24453 0.0
C600 C 0.27197 0.37761 0.18903 0.0
C601 C 0.30462 0.38697 0.20048 0.0
C602 C 0.30949 0.38846 0.23447 0.0
C603 C 0.28319 0.38337 0.25623 0.0
H604 H 0.97008 0.43178 0.63618 0.0
H605 H 0.87394 0.4299 0.63079 0.0
H606 H 0.94348 0.38109 0.66864 0.0
H607 H 0.84799 0.38064 0.66595 0.0
H608 H 0.80601 0.27956 0.71855 0.0
H609 H 0.82847 0.32355 0.67658 0.0
H610 H 0.92634 0.36934 0.7231 0.0
H611 H 0.90438 0.32496 0.7636 0.0
C612 C 0.94312 0.42037 0.64136 0.0
C613 C 0.9244 0.43548 0.63106 0.0
C614 C 0.92795 0.3915 0.66071 0.0
C615 C 0.89378 0.37722 0.67095 0.0
C616 C 0.87439 0.39091 0.6588 0.0
C617 C 0.88944 0.4195 0.63888 0.0
C618 C 0.83228 0.29915 0.71969 0.0
C619 C 0.85348 0.29873 0.74424 0.0
C620 C 0.84519 0.32439 0.69567 0.0
C621 C 0.87946 0.34987 0.696 0.0
C622 C 0.90019 0.34968 0.72123 0.0
C623 C 0.88747 0.32435 0.74479 0.0
H624 H 0.50748 0.94925 0.16099 0.0
H625 H 0.51344 0.90709 0.06899 0.0
H626 H 0.53555 0.92258 0.18764 0.0
H627 H 0.54373 0.88241 0.09516 0.0
H628 H 0.54649 0.80245 0.16 0.0
H629 H 0.53023 0.83714 0.12945 0.0
H630 H 0.58356 0.91703 0.19766 0.0
H631 H 0.59872 0.88135 0.22926 0.0
C632 C 0.51519 0.93469 0.14626 0.0
C633 C 0.50749 0.93 0.1128 0.0
C634 C 0.53185 0.9197 0.16155 0.0
C635 C 0.54173 0.8998 0.14382 0.0
C636 C 0.53591 0.89684 0.10994 0.0
C637 C 0.51891 0.91154 0.09471 0.0
C638 C 0.55524 0.82758 0.16836 0.0
C639 C 0.57374 0.8389 0.19735 0.0
C640 C 0.54605 0.84773 0.15057 0.0
C641 C 0.55527 0.88008 0.16097 0.0
C642 C 0.57537 0.89209 0.1891 0.0
C643 C 0.58444 0.87175 0.20709 0.0
H644 H 0.62432 0.49811 0.60011 0.0
H645 H 0.56564 0.52469 0.664 0.0
H646 H 0.66307 0.5061 0.64443 0.0
H647 H 0.60518 0.53445 0.70808 0.0
H648 H 0.65427 0.51086 0.79091 0.0
H649 H 0.61814 0.50362 0.74459 0.0
H650 H 0.70561 0.54136 0.67979 0.0
H651 H 0.74127 0.54691 0.72598 0.0
C652 C 0.62051 0.50688 0.62338 0.0
C653 C 0.59219 0.51102 0.62863 0.0
C654 C 0.64263 0.51134 0.64892 0.0
C655 C 0.63709 0.5204 0.68022 0.0
C656 C 0.60979 0.52649 0.68471 0.0
C657 C 0.58743 0.52151 0.65933 0.0
C658 C 0.66564 0.51707 0.76669 0.0
C659 C 0.70062 0.5294 0.76219 0.0
C660 C 0.64502 0.5134 0.74008 0.0
C661 C 0.65892 0.52253 0.70829 0.0
C662 C 0.69379 0.53382 0.70373 0.0
C663 C 0.71433 0.53699 0.73031 0.0
H664 H 0.05607 0.59684 0.11548 0.0
H665 H 0.15214 0.59915 0.11009 0.0
H666 H 0.08038 0.64379 0.15316 0.0
H667 H 0.17623 0.64484 0.14852 0.0
H668 H 0.21584 0.7366 0.21217 0.0
H669 H 0.19515 0.70007 0.16485 0.0
H670 H 0.09471 0.64842 0.20879 0.0
H671 H 0.11511 0.68544 0.2551 0.0
C672 C 0.0827 0.60819 0.12153 0.0
C673 C 0.10234 0.59466 0.10975 0.0
C674 C 0.09655 0.63465 0.1436 0.0
C675 C 0.13018 0.64778 0.15461 0.0
C676 C 0.15042 0.63574 0.14066 0.0
C677 C 0.13665 0.60954 0.1185 0.0
C678 C 0.18943 0.71725 0.21172 0.0
C679 C 0.16718 0.71386 0.23747 0.0
C680 C 0.17746 0.69635 0.18453 0.0
C681 C 0.14303 0.67139 0.1826 0.0
C682 C 0.1211 0.66784 0.20875 0.0
C683 C 0.13295 0.68884 0.23564 0.0
loop_
_geom_bond_atom_site_label_1
_geom_bond_atom_site_label_2
_geom_bond_distance
_geom_bond_site_symmetry_2
_ccdc_geom_bond_type
H0 C8 0.930 . S
H1 C11 0.930 . S
H2 C13 0.930 . S
H3 C14 0.970 . S
H4 C14 0.970 . S
H5 C16 0.930 . S
H6 C18 0.930 . S
H7 C20 0.930 . S
C8 H0 0.930 . S
C8 C9 1.382 . S
C8 C10 1.426 . S
C9 C8 1.382 . S
C9 C13 1.389 . S
C10 C8 1.426 . S
C10 C11 1.375 . S
C10 C14 1.532 1_554 S
C11 H1 0.930 . S
C11 C10 1.375 . S
C11 C12 1.416 . S
C12 C11 1.416 . S
C12 C13 1.371 . S
C13 H2 0.930 . S
C13 C9 1.389 . S
C13 C12 1.371 . S
C14 H3 0.970 . S
C14 H4 0.970 . S
C14 C10 1.532 1_556 S
C14 C15 1.499 . S
C15 C14 1.499 . S
C15 C16 1.370 . S
C15 C20 1.415 . S
C16 H5 0.930 . S
C16 C15 1.370 . S
C16 C17 1.407 1_455 S
C17 C16 1.407 1_655 S
C17 C18 1.365 . S
C18 H6 0.930 . S
C18 C17 1.365 . S
C18 C19 1.393 . S
C19 C18 1.393 . S
C19 C20 1.387 1_655 S
C20 H7 0.930 . S
C20 C15 1.415 . S
C20 C19 1.387 1_455 S
H21 C29 0.930 . S
H22 C32 0.930 . S
H23 C34 0.930 . S
H24 C35 0.970 . S
H25 C35 0.970 . S
H26 C37 0.930 . S
H27 C39 0.930 . S
H28 C41 0.930 . S
C29 H21 0.930 . S
C29 C30 1.382 . S
C29 C31 1.426 . S
C30 C29 1.382 . S
C30 C34 1.389 . S
C31 C29 1.426 . S
C31 C32 1.375 . S
C31 C35 1.532 1_545 S
C32 H22 0.930 . S
C32 C31 1.375 . S
C32 C33 1.416 . S
C33 C32 1.416 . S
C33 C34 1.371 . S
C34 H23 0.930 . S
C34 C30 1.389 . S
C34 C33 1.371 . S
C35 H24 0.970 . S
C35 H25 0.970 . S
C35 C31 1.532 1_565 S
C35 C36 1.499 . S
C36 C35 1.499 . S
C36 C37 1.370 . S
C36 C41 1.415 . S
C37 H26 0.930 . S
C37 C36 1.370 . S
C37 C38 1.407 . S
C38 C37 1.407 . S
C38 C39 1.365 . S
C39 H27 0.930 . S
C39 C38 1.365 . S
C39 C40 1.393 . S
C40 C39 1.393 . S
C40 C41 1.387 . S
C41 H28 0.930 . S
C41 C36 1.415 . S
C41 C40 1.387 . S
H42 C50 0.930 . S
H43 C53 0.930 . S
H44 C55 0.930 . S
H45 C56 0.970 . S
H46 C56 0.970 . S
H47 C58 0.917 1_554 S
H48 C60 0.930 . S
H49 C62 0.911 1_554 S
C50 H42 0.930 . S
C50 C51 1.382 . S
C50 C52 1.426 . S
C51 C50 1.382 . S
C51 C55 1.389 . S
C52 C50 1.426 . S
C52 C53 1.375 . S
C52 C56 1.532 . S
C53 H43 0.930 . S
C53 C52 1.375 . S
C53 C54 1.416 . S
C54 C53 1.416 . S
C54 C55 1.371 . S
C55 H44 0.930 . S
C55 C51 1.389 . S
C55 C54 1.371 . S
C56 H45 0.970 . S
C56 H46 0.970 . S
C56 C52 1.532 . S
C56 C57 1.499 . S
C57 C56 1.499 . S
C57 C58 1.370 1_554 S
C57 C62 1.415 1_554 S
C58 H47 0.917 1_556 S
C58 C57 1.370 1_556 S
C58 C59 1.407 . S
C59 C58 1.407 . S
C59 C60 1.365 . S
C60 H48 0.930 . S
C60 C59 1.365 . S
C60 C61 1.393 . S
C61 C60 1.393 . S
C61 C62 1.387 . S
C62 H49 0.911 1_556 S
C62 C57 1.415 1_556 S
C62 C61 1.387 . S
H63 C71 0.930 1_455 S
H64 C74 0.930 1_455 S
H65 C76 0.930 . S
H66 C77 0.970 . S
H67 C77 0.970 . S
H68 C79 0.930 . S
H69 C81 0.930 . S
H70 C83 0.930 . S
C71 H63 0.930 1_655 S
C71 C72 1.382 . S
C71 C73 1.426 1_655 S
C72 C71 1.382 . S
C72 C76 1.389 . S
C73 C71 1.426 1_455 S
C73 C74 1.375 1_455 S
C73 C77 1.532 . S
C74 H64 0.930 1_655 S
C74 C73 1.375 1_655 S
C74 C75 1.416 . S
C75 C74 1.416 . S
C75 C76 1.371 . S
C76 H65 0.930 . S
C76 C72 1.389 . S
C76 C75 1.371 . S
C77 H66 0.970 . S
C77 H67 0.970 . S
C77 C73 1.532 . S
C77 C78 1.499 . S
C78 C77 1.499 . S
C78 C79 1.370 . S
C78 C83 1.415 . S
C79 H68 0.930 . S
C79 C78 1.370 . S
C79 C80 1.407 . S
C80 C79 1.407 . S
C80 C81 1.365 . S
C81 H69 0.930 . S
C81 C80 1.365 . S
C81 C82 1.393 . S
C82 C81 1.393 . S
C82 C83 1.387 . S
C83 H70 0.930 . S
C83 C78 1.415 . S
C83 C82 1.387 . S
H84 C92 0.930 . S
H85 C95 0.930 . S
H86 C97 0.930 . S
H87 C98 0.970 . S
H88 C98 0.970 . S
H89 C100 0.930 . S
H90 C102 0.930 . S
H91 C104 0.930 1_565 S
C92 H84 0.930 . S
C92 C93 1.382 . S
C92 C94 1.426 . S
C93 C92 1.382 . S
C93 C97 1.389 . S
C94 C92 1.426 . S
C94 C95 1.375 . S
C94 C98 1.532 1_554 S
C95 H85 0.930 . S
C95 C94 1.375 . S
C95 C96 1.416 . S
C96 C95 1.416 . S
C96 C97 1.371 . S
C97 H86 0.930 . S
C97 C93 1.389 . S
C97 C96 1.371 . S
C98 H87 0.970 . S
C98 H88 0.970 . S
C98 C94 1.532 1_556 S
C98 C99 1.499 . S
C99 C98 1.499 . S
C99 C100 1.370 1_565 S
C99 C104 1.415 1_565 S
C100 H89 0.930 . S
C100 C99 1.370 1_545 S
C100 C101 1.407 . S
C101 C100 1.407 . S
C101 C102 1.365 . S
C102 H90 0.930 . S
C102 C101 1.365 . S
C102 C103 1.393 . S
C103 C102 1.393 . S
C103 C104 1.387 . S
C104 H91 0.930 1_545 S
C104 C99 1.415 1_545 S
C104 C103 1.387 . S
H105 C113 0.930 . S
H106 C116 0.930 . S
H107 C118 0.930 . S
H108 C119 0.970 . S
H109 C119 0.970 . S
H110 C121 0.930 . S
H111 C123 0.930 . S
H112 C125 0.930 . S
C113 H105 0.930 . S
C113 C114 1.382 . S
C113 C115 1.426 . S
C114 C113 1.382 . S
C114 C118 1.389 . S
C115 C113 1.426 . S
C115 C116 1.375 . S
C115 C119 1.532 . S
C116 H106 0.930 . S
C116 C115 1.375 . S
C116 C117 1.416 . S
C117 C116 1.416 . S
C117 C118 1.371 . S
C118 H107 0.930 . S
C118 C114 1.389 . S
C118 C117 1.371 . S
C119 H108 0.970 . S
C119 H109 0.970 . S
C119 C115 1.532 . S
C119 C120 1.499 . S
C120 C119 1.499 . S
C120 C121 1.370 . S
C120 C125 1.415 . S
C121 H110 0.930 . S
C121 C120 1.370 . S
C121 C122 1.407 . S
C122 C121 1.407 . S
C122 C123 1.365 . S
C123 H111 0.930 . S
C123 C122 1.365 . S
C123 C124 1.393 . S
C124 C123 1.393 . S
C124 C125 1.387 . S
C125 H112 0.930 . S
C125 C120 1.415 . S
C125 C124 1.387 . S
Mg126 O133 2.141 . S
Mg126 O134 2.048 . S
Mg126 O135 2.048 . S
Mg126 O138 2.141 . S
C127 O128 1.313 . S
C127 O134 1.195 . S
O128 C127 1.313 . S
C129 O130 1.245 . S
C129 O138 1.289 . S
O130 C129 1.245 . S
C131 O132 1.245 . S
C131 O133 1.289 . S
O132 C131 1.245 . S
O133 Mg126 2.141 . S
O133 C131 1.289 . S
O134 Mg126 2.048 . S
O134 C127 1.195 . S
O135 Mg126 2.048 . S
O135 C136 1.195 . S
C136 O135 1.195 . S
C136 O137 1.313 . S
O137 C136 1.313 . S
O138 Mg126 2.141 . S
O138 C129 1.289 . S
Mg139 O146 2.141 . S
Mg139 O147 2.048 . S
Mg139 O148 2.048 . S
Mg139 O151 2.141 . S
C140 O141 1.313 . S
C140 O147 1.195 . S
O141 C140 1.313 . S
C142 O143 1.245 . S
C142 O151 1.289 . S
O143 C142 1.245 . S
C144 O145 1.245 . S
C144 O146 1.289 . S
O145 C144 1.245 . S
O146 Mg139 2.141 . S
O146 C144 1.289 . S
O147 Mg139 2.048 . S
O147 C140 1.195 . S
O148 Mg139 2.048 . S
O148 C149 1.195 . S
C149 O148 1.195 . S
C149 O150 1.313 . S
O150 C149 1.313 . S
O151 Mg139 2.141 . S
O151 C142 1.289 . S
Mg152 O159 2.141 . S
Mg152 O160 2.048 . S
Mg152 O161 2.048 . S
Mg152 O164 2.141 . S
C153 O154 1.313 . S
C153 O160 1.195 . S
O154 C153 1.313 . S
C155 O156 1.245 . S
C155 O164 1.289 . S
O156 C155 1.245 . S
C157 O158 1.245 . S
C157 O159 1.289 . S
O158 C157 1.245 . S
O159 Mg152 2.141 . S
O159 C157 1.289 . S
O160 Mg152 2.048 . S
O160 C153 1.195 . S
O161 Mg152 2.048 . S
O161 C162 1.195 . S
C162 O161 1.195 . S
C162 O163 1.313 . S
O163 C162 1.313 . S
O164 Mg152 2.141 . S
O164 C155 1.289 . S
Mg165 O172 2.141 . S
Mg165 O173 2.048 . S
Mg165 O174 2.048 . S
Mg165 O177 2.141 . S
C166 O167 1.313 . S
C166 O173 1.195 . S
O167 C166 1.313 . S
C168 O169 1.245 . S
C168 O177 1.289 . S
O169 C168 1.245 . S
C170 O171 1.245 . S
C170 O172 1.289 . S
O171 C170 1.245 . S
O172 Mg165 2.141 . S
O172 C170 1.289 . S
O173 Mg165 2.048 . S
O173 C166 1.195 . S
O174 Mg165 2.048 . S
O174 C175 1.195 . S
C175 O174 1.195 . S
C175 O176 1.313 . S
O176 C175 1.313 . S
O177 Mg165 2.141 . S
O177 C168 1.289 . S
Mg178 O185 2.141 . S
Mg178 O186 2.048 . S
Mg178 O187 2.048 . S
Mg178 O190 2.141 . S
C179 O180 1.313 . S
C179 O186 1.195 . S
O180 C179 1.313 . S
C181 O182 1.245 . S
C181 O190 1.289 . S
O182 C181 1.245 . S
C183 O184 1.245 . S
C183 O185 1.289 . S
O184 C183 1.245 . S
O185 Mg178 2.141 . S
O185 C183 1.289 . S
O186 Mg178 2.048 . S
O186 C179 1.195 . S
O187 Mg178 2.048 . S
O187 C188 1.195 . S
C188 O187 1.195 . S
C188 O189 1.313 . S
O189 C188 1.313 . S
O190 Mg178 2.141 . S
O190 C181 1.289 . S
Mg191 O198 2.141 . S
Mg191 O199 2.048 . S
Mg191 O200 2.048 . S
Mg191 O203 2.141 . S
C192 O193 1.313 . S
C192 O199 1.195 . S
O193 C192 1.313 . S
C194 O195 1.245 . S
C194 O203 1.289 . S
O195 C194 1.245 . S
C196 O197 1.245 . S
C196 O198 1.289 . S
O197 C196 1.245 . S
O198 Mg191 2.141 . S
O198 C196 1.289 . S
O199 Mg191 2.048 . S
O199 C192 1.195 . S
O200 Mg191 2.048 . S
O200 C201 1.195 . S
C201 O200 1.195 . S
C201 O202 1.313 . S
O202 C201 1.313 . S
O203 Mg191 2.141 . S
O203 C194 1.289 . S
H204 C212 0.950 . S
H205 C217 0.950 . S
H206 C214 0.950 . S
H207 C216 0.950 . S
H208 C218 0.950 . S
H209 C220 0.950 . S
H210 C222 0.950 . S
H211 C223 0.950 . S
C212 H204 0.950 . S
C212 C213 1.386 . S
C212 C214 1.391 . S
C213 C212 1.386 . S
C213 C217 1.393 . S
C214 H206 0.950 . S
C214 C212 1.391 . S
C214 C215 1.400 . S
C215 C214 1.400 . S
C215 C216 1.398 . S
C215 C221 1.491 . S
C216 H207 0.950 . S
C216 C215 1.398 . S
C216 C217 1.391 . S
C217 H205 0.950 . S
C217 C213 1.393 . S
C217 C216 1.391 . S
C218 H208 0.950 . S
C218 C219 1.386 . S
C218 C220 1.391 . S
C219 C218 1.386 . S
C219 C223 1.393 . S
C220 H209 0.950 . S
C220 C218 1.391 . S
C220 C221 1.400 . S
C221 C215 1.491 . S
C221 C220 1.400 . S
C221 C222 1.398 . S
C222 H210 0.950 . S
C222 C221 1.398 . S
C222 C223 1.391 . S
C223 H211 0.950 . S
C223 C219 1.393 . S
C223 C222 1.391 . S
H224 C232 0.950 . S
H225 C237 0.950 . S
H226 C234 0.950 . S
H227 C236 0.950 . S
H228 C238 0.950 . S
H229 C240 0.950 . S
H230 C242 0.950 . S
H231 C243 0.950 . S
C232 H224 0.950 . S
C232 C233 1.386 . S
C232 C234 1.391 . S
C233 C232 1.386 . S
C233 C237 1.393 . S
C234 H226 0.950 . S
C234 C232 1.391 . S
C234 C235 1.400 . S
C235 C234 1.400 . S
C235 C236 1.398 . S
C235 C241 1.491 . S
C236 H227 0.950 . S
C236 C235 1.398 . S
C236 C237 1.391 . S
C237 H225 0.950 . S
C237 C233 1.393 . S
C237 C236 1.391 . S
C238 H228 0.950 . S
C238 C239 1.386 . S
C238 C240 1.391 . S
C239 C238 1.386 . S
C239 C243 1.393 . S
C240 H229 0.950 . S
C240 C238 1.391 . S
C240 C241 1.400 . S
C241 C235 1.491 . S
C241 C240 1.400 . S
C241 C242 1.398 . S
C242 H230 0.950 . S
C242 C241 1.398 . S
C242 C243 1.391 . S
C243 H231 0.950 . S
C243 C239 1.393 . S
C243 C242 1.391 . S
H244 C252 0.950 . S
H245 C257 0.950 . S
H246 C254 0.950 . S
H247 C256 0.950 . S
H248 C258 0.950 . S
H249 C260 0.950 . S
H250 C262 0.950 . S
H251 C263 0.950 . S
C252 H244 0.950 . S
C252 C253 1.386 . S
C252 C254 1.391 . S
C253 C252 1.386 . S
C253 C257 1.393 . S
C254 H246 0.950 . S
C254 C252 1.391 . S
C254 C255 1.400 . S
C255 C254 1.400 . S
C255 C256 1.398 . S
C255 C261 1.491 . S
C256 H247 0.950 . S
C256 C255 1.398 . S
C256 C257 1.391 . S
C257 H245 0.950 . S
C257 C253 1.393 . S
C257 C256 1.391 . S
C258 H248 0.950 . S
C258 C259 1.386 . S
C258 C260 1.391 . S
C259 C258 1.386 . S
C259 C263 1.393 . S
C260 H249 0.950 . S
C260 C258 1.391 . S
C260 C261 1.400 . S
C261 C255 1.491 . S
C261 C260 1.400 . S
C261 C262 1.398 . S
C262 H250 0.950 . S
C262 C261 1.398 . S
C262 C263 1.391 . S
C263 H251 0.950 . S
C263 C259 1.393 . S
C263 C262 1.391 . S
H264 C272 0.950 . S
H265 C277 0.950 . S
H266 C274 0.950 . S
H267 C276 0.950 . S
H268 C278 0.950 . S
H269 C280 0.950 . S
H270 C282 0.950 . S
H271 C283 0.950 . S
C272 H264 0.950 . S
C272 C273 1.386 . S
C272 C274 1.391 . S
C273 C272 1.386 . S
C273 C277 1.393 . S
C274 H266 0.950 . S
C274 C272 1.391 . S
C274 C275 1.400 . S
C275 C274 1.400 . S
C275 C276 1.398 . S
C275 C281 1.491 . S
C276 H267 0.950 . S
C276 C275 1.398 . S
C276 C277 1.391 . S
C277 H265 0.950 . S
C277 C273 1.393 . S
C277 C276 1.391 . S
C278 H268 0.950 . S
C278 C279 1.386 . S
C278 C280 1.391 . S
C279 C278 1.386 . S
C279 C283 1.393 . S
C280 H269 0.950 . S
C280 C278 1.391 . S
C280 C281 1.400 . S
C281 C275 1.491 . S
C281 C280 1.400 . S
C281 C282 1.398 . S
C282 H270 0.950 . S
C282 C281 1.398 . S
C282 C283 1.391 . S
C283 H271 0.950 . S
C283 C279 1.393 . S
C283 C282 1.391 . S
H284 C292 0.950 . S
H285 C297 0.950 . S
H286 C294 0.950 . S
H287 C296 0.950 . S
H288 C298 0.950 . S
H289 C300 0.950 . S
H290 C302 0.950 . S
H291 C303 0.950 . S
C292 H284 0.950 . S
C292 C293 1.386 . S
C292 C294 1.391 . S
C293 C292 1.386 . S
C293 C297 1.393 . S
C294 H286 0.950 . S
C294 C292 1.391 . S
C294 C295 1.400 . S
C295 C294 1.400 . S
C295 C296 1.398 . S
C295 C301 1.491 . S
C296 H287 0.950 . S
C296 C295 1.398 . S
C296 C297 1.391 . S
C297 H285 0.950 . S
C297 C293 1.393 . S
C297 C296 1.391 . S
C298 H288 0.950 . S
C298 C299 1.386 . S
C298 C300 1.391 . S
C299 C298 1.386 . S
C299 C303 1.393 . S
C300 H289 0.950 . S
C300 C298 1.391 . S
C300 C301 1.400 . S
C301 C295 1.491 . S
C301 C300 1.400 . S
C301 C302 1.398 . S
C302 H290 0.950 . S
C302 C301 1.398 . S
C302 C303 1.391 . S
C303 H291 0.950 . S
C303 C299 1.393 . S
C303 C302 1.391 . S
H304 C312 0.950 . S
H305 C317 0.950 . S
H306 C314 0.950 . S
H307 C316 0.950 . S
H308 C318 0.950 . S
H309 C320 0.950 . S
H310 C322 0.950 . S
H311 C323 0.950 . S
C312 H304 0.950 . S
C312 C313 1.386 . S
C312 C314 1.391 . S
C313 C312 1.386 . S
C313 C317 1.393 . S
C314 H306 0.950 . S
C314 C312 1.391 . S
C314 C315 1.400 . S
C315 C314 1.400 . S
C315 C316 1.398 . S
C315 C321 1.491 . S
C316 H307 0.950 . S
C316 C315 1.398 . S
C316 C317 1.391 . S
C317 H305 0.950 . S
C317 C313 1.393 . S
C317 C316 1.391 . S
C318 H308 0.950 . S
C318 C319 1.386 . S
C318 C320 1.391 . S
C319 C318 1.386 . S
C319 C323 1.393 . S
C320 H309 0.950 . S
C320 C318 1.391 . S
C320 C321 1.400 . S
C321 C315 1.491 . S
C321 C320 1.400 . S
C321 C322 1.398 . S
C322 H310 0.950 . S
C322 C321 1.398 . S
C322 C323 1.391 . S
C323 H311 0.950 . S
C323 C319 1.393 . S
C323 C322 1.391 . S
H324 C332 0.950 . S
H325 C337 0.950 . S
H326 C334 0.950 . S
H327 C336 0.950 . S
H328 C338 0.950 . S
H329 C340 0.950 . S
H330 C342 0.950 . S
H331 C343 0.950 . S
C332 H324 0.950 . S
C332 C333 1.386 . S
C332 C334 1.391 . S
C333 C332 1.386 . S
C333 C337 1.393 . S
C334 H326 0.950 . S
C334 C332 1.391 . S
C334 C335 1.400 . S
C335 C334 1.400 . S
C335 C336 1.398 . S
C335 C341 1.491 . S
C336 H327 0.950 . S
C336 C335 1.398 . S
C336 C337 1.391 . S
C337 H325 0.950 . S
C337 C333 1.393 . S
C337 C336 1.391 . S
C338 H328 0.950 . S
C338 C339 1.386 . S
C338 C340 1.391 . S
C339 C338 1.386 . S
C339 C343 1.393 . S
C340 H329 0.950 . S
C340 C338 1.391 . S
C340 C341 1.400 . S
C341 C335 1.491 . S
C341 C340 1.400 . S
C341 C342 1.398 . S
C342 H330 0.950 . S
C342 C341 1.398 . S
C342 C343 1.391 . S
C343 H331 0.950 . S
C343 C339 1.393 . S
C343 C342 1.391 . S
H344 C352 0.950 . S
H345 C357 0.950 . S
H346 C354 0.950 . S
H347 C356 0.950 . S
H348 C358 0.950 . S
H349 C360 0.950 . S
H350 C362 0.950 . S
H351 C363 0.950 . S
C352 H344 0.950 . S
C352 C353 1.386 . S
C352 C354 1.391 . S
C353 C352 1.386 . S
C353 C357 1.393 . S
C354 H346 0.950 . S
C354 C352 1.391 . S
C354 C355 1.400 . S
C355 C354 1.400 . S
C355 C356 1.398 . S
C355 C361 1.491 . S
C356 H347 0.950 . S
C356 C355 1.398 . S
C356 C357 1.391 . S
C357 H345 0.950 . S
C357 C353 1.393 . S
C357 C356 1.391 . S
C358 H348 0.950 . S
C358 C359 1.386 . S
C358 C360 1.391 . S
C359 C358 1.386 . S
C359 C363 1.393 . S
C360 H349 0.950 . S
C360 C358 1.391 . S
C360 C361 1.400 . S
C361 C355 1.491 . S
C361 C360 1.400 . S
C361 C362 1.398 . S
C362 H350 0.950 . S
C362 C361 1.398 . S
C362 C363 1.391 . S
C363 H351 0.950 . S
C363 C359 1.393 . S
C363 C362 1.391 . S
H364 C372 0.950 . S
H365 C377 0.950 . S
H366 C374 0.950 . S
H367 C376 0.950 . S
H368 C378 0.950 . S
H369 C380 0.950 . S
H370 C382 0.950 . S
H371 C383 0.950 . S
C372 H364 0.950 . S
C372 C373 1.386 . S
C372 C374 1.391 . S
C373 C372 1.386 . S
C373 C377 1.393 . S
C374 H366 0.950 . S
C374 C372 1.391 . S
C374 C375 1.400 . S
C375 C374 1.400 . S
C375 C376 1.398 . S
C375 C381 1.491 . S
C376 H367 0.950 . S
C376 C375 1.398 . S
C376 C377 1.391 . S
C377 H365 0.950 . S
C377 C373 1.393 . S
C377 C376 1.391 . S
C378 H368 0.950 . S
C378 C379 1.386 . S
C378 C380 1.391 . S
C379 C378 1.386 . S
C379 C383 1.393 . S
C380 H369 0.950 . S
C380 C378 1.391 . S
C380 C381 1.400 . S
C381 C375 1.491 . S
C381 C380 1.400 . S
C381 C382 1.398 . S
C382 H370 0.950 . S
C382 C381 1.398 . S
C382 C383 1.391 . S
C383 H371 0.950 . S
C383 C379 1.393 . S
C383 C382 1.391 . S
H384 C392 0.950 . S
H385 C397 0.950 . S
H386 C394 0.950 . S
H387 C396 0.950 . S
H388 C398 0.950 . S
H389 C400 0.950 . S
H390 C402 0.950 . S
H391 C403 0.950 . S
C392 H384 0.950 . S
C392 C393 1.386 . S
C392 C394 1.391 . S
C393 C392 1.386 . S
C393 C397 1.393 . S
C394 H386 0.950 . S
C394 C392 1.391 . S
C394 C395 1.400 . S
C395 C394 1.400 . S
C395 C396 1.398 . S
C395 C401 1.491 . S
C396 H387 0.950 . S
C396 C395 1.398 . S
C396 C397 1.391 . S
C397 H385 0.950 . S
C397 C393 1.393 . S
C397 C396 1.391 . S
C398 H388 0.950 . S
C398 C399 1.386 . S
C398 C400 1.391 . S
C399 C398 1.386 . S
C399 C403 1.393 . S
C400 H389 0.950 . S
C400 C398 1.391 . S
C400 C401 1.400 . S
C401 C395 1.491 . S
C401 C400 1.400 . S
C401 C402 1.398 . S
C402 H390 0.950 . S
C402 C401 1.398 . S
C402 C403 1.391 . S
C403 H391 0.950 . S
C403 C399 1.393 . S
C403 C402 1.391 . S
H404 C412 0.950 . S
H405 C417 0.950 . S
H406 C414 0.950 . S
H407 C416 0.950 . S
H408 C418 0.950 . S
H409 C420 0.950 . S
H410 C422 0.950 . S
H411 C423 0.950 . S
C412 H404 0.950 . S
C412 C413 1.386 . S
C412 C414 1.391 . S
C413 C412 1.386 . S
C413 C417 1.393 . S
C414 H406 0.950 . S
C414 C412 1.391 . S
C414 C415 1.400 . S
C415 C414 1.400 . S
C415 C416 1.398 . S
C415 C421 1.491 . S
C416 H407 0.950 . S
C416 C415 1.398 . S
C416 C417 1.391 . S
C417 H405 0.950 . S
C417 C413 1.393 . S
C417 C416 1.391 . S
C418 H408 0.950 . S
C418 C419 1.386 . S
C418 C420 1.391 . S
C419 C418 1.386 . S
C419 C423 1.393 . S
C420 H409 0.950 . S
C420 C418 1.391 . S
C420 C421 1.400 . S
C421 C415 1.491 . S
C421 C420 1.400 . S
C421 C422 1.398 . S
C422 H410 0.950 . S
C422 C421 1.398 . S
C422 C423 1.391 . S
C423 H411 0.950 . S
C423 C419 1.393 . S
C423 C422 1.391 . S
H424 C432 0.950 . S
H425 C437 0.950 . S
H426 C434 0.950 . S
H427 C436 0.950 . S
H428 C438 0.950 . S
H429 C440 0.950 . S
H430 C442 0.950 . S
H431 C443 0.950 . S
C432 H424 0.950 . S
C432 C433 1.386 . S
C432 C434 1.391 . S
C433 C432 1.386 . S
C433 C437 1.393 . S
C434 H426 0.950 . S
C434 C432 1.391 . S
C434 C435 1.400 . S
C435 C434 1.400 . S
C435 C436 1.398 . S
C435 C441 1.491 . S
C436 H427 0.950 . S
C436 C435 1.398 . S
C436 C437 1.391 . S
C437 H425 0.950 . S
C437 C433 1.393 . S
C437 C436 1.391 . S
C438 H428 0.950 . S
C438 C439 1.386 . S
C438 C440 1.391 . S
C439 C438 1.386 . S
C439 C443 1.393 . S
C440 H429 0.950 . S
C440 C438 1.391 . S
C440 C441 1.400 . S
C441 C435 1.491 . S
C441 C440 1.400 . S
C441 C442 1.398 . S
C442 H430 0.950 . S
C442 C441 1.398 . S
C442 C443 1.391 . S
C443 H431 0.950 . S
C443 C439 1.393 . S
C443 C442 1.391 . S
H444 C452 0.950 . S
H445 C457 0.950 . S
H446 C454 0.950 . S
H447 C456 0.950 . S
H448 C458 0.950 . S
H449 C460 0.950 . S
H450 C462 0.950 . S
H451 C463 0.950 . S
C452 H444 0.950 . S
C452 C453 1.386 . S
C452 C454 1.391 . S
C453 C452 1.386 . S
C453 C457 1.393 . S
C454 H446 0.950 . S
C454 C452 1.391 . S
C454 C455 1.400 . S
C455 C454 1.400 . S
C455 C456 1.398 . S
C455 C461 1.491 . S
C456 H447 0.950 . S
C456 C455 1.398 . S
C456 C457 1.391 . S
C457 H445 0.950 . S
C457 C453 1.393 . S
C457 C456 1.391 . S
C458 H448 0.950 . S
C458 C459 1.386 . S
C458 C460 1.391 . S
C459 C458 1.386 . S
C459 C463 1.393 . S
C460 H449 0.950 . S
C460 C458 1.391 . S
C460 C461 1.400 . S
C461 C455 1.491 . S
C461 C460 1.400 . S
C461 C462 1.398 . S
C462 H450 0.950 . S
C462 C461 1.398 . S
C462 C463 1.391 . S
C463 H451 0.950 . S
C463 C459 1.393 . S
C463 C462 1.391 . S
H464 C472 0.950 . S
H465 C477 0.950 . S
H466 C474 0.950 . S
H467 C476 0.950 . S
H468 C478 0.950 . S
H469 C480 0.950 . S
H470 C482 0.950 . S
H471 C483 0.950 . S
C472 H464 0.950 . S
C472 C473 1.386 . S
C472 C474 1.391 . S
C473 C472 1.386 . S
C473 C477 1.393 . S
C474 H466 0.950 . S
C474 C472 1.391 . S
C474 C475 1.400 . S
C475 C474 1.400 . S
C475 C476 1.398 . S
C475 C481 1.491 . S
C476 H467 0.950 . S
C476 C475 1.398 . S
C476 C477 1.391 . S
C477 H465 0.950 . S
C477 C473 1.393 . S
C477 C476 1.391 . S
C478 H468 0.950 . S
C478 C479 1.386 . S
C478 C480 1.391 . S
C479 C478 1.386 . S
C479 C483 1.393 . S
C480 H469 0.950 . S
C480 C478 1.391 . S
C480 C481 1.400 . S
C481 C475 1.491 . S
C481 C480 1.400 . S
C481 C482 1.398 . S
C482 H470 0.950 . S
C482 C481 1.398 . S
C482 C483 1.391 . S
C483 H471 0.950 . S
C483 C479 1.393 . S
C483 C482 1.391 . S
H484 C492 0.950 . S
H485 C497 0.950 . S
H486 C494 0.950 . S
H487 C496 0.950 . S
H488 C498 0.950 . S
H489 C500 0.950 . S
H490 C502 0.950 . S
H491 C503 0.950 . S
C492 H484 0.950 . S
C492 C493 1.386 . S
C492 C494 1.391 . S
C493 C492 1.386 . S
C493 C497 1.393 . S
C494 H486 0.950 . S
C494 C492 1.391 . S
C494 C495 1.400 . S
C495 C494 1.400 . S
C495 C496 1.398 . S
C495 C501 1.491 . S
C496 H487 0.950 . S
C496 C495 1.398 . S
C496 C497 1.391 . S
C497 H485 0.950 . S
C497 C493 1.393 . S
C497 C496 1.391 . S
C498 H488 0.950 . S
C498 C499 1.386 . S
C498 C500 1.391 . S
C499 C498 1.386 . S
C499 C503 1.393 . S
C500 H489 0.950 . S
C500 C498 1.391 . S
C500 C501 1.400 . S
C501 C495 1.491 . S
C501 C500 1.400 . S
C501 C502 1.398 . S
C502 H490 0.950 . S
C502 C501 1.398 . S
C502 C503 1.391 . S
C503 H491 0.950 . S
C503 C499 1.393 . S
C503 C502 1.391 . S
H504 C512 0.950 . S
H505 C517 0.950 . S
H506 C514 0.950 . S
H507 C516 0.950 . S
H508 C518 0.950 . S
H509 C520 0.950 . S
H510 C522 0.950 . S
H511 C523 0.950 . S
C512 H504 0.950 . S
C512 C513 1.386 . S
C512 C514 1.391 . S
C513 C512 1.386 . S
C513 C517 1.393 . S
C514 H506 0.950 . S
C514 C512 1.391 . S
C514 C515 1.400 . S
C515 C514 1.400 . S
C515 C516 1.398 . S
C515 C521 1.491 . S
C516 H507 0.950 . S
C516 C515 1.398 . S
C516 C517 1.391 . S
C517 H505 0.950 . S
C517 C513 1.393 . S
C517 C516 1.391 . S
C518 H508 0.950 . S
C518 C519 1.386 . S
C518 C520 1.391 . S
C519 C518 1.386 . S
C519 C523 1.393 . S
C520 H509 0.950 . S
C520 C518 1.391 . S
C520 C521 1.400 . S
C521 C515 1.491 . S
C521 C520 1.400 . S
C521 C522 1.398 . S
C522 H510 0.950 . S
C522 C521 1.398 . S
C522 C523 1.391 . S
C523 H511 0.950 . S
C523 C519 1.393 . S
C523 C522 1.391 . S
H524 C532 0.950 . S
H525 C537 0.950 . S
H526 C534 0.950 . S
H527 C536 0.950 . S
H528 C538 0.950 . S
H529 C540 0.950 . S
H530 C542 0.950 . S
H531 C543 0.950 . S
C532 H524 0.950 . S
C532 C533 1.386 . S
C532 C534 1.391 . S
C533 C532 1.386 . S
C533 C537 1.393 . S
C534 H526 0.950 . S
C534 C532 1.391 . S
C534 C535 1.400 . S
C535 C534 1.400 . S
C535 C536 1.398 . S
C535 C541 1.491 . S
C536 H527 0.950 . S
C536 C535 1.398 . S
C536 C537 1.391 . S
C537 H525 0.950 . S
C537 C533 1.393 . S
C537 C536 1.391 . S
C538 H528 0.950 . S
C538 C539 1.386 . S
C538 C540 1.391 . S
C539 C538 1.386 . S
C539 C543 1.393 . S
C540 H529 0.950 . S
C540 C538 1.391 . S
C540 C541 1.400 . S
C541 C535 1.491 . S
C541 C540 1.400 . S
C541 C542 1.398 . S
C542 H530 0.950 . S
C542 C541 1.398 . S
C542 C543 1.391 . S
C543 H531 0.950 . S
C543 C539 1.393 . S
C543 C542 1.391 . S
H544 C552 0.950 . S
H545 C557 0.950 . S
H546 C554 0.950 . S
H547 C556 0.950 . S
H548 C558 0.950 . S
H549 C560 0.950 . S
H550 C562 0.950 . S
H551 C563 0.950 . S
C552 H544 0.950 . S
C552 C553 1.386 . S
C552 C554 1.391 . S
C553 C552 1.386 . S
C553 C557 1.393 . S
C554 H546 0.950 . S
C554 C552 1.391 . S
C554 C555 1.400 . S
C555 C554 1.400 . S
C555 C556 1.398 . S
C555 C561 1.491 . S
C556 H547 0.950 . S
C556 C555 1.398 . S
C556 C557 1.391 . S
C557 H545 0.950 . S
C557 C553 1.393 . S
C557 C556 1.391 . S
C558 H548 0.950 . S
C558 C559 1.386 . S
C558 C560 1.391 . S
C559 C558 1.386 . S
C559 C563 1.393 . S
C560 H549 0.950 . S
C560 C558 1.391 . S
C560 C561 1.400 . S
C561 C555 1.491 . S
C561 C560 1.400 . S
C561 C562 1.398 . S
C562 H550 0.950 . S
C562 C561 1.398 . S
C562 C563 1.391 . S
C563 H551 0.950 . S
C563 C559 1.393 . S
C563 C562 1.391 . S
H564 C572 0.950 . S
H565 C577 0.950 . S
H566 C574 0.950 . S
H567 C576 0.950 . S
H568 C578 0.950 . S
H569 C580 0.950 . S
H570 C582 0.950 . S
H571 C583 0.950 . S
C572 H564 0.950 . S
C572 C573 1.386 . S
C572 C574 1.391 . S
C573 C572 1.386 . S
C573 C577 1.393 . S
C574 H566 0.950 . S
C574 C572 1.391 . S
C574 C575 1.400 . S
C575 C574 1.400 . S
C575 C576 1.398 . S
C575 C581 1.491 . S
C576 H567 0.950 . S
C576 C575 1.398 . S
C576 C577 1.391 . S
C577 H565 0.950 . S
C577 C573 1.393 . S
C577 C576 1.391 . S
C578 H568 0.950 . S
C578 C579 1.386 . S
C578 C580 1.391 . S
C579 C578 1.386 . S
C579 C583 1.393 . S
C580 H569 0.950 . S
C580 C578 1.391 . S
C580 C581 1.400 . S
C581 C575 1.491 . S
C581 C580 1.400 . S
C581 C582 1.398 . S
C582 H570 0.950 . S
C582 C581 1.398 . S
C582 C583 1.391 . S
C583 H571 0.950 . S
C583 C579 1.393 . S
C583 C582 1.391 . S
H584 C592 0.950 . S
H585 C597 0.950 . S
H586 C594 0.950 . S
H587 C596 0.950 . S
H588 C598 0.950 . S
H589 C600 0.950 . S
H590 C602 0.950 . S
H591 C603 0.950 . S
C592 H584 0.950 . S
C592 C593 1.386 . S
C592 C594 1.391 . S
C593 C592 1.386 . S
C593 C597 1.393 . S
C594 H586 0.950 . S
C594 C592 1.391 . S
C594 C595 1.400 . S
C595 C594 1.400 . S
C595 C596 1.398 . S
C595 C601 1.491 . S
C596 H587 0.950 . S
C596 C595 1.398 . S
C596 C597 1.391 . S
C597 H585 0.950 . S
C597 C593 1.393 . S
C597 C596 1.391 . S
C598 H588 0.950 . S
C598 C599 1.386 . S
C598 C600 1.391 . S
C599 C598 1.386 . S
C599 C603 1.393 . S
C600 H589 0.950 . S
C600 C598 1.391 . S
C600 C601 1.400 . S
C601 C595 1.491 . S
C601 C600 1.400 . S
C601 C602 1.398 . S
C602 H590 0.950 . S
C602 C601 1.398 . S
C602 C603 1.391 . S
C603 H591 0.950 . S
C603 C599 1.393 . S
C603 C602 1.391 . S
H604 C612 0.950 . S
H605 C617 0.950 . S
H606 C614 0.950 . S
H607 C616 0.950 . S
H608 C618 0.950 . S
H609 C620 0.950 . S
H610 C622 0.950 . S
H611 C623 0.950 . S
C612 H604 0.950 . S
C612 C613 1.386 . S
C612 C614 1.391 . S
C613 C612 1.386 . S
C613 C617 1.393 . S
C614 H606 0.950 . S
C614 C612 1.391 . S
C614 C615 1.400 . S
C615 C614 1.400 . S
C615 C616 1.398 . S
C615 C621 1.491 . S
C616 H607 0.950 . S
C616 C615 1.398 . S
C616 C617 1.391 . S
C617 H605 0.950 . S
C617 C613 1.393 . S
C617 C616 1.391 . S
C618 H608 0.950 . S
C618 C619 1.386 . S
C618 C620 1.391 . S
C619 C618 1.386 . S
C619 C623 1.393 . S
C620 H609 0.950 . S
C620 C618 1.391 . S
C620 C621 1.400 . S
C621 C615 1.491 . S
C621 C620 1.400 . S
C621 C622 1.398 . S
C622 H610 0.950 . S
C622 C621 1.398 . S
C622 C623 1.391 . S
C623 H611 0.950 . S
C623 C619 1.393 . S
C623 C622 1.391 . S
H624 C632 0.950 . S
H625 C637 0.950 . S
H626 C634 0.950 . S
H627 C636 0.950 . S
H628 C638 0.950 . S
H629 C640 0.950 . S
H630 C642 0.950 . S
H631 C643 0.950 . S
C632 H624 0.950 . S
C632 C633 1.386 . S
C632 C634 1.391 . S
C633 C632 1.386 . S
C633 C637 1.393 . S
C634 H626 0.950 . S
C634 C632 1.391 . S
C634 C635 1.400 . S
C635 C634 1.400 . S
C635 C636 1.398 . S
C635 C641 1.491 . S
C636 H627 0.950 . S
C636 C635 1.398 . S
C636 C637 1.391 . S
C637 H625 0.950 . S
C637 C633 1.393 . S
C637 C636 1.391 . S
C638 H628 0.950 . S
C638 C639 1.386 . S
C638 C640 1.391 . S
C639 C638 1.386 . S
C639 C643 1.393 . S
C640 H629 0.950 . S
C640 C638 1.391 . S
C640 C641 1.400 . S
C641 C635 1.491 . S
C641 C640 1.400 . S
C641 C642 1.398 . S
C642 H630 0.950 . S
C642 C641 1.398 . S
C642 C643 1.391 . S
C643 H631 0.950 . S
C643 C639 1.393 . S
C643 C642 1.391 . S
H644 C652 0.950 . S
H645 C657 0.950 . S
H646 C654 0.950 . S
H647 C656 0.950 . S
H648 C658 0.950 . S
H649 C660 0.950 . S
H650 C662 0.950 . S
H651 C663 0.950 . S
C652 H644 0.950 . S
C652 C653 1.386 . S
C652 C654 1.391 . S
C653 C652 1.386 . S
C653 C657 1.393 . S
C654 H646 0.950 . S
C654 C652 1.391 . S
C654 C655 1.400 . S
C655 C654 1.400 . S
C655 C656 1.398 . S
C655 C661 1.491 . S
C656 H647 0.950 . S
C656 C655 1.398 . S
C656 C657 1.391 . S
C657 H645 0.950 . S
C657 C653 1.393 . S
C657 C656 1.391 . S
C658 H648 0.950 . S
C658 C659 1.386 . S
C658 C660 1.391 . S
C659 C658 1.386 . S
C659 C663 1.393 . S
C660 H649 0.950 . S
C660 C658 1.391 . S
C660 C661 1.400 . S
C661 C655 1.491 . S
C661 C660 1.400 . S
C661 C662 1.398 . S
C662 H650 0.950 . S
C662 C661 1.398 . S
C662 C663 1.391 . S
C663 H651 0.950 . S
C663 C659 1.393 . S
C663 C662 1.391 . S
H664 C672 0.950 . S
H665 C677 0.950 . S
H666 C674 0.950 . S
H667 C676 0.950 . S
H668 C678 0.950 . S
H669 C680 0.950 . S
H670 C682 0.950 . S
H671 C683 0.950 . S
C672 H664 0.950 . S
C672 C673 1.386 . S
C672 C674 1.391 . S
C673 C672 1.386 . S
C673 C677 1.393 . S
C674 H666 0.950 . S
C674 C672 1.391 . S
C674 C675 1.400 . S
C675 C674 1.400 . S
C675 C676 1.398 . S
C675 C681 1.491 . S
C676 H667 0.950 . S
C676 C675 1.398 . S
C676 C677 1.391 . S
C677 H665 0.950 . S
C677 C673 1.393 . S
C677 C676 1.391 . S
C678 H668 0.950 . S
C678 C679 1.386 . S
C678 C680 1.391 . S
C679 C678 1.386 . S
C679 C683 1.393 . S
C680 H669 0.950 . S
C680 C678 1.391 . S
C680 C681 1.400 . S
C681 C675 1.491 . S
C681 C680 1.400 . S
C681 C682 1.398 . S
C682 H670 0.950 . S
C682 C681 1.398 . S
C682 C683 1.391 . S
C683 H671 0.950 . S
C683 C679 1.393 . S
C683 C682 1.391 . S
C213 C12 1.483 . S
C219 C127 1.561 . S
C233 C30 1.462 . S
C239 C140 1.537 . S
C259 C162 1.521 . S
C253 C51 1.474 . S
C279 C175 1.517 . S
C273 C72 1.445 . S
C299 C188 1.529 . S
C293 C96 1.475 . S
C319 C201 1.505 . S
C313 C117 1.461 . S
C333 C38 1.457 . S
C339 C157 1.537 . S
C353 C59 1.464 . S
C359 C170 1.499 . S
C379 C183 1.517 . S
C373 C80 1.468 . S
C399 C196 1.487 . S
C393 C103 1.446 . S
C413 C124 1.476 . S
C419 C129 1.544 . S
C439 C142 1.531 . S
C433 C19 1.473 . S
C459 C168 1.535 . S
C453 C17 1.459 . S
C473 C40 1.479 . S
C479 C181 1.482 . S
C499 C194 1.495 . S
C493 C61 1.492 . S
C513 C82 1.454 . S
C519 C131 1.520 . S
C533 C101 1.466 . S
C539 C144 1.556 . S
C553 C122 1.437 . S
C559 C155 1.505 . S
C573 C33 1.475 . S
C579 C192 1.534 . S
C599 C136 1.546 . S
C593 C54 1.432 . S
C613 C75 1.451 . S
C619 C149 1.567 . S
C633 C93 1.479 . S
C639 C153 1.506 . S
C653 C114 1.506 . S
C659 C166 1.523 . S
C673 C9 1.460 . S
C679 C179 1.522 . S
