# Generated by pormake.
# Topology anh, (6,3)-cn, num edge types: 1
# Building blocks:
#     Node 0, Type 0, BuildingBlock: BETDAH_clean_sbu_0, # of connection points: 6
#     Node 1, Type 0, BuildingBlock: BETDAH_clean_sbu_0, # of connection points: 6
#     Node 2, Type 0, BuildingBlock: BETDAH_clean_sbu_0, # of connection points: 6
#     Node 3, Type 1, BuildingBlock: KAKCAD_clean_linker_0, # of connection points: 3
#     Node 4, Type 1, BuildingBlock: KAKCAD_clean_linker_0, # of connection points: 3
#     Node 5, Type 1, BuildingBlock: KAKCAD_clean_linker_0, # of connection points: 3
#     Node 6, Type 1, BuildingBlock: KAKCAD_clean_linker_0, # of connection points: 3
#     Node 7, Type 1, BuildingBlock: KAKCAD_clean_linker_0, # of connection points: 3
#     Node 8, Type 1, BuildingBlock: KAKCAD_clean_linker_0, # of connection points: 3
#     Edge 9, Type (0, 1), BuildingBlock: TEMPAE_clean_linker_10, # of connection points: 2
#     Edge 10, Type (0, 1), BuildingBlock: TEMPAE_clean_linker_10, # of connection points: 2
#     Edge 11, Type (0, 1), BuildingBlock: TEMPAE_clean_linker_10, # of connection points: 2
#     Edge 12, Type (0, 1), BuildingBlock: TEMPAE_clean_linker_10, # of connection points: 2
#     Edge 13, Type (0, 1), BuildingBlock: TEMPAE_clean_linker_10, # of connection points: 2
#     Edge 14, Type (0, 1), BuildingBlock: TEMPAE_clean_linker_10, # of connection points: 2
#     Edge 15, Type (0, 1), BuildingBlock: TEMPAE_clean_linker_10, # of connection points: 2
#     Edge 16, Type (0, 1), BuildingBlock: TEMPAE_clean_linker_10, # of connection points: 2
#     Edge 17, Type (0, 1), BuildingBlock: TEMPAE_clean_linker_10, # of connection points: 2
#     Edge 18, Type (0, 1), BuildingBlock: TEMPAE_clean_linker_10, # of connection points: 2
#     Edge 19, Type (0, 1), BuildingBlock: TEMPAE_clean_linker_10, # of connection points: 2
#     Edge 20, Type (0, 1), BuildingBlock: TEMPAE_clean_linker_10, # of connection points: 2
#     Edge 21, Type (0, 1), BuildingBlock: TEMPAE_clean_linker_10, # of connection points: 2
#     Edge 22, Type (0, 1), BuildingBlock: TEMPAE_clean_linker_10, # of connection points: 2
#     Edge 23, Type (0, 1), BuildingBlock: TEMPAE_clean_linker_10, # of connection points: 2
#     Edge 24, Type (0, 1), BuildingBlock: TEMPAE_clean_linker_10, # of connection points: 2
#     Edge 25, Type (0, 1), BuildingBlock: TEMPAE_clean_linker_10, # of connection points: 2
#     Edge 26, Type (0, 1), BuildingBlock: TEMPAE_clean_linker_10, # of connection points: 2
# Relax obj value: 0.180
# Max RMSD: 0.210
# Mean RMSD: 0.156
data_MOF--net-anh--node1-BETDAH_clean_sbu_0--node2-KAKCAD_clean_linker_0--edge1-TEMPAE_clean_linker_10
_symmetry_space_group_name_H-M    P1
_symmetry_Int_Tables_number       1
_symmetry_cell_setting            triclinic
loop_
_symmetry_equiv_pos_as_xyz
'x, y, z'
_cell_length_a     37.15796
_cell_length_b     43.844606
_cell_length_c     67.083997
_cell_angle_alpha  92.345045
_cell_angle_beta   89.517169
_cell_angle_gamma 127.91805
loop_
_atom_site_label
_atom_site_type_symbol
_atom_site_fract_x
_atom_site_fract_y
_atom_site_fract_z
_atom_type_partial_charge
Ho0 Ho 0.14533 0.55678 0.14751 0.0
Ho1 Ho 0.08706 0.57969 0.16173 0.0
C2 C 0.18942 0.64711 0.15477 0.0
C3 C 0.20008 0.54586 0.13132 0.0
C4 C 0.20189 0.5134 0.13102 0.0
C5 C 0.24203 0.51928 0.1255 0.0
C6 C 0.24448 0.48878 0.12564 0.0
C7 C 0.20668 0.4518 0.13123 0.0
C8 C 0.1665 0.44612 0.13688 0.0
C9 C 0.16417 0.47674 0.13681 0.0
C10 C 0.13262 0.55452 0.18713 0.0
C11 C 1.04092 0.48771 0.15382 0.0
C12 C 1.02578 0.57981 0.17961 0.0
C13 C 0.97642 0.55057 0.17623 0.0
C14 C 0.9457 0.54055 0.19163 0.0
C15 C 0.89943 0.50906 0.18881 0.0
C16 C 0.88354 0.48717 0.17059 0.0
C17 C 0.91465 0.49745 0.15528 0.0
C18 C 0.96051 0.52879 0.15807 0.0
C19 C 0.0954 0.57848 0.12172 0.0
O20 O 0.18798 0.62134 0.14298 0.0
O21 O 0.1558 0.63645 0.16695 0.0
O22 O 0.16534 0.53948 0.12182 0.0
O23 O 0.20809 0.56365 0.14872 0.0
O24 O 0.1344 0.52979 0.17691 0.0
O25 O 0.14003 0.58034 0.17611 0.0
O26 O 1.03833 0.5144 0.16176 0.0
O27 O 0.0786 0.49698 0.14544 0.0
O28 O 1.04839 0.60149 0.16453 0.0
O29 O 1.04529 0.56644 0.18756 0.0
O30 O 0.09179 0.60256 0.13151 0.0
O31 O 0.09087 0.55464 0.1334 0.0
H32 H 0.27158 0.54753 0.12122 0.0
H33 H 0.27624 0.49431 0.12159 0.0
H34 H 0.13675 0.41797 0.14112 0.0
H35 H 0.13296 0.47183 0.14127 0.0
H36 H 0.9576 0.55654 0.20589 0.0
H37 H 0.87613 0.50188 0.20083 0.0
H38 H 0.90374 0.48069 0.14126 0.0
H39 H 0.98388 0.53529 0.14617 0.0
Ho40 Ho 0.63855 0.03987 0.47816 0.0
Ho41 Ho 0.57652 0.06167 0.47245 0.0
C42 C 0.52962 0.97281 0.47263 0.0
C43 C 0.67844 0.01025 0.4874 0.0
C44 C 0.66565 0.97248 0.4925 0.0
C45 C 0.62558 0.94565 0.50277 0.0
C46 C 0.61474 0.91009 0.50753 0.0
C47 C 0.64378 0.90082 0.50205 0.0
C48 C 0.68336 0.92761 0.49142 0.0
C49 C 0.69417 0.96308 0.48674 0.0
C50 C 0.63088 0.05447 0.44046 0.0
C51 C 0.68687 0.12971 0.47847 0.0
C52 C 0.53915 0.09224 0.4612 0.0
C53 C 0.54552 0.12841 0.46658 0.0
C54 C 0.58506 0.16481 0.46142 0.0
C55 C 0.59097 0.19866 0.46728 0.0
C56 C 0.55762 0.19692 0.47851 0.0
C57 C 0.51794 0.16041 0.48345 0.0
C58 C 0.51187 0.12661 0.47745 0.0
C59 C 0.58519 0.04992 0.51073 0.0
O60 O 0.56769 0.9837 0.48159 0.0
O61 O 0.52725 0.99833 0.46429 0.0
O62 O 0.66925 0.01275 0.46909 0.0
O63 O 0.66933 0.02757 0.50039 0.0
O64 O 0.66847 0.06447 0.4485 0.0
O65 O 0.59858 0.03575 0.45246 0.0
O66 O 0.64665 0.11973 0.47296 0.0
O67 O 0.69214 0.10375 0.48337 0.0
O68 O 0.5225 0.06696 0.47507 0.0
O69 O 0.57198 0.09547 0.45151 0.0
O70 O 0.54858 0.04238 0.503 0.0
O71 O 0.61683 0.06648 0.49827 0.0
H72 H 0.60291 0.95229 0.50724 0.0
H73 H 0.58416 0.89024 0.51584 0.0
H74 H 0.70599 0.92114 0.48662 0.0
H75 H 0.72499 0.98327 0.47862 0.0
H76 H 0.61164 0.16728 0.45297 0.0
H77 H 0.62167 0.22617 0.46295 0.0
H78 H 0.49184 0.15786 0.49236 0.0
H79 H 0.48103 0.09898 0.4816 0.0
Ho80 Ho 0.61528 0.56336 0.85197 0.0
Ho81 Ho 0.54983 0.47546 0.85218 0.0
C82 C 0.50487 0.51829 0.85296 0.0
C83 C 0.65938 0.63614 0.84603 0.0
C84 C 0.64976 0.66242 0.84002 0.0
C85 C 0.61335 0.64999 0.82694 0.0
C86 C 0.60589 0.67607 0.82116 0.0
C87 C 0.6346 0.71493 0.82843 0.0
C88 C 0.67037 0.72682 0.84186 0.0
C89 C 0.6779 0.70085 0.84754 0.0
C90 C 0.60015 0.53209 0.88773 0.0
C91 C 0.66148 0.52109 0.8503 0.0
C92 C 0.50955 0.40433 0.8607 0.0
C93 C 0.51869 0.37671 0.85591 0.0
C94 C 0.4925 0.34043 0.86436 0.0
C95 C 0.50037 0.31369 0.8594 0.0
C96 C 0.53476 0.32296 0.84596 0.0
C97 C 0.56143 0.35973 0.8378 0.0
C98 C 0.55337 0.38631 0.84269 0.0
C99 C 0.56387 0.50404 0.81574 0.0
O100 O 0.54526 0.5488 0.84694 0.0
O101 O 0.49978 0.48742 0.859 0.0
O102 O 0.6445 0.62125 0.86346 0.0
O103 O 0.65343 0.61112 0.83238 0.0
O104 O 0.63993 0.56188 0.88231 0.0
O105 O 0.5708 0.52143 0.87429 0.0
O106 O 0.61968 0.48835 0.8526 0.0
O107 O 0.66854 0.55432 0.84818 0.0
O108 O 0.49757 0.41437 0.84555 0.0
O109 O 0.53962 0.43388 0.87256 0.0
O110 O 0.52628 0.47174 0.82094 0.0
O111 O 0.59384 0.51724 0.82935 0.0
H112 H 0.591 0.62031 0.82107 0.0
H113 H 0.57823 0.66598 0.8107 0.0
H114 H 0.69256 0.75626 0.84807 0.0
H115 H 0.70591 0.71084 0.85778 0.0
H116 H 0.46576 0.33267 0.87467 0.0
H117 H 0.4796 0.28578 0.86609 0.0
H118 H 0.58778 0.36761 0.82724 0.0
H119 H 0.57378 0.41417 0.83595 0.0
C120 C 0.60826 0.09629 0.2822 0.0
C121 C 0.61137 0.07035 0.29225 0.0
C122 C 0.61072 0.09762 0.26137 0.0
C123 C 0.6155 0.07258 0.25022 0.0
C124 C 0.61897 0.04695 0.26015 0.0
C125 C 0.61744 0.04612 0.28091 0.0
C126 C 0.61555 0.07199 0.22819 0.0
C127 C 0.64913 0.10489 0.21804 0.0
C128 C 0.65094 0.10332 0.19712 0.0
C129 C 0.61801 0.06843 0.18626 0.0
C130 C 0.58434 0.03497 0.19642 0.0
C131 C 0.58332 0.03743 0.21736 0.0
C132 C 0.55079 0.99665 0.18587 0.0
C133 C 0.52593 0.99251 0.16891 0.0
C134 C 0.54055 0.96317 0.19403 0.0
C135 C 0.50452 0.92647 0.18638 0.0
C136 C 0.47797 0.92192 0.17 0.0
C137 C 0.68976 0.13784 0.18725 0.0
C138 C 0.68341 0.16006 0.17556 0.0
C139 C 0.73427 0.15118 0.1916 0.0
C140 C 0.7719 0.18683 0.18506 0.0
C141 C 0.76598 0.21041 0.17429 0.0
C142 C 0.72121 0.19612 0.16917 0.0
C143 C 0.48987 0.95551 0.16105 0.0
H144 H 0.60309 0.1151 0.29035 0.0
H145 H 0.60773 0.11747 0.25394 0.0
H146 H 0.62318 0.02767 0.25181 0.0
H147 H 0.62138 0.02659 0.28804 0.0
H148 H 0.67477 0.13149 0.22647 0.0
H149 H 0.55724 0.01219 0.22539 0.0
H150 H 0.6199 0.06694 0.17016 0.0
H151 H 0.53304 0.01776 0.16226 0.0
H152 H 0.55956 0.96528 0.20688 0.0
H153 H 0.49641 0.90168 0.19397 0.0
H154 H 0.64931 0.15045 0.17223 0.0
H155 H 0.73992 0.13443 0.20058 0.0
H156 H 0.47079 0.95326 0.1482 0.0
H157 H 0.71526 0.21353 0.16103 0.0
H158 H 0.80573 0.19633 0.18887 0.0
C159 C 0.57349 0.55744 0.65819 0.0
C160 C 0.59716 0.54715 0.6685 0.0
C161 C 0.57272 0.55674 0.63735 0.0
C162 C 0.5963 0.54642 0.6262 0.0
C163 C 0.62062 0.53676 0.63653 0.0
C164 C 0.62072 0.53681 0.65736 0.0
C165 C 0.59563 0.5458 0.60394 0.0
C166 C 0.59517 0.57304 0.5939 0.0
C167 C 0.59428 0.57264 0.57297 0.0
C168 C 0.59532 0.54527 0.56191 0.0
C169 C 0.59584 0.51768 0.57163 0.0
C170 C 0.59534 0.51794 0.59262 0.0
C171 C 0.59624 0.48811 0.56006 0.0
C172 C 0.57028 0.47027 0.54227 0.0
C173 C 0.62164 0.47661 0.56712 0.0
C174 C 0.61991 0.44719 0.55707 0.0
C175 C 0.59319 0.42882 0.53958 0.0
C176 C 0.59232 0.60113 0.56291 0.0
C177 C 0.56159 0.60785 0.56936 0.0
C178 C 0.6223 0.62297 0.54753 0.0
C179 C 0.62275 0.65207 0.53934 0.0
C180 C 0.59299 0.65969 0.54627 0.0
C181 C 0.56178 0.63665 0.5611 0.0
C182 C 0.56894 0.44105 0.5321 0.0
H183 H 0.55547 0.56613 0.66619 0.0
H184 H 0.55306 0.56385 0.63001 0.0
H185 H 0.63985 0.52928 0.62854 0.0
H186 H 0.63877 0.5281 0.66468 0.0
H187 H 0.59645 0.59529 0.60235 0.0
H188 H 0.59364 0.49574 0.60018 0.0
H189 H 0.59551 0.54542 0.54576 0.0
H190 H 0.54988 0.47802 0.53651 0.0
H191 H 0.64287 0.49029 0.58049 0.0
H192 H 0.63952 0.43875 0.563 0.0
H193 H 0.53757 0.59097 0.58097 0.0
H194 H 0.64654 0.61855 0.54236 0.0
H195 H 0.54778 0.42716 0.51872 0.0
H196 H 0.53771 0.64112 0.56648 0.0
H197 H 0.64755 0.6695 0.52809 0.0
C198 C 0.13272 0.56215 0.96071 0.0
C199 C 0.09248 0.54762 0.97123 0.0
C200 C 0.13191 0.55818 0.93989 0.0
C201 C 0.09059 0.53823 0.92888 0.0
C202 C 1.05024 0.52281 0.93946 0.0
C203 C 1.05131 0.52817 0.96016 0.0
C204 C 0.08936 0.53358 0.90656 0.0
C205 C 0.12155 0.532 0.89651 0.0
C206 C 0.12103 0.52786 0.87558 0.0
C207 C 0.08523 0.52314 0.86442 0.0
C208 C 1.05177 0.52398 0.87441 0.0
C209 C 1.05556 0.53042 0.89521 0.0
C210 C 1.01104 0.51732 0.86454 0.0
C211 C 1.0154 0.54542 0.85289 0.0
C212 C 0.96712 0.48722 0.87112 0.0
C213 C 0.92942 0.48643 0.86732 0.0
C214 C 0.93398 0.5156 0.85667 0.0
C215 C 0.15943 0.52935 0.86662 0.0
C216 C 0.20482 0.5617 0.87129 0.0
C217 C 0.15216 0.49651 0.85734 0.0
C218 C 0.1891 0.49556 0.85375 0.0
C219 C 0.23435 0.52731 0.85949 0.0
C220 C 0.24149 0.56076 0.86776 0.0
C221 C 0.97728 0.54439 0.84886 0.0
H222 H 0.16515 0.57655 0.96847 0.0
H223 H 0.16402 0.57118 0.93252 0.0
H224 H 1.01735 0.5063 0.93186 0.0
H225 H 1.01951 0.51716 0.96735 0.0
H226 H 0.1473 0.53349 0.905 0.0
H227 H 1.03149 0.53309 0.90257 0.0
H228 H 0.08348 0.51895 0.84833 0.0
H229 H 1.04876 0.56955 0.848 0.0
H230 H 0.96249 0.46541 0.88037 0.0
H231 H 0.89674 0.46343 0.87332 0.0
H232 H 0.21181 0.58737 0.87862 0.0
H233 H 0.1177 0.47077 0.85394 0.0
H234 H 0.98233 0.56743 0.84063 0.0
H235 H 0.27556 0.58619 0.87201 0.0
H236 H 0.18184 0.46915 0.84741 0.0
C237 C 0.07057 0.54313 0.34736 0.0
C238 C 0.1077 0.54969 0.33697 0.0
C239 C 0.06894 0.54135 0.36814 0.0
C240 C 0.10471 0.54674 0.37899 0.0
C241 C 0.14168 0.55313 0.36872 0.0
C242 C 0.14296 0.55421 0.34794 0.0
C243 C 0.10417 0.54677 0.40104 0.0
C244 C 0.06658 0.51583 0.41091 0.0
C245 C 0.06581 0.51563 0.4319 0.0
C246 C 0.10331 0.5477 0.44301 0.0
C247 C 0.14124 0.57893 0.43313 0.0
C248 C 0.14143 0.57793 0.41221 0.0
C249 C 0.18087 0.61372 0.44402 0.0
C250 C 0.17582 0.63842 0.45539 0.0
C251 C 0.22496 0.62575 0.44019 0.0
C252 C 0.26331 0.66265 0.44656 0.0
C253 C 0.25849 0.6887 0.45665 0.0
C254 C 1.02635 0.48087 0.4417 0.0
C255 C 0.9818 0.46181 0.43407 0.0
C256 C 1.03308 0.46407 0.45721 0.0
C257 C 0.99651 0.42791 0.46403 0.0
C258 C 0.95261 0.40784 0.45541 0.0
C259 C 0.94549 0.42573 0.44077 0.0
C260 C 0.21429 0.67565 0.46162 0.0
H261 H 1.04312 0.5401 0.3395 0.0
H262 H 1.04026 0.53672 0.37579 0.0
H263 H 0.16944 0.55697 0.37679 0.0
H264 H 0.17154 0.55834 0.3405 0.0
H265 H 1.03851 0.49123 0.40211 0.0
H266 H 0.17031 0.60215 0.40455 0.0
H267 H 0.10313 0.54834 0.45917 0.0
H268 H 0.14212 0.62994 0.45829 0.0
H269 H 0.22968 0.60715 0.43145 0.0
H270 H 0.29677 0.67129 0.44291 0.0
H271 H 0.97521 0.4743 0.42242 0.0
H272 H 0.06697 0.47785 0.46333 0.0
H273 H 0.20921 0.69492 0.46927 0.0
H274 H 0.91187 0.41136 0.43414 0.0
H275 H 1.00302 0.41481 0.47533 0.0
C276 C 0.59291 1.003 0.66875 0.0
C277 C 0.60801 0.03741 0.65974 0.0
C278 C 0.59015 1.00046 0.68948 0.0
C279 C 0.60428 0.03274 0.70204 0.0
C280 C 0.621 0.06755 0.69304 0.0
C281 C 0.62186 0.0696 0.67231 0.0
C282 C 0.60122 0.03009 0.7243 0.0
C283 C 0.60336 1.0033 0.73392 0.0
C284 C 0.59921 0.99995 0.75472 0.0
C285 C 0.5954 0.02532 0.76625 0.0
C286 C 0.59424 0.05293 0.75704 0.0
C287 C 0.59581 0.05425 0.73612 0.0
C288 C 0.59137 0.08072 0.76895 0.0
C289 C 0.56097 0.06855 0.7848 0.0
C290 C 0.61811 0.11969 0.76389 0.0
C291 C 0.61341 0.14555 0.7739 0.0
C292 C 0.58188 0.13317 0.78926 0.0
C293 C 0.59847 0.96947 0.7641 0.0
C294 C 0.57147 0.93162 0.75557 0.0
C295 C 0.62547 0.97799 0.78112 0.0
C296 C 0.62654 0.94947 0.78904 0.0
C297 C 0.60037 0.91179 0.78016 0.0
C298 C 0.57228 0.90312 0.76353 0.0
C299 C 0.55626 0.09454 0.79487 0.0
H300 H 0.58298 0.97766 0.65989 0.0
H301 H 0.57626 0.97277 0.6955 0.0
H302 H 0.63355 0.09359 0.70192 0.0
H303 H 0.63287 0.09655 0.66628 0.0
H304 H 0.60897 0.98514 0.72537 0.0
H305 H 0.59189 0.07388 0.72912 0.0
H306 H 0.59322 0.02348 0.78233 0.0
H307 H 0.53972 0.03867 0.78898 0.0
H308 H 0.64256 0.13019 0.75203 0.0
H309 H 0.63436 0.1753 0.76951 0.0
H310 H 0.54968 0.92403 0.74265 0.0
H311 H 0.64683 0.00698 0.78794 0.0
H312 H 0.53149 0.08408 0.80658 0.0
H313 H 0.55089 0.87424 0.75659 0.0
H314 H 0.6489 0.95727 0.80174 0.0
C315 C 0.51723 0.34216 0.0107 0.0
C316 C 0.51269 0.3712 0.0075 0.0
C317 C 0.49663 0.31845 0.02704 0.0
C318 C 0.47099 0.32327 0.04045 0.0
C319 C 0.46687 0.35252 0.03724 0.0
C320 C 0.48701 0.37583 0.02094 0.0
C321 C 0.4497 0.29921 0.05821 0.0
C322 C 0.47419 0.292 0.07032 0.0
C323 C 0.45753 0.27526 0.08901 0.0
C324 C 0.41535 0.26541 0.09524 0.0
C325 C 0.39185 0.27423 0.08372 0.0
C326 C 0.40768 0.28871 0.06476 0.0
C327 C 0.35895 0.27842 0.09328 0.0
C328 C 0.32207 0.24912 0.10439 0.0
C329 C 0.36748 0.31431 0.09258 0.0
C330 C 0.34025 0.32106 0.10282 0.0
C331 C 0.30365 0.29213 0.114 0.0
C332 C 0.48806 0.27508 0.1033 0.0
C333 C 0.52128 0.27158 0.09636 0.0
C334 C 0.48825 0.2835 0.12382 0.0
C335 C 0.52284 0.29154 0.13657 0.0
C336 C 0.5591 0.29276 0.12909 0.0
C337 C 0.55671 0.28078 0.10903 0.0
C338 C 0.29407 0.25579 0.1145 0.0
H339 H 0.53706 0.33798 0.00072 0.0
H340 H 0.50055 0.29626 0.02911 0.0
H341 H 0.44848 0.35789 0.04749 0.0
H342 H 0.482 0.39735 0.01882 0.0
H343 H 0.50805 0.30264 0.06591 0.0
H344 H 0.3889 0.29495 0.05583 0.0
H345 H 0.40262 0.25403 0.10983 0.0
H346 H 0.31513 0.22134 0.10527 0.0
H347 H 0.39622 0.33776 0.08454 0.0
H348 H 0.34791 0.34916 0.10204 0.0
H349 H 0.52155 0.26393 0.08084 0.0
H350 H 0.46377 0.28678 0.13 0.0
H351 H 0.26571 0.23306 0.12299 0.0
H352 H 0.58384 0.28118 0.10265 0.0
H353 H 0.52271 0.29939 0.15208 0.0
C354 C 0.19187 0.39383 0.14674 0.0
C355 C 0.2096 0.4195 0.13111 0.0
C356 C 0.19771 0.3651 0.14734 0.0
C357 C 0.22238 0.36247 0.13211 0.0
C358 C 0.23867 0.3873 0.11591 0.0
C359 C 0.23178 0.41525 0.11556 0.0
C360 C 0.17927 0.33887 0.1647 0.0
C361 C 0.26514 0.3855 0.09929 0.0
C362 C 0.29828 0.33399 0.13754 0.0
C363 C 0.27607 0.30119 0.12455 0.0
C364 C 0.27846 0.35204 0.14218 0.0
C365 C 0.23542 0.33668 0.13361 0.0
C366 C 0.21029 0.3006 0.12274 0.0
C367 C 0.23114 0.28324 0.1182 0.0
C368 C 0.30626 0.39017 0.15407 0.0
C369 C 0.16361 0.28264 0.11399 0.0
H370 H 0.17478 0.39701 0.15886 0.0
H371 H 0.24449 0.43431 0.10319 0.0
H372 H 0.16548 0.30898 0.15979 0.0
H373 H 0.20727 0.34976 0.17572 0.0
H374 H 0.152 0.33797 0.17234 0.0
H375 H 0.27411 0.40603 0.08748 0.0
H376 H 0.29718 0.39245 0.10544 0.0
H377 H 0.24496 0.35584 0.09231 0.0
H378 H 0.33298 0.34758 0.14254 0.0
H379 H 0.214 0.25778 0.10817 0.0
H380 H 0.28472 0.39169 0.16494 0.0
H381 H 0.32017 0.41413 0.14379 0.0
H382 H 0.33529 0.39489 0.16226 0.0
H383 H 0.14315 0.28616 0.12457 0.0
H384 H 0.14475 0.25135 0.11005 0.0
H385 H 0.16724 0.29741 0.10021 0.0
C386 C 0.721 0.19973 0.47727 0.0
C387 C 0.7271 0.17126 0.47842 0.0
C388 C 0.75835 0.23884 0.47538 0.0
C389 C 0.80298 0.24983 0.47436 0.0
C390 C 0.80953 0.22143 0.47616 0.0
C391 C 0.77154 0.18253 0.47829 0.0
C392 C 0.7498 0.26818 0.47377 0.0
C393 C 0.85647 0.23185 0.47493 0.0
C394 C 0.88847 0.3391 0.44531 0.0
C395 C 0.91485 0.36741 0.46058 0.0
C396 C 0.8525 0.30075 0.44963 0.0
C397 C 0.84219 0.29035 0.46976 0.0
C398 C 0.86881 0.31873 0.48529 0.0
C399 C 0.90509 0.3569 0.48051 0.0
C400 C 0.82546 0.27136 0.43261 0.0
C401 C 0.85855 0.30888 0.50692 0.0
H402 H 0.68685 0.19141 0.47754 0.0
H403 H 0.7766 0.16075 0.47909 0.0
H404 H 0.77212 0.29302 0.48453 0.0
H405 H 0.75836 0.27967 0.45859 0.0
H406 H 0.71369 0.25559 0.4766 0.0
H407 H 0.85625 0.20705 0.47808 0.0
H408 H 0.86995 0.24154 0.45977 0.0
H409 H 0.88037 0.25625 0.48565 0.0
H410 H 0.89636 0.34691 0.42988 0.0
H411 H 0.92527 0.37871 0.49235 0.0
H412 H 0.78919 0.25958 0.43331 0.0
H413 H 0.8264 0.2467 0.43389 0.0
H414 H 0.83865 0.28387 0.4178 0.0
H415 H 0.82342 0.29854 0.51011 0.0
H416 H 0.8828 0.33406 0.51722 0.0
H417 H 0.85999 0.28501 0.51008 0.0
C418 C 0.58416 0.73277 0.81956 0.0
C419 C 0.62806 0.74328 0.82181 0.0
C420 C 0.57786 0.75939 0.81323 0.0
C421 C 0.61637 0.79749 0.80913 0.0
C422 C 0.66073 0.80834 0.81149 0.0
C423 C 0.66601 0.7811 0.8177 0.0
C424 C 0.53001 0.74671 0.81082 0.0
C425 C 0.70267 0.84866 0.80726 0.0
C426 C 0.60416 0.85693 0.77432 0.0
C427 C 0.6033 0.88189 0.78775 0.0
C428 C 0.60748 0.82888 0.7811 0.0
C429 C 0.61045 0.82583 0.80184 0.0
C430 C 0.60939 0.85074 0.81552 0.0
C431 C 0.60574 0.87841 0.80831 0.0
C432 C 0.60852 0.80289 0.76603 0.0
C433 C 0.61264 0.84843 0.83775 0.0
H434 H 0.55467 0.70379 0.82293 0.0
H435 H 0.70003 0.78934 0.81904 0.0
H436 H 0.52589 0.76563 0.82034 0.0
H437 H 0.52374 0.74969 0.79513 0.0
H438 H 0.50371 0.71622 0.81483 0.0
H439 H 0.73478 0.85284 0.81043 0.0
H440 H 0.7022 0.85454 0.79138 0.0
H441 H 0.70283 0.87038 0.81643 0.0
H442 H 0.6031 0.85979 0.75841 0.0
H443 H 0.60453 0.89721 0.81881 0.0
H444 H 0.58121 0.77209 0.7691 0.0
H445 H 0.64156 0.80792 0.76729 0.0
H446 H 0.60397 0.80787 0.75046 0.0
H447 H 0.58494 0.81877 0.84241 0.0
H448 H 0.61031 0.86928 0.84641 0.0
H449 H 0.64549 0.85448 0.84165 0.0
C450 C 0.81338 0.44895 0.14893 0.0
C451 C 0.8347 0.45389 0.16721 0.0
C452 C 0.76751 0.41773 0.14517 0.0
C453 C 0.74205 0.3908 0.16013 0.0
C454 C 0.76344 0.39512 0.17852 0.0
C455 C 0.80962 0.42679 0.18189 0.0
C456 C 0.74599 0.41423 0.12532 0.0
C457 C 0.73738 0.36684 0.19475 0.0
C458 C 0.61819 0.3459 0.1528 0.0
C459 C 0.60226 0.31243 0.14101 0.0
C460 C 0.6626 0.36979 0.16085 0.0
C461 C 0.69223 0.36042 0.15679 0.0
C462 C 0.6754 0.32507 0.14642 0.0
C463 C 0.63046 0.30137 0.13869 0.0
C464 C 0.67906 0.40706 0.17201 0.0
C465 C 0.70588 0.31386 0.14201 0.0
H466 H 0.83241 0.47005 0.13763 0.0
H467 H 0.82618 0.43018 0.19594 0.0
H468 H 0.72959 0.38513 0.11813 0.0
H469 H 0.71896 0.41757 0.12768 0.0
H470 H 0.7712 0.43636 0.11491 0.0
H471 H 0.76007 0.37189 0.20728 0.0
H472 H 0.71146 0.36954 0.2007 0.0
H473 H 0.71886 0.3367 0.18864 0.0
H474 H 0.59726 0.35525 0.15458 0.0
H475 H 0.61821 0.27515 0.13001 0.0
H476 H 0.70147 0.4317 0.16225 0.0
H477 H 0.69943 0.41202 0.18548 0.0
H478 H 0.65033 0.40712 0.17664 0.0
H479 H 0.72867 0.33099 0.1296 0.0
H480 H 0.68586 0.28266 0.13754 0.0
H481 H 0.72786 0.32035 0.15515 0.0
C482 C 0.49263 0.90332 0.47899 0.0
C483 C 0.48942 0.93113 0.47164 0.0
C484 C 0.45529 0.86371 0.47772 0.0
C485 C 0.41356 0.8515 0.46896 0.0
C486 C 0.40985 0.87947 0.46183 0.0
C487 C 0.44779 0.91888 0.46322 0.0
C488 C 0.46083 0.83488 0.48542 0.0
C489 C 0.36596 0.86769 0.45241 0.0
C490 C 0.33249 0.74941 0.44582 0.0
C491 C 0.29905 0.73005 0.46042 0.0
C492 C 0.37011 0.78864 0.44857 0.0
C493 C 0.37449 0.8094 0.46631 0.0
C494 C 0.34111 0.79011 0.48118 0.0
C495 C 0.30382 0.75069 0.47807 0.0
C496 C 0.40484 0.80805 0.43231 0.0
C497 C 0.34458 0.81124 0.5003 0.0
H498 H 0.52456 0.91238 0.48555 0.0
H499 H 0.44482 0.94007 0.45757 0.0
H500 H 0.43427 0.81668 0.49649 0.0
H501 H 0.45611 0.81524 0.47294 0.0
H502 H 0.49493 0.84914 0.49251 0.0
H503 H 0.36798 0.89303 0.44841 0.0
H504 H 0.35769 0.84928 0.4387 0.0
H505 H 0.33735 0.85019 0.46278 0.0
H506 H 0.32875 0.73411 0.43193 0.0
H507 H 0.27843 0.73599 0.48951 0.0
H508 H 0.43941 0.82121 0.43844 0.0
H509 H 0.40568 0.83178 0.42645 0.0
H510 H 0.39729 0.78755 0.41969 0.0
H511 H 0.37746 0.82393 0.50814 0.0
H512 H 0.31627 0.792 0.51053 0.0
H513 H 0.34409 0.83553 0.49687 0.0
C514 C 0.58597 0.30509 0.83802 0.0
C515 C 0.54177 0.29399 0.83986 0.0
C516 C 0.59304 0.27854 0.83104 0.0
C517 C 0.55499 0.23999 0.8257 0.0
C518 C 0.51029 0.22836 0.828 0.0
C519 C 0.50422 0.25549 0.83507 0.0
C520 C 0.64124 0.292 0.82891 0.0
C521 C 0.46885 0.1876 0.82236 0.0
C522 C 0.57206 0.18452 0.787 0.0
C523 C 0.5748 0.1603 0.7988 0.0
C524 C 0.56568 0.21054 0.79559 0.0
C525 C 0.56195 0.21248 0.81654 0.0
C526 C 0.56454 0.18806 0.82857 0.0
C527 C 0.57081 0.16215 0.81955 0.0
C528 C 0.56277 0.23587 0.7822 0.0
C529 C 0.56087 0.18943 0.85097 0.0
H530 H 0.61512 0.33468 0.84195 0.0
H531 H 0.46999 0.24682 0.83622 0.0
H532 H 0.64567 0.27283 0.8369 0.0
H533 H 0.64809 0.29028 0.81293 0.0
H534 H 0.66699 0.32225 0.8348 0.0
H535 H 0.43646 0.18256 0.82616 0.0
H536 H 0.46848 0.18181 0.80608 0.0
H537 H 0.47022 0.16642 0.83007 0.0
H538 H 0.57434 0.18278 0.77093 0.0
H539 H 0.57326 0.14373 0.82877 0.0
H540 H 0.58988 0.26681 0.78647 0.0
H541 H 0.5295 0.23028 0.78407 0.0
H542 H 0.56641 0.23086 0.7662 0.0
H543 H 0.58818 0.21901 0.85719 0.0
H544 H 0.56363 0.1686 0.85822 0.0
H545 H 0.52775 0.18283 0.85492 0.0
C546 C 0.58907 0.82904 0.50662 0.0
C547 C 0.63374 0.86387 0.50778 0.0
C548 C 0.57954 0.79417 0.51211 0.0
C549 C 0.61554 0.79415 0.51887 0.0
C550 C 0.66067 0.82915 0.51995 0.0
C551 C 0.66916 0.86354 0.51449 0.0
C552 C 0.53096 0.75741 0.51082 0.0
C553 C 0.70002 0.83039 0.5271 0.0
C554 C 0.59265 0.71634 0.55222 0.0
C555 C 0.59595 0.69271 0.53885 0.0
C556 C 0.59743 0.74867 0.54577 0.0
C557 C 0.60616 0.75791 0.52546 0.0
C558 C 0.60868 0.73383 0.51178 0.0
C559 C 0.60348 0.70149 0.51863 0.0
C560 C 0.5945 0.7736 0.56083 0.0
C561 C 0.61799 0.74279 0.49001 0.0
H562 H 0.56158 0.82895 0.50124 0.0
H563 H 0.70364 0.89039 0.51578 0.0
H564 H 0.52877 0.73531 0.50101 0.0
H565 H 0.51971 0.74536 0.52581 0.0
H566 H 0.50698 0.76218 0.50493 0.0
H567 H 0.73329 0.85973 0.52645 0.0
H568 H 0.69456 0.82127 0.54273 0.0
H569 H 0.70186 0.80981 0.51789 0.0
H570 H 0.58758 0.71023 0.56793 0.0
H571 H 0.60546 0.68311 0.50815 0.0
H572 H 0.56931 0.77747 0.55567 0.0
H573 H 0.62804 0.80275 0.56233 0.0
H574 H 0.58454 0.76104 0.57578 0.0
H575 H 0.59286 0.74571 0.4836 0.0
H576 H 0.61652 0.7201 0.48111 0.0
H577 H 0.65232 0.77087 0.48848 0.0
C578 C 0.69549 0.48552 0.84717 0.0
C579 C 0.70162 0.52042 0.85018 0.0
C580 C 0.73287 0.4845 0.8473 0.0
C581 C 0.77796 0.51909 0.85096 0.0
C582 C 0.78431 0.55438 0.85407 0.0
C583 C 0.74642 0.55467 0.85344 0.0
C584 C 0.72399 0.4462 0.84356 0.0
C585 C 0.83121 0.59193 0.85847 0.0
C586 C 0.86766 0.51053 0.87166 0.0
C587 C 0.89431 0.51689 0.85495 0.0
C588 C 0.83033 0.51144 0.87058 0.0
C589 C 0.81816 0.51824 0.85223 0.0
C590 C 0.84478 0.52454 0.83525 0.0
C591 C 0.88262 0.52423 0.83685 0.0
C592 C 0.80409 0.50544 0.88925 0.0
C593 C 0.83297 0.53123 0.81527 0.0
H594 H 0.66132 0.45881 0.84456 0.0
H595 H 0.75191 0.58184 0.85594 0.0
H596 H 0.74488 0.44819 0.83101 0.0
H597 H 0.73429 0.43894 0.85692 0.0
H598 H 0.68748 0.42221 0.84 0.0
H599 H 0.83073 0.61695 0.86048 0.0
H600 H 0.84569 0.58976 0.87225 0.0
H601 H 0.85446 0.59765 0.84616 0.0
H602 H 0.87652 0.50542 0.88582 0.0
H603 H 0.90254 0.52898 0.82379 0.0
H604 H 0.76785 0.47975 0.88701 0.0
H605 H 0.8047 0.53079 0.89247 0.0
H606 H 0.81821 0.50125 0.90246 0.0
H607 H 0.79738 0.50649 0.81083 0.0
H608 H 0.85613 0.53481 0.80338 0.0
H609 H 0.83487 0.5575 0.81633 0.0
C610 C 0.2434 0.71208 0.17213 0.0
C611 C 0.23017 0.6883 0.15478 0.0
C612 C 0.28355 0.75053 0.17285 0.0
C613 C 0.31048 0.76598 0.15561 0.0
C614 C 0.29632 0.74249 0.13781 0.0
C615 C 0.25671 0.70372 0.1377 0.0
C616 C 0.2979 0.77422 0.19227 0.0
C617 C 0.32323 0.75818 0.11895 0.0
C618 C 0.39623 0.87604 0.1574 0.0
C619 C 0.43653 0.88232 0.16343 0.0
C620 C 0.35546 0.83836 0.15374 0.0
C621 C 0.35454 0.80607 0.15664 0.0
C622 C 0.3954 0.81218 0.16191 0.0
C623 C 0.4359 0.85009 0.16488 0.0
C624 C 0.31294 0.83313 0.14756 0.0
C625 C 0.39594 0.77864 0.16539 0.0
H626 H 0.22315 0.7002 0.18541 0.0
H627 H 0.24633 0.68552 0.12419 0.0
H628 H 0.33168 0.78319 0.19728 0.0
H629 H 0.30163 0.80098 0.19012 0.0
H630 H 0.27307 0.75801 0.20428 0.0
H631 H 0.30565 0.73727 0.10596 0.0
H632 H 0.3291 0.78542 0.11544 0.0
H633 H 0.35719 0.76521 0.1211 0.0
H634 H 0.39588 0.90044 0.15633 0.0
H635 H 0.46695 0.8544 0.16892 0.0
H636 H 0.28875 0.82159 0.16006 0.0
H637 H 0.29553 0.81181 0.13474 0.0
H638 H 0.32052 0.86076 0.14335 0.0
H639 H 0.37369 0.76216 0.17805 0.0
H640 H 0.43079 0.78822 0.1688 0.0
H641 H 0.38209 0.75845 0.15207 0.0
C642 C 0.52743 0.23394 0.48626 0.0
C643 C 0.56446 0.23292 0.48552 0.0
C644 C 0.53263 0.26663 0.49415 0.0
C645 C 0.5761 0.29944 0.50119 0.0
C646 C 0.61398 0.29922 0.49983 0.0
C647 C 0.60766 0.2659 0.49216 0.0
C648 C 0.49131 0.26562 0.49545 0.0
C649 C 0.66098 0.33381 0.50699 0.0
C650 C 0.59432 0.39461 0.50893 0.0
C651 C 0.58945 0.39608 0.52962 0.0
C652 C 0.59074 0.36361 0.49947 0.0
C653 C 0.58135 0.33314 0.51095 0.0
C654 C 0.57622 0.33446 0.53184 0.0
C655 C 0.58061 0.36602 0.54092 0.0
C656 C 0.59708 0.36349 0.47722 0.0
C657 C 0.56552 0.30228 0.54457 0.0
H658 H 0.49411 0.20899 0.48079 0.0
H659 H 0.63644 0.26537 0.4919 0.0
H660 H 0.48475 0.26858 0.51131 0.0
H661 H 0.49763 0.29034 0.48772 0.0
H662 H 0.46018 0.23834 0.48876 0.0
H663 H 0.68747 0.33022 0.50342 0.0
H664 H 0.67038 0.36036 0.50011 0.0
H665 H 0.66111 0.33834 0.52339 0.0
H666 H 0.60153 0.41799 0.5002 0.0
H667 H 0.57627 0.36684 0.55689 0.0
H668 H 0.56561 0.33764 0.46987 0.0
H669 H 0.62505 0.36167 0.47394 0.0
H670 H 0.60523 0.38978 0.47051 0.0
H671 H 0.53299 0.27449 0.53933 0.0
H672 H 0.56254 0.30771 0.5606 0.0
H673 H 0.59261 0.29882 0.54312 0.0
C674 C 0.42289 0.48901 0.86137 0.0
C675 C 0.46475 0.51908 0.8532 0.0
C676 C 0.38521 0.48962 0.86198 0.0
C677 C 0.3887 0.52093 0.85411 0.0
C678 C 0.43073 0.5512 0.84566 0.0
C679 C 0.46798 0.54999 0.84537 0.0
C680 C 0.34163 0.4568 0.87131 0.0
C681 C 0.43651 0.58515 0.83698 0.0
C682 C 0.27788 0.50686 0.8414 0.0
C683 C 0.27371 0.52536 0.85789 0.0
C684 C 0.31497 0.50545 0.83988 0.0
C685 C 0.349 0.52254 0.85529 0.0
C686 C 0.34474 0.54094 0.87202 0.0
C687 C 0.3076 0.54218 0.87308 0.0
C688 C 0.31787 0.48577 0.82167 0.0
C689 C 0.37943 0.55921 0.88898 0.0
H690 H 0.41956 0.46494 0.86752 0.0
H691 H 0.49981 0.57344 0.83895 0.0
H692 H 0.33352 0.46815 0.88421 0.0
H693 H 0.31282 0.44305 0.86039 0.0
H694 H 0.34389 0.4343 0.87654 0.0
H695 H 0.47072 0.60588 0.83049 0.0
H696 H 0.41012 0.57475 0.82517 0.0
H697 H 0.43161 0.60078 0.84873 0.0
H698 H 0.25247 0.49396 0.82945 0.0
H699 H 0.30477 0.55593 0.88612 0.0
H700 H 0.31769 0.46161 0.82616 0.0
H701 H 0.35048 0.50653 0.81403 0.0
H702 H 0.28919 0.47415 0.81089 0.0
H703 H 0.38075 0.5371 0.89556 0.0
H704 H 0.37155 0.57245 0.90094 0.0
H705 H 0.41389 0.58191 0.88332 0.0
C706 C 0.95925 0.43716 0.16253 0.0
C707 C 0.99983 0.44648 0.15453 0.0
C708 C 0.92051 0.39857 0.16432 0.0
C709 C 0.9221 0.36825 0.15794 0.0
C710 C 0.96251 0.37734 0.14938 0.0
C711 C 1.00089 0.41633 0.14777 0.0
C712 C 0.87816 0.39035 0.17342 0.0
C713 C 0.96558 0.34585 0.14241 0.0
C714 C 0.84215 0.27329 0.18371 0.0
C715 C 0.80633 0.25052 0.16961 0.0
C716 C 0.88019 0.31124 0.17991 0.0
C717 C 0.88262 0.32726 0.16159 0.0
C718 C 0.84667 0.3046 0.14725 0.0
C719 C 0.80899 0.26651 0.15142 0.0
C720 C 0.91742 0.3345 0.19573 0.0
C721 C 0.84784 0.32072 0.1276 0.0
H722 H 0.95779 0.46008 0.16774 0.0
H723 H 1.03195 0.42314 0.14153 0.0
H724 H 0.84968 0.37468 0.16225 0.0
H725 H 0.86743 0.3715 0.18625 0.0
H726 H 0.88347 0.41723 0.17867 0.0
H727 H 0.99829 0.35755 0.13497 0.0
H728 H 0.96248 0.32945 0.15535 0.0
H729 H 0.93697 0.32504 0.13187 0.0
H730 H 0.84009 0.26172 0.19801 0.0
H731 H 0.78174 0.24917 0.14036 0.0
H732 H 0.91996 0.36018 0.20082 0.0
H733 H 0.95085 0.34525 0.18945 0.0
H734 H 0.9112 0.31739 0.2089 0.0
H735 H 0.84779 0.34582 0.13028 0.0
H736 H 0.81824 0.2989 0.11768 0.0
H737 H 0.87974 0.33131 0.11974 0.0
C738 C 0.10292 0.5498 0.09062 0.0
C739 C 0.09536 0.57464 0.09975 0.0
C740 C 0.10432 0.54658 0.06979 0.0
C741 C 0.09518 0.56697 0.05776 0.0
C742 C 0.08595 0.59116 0.0669 0.0
C743 C 0.08715 0.59536 0.08781 0.0
C744 C 0.11587 0.52153 0.06071 0.0
C745 C 0.07392 0.61195 0.0546 0.0
C746 C 0.13245 0.58451 0.00378 0.0
C747 C 0.0933 0.55267 0.99352 0.0
C748 C 0.13384 0.5891 0.02468 0.0
C749 C 0.09443 0.56236 0.03563 0.0
C750 C 1.05446 0.53079 0.02547 0.0
C751 C 1.05478 0.52575 0.00469 0.0
C752 C 0.17769 0.62236 0.03505 0.0
C753 C 1.01119 0.5023 0.03653 0.0
H754 H 0.10793 0.53292 0.09976 0.0
H755 H 0.08062 0.6142 0.09483 0.0
H756 H 0.08595 0.49638 0.05223 0.0
H757 H 0.14403 0.53818 0.05003 0.0
H758 H 0.12626 0.51057 0.07217 0.0
H759 H 0.0659 0.62843 0.06402 0.0
H760 H 0.10262 0.63233 0.04484 0.0
H761 H 1.04396 0.59074 0.04473 0.0
H762 H 0.16222 0.60621 0.99558 0.0
H763 H 1.02462 0.50035 0.99732 0.0
H764 H 0.18789 0.61126 0.04651 0.0
H765 H 0.17261 0.64216 0.04288 0.0
H766 H 0.20611 0.63925 0.02449 0.0
H767 H 1.01636 0.48561 0.04644 0.0
H768 H 0.98185 0.48156 0.02625 0.0
H769 H 1.00232 0.51794 0.04613 0.0
C770 C 0.5859 0.05165 0.4119 0.0
C771 C 0.62559 0.05847 0.4192 0.0
C772 C 0.58083 0.05509 0.39156 0.0
C773 C 0.61567 0.06429 0.37822 0.0
C774 C 0.65575 0.07112 0.38559 0.0
C775 C 0.66047 0.06866 0.40603 0.0
C776 C 0.53819 0.04867 0.38434 0.0
C777 C 0.69322 0.08007 0.37181 0.0
C778 C 0.588 0.03301 0.32344 0.0
C779 C 0.60873 0.06848 0.31443 0.0
C780 C 0.58892 0.03109 0.34422 0.0
C781 C 0.60985 0.0653 0.35641 0.0
C782 C 0.62849 0.10086 0.34756 0.0
C783 C 0.62823 0.10213 0.32668 0.0
C784 C 0.56924 0.99268 0.35304 0.0
C785 C 0.65016 0.13781 0.36013 0.0
H786 H 0.5589 0.04375 0.4221 0.0
H787 H 0.69114 0.07381 0.41164 0.0
H788 H 0.54737 0.07358 0.37575 0.0
H789 H 0.51824 0.02257 0.37413 0.0
H790 H 0.5161 0.04481 0.39684 0.0
H791 H 0.72209 0.08441 0.37993 0.0
H792 H 0.67936 0.05601 0.36045 0.0
H793 H 0.70654 0.10656 0.36372 0.0
H794 H 0.57158 0.00662 0.31422 0.0
H795 H 0.64464 0.12976 0.31998 0.0
H796 H 0.5438 0.98592 0.36445 0.0
H797 H 0.59681 0.99427 0.36064 0.0
H798 H 0.5526 0.96851 0.34156 0.0
H799 H 0.62737 0.13324 0.37243 0.0
H800 H 0.65785 0.16191 0.35121 0.0
H801 H 0.68247 0.1466 0.36703 0.0
C802 C 0.56226 0.48548 0.78023 0.0
C803 C 0.57421 0.5142 0.79478 0.0
C804 C 0.56953 0.49374 0.75998 0.0
C805 C 0.58794 0.53139 0.75416 0.0
C806 C 0.60031 0.56062 0.7689 0.0
C807 C 0.59371 0.55171 0.78913 0.0
C808 C 0.55678 0.46197 0.74481 0.0
C809 C 0.61895 0.60081 0.76326 0.0
C810 C 0.63437 0.55619 0.70175 0.0
C811 C 0.59617 0.54605 0.69072 0.0
C812 C 0.63267 0.55259 0.7225 0.0
C813 C 0.59213 0.5393 0.73258 0.0
C814 C 0.55414 0.53062 0.72172 0.0
C815 C 0.55642 0.53365 0.70093 0.0
C816 C 0.67369 0.56165 0.73354 0.0
C817 C 0.51046 0.51686 0.73196 0.0
H818 H 0.54725 0.45647 0.78473 0.0
H819 H 0.60207 0.57359 0.80045 0.0
H820 H 0.52855 0.45502 0.73498 0.0
H821 H 0.58622 0.47177 0.73518 0.0
H822 H 0.54578 0.43509 0.75191 0.0
H823 H 0.6285 0.62056 0.77654 0.0
H824 H 0.64938 0.61336 0.75386 0.0
H825 H 0.59296 0.59934 0.75425 0.0
H826 H 0.66561 0.56663 0.69414 0.0
H827 H 0.52641 0.52514 0.69265 0.0
H828 H 0.66484 0.53491 0.73994 0.0
H829 H 0.68383 0.58279 0.74617 0.0
H830 H 0.70341 0.57357 0.72372 0.0
H831 H 0.49399 0.48771 0.73769 0.0
H832 H 0.48585 0.51518 0.72175 0.0
H833 H 0.51785 0.53655 0.74495 0.0
C834 C 0.62603 0.04861 0.53974 0.0
C835 C 0.59178 0.04974 0.53237 0.0
C836 C 0.63049 0.04606 0.56025 0.0
C837 C 0.60155 0.04686 0.57376 0.0
C838 C 0.56813 0.04969 0.56642 0.0
C839 C 0.56296 0.05018 0.54578 0.0
C840 C 0.66527 0.04145 0.56739 0.0
C841 C 0.53787 0.05229 0.58035 0.0
C842 C 0.57715 0.00624 0.62525 0.0
C843 C 0.60827 0.03951 0.63747 0.0
C844 C 0.57631 0.00796 0.60444 0.0
C845 C 0.60551 0.04413 0.59555 0.0
C846 C 0.63689 0.07785 0.60761 0.0
C847 C 0.63878 0.07497 0.62828 0.0
C848 C 0.5435 0.97107 0.59199 0.0
C849 C 0.66751 0.1172 0.59877 0.0
H850 H 0.64862 0.04879 0.52947 0.0
H851 H 0.53675 0.05156 0.54015 0.0
H852 H 0.69055 0.06615 0.57765 0.0
H853 H 0.64813 0.01478 0.5759 0.0
H854 H 0.68377 0.0397 0.55486 0.0
H855 H 0.51621 0.05753 0.57234 0.0
H856 H 0.51528 0.02504 0.58831 0.0
H857 H 0.55901 0.07605 0.59181 0.0
H858 H 0.55255 0.97869 0.63185 0.0
H859 H 0.66411 0.10083 0.63718 0.0
H860 H 0.56144 0.96903 0.57933 0.0
H861 H 0.51612 0.97114 0.58561 0.0
H862 H 0.52738 0.94489 0.60085 0.0
H863 H 0.68988 0.11775 0.58751 0.0
H864 H 0.68933 0.14075 0.61026 0.0
H865 H 0.64646 0.12331 0.59098 0.0
C866 C 0.62688 0.51282 0.91499 0.0
C867 C 0.59139 0.50979 0.90541 0.0
C868 C 0.61819 0.49029 0.93135 0.0
C869 C 0.57318 0.465 0.93849 0.0
C870 C 0.53736 0.46216 0.92888 0.0
C871 C 0.54686 0.48429 0.91231 0.0
C872 C 0.65701 0.49339 0.9409 0.0
C873 C 0.48907 0.43608 0.93626 0.0
C874 C 0.53264 0.38098 0.97117 0.0
C875 C 0.53357 0.39636 0.9901 0.0
C876 C 0.5477 0.40363 0.95431 0.0
C877 C 0.56339 0.44234 0.95642 0.0
C878 C 0.56626 0.4585 0.97558 0.0
C879 C 0.55185 0.43547 0.99218 0.0
C880 C 0.545 0.38565 0.93414 0.0
C881 C 0.58243 0.49955 0.97845 0.0
H882 H 0.66125 0.53222 0.90945 0.0
H883 H 0.51944 0.48196 0.90484 0.0
H884 H 0.66204 0.50421 0.95666 0.0
H885 H 0.64866 0.46436 0.94104 0.0
H886 H 0.68958 0.51311 0.933 0.0
H887 H 0.46527 0.4375 0.9272 0.0
H888 H 0.47653 0.40567 0.93586 0.0
H889 H 0.48819 0.44438 0.952 0.0
H890 H 0.51845 0.3508 0.96935 0.0
H891 H 0.55389 0.44795 0.00681 0.0
H892 H 0.57764 0.40493 0.92626 0.0
H893 H 0.51793 0.38191 0.9248 0.0
H894 H 0.53719 0.35694 0.93532 0.0
H895 H 0.61632 0.51997 0.97171 0.0
H896 H 0.58492 0.5084 0.99444 0.0
H897 H 0.55836 0.50235 0.97072 0.0
C898 C 0.12703 0.52788 0.22002 0.0
C899 C 0.12724 0.55435 0.20892 0.0
C900 C 0.12298 0.52764 0.24081 0.0
C901 C 0.11801 0.55399 0.25068 0.0
C902 C 0.1173 0.58033 0.23948 0.0
C903 C 0.12259 0.58056 0.21872 0.0
C904 C 0.12479 0.49963 0.25225 0.0
C905 C 0.11108 0.60827 0.24943 0.0
C906 C 0.07017 0.52807 0.30282 0.0
C907 C 0.10988 0.55195 0.31482 0.0
C908 C 0.07209 0.52938 0.28193 0.0
C909 C 0.11484 0.55453 0.27278 0.0
C910 C 0.15496 0.57898 0.28474 0.0
C911 C 0.15193 0.57774 0.30558 0.0
C912 C 1.02847 0.50334 0.26965 0.0
C913 C 0.20128 0.60586 0.27552 0.0
H914 H 0.13077 0.50766 0.21246 0.0
H915 H 0.12294 0.60117 0.21016 0.0
H916 H 0.15363 0.51581 0.26325 0.0
H917 H 0.09305 0.48059 0.26074 0.0
H918 H 0.12905 0.48118 0.24233 0.0
H919 H 0.10872 0.62533 0.23847 0.0
H920 H 0.07963 0.59229 0.25836 0.0
H921 H 0.14014 0.62861 0.25987 0.0
H922 H 1.03755 0.50769 0.3097 0.0
H923 H 0.1827 0.59702 0.31465 0.0
H924 H 1.02881 0.48161 0.26077 0.0
H925 H 1.02572 0.5205 0.25895 0.0
H926 H 0.99772 0.48781 0.27905 0.0
H927 H 0.20837 0.58881 0.26606 0.0
H928 H 0.22913 0.62328 0.28693 0.0
H929 H 0.2018 0.62587 0.26571 0.0
loop_
_geom_bond_atom_site_label_1
_geom_bond_atom_site_label_2
_geom_bond_distance
_geom_bond_site_symmetry_2
_ccdc_geom_bond_type
Ho0 C3 2.811 . S
Ho0 O20 2.322 . S
Ho0 O22 2.378 . S
Ho0 O23 2.524 . S
Ho0 O24 2.381 . S
Ho0 O25 2.669 . S
Ho0 O27 2.346 1_455 S
Ho0 O31 2.305 . S
Ho1 C12 2.811 . S
Ho1 O21 2.346 1_655 S
Ho1 O25 2.305 1_655 S
Ho1 O26 2.322 . S
Ho1 O28 2.378 . S
Ho1 O29 2.524 . S
Ho1 O30 2.381 1_655 S
Ho1 O31 2.669 1_655 S
C2 O20 1.259 . S
C2 O21 1.268 . S
C3 Ho0 2.811 . S
C3 C4 1.488 . S
C3 O22 1.215 . S
C3 O23 1.289 . S
C4 C3 1.488 . S
C4 C5 1.348 . S
C4 C9 1.413 . S
C5 C4 1.348 . S
C5 C6 1.442 . S
C5 H32 0.930 . S
C6 C5 1.442 . S
C6 C7 1.381 . S
C6 H33 0.931 . S
C7 C6 1.381 . S
C7 C8 1.321 . S
C8 C7 1.321 . S
C8 C9 1.403 . S
C8 H34 0.934 . S
C9 C4 1.413 . S
C9 C8 1.403 . S
C9 H35 0.930 . S
C10 O24 1.275 . S
C10 O25 1.256 . S
C11 O26 1.259 . S
C11 O27 1.268 . S
C12 Ho1 2.811 . S
C12 C13 1.488 . S
C12 O28 1.215 . S
C12 O29 1.289 . S
C13 C12 1.488 . S
C13 C14 1.348 . S
C13 C18 1.413 . S
C14 C13 1.348 . S
C14 C15 1.442 . S
C14 H36 0.930 . S
C15 C14 1.442 . S
C15 C16 1.381 . S
C15 H37 0.931 . S
C16 C15 1.381 . S
C16 C17 1.321 . S
C17 C16 1.321 . S
C17 C18 1.403 . S
C17 H38 0.934 . S
C18 C13 1.413 . S
C18 C17 1.403 . S
C18 H39 0.930 . S
C19 O30 1.275 . S
C19 O31 1.256 . S
O20 Ho0 2.322 . S
O20 C2 1.259 . S
O21 Ho1 2.346 1_455 S
O21 C2 1.268 . S
O22 Ho0 2.378 . S
O22 C3 1.215 . S
O23 Ho0 2.524 . S
O23 C3 1.289 . S
O24 Ho0 2.381 . S
O24 C10 1.275 . S
O25 Ho0 2.669 . S
O25 Ho1 2.305 1_455 S
O25 C10 1.256 . S
O26 Ho1 2.322 . S
O26 C11 1.259 . S
O27 Ho0 2.346 1_655 S
O27 C11 1.268 . S
O28 Ho1 2.378 . S
O28 C12 1.215 . S
O29 Ho1 2.524 . S
O29 C12 1.289 . S
O30 Ho1 2.381 1_455 S
O30 C19 1.275 . S
O31 Ho0 2.305 . S
O31 Ho1 2.669 1_455 S
O31 C19 1.256 . S
H32 C5 0.930 . S
H33 C6 0.931 . S
H34 C8 0.934 . S
H35 C9 0.930 . S
H36 C14 0.930 . S
H37 C15 0.931 . S
H38 C17 0.934 . S
H39 C18 0.930 . S
Ho40 C43 2.811 . S
Ho40 O60 2.322 . S
Ho40 O62 2.378 . S
Ho40 O63 2.524 . S
Ho40 O64 2.381 . S
Ho40 O65 2.669 1_565 S
Ho40 O67 2.346 1_565 S
Ho40 O71 2.305 1_565 S
Ho41 C52 2.811 . S
Ho41 O61 2.346 1_545 S
Ho41 O65 2.305 . S
Ho41 O66 2.322 . S
Ho41 O68 2.378 . S
Ho41 O69 2.524 . S
Ho41 O70 2.381 . S
Ho41 O71 2.669 . S
C42 O60 1.259 . S
C42 O61 1.268 . S
C43 Ho40 2.811 . S
C43 C44 1.488 . S
C43 O62 1.215 . S
C43 O63 1.289 . S
C44 C43 1.488 . S
C44 C45 1.348 . S
C44 C49 1.413 . S
C45 C44 1.348 . S
C45 C46 1.442 . S
C45 H72 0.930 . S
C46 C45 1.442 . S
C46 C47 1.381 . S
C46 H73 0.931 . S
C47 C46 1.381 . S
C47 C48 1.321 . S
C48 C47 1.321 . S
C48 C49 1.403 . S
C48 H74 0.934 . S
C49 C44 1.413 . S
C49 C48 1.403 . S
C49 H75 0.930 . S
C50 O64 1.275 1_545 S
C50 O65 1.256 . S
C51 O66 1.259 . S
C51 O67 1.268 . S
C52 Ho41 2.811 . S
C52 C53 1.488 . S
C52 O68 1.215 . S
C52 O69 1.289 . S
C53 C52 1.488 . S
C53 C54 1.348 . S
C53 C58 1.413 . S
C54 C53 1.348 . S
C54 C55 1.442 . S
C54 H76 0.930 . S
C55 C54 1.442 . S
C55 C56 1.381 . S
C55 H77 0.931 . S
C56 C55 1.381 . S
C56 C57 1.321 . S
C57 C56 1.321 . S
C57 C58 1.403 . S
C57 H78 0.934 . S
C58 C53 1.413 . S
C58 C57 1.403 . S
C58 H79 0.930 . S
C59 O70 1.275 . S
C59 O71 1.256 . S
O60 Ho40 2.322 . S
O60 C42 1.259 . S
O61 Ho41 2.346 1_565 S
O61 C42 1.268 . S
O62 Ho40 2.378 . S
O62 C43 1.215 . S
O63 Ho40 2.524 . S
O63 C43 1.289 . S
O64 Ho40 2.381 . S
O64 C50 1.275 1_565 S
O65 Ho40 2.669 1_545 S
O65 Ho41 2.305 . S
O65 C50 1.256 . S
O66 Ho41 2.322 . S
O66 C51 1.259 . S
O67 Ho40 2.346 1_545 S
O67 C51 1.268 . S
O68 Ho41 2.378 . S
O68 C52 1.215 . S
O69 Ho41 2.524 . S
O69 C52 1.289 . S
O70 Ho41 2.381 . S
O70 C59 1.275 . S
O71 Ho40 2.305 1_545 S
O71 Ho41 2.669 . S
O71 C59 1.256 . S
H72 C45 0.930 . S
H73 C46 0.931 . S
H74 C48 0.934 . S
H75 C49 0.930 . S
H76 C54 0.930 . S
H77 C55 0.931 . S
H78 C57 0.934 . S
H79 C58 0.930 . S
Ho80 C83 2.811 . S
Ho80 O100 2.322 . S
Ho80 O102 2.378 . S
Ho80 O103 2.524 . S
Ho80 O104 2.381 . S
Ho80 O105 2.669 . S
Ho80 O107 2.346 . S
Ho80 O111 2.305 . S
Ho81 C92 2.811 . S
Ho81 O101 2.346 . S
Ho81 O105 2.305 . S
Ho81 O106 2.322 . S
Ho81 O108 2.378 . S
Ho81 O109 2.524 . S
Ho81 O110 2.381 . S
Ho81 O111 2.669 . S
C82 O100 1.259 . S
C82 O101 1.268 . S
C83 Ho80 2.811 . S
C83 C84 1.488 . S
C83 O102 1.215 . S
C83 O103 1.289 . S
C84 C83 1.488 . S
C84 C85 1.348 . S
C84 C89 1.413 . S
C85 C84 1.348 . S
C85 C86 1.442 . S
C85 H112 0.930 . S
C86 C85 1.442 . S
C86 C87 1.381 . S
C86 H113 0.931 . S
C87 C86 1.381 . S
C87 C88 1.321 . S
C88 C87 1.321 . S
C88 C89 1.403 . S
C88 H114 0.934 . S
C89 C84 1.413 . S
C89 C88 1.403 . S
C89 H115 0.930 . S
C90 O104 1.275 . S
C90 O105 1.256 . S
C91 O106 1.259 . S
C91 O107 1.268 . S
C92 Ho81 2.811 . S
C92 C93 1.488 . S
C92 O108 1.215 . S
C92 O109 1.289 . S
C93 C92 1.488 . S
C93 C94 1.348 . S
C93 C98 1.413 . S
C94 C93 1.348 . S
C94 C95 1.442 . S
C94 H116 0.930 . S
C95 C94 1.442 . S
C95 C96 1.381 . S
C95 H117 0.931 . S
C96 C95 1.381 . S
C96 C97 1.321 . S
C97 C96 1.321 . S
C97 C98 1.403 . S
C97 H118 0.934 . S
C98 C93 1.413 . S
C98 C97 1.403 . S
C98 H119 0.930 . S
C99 O110 1.275 . S
C99 O111 1.256 . S
O100 Ho80 2.322 . S
O100 C82 1.259 . S
O101 Ho81 2.346 . S
O101 C82 1.268 . S
O102 Ho80 2.378 . S
O102 C83 1.215 . S
O103 Ho80 2.524 . S
O103 C83 1.289 . S
O104 Ho80 2.381 . S
O104 C90 1.275 . S
O105 Ho80 2.669 . S
O105 Ho81 2.305 . S
O105 C90 1.256 . S
O106 Ho81 2.322 . S
O106 C91 1.259 . S
O107 Ho80 2.346 . S
O107 C91 1.268 . S
O108 Ho81 2.378 . S
O108 C92 1.215 . S
O109 Ho81 2.524 . S
O109 C92 1.289 . S
O110 Ho81 2.381 . S
O110 C99 1.275 . S
O111 Ho80 2.305 . S
O111 Ho81 2.669 . S
O111 C99 1.256 . S
H112 C85 0.930 . S
H113 C86 0.931 . S
H114 C88 0.934 . S
H115 C89 0.930 . S
H116 C94 0.930 . S
H117 C95 0.931 . S
H118 C97 0.934 . S
H119 C98 0.930 . S
C120 C121 1.386 . S
C120 C122 1.397 . S
C120 H144 0.931 . S
C121 C120 1.386 . S
C121 C125 1.397 1_545 S
C122 C120 1.397 . S
C122 C123 1.384 . S
C122 H145 0.930 . S
C123 C122 1.384 . S
C123 C124 1.377 1_545 S
C123 C126 1.481 . S
C124 C123 1.377 1_565 S
C124 C125 1.389 . S
C124 H146 0.929 . S
C125 C121 1.397 1_565 S
C125 C124 1.389 . S
C125 H147 0.931 . S
C126 C123 1.481 . S
C126 C127 1.387 . S
C126 C131 1.390 1_545 S
C127 C126 1.387 . S
C127 C128 1.401 . S
C127 H148 0.930 . S
C128 C127 1.401 . S
C128 C129 1.376 . S
C128 C137 1.511 . S
C129 C128 1.376 . S
C129 C130 1.392 1_545 S
C129 H150 0.931 . S
C130 C129 1.392 1_565 S
C130 C131 1.361 . S
C130 C132 1.500 . S
C131 C126 1.390 1_565 S
C131 C130 1.361 . S
C131 H149 0.931 . S
C132 C130 1.500 . S
C132 C133 1.371 . S
C132 C134 1.365 . S
C133 C132 1.371 . S
C133 C143 1.386 . S
C133 H151 0.931 . S
C134 C132 1.365 . S
C134 C135 1.409 . S
C134 H152 0.929 . S
C135 C134 1.409 . S
C135 C136 1.380 . S
C135 H153 0.930 . S
C136 C135 1.380 . S
C136 C143 1.357 . S
C137 C128 1.511 . S
C137 C138 1.341 . S
C137 C139 1.371 . S
C138 C137 1.341 . S
C138 C142 1.394 . S
C138 H154 0.930 . S
C139 C137 1.371 . S
C139 C140 1.392 . S
C139 H155 0.931 . S
C140 C139 1.392 . S
C140 C141 1.331 . S
C140 H158 0.932 . S
C141 C140 1.331 . S
C141 C142 1.336 . S
C142 C138 1.394 . S
C142 C141 1.336 . S
C142 H157 0.929 . S
C143 C133 1.386 . S
C143 C136 1.357 . S
C143 H156 0.928 . S
H144 C120 0.931 . S
H145 C122 0.930 . S
H146 C124 0.929 . S
H147 C125 0.931 . S
H148 C127 0.930 . S
H149 C131 0.931 . S
H150 C129 0.931 . S
H151 C133 0.931 . S
H152 C134 0.929 . S
H153 C135 0.930 . S
H154 C138 0.930 . S
H155 C139 0.931 . S
H156 C143 0.928 . S
H157 C142 0.929 . S
H158 C140 0.932 . S
C159 C160 1.386 . S
C159 C161 1.397 . S
C159 H183 0.931 . S
C160 C159 1.386 . S
C160 C164 1.397 . S
C161 C159 1.397 . S
C161 C162 1.384 . S
C161 H184 0.930 . S
C162 C161 1.384 . S
C162 C163 1.377 . S
C162 C165 1.481 . S
C163 C162 1.377 . S
C163 C164 1.389 . S
C163 H185 0.929 . S
C164 C160 1.397 . S
C164 C163 1.389 . S
C164 H186 0.931 . S
C165 C162 1.481 . S
C165 C166 1.387 . S
C165 C170 1.390 . S
C166 C165 1.387 . S
C166 C167 1.401 . S
C166 H187 0.930 . S
C167 C166 1.401 . S
C167 C168 1.376 . S
C167 C176 1.511 . S
C168 C167 1.376 . S
C168 C169 1.392 . S
C168 H189 0.931 . S
C169 C168 1.392 . S
C169 C170 1.361 . S
C169 C171 1.500 . S
C170 C165 1.390 . S
C170 C169 1.361 . S
C170 H188 0.931 . S
C171 C169 1.500 . S
C171 C172 1.371 . S
C171 C173 1.365 . S
C172 C171 1.371 . S
C172 C182 1.386 . S
C172 H190 0.931 . S
C173 C171 1.365 . S
C173 C174 1.409 . S
C173 H191 0.929 . S
C174 C173 1.409 . S
C174 C175 1.380 . S
C174 H192 0.930 . S
C175 C174 1.380 . S
C175 C182 1.357 . S
C176 C167 1.511 . S
C176 C177 1.341 . S
C176 C178 1.371 . S
C177 C176 1.341 . S
C177 C181 1.394 . S
C177 H193 0.930 . S
C178 C176 1.371 . S
C178 C179 1.392 . S
C178 H194 0.931 . S
C179 C178 1.392 . S
C179 C180 1.331 . S
C179 H197 0.932 . S
C180 C179 1.331 . S
C180 C181 1.336 . S
C181 C177 1.394 . S
C181 C180 1.336 . S
C181 H196 0.929 . S
C182 C172 1.386 . S
C182 C175 1.357 . S
C182 H195 0.928 . S
H183 C159 0.931 . S
H184 C161 0.930 . S
H185 C163 0.929 . S
H186 C164 0.931 . S
H187 C166 0.930 . S
H188 C170 0.931 . S
H189 C168 0.931 . S
H190 C172 0.931 . S
H191 C173 0.929 . S
H192 C174 0.930 . S
H193 C177 0.930 . S
H194 C178 0.931 . S
H195 C182 0.928 . S
H196 C181 0.929 . S
H197 C179 0.932 . S
C198 C199 1.386 . S
C198 C200 1.397 . S
C198 H222 0.931 . S
C199 C198 1.386 . S
C199 C203 1.397 . S
C200 C198 1.397 . S
C200 C201 1.384 . S
C200 H223 0.930 . S
C201 C200 1.384 . S
C201 C202 1.377 . S
C201 C204 1.481 . S
C202 C201 1.377 . S
C202 C203 1.389 . S
C202 H224 0.929 1_455 S
C203 C199 1.397 . S
C203 C202 1.389 . S
C203 H225 0.931 1_455 S
C204 C201 1.481 . S
C204 C205 1.387 . S
C204 C209 1.390 . S
C205 C204 1.387 . S
C205 C206 1.401 . S
C205 H226 0.930 . S
C206 C205 1.401 . S
C206 C207 1.376 . S
C206 C215 1.511 . S
C207 C206 1.376 . S
C207 C208 1.392 . S
C207 H228 0.931 . S
C208 C207 1.392 . S
C208 C209 1.361 . S
C208 C210 1.500 1_455 S
C209 C204 1.390 . S
C209 C208 1.361 . S
C209 H227 0.931 . S
C210 C208 1.500 1_655 S
C210 C211 1.372 . S
C210 C212 1.365 . S
C211 C210 1.372 . S
C211 C221 1.385 . S
C211 H229 0.932 1_655 S
C212 C210 1.365 . S
C212 C213 1.409 . S
C212 H230 0.929 . S
C213 C212 1.409 . S
C213 C214 1.380 . S
C213 H231 0.930 . S
C214 C213 1.380 . S
C214 C221 1.357 . S
C215 C206 1.511 . S
C215 C216 1.341 . S
C215 C217 1.371 . S
C216 C215 1.341 . S
C216 C220 1.394 . S
C216 H232 0.930 . S
C217 C215 1.371 . S
C217 C218 1.392 . S
C217 H233 0.931 . S
C218 C217 1.392 . S
C218 C219 1.331 . S
C218 H236 0.932 . S
C219 C218 1.331 . S
C219 C220 1.336 . S
C220 C216 1.394 . S
C220 C219 1.336 . S
C220 H235 0.929 . S
C221 C211 1.385 . S
C221 C214 1.357 . S
C221 H234 0.928 . S
H222 C198 0.931 . S
H223 C200 0.930 . S
H224 C202 0.929 1_655 S
H225 C203 0.931 1_655 S
H226 C205 0.930 . S
H227 C209 0.931 . S
H228 C207 0.931 . S
H229 C211 0.932 1_455 S
H230 C212 0.929 . S
H231 C213 0.930 . S
H232 C216 0.930 . S
H233 C217 0.931 . S
H234 C221 0.928 . S
H235 C220 0.929 . S
H236 C218 0.932 . S
C237 C238 1.403 . S
C237 C239 1.397 . S
C237 H261 0.931 . S
C238 C237 1.403 . S
C238 C242 1.381 1_655 S
C239 C237 1.397 . S
C239 C240 1.384 . S
C239 H262 0.930 . S
C240 C239 1.384 . S
C240 C241 1.377 1_655 S
C240 C243 1.481 . S
C241 C240 1.377 1_455 S
C241 C242 1.389 . S
C241 H263 0.929 . S
C242 C238 1.381 1_455 S
C242 C241 1.389 . S
C242 H264 0.931 . S
C243 C240 1.481 . S
C243 C244 1.387 . S
C243 C248 1.390 1_655 S
C244 C243 1.387 . S
C244 C245 1.401 . S
C244 H265 0.930 . S
C245 C244 1.401 . S
C245 C246 1.387 . S
C245 C254 1.511 . S
C246 C245 1.387 . S
C246 C247 1.380 1_655 S
C246 H267 0.934 . S
C247 C246 1.380 1_455 S
C247 C248 1.361 . S
C247 C249 1.500 . S
C248 C243 1.390 1_455 S
C248 C247 1.361 . S
C248 H266 0.931 . S
C249 C247 1.500 . S
C249 C250 1.371 . S
C249 C251 1.365 . S
C250 C249 1.371 . S
C250 C260 1.386 . S
C250 H268 0.931 . S
C251 C249 1.365 . S
C251 C252 1.409 . S
C251 H269 0.929 . S
C252 C251 1.409 . S
C252 C253 1.380 . S
C252 H270 0.930 . S
C253 C252 1.380 . S
C253 C260 1.357 . S
C254 C245 1.511 . S
C254 C255 1.341 . S
C254 C256 1.371 . S
C255 C254 1.341 . S
C255 C259 1.394 . S
C255 H271 0.930 . S
C256 C254 1.371 . S
C256 C257 1.392 . S
C256 H272 0.931 . S
C257 C256 1.392 . S
C257 C258 1.331 . S
C257 H275 0.932 . S
C258 C257 1.331 . S
C258 C259 1.336 . S
C259 C255 1.394 . S
C259 C258 1.336 . S
C259 H274 0.929 . S
C260 C250 1.386 . S
C260 C253 1.357 . S
C260 H273 0.928 . S
H261 C237 0.931 . S
H262 C239 0.930 . S
H263 C241 0.929 . S
H264 C242 0.931 . S
H265 C244 0.930 . S
H266 C248 0.931 . S
H267 C246 0.934 . S
H268 C250 0.931 . S
H269 C251 0.929 . S
H270 C252 0.930 . S
H271 C255 0.930 . S
H272 C256 0.931 . S
H273 C260 0.928 . S
H274 C259 0.929 . S
H275 C257 0.932 . S
C276 C277 1.386 . S
C276 C278 1.397 . S
C276 H300 0.931 . S
C277 C276 1.386 . S
C277 C281 1.397 1_565 S
C278 C276 1.397 . S
C278 C279 1.384 . S
C278 H301 0.930 . S
C279 C278 1.384 . S
C279 C280 1.377 1_565 S
C279 C282 1.481 1_565 S
C280 C279 1.377 1_545 S
C280 C281 1.389 . S
C280 H302 0.929 . S
C281 C277 1.397 1_545 S
C281 C280 1.389 . S
C281 H303 0.931 . S
C282 C279 1.481 1_545 S
C282 C283 1.378 1_545 S
C282 C287 1.399 . S
C283 C282 1.378 1_565 S
C283 C284 1.401 . S
C283 H304 0.930 . S
C284 C283 1.401 . S
C284 C285 1.376 1_565 S
C284 C293 1.511 . S
C285 C284 1.376 1_545 S
C285 C286 1.392 . S
C285 H306 0.931 . S
C286 C285 1.392 . S
C286 C287 1.361 . S
C286 C288 1.500 . S
C287 C282 1.399 . S
C287 C286 1.361 . S
C287 H305 0.931 . S
C288 C286 1.500 . S
C288 C289 1.371 . S
C288 C290 1.365 . S
C289 C288 1.371 . S
C289 C299 1.386 . S
C289 H307 0.931 . S
C290 C288 1.365 . S
C290 C291 1.409 . S
C290 H308 0.929 . S
C291 C290 1.409 . S
C291 C292 1.380 . S
C291 H309 0.930 . S
C292 C291 1.380 . S
C292 C299 1.357 . S
C293 C284 1.511 . S
C293 C294 1.341 . S
C293 C295 1.371 . S
C294 C293 1.341 . S
C294 C298 1.394 . S
C294 H310 0.930 . S
C295 C293 1.371 . S
C295 C296 1.392 . S
C295 H311 0.931 . S
C296 C295 1.392 . S
C296 C297 1.331 . S
C296 H314 0.932 . S
C297 C296 1.331 . S
C297 C298 1.336 . S
C298 C294 1.394 . S
C298 C297 1.336 . S
C298 H313 0.929 . S
C299 C289 1.386 . S
C299 C292 1.357 . S
C299 H312 0.928 . S
H300 C276 0.931 . S
H301 C278 0.930 . S
H302 C280 0.929 . S
H303 C281 0.931 . S
H304 C283 0.930 . S
H305 C287 0.931 . S
H306 C285 0.931 . S
H307 C289 0.931 . S
H308 C290 0.929 . S
H309 C291 0.930 . S
H310 C294 0.930 . S
H311 C295 0.931 . S
H312 C299 0.928 . S
H313 C298 0.929 . S
H314 C296 0.932 . S
C315 C316 1.386 . S
C315 C317 1.397 . S
C315 H339 0.931 . S
C316 C315 1.386 . S
C316 C320 1.397 . S
C317 C315 1.397 . S
C317 C318 1.384 . S
C317 H340 0.930 . S
C318 C317 1.384 . S
C318 C319 1.377 . S
C318 C321 1.481 . S
C319 C318 1.377 . S
C319 C320 1.389 . S
C319 H341 0.929 . S
C320 C316 1.397 . S
C320 C319 1.389 . S
C320 H342 0.931 . S
C321 C318 1.481 . S
C321 C322 1.387 . S
C321 C326 1.390 . S
C322 C321 1.387 . S
C322 C323 1.401 . S
C322 H343 0.930 . S
C323 C322 1.401 . S
C323 C324 1.376 . S
C323 C332 1.511 . S
C324 C323 1.376 . S
C324 C325 1.392 . S
C324 H345 0.931 . S
C325 C324 1.392 . S
C325 C326 1.361 . S
C325 C327 1.500 . S
C326 C321 1.390 . S
C326 C325 1.361 . S
C326 H344 0.931 . S
C327 C325 1.500 . S
C327 C328 1.371 . S
C327 C329 1.365 . S
C328 C327 1.371 . S
C328 C338 1.386 . S
C328 H346 0.931 . S
C329 C327 1.365 . S
C329 C330 1.409 . S
C329 H347 0.929 . S
C330 C329 1.409 . S
C330 C331 1.380 . S
C330 H348 0.930 . S
C331 C330 1.380 . S
C331 C338 1.357 . S
C332 C323 1.511 . S
C332 C333 1.341 . S
C332 C334 1.371 . S
C333 C332 1.341 . S
C333 C337 1.394 . S
C333 H349 0.930 . S
C334 C332 1.371 . S
C334 C335 1.392 . S
C334 H350 0.931 . S
C335 C334 1.392 . S
C335 C336 1.331 . S
C335 H353 0.932 . S
C336 C335 1.331 . S
C336 C337 1.336 . S
C337 C333 1.394 . S
C337 C336 1.336 . S
C337 H352 0.929 . S
C338 C328 1.386 . S
C338 C331 1.357 . S
C338 H351 0.928 . S
H339 C315 0.931 . S
H340 C317 0.930 . S
H341 C319 0.929 . S
H342 C320 0.931 . S
H343 C322 0.930 . S
H344 C326 0.931 . S
H345 C324 0.931 . S
H346 C328 0.931 . S
H347 C329 0.929 . S
H348 C330 0.930 . S
H349 C333 0.930 . S
H350 C334 0.931 . S
H351 C338 0.928 . S
H352 C337 0.929 . S
H353 C335 0.932 . S
C354 C355 1.391 . S
C354 C356 1.394 . S
C354 H370 0.931 . S
C355 C354 1.391 . S
C355 C359 1.376 . S
C356 C354 1.394 . S
C356 C357 1.369 . S
C356 C360 1.531 . S
C357 C356 1.369 . S
C357 C358 1.410 . S
C357 C365 1.503 . S
C358 C357 1.410 . S
C358 C359 1.392 . S
C358 C361 1.511 . S
C359 C355 1.376 . S
C359 C358 1.392 . S
C359 H371 0.929 . S
C360 C356 1.531 . S
C360 H372 0.960 . S
C360 H373 0.962 . S
C360 H374 0.960 . S
C361 C358 1.511 . S
C361 H375 0.961 . S
C361 H376 0.961 . S
C361 H377 0.961 . S
C362 C363 1.370 . S
C362 C364 1.363 . S
C362 H378 0.931 . S
C363 C362 1.370 . S
C363 C367 1.408 . S
C364 C362 1.363 . S
C364 C365 1.370 . S
C364 C368 1.524 . S
C365 C357 1.503 . S
C365 C364 1.370 . S
C365 C366 1.403 . S
C366 C365 1.403 . S
C366 C367 1.404 . S
C366 C369 1.539 . S
C367 C363 1.408 . S
C367 C366 1.404 . S
C367 H379 0.930 . S
C368 C364 1.524 . S
C368 H380 0.956 . S
C368 H381 0.961 . S
C368 H382 0.961 . S
C369 C366 1.539 . S
C369 H383 0.958 . S
C369 H384 0.961 . S
C369 H385 0.960 . S
H370 C354 0.931 . S
H371 C359 0.929 . S
H372 C360 0.960 . S
H373 C360 0.962 . S
H374 C360 0.960 . S
H375 C361 0.961 . S
H376 C361 0.961 . S
H377 C361 0.961 . S
H378 C362 0.931 . S
H379 C367 0.930 . S
H380 C368 0.956 . S
H381 C368 0.961 . S
H382 C368 0.961 . S
H383 C369 0.958 . S
H384 C369 0.961 . S
H385 C369 0.960 . S
C386 C387 1.391 . S
C386 C388 1.394 . S
C386 H402 0.931 . S
C387 C386 1.391 . S
C387 C391 1.376 . S
C388 C386 1.394 . S
C388 C389 1.369 . S
C388 C392 1.531 . S
C389 C388 1.369 . S
C389 C390 1.410 . S
C389 C397 1.503 . S
C390 C389 1.410 . S
C390 C391 1.392 . S
C390 C393 1.511 . S
C391 C387 1.376 . S
C391 C390 1.392 . S
C391 H403 0.929 . S
C392 C388 1.531 . S
C392 H404 0.960 . S
C392 H405 0.962 . S
C392 H406 0.960 . S
C393 C390 1.511 . S
C393 H407 0.961 . S
C393 H408 0.961 . S
C393 H409 0.961 . S
C394 C395 1.370 . S
C394 C396 1.363 . S
C394 H410 0.931 . S
C395 C394 1.370 . S
C395 C399 1.408 . S
C396 C394 1.363 . S
C396 C397 1.370 . S
C396 C400 1.524 . S
C397 C389 1.503 . S
C397 C396 1.370 . S
C397 C398 1.403 . S
C398 C397 1.403 . S
C398 C399 1.404 . S
C398 C401 1.539 . S
C399 C395 1.408 . S
C399 C398 1.404 . S
C399 H411 0.930 . S
C400 C396 1.524 . S
C400 H412 0.956 . S
C400 H413 0.961 . S
C400 H414 0.961 . S
C401 C398 1.539 . S
C401 H415 0.958 . S
C401 H416 0.961 . S
C401 H417 0.960 . S
H402 C386 0.931 . S
H403 C391 0.929 . S
H404 C392 0.960 . S
H405 C392 0.962 . S
H406 C392 0.960 . S
H407 C393 0.961 . S
H408 C393 0.961 . S
H409 C393 0.961 . S
H410 C394 0.931 . S
H411 C399 0.930 . S
H412 C400 0.956 . S
H413 C400 0.961 . S
H414 C400 0.961 . S
H415 C401 0.958 . S
H416 C401 0.961 . S
H417 C401 0.960 . S
C418 C419 1.391 . S
C418 C420 1.394 . S
C418 H434 0.931 . S
C419 C418 1.391 . S
C419 C423 1.376 . S
C420 C418 1.394 . S
C420 C421 1.369 . S
C420 C424 1.531 . S
C421 C420 1.369 . S
C421 C422 1.410 . S
C421 C429 1.503 . S
C422 C421 1.410 . S
C422 C423 1.392 . S
C422 C425 1.511 . S
C423 C419 1.376 . S
C423 C422 1.392 . S
C423 H435 0.929 . S
C424 C420 1.531 . S
C424 H436 0.960 . S
C424 H437 0.962 . S
C424 H438 0.960 . S
C425 C422 1.511 . S
C425 H439 0.961 . S
C425 H440 0.961 . S
C425 H441 0.961 . S
C426 C427 1.370 . S
C426 C428 1.363 . S
C426 H442 0.931 . S
C427 C426 1.370 . S
C427 C431 1.408 . S
C428 C426 1.363 . S
C428 C429 1.370 . S
C428 C432 1.524 . S
C429 C421 1.503 . S
C429 C428 1.370 . S
C429 C430 1.403 . S
C430 C429 1.403 . S
C430 C431 1.404 . S
C430 C433 1.539 . S
C431 C427 1.408 . S
C431 C430 1.404 . S
C431 H443 0.930 . S
C432 C428 1.524 . S
C432 H444 0.956 . S
C432 H445 0.961 . S
C432 H446 0.961 . S
C433 C430 1.539 . S
C433 H447 0.958 . S
C433 H448 0.961 . S
C433 H449 0.960 . S
H434 C418 0.931 . S
H435 C423 0.929 . S
H436 C424 0.960 . S
H437 C424 0.962 . S
H438 C424 0.960 . S
H439 C425 0.961 . S
H440 C425 0.961 . S
H441 C425 0.961 . S
H442 C426 0.931 . S
H443 C431 0.930 . S
H444 C432 0.956 . S
H445 C432 0.961 . S
H446 C432 0.961 . S
H447 C433 0.958 . S
H448 C433 0.961 . S
H449 C433 0.960 . S
C450 C451 1.391 . S
C450 C452 1.394 . S
C450 H466 0.931 . S
C451 C450 1.391 . S
C451 C455 1.376 . S
C452 C450 1.394 . S
C452 C453 1.369 . S
C452 C456 1.531 . S
C453 C452 1.369 . S
C453 C454 1.410 . S
C453 C461 1.503 . S
C454 C453 1.410 . S
C454 C455 1.392 . S
C454 C457 1.511 . S
C455 C451 1.376 . S
C455 C454 1.392 . S
C455 H467 0.929 . S
C456 C452 1.531 . S
C456 H468 0.960 . S
C456 H469 0.962 . S
C456 H470 0.960 . S
C457 C454 1.511 . S
C457 H471 0.961 . S
C457 H472 0.961 . S
C457 H473 0.961 . S
C458 C459 1.370 . S
C458 C460 1.363 . S
C458 H474 0.931 . S
C459 C458 1.370 . S
C459 C463 1.408 . S
C460 C458 1.363 . S
C460 C461 1.370 . S
C460 C464 1.524 . S
C461 C453 1.503 . S
C461 C460 1.370 . S
C461 C462 1.403 . S
C462 C461 1.403 . S
C462 C463 1.404 . S
C462 C465 1.539 . S
C463 C459 1.408 . S
C463 C462 1.404 . S
C463 H475 0.930 . S
C464 C460 1.524 . S
C464 H476 0.956 . S
C464 H477 0.961 . S
C464 H478 0.961 . S
C465 C462 1.539 . S
C465 H479 0.958 . S
C465 H480 0.961 . S
C465 H481 0.960 . S
H466 C450 0.931 . S
H467 C455 0.929 . S
H468 C456 0.960 . S
H469 C456 0.962 . S
H470 C456 0.960 . S
H471 C457 0.961 . S
H472 C457 0.961 . S
H473 C457 0.961 . S
H474 C458 0.931 . S
H475 C463 0.930 . S
H476 C464 0.956 . S
H477 C464 0.961 . S
H478 C464 0.961 . S
H479 C465 0.958 . S
H480 C465 0.961 . S
H481 C465 0.960 . S
C482 C483 1.391 . S
C482 C484 1.394 . S
C482 H498 0.931 . S
C483 C482 1.391 . S
C483 C487 1.376 . S
C484 C482 1.394 . S
C484 C485 1.369 . S
C484 C488 1.531 . S
C485 C484 1.369 . S
C485 C486 1.410 . S
C485 C493 1.503 . S
C486 C485 1.410 . S
C486 C487 1.392 . S
C486 C489 1.511 . S
C487 C483 1.376 . S
C487 C486 1.392 . S
C487 H499 0.929 . S
C488 C484 1.531 . S
C488 H500 0.960 . S
C488 H501 0.962 . S
C488 H502 0.960 . S
C489 C486 1.511 . S
C489 H503 0.961 . S
C489 H504 0.961 . S
C489 H505 0.961 . S
C490 C491 1.370 . S
C490 C492 1.363 . S
C490 H506 0.931 . S
C491 C490 1.370 . S
C491 C495 1.408 . S
C492 C490 1.363 . S
C492 C493 1.370 . S
C492 C496 1.524 . S
C493 C485 1.503 . S
C493 C492 1.370 . S
C493 C494 1.403 . S
C494 C493 1.403 . S
C494 C495 1.404 . S
C494 C497 1.539 . S
C495 C491 1.408 . S
C495 C494 1.404 . S
C495 H507 0.930 . S
C496 C492 1.524 . S
C496 H508 0.956 . S
C496 H509 0.961 . S
C496 H510 0.961 . S
C497 C494 1.539 . S
C497 H511 0.958 . S
C497 H512 0.961 . S
C497 H513 0.960 . S
H498 C482 0.931 . S
H499 C487 0.929 . S
H500 C488 0.960 . S
H501 C488 0.962 . S
H502 C488 0.960 . S
H503 C489 0.961 . S
H504 C489 0.961 . S
H505 C489 0.961 . S
H506 C490 0.931 . S
H507 C495 0.930 . S
H508 C496 0.956 . S
H509 C496 0.961 . S
H510 C496 0.961 . S
H511 C497 0.958 . S
H512 C497 0.961 . S
H513 C497 0.960 . S
C514 C515 1.391 . S
C514 C516 1.394 . S
C514 H530 0.931 . S
C515 C514 1.391 . S
C515 C519 1.376 . S
C516 C514 1.394 . S
C516 C517 1.369 . S
C516 C520 1.531 . S
C517 C516 1.369 . S
C517 C518 1.410 . S
C517 C525 1.503 . S
C518 C517 1.410 . S
C518 C519 1.392 . S
C518 C521 1.511 . S
C519 C515 1.376 . S
C519 C518 1.392 . S
C519 H531 0.929 . S
C520 C516 1.531 . S
C520 H532 0.960 . S
C520 H533 0.962 . S
C520 H534 0.960 . S
C521 C518 1.511 . S
C521 H535 0.961 . S
C521 H536 0.961 . S
C521 H537 0.961 . S
C522 C523 1.370 . S
C522 C524 1.363 . S
C522 H538 0.931 . S
C523 C522 1.370 . S
C523 C527 1.408 . S
C524 C522 1.363 . S
C524 C525 1.370 . S
C524 C528 1.524 . S
C525 C517 1.503 . S
C525 C524 1.370 . S
C525 C526 1.403 . S
C526 C525 1.403 . S
C526 C527 1.404 . S
C526 C529 1.539 . S
C527 C523 1.408 . S
C527 C526 1.404 . S
C527 H539 0.930 . S
C528 C524 1.524 . S
C528 H540 0.956 . S
C528 H541 0.961 . S
C528 H542 0.961 . S
C529 C526 1.539 . S
C529 H543 0.958 . S
C529 H544 0.961 . S
C529 H545 0.960 . S
H530 C514 0.931 . S
H531 C519 0.929 . S
H532 C520 0.960 . S
H533 C520 0.962 . S
H534 C520 0.960 . S
H535 C521 0.961 . S
H536 C521 0.961 . S
H537 C521 0.961 . S
H538 C522 0.931 . S
H539 C527 0.930 . S
H540 C528 0.956 . S
H541 C528 0.961 . S
H542 C528 0.961 . S
H543 C529 0.958 . S
H544 C529 0.961 . S
H545 C529 0.960 . S
C546 C547 1.391 . S
C546 C548 1.394 . S
C546 H562 0.931 . S
C547 C546 1.391 . S
C547 C551 1.376 . S
C548 C546 1.394 . S
C548 C549 1.369 . S
C548 C552 1.531 . S
C549 C548 1.369 . S
C549 C550 1.410 . S
C549 C557 1.503 . S
C550 C549 1.410 . S
C550 C551 1.392 . S
C550 C553 1.511 . S
C551 C547 1.376 . S
C551 C550 1.392 . S
C551 H563 0.929 . S
C552 C548 1.531 . S
C552 H564 0.960 . S
C552 H565 0.962 . S
C552 H566 0.960 . S
C553 C550 1.511 . S
C553 H567 0.961 . S
C553 H568 0.961 . S
C553 H569 0.961 . S
C554 C555 1.370 . S
C554 C556 1.363 . S
C554 H570 0.931 . S
C555 C554 1.370 . S
C555 C559 1.408 . S
C556 C554 1.363 . S
C556 C557 1.370 . S
C556 C560 1.524 . S
C557 C549 1.503 . S
C557 C556 1.370 . S
C557 C558 1.403 . S
C558 C557 1.403 . S
C558 C559 1.404 . S
C558 C561 1.539 . S
C559 C555 1.408 . S
C559 C558 1.404 . S
C559 H571 0.930 . S
C560 C556 1.524 . S
C560 H572 0.956 . S
C560 H573 0.961 . S
C560 H574 0.961 . S
C561 C558 1.539 . S
C561 H575 0.958 . S
C561 H576 0.961 . S
C561 H577 0.960 . S
H562 C546 0.931 . S
H563 C551 0.929 . S
H564 C552 0.960 . S
H565 C552 0.962 . S
H566 C552 0.960 . S
H567 C553 0.961 . S
H568 C553 0.961 . S
H569 C553 0.961 . S
H570 C554 0.931 . S
H571 C559 0.930 . S
H572 C560 0.956 . S
H573 C560 0.961 . S
H574 C560 0.961 . S
H575 C561 0.958 . S
H576 C561 0.961 . S
H577 C561 0.960 . S
C578 C579 1.391 . S
C578 C580 1.394 . S
C578 H594 0.931 . S
C579 C578 1.391 . S
C579 C583 1.376 . S
C580 C578 1.394 . S
C580 C581 1.369 . S
C580 C584 1.531 . S
C581 C580 1.369 . S
C581 C582 1.410 . S
C581 C589 1.503 . S
C582 C581 1.410 . S
C582 C583 1.392 . S
C582 C585 1.511 . S
C583 C579 1.376 . S
C583 C582 1.392 . S
C583 H595 0.929 . S
C584 C580 1.531 . S
C584 H596 0.960 . S
C584 H597 0.962 . S
C584 H598 0.960 . S
C585 C582 1.511 . S
C585 H599 0.961 . S
C585 H600 0.961 . S
C585 H601 0.961 . S
C586 C587 1.370 . S
C586 C588 1.363 . S
C586 H602 0.931 . S
C587 C586 1.370 . S
C587 C591 1.408 . S
C588 C586 1.363 . S
C588 C589 1.370 . S
C588 C592 1.524 . S
C589 C581 1.503 . S
C589 C588 1.370 . S
C589 C590 1.403 . S
C590 C589 1.403 . S
C590 C591 1.404 . S
C590 C593 1.539 . S
C591 C587 1.408 . S
C591 C590 1.404 . S
C591 H603 0.930 . S
C592 C588 1.524 . S
C592 H604 0.956 . S
C592 H605 0.961 . S
C592 H606 0.961 . S
C593 C590 1.539 . S
C593 H607 0.958 . S
C593 H608 0.961 . S
C593 H609 0.960 . S
H594 C578 0.931 . S
H595 C583 0.929 . S
H596 C584 0.960 . S
H597 C584 0.962 . S
H598 C584 0.960 . S
H599 C585 0.961 . S
H600 C585 0.961 . S
H601 C585 0.961 . S
H602 C586 0.931 . S
H603 C591 0.930 . S
H604 C592 0.956 . S
H605 C592 0.961 . S
H606 C592 0.961 . S
H607 C593 0.958 . S
H608 C593 0.961 . S
H609 C593 0.960 . S
C610 C611 1.391 . S
C610 C612 1.394 . S
C610 H626 0.931 . S
C611 C610 1.391 . S
C611 C615 1.376 . S
C612 C610 1.394 . S
C612 C613 1.369 . S
C612 C616 1.531 . S
C613 C612 1.369 . S
C613 C614 1.410 . S
C613 C621 1.503 . S
C614 C613 1.410 . S
C614 C615 1.392 . S
C614 C617 1.511 . S
C615 C611 1.376 . S
C615 C614 1.392 . S
C615 H627 0.929 . S
C616 C612 1.531 . S
C616 H628 0.960 . S
C616 H629 0.962 . S
C616 H630 0.960 . S
C617 C614 1.511 . S
C617 H631 0.961 . S
C617 H632 0.961 . S
C617 H633 0.961 . S
C618 C619 1.370 . S
C618 C620 1.363 . S
C618 H634 0.931 . S
C619 C618 1.370 . S
C619 C623 1.408 . S
C620 C618 1.363 . S
C620 C621 1.370 . S
C620 C624 1.524 . S
C621 C613 1.503 . S
C621 C620 1.370 . S
C621 C622 1.403 . S
C622 C621 1.403 . S
C622 C623 1.404 . S
C622 C625 1.539 . S
C623 C619 1.408 . S
C623 C622 1.404 . S
C623 H635 0.930 . S
C624 C620 1.524 . S
C624 H636 0.956 . S
C624 H637 0.961 . S
C624 H638 0.961 . S
C625 C622 1.539 . S
C625 H639 0.958 . S
C625 H640 0.961 . S
C625 H641 0.960 . S
H626 C610 0.931 . S
H627 C615 0.929 . S
H628 C616 0.960 . S
H629 C616 0.962 . S
H630 C616 0.960 . S
H631 C617 0.961 . S
H632 C617 0.961 . S
H633 C617 0.961 . S
H634 C618 0.931 . S
H635 C623 0.930 . S
H636 C624 0.956 . S
H637 C624 0.961 . S
H638 C624 0.961 . S
H639 C625 0.958 . S
H640 C625 0.961 . S
H641 C625 0.960 . S
C642 C643 1.391 . S
C642 C644 1.394 . S
C642 H658 0.931 . S
C643 C642 1.391 . S
C643 C647 1.376 . S
C644 C642 1.394 . S
C644 C645 1.369 . S
C644 C648 1.531 . S
C645 C644 1.369 . S
C645 C646 1.410 . S
C645 C653 1.503 . S
C646 C645 1.410 . S
C646 C647 1.392 . S
C646 C649 1.511 . S
C647 C643 1.376 . S
C647 C646 1.392 . S
C647 H659 0.929 . S
C648 C644 1.531 . S
C648 H660 0.960 . S
C648 H661 0.962 . S
C648 H662 0.960 . S
C649 C646 1.511 . S
C649 H663 0.961 . S
C649 H664 0.961 . S
C649 H665 0.961 . S
C650 C651 1.370 . S
C650 C652 1.363 . S
C650 H666 0.931 . S
C651 C650 1.370 . S
C651 C655 1.408 . S
C652 C650 1.363 . S
C652 C653 1.370 . S
C652 C656 1.524 . S
C653 C645 1.503 . S
C653 C652 1.370 . S
C653 C654 1.403 . S
C654 C653 1.403 . S
C654 C655 1.404 . S
C654 C657 1.539 . S
C655 C651 1.408 . S
C655 C654 1.404 . S
C655 H667 0.930 . S
C656 C652 1.524 . S
C656 H668 0.956 . S
C656 H669 0.961 . S
C656 H670 0.961 . S
C657 C654 1.539 . S
C657 H671 0.958 . S
C657 H672 0.961 . S
C657 H673 0.960 . S
H658 C642 0.931 . S
H659 C647 0.929 . S
H660 C648 0.960 . S
H661 C648 0.962 . S
H662 C648 0.960 . S
H663 C649 0.961 . S
H664 C649 0.961 . S
H665 C649 0.961 . S
H666 C650 0.931 . S
H667 C655 0.930 . S
H668 C656 0.956 . S
H669 C656 0.961 . S
H670 C656 0.961 . S
H671 C657 0.958 . S
H672 C657 0.961 . S
H673 C657 0.960 . S
C674 C675 1.391 . S
C674 C676 1.394 . S
C674 H690 0.931 . S
C675 C674 1.391 . S
C675 C679 1.376 . S
C676 C674 1.394 . S
C676 C677 1.369 . S
C676 C680 1.531 . S
C677 C676 1.369 . S
C677 C678 1.410 . S
C677 C685 1.503 . S
C678 C677 1.410 . S
C678 C679 1.392 . S
C678 C681 1.511 . S
C679 C675 1.376 . S
C679 C678 1.392 . S
C679 H691 0.929 . S
C680 C676 1.531 . S
C680 H692 0.960 . S
C680 H693 0.962 . S
C680 H694 0.960 . S
C681 C678 1.511 . S
C681 H695 0.961 . S
C681 H696 0.961 . S
C681 H697 0.961 . S
C682 C683 1.370 . S
C682 C684 1.363 . S
C682 H698 0.931 . S
C683 C682 1.370 . S
C683 C687 1.408 . S
C684 C682 1.363 . S
C684 C685 1.370 . S
C684 C688 1.524 . S
C685 C677 1.503 . S
C685 C684 1.370 . S
C685 C686 1.403 . S
C686 C685 1.403 . S
C686 C687 1.404 . S
C686 C689 1.539 . S
C687 C683 1.408 . S
C687 C686 1.404 . S
C687 H699 0.930 . S
C688 C684 1.524 . S
C688 H700 0.956 . S
C688 H701 0.961 . S
C688 H702 0.961 . S
C689 C686 1.539 . S
C689 H703 0.958 . S
C689 H704 0.961 . S
C689 H705 0.960 . S
H690 C674 0.931 . S
H691 C679 0.929 . S
H692 C680 0.960 . S
H693 C680 0.962 . S
H694 C680 0.960 . S
H695 C681 0.961 . S
H696 C681 0.961 . S
H697 C681 0.961 . S
H698 C682 0.931 . S
H699 C687 0.930 . S
H700 C688 0.956 . S
H701 C688 0.961 . S
H702 C688 0.961 . S
H703 C689 0.958 . S
H704 C689 0.961 . S
H705 C689 0.960 . S
C706 C707 1.391 . S
C706 C708 1.394 . S
C706 H722 0.931 . S
C707 C706 1.391 . S
C707 C711 1.376 . S
C708 C706 1.394 . S
C708 C709 1.369 . S
C708 C712 1.531 . S
C709 C708 1.369 . S
C709 C710 1.410 . S
C709 C717 1.503 . S
C710 C709 1.410 . S
C710 C711 1.392 . S
C710 C713 1.511 . S
C711 C707 1.376 . S
C711 C710 1.392 . S
C711 H723 0.929 . S
C712 C708 1.531 . S
C712 H724 0.960 . S
C712 H725 0.962 . S
C712 H726 0.960 . S
C713 C710 1.511 . S
C713 H727 0.961 . S
C713 H728 0.961 . S
C713 H729 0.961 . S
C714 C715 1.370 . S
C714 C716 1.363 . S
C714 H730 0.931 . S
C715 C714 1.370 . S
C715 C719 1.408 . S
C716 C714 1.363 . S
C716 C717 1.370 . S
C716 C720 1.524 . S
C717 C709 1.503 . S
C717 C716 1.370 . S
C717 C718 1.403 . S
C718 C717 1.403 . S
C718 C719 1.404 . S
C718 C721 1.539 . S
C719 C715 1.408 . S
C719 C718 1.404 . S
C719 H731 0.930 . S
C720 C716 1.524 . S
C720 H732 0.956 . S
C720 H733 0.961 . S
C720 H734 0.961 . S
C721 C718 1.539 . S
C721 H735 0.958 . S
C721 H736 0.961 . S
C721 H737 0.960 . S
H722 C706 0.931 . S
H723 C711 0.929 . S
H724 C712 0.960 . S
H725 C712 0.962 . S
H726 C712 0.960 . S
H727 C713 0.961 . S
H728 C713 0.961 . S
H729 C713 0.961 . S
H730 C714 0.931 . S
H731 C719 0.930 . S
H732 C720 0.956 . S
H733 C720 0.961 . S
H734 C720 0.961 . S
H735 C721 0.958 . S
H736 C721 0.961 . S
H737 C721 0.960 . S
C738 C739 1.391 . S
C738 C740 1.394 . S
C738 H754 0.931 . S
C739 C738 1.391 . S
C739 C743 1.376 . S
C740 C738 1.394 . S
C740 C741 1.369 . S
C740 C744 1.531 . S
C741 C740 1.369 . S
C741 C742 1.410 . S
C741 C749 1.503 . S
C742 C741 1.410 . S
C742 C743 1.392 . S
C742 C745 1.511 1_455 S
C743 C739 1.376 . S
C743 C742 1.392 . S
C743 H755 0.929 1_455 S
C744 C740 1.531 . S
C744 H756 0.960 . S
C744 H757 0.962 . S
C744 H758 0.960 . S
C745 C742 1.511 1_655 S
C745 H759 0.961 . S
C745 H760 0.961 . S
C745 H761 0.961 . S
C746 C747 1.396 . S
C746 C748 1.363 . S
C746 H762 0.931 . S
C747 C746 1.396 . S
C747 C751 1.424 . S
C748 C746 1.363 . S
C748 C749 1.370 . S
C748 C752 1.524 . S
C749 C741 1.503 . S
C749 C748 1.370 . S
C749 C750 1.403 . S
C750 C749 1.403 . S
C750 C751 1.404 . S
C750 C753 1.539 1_455 S
C751 C747 1.424 . S
C751 C750 1.404 . S
C751 H763 0.930 1_454 S
C752 C748 1.524 . S
C752 H764 0.956 . S
C752 H765 0.961 . S
C752 H766 0.961 . S
C753 C750 1.539 1_655 S
C753 H767 0.958 . S
C753 H768 0.961 . S
C753 H769 0.960 . S
H754 C738 0.931 . S
H755 C743 0.929 1_655 S
H756 C744 0.960 . S
H757 C744 0.962 . S
H758 C744 0.960 . S
H759 C745 0.961 . S
H760 C745 0.961 . S
H761 C745 0.961 . S
H762 C746 0.931 . S
H763 C751 0.930 1_656 S
H764 C752 0.956 . S
H765 C752 0.961 . S
H766 C752 0.961 . S
H767 C753 0.958 . S
H768 C753 0.961 . S
H769 C753 0.960 . S
C770 C771 1.391 . S
C770 C772 1.394 . S
C770 H786 0.931 . S
C771 C770 1.391 . S
C771 C775 1.376 . S
C772 C770 1.394 . S
C772 C773 1.369 . S
C772 C776 1.531 . S
C773 C772 1.369 . S
C773 C774 1.410 . S
C773 C781 1.503 . S
C774 C773 1.410 . S
C774 C775 1.392 . S
C774 C777 1.511 1_545 S
C775 C771 1.376 . S
C775 C774 1.392 . S
C775 H787 0.929 1_545 S
C776 C772 1.531 . S
C776 H788 0.960 . S
C776 H789 0.962 . S
C776 H790 0.960 . S
C777 C774 1.511 1_565 S
C777 H791 0.961 . S
C777 H792 0.961 . S
C777 H793 0.961 1_565 S
C778 C779 1.370 1_565 S
C778 C780 1.363 . S
C778 H794 0.931 . S
C779 C778 1.370 1_545 S
C779 C783 1.408 . S
C780 C778 1.363 . S
C780 C781 1.370 1_565 S
C780 C784 1.524 . S
C781 C773 1.503 . S
C781 C780 1.370 1_545 S
C781 C782 1.403 . S
C782 C781 1.403 . S
C782 C783 1.404 . S
C782 C785 1.539 . S
C783 C779 1.408 . S
C783 C782 1.404 . S
C783 H795 0.930 . S
C784 C780 1.524 . S
C784 H796 0.956 . S
C784 H797 0.961 . S
C784 H798 0.961 . S
C785 C782 1.539 . S
C785 H799 0.958 . S
C785 H800 0.961 . S
C785 H801 0.960 . S
H786 C770 0.931 . S
H787 C775 0.929 1_565 S
H788 C776 0.960 . S
H789 C776 0.962 . S
H790 C776 0.960 . S
H791 C777 0.961 . S
H792 C777 0.961 . S
H793 C777 0.961 1_545 S
H794 C778 0.931 . S
H795 C783 0.930 . S
H796 C784 0.956 . S
H797 C784 0.961 . S
H798 C784 0.961 . S
H799 C785 0.958 . S
H800 C785 0.961 . S
H801 C785 0.960 . S
C802 C803 1.391 . S
C802 C804 1.394 . S
C802 H818 0.931 . S
C803 C802 1.391 . S
C803 C807 1.376 . S
C804 C802 1.394 . S
C804 C805 1.369 . S
C804 C808 1.531 . S
C805 C804 1.369 . S
C805 C806 1.410 . S
C805 C813 1.503 . S
C806 C805 1.410 . S
C806 C807 1.392 . S
C806 C809 1.511 . S
C807 C803 1.376 . S
C807 C806 1.392 . S
C807 H819 0.929 . S
C808 C804 1.531 . S
C808 H820 0.960 . S
C808 H821 0.962 . S
C808 H822 0.960 . S
C809 C806 1.511 . S
C809 H823 0.961 . S
C809 H824 0.961 . S
C809 H825 0.961 . S
C810 C811 1.370 . S
C810 C812 1.363 . S
C810 H826 0.931 . S
C811 C810 1.370 . S
C811 C815 1.408 . S
C812 C810 1.363 . S
C812 C813 1.370 . S
C812 C816 1.524 . S
C813 C805 1.503 . S
C813 C812 1.370 . S
C813 C814 1.403 . S
C814 C813 1.403 . S
C814 C815 1.404 . S
C814 C817 1.539 . S
C815 C811 1.408 . S
C815 C814 1.404 . S
C815 H827 0.930 . S
C816 C812 1.524 . S
C816 H828 0.956 . S
C816 H829 0.961 . S
C816 H830 0.961 . S
C817 C814 1.539 . S
C817 H831 0.958 . S
C817 H832 0.961 . S
C817 H833 0.960 . S
H818 C802 0.931 . S
H819 C807 0.929 . S
H820 C808 0.960 . S
H821 C808 0.962 . S
H822 C808 0.960 . S
H823 C809 0.961 . S
H824 C809 0.961 . S
H825 C809 0.961 . S
H826 C810 0.931 . S
H827 C815 0.930 . S
H828 C816 0.956 . S
H829 C816 0.961 . S
H830 C816 0.961 . S
H831 C817 0.958 . S
H832 C817 0.961 . S
H833 C817 0.960 . S
C834 C835 1.391 1_565 S
C834 C836 1.394 . S
C834 H850 0.931 . S
C835 C834 1.391 1_545 S
C835 C839 1.376 . S
C836 C834 1.394 . S
C836 C837 1.369 1_565 S
C836 C840 1.531 . S
C837 C836 1.369 1_545 S
C837 C838 1.410 . S
C837 C845 1.503 . S
C838 C837 1.410 . S
C838 C839 1.392 . S
C838 C841 1.511 . S
C839 C835 1.376 . S
C839 C838 1.392 . S
C839 H851 0.929 . S
C840 C836 1.531 . S
C840 H852 0.960 . S
C840 H853 0.962 . S
C840 H854 0.960 . S
C841 C838 1.511 . S
C841 H855 0.961 . S
C841 H856 0.961 . S
C841 H857 0.961 . S
C842 C843 1.370 . S
C842 C844 1.363 . S
C842 H858 0.931 . S
C843 C842 1.370 . S
C843 C847 1.408 1_565 S
C844 C842 1.363 . S
C844 C845 1.370 1_565 S
C844 C848 1.524 . S
C845 C837 1.503 . S
C845 C844 1.370 1_545 S
C845 C846 1.403 . S
C846 C845 1.403 . S
C846 C847 1.404 . S
C846 C849 1.539 . S
C847 C843 1.408 1_545 S
C847 C846 1.404 . S
C847 H859 0.930 . S
C848 C844 1.524 . S
C848 H860 0.956 . S
C848 H861 0.961 . S
C848 H862 0.961 . S
C849 C846 1.539 . S
C849 H863 0.958 . S
C849 H864 0.961 . S
C849 H865 0.960 . S
H850 C834 0.931 . S
H851 C839 0.929 . S
H852 C840 0.960 . S
H853 C840 0.962 . S
H854 C840 0.960 . S
H855 C841 0.961 . S
H856 C841 0.961 . S
H857 C841 0.961 . S
H858 C842 0.931 . S
H859 C847 0.930 . S
H860 C848 0.956 . S
H861 C848 0.961 . S
H862 C848 0.961 . S
H863 C849 0.958 . S
H864 C849 0.961 . S
H865 C849 0.960 . S
C866 C867 1.391 . S
C866 C868 1.394 . S
C866 H882 0.931 . S
C867 C866 1.391 . S
C867 C871 1.376 . S
C868 C866 1.394 . S
C868 C869 1.369 . S
C868 C872 1.531 . S
C869 C868 1.369 . S
C869 C870 1.410 . S
C869 C877 1.503 . S
C870 C869 1.410 . S
C870 C871 1.392 . S
C870 C873 1.511 . S
C871 C867 1.376 . S
C871 C870 1.392 . S
C871 H883 0.929 . S
C872 C868 1.531 . S
C872 H884 0.960 . S
C872 H885 0.962 . S
C872 H886 0.960 . S
C873 C870 1.511 . S
C873 H887 0.961 . S
C873 H888 0.961 . S
C873 H889 0.961 . S
C874 C875 1.370 . S
C874 C876 1.363 . S
C874 H890 0.931 . S
C875 C874 1.370 . S
C875 C879 1.408 . S
C876 C874 1.363 . S
C876 C877 1.370 . S
C876 C880 1.524 . S
C877 C869 1.503 . S
C877 C876 1.370 . S
C877 C878 1.403 . S
C878 C877 1.403 . S
C878 C879 1.404 . S
C878 C881 1.539 . S
C879 C875 1.408 . S
C879 C878 1.404 . S
C879 H891 0.930 . S
C880 C876 1.524 . S
C880 H892 0.956 . S
C880 H893 0.961 . S
C880 H894 0.961 . S
C881 C878 1.539 . S
C881 H895 0.958 . S
C881 H896 0.961 . S
C881 H897 0.960 . S
H882 C866 0.931 . S
H883 C871 0.929 . S
H884 C872 0.960 . S
H885 C872 0.962 . S
H886 C872 0.960 . S
H887 C873 0.961 . S
H888 C873 0.961 . S
H889 C873 0.961 . S
H890 C874 0.931 . S
H891 C879 0.930 . S
H892 C880 0.956 . S
H893 C880 0.961 . S
H894 C880 0.961 . S
H895 C881 0.958 . S
H896 C881 0.961 . S
H897 C881 0.960 . S
C898 C899 1.391 . S
C898 C900 1.394 . S
C898 H914 0.931 . S
C899 C898 1.391 . S
C899 C903 1.376 . S
C900 C898 1.394 . S
C900 C901 1.369 . S
C900 C904 1.531 . S
C901 C900 1.369 . S
C901 C902 1.410 . S
C901 C909 1.503 . S
C902 C901 1.410 . S
C902 C903 1.392 . S
C902 C905 1.511 . S
C903 C899 1.376 . S
C903 C902 1.392 . S
C903 H915 0.929 . S
C904 C900 1.531 . S
C904 H916 0.960 . S
C904 H917 0.962 . S
C904 H918 0.960 . S
C905 C902 1.511 . S
C905 H919 0.961 1_455 S
C905 H920 0.961 1_455 S
C905 H921 0.961 . S
C906 C907 1.370 1_655 S
C906 C908 1.363 . S
C906 H922 0.931 . S
C907 C906 1.370 1_455 S
C907 C911 1.408 . S
C908 C906 1.363 . S
C908 C909 1.370 1_655 S
C908 C912 1.524 . S
C909 C901 1.503 . S
C909 C908 1.370 1_455 S
C909 C910 1.403 . S
C910 C909 1.403 . S
C910 C911 1.404 . S
C910 C913 1.539 . S
C911 C907 1.408 . S
C911 C910 1.404 . S
C911 H923 0.930 . S
C912 C908 1.524 . S
C912 H924 0.956 . S
C912 H925 0.961 . S
C912 H926 0.961 . S
C913 C910 1.539 . S
C913 H927 0.958 . S
C913 H928 0.961 . S
C913 H929 0.960 . S
H914 C898 0.931 . S
H915 C903 0.929 . S
H916 C904 0.960 . S
H917 C904 0.962 . S
H918 C904 0.960 . S
H919 C905 0.961 1_655 S
H920 C905 0.961 1_655 S
H921 C905 0.961 . S
H922 C906 0.931 . S
H923 C911 0.930 . S
H924 C912 0.956 . S
H925 C912 0.961 . S
H926 C912 0.961 . S
H927 C913 0.958 . S
H928 C913 0.961 . S
H929 C913 0.960 . S
C355 C7 0.541 . S
C363 C331 0.623 . S
C387 C51 1.924 . S
C395 C258 1.909 . S
C419 C87 1.251 . S
C427 C297 1.245 . S
C451 C16 0.399 . S
C459 C336 0.296 . S
C491 C253 2.001 . S
C483 C42 2.043 . S
C523 C292 1.320 . S
C515 C96 1.326 . S
C547 C47 1.235 . S
C555 C180 1.228 . S
C579 C91 3.124 . S
C587 C214 3.086 . S
C611 C2 2.074 . S
C619 C136 2.026 . S
C651 C175 1.298 . S
C643 C56 1.270 . S
C683 C219 2.975 . S
C675 C82 3.003 . S
C707 C11 1.933 . S
C715 C141 1.908 . S
C747 C199 1.733 1_554 S
C739 C19 1.716 . S
C771 C50 1.330 . S
C779 C121 1.381 . S
C803 C99 1.460 . S
C811 C160 1.510 . S
C843 C277 1.490 . S
C835 C59 1.455 . S
C875 C316 1.104 1_556 S
C867 C90 1.064 . S
C899 C10 1.328 . S
C907 C238 1.367 1_455 S
