# Generated by pormake.
# Topology tsx, (6,3)-cn, num edge types: 1
# Building blocks:
#     Node 0, Type 0, BuildingBlock: VOLQOD_clean_sbu_1, # of connection points: 6
#     Node 1, Type 0, BuildingBlock: VOLQOD_clean_sbu_1, # of connection points: 6
#     Node 2, Type 1, BuildingBlock: INOVEN_clean_linker_0, # of connection points: 3
#     Node 3, Type 1, BuildingBlock: INOVEN_clean_linker_0, # of connection points: 3
#     Node 4, Type 1, BuildingBlock: INOVEN_clean_linker_0, # of connection points: 3
#     Node 5, Type 1, BuildingBlock: INOVEN_clean_linker_0, # of connection points: 3
#     Edge 6, Type (0, 1), BuildingBlock: FUNLAD_clean_linker_0, # of connection points: 2
#     Edge 7, Type (0, 1), BuildingBlock: FUNLAD_clean_linker_0, # of connection points: 2
#     Edge 8, Type (0, 1), BuildingBlock: FUNLAD_clean_linker_0, # of connection points: 2
#     Edge 9, Type (0, 1), BuildingBlock: FUNLAD_clean_linker_0, # of connection points: 2
#     Edge 10, Type (0, 1), BuildingBlock: FUNLAD_clean_linker_0, # of connection points: 2
#     Edge 11, Type (0, 1), BuildingBlock: FUNLAD_clean_linker_0, # of connection points: 2
#     Edge 12, Type (0, 1), BuildingBlock: FUNLAD_clean_linker_0, # of connection points: 2
#     Edge 13, Type (0, 1), BuildingBlock: FUNLAD_clean_linker_0, # of connection points: 2
#     Edge 14, Type (0, 1), BuildingBlock: FUNLAD_clean_linker_0, # of connection points: 2
#     Edge 15, Type (0, 1), BuildingBlock: FUNLAD_clean_linker_0, # of connection points: 2
#     Edge 16, Type (0, 1), BuildingBlock: FUNLAD_clean_linker_0, # of connection points: 2
#     Edge 17, Type (0, 1), BuildingBlock: FUNLAD_clean_linker_0, # of connection points: 2
# Relax obj value: 0.049
# Max RMSD: 0.108
# Mean RMSD: 0.097
data_MOF--net-tsx--node1-VOLQOD_clean_sbu_1--node2-INOVEN_clean_linker_0--edge1-FUNLAD_clean_linker_0
_symmetry_space_group_name_H-M    P1
_symmetry_Int_Tables_number       1
_symmetry_cell_setting            triclinic
loop_
_symmetry_equiv_pos_as_xyz
'x, y, z'
_cell_length_a     24.350816
_cell_length_b     25.216716
_cell_length_c     43.465554
_cell_angle_alpha  90.147989
_cell_angle_beta   97.807792
_cell_angle_gamma 89.875144
loop_
_atom_site_label
_atom_site_type_symbol
_atom_site_fract_x
_atom_site_fract_y
_atom_site_fract_z
_atom_type_partial_charge
O0 O 0.0653 0.02467 0.07713 0.0
Zn1 Zn 0.07652 0.0214 0.03195 0.0
O2 O 0.00605 0.02728 0.00445 0.0
Zn3 Zn 0.99449 0.96425 0.97785 0.0
Zn4 Zn 0.94545 0.03325 0.02933 0.0
Zn5 Zn 0.00735 0.09083 0.97889 0.0
O6 O 0.98822 0.98432 0.93247 0.0
O7 O 0.99784 0.07188 0.93359 0.0
O8 O 0.11602 0.95374 0.024 0.0
O9 O 0.05956 0.91454 0.98633 0.0
O10 O 0.92632 0.92329 0.98567 0.0
O11 O 0.89457 0.97056 0.02264 0.0
O12 O 0.90014 0.09913 0.01897 0.0
O13 O 0.12819 0.08063 0.02434 0.0
O14 O 0.94637 0.14143 0.98588 0.0
O15 O 0.07982 0.12961 0.9879 0.0
C16 C 0.02237 0.03187 0.09045 0.0
C17 C 0.99091 0.02849 0.91855 0.0
C18 C 0.89137 0.93047 0.00462 0.0
C19 C 0.10451 0.91543 0.00511 0.0
C20 C 0.90642 0.13901 0.00192 0.0
C21 C 0.12409 0.12055 0.00629 0.0
O22 O 0.97447 0.0365 0.07479 0.0
O23 O 0.54406 0.49575 0.57297 0.0
Zn24 Zn 0.56056 0.49188 0.52864 0.0
O25 O 0.49257 0.49486 0.49877 0.0
Zn26 Zn 0.48527 0.42956 0.47358 0.0
Zn27 Zn 0.42898 0.50245 0.52125 0.0
Zn28 Zn 0.49484 0.5567 0.47191 0.0
O29 O 0.48441 0.44675 0.42787 0.0
O30 O 0.4885 0.53473 0.42725 0.0
O31 O 0.60291 0.42438 0.52356 0.0
O32 O 0.55057 0.38051 0.48609 0.0
O33 O 0.41451 0.38986 0.47895 0.0
O34 O 0.37642 0.44216 0.51141 0.0
O35 O 0.38703 0.57038 0.5109 0.0
O36 O 0.61128 0.55258 0.52207 0.0
O37 O 0.43395 0.60934 0.47698 0.0
O38 O 0.567 0.59546 0.48152 0.0
C39 C 0.49895 0.50001 0.5846 0.0
C40 C 0.48564 0.49033 0.41313 0.0
C41 C 0.37539 0.40048 0.49476 0.0
C42 C 0.59404 0.38392 0.50599 0.0
C43 C 0.39421 0.60921 0.49325 0.0
C44 C 0.60887 0.58983 0.50219 0.0
O45 O 0.45242 0.50268 0.56735 0.0
H46 H 0.05105 0.01545 0.4649 0.0
H47 H 0.14293 0.97789 0.38968 0.0
H48 H 0.99246 0.06876 0.37239 0.0
N49 N 0.97003 0.07156 0.42888 0.0
N50 N 0.96201 0.07752 0.45642 0.0
C51 C 0.05631 0.01838 0.4406 0.0
C52 C 0.10191 0.99367 0.42972 0.0
C53 C 0.01737 0.04636 0.41975 0.0
C54 C 0.02379 0.04859 0.38829 0.0
C55 C 0.06887 0.02406 0.37709 0.0
C56 C 0.10804 0.99724 0.39809 0.0
H57 H 0.94266 0.98884 0.54124 0.0
H58 H 0.9132 0.93007 0.6304 0.0
H59 H 0.02178 0.06258 0.62519 0.0
N60 N 0.01057 0.06624 0.5626 0.0
N61 N 0.02532 0.11092 0.5729 0.0
C62 C 0.95018 0.9905 0.56638 0.0
C63 C 0.92299 0.95519 0.58412 0.0
C64 C 0.98507 0.02985 0.58104 0.0
C65 C 0.99418 0.03277 0.61374 0.0
C66 C 0.96912 0.99614 0.63167 0.0
C67 C 0.93346 0.95785 0.61663 0.0
H68 H 0.52723 0.50341 0.96051 0.0
H69 H 0.58336 0.44427 0.87722 0.0
H70 H 0.48677 0.58762 0.87451 0.0
N71 N 0.47354 0.58643 0.93528 0.0
N72 N 0.45883 0.6304 0.92393 0.0
C73 C 0.52982 0.50705 0.93589 0.0
C74 C 0.55878 0.46902 0.92084 0.0
C75 C 0.50385 0.54978 0.91938 0.0
C76 C 0.50682 0.55454 0.88738 0.0
C77 C 0.53541 0.51654 0.87193 0.0
C78 C 0.56122 0.47386 0.88889 0.0
H79 H 0.52458 0.46574 0.04107 0.0
H80 H 0.48114 0.38696 0.12208 0.0
H81 H 0.56357 0.53766 0.13127 0.0
N82 N 0.56977 0.55029 0.07006 0.0
N83 N 0.58068 0.59281 0.08428 0.0
C84 C 0.52434 0.46435 0.06598 0.0
C85 C 0.50094 0.4208 0.07946 0.0
C86 C 0.54673 0.5067 0.08446 0.0
C87 C 0.54592 0.50525 0.11681 0.0
C88 C 0.52313 0.46168 0.13063 0.0
C89 C 0.50092 0.41966 0.11175 0.0
C90 C 0.22272 0.14518 0.02467 0.0
C91 C 0.17174 0.15707 0.00674 0.0
C92 C 0.26728 0.18021 0.02585 0.0
C93 C 0.26193 0.22798 0.00901 0.0
C94 C 0.21114 0.23967 0.99093 0.0
C95 C 0.16661 0.20447 0.98961 0.0
C96 C 0.30635 0.26866 0.0123 0.0
C97 C 0.36033 0.25726 0.0209 0.0
C98 C 0.4021 0.29857 0.03131 0.0
C99 C 0.4457 0.28544 0.05458 0.0
C100 C 0.48024 0.32487 0.069 0.0
C101 C 0.47229 0.37813 0.0601 0.0
H102 H 0.36524 0.36247 0.0019 0.0
C103 C 0.43195 0.39069 0.03491 0.0
C104 C 0.39708 0.35124 0.0206 0.0
H105 H 0.42516 0.43143 0.02747 0.0
H106 H 0.2281 0.10909 0.03822 0.0
H107 H 0.30498 0.17045 0.04094 0.0
H108 H 0.20566 0.27648 0.97806 0.0
H109 H 0.12791 0.21494 0.97559 0.0
H110 H 0.29312 0.30969 0.0093 0.0
H111 H 0.37344 0.21618 0.0238 0.0
H112 H 0.45101 0.24506 0.06294 0.0
H113 H 0.51166 0.31406 0.08807 0.0
C114 C 0.20191 0.88154 0.01506 0.0
C115 C 0.14593 0.873 0.00332 0.0
C116 C 0.24211 0.84391 0.01034 0.0
C117 C 0.22694 0.7968 0.99407 0.0
C118 C 0.17074 0.78688 0.98392 0.0
C119 C 0.13061 0.82489 0.98818 0.0
C120 C 0.26898 0.75829 0.98636 0.0
C121 C 0.31753 0.77403 0.97791 0.0
C122 C 0.35623 0.73664 0.96568 0.0
C123 C 0.38538 0.7534 0.94174 0.0
C124 C 0.41954 0.71808 0.92834 0.0
C125 C 0.42623 0.66596 0.93916 0.0
H126 H 0.34282 0.67092 0.99594 0.0
C127 C 0.39873 0.64955 0.96394 0.0
C128 C 0.36381 0.68459 0.97702 0.0
H129 H 0.40323 0.60944 0.97277 0.0
H130 H 0.21502 0.9181 0.02696 0.0
H131 H 0.28506 0.85199 0.0191 0.0
H132 H 0.15808 0.75058 0.97158 0.0
H133 H 0.08773 0.81696 0.97913 0.0
H134 H 0.25713 0.71678 0.98419 0.0
H135 H 0.32653 0.81614 0.97679 0.0
H136 H 0.3804 0.79342 0.93276 0.0
H137 H 0.44051 0.73122 0.90929 0.0
C138 C 0.81089 0.89675 0.02902 0.0
C139 C 0.84783 0.89026 0.00709 0.0
C140 C 0.77262 0.85728 0.03336 0.0
C141 C 0.7698 0.81031 0.01559 0.0
C142 C 0.80596 0.80434 0.99322 0.0
C143 C 0.84445 0.84387 0.98892 0.0
C144 C 0.7332 0.76518 0.02144 0.0
C145 C 0.68967 0.76976 0.03742 0.0
C146 C 0.65912 0.72354 0.04761 0.0
C147 C 0.63598 0.72787 0.07538 0.0
C148 C 0.60979 0.68456 0.08698 0.0
C149 C 0.60521 0.63644 0.07081 0.0
H150 H 0.66933 0.67117 0.00896 0.0
C151 C 0.62649 0.63226 0.04237 0.0
C152 C 0.65336 0.6755 0.03088 0.0
H153 H 0.62321 0.59552 0.02931 0.0
H154 H 0.81245 0.9318 0.04357 0.0
H155 H 0.74708 0.86336 0.05154 0.0
H156 H 0.80512 0.7685 0.97935 0.0
H157 H 0.8723 0.83749 0.97184 0.0
H158 H 0.74443 0.72632 0.01343 0.0
H159 H 0.67799 0.80834 0.0455 0.0
H160 H 0.63951 0.76446 0.08862 0.0
H161 H 0.59345 0.68836 0.10885 0.0
C162 C 0.81403 0.17612 0.01027 0.0
C163 C 0.86612 0.18315 0.00032 0.0
C164 C 0.77496 0.2171 0.00719 0.0
C165 C 0.78753 0.266 0.99436 0.0
C166 C 0.84032 0.27371 0.98568 0.0
C167 C 0.87907 0.23256 0.98832 0.0
C168 C 0.74616 0.30919 0.98874 0.0
C169 C 0.69195 0.29976 0.97986 0.0
C170 C 0.65334 0.34249 0.96766 0.0
C171 C 0.6135 0.33171 0.94197 0.0
C172 C 0.58147 0.37264 0.92726 0.0
C173 C 0.58795 0.42485 0.93844 0.0
H174 H 0.68729 0.40341 0.00012 0.0
C175 C 0.62514 0.43509 0.9654 0.0
C176 C 0.65781 0.39425 0.97985 0.0
H177 H 0.63067 0.47504 0.97452 0.0
H178 H 0.80298 0.13861 0.01982 0.0
H179 H 0.735 0.2104 0.01479 0.0
H180 H 0.85107 0.31119 0.97593 0.0
H181 H 0.91907 0.23943 0.98079 0.0
H182 H 0.76176 0.34946 0.98799 0.0
H183 H 0.67718 0.25914 0.97728 0.0
H184 H 0.609 0.29201 0.93237 0.0
H185 H 0.55245 0.36373 0.90674 0.0
C186 C 0.69347 0.63228 0.53088 0.0
C187 C 0.65436 0.62894 0.50404 0.0
C188 C 0.73301 0.67254 0.534 0.0
C189 C 0.73448 0.71006 0.51027 0.0
C190 C 0.69783 0.70487 0.48266 0.0
C191 C 0.65767 0.66494 0.47966 0.0
C192 C 0.77172 0.75651 0.51491 0.0
C193 C 0.77705 0.78335 0.54189 0.0
C194 C 0.81175 0.83114 0.54864 0.0
C195 C 0.79789 0.86617 0.57145 0.0
C196 C 0.83264 0.90822 0.58156 0.0
C197 C 0.88267 0.91571 0.56946 0.0
H198 H 0.87248 0.81345 0.51775 0.0
C199 C 0.89546 0.88236 0.54546 0.0
C200 C 0.86023 0.84022 0.53511 0.0
H201 H 0.93393 0.88718 0.53586 0.0
H202 H 0.69242 0.60492 0.54996 0.0
H203 H 0.76178 0.67499 0.55528 0.0
H204 H 0.69861 0.73312 0.46398 0.0
H205 H 0.62854 0.66298 0.45851 0.0
H206 H 0.79079 0.77113 0.49541 0.0
H207 H 0.75276 0.77083 0.55983 0.0
H208 H 0.76061 0.86023 0.58208 0.0
H209 H 0.82118 0.93398 0.59965 0.0
C210 C 0.62578 0.29377 0.49099 0.0
C211 C 0.6364 0.3412 0.50778 0.0
C212 C 0.66709 0.25513 0.49096 0.0
C213 C 0.72042 0.2634 0.50737 0.0
C214 C 0.73014 0.30973 0.52525 0.0
C215 C 0.68873 0.3482 0.52545 0.0
C216 C 0.76733 0.22581 0.50566 0.0
C217 C 0.76942 0.19247 0.48154 0.0
C218 C 0.81891 0.1604 0.47656 0.0
C219 C 0.8228 0.14278 0.44629 0.0
C220 C 0.86927 0.11494 0.43965 0.0
C221 C 0.91311 0.10345 0.46328 0.0
H222 H 0.86003 0.159 0.52429 0.0
C223 C 0.90865 0.11916 0.49379 0.0
C224 C 0.86201 0.1475 0.50048 0.0
H225 H 0.94174 0.11029 0.51229 0.0
H226 H 0.58564 0.28661 0.47757 0.0
H227 H 0.65685 0.2191 0.47792 0.0
H228 H 0.7705 0.317 0.53841 0.0
H229 H 0.69833 0.38407 0.53885 0.0
H230 H 0.80324 0.22966 0.52326 0.0
H231 H 0.73516 0.19199 0.46277 0.0
H232 H 0.79019 0.15157 0.42744 0.0
H233 H 0.87098 0.10285 0.41588 0.0
C234 C 0.28448 0.37663 0.51147 0.0
C235 C 0.32841 0.36323 0.49501 0.0
C236 C 0.24185 0.34081 0.51398 0.0
C237 C 0.24151 0.29054 0.49978 0.0
C238 C 0.28492 0.27736 0.48287 0.0
C239 C 0.32782 0.31341 0.48035 0.0
C240 C 0.19965 0.24958 0.50484 0.0
C241 C 0.15025 0.26161 0.51382 0.0
C242 C 0.11472 0.22184 0.5265 0.0
C243 C 0.08642 0.2373 0.55112 0.0
C244 C 0.05645 0.20037 0.56584 0.0
C245 C 0.05283 0.1477 0.55574 0.0
H246 H 0.1304 0.15633 0.49632 0.0
C247 C 0.07884 0.13233 0.5301 0.0
C248 C 0.10998 0.16915 0.51569 0.0
H249 H 0.07644 0.09176 0.5218 0.0
H250 H 0.28355 0.4145 0.5232 0.0
H251 H 0.21073 0.35227 0.52824 0.0
H252 H 0.28615 0.23873 0.47202 0.0
H253 H 0.36111 0.30173 0.46757 0.0
H254 H 0.21171 0.20828 0.50315 0.0
H255 H 0.13772 0.30275 0.51527 0.0
H256 H 0.08925 0.27768 0.55978 0.0
H257 H 0.03653 0.2127 0.58551 0.0
C258 C 0.36897 0.70287 0.47777 0.0
C259 C 0.35609 0.65535 0.49202 0.0
C260 C 0.33315 0.74643 0.4767 0.0
C261 C 0.28346 0.74341 0.48981 0.0
C262 C 0.27036 0.69582 0.50379 0.0
C263 C 0.30649 0.65243 0.50517 0.0
C264 C 0.24258 0.7876 0.48698 0.0
C265 C 0.25729 0.83893 0.48537 0.0
C266 C 0.21706 0.88264 0.47658 0.0
C267 C 0.23612 0.92806 0.46275 0.0
C268 C 0.19886 0.9664 0.44949 0.0
C269 C 0.14171 0.96047 0.45013 0.0
H270 H 0.14407 0.84565 0.49108 0.0
C271 C 0.1229 0.91764 0.4664 0.0
C272 C 0.16024 0.87895 0.47954 0.0
H273 H 0.07901 0.91228 0.46728 0.0
H274 H 0.40674 0.70647 0.46734 0.0
H275 H 0.34382 0.78178 0.46477 0.0
H276 H 0.23201 0.69218 0.51366 0.0
H277 H 0.29513 0.61636 0.51621 0.0
H278 H 0.19917 0.77673 0.485 0.0
H279 H 0.30103 0.84896 0.48784 0.0
H280 H 0.27968 0.93246 0.46055 0.0
H281 H 0.21443 -0.0006 0.43732 0.0
C282 C 0.07896 0.02514 0.14312 0.0
C283 C 0.02803 0.03575 0.12475 0.0
C284 C 0.08399 0.02912 0.17549 0.0
C285 C 0.03811 0.04387 0.19013 0.0
C286 C 0.98758 0.0552 0.17175 0.0
C287 C 0.98242 0.05085 0.13947 0.0
C288 C 0.04149 0.04898 0.22437 0.0
C289 C 0.07705 0.02083 0.24449 0.0
C290 C 0.0769 0.02349 0.2786 0.0
C291 C 0.09236 0.97841 0.29657 0.0
C292 C 0.09033 0.97873 0.32853 0.0
C293 C 0.07357 0.02454 0.34333 0.0
H294 H 0.05127 0.1059 0.28049 0.0
C295 C 0.05993 0.07028 0.32545 0.0
C296 C 0.0616 0.06982 0.29345 0.0
H297 H 0.04809 0.10657 0.33622 0.0
H298 H 0.11502 0.01378 0.13253 0.0
H299 H 0.12403 0.0215 0.18885 0.0
H300 H 0.95172 0.06703 0.18241 0.0
H301 H 0.94266 0.0597 0.12606 0.0
H302 H 0.01076 0.07404 0.23318 0.0
H303 H 0.10406 0.99172 0.23576 0.0
H304 H 0.10464 0.94233 0.28572 0.0
H305 H 0.10054 0.9426 0.34148 0.0
C306 C 0.99108 0.98203 0.86747 0.0
C307 C 0.98871 0.0294 0.88431 0.0
C308 C 0.99234 0.98307 0.83543 0.0
C309 C 0.99051 0.03167 0.81933 0.0
C310 C 0.9878 0.07892 0.83623 0.0
C311 C 0.98688 0.07788 0.86829 0.0
C312 C 0.99279 0.03527 0.78528 0.0
C313 C 0.98328 0.99399 0.76553 0.0
C314 C 0.98472 0.99734 0.73149 0.0
C315 C 0.9905 0.95004 0.71516 0.0
C316 C 0.98778 0.95012 0.68291 0.0
C317 C 0.97875 0.99757 0.66611 0.0
H318 H 0.97143 0.0825 0.72623 0.0
C319 C 0.97468 0.0453 0.68236 0.0
C320 C 0.97738 0.04526 0.71475 0.0
H321 H 0.96699 0.08235 0.66995 0.0
H322 H 0.99323 0.94401 0.87913 0.0
H323 H 0.9961 0.94558 0.82382 0.0
H324 H 0.98657 0.11695 0.8246 0.0
H325 H 0.98515 0.11519 0.88052 0.0
H326 H 0.00235 0.07381 0.77635 0.0
H327 H 0.97383 0.95537 0.77431 0.0
H328 H 0.99631 0.91259 0.72736 0.0
H329 H 0.99173 0.91277 0.67103 0.0
C330 C 0.55077 0.50009 0.63874 0.0
C331 C 0.50029 0.50247 0.61879 0.0
C332 C 0.55168 0.50274 0.67097 0.0
C333 C 0.50198 0.50814 0.68396 0.0
C334 C 0.45165 0.50999 0.66398 0.0
C335 C 0.45075 0.50737 0.63183 0.0
C336 C 0.50014 0.51026 0.71804 0.0
C337 C 0.54391 0.52214 0.73938 0.0
C338 C 0.54084 0.52283 0.77331 0.0
C339 C 0.58902 0.51212 0.79397 0.0
C340 C 0.58745 0.51069 0.82598 0.0
C341 C 0.5377 0.52063 0.83805 0.0
H342 H 0.45379 0.54464 0.77039 0.0
C343 C 0.48986 0.53314 0.81747 0.0
C344 C 0.49138 0.53434 0.78544 0.0
H345 H 0.45092 0.54099 0.82606 0.0
H346 H 0.58969 0.49594 0.6295 0.0
H347 H 0.59135 0.49956 0.6854 0.0
H348 H 0.4127 0.51372 0.67325 0.0
H349 H 0.41104 0.50919 0.61723 0.0
H350 H 0.46049 0.50165 0.7257 0.0
H351 H 0.58401 0.53012 0.73218 0.0
H352 H 0.62784 0.50387 0.7853 0.0
H353 H 0.62523 0.50183 0.8413 0.0
C354 C 0.49082 0.44192 0.36292 0.0
C355 C 0.4866 0.48979 0.37908 0.0
C356 C 0.49542 0.44206 0.33116 0.0
C357 C 0.49559 0.49027 0.31476 0.0
C358 C 0.49043 0.53789 0.33094 0.0
C359 C 0.48596 0.53774 0.3626 0.0
C360 C 0.50247 0.4936 0.28122 0.0
C361 C 0.50166 0.45173 0.2618 0.0
C362 C 0.50899 0.45645 0.22844 0.0
C363 C 0.52612 0.41156 0.21308 0.0
C364 C 0.5319 0.41357 0.18156 0.0
C365 C 0.52031 0.46055 0.16456 0.0
H366 H 0.48233 0.53867 0.22191 0.0
C367 C 0.5034 0.50563 0.17988 0.0
C368 C 0.49748 0.5036 0.21141 0.0
H369 H 0.49302 0.54207 0.16725 0.0
H370 H 0.49174 0.40428 0.37492 0.0
H371 H 0.49993 0.40425 0.32006 0.0
H372 H 0.49034 0.57566 0.31909 0.0
H373 H 0.4827 0.57544 0.37422 0.0
H374 H 0.5092 0.53292 0.27239 0.0
H375 H 0.49652 0.412 0.27034 0.0
H376 H 0.53506 0.37467 0.22551 0.0
H377 H 0.54536 0.37824 0.17046 0.0
loop_
_geom_bond_atom_site_label_1
_geom_bond_atom_site_label_2
_geom_bond_distance
_geom_bond_site_symmetry_2
_ccdc_geom_bond_type
O0 Zn1 1.953 . S
O0 C16 1.225 1_565 S
Zn1 O0 1.953 . S
Zn1 O2 1.949 1_565 S
Zn1 O8 1.919 . S
Zn1 O13 1.924 1_565 S
O2 Zn1 1.949 1_545 S
O2 Zn3 1.923 1_444 S
O2 Zn4 1.950 1_455 S
O2 Zn5 1.945 1_554 S
Zn3 O2 1.923 1_666 S
Zn3 O6 1.933 . S
Zn3 O9 1.941 1_655 S
Zn3 O10 1.965 . S
Zn4 O2 1.950 1_655 S
Zn4 O11 1.938 1_545 S
Zn4 O12 1.906 . S
Zn4 O22 1.953 . S
Zn5 O2 1.945 1_556 S
Zn5 O7 1.932 . S
Zn5 O14 1.977 1_455 S
Zn5 O15 1.910 . S
O6 Zn3 1.933 . S
O6 C17 1.226 1_665 S
O7 Zn5 1.932 . S
O7 C17 1.307 . S
O8 Zn1 1.919 . S
O8 C19 1.253 1_554 S
O9 Zn3 1.941 1_455 S
O9 C19 1.283 . S
O10 Zn3 1.965 . S
O10 C18 1.303 1_556 S
O11 Zn4 1.938 1_565 S
O11 C18 1.247 . S
O12 Zn4 1.906 . S
O12 C20 1.304 1_554 S
O13 Zn1 1.924 1_545 S
O13 C21 1.311 . S
O14 Zn5 1.977 1_655 S
O14 C20 1.272 . S
O15 Zn5 1.910 . S
O15 C21 1.231 1_556 S
C16 O0 1.225 1_545 S
C16 O22 1.298 1_455 S
C17 O6 1.226 1_445 S
C17 O7 1.307 . S
C18 O10 1.303 1_554 S
C18 O11 1.247 . S
C19 O8 1.253 1_556 S
C19 O9 1.283 . S
C20 O12 1.304 1_556 S
C20 O14 1.272 . S
C21 O13 1.311 . S
C21 O15 1.231 1_554 S
O22 Zn4 1.953 . S
O22 C16 1.298 1_655 S
O23 Zn24 1.953 . S
O23 C39 1.225 . S
Zn24 O23 1.953 . S
Zn24 O25 1.949 . S
Zn24 O31 1.919 . S
Zn24 O36 1.924 . S
O25 Zn24 1.949 . S
O25 Zn26 1.923 . S
O25 Zn27 1.950 . S
O25 Zn28 1.945 . S
Zn26 O25 1.923 . S
Zn26 O29 1.933 . S
Zn26 O32 1.941 . S
Zn26 O33 1.965 . S
Zn27 O25 1.950 . S
Zn27 O34 1.938 . S
Zn27 O35 1.906 . S
Zn27 O45 1.953 . S
Zn28 O25 1.945 . S
Zn28 O30 1.932 . S
Zn28 O37 1.977 . S
Zn28 O38 1.910 . S
O29 Zn26 1.933 . S
O29 C40 1.226 . S
O30 Zn28 1.932 . S
O30 C40 1.307 . S
O31 Zn24 1.919 . S
O31 C42 1.253 . S
O32 Zn26 1.941 . S
O32 C42 1.283 . S
O33 Zn26 1.965 . S
O33 C41 1.303 . S
O34 Zn27 1.938 . S
O34 C41 1.247 . S
O35 Zn27 1.906 . S
O35 C43 1.304 . S
O36 Zn24 1.924 . S
O36 C44 1.311 . S
O37 Zn28 1.977 . S
O37 C43 1.272 . S
O38 Zn28 1.910 . S
O38 C44 1.231 . S
C39 O23 1.225 . S
C39 O45 1.298 . S
C40 O29 1.226 . S
C40 O30 1.307 . S
C41 O33 1.303 . S
C41 O34 1.247 . S
C42 O31 1.253 . S
C42 O32 1.283 . S
C43 O35 1.304 . S
C43 O37 1.272 . S
C44 O36 1.311 . S
C44 O38 1.231 . S
O45 Zn27 1.953 . S
O45 C39 1.298 . S
H46 C51 0.929 . S
H47 C56 0.931 . S
H48 C54 0.930 . S
N49 N50 1.234 . S
N49 C53 1.453 . S
N50 N49 1.234 . S
C51 H46 0.929 . S
C51 C52 1.373 . S
C51 C53 1.368 1_465 S
C52 C51 1.373 . S
C52 C56 1.397 . S
C53 N49 1.453 . S
C53 C51 1.368 1_645 S
C53 C54 1.373 . S
C54 H48 0.930 . S
C54 C53 1.373 . S
C54 C55 1.371 1_655 S
C55 C54 1.371 1_455 S
C55 C56 1.383 1_545 S
C56 H47 0.931 . S
C56 C52 1.397 . S
C56 C55 1.383 1_565 S
H57 C62 0.929 . S
H58 C67 0.931 . S
H59 C65 0.930 . S
N60 N61 1.234 . S
N60 C64 1.453 . S
N61 N60 1.234 . S
C62 H57 0.929 . S
C62 C63 1.373 . S
C62 C64 1.368 1_665 S
C63 C62 1.373 . S
C63 C67 1.397 . S
C64 N60 1.453 . S
C64 C62 1.368 1_445 S
C64 C65 1.373 . S
C65 H59 0.930 . S
C65 C64 1.373 . S
C65 C66 1.371 . S
C66 C65 1.371 . S
C66 C67 1.383 1_445 S
C67 H58 0.931 . S
C67 C63 1.397 . S
C67 C66 1.383 1_665 S
H68 C73 0.929 . S
H69 C78 0.931 . S
H70 C76 0.930 . S
N71 N72 1.234 . S
N71 C75 1.453 . S
N72 N71 1.234 . S
C73 H68 0.929 . S
C73 C74 1.373 . S
C73 C75 1.368 . S
C74 C73 1.373 . S
C74 C78 1.397 . S
C75 N71 1.453 . S
C75 C73 1.368 . S
C75 C76 1.373 . S
C76 H70 0.930 . S
C76 C75 1.373 . S
C76 C77 1.371 . S
C77 C76 1.371 . S
C77 C78 1.383 . S
C78 H69 0.931 . S
C78 C74 1.397 . S
C78 C77 1.383 . S
H79 C84 0.929 . S
H80 C89 0.931 . S
H81 C87 0.930 . S
N82 N83 1.234 . S
N82 C86 1.453 . S
N83 N82 1.234 . S
C84 H79 0.929 . S
C84 C85 1.373 . S
C84 C86 1.368 . S
C85 C84 1.373 . S
C85 C89 1.397 . S
C86 N82 1.453 . S
C86 C84 1.368 . S
C86 C87 1.373 . S
C87 H81 0.930 . S
C87 C86 1.373 . S
C87 C88 1.371 . S
C88 C87 1.371 . S
C88 C89 1.383 . S
C89 H80 0.931 . S
C89 C85 1.397 . S
C89 C88 1.383 . S
C90 C91 1.386 . S
C90 C92 1.383 . S
C90 H106 0.951 . S
C91 C90 1.386 . S
C91 C95 1.383 . S
C92 C90 1.383 . S
C92 C93 1.402 . S
C92 H107 0.951 . S
C93 C92 1.402 . S
C93 C94 1.375 . S
C93 C96 1.481 . S
C94 C93 1.375 . S
C94 C95 1.367 . S
C94 H108 0.951 . S
C95 C91 1.383 . S
C95 C94 1.367 . S
C95 H109 0.950 . S
C96 C93 1.481 . S
C96 C97 1.297 . S
C96 H110 0.950 . S
C97 C96 1.297 . S
C97 C98 1.479 . S
C97 H111 0.950 . S
C98 C97 1.479 . S
C98 C99 1.375 . S
C98 C104 1.404 . S
C99 C98 1.375 . S
C99 C100 1.369 . S
C99 H112 0.950 . S
C100 C99 1.369 . S
C100 C101 1.392 . S
C100 H113 0.951 . S
C101 C100 1.392 . S
C101 C103 1.384 . S
H102 C104 0.949 . S
C103 C101 1.384 . S
C103 C104 1.385 . S
C103 H105 0.950 . S
C104 C98 1.404 . S
C104 H102 0.949 . S
C104 C103 1.385 . S
H105 C103 0.950 . S
H106 C90 0.951 . S
H107 C92 0.951 . S
H108 C94 0.951 . S
H109 C95 0.950 . S
H110 C96 0.950 . S
H111 C97 0.950 . S
H112 C99 0.950 . S
H113 C100 0.951 . S
C114 C115 1.386 . S
C114 C116 1.383 . S
C114 H130 0.951 . S
C115 C114 1.386 . S
C115 C119 1.383 1_556 S
C116 C114 1.383 . S
C116 C117 1.402 . S
C116 H131 0.951 . S
C117 C116 1.402 . S
C117 C118 1.361 1_556 S
C117 C120 1.481 . S
C118 C117 1.361 1_554 S
C118 C119 1.371 . S
C118 H132 0.961 . S
C119 C115 1.383 1_554 S
C119 C118 1.371 . S
C119 H133 0.950 . S
C120 C117 1.481 . S
C120 C121 1.297 . S
C120 H134 0.950 . S
C121 C120 1.297 . S
C121 C122 1.479 . S
C121 H135 0.950 . S
C122 C121 1.479 . S
C122 C123 1.375 . S
C122 C128 1.404 . S
C123 C122 1.375 . S
C123 C124 1.369 . S
C123 H136 0.950 . S
C124 C123 1.369 . S
C124 C125 1.392 . S
C124 H137 0.951 . S
C125 C124 1.392 . S
C125 C127 1.384 . S
H126 C128 0.949 . S
C127 C125 1.384 . S
C127 C128 1.385 . S
C127 H129 0.950 . S
C128 C122 1.404 . S
C128 H126 0.949 . S
C128 C127 1.385 . S
H129 C127 0.950 . S
H130 C114 0.951 . S
H131 C116 0.951 . S
H132 C118 0.961 . S
H133 C119 0.950 . S
H134 C120 0.950 . S
H135 C121 0.950 . S
H136 C123 0.950 . S
H137 C124 0.951 . S
C138 C139 1.386 . S
C138 C140 1.383 . S
C138 H154 0.951 . S
C139 C138 1.386 . S
C139 C143 1.383 1_554 S
C140 C138 1.383 . S
C140 C141 1.402 . S
C140 H155 0.951 . S
C141 C140 1.402 . S
C141 C142 1.375 1_554 S
C141 C144 1.481 . S
C142 C141 1.375 1_556 S
C142 C143 1.367 . S
C142 H156 0.951 . S
C143 C139 1.383 1_556 S
C143 C142 1.367 . S
C143 H157 0.950 . S
C144 C141 1.481 . S
C144 C145 1.297 . S
C144 H158 0.950 . S
C145 C144 1.297 . S
C145 C146 1.479 . S
C145 H159 0.950 . S
C146 C145 1.479 . S
C146 C147 1.375 . S
C146 C152 1.404 . S
C147 C146 1.375 . S
C147 C148 1.369 . S
C147 H160 0.950 . S
C148 C147 1.369 . S
C148 C149 1.392 . S
C148 H161 0.951 . S
C149 C148 1.392 . S
C149 C151 1.384 . S
H150 C152 0.949 . S
C151 C149 1.384 . S
C151 C152 1.385 . S
C151 H153 0.950 . S
C152 C146 1.404 . S
C152 H150 0.949 . S
C152 C151 1.385 . S
H153 C151 0.950 . S
H154 C138 0.951 . S
H155 C140 0.951 . S
H156 C142 0.951 . S
H157 C143 0.950 . S
H158 C144 0.950 . S
H159 C145 0.950 . S
H160 C147 0.950 . S
H161 C148 0.951 . S
C162 C163 1.386 . S
C162 C164 1.383 . S
C162 H178 0.951 . S
C163 C162 1.386 . S
C163 C167 1.383 . S
C164 C162 1.383 . S
C164 C165 1.402 . S
C164 H179 0.951 . S
C165 C164 1.402 . S
C165 C166 1.375 . S
C165 C168 1.481 . S
C166 C165 1.375 . S
C166 C167 1.367 . S
C166 H180 0.951 . S
C167 C163 1.383 . S
C167 C166 1.367 . S
C167 H181 0.950 . S
C168 C165 1.481 . S
C168 C169 1.297 . S
C168 H182 0.950 . S
C169 C168 1.297 . S
C169 C170 1.479 . S
C169 H183 0.950 . S
C170 C169 1.479 . S
C170 C171 1.375 . S
C170 C176 1.404 . S
C171 C170 1.375 . S
C171 C172 1.369 . S
C171 H184 0.950 . S
C172 C171 1.369 . S
C172 C173 1.392 . S
C172 H185 0.951 . S
C173 C172 1.392 . S
C173 C175 1.384 . S
H174 C176 0.949 . S
C175 C173 1.384 . S
C175 C176 1.385 . S
C175 H177 0.950 . S
C176 C170 1.404 . S
C176 H174 0.949 . S
C176 C175 1.385 . S
H177 C175 0.950 . S
H178 C162 0.951 . S
H179 C164 0.951 . S
H180 C166 0.951 . S
H181 C167 0.950 . S
H182 C168 0.950 . S
H183 C169 0.950 . S
H184 C171 0.950 . S
H185 C172 0.951 . S
C186 C187 1.386 . S
C186 C188 1.383 . S
C186 H202 0.951 . S
C187 C186 1.386 . S
C187 C191 1.383 . S
C188 C186 1.383 . S
C188 C189 1.402 . S
C188 H203 0.951 . S
C189 C188 1.402 . S
C189 C190 1.375 . S
C189 C192 1.481 . S
C190 C189 1.375 . S
C190 C191 1.367 . S
C190 H204 0.951 . S
C191 C187 1.383 . S
C191 C190 1.367 . S
C191 H205 0.950 . S
C192 C189 1.481 . S
C192 C193 1.297 . S
C192 H206 0.950 . S
C193 C192 1.297 . S
C193 C194 1.479 . S
C193 H207 0.950 . S
C194 C193 1.479 . S
C194 C195 1.375 . S
C194 C200 1.404 . S
C195 C194 1.375 . S
C195 C196 1.369 . S
C195 H208 0.950 . S
C196 C195 1.369 . S
C196 C197 1.392 . S
C196 H209 0.951 . S
C197 C196 1.392 . S
C197 C199 1.384 . S
H198 C200 0.949 . S
C199 C197 1.384 . S
C199 C200 1.385 . S
C199 H201 0.950 . S
C200 C194 1.404 . S
C200 H198 0.949 . S
C200 C199 1.385 . S
H201 C199 0.950 . S
H202 C186 0.951 . S
H203 C188 0.951 . S
H204 C190 0.951 . S
H205 C191 0.950 . S
H206 C192 0.950 . S
H207 C193 0.950 . S
H208 C195 0.950 . S
H209 C196 0.951 . S
C210 C211 1.386 . S
C210 C212 1.383 . S
C210 H226 0.951 . S
C211 C210 1.386 . S
C211 C215 1.383 . S
C212 C210 1.383 . S
C212 C213 1.402 . S
C212 H227 0.951 . S
C213 C212 1.402 . S
C213 C214 1.375 . S
C213 C216 1.481 . S
C214 C213 1.375 . S
C214 C215 1.367 . S
C214 H228 0.951 . S
C215 C211 1.383 . S
C215 C214 1.367 . S
C215 H229 0.950 . S
C216 C213 1.481 . S
C216 C217 1.297 . S
C216 H230 0.950 . S
C217 C216 1.297 . S
C217 C218 1.479 . S
C217 H231 0.950 . S
C218 C217 1.479 . S
C218 C219 1.375 . S
C218 C224 1.404 . S
C219 C218 1.375 . S
C219 C220 1.369 . S
C219 H232 0.950 . S
C220 C219 1.369 . S
C220 C221 1.392 . S
C220 H233 0.951 . S
C221 C220 1.392 . S
C221 C223 1.384 . S
H222 C224 0.949 . S
C223 C221 1.384 . S
C223 C224 1.385 . S
C223 H225 0.950 . S
C224 C218 1.404 . S
C224 H222 0.949 . S
C224 C223 1.385 . S
H225 C223 0.950 . S
H226 C210 0.951 . S
H227 C212 0.951 . S
H228 C214 0.951 . S
H229 C215 0.950 . S
H230 C216 0.950 . S
H231 C217 0.950 . S
H232 C219 0.950 . S
H233 C220 0.951 . S
C234 C235 1.386 . S
C234 C236 1.383 . S
C234 H250 0.951 . S
C235 C234 1.386 . S
C235 C239 1.383 . S
C236 C234 1.383 . S
C236 C237 1.402 . S
C236 H251 0.951 . S
C237 C236 1.402 . S
C237 C238 1.375 . S
C237 C240 1.481 . S
C238 C237 1.375 . S
C238 C239 1.367 . S
C238 H252 0.951 . S
C239 C235 1.383 . S
C239 C238 1.367 . S
C239 H253 0.950 . S
C240 C237 1.481 . S
C240 C241 1.297 . S
C240 H254 0.950 . S
C241 C240 1.297 . S
C241 C242 1.479 . S
C241 H255 0.950 . S
C242 C241 1.479 . S
C242 C243 1.375 . S
C242 C248 1.404 . S
C243 C242 1.375 . S
C243 C244 1.369 . S
C243 H256 0.950 . S
C244 C243 1.369 . S
C244 C245 1.392 . S
C244 H257 0.951 . S
C245 C244 1.392 . S
C245 C247 1.384 . S
H246 C248 0.949 . S
C247 C245 1.384 . S
C247 C248 1.385 . S
C247 H249 0.950 . S
C248 C242 1.404 . S
C248 H246 0.949 . S
C248 C247 1.385 . S
H249 C247 0.950 . S
H250 C234 0.951 . S
H251 C236 0.951 . S
H252 C238 0.951 . S
H253 C239 0.950 . S
H254 C240 0.950 . S
H255 C241 0.950 . S
H256 C243 0.950 . S
H257 C244 0.951 . S
C258 C259 1.386 . S
C258 C260 1.383 . S
C258 H274 0.951 . S
C259 C258 1.386 . S
C259 C263 1.383 . S
C260 C258 1.383 . S
C260 C261 1.402 . S
C260 H275 0.951 . S
C261 C260 1.402 . S
C261 C262 1.375 . S
C261 C264 1.481 . S
C262 C261 1.375 . S
C262 C263 1.367 . S
C262 H276 0.951 . S
C263 C259 1.383 . S
C263 C262 1.367 . S
C263 H277 0.950 . S
C264 C261 1.481 . S
C264 C265 1.297 . S
C264 H278 0.950 . S
C265 C264 1.297 . S
C265 C266 1.479 . S
C265 H279 0.950 . S
C266 C265 1.479 . S
C266 C267 1.375 . S
C266 C272 1.404 . S
C267 C266 1.375 . S
C267 C268 1.369 . S
C267 H280 0.950 . S
C268 C267 1.369 . S
C268 C269 1.392 . S
C268 H281 0.951 . S
C269 C268 1.392 . S
C269 C271 1.384 . S
H270 C272 0.949 . S
C271 C269 1.384 . S
C271 C272 1.385 . S
C271 H273 0.950 . S
C272 C266 1.404 . S
C272 H270 0.949 . S
C272 C271 1.385 . S
H273 C271 0.950 . S
H274 C258 0.951 . S
H275 C260 0.951 . S
H276 C262 0.951 . S
H277 C263 0.950 . S
H278 C264 0.950 . S
H279 C265 0.950 . S
H280 C267 0.950 . S
H281 C268 0.951 . S
C282 C283 1.386 1_565 S
C282 C284 1.383 . S
C282 H298 0.951 . S
C283 C282 1.386 1_545 S
C283 C287 1.383 . S
C284 C282 1.383 . S
C284 C285 1.402 1_565 S
C284 H299 0.951 . S
C285 C284 1.402 1_545 S
C285 C286 1.375 . S
C285 C288 1.481 . S
C286 C285 1.375 . S
C286 C287 1.367 . S
C286 H300 0.951 1_455 S
C287 C283 1.383 . S
C287 C286 1.367 . S
C287 H301 0.950 1_455 S
C288 C285 1.481 . S
C288 C289 1.297 . S
C288 H302 0.950 . S
C289 C288 1.297 . S
C289 C290 1.479 . S
C289 H303 0.950 1_545 S
C290 C289 1.479 . S
C290 C291 1.375 1_545 S
C290 C296 1.404 . S
C291 C290 1.375 1_565 S
C291 C292 1.369 . S
C291 H304 0.950 . S
C292 C291 1.369 . S
C292 C293 1.392 1_565 S
C292 H305 0.951 . S
C293 C292 1.392 1_545 S
C293 C295 1.384 . S
H294 C296 0.949 . S
C295 C293 1.384 . S
C295 C296 1.385 . S
C295 H297 0.950 . S
C296 C290 1.404 . S
C296 H294 0.949 . S
C296 C295 1.385 . S
H297 C295 0.950 . S
H298 C282 0.951 . S
H299 C284 0.951 . S
H300 C286 0.951 1_655 S
H301 C287 0.950 1_655 S
H302 C288 0.950 . S
H303 C289 0.950 1_565 S
H304 C291 0.950 . S
H305 C292 0.951 . S
C306 C307 1.386 1_665 S
C306 C308 1.383 . S
C306 H322 0.951 . S
C307 C306 1.386 1_445 S
C307 C311 1.383 . S
C308 C306 1.383 . S
C308 C309 1.402 1_665 S
C308 H323 0.951 . S
C309 C308 1.402 1_445 S
C309 C310 1.375 . S
C309 C312 1.481 . S
C310 C309 1.375 . S
C310 C311 1.367 . S
C310 H324 0.951 . S
C311 C307 1.383 . S
C311 C310 1.367 . S
C311 H325 0.950 . S
C312 C309 1.481 . S
C312 C313 1.297 1_455 S
C312 H326 0.950 . S
C313 C312 1.297 1_655 S
C313 C314 1.479 . S
C313 H327 0.950 1_545 S
C314 C313 1.479 . S
C314 C315 1.375 1_545 S
C314 C320 1.404 1_655 S
C315 C314 1.375 1_565 S
C315 C316 1.369 . S
C315 H328 0.950 . S
C316 C315 1.369 . S
C316 C317 1.392 1_565 S
C316 H329 0.951 . S
C317 C316 1.392 1_545 S
C317 C319 1.384 1_655 S
H318 C320 0.949 . S
C319 C317 1.384 1_455 S
C319 C320 1.385 . S
C319 H321 0.950 . S
C320 C314 1.404 1_455 S
C320 H318 0.949 . S
C320 C319 1.385 . S
H321 C319 0.950 . S
H322 C306 0.951 . S
H323 C308 0.951 . S
H324 C310 0.951 . S
H325 C311 0.950 . S
H326 C312 0.950 . S
H327 C313 0.950 1_565 S
H328 C315 0.950 . S
H329 C316 0.951 . S
C330 C331 1.386 . S
C330 C332 1.383 . S
C330 H346 0.951 . S
C331 C330 1.386 . S
C331 C335 1.383 . S
C332 C330 1.383 . S
C332 C333 1.402 . S
C332 H347 0.951 . S
C333 C332 1.402 . S
C333 C334 1.375 . S
C333 C336 1.481 . S
C334 C333 1.375 . S
C334 C335 1.367 . S
C334 H348 0.951 . S
C335 C331 1.383 . S
C335 C334 1.367 . S
C335 H349 0.950 . S
C336 C333 1.481 . S
C336 C337 1.297 . S
C336 H350 0.950 . S
C337 C336 1.297 . S
C337 C338 1.479 . S
C337 H351 0.950 . S
C338 C337 1.479 . S
C338 C339 1.375 . S
C338 C344 1.404 . S
C339 C338 1.375 . S
C339 C340 1.369 . S
C339 H352 0.950 . S
C340 C339 1.369 . S
C340 C341 1.392 . S
C340 H353 0.951 . S
C341 C340 1.392 . S
C341 C343 1.384 . S
H342 C344 0.949 . S
C343 C341 1.384 . S
C343 C344 1.385 . S
C343 H345 0.950 . S
C344 C338 1.404 . S
C344 H342 0.949 . S
C344 C343 1.385 . S
H345 C343 0.950 . S
H346 C330 0.951 . S
H347 C332 0.951 . S
H348 C334 0.951 . S
H349 C335 0.950 . S
H350 C336 0.950 . S
H351 C337 0.950 . S
H352 C339 0.950 . S
H353 C340 0.951 . S
C354 C355 1.386 . S
C354 C356 1.383 . S
C354 H370 0.951 . S
C355 C354 1.386 . S
C355 C359 1.383 . S
C356 C354 1.383 . S
C356 C357 1.402 . S
C356 H371 0.951 . S
C357 C356 1.402 . S
C357 C358 1.375 . S
C357 C360 1.481 . S
C358 C357 1.375 . S
C358 C359 1.367 . S
C358 H372 0.951 . S
C359 C355 1.383 . S
C359 C358 1.367 . S
C359 H373 0.950 . S
C360 C357 1.481 . S
C360 C361 1.297 . S
C360 H374 0.950 . S
C361 C360 1.297 . S
C361 C362 1.479 . S
C361 H375 0.950 . S
C362 C361 1.479 . S
C362 C363 1.375 . S
C362 C368 1.404 . S
C363 C362 1.375 . S
C363 C364 1.369 . S
C363 H376 0.950 . S
C364 C363 1.369 . S
C364 C365 1.392 . S
C364 H377 0.951 . S
C365 C364 1.392 . S
C365 C367 1.384 . S
H366 C368 0.949 . S
C367 C365 1.384 . S
C367 C368 1.385 . S
C367 H369 0.950 . S
C368 C362 1.404 . S
C368 H366 0.949 . S
C368 C367 1.385 . S
H369 C367 0.950 . S
H370 C354 0.951 . S
H371 C356 0.951 . S
H372 C358 0.951 . S
H373 C359 0.950 . S
H374 C360 0.950 . S
H375 C361 0.950 . S
H376 C363 0.950 . S
H377 C364 0.951 . S
C101 C85 1.528 . S
C91 C21 1.509 . S
C115 C19 1.379 . S
C125 N72 1.391 . S
C139 C18 1.339 . S
C149 N83 1.325 . S
C163 C20 1.480 . S
C173 C74 1.510 . S
C187 C44 1.502 . S
C197 C63 1.489 . S
C211 C42 1.398 . S
C221 N50 1.328 . S
C245 N61 1.316 . S
C235 C41 1.338 . S
C269 C52 1.474 . S
C259 C43 1.504 . S
C283 C16 1.524 . S
C293 C55 1.503 . S
C307 C17 1.485 . S
C317 C66 1.470 1_655 S
C341 C77 1.518 . S
C331 C39 1.523 . S
C355 C40 1.485 . S
C365 C88 1.472 . S
