# Generated by pormake.
# Topology rtl, (3,6)-cn, num edge types: 1
# Building blocks:
#     Node 0, Type 0, BuildingBlock: CUQRIR_clean_linker_1, # of connection points: 3
#     Node 1, Type 0, BuildingBlock: CUQRIR_clean_linker_1, # of connection points: 3
#     Node 2, Type 0, BuildingBlock: CUQRIR_clean_linker_1, # of connection points: 3
#     Node 3, Type 0, BuildingBlock: CUQRIR_clean_linker_1, # of connection points: 3
#     Node 4, Type 1, BuildingBlock: KUMJIN_clean_sbu_1, # of connection points: 6
#     Node 5, Type 1, BuildingBlock: KUMJIN_clean_sbu_1, # of connection points: 6
#     Edge 6, Type (0, 1), BuildingBlock: ZUJKAS_clean_linker_0, # of connection points: 2
#     Edge 7, Type (0, 1), BuildingBlock: ZUJKAS_clean_linker_0, # of connection points: 2
#     Edge 8, Type (0, 1), BuildingBlock: ZUJKAS_clean_linker_0, # of connection points: 2
#     Edge 9, Type (0, 1), BuildingBlock: ZUJKAS_clean_linker_0, # of connection points: 2
#     Edge 10, Type (0, 1), BuildingBlock: ZUJKAS_clean_linker_0, # of connection points: 2
#     Edge 11, Type (0, 1), BuildingBlock: ZUJKAS_clean_linker_0, # of connection points: 2
#     Edge 12, Type (0, 1), BuildingBlock: ZUJKAS_clean_linker_0, # of connection points: 2
#     Edge 13, Type (0, 1), BuildingBlock: ZUJKAS_clean_linker_0, # of connection points: 2
#     Edge 14, Type (0, 1), BuildingBlock: ZUJKAS_clean_linker_0, # of connection points: 2
#     Edge 15, Type (0, 1), BuildingBlock: ZUJKAS_clean_linker_0, # of connection points: 2
#     Edge 16, Type (0, 1), BuildingBlock: ZUJKAS_clean_linker_0, # of connection points: 2
#     Edge 17, Type (0, 1), BuildingBlock: ZUJKAS_clean_linker_0, # of connection points: 2
# Relax obj value: 0.062
# Max RMSD: 0.212
# Mean RMSD: 0.168
data_MOF--net-rtl--node1-KUMJIN_clean_sbu_1--node2-CUQRIR_clean_linker_1--edge1-ZUJKAS_clean_linker_0
_symmetry_space_group_name_H-M    P1
_symmetry_Int_Tables_number       1
_symmetry_cell_setting            triclinic
loop_
_symmetry_equiv_pos_as_xyz
'x, y, z'
_cell_length_a     43.208098
_cell_length_b     43.27008
_cell_length_c     32.061351
_cell_angle_alpha  79.511908
_cell_angle_beta   98.95764
_cell_angle_gamma 90.974798
loop_
_atom_site_label
_atom_site_type_symbol
_atom_site_fract_x
_atom_site_fract_y
_atom_site_fract_z
_atom_type_partial_charge
C0 C 0.23252 0.81708 0.99235 0.0
N1 N 0.21091 0.83504 1.00353 0.0
N2 N 0.24512 0.7953 0.02646 0.0
C3 C 0.23898 0.81868 0.94717 0.0
C4 C 0.23003 0.80043 0.05865 0.0
N5 N 0.20902 0.82436 0.04458 0.0
C6 C 0.23707 0.7834 0.10441 0.0
H7 H 0.24679 0.79551 0.94223 0.0
H8 H 0.25776 0.83597 0.94117 0.0
H9 H 0.21779 0.82642 0.92342 0.0
H10 H 0.23333 0.79912 0.12699 0.0
H11 H 0.26155 0.77434 0.11216 0.0
H12 H 0.22095 0.76326 0.10901 0.0
C13 C 0.72455 0.72501 0.65921 0.0
N14 N 0.70368 0.70238 0.65055 0.0
N15 N 0.74076 0.73397 0.62614 0.0
C16 C 0.7306 0.73694 0.70092 0.0
C17 C 0.729 0.71604 0.59706 0.0
N18 N 0.70669 0.6967 0.61201 0.0
C19 C 0.73863 0.71813 0.55351 0.0
H20 H 0.71417 0.7567 0.69928 0.0
H21 H 0.7549 0.74562 0.70694 0.0
H22 H 0.72665 0.71819 0.72812 0.0
H23 H 0.75883 0.70198 0.55638 0.0
H24 H 0.74597 0.74235 0.54119 0.0
H25 H 0.71939 0.71107 0.53008 0.0
C26 C 0.79278 0.20786 0.08337 0.0
N27 N 0.81415 0.18874 0.07392 0.0
N28 N 0.77955 0.22762 0.04755 0.0
C29 C 0.78691 0.20924 0.12809 0.0
C30 C 0.79391 0.22011 0.01601 0.0
N31 N 0.81518 0.1966 0.0321 0.0
C32 C 0.78556 0.23425 0.96919 0.0
H33 H 0.76859 0.19202 0.13664 0.0
H34 H 0.7787 0.23297 0.13022 0.0
H35 H 0.80847 0.20313 0.15182 0.0
H36 H 0.80143 0.25415 0.96125 0.0
H37 H 0.76108 0.2433 0.96178 0.0
H38 H 0.78844 0.21669 0.94877 0.0
C39 C 0.30827 0.29965 0.4202 0.0
N40 N 0.33061 0.32014 0.43202 0.0
N41 N 0.29628 0.28446 0.45482 0.0
C42 C 0.29786 0.2948 0.3749 0.0
C43 C 0.31227 0.29619 0.48813 0.0
N44 N 0.33343 0.31759 0.4744 0.0
C45 C 0.3066 0.28753 0.534 0.0
H46 H 0.28029 0.31322 0.35855 0.0
H47 H 0.28688 0.27154 0.37409 0.0
H48 H 0.31799 0.29694 0.35691 0.0
H49 H 0.28535 0.27319 0.53718 0.0
H50 H 0.30449 0.30914 0.5475 0.0
H51 H 0.32696 0.27373 0.55341 0.0
Eu52 Eu 0.03932 0.98248 0.51284 0.0
C53 C 0.96801 0.10523 0.4951 0.0
N54 N 0.9939 0.09519 0.52408 0.0
C55 C 0.01826 0.14497 0.50528 0.0
C56 C 0.96695 0.13509 0.46844 0.0
C57 C 0.01794 0.11536 0.53141 0.0
C58 C 0.99293 0.15463 0.47301 0.0
C59 C 0.91373 0.09686 0.46646 0.0
C60 C 0.94168 0.08646 0.4941 0.0
C61 C 0.91308 0.12589 0.43836 0.0
C62 C 0.93965 0.14494 0.4393 0.0
Eu63 Eu 0.99201 0.04336 0.56369 0.0
N64 N 0.94321 0.05821 0.52097 0.0
C65 C 0.88717 0.07793 0.4684 0.0
C66 C 0.91709 0.04035 0.52466 0.0
C67 C 0.88876 0.04976 0.49807 0.0
H68 H 0.03674 0.10896 0.55784 0.0
H69 H 0.86822 0.03526 0.50033 0.0
H70 H 0.01283 0.91322 0.55741 0.0
H71 H 0.16017 0.02437 0.52151 0.0
H72 H 0.91843 0.01853 0.54752 0.0
H73 H 0.86525 0.0851 0.44769 0.0
H74 H 0.10454 0.02278 0.49022 0.0
H75 H 0.03782 0.1605 0.51051 0.0
H76 H 0.89197 0.1341 0.4164 0.0
H77 H 0.93856 0.16764 0.4182 0.0
H78 H 0.03232 0.86662 0.61178 0.0
H79 H 0.99307 0.17772 0.45312 0.0
H80 H 0.18222 0.98369 0.58319 0.0
N81 N 0.05624 0.93701 0.56378 0.0
C82 C 0.0868 0.9358 0.58217 0.0
C83 C 0.04783 0.88598 0.60391 0.0
C84 C 0.09888 0.90985 0.61347 0.0
C85 C 0.03686 0.91231 0.57323 0.0
C86 C 0.07889 0.88488 0.62448 0.0
N87 N 0.09399 0.98421 0.5371 0.0
C88 C 0.11334 0.00603 0.51864 0.0
C89 C 0.13814 0.95951 0.58672 0.0
C90 C 0.1061 0.96038 0.56897 0.0
C91 C 0.15749 0.98348 0.57039 0.0
C92 C 0.14513 0.00653 0.53567 0.0
H93 H 0.0873 0.86452 0.64838 0.0
H94 H 0.14021 0.88973 0.65645 0.0
H95 H 0.17455 0.93332 0.63329 0.0
O96 O 0.06565 0.96676 0.46732 0.0
O97 O 0.03507 0.97385 0.58391 0.0
O98 O 0.03871 0.02321 0.59948 0.0
O99 O 0.01649 0.95639 0.46443 0.0
O100 O 0.05188 0.03444 0.49961 0.0
O101 O 0.04374 0.05349 0.55987 0.0
O102 O 0.97181 0.02909 0.62263 0.0
O103 O 0.97346 0.02979 0.49896 0.0
O104 O 0.01829 0.02705 0.47086 0.0
O105 O 0.98178 0.07782 0.60198 0.0
O106 O 0.97596 0.99255 0.57516 0.0
O107 O 0.98884 0.96923 0.51982 0.0
C108 C 0.04442 0.99297 0.61058 0.0
C109 C 0.04812 0.92169 0.43911 0.0
C110 C 0.06598 0.89033 0.39093 0.0
C111 C 0.06028 0.86289 0.41969 0.0
C112 C 0.04223 0.89402 0.46689 0.0
C113 C 0.04844 0.8648 0.45727 0.0
C114 C 0.05995 0.91976 0.40118 0.0
C115 C 0.05849 0.05408 0.52666 0.0
C116 C 0.04196 0.95282 0.44871 0.0
C117 C 0.1305 0.90942 0.63225 0.0
C118 C 0.15006 0.93426 0.61906 0.0
C119 C 0.98856 0.03436 0.46599 0.0
C120 C 0.98714 0.0592 0.67639 0.0
C121 C 0.98253 0.0699 0.74751 0.0
C122 C 0.01473 0.06309 0.76038 0.0
C123 C 0.0192 0.05293 0.68982 0.0
C124 C 0.96886 0.06775 0.7052 0.0
C125 C 0.03285 0.05465 0.73169 0.0
C126 C 0.97214 0.97083 0.55066 0.0
C127 C 0.97283 0.05705 0.63229 0.0
H128 H 0.06524 0.83987 0.4134 0.0
H129 H 0.03271 0.89494 0.49582 0.0
H130 H 0.04404 0.84352 0.47901 0.0
H131 H 0.06391 0.94122 0.37939 0.0
H132 H 0.02611 0.06494 0.79239 0.0
H133 H 0.03363 0.04692 0.66777 0.0
H134 H 0.94405 0.07252 0.69471 0.0
H135 H 0.05764 0.04973 0.74181 0.0
Eu136 Eu 0.48426 0.49183 0.9984 0.0
C137 C 0.60989 0.55259 0.04704 0.0
N138 N 0.59795 0.52676 0.06981 0.0
C139 C 0.64661 0.49905 0.07645 0.0
C140 C 0.64024 0.55202 0.03612 0.0
C141 C 0.61661 0.50103 0.08709 0.0
C142 C 0.65823 0.52442 0.05005 0.0
C143 C 0.60512 0.60826 0.01659 0.0
C144 C 0.59263 0.5804 0.03739 0.0
C145 C 0.63463 0.60738 1.00363 0.0
C146 C 0.65212 0.5793 0.0133 0.0
Eu147 Eu 0.54565 0.53167 0.08206 0.0
N148 N 0.56392 0.58042 0.04958 0.0
C149 C 0.58778 0.63626 1.01018 0.0
C150 C 0.54761 0.60783 0.04558 0.0
C151 C 0.55912 0.63611 0.02533 0.0
H152 H 0.60859 0.48205 0.10949 0.0
H153 H 0.54584 0.65773 0.02126 0.0
H154 H 0.41571 0.52164 1.00862 0.0
H155 H 0.52267 0.36852 0.02898 0.0
H156 H 0.52538 0.60757 0.05715 0.0
H157 H 0.59658 0.65817 0.99434 0.0
H158 H 0.523 0.42454 0.99627 0.0
H159 H 0.66092 0.47817 0.0892 0.0
H160 H 0.64443 0.62843 0.98698 0.0
H161 H 0.67522 0.57918 1.00414 0.0
H162 H 0.3682 0.50418 0.04039 0.0
H163 H 0.68163 0.523 0.04228 0.0
H164 H 0.48096 0.34811 0.07111 0.0
N165 N 0.43792 0.47676 0.02681 0.0
C166 C 0.43561 0.44604 0.04479 0.0
C167 C 0.38706 0.48764 0.04205 0.0
C168 C 0.40924 0.43513 0.06383 0.0
C169 C 0.4139 0.49747 0.02416 0.0
C170 C 0.38487 0.45642 0.06242 0.0
N171 N 0.48423 0.43674 0.02387 0.0
C172 C 0.50569 0.41639 0.01647 0.0
C173 C 0.45794 0.39344 0.06201 0.0
C174 C 0.45976 0.42557 0.04401 0.0
C175 C 0.48149 0.37295 0.05774 0.0
C176 C 0.50513 0.38439 0.03413 0.0
H177 H 0.36418 0.44893 0.07661 0.0
H178 H 0.38812 0.39468 0.09868 0.0
H179 H 0.43073 0.35812 0.09698 0.0
O180 O 0.4704 0.46759 0.94436 0.0
O181 O 0.47525 0.49385 0.06609 0.0
O182 O 0.52375 0.48516 0.10588 0.0
O183 O 0.45709 0.51618 0.9384 0.0
O184 O 0.53562 0.47715 1.00864 0.0
O185 O 0.55375 0.4801 0.07938 0.0
O186 O 0.5301 0.54826 0.13606 0.0
O187 O 0.53404 0.55456 0.01139 0.0
O188 O 0.52902 0.51248 0.97733 0.0
O189 O 0.57913 0.53944 0.1375 0.0
O190 O 0.49587 0.55134 0.06838 0.0
O191 O 0.47327 0.54279 1.0004 0.0
C192 C 0.49333 0.48163 0.10187 0.0
C193 C 0.42468 0.48491 0.89585 0.0
C194 C 0.39541 0.46516 0.8347 0.0
C195 C 0.36738 0.47007 0.84988 0.0
C196 C 0.39644 0.48996 0.91016 0.0
C197 C 0.36796 0.48251 0.88726 0.0
C198 C 0.42403 0.47274 0.85795 0.0
C199 C 0.55482 0.46797 0.04479 0.0
C200 C 0.45514 0.49156 0.92005 0.0
C201 C 0.40799 0.40344 0.08338 0.0
C202 C 0.43231 0.38265 0.08252 0.0
C203 C 0.53846 0.54118 0.97921 0.0
C204 C 0.56064 0.53047 0.20363 0.0
C205 C 0.57269 0.53215 0.28038 0.0
C206 C 0.56925 0.49924 0.28926 0.0
C207 C 0.55734 0.49781 0.21332 0.0
C208 C 0.56791 0.54758 0.23707 0.0
C209 C 0.56139 0.48234 0.25596 0.0
C210 C 0.47477 0.55764 0.03326 0.0
C211 C 0.55792 0.54672 0.15877 0.0
H212 H 0.34498 0.46469 0.8325 0.0
H213 H 0.39634 0.49967 0.93885 0.0
H214 H 0.34625 0.48642 0.89849 0.0
H215 H 0.44586 0.46868 0.84697 0.0
H216 H 0.57336 0.48629 0.32188 0.0
H217 H 0.55211 0.48429 0.18788 0.0
H218 H 0.56997 0.57288 0.22909 0.0
H219 H 0.55901 0.45707 0.26324 0.0
H220 H 0.29795 0.2247 0.44258 0.0
H221 H 0.25626 0.18555 0.45051 0.0
H222 H 0.19722 0.25523 0.48075 0.0
H223 H 0.23861 0.29436 0.47135 0.0
H224 H 0.23099 0.16311 0.52116 0.0
H225 H 0.1373 0.21931 0.39326 0.0
H226 H 0.1774 0.23222 0.39687 0.0
H227 H 0.15182 0.24481 0.42998 0.0
C228 C 0.27575 0.23156 0.45004 0.0
C229 C 0.2711 0.26233 0.45604 0.0
C230 C 0.25207 0.2093 0.45481 0.0
C231 C 0.22339 0.21752 0.46567 0.0
C232 C 0.21876 0.24847 0.47132 0.0
H233 H 0.09339 0.08571 0.58396 0.0
H234 H 0.13319 0.12556 0.56933 0.0
C235 C 0.24235 0.27074 0.46621 0.0
C236 C 0.19902 0.19335 0.47337 0.0
H237 H 0.12179 0.17716 0.4447 0.0
C238 C 0.20716 0.1661 0.50423 0.0
C239 C 0.16799 0.19705 0.45098 0.0
C240 C 0.15815 0.22477 0.41562 0.0
C241 C 0.18506 0.14272 0.51378 0.0
C242 C 0.15373 0.14705 0.49267 0.0
C243 C 0.1457 0.17404 0.4613 0.0
C244 C 0.1291 0.12347 0.50172 0.0
C245 C 0.19567 0.11333 0.54577 0.0
C246 C 0.11282 0.10981 0.46838 0.0
C247 C 0.08977 0.08746 0.47653 0.0
C248 C 0.08251 0.07828 0.51823 0.0
C249 C 0.09851 0.09228 0.55152 0.0
C250 C 0.12146 0.11482 0.54327 0.0
H251 H 0.22145 0.10975 0.54979 0.0
H252 H 0.18956 0.11544 0.5775 0.0
H253 H 0.18397 0.09221 0.5358 0.0
H254 H 0.11815 0.11624 0.43602 0.0
H255 H 0.07762 0.07735 0.4501 0.0
H256 H 0.30071 0.80452 0.99829 0.0
H257 H 0.33944 0.76428 0.99631 0.0
H258 H 0.28202 0.69298 0.05802 0.0
H259 H 0.24241 0.73305 0.05727 0.0
H260 H 0.37441 0.72606 0.05714 0.0
H261 H 0.29717 0.65414 0.95919 0.0
H262 H 0.28551 0.69239 0.96643 0.0
H263 H 0.28212 0.65825 1.00696 0.0
C264 C 0.2963 0.78017 1.01087 0.0
C265 C 0.26857 0.77176 0.0276 0.0
C266 C 0.31845 0.75723 1.01 0.0
C267 C 0.31339 0.72545 0.02619 0.0
C268 C 0.28608 0.71717 0.04418 0.0
H269 H 0.45939 0.58246 0.09977 0.0
H270 H 0.42049 0.62323 0.09689 0.0
C271 C 0.2637 0.74008 0.04443 0.0
C272 C 0.33707 0.7012 0.0251 0.0
H273 H 0.34643 0.63097 0.99394 0.0
C274 C 0.3683 0.70537 0.04305 0.0
C275 C 0.32929 0.67447 1.00599 0.0
C276 C 0.29677 0.66969 0.98315 0.0
C277 C 0.39179 0.68334 0.04318 0.0
C278 C 0.38367 0.65577 0.02621 0.0
C279 C 0.35259 0.65189 1.00745 0.0
C280 C 0.40701 0.63058 0.02786 0.0
C281 C 0.42517 0.69023 0.06076 0.0
C282 C 0.41154 0.62013 0.99022 0.0
C283 C 0.43343 0.59631 0.99185 0.0
C284 C 0.45131 0.58262 0.03116 0.0
C285 C 0.44641 0.59286 0.06884 0.0
C286 C 0.42427 0.61634 0.06724 0.0
H287 H 0.42887 0.71587 0.05915 0.0
H288 H 0.43042 0.67876 0.09501 0.0
H289 H 0.44205 0.68118 0.04294 0.0
H290 H 0.39831 0.63061 0.95949 0.0
H291 H 0.43656 0.58888 0.96227 0.0
H292 H 0.79949 0.72585 0.61147 0.0
H293 H 0.83929 0.76658 0.60058 0.0
H294 H 0.77517 0.83591 0.62044 0.0
H295 H 0.73533 0.79506 0.63101 0.0
H296 H 0.80528 0.85245 0.54434 0.0
H297 H 0.88989 0.81228 0.69311 0.0
H298 H 0.87693 0.78254 0.66197 0.0
H299 H 0.84938 0.80039 0.68716 0.0
C300 C 0.79412 0.7498 0.61365 0.0
C301 C 0.76457 0.75752 0.6221 0.0
C302 C 0.8168 0.77295 0.6077 0.0
C303 C 0.81024 0.80419 0.61008 0.0
C304 C 0.78072 0.8119 0.61869 0.0
H305 H 0.93755 0.96121 0.61652 0.0
H306 H 0.89804 0.92114 0.6302 0.0
C307 C 0.75811 0.78868 0.6249 0.0
C308 C 0.83384 0.82898 0.60214 0.0
H309 H 0.90652 0.85302 0.64153 0.0
C310 C 0.82739 0.85265 0.56561 0.0
C311 C 0.86254 0.82925 0.63013 0.0
C312 C 0.87015 0.80494 0.67052 0.0
C313 C 0.84915 0.87635 0.55594 0.0
C314 C 0.87813 0.87623 0.58343 0.0
C315 C 0.88436 0.85287 0.62035 0.0
C316 C 0.90209 0.90049 0.57472 0.0
C317 C 0.84092 0.90157 0.51667 0.0
C318 C 0.91766 0.90196 0.53914 0.0
C319 C 0.9404 0.92479 0.53123 0.0
C320 C 0.94796 0.94662 0.55877 0.0
C321 C 0.9323 0.94493 0.59449 0.0
C322 C 0.90973 0.92199 0.60247 0.0
H323 H 0.81551 0.90191 0.50369 0.0
H324 H 0.84757 0.92509 0.52416 0.0
H325 H 0.85415 0.89717 0.49127 0.0
H326 H 0.91235 0.88531 0.51764 0.0
H327 H 0.95201 0.92529 0.50352 0.0
H328 H 0.72341 0.22019 0.07418 0.0
H329 H 0.685 0.26163 0.07306 0.0
H330 H 0.7451 0.33072 0.0127 0.0
H331 H 0.7838 0.2892 0.0148 0.0
H332 H 0.72239 0.34798 0.08281 0.0
H333 H 0.62625 0.30868 0.96874 0.0
H334 H 0.64118 0.27871 0.01359 0.0
H335 H 0.66609 0.29455 0.97511 0.0
C336 C 0.72819 0.24424 0.06055 0.0
C337 C 0.7563 0.25169 0.0444 0.0
C338 C 0.70627 0.26782 0.05966 0.0
C339 C 0.71205 0.29918 0.04232 0.0
C340 C 0.74013 0.30662 0.02601 0.0
H341 H 0.57968 0.45473 0.97711 0.0
H342 H 0.61851 0.41418 0.97763 0.0
C343 C 0.76206 0.28301 0.02691 0.0
C344 C 0.68921 0.32434 0.04237 0.0
H345 H 0.61368 0.34894 1.00495 0.0
C346 C 0.69864 0.34828 0.06571 0.0
C347 C 0.65835 0.32478 0.0197 0.0
C348 C 0.64735 0.30049 0.99253 0.0
C349 C 0.67786 0.37246 0.06745 0.0
C350 C 0.64677 0.3724 0.04573 0.0
C351 C 0.63747 0.34871 0.02194 0.0
C352 C 0.62373 0.39725 0.04615 0.0
C353 C 0.68946 0.39818 0.09185 0.0
C354 C 0.61365 0.40101 0.08453 0.0
C355 C 0.59136 0.42414 0.08432 0.0
C356 C 0.57878 0.44378 0.04569 0.0
C357 C 0.58889 0.43987 1.00736 0.0
C358 C 0.61109 0.41677 1.00759 0.0
H359 H 0.71546 0.39866 0.09852 0.0
H360 H 0.68068 0.42152 0.07368 0.0
H361 H 0.68057 0.39416 0.12303 0.0
H362 H 0.62272 0.38578 0.11452 0.0
H363 H 0.58368 0.4264 0.11423 0.0
H364 H 0.21197 0.88129 0.06755 0.0
H365 H 0.18498 0.89746 0.12259 0.0
H366 H 0.13439 0.81023 0.13333 0.0
H367 H 0.16214 0.79395 0.07951 0.0
H368 H 0.12333 0.90518 0.13415 0.0
H369 H 0.18083 0.80626 0.25422 0.0
H370 H 0.19209 0.81771 0.20177 0.0
H371 H 0.15832 0.79348 0.20869 0.0
C372 C 0.19456 0.86606 0.08123 0.0
C373 C 0.18904 0.83643 0.06989 0.0
C374 C 0.17928 0.87516 0.11263 0.0
C375 C 0.15827 0.85469 0.13287 0.0
C376 C 0.15111 0.82604 0.11901 0.0
H377 H 0.04976 0.84799 0.33748 0.0
H378 H 0.072 0.84201 0.27383 0.0
C379 C 0.16664 0.81686 0.08811 0.0
C380 C 0.14529 0.86216 0.17021 0.0
H381 H 0.14017 0.8334 0.27545 0.0
C382 C 0.12716 0.88963 0.16513 0.0
C383 C 0.15069 0.84205 0.21084 0.0
C384 C 0.17181 0.81341 0.21943 0.0
C385 C 0.11333 0.89685 0.19921 0.0
C386 C 0.11788 0.87613 0.23924 0.0
C387 C 0.13649 0.84906 0.24454 0.0
C388 C 0.10309 0.88154 0.27606 0.0
C389 C 0.09333 0.92612 0.19205 0.0
C390 C 0.11325 0.90579 0.29843 0.0
C391 C 0.10089 0.90905 0.33532 0.0
C392 C 0.07815 0.88805 0.3505 0.0
C393 C 0.06763 0.86422 0.32729 0.0
C394 C 0.08011 0.8609 0.29065 0.0
H395 H 0.08833 0.93725 0.15759 0.0
H396 H 0.0708 0.92056 0.20419 0.0
H397 H 0.10568 0.9434 0.21024 0.0
H398 H 0.13134 0.92166 0.28804 0.0
H399 H 0.10984 0.92742 0.35262 0.0
H400 H 0.70224 0.64001 0.67958 0.0
H401 H 0.67126 0.61261 0.73274 0.0
H402 H 0.63036 0.70117 0.74092 0.0
H403 H 0.66053 0.72824 0.68647 0.0
H404 H 0.67488 0.62159 0.81559 0.0
H405 H 0.55357 0.64627 0.73017 0.0
H406 H 0.58733 0.65214 0.70293 0.0
H407 H 0.57682 0.68087 0.73252 0.0
C408 C 0.68587 0.65335 0.69179 0.0
C409 C 0.68334 0.68607 0.67866 0.0
C410 C 0.66846 0.63782 0.72248 0.0
C411 C 0.64816 0.65475 0.74051 0.0
C412 C 0.64531 0.68747 0.72687 0.0
H413 H 0.53908 0.60454 0.94984 0.0
H414 H 0.56667 0.6326 0.89309 0.0
C415 C 0.66266 0.70296 0.69607 0.0
C416 C 0.63159 0.63845 0.77549 0.0
H417 H 0.55913 0.62436 0.80465 0.0
C418 C 0.64955 0.62204 0.81306 0.0
C419 C 0.59855 0.63921 0.77232 0.0
C420 C 0.57788 0.65531 0.73217 0.0
C421 C 0.63543 0.60667 0.84767 0.0
C422 C 0.60244 0.6074 0.84445 0.0
C423 C 0.58444 0.62393 0.80705 0.0
C424 C 0.58615 0.59053 0.87925 0.0
C425 C 0.65596 0.59026 0.88775 0.0
C426 C 0.58778 0.55761 0.89005 0.0
C427 C 0.57217 0.54162 0.92247 0.0
C428 C 0.55472 0.55827 0.94479 0.0
C429 C 0.55284 0.5912 0.93368 0.0
C430 C 0.56839 0.6072 0.90111 0.0
H431 H 0.68063 0.59819 0.88924 0.0
H432 H 0.64704 0.59446 0.9169 0.0
H433 H 0.65572 0.56456 0.88814 0.0
H434 H 0.60095 0.54425 0.87314 0.0
H435 H 0.57399 0.51621 0.93033 0.0
H436 H 0.87717 0.18969 0.08921 0.0
H437 H 0.91108 0.15849 0.1507 0.0
H438 H 0.83018 0.10868 0.19048 0.0
H439 H 0.79668 0.13939 0.12861 0.0
H440 H 0.90443 0.16087 0.23391 0.0
H441 H 0.89382 0.03777 0.20812 0.0
H442 H 0.8829 0.07093 0.16541 0.0
H443 H 0.85654 0.05692 0.2028 0.0
C444 C 0.86701 0.17128 0.11039 0.0
C445 C 0.83454 0.16669 0.10452 0.0
C446 C 0.88623 0.15367 0.14555 0.0
C447 C 0.8732 0.13108 0.17502 0.0
C448 C 0.84088 0.12548 0.16777 0.0
H449 H 0.92635 0.03124 0.43457 0.0
H450 H 0.89937 0.05521 0.36319 0.0
C451 C 0.82174 0.14306 0.13268 0.0
C452 C 0.89249 0.11606 0.21586 0.0
H453 H 0.91304 0.0451 0.27999 0.0
C454 C 0.90672 0.13556 0.24372 0.0
C455 C 0.89518 0.08304 0.22876 0.0
C456 C 0.88155 0.06094 0.19953 0.0
C457 C 0.92275 0.12293 0.28464 0.0
C458 C 0.92495 0.08994 0.2978 0.0
C459 C 0.91116 0.0704 0.26979 0.0
C460 C 0.9413 0.07536 0.34077 0.0
C461 C 0.93632 0.14493 0.3141 0.0
C462 C 0.97376 0.07862 0.35157 0.0
C463 C 0.98912 0.06514 0.3923 0.0
C464 C 0.97222 0.04824 0.42291 0.0
C465 C 0.93979 0.04464 0.41183 0.0
C466 C 0.92444 0.05808 0.37104 0.0
H467 H 0.92705 0.16929 0.30269 0.0
H468 H 0.93113 0.13658 0.34709 0.0
H469 H 0.96216 0.1455 0.31573 0.0
H470 H 0.98722 0.09157 0.32845 0.0
H471 H 0.01416 0.06825 0.39998 0.0
H472 H 0.37686 0.29963 0.54414 0.0
H473 H 0.3947 0.33111 0.59939 0.0
H474 H 0.3483 0.4128 0.5176 0.0
H475 H 0.3292 0.38067 0.46326 0.0
H476 H 0.42705 0.38453 0.60987 0.0
H477 H 0.30102 0.40042 0.6188 0.0
H478 H 0.31425 0.37436 0.58717 0.0
H479 H 0.31203 0.41606 0.56747 0.0
C480 C 0.37111 0.32447 0.5378 0.0
C481 C 0.35124 0.33773 0.50011 0.0
C482 C 0.38134 0.34247 0.56921 0.0
C483 C 0.37203 0.37411 0.5632 0.0
C484 C 0.35505 0.38822 0.52341 0.0
H485 H 0.42634 0.48613 0.76671 0.0
H486 H 0.42265 0.46592 0.69947 0.0
C487 C 0.34452 0.37006 0.49217 0.0
C488 C 0.37698 0.39082 0.60028 0.0
H489 H 0.33735 0.42285 0.66663 0.0
C490 C 0.4075 0.39317 0.62214 0.0
C491 C 0.35135 0.40148 0.61679 0.0
C492 C 0.3178 0.39775 0.59668 0.0
C493 C 0.41305 0.40552 0.6603 0.0
C494 C 0.38741 0.41643 0.67649 0.0
C495 C 0.357 0.4146 0.65414 0.0
C496 C 0.39107 0.42824 0.71776 0.0
C497 C 0.44615 0.40549 0.68379 0.0
C498 C 0.37415 0.41423 0.75017 0.0
C499 C 0.37584 0.42603 0.78821 0.0
C500 C 0.39463 0.45204 0.79483 0.0
C501 C 0.41196 0.46582 0.76269 0.0
C502 C 0.40997 0.4542 0.72433 0.0
H503 H 0.46161 0.38903 0.67346 0.0
H504 H 0.45589 0.42944 0.67682 0.0
H505 H 0.44676 0.39887 0.71903 0.0
H506 H 0.35942 0.39417 0.74592 0.0
H507 H 0.36247 0.41473 0.81255 0.0
H508 H 0.71818 0.63649 0.60867 0.0
H509 H 0.69052 0.60594 0.55711 0.0
H510 H 0.62622 0.68375 0.50567 0.0
H511 H 0.65291 0.71322 0.55927 0.0
H512 H 0.59622 0.63067 0.50293 0.0
H513 H 0.70603 0.62381 0.43608 0.0
H514 H 0.70998 0.60496 0.49126 0.0
H515 H 0.70273 0.64673 0.47681 0.0
C516 C 0.69744 0.64639 0.58726 0.0
C517 C 0.68719 0.67679 0.58798 0.0
C518 C 0.68199 0.62928 0.55735 0.0
C519 C 0.65684 0.64289 0.52655 0.0
C520 C 0.64563 0.67275 0.52887 0.0
H521 H 0.61001 0.5844 0.27995 0.0
H522 H 0.62697 0.61246 0.33854 0.0
C523 C 0.66069 0.68953 0.55946 0.0
C524 C 0.64344 0.62697 0.49045 0.0
H525 H 0.66338 0.59423 0.40899 0.0
C526 C 0.61089 0.62276 0.4823 0.0
C527 C 0.66243 0.61738 0.46272 0.0
C528 C 0.69715 0.62376 0.46681 0.0
C529 C 0.59688 0.60895 0.44763 0.0
C530 C 0.61608 0.59791 0.42127 0.0
C531 C 0.64859 0.60235 0.42931 0.0
C532 C 0.60322 0.58213 0.38473 0.0
C533 C 0.5616 0.6073 0.43897 0.0
C534 C 0.58388 0.55579 0.39072 0.0
C535 C 0.57321 0.5402 0.35669 0.0
C536 C 0.58235 0.55 0.31604 0.0
C537 C 0.6018 0.57639 0.31026 0.0
C538 C 0.61191 0.59233 0.34406 0.0
H539 H 0.5505 0.62566 0.45208 0.0
H540 H 0.55275 0.61023 0.40404 0.0
H541 H 0.55406 0.5841 0.45498 0.0
H542 H 0.57746 0.54683 0.42195 0.0
H543 H 0.55793 0.52032 0.36248 0.0
H544 H 0.85498 0.2249 0.98072 0.0
H545 H 0.88367 0.20034 0.93466 0.0
H546 H 0.84735 0.10991 0.98435 0.0
H547 H 0.81818 0.13475 0.02984 0.0
H548 H 0.9289 0.15112 0.9554 0.0
H549 H 0.82128 0.11998 0.85274 0.0
H550 H 0.82089 0.14753 0.88874 0.0
H551 H 0.82302 0.10603 0.90942 0.0
C552 C 0.85326 0.1998 0.98169 0.0
C553 C 0.83425 0.18166 1.00827 0.0
C554 C 0.86966 0.18578 0.9556 0.0
C555 C 0.86721 0.1534 0.95555 0.0
C556 C 0.84912 0.13503 0.98335 0.0
H557 H 0.98491 0.04632 0.83336 0.0
H558 H 0.95676 0.06544 0.88436 0.0
C559 C 0.83276 0.14909 1.00954 0.0
C560 C 0.8832 0.13915 0.92577 0.0
H561 H 0.86964 0.10305 0.83839 0.0
C562 C 0.91599 0.14048 0.92993 0.0
C563 C 0.86623 0.12571 0.89218 0.0
C564 C 0.83089 0.12488 0.88507 0.0
C565 C 0.9323 0.12859 0.90151 0.0
C566 C 0.91537 0.11468 0.86835 0.0
C567 C 0.88256 0.11349 0.86405 0.0
C568 C 0.9313 0.10203 0.83711 0.0
C569 C 0.96746 0.13173 0.90654 0.0
C570 C 0.92559 0.11559 0.79336 0.0
C571 C 0.94168 0.10475 0.76407 0.0
C572 C 0.96371 0.08 0.77798 0.0
C573 C 0.96859 0.06582 0.82168 0.0
C574 C 0.95251 0.0767 0.8509 0.0
H575 H 0.97604 0.14922 0.92697 0.0
H576 H 0.97855 0.10868 0.92195 0.0
H577 H 0.97525 0.1388 0.87479 0.0
H578 H 0.90923 0.13511 0.78203 0.0
H579 H 0.93753 0.11639 0.73079 0.0
H580 H 0.3934 0.31942 0.43776 0.0
H581 H 0.4246 0.34891 0.3859 0.0
H582 H 0.34028 0.39418 0.31188 0.0
H583 H 0.30931 0.36472 0.36372 0.0
H584 H 0.41289 0.34638 0.29278 0.0
H585 H 0.40426 0.46705 0.327 0.0
H586 H 0.3982 0.43226 0.36547 0.0
H587 H 0.36806 0.44599 0.32099 0.0
C588 C 0.3818 0.3361 0.41073 0.0
C589 C 0.34912 0.33987 0.40437 0.0
C590 C 0.39949 0.35276 0.38112 0.0
C591 C 0.38476 0.37382 0.34516 0.0
C592 C 0.35216 0.37828 0.33959 0.0
H593 H 0.43446 0.49072 0.11813 0.0
H594 H 0.40958 0.4635 0.17771 0.0
C595 C 0.33449 0.36142 0.36897 0.0
C596 C 0.40304 0.38982 0.31207 0.0
H597 H 0.42501 0.46218 0.26418 0.0
C598 C 0.41587 0.37166 0.28675 0.0
C599 C 0.40658 0.4228 0.30408 0.0
C600 C 0.39379 0.44327 0.33095 0.0
C601 C 0.43138 0.38572 0.25276 0.0
C602 C 0.4349 0.41878 0.24468 0.0
C603 C 0.4224 0.43686 0.27045 0.0
C604 C 0.45041 0.43517 0.20865 0.0
C605 C 0.44272 0.36519 0.22475 0.0
C606 C 0.48177 0.42858 0.2063 0.0
C607 C 0.49587 0.44377 0.17173 0.0
C608 C 0.47894 0.46603 0.13912 0.0
C609 C 0.44786 0.47315 0.14218 0.0
C610 C 0.43371 0.45783 0.17648 0.0
H611 H 0.4313 0.34185 0.22829 0.0
H612 H 0.43815 0.3766 0.19039 0.0
H613 H 0.46836 0.36128 0.23415 0.0
H614 H 0.49536 0.4117 0.2312 0.0
H615 H 0.51988 0.43781 0.17026 0.0
H616 H 0.23073 0.88729 0.9569 0.0
H617 H 0.1997 0.92095 0.89522 0.0
H618 H 0.11662 0.86954 0.92261 0.0
H619 H 0.14793 0.83573 0.98423 0.0
H620 H 0.16763 0.89009 0.82818 0.0
H621 H 0.08762 0.96453 0.88934 0.0
H622 H 0.12393 0.94826 0.92105 0.0
H623 H 0.09049 0.92357 0.91378 0.0
C624 C 0.20566 0.88398 0.95039 0.0
C625 C 0.19156 0.85911 0.97494 0.0
C626 C 0.188 0.90307 0.91527 0.0
C627 C 0.15588 0.89776 0.90443 0.0
C628 C 0.14129 0.87431 0.93081 0.0
H629 H 0.03914 0.93397 0.65601 0.0
H630 H 0.06617 0.91182 0.7279 0.0
C631 C 0.15907 0.85511 0.96598 0.0
C632 C 0.13893 0.91353 0.86238 0.0
H633 H 0.07892 0.9645 0.81429 0.0
C634 C 0.14834 0.90648 0.82515 0.0
C635 C 0.1138 0.93484 0.85862 0.0
C636 C 0.10335 0.94354 0.89773 0.0
C637 C 0.13299 0.91987 0.7842 0.0
C638 C 0.10758 0.94081 0.78039 0.0
C639 C 0.09839 0.9483 0.81751 0.0
C640 C 0.09024 0.95473 0.73781 0.0
C641 C 0.14389 0.91151 0.74514 0.0
C642 C 0.09487 0.98617 0.71976 0.0
C643 C 0.07996 0.99869 0.67831 0.0
C644 C 0.05992 0.98002 0.65457 0.0
C645 C 0.0549 0.94872 0.67319 0.0
C646 C 0.07005 0.93614 0.71438 0.0
H647 H 0.16682 0.89888 0.7532 0.0
H648 H 0.1263 0.89614 0.73031 0.0
H649 H 0.14596 0.93302 0.72089 0.0
H650 H 0.11054 1.00079 0.73736 0.0
H651 H 0.08449 0.0228 0.6646 0.0
loop_
_geom_bond_atom_site_label_1
_geom_bond_atom_site_label_2
_geom_bond_distance
_geom_bond_site_symmetry_2
_ccdc_geom_bond_type
C0 N1 1.317 1_556 S
C0 N2 1.348 1_556 S
C0 C3 1.485 . S
N1 C0 1.317 1_554 S
N1 N5 1.370 . S
N2 C0 1.348 1_554 S
N2 C4 1.346 . S
C3 C0 1.485 . S
C3 H7 0.960 . S
C3 H8 0.961 . S
C3 H9 0.960 . S
C4 N2 1.346 . S
C4 N5 1.307 . S
C4 C6 1.486 . S
N5 N1 1.370 . S
N5 C4 1.307 . S
C6 C4 1.486 . S
C6 H10 0.960 . S
C6 H11 0.960 . S
C6 H12 0.959 . S
H7 C3 0.960 . S
H8 C3 0.961 . S
H9 C3 0.960 . S
H10 C6 0.960 . S
H11 C6 0.960 . S
H12 C6 0.959 . S
C13 N14 1.317 . S
C13 N15 1.348 . S
C13 C16 1.485 . S
N14 C13 1.317 . S
N14 N18 1.370 . S
N15 C13 1.348 . S
N15 C17 1.346 . S
C16 C13 1.485 . S
C16 H20 0.960 . S
C16 H21 0.961 . S
C16 H22 0.960 . S
C17 N15 1.346 . S
C17 N18 1.307 . S
C17 C19 1.486 . S
N18 N14 1.370 . S
N18 C17 1.307 . S
C19 C17 1.486 . S
C19 H23 0.960 . S
C19 H24 0.960 . S
C19 H25 0.959 . S
H20 C16 0.960 . S
H21 C16 0.961 . S
H22 C16 0.960 . S
H23 C19 0.960 . S
H24 C19 0.960 . S
H25 C19 0.959 . S
C26 N27 1.317 . S
C26 N28 1.348 . S
C26 C29 1.485 . S
N27 C26 1.317 . S
N27 N31 1.370 . S
N28 C26 1.348 . S
N28 C30 1.346 . S
C29 C26 1.485 . S
C29 H33 0.960 . S
C29 H34 0.961 . S
C29 H35 0.960 . S
C30 N28 1.346 . S
C30 N31 1.307 . S
C30 C32 1.486 1_554 S
N31 N27 1.370 . S
N31 C30 1.307 . S
C32 C30 1.486 1_556 S
C32 H36 0.960 . S
C32 H37 0.960 . S
C32 H38 0.959 . S
H33 C29 0.960 . S
H34 C29 0.961 . S
H35 C29 0.960 . S
H36 C32 0.960 . S
H37 C32 0.960 . S
H38 C32 0.959 . S
C39 N40 1.317 . S
C39 N41 1.348 . S
C39 C42 1.485 . S
N40 C39 1.317 . S
N40 N44 1.370 . S
N41 C39 1.348 . S
N41 C43 1.346 . S
C42 C39 1.485 . S
C42 H46 0.960 . S
C42 H47 0.961 . S
C42 H48 0.960 . S
C43 N41 1.346 . S
C43 N44 1.307 . S
C43 C45 1.486 . S
N44 N40 1.370 . S
N44 C43 1.307 . S
C45 C43 1.486 . S
C45 H49 0.960 . S
C45 H50 0.960 . S
C45 H51 0.959 . S
H46 C42 0.960 . S
H47 C42 0.961 . S
H48 C42 0.960 . S
H49 C45 0.960 . S
H50 C45 0.960 . S
H51 C45 0.959 . S
Eu52 N81 2.600 . S
Eu52 N87 2.562 . S
Eu52 O96 2.462 . S
Eu52 O97 2.373 . S
Eu52 O99 2.432 . S
Eu52 O100 2.291 1_565 S
Eu52 O104 2.335 1_465 S
Eu52 O107 2.372 1_455 S
Eu52 C116 2.787 . S
C53 N54 1.365 . S
C53 C56 1.405 . S
C53 C60 1.448 . S
N54 C53 1.365 . S
N54 C57 1.319 1_655 S
N54 Eu63 2.600 . S
C55 C57 1.397 . S
C55 C58 1.367 1_455 S
C55 H75 0.931 . S
C56 C53 1.405 . S
C56 C58 1.403 . S
C56 C62 1.439 . S
C57 N54 1.319 1_455 S
C57 C55 1.397 . S
C57 H68 0.930 . S
C58 C55 1.367 1_655 S
C58 C56 1.403 . S
C58 H79 0.929 . S
C59 C60 1.430 . S
C59 C61 1.387 . S
C59 C65 1.404 . S
C60 C53 1.448 . S
C60 C59 1.430 . S
C60 N64 1.351 . S
C61 C59 1.387 . S
C61 C62 1.374 . S
C61 H76 0.931 . S
C62 C56 1.439 . S
C62 C61 1.374 . S
C62 H77 0.931 . S
Eu63 N54 2.600 . S
Eu63 N64 2.562 . S
Eu63 O98 2.335 1_655 S
Eu63 O101 2.372 1_655 S
Eu63 O102 2.462 . S
Eu63 O103 2.373 . S
Eu63 O105 2.432 . S
Eu63 O106 2.291 1_545 S
Eu63 C127 2.787 . S
N64 C60 1.351 . S
N64 Eu63 2.562 . S
N64 C66 1.325 . S
C65 C59 1.404 . S
C65 C67 1.366 . S
C65 H73 0.930 . S
C66 N64 1.325 . S
C66 C67 1.416 . S
C66 H72 0.929 . S
C67 C65 1.366 . S
C67 C66 1.416 . S
C67 H69 0.930 . S
H68 C57 0.930 . S
H69 C67 0.930 . S
H70 C85 0.930 1_655 S
H71 C92 0.930 . S
H72 C66 0.929 . S
H73 C65 0.930 . S
H74 C88 0.929 . S
H75 C55 0.931 . S
H76 C61 0.931 . S
H77 C62 0.931 . S
H78 C83 0.931 1_655 S
H79 C58 0.929 . S
H80 C91 0.930 . S
N81 Eu52 2.600 . S
N81 C82 1.365 . S
N81 C85 1.319 . S
C82 N81 1.365 . S
C82 C84 1.405 . S
C82 C90 1.448 . S
C83 H78 0.931 1_455 S
C83 C85 1.397 . S
C83 C86 1.367 . S
C84 C82 1.405 . S
C84 C86 1.403 . S
C84 C117 1.439 . S
C85 H70 0.930 1_455 S
C85 N81 1.319 . S
C85 C83 1.397 . S
C86 C83 1.367 . S
C86 C84 1.403 . S
C86 H93 0.929 . S
N87 Eu52 2.562 . S
N87 C88 1.325 . S
N87 C90 1.351 . S
C88 H74 0.929 . S
C88 N87 1.325 . S
C88 C92 1.416 . S
C89 C90 1.430 . S
C89 C91 1.404 . S
C89 C118 1.387 . S
C90 C82 1.448 . S
C90 N87 1.351 . S
C90 C89 1.430 . S
C91 H80 0.930 . S
C91 C89 1.404 . S
C91 C92 1.366 . S
C92 H71 0.930 . S
C92 C88 1.416 . S
C92 C91 1.366 . S
H93 C86 0.929 . S
H94 C117 0.931 . S
H95 C118 0.931 . S
O96 Eu52 2.462 . S
O96 C116 1.252 . S
O97 Eu52 2.373 . S
O97 C108 1.249 . S
O98 Eu63 2.335 1_455 S
O98 C108 1.264 1_545 S
O99 Eu52 2.432 . S
O99 C116 1.268 . S
O100 Eu52 2.291 1_545 S
O100 C115 1.255 . S
O101 Eu63 2.372 1_455 S
O101 C115 1.257 . S
O102 Eu63 2.462 . S
O102 C127 1.252 . S
O103 Eu63 2.373 . S
O103 C119 1.249 . S
O104 Eu52 2.335 1_645 S
O104 C119 1.264 . S
O105 Eu63 2.432 . S
O105 C127 1.268 . S
O106 Eu63 2.291 1_565 S
O106 C126 1.255 . S
O107 Eu52 2.372 1_655 S
O107 C126 1.257 . S
C108 O97 1.249 . S
C108 O98 1.264 1_565 S
C109 C112 1.382 . S
C109 C114 1.390 . S
C109 C116 1.506 . S
C110 C111 1.398 . S
C110 C114 1.392 . S
C111 C110 1.398 . S
C111 C113 1.372 . S
C111 H128 0.931 . S
C112 C109 1.382 . S
C112 C113 1.390 . S
C112 H129 0.931 . S
C113 C111 1.372 . S
C113 C112 1.390 . S
C113 H130 0.929 . S
C114 C109 1.390 . S
C114 C110 1.392 . S
C114 H131 0.930 . S
C115 O100 1.255 . S
C115 O101 1.257 . S
C116 Eu52 2.787 . S
C116 O96 1.252 . S
C116 O99 1.268 . S
C116 C109 1.506 . S
C117 C84 1.439 . S
C117 H94 0.931 . S
C117 C118 1.374 . S
C118 C89 1.387 . S
C118 H95 0.931 . S
C118 C117 1.374 . S
C119 O103 1.249 . S
C119 O104 1.264 . S
C120 C123 1.382 . S
C120 C124 1.390 . S
C120 C127 1.506 . S
C121 C122 1.398 . S
C121 C124 1.392 . S
C122 C121 1.398 . S
C122 C125 1.372 . S
C122 H132 0.931 . S
C123 C120 1.382 . S
C123 C125 1.390 . S
C123 H133 0.931 . S
C124 C120 1.390 . S
C124 C121 1.392 . S
C124 H134 0.930 . S
C125 C122 1.372 . S
C125 C123 1.390 . S
C125 H135 0.929 . S
C126 O106 1.255 . S
C126 O107 1.257 . S
C127 Eu63 2.787 . S
C127 O102 1.252 . S
C127 O105 1.268 . S
C127 C120 1.506 . S
H128 C111 0.931 . S
H129 C112 0.931 . S
H130 C113 0.929 . S
H131 C114 0.930 . S
H132 C122 0.931 . S
H133 C123 0.931 . S
H134 C124 0.930 . S
H135 C125 0.929 . S
Eu136 N165 2.600 . S
Eu136 N171 2.562 1_556 S
Eu136 O180 2.462 . S
Eu136 O181 2.373 1_556 S
Eu136 O183 2.432 . S
Eu136 O184 2.291 1_556 S
Eu136 O188 2.335 . S
Eu136 O191 2.371 1_556 S
Eu136 C200 2.787 . S
C137 N138 1.365 . S
C137 C140 1.405 . S
C137 C144 1.448 . S
N138 C137 1.365 . S
N138 C141 1.319 . S
N138 Eu147 2.600 . S
C139 C141 1.397 . S
C139 C142 1.367 . S
C139 H159 0.931 . S
C140 C137 1.405 . S
C140 C142 1.403 . S
C140 C146 1.439 . S
C141 N138 1.319 . S
C141 C139 1.397 . S
C141 H152 0.930 . S
C142 C139 1.367 . S
C142 C140 1.403 . S
C142 H163 0.929 . S
C143 C144 1.430 . S
C143 C145 1.387 . S
C143 C149 1.404 . S
C144 C137 1.448 . S
C144 C143 1.430 . S
C144 N148 1.351 . S
C145 C143 1.387 . S
C145 C146 1.374 . S
C145 H160 0.931 . S
C146 C140 1.439 . S
C146 C145 1.374 . S
C146 H161 0.931 . S
Eu147 N138 2.600 . S
Eu147 N148 2.562 . S
Eu147 O182 2.335 . S
Eu147 O185 2.372 . S
Eu147 O186 2.462 . S
Eu147 O187 2.373 1_554 S
Eu147 O189 2.432 . S
Eu147 O190 2.291 . S
Eu147 C211 2.787 . S
N148 C144 1.351 . S
N148 Eu147 2.562 . S
N148 C150 1.325 . S
C149 C143 1.404 . S
C149 C151 1.366 . S
C149 H157 0.930 . S
C150 N148 1.325 . S
C150 C151 1.416 . S
C150 H156 0.929 . S
C151 C149 1.366 . S
C151 C150 1.416 . S
C151 H153 0.930 . S
H152 C141 0.930 . S
H153 C151 0.930 . S
H154 C169 0.930 . S
H155 C176 0.930 . S
H156 C150 0.929 . S
H157 C149 0.930 . S
H158 C172 0.929 . S
H159 C139 0.931 . S
H160 C145 0.931 . S
H161 C146 0.931 . S
H162 C167 0.931 . S
H163 C142 0.929 . S
H164 C175 0.930 . S
N165 Eu136 2.600 . S
N165 C166 1.365 1_556 S
N165 C169 1.319 . S
C166 N165 1.365 1_554 S
C166 C168 1.405 . S
C166 C174 1.448 . S
C167 H162 0.931 . S
C167 C169 1.397 . S
C167 C170 1.367 1_556 S
C168 C166 1.405 . S
C168 C170 1.403 . S
C168 C201 1.439 . S
C169 H154 0.930 . S
C169 N165 1.319 . S
C169 C167 1.397 . S
C170 C167 1.367 1_554 S
C170 C168 1.403 . S
C170 H177 0.929 . S
N171 Eu136 2.562 1_554 S
N171 C172 1.325 . S
N171 C174 1.351 . S
C172 H158 0.929 . S
C172 N171 1.325 . S
C172 C176 1.416 . S
C173 C174 1.430 . S
C173 C175 1.404 . S
C173 C202 1.387 . S
C174 C166 1.448 . S
C174 N171 1.351 . S
C174 C173 1.430 . S
C175 H164 0.930 . S
C175 C173 1.404 . S
C175 C176 1.366 . S
C176 H155 0.930 . S
C176 C172 1.416 . S
C176 C175 1.366 . S
H177 C170 0.929 . S
H178 C201 0.931 . S
H179 C202 0.931 . S
O180 Eu136 2.462 . S
O180 C200 1.252 . S
O181 Eu136 2.373 1_554 S
O181 C192 1.249 . S
O182 Eu147 2.335 . S
O182 C192 1.264 . S
O183 Eu136 2.432 . S
O183 C200 1.268 . S
O184 Eu136 2.291 1_554 S
O184 C199 1.255 . S
O185 Eu147 2.372 . S
O185 C199 1.257 . S
O186 Eu147 2.462 . S
O186 C211 1.252 . S
O187 Eu147 2.373 1_556 S
O187 C203 1.249 . S
O188 Eu136 2.335 . S
O188 C203 1.264 . S
O189 Eu147 2.432 . S
O189 C211 1.268 . S
O190 Eu147 2.291 . S
O190 C210 1.255 . S
O191 Eu136 2.371 1_554 S
O191 C210 1.259 . S
C192 O181 1.249 . S
C192 O182 1.264 . S
C193 C196 1.382 . S
C193 C198 1.390 . S
C193 C200 1.506 . S
C194 C195 1.398 . S
C194 C198 1.392 . S
C195 C194 1.398 . S
C195 C197 1.372 . S
C195 H212 0.931 . S
C196 C193 1.382 . S
C196 C197 1.390 . S
C196 H213 0.931 . S
C197 C195 1.372 . S
C197 C196 1.390 . S
C197 H214 0.929 . S
C198 C193 1.390 . S
C198 C194 1.392 . S
C198 H215 0.930 . S
C199 O184 1.255 . S
C199 O185 1.257 . S
C200 Eu136 2.787 . S
C200 O180 1.252 . S
C200 O183 1.268 . S
C200 C193 1.506 . S
C201 C168 1.439 . S
C201 H178 0.931 . S
C201 C202 1.374 . S
C202 C173 1.387 . S
C202 H179 0.931 . S
C202 C201 1.374 . S
C203 O187 1.249 . S
C203 O188 1.264 . S
C204 C207 1.382 . S
C204 C208 1.390 . S
C204 C211 1.506 . S
C205 C206 1.398 . S
C205 C208 1.392 . S
C206 C205 1.398 . S
C206 C209 1.372 . S
C206 H216 0.931 . S
C207 C204 1.382 . S
C207 C209 1.390 . S
C207 H217 0.931 . S
C208 C204 1.390 . S
C208 C205 1.392 . S
C208 H218 0.930 . S
C209 C206 1.372 . S
C209 C207 1.390 . S
C209 H219 0.929 . S
C210 O190 1.255 . S
C210 O191 1.259 . S
C211 Eu147 2.787 . S
C211 O186 1.252 . S
C211 O189 1.268 . S
C211 C204 1.506 . S
H212 C195 0.931 . S
H213 C196 0.931 . S
H214 C197 0.929 . S
H215 C198 0.930 . S
H216 C206 0.931 . S
H217 C207 0.931 . S
H218 C208 0.930 . S
H219 C209 0.929 . S
H220 C228 0.929 . S
H221 C230 0.930 . S
H222 C232 0.930 . S
H223 C235 0.929 . S
H224 C238 0.930 . S
H225 C240 0.960 . S
H226 C240 0.960 . S
H227 C240 0.960 . S
C228 H220 0.929 . S
C228 C229 1.377 . S
C228 C230 1.384 . S
C229 C228 1.377 . S
C229 C235 1.390 . S
C230 H221 0.930 . S
C230 C228 1.384 . S
C230 C231 1.372 . S
C231 C230 1.372 . S
C231 C232 1.400 . S
C231 C236 1.490 . S
C232 H222 0.930 . S
C232 C231 1.400 . S
C232 C235 1.386 . S
H233 C249 0.930 . S
H234 C250 0.931 . S
C235 H223 0.929 . S
C235 C229 1.390 . S
C235 C232 1.386 . S
C236 C231 1.490 . S
C236 C238 1.395 . S
C236 C239 1.403 . S
H237 C243 0.930 . S
C238 H224 0.930 . S
C238 C236 1.395 . S
C238 C241 1.403 . S
C239 C236 1.403 . S
C239 C240 1.524 . S
C239 C243 1.400 . S
C240 H225 0.960 . S
C240 H226 0.960 . S
C240 H227 0.960 . S
C240 C239 1.524 . S
C241 C238 1.403 . S
C241 C242 1.392 . S
C241 C245 1.495 . S
C242 C241 1.392 . S
C242 C243 1.385 . S
C242 C244 1.478 . S
C243 H237 0.930 . S
C243 C239 1.400 . S
C243 C242 1.385 . S
C244 C242 1.478 . S
C244 C246 1.381 . S
C244 C250 1.383 . S
C245 C241 1.495 . S
C245 H251 0.959 . S
C245 H252 0.961 . S
C245 H253 0.960 . S
C246 C244 1.381 . S
C246 C247 1.394 . S
C246 H254 0.930 . S
C247 C246 1.394 . S
C247 C248 1.383 . S
C247 H255 0.929 . S
C248 C247 1.383 . S
C248 C249 1.377 . S
C249 H233 0.930 . S
C249 C248 1.377 . S
C249 C250 1.379 . S
C250 H234 0.931 . S
C250 C244 1.383 . S
C250 C249 1.379 . S
H251 C245 0.959 . S
H252 C245 0.961 . S
H253 C245 0.960 . S
H254 C246 0.930 . S
H255 C247 0.929 . S
H256 C264 0.929 . S
H257 C266 0.930 . S
H258 C268 0.930 . S
H259 C271 0.929 . S
H260 C274 0.930 . S
H261 C276 0.960 . S
H262 C276 0.960 . S
H263 C276 0.960 1_554 S
C264 H256 0.929 . S
C264 C265 1.377 . S
C264 C266 1.384 . S
C265 C264 1.377 . S
C265 C271 1.390 . S
C266 H257 0.930 . S
C266 C264 1.384 . S
C266 C267 1.372 . S
C267 C266 1.372 . S
C267 C268 1.400 . S
C267 C272 1.490 . S
C268 H258 0.930 . S
C268 C267 1.400 . S
C268 C271 1.386 . S
H269 C285 0.930 . S
H270 C286 0.931 . S
C271 H259 0.929 . S
C271 C265 1.390 . S
C271 C268 1.386 . S
C272 C267 1.490 . S
C272 C274 1.395 . S
C272 C275 1.403 . S
H273 C279 0.930 . S
C274 H260 0.930 . S
C274 C272 1.395 . S
C274 C277 1.403 . S
C275 C272 1.403 . S
C275 C276 1.524 1_554 S
C275 C279 1.400 . S
C276 H261 0.960 . S
C276 H262 0.960 . S
C276 H263 0.960 1_556 S
C276 C275 1.524 1_556 S
C277 C274 1.403 . S
C277 C278 1.392 . S
C277 C281 1.495 . S
C278 C277 1.392 . S
C278 C279 1.385 . S
C278 C280 1.478 . S
C279 H273 0.930 . S
C279 C275 1.400 . S
C279 C278 1.385 . S
C280 C278 1.478 . S
C280 C282 1.381 . S
C280 C286 1.383 . S
C281 C277 1.495 . S
C281 H287 0.959 . S
C281 H288 0.961 . S
C281 H289 0.960 . S
C282 C280 1.381 . S
C282 C283 1.394 . S
C282 H290 0.930 . S
C283 C282 1.394 . S
C283 C284 1.383 . S
C283 H291 0.929 . S
C284 C283 1.383 . S
C284 C285 1.377 . S
C285 H269 0.930 . S
C285 C284 1.377 . S
C285 C286 1.379 . S
C286 H270 0.931 . S
C286 C280 1.383 . S
C286 C285 1.379 . S
H287 C281 0.959 . S
H288 C281 0.961 . S
H289 C281 0.960 . S
H290 C282 0.930 . S
H291 C283 0.929 . S
H292 C300 0.929 . S
H293 C302 0.930 . S
H294 C304 0.930 . S
H295 C307 0.929 . S
H296 C310 0.930 . S
H297 C312 0.960 . S
H298 C312 0.960 . S
H299 C312 0.960 . S
C300 H292 0.929 . S
C300 C301 1.377 . S
C300 C302 1.384 . S
C301 C300 1.377 . S
C301 C307 1.390 . S
C302 H293 0.930 . S
C302 C300 1.384 . S
C302 C303 1.372 . S
C303 C302 1.372 . S
C303 C304 1.400 . S
C303 C308 1.490 . S
C304 H294 0.930 . S
C304 C303 1.400 . S
C304 C307 1.386 . S
H305 C321 0.930 . S
H306 C322 0.931 . S
C307 H295 0.929 . S
C307 C301 1.390 . S
C307 C304 1.386 . S
C308 C303 1.490 . S
C308 C310 1.395 . S
C308 C311 1.403 . S
H309 C315 0.930 . S
C310 H296 0.930 . S
C310 C308 1.395 . S
C310 C313 1.403 . S
C311 C308 1.403 . S
C311 C312 1.524 . S
C311 C315 1.400 . S
C312 H297 0.960 . S
C312 H298 0.960 . S
C312 H299 0.960 . S
C312 C311 1.524 . S
C313 C310 1.403 . S
C313 C314 1.392 . S
C313 C317 1.495 . S
C314 C313 1.392 . S
C314 C315 1.385 . S
C314 C316 1.478 . S
C315 H309 0.930 . S
C315 C311 1.400 . S
C315 C314 1.385 . S
C316 C314 1.478 . S
C316 C318 1.381 . S
C316 C322 1.383 . S
C317 C313 1.495 . S
C317 H323 0.959 . S
C317 H324 0.961 . S
C317 H325 0.960 . S
C318 C316 1.381 . S
C318 C319 1.394 . S
C318 H326 0.930 . S
C319 C318 1.394 . S
C319 C320 1.383 . S
C319 H327 0.929 . S
C320 C319 1.383 . S
C320 C321 1.377 . S
C321 H305 0.930 . S
C321 C320 1.377 . S
C321 C322 1.379 . S
C322 H306 0.931 . S
C322 C316 1.383 . S
C322 C321 1.379 . S
H323 C317 0.959 . S
H324 C317 0.961 . S
H325 C317 0.960 . S
H326 C318 0.930 . S
H327 C319 0.929 . S
H328 C336 0.929 . S
H329 C338 0.930 . S
H330 C340 0.930 . S
H331 C343 0.929 . S
H332 C346 0.930 . S
H333 C348 0.960 . S
H334 C348 0.960 1_554 S
H335 C348 0.960 . S
C336 H328 0.929 . S
C336 C337 1.377 . S
C336 C338 1.384 . S
C337 C336 1.377 . S
C337 C343 1.390 1_554 S
C338 H329 0.930 . S
C338 C336 1.384 . S
C338 C339 1.372 . S
C339 C338 1.372 . S
C339 C340 1.400 1_554 S
C339 C344 1.490 . S
C340 H330 0.930 . S
C340 C339 1.400 1_556 S
C340 C343 1.386 . S
H341 C357 0.930 . S
H342 C358 0.931 . S
C343 H331 0.929 . S
C343 C337 1.390 1_556 S
C343 C340 1.386 . S
C344 C339 1.490 . S
C344 C346 1.395 . S
C344 C347 1.403 . S
H345 C351 0.930 . S
C346 H332 0.930 . S
C346 C344 1.395 . S
C346 C349 1.403 . S
C347 C344 1.403 . S
C347 C348 1.524 1_554 S
C347 C351 1.400 . S
C348 H333 0.960 . S
C348 H334 0.960 1_556 S
C348 H335 0.960 . S
C348 C347 1.524 1_556 S
C349 C346 1.403 . S
C349 C350 1.392 . S
C349 C353 1.495 . S
C350 C349 1.392 . S
C350 C351 1.385 . S
C350 C352 1.478 . S
C351 H345 0.930 . S
C351 C347 1.400 . S
C351 C350 1.385 . S
C352 C350 1.478 . S
C352 C354 1.381 . S
C352 C358 1.383 1_554 S
C353 C349 1.495 . S
C353 H359 0.959 . S
C353 H360 0.961 . S
C353 H361 0.960 . S
C354 C352 1.381 . S
C354 C355 1.394 . S
C354 H362 0.930 . S
C355 C354 1.394 . S
C355 C356 1.383 . S
C355 H363 0.929 . S
C356 C355 1.383 . S
C356 C357 1.377 1_554 S
C357 H341 0.930 . S
C357 C356 1.377 1_556 S
C357 C358 1.379 . S
C358 H342 0.931 . S
C358 C352 1.383 1_556 S
C358 C357 1.379 . S
H359 C353 0.959 . S
H360 C353 0.961 . S
H361 C353 0.960 . S
H362 C354 0.930 . S
H363 C355 0.929 . S
H364 C372 0.929 . S
H365 C374 0.930 . S
H366 C376 0.930 . S
H367 C379 0.929 . S
H368 C382 0.930 . S
H369 C384 0.960 . S
H370 C384 0.960 . S
H371 C384 0.960 . S
C372 H364 0.929 . S
C372 C373 1.377 . S
C372 C374 1.384 . S
C373 C372 1.377 . S
C373 C379 1.390 . S
C374 H365 0.930 . S
C374 C372 1.384 . S
C374 C375 1.372 . S
C375 C374 1.372 . S
C375 C376 1.400 . S
C375 C380 1.490 . S
C376 H366 0.930 . S
C376 C375 1.400 . S
C376 C379 1.386 . S
H377 C393 0.930 . S
H378 C394 0.931 . S
C379 H367 0.929 . S
C379 C373 1.390 . S
C379 C376 1.386 . S
C380 C375 1.490 . S
C380 C382 1.395 . S
C380 C383 1.403 . S
H381 C387 0.930 . S
C382 H368 0.930 . S
C382 C380 1.395 . S
C382 C385 1.403 . S
C383 C380 1.403 . S
C383 C384 1.524 . S
C383 C387 1.400 . S
C384 H369 0.960 . S
C384 H370 0.960 . S
C384 H371 0.960 . S
C384 C383 1.524 . S
C385 C382 1.403 . S
C385 C386 1.392 . S
C385 C389 1.495 . S
C386 C385 1.392 . S
C386 C387 1.385 . S
C386 C388 1.478 . S
C387 H381 0.930 . S
C387 C383 1.400 . S
C387 C386 1.385 . S
C388 C386 1.478 . S
C388 C390 1.381 . S
C388 C394 1.383 . S
C389 C385 1.495 . S
C389 H395 0.959 . S
C389 H396 0.961 . S
C389 H397 0.960 . S
C390 C388 1.381 . S
C390 C391 1.394 . S
C390 H398 0.930 . S
C391 C390 1.394 . S
C391 C392 1.383 . S
C391 H399 0.929 . S
C392 C391 1.383 . S
C392 C393 1.377 . S
C393 H377 0.930 . S
C393 C392 1.377 . S
C393 C394 1.379 . S
C394 H378 0.931 . S
C394 C388 1.383 . S
C394 C393 1.379 . S
H395 C389 0.959 . S
H396 C389 0.961 . S
H397 C389 0.960 . S
H398 C390 0.930 . S
H399 C391 0.929 . S
H400 C408 0.929 . S
H401 C410 0.930 . S
H402 C412 0.930 . S
H403 C415 0.929 . S
H404 C418 0.930 . S
H405 C420 0.960 . S
H406 C420 0.960 . S
H407 C420 0.960 . S
C408 H400 0.929 . S
C408 C409 1.377 . S
C408 C410 1.384 . S
C409 C408 1.377 . S
C409 C415 1.390 . S
C410 H401 0.930 . S
C410 C408 1.384 . S
C410 C411 1.372 . S
C411 C410 1.372 . S
C411 C412 1.400 . S
C411 C416 1.490 . S
C412 H402 0.930 . S
C412 C411 1.400 . S
C412 C415 1.386 . S
H413 C429 0.930 . S
H414 C430 0.931 . S
C415 H403 0.929 . S
C415 C409 1.390 . S
C415 C412 1.386 . S
C416 C411 1.490 . S
C416 C418 1.395 . S
C416 C419 1.403 . S
H417 C423 0.930 . S
C418 H404 0.930 . S
C418 C416 1.395 . S
C418 C421 1.403 . S
C419 C416 1.403 . S
C419 C420 1.524 . S
C419 C423 1.400 . S
C420 H405 0.960 . S
C420 H406 0.960 . S
C420 H407 0.960 . S
C420 C419 1.524 . S
C421 C418 1.403 . S
C421 C422 1.392 . S
C421 C425 1.495 . S
C422 C421 1.392 . S
C422 C423 1.385 . S
C422 C424 1.478 . S
C423 H417 0.930 . S
C423 C419 1.400 . S
C423 C422 1.385 . S
C424 C422 1.478 . S
C424 C426 1.381 . S
C424 C430 1.383 . S
C425 C421 1.495 . S
C425 H431 0.959 . S
C425 H432 0.961 . S
C425 H433 0.960 . S
C426 C424 1.381 . S
C426 C427 1.394 . S
C426 H434 0.930 . S
C427 C426 1.394 . S
C427 C428 1.383 . S
C427 H435 0.929 . S
C428 C427 1.383 . S
C428 C429 1.377 . S
C429 H413 0.930 . S
C429 C428 1.377 . S
C429 C430 1.379 . S
C430 H414 0.931 . S
C430 C424 1.383 . S
C430 C429 1.379 . S
H431 C425 0.959 . S
H432 C425 0.961 . S
H433 C425 0.960 . S
H434 C426 0.930 . S
H435 C427 0.929 . S
H436 C444 0.929 . S
H437 C446 0.930 . S
H438 C448 0.930 . S
H439 C451 0.929 . S
H440 C454 0.930 . S
H441 C456 0.960 . S
H442 C456 0.960 . S
H443 C456 0.960 . S
C444 H436 0.929 . S
C444 C445 1.377 . S
C444 C446 1.384 . S
C445 C444 1.377 . S
C445 C451 1.390 . S
C446 H437 0.930 . S
C446 C444 1.384 . S
C446 C447 1.372 . S
C447 C446 1.372 . S
C447 C448 1.400 . S
C447 C452 1.490 . S
C448 H438 0.930 . S
C448 C447 1.400 . S
C448 C451 1.386 . S
H449 C465 0.930 . S
H450 C466 0.931 . S
C451 H439 0.929 . S
C451 C445 1.390 . S
C451 C448 1.386 . S
C452 C447 1.490 . S
C452 C454 1.395 . S
C452 C455 1.403 . S
H453 C459 0.930 . S
C454 H440 0.930 . S
C454 C452 1.395 . S
C454 C457 1.403 . S
C455 C452 1.403 . S
C455 C456 1.524 . S
C455 C459 1.400 . S
C456 H441 0.960 . S
C456 H442 0.960 . S
C456 H443 0.960 . S
C456 C455 1.524 . S
C457 C454 1.403 . S
C457 C458 1.392 . S
C457 C461 1.495 . S
C458 C457 1.392 . S
C458 C459 1.385 . S
C458 C460 1.478 . S
C459 H453 0.930 . S
C459 C455 1.400 . S
C459 C458 1.385 . S
C460 C458 1.478 . S
C460 C462 1.381 . S
C460 C466 1.383 . S
C461 C457 1.495 . S
C461 H467 0.959 . S
C461 H468 0.961 . S
C461 H469 0.960 . S
C462 C460 1.381 . S
C462 C463 1.394 . S
C462 H470 0.930 . S
C463 C462 1.394 . S
C463 C464 1.383 . S
C463 H471 0.929 . S
C464 C463 1.383 . S
C464 C465 1.377 . S
C465 H449 0.930 . S
C465 C464 1.377 . S
C465 C466 1.379 . S
C466 H450 0.931 . S
C466 C460 1.383 . S
C466 C465 1.379 . S
H467 C461 0.959 . S
H468 C461 0.961 . S
H469 C461 0.960 . S
H470 C462 0.930 . S
H471 C463 0.929 . S
H472 C480 0.929 . S
H473 C482 0.930 . S
H474 C484 0.930 . S
H475 C487 0.929 . S
H476 C490 0.930 . S
H477 C492 0.960 . S
H478 C492 0.960 . S
H479 C492 0.960 . S
C480 H472 0.929 . S
C480 C481 1.377 . S
C480 C482 1.384 . S
C481 C480 1.377 . S
C481 C487 1.390 . S
C482 H473 0.930 . S
C482 C480 1.384 . S
C482 C483 1.372 . S
C483 C482 1.372 . S
C483 C484 1.400 . S
C483 C488 1.490 . S
C484 H474 0.930 . S
C484 C483 1.400 . S
C484 C487 1.386 . S
H485 C501 0.930 . S
H486 C502 0.931 . S
C487 H475 0.929 . S
C487 C481 1.390 . S
C487 C484 1.386 . S
C488 C483 1.490 . S
C488 C490 1.395 . S
C488 C491 1.403 . S
H489 C495 0.930 . S
C490 H476 0.930 . S
C490 C488 1.395 . S
C490 C493 1.403 . S
C491 C488 1.403 . S
C491 C492 1.524 . S
C491 C495 1.400 . S
C492 H477 0.960 . S
C492 H478 0.960 . S
C492 H479 0.960 . S
C492 C491 1.524 . S
C493 C490 1.403 . S
C493 C494 1.392 . S
C493 C497 1.495 . S
C494 C493 1.392 . S
C494 C495 1.385 . S
C494 C496 1.478 . S
C495 H489 0.930 . S
C495 C491 1.400 . S
C495 C494 1.385 . S
C496 C494 1.478 . S
C496 C498 1.381 . S
C496 C502 1.383 . S
C497 C493 1.495 . S
C497 H503 0.959 . S
C497 H504 0.961 . S
C497 H505 0.960 . S
C498 C496 1.381 . S
C498 C499 1.394 . S
C498 H506 0.930 . S
C499 C498 1.394 . S
C499 C500 1.383 . S
C499 H507 0.929 . S
C500 C499 1.383 . S
C500 C501 1.377 . S
C501 H485 0.930 . S
C501 C500 1.377 . S
C501 C502 1.379 . S
C502 H486 0.931 . S
C502 C496 1.383 . S
C502 C501 1.379 . S
H503 C497 0.959 . S
H504 C497 0.961 . S
H505 C497 0.960 . S
H506 C498 0.930 . S
H507 C499 0.929 . S
H508 C516 0.929 . S
H509 C518 0.930 . S
H510 C520 0.930 . S
H511 C523 0.929 . S
H512 C526 0.930 . S
H513 C528 0.960 . S
H514 C528 0.960 . S
H515 C528 0.960 . S
C516 H508 0.929 . S
C516 C517 1.377 . S
C516 C518 1.384 . S
C517 C516 1.377 . S
C517 C523 1.390 . S
C518 H509 0.930 . S
C518 C516 1.384 . S
C518 C519 1.372 . S
C519 C518 1.372 . S
C519 C520 1.400 . S
C519 C524 1.490 . S
C520 H510 0.930 . S
C520 C519 1.400 . S
C520 C523 1.386 . S
H521 C537 0.930 . S
H522 C538 0.931 . S
C523 H511 0.929 . S
C523 C517 1.390 . S
C523 C520 1.386 . S
C524 C519 1.490 . S
C524 C526 1.395 . S
C524 C527 1.403 . S
H525 C531 0.930 . S
C526 H512 0.930 . S
C526 C524 1.395 . S
C526 C529 1.403 . S
C527 C524 1.403 . S
C527 C528 1.524 . S
C527 C531 1.400 . S
C528 H513 0.960 . S
C528 H514 0.960 . S
C528 H515 0.960 . S
C528 C527 1.524 . S
C529 C526 1.403 . S
C529 C530 1.392 . S
C529 C533 1.495 . S
C530 C529 1.392 . S
C530 C531 1.385 . S
C530 C532 1.478 . S
C531 H525 0.930 . S
C531 C527 1.400 . S
C531 C530 1.385 . S
C532 C530 1.478 . S
C532 C534 1.381 . S
C532 C538 1.383 . S
C533 C529 1.495 . S
C533 H539 0.959 . S
C533 H540 0.961 . S
C533 H541 0.960 . S
C534 C532 1.381 . S
C534 C535 1.394 . S
C534 H542 0.930 . S
C535 C534 1.394 . S
C535 C536 1.383 . S
C535 H543 0.929 . S
C536 C535 1.383 . S
C536 C537 1.377 . S
C537 H521 0.930 . S
C537 C536 1.377 . S
C537 C538 1.379 . S
C538 H522 0.931 . S
C538 C532 1.383 . S
C538 C537 1.379 . S
H539 C533 0.959 . S
H540 C533 0.961 . S
H541 C533 0.960 . S
H542 C534 0.930 . S
H543 C535 0.929 . S
H544 C552 0.929 . S
H545 C554 0.930 . S
H546 C556 0.930 . S
H547 C559 0.929 1_554 S
H548 C562 0.930 . S
H549 C564 0.960 . S
H550 C564 0.960 . S
H551 C564 0.960 . S
C552 H544 0.929 . S
C552 C553 1.377 . S
C552 C554 1.384 . S
C553 C552 1.377 . S
C553 C559 1.390 . S
C554 H545 0.930 . S
C554 C552 1.384 . S
C554 C555 1.372 . S
C555 C554 1.372 . S
C555 C556 1.400 . S
C555 C560 1.490 . S
C556 H546 0.930 . S
C556 C555 1.400 . S
C556 C559 1.386 . S
H557 C573 0.930 . S
H558 C574 0.931 . S
C559 H547 0.929 1_556 S
C559 C553 1.390 . S
C559 C556 1.386 . S
C560 C555 1.490 . S
C560 C562 1.395 . S
C560 C563 1.403 . S
H561 C567 0.930 . S
C562 H548 0.930 . S
C562 C560 1.395 . S
C562 C565 1.403 . S
C563 C560 1.403 . S
C563 C564 1.524 . S
C563 C567 1.400 . S
C564 H549 0.960 . S
C564 H550 0.960 . S
C564 H551 0.960 . S
C564 C563 1.524 . S
C565 C562 1.403 . S
C565 C566 1.392 . S
C565 C569 1.495 . S
C566 C565 1.392 . S
C566 C567 1.385 . S
C566 C568 1.478 . S
C567 H561 0.930 . S
C567 C563 1.400 . S
C567 C566 1.385 . S
C568 C566 1.478 . S
C568 C570 1.381 . S
C568 C574 1.383 . S
C569 C565 1.495 . S
C569 H575 0.959 . S
C569 H576 0.961 . S
C569 H577 0.960 . S
C570 C568 1.381 . S
C570 C571 1.394 . S
C570 H578 0.930 . S
C571 C570 1.394 . S
C571 C572 1.383 . S
C571 H579 0.929 . S
C572 C571 1.383 . S
C572 C573 1.377 . S
C573 H557 0.930 . S
C573 C572 1.377 . S
C573 C574 1.379 . S
C574 H558 0.931 . S
C574 C568 1.383 . S
C574 C573 1.379 . S
H575 C569 0.959 . S
H576 C569 0.961 . S
H577 C569 0.960 . S
H578 C570 0.930 . S
H579 C571 0.929 . S
H580 C588 0.929 . S
H581 C590 0.930 . S
H582 C592 0.930 . S
H583 C595 0.929 . S
H584 C598 0.930 . S
H585 C600 0.960 . S
H586 C600 0.960 . S
H587 C600 0.960 . S
C588 H580 0.929 . S
C588 C589 1.377 . S
C588 C590 1.384 . S
C589 C588 1.377 . S
C589 C595 1.390 . S
C590 H581 0.930 . S
C590 C588 1.384 . S
C590 C591 1.372 . S
C591 C590 1.372 . S
C591 C592 1.400 . S
C591 C596 1.490 . S
C592 H582 0.930 . S
C592 C591 1.400 . S
C592 C595 1.386 . S
H593 C609 0.930 . S
H594 C610 0.931 . S
C595 H583 0.929 . S
C595 C589 1.390 . S
C595 C592 1.386 . S
C596 C591 1.490 . S
C596 C598 1.395 . S
C596 C599 1.403 . S
H597 C603 0.930 . S
C598 H584 0.930 . S
C598 C596 1.395 . S
C598 C601 1.403 . S
C599 C596 1.403 . S
C599 C600 1.524 . S
C599 C603 1.400 . S
C600 H585 0.960 . S
C600 H586 0.960 . S
C600 H587 0.960 . S
C600 C599 1.524 . S
C601 C598 1.403 . S
C601 C602 1.392 . S
C601 C605 1.495 . S
C602 C601 1.392 . S
C602 C603 1.385 . S
C602 C604 1.478 . S
C603 H597 0.930 . S
C603 C599 1.400 . S
C603 C602 1.385 . S
C604 C602 1.478 . S
C604 C606 1.381 . S
C604 C610 1.383 . S
C605 C601 1.495 . S
C605 H611 0.959 . S
C605 H612 0.961 . S
C605 H613 0.960 . S
C606 C604 1.381 . S
C606 C607 1.394 . S
C606 H614 0.930 . S
C607 C606 1.394 . S
C607 C608 1.383 . S
C607 H615 0.929 . S
C608 C607 1.383 . S
C608 C609 1.377 . S
C609 H593 0.930 . S
C609 C608 1.377 . S
C609 C610 1.379 . S
C610 H594 0.931 . S
C610 C604 1.383 . S
C610 C609 1.379 . S
H611 C605 0.959 . S
H612 C605 0.961 . S
H613 C605 0.960 . S
H614 C606 0.930 . S
H615 C607 0.929 . S
H616 C624 0.929 . S
H617 C626 0.930 . S
H618 C628 0.930 . S
H619 C631 0.929 . S
H620 C634 0.930 . S
H621 C636 0.960 . S
H622 C636 0.960 . S
H623 C636 0.960 . S
C624 H616 0.929 . S
C624 C625 1.377 . S
C624 C626 1.384 . S
C625 C624 1.377 . S
C625 C631 1.390 . S
C626 H617 0.930 . S
C626 C624 1.384 . S
C626 C627 1.372 . S
C627 C626 1.372 . S
C627 C628 1.400 . S
C627 C632 1.490 . S
C628 H618 0.930 . S
C628 C627 1.400 . S
C628 C631 1.386 . S
H629 C645 0.930 . S
H630 C646 0.931 . S
C631 H619 0.929 . S
C631 C625 1.390 . S
C631 C628 1.386 . S
C632 C627 1.490 . S
C632 C634 1.395 . S
C632 C635 1.403 . S
H633 C639 0.930 . S
C634 H620 0.930 . S
C634 C632 1.395 . S
C634 C637 1.403 . S
C635 C632 1.403 . S
C635 C636 1.524 . S
C635 C639 1.400 . S
C636 H621 0.960 . S
C636 H622 0.960 . S
C636 H623 0.960 . S
C636 C635 1.524 . S
C637 C634 1.403 . S
C637 C638 1.392 . S
C637 C641 1.495 . S
C638 C637 1.392 . S
C638 C639 1.385 . S
C638 C640 1.478 . S
C639 H633 0.930 . S
C639 C635 1.400 . S
C639 C638 1.385 . S
C640 C638 1.478 . S
C640 C642 1.381 . S
C640 C646 1.383 . S
C641 C637 1.495 . S
C641 H647 0.959 . S
C641 H648 0.961 . S
C641 H649 0.960 . S
C642 C640 1.381 . S
C642 C643 1.394 . S
C642 H650 0.930 . S
C643 C642 1.394 . S
C643 C644 1.383 . S
C643 H651 0.929 . S
C644 C643 1.383 . S
C644 C645 1.377 . S
C645 H629 0.930 . S
C645 C644 1.377 . S
C645 C646 1.379 . S
C646 H630 0.931 . S
C646 C640 1.383 . S
C646 C645 1.379 . S
H647 C641 0.959 . S
H648 C641 0.961 . S
H649 C641 0.960 . S
H650 C642 0.930 . S
H651 C643 0.929 . S
C248 C115 1.680 . S
C229 N41 1.726 . S
C265 N2 1.675 . S
C284 C210 1.667 . S
C301 N15 1.717 . S
C320 C126 1.684 . S
C337 N28 1.671 . S
C356 C199 1.647 . S
C392 C110 1.471 . S
C373 N5 1.614 . S
C428 C203 1.685 . S
C409 N14 1.685 . S
C445 N27 1.595 . S
C464 C119 1.615 . S
C481 N44 1.584 . S
C500 C194 1.455 . S
C536 C205 1.460 . S
C517 N18 1.585 . S
C572 C121 1.397 . S
C553 N31 1.613 1_556 S
C608 C192 1.697 . S
C589 N40 1.694 . S
C625 N1 1.606 1_556 S
C644 C108 1.616 . S
