# Generated by pormake.
# Topology ssa, (4,4)-cn, num edge types: 1
# Building blocks:
#     Node 0, Type 0, BuildingBlock: KOZSID_clean_sbu_0, # of connection points: 4
#     Node 1, Type 0, BuildingBlock: KOZSID_clean_sbu_0, # of connection points: 4
#     Node 2, Type 0, BuildingBlock: KOZSID_clean_sbu_0, # of connection points: 4
#     Node 3, Type 0, BuildingBlock: KOZSID_clean_sbu_0, # of connection points: 4
#     Node 4, Type 0, BuildingBlock: KOZSID_clean_sbu_0, # of connection points: 4
#     Node 5, Type 0, BuildingBlock: KOZSID_clean_sbu_0, # of connection points: 4
#     Node 6, Type 1, BuildingBlock: GIZVER_clean_linker_0, # of connection points: 4
#     Node 7, Type 1, BuildingBlock: GIZVER_clean_linker_0, # of connection points: 4
#     Node 8, Type 1, BuildingBlock: GIZVER_clean_linker_0, # of connection points: 4
#     Node 9, Type 1, BuildingBlock: GIZVER_clean_linker_0, # of connection points: 4
#     Node 10, Type 1, BuildingBlock: GIZVER_clean_linker_0, # of connection points: 4
#     Node 11, Type 1, BuildingBlock: GIZVER_clean_linker_0, # of connection points: 4
#     Edge 12, Type (0, 1), BuildingBlock: CIFDUS_clean_linker_0, # of connection points: 2
#     Edge 13, Type (0, 1), BuildingBlock: CIFDUS_clean_linker_0, # of connection points: 2
#     Edge 14, Type (0, 1), BuildingBlock: CIFDUS_clean_linker_0, # of connection points: 2
#     Edge 15, Type (0, 1), BuildingBlock: CIFDUS_clean_linker_0, # of connection points: 2
#     Edge 16, Type (0, 1), BuildingBlock: CIFDUS_clean_linker_0, # of connection points: 2
#     Edge 17, Type (0, 1), BuildingBlock: CIFDUS_clean_linker_0, # of connection points: 2
#     Edge 18, Type (0, 1), BuildingBlock: CIFDUS_clean_linker_0, # of connection points: 2
#     Edge 19, Type (0, 1), BuildingBlock: CIFDUS_clean_linker_0, # of connection points: 2
#     Edge 20, Type (0, 1), BuildingBlock: CIFDUS_clean_linker_0, # of connection points: 2
#     Edge 21, Type (0, 1), BuildingBlock: CIFDUS_clean_linker_0, # of connection points: 2
#     Edge 22, Type (0, 1), BuildingBlock: CIFDUS_clean_linker_0, # of connection points: 2
#     Edge 23, Type (0, 1), BuildingBlock: CIFDUS_clean_linker_0, # of connection points: 2
#     Edge 24, Type (0, 1), BuildingBlock: CIFDUS_clean_linker_0, # of connection points: 2
#     Edge 25, Type (0, 1), BuildingBlock: CIFDUS_clean_linker_0, # of connection points: 2
#     Edge 26, Type (0, 1), BuildingBlock: CIFDUS_clean_linker_0, # of connection points: 2
#     Edge 27, Type (0, 1), BuildingBlock: CIFDUS_clean_linker_0, # of connection points: 2
#     Edge 28, Type (0, 1), BuildingBlock: CIFDUS_clean_linker_0, # of connection points: 2
#     Edge 29, Type (0, 1), BuildingBlock: CIFDUS_clean_linker_0, # of connection points: 2
#     Edge 30, Type (0, 1), BuildingBlock: CIFDUS_clean_linker_0, # of connection points: 2
#     Edge 31, Type (0, 1), BuildingBlock: CIFDUS_clean_linker_0, # of connection points: 2
#     Edge 32, Type (0, 1), BuildingBlock: CIFDUS_clean_linker_0, # of connection points: 2
#     Edge 33, Type (0, 1), BuildingBlock: CIFDUS_clean_linker_0, # of connection points: 2
#     Edge 34, Type (0, 1), BuildingBlock: CIFDUS_clean_linker_0, # of connection points: 2
#     Edge 35, Type (0, 1), BuildingBlock: CIFDUS_clean_linker_0, # of connection points: 2
# Relax obj value: 0.005
# Max RMSD: 0.035
# Mean RMSD: 0.019
data_MOF--net-ssa--node1-KOZSID_clean_sbu_0--node2-GIZVER_clean_linker_0--edge1-CIFDUS_clean_linker_0
_symmetry_space_group_name_H-M    P1
_symmetry_Int_Tables_number       1
_symmetry_cell_setting            triclinic
loop_
_symmetry_equiv_pos_as_xyz
'x, y, z'
_cell_length_a     52.655984
_cell_length_b     54.045369
_cell_length_c     28.86067
_cell_angle_alpha  86.497044
_cell_angle_beta   89.718936
_cell_angle_gamma 122.65155
loop_
_atom_site_label
_atom_site_type_symbol
_atom_site_fract_x
_atom_site_fract_y
_atom_site_fract_z
_atom_type_partial_charge
C0 C 0.95232 0.50528 0.01804 0.0
C1 C 0.92946 0.49792 0.05076 0.0
C2 C 0.93235 0.4822 0.08682 0.0
C3 C 0.95677 0.481 0.07411 0.0
N4 N 0.96998 0.4954 0.03245 0.0
Co5 Co 0.00562 0.49861 0.00015 0.0
N6 N 0.0077 0.47257 0.05058 0.0
C7 C 0.98855 0.4589 0.08826 0.0
C8 C 0.9964 0.44365 0.11799 0.0
C9 C 0.02231 0.44809 0.09857 0.0
C10 C 0.02878 0.46576 0.05759 0.0
N11 N 0.04175 0.50246 0.96846 0.0
C12 C 0.05976 0.49307 0.98344 0.0
C13 C 0.08337 0.5015 0.95155 0.0
C14 C 0.08072 0.51753 0.91572 0.0
C15 C 0.05569 0.51787 0.92764 0.0
N16 N 1.00305 0.52411 0.94925 0.0
C17 C 0.02134 0.53685 0.91053 0.0
C18 C 0.01298 0.55167 0.88066 0.0
C19 C 0.98748 0.54772 0.90105 0.0
C20 C 0.98181 0.53072 0.94244 0.0
N21 N 0.03356 0.53384 0.03391 0.0
C22 C 0.07971 0.57885 0.08339 0.0
C23 C 0.08053 0.5814 0.03492 0.0
C24 C 0.0573 0.55883 0.01102 0.0
C25 C 0.05422 0.5546 0.10659 0.0
C26 C 0.03149 0.5327 0.0814 0.0
N27 N 0.97799 0.46321 0.96637 0.0
C28 C 0.96604 0.43709 0.89657 0.0
C29 C 0.94028 0.41254 0.91853 0.0
C30 C 0.93327 0.41397 0.9646 0.0
C31 C 0.95241 0.43926 0.98782 0.0
C32 C 0.98422 0.462 0.92073 0.0
H33 H 0.9461 0.43886 0.02311 0.0
H34 H 0.0032 0.47999 0.90161 0.0
H35 H 0.05963 0.56165 0.9741 0.0
H36 H 0.01297 0.51457 0.10119 0.0
C37 C 0.96578 0.46395 0.09794 0.0
C38 C 0.95494 0.5198 0.97254 0.0
C39 C 0.05626 0.47733 0.02833 0.0
C40 C 0.04534 0.53333 0.90222 0.0
H41 H 0.91194 0.5026 0.048 0.0
H42 H 0.91763 0.47181 0.11768 0.0
H43 H 0.98548 0.43198 0.15112 0.0
H44 H 0.03539 0.44007 0.11418 0.0
H45 H 0.10107 0.49708 0.95447 0.0
H46 H 0.09569 0.52828 0.8852 0.0
H47 H 0.02364 0.56324 0.84737 0.0
H48 H 0.97415 0.55579 0.88651 0.0
H49 H 0.09964 0.60001 0.01544 0.0
H50 H 0.05211 0.55216 0.14421 0.0
H51 H 0.97201 0.43725 0.86052 0.0
H52 H 0.91344 0.39547 0.98295 0.0
C53 C 0.55238 0.032 0.56978 0.0
C54 C 0.55711 0.03084 0.61702 0.0
C55 C 0.52926 0.01425 0.6394 0.0
C56 C 0.50901 0.00612 0.60491 0.0
N57 N 0.52238 0.01602 0.56199 0.0
Co58 Co 0.50095 0.01031 0.50318 0.0
N59 N 0.46177 0.97902 0.53389 0.0
C60 C 0.45469 0.97393 0.57972 0.0
C61 C 0.42606 0.94973 0.5901 0.0
C62 C 0.4146 0.93894 0.54807 0.0
C63 C 0.43701 0.95724 0.51456 0.0
N64 N 0.47936 0.00433 0.44476 0.0
C65 C 0.45303 0.98044 0.43321 0.0
C66 C 0.44611 0.98441 0.38818 0.0
C67 C 0.4692 0.01191 0.37107 0.0
C68 C 0.48881 0.02305 0.4065 0.0
N69 N 0.53999 0.04183 0.47192 0.0
C70 C 0.54334 0.05596 0.42995 0.0
C71 C 0.57287 0.0769 0.41713 0.0
C72 C 0.58912 0.07646 0.45367 0.0
C73 C 0.56847 0.05535 0.4871 0.0
N74 N 0.50916 0.9803 0.48809 0.0
C75 C 0.5134 0.93337 0.4627 0.0
C76 C 0.52244 0.95779 0.43133 0.0
C77 C 0.51991 0.98087 0.44454 0.0
C78 C 0.50332 0.93342 0.5076 0.0
C79 C 0.50187 0.9573 0.51983 0.0
N80 N 0.49238 0.04015 0.51831 0.0
C81 C 0.50894 0.08681 0.54867 0.0
C82 C 0.48061 0.08283 0.54253 0.0
C83 C 0.4582 0.05682 0.52366 0.0
C84 C 0.46453 0.03579 0.51186 0.0
C85 C 0.51433 0.06551 0.5362 0.0
H86 H 0.44682 0.0159 0.49781 0.0
H87 H 0.5363 0.06955 0.54181 0.0
H88 H 0.52569 0.99867 0.41893 0.0
H89 H 0.49385 0.95663 0.55457 0.0
C90 C 0.47754 0.98762 0.61126 0.0
C91 C 0.57639 0.05268 0.53512 0.0
C92 C 0.43427 0.95413 0.46465 0.0
C93 C 0.51869 0.0471 0.4018 0.0
H94 H 0.5784 0.04192 0.6339 0.0
H95 H 0.52438 0.00893 0.67644 0.0
H96 H 0.41551 0.93993 0.6242 0.0
H97 H 0.39261 0.91965 0.54267 0.0
H98 H 0.42677 0.96892 0.36945 0.0
H99 H 0.47224 0.02172 0.33602 0.0
H100 H 0.58159 0.09078 0.38502 0.0
H101 H 0.61328 0.09095 0.45638 0.0
H102 H 0.53017 0.95845 0.39615 0.0
H103 H 0.49629 0.91498 0.5329 0.0
H104 H 0.52688 0.10599 0.56423 0.0
H105 H 0.43597 0.05268 0.51796 0.0
C106 C 0.56325 0.5383 0.94086 0.0
C107 C 0.57619 0.55426 0.89859 0.0
C108 C 0.55572 0.55941 0.87922 0.0
C109 C 0.53158 0.54642 0.91067 0.0
N110 N 0.53558 0.53364 0.9493 0.0
Co111 Co 0.50602 0.51162 0.0033 0.0
N112 N 0.47435 0.51571 0.97204 0.0
C113 C 0.47644 0.52822 0.92895 0.0
C114 C 0.45132 0.52847 0.91764 0.0
C115 C 0.43225 0.51586 0.9561 0.0
C116 C 0.447 0.50876 0.98876 0.0
N117 N 0.47667 0.49019 0.05775 0.0
C118 C 0.4493 0.4862 0.06655 0.0
C119 C 0.43717 0.47189 0.11012 0.0
C120 C 0.45776 0.46703 0.12979 0.0
C121 C 0.48125 0.47869 0.09739 0.0
N122 N 0.5375 0.50691 0.03398 0.0
C123 C 0.53499 0.49332 0.07627 0.0
C124 C 0.5596 0.49194 0.0867 0.0
C125 C 0.57875 0.50487 0.04837 0.0
C126 C 0.56464 0.51343 0.0168 0.0
N127 N 0.52102 0.54942 0.03233 0.0
C128 C 0.53576 0.60027 0.0772 0.0
C129 C 0.53733 0.57764 0.10012 0.0
C130 C 0.5298 0.5526 0.07735 0.0
C131 C 0.5277 0.59752 0.03094 0.0
C132 C 0.52094 0.57233 0.00913 0.0
N133 N 0.49077 0.47377 0.97442 0.0
C134 C 0.47485 0.42233 0.98007 0.0
C135 C 0.46933 0.42034 0.93277 0.0
C136 C 0.47508 0.44562 0.90663 0.0
C137 C 0.48582 0.47184 0.92785 0.0
C138 C 0.48528 0.44899 0.00011 0.0
H139 H 0.49008 0.4903 0.90576 0.0
H140 H 0.48869 0.44899 0.03643 0.0
H141 H 0.5306 0.53585 0.09732 0.0
H142 H 0.51521 0.57171 0.97372 0.0
C143 C 0.50364 0.54276 0.90247 0.0
C144 C 0.57714 0.52621 0.97004 0.0
C145 C 0.43509 0.4975 0.03623 0.0
C146 C 0.50856 0.48076 0.10425 0.0
H147 H 0.59775 0.5606 0.88274 0.0
H148 H 0.55763 0.57016 0.84531 0.0
H149 H 0.44788 0.53799 0.88608 0.0
H150 H 0.41044 0.51318 0.9604 0.0
H151 H 0.41606 0.46632 0.12665 0.0
H152 H 0.45624 0.45711 0.16427 0.0
H153 H 0.56281 0.48191 0.11785 0.0
H154 H 0.60033 0.50713 0.04363 0.0
H155 H 0.54334 0.57875 0.13612 0.0
H156 H 0.52661 0.61473 0.01164 0.0
H157 H 0.47065 0.40328 0.00172 0.0
H158 H 0.47164 0.4453 0.86963 0.0
C159 C 0.95932 0.44854 0.47633 0.0
C160 C 0.93942 0.43289 0.44234 0.0
C161 C 0.94026 0.45325 0.41054 0.0
C162 C 0.96078 0.48015 0.42642 0.0
N163 N 0.97331 0.47796 0.46584 0.0
Co164 Co 0.00432 0.51151 0.4997 0.0
N165 N 0.01406 0.53983 0.44537 0.0
C166 C 0.99669 0.53578 0.40901 0.0
C167 C 0.01027 0.55927 0.37611 0.0
C168 C 0.03786 0.57917 0.39295 0.0
C169 C 0.03947 0.56664 0.43532 0.0
N170 N 0.03546 0.54514 0.53306 0.0
C171 C 0.05927 0.57128 0.51531 0.0
C172 C 0.07636 0.58864 0.55023 0.0
C173 C 0.06256 0.57248 0.59151 0.0
C174 C 0.03793 0.54632 0.57928 0.0
N175 N 0.99456 0.48357 0.55465 0.0
C176 C 1.00137 0.49109 0.59871 0.0
C177 C 0.99015 0.46724 0.63035 0.0
C178 C 0.97497 0.44319 0.60485 0.0
C179 C 0.97783 0.4537 0.55858 0.0
N180 N 0.03506 0.50472 0.47751 0.0
C181 C 0.08118 0.49888 0.44318 0.0
C182 C 0.07998 0.50412 0.48977 0.0
C183 C 0.0564 0.50648 0.50646 0.0
C184 C 0.05865 0.49614 0.41439 0.0
C185 C 0.03603 0.49942 0.43204 0.0
N186 N 0.97345 0.51831 0.52183 0.0
C187 C 0.95892 0.55125 0.54484 0.0
C188 C 0.92969 0.52735 0.55873 0.0
C189 C 0.9228 0.49895 0.55137 0.0
C190 C 0.94501 0.49491 0.53432 0.0
C191 C 0.98012 0.54628 0.52564 0.0
H192 H 0.93903 0.47263 0.53191 0.0
H193 H 1.0022 0.56512 0.51497 0.0
H194 H 0.05579 0.51034 0.54254 0.0
H195 H 0.01969 0.49827 0.40852 0.0
C196 C 0.9717 0.50763 0.40237 0.0
C197 C 0.96113 0.43482 0.52083 0.0
C198 C 0.06497 0.58049 0.4658 0.0
C199 C 0.02082 0.52059 0.60848 0.0
H200 H 0.9251 0.40921 0.44135 0.0
H201 H 0.92783 0.44893 0.37913 0.0
H202 H 1.00199 0.56096 0.34257 0.0
H203 H 0.05494 0.60016 0.37566 0.0
H204 H 0.09663 0.61052 0.54619 0.0
H205 H 0.07049 0.57847 0.62606 0.0
H206 H 0.99282 0.46727 0.66752 0.0
H207 H 0.96241 0.42058 0.6193 0.0
H208 H 0.09709 0.50638 0.513 0.0
H209 H 0.05909 0.49246 0.37798 0.0
H210 H 0.96599 0.57372 0.54985 0.0
H211 H 0.90051 0.47956 0.5593 0.0
C212 C 0.4627 0.98171 0.07194 0.0
C213 C 0.45568 0.98419 0.11717 0.0
C214 C 0.48053 0.0087 0.13216 0.0
C215 C 0.5013 0.01965 0.09555 0.0
N216 N 0.49101 0.00404 0.0576 0.0
Co217 Co 0.51471 0.01043 0.9985 0.0
N218 N 0.55223 0.04474 0.02226 0.0
C219 C 0.55512 0.05634 0.06359 0.0
C220 C 0.58311 0.08097 0.06898 0.0
C221 C 0.5989 0.0858 0.02823 0.0
C222 C 0.5795 0.06373 0.00034 0.0
N223 N 0.53863 0.01593 0.94017 0.0
C224 C 0.56761 0.03696 0.9269 0.0
C225 C 0.57524 0.03287 0.88313 0.0
C226 C 0.55012 0.00861 0.8681 0.0
C227 C 0.52864 0.99927 0.90329 0.0
N228 N 0.4769 0.97684 0.97409 0.0
C229 C 0.47326 0.96694 0.93118 0.0
C230 C 0.44484 0.9431 0.92505 0.0
C231 C 0.42956 0.9371 0.96677 0.0
C232 C 0.4497 0.95765 0.99602 0.0
N233 N 0.50449 0.03857 0.97147 0.0
C234 C 0.50004 0.08441 0.92965 0.0
C235 C 0.49885 0.06308 0.90325 0.0
C236 C 0.50062 0.0403 0.92474 0.0
C237 C 0.50149 0.08146 0.97771 0.0
C238 C 0.50379 0.05853 0.99781 0.0
N239 N 0.52533 0.98262 0.0252 0.0
C240 C 0.52639 0.93859 0.02103 0.0
C241 C 0.53997 0.94295 0.06369 0.0
C242 C 0.54621 0.96752 0.08668 0.0
C243 C 0.53862 0.98681 0.06712 0.0
C244 C 0.51949 0.95865 0.00241 0.0
H245 H 0.54341 0.00476 0.08684 0.0
H246 H 0.50926 0.95416 0.96967 0.0
H247 H 0.49958 0.02482 0.90255 0.0
H248 H 0.50576 0.05792 0.0345 0.0
C249 C 0.53099 0.04378 0.09636 0.0
C250 C 0.44263 0.95675 0.04513 0.0
C251 C 0.58765 0.06249 0.95267 0.0
C252 C 0.49807 0.97747 0.90025 0.0
H253 H 0.43508 0.9694 0.13778 0.0
H254 H 0.48346 0.017 0.16622 0.0
H255 H 0.59091 0.09415 0.09865 0.0
H256 H 0.6219 0.10381 0.01957 0.0
H257 H 0.59637 0.04658 0.86321 0.0
H258 H 0.54743 0.99973 0.83457 0.0
H259 H 0.43671 0.93055 0.89473 0.0
H260 H 0.4066 0.91899 0.97537 0.0
H261 H 0.49685 0.06415 0.86592 0.0
H262 H 0.50197 0.09735 -0.00056 0.0
H263 H 0.52116 0.91982 0.00203 0.0
H264 H 0.55616 0.97145 0.12035 0.0
C265 C 0.51695 0.56268 0.51823 0.0
C266 C 0.5132 0.57865 0.55046 0.0
C267 C 0.49882 0.55988 0.5889 0.0
C268 C 0.49491 0.53372 0.57825 0.0
N269 N 0.50614 0.53466 0.53539 0.0
Co270 Co 0.50645 0.50184 0.50678 0.0
N271 N 0.48498 0.47425 0.56314 0.0
C272 C 0.47391 0.47951 0.60106 0.0
C273 C 0.46064 0.45636 0.63436 0.0
C274 C 0.46377 0.43519 0.61693 0.0
C275 C 0.4789 0.44676 0.5739 0.0
N276 N 0.5075 0.46921 0.47883 0.0
C277 C 0.50001 0.44252 0.4983 0.0
C278 C 0.50591 0.4271 0.46796 0.0
C279 C 0.51807 0.4449 0.42794 0.0
C280 C 0.51892 0.47003 0.43627 0.0
N281 N 0.52739 0.52927 0.44999 0.0
C282 C 0.5356 0.52278 0.41026 0.0
C283 C 0.5476 0.54526 0.37599 0.0
C284 C 0.54689 0.56743 0.39472 0.0
C285 C 0.53474 0.55731 0.43988 0.0
N286 N 0.54597 0.51505 0.53393 0.0
C287 C 0.6018 0.53406 0.57335 0.0
C288 C 0.59744 0.52724 0.52707 0.0
C289 C 0.56956 0.51814 0.50796 0.0
C290 C 0.57782 0.53091 0.59968 0.0
C291 C 0.55026 0.52115 0.57963 0.0
N292 N 0.46674 0.48869 0.4795 0.0
C293 C 0.43383 0.47125 0.41485 0.0
C294 C 0.41241 0.47426 0.438 0.0
C295 C 0.41819 0.48379 0.48276 0.0
C296 C 0.44509 0.49049 0.50289 0.0
C297 C 0.46062 0.47863 0.43592 0.0
H298 H 0.4479 0.49743 0.53716 0.0
H299 H 0.47618 0.47651 0.41577 0.0
H300 H 0.56758 0.51377 0.47218 0.0
H301 H 0.5327 0.51862 0.60185 0.0
C302 C 0.4796 0.50752 0.60683 0.0
C303 C 0.52977 0.57479 0.47123 0.0
C304 C 0.48868 0.43157 0.54596 0.0
C305 C 0.53143 0.49527 0.40581 0.0
H306 H 0.51973 0.60142 0.54632 0.0
H307 H 0.49166 0.56461 0.62056 0.0
H308 H 0.45106 0.45549 0.66815 0.0
H309 H 0.45662 0.414 0.63449 0.0
H310 H 0.50239 0.4055 0.47454 0.0
H311 H 0.5261 0.44039 0.39696 0.0
H312 H 0.55547 0.54535 0.34123 0.0
H313 H 0.55409 0.58843 0.37655 0.0
H314 H 0.61558 0.52942 0.5056 0.0
H315 H 0.58024 0.53561 0.63594 0.0
H316 H 0.43044 0.46418 0.37983 0.0
H317 H 0.40205 0.48616 0.50218 0.0
H318 H 0.23302 0.51999 0.14658 0.0
H319 H 0.22843 0.50591 0.29591 0.0
H320 H 0.1473 0.47462 0.22145 0.0
H321 H 0.27812 0.54701 0.18943 0.0
H322 H 0.2757 0.54553 0.25118 0.0
H323 H 0.28838 0.51406 0.14972 0.0
H324 H 0.32651 0.47429 0.23163 0.0
H325 H 0.28176 0.51028 0.29933 0.0
C326 C 0.21986 0.51012 0.17902 0.0
C327 C 0.18832 0.49584 0.17917 0.0
C328 C 0.23452 0.51309 0.22099 0.0
C329 C 0.21722 0.5022 0.26331 0.0
C330 C 0.18563 0.48793 0.26366 0.0
C331 C 0.17147 0.48417 0.22133 0.0
C332 C 0.2686 0.53155 0.22118 0.0
C333 C 0.28215 0.51297 0.22426 0.0
C334 C 0.29176 0.50662 0.1835 0.0
C335 C 0.3072 0.49208 0.18647 0.0
C336 C 0.31284 0.48376 0.23008 0.0
C337 C 0.30414 0.49041 0.27115 0.0
C338 C 0.2882 0.50455 0.26797 0.0
H339 H 0.72861 0.20621 0.64094 0.0
H340 H 0.73355 0.2134 0.78887 0.0
H341 H 0.69343 0.12869 0.73437 0.0
H342 H 0.73812 0.25053 0.67319 0.0
H343 H 0.73577 0.25205 0.73433 0.0
H344 H 0.78634 0.27295 0.63257 0.0
H345 H 0.8655 0.32645 0.70817 0.0
H346 H 0.78066 0.26625 0.78229 0.0
C347 C 0.72575 0.19617 0.67584 0.0
C348 C 0.71098 0.16533 0.68296 0.0
C349 C 0.73481 0.21385 0.71392 0.0
C350 C 0.72869 0.2003 0.75931 0.0
C351 C 0.71421 0.16961 0.76668 0.0
C352 C 0.70639 0.15252 0.72841 0.0
C353 C 0.74595 0.24616 0.70664 0.0
C354 C 0.77995 0.26605 0.70744 0.0
C355 C 0.79726 0.27865 0.66544 0.0
C356 C 0.82827 0.30014 0.66572 0.0
C357 C 0.84201 0.30847 0.70831 0.0
C358 C 0.82518 0.29667 0.75068 0.0
C359 C 0.79411 0.27504 0.74997 0.0
H360 H 0.50501 0.72829 0.21446 0.0
H361 H 0.50028 0.71753 0.36413 0.0
H362 H 0.53605 0.67769 0.2851 0.0
H363 H 0.46811 0.73293 0.26417 0.0
H364 H 0.47149 0.73414 0.32538 0.0
H365 H 0.50546 0.77529 0.21061 0.0
H366 H 0.54529 0.85932 0.26789 0.0
H367 H 0.50505 0.78061 0.35914 0.0
C368 C 0.51021 0.72058 0.24633 0.0
C369 C 0.52284 0.70335 0.24428 0.0
C370 C 0.50265 0.72645 0.28958 0.0
C371 C 0.5076 0.71464 0.33085 0.0
C372 C 0.52011 0.69744 0.32915 0.0
C373 C 0.52824 0.69258 0.28604 0.0
C374 C 0.48485 0.74092 0.29183 0.0
C375 C 0.50456 0.7742 0.2856 0.0
C376 C 0.51241 0.78835 0.24048 0.0
C377 C 0.52732 0.81913 0.23378 0.0
C378 C 0.53531 0.83572 0.27274 0.0
C379 C 0.52746 0.82221 0.31794 0.0
C380 C 0.51211 0.79132 0.32435 0.0
H381 H 0.76733 0.56554 0.71554 0.0
H382 H 0.75702 0.56346 0.86448 0.0
H383 H 0.67996 0.53127 0.77953 0.0
H384 H 0.81062 0.59853 0.7638 0.0
H385 H 0.80651 0.59447 0.82559 0.0
H386 H 0.80757 0.55622 0.72065 0.0
H387 H 0.85333 0.52039 0.79162 0.0
H388 H 0.82386 0.5673 0.86674 0.0
C389 C 0.75305 0.55892 0.74686 0.0
C390 C 0.722 0.54651 0.74318 0.0
C391 C 0.76591 0.56466 0.79075 0.0
C392 C 0.74714 0.55796 0.83084 0.0
C393 C 0.71591 0.54556 0.82723 0.0
C394 C 0.70369 0.53951 0.78325 0.0
C395 C 0.79991 0.58189 0.79399 0.0
C396 C 0.8126 0.56255 0.7943 0.0
C397 C 0.81543 0.55164 0.75267 0.0
C398 C 0.82949 0.53579 0.75203 0.0
C399 C 0.84088 0.53109 0.79299 0.0
C400 C 0.83925 0.54245 0.8344 0.0
C401 C 0.82475 0.55796 0.83506 0.0
H402 H 0.29802 0.79572 0.19362 0.0
H403 H 0.29591 0.79226 0.34341 0.0
H404 H 0.33409 0.87522 0.26363 0.0
H405 H 0.29077 0.75253 0.24068 0.0
H406 H 0.28836 0.75057 0.3025 0.0
H407 H 0.24573 0.73247 0.19647 0.0
H408 H 0.16014 0.6826 0.2721 0.0
H409 H 0.2405 0.7373 0.34484 0.0
C410 C 0.30166 0.80655 0.22554 0.0
C411 C 0.31609 0.83735 0.2236 0.0
C412 C 0.29338 0.78991 0.26874 0.0
C413 C 0.30046 0.80458 0.31006 0.0
C414 C 0.31479 0.83535 0.30819 0.0
C415 C 0.32168 0.85133 0.265 0.0
C416 C 0.28106 0.75729 0.27063 0.0
C417 C 0.24695 0.73867 0.27021 0.0
C418 C 0.23247 0.72712 0.22862 0.0
C419 C 0.20114 0.7067 0.22945 0.0
C420 C 0.18424 0.69904 0.27126 0.0
C421 C 0.19816 0.70984 0.3128 0.0
C422 C 0.22954 0.72982 0.31237 0.0
H423 H 0.42401 0.24774 0.82445 0.0
H424 H 0.43364 0.25198 0.67497 0.0
H425 H 0.46853 0.33127 0.74539 0.0
H426 H 0.3947 0.20352 0.78421 0.0
H427 H 0.39228 0.20655 0.72279 0.0
H428 H 0.43892 0.20236 0.81719 0.0
H429 H 0.46572 0.15562 0.73526 0.0
H430 H 0.41601 0.18987 0.6734 0.0
C431 C 0.43305 0.2605 0.79136 0.0
C432 C 0.44763 0.29128 0.78946 0.0
C433 C 0.42823 0.2461 0.75001 0.0
C434 C 0.43844 0.26296 0.70695 0.0
C435 C 0.45347 0.29382 0.70507 0.0
C436 C 0.45829 0.3076 0.74657 0.0
C437 C 0.40851 0.21285 0.75104 0.0
C438 C 0.42667 0.199 0.74539 0.0
C439 C 0.44044 0.19468 0.78409 0.0
C440 C 0.45484 0.17922 0.78068 0.0
C441 C 0.45593 0.16877 0.73789 0.0
C442 C 0.44208 0.17248 0.6993 0.0
C443 C 0.42751 0.18772 0.70291 0.0
H444 H 0.1114 0.52316 0.04826 0.0
H445 H 0.05866 0.42854 0.04792 0.0
H446 H 0.09762 0.42585 0.08973 0.0
H447 H 0.14329 0.45035 0.1357 0.0
H448 H 0.19704 0.5451 0.13295 0.0
H449 H 0.16166 0.54806 0.08186 0.0
C450 C 0.10885 0.50206 0.05657 0.0
C451 C 0.08195 0.476 0.04655 0.0
C452 C 0.13153 0.50078 0.0799 0.0
C453 C 0.07895 0.44877 0.05653 0.0
C454 C 0.1012 0.44726 0.08029 0.0
C455 C 0.14772 0.47161 0.12245 0.0
C456 C 0.17265 0.49747 0.13782 0.0
C457 C 0.12711 0.47308 0.0935 0.0
C458 C 0.17817 0.52495 0.12098 0.0
C459 C 0.15774 0.52662 0.09229 0.0
H460 H 0.62576 0.05553 0.57137 0.0
H461 H 0.58837 0.10803 0.53798 0.0
H462 H 0.62998 0.14963 0.57418 0.0
H463 H 0.67334 0.16898 0.62367 0.0
H464 H 0.7102 0.11642 0.66056 0.0
H465 H 0.67307 0.07731 0.61412 0.0
C466 C 0.62715 0.07628 0.57151 0.0
C467 C 0.60401 0.0787 0.55243 0.0
C468 C 0.65105 0.10012 0.59307 0.0
C469 C 0.60586 0.10563 0.55271 0.0
C470 C 0.62966 0.12944 0.5734 0.0
C471 C 0.67395 0.14942 0.62022 0.0
C472 C 0.69451 0.14563 0.64545 0.0
C473 C 0.65196 0.12671 0.59473 0.0
C474 C 0.69456 0.11984 0.6414 0.0
C475 C 0.67319 0.09738 0.61517 0.0
H476 H 0.50079 0.62323 0.08124 0.0
H477 H 0.58336 0.63439 0.13014 0.0
H478 H 0.58966 0.67211 0.18002 0.0
H479 H 0.56857 0.69726 0.21661 0.0
H480 H 0.48349 0.68271 0.17353 0.0
H481 H 0.48204 0.65227 0.11307 0.0
C482 C 0.52046 0.63441 0.10211 0.0
C483 C 0.54147 0.62589 0.10234 0.0
C484 C 0.52353 0.65559 0.13167 0.0
C485 C 0.56672 0.64033 0.12984 0.0
C486 C 0.57036 0.66194 0.15826 0.0
C487 C 0.54991 0.6878 0.19352 0.0
C488 C 0.526 0.692 0.20015 0.0
C489 C 0.54843 0.66906 0.16052 0.0
C490 C 0.50232 0.68006 0.16924 0.0
C491 C 0.50125 0.66225 0.13502 0.0
H492 H 0.88317 0.48827 0.62063 0.0
H493 H 0.92507 0.57632 0.55387 0.0
H494 H 0.89417 0.58555 0.60386 0.0
H495 H 0.85984 0.57054 0.67357 0.0
H496 H 0.81608 0.48141 0.7348 0.0
H497 H 0.84183 0.47017 0.67733 0.0
C498 C 0.88512 0.50923 0.61514 0.0
C499 C 0.9074 0.5317 0.58366 0.0
C500 C 0.86658 0.51417 0.64288 0.0
C501 C 0.90925 0.55878 0.57882 0.0
C502 C 0.89121 0.56405 0.60709 0.0
C503 C 0.85506 0.54837 0.67303 0.0
C504 C 0.83637 0.52688 0.70856 0.0
C505 C 0.87045 0.54219 0.64029 0.0
C506 C 0.8305 0.49828 0.70782 0.0
C507 C 0.84548 0.49197 0.67532 0.0
H508 H 0.38871 0.94548 0.07817 0.0
H509 H 0.44102 0.90641 0.0659 0.0
H510 H 0.40282 0.86256 0.11395 0.0
H511 H 0.35812 0.83865 0.16781 0.0
H512 H 0.30767 0.87937 0.18441 0.0
H513 H 0.34096 0.91895 0.12575 0.0
C514 C 0.39133 0.92707 0.08561 0.0
C515 C 0.41755 0.92902 0.06929 0.0
C516 C 0.3696 0.90231 0.11399 0.0
C517 C 0.42095 0.90521 0.07858 0.0
C518 C 0.39918 0.88026 0.10603 0.0
C519 C 0.35385 0.85566 0.15728 0.0
C520 C 0.33041 0.85608 0.17994 0.0
C521 C 0.37384 0.87893 0.12501 0.0
C522 C 0.32546 0.87857 0.16698 0.0
C523 C 0.34465 0.90131 0.13385 0.0
H524 H 0.44649 0.37304 0.54623 0.0
H525 H 0.53385 0.43574 0.59583 0.0
H526 H 0.53356 0.3963 0.64298 0.0
H527 H 0.50509 0.34569 0.67847 0.0
H528 H 0.4159 0.28353 0.63371 0.0
H529 H 0.42063 0.32044 0.57473 0.0
C530 C 0.46562 0.37773 0.56668 0.0
C531 C 0.4901 0.40695 0.56814 0.0
C532 C 0.46494 0.35502 0.59432 0.0
C533 C 0.51485 0.41323 0.5946 0.0
C534 C 0.51463 0.39075 0.62147 0.0
C535 C 0.48704 0.34004 0.65491 0.0
C536 C 0.46007 0.31209 0.66076 0.0
C537 C 0.48936 0.36177 0.6228 0.0
C538 C 0.43694 0.30484 0.62978 0.0
C539 C 0.43946 0.3261 0.59652 0.0
H540 H 0.55985 0.9316 0.4257 0.0
H541 H 0.46504 0.87688 0.46486 0.0
H542 H 0.4618 0.83513 0.42989 0.0
H543 H 0.48474 0.8164 0.37908 0.0
H544 H 0.57964 0.87139 0.34032 0.0
H545 H 0.58434 0.91045 0.3852 0.0
C546 C 0.53864 0.91036 0.42715 0.0
C547 C 0.51267 0.9073 0.44735 0.0
C548 C 0.53702 0.88647 0.40716 0.0
C549 C 0.48532 0.87968 0.44948 0.0
C550 C 0.48346 0.85585 0.42938 0.0
C551 C 0.50663 0.83649 0.382 0.0
C552 C 0.53181 0.84105 0.35639 0.0
C553 C 0.509 0.85919 0.40703 0.0
C554 C 0.55998 0.8674 0.35984 0.0
C555 C 0.5626 0.88986 0.38507 0.0
H556 H 0.63802 0.56498 0.96836 0.0
H557 H 0.56894 0.48024 0.92512 0.0
H558 H 0.60701 0.47637 0.88289 0.0
H559 H 0.65898 0.49955 0.8516 0.0
H560 H 0.728 0.58565 0.89096 0.0
H561 H 0.69141 0.58616 0.94281 0.0
C562 C 0.63159 0.54556 0.95022 0.0
C563 C 0.60095 0.52294 0.94938 0.0
C564 C 0.6536 0.54372 0.92558 0.0
C565 C 0.59251 0.49782 0.92591 0.0
C566 C 0.61423 0.49566 0.90184 0.0
C567 C 0.66612 0.5182 0.87218 0.0
C568 C 0.69613 0.54263 0.86707 0.0
C569 C 0.64472 0.5188 0.90048 0.0
C570 C 0.70514 0.56647 0.89443 0.0
C571 C 0.6841 0.56694 0.92363 0.0
H572 H 0.0842 0.63781 0.4451 0.0
H573 H 0.11283 0.57673 0.44571 0.0
H574 H 0.16105 0.61478 0.40642 0.0
H575 H 0.19137 0.66289 0.36189 0.0
H576 H 0.16104 0.72265 0.35578 0.0
H577 H 0.11763 0.68832 0.40834 0.0
C578 C 0.10134 0.6332 0.43716 0.0
C579 C 0.09521 0.6047 0.44746 0.0
C580 C 0.12868 0.65503 0.41391 0.0
C581 C 0.1173 0.59862 0.43758 0.0
C582 C 0.14475 0.62032 0.41519 0.0
C583 C 0.17591 0.66883 0.37387 0.0
C584 C 0.17953 0.69537 0.35604 0.0
C585 C 0.1503 0.64832 0.40197 0.0
C586 C 0.15894 0.70261 0.37016 0.0
C587 C 0.13391 0.68277 0.39952 0.0
H588 H 0.46107 0.10189 0.94449 0.0
H589 H 0.5397 0.12309 0.86197 0.0
H590 H 0.53632 0.15992 0.81388 0.0
H591 H 0.50669 0.18032 0.78827 0.0
H592 H 0.42507 0.1557 0.86548 0.0
H593 H 0.43454 0.12715 0.92377 0.0
C594 C 0.47777 0.1151 0.91659 0.0
C595 C 0.50037 0.10968 0.90622 0.0
C596 C 0.47511 0.13564 0.88817 0.0
C597 C 0.5219 0.12675 0.87001 0.0
C598 C 0.52 0.14779 0.84261 0.0
C599 C 0.49132 0.16918 0.8184 0.0
C600 C 0.465 0.16974 0.82215 0.0
C601 C 0.49604 0.15158 0.85027 0.0
C602 C 0.44554 0.1557 0.86178 0.0
C603 C 0.45073 0.139 0.8948 0.0
H604 H 0.39063 0.50983 0.43219 0.0
H605 H 0.37355 0.42717 0.38991 0.0
H606 H 0.33342 0.42199 0.34098 0.0
H607 H 0.30821 0.44415 0.30254 0.0
H608 H 0.32899 0.52923 0.33896 0.0
H609 H 0.36131 0.52954 0.39951 0.0
C610 C 0.37761 0.49037 0.41309 0.0
C611 C 0.38519 0.46904 0.41423 0.0
C612 C 0.35513 0.48794 0.38406 0.0
C613 C 0.36836 0.44405 0.38902 0.0
C614 C 0.3454 0.44106 0.36116 0.0
C615 C 0.31947 0.46257 0.3242 0.0
C616 C 0.31651 0.48682 0.31559 0.0
C617 C 0.33934 0.46337 0.35718 0.0
C618 C 0.33067 0.51018 0.34477 0.0
C619 C 0.34956 0.51059 0.37903 0.0
H620 H 0.87898 0.38132 0.91249 0.0
H621 H 0.95872 0.38431 0.86656 0.0
H622 H 0.92875 0.34472 0.816 0.0
H623 H 0.88124 0.31337 0.7784 0.0
H624 H 0.80206 0.31283 0.8195 0.0
H625 H 0.82997 0.34617 0.87964 0.0
C626 C 0.88962 0.37286 0.89206 0.0
C627 C 0.92108 0.38596 0.8928 0.0
C628 C 0.87229 0.35042 0.86225 0.0
C629 C 0.93463 0.37491 0.86598 0.0
C630 C 0.91749 0.35221 0.83719 0.0
C631 C 0.86996 0.32023 0.80094 0.0
C632 C 0.83968 0.31082 0.79397 0.0
C633 C 0.8865 0.34043 0.83401 0.0
C634 C 0.82526 0.31949 0.82413 0.0
C635 C 0.84136 0.33892 0.85819 0.0
H636 H 0.94468 0.5641 0.96129 0.0
H637 H 0.9053 0.47212 0.94208 0.0
H638 H 0.86231 0.46957 0.90489 0.0
H639 H 0.83912 0.49484 0.8703 0.0
H640 H 0.8797 0.58758 0.88504 0.0
H641 H 0.91828 0.58839 0.93315 0.0
C642 C 0.92643 0.54354 0.94929 0.0
C643 C 0.92806 0.5184 0.9536 0.0
C644 C 0.90197 0.54238 0.92756 0.0
C645 C 0.90439 0.49171 0.93855 0.0
C646 C 0.87989 0.49027 0.91743 0.0
C647 C 0.85606 0.51509 0.88491 0.0
C648 C 0.85671 0.54116 0.8738 0.0
C649 C 0.87883 0.51563 0.91074 0.0
C650 C 0.87855 0.56717 0.89333 0.0
C651 C 0.9009 0.56773 0.92025 0.0
H652 H 0.37796 0.93766 0.44021 0.0
H653 H 0.43964 0.9086 0.44676 0.0
H654 H 0.40461 0.86513 0.40558 0.0
H655 H 0.35967 0.83939 0.35854 0.0
H656 H 0.30001 0.87075 0.34697 0.0
H657 H 0.33032 0.90887 0.40007 0.0
C658 C 0.38325 0.92137 0.4333 0.0
C659 C 0.4111 0.92603 0.44608 0.0
C660 C 0.36332 0.89692 0.40875 0.0
C661 C 0.41817 0.90517 0.43705 0.0
C662 C 0.39822 0.88046 0.41346 0.0
C663 C 0.35279 0.85393 0.36914 0.0
C664 C 0.32751 0.85215 0.3496 0.0
C665 C 0.37111 0.87655 0.39798 0.0
C666 C 0.31917 0.87156 0.36229 0.0
C667 C 0.33668 0.89351 0.39217 0.0
H668 H 0.48883 0.38247 0.94087 0.0
H669 H 0.42329 0.39537 0.87398 0.0
H670 H 0.40728 0.35283 0.82925 0.0
H671 H 0.41599 0.3159 0.80232 0.0
H672 H 0.48305 0.30394 0.86474 0.0
H673 H 0.49385 0.34147 0.9191 0.0
C674 C 0.47067 0.37557 0.91714 0.0
C675 C 0.45755 0.39231 0.91025 0.0
C676 C 0.46184 0.35122 0.89086 0.0
C677 C 0.43412 0.3832 0.87924 0.0
C678 C 0.42486 0.3588 0.8538 0.0
C679 C 0.43232 0.32095 0.82885 0.0
C680 C 0.44857 0.30718 0.83002 0.0
C681 C 0.4391 0.34319 0.85839 0.0
C682 C 0.47 0.31404 0.86384 0.0
C683 C 0.4764 0.33574 0.89441 0.0
H684 H 0.0778 0.45427 0.39992 0.0
H685 H 0.14098 0.54175 0.44065 0.0
H686 H 0.18147 0.54419 0.39415 0.0
H687 H 0.19636 0.52432 0.33218 0.0
H688 H 0.13265 0.43695 0.29108 0.0
H689 H 0.09509 0.43118 0.34822 0.0
C690 C 0.10063 0.47355 0.39935 0.0
C691 C 0.10651 0.49789 0.42317 0.0
C692 C 0.12362 0.47481 0.37233 0.0
C693 C 0.13609 0.52275 0.42259 0.0
C694 C 0.15915 0.52419 0.39581 0.0
C695 C 0.17467 0.50362 0.33702 0.0
C696 C 0.16716 0.48119 0.30718 0.0
C697 C 0.15291 0.50075 0.36923 0.0
C698 C 0.13883 0.45458 0.31348 0.0
C699 C 0.11728 0.45137 0.34588 0.0
H700 H 0.64122 0.07082 0.925 0.0
H701 H 0.59147 0.11309 0.92456 0.0
H702 H 0.63069 0.15423 0.87338 0.0
H703 H 0.67473 0.17383 0.81954 0.0
H704 H 0.72206 0.12927 0.81437 0.0
H705 H 0.68881 0.09369 0.87761 0.0
C706 C 0.63945 0.08941 0.91422 0.0
C707 C 0.61364 0.08908 0.92774 0.0
C708 C 0.66163 0.11244 0.8838 0.0
C709 C 0.61125 0.11307 0.9141 0.0
C710 C 0.63358 0.13646 0.88484 0.0
C711 C 0.67842 0.15699 0.83357 0.0
C712 C 0.70084 0.15418 0.8128 0.0
C713 C 0.65833 0.13587 0.86822 0.0
C714 C 0.70505 0.13188 0.8303 0.0
C715 C 0.68586 0.1114 0.86603 0.0
H716 H 0.48754 0.58849 0.46201 0.0
H717 H 0.58285 0.62528 0.44159 0.0
H718 H 0.58953 0.66988 0.40149 0.0
H719 H 0.56663 0.69479 0.36294 0.0
H720 H 0.47147 0.65836 0.38526 0.0
H721 H 0.4664 0.61774 0.43563 0.0
C722 C 0.50983 0.60661 0.44959 0.0
C723 C 0.53458 0.60352 0.45346 0.0
C724 C 0.51347 0.6322 0.42724 0.0
C725 C 0.56346 0.62713 0.43796 0.0
C726 C 0.56724 0.65256 0.4152 0.0
C727 C 0.54505 0.67846 0.38021 0.0
C728 C 0.51944 0.6794 0.37041 0.0
C729 C 0.54223 0.65489 0.40832 0.0
C730 C 0.49152 0.65819 0.39272 0.0
C731 C 0.48854 0.63474 0.42095 0.0
H732 H 0.42848 0.07364 0.58277 0.0
H733 H 0.51935 0.14294 0.53714 0.0
H734 H 0.51378 0.17847 0.57629 0.0
H735 H 0.48588 0.18825 0.63341 0.0
H736 H 0.39476 0.11981 0.67706 0.0
H737 H 0.39719 0.08587 0.62747 0.0
C738 C 0.4468 0.09663 0.58014 0.0
C739 C 0.47466 0.10522 0.55818 0.0
C740 C 0.44337 0.11721 0.60241 0.0
C741 C 0.49803 0.13529 0.55526 0.0
C742 C 0.49482 0.15579 0.57738 0.0
C743 C 0.4662 0.16628 0.63039 0.0
C744 C 0.44008 0.15653 0.65826 0.0
C745 C 0.46802 0.14679 0.60253 0.0
C746 C 0.41487 0.12786 0.65512 0.0
C747 C 0.41644 0.10836 0.62731 0.0
H748 H 0.37599 0.45599 0.05839 0.0
H749 H 0.44258 0.54903 0.05749 0.0
H750 H 0.40614 0.55659 0.09668 0.0
H751 H 0.35748 0.53562 0.13985 0.0
H752 H 0.29216 0.44214 0.14587 0.0
H753 H 0.32535 0.43567 0.0952 0.0
C754 C 0.3822 0.47789 0.06638 0.0
C755 C 0.41179 0.50192 0.05581 0.0
C756 C 0.36127 0.4819 0.08957 0.0
C757 C 0.41985 0.53029 0.06579 0.0
C758 C 0.39907 0.53457 0.08813 0.0
C759 C 0.35015 0.51406 0.12846 0.0
C760 C 0.3223 0.48944 0.14557 0.0
C761 C 0.36995 0.51044 0.10121 0.0
C762 C 0.31328 0.4614 0.13212 0.0
C763 C 0.33242 0.4577 0.10375 0.0
H764 H 0.90061 0.40953 0.52598 0.0
H765 H 0.96937 0.39046 0.54821 0.0
H766 H 0.93215 0.34313 0.58985 0.0
H767 H 0.88221 0.31196 0.63121 0.0
H768 H 0.81359 0.33106 0.60694 0.0
H769 H 0.84823 0.37309 0.55316 0.0
C770 C 0.90714 0.39444 0.53826 0.0
C771 C 0.9376 0.40334 0.53432 0.0
C772 C 0.88567 0.36743 0.56201 0.0
C773 C 0.94597 0.38388 0.55091 0.0
C774 C 0.92476 0.35699 0.57494 0.0
C775 C 0.87462 0.32475 0.61276 0.0
C776 C 0.84553 0.31862 0.62312 0.0
C777 C 0.89483 0.34915 0.58237 0.0
C778 C 0.8358 0.33526 0.59921 0.0
C779 C 0.85573 0.35951 0.56891 0.0
H780 H 0.50228 0.88334 0.07228 0.0
H781 H 0.59115 0.9541 0.10524 0.0
H782 H 0.59784 0.91949 0.15363 0.0
H783 H 0.57517 0.8711 0.19614 0.0
H784 H 0.48448 0.80149 0.16869 0.0
H785 H 0.48238 0.83308 0.10676 0.0
C786 C 0.52341 0.89101 0.08907 0.0
C787 C 0.54601 0.92126 0.08585 0.0
C788 C 0.52678 0.87111 0.11776 0.0
C789 C 0.57322 0.93097 0.10797 0.0
C790 C 0.57709 0.91119 0.13549 0.0
C791 C 0.55522 0.86265 0.17581 0.0
C792 C 0.52985 0.8342 0.18757 0.0
C793 C 0.55353 0.88148 0.14214 0.0
C794 C 0.50436 0.82327 0.16039 0.0
C795 C 0.50297 0.84152 0.1254 0.0
H796 H 0.63066 0.50503 0.58476 0.0
H797 H 0.6372 0.58578 0.61178 0.0
H798 H 0.68017 0.59967 0.66032 0.0
H799 H 0.71019 0.58514 0.7046 0.0
H800 H 0.70112 0.5026 0.68406 0.0
H801 H 0.66541 0.49319 0.62271 0.0
C802 C 0.64211 0.52598 0.60039 0.0
C803 C 0.63091 0.54439 0.59506 0.0
C804 C 0.66621 0.53333 0.62953 0.0
C805 C 0.64551 0.57132 0.61575 0.0
C806 C 0.66998 0.5792 0.6435 0.0
C807 C 0.70116 0.56564 0.68536 0.0
C808 C 0.70834 0.54472 0.69804 0.0
C809 C 0.67978 0.55991 0.65196 0.0
C810 C 0.69615 0.51915 0.67404 0.0
C811 C 0.6755 0.51366 0.63948 0.0
H812 H 0.11292 0.63933 0.07187 0.0
H813 H 0.10536 0.56598 0.15403 0.0
H814 H 0.14575 0.5998 0.20208 0.0
H815 H 0.17976 0.64965 0.22544 0.0
H816 H 0.18668 0.72359 0.14725 0.0
H817 H 0.15074 0.69038 0.09197 0.0
C818 C 0.12042 0.63085 0.09995 0.0
C819 C 0.10576 0.60016 0.10994 0.0
C820 C 0.14365 0.65054 0.12789 0.0
C821 C 0.11574 0.58946 0.14637 0.0
C822 C 0.13899 0.60878 0.17366 0.0
C823 C 0.17392 0.65848 0.19554 0.0
C824 C 0.18582 0.68886 0.18996 0.0
C825 C 0.15262 0.63925 0.16535 0.0
C826 C 0.17799 0.70026 0.15165 0.0
C827 C 0.15721 0.68122 0.12051 0.0
loop_
_geom_bond_atom_site_label_1
_geom_bond_atom_site_label_2
_geom_bond_distance
_geom_bond_site_symmetry_2
_ccdc_geom_bond_type
C0 C1 1.443 1_556 S
C0 N4 1.376 1_556 S
C0 C38 1.389 . S
C1 C0 1.443 1_554 S
C1 C2 1.340 . S
C1 H41 0.951 . S
C2 C1 1.340 . S
C2 C3 1.439 . S
C2 H42 0.950 . S
C3 C2 1.439 . S
C3 N4 1.374 . S
C3 C37 1.395 . S
N4 C0 1.376 1_554 S
N4 C3 1.374 . S
N4 Co5 2.008 1_655 S
Co5 N4 2.008 1_455 S
Co5 N6 1.995 . S
Co5 N11 2.008 1_554 S
Co5 N16 1.995 1_554 S
Co5 N21 2.282 . S
Co5 N27 2.282 1_454 S
N6 Co5 1.995 . S
N6 C7 1.376 1_455 S
N6 C10 1.383 . S
C7 N6 1.376 1_655 S
C7 C8 1.446 . S
C7 C37 1.391 . S
C8 C7 1.446 . S
C8 C9 1.339 1_655 S
C8 H43 0.949 . S
C9 C8 1.339 1_455 S
C9 C10 1.439 . S
C9 H44 0.950 . S
C10 N6 1.383 . S
C10 C9 1.439 . S
C10 C39 1.392 . S
N11 Co5 2.008 1_556 S
N11 C12 1.376 1_556 S
N11 C15 1.374 . S
C12 N11 1.376 1_554 S
C12 C13 1.443 1_554 S
C12 C39 1.389 . S
C13 C12 1.443 1_556 S
C13 C14 1.340 . S
C13 H45 0.951 . S
C14 C13 1.340 . S
C14 C15 1.439 . S
C14 H46 0.950 . S
C15 N11 1.374 . S
C15 C14 1.439 . S
C15 C40 1.395 . S
N16 Co5 1.995 1_556 S
N16 C17 1.376 . S
N16 C20 1.383 1_455 S
C17 N16 1.376 . S
C17 C18 1.446 . S
C17 C40 1.391 . S
C18 C17 1.446 . S
C18 C19 1.339 1_455 S
C18 H47 0.949 . S
C19 C18 1.339 1_655 S
C19 C20 1.439 . S
C19 H48 0.950 . S
C20 N16 1.383 1_655 S
C20 C19 1.439 . S
C20 C38 1.392 . S
N21 Co5 2.282 . S
N21 C24 1.332 . S
N21 C26 1.332 . S
C22 C23 1.386 . S
C22 C25 1.388 . S
C23 C22 1.386 . S
C23 C24 1.382 . S
C23 H49 0.950 . S
C24 N21 1.332 . S
C24 C23 1.382 . S
C24 H35 0.952 1_554 S
C25 C22 1.388 . S
C25 C26 1.382 . S
C25 H50 0.950 . S
C26 N21 1.332 . S
C26 C25 1.382 . S
C26 H36 0.948 . S
N27 Co5 2.282 1_656 S
N27 C31 1.332 . S
N27 C32 1.332 . S
C28 C29 1.388 . S
C28 C32 1.382 . S
C28 H51 0.950 . S
C29 C28 1.388 . S
C29 C30 1.386 . S
C30 C29 1.386 . S
C30 C31 1.382 . S
C30 H52 0.950 . S
C31 N27 1.332 . S
C31 C30 1.382 . S
C31 H33 0.952 1_556 S
C32 N27 1.332 . S
C32 C28 1.382 . S
C32 H34 0.948 . S
H33 C31 0.952 1_554 S
H34 C32 0.948 . S
H35 C24 0.952 1_556 S
H36 C26 0.948 . S
C37 C3 1.395 . S
C37 C7 1.391 . S
C38 C0 1.389 . S
C38 C20 1.392 . S
C39 C10 1.392 . S
C39 C12 1.389 . S
C40 C15 1.395 . S
C40 C17 1.391 . S
H41 C1 0.951 . S
H42 C2 0.950 . S
H43 C8 0.949 . S
H44 C9 0.950 . S
H45 C13 0.951 . S
H46 C14 0.950 . S
H47 C18 0.949 . S
H48 C19 0.950 . S
H49 C23 0.950 . S
H50 C25 0.950 . S
H51 C28 0.950 . S
H52 C30 0.950 . S
C53 C54 1.443 . S
C53 N57 1.376 . S
C53 C91 1.389 . S
C54 C53 1.443 . S
C54 C55 1.340 1_545 S
C54 H94 0.951 . S
C55 C54 1.340 1_565 S
C55 C56 1.439 . S
C55 H95 0.950 . S
C56 C55 1.439 . S
C56 N57 1.374 1_565 S
C56 C90 1.395 . S
N57 C53 1.376 . S
N57 C56 1.374 1_545 S
N57 Co58 2.008 . S
Co58 N57 2.008 . S
Co58 N59 1.995 1_545 S
Co58 N64 2.008 . S
Co58 N69 1.995 . S
Co58 N74 2.282 1_545 S
Co58 N80 2.282 . S
N59 Co58 1.995 1_565 S
N59 C60 1.376 . S
N59 C63 1.383 . S
C60 N59 1.376 . S
C60 C61 1.446 . S
C60 C90 1.391 . S
C61 C60 1.446 . S
C61 C62 1.339 . S
C61 H96 0.949 . S
C62 C61 1.339 . S
C62 C63 1.439 . S
C62 H97 0.950 . S
C63 N59 1.383 . S
C63 C62 1.439 . S
C63 C92 1.392 . S
N64 Co58 2.008 . S
N64 C65 1.376 1_545 S
N64 C68 1.374 . S
C65 N64 1.376 1_565 S
C65 C66 1.443 . S
C65 C92 1.389 . S
C66 C65 1.443 . S
C66 C67 1.340 1_565 S
C66 H98 0.951 . S
C67 C66 1.340 1_545 S
C67 C68 1.439 . S
C67 H99 0.950 . S
C68 N64 1.374 . S
C68 C67 1.439 . S
C68 C93 1.395 . S
N69 Co58 1.995 . S
N69 C70 1.376 . S
N69 C73 1.383 . S
C70 N69 1.376 . S
C70 C71 1.446 . S
C70 C93 1.391 . S
C71 C70 1.446 . S
C71 C72 1.339 . S
C71 H100 0.949 . S
C72 C71 1.339 . S
C72 C73 1.439 . S
C72 H101 0.950 . S
C73 N69 1.383 . S
C73 C72 1.439 . S
C73 C91 1.392 . S
N74 Co58 2.282 1_565 S
N74 C77 1.332 . S
N74 C79 1.332 . S
C75 C76 1.386 . S
C75 C78 1.388 . S
C76 C75 1.386 . S
C76 C77 1.382 . S
C76 H102 0.950 . S
C77 N74 1.332 . S
C77 C76 1.382 . S
C77 H88 0.952 1_565 S
C78 C75 1.388 . S
C78 C79 1.382 . S
C78 H103 0.950 . S
C79 N74 1.332 . S
C79 C78 1.382 . S
C79 H89 0.948 . S
N80 Co58 2.282 . S
N80 C84 1.332 . S
N80 C85 1.332 . S
C81 C82 1.388 . S
C81 C85 1.382 . S
C81 H104 0.950 . S
C82 C81 1.388 . S
C82 C83 1.386 . S
C83 C82 1.386 . S
C83 C84 1.382 . S
C83 H105 0.950 . S
C84 N80 1.332 . S
C84 C83 1.382 . S
C84 H86 0.952 . S
C85 N80 1.332 . S
C85 C81 1.382 . S
C85 H87 0.948 . S
H86 C84 0.952 . S
H87 C85 0.948 . S
H88 C77 0.952 1_545 S
H89 C79 0.948 . S
C90 C56 1.395 . S
C90 C60 1.391 . S
C91 C53 1.389 . S
C91 C73 1.392 . S
C92 C63 1.392 . S
C92 C65 1.389 . S
C93 C68 1.395 . S
C93 C70 1.391 . S
H94 C54 0.951 . S
H95 C55 0.950 . S
H96 C61 0.949 . S
H97 C62 0.950 . S
H98 C66 0.951 . S
H99 C67 0.950 . S
H100 C71 0.949 . S
H101 C72 0.950 . S
H102 C76 0.950 . S
H103 C78 0.950 . S
H104 C81 0.950 . S
H105 C83 0.950 . S
C106 C107 1.443 . S
C106 N110 1.376 . S
C106 C144 1.389 . S
C107 C106 1.443 . S
C107 C108 1.340 . S
C107 H147 0.951 . S
C108 C107 1.340 . S
C108 C109 1.439 . S
C108 H148 0.950 . S
C109 C108 1.439 . S
C109 N110 1.374 . S
C109 C143 1.395 . S
N110 C106 1.376 . S
N110 C109 1.374 . S
N110 Co111 2.008 1_556 S
Co111 N110 2.008 1_554 S
Co111 N112 1.995 1_554 S
Co111 N117 2.008 . S
Co111 N122 1.995 . S
Co111 N127 2.282 . S
Co111 N133 2.282 1_554 S
N112 Co111 1.995 1_556 S
N112 C113 1.376 . S
N112 C116 1.383 1_556 S
C113 N112 1.376 . S
C113 C114 1.446 . S
C113 C143 1.391 . S
C114 C113 1.446 . S
C114 C115 1.339 . S
C114 H149 0.949 . S
C115 C114 1.339 . S
C115 C116 1.439 1_556 S
C115 H150 0.950 . S
C116 N112 1.383 1_554 S
C116 C115 1.439 1_554 S
C116 C145 1.392 . S
N117 Co111 2.008 . S
N117 C118 1.376 . S
N117 C121 1.374 . S
C118 N117 1.376 . S
C118 C119 1.443 . S
C118 C145 1.389 . S
C119 C118 1.443 . S
C119 C120 1.340 . S
C119 H151 0.951 . S
C120 C119 1.340 . S
C120 C121 1.439 . S
C120 H152 0.950 . S
C121 N117 1.374 . S
C121 C120 1.439 . S
C121 C146 1.395 . S
N122 Co111 1.995 . S
N122 C123 1.376 . S
N122 C126 1.383 . S
C123 N122 1.376 . S
C123 C124 1.446 . S
C123 C146 1.391 . S
C124 C123 1.446 . S
C124 C125 1.339 . S
C124 H153 0.949 . S
C125 C124 1.339 . S
C125 C126 1.439 . S
C125 H154 0.950 . S
C126 N122 1.383 . S
C126 C125 1.439 . S
C126 C144 1.392 1_554 S
N127 Co111 2.282 . S
N127 C130 1.332 . S
N127 C132 1.332 . S
C128 C129 1.386 . S
C128 C131 1.388 . S
C129 C128 1.386 . S
C129 C130 1.382 . S
C129 H155 0.950 . S
C130 N127 1.332 . S
C130 C129 1.382 . S
C130 H141 0.952 . S
C131 C128 1.388 . S
C131 C132 1.382 . S
C131 H156 0.950 . S
C132 N127 1.332 . S
C132 C131 1.382 . S
C132 H142 0.948 1_554 S
N133 Co111 2.282 1_556 S
N133 C137 1.332 . S
N133 C138 1.332 . S
C134 C135 1.388 . S
C134 C138 1.382 . S
C134 H157 0.950 . S
C135 C134 1.388 . S
C135 C136 1.386 . S
C136 C135 1.386 . S
C136 C137 1.382 . S
C136 H158 0.950 . S
C137 N133 1.332 . S
C137 C136 1.382 . S
C137 H139 0.952 . S
C138 N133 1.332 . S
C138 C134 1.382 . S
C138 H140 0.948 1_556 S
H139 C137 0.952 . S
H140 C138 0.948 1_554 S
H141 C130 0.952 . S
H142 C132 0.948 1_556 S
C143 C109 1.395 . S
C143 C113 1.391 . S
C144 C106 1.389 . S
C144 C126 1.392 1_556 S
C145 C116 1.392 . S
C145 C118 1.389 . S
C146 C121 1.395 . S
C146 C123 1.391 . S
H147 C107 0.951 . S
H148 C108 0.950 . S
H149 C114 0.949 . S
H150 C115 0.950 . S
H151 C119 0.951 . S
H152 C120 0.950 . S
H153 C124 0.949 . S
H154 C125 0.950 . S
H155 C129 0.950 . S
H156 C131 0.950 . S
H157 C134 0.950 . S
H158 C136 0.950 . S
C159 C160 1.443 . S
C159 N163 1.376 . S
C159 C197 1.389 . S
C160 C159 1.443 . S
C160 C161 1.340 . S
C160 H200 0.951 . S
C161 C160 1.340 . S
C161 C162 1.439 . S
C161 H201 0.950 . S
C162 C161 1.439 . S
C162 N163 1.374 . S
C162 C196 1.395 . S
N163 C159 1.376 . S
N163 C162 1.374 . S
N163 Co164 2.008 1_655 S
Co164 N163 2.008 1_455 S
Co164 N165 1.995 . S
Co164 N170 2.008 . S
Co164 N175 1.995 1_455 S
Co164 N180 2.282 . S
Co164 N186 2.282 1_455 S
N165 Co164 1.995 . S
N165 C166 1.376 1_455 S
N165 C169 1.383 . S
C166 N165 1.376 1_655 S
C166 C167 1.446 . S
C166 C196 1.391 . S
C167 C166 1.446 . S
C167 C168 1.339 1_655 S
C167 H202 0.949 . S
C168 C167 1.339 1_455 S
C168 C169 1.439 . S
C168 H203 0.950 . S
C169 N165 1.383 . S
C169 C168 1.439 . S
C169 C198 1.392 . S
N170 Co164 2.008 . S
N170 C171 1.376 . S
N170 C174 1.374 . S
C171 N170 1.376 . S
C171 C172 1.443 . S
C171 C198 1.389 . S
C172 C171 1.443 . S
C172 C173 1.340 . S
C172 H204 0.951 . S
C173 C172 1.340 . S
C173 C174 1.439 . S
C173 H205 0.950 . S
C174 N170 1.374 . S
C174 C173 1.439 . S
C174 C199 1.395 . S
N175 Co164 1.995 1_655 S
N175 C176 1.375 1_655 S
N175 C179 1.384 . S
C176 N175 1.375 1_455 S
C176 C177 1.446 . S
C176 C199 1.391 . S
C177 C176 1.446 . S
C177 C178 1.339 1_455 S
C177 H206 0.949 . S
C178 C177 1.339 1_655 S
C178 C179 1.439 . S
C178 H207 0.950 . S
C179 N175 1.384 . S
C179 C178 1.439 . S
C179 C197 1.392 . S
N180 Co164 2.282 . S
N180 C183 1.332 . S
N180 C185 1.332 . S
C181 C182 1.386 . S
C181 C184 1.388 . S
C182 C181 1.386 . S
C182 C183 1.382 . S
C182 H208 0.950 . S
C183 N180 1.332 . S
C183 C182 1.382 . S
C183 H194 0.952 . S
C184 C181 1.388 . S
C184 C185 1.382 . S
C184 H209 0.950 . S
C185 N180 1.332 . S
C185 C184 1.382 . S
C185 H195 0.948 . S
N186 Co164 2.282 1_655 S
N186 C190 1.332 . S
N186 C191 1.332 . S
C187 C188 1.388 . S
C187 C191 1.382 . S
C187 H210 0.950 . S
C188 C187 1.388 . S
C188 C189 1.386 . S
C189 C188 1.386 . S
C189 C190 1.382 . S
C189 H211 0.950 . S
C190 N186 1.332 . S
C190 C189 1.382 . S
C190 H192 0.952 . S
C191 N186 1.332 . S
C191 C187 1.382 . S
C191 H193 0.948 . S
H192 C190 0.952 . S
H193 C191 0.948 . S
H194 C183 0.952 . S
H195 C185 0.948 . S
C196 C162 1.395 . S
C196 C166 1.391 . S
C197 C159 1.389 . S
C197 C179 1.392 . S
C198 C169 1.392 . S
C198 C171 1.389 . S
C199 C174 1.395 . S
C199 C176 1.391 . S
H200 C160 0.951 . S
H201 C161 0.950 . S
H202 C167 0.949 . S
H203 C168 0.950 . S
H204 C172 0.951 . S
H205 C173 0.950 . S
H206 C177 0.949 . S
H207 C178 0.950 . S
H208 C182 0.950 . S
H209 C184 0.950 . S
H210 C187 0.950 . S
H211 C189 0.950 . S
C212 C213 1.443 . S
C212 N216 1.376 1_565 S
C212 C250 1.389 . S
C213 C212 1.443 . S
C213 C214 1.340 1_565 S
C213 H253 0.951 . S
C214 C213 1.340 1_545 S
C214 C215 1.439 . S
C214 H254 0.950 . S
C215 C214 1.439 . S
C215 N216 1.374 . S
C215 C249 1.395 . S
N216 C212 1.376 1_545 S
N216 C215 1.374 . S
N216 Co217 2.008 . S
Co217 N216 2.008 . S
Co217 N218 1.995 . S
Co217 N223 2.008 1_554 S
Co217 N228 1.995 1_544 S
Co217 N233 2.282 1_554 S
Co217 N239 2.282 1_545 S
N218 Co217 1.995 . S
N218 C219 1.376 . S
N218 C222 1.383 1_554 S
C219 N218 1.376 . S
C219 C220 1.446 . S
C219 C249 1.391 . S
C220 C219 1.446 . S
C220 C221 1.339 . S
C220 H255 0.949 . S
C221 C220 1.339 . S
C221 C222 1.439 1_554 S
C221 H256 0.950 1_554 S
C222 N218 1.383 1_556 S
C222 C221 1.439 1_556 S
C222 C251 1.392 . S
N223 Co217 2.008 1_556 S
N223 C224 1.376 . S
N223 C227 1.374 1_545 S
C224 N223 1.376 . S
C224 C225 1.443 . S
C224 C251 1.389 . S
C225 C224 1.443 . S
C225 C226 1.340 . S
C225 H257 0.951 . S
C226 C225 1.340 . S
C226 C227 1.439 1_545 S
C226 H258 0.950 1_545 S
C227 N223 1.374 1_565 S
C227 C226 1.439 1_565 S
C227 C252 1.395 . S
N228 Co217 1.995 1_566 S
N228 C229 1.376 . S
N228 C232 1.383 1_556 S
C229 N228 1.376 . S
C229 C230 1.446 . S
C229 C252 1.391 . S
C230 C229 1.446 . S
C230 C231 1.339 . S
C230 H259 0.949 . S
C231 C230 1.339 . S
C231 C232 1.439 1_556 S
C231 H260 0.950 1_556 S
C232 N228 1.383 1_554 S
C232 C231 1.439 1_554 S
C232 C250 1.392 . S
N233 Co217 2.282 1_556 S
N233 C236 1.332 . S
N233 C238 1.332 . S
C234 C235 1.386 . S
C234 C237 1.388 . S
C235 C234 1.386 . S
C235 C236 1.382 . S
C235 H261 0.950 . S
C236 N233 1.332 . S
C236 C235 1.382 . S
C236 H247 0.952 . S
C237 C234 1.388 . S
C237 C238 1.382 . S
C237 H262 0.950 . S
C238 N233 1.332 . S
C238 C237 1.382 . S
C238 H248 0.948 1_556 S
N239 Co217 2.282 1_565 S
N239 C243 1.332 . S
N239 C244 1.332 . S
C240 C241 1.388 . S
C240 C244 1.382 . S
C240 H263 0.950 . S
C241 C240 1.388 . S
C241 C242 1.386 . S
C242 C241 1.386 . S
C242 C243 1.382 . S
C242 H264 0.950 . S
C243 N239 1.332 . S
C243 C242 1.382 . S
C243 H245 0.952 1_565 S
C244 N239 1.332 . S
C244 C240 1.382 . S
C244 H246 0.948 1_554 S
H245 C243 0.952 1_545 S
H246 C244 0.948 1_556 S
H247 C236 0.952 . S
H248 C238 0.948 1_554 S
C249 C215 1.395 . S
C249 C219 1.391 . S
C250 C212 1.389 . S
C250 C232 1.392 . S
C251 C222 1.392 . S
C251 C224 1.389 . S
C252 C227 1.395 . S
C252 C229 1.391 . S
H253 C213 0.951 . S
H254 C214 0.950 . S
H255 C220 0.949 . S
H256 C221 0.950 1_556 S
H257 C225 0.951 . S
H258 C226 0.950 1_565 S
H259 C230 0.949 . S
H260 C231 0.950 1_554 S
H261 C235 0.950 . S
H262 C237 0.950 . S
H263 C240 0.950 . S
H264 C242 0.950 . S
C265 C266 1.443 . S
C265 N269 1.376 . S
C265 C303 1.389 . S
C266 C265 1.443 . S
C266 C267 1.340 . S
C266 H306 0.951 . S
C267 C266 1.340 . S
C267 C268 1.439 . S
C267 H307 0.950 . S
C268 C267 1.439 . S
C268 N269 1.374 . S
C268 C302 1.395 . S
N269 C265 1.376 . S
N269 C268 1.374 . S
N269 Co270 2.008 . S
Co270 N269 2.008 . S
Co270 N271 1.995 . S
Co270 N276 2.008 . S
Co270 N281 1.995 . S
Co270 N286 2.282 . S
Co270 N292 2.282 . S
N271 Co270 1.995 . S
N271 C272 1.376 . S
N271 C275 1.383 . S
C272 N271 1.376 . S
C272 C273 1.446 . S
C272 C302 1.391 . S
C273 C272 1.446 . S
C273 C274 1.339 . S
C273 H308 0.949 . S
C274 C273 1.339 . S
C274 C275 1.439 . S
C274 H309 0.950 . S
C275 N271 1.383 . S
C275 C274 1.439 . S
C275 C304 1.392 . S
N276 Co270 2.008 . S
N276 C277 1.376 . S
N276 C280 1.374 . S
C277 N276 1.376 . S
C277 C278 1.443 . S
C277 C304 1.389 . S
C278 C277 1.443 . S
C278 C279 1.340 . S
C278 H310 0.951 . S
C279 C278 1.340 . S
C279 C280 1.439 . S
C279 H311 0.950 . S
C280 N276 1.374 . S
C280 C279 1.439 . S
C280 C305 1.395 . S
N281 Co270 1.995 . S
N281 C282 1.376 . S
N281 C285 1.383 . S
C282 N281 1.376 . S
C282 C283 1.446 . S
C282 C305 1.391 . S
C283 C282 1.446 . S
C283 C284 1.339 . S
C283 H312 0.949 . S
C284 C283 1.339 . S
C284 C285 1.439 . S
C284 H313 0.950 . S
C285 N281 1.383 . S
C285 C284 1.439 . S
C285 C303 1.392 . S
N286 Co270 2.282 . S
N286 C289 1.332 . S
N286 C291 1.332 . S
C287 C288 1.386 . S
C287 C290 1.388 . S
C288 C287 1.386 . S
C288 C289 1.382 . S
C288 H314 0.950 . S
C289 N286 1.332 . S
C289 C288 1.382 . S
C289 H300 0.952 . S
C290 C287 1.388 . S
C290 C291 1.382 . S
C290 H315 0.950 . S
C291 N286 1.332 . S
C291 C290 1.382 . S
C291 H301 0.948 . S
N292 Co270 2.282 . S
N292 C296 1.332 . S
N292 C297 1.332 . S
C293 C294 1.388 . S
C293 C297 1.382 . S
C293 H316 0.950 . S
C294 C293 1.388 . S
C294 C295 1.386 . S
C295 C294 1.386 . S
C295 C296 1.382 . S
C295 H317 0.950 . S
C296 N292 1.332 . S
C296 C295 1.382 . S
C296 H298 0.952 . S
C297 N292 1.332 . S
C297 C293 1.382 . S
C297 H299 0.948 . S
H298 C296 0.952 . S
H299 C297 0.948 . S
H300 C289 0.952 . S
H301 C291 0.948 . S
C302 C268 1.395 . S
C302 C272 1.391 . S
C303 C265 1.389 . S
C303 C285 1.392 . S
C304 C275 1.392 . S
C304 C277 1.389 . S
C305 C280 1.395 . S
C305 C282 1.391 . S
H306 C266 0.951 . S
H307 C267 0.950 . S
H308 C273 0.949 . S
H309 C274 0.950 . S
H310 C278 0.951 . S
H311 C279 0.950 . S
H312 C283 0.949 . S
H313 C284 0.950 . S
H314 C288 0.950 . S
H315 C290 0.950 . S
H316 C293 0.950 . S
H317 C295 0.950 . S
H318 C326 0.930 . S
H319 C329 0.930 . S
H320 C331 0.930 . S
H321 C332 0.970 . S
H322 C332 0.970 . S
H323 C334 0.930 . S
H324 C336 0.930 . S
H325 C338 0.930 . S
C326 H318 0.930 . S
C326 C327 1.382 . S
C326 C328 1.426 . S
C327 C326 1.382 . S
C327 C331 1.389 . S
C328 C326 1.426 . S
C328 C329 1.375 . S
C328 C332 1.532 . S
C329 H319 0.930 . S
C329 C328 1.375 . S
C329 C330 1.416 . S
C330 C329 1.416 . S
C330 C331 1.371 . S
C331 H320 0.930 . S
C331 C327 1.389 . S
C331 C330 1.371 . S
C332 H321 0.970 . S
C332 H322 0.970 . S
C332 C328 1.532 . S
C332 C333 1.499 . S
C333 C332 1.499 . S
C333 C334 1.370 . S
C333 C338 1.415 . S
C334 H323 0.930 . S
C334 C333 1.370 . S
C334 C335 1.407 . S
C335 C334 1.407 . S
C335 C336 1.365 . S
C336 H324 0.930 . S
C336 C335 1.365 . S
C336 C337 1.393 . S
C337 C336 1.393 . S
C337 C338 1.387 . S
C338 H325 0.930 . S
C338 C333 1.415 . S
C338 C337 1.387 . S
H339 C347 0.930 . S
H340 C350 0.930 . S
H341 C352 0.930 . S
H342 C353 0.970 . S
H343 C353 0.970 . S
H344 C355 0.930 . S
H345 C357 0.930 . S
H346 C359 0.930 . S
C347 H339 0.930 . S
C347 C348 1.382 . S
C347 C349 1.426 . S
C348 C347 1.382 . S
C348 C352 1.389 . S
C349 C347 1.426 . S
C349 C350 1.375 . S
C349 C353 1.532 . S
C350 H340 0.930 . S
C350 C349 1.375 . S
C350 C351 1.416 . S
C351 C350 1.416 . S
C351 C352 1.371 . S
C352 H341 0.930 . S
C352 C348 1.389 . S
C352 C351 1.371 . S
C353 H342 0.970 . S
C353 H343 0.970 . S
C353 C349 1.532 . S
C353 C354 1.499 . S
C354 C353 1.499 . S
C354 C355 1.370 . S
C354 C359 1.415 . S
C355 H344 0.930 . S
C355 C354 1.370 . S
C355 C356 1.407 . S
C356 C355 1.407 . S
C356 C357 1.365 . S
C357 H345 0.930 . S
C357 C356 1.365 . S
C357 C358 1.393 . S
C358 C357 1.393 . S
C358 C359 1.387 . S
C359 H346 0.930 . S
C359 C354 1.415 . S
C359 C358 1.387 . S
H360 C368 0.930 . S
H361 C371 0.930 . S
H362 C373 0.930 . S
H363 C374 0.970 . S
H364 C374 0.970 . S
H365 C376 0.930 . S
H366 C378 0.930 . S
H367 C380 0.930 . S
C368 H360 0.930 . S
C368 C369 1.382 . S
C368 C370 1.426 . S
C369 C368 1.382 . S
C369 C373 1.389 . S
C370 C368 1.426 . S
C370 C371 1.375 . S
C370 C374 1.532 . S
C371 H361 0.930 . S
C371 C370 1.375 . S
C371 C372 1.416 . S
C372 C371 1.416 . S
C372 C373 1.371 . S
C373 H362 0.930 . S
C373 C369 1.389 . S
C373 C372 1.371 . S
C374 H363 0.970 . S
C374 H364 0.970 . S
C374 C370 1.532 . S
C374 C375 1.499 . S
C375 C374 1.499 . S
C375 C376 1.370 . S
C375 C380 1.415 . S
C376 H365 0.930 . S
C376 C375 1.370 . S
C376 C377 1.407 . S
C377 C376 1.407 . S
C377 C378 1.365 . S
C378 H366 0.930 . S
C378 C377 1.365 . S
C378 C379 1.393 . S
C379 C378 1.393 . S
C379 C380 1.387 . S
C380 H367 0.930 . S
C380 C375 1.415 . S
C380 C379 1.387 . S
H381 C389 0.930 . S
H382 C392 0.930 . S
H383 C394 0.930 . S
H384 C395 0.970 . S
H385 C395 0.970 . S
H386 C397 0.930 . S
H387 C399 0.930 . S
H388 C401 0.930 . S
C389 H381 0.930 . S
C389 C390 1.382 . S
C389 C391 1.426 . S
C390 C389 1.382 . S
C390 C394 1.389 . S
C391 C389 1.426 . S
C391 C392 1.375 . S
C391 C395 1.532 . S
C392 H382 0.930 . S
C392 C391 1.375 . S
C392 C393 1.416 . S
C393 C392 1.416 . S
C393 C394 1.371 . S
C394 H383 0.930 . S
C394 C390 1.389 . S
C394 C393 1.371 . S
C395 H384 0.970 . S
C395 H385 0.970 . S
C395 C391 1.532 . S
C395 C396 1.499 . S
C396 C395 1.499 . S
C396 C397 1.370 . S
C396 C401 1.415 . S
C397 H386 0.930 . S
C397 C396 1.370 . S
C397 C398 1.407 . S
C398 C397 1.407 . S
C398 C399 1.365 . S
C399 H387 0.930 . S
C399 C398 1.365 . S
C399 C400 1.393 . S
C400 C399 1.393 . S
C400 C401 1.387 . S
C401 H388 0.930 . S
C401 C396 1.415 . S
C401 C400 1.387 . S
H402 C410 0.930 . S
H403 C413 0.930 . S
H404 C415 0.930 . S
H405 C416 0.970 . S
H406 C416 0.970 . S
H407 C418 0.930 . S
H408 C420 0.930 . S
H409 C422 0.930 . S
C410 H402 0.930 . S
C410 C411 1.382 . S
C410 C412 1.426 . S
C411 C410 1.382 . S
C411 C415 1.389 . S
C412 C410 1.426 . S
C412 C413 1.375 . S
C412 C416 1.532 . S
C413 H403 0.930 . S
C413 C412 1.375 . S
C413 C414 1.416 . S
C414 C413 1.416 . S
C414 C415 1.371 . S
C415 H404 0.930 . S
C415 C411 1.389 . S
C415 C414 1.371 . S
C416 H405 0.970 . S
C416 H406 0.970 . S
C416 C412 1.532 . S
C416 C417 1.499 . S
C417 C416 1.499 . S
C417 C418 1.370 . S
C417 C422 1.415 . S
C418 H407 0.930 . S
C418 C417 1.370 . S
C418 C419 1.407 . S
C419 C418 1.407 . S
C419 C420 1.365 . S
C420 H408 0.930 . S
C420 C419 1.365 . S
C420 C421 1.393 . S
C421 C420 1.393 . S
C421 C422 1.387 . S
C422 H409 0.930 . S
C422 C417 1.415 . S
C422 C421 1.387 . S
H423 C431 0.930 . S
H424 C434 0.930 . S
H425 C436 0.930 . S
H426 C437 0.970 . S
H427 C437 0.970 . S
H428 C439 0.930 . S
H429 C441 0.930 . S
H430 C443 0.930 . S
C431 H423 0.930 . S
C431 C432 1.382 . S
C431 C433 1.426 . S
C432 C431 1.382 . S
C432 C436 1.389 . S
C433 C431 1.426 . S
C433 C434 1.375 . S
C433 C437 1.532 . S
C434 H424 0.930 . S
C434 C433 1.375 . S
C434 C435 1.416 . S
C435 C434 1.416 . S
C435 C436 1.371 . S
C436 H425 0.930 . S
C436 C432 1.389 . S
C436 C435 1.371 . S
C437 H426 0.970 . S
C437 H427 0.970 . S
C437 C433 1.532 . S
C437 C438 1.499 . S
C438 C437 1.499 . S
C438 C439 1.370 . S
C438 C443 1.415 . S
C439 H428 0.930 . S
C439 C438 1.370 . S
C439 C440 1.407 . S
C440 C439 1.407 . S
C440 C441 1.365 . S
C441 H429 0.930 . S
C441 C440 1.365 . S
C441 C442 1.393 . S
C442 C441 1.393 . S
C442 C443 1.387 . S
C443 H430 0.930 . S
C443 C438 1.415 . S
C443 C442 1.387 . S
H444 C450 0.930 . S
H445 C453 0.930 . S
H446 C454 0.930 . S
H447 C455 0.930 . S
H448 C458 0.930 . S
H449 C459 0.930 . S
C450 H444 0.930 . S
C450 C451 1.355 . S
C450 C452 1.415 . S
C451 C450 1.355 . S
C451 C453 1.419 . S
C452 C450 1.415 . S
C452 C457 1.425 . S
C452 C459 1.409 . S
C453 H445 0.930 . S
C453 C451 1.419 . S
C453 C454 1.362 . S
C454 H446 0.930 . S
C454 C453 1.362 . S
C454 C457 1.409 . S
C455 H447 0.930 . S
C455 C456 1.355 . S
C455 C457 1.415 . S
C456 C455 1.355 . S
C456 C458 1.419 . S
C457 C452 1.425 . S
C457 C454 1.409 . S
C457 C455 1.415 . S
C458 H448 0.930 . S
C458 C456 1.419 . S
C458 C459 1.362 . S
C459 H449 0.930 . S
C459 C452 1.409 . S
C459 C458 1.362 . S
H460 C466 0.930 . S
H461 C469 0.930 . S
H462 C470 0.930 . S
H463 C471 0.930 . S
H464 C474 0.930 . S
H465 C475 0.930 . S
C466 H460 0.930 . S
C466 C467 1.355 . S
C466 C468 1.415 . S
C467 C466 1.355 . S
C467 C469 1.419 . S
C468 C466 1.415 . S
C468 C473 1.425 . S
C468 C475 1.409 . S
C469 H461 0.930 . S
C469 C467 1.419 . S
C469 C470 1.362 . S
C470 H462 0.930 . S
C470 C469 1.362 . S
C470 C473 1.409 . S
C471 H463 0.930 . S
C471 C472 1.355 . S
C471 C473 1.415 . S
C472 C471 1.355 . S
C472 C474 1.419 . S
C473 C468 1.425 . S
C473 C470 1.409 . S
C473 C471 1.415 . S
C474 H464 0.930 . S
C474 C472 1.419 . S
C474 C475 1.362 . S
C475 H465 0.930 . S
C475 C468 1.409 . S
C475 C474 1.362 . S
H476 C482 0.930 . S
H477 C485 0.930 . S
H478 C486 0.930 . S
H479 C487 0.930 . S
H480 C490 0.930 . S
H481 C491 0.930 . S
C482 H476 0.930 . S
C482 C483 1.355 . S
C482 C484 1.415 . S
C483 C482 1.355 . S
C483 C485 1.419 . S
C484 C482 1.415 . S
C484 C489 1.425 . S
C484 C491 1.409 . S
C485 H477 0.930 . S
C485 C483 1.419 . S
C485 C486 1.362 . S
C486 H478 0.930 . S
C486 C485 1.362 . S
C486 C489 1.409 . S
C487 H479 0.930 . S
C487 C488 1.355 . S
C487 C489 1.415 . S
C488 C487 1.355 . S
C488 C490 1.419 . S
C489 C484 1.425 . S
C489 C486 1.409 . S
C489 C487 1.415 . S
C490 H480 0.930 . S
C490 C488 1.419 . S
C490 C491 1.362 . S
C491 H481 0.930 . S
C491 C484 1.409 . S
C491 C490 1.362 . S
H492 C498 0.930 . S
H493 C501 0.930 . S
H494 C502 0.930 . S
H495 C503 0.930 . S
H496 C506 0.930 . S
H497 C507 0.930 . S
C498 H492 0.930 . S
C498 C499 1.355 . S
C498 C500 1.415 . S
C499 C498 1.355 . S
C499 C501 1.419 . S
C500 C498 1.415 . S
C500 C505 1.425 . S
C500 C507 1.409 . S
C501 H493 0.930 . S
C501 C499 1.419 . S
C501 C502 1.362 . S
C502 H494 0.930 . S
C502 C501 1.362 . S
C502 C505 1.409 . S
C503 H495 0.930 . S
C503 C504 1.355 . S
C503 C505 1.415 . S
C504 C503 1.355 . S
C504 C506 1.419 . S
C505 C500 1.425 . S
C505 C502 1.409 . S
C505 C503 1.415 . S
C506 H496 0.930 . S
C506 C504 1.419 . S
C506 C507 1.362 . S
C507 H497 0.930 . S
C507 C500 1.409 . S
C507 C506 1.362 . S
H508 C514 0.930 . S
H509 C517 0.930 . S
H510 C518 0.930 . S
H511 C519 0.930 . S
H512 C522 0.930 . S
H513 C523 0.930 . S
C514 H508 0.930 . S
C514 C515 1.355 . S
C514 C516 1.415 . S
C515 C514 1.355 . S
C515 C517 1.419 . S
C516 C514 1.415 . S
C516 C521 1.425 . S
C516 C523 1.409 . S
C517 H509 0.930 . S
C517 C515 1.419 . S
C517 C518 1.362 . S
C518 H510 0.930 . S
C518 C517 1.362 . S
C518 C521 1.409 . S
C519 H511 0.930 . S
C519 C520 1.355 . S
C519 C521 1.415 . S
C520 C519 1.355 . S
C520 C522 1.419 . S
C521 C516 1.425 . S
C521 C518 1.409 . S
C521 C519 1.415 . S
C522 H512 0.930 . S
C522 C520 1.419 . S
C522 C523 1.362 . S
C523 H513 0.930 . S
C523 C516 1.409 . S
C523 C522 1.362 . S
H524 C530 0.930 . S
H525 C533 0.930 . S
H526 C534 0.930 . S
H527 C535 0.930 . S
H528 C538 0.930 . S
H529 C539 0.930 . S
C530 H524 0.930 . S
C530 C531 1.355 . S
C530 C532 1.415 . S
C531 C530 1.355 . S
C531 C533 1.419 . S
C532 C530 1.415 . S
C532 C537 1.425 . S
C532 C539 1.409 . S
C533 H525 0.930 . S
C533 C531 1.419 . S
C533 C534 1.362 . S
C534 H526 0.930 . S
C534 C533 1.362 . S
C534 C537 1.409 . S
C535 H527 0.930 . S
C535 C536 1.355 . S
C535 C537 1.415 . S
C536 C535 1.355 . S
C536 C538 1.419 . S
C537 C532 1.425 . S
C537 C534 1.409 . S
C537 C535 1.415 . S
C538 H528 0.930 . S
C538 C536 1.419 . S
C538 C539 1.362 . S
C539 H529 0.930 . S
C539 C532 1.409 . S
C539 C538 1.362 . S
H540 C546 0.930 . S
H541 C549 0.930 . S
H542 C550 0.930 . S
H543 C551 0.930 . S
H544 C554 0.930 . S
H545 C555 0.930 . S
C546 H540 0.930 . S
C546 C547 1.355 . S
C546 C548 1.415 . S
C547 C546 1.355 . S
C547 C549 1.419 . S
C548 C546 1.415 . S
C548 C553 1.425 . S
C548 C555 1.409 . S
C549 H541 0.930 . S
C549 C547 1.419 . S
C549 C550 1.362 . S
C550 H542 0.930 . S
C550 C549 1.362 . S
C550 C553 1.409 . S
C551 H543 0.930 . S
C551 C552 1.355 . S
C551 C553 1.415 . S
C552 C551 1.355 . S
C552 C554 1.419 . S
C553 C548 1.425 . S
C553 C550 1.409 . S
C553 C551 1.415 . S
C554 H544 0.930 . S
C554 C552 1.419 . S
C554 C555 1.362 . S
C555 H545 0.930 . S
C555 C548 1.409 . S
C555 C554 1.362 . S
H556 C562 0.930 . S
H557 C565 0.930 . S
H558 C566 0.930 . S
H559 C567 0.930 . S
H560 C570 0.930 . S
H561 C571 0.930 . S
C562 H556 0.930 . S
C562 C563 1.355 . S
C562 C564 1.415 . S
C563 C562 1.355 . S
C563 C565 1.419 . S
C564 C562 1.415 . S
C564 C569 1.425 . S
C564 C571 1.409 . S
C565 H557 0.930 . S
C565 C563 1.419 . S
C565 C566 1.362 . S
C566 H558 0.930 . S
C566 C565 1.362 . S
C566 C569 1.409 . S
C567 H559 0.930 . S
C567 C568 1.355 . S
C567 C569 1.415 . S
C568 C567 1.355 . S
C568 C570 1.419 . S
C569 C564 1.425 . S
C569 C566 1.409 . S
C569 C567 1.415 . S
C570 H560 0.930 . S
C570 C568 1.419 . S
C570 C571 1.362 . S
C571 H561 0.930 . S
C571 C564 1.409 . S
C571 C570 1.362 . S
H572 C578 0.930 . S
H573 C581 0.930 . S
H574 C582 0.930 . S
H575 C583 0.930 . S
H576 C586 0.930 . S
H577 C587 0.930 . S
C578 H572 0.930 . S
C578 C579 1.355 . S
C578 C580 1.415 . S
C579 C578 1.355 . S
C579 C581 1.419 . S
C580 C578 1.415 . S
C580 C585 1.425 . S
C580 C587 1.409 . S
C581 H573 0.930 . S
C581 C579 1.419 . S
C581 C582 1.362 . S
C582 H574 0.930 . S
C582 C581 1.362 . S
C582 C585 1.409 . S
C583 H575 0.930 . S
C583 C584 1.355 . S
C583 C585 1.415 . S
C584 C583 1.355 . S
C584 C586 1.419 . S
C585 C580 1.425 . S
C585 C582 1.409 . S
C585 C583 1.415 . S
C586 H576 0.930 . S
C586 C584 1.419 . S
C586 C587 1.362 . S
C587 H577 0.930 . S
C587 C580 1.409 . S
C587 C586 1.362 . S
H588 C594 0.930 . S
H589 C597 0.930 . S
H590 C598 0.930 . S
H591 C599 0.930 . S
H592 C602 0.930 . S
H593 C603 0.930 . S
C594 H588 0.930 . S
C594 C595 1.355 . S
C594 C596 1.415 . S
C595 C594 1.355 . S
C595 C597 1.419 . S
C596 C594 1.415 . S
C596 C601 1.425 . S
C596 C603 1.409 . S
C597 H589 0.930 . S
C597 C595 1.419 . S
C597 C598 1.362 . S
C598 H590 0.930 . S
C598 C597 1.362 . S
C598 C601 1.409 . S
C599 H591 0.930 . S
C599 C600 1.355 . S
C599 C601 1.415 . S
C600 C599 1.355 . S
C600 C602 1.419 . S
C601 C596 1.425 . S
C601 C598 1.409 . S
C601 C599 1.415 . S
C602 H592 0.930 . S
C602 C600 1.419 . S
C602 C603 1.362 . S
C603 H593 0.930 . S
C603 C596 1.409 . S
C603 C602 1.362 . S
H604 C610 0.930 . S
H605 C613 0.930 . S
H606 C614 0.930 . S
H607 C615 0.930 . S
H608 C618 0.930 . S
H609 C619 0.930 . S
C610 H604 0.930 . S
C610 C611 1.355 . S
C610 C612 1.415 . S
C611 C610 1.355 . S
C611 C613 1.419 . S
C612 C610 1.415 . S
C612 C617 1.425 . S
C612 C619 1.409 . S
C613 H605 0.930 . S
C613 C611 1.419 . S
C613 C614 1.362 . S
C614 H606 0.930 . S
C614 C613 1.362 . S
C614 C617 1.409 . S
C615 H607 0.930 . S
C615 C616 1.355 . S
C615 C617 1.415 . S
C616 C615 1.355 . S
C616 C618 1.419 . S
C617 C612 1.425 . S
C617 C614 1.409 . S
C617 C615 1.415 . S
C618 H608 0.930 . S
C618 C616 1.419 . S
C618 C619 1.362 . S
C619 H609 0.930 . S
C619 C612 1.409 . S
C619 C618 1.362 . S
H620 C626 0.930 . S
H621 C629 0.930 . S
H622 C630 0.930 . S
H623 C631 0.930 . S
H624 C634 0.930 . S
H625 C635 0.930 . S
C626 H620 0.930 . S
C626 C627 1.355 . S
C626 C628 1.415 . S
C627 C626 1.355 . S
C627 C629 1.419 . S
C628 C626 1.415 . S
C628 C633 1.425 . S
C628 C635 1.409 . S
C629 H621 0.930 . S
C629 C627 1.419 . S
C629 C630 1.362 . S
C630 H622 0.930 . S
C630 C629 1.362 . S
C630 C633 1.409 . S
C631 H623 0.930 . S
C631 C632 1.355 . S
C631 C633 1.415 . S
C632 C631 1.355 . S
C632 C634 1.419 . S
C633 C628 1.425 . S
C633 C630 1.409 . S
C633 C631 1.415 . S
C634 H624 0.930 . S
C634 C632 1.419 . S
C634 C635 1.362 . S
C635 H625 0.930 . S
C635 C628 1.409 . S
C635 C634 1.362 . S
H636 C642 0.930 . S
H637 C645 0.930 . S
H638 C646 0.930 . S
H639 C647 0.930 . S
H640 C650 0.930 . S
H641 C651 0.930 . S
C642 H636 0.930 . S
C642 C643 1.355 . S
C642 C644 1.415 . S
C643 C642 1.355 . S
C643 C645 1.419 . S
C644 C642 1.415 . S
C644 C649 1.425 . S
C644 C651 1.409 . S
C645 H637 0.930 . S
C645 C643 1.419 . S
C645 C646 1.362 . S
C646 H638 0.930 . S
C646 C645 1.362 . S
C646 C649 1.409 . S
C647 H639 0.930 . S
C647 C648 1.355 . S
C647 C649 1.415 . S
C648 C647 1.355 . S
C648 C650 1.419 . S
C649 C644 1.425 . S
C649 C646 1.409 . S
C649 C647 1.415 . S
C650 H640 0.930 . S
C650 C648 1.419 . S
C650 C651 1.362 . S
C651 H641 0.930 . S
C651 C644 1.409 . S
C651 C650 1.362 . S
H652 C658 0.930 . S
H653 C661 0.930 . S
H654 C662 0.930 . S
H655 C663 0.930 . S
H656 C666 0.930 . S
H657 C667 0.930 . S
C658 H652 0.930 . S
C658 C659 1.355 . S
C658 C660 1.415 . S
C659 C658 1.355 . S
C659 C661 1.419 . S
C660 C658 1.415 . S
C660 C665 1.425 . S
C660 C667 1.409 . S
C661 H653 0.930 . S
C661 C659 1.419 . S
C661 C662 1.362 . S
C662 H654 0.930 . S
C662 C661 1.362 . S
C662 C665 1.409 . S
C663 H655 0.930 . S
C663 C664 1.355 . S
C663 C665 1.415 . S
C664 C663 1.355 . S
C664 C666 1.419 . S
C665 C660 1.425 . S
C665 C662 1.409 . S
C665 C663 1.415 . S
C666 H656 0.930 . S
C666 C664 1.419 . S
C666 C667 1.362 . S
C667 H657 0.930 . S
C667 C660 1.409 . S
C667 C666 1.362 . S
H668 C674 0.930 . S
H669 C677 0.930 . S
H670 C678 0.930 . S
H671 C679 0.930 . S
H672 C682 0.930 . S
H673 C683 0.930 . S
C674 H668 0.930 . S
C674 C675 1.355 . S
C674 C676 1.415 . S
C675 C674 1.355 . S
C675 C677 1.419 . S
C676 C674 1.415 . S
C676 C681 1.425 . S
C676 C683 1.409 . S
C677 H669 0.930 . S
C677 C675 1.419 . S
C677 C678 1.362 . S
C678 H670 0.930 . S
C678 C677 1.362 . S
C678 C681 1.409 . S
C679 H671 0.930 . S
C679 C680 1.355 . S
C679 C681 1.415 . S
C680 C679 1.355 . S
C680 C682 1.419 . S
C681 C676 1.425 . S
C681 C678 1.409 . S
C681 C679 1.415 . S
C682 H672 0.930 . S
C682 C680 1.419 . S
C682 C683 1.362 . S
C683 H673 0.930 . S
C683 C676 1.409 . S
C683 C682 1.362 . S
H684 C690 0.930 . S
H685 C693 0.930 . S
H686 C694 0.930 . S
H687 C695 0.930 . S
H688 C698 0.930 . S
H689 C699 0.930 . S
C690 H684 0.930 . S
C690 C691 1.355 . S
C690 C692 1.415 . S
C691 C690 1.355 . S
C691 C693 1.419 . S
C692 C690 1.415 . S
C692 C697 1.425 . S
C692 C699 1.409 . S
C693 H685 0.930 . S
C693 C691 1.419 . S
C693 C694 1.362 . S
C694 H686 0.930 . S
C694 C693 1.362 . S
C694 C697 1.409 . S
C695 H687 0.930 . S
C695 C696 1.355 . S
C695 C697 1.415 . S
C696 C695 1.355 . S
C696 C698 1.419 . S
C697 C692 1.425 . S
C697 C694 1.409 . S
C697 C695 1.415 . S
C698 H688 0.930 . S
C698 C696 1.419 . S
C698 C699 1.362 . S
C699 H689 0.930 . S
C699 C692 1.409 . S
C699 C698 1.362 . S
H700 C706 0.930 . S
H701 C709 0.930 . S
H702 C710 0.930 . S
H703 C711 0.930 . S
H704 C714 0.930 . S
H705 C715 0.930 . S
C706 H700 0.930 . S
C706 C707 1.355 . S
C706 C708 1.415 . S
C707 C706 1.355 . S
C707 C709 1.419 . S
C708 C706 1.415 . S
C708 C713 1.425 . S
C708 C715 1.409 . S
C709 H701 0.930 . S
C709 C707 1.419 . S
C709 C710 1.362 . S
C710 H702 0.930 . S
C710 C709 1.362 . S
C710 C713 1.409 . S
C711 H703 0.930 . S
C711 C712 1.355 . S
C711 C713 1.415 . S
C712 C711 1.355 . S
C712 C714 1.419 . S
C713 C708 1.425 . S
C713 C710 1.409 . S
C713 C711 1.415 . S
C714 H704 0.930 . S
C714 C712 1.419 . S
C714 C715 1.362 . S
C715 H705 0.930 . S
C715 C708 1.409 . S
C715 C714 1.362 . S
H716 C722 0.930 . S
H717 C725 0.930 . S
H718 C726 0.930 . S
H719 C727 0.930 . S
H720 C730 0.930 . S
H721 C731 0.930 . S
C722 H716 0.930 . S
C722 C723 1.355 . S
C722 C724 1.415 . S
C723 C722 1.355 . S
C723 C725 1.419 . S
C724 C722 1.415 . S
C724 C729 1.425 . S
C724 C731 1.409 . S
C725 H717 0.930 . S
C725 C723 1.419 . S
C725 C726 1.362 . S
C726 H718 0.930 . S
C726 C725 1.362 . S
C726 C729 1.409 . S
C727 H719 0.930 . S
C727 C728 1.355 . S
C727 C729 1.415 . S
C728 C727 1.355 . S
C728 C730 1.419 . S
C729 C724 1.425 . S
C729 C726 1.409 . S
C729 C727 1.415 . S
C730 H720 0.930 . S
C730 C728 1.419 . S
C730 C731 1.362 . S
C731 H721 0.930 . S
C731 C724 1.409 . S
C731 C730 1.362 . S
H732 C738 0.930 . S
H733 C741 0.930 . S
H734 C742 0.930 . S
H735 C743 0.930 . S
H736 C746 0.930 . S
H737 C747 0.930 . S
C738 H732 0.930 . S
C738 C739 1.355 . S
C738 C740 1.415 . S
C739 C738 1.355 . S
C739 C741 1.419 . S
C740 C738 1.415 . S
C740 C745 1.425 . S
C740 C747 1.409 . S
C741 H733 0.930 . S
C741 C739 1.419 . S
C741 C742 1.362 . S
C742 H734 0.930 . S
C742 C741 1.362 . S
C742 C745 1.409 . S
C743 H735 0.930 . S
C743 C744 1.355 . S
C743 C745 1.415 . S
C744 C743 1.355 . S
C744 C746 1.419 . S
C745 C740 1.425 . S
C745 C742 1.409 . S
C745 C743 1.415 . S
C746 H736 0.930 . S
C746 C744 1.419 . S
C746 C747 1.362 . S
C747 H737 0.930 . S
C747 C740 1.409 . S
C747 C746 1.362 . S
H748 C754 0.930 . S
H749 C757 0.930 . S
H750 C758 0.930 . S
H751 C759 0.930 . S
H752 C762 0.930 . S
H753 C763 0.930 . S
C754 H748 0.930 . S
C754 C755 1.355 . S
C754 C756 1.415 . S
C755 C754 1.355 . S
C755 C757 1.419 . S
C756 C754 1.415 . S
C756 C761 1.425 . S
C756 C763 1.409 . S
C757 H749 0.930 . S
C757 C755 1.419 . S
C757 C758 1.362 . S
C758 H750 0.930 . S
C758 C757 1.362 . S
C758 C761 1.409 . S
C759 H751 0.930 . S
C759 C760 1.355 . S
C759 C761 1.415 . S
C760 C759 1.355 . S
C760 C762 1.419 . S
C761 C756 1.425 . S
C761 C758 1.409 . S
C761 C759 1.415 . S
C762 H752 0.930 . S
C762 C760 1.419 . S
C762 C763 1.362 . S
C763 H753 0.930 . S
C763 C756 1.409 . S
C763 C762 1.362 . S
H764 C770 0.930 . S
H765 C773 0.930 . S
H766 C774 0.930 . S
H767 C775 0.930 . S
H768 C778 0.930 . S
H769 C779 0.930 . S
C770 H764 0.930 . S
C770 C771 1.355 . S
C770 C772 1.415 . S
C771 C770 1.355 . S
C771 C773 1.419 . S
C772 C770 1.415 . S
C772 C777 1.425 . S
C772 C779 1.409 . S
C773 H765 0.930 . S
C773 C771 1.419 . S
C773 C774 1.362 . S
C774 H766 0.930 . S
C774 C773 1.362 . S
C774 C777 1.409 . S
C775 H767 0.930 . S
C775 C776 1.355 . S
C775 C777 1.415 . S
C776 C775 1.355 . S
C776 C778 1.419 . S
C777 C772 1.425 . S
C777 C774 1.409 . S
C777 C775 1.415 . S
C778 H768 0.930 . S
C778 C776 1.419 . S
C778 C779 1.362 . S
C779 H769 0.930 . S
C779 C772 1.409 . S
C779 C778 1.362 . S
H780 C786 0.930 . S
H781 C789 0.930 . S
H782 C790 0.930 . S
H783 C791 0.930 . S
H784 C794 0.930 . S
H785 C795 0.930 . S
C786 H780 0.930 . S
C786 C787 1.355 . S
C786 C788 1.415 . S
C787 C786 1.355 . S
C787 C789 1.419 . S
C788 C786 1.415 . S
C788 C793 1.425 . S
C788 C795 1.409 . S
C789 H781 0.930 . S
C789 C787 1.419 . S
C789 C790 1.362 . S
C790 H782 0.930 . S
C790 C789 1.362 . S
C790 C793 1.409 . S
C791 H783 0.930 . S
C791 C792 1.355 . S
C791 C793 1.415 . S
C792 C791 1.355 . S
C792 C794 1.419 . S
C793 C788 1.425 . S
C793 C790 1.409 . S
C793 C791 1.415 . S
C794 H784 0.930 . S
C794 C792 1.419 . S
C794 C795 1.362 . S
C795 H785 0.930 . S
C795 C788 1.409 . S
C795 C794 1.362 . S
H796 C802 0.930 . S
H797 C805 0.930 . S
H798 C806 0.930 . S
H799 C807 0.930 . S
H800 C810 0.930 . S
H801 C811 0.930 . S
C802 H796 0.930 . S
C802 C803 1.355 . S
C802 C804 1.415 . S
C803 C802 1.355 . S
C803 C805 1.419 . S
C804 C802 1.415 . S
C804 C809 1.425 . S
C804 C811 1.409 . S
C805 H797 0.930 . S
C805 C803 1.419 . S
C805 C806 1.362 . S
C806 H798 0.930 . S
C806 C805 1.362 . S
C806 C809 1.409 . S
C807 H799 0.930 . S
C807 C808 1.355 . S
C807 C809 1.415 . S
C808 C807 1.355 . S
C808 C810 1.419 . S
C809 C804 1.425 . S
C809 C806 1.409 . S
C809 C807 1.415 . S
C810 H800 0.930 . S
C810 C808 1.419 . S
C810 C811 1.362 . S
C811 H801 0.930 . S
C811 C804 1.409 . S
C811 C810 1.362 . S
H812 C818 0.930 . S
H813 C821 0.930 . S
H814 C822 0.930 . S
H815 C823 0.930 . S
H816 C826 0.930 . S
H817 C827 0.930 . S
C818 H812 0.930 . S
C818 C819 1.355 . S
C818 C820 1.415 . S
C819 C818 1.355 . S
C819 C821 1.419 . S
C820 C818 1.415 . S
C820 C825 1.425 . S
C820 C827 1.409 . S
C821 H813 0.930 . S
C821 C819 1.419 . S
C821 C822 1.362 . S
C822 H814 0.930 . S
C822 C821 1.362 . S
C822 C825 1.409 . S
C823 H815 0.930 . S
C823 C824 1.355 . S
C823 C825 1.415 . S
C824 C823 1.355 . S
C824 C826 1.419 . S
C825 C820 1.425 . S
C825 C822 1.409 . S
C825 C823 1.415 . S
C826 H816 0.930 . S
C826 C824 1.419 . S
C826 C827 1.362 . S
C827 H817 0.930 . S
C827 C820 1.409 . S
C827 C826 1.362 . S
C451 C39 1.659 . S
C456 C327 1.462 . S
C467 C91 1.651 . S
C472 C348 1.518 . S
C488 C369 1.354 . S
C483 C128 1.470 . S
C504 C398 1.412 . S
C499 C188 1.470 . S
C520 C411 1.457 . S
C515 C250 1.516 . S
C536 C435 1.541 . S
C531 C304 1.662 . S
C547 C75 1.554 . S
C552 C379 1.453 . S
C563 C144 1.702 . S
C568 C393 1.545 . S
C584 C421 1.498 . S
C579 C198 1.598 . S
C600 C440 1.462 . S
C595 C234 1.513 . S
C611 C294 1.407 . S
C616 C337 1.298 . S
C632 C358 1.360 . S
C627 C29 1.491 . S
C648 C400 1.626 . S
C643 C38 1.686 . S
C659 C92 1.684 . S
C664 C414 1.548 . S
C680 C432 1.473 . S
C675 C135 1.499 . S
C691 C181 1.500 . S
C696 C330 1.417 . S
C707 C251 1.555 . S
C712 C351 1.458 . S
C723 C303 1.686 . S
C728 C372 1.483 . S
C739 C82 1.566 . S
C744 C442 1.451 . S
C760 C335 1.507 . S
C755 C145 1.727 . S
C771 C197 1.622 . S
C776 C356 1.472 . S
C787 C241 1.526 . S
C792 C377 1.343 . S
C803 C287 1.433 . S
C808 C390 1.414 . S
C819 C22 1.526 . S
C824 C419 1.445 . S
