# Generated by pormake.
# Topology zzz, (3,6)-cn, num edge types: 1
# Building blocks:
#     Node 0, Type 0, BuildingBlock: BELTOD_clean_linker_0, # of connection points: 3
#     Node 1, Type 0, BuildingBlock: BELTOD_clean_linker_0, # of connection points: 3
#     Node 2, Type 0, BuildingBlock: BELTOD_clean_linker_0, # of connection points: 3
#     Node 3, Type 0, BuildingBlock: BELTOD_clean_linker_0, # of connection points: 3
#     Node 4, Type 0, BuildingBlock: BELTOD_clean_linker_0, # of connection points: 3
#     Node 5, Type 0, BuildingBlock: BELTOD_clean_linker_0, # of connection points: 3
#     Node 6, Type 0, BuildingBlock: BELTOD_clean_linker_0, # of connection points: 3
#     Node 7, Type 0, BuildingBlock: BELTOD_clean_linker_0, # of connection points: 3
#     Node 8, Type 1, BuildingBlock: HISSIN_clean_sbu_0, # of connection points: 6
#     Node 9, Type 1, BuildingBlock: HISSIN_clean_sbu_0, # of connection points: 6
#     Node 10, Type 1, BuildingBlock: HISSIN_clean_sbu_0, # of connection points: 6
#     Node 11, Type 1, BuildingBlock: HISSIN_clean_sbu_0, # of connection points: 6
#     Edge 12, Type (0, 1), BuildingBlock: UVAHIK_clean_linker_0, # of connection points: 2
#     Edge 13, Type (0, 1), BuildingBlock: UVAHIK_clean_linker_0, # of connection points: 2
#     Edge 14, Type (0, 1), BuildingBlock: UVAHIK_clean_linker_0, # of connection points: 2
#     Edge 15, Type (0, 1), BuildingBlock: UVAHIK_clean_linker_0, # of connection points: 2
#     Edge 16, Type (0, 1), BuildingBlock: UVAHIK_clean_linker_0, # of connection points: 2
#     Edge 17, Type (0, 1), BuildingBlock: UVAHIK_clean_linker_0, # of connection points: 2
#     Edge 18, Type (0, 1), BuildingBlock: UVAHIK_clean_linker_0, # of connection points: 2
#     Edge 19, Type (0, 1), BuildingBlock: UVAHIK_clean_linker_0, # of connection points: 2
#     Edge 20, Type (0, 1), BuildingBlock: UVAHIK_clean_linker_0, # of connection points: 2
#     Edge 21, Type (0, 1), BuildingBlock: UVAHIK_clean_linker_0, # of connection points: 2
#     Edge 22, Type (0, 1), BuildingBlock: UVAHIK_clean_linker_0, # of connection points: 2
#     Edge 23, Type (0, 1), BuildingBlock: UVAHIK_clean_linker_0, # of connection points: 2
#     Edge 24, Type (0, 1), BuildingBlock: UVAHIK_clean_linker_0, # of connection points: 2
#     Edge 25, Type (0, 1), BuildingBlock: UVAHIK_clean_linker_0, # of connection points: 2
#     Edge 26, Type (0, 1), BuildingBlock: UVAHIK_clean_linker_0, # of connection points: 2
#     Edge 27, Type (0, 1), BuildingBlock: UVAHIK_clean_linker_0, # of connection points: 2
#     Edge 28, Type (0, 1), BuildingBlock: UVAHIK_clean_linker_0, # of connection points: 2
#     Edge 29, Type (0, 1), BuildingBlock: UVAHIK_clean_linker_0, # of connection points: 2
#     Edge 30, Type (0, 1), BuildingBlock: UVAHIK_clean_linker_0, # of connection points: 2
#     Edge 31, Type (0, 1), BuildingBlock: UVAHIK_clean_linker_0, # of connection points: 2
#     Edge 32, Type (0, 1), BuildingBlock: UVAHIK_clean_linker_0, # of connection points: 2
#     Edge 33, Type (0, 1), BuildingBlock: UVAHIK_clean_linker_0, # of connection points: 2
#     Edge 34, Type (0, 1), BuildingBlock: UVAHIK_clean_linker_0, # of connection points: 2
#     Edge 35, Type (0, 1), BuildingBlock: UVAHIK_clean_linker_0, # of connection points: 2
# Relax obj value: 0.344
# Max RMSD: 0.210
# Mean RMSD: 0.178
data_MOF--net-zzz--node1-HISSIN_clean_sbu_0--node2-BELTOD_clean_linker_0--edge1-UVAHIK_clean_linker_0
_symmetry_space_group_name_H-M    P1
_symmetry_Int_Tables_number       1
_symmetry_cell_setting            triclinic
loop_
_symmetry_equiv_pos_as_xyz
'x, y, z'
_cell_length_a     66.251437
_cell_length_b     66.663859
_cell_length_c     25.326772
_cell_angle_alpha  89.679978
_cell_angle_beta   92.435055
_cell_angle_gamma 91.622866
loop_
_atom_site_label
_atom_site_type_symbol
_atom_site_fract_x
_atom_site_fract_y
_atom_site_fract_z
_atom_type_partial_charge
P0 P 0.72509 0.5232 0.2711 0.0
H1 H 0.73635 0.51595 0.38206 0.0
H2 H 0.76631 0.52643 0.43378 0.0
H3 H 0.77958 0.57178 0.31655 0.0
H4 H 0.74998 0.56034 0.26346 0.0
H5 H 0.68117 0.51775 0.26634 0.0
H6 H 0.65544 0.52887 0.20263 0.0
H7 H 0.69925 0.56908 0.13279 0.0
H8 H 0.72522 0.55731 0.19603 0.0
H9 H 0.76535 0.50704 0.2856 0.0
H10 H 0.72255 0.51661 0.15515 0.0
O11 O 0.71466 0.50349 0.3017 0.0
H12 H 0.79036 0.49699 0.22417 0.0
H13 H 0.74784 0.50731 0.09329 0.0
C14 C 0.74074 0.53734 0.31867 0.0
C15 C 0.74519 0.52868 0.36826 0.0
C16 C 0.76252 0.53474 0.39805 0.0
C17 C 0.77577 0.54973 0.37904 0.0
C18 C 0.77007 0.55982 0.33191 0.0
C19 C 0.75282 0.55357 0.30183 0.0
C20 C 0.70523 0.53662 0.23614 0.0
C21 C 0.68521 0.52938 0.23842 0.0
C22 C 0.67039 0.53584 0.2018 0.0
C23 C 0.67527 0.54971 0.16194 0.0
C24 C 0.69502 0.55814 0.16239 0.0
C25 C 0.70986 0.55167 0.19924 0.0
C26 C 0.74234 0.51351 0.22501 0.0
C27 C 0.76134 0.50717 0.24373 0.0
C28 C 0.7757 0.50149 0.20849 0.0
C29 C 0.77128 0.50186 0.15373 0.0
C30 C 0.75178 0.50699 0.13522 0.0
C31 C 0.73735 0.51259 0.17066 0.0
P32 P 0.02317 0.73903 0.22478 0.0
H33 H 0.04923 0.75302 0.31402 0.0
H34 H 0.04254 0.77659 0.38361 0.0
H35 H 0.97841 0.76875 0.34917 0.0
H36 H 0.98529 0.74506 0.27893 0.0
H37 H 0.05232 0.70978 0.194 0.0
H38 H 0.04784 0.67914 0.14392 0.0
H39 H 0.98372 0.67881 0.16955 0.0
H40 H 0.98838 0.71033 0.21868 0.0
H41 H 0.00747 0.77957 0.22505 0.0
H42 H 0.00591 0.7292 0.11821 0.0
O43 O 0.04686 0.74648 0.21324 0.0
H44 H 0.98821 0.7989 0.16008 0.0
H45 H 0.98649 0.7486 0.05307 0.0
C46 C 0.01779 0.74751 0.29042 0.0
C47 C 0.03367 0.75567 0.32268 0.0
C48 C 0.02981 0.76927 0.36266 0.0
C49 C 0.00994 0.77502 0.37118 0.0
C50 C 0.99392 0.76499 0.34289 0.0
C51 C 0.99782 0.75118 0.3032 0.0
C52 C 0.02068 0.71252 0.21002 0.0
C53 C 0.03735 0.70286 0.19061 0.0
C54 C 0.03473 0.68514 0.16167 0.0
C55 C 0.01533 0.6765 0.15154 0.0
C56 C 0.99884 0.68522 0.17542 0.0
C57 C 1.00151 0.70306 0.2045 0.0
C58 C 0.00743 0.75255 0.1778 0.0
C59 C 1.00239 0.77236 0.18849 0.0
C60 C 0.99128 0.78343 0.15126 0.0
C61 C 0.98544 0.7751 0.10192 0.0
C62 C 0.99054 0.75528 0.09109 0.0
C63 C 1.00158 0.74415 0.12858 0.0
P64 P 0.77796 1.00093 0.18424 0.0
H65 H 0.78048 0.00468 0.29999 0.0
H66 H 0.75475 0.99958 0.36614 0.0
H67 H 0.71508 0.97094 0.24786 0.0
H68 H 0.74029 0.97607 0.18314 0.0
H69 H 0.81249 0.02895 0.17698 0.0
H70 H 0.84382 0.02518 0.13209 0.0
H71 H 0.83395 0.96095 0.13052 0.0
H72 H 0.80278 0.96473 0.17783 0.0
H73 H 0.7648 0.02257 0.08877 0.0
H74 H 0.77078 0.9609 0.138 0.0
O75 O 0.77457 0.0256 0.1877 0.0
H76 H 0.75212 0.01157 1.00212 0.0
H77 H 0.75906 0.94968 0.0501 0.0
C78 C 0.76286 0.99029 0.23643 0.0
C79 C 0.76658 0.99654 0.28892 0.0
C80 C 0.75167 0.9939 0.32656 0.0
C81 C 0.73267 0.98491 0.3125 0.0
C82 C 0.72953 0.97762 0.26074 0.0
C83 C 0.74428 0.98044 0.22328 0.0
C84 C 0.80488 0.99715 0.18032 0.0
C85 C 0.81741 0.01392 0.16956 0.0
C86 C 0.83539 0.01178 0.14327 0.0
C87 C 0.84114 0.9928 0.12642 0.0
C88 C 0.82971 0.97582 0.14201 0.0
C89 C 0.81191 0.97798 0.1695 0.0
C90 C 0.76835 0.99258 0.12027 0.0
C91 C 0.76353 0.00664 0.08088 0.0
C92 C 0.75664 1.00028 0.03081 0.0
C93 C 0.75472 0.97968 0.01886 0.0
C94 C 0.76026 0.96562 0.058 0.0
C95 C 0.76703 0.97204 0.10824 0.0
P96 P 0.47212 0.79984 0.24202 0.0
H97 H 0.47095 0.79236 0.35573 0.0
H98 H 0.48226 0.76413 0.40991 0.0
H99 H 0.51456 0.74177 0.27903 0.0
H100 H 0.503 0.77005 0.22449 0.0
H101 H 0.45879 0.8373 0.19756 0.0
H102 H 0.47425 0.86221 0.14067 0.0
H103 H 0.53075 0.83135 0.15537 0.0
H104 H 0.51482 0.80606 0.21221 0.0
H105 H 0.43703 0.77252 0.24245 0.0
H106 H 0.48221 0.7909 0.13295 0.0
O107 O 0.45382 0.81002 0.27543 0.0
H108 H 0.42305 0.74791 0.17832 0.0
H109 H 0.46855 0.76637 0.06933 0.0
C110 C 0.48616 0.78341 0.28597 0.0
C111 C 0.48096 0.78177 0.33896 0.0
C112 C 0.48729 0.76551 0.36988 0.0
C113 C 0.49906 0.75059 0.3485 0.0
C114 C 0.50558 0.75307 0.29666 0.0
C115 C 0.49906 0.7693 0.26553 0.0
C116 C 0.48572 0.82002 0.21005 0.0
C117 C 0.47467 0.83615 0.18985 0.0
C118 C 0.48359 0.85046 0.15719 0.0
C119 C 0.50384 0.84894 0.14348 0.0
C120 C 0.5151 0.83295 0.16487 0.0
C121 C 0.50608 0.81857 0.19783 0.0
C122 C 0.46036 0.78384 0.19206 0.0
C123 C 0.44368 0.77153 0.20425 0.0
C124 C 0.43582 0.75739 0.16778 0.0
C125 C 0.44463 0.75529 0.11863 0.0
C126 C 0.46115 0.76791 0.10636 0.0
C127 C 0.46902 0.78196 0.14288 0.0
P128 P 0.28988 0.42344 0.03687 0.0
H129 H 0.27779 0.41057 0.9294 0.0
H130 H 0.252 0.423 0.86682 0.0
H131 H 0.24641 0.47565 0.96315 0.0
H132 H 0.27239 0.46323 0.02529 0.0
H133 H 0.32391 0.40365 0.08747 0.0
H134 H 0.35444 0.41626 0.13417 0.0
H135 H 0.341 0.47648 0.08259 0.0
H136 H 0.31022 0.46361 0.03552 0.0
H137 H 0.25089 0.40477 0.0587 0.0
H138 H 0.29191 0.44878 0.13202 0.0
O139 O 0.29116 0.39907 0.02292 0.0
H140 H 0.22547 0.41258 0.12233 0.0
H141 H 0.26667 0.45694 0.19421 0.0
C142 C 0.27708 0.43594 0.98216 0.0
C143 C 0.27155 0.42511 0.93624 0.0
C144 C 0.25659 0.43214 0.9007 0.0
C145 C 0.24683 0.45014 0.91045 0.0
C146 C 0.25363 0.46178 0.95422 0.0
C147 C 0.26861 0.45472 0.98977 0.0
C148 C 0.31489 0.43261 0.05726 0.0
C149 C 0.32784 0.41948 0.08454 0.0
C150 C 0.34535 0.42674 0.11143 0.0
C151 C 0.35019 0.44741 0.11233 0.0
C152 C 0.33763 0.46049 0.08299 0.0
C153 C 0.32014 0.45314 0.05556 0.0
C154 C 0.27341 0.42595 0.09093 0.0
C155 C 0.25462 0.41573 0.08925 0.0
C156 C 0.24004 0.42036 0.12524 0.0
C157 C 0.24402 0.43544 0.16323 0.0
C158 C 0.2632 0.44502 0.16608 0.0
C159 C 0.27772 0.44037 0.13017 0.0
P160 P 0.06952 0.29262 0.02429 0.0
H161 H 0.06896 0.28652 0.9094 0.0
H162 H 0.05548 0.25808 0.85721 0.0
H163 H 0.02035 0.23836 0.98831 0.0
H164 H 0.03338 0.26718 0.03992 0.0
H165 H 0.09166 0.32559 0.07474 0.0
H166 H 0.08238 0.35142 0.13615 0.0
H167 H 0.01963 0.33285 0.11489 0.0
H168 H 0.02912 0.30671 0.0528 0.0
H169 H 0.09245 0.25629 0.01787 0.0
H170 H 0.05908 0.28643 0.13523 0.0
O171 O 0.09039 0.29921 0.99301 0.0
H172 H 0.09048 0.22525 0.06953 0.0
H173 H 0.05734 0.25568 0.18687 0.0
C174 C 0.05233 0.27902 0.97888 0.0
C175 C 0.05759 0.27671 0.92616 0.0
C176 C 0.04997 0.2603 0.89635 0.0
C177 C 0.03719 0.24576 0.91908 0.0
C178 C 0.03037 0.2492 0.96999 0.0
C179 C 0.03765 0.26585 0.99931 0.0
C180 C 0.06107 0.31444 0.05831 0.0
C181 C 0.07581 0.32737 0.08199 0.0
C182 C 0.07053 0.34201 0.11767 0.0
C183 C 0.05031 0.34407 0.13079 0.0
C184 C 0.03533 0.33169 0.1053 0.0
C185 C 0.04071 0.31682 0.06965 0.0
C186 C 0.07592 0.2737 0.07251 0.0
C187 C 0.0856 0.25653 0.05595 0.0
C188 C 0.0844 0.23877 0.08538 0.0
C189 C 0.07344 0.23804 0.13161 0.0
C190 C 0.06563 0.25581 0.15088 0.0
C191 C 0.06678 0.2735 0.12144 0.0
P192 P 0.2308 0.05887 0.02019 0.0
H193 H 0.2335 0.05039 0.90721 0.0
H194 H 0.26131 0.03834 0.857 0.0
H195 H 0.29282 0.02149 1.00268 0.0
H196 H 0.2646 0.033 0.05247 0.0
H197 H 0.19099 0.07392 0.03691 0.0
H198 H 0.16564 0.06516 0.10026 0.0
H199 H 0.19826 0.01212 0.14493 0.0
H200 H 0.22376 0.02094 0.08003 0.0
H201 H 0.26601 0.08562 0.01128 0.0
H202 H 0.23225 0.05906 0.13721 0.0
O203 O 0.22238 0.07656 0.97857 0.0
H204 H 0.29299 0.09572 0.07542 0.0
H205 H 0.25909 0.06806 0.20011 0.0
C206 C 0.24695 0.04284 0.98378 0.0
C207 C 0.24605 0.04347 0.92836 0.0
C208 C 0.2622 0.03684 0.89962 0.0
C209 C 0.2797 0.02944 0.92566 0.0
C210 C 0.2797 0.0271 0.98103 0.0
C211 C 0.26345 0.03365 0.00971 0.0
C212 C 0.20922 0.04798 0.05293 0.0
C213 C 0.19242 0.05999 0.05874 0.0
C214 C 0.17802 0.05512 0.09577 0.0
C215 C 0.18009 0.03816 0.12856 0.0
C216 C 0.19618 0.02528 0.12026 0.0
C217 C 0.21069 0.03021 0.08283 0.0
C218 C 0.24725 0.07124 0.06905 0.0
C219 C 0.26415 0.0824 0.05279 0.0
C220 C 0.27962 0.08803 0.08946 0.0
C221 C 0.27845 0.0824 0.14292 0.0
C222 C 0.26059 0.07285 0.15952 0.0
C223 C 0.24516 0.06736 0.12299 0.0
P224 P 0.47606 0.25091 0.07149 0.0
H225 H 0.4493 0.26491 0.98479 0.0
H226 H 0.45662 0.2866 0.9099 0.0
H227 H 0.52036 0.27645 0.93593 0.0
H228 H 0.51289 0.25465 0.01115 0.0
H229 H 0.44643 0.22245 0.11302 0.0
H230 H 0.45003 0.19012 0.15608 0.0
H231 H 0.5119 0.18844 0.10901 0.0
H232 H 0.50821 0.22137 0.06639 0.0
H233 H 0.49207 0.29194 0.06662 0.0
H234 H 0.49932 0.24076 0.17029 0.0
O235 O 0.45338 0.25893 0.08658 0.0
H236 H 0.51765 0.31066 0.11943 0.0
H237 H 0.52514 0.25944 0.22298 0.0
C238 C 0.48056 0.25837 0.00417 0.0
C239 C 0.4648 0.26664 0.97321 0.0
C240 C 0.46902 0.27913 0.93025 0.0
C241 C 0.48913 0.28365 0.91767 0.0
C242 C 0.50474 0.27356 0.94524 0.0
C243 C 0.50046 0.26086 0.98785 0.0
C244 C 0.47706 0.22441 0.08644 0.0
C245 C 0.46062 0.21494 0.1104 0.0
C246 C 0.4627 0.1963 0.13514 0.0
C247 C 0.48134 0.18667 0.13668 0.0
C248 C 0.49742 0.19556 0.10931 0.0
C249 C 0.49526 0.21425 0.08424 0.0
C250 C 0.49432 0.26465 0.11306 0.0
C251 C 0.49936 0.28459 0.10026 0.0
C252 C 0.51407 0.29527 0.13036 0.0
C253 C 0.52375 0.28634 0.17459 0.0
C254 C 0.51808 0.26662 0.18874 0.0
C255 C 0.5034 0.25588 0.15832 0.0
Eu256 Eu 0.99668 0.01815 0.59524 0.0
Eu257 Eu 0.03263 0.00423 0.67873 0.0
C258 C 0.02196 0.05062 0.66976 0.0
C259 C 0.97588 0.0472 0.48462 0.0
C260 C 0.99257 0.06017 0.49558 0.0
C261 C 0.97375 0.05998 0.39466 0.0
C262 C 1.00013 0.0725 0.45621 0.0
C263 C 0.96628 0.04735 0.4342 0.0
C264 C 0.9911 0.07219 0.40514 0.0
C265 C 0.97125 0.03141 0.52311 0.0
O266 O 1.00483 0.00829 0.72604 0.0
O267 O 0.97967 0.00381 0.66199 0.0
C268 C 0.98575 0.00464 0.71207 0.0
O269 O 1.0029 0.98609 0.57477 0.0
O270 O 0.04679 0.00425 0.75819 0.0
O271 O 0.0596 0.987 0.69664 0.0
O272 O 0.01573 0.97555 0.65494 0.0
C273 C 0.00802 0.97158 0.60745 0.0
O274 O 0.02575 0.028 0.55792 0.0
O275 O 0.04726 0.00627 0.5998 0.0
O276 O 0.03662 0.03791 0.67719 0.0
O277 O 0.98149 0.01523 0.51747 0.0
O278 O 0.97133 0.03708 0.57236 0.0
O279 O 1.00457 0.04523 0.64638 0.0
C280 C 0.05521 0.97105 0.77905 0.0
C281 C 0.05287 0.95234 0.7537 0.0
C282 C 0.0407 0.95633 0.85734 0.0
C283 C 0.04349 0.93618 0.77883 0.0
C284 C 0.05004 0.97257 0.83209 0.0
C285 C 0.03645 0.93835 0.82988 0.0
C286 C 0.05843 0.98947 0.74747 0.0
C287 C 0.04285 0.0185 0.56042 0.0
H288 H 1.00037 0.06012 0.53406 0.0
H289 H 0.96655 0.05957 0.35545 0.0
H290 H 0.01333 0.08201 0.46541 0.0
H291 H 0.95361 0.03718 0.42487 0.0
H292 H 0.05688 0.95051 0.71302 0.0
H293 H 0.03552 0.95833 0.89691 0.0
H294 H 0.04085 0.92228 0.75732 0.0
H295 H 0.05173 0.98677 0.85262 0.0
Eu296 Eu 0.51658 0.02536 0.65691 0.0
Eu297 Eu 0.49746 0.98872 0.58483 0.0
C298 C 0.51769 0.98007 0.70036 0.0
C299 C 0.55736 0.05486 0.72461 0.0
C300 C 0.56381 0.05114 0.77711 0.0
C301 C 0.59147 0.04943 0.69691 0.0
C302 C 0.58358 0.04541 0.78893 0.0
C303 C 0.57168 0.05506 0.68505 0.0
C304 C 0.5973 0.0435 0.74844 0.0
C305 C 0.53556 0.05381 0.71007 0.0
O306 O 0.47071 0.00497 0.61601 0.0
O307 O 0.48605 0.01889 0.69023 0.0
C308 C 0.46964 0.0128 0.66341 0.0
O309 O 0.49732 0.03989 0.59272 0.0
O310 O 0.47883 0.96128 0.57626 0.0
O311 O 0.49235 0.97449 0.50772 0.0
O312 O 0.50117 0.01566 0.53148 0.0
C313 C 0.49729 0.03423 0.54325 0.0
O314 O 0.54071 0.01711 0.6009 0.0
O315 O 0.5312 0.9846 0.58128 0.0
O316 O 0.50323 0.97524 0.66537 0.0
O317 O 0.53068 0.05532 0.65977 0.0
O318 O 0.52543 0.03925 0.73253 0.0
O319 O 0.52781 0.99725 0.69758 0.0
C320 C 0.4584 0.96426 0.4983 0.0
C321 C 0.44305 0.97341 0.52524 0.0
C322 C 0.43887 0.96846 0.41593 0.0
C323 C 0.42633 0.98098 0.49756 0.0
C324 C 0.45582 0.96109 0.44375 0.0
C325 C 0.42444 0.97938 0.44224 0.0
C326 C 0.47844 0.96217 0.52478 0.0
C327 C 0.54483 0.99938 0.58229 0.0
H328 H 0.5531 0.05091 0.80831 0.0
H329 H 0.60185 0.04858 0.66514 0.0
H330 H 0.58755 0.04091 0.82911 0.0
H331 H 0.5673 0.05805 0.64414 0.0
H332 H 0.44464 0.9761 0.56732 0.0
H333 H 0.43764 0.9665 0.37349 0.0
H334 H 0.41575 0.98941 0.5194 0.0
H335 H 0.46751 0.95411 0.42218 0.0
Eu336 Eu 0.49245 0.52139 0.65965 0.0
Eu337 Eu 0.53313 0.51053 0.59704 0.0
C338 C 0.53678 0.52895 0.71344 0.0
C339 C 0.45452 0.54943 0.73696 0.0
C340 C 0.46536 0.56762 0.73125 0.0
C341 C 0.43253 0.56546 0.79717 0.0
C342 C 0.45974 0.58468 0.75801 0.0
C343 C 0.43811 0.5484 0.77006 0.0
C344 C 0.44325 0.58379 0.79121 0.0
C345 C 0.46025 0.53157 0.70826 0.0
O346 O 0.52647 0.48355 0.64843 0.0
O347 O 0.49268 0.48756 0.66039 0.0
C348 C 0.50877 0.47644 0.66242 0.0
O349 O 0.48286 0.51663 0.57405 0.0
O350 O 0.56435 0.50096 0.60021 0.0
O351 O 0.54983 0.50867 0.52495 0.0
O352 O 0.50734 0.49542 0.55003 0.0
C353 C 0.48953 0.50327 0.54166 0.0
O354 O 0.50686 0.5512 0.63766 0.0
O355 O 0.52307 0.54052 0.56535 0.0
O356 O 0.54396 0.52982 0.66596 0.0
O357 O 0.46253 0.5341 0.6578 0.0
O358 O 0.47467 0.52116 0.73046 0.0
O359 O 0.51822 0.52248 0.7208 0.0
C360 C 0.57191 0.48182 0.52698 0.0
C361 C 0.55882 0.46496 0.52742 0.0
C362 C 0.59672 0.46233 0.48372 0.0
C363 C 0.56452 0.44694 0.50563 0.0
C364 C 0.59094 0.48042 0.50552 0.0
C365 C 0.5835 0.44542 0.48321 0.0
C366 C 0.56552 0.50076 0.54897 0.0
C367 C 0.51538 0.55495 0.59263 0.0
H368 H 0.47818 0.56863 0.70609 0.0
H369 H 0.41972 0.56438 0.82231 0.0
H370 H 0.46849 0.59851 0.75335 0.0
H371 H 0.42961 0.53443 0.77484 0.0
H372 H 0.54404 0.46582 0.54398 0.0
H373 H 0.61148 0.46159 0.46711 0.0
H374 H 0.55378 0.43438 0.50497 0.0
H375 H 0.60125 0.49334 0.50527 0.0
Eu376 Eu 0.02621 0.53043 0.5946 0.0
Eu377 Eu 0.00548 0.49454 0.66478 0.0
C378 C 0.05354 0.5013 0.66809 0.0
C379 C 0.06485 0.55276 0.51044 0.0
C380 C 0.07997 0.54201 0.53785 0.0
C381 C 0.08322 0.54986 0.42996 0.0
C382 C 0.09619 0.53474 0.51128 0.0
C383 C 0.0669 0.55717 0.45668 0.0
C384 C 0.09757 0.53792 0.45671 0.0
C385 C 0.04546 0.55576 0.5351 0.0
O386 O 0.011 0.5206 0.72068 0.0
O387 O 0.01325 0.54701 0.66228 0.0
C388 C 0.01114 0.53997 0.71042 0.0
O389 O 0.99331 0.52894 0.56747 0.0
O390 O 1.00231 0.4782 0.73923 0.0
O391 O 0.985 0.46854 0.66905 0.0
O392 O 0.9798 0.5146 0.64094 0.0
C393 C 0.9777 0.52442 0.59605 0.0
O394 O 0.03331 0.50127 0.55507 0.0
O395 O 0.00592 0.48299 0.58136 0.0
O396 O 0.03873 0.48776 0.66657 0.0
O397 O 0.03072 0.54397 0.51719 0.0
O398 O 0.04609 0.55686 0.5866 0.0
O399 O 0.05064 0.51976 0.65178 0.0
C400 C 0.96884 0.46651 0.75035 0.0
C401 C 0.95055 0.47328 0.72749 0.0
C402 C 0.95248 0.46132 0.83349 0.0
C403 C 0.9334 0.47407 0.75738 0.0
C404 C 0.96961 0.46036 0.80338 0.0
C405 C 0.93421 0.46836 0.81093 0.0
C406 C 0.98738 0.46687 0.72024 0.0
C407 C 0.02064 0.48589 0.54896 0.0
H408 H 0.07868 0.53817 0.57921 0.0
H409 H 0.08388 0.55245 0.3878 0.0
H410 H 0.10721 0.52585 0.53302 0.0
H411 H 0.05526 0.56518 0.43469 0.0
H412 H 0.94951 0.47825 0.68669 0.0
H413 H 0.95372 0.45707 0.8748 0.0
H414 H 0.91951 0.47926 0.73852 0.0
H415 H 0.9836 0.45522 0.82184 0.0
C416 C 0.16165 0.05162 0.20486 0.0
C417 C 0.1664 0.03515 0.17362 0.0
C418 C 0.14849 0.04938 0.24636 0.0
C419 C 0.12419 0.01132 0.33396 0.0
H420 H 0.08894 0.05523 0.36091 0.0
C421 C 0.07646 0.01267 0.52083 0.0
C422 C 0.05719 0.02104 0.51682 0.0
C423 C 0.08962 0.01424 0.47897 0.0
C424 C 0.09847 0.04268 0.35382 0.0
H425 H 0.16119 0.00322 0.16259 0.0
H426 H 0.13781 0.99927 0.23461 0.0
H427 H 0.11139 0.05754 0.28773 0.0
H428 H 0.03675 0.03768 0.46502 0.0
H429 H 0.05938 0.04006 0.39186 0.0
H430 H 0.11072 0.99619 0.39904 0.0
C431 C 0.14451 0.01397 0.22734 0.0
C432 C 0.11166 0.04414 0.31206 0.0
C433 C 0.15789 0.01621 0.18586 0.0
C434 C 0.0515 0.03116 0.46983 0.0
C435 C 0.0646 0.03259 0.42777 0.0
C436 C 0.11088 0.00981 0.37559 0.0
C437 C 0.13947 0.03059 0.25797 0.0
C438 C 0.12488 0.02857 0.30166 0.0
C439 C 0.08386 0.02409 0.43154 0.0
C440 C 0.09788 0.02552 0.38644 0.0
H441 H 0.16831 0.06635 0.19752 0.0
H442 H 0.14556 0.06245 0.26971 0.0
H443 H 0.13417 0.99906 0.32773 0.0
H444 H 0.08144 0.00483 0.55645 0.0
H445 H 0.10441 0.00784 0.48411 0.0
C446 C 0.46866 0.15411 0.17632 0.0
C447 C 0.4843 0.16862 0.1711 0.0
C448 C 0.47036 0.13873 0.21398 0.0
C449 C 0.49803 0.12675 0.34022 0.0
H450 H 0.47427 0.0736 0.31648 0.0
C451 C 0.49047 0.0693 0.51093 0.0
C452 C 0.49431 0.04914 0.49994 0.0
C453 C 0.48886 0.08348 0.47001 0.0
C454 C 0.48114 0.08831 0.32375 0.0
H455 H 0.51438 0.17775 0.20056 0.0
H456 H 0.51764 0.15059 0.26476 0.0
H457 H 0.47359 0.09817 0.24495 0.0
H458 H 0.49919 0.0281 0.43693 0.0
H459 H 0.49673 0.05278 0.3661 0.0
H460 H 0.50605 0.11675 0.41855 0.0
C461 C 0.50381 0.15136 0.24052 0.0
C462 C 0.48055 0.10251 0.28279 0.0
C463 C 0.50208 0.16678 0.20298 0.0
C464 C 0.49616 0.04348 0.44698 0.0
C465 C 0.49464 0.05765 0.40615 0.0
C466 C 0.49868 0.11254 0.3811 0.0
C467 C 0.48781 0.13737 0.24737 0.0
C468 C 0.48895 0.12196 0.29044 0.0
C469 C 0.49112 0.07789 0.41707 0.0
C470 C 0.49022 0.09312 0.37352 0.0
H471 H 0.45484 0.15488 0.15205 0.0
H472 H 0.45766 0.12835 0.21814 0.0
H473 H 0.5044 0.14163 0.348 0.0
H474 H 0.48888 0.07419 0.5512 0.0
H475 H 0.4858 0.09885 0.47995 0.0
C476 C 0.36452 0.47192 0.18004 0.0
C477 C 0.36715 0.45519 0.14776 0.0
C478 C 0.37943 0.47777 0.21813 0.0
C479 C 0.4223 0.45726 0.29788 0.0
H480 H 0.43273 0.51309 0.33443 0.0
C481 C 0.48266 0.48264 0.4593 0.0
C482 C 0.47678 0.49757 0.49408 0.0
C483 C 0.47055 0.47762 0.41427 0.0
C484 C 0.4299 0.49741 0.32494 0.0
H485 H 0.388 0.43212 0.12848 0.0
H486 H 0.41411 0.44246 0.19445 0.0
H487 H 0.40976 0.50458 0.25965 0.0
H488 H 0.45347 0.51888 0.50857 0.0
H489 H 0.43249 0.51009 0.43066 0.0
H490 H 0.44238 0.45013 0.36349 0.0
C491 C 0.40032 0.4508 0.19116 0.0
C492 C 0.4167 0.49253 0.28204 0.0
C493 C 0.38539 0.44492 0.15317 0.0
C494 C 0.45854 0.50732 0.48273 0.0
C495 C 0.44653 0.50239 0.43773 0.0
C496 C 0.43557 0.46216 0.3407 0.0
C497 C 0.39739 0.46708 0.22485 0.0
C498 C 0.41251 0.47237 0.26831 0.0
C499 C 0.45237 0.48751 0.40283 0.0
C500 C 0.43932 0.48229 0.35521 0.0
H501 H 0.35054 0.47998 0.17759 0.0
H502 H 0.37648 0.49021 0.24374 0.0
H503 H 0.41924 0.44157 0.28905 0.0
H504 H 0.49662 0.47484 0.46676 0.0
H505 H 0.47555 0.46617 0.38802 0.0
C506 C 0.05695 0.35846 0.22131 0.0
C507 C 0.04537 0.35823 0.17345 0.0
C508 C 0.05306 0.37206 0.26122 0.0
C509 C 0.03159 0.42118 0.28472 0.0
H510 H 0.03142 0.40323 0.43066 0.0
C511 C 0.03607 0.47577 0.46405 0.0
C512 C 0.02293 0.47145 0.50511 0.0
C513 C 0.03794 0.46215 0.4226 0.0
C514 C 0.03133 0.40849 0.39011 0.0
H515 H 0.02047 0.37202 0.13022 0.0
H516 H 0.01378 0.39611 0.20007 0.0
H517 H 0.03553 0.37893 0.3604 0.0
H518 H 1.00153 0.4493 0.5346 0.0
H519 H 1.00501 0.42555 0.46291 0.0
H520 H 0.0276 0.45082 0.31468 0.0
C521 C 0.0259 0.38569 0.20649 0.0
C522 C 0.03381 0.39458 0.34986 0.0
C523 C 0.02961 0.37182 0.16668 0.0
C524 C 0.0118 0.45316 0.50374 0.0
C525 C 0.01385 0.43947 0.46271 0.0
C526 C 0.02936 0.43517 0.32512 0.0
C527 C 0.03761 0.38596 0.25424 0.0
C528 C 0.03404 0.40074 0.29667 0.0
C529 C 0.02692 0.44378 0.42158 0.0
C530 C 0.02922 0.42899 0.37834 0.0
H531 H 0.06907 0.34805 0.22799 0.0
H532 H 0.06246 0.37194 0.29727 0.0
H533 H 0.03185 0.42644 0.24421 0.0
H534 H 0.04485 0.48972 0.46374 0.0
H535 H 0.04828 0.46585 0.39178 0.0
C536 C 0.85394 0.98005 0.04105 0.0
C537 C 0.85743 0.9912 0.08769 0.0
C538 C 0.86803 0.98054 1.0012 0.0
C539 C 0.91222 0.01129 0.95473 0.0
H540 H 0.91816 0.96614 0.86134 0.0
C541 C 0.97627 0.0081 0.80656 0.0
C542 C 0.97086 1.00222 0.75442 0.0
C543 C 0.96241 0.0063 0.84667 0.0
C544 C 0.91655 0.97893 0.88686 0.0
H545 H 0.87892 0.01098 0.12979 0.0
H546 H 0.90389 0.01118 0.06172 0.0
H547 H 0.89501 0.96321 0.93363 0.0
H548 H 0.94656 0.98947 0.70413 0.0
H549 H 0.92242 0.98596 0.77469 0.0
H550 H 0.93423 0.02675 0.90858 0.0
C551 C 0.88995 1.00256 0.05475 0.0
C552 C 0.9032 0.97731 0.92839 0.0
C553 C 0.87571 1.00231 0.09423 0.0
C554 C 0.95124 0.9942 0.74372 0.0
C555 C 0.93743 0.9921 0.7842 0.0
C556 C 0.92577 0.01278 0.91376 0.0
C557 C 0.88619 0.99202 0.00702 0.0
C558 C 0.90077 0.99348 0.96307 0.0
C559 C 0.94281 0.99829 0.83611 0.0
C560 C 0.92811 0.99665 0.87923 0.0
H561 H 0.83986 0.97162 0.03426 0.0
H562 H 0.86426 0.97244 0.96504 0.0
H563 H 0.91055 0.02431 0.97932 0.0
H564 H 0.99121 0.01435 0.81646 0.0
H565 H 0.96713 0.01103 0.88626 0.0
C566 C 0.50696 0.88349 0.10334 0.0
C567 C 0.51238 0.86322 0.10404 0.0
C568 C 0.51238 0.89623 0.06193 0.0
C569 C 0.53018 0.92296 0.97749 0.0
H570 H 0.52515 0.899 0.83834 0.0
C571 C 0.53618 0.97084 0.78595 0.0
C572 C 0.52179 0.96605 0.74517 0.0
C573 C 0.53879 0.95803 0.82974 0.0
C574 C 0.52656 0.90599 0.87686 0.0
H575 H 0.52884 0.84088 0.06281 0.0
H576 H 0.53893 0.86328 0.99168 0.0
H577 H 0.52299 0.87776 0.91617 0.0
H578 H 0.49916 0.94376 0.71828 0.0
H579 H 0.50344 0.92187 0.79427 0.0
H580 H 0.53256 0.95134 0.93784 0.0
C581 C 0.52999 0.8692 0.02251 0.0
C582 C 0.52563 0.89373 0.92173 0.0
C583 C 0.52444 0.85639 0.06382 0.0
C584 C 0.51044 0.94798 0.74873 0.0
C585 C 0.51301 0.93526 0.79234 0.0
C586 C 0.53097 0.93526 0.93252 0.0
C587 C 0.52355 0.88915 0.02018 0.0
C588 C 0.527 0.90206 0.97273 0.0
C589 C 0.52709 0.94015 0.83373 0.0
C590 C 0.5287 0.92697 0.88157 0.0
H591 H 0.49798 0.8894 0.13411 0.0
H592 H 0.50697 0.91141 0.06159 0.0
H593 H 0.53166 0.92993 0.01602 0.0
H594 H 0.5452 0.98461 0.7845 0.0
H595 H 0.54993 0.96219 0.86056 0.0
C596 C 0.63963 0.55433 0.12564 0.0
C597 C 0.66045 0.5535 0.11717 0.0
C598 C 0.62554 0.5549 0.08292 0.0
C599 C 0.61969 0.56401 0.93826 0.0
H600 H 0.5744 0.52618 0.94675 0.0
C601 C 0.57081 0.53899 0.75414 0.0
C602 C 0.55008 0.53487 0.7598 0.0
C603 C 0.58355 0.54348 0.79826 0.0
C604 C 0.58673 0.53709 0.94388 0.0
H605 H 0.68268 0.55331 0.05665 0.0
H606 H 0.65816 0.55459 0.98246 0.0
H607 H 0.59771 0.53086 0.02278 0.0
H608 H 0.52639 0.53291 0.81634 0.0
H609 H 0.54849 0.54111 0.89298 0.0
H610 H 0.60878 0.57014 0.85916 0.0
C611 C 0.65274 0.55492 0.02218 0.0
C612 C 0.60013 0.53977 0.9876 0.0
C613 C 0.66683 0.55426 0.06487 0.0
C614 C 0.54231 0.53584 0.81052 0.0
C615 C 0.55503 0.54043 0.85459 0.0
C616 C 0.60621 0.56141 0.89456 0.0
C617 C 0.6319 0.55475 0.03064 0.0
C618 C 0.6169 0.5531 0.9852 0.0
C619 C 0.57587 0.54408 0.84919 0.0
C620 C 0.58966 0.54775 0.89657 0.0
H621 H 0.63417 0.55411 0.16534 0.0
H622 H 0.60961 0.55513 0.09083 0.0
H623 H 0.63232 0.57457 0.9353 0.0
H624 H 0.57734 0.53832 0.71574 0.0
H625 H 0.59953 0.54592 0.79252 0.0
C626 C 0.99547 0.65954 0.07599 0.0
C627 C 0.01234 0.65996 0.11186 0.0
C628 C 0.99405 0.64578 0.03421 0.0
C629 C 0.02617 0.61755 0.94901 0.0
H630 H 0.97744 0.58667 0.90939 0.0
C631 C 0.01617 0.57427 0.75091 0.0
C632 C 0.00944 0.55414 0.75507 0.0
C633 C 0.01569 0.5872 0.79429 0.0
C634 C 0.99115 0.59521 0.92 0.0
H635 H 0.04031 0.64511 0.13313 0.0
H636 H 0.03803 0.6216 0.05955 0.0
H637 H 0.97805 0.60844 0.98722 0.0
H638 H 0.99634 0.53205 0.80775 0.0
H639 H 0.99512 0.55474 0.88289 0.0
H640 H 0.03922 0.60453 0.88161 0.0
C641 C 0.02602 0.6321 0.06365 0.0
C642 C 0.99147 0.60773 0.96438 0.0
C643 C 0.02731 0.64564 0.10582 0.0
C644 C 1.00172 0.54743 0.80319 0.0
C645 C 1.00091 0.56045 0.84621 0.0
C646 C 0.02574 0.60532 0.90418 0.0
C647 C 0.00956 0.63225 0.0268 0.0
C648 C 0.00904 0.61893 0.97963 0.0
C649 C 0.00812 0.58042 0.84252 0.0
C650 C 0.00827 0.59391 0.88929 0.0
H651 H 0.98376 0.67045 0.07854 0.0
H652 H 0.98121 0.64633 0.00633 0.0
H653 H 0.03987 0.62615 0.95941 0.0
H654 H 0.02226 0.57992 0.71452 0.0
H655 H 0.02122 0.60255 0.79012 0.0
C656 C 0.04675 0.21464 0.16376 0.0
C657 C 0.06727 0.21851 0.15464 0.0
C658 C 0.04025 0.19598 0.18232 0.0
C659 C 0.05651 0.15305 0.259 0.0
H660 H 0.00707 0.12816 0.19937 0.0
C661 C 0.02121 0.08345 0.35603 0.0
C662 C 1.00035 0.08434 0.36323 0.0
C663 C 0.03063 0.09671 0.3215 0.0
C664 C 0.02085 0.13494 0.21654 0.0
H665 H 0.09707 0.20592 0.15741 0.0
H666 H 0.08566 0.17307 0.19132 0.0
H667 H 0.02178 0.15773 0.15672 0.0
H668 H 0.97277 0.09896 0.33843 0.0
H669 H 0.98924 0.12257 0.27882 0.0
H670 H 0.05515 0.13099 0.32026 0.0
C671 C 0.07469 0.1846 0.18377 0.0
C672 C 0.0293 0.1518 0.19204 0.0
C673 C 0.0812 0.2033 0.16447 0.0
C674 C 0.98886 0.09798 0.33329 0.0
C675 C 0.99833 0.11142 0.29907 0.0
C676 C 0.04799 0.13628 0.28375 0.0
C677 C 0.05411 0.18077 0.19243 0.0
C678 C 0.04691 0.1613 0.21383 0.0
C679 C 0.01941 0.11127 0.29385 0.0
C680 C 0.02979 0.12733 0.26352 0.0
H681 H 0.03562 0.22596 0.15553 0.0
H682 H 0.02435 0.19352 0.18935 0.0
H683 H 0.07 0.16021 0.27682 0.0
H684 H 0.03031 0.07278 0.37818 0.0
H685 H 0.0468 0.0959 0.31751 0.0
C686 C 0.31545 0.07753 0.16027 0.0
C687 C 0.2967 0.08295 0.1792 0.0
C688 C 0.33113 0.07199 0.19538 0.0
C689 C 0.33427 0.0436 0.31324 0.0
H690 H 0.39214 0.05339 0.3107 0.0
C691 C 0.39016 0.99466 0.4336 0.0
C692 C 0.40901 0.99118 0.41232 0.0
C693 C 0.37699 0.00828 0.40963 0.0
C694 C 0.37603 0.05029 0.3114 0.0
H695 H 0.28082 0.08958 0.25001 0.0
H696 H 0.30801 0.079 0.31122 0.0
H697 H 0.36933 0.07589 0.26261 0.0
H698 H 0.42833 0.9989 0.34759 0.0
H699 H 0.40479 0.02132 0.30379 0.0
H700 H 0.34065 0.01729 0.35837 0.0
C701 C 0.31041 0.07899 0.26917 0.0
C702 C 0.36303 0.06336 0.28447 0.0
C703 C 0.29485 0.08491 0.23409 0.0
C704 C 0.41387 1.00091 0.36492 0.0
C705 C 0.40052 0.01422 0.34038 0.0
C706 C 0.34722 0.03032 0.3392 0.0
C707 C 0.32825 0.07155 0.2499 0.0
C708 C 0.34206 0.05997 0.28475 0.0
C709 C 0.38211 0.01844 0.36304 0.0
C710 C 0.3683 0.03329 0.33798 0.0
H711 H 0.31749 0.07569 0.1184 0.0
H712 H 0.34476 0.06622 0.17962 0.0
H713 H 0.31813 0.04045 0.31306 0.0
H714 H 0.38573 0.98722 0.46958 0.0
H715 H 0.36303 0.01117 0.42856 0.0
C716 C 0.55355 0.31026 0.18188 0.0
C717 C 0.53911 0.29803 0.20668 0.0
C718 C 0.56625 0.32335 0.21154 0.0
C719 C 0.58339 0.33785 0.34816 0.0
H720 H 0.57974 0.39185 0.29168 0.0
C721 C 0.5826 0.40788 0.47705 0.0
C722 C 0.58863 0.42661 0.45636 0.0
C723 C 0.58389 0.39048 0.44721 0.0
C724 C 0.5815 0.37688 0.3077 0.0
H725 H 0.52746 0.28905 0.28219 0.0
H726 H 0.5495 0.31206 0.33401 0.0
H727 H 0.5685 0.36366 0.23721 0.0
H728 H 0.60248 0.44147 0.39002 0.0
H729 H 0.60538 0.41099 0.3387 0.0
H730 H 0.59568 0.35128 0.41958 0.0
C731 C 0.5512 0.31136 0.29172 0.0
C732 C 0.57498 0.36065 0.27634 0.0
C733 C 0.53851 0.29822 0.26203 0.0
C734 C 0.59766 0.4273 0.40714 0.0
C735 C 0.59912 0.40985 0.37745 0.0
C736 C 0.59004 0.35413 0.37955 0.0
C737 C 0.56475 0.32452 0.2666 0.0
C738 C 0.57521 0.34103 0.29679 0.0
C739 C 0.59142 0.39138 0.39615 0.0
C740 C 0.58849 0.37388 0.36027 0.0
H741 H 0.55463 0.3101 0.13933 0.0
H742 H 0.57678 0.33308 0.19119 0.0
H743 H 0.58401 0.32285 0.36468 0.0
H744 H 0.576 0.40678 0.5154 0.0
H745 H 0.57773 0.37657 0.46292 0.0
C746 C 0.23214 0.44835 0.24916 0.0
C747 C 0.22779 0.44256 0.19653 0.0
C748 C 0.21753 0.45748 0.27826 0.0
C749 C 0.17127 0.48655 0.2589 0.0
H750 H 0.16658 0.47721 0.40912 0.0
C751 C 0.12394 0.53682 0.3884 0.0
C752 C 0.11272 0.52712 0.4273 0.0
C753 C 0.13794 0.52623 0.36048 0.0
C754 C 0.16757 0.47989 0.36708 0.0
H755 H 0.20443 0.44121 0.13382 0.0
H756 H 0.17876 0.45648 0.18519 0.0
H757 H 0.1901 0.4578 0.36033 0.0
H758 H 0.10677 0.49863 0.46624 0.0
H759 H 0.13091 0.48016 0.41736 0.0
H760 H 0.14838 0.50829 0.2654 0.0
C761 C 0.1936 0.45435 0.2036 0.0
C762 C 0.18122 0.4689 0.33924 0.0
C763 C 0.20824 0.4453 0.17443 0.0
C764 C 0.11556 0.50662 0.43733 0.0
C765 C 0.12941 0.49603 0.40932 0.0
C766 C 0.15756 0.49748 0.2867 0.0
C767 C 0.19822 0.46094 0.25545 0.0
C768 C 0.18325 0.47213 0.28484 0.0
C769 C 0.14083 0.5057 0.3707 0.0
C770 C 0.15557 0.49429 0.34113 0.0
H771 H 0.247 0.44624 0.26752 0.0
H772 H 0.22164 0.46247 0.31799 0.0
H773 H 0.17268 0.48963 0.21716 0.0
H774 H 0.12206 0.55263 0.38002 0.0
H775 H 0.14666 0.53417 0.33137 0.0
C776 C 0.96244 0.80241 0.07137 0.0
C777 C 0.97687 0.7882 0.05984 0.0
C778 C 0.95858 0.81828 0.03649 0.0
C779 C 0.97299 0.85764 0.99164 0.0
H780 H 0.98511 0.85804 0.8433 0.0
C781 C 0.02607 0.9164 0.90507 0.0
C782 C 0.02322 0.92256 0.85234 0.0
C783 C 0.01348 0.90148 0.92584 0.0
C784 C 0.9813 0.85836 0.88443 0.0
H785 H 0.99688 0.77816 1.00046 0.0
H786 H 0.99053 0.80579 0.94042 0.0
H787 H 0.9718 0.82742 0.88327 0.0
H788 H 1.00445 0.91872 0.7806 0.0
H789 H 0.98242 0.89265 0.81696 0.0
H790 H 0.9829 0.88842 0.99312 0.0
C791 C 0.9819 0.80475 0.97575 0.0
C792 C 0.97381 0.84074 0.90743 0.0
C793 C 0.98564 0.78885 0.01039 0.0
C794 C 0.00725 0.9139 0.82111 0.0
C795 C 0.99459 0.89906 0.84196 0.0
C796 C 0.98028 0.87527 0.96855 0.0
C797 C 0.96925 0.82028 0.98984 0.0
C798 C 0.97071 0.83988 0.96197 0.0
C799 C 0.99767 0.89256 0.89442 0.0
C800 C 0.98559 0.8755 0.91548 0.0
H801 H 0.95516 0.80199 0.10888 0.0
H802 H 0.94836 0.82974 0.04786 0.0
H803 H 0.97083 0.85761 0.03378 0.0
H804 H 0.0383 0.9228 0.92987 0.0
H805 H 0.01656 0.89652 0.96609 0.0
C806 C 0.72975 0.9578 0.96735 0.0
C807 C 0.74467 0.97323 0.96804 0.0
C808 C 0.71587 0.95593 0.92452 0.0
C809 C 0.67934 0.97473 0.87656 0.0
H810 H 0.68336 0.99865 0.73732 0.0
C811 C 0.62744 0.03574 0.80711 0.0
C812 C 0.61647 0.03298 0.75896 0.0
C813 C 0.64345 0.02341 0.82088 0.0
C814 C 0.68197 0.99165 0.77575 0.0
H815 H 0.75914 0.99617 0.92052 0.0
H816 H 0.73434 0.9938 0.84758 0.0
H817 H 0.71229 0.98116 0.77749 0.0
H818 H 0.61438 0.01568 0.68626 0.0
H819 H 0.64296 0.99453 0.71008 0.0
H820 H 0.64953 0.98612 0.87607 0.0
C821 C 0.73321 0.98304 0.87959 0.0
C822 C 0.69848 0.98168 0.79877 0.0
C823 C 0.74729 0.98467 0.92196 0.0
C824 C 0.62268 0.01839 0.72343 0.0
C825 C 0.6389 0.00616 0.73707 0.0
C826 C 0.663 0.98469 0.85372 0.0
C827 C 0.71642 0.96975 0.88242 0.0
C828 C 0.69768 0.97406 0.85065 0.0
C829 C 0.64894 0.00819 0.78661 0.0
C830 C 0.66457 0.99411 0.80445 0.0
H831 H 0.72743 0.94848 1.00183 0.0
H832 H 0.70347 0.94507 0.92703 0.0
H833 H 0.67807 0.96925 0.91664 0.0
H834 H 0.62328 0.04707 0.83484 0.0
H835 H 0.65132 0.02548 0.85893 0.0
C836 C 0.43651 0.74258 0.0269 0.0
C837 C 0.43771 0.73907 0.0817 0.0
C838 C 0.43251 0.72674 0.99181 0.0
C839 C 0.41493 0.67344 0.98226 0.0
H840 H 0.4523 0.6719 0.86871 0.0
C841 C 0.43354 0.6007 0.87419 0.0
C842 C 0.43765 0.6019 0.82029 0.0
C843 C 0.42993 0.61806 0.90258 0.0
C844 C 0.44146 0.67222 0.8995 0.0
H845 H 0.43486 0.71632 0.1427 0.0
H846 H 0.42791 0.68869 0.08152 0.0
H847 H 0.45192 0.70139 0.92445 0.0
H848 H 0.44003 0.622 0.75311 0.0
H849 H 0.43357 0.65228 0.80253 0.0
H850 H 0.40484 0.64398 0.95787 0.0
C851 C 0.42982 0.70372 0.06564 0.0
C852 C 0.44124 0.68916 0.9315 0.0
C853 C 0.43382 0.71956 0.10073 0.0
C854 C 0.43728 0.62068 0.79486 0.0
C855 C 0.43358 0.63801 0.82317 0.0
C856 C 0.41512 0.65647 0.95011 0.0
C857 C 0.42963 0.70705 0.01078 0.0
C858 C 0.4282 0.68985 0.97374 0.0
C859 C 0.43028 0.63695 0.87758 0.0
C860 C 0.42862 0.65556 0.90887 0.0
H861 H 0.43911 0.75752 0.0111 0.0
H862 H 0.4321 0.72983 0.94976 0.0
H863 H 0.40454 0.67363 0.01414 0.0
H864 H 0.43391 0.58645 0.89491 0.0
H865 H 0.4277 0.61674 0.94459 0.0
C866 C 0.78285 0.48633 0.07028 0.0
C867 C 0.78725 0.49758 0.11635 0.0
C868 C 0.79807 0.48237 0.03551 0.0
C869 C 0.8313 0.48738 0.95542 0.0
H870 H 0.88324 0.47082 0.01446 0.0
C871 C 0.90381 0.48702 0.83681 0.0
C872 C 0.91626 0.47036 0.84347 0.0
C873 C 0.88724 0.48925 0.86829 0.0
C874 C 0.86877 0.47527 0.99739 0.0
H875 H 0.81093 0.51407 0.16099 0.0
H876 H 0.83744 0.5069 0.10082 0.0
H877 H 0.85577 0.47678 0.0731 0.0
H878 H 0.92072 0.44275 0.88772 0.0
H879 H 0.89198 0.4469 0.94342 0.0
H880 H 0.8444 0.48597 0.87967 0.0
C881 C 0.82231 0.50089 0.09204 0.0
C882 C 0.85312 0.47886 0.03094 0.0
C883 C 0.80712 0.50495 0.12655 0.0
C884 C 0.91165 0.45592 0.88213 0.0
C885 C 0.89517 0.45825 0.91391 0.0
C886 C 0.84702 0.48394 0.92184 0.0
C887 C 0.81797 0.48949 0.04632 0.0
C888 C 0.83427 0.48505 0.01033 0.0
C889 C 0.88287 0.47498 0.90742 0.0
C890 C 0.86593 0.47793 0.94257 0.0
H891 H 0.76773 0.48031 0.06153 0.0
H892 H 0.79435 0.47342 1.0007 0.0
H893 H 0.81695 0.49227 0.93854 0.0
H894 H 0.90712 0.49862 0.80811 0.0
H895 H 0.87818 0.50244 0.86298 0.0
C896 C 0.02673 0.22464 0.83953 0.0
C897 C 0.03333 0.22598 0.89286 0.0
C898 C 0.02461 0.20592 0.81444 0.0
C899 C 0.02407 0.15021 0.84289 0.0
H900 H 0.03373 0.14682 0.69333 0.0
C901 C 0.03743 0.07521 0.73575 0.0
C902 C 0.02444 0.07128 0.69141 0.0
C903 C 0.03838 0.09425 0.75912 0.0
C904 C 0.03093 0.14757 0.7351 0.0
H905 H 0.04331 0.20879 0.96137 0.0
H906 H 0.04055 0.17645 0.91769 0.0
H907 H 0.03536 0.17946 0.73663 0.0
H908 H 1.0028 0.08448 0.63579 0.0
H909 H 0.00506 0.11795 0.67557 0.0
H910 H 0.02056 0.11811 0.84127 0.0
C911 C 0.03609 0.18958 0.89526 0.0
C912 C 0.03168 0.16634 0.76005 0.0
C913 C 0.03777 0.20821 0.92051 0.0
C914 C 0.01293 0.08701 0.66997 0.0
C915 C 0.01425 0.10618 0.69261 0.0
C916 C 0.02378 0.13145 0.81815 0.0
C917 C 0.02952 0.18805 0.8417 0.0
C918 C 0.02827 0.16801 0.81447 0.0
C919 C 0.02673 0.10992 0.73796 0.0
C920 C 0.02719 0.12992 0.76402 0.0
H921 H 0.02319 0.23809 0.81723 0.0
H922 H 0.0191 0.20554 0.77362 0.0
H923 H 0.02081 0.15066 0.88436 0.0
H924 H 0.04639 0.0634 0.75345 0.0
H925 H 0.04821 0.09674 0.79388 0.0
C926 C 0.31143 0.01023 0.90939 0.0
C927 C 0.29839 0.02595 0.89579 0.0
C928 C 0.32943 0.00785 0.88295 0.0
C929 C 0.35574 0.0233 0.76046 0.0
H930 H 0.40387 0.00792 0.84121 0.0
C931 C 0.43152 0.00839 0.66069 0.0
C932 C 0.44962 0.01449 0.68792 0.0
C933 C 0.41289 0.0092 0.68503 0.0
C934 C 0.39065 0.01238 0.81799 0.0
H935 H 0.29458 0.05167 0.84379 0.0
H936 H 0.32566 0.04752 0.79808 0.0
H937 H 0.37203 0.01035 0.88509 0.0
H938 H 0.46202 0.02659 0.7622 0.0
H939 H 0.42971 0.02833 0.80387 0.0
H940 H 0.37448 0.0259 0.69369 0.0
C941 C 0.32183 0.03672 0.82839 0.0
C942 C 0.37223 0.0135 0.84312 0.0
C943 C 0.30387 0.03909 0.85473 0.0
C944 C 0.44847 0.02168 0.73983 0.0
C945 C 0.42988 0.02252 0.76409 0.0
C946 C 0.37416 0.02218 0.73534 0.0
C947 C 0.33497 0.02113 0.84218 0.0
C948 C 0.3545 0.01911 0.81486 0.0
C949 C 0.41179 0.01616 0.73726 0.0
C950 C 0.39195 0.01684 0.76375 0.0
H951 H 0.3077 0.99969 0.94039 0.0
H952 H 0.33895 0.99548 0.89431 0.0
H953 H 0.34244 0.02741 0.73706 0.0
H954 H 0.43172 1.00286 0.62071 0.0
H955 H 0.39938 0.004 0.66306 0.0
C956 C 0.50854 0.31537 0.89692 0.0
C957 C 0.49373 0.30078 0.88158 0.0
C958 C 0.51109 0.33299 0.86739 0.0
C959 C 0.48324 0.36516 0.77038 0.0
H960 H 0.53514 0.39326 0.76563 0.0
C961 C 0.5226 0.44189 0.67454 0.0
C962 C 0.50703 0.45539 0.6818 0.0
C963 C 0.5212 0.42221 0.69402 0.0
C964 C 0.52054 0.38556 0.76582 0.0
H965 H 0.47064 0.29289 0.82159 0.0
H966 H 0.47545 0.32338 0.76907 0.0
H967 H 0.53309 0.36 0.8051 0.0
H968 H 0.47773 0.45867 0.71527 0.0
H969 H 0.47553 0.42468 0.75047 0.0
H970 H 0.47076 0.3905 0.72985 0.0
C971 C 0.48476 0.32147 0.80482 0.0
C972 C 0.51931 0.36651 0.78925 0.0
C973 C 0.48208 0.3039 0.83471 0.0
C974 C 0.48996 0.44866 0.70865 0.0
C975 C 0.48865 0.42905 0.7286 0.0
C976 C 0.48449 0.38414 0.74654 0.0
C977 C 0.49901 0.33649 0.82135 0.0
C978 C 0.5006 0.35613 0.79259 0.0
C979 C 0.50428 0.41553 0.72177 0.0
C980 C 0.50311 0.39477 0.74454 0.0
H981 H 0.51751 0.31367 0.93335 0.0
H982 H 0.52198 0.34424 0.88211 0.0
H983 H 0.4685 0.35784 0.77259 0.0
H984 H 0.53589 0.44649 0.65358 0.0
H985 H 0.53339 0.41221 0.687 0.0
C986 C 0.21348 0.44084 0.86498 0.0
C987 C 0.22833 0.45564 0.87859 0.0
C988 C 0.19532 0.44597 0.83882 0.0
C989 C 0.1622 0.48927 0.81365 0.0
H990 H 0.13548 0.45343 0.711 0.0
C991 C 0.08954 0.51068 0.69427 0.0
C992 C 0.07397 0.49592 0.68918 0.0
C993 C 0.1087 0.50587 0.71506 0.0
C994 C 0.14267 0.46351 0.73991 0.0
H995 H 0.23586 0.48742 0.87396 0.0
H996 H 0.20429 0.49638 0.82747 0.0
H997 H 0.16857 0.44517 0.74968 0.0
H998 H 0.06658 0.46437 0.70143 0.0
H999 H 0.10007 0.45598 0.73771 0.0
H1000 H 0.1363 0.50764 0.80359 0.0
C1001 C 0.20653 0.48081 0.83798 0.0
C1002 C 0.16166 0.45879 0.76218 0.0
C1003 C 0.22469 0.47568 0.86445 0.0
C1004 C 0.07817 0.47614 0.70481 0.0
C1005 C 0.09742 0.4713 0.72535 0.0
C1006 C 0.14327 0.49405 0.79114 0.0
C1007 C 0.19149 0.46604 0.8253 0.0
C1008 C 0.17165 0.47153 0.79966 0.0
C1009 C 0.11288 0.48614 0.73105 0.0
C1010 C 0.13321 0.48118 0.75422 0.0
H1011 H 0.21555 0.42532 0.87622 0.0
H1012 H 0.18402 0.43421 0.83073 0.0
H1013 H 0.1692 0.49928 0.84303 0.0
H1014 H 0.08694 0.52607 0.68248 0.0
H1015 H 0.12032 0.51761 0.71824 0.0
C1016 C 0.01776 0.79717 0.45075 0.0
C1017 C 0.00637 0.79317 0.40358 0.0
C1018 C 0.01633 0.81557 0.47685 0.0
C1019 C 1.00397 0.86815 0.44833 0.0
H1020 H 1.00297 0.87388 0.6004 0.0
C1021 C 0.9949 0.94582 0.54166 0.0
C1022 C 0.00583 0.95041 0.58905 0.0
C1023 C 0.99386 0.92621 0.52205 0.0
C1024 C 1.0035 0.87261 0.55789 0.0
H1025 H 0.98419 0.80543 0.34774 0.0
H1026 H 0.98157 0.83727 0.39334 0.0
H1027 H 1.00304 0.84039 0.56151 0.0
H1028 H 0.02393 0.93771 0.65358 0.0
H1029 H 0.02257 0.90359 0.61877 0.0
H1030 H 1.00499 0.90017 0.44425 0.0
C1031 C 0.9917 0.82621 0.41006 0.0
C1032 C 1.00347 0.85336 0.5356 0.0
C1033 C 0.993 0.8078 0.38427 0.0
C1034 C 0.01533 0.93473 0.617 0.0
C1035 C 0.01446 0.91509 0.59707 0.0
C1036 C 1.00419 0.88733 0.47053 0.0
C1037 C 1.00364 0.83052 0.45609 0.0
C1038 C 1.00358 0.85089 0.48047 0.0
C1039 C 1.00392 0.91058 0.54886 0.0
C1040 C 1.00382 0.88991 0.52564 0.0
H1041 H 0.02814 0.78623 0.46689 0.0
H1042 H 0.02579 0.81839 0.51211 0.0
H1043 H 1.00451 0.86685 0.4058 0.0
H1044 H 0.9872 0.95743 0.51929 0.0
H1045 H 0.98514 0.92336 0.48562 0.0
C1046 C 0.70139 0.96846 0.34989 0.0
C1047 C 0.71547 0.9847 0.34929 0.0
C1048 C 0.68396 0.96931 0.37932 0.0
C1049 C 0.65053 0.00625 0.43863 0.0
H1050 H 0.62704 0.9593 0.50611 0.0
C1051 C 0.58022 0.0118 0.5653 0.0
C1052 C 0.56514 0.99653 0.56032 0.0
C1053 C 0.59901 0.00979 0.54277 0.0
C1054 C 0.63326 0.97253 0.48707 0.0
H1055 H 0.72223 0.01441 0.38095 0.0
H1056 H 0.69222 0.01568 0.43315 0.0
H1057 H 0.65907 0.95683 0.46266 0.0
H1058 H 0.5584 0.96689 0.52829 0.0
H1059 H 0.59111 0.96345 0.48849 0.0
H1060 H 0.62472 0.02194 0.46264 0.0
C1061 C 0.69447 1.00236 0.41006 0.0
C1062 C 0.6517 0.97112 0.46208 0.0
C1063 C 0.71192 1.00151 0.38065 0.0
C1064 C 0.5696 0.97897 0.53303 0.0
C1065 C 0.58844 0.97696 0.51035 0.0
C1066 C 0.63214 0.00766 0.46361 0.0
C1067 C 0.68002 0.98642 0.40913 0.0
C1068 C 0.66062 0.98796 0.43736 0.0
C1069 C 0.60336 0.99245 0.51437 0.0
C1070 C 0.62317 0.99084 0.48818 0.0
H1071 H 0.70365 0.95516 0.32676 0.0
H1072 H 0.67323 0.95676 0.37717 0.0
H1073 H 0.6566 0.01947 0.4192 0.0
H1074 H 0.57752 0.02548 0.58644 0.0
H1075 H 0.61018 0.02188 0.5478 0.0
C1076 C 0.48642 0.72144 0.40158 0.0
C1077 C 0.50263 0.73162 0.37821 0.0
C1078 C 0.4892 0.70309 0.42745 0.0
C1079 C 0.52474 0.66073 0.43984 0.0
H1080 H 0.49122 0.64609 0.5565 0.0
C1081 C 0.51933 0.57921 0.51753 0.0
C1082 C 0.51579 0.57572 0.57117 0.0
C1083 C 0.51896 0.59865 0.49649 0.0
C1084 C 0.50098 0.64994 0.52455 0.0
H1085 H 0.53459 0.73066 0.36424 0.0
H1086 H 0.53974 0.69894 0.41122 0.0
H1087 H 0.48904 0.67931 0.51778 0.0
H1088 H 0.50955 0.59004 0.64511 0.0
H1089 H 0.50972 0.62402 0.60909 0.0
H1090 H 0.53732 0.63165 0.44815 0.0
C1091 C 0.52468 0.70484 0.40843 0.0
C1092 C 0.49946 0.669 0.50156 0.0
C1093 C 0.5218 0.72311 0.38175 0.0
C1094 C 0.51221 0.59219 0.60352 0.0
C1095 C 0.51217 0.6117 0.58266 0.0
C1096 C 0.52649 0.64177 0.46338 0.0
C1097 C 0.50837 0.69448 0.43141 0.0
C1098 C 0.51106 0.6746 0.45825 0.0
C1099 C 0.51536 0.61523 0.52866 0.0
C1100 C 0.51441 0.63594 0.50559 0.0
H1101 H 0.47137 0.7274 0.39857 0.0
H1102 H 0.47611 0.69547 0.44321 0.0
H1103 H 0.53383 0.66429 0.40635 0.0
H1104 H 0.52194 0.56685 0.49134 0.0
H1105 H 0.52105 0.60054 0.45458 0.0
C1106 C 0.81326 0.55611 0.37291 0.0
C1107 C 0.79646 0.55275 0.40436 0.0
C1108 C 0.83294 0.55594 0.39513 0.0
C1109 C 0.8633 0.55578 0.52326 0.0
H1110 H 0.90197 0.52924 0.43878 0.0
C1111 C 0.94028 0.52682 0.60748 0.0
C1112 C 0.95717 0.53007 0.57634 0.0
C1113 C 0.92086 0.53145 0.58787 0.0
C1114 C 0.89144 0.53689 0.46269 0.0
H1115 H 0.78748 0.54785 0.48494 0.0
H1116 H 0.82174 0.54671 0.52324 0.0
H1117 H 0.86797 0.53442 0.40249 0.0
H1118 H 0.96682 0.54104 0.50034 0.0
H1119 H 0.93301 0.54895 0.46623 0.0
H1120 H 0.88684 0.5576 0.5841 0.0
C1121 C 0.8197 0.54973 0.48134 0.0
C1122 C 0.8719 0.53997 0.44179 0.0
C1123 C 0.79997 0.55015 0.45918 0.0
C1124 C 0.95419 0.53829 0.52544 0.0
C1125 C 0.93478 0.54275 0.50572 0.0
C1126 C 0.88284 0.55252 0.54438 0.0
C1127 C 0.83648 0.55212 0.44938 0.0
C1128 C 0.85752 0.54948 0.47168 0.0
C1129 C 0.91786 0.53924 0.53651 0.0
C1130 C 0.89714 0.54304 0.51428 0.0
H1131 H 0.81136 0.55794 0.33051 0.0
H1132 H 0.84541 0.55833 0.36933 0.0
H1133 H 0.85278 0.56337 0.5473 0.0
H1134 H 0.94199 0.52051 0.64688 0.0
H1135 H 0.90812 0.52842 0.61242 0.0
loop_
_geom_bond_atom_site_label_1
_geom_bond_atom_site_label_2
_geom_bond_distance
_geom_bond_site_symmetry_2
_ccdc_geom_bond_type
P0 O11 1.490 . S
P0 C14 1.812 . S
P0 C20 1.803 . S
P0 C26 1.819 . S
H1 C15 0.941 . S
H2 C16 0.939 . S
H3 C18 0.940 . S
H4 C19 0.940 . S
H5 C21 0.939 . S
H6 C22 0.942 . S
H7 C24 0.940 . S
H8 C25 0.939 . S
H9 C27 0.941 . S
H10 C31 0.939 . S
O11 P0 1.490 . S
H12 C28 0.939 . S
H13 C30 0.940 . S
C14 P0 1.812 . S
C14 C15 1.389 . S
C14 C19 1.391 . S
C15 H1 0.941 . S
C15 C14 1.389 . S
C15 C16 1.397 . S
C16 H2 0.939 . S
C16 C15 1.397 . S
C16 C17 1.378 . S
C17 C16 1.378 . S
C17 C18 1.378 . S
C18 H3 0.940 . S
C18 C17 1.378 . S
C18 C19 1.396 . S
C19 H4 0.940 . S
C19 C14 1.391 . S
C19 C18 1.396 . S
C20 P0 1.803 . S
C20 C21 1.378 . S
C20 C25 1.400 . S
C21 H5 0.939 . S
C21 C20 1.378 . S
C21 C22 1.361 . S
C22 H6 0.942 . S
C22 C21 1.361 . S
C22 C23 1.369 . S
C23 C22 1.369 . S
C23 C24 1.404 . S
C24 H7 0.940 . S
C24 C23 1.404 . S
C24 C25 1.389 . S
C25 H8 0.939 . S
C25 C20 1.400 . S
C25 C24 1.389 . S
C26 P0 1.819 . S
C26 C27 1.391 . S
C26 C31 1.391 . S
C27 H9 0.941 . S
C27 C26 1.391 . S
C27 C28 1.396 . S
C28 H12 0.939 . S
C28 C27 1.396 . S
C28 C29 1.397 . S
C29 C28 1.397 . S
C29 C30 1.385 . S
C30 H13 0.940 . S
C30 C29 1.385 . S
C30 C31 1.388 . S
C31 H10 0.939 . S
C31 C26 1.391 . S
C31 C30 1.388 . S
P32 O43 1.490 1_655 S
P32 C46 1.812 . S
P32 C52 1.803 . S
P32 C58 1.819 . S
H33 C47 0.941 1_455 S
H34 C48 0.939 . S
H35 C50 0.940 . S
H36 C51 0.940 . S
H37 C53 0.939 1_455 S
H38 C54 0.942 . S
H39 C56 0.940 . S
H40 C57 0.939 . S
H41 C59 0.973 . S
H42 C63 0.939 . S
O43 P32 1.490 1_455 S
H44 C60 0.939 . S
H45 C62 0.940 . S
C46 P32 1.812 . S
C46 C47 1.389 . S
C46 C51 1.391 . S
C47 H33 0.941 1_655 S
C47 C46 1.389 . S
C47 C48 1.397 . S
C48 H34 0.939 . S
C48 C47 1.397 . S
C48 C49 1.378 . S
C49 C48 1.378 . S
C49 C50 1.378 . S
C50 H35 0.940 . S
C50 C49 1.378 . S
C50 C51 1.396 . S
C51 H36 0.940 . S
C51 C46 1.391 . S
C51 C50 1.396 . S
C52 P32 1.803 . S
C52 C53 1.378 . S
C52 C57 1.400 . S
C53 H37 0.939 1_655 S
C53 C52 1.378 . S
C53 C54 1.361 . S
C54 H38 0.942 . S
C54 C53 1.361 . S
C54 C55 1.369 . S
C55 C54 1.369 . S
C55 C56 1.404 . S
C56 H39 0.940 . S
C56 C55 1.404 . S
C56 C57 1.389 . S
C57 H40 0.939 . S
C57 C52 1.400 . S
C57 C56 1.389 . S
C58 P32 1.819 . S
C58 C59 1.391 . S
C58 C63 1.391 . S
C59 H41 0.973 . S
C59 C58 1.391 . S
C59 C60 1.396 . S
C60 H44 0.939 . S
C60 C59 1.396 . S
C60 C61 1.397 . S
C61 C60 1.397 . S
C61 C62 1.385 . S
C62 H45 0.940 . S
C62 C61 1.385 . S
C62 C63 1.388 . S
C63 H42 0.939 . S
C63 C58 1.391 . S
C63 C62 1.388 . S
P64 O75 1.549 . S
P64 C78 1.812 . S
P64 C84 1.803 . S
P64 C90 1.819 . S
H65 C79 0.941 . S
H66 C80 0.939 . S
H67 C82 0.940 . S
H68 C83 0.940 . S
H69 C85 0.939 . S
H70 C86 0.942 . S
H71 C88 0.940 . S
H72 C89 0.939 . S
H73 C91 0.941 . S
H74 C95 0.939 . S
O75 P64 1.549 . S
H76 C92 0.939 . S
H77 C94 0.940 . S
C78 P64 1.812 . S
C78 C79 1.389 . S
C78 C83 1.391 . S
C79 H65 0.941 . S
C79 C78 1.389 . S
C79 C80 1.397 . S
C80 H66 0.939 . S
C80 C79 1.397 . S
C80 C81 1.378 . S
C81 C80 1.378 . S
C81 C82 1.378 . S
C82 H67 0.940 . S
C82 C81 1.378 . S
C82 C83 1.396 . S
C83 H68 0.940 . S
C83 C78 1.391 . S
C83 C82 1.396 . S
C84 P64 1.803 . S
C84 C85 1.378 . S
C84 C89 1.400 . S
C85 H69 0.939 . S
C85 C84 1.378 . S
C85 C86 1.361 . S
C86 H70 0.942 . S
C86 C85 1.361 . S
C86 C87 1.369 . S
C87 C86 1.369 . S
C87 C88 1.404 . S
C88 H71 0.940 . S
C88 C87 1.404 . S
C88 C89 1.389 . S
C89 H72 0.939 . S
C89 C84 1.400 . S
C89 C88 1.389 . S
C90 P64 1.819 . S
C90 C91 1.391 . S
C90 C95 1.391 . S
C91 H73 0.941 . S
C91 C90 1.391 . S
C91 C92 1.396 . S
C92 H76 0.939 . S
C92 C91 1.396 . S
C92 C93 1.397 . S
C93 C92 1.397 . S
C93 C94 1.385 . S
C94 H77 0.940 . S
C94 C93 1.385 . S
C94 C95 1.388 . S
C95 H74 0.939 . S
C95 C90 1.391 . S
C95 C94 1.388 . S
P96 O107 1.490 . S
P96 C110 1.812 . S
P96 C116 1.803 . S
P96 C122 1.819 . S
H97 C111 0.941 . S
H98 C112 0.939 . S
H99 C114 0.940 . S
H100 C115 0.940 . S
H101 C117 0.939 . S
H102 C118 0.942 . S
H103 C120 0.940 . S
H104 C121 0.939 . S
H105 C123 0.941 . S
H106 C127 0.939 . S
O107 P96 1.490 . S
H108 C124 0.939 . S
H109 C126 0.940 . S
C110 P96 1.812 . S
C110 C111 1.389 . S
C110 C115 1.391 . S
C111 H97 0.941 . S
C111 C110 1.389 . S
C111 C112 1.397 . S
C112 H98 0.939 . S
C112 C111 1.397 . S
C112 C113 1.378 . S
C113 C112 1.378 . S
C113 C114 1.378 . S
C114 H99 0.940 . S
C114 C113 1.378 . S
C114 C115 1.396 . S
C115 H100 0.940 . S
C115 C110 1.391 . S
C115 C114 1.396 . S
C116 P96 1.803 . S
C116 C117 1.378 . S
C116 C121 1.400 . S
C117 H101 0.939 . S
C117 C116 1.378 . S
C117 C118 1.361 . S
C118 H102 0.942 . S
C118 C117 1.361 . S
C118 C119 1.369 . S
C119 C118 1.369 . S
C119 C120 1.404 . S
C120 H103 0.940 . S
C120 C119 1.404 . S
C120 C121 1.389 . S
C121 H104 0.939 . S
C121 C116 1.400 . S
C121 C120 1.389 . S
C122 P96 1.819 . S
C122 C123 1.391 . S
C122 C127 1.391 . S
C123 H105 0.941 . S
C123 C122 1.391 . S
C123 C124 1.396 . S
C124 H108 0.939 . S
C124 C123 1.396 . S
C124 C125 1.397 . S
C125 C124 1.397 . S
C125 C126 1.385 . S
C126 H109 0.940 . S
C126 C125 1.385 . S
C126 C127 1.388 . S
C127 H106 0.939 . S
C127 C122 1.391 . S
C127 C126 1.388 . S
P128 O139 1.490 . S
P128 C142 1.812 . S
P128 C148 1.803 . S
P128 C154 1.819 . S
H129 C143 0.941 . S
H130 C144 0.939 . S
H131 C146 0.940 . S
H132 C147 0.940 . S
H133 C149 0.939 . S
H134 C150 0.942 . S
H135 C152 0.940 . S
H136 C153 0.939 . S
H137 C155 0.941 . S
H138 C159 0.939 . S
O139 P128 1.490 . S
H140 C156 0.939 . S
H141 C158 0.940 . S
C142 P128 1.812 . S
C142 C143 1.389 1_554 S
C142 C147 1.391 . S
C143 H129 0.941 . S
C143 C142 1.389 1_556 S
C143 C144 1.397 . S
C144 H130 0.939 . S
C144 C143 1.397 . S
C144 C145 1.378 . S
C145 C144 1.378 . S
C145 C146 1.378 . S
C146 H131 0.940 . S
C146 C145 1.378 . S
C146 C147 1.396 1_556 S
C147 H132 0.940 . S
C147 C142 1.391 . S
C147 C146 1.396 1_554 S
C148 P128 1.803 . S
C148 C149 1.378 . S
C148 C153 1.400 . S
C149 H133 0.939 . S
C149 C148 1.378 . S
C149 C150 1.361 . S
C150 H134 0.942 . S
C150 C149 1.361 . S
C150 C151 1.369 . S
C151 C150 1.369 . S
C151 C152 1.404 . S
C152 H135 0.940 . S
C152 C151 1.404 . S
C152 C153 1.389 . S
C153 H136 0.939 . S
C153 C148 1.400 . S
C153 C152 1.389 . S
C154 P128 1.819 . S
C154 C155 1.391 . S
C154 C159 1.391 . S
C155 H137 0.941 . S
C155 C154 1.391 . S
C155 C156 1.396 . S
C156 H140 0.939 . S
C156 C155 1.396 . S
C156 C157 1.397 . S
C157 C156 1.397 . S
C157 C158 1.385 . S
C158 H141 0.940 . S
C158 C157 1.385 . S
C158 C159 1.388 . S
C159 H138 0.939 . S
C159 C154 1.391 . S
C159 C158 1.388 . S
P160 O171 1.490 . S
P160 C174 1.812 1_554 S
P160 C180 1.803 . S
P160 C186 1.819 . S
H161 C175 0.941 . S
H162 C176 0.939 . S
H163 C178 0.940 . S
H164 C179 0.940 . S
H165 C181 0.939 . S
H166 C182 0.942 . S
H167 C184 0.940 . S
H168 C185 0.939 . S
H169 C187 0.941 . S
H170 C191 0.939 . S
O171 P160 1.490 . S
H172 C188 0.939 . S
H173 C190 0.940 . S
C174 P160 1.812 1_556 S
C174 C175 1.389 . S
C174 C179 1.391 . S
C175 H161 0.941 . S
C175 C174 1.389 . S
C175 C176 1.397 . S
C176 H162 0.939 . S
C176 C175 1.397 . S
C176 C177 1.378 . S
C177 C176 1.378 . S
C177 C178 1.378 . S
C178 H163 0.940 . S
C178 C177 1.378 . S
C178 C179 1.396 . S
C179 H164 0.940 . S
C179 C174 1.391 . S
C179 C178 1.396 . S
C180 P160 1.803 . S
C180 C181 1.378 . S
C180 C185 1.400 . S
C181 H165 0.939 . S
C181 C180 1.378 . S
C181 C182 1.361 . S
C182 H166 0.942 . S
C182 C181 1.361 . S
C182 C183 1.369 . S
C183 C182 1.369 . S
C183 C184 1.404 . S
C184 H167 0.940 . S
C184 C183 1.404 . S
C184 C185 1.389 . S
C185 H168 0.939 . S
C185 C180 1.400 . S
C185 C184 1.389 . S
C186 P160 1.819 . S
C186 C187 1.391 . S
C186 C191 1.391 . S
C187 H169 0.941 . S
C187 C186 1.391 . S
C187 C188 1.396 . S
C188 H172 0.939 . S
C188 C187 1.396 . S
C188 C189 1.397 . S
C189 C188 1.397 . S
C189 C190 1.385 . S
C190 H173 0.940 . S
C190 C189 1.385 . S
C190 C191 1.388 . S
C191 H170 0.939 . S
C191 C186 1.391 . S
C191 C190 1.388 . S
P192 O203 1.490 . S
P192 C206 1.812 1_554 S
P192 C212 1.803 . S
P192 C218 1.819 . S
H193 C207 0.941 . S
H194 C208 0.939 . S
H195 C210 0.940 . S
H196 C211 0.940 . S
H197 C213 0.939 . S
H198 C214 0.942 . S
H199 C216 0.940 . S
H200 C217 0.939 1_556 S
H201 C219 0.941 . S
H202 C223 0.939 . S
O203 P192 1.490 . S
H204 C220 0.939 . S
H205 C222 0.940 . S
C206 P192 1.812 1_556 S
C206 C207 1.389 . S
C206 C211 1.391 . S
C207 H193 0.941 . S
C207 C206 1.389 . S
C207 C208 1.397 . S
C208 H194 0.939 . S
C208 C207 1.397 . S
C208 C209 1.378 . S
C209 C208 1.378 . S
C209 C210 1.378 . S
C210 H195 0.940 . S
C210 C209 1.378 . S
C210 C211 1.396 . S
C211 H196 0.940 . S
C211 C206 1.391 . S
C211 C210 1.396 . S
C212 P192 1.803 . S
C212 C213 1.378 . S
C212 C217 1.400 . S
C213 H197 0.939 . S
C213 C212 1.378 . S
C213 C214 1.361 . S
C214 H198 0.942 . S
C214 C213 1.361 . S
C214 C215 1.369 . S
C215 C214 1.369 . S
C215 C216 1.404 . S
C216 H199 0.940 . S
C216 C215 1.404 . S
C216 C217 1.389 . S
C217 H200 0.939 1_554 S
C217 C212 1.400 . S
C217 C216 1.389 . S
C218 P192 1.819 . S
C218 C219 1.391 . S
C218 C223 1.391 . S
C219 H201 0.941 . S
C219 C218 1.391 . S
C219 C220 1.396 . S
C220 H204 0.939 . S
C220 C219 1.396 . S
C220 C221 1.397 . S
C221 C220 1.397 . S
C221 C222 1.385 . S
C222 H205 0.940 . S
C222 C221 1.385 . S
C222 C223 1.388 . S
C223 H202 0.939 . S
C223 C218 1.391 . S
C223 C222 1.388 . S
P224 O235 1.490 . S
P224 C238 1.812 . S
P224 C244 1.803 . S
P224 C250 1.819 . S
H225 C239 0.941 . S
H226 C240 0.939 . S
H227 C242 0.940 . S
H228 C243 0.949 . S
H229 C245 0.939 . S
H230 C246 0.942 . S
H231 C248 0.940 . S
H232 C249 0.939 . S
H233 C251 0.941 . S
H234 C255 0.939 . S
O235 P224 1.490 . S
H236 C252 0.939 . S
H237 C254 0.940 . S
C238 P224 1.812 . S
C238 C239 1.389 1_554 S
C238 C243 1.392 . S
C239 H225 0.941 . S
C239 C238 1.389 1_556 S
C239 C240 1.397 . S
C240 H226 0.939 . S
C240 C239 1.397 . S
C240 C241 1.378 . S
C241 C240 1.378 . S
C241 C242 1.378 . S
C242 H227 0.940 . S
C242 C241 1.378 . S
C242 C243 1.386 1_556 S
C243 H228 0.949 . S
C243 C238 1.392 . S
C243 C242 1.386 1_554 S
C244 P224 1.803 . S
C244 C245 1.378 . S
C244 C249 1.400 . S
C245 H229 0.939 . S
C245 C244 1.378 . S
C245 C246 1.361 . S
C246 H230 0.942 . S
C246 C245 1.361 . S
C246 C247 1.369 . S
C247 C246 1.369 . S
C247 C248 1.404 . S
C248 H231 0.940 . S
C248 C247 1.404 . S
C248 C249 1.389 . S
C249 H232 0.939 . S
C249 C244 1.400 . S
C249 C248 1.389 . S
C250 P224 1.819 . S
C250 C251 1.391 . S
C250 C255 1.391 . S
C251 H233 0.941 . S
C251 C250 1.391 . S
C251 C252 1.396 . S
C252 H236 0.939 . S
C252 C251 1.396 . S
C252 C253 1.397 . S
C253 C252 1.397 . S
C253 C254 1.385 . S
C254 H237 0.940 . S
C254 C253 1.385 . S
C254 C255 1.388 . S
C255 H234 0.939 . S
C255 C250 1.391 . S
C255 C254 1.388 . S
Eu256 C265 2.828 . S
Eu256 O267 2.392 . S
Eu256 O269 2.418 1_545 S
Eu256 O274 2.373 1_655 S
Eu256 O277 2.488 . S
Eu256 O278 2.471 . S
Eu256 O279 2.349 1_655 S
Eu257 O266 2.373 1_455 S
Eu257 O270 2.488 . S
Eu257 O271 2.471 . S
Eu257 O272 2.349 . S
Eu257 O275 2.392 1_565 S
Eu257 O276 2.418 1_565 S
Eu257 C286 2.828 . S
C258 O276 1.244 . S
C258 O279 1.265 . S
C259 C260 1.379 1_655 S
C259 C263 1.373 . S
C259 C265 1.505 . S
C260 C259 1.379 1_455 S
C260 C262 1.369 . S
C260 H288 0.930 . S
C261 C263 1.383 . S
C261 C264 1.382 1_655 S
C261 H289 0.930 . S
C262 C260 1.369 . S
C262 C264 1.392 . S
C262 H290 0.930 . S
C263 C259 1.373 . S
C263 C261 1.383 . S
C263 H291 0.931 . S
C264 C261 1.382 1_455 S
C264 C262 1.392 . S
C265 Eu256 2.828 . S
C265 C259 1.505 . S
C265 O277 1.249 . S
C265 O278 1.244 . S
O266 Eu257 2.373 1_655 S
O266 C268 1.258 . S
O267 Eu256 2.392 . S
O267 C268 1.242 1_545 S
C268 O266 1.258 . S
C268 O267 1.242 1_565 S
O269 Eu256 2.418 1_565 S
O269 C273 1.244 . S
O270 Eu257 2.488 . S
O270 C286 1.249 . S
O271 Eu257 2.471 . S
O271 C286 1.244 . S
O272 Eu257 2.349 . S
O272 C273 1.265 1_455 S
C273 O269 1.244 . S
C273 O272 1.265 1_655 S
O274 Eu256 2.373 1_455 S
O274 C287 1.258 . S
O275 Eu257 2.392 1_545 S
O275 C287 1.242 . S
O276 Eu257 2.418 1_545 S
O276 C258 1.244 . S
O277 Eu256 2.488 . S
O277 C265 1.249 . S
O278 Eu256 2.471 . S
O278 C265 1.244 . S
O279 Eu256 2.349 1_455 S
O279 C258 1.265 . S
C280 C281 1.379 . S
C280 C284 1.373 . S
C280 C286 1.505 . S
C281 C280 1.379 . S
C281 C283 1.379 . S
C281 H292 0.930 1_455 S
C282 C284 1.383 . S
C282 C285 1.382 . S
C282 H293 0.930 . S
C283 C281 1.379 . S
C283 C285 1.414 . S
C283 H294 0.900 1_455 S
C284 C280 1.373 . S
C284 C282 1.383 . S
C284 H295 0.931 . S
C285 C282 1.382 . S
C285 C283 1.414 . S
C286 Eu257 2.828 . S
C286 O270 1.249 . S
C286 O271 1.244 . S
C286 C280 1.505 . S
C287 O274 1.258 . S
C287 O275 1.242 . S
H288 C260 0.930 . S
H289 C261 0.930 . S
H290 C262 0.930 . S
H291 C263 0.931 . S
H292 C281 0.930 1_655 S
H293 C282 0.930 . S
H294 C283 0.900 1_655 S
H295 C284 0.931 . S
Eu296 C305 2.828 . S
Eu296 O307 2.392 . S
Eu296 O309 2.418 . S
Eu296 O314 2.373 . S
Eu296 O317 2.488 . S
Eu296 O318 2.471 . S
Eu296 O319 2.349 1_545 S
Eu297 O306 2.373 1_565 S
Eu297 O310 2.488 . S
Eu297 O311 2.471 1_565 S
Eu297 O312 2.349 1_565 S
Eu297 O315 2.392 . S
Eu297 O316 2.418 . S
Eu297 C326 2.828 . S
C298 O316 1.244 . S
C298 O319 1.265 . S
C299 C300 1.379 1_545 S
C299 C303 1.373 . S
C299 C305 1.505 . S
C300 C299 1.379 1_565 S
C300 C302 1.369 . S
C300 H328 0.930 . S
C301 C303 1.383 . S
C301 C304 1.382 . S
C301 H329 0.930 . S
C302 C300 1.369 . S
C302 C304 1.392 1_565 S
C302 H330 0.930 . S
C303 C299 1.373 . S
C303 C301 1.383 . S
C303 H331 0.931 . S
C304 C301 1.382 . S
C304 C302 1.392 1_545 S
C305 Eu296 2.828 . S
C305 C299 1.505 . S
C305 O317 1.249 . S
C305 O318 1.244 . S
O306 Eu297 2.373 1_545 S
O306 C308 1.258 . S
O307 Eu296 2.392 . S
O307 C308 1.242 . S
C308 O306 1.258 . S
C308 O307 1.242 . S
O309 Eu296 2.418 . S
O309 C313 1.244 . S
O310 Eu297 2.488 . S
O310 C326 1.249 . S
O311 Eu297 2.471 1_545 S
O311 C326 1.244 1_545 S
O312 Eu297 2.349 1_545 S
O312 C313 1.265 . S
C313 O309 1.244 . S
C313 O312 1.265 . S
O314 Eu296 2.373 . S
O314 C327 1.258 1_545 S
O315 Eu297 2.392 . S
O315 C327 1.242 . S
O316 Eu297 2.418 . S
O316 C298 1.244 . S
O317 Eu296 2.488 . S
O317 C305 1.249 . S
O318 Eu296 2.471 . S
O318 C305 1.244 . S
O319 Eu296 2.349 1_565 S
O319 C298 1.265 . S
C320 C321 1.379 1_565 S
C320 C324 1.373 . S
C320 C326 1.505 . S
C321 C320 1.379 1_545 S
C321 C323 1.369 . S
C321 H332 0.930 . S
C322 C324 1.383 . S
C322 C325 1.382 1_565 S
C322 H333 0.930 . S
C323 C321 1.369 . S
C323 C325 1.392 . S
C323 H334 0.930 . S
C324 C320 1.373 . S
C324 C322 1.383 . S
C324 H335 0.931 . S
C325 C322 1.382 1_545 S
C325 C323 1.392 . S
C326 Eu297 2.828 . S
C326 O310 1.249 . S
C326 O311 1.244 1_565 S
C326 C320 1.505 . S
C327 O314 1.258 1_565 S
C327 O315 1.242 . S
H328 C300 0.930 . S
H329 C301 0.930 . S
H330 C302 0.930 . S
H331 C303 0.931 . S
H332 C321 0.930 . S
H333 C322 0.930 . S
H334 C323 0.930 . S
H335 C324 0.931 . S
Eu336 C345 2.828 . S
Eu336 O347 2.392 . S
Eu336 O349 2.418 . S
Eu336 O354 2.373 . S
Eu336 O357 2.488 . S
Eu336 O358 2.471 . S
Eu336 O359 2.349 . S
Eu337 O346 2.373 . S
Eu337 O350 2.488 . S
Eu337 O351 2.471 . S
Eu337 O352 2.349 . S
Eu337 O355 2.392 . S
Eu337 O356 2.418 . S
Eu337 C366 2.828 . S
C338 O356 1.244 . S
C338 O359 1.265 . S
C339 C340 1.379 . S
C339 C343 1.373 . S
C339 C345 1.505 . S
C340 C339 1.379 . S
C340 C342 1.369 . S
C340 H368 0.930 . S
C341 C343 1.383 . S
C341 C344 1.382 . S
C341 H369 0.930 . S
C342 C340 1.369 . S
C342 C344 1.392 . S
C342 H370 0.930 . S
C343 C339 1.373 . S
C343 C341 1.383 . S
C343 H371 0.931 . S
C344 C341 1.382 . S
C344 C342 1.392 . S
C345 Eu336 2.828 . S
C345 C339 1.505 . S
C345 O357 1.249 . S
C345 O358 1.244 . S
O346 Eu337 2.373 . S
O346 C348 1.258 . S
O347 Eu336 2.392 . S
O347 C348 1.242 . S
C348 O346 1.258 . S
C348 O347 1.242 . S
O349 Eu336 2.418 . S
O349 C353 1.244 . S
O350 Eu337 2.488 . S
O350 C366 1.249 . S
O351 Eu337 2.471 . S
O351 C366 1.244 . S
O352 Eu337 2.349 . S
O352 C353 1.265 . S
C353 O349 1.244 . S
C353 O352 1.265 . S
O354 Eu336 2.373 . S
O354 C367 1.258 . S
O355 Eu337 2.392 . S
O355 C367 1.242 . S
O356 Eu337 2.418 . S
O356 C338 1.244 . S
O357 Eu336 2.488 . S
O357 C345 1.249 . S
O358 Eu336 2.471 . S
O358 C345 1.244 . S
O359 Eu336 2.349 . S
O359 C338 1.265 . S
C360 C361 1.379 . S
C360 C364 1.373 . S
C360 C366 1.505 . S
C361 C360 1.379 . S
C361 C363 1.369 . S
C361 H372 0.930 . S
C362 C364 1.383 . S
C362 C365 1.382 . S
C362 H373 0.930 . S
C363 C361 1.369 . S
C363 C365 1.392 . S
C363 H374 0.930 . S
C364 C360 1.373 . S
C364 C362 1.383 . S
C364 H375 0.931 . S
C365 C362 1.382 . S
C365 C363 1.392 . S
C366 Eu337 2.828 . S
C366 O350 1.249 . S
C366 O351 1.244 . S
C366 C360 1.505 . S
C367 O354 1.258 . S
C367 O355 1.242 . S
H368 C340 0.930 . S
H369 C341 0.930 . S
H370 C342 0.930 . S
H371 C343 0.931 . S
H372 C361 0.930 . S
H373 C362 0.930 . S
H374 C363 0.930 . S
H375 C364 0.931 . S
Eu376 C385 2.828 . S
Eu376 O387 2.392 . S
Eu376 O389 2.418 1_455 S
Eu376 O394 2.373 . S
Eu376 O397 2.488 . S
Eu376 O398 2.471 . S
Eu376 O399 2.349 . S
Eu377 O386 2.373 . S
Eu377 O390 2.488 . S
Eu377 O391 2.471 . S
Eu377 O392 2.349 . S
Eu377 O395 2.392 1_655 S
Eu377 O396 2.418 1_655 S
Eu377 C406 2.828 . S
C378 O396 1.244 . S
C378 O399 1.265 . S
C379 C380 1.379 . S
C379 C383 1.373 . S
C379 C385 1.505 . S
C380 C379 1.379 . S
C380 C382 1.369 . S
C380 H408 0.930 . S
C381 C383 1.383 . S
C381 C384 1.382 . S
C381 H409 0.930 . S
C382 C380 1.369 . S
C382 C384 1.392 . S
C382 H410 0.930 . S
C383 C379 1.373 . S
C383 C381 1.383 . S
C383 H411 0.931 . S
C384 C381 1.382 . S
C384 C382 1.392 . S
C385 Eu376 2.828 . S
C385 C379 1.505 . S
C385 O397 1.249 . S
C385 O398 1.244 . S
O386 Eu377 2.373 . S
O386 C388 1.258 1_655 S
O387 Eu376 2.392 . S
O387 C388 1.242 . S
C388 O386 1.258 1_455 S
C388 O387 1.242 . S
O389 Eu376 2.418 1_655 S
O389 C393 1.244 . S
O390 Eu377 2.488 . S
O390 C406 1.249 . S
O391 Eu377 2.471 . S
O391 C406 1.244 . S
O392 Eu377 2.349 . S
O392 C393 1.265 . S
C393 O389 1.244 . S
C393 O392 1.265 . S
O394 Eu376 2.373 . S
O394 C407 1.258 . S
O395 Eu377 2.392 1_455 S
O395 C407 1.242 . S
O396 Eu377 2.418 1_455 S
O396 C378 1.244 . S
O397 Eu376 2.488 . S
O397 C385 1.249 . S
O398 Eu376 2.471 . S
O398 C385 1.244 . S
O399 Eu376 2.349 . S
O399 C378 1.265 . S
C400 C401 1.379 . S
C400 C404 1.373 . S
C400 C406 1.505 . S
C401 C400 1.379 . S
C401 C403 1.369 . S
C401 H412 0.930 . S
C402 C404 1.383 . S
C402 C405 1.382 . S
C402 H413 0.930 . S
C403 C401 1.369 . S
C403 C405 1.392 . S
C403 H414 0.930 . S
C404 C400 1.373 . S
C404 C402 1.383 . S
C404 H415 0.931 . S
C405 C402 1.382 . S
C405 C403 1.392 . S
C406 Eu377 2.828 . S
C406 O390 1.249 . S
C406 O391 1.244 . S
C406 C400 1.505 . S
C407 O394 1.258 . S
C407 O395 1.242 . S
H408 C380 0.930 . S
H409 C381 0.930 . S
H410 C382 0.930 . S
H411 C383 0.931 . S
H412 C401 0.930 . S
H413 C402 0.930 . S
H414 C403 0.930 . S
H415 C404 0.931 . S
C416 C417 1.349 . S
C416 C418 1.327 . S
C416 H441 0.950 . S
C417 C416 1.349 . S
C417 C433 1.349 . S
C418 C416 1.327 . S
C418 C437 1.429 . S
C418 H442 0.950 . S
C419 C436 1.574 . S
C419 C438 1.368 . S
C419 H443 0.949 . S
H420 C424 0.949 . S
C421 C422 1.349 . S
C421 C423 1.327 . S
C421 H444 0.950 1_545 S
C422 C421 1.349 . S
C422 C434 1.349 . S
C423 C421 1.327 . S
C423 C439 1.429 . S
C423 H445 0.950 . S
C424 H420 0.949 . S
C424 C432 1.574 . S
C424 C440 1.368 . S
H425 C433 0.950 . S
H426 C431 0.950 . S
H427 C432 0.949 . S
H428 C434 0.950 . S
H429 C435 0.950 . S
H430 C436 0.949 . S
C431 H426 0.950 . S
C431 C433 1.327 . S
C431 C437 1.429 . S
C432 C424 1.574 . S
C432 H427 0.949 . S
C432 C438 1.368 . S
C433 C417 1.349 . S
C433 H425 0.950 . S
C433 C431 1.327 . S
C434 C422 1.349 . S
C434 H428 0.950 . S
C434 C435 1.327 . S
C435 H429 0.950 . S
C435 C434 1.327 . S
C435 C439 1.429 . S
C436 C419 1.574 . S
C436 H430 0.949 . S
C436 C440 1.368 . S
C437 C418 1.429 . S
C437 C431 1.429 . S
C437 C438 1.523 . S
C438 C419 1.368 . S
C438 C432 1.368 . S
C438 C437 1.523 . S
C439 C423 1.429 . S
C439 C435 1.429 . S
C439 C440 1.523 . S
C440 C424 1.368 . S
C440 C436 1.368 . S
C440 C439 1.523 . S
H441 C416 0.950 . S
H442 C418 0.950 . S
H443 C419 0.949 . S
H444 C421 0.950 1_565 S
H445 C423 0.950 . S
C446 C447 1.349 . S
C446 C448 1.327 . S
C446 H471 0.950 . S
C447 C446 1.349 . S
C447 C463 1.349 . S
C448 C446 1.327 . S
C448 C467 1.429 . S
C448 H472 0.950 . S
C449 C466 1.574 . S
C449 C468 1.368 . S
C449 H473 0.949 . S
H450 C454 0.949 . S
C451 C452 1.349 . S
C451 C453 1.327 . S
C451 H474 0.950 . S
C452 C451 1.349 . S
C452 C464 1.349 . S
C453 C451 1.327 . S
C453 C469 1.429 . S
C453 H475 0.950 . S
C454 H450 0.949 . S
C454 C462 1.574 . S
C454 C470 1.368 . S
H455 C463 0.950 . S
H456 C461 0.950 . S
H457 C462 0.949 . S
H458 C464 0.950 . S
H459 C465 0.950 . S
H460 C466 0.949 . S
C461 H456 0.950 . S
C461 C463 1.327 . S
C461 C467 1.429 . S
C462 C454 1.574 . S
C462 H457 0.949 . S
C462 C468 1.368 . S
C463 C447 1.349 . S
C463 H455 0.950 . S
C463 C461 1.327 . S
C464 C452 1.349 . S
C464 H458 0.950 . S
C464 C465 1.327 . S
C465 H459 0.950 . S
C465 C464 1.327 . S
C465 C469 1.429 . S
C466 C449 1.574 . S
C466 H460 0.949 . S
C466 C470 1.368 . S
C467 C448 1.429 . S
C467 C461 1.429 . S
C467 C468 1.523 . S
C468 C449 1.368 . S
C468 C462 1.368 . S
C468 C467 1.523 . S
C469 C453 1.429 . S
C469 C465 1.429 . S
C469 C470 1.523 . S
C470 C454 1.368 . S
C470 C466 1.368 . S
C470 C469 1.523 . S
H471 C446 0.950 . S
H472 C448 0.950 . S
H473 C449 0.949 . S
H474 C451 0.950 . S
H475 C453 0.950 . S
C476 C477 1.349 . S
C476 C478 1.327 . S
C476 H501 0.950 . S
C477 C476 1.349 . S
C477 C493 1.349 . S
C478 C476 1.327 . S
C478 C497 1.429 . S
C478 H502 0.950 . S
C479 C496 1.574 . S
C479 C498 1.368 . S
C479 H503 0.949 . S
H480 C484 0.949 . S
C481 C482 1.349 . S
C481 C483 1.327 . S
C481 H504 0.950 . S
C482 C481 1.349 . S
C482 C494 1.349 . S
C483 C481 1.327 . S
C483 C499 1.429 . S
C483 H505 0.950 . S
C484 H480 0.949 . S
C484 C492 1.574 . S
C484 C500 1.368 . S
H485 C493 0.950 . S
H486 C491 0.950 . S
H487 C492 0.949 . S
H488 C494 0.950 . S
H489 C495 0.950 . S
H490 C496 0.949 . S
C491 H486 0.950 . S
C491 C493 1.327 . S
C491 C497 1.429 . S
C492 C484 1.574 . S
C492 H487 0.949 . S
C492 C498 1.368 . S
C493 C477 1.349 . S
C493 H485 0.950 . S
C493 C491 1.327 . S
C494 C482 1.349 . S
C494 H488 0.950 . S
C494 C495 1.327 . S
C495 H489 0.950 . S
C495 C494 1.327 . S
C495 C499 1.429 . S
C496 C479 1.574 . S
C496 H490 0.949 . S
C496 C500 1.368 . S
C497 C478 1.429 . S
C497 C491 1.429 . S
C497 C498 1.523 . S
C498 C479 1.368 . S
C498 C492 1.368 . S
C498 C497 1.523 . S
C499 C483 1.429 . S
C499 C495 1.429 . S
C499 C500 1.523 . S
C500 C484 1.368 . S
C500 C496 1.368 . S
C500 C499 1.523 . S
H501 C476 0.950 . S
H502 C478 0.950 . S
H503 C479 0.949 . S
H504 C481 0.950 . S
H505 C483 0.950 . S
C506 C507 1.349 . S
C506 C508 1.327 . S
C506 H531 0.950 . S
C507 C506 1.349 . S
C507 C523 1.349 . S
C508 C506 1.327 . S
C508 C527 1.429 . S
C508 H532 0.950 . S
C509 C526 1.574 . S
C509 C528 1.368 . S
C509 H533 0.949 . S
H510 C514 0.949 . S
C511 C512 1.349 . S
C511 C513 1.327 . S
C511 H534 0.950 . S
C512 C511 1.349 . S
C512 C524 1.349 . S
C513 C511 1.327 . S
C513 C529 1.429 . S
C513 H535 0.950 . S
C514 H510 0.949 . S
C514 C522 1.574 . S
C514 C530 1.368 . S
H515 C523 0.950 . S
H516 C521 0.950 . S
H517 C522 0.949 . S
H518 C524 0.950 . S
H519 C525 0.950 . S
H520 C526 0.949 . S
C521 H516 0.950 . S
C521 C523 1.327 . S
C521 C527 1.429 . S
C522 C514 1.574 . S
C522 H517 0.949 . S
C522 C528 1.368 . S
C523 C507 1.349 . S
C523 H515 0.950 . S
C523 C521 1.327 . S
C524 C512 1.349 . S
C524 H518 0.950 . S
C524 C525 1.327 . S
C525 H519 0.950 . S
C525 C524 1.327 . S
C525 C529 1.429 . S
C526 C509 1.574 . S
C526 H520 0.949 . S
C526 C530 1.368 . S
C527 C508 1.429 . S
C527 C521 1.429 . S
C527 C528 1.523 . S
C528 C509 1.368 . S
C528 C522 1.368 . S
C528 C527 1.523 . S
C529 C513 1.429 . S
C529 C525 1.429 . S
C529 C530 1.523 . S
C530 C514 1.368 . S
C530 C526 1.368 . S
C530 C529 1.523 . S
H531 C506 0.950 . S
H532 C508 0.950 . S
H533 C509 0.949 . S
H534 C511 0.950 . S
H535 C513 0.950 . S
C536 C537 1.349 . S
C536 C538 1.327 . S
C536 H561 0.950 . S
C537 C536 1.349 . S
C537 C553 1.349 . S
C538 C536 1.327 . S
C538 C557 1.429 . S
C538 H562 0.950 . S
C539 C556 1.574 . S
C539 C558 1.368 . S
C539 H563 0.949 1_556 S
H540 C544 0.949 . S
C541 C542 1.349 1_545 S
C541 C543 1.327 1_545 S
C541 H564 0.949 . S
C542 C541 1.349 1_565 S
C542 C554 1.349 . S
C543 C541 1.327 1_565 S
C543 C559 1.429 . S
C543 H565 0.950 1_565 S
C544 H540 0.949 . S
C544 C552 1.574 . S
C544 C560 1.368 . S
H545 C553 0.950 . S
H546 C551 0.950 . S
H547 C552 0.949 . S
H548 C554 0.950 . S
H549 C555 0.950 . S
H550 C556 0.949 . S
C551 H546 0.950 . S
C551 C553 1.327 . S
C551 C557 1.429 . S
C552 C544 1.574 . S
C552 H547 0.949 . S
C552 C558 1.368 . S
C553 C537 1.349 . S
C553 H545 0.950 . S
C553 C551 1.327 . S
C554 C542 1.349 . S
C554 H548 0.950 . S
C554 C555 1.327 . S
C555 H549 0.950 . S
C555 C554 1.327 . S
C555 C559 1.429 . S
C556 C539 1.574 . S
C556 H550 0.949 . S
C556 C560 1.368 . S
C557 C538 1.429 . S
C557 C551 1.429 . S
C557 C558 1.523 1_554 S
C558 C539 1.368 . S
C558 C552 1.368 . S
C558 C557 1.523 1_556 S
C559 C543 1.429 . S
C559 C555 1.429 . S
C559 C560 1.523 . S
C560 C544 1.368 . S
C560 C556 1.368 . S
C560 C559 1.523 . S
H561 C536 0.950 . S
H562 C538 0.950 . S
H563 C539 0.949 1_554 S
H564 C541 0.949 . S
H565 C543 0.950 1_545 S
C566 C567 1.349 . S
C566 C568 1.327 . S
C566 H591 0.950 . S
C567 C566 1.349 . S
C567 C583 1.349 . S
C568 C566 1.327 . S
C568 C587 1.429 . S
C568 H592 0.950 1_554 S
C569 C586 1.574 . S
C569 C588 1.368 . S
C569 H593 0.949 . S
H570 C574 0.949 . S
C571 C572 1.349 . S
C571 C573 1.327 . S
C571 H594 0.950 . S
C572 C571 1.349 . S
C572 C584 1.349 . S
C573 C571 1.327 . S
C573 C589 1.429 . S
C573 H595 0.950 . S
C574 H570 0.949 . S
C574 C582 1.574 . S
C574 C590 1.368 . S
H575 C583 0.950 . S
H576 C581 0.950 . S
H577 C582 0.949 . S
H578 C584 0.950 . S
H579 C585 0.950 . S
H580 C586 0.949 . S
C581 H576 0.950 . S
C581 C583 1.327 . S
C581 C587 1.429 . S
C582 C574 1.574 . S
C582 H577 0.949 . S
C582 C588 1.368 . S
C583 C567 1.349 . S
C583 H575 0.950 . S
C583 C581 1.327 . S
C584 C572 1.349 . S
C584 H578 0.950 . S
C584 C585 1.327 . S
C585 H579 0.950 . S
C585 C584 1.327 . S
C585 C589 1.429 . S
C586 C569 1.574 . S
C586 H580 0.949 . S
C586 C590 1.368 . S
C587 C568 1.429 . S
C587 C581 1.429 . S
C587 C588 1.523 1_554 S
C588 C569 1.368 . S
C588 C582 1.368 . S
C588 C587 1.523 1_556 S
C589 C573 1.429 . S
C589 C585 1.429 . S
C589 C590 1.523 . S
C590 C574 1.368 . S
C590 C586 1.368 . S
C590 C589 1.523 . S
H591 C566 0.950 . S
H592 C568 0.950 1_556 S
H593 C569 0.949 . S
H594 C571 0.950 . S
H595 C573 0.950 . S
C596 C597 1.349 . S
C596 C598 1.327 . S
C596 H621 0.950 . S
C597 C596 1.349 . S
C597 C613 1.349 . S
C598 C596 1.327 . S
C598 C617 1.429 1_554 S
C598 H622 0.950 . S
C599 C616 1.574 . S
C599 C618 1.368 . S
C599 H623 0.949 . S
H600 C604 0.949 . S
C601 C602 1.349 . S
C601 C603 1.327 . S
C601 H624 0.950 . S
C602 C601 1.349 . S
C602 C614 1.349 . S
C603 C601 1.327 . S
C603 C619 1.429 . S
C603 H625 0.950 . S
C604 H600 0.949 . S
C604 C612 1.574 . S
C604 C620 1.368 . S
H605 C613 0.950 . S
H606 C611 0.950 . S
H607 C612 0.949 . S
H608 C614 0.950 . S
H609 C615 0.950 . S
H610 C616 0.949 . S
C611 H606 0.950 . S
C611 C613 1.327 1_556 S
C611 C617 1.429 . S
C612 C604 1.574 . S
C612 H607 0.949 . S
C612 C618 1.368 . S
C613 C597 1.349 . S
C613 H605 0.950 . S
C613 C611 1.327 1_554 S
C614 C602 1.349 . S
C614 H608 0.950 . S
C614 C615 1.327 . S
C615 H609 0.950 . S
C615 C614 1.327 . S
C615 C619 1.429 . S
C616 C599 1.574 . S
C616 H610 0.949 . S
C616 C620 1.368 . S
C617 C598 1.429 1_556 S
C617 C611 1.429 . S
C617 C618 1.523 . S
C618 C599 1.368 . S
C618 C612 1.368 . S
C618 C617 1.523 . S
C619 C603 1.429 . S
C619 C615 1.429 . S
C619 C620 1.523 . S
C620 C604 1.368 . S
C620 C616 1.368 . S
C620 C619 1.523 . S
H621 C596 0.950 . S
H622 C598 0.950 . S
H623 C599 0.949 . S
H624 C601 0.950 . S
H625 C603 0.950 . S
C626 C627 1.349 . S
C626 C628 1.327 . S
C626 H651 0.950 . S
C627 C626 1.349 . S
C627 C643 1.349 . S
C628 C626 1.327 . S
C628 C647 1.429 . S
C628 H652 0.950 . S
C629 C646 1.574 1_655 S
C629 C648 1.368 . S
C629 H653 0.949 1_655 S
H630 C634 0.949 . S
C631 C632 1.349 1_455 S
C631 C633 1.327 . S
C631 H654 0.950 . S
C632 C631 1.349 1_655 S
C632 C644 1.349 . S
C633 C631 1.327 . S
C633 C649 1.429 1_455 S
C633 H655 0.950 . S
C634 H630 0.949 . S
C634 C642 1.574 . S
C634 C650 1.368 . S
H635 C643 0.950 . S
H636 C641 0.950 1_455 S
H637 C642 0.949 . S
H638 C644 0.950 . S
H639 C645 0.950 . S
H640 C646 0.949 . S
C641 H636 0.950 1_655 S
C641 C643 1.327 . S
C641 C647 1.429 . S
C642 C634 1.574 . S
C642 H637 0.949 . S
C642 C648 1.368 . S
C643 C627 1.349 . S
C643 H635 0.950 . S
C643 C641 1.327 . S
C644 C632 1.349 . S
C644 H638 0.950 . S
C644 C645 1.327 . S
C645 H639 0.950 . S
C645 C644 1.327 . S
C645 C649 1.429 . S
C646 C629 1.574 1_455 S
C646 H640 0.949 . S
C646 C650 1.368 1_455 S
C647 C628 1.429 . S
C647 C641 1.429 . S
C647 C648 1.523 1_554 S
C648 C629 1.368 . S
C648 C642 1.368 . S
C648 C647 1.523 1_556 S
C649 C633 1.429 1_655 S
C649 C645 1.429 . S
C649 C650 1.523 . S
C650 C634 1.368 . S
C650 C646 1.368 1_655 S
C650 C649 1.523 . S
H651 C626 0.950 . S
H652 C628 0.950 . S
H653 C629 0.949 1_455 S
H654 C631 0.950 . S
H655 C633 0.950 . S
C656 C657 1.349 . S
C656 C658 1.327 . S
C656 H681 0.950 . S
C657 C656 1.349 . S
C657 C673 1.349 . S
C658 C656 1.327 . S
C658 C677 1.429 . S
C658 H682 0.950 . S
C659 C676 1.574 . S
C659 C678 1.368 . S
C659 H683 0.949 . S
H660 C664 0.949 1_655 S
C661 C662 1.360 . S
C661 C663 1.327 . S
C661 H684 0.950 . S
C662 C661 1.360 . S
C662 C674 1.343 1_455 S
C663 C661 1.327 . S
C663 C679 1.429 . S
C663 H685 0.950 . S
C664 H660 0.949 1_455 S
C664 C672 1.574 . S
C664 C680 1.368 . S
H665 C673 0.950 . S
H666 C671 0.950 . S
H667 C672 0.949 . S
H668 C674 0.950 . S
H669 C675 0.950 . S
H670 C676 0.949 . S
C671 H666 0.950 . S
C671 C673 1.327 . S
C671 C677 1.429 . S
C672 C664 1.574 . S
C672 H667 0.949 . S
C672 C678 1.368 . S
C673 C657 1.349 . S
C673 H665 0.950 . S
C673 C671 1.327 . S
C674 C662 1.343 1_655 S
C674 H668 0.950 . S
C674 C675 1.327 . S
C675 H669 0.950 . S
C675 C674 1.327 . S
C675 C679 1.429 1_655 S
C676 C659 1.574 . S
C676 H670 0.949 . S
C676 C680 1.368 . S
C677 C658 1.429 . S
C677 C671 1.429 . S
C677 C678 1.523 . S
C678 C659 1.368 . S
C678 C672 1.368 . S
C678 C677 1.523 . S
C679 C663 1.429 . S
C679 C675 1.429 1_455 S
C679 C680 1.523 . S
C680 C664 1.368 . S
C680 C676 1.368 . S
C680 C679 1.523 . S
H681 C656 0.950 . S
H682 C658 0.950 . S
H683 C659 0.949 . S
H684 C661 0.950 . S
H685 C663 0.950 . S
C686 C687 1.349 . S
C686 C688 1.327 . S
C686 H711 0.950 . S
C687 C686 1.349 . S
C687 C703 1.349 . S
C688 C686 1.327 . S
C688 C707 1.429 . S
C688 H712 0.950 . S
C689 C706 1.574 . S
C689 C708 1.368 . S
C689 H713 0.949 . S
H690 C694 0.949 . S
C691 C692 1.349 . S
C691 C693 1.327 . S
C691 H714 0.950 . S
C692 C691 1.349 . S
C692 C704 1.349 . S
C693 C691 1.327 . S
C693 C709 1.429 . S
C693 H715 0.950 . S
C694 H690 0.949 . S
C694 C702 1.574 . S
C694 C710 1.368 . S
H695 C703 0.950 . S
H696 C701 0.950 . S
H697 C702 0.949 . S
H698 C704 0.950 . S
H699 C705 0.950 . S
H700 C706 0.949 . S
C701 H696 0.950 . S
C701 C703 1.327 . S
C701 C707 1.429 . S
C702 C694 1.574 . S
C702 H697 0.949 . S
C702 C708 1.368 . S
C703 C687 1.349 . S
C703 H695 0.950 . S
C703 C701 1.327 . S
C704 C692 1.349 . S
C704 H698 0.950 . S
C704 C705 1.327 . S
C705 H699 0.950 . S
C705 C704 1.327 . S
C705 C709 1.429 . S
C706 C689 1.574 . S
C706 H700 0.949 . S
C706 C710 1.368 . S
C707 C688 1.429 . S
C707 C701 1.429 . S
C707 C708 1.523 . S
C708 C689 1.368 . S
C708 C702 1.368 . S
C708 C707 1.523 . S
C709 C693 1.429 . S
C709 C705 1.429 . S
C709 C710 1.523 . S
C710 C694 1.368 . S
C710 C706 1.368 . S
C710 C709 1.523 . S
H711 C686 0.950 . S
H712 C688 0.950 . S
H713 C689 0.949 . S
H714 C691 0.950 . S
H715 C693 0.950 . S
C716 C717 1.349 . S
C716 C718 1.327 . S
C716 H741 0.950 . S
C717 C716 1.349 . S
C717 C733 1.349 . S
C718 C716 1.327 . S
C718 C737 1.429 . S
C718 H742 0.950 . S
C719 C736 1.574 . S
C719 C738 1.368 . S
C719 H743 0.949 . S
H720 C724 0.949 . S
C721 C722 1.349 . S
C721 C723 1.327 . S
C721 H744 0.950 . S
C722 C721 1.349 . S
C722 C734 1.349 . S
C723 C721 1.327 . S
C723 C739 1.429 . S
C723 H745 0.950 . S
C724 H720 0.949 . S
C724 C732 1.574 . S
C724 C740 1.368 . S
H725 C733 0.950 . S
H726 C731 0.950 . S
H727 C732 0.949 . S
H728 C734 0.950 . S
H729 C735 0.950 . S
H730 C736 0.949 . S
C731 H726 0.950 . S
C731 C733 1.327 . S
C731 C737 1.429 . S
C732 C724 1.574 . S
C732 H727 0.949 . S
C732 C738 1.368 . S
C733 C717 1.349 . S
C733 H725 0.950 . S
C733 C731 1.327 . S
C734 C722 1.349 . S
C734 H728 0.950 . S
C734 C735 1.327 . S
C735 H729 0.950 . S
C735 C734 1.327 . S
C735 C739 1.429 . S
C736 C719 1.574 . S
C736 H730 0.949 . S
C736 C740 1.368 . S
C737 C718 1.429 . S
C737 C731 1.429 . S
C737 C738 1.523 . S
C738 C719 1.368 . S
C738 C732 1.368 . S
C738 C737 1.523 . S
C739 C723 1.429 . S
C739 C735 1.429 . S
C739 C740 1.523 . S
C740 C724 1.368 . S
C740 C736 1.368 . S
C740 C739 1.523 . S
H741 C716 0.950 . S
H742 C718 0.950 . S
H743 C719 0.949 . S
H744 C721 0.950 . S
H745 C723 0.950 . S
C746 C747 1.349 . S
C746 C748 1.327 . S
C746 H771 0.950 . S
C747 C746 1.349 . S
C747 C763 1.349 . S
C748 C746 1.327 . S
C748 C767 1.429 . S
C748 H772 0.950 . S
C749 C766 1.574 . S
C749 C768 1.368 . S
C749 H773 0.949 . S
H750 C754 0.949 . S
C751 C752 1.349 . S
C751 C753 1.327 . S
C751 H774 0.950 . S
C752 C751 1.349 . S
C752 C764 1.349 . S
C753 C751 1.327 . S
C753 C769 1.429 . S
C753 H775 0.950 . S
C754 H750 0.949 . S
C754 C762 1.574 . S
C754 C770 1.368 . S
H755 C763 0.950 . S
H756 C761 0.950 . S
H757 C762 0.949 . S
H758 C764 0.950 . S
H759 C765 0.950 . S
H760 C766 0.949 . S
C761 H756 0.950 . S
C761 C763 1.327 . S
C761 C767 1.429 . S
C762 C754 1.574 . S
C762 H757 0.949 . S
C762 C768 1.368 . S
C763 C747 1.349 . S
C763 H755 0.950 . S
C763 C761 1.327 . S
C764 C752 1.349 . S
C764 H758 0.950 . S
C764 C765 1.327 . S
C765 H759 0.950 . S
C765 C764 1.327 . S
C765 C769 1.429 . S
C766 C749 1.574 . S
C766 H760 0.949 . S
C766 C770 1.368 . S
C767 C748 1.429 . S
C767 C761 1.429 . S
C767 C768 1.523 . S
C768 C749 1.368 . S
C768 C762 1.368 . S
C768 C767 1.523 . S
C769 C753 1.429 . S
C769 C765 1.429 . S
C769 C770 1.523 . S
C770 C754 1.368 . S
C770 C766 1.368 . S
C770 C769 1.523 . S
H771 C746 0.950 . S
H772 C748 0.950 . S
H773 C749 0.949 . S
H774 C751 0.950 . S
H775 C753 0.950 . S
C776 C777 1.349 . S
C776 C778 1.327 . S
C776 H801 0.950 . S
C777 C776 1.349 . S
C777 C793 1.349 . S
C778 C776 1.327 . S
C778 C797 1.429 . S
C778 H802 0.950 . S
C779 C796 1.562 1_654 S
C779 C798 1.405 . S
C779 H803 0.927 1_655 S
H780 C784 0.949 . S
C781 C782 1.349 . S
C781 C783 1.327 . S
C781 H804 0.950 . S
C782 C781 1.349 . S
C782 C794 1.349 1_455 S
C783 C781 1.327 . S
C783 C799 1.378 1_455 S
C783 H805 0.950 . S
C784 H780 0.949 . S
C784 C792 1.574 . S
C784 C800 1.368 . S
H785 C793 0.950 . S
H786 C791 0.950 . S
H787 C792 0.949 . S
H788 C794 0.950 . S
H789 C795 0.950 . S
H790 C796 0.949 . S
C791 H786 0.950 . S
C791 C793 1.327 . S
C791 C797 1.429 . S
C792 C784 1.574 . S
C792 H787 0.949 . S
C792 C798 1.368 1_556 S
C793 C777 1.349 . S
C793 H785 0.950 . S
C793 C791 1.327 . S
C794 C782 1.349 1_655 S
C794 H788 0.950 . S
C794 C795 1.327 . S
C795 H789 0.950 . S
C795 C794 1.327 . S
C795 C799 1.461 . S
C796 C779 1.562 1_456 S
C796 H790 0.949 . S
C796 C800 1.368 1_455 S
C797 C778 1.429 . S
C797 C791 1.429 . S
C797 C798 1.523 . S
C798 C779 1.405 . S
C798 C792 1.368 1_554 S
C798 C797 1.523 . S
C799 C783 1.378 1_655 S
C799 C795 1.461 . S
C799 C800 1.541 . S
C800 C784 1.368 . S
C800 C796 1.368 1_655 S
C800 C799 1.541 . S
H801 C776 0.950 . S
H802 C778 0.950 . S
H803 C779 0.927 1_455 S
H804 C781 0.950 . S
H805 C783 0.950 . S
C806 C807 1.349 . S
C806 C808 1.327 . S
C806 H831 0.950 . S
C807 C806 1.349 . S
C807 C823 1.349 . S
C808 C806 1.327 . S
C808 C827 1.429 . S
C808 H832 0.948 1_554 S
C809 C826 1.574 1_554 S
C809 C828 1.368 1_554 S
C809 H833 0.949 . S
H810 C814 0.949 . S
C811 C812 1.349 . S
C811 C813 1.327 . S
C811 H834 0.950 . S
C812 C811 1.349 . S
C812 C824 1.349 1_545 S
C813 C811 1.327 . S
C813 C829 1.429 1_545 S
C813 H835 0.950 . S
C814 H810 0.949 . S
C814 C822 1.574 . S
C814 C830 1.368 . S
H815 C823 0.950 . S
H816 C821 0.950 . S
H817 C822 0.949 . S
H818 C824 0.950 . S
H819 C825 0.950 . S
H820 C826 0.949 1_545 S
C821 H816 0.950 . S
C821 C823 1.327 . S
C821 C827 1.429 . S
C822 C814 1.574 . S
C822 H817 0.949 . S
C822 C828 1.368 . S
C823 C807 1.349 . S
C823 H815 0.950 . S
C823 C821 1.327 . S
C824 C812 1.349 1_565 S
C824 H818 0.950 . S
C824 C825 1.327 . S
C825 H819 0.950 . S
C825 C824 1.327 . S
C825 C829 1.429 . S
C826 C809 1.574 1_556 S
C826 H820 0.949 1_565 S
C826 C830 1.368 . S
C827 C808 1.429 . S
C827 C821 1.429 . S
C827 C828 1.523 1_554 S
C828 C809 1.368 1_556 S
C828 C822 1.368 . S
C828 C827 1.523 1_556 S
C829 C813 1.429 1_565 S
C829 C825 1.429 . S
C829 C830 1.523 . S
C830 C814 1.368 . S
C830 C826 1.368 . S
C830 C829 1.523 . S
H831 C806 0.950 . S
H832 C808 0.948 1_556 S
H833 C809 0.949 . S
H834 C811 0.950 . S
H835 C813 0.950 . S
C836 C837 1.349 . S
C836 C838 1.327 1_554 S
C836 H861 0.950 1_554 S
C837 C836 1.349 . S
C837 C853 1.349 . S
C838 C836 1.327 1_556 S
C838 C857 1.429 . S
C838 H862 0.950 . S
C839 C856 1.574 . S
C839 C858 1.368 . S
C839 H863 0.949 1_556 S
H840 C844 0.949 . S
C841 C842 1.349 . S
C841 C843 1.327 . S
C841 H864 0.950 . S
C842 C841 1.349 . S
C842 C854 1.349 . S
C843 C841 1.327 . S
C843 C859 1.429 . S
C843 H865 0.950 . S
C844 H840 0.949 . S
C844 C852 1.574 . S
C844 C860 1.368 . S
H845 C853 0.950 . S
H846 C851 0.950 . S
H847 C852 0.949 . S
H848 C854 0.950 . S
H849 C855 0.950 . S
H850 C856 0.949 . S
C851 H846 0.950 . S
C851 C853 1.327 . S
C851 C857 1.429 1_554 S
C852 C844 1.574 . S
C852 H847 0.949 . S
C852 C858 1.368 . S
C853 C837 1.349 . S
C853 H845 0.950 . S
C853 C851 1.327 . S
C854 C842 1.349 . S
C854 H848 0.950 . S
C854 C855 1.327 . S
C855 H849 0.950 . S
C855 C854 1.327 . S
C855 C859 1.429 . S
C856 C839 1.574 . S
C856 H850 0.949 . S
C856 C860 1.368 . S
C857 C838 1.429 . S
C857 C851 1.429 1_556 S
C857 C858 1.523 . S
C858 C839 1.368 . S
C858 C852 1.368 . S
C858 C857 1.523 . S
C859 C843 1.429 . S
C859 C855 1.429 . S
C859 C860 1.523 . S
C860 C844 1.368 . S
C860 C856 1.368 . S
C860 C859 1.523 . S
H861 C836 0.950 1_556 S
H862 C838 0.950 . S
H863 C839 0.949 1_554 S
H864 C841 0.950 . S
H865 C843 0.950 . S
C866 C867 1.349 . S
C866 C868 1.327 . S
C866 H891 0.950 . S
C867 C866 1.349 . S
C867 C883 1.349 . S
C868 C866 1.327 . S
C868 C887 1.437 . S
C868 H892 0.950 . S
C869 C886 1.574 . S
C869 C888 1.368 . S
C869 H893 0.949 . S
H870 C874 0.949 . S
C871 C872 1.349 . S
C871 C873 1.327 . S
C871 H894 0.950 . S
C872 C871 1.349 . S
C872 C884 1.349 . S
C873 C871 1.327 . S
C873 C889 1.429 . S
C873 H895 0.950 . S
C874 H870 0.949 . S
C874 C882 1.574 . S
C874 C890 1.368 . S
H875 C883 0.950 . S
H876 C881 0.950 1_556 S
H877 C882 0.949 . S
H878 C884 0.950 . S
H879 C885 0.950 . S
H880 C886 0.949 . S
C881 H876 0.950 1_554 S
C881 C883 1.327 . S
C881 C887 1.430 . S
C882 C874 1.574 . S
C882 H877 0.949 . S
C882 C888 1.368 . S
C883 C867 1.349 . S
C883 H875 0.950 . S
C883 C881 1.327 . S
C884 C872 1.349 . S
C884 H878 0.950 . S
C884 C885 1.327 . S
C885 H879 0.950 . S
C885 C884 1.327 . S
C885 C889 1.429 . S
C886 C869 1.574 . S
C886 H880 0.949 . S
C886 C890 1.368 . S
C887 C868 1.437 . S
C887 C881 1.430 . S
C887 C888 1.515 1_554 S
C888 C869 1.368 . S
C888 C882 1.368 . S
C888 C887 1.515 1_556 S
C889 C873 1.429 . S
C889 C885 1.429 . S
C889 C890 1.523 . S
C890 C874 1.368 . S
C890 C886 1.368 . S
C890 C889 1.523 . S
H891 C866 0.950 . S
H892 C868 0.950 . S
H893 C869 0.949 . S
H894 C871 0.950 . S
H895 C873 0.950 . S
C896 C897 1.349 . S
C896 C898 1.327 . S
C896 H921 0.950 . S
C897 C896 1.349 . S
C897 C913 1.349 . S
C898 C896 1.327 . S
C898 C917 1.429 . S
C898 H922 0.950 . S
C899 C916 1.574 . S
C899 C918 1.368 . S
C899 H923 0.949 . S
H900 C904 0.949 . S
C901 C902 1.349 . S
C901 C903 1.327 . S
C901 H924 0.950 . S
C902 C901 1.349 . S
C902 C914 1.349 . S
C903 C901 1.327 . S
C903 C919 1.429 . S
C903 H925 0.950 . S
C904 H900 0.949 . S
C904 C912 1.574 . S
C904 C920 1.368 . S
H905 C913 0.950 . S
H906 C911 0.950 . S
H907 C912 0.949 . S
H908 C914 0.950 . S
H909 C915 0.950 . S
H910 C916 0.949 . S
C911 H906 0.950 . S
C911 C913 1.327 . S
C911 C917 1.429 . S
C912 C904 1.574 . S
C912 H907 0.949 . S
C912 C918 1.368 . S
C913 C897 1.349 . S
C913 H905 0.950 . S
C913 C911 1.327 . S
C914 C902 1.349 . S
C914 H908 0.950 . S
C914 C915 1.327 . S
C915 H909 0.950 . S
C915 C914 1.327 . S
C915 C919 1.429 . S
C916 C899 1.574 . S
C916 H910 0.949 . S
C916 C920 1.368 . S
C917 C898 1.429 . S
C917 C911 1.429 . S
C917 C918 1.523 . S
C918 C899 1.368 . S
C918 C912 1.368 . S
C918 C917 1.523 . S
C919 C903 1.429 . S
C919 C915 1.429 . S
C919 C920 1.523 . S
C920 C904 1.368 . S
C920 C916 1.368 . S
C920 C919 1.523 . S
H921 C896 0.950 . S
H922 C898 0.950 . S
H923 C899 0.949 . S
H924 C901 0.950 . S
H925 C903 0.950 . S
C926 C927 1.349 . S
C926 C928 1.327 . S
C926 H951 0.950 . S
C927 C926 1.349 . S
C927 C943 1.349 . S
C928 C926 1.327 . S
C928 C947 1.429 . S
C928 H952 0.950 . S
C929 C946 1.574 . S
C929 C948 1.368 . S
C929 H953 0.949 . S
H930 C934 0.949 . S
C931 C932 1.349 . S
C931 C933 1.327 . S
C931 H954 0.950 . S
C932 C931 1.349 . S
C932 C944 1.349 . S
C933 C931 1.327 . S
C933 C949 1.429 . S
C933 H955 0.950 . S
C934 H930 0.949 . S
C934 C942 1.574 . S
C934 C950 1.368 . S
H935 C943 0.950 . S
H936 C941 0.950 . S
H937 C942 0.949 . S
H938 C944 0.950 . S
H939 C945 0.950 . S
H940 C946 0.949 . S
C941 H936 0.950 . S
C941 C943 1.327 . S
C941 C947 1.429 . S
C942 C934 1.574 . S
C942 H937 0.949 . S
C942 C948 1.368 . S
C943 C927 1.349 . S
C943 H935 0.950 . S
C943 C941 1.327 . S
C944 C932 1.349 . S
C944 H938 0.950 . S
C944 C945 1.327 . S
C945 H939 0.950 . S
C945 C944 1.327 . S
C945 C949 1.429 . S
C946 C929 1.574 . S
C946 H940 0.949 . S
C946 C950 1.368 . S
C947 C928 1.429 . S
C947 C941 1.429 . S
C947 C948 1.523 . S
C948 C929 1.368 . S
C948 C942 1.368 . S
C948 C947 1.523 . S
C949 C933 1.429 . S
C949 C945 1.429 . S
C949 C950 1.523 . S
C950 C934 1.368 . S
C950 C946 1.368 . S
C950 C949 1.523 . S
H951 C926 0.950 . S
H952 C928 0.950 . S
H953 C929 0.949 . S
H954 C931 0.950 . S
H955 C933 0.950 . S
C956 C957 1.349 . S
C956 C958 1.327 . S
C956 H981 0.950 . S
C957 C956 1.349 . S
C957 C973 1.349 . S
C958 C956 1.327 . S
C958 C977 1.429 . S
C958 H982 0.950 . S
C959 C976 1.574 . S
C959 C978 1.368 . S
C959 H983 0.949 . S
H960 C964 0.949 . S
C961 C962 1.349 . S
C961 C963 1.327 . S
C961 H984 0.950 . S
C962 C961 1.349 . S
C962 C974 1.349 . S
C963 C961 1.327 . S
C963 C979 1.429 . S
C963 H985 0.950 . S
C964 H960 0.949 . S
C964 C972 1.574 . S
C964 C980 1.368 . S
H965 C973 0.950 . S
H966 C971 0.950 . S
H967 C972 0.949 . S
H968 C974 0.950 . S
H969 C975 0.950 . S
H970 C976 0.949 . S
C971 H966 0.950 . S
C971 C973 1.327 . S
C971 C977 1.429 . S
C972 C964 1.574 . S
C972 H967 0.949 . S
C972 C978 1.368 . S
C973 C957 1.349 . S
C973 H965 0.950 . S
C973 C971 1.327 . S
C974 C962 1.349 . S
C974 H968 0.950 . S
C974 C975 1.327 . S
C975 H969 0.950 . S
C975 C974 1.327 . S
C975 C979 1.429 . S
C976 C959 1.574 . S
C976 H970 0.949 . S
C976 C980 1.368 . S
C977 C958 1.429 . S
C977 C971 1.429 . S
C977 C978 1.523 . S
C978 C959 1.368 . S
C978 C972 1.368 . S
C978 C977 1.523 . S
C979 C963 1.429 . S
C979 C975 1.429 . S
C979 C980 1.523 . S
C980 C964 1.368 . S
C980 C976 1.368 . S
C980 C979 1.523 . S
H981 C956 0.950 . S
H982 C958 0.950 . S
H983 C959 0.949 . S
H984 C961 0.950 . S
H985 C963 0.950 . S
C986 C987 1.349 . S
C986 C988 1.327 . S
C986 H1011 0.950 . S
C987 C986 1.349 . S
C987 C1003 1.349 . S
C988 C986 1.327 . S
C988 C1007 1.429 . S
C988 H1012 0.950 . S
C989 C1006 1.574 . S
C989 C1008 1.368 . S
C989 H1013 0.949 . S
H990 C994 0.949 . S
C991 C992 1.349 . S
C991 C993 1.327 . S
C991 H1014 0.950 . S
C992 C991 1.349 . S
C992 C1004 1.349 . S
C993 C991 1.327 . S
C993 C1009 1.429 . S
C993 H1015 0.950 . S
C994 H990 0.949 . S
C994 C1002 1.574 . S
C994 C1010 1.368 . S
H995 C1003 0.950 . S
H996 C1001 0.950 . S
H997 C1002 0.949 . S
H998 C1004 0.950 . S
H999 C1005 0.950 . S
H1000 C1006 0.949 . S
C1001 H996 0.950 . S
C1001 C1003 1.327 . S
C1001 C1007 1.429 . S
C1002 C994 1.574 . S
C1002 H997 0.949 . S
C1002 C1008 1.368 . S
C1003 C987 1.349 . S
C1003 H995 0.950 . S
C1003 C1001 1.327 . S
C1004 C992 1.349 . S
C1004 H998 0.950 . S
C1004 C1005 1.327 . S
C1005 H999 0.950 . S
C1005 C1004 1.327 . S
C1005 C1009 1.429 . S
C1006 C989 1.574 . S
C1006 H1000 0.949 . S
C1006 C1010 1.368 . S
C1007 C988 1.429 . S
C1007 C1001 1.429 . S
C1007 C1008 1.523 . S
C1008 C989 1.368 . S
C1008 C1002 1.368 . S
C1008 C1007 1.523 . S
C1009 C993 1.429 . S
C1009 C1005 1.429 . S
C1009 C1010 1.523 . S
C1010 C994 1.368 . S
C1010 C1006 1.368 . S
C1010 C1009 1.523 . S
H1011 C986 0.950 . S
H1012 C988 0.950 . S
H1013 C989 0.949 . S
H1014 C991 0.950 . S
H1015 C993 0.950 . S
C1016 C1017 1.349 . S
C1016 C1018 1.327 . S
C1016 H1041 0.950 . S
C1017 C1016 1.349 . S
C1017 C1033 1.349 . S
C1018 C1016 1.327 . S
C1018 C1037 1.429 . S
C1018 H1042 0.950 . S
C1019 C1036 1.574 . S
C1019 C1038 1.368 . S
C1019 H1043 0.949 . S
H1020 C1024 0.949 . S
C1021 C1022 1.349 . S
C1021 C1023 1.327 . S
C1021 H1044 0.950 . S
C1022 C1021 1.349 . S
C1022 C1034 1.349 . S
C1023 C1021 1.327 . S
C1023 C1039 1.429 . S
C1023 H1045 0.950 . S
C1024 H1020 0.949 . S
C1024 C1032 1.574 . S
C1024 C1040 1.368 . S
H1025 C1033 0.950 . S
H1026 C1031 0.950 . S
H1027 C1032 0.949 . S
H1028 C1034 0.950 . S
H1029 C1035 0.950 . S
H1030 C1036 0.949 . S
C1031 H1026 0.950 . S
C1031 C1033 1.327 . S
C1031 C1037 1.429 . S
C1032 C1024 1.574 . S
C1032 H1027 0.949 . S
C1032 C1038 1.368 . S
C1033 C1017 1.349 . S
C1033 H1025 0.950 . S
C1033 C1031 1.327 . S
C1034 C1022 1.349 . S
C1034 H1028 0.950 . S
C1034 C1035 1.327 . S
C1035 H1029 0.950 . S
C1035 C1034 1.327 . S
C1035 C1039 1.429 . S
C1036 C1019 1.574 . S
C1036 H1030 0.949 . S
C1036 C1040 1.368 . S
C1037 C1018 1.429 . S
C1037 C1031 1.429 . S
C1037 C1038 1.523 . S
C1038 C1019 1.368 . S
C1038 C1032 1.368 . S
C1038 C1037 1.523 . S
C1039 C1023 1.429 . S
C1039 C1035 1.429 . S
C1039 C1040 1.523 . S
C1040 C1024 1.368 . S
C1040 C1036 1.368 . S
C1040 C1039 1.523 . S
H1041 C1016 0.950 . S
H1042 C1018 0.950 . S
H1043 C1019 0.949 . S
H1044 C1021 0.950 . S
H1045 C1023 0.950 . S
C1046 C1047 1.349 . S
C1046 C1048 1.327 . S
C1046 H1071 0.950 . S
C1047 C1046 1.349 . S
C1047 C1063 1.349 . S
C1048 C1046 1.327 . S
C1048 C1067 1.429 . S
C1048 H1072 0.950 . S
C1049 C1066 1.574 . S
C1049 C1068 1.368 . S
C1049 H1073 0.949 . S
H1050 C1054 0.949 . S
C1051 C1052 1.349 . S
C1051 C1053 1.327 . S
C1051 H1074 0.950 1_565 S
C1052 C1051 1.349 . S
C1052 C1064 1.349 . S
C1053 C1051 1.327 . S
C1053 C1069 1.429 . S
C1053 H1075 0.950 1_565 S
C1054 H1050 0.949 . S
C1054 C1062 1.574 . S
C1054 C1070 1.368 . S
H1055 C1063 0.950 . S
H1056 C1061 0.950 . S
H1057 C1062 0.949 . S
H1058 C1064 0.950 . S
H1059 C1065 0.950 . S
H1060 C1066 0.949 . S
C1061 H1056 0.950 . S
C1061 C1063 1.327 . S
C1061 C1067 1.429 . S
C1062 C1054 1.574 . S
C1062 H1057 0.949 . S
C1062 C1068 1.368 . S
C1063 C1047 1.349 . S
C1063 H1055 0.950 . S
C1063 C1061 1.327 . S
C1064 C1052 1.349 . S
C1064 H1058 0.950 . S
C1064 C1065 1.327 . S
C1065 H1059 0.950 . S
C1065 C1064 1.327 . S
C1065 C1069 1.429 . S
C1066 C1049 1.574 . S
C1066 H1060 0.949 . S
C1066 C1070 1.368 . S
C1067 C1048 1.429 . S
C1067 C1061 1.429 . S
C1067 C1068 1.523 . S
C1068 C1049 1.368 . S
C1068 C1062 1.368 . S
C1068 C1067 1.523 . S
C1069 C1053 1.429 . S
C1069 C1065 1.429 . S
C1069 C1070 1.523 . S
C1070 C1054 1.368 . S
C1070 C1066 1.368 . S
C1070 C1069 1.523 . S
H1071 C1046 0.950 . S
H1072 C1048 0.950 . S
H1073 C1049 0.949 . S
H1074 C1051 0.950 1_545 S
H1075 C1053 0.950 1_545 S
C1076 C1077 1.349 . S
C1076 C1078 1.327 . S
C1076 H1101 0.950 . S
C1077 C1076 1.349 . S
C1077 C1093 1.349 . S
C1078 C1076 1.327 . S
C1078 C1097 1.429 . S
C1078 H1102 0.950 . S
C1079 C1096 1.574 . S
C1079 C1098 1.368 . S
C1079 H1103 0.949 . S
H1080 C1084 0.949 . S
C1081 C1082 1.349 . S
C1081 C1083 1.327 . S
C1081 H1104 0.950 . S
C1082 C1081 1.349 . S
C1082 C1094 1.349 . S
C1083 C1081 1.327 . S
C1083 C1099 1.429 . S
C1083 H1105 0.950 . S
C1084 H1080 0.949 . S
C1084 C1092 1.574 . S
C1084 C1100 1.368 . S
H1085 C1093 0.950 . S
H1086 C1091 0.950 . S
H1087 C1092 0.949 . S
H1088 C1094 0.950 . S
H1089 C1095 0.950 . S
H1090 C1096 0.949 . S
C1091 H1086 0.950 . S
C1091 C1093 1.327 . S
C1091 C1097 1.429 . S
C1092 C1084 1.574 . S
C1092 H1087 0.949 . S
C1092 C1098 1.368 . S
C1093 C1077 1.349 . S
C1093 H1085 0.950 . S
C1093 C1091 1.327 . S
C1094 C1082 1.349 . S
C1094 H1088 0.950 . S
C1094 C1095 1.327 . S
C1095 H1089 0.950 . S
C1095 C1094 1.327 . S
C1095 C1099 1.429 . S
C1096 C1079 1.574 . S
C1096 H1090 0.949 . S
C1096 C1100 1.368 . S
C1097 C1078 1.429 . S
C1097 C1091 1.429 . S
C1097 C1098 1.523 . S
C1098 C1079 1.368 . S
C1098 C1092 1.368 . S
C1098 C1097 1.523 . S
C1099 C1083 1.429 . S
C1099 C1095 1.429 . S
C1099 C1100 1.523 . S
C1100 C1084 1.368 . S
C1100 C1096 1.368 . S
C1100 C1099 1.523 . S
H1101 C1076 0.950 . S
H1102 C1078 0.950 . S
H1103 C1079 0.949 . S
H1104 C1081 0.950 . S
H1105 C1083 0.950 . S
C1106 C1107 1.349 . S
C1106 C1108 1.327 . S
C1106 H1131 0.950 . S
C1107 C1106 1.349 . S
C1107 C1123 1.349 . S
C1108 C1106 1.327 . S
C1108 C1127 1.429 . S
C1108 H1132 0.950 . S
C1109 C1126 1.574 . S
C1109 C1128 1.368 . S
C1109 H1133 0.949 . S
H1110 C1114 0.949 . S
C1111 C1112 1.349 . S
C1111 C1113 1.327 . S
C1111 H1134 0.950 . S
C1112 C1111 1.349 . S
C1112 C1124 1.349 . S
C1113 C1111 1.327 . S
C1113 C1129 1.429 . S
C1113 H1135 0.950 . S
C1114 H1110 0.949 . S
C1114 C1122 1.574 . S
C1114 C1130 1.368 . S
H1115 C1123 0.950 . S
H1116 C1121 0.950 . S
H1117 C1122 0.949 . S
H1118 C1124 0.950 . S
H1119 C1125 0.950 . S
H1120 C1126 0.949 . S
C1121 H1116 0.950 . S
C1121 C1123 1.327 . S
C1121 C1127 1.429 . S
C1122 C1114 1.574 . S
C1122 H1117 0.949 . S
C1122 C1128 1.368 . S
C1123 C1107 1.349 . S
C1123 H1115 0.950 . S
C1123 C1121 1.327 . S
C1124 C1112 1.349 . S
C1124 H1118 0.950 . S
C1124 C1125 1.327 . S
C1125 H1119 0.950 . S
C1125 C1124 1.327 . S
C1125 C1129 1.429 . S
C1126 C1109 1.574 . S
C1126 H1120 0.949 . S
C1126 C1130 1.368 . S
C1127 C1108 1.429 . S
C1127 C1121 1.429 . S
C1127 C1128 1.523 . S
C1128 C1109 1.368 . S
C1128 C1122 1.368 . S
C1128 C1127 1.523 . S
C1129 C1113 1.429 . S
C1129 C1125 1.429 . S
C1129 C1130 1.523 . S
C1130 C1114 1.368 . S
C1130 C1126 1.368 . S
C1130 C1129 1.523 . S
H1131 C1106 0.950 . S
H1132 C1108 0.950 . S
H1133 C1109 0.949 . S
H1134 C1111 0.950 . S
H1135 C1113 0.950 . S
C417 C215 2.431 . S
C422 C287 2.534 . S
C452 C313 1.837 . S
C447 C247 1.680 . S
C482 C353 1.960 . S
C477 C151 1.883 . S
C512 C407 2.521 . S
C507 C183 2.431 . S
C542 C268 2.534 . S
C537 C87 2.342 . S
C567 C119 1.749 . S
C572 C298 1.838 . S
C597 C23 1.800 . S
C602 C338 1.959 . S
C627 C55 2.362 . S
C632 C388 2.521 1_655 S
C662 C264 0.235 . S
C657 C189 0.134 . S
C692 C325 0.492 . S
C687 C221 0.454 . S
C722 C365 0.314 . S
C717 C253 0.369 . S
C747 C157 0.259 . S
C752 C384 0.310 . S
C777 C61 0.571 . S
C782 C285 0.227 . S
C812 C304 0.492 . S
C807 C93 0.580 . S
C842 C344 0.315 . S
C837 C125 0.331 . S
C867 C29 0.698 . S
C872 C405 0.310 . S
C897 C177 2.058 . S
C902 C258 2.239 . S
C927 C209 2.804 . S
C932 C308 2.994 . S
C962 C348 2.698 . S
C957 C241 2.456 . S
C992 C378 1.996 . S
C987 C145 1.861 . S
C1017 C49 2.002 . S
C1022 C273 2.240 . S
C1052 C327 2.994 . S
C1047 C81 2.734 . S
C1082 C367 2.698 . S
C1077 C113 2.538 . S
C1107 C17 1.784 . S
C1112 C393 1.996 . S
