# Generated by pormake.
# Topology pyr, (3,6)-cn, num edge types: 1
# Building blocks:
#     Node 0, Type 0, BuildingBlock: PAMTOO_clean_linker_0, # of connection points: 3
#     Node 1, Type 0, BuildingBlock: PAMTOO_clean_linker_0, # of connection points: 3
#     Node 2, Type 0, BuildingBlock: PAMTOO_clean_linker_0, # of connection points: 3
#     Node 3, Type 0, BuildingBlock: PAMTOO_clean_linker_0, # of connection points: 3
#     Node 4, Type 0, BuildingBlock: PAMTOO_clean_linker_0, # of connection points: 3
#     Node 5, Type 0, BuildingBlock: PAMTOO_clean_linker_0, # of connection points: 3
#     Node 6, Type 0, BuildingBlock: PAMTOO_clean_linker_0, # of connection points: 3
#     Node 7, Type 0, BuildingBlock: PAMTOO_clean_linker_0, # of connection points: 3
#     Node 8, Type 1, BuildingBlock: MIDCAF_clean_sbu_0, # of connection points: 6
#     Node 9, Type 1, BuildingBlock: MIDCAF_clean_sbu_0, # of connection points: 6
#     Node 10, Type 1, BuildingBlock: MIDCAF_clean_sbu_0, # of connection points: 6
#     Node 11, Type 1, BuildingBlock: MIDCAF_clean_sbu_0, # of connection points: 6
#     Edge 12, Type (0, 1), BuildingBlock: EZIPEK_clean_linker_0, # of connection points: 2
#     Edge 13, Type (0, 1), BuildingBlock: EZIPEK_clean_linker_0, # of connection points: 2
#     Edge 14, Type (0, 1), BuildingBlock: EZIPEK_clean_linker_0, # of connection points: 2
#     Edge 15, Type (0, 1), BuildingBlock: EZIPEK_clean_linker_0, # of connection points: 2
#     Edge 16, Type (0, 1), BuildingBlock: EZIPEK_clean_linker_0, # of connection points: 2
#     Edge 17, Type (0, 1), BuildingBlock: EZIPEK_clean_linker_0, # of connection points: 2
#     Edge 18, Type (0, 1), BuildingBlock: EZIPEK_clean_linker_0, # of connection points: 2
#     Edge 19, Type (0, 1), BuildingBlock: EZIPEK_clean_linker_0, # of connection points: 2
#     Edge 20, Type (0, 1), BuildingBlock: EZIPEK_clean_linker_0, # of connection points: 2
#     Edge 21, Type (0, 1), BuildingBlock: EZIPEK_clean_linker_0, # of connection points: 2
#     Edge 22, Type (0, 1), BuildingBlock: EZIPEK_clean_linker_0, # of connection points: 2
#     Edge 23, Type (0, 1), BuildingBlock: EZIPEK_clean_linker_0, # of connection points: 2
#     Edge 24, Type (0, 1), BuildingBlock: EZIPEK_clean_linker_0, # of connection points: 2
#     Edge 25, Type (0, 1), BuildingBlock: EZIPEK_clean_linker_0, # of connection points: 2
#     Edge 26, Type (0, 1), BuildingBlock: EZIPEK_clean_linker_0, # of connection points: 2
#     Edge 27, Type (0, 1), BuildingBlock: EZIPEK_clean_linker_0, # of connection points: 2
#     Edge 28, Type (0, 1), BuildingBlock: EZIPEK_clean_linker_0, # of connection points: 2
#     Edge 29, Type (0, 1), BuildingBlock: EZIPEK_clean_linker_0, # of connection points: 2
#     Edge 30, Type (0, 1), BuildingBlock: EZIPEK_clean_linker_0, # of connection points: 2
#     Edge 31, Type (0, 1), BuildingBlock: EZIPEK_clean_linker_0, # of connection points: 2
#     Edge 32, Type (0, 1), BuildingBlock: EZIPEK_clean_linker_0, # of connection points: 2
#     Edge 33, Type (0, 1), BuildingBlock: EZIPEK_clean_linker_0, # of connection points: 2
#     Edge 34, Type (0, 1), BuildingBlock: EZIPEK_clean_linker_0, # of connection points: 2
#     Edge 35, Type (0, 1), BuildingBlock: EZIPEK_clean_linker_0, # of connection points: 2
# Relax obj value: 0.102
# Max RMSD: 0.202
# Mean RMSD: 0.140
data_MOF--net-pry--node1-MIDCAF_clean_sbu_0--node2-PAMTOO_clean_linker_0--edge1-EZIPEK_clean_linker_0
_symmetry_space_group_name_H-M    P1
_symmetry_Int_Tables_number       1
_symmetry_cell_setting            triclinic
loop_
_symmetry_equiv_pos_as_xyz
'x, y, z'
_cell_length_a     25.069429
_cell_length_b     26.246279
_cell_length_c     25.708023
_cell_angle_alpha  89.493875
_cell_angle_beta   91.200845
_cell_angle_gamma 95.521859
loop_
_atom_site_label
_atom_site_type_symbol
_atom_site_fract_x
_atom_site_fract_y
_atom_site_fract_z
_atom_type_partial_charge
H0 H 0.15124 0.27808 0.27679 0.0
H1 H 0.28022 0.18245 0.29963 0.0
H2 H 0.28609 0.29216 0.17456 0.0
H3 H 0.31739 0.19752 0.14394 0.0
C4 C 0.33237 0.1813 0.181 0.0
O5 O 0.33458 0.21811 0.21935 0.0
H6 H 0.30206 0.149 0.19063 0.0
C7 C 0.19037 0.26755 0.26635 0.0
C8 C 0.21631 0.29068 0.22284 0.0
C9 C 0.2134 0.2286 0.29446 0.0
C10 C 0.26297 0.21348 0.27928 0.0
C11 C 0.28923 0.23634 0.23625 0.0
C12 C 0.26632 0.27548 0.20863 0.0
H13 H 0.29692 0.91653 0.78265 0.0
H14 H 0.26936 0.80325 0.66248 0.0
H15 H 0.37828 0.77981 0.78978 0.0
H16 H 0.4192 0.77366 0.6897 0.0
C17 C 0.38546 0.75155 0.66849 0.0
O18 O 0.34096 0.74483 0.69964 0.0
H19 H 0.37674 0.77601 0.63441 0.0
C20 C 0.30259 0.879 0.76762 0.0
C21 C 0.33905 0.84913 0.79272 0.0
C22 C 0.27653 0.86235 0.72101 0.0
C23 C 0.28703 0.81519 0.69977 0.0
C24 C 0.3239 0.78546 0.72443 0.0
C25 C 0.34845 0.80178 0.77169 0.0
H26 H 0.8057 0.22307 0.88869 0.0
H27 H 0.72255 0.19616 0.74259 0.0
H28 H 0.79216 0.34698 0.78029 0.0
H29 H 0.66709 0.30371 0.75256 0.0
C30 C 0.67856 0.29567 0.71209 0.0
O31 O 0.73332 0.29157 0.71262 0.0
H32 H 0.65688 0.25875 0.69957 0.0
C33 C 0.79324 0.23681 0.85102 0.0
C34 C 0.80809 0.28813 0.83684 0.0
C35 C 0.75778 0.20495 0.8197 0.0
C36 C 0.74753 0.22106 0.76851 0.0
C37 C 0.75802 0.27292 0.75511 0.0
C38 C 0.78665 0.30659 0.78997 0.0
H39 H 0.80365 0.77869 0.40515 0.0
H40 H 0.80454 0.67685 0.27527 0.0
H41 H 0.92319 0.80576 0.28778 0.0
H42 H 0.88669 0.75294 0.16494 0.0
C43 C 0.87524 0.71616 0.18534 0.0
O44 O 0.8933 0.72219 0.23625 0.0
H45 H 0.83085 0.70796 0.18354 0.0
C46 C 0.81945 0.76931 0.36784 0.0
C47 C 0.8648 0.79849 0.34873 0.0
C48 C 0.79758 0.72533 0.34146 0.0
C49 C 0.82016 0.71178 0.29468 0.0
C50 C 0.86518 0.74103 0.27493 0.0
C51 C 0.88669 0.78491 0.30149 0.0
H52 H 0.88468 0.97875 0.84041 0.0
H53 H 0.87826 0.88736 0.98036 0.0
H54 H 1.0035 0.87338 0.87151 0.0
H55 H 0.90565 0.78295 0.93417 0.0
C56 C 0.93586 0.79165 0.96604 0.0
O57 O 0.96237 0.84003 0.9605 0.0
H58 H 0.91098 0.79059 1.0013 0.0
C59 C 0.901 0.95019 0.86522 0.0
C60 C 0.9472 0.92794 0.85043 0.0
C61 C 0.87538 0.93503 0.91166 0.0
C62 C 0.89746 0.899 0.94419 0.0
C63 C 0.94303 0.87622 0.9295 0.0
C64 C 0.96791 0.89066 0.8826 0.0
H65 H 0.71717 0.03954 0.33961 0.0
H66 H 0.60643 0.15128 0.36516 0.0
H67 H 0.73505 0.13498 0.47544 0.0
H68 H 0.60737 0.17082 0.50874 0.0
C69 C 0.61 0.19582 0.47395 0.0
O70 O 0.65746 0.19035 0.44919 0.0
H71 H 0.57534 0.18159 0.44859 0.0
C72 C 0.70258 0.06847 0.36403 0.0
C73 C 0.73031 0.08314 0.41025 0.0
C74 C 0.65771 0.09304 0.348 0.0
C75 C 0.64049 0.13202 0.37844 0.0
C76 C 0.66823 0.14718 0.4246 0.0
C77 C 0.71237 0.1219 0.44093 0.0
H78 H 0.35062 0.66745 0.04924 0.0
H79 H 0.41657 0.54272 0.13146 0.0
H80 H 0.49416 0.69543 0.14195 0.0
H81 H 0.56619 0.62318 0.15199 0.0
C82 C 0.54304 0.59197 0.17378 0.0
O83 O 0.49084 0.60278 0.18025 0.0
H84 H 0.54186 0.55629 0.15075 0.0
C85 C 0.38071 0.6529 0.07477 0.0
C86 C 0.42411 0.68638 0.0917 0.0
C87 C 0.37739 0.60052 0.08843 0.0
C88 C 0.41775 0.58284 0.12084 0.0
C89 C 0.45839 0.6176 0.14175 0.0
C90 C 0.46186 0.66903 0.12668 0.0
H91 H 0.0764 0.32412 0.67181 0.0
H92 H 0.15553 0.47081 0.71525 0.0
H93 H 0.21101 0.39125 0.58481 0.0
H94 H 0.2094 0.54795 0.63907 0.0
C95 C 0.22276 0.5176 0.61394 0.0
O96 O 0.227 0.47348 0.64295 0.0
H97 H 0.19206 0.50905 0.58261 0.0
C98 C 0.10698 0.35546 0.66505 0.0
C99 C 0.14312 0.3527 0.62438 0.0
C100 C 0.11146 0.3978 0.69818 0.0
C101 C 0.15135 0.43807 0.68956 0.0
C102 C 0.18668 0.43602 0.6485 0.0
C103 C 0.18261 0.39338 0.61573 0.0
Zn104 Zn 0.98742 0.09101 0.58625 0.0
Zn105 Zn 0.10708 0.98718 0.48497 0.0
Zn106 Zn 0.04861 0.03761 0.53984 0.0
C107 C 0.12373 0.08748 0.44933 0.0
C108 C 0.00537 0.9449 0.46358 0.0
O109 O 0.04853 0.01064 0.62154 0.0
O110 O 0.97579 0.04476 0.64629 0.0
C111 C 0.07255 0.15769 0.56177 0.0
O112 O 0.09894 0.09404 0.4919 0.0
O113 O 0.12978 0.04277 0.43432 0.0
O114 O 0.0525 0.93223 0.46063 0.0
O115 O 0.99638 0.98561 0.48835 0.0
O116 O 0.03572 0.15421 0.59458 0.0
O117 O 0.08034 0.11921 0.53306 0.0
O118 O 0.96641 0.02346 0.50508 0.0
O119 O 0.92933 0.09069 0.53397 0.0
C120 C 0.92745 0.05221 0.50483 0.0
O121 O 0.09797 0.99691 0.59904 0.0
O122 O 0.15636 0.97309 0.54364 0.0
C123 C 0.01128 0.01466 0.65483 0.0
C124 C 0.14335 0.97921 0.59026 0.0
Zn125 Zn 0.50706 0.06165 0.9777 0.0
Zn126 Zn 0.61218 0.9352 0.08478 0.0
Zn127 Zn 0.55894 0.99966 0.02963 0.0
C128 C 0.67869 0.96877 0.005 0.0
C129 C 0.51658 0.88225 0.05175 0.0
O130 O 0.52618 0.0551 0.08447 0.0
O131 O 0.4702 0.09382 0.03357 0.0
C132 C 0.6119 0.0778 0.94501 0.0
O133 O 0.6407 0.99812 0.99763 0.0
O134 O 0.67528 0.93475 0.04004 0.0
O135 O 0.55587 0.8775 0.08222 0.0
O136 O 0.51256 0.92408 0.02608 0.0
O137 O 0.56987 0.10065 0.9464 0.0
O138 O 0.6151 0.03648 0.97179 0.0
O139 O 0.4943 0.95354 0.98604 0.0
O140 O 0.46493 0.01122 0.93219 0.0
C141 C 0.46474 0.96526 0.94697 0.0
O142 O 0.56408 0.02784 0.11031 0.0
O143 O 0.61874 0.97667 0.14857 0.0
C144 C 0.4892 0.08585 0.07836 0.0
C145 C 0.59175 0.01476 0.15023 0.0
Zn146 Zn 0.62217 0.58033 0.5754 0.0
Zn147 Zn 0.47932 0.46532 0.44342 0.0
Zn148 Zn 0.55252 0.52271 0.50553 0.0
C149 C 0.54711 0.39955 0.4934 0.0
C150 C 0.54699 0.53344 0.3814 0.0
O151 O 0.50527 0.56911 0.55431 0.0
O152 O 0.56258 0.61734 0.60416 0.0
C153 C 0.62826 0.47417 0.59263 0.0
O154 O 0.56745 0.44156 0.51436 0.0
O155 O 0.50841 0.39947 0.46115 0.0
O156 O 0.50604 0.50139 0.37902 0.0
O157 O 0.57021 0.54555 0.42526 0.0
O158 O 0.64492 0.51726 0.61151 0.0
O159 O 0.59577 0.47062 0.55316 0.0
O160 O 0.60683 0.57394 0.4586 0.0
O161 O 0.66446 0.61227 0.51605 0.0
C162 C 0.64844 0.6049 0.46952 0.0
O163 O 0.47005 0.53466 0.52642 0.0
O164 O 0.41373 0.48404 0.47785 0.0
C165 C 0.51505 0.60458 0.58844 0.0
C166 C 0.42203 0.51629 0.51396 0.0
Zn167 Zn 0.10339 0.53512 0.94036 0.0
Zn168 Zn 0.98785 0.45117 0.07409 0.0
Zn169 Zn 0.05074 0.49353 0.00758 0.0
C170 C 0.08979 0.42248 0.09952 0.0
C171 C 0.94919 0.41286 0.97967 0.0
O172 O 0.03272 0.57432 0.00268 0.0
O173 O 0.09619 0.60914 0.95164 0.0
C174 C 0.17914 0.50298 0.00261 0.0
O175 O 0.10327 0.45718 0.06508 0.0
O176 O 0.04098 0.40963 0.10828 0.0
O177 O 0.93336 0.41837 0.02531 0.0
O178 O 0.99521 0.43489 0.96614 0.0
O179 O 0.17178 0.5059 0.95429 0.0
O180 O 0.13787 0.49599 0.03202 0.0
O181 O 0.03475 0.45435 0.92949 0.0
O182 O 0.07392 0.51057 0.87486 0.0
C183 C 0.04691 0.46841 0.88246 0.0
O184 O 0.00408 0.55213 0.04443 0.0
O185 O 0.96599 0.51042 0.11104 0.0
C186 C 0.05589 0.61374 0.97917 0.0
C187 C 0.9758 0.55158 0.08587 0.0
C188 C 0.20074 0.20583 0.38924 0.0
C189 C 0.18357 0.19925 0.33649 0.0
C190 C 0.11624 0.13048 0.36298 0.0
C191 C 0.13968 0.13103 0.41372 0.0
N192 N 0.20512 0.1682 0.47581 0.0
N193 N 0.12753 0.15249 0.27201 0.0
C194 C 0.18164 0.16902 0.42741 0.0
C195 C 0.14148 0.16126 0.3231 0.0
N196 N 0.23509 0.24744 0.40265 0.0
N197 N 0.06927 0.10086 0.35314 0.0
H198 H 0.14469 0.17413 0.24139 0.0
H199 H 0.10181 0.12125 0.25959 0.0
H200 H 0.04953 0.07806 0.38159 0.0
H201 H 0.04719 0.10275 0.31851 0.0
H202 H 0.24535 0.25728 0.44096 0.0
H203 H 0.24969 0.27477 0.37543 0.0
H204 H 0.23957 0.19134 0.48658 0.0
H205 H 0.19196 0.14196 0.50456 0.0
C206 C 0.42629 0.8946 0.82367 0.0
C207 C 0.3743 0.87161 0.83557 0.0
C208 C 0.38594 0.9014 0.92584 0.0
C209 C 0.4372 0.9252 0.91322 0.0
N210 N 0.51255 0.93216 0.85635 0.0
N211 N 0.30857 0.84356 0.89924 0.0
C212 C 0.45943 0.91759 0.86407 0.0
C213 C 0.35541 0.87183 0.88727 0.0
N214 N 0.44295 0.8969 0.77328 0.0
N215 N 0.36594 0.90874 0.97395 0.0
H216 H 0.28537 0.8221 0.87155 0.0
H217 H 0.29456 0.83833 0.9369 0.0
H218 H 0.38855 0.92834 0.00333 0.0
H219 H 0.3267 0.8972 0.9843 0.0
H220 H 0.47764 0.9185 0.7614 0.0
H221 H 0.42023 0.88038 0.74228 0.0
H222 H 0.53269 0.92322 0.82311 0.0
H223 H 0.53789 0.94885 0.88552 0.0
C224 C 0.6185 0.36589 0.69124 0.0
C225 C 0.66191 0.33838 0.67657 0.0
C226 C 0.67691 0.39509 0.60065 0.0
C227 C 0.6397 0.427 0.6206 0.0
N228 N 0.57537 0.44435 0.68517 0.0
N229 N 0.71389 0.31291 0.6051 0.0
C230 C 0.61054 0.41281 0.66595 0.0
C231 C 0.68605 0.34891 0.6276 0.0
N232 N 0.58201 0.34493 0.72613 0.0
N233 N 0.70457 0.40983 0.55689 0.0
H234 H 0.71668 0.27677 0.6215 0.0
H235 H 0.72855 0.316 0.56753 0.0
H236 H 0.69774 0.44272 0.53565 0.0
H237 H 0.73646 0.39146 0.54329 0.0
H238 H 0.54675 0.36085 0.73458 0.0
H239 H 0.58286 0.30808 0.74142 0.0
H240 H 0.55849 0.43937 0.72176 0.0
H241 H 0.56554 0.47757 0.66619 0.0
C242 C 0.89729 0.66854 0.10274 0.0
C243 C 0.90015 0.67249 0.15817 0.0
C244 C 0.96309 0.60708 0.16108 0.0
C245 C 0.9559 0.59858 0.10709 0.0
N246 N 0.90824 0.61565 0.02724 0.0
N247 N 0.91505 0.62405 0.23734 0.0
C248 C 0.92109 0.62803 0.07779 0.0
C249 C 0.92727 0.63589 0.18693 0.0
N250 N 0.87084 0.70254 0.0739 0.0
N251 N 1.00342 0.58662 0.18819 0.0
H252 H 0.88119 0.63557 0.2548 0.0
H253 H 0.93254 0.59548 0.2582 0.0
H254 H 0.03169 0.5664 0.17011 0.0
H255 H 0.01186 0.59487 0.2273 0.0
H256 H 0.87284 0.70527 0.03356 0.0
H257 H 0.8484 0.72953 0.0902 0.0
H258 H 0.87866 0.63201 0.00558 0.0
H259 H 0.92427 0.58617 0.00782 0.0
C260 C 0.42503 0.19134 0.14039 0.0
C261 C 0.38714 0.16239 0.17187 0.0
C262 C 0.4331 0.08533 0.15874 0.0
C263 C 0.46677 0.11277 0.12232 0.0
N264 N 0.50856 0.19379 0.09337 0.0
N265 N 0.3715 0.09022 0.22982 0.0
C266 C 0.46751 0.16671 0.11863 0.0
C267 C 0.39692 0.11212 0.1876 0.0
N268 N 0.41871 0.2414 0.12918 0.0
N269 N 0.43259 0.0334 0.16289 0.0
H270 H 0.34686 0.11029 0.25276 0.0
H271 H 0.37982 0.05501 0.24542 0.0
H272 H 0.45867 0.01263 0.1426 0.0
H273 H 0.4044 0.01073 0.18427 0.0
H274 H 0.44087 0.26288 0.10147 0.0
H275 H 0.38985 0.2612 0.14672 0.0
H276 H 0.51412 0.23359 0.09213 0.0
H277 H 0.54003 0.17588 0.0778 0.0
C278 C 0.19274 0.90753 0.70811 0.0
C279 C 0.24427 0.8979 0.69104 0.0
C280 C 0.2361 0.95932 0.61926 0.0
C281 C 0.18159 0.96254 0.63197 0.0
N282 N 0.1267 0.96841 0.70616 0.0
N283 N 0.31754 0.91728 0.63235 0.0
C284 C 0.16442 0.94453 0.68136 0.0
C285 C 0.26693 0.92497 0.64737 0.0
N286 N 0.17021 0.88078 0.74922 0.0
N287 N 0.25945 0.99282 0.58351 0.0
H288 H 0.34294 0.89566 0.65403 0.0
H289 H 0.33372 0.93031 0.59717 0.0
H290 H 0.23933 0.02231 0.56717 0.0
H291 H 0.29998 0.99587 0.57483 0.0
H292 H 0.13051 0.88281 0.75966 0.0
H293 H 0.1898 0.8536 0.77014 0.0
H294 H 0.11512 0.95951 0.74412 0.0
H295 H 0.11607 0.00354 0.69247 0.0
C296 C 0.8822 0.36042 0.8543 0.0
C297 C 0.84253 0.32269 0.87311 0.0
C298 C 0.87936 0.33879 0.96086 0.0
C299 C 0.91328 0.38145 0.94266 0.0
N300 N 0.92164 0.44507 0.87416 0.0
N301 N 0.79061 0.29638 0.94914 0.0
C302 C 0.90781 0.3961 0.88988 0.0
C303 C 0.83702 0.31781 0.92798 0.0
N304 N 0.89762 0.36168 0.80374 0.0
N305 N 0.88759 0.31719 0.00846 0.0
H306 H 0.75615 0.28629 0.92663 0.0
H307 H 0.78479 0.29517 0.98922 0.0
H308 H 0.92106 0.32789 0.03204 0.0
H309 H 0.86453 0.28433 0.02103 0.0
H310 H 0.92778 0.38849 0.79042 0.0
H311 H 0.88553 0.33266 0.77744 0.0
H312 H 0.91216 0.45731 0.83665 0.0
H313 H 0.93524 0.47401 0.90012 0.0
C314 C 0.70372 0.70676 0.37377 0.0
C315 C 0.75536 0.69033 0.36665 0.0
C316 C 0.72788 0.6103 0.41289 0.0
C317 C 0.68036 0.6308 0.42766 0.0
N318 N 0.62369 0.6999 0.42574 0.0
N319 N 0.81932 0.6288 0.38534 0.0
C320 C 0.66805 0.67921 0.40861 0.0
C321 C 0.76806 0.64234 0.38715 0.0
N322 N 0.68875 0.74835 0.34683 0.0
N323 N 0.73468 0.56027 0.42388 0.0
H324 H 0.85072 0.65168 0.36855 0.0
H325 H 0.83191 0.59692 0.40471 0.0
H326 H 0.70584 0.53596 0.44292 0.0
H327 H 0.76621 0.54169 0.40966 0.0
H328 H 0.64988 0.75926 0.34655 0.0
H329 H 0.71402 0.76911 0.32085 0.0
H330 H 0.61575 0.73745 0.41782 0.0
H331 H 0.59631 0.68034 0.45064 0.0
C332 C 0.16506 0.30988 0.14062 0.0
C333 C 0.18843 0.32698 0.18902 0.0
C334 C 0.1513 0.40985 0.1765 0.0
C335 C 0.12973 0.39323 0.12737 0.0
N336 N 0.12531 0.33235 0.05761 0.0
N337 N 0.21256 0.39595 0.24873 0.0
C338 C 0.13969 0.34476 0.10785 0.0
C339 C 0.18416 0.37789 0.20569 0.0
N340 N 0.16467 0.25955 0.12709 0.0
N341 N 0.13946 0.45578 0.1956 0.0
H342 H 0.23669 0.37346 0.27095 0.0
H343 H 0.2157 0.4341 0.26011 0.0
H344 H 0.11781 0.48099 0.17406 0.0
H345 H 0.14865 0.46779 0.23348 0.0
H346 H 0.143 0.24343 0.09534 0.0
H347 H 0.18236 0.23256 0.15 0.0
H348 H 0.13633 0.29993 0.03913 0.0
H349 H 0.10653 0.35701 0.03269 0.0
C350 C 0.74414 0.1304 0.88366 0.0
C351 C 0.72293 0.1619 0.84449 0.0
C352 C 0.63536 0.1156 0.85913 0.0
C353 C 0.65348 0.09721 0.90749 0.0
N354 N 0.72707 0.09651 0.96984 0.0
N355 N 0.6403 0.19337 0.81051 0.0
C356 C 0.70874 0.10616 0.92086 0.0
C357 C 0.6663 0.15646 0.83526 0.0
N358 N 0.79744 0.12398 0.88584 0.0
N359 N 0.58725 0.09676 0.83783 0.0
H360 H 0.65834 0.22997 0.8034 0.0
H361 H 0.59867 0.19059 0.80586 0.0
H362 H 0.56411 0.06567 0.85415 0.0
H363 H 0.57409 0.10856 0.80127 0.0
H364 H 0.81353 0.09898 0.91235 0.0
H365 H 0.82371 0.1394 0.85754 0.0
H366 H 0.76665 0.10692 0.98169 0.0
H367 H 0.70174 0.0832 0.99961 0.0
C368 C 0.92422 0.82221 0.4264 0.0
C369 C 0.89468 0.8379 0.38226 0.0
C370 C 0.93274 0.92669 0.39505 0.0
C371 C 0.96105 0.91093 0.43985 0.0
N372 N 0.97182 0.84753 0.50646 0.0
N373 N 0.86087 0.90591 0.33167 0.0
C374 C 0.95276 0.85986 0.45821 0.0
C375 C 0.89565 0.89055 0.36894 0.0
N376 N 0.92761 0.77133 0.43637 0.0
N377 N 0.94353 0.97515 0.37572 0.0
H378 H 0.83355 0.88019 0.31175 0.0
H379 H 0.85585 0.94417 0.32383 0.0
H380 H 0.97065 0.00243 0.39364 0.0
H381 H 0.92846 0.9873 0.34015 0.0
H382 H 0.95343 0.75801 0.46454 0.0
H383 H 0.90833 0.74216 0.41364 0.0
H384 H 0.96255 0.81202 0.52417 0.0
H385 H 0.9923 0.87459 0.531 0.0
C386 C 0.43672 0.67323 0.68554 0.0
C387 C 0.40424 0.70079 0.65165 0.0
C388 C 0.43536 0.65631 0.57661 0.0
C389 C 0.47076 0.63128 0.60991 0.0
N390 N 0.4902 0.60133 0.6964 0.0
N391 N 0.3542 0.6995 0.57072 0.0
C392 C 0.46652 0.63499 0.66464 0.0
C393 C 0.39719 0.68569 0.59905 0.0
N394 N 0.44069 0.6849 0.73718 0.0
N395 N 0.44052 0.65557 0.52382 0.0
H396 H 0.32455 0.71913 0.58729 0.0
H397 H 0.34474 0.68598 0.53332 0.0
H398 H 0.46944 0.63674 0.50532 0.0
H399 H 0.41897 0.67755 0.49853 0.0
H400 H 0.46901 0.67112 0.76251 0.0
H401 H 0.41663 0.70995 0.75436 0.0
H402 H 0.48469 0.59906 0.73642 0.0
H403 H 0.51089 0.57202 0.68189 0.0
C404 C 0.00475 0.99358 0.80045 0.0
C405 C 0.97434 0.94518 0.80156 0.0
C406 C 0.98744 0.9356 0.70782 0.0
C407 C 0.00937 0.98733 0.70551 0.0
N408 N 0.04113 0.06591 0.74857 0.0
N409 N 0.93599 0.86931 0.75725 0.0
C410 C 0.0192 0.01624 0.75172 0.0
C411 C 0.96632 0.91545 0.75563 0.0
N412 N 0.02015 0.01744 0.84617 0.0
N413 N 0.98619 0.90623 0.66411 0.0
H414 H 0.92052 0.85313 0.79162 0.0
H415 H 0.92347 0.84828 0.72434 0.0
H416 H 1.0008 0.92045 0.6286 0.0
H417 H 0.97505 0.867 0.66385 0.0
H418 H 0.04648 0.05053 0.84853 0.0
H419 H 0.01015 0.00165 0.88249 0.0
H420 H 0.04314 0.09135 0.77953 0.0
H421 H 0.05573 0.0824 0.71395 0.0
C422 C 0.59311 0.03595 0.29386 0.0
C423 C 0.63073 0.0798 0.29737 0.0
C424 C 0.62887 0.09008 0.20246 0.0
C425 C 0.59432 0.04419 0.19895 0.0
N426 N 0.53277 0.9806 0.23892 0.0
N427 N 0.67557 0.15533 0.25757 0.0
C428 C 0.57268 0.01966 0.24413 0.0
C429 C 0.64533 0.10935 0.2524 0.0
N430 N 0.57871 0.00896 0.33795 0.0
N431 N 0.6487 0.11313 0.15803 0.0
H432 H 0.69054 0.16948 0.29329 0.0
H433 H 0.68305 0.18124 0.22713 0.0
H434 H 0.63576 0.10111 0.12092 0.0
H435 H 0.67929 0.14285 0.15749 0.0
H436 H 0.55624 0.97352 0.33794 0.0
H437 H 0.59118 0.02121 0.37515 0.0
H438 H 0.51178 0.96335 0.26991 0.0
H439 H 0.51761 0.96808 0.20262 0.0
C440 C 0.56015 0.62297 0.26609 0.0
C441 C 0.56798 0.5862 0.22764 0.0
C442 C 0.58863 0.52483 0.29522 0.0
C443 C 0.56729 0.55667 0.33232 0.0
N444 N 0.53598 0.6374 0.35513 0.0
N445 N 0.61397 0.51363 0.20533 0.0
C446 C 0.55578 0.60695 0.31879 0.0
C447 C 0.59028 0.54057 0.24215 0.0
N448 N 0.55602 0.67263 0.25167 0.0
N449 N 0.60479 0.47875 0.3108 0.0
H450 H 0.61924 0.52747 0.16741 0.0
H451 H 0.63291 0.48075 0.21298 0.0
H452 H 0.60658 0.46818 0.34994 0.0
H453 H 0.61574 0.45094 0.28563 0.0
H454 H 0.55442 0.70227 0.27807 0.0
H455 H 0.56005 0.68489 0.21313 0.0
H456 H 0.52084 0.67209 0.34632 0.0
H457 H 0.53214 0.6267 0.39412 0.0
C458 C 0.03909 0.43948 0.74087 0.0
C459 C 0.07504 0.4012 0.74253 0.0
C460 C 0.05715 0.38755 0.83509 0.0
C461 C 0.0357 0.43546 0.83604 0.0
N462 N 0.99967 0.50477 0.78897 0.0
N463 N 0.11684 0.33585 0.79078 0.0
C464 C 0.02308 0.45987 0.78833 0.0
C465 C 0.08257 0.37329 0.78922 0.0
N466 N 0.02187 0.45714 0.69392 0.0
N467 N 0.05451 0.35659 0.878 0.0
H468 H 0.13594 0.32408 0.75798 0.0
H469 H 0.12878 0.31863 0.82521 0.0
H470 H 0.03404 0.36533 0.91105 0.0
H471 H 0.06653 0.31968 0.87831 0.0
H472 H 0.99239 0.48235 0.68992 0.0
H473 H 0.0336 0.44246 0.65877 0.0
H474 H 0.99554 0.52787 0.75628 0.0
H475 H 0.98641 0.52001 0.82322 0.0
C476 C 0.7754 0.9393 0.90199 0.0
C477 C 0.82497 0.95593 0.92721 0.0
C478 C 0.77733 0.99221 0.99806 0.0
C479 C 0.72785 0.97428 0.97371 0.0
N480 N 0.67911 0.94399 0.89663 0.0
N481 N 0.87347 0.01117 0.98974 0.0
C482 C 0.72675 0.95273 0.92335 0.0
C483 C 0.82594 0.98686 0.97216 0.0
N484 N 0.77449 0.90766 0.85996 0.0
N485 N 0.77779 0.01286 0.04672 0.0
H486 H 0.90954 0.0082 0.97093 0.0
H487 H 0.87643 0.03792 0.01958 0.0
H488 H 0.7428 0.02011 0.06549 0.0
H489 H 0.81251 0.02085 0.06928 0.0
H490 H 0.73942 0.88935 0.84379 0.0
H491 H 0.80906 0.89676 0.84314 0.0
H492 H 0.67619 0.9329 0.8578 0.0
H493 H 0.64276 0.95233 0.91189 0.0
C494 C 0.83027 0.09098 0.40457 0.0
C495 C 0.78268 0.06368 0.42307 0.0
C496 C 0.83523 0.01335 0.48217 0.0
C497 C 0.88184 0.04452 0.46769 0.0
N498 N 0.92774 0.10168 0.40649 0.0
N499 N 0.73946 0.99096 0.46827 0.0
C500 C 0.88055 0.07927 0.42546 0.0
C501 C 0.78514 0.0218 0.458 0.0
N502 N 0.82696 0.13 0.36935 0.0
N503 N 0.8389 0.97782 0.52092 0.0
H504 H 0.70246 0.99687 0.45107 0.0
H505 H 0.7385 0.95774 0.49073 0.0
H506 H 0.87571 0.9698 0.53717 0.0
H507 H 0.8061 0.95704 0.5376 0.0
H508 H 0.85939 0.15534 0.3586 0.0
H509 H 0.7909 0.13852 0.35194 0.0
H510 H 0.93066 0.12438 0.37311 0.0
H511 H 0.96486 0.09388 0.42216 0.0
C512 C 0.31972 0.57151 0.01237 0.0
C513 C 0.33266 0.56539 0.06565 0.0
C514 C 0.25422 0.50256 0.07073 0.0
C515 C 0.23375 0.52124 0.02333 0.0
N516 N 0.24587 0.58893 0.9573 0.0
N517 N 0.30471 0.52755 0.14869 0.0
C518 C 0.26625 0.55969 0.99574 0.0
C519 C 0.2982 0.53116 0.09605 0.0
N520 N 0.35766 0.59032 0.97813 0.0
N521 N 0.23417 0.45648 0.08992 0.0
H522 H 0.33336 0.55065 0.1698 0.0
H523 H 0.27756 0.50513 0.17158 0.0
H524 H 0.20704 0.43253 0.06793 0.0
H525 H 0.25078 0.43978 0.12268 0.0
H526 H 0.34948 0.59313 0.93829 0.0
H527 H 0.39803 0.59712 0.98906 0.0
H528 H 0.26919 0.61872 0.9391 0.0
H529 H 0.20504 0.58956 0.94943 0.0
C530 C 0.28222 0.55149 0.5389 0.0
C531 C 0.27722 0.53535 0.59155 0.0
C532 C 0.37213 0.52227 0.59723 0.0
C533 C 0.37575 0.53147 0.54283 0.0
N534 N 0.34148 0.57131 0.46609 0.0
N535 N 0.32211 0.53373 0.67515 0.0
C536 C 0.33293 0.5515 0.5149 0.0
C537 C 0.32403 0.53063 0.62226 0.0
N538 N 0.23868 0.56657 0.51225 0.0
N539 N 0.41243 0.50166 0.62435 0.0
H540 H 0.28727 0.54111 0.69408 0.0
H541 H 0.35616 0.53498 0.69925 0.0
H542 H 0.44782 0.49281 0.6076 0.0
H543 H 0.40887 0.48935 0.66287 0.0
H544 H 0.23725 0.57249 0.4722 0.0
H545 H 0.20365 0.57389 0.53084 0.0
H546 H 0.31339 0.58968 0.44448 0.0
H547 H 0.37887 0.57307 0.44868 0.0
C548 C 0.98556 0.72411 0.92332 0.0
C549 C 0.97533 0.75111 0.96899 0.0
C550 C 0.02829 0.69355 0.02049 0.0
C551 C 0.02993 0.66199 0.97622 0.0
N552 N 1.00329 0.64312 0.88697 0.0
N553 N 0.9918 0.76572 0.06081 0.0
C554 C 0.0071 0.67632 0.92793 0.0
C555 C 0.99858 0.73731 0.01756 0.0
N556 N 0.97588 0.7446 0.87538 0.0
N557 N 0.05606 0.68216 0.06475 0.0
H558 H 0.97593 0.80099 0.0592 0.0
H559 H 1.0008 0.75408 0.09851 0.0
H560 H 0.07759 0.65013 0.06792 0.0
H561 H 0.06062 0.70562 0.09725 0.0
H562 H 0.98751 0.72875 0.84087 0.0
H563 H 0.96207 0.78052 0.8702 0.0
H564 H 0.98145 0.64933 0.85296 0.0
H565 H 0.01739 0.60702 0.88859 0.0
C566 C 0.41643 0.78005 0.10119 0.0
C567 C 0.43219 0.73933 0.07111 0.0
C568 C 0.48019 0.80053 0.01208 0.0
C569 C 0.47456 0.83927 0.04861 0.0
N570 N 0.43216 0.87026 0.12333 0.0
N571 N 0.47545 0.70937 0.99575 0.0
C572 C 0.43988 0.83054 0.09118 0.0
C573 C 0.46186 0.74921 0.025 0.0
N574 N 0.37998 0.76993 0.1396 0.0
N575 N 0.50441 0.81305 0.966 0.0
H576 H 0.4621 0.67134 0.00379 0.0
H577 H 0.50189 0.71355 0.965 0.0
H578 H 0.51831 0.85072 0.95663 0.0
H579 H 0.50642 0.78749 0.93554 0.0
H580 H 0.36396 0.79802 0.16104 0.0
H581 H 0.36263 0.73299 0.14749 0.0
H582 H 0.41225 0.8662 0.15843 0.0
H583 H 0.44705 0.90789 0.11484 0.0
C584 C 0.10291 0.29816 0.5514 0.0
C585 C 0.1405 0.3052 0.59331 0.0
C586 C 0.15038 0.21342 0.59624 0.0
C587 C 0.10757 0.20597 0.55956 0.0
N588 N 0.05531 0.23871 0.49018 0.0
N589 N 0.21129 0.27359 0.64542 0.0
C590 C 0.08836 0.24783 0.53266 0.0
C591 C 0.16855 0.26405 0.61187 0.0
N592 N 0.07926 0.33924 0.53187 0.0
N593 N 0.17084 0.17169 0.61828 0.0
H594 H 0.22472 0.3104 0.65787 0.0
H595 H 0.23583 0.24602 0.6581 0.0
H596 H 0.15939 0.13452 0.60545 0.0
H597 H 0.19809 0.17336 0.64942 0.0
H598 H 0.04756 0.33646 0.50497 0.0
H599 H 0.09089 0.37663 0.54385 0.0
H600 H 0.04178 0.2673 0.46645 0.0
H601 H 0.04505 0.20168 0.47634 0.0
C602 C 0.60867 0.28823 0.44181 0.0
C603 C 0.60487 0.25249 0.48412 0.0
C604 C 0.5699 0.31816 0.53828 0.0
C605 C 0.57596 0.35316 0.49632 0.0
N606 N 0.62072 0.37754 0.41699 0.0
N607 N 0.60018 0.24194 0.57806 0.0
C608 C 0.60244 0.34017 0.45129 0.0
C609 C 0.59127 0.26995 0.53427 0.0
N610 N 0.61462 0.27282 0.39183 0.0
N611 N 0.54278 0.33035 0.5812 0.0
H612 H 0.62123 0.20965 0.57817 0.0
H613 H 0.5935 0.2548 0.61537 0.0
H614 H 0.52837 0.36605 0.58553 0.0
H615 H 0.53213 0.30415 0.61077 0.0
H616 H 0.61191 0.29724 0.35988 0.0
H617 H 0.61646 0.23508 0.38117 0.0
H618 H 0.64429 0.37057 0.38536 0.0
H619 H 0.61758 0.41624 0.424 0.0
loop_
_geom_bond_atom_site_label_1
_geom_bond_atom_site_label_2
_geom_bond_distance
_geom_bond_site_symmetry_2
_ccdc_geom_bond_type
H0 C7 0.929 . S
H1 C10 0.930 . S
H2 C12 0.929 . S
H3 C4 0.969 . S
C4 H3 0.969 . S
C4 O5 1.550 . S
C4 H6 0.973 . S
O5 C4 1.550 . S
O5 C11 1.412 . S
H6 C4 0.973 . S
C7 H0 0.929 . S
C7 C8 1.400 . S
C7 C9 1.364 . S
C8 C7 1.400 . S
C8 C12 1.377 . S
C9 C7 1.364 . S
C9 C10 1.374 . S
C10 H1 0.930 . S
C10 C9 1.374 . S
C10 C11 1.383 . S
C11 O5 1.412 . S
C11 C10 1.383 . S
C11 C12 1.394 . S
C12 H2 0.929 . S
C12 C8 1.377 . S
C12 C11 1.394 . S
H13 C20 0.929 . S
H14 C23 0.930 . S
H15 C25 0.929 . S
H16 C17 0.969 . S
C17 H16 0.969 . S
C17 O18 1.550 . S
C17 H19 0.973 . S
O18 C17 1.550 . S
O18 C24 1.412 . S
H19 C17 0.973 . S
C20 H13 0.929 . S
C20 C21 1.400 . S
C20 C22 1.364 . S
C21 C20 1.400 . S
C21 C25 1.377 . S
C22 C20 1.364 . S
C22 C23 1.374 . S
C23 H14 0.930 . S
C23 C22 1.374 . S
C23 C24 1.383 . S
C24 O18 1.412 . S
C24 C23 1.383 . S
C24 C25 1.394 . S
C25 H15 0.929 . S
C25 C21 1.377 . S
C25 C24 1.394 . S
H26 C33 0.929 . S
H27 C36 0.930 . S
H28 C38 0.929 . S
H29 C30 0.969 . S
C30 H29 0.969 . S
C30 O31 1.550 . S
C30 H32 0.973 . S
O31 C30 1.550 . S
O31 C37 1.412 . S
H32 C30 0.973 . S
C33 H26 0.929 . S
C33 C34 1.400 . S
C33 C35 1.364 . S
C34 C33 1.400 . S
C34 C38 1.377 . S
C35 C33 1.364 . S
C35 C36 1.374 . S
C36 H27 0.930 . S
C36 C35 1.374 . S
C36 C37 1.383 . S
C37 O31 1.412 . S
C37 C36 1.383 . S
C37 C38 1.394 . S
C38 H28 0.929 . S
C38 C34 1.377 . S
C38 C37 1.394 . S
H39 C46 0.929 . S
H40 C49 0.930 . S
H41 C51 0.929 . S
H42 C43 0.969 . S
C43 H42 0.969 . S
C43 O44 1.550 . S
C43 H45 0.973 . S
O44 C43 1.550 . S
O44 C50 1.412 . S
H45 C43 0.973 . S
C46 H39 0.929 . S
C46 C47 1.400 . S
C46 C48 1.364 . S
C47 C46 1.400 . S
C47 C51 1.377 . S
C48 C46 1.364 . S
C48 C49 1.374 . S
C49 H40 0.930 . S
C49 C48 1.374 . S
C49 C50 1.383 . S
C50 O44 1.412 . S
C50 C49 1.383 . S
C50 C51 1.394 . S
C51 H41 0.929 . S
C51 C47 1.377 . S
C51 C50 1.394 . S
H52 C59 0.929 1_545 S
H53 C62 0.930 . S
H54 C64 0.929 . S
H55 C56 0.969 . S
C56 H55 0.969 . S
C56 O57 1.550 1_655 S
C56 H58 0.973 1_556 S
O57 C56 1.550 1_455 S
O57 C63 1.412 1_455 S
H58 C56 0.973 1_554 S
C59 H52 0.929 1_565 S
C59 C60 1.400 . S
C59 C61 1.364 . S
C60 C59 1.400 . S
C60 C64 1.377 1_655 S
C61 C59 1.364 . S
C61 C62 1.374 . S
C62 H53 0.930 . S
C62 C61 1.374 . S
C62 C63 1.383 . S
C63 O57 1.412 1_655 S
C63 C62 1.383 . S
C63 C64 1.394 1_655 S
C64 H54 0.929 . S
C64 C60 1.377 1_455 S
C64 C63 1.394 1_455 S
H65 C72 0.929 . S
H66 C75 0.930 . S
H67 C77 0.929 . S
H68 C69 0.969 . S
C69 H68 0.969 . S
C69 O70 1.550 . S
C69 H71 0.973 . S
O70 C69 1.550 . S
O70 C76 1.412 . S
H71 C69 0.973 . S
C72 H65 0.929 . S
C72 C73 1.400 . S
C72 C74 1.364 . S
C73 C72 1.400 . S
C73 C77 1.377 . S
C74 C72 1.364 . S
C74 C75 1.374 . S
C75 H66 0.930 . S
C75 C74 1.374 . S
C75 C76 1.383 . S
C76 O70 1.412 . S
C76 C75 1.383 . S
C76 C77 1.394 . S
C77 H67 0.929 . S
C77 C73 1.377 . S
C77 C76 1.394 . S
H78 C85 0.929 1_556 S
H79 C88 0.930 . S
H80 C90 0.929 . S
H81 C82 0.969 . S
C82 H81 0.969 . S
C82 O83 1.550 . S
C82 H84 0.973 . S
O83 C82 1.550 . S
O83 C89 1.412 . S
H84 C82 0.973 . S
C85 H78 0.929 1_554 S
C85 C86 1.400 . S
C85 C87 1.364 . S
C86 C85 1.400 . S
C86 C90 1.377 . S
C87 C85 1.364 . S
C87 C88 1.374 . S
C88 H79 0.930 . S
C88 C87 1.374 . S
C88 C89 1.383 . S
C89 O83 1.412 . S
C89 C88 1.383 . S
C89 C90 1.394 . S
C90 H80 0.929 . S
C90 C86 1.377 . S
C90 C89 1.394 . S
H91 C98 0.929 . S
H92 C101 0.930 . S
H93 C103 0.929 . S
H94 C95 0.969 . S
C95 H94 0.969 . S
C95 O96 1.550 . S
C95 H97 0.973 . S
O96 C95 1.550 . S
O96 C102 1.412 . S
H97 C95 0.973 . S
C98 H91 0.929 . S
C98 C99 1.400 . S
C98 C100 1.364 . S
C99 C98 1.400 . S
C99 C103 1.377 . S
C100 C98 1.364 . S
C100 C101 1.374 . S
C101 H92 0.930 . S
C101 C100 1.374 . S
C101 C102 1.383 . S
C102 O96 1.412 . S
C102 C101 1.383 . S
C102 C103 1.394 . S
C103 H93 0.929 . S
C103 C99 1.377 . S
C103 C102 1.394 . S
Zn104 O110 1.920 . S
Zn104 O116 1.898 . S
Zn104 O119 1.905 . S
Zn105 O113 1.905 1_565 S
Zn105 O114 1.898 . S
Zn105 O122 1.920 . S
Zn106 O109 2.080 1_455 S
Zn106 O112 2.114 . S
Zn106 O115 2.120 1_445 S
Zn106 O117 2.120 . S
Zn106 O118 2.114 1_455 S
Zn106 O121 2.080 . S
C107 O112 1.166 . S
C107 O113 1.182 . S
C108 O114 1.167 1_655 S
C108 O115 1.299 . S
O109 Zn106 2.080 1_655 S
O109 C123 1.305 . S
O110 Zn104 1.920 . S
O110 C123 1.234 . S
C111 O116 1.167 1_455 S
C111 O117 1.299 . S
O112 Zn106 2.114 . S
O112 C107 1.166 . S
O113 Zn105 1.905 1_545 S
O113 C107 1.182 . S
O114 Zn105 1.898 . S
O114 C108 1.167 1_455 S
O115 Zn106 2.120 1_665 S
O115 C108 1.299 . S
O116 Zn104 1.898 . S
O116 C111 1.167 1_655 S
O117 Zn106 2.120 . S
O117 C111 1.299 . S
O118 Zn106 2.114 1_655 S
O118 C120 1.166 . S
O119 Zn104 1.905 . S
O119 C120 1.182 . S
C120 O118 1.166 . S
C120 O119 1.182 . S
O121 Zn106 2.080 . S
O121 C124 1.305 1_545 S
O122 Zn105 1.920 . S
O122 C124 1.234 . S
C123 O109 1.305 . S
C123 O110 1.234 . S
C124 O121 1.305 1_565 S
C124 O122 1.234 . S
Zn125 O131 1.917 1_556 S
Zn125 O137 1.898 . S
Zn125 O140 1.905 . S
Zn126 O134 1.905 . S
Zn126 O135 1.898 . S
Zn126 O143 1.920 . S
Zn127 O130 2.080 . S
Zn127 O133 2.114 1_544 S
Zn127 O136 2.120 1_545 S
Zn127 O138 2.120 1_554 S
Zn127 O139 2.114 1_544 S
Zn127 O142 2.080 . S
C128 O133 1.166 1_554 S
C128 O134 1.182 . S
C129 O135 1.167 . S
C129 O136 1.299 . S
O130 Zn127 2.080 . S
O130 C144 1.305 . S
O131 Zn125 1.917 1_554 S
O131 C144 1.236 . S
C132 O137 1.167 . S
C132 O138 1.299 . S
O133 Zn127 2.114 1_566 S
O133 C128 1.166 1_556 S
O134 Zn126 1.905 . S
O134 C128 1.182 . S
O135 Zn126 1.898 . S
O135 C129 1.167 . S
O136 Zn127 2.120 1_565 S
O136 C129 1.299 . S
O137 Zn125 1.898 . S
O137 C132 1.167 . S
O138 Zn127 2.120 1_556 S
O138 C132 1.299 . S
O139 Zn127 2.114 1_566 S
O139 C141 1.166 . S
O140 Zn125 1.905 . S
O140 C141 1.182 1_545 S
C141 O139 1.166 . S
C141 O140 1.182 1_565 S
O142 Zn127 2.080 . S
O142 C145 1.305 . S
O143 Zn126 1.920 . S
O143 C145 1.234 1_565 S
C144 O130 1.305 . S
C144 O131 1.236 . S
C145 O142 1.305 . S
C145 O143 1.234 1_545 S
Zn146 O152 1.920 . S
Zn146 O158 1.898 . S
Zn146 O161 1.905 . S
Zn147 O155 1.905 . S
Zn147 O156 1.898 . S
Zn147 O164 1.920 . S
Zn148 O151 2.080 . S
Zn148 O154 2.114 . S
Zn148 O157 2.120 . S
Zn148 O159 2.120 . S
Zn148 O160 2.114 . S
Zn148 O163 2.080 . S
C149 O154 1.166 . S
C149 O155 1.182 . S
C150 O156 1.167 . S
C150 O157 1.299 . S
O151 Zn148 2.080 . S
O151 C165 1.305 . S
O152 Zn146 1.920 . S
O152 C165 1.234 . S
C153 O158 1.167 . S
C153 O159 1.299 . S
O154 Zn148 2.114 . S
O154 C149 1.166 . S
O155 Zn147 1.905 . S
O155 C149 1.182 . S
O156 Zn147 1.898 . S
O156 C150 1.167 . S
O157 Zn148 2.120 . S
O157 C150 1.299 . S
O158 Zn146 1.898 . S
O158 C153 1.167 . S
O159 Zn148 2.120 . S
O159 C153 1.299 . S
O160 Zn148 2.114 . S
O160 C162 1.166 . S
O161 Zn146 1.905 . S
O161 C162 1.182 . S
C162 O160 1.166 . S
C162 O161 1.182 . S
O163 Zn148 2.080 . S
O163 C166 1.305 . S
O164 Zn147 1.920 . S
O164 C166 1.234 . S
C165 O151 1.305 . S
C165 O152 1.234 . S
C166 O163 1.305 . S
C166 O164 1.234 . S
Zn167 O173 1.920 . S
Zn167 O179 1.898 . S
Zn167 O182 1.905 . S
Zn168 O176 1.905 1_655 S
Zn168 O177 1.898 . S
Zn168 O185 1.920 . S
Zn169 O172 2.080 1_554 S
Zn169 O175 2.114 . S
Zn169 O178 2.120 1_454 S
Zn169 O180 2.120 . S
Zn169 O181 2.114 1_554 S
Zn169 O184 2.080 . S
C170 O175 1.166 . S
C170 O176 1.182 . S
C171 O177 1.167 1_556 S
C171 O178 1.299 . S
O172 Zn169 2.080 1_556 S
O172 C186 1.305 . S
O173 Zn167 1.920 . S
O173 C186 1.234 . S
C174 O179 1.167 1_554 S
C174 O180 1.299 . S
O175 Zn169 2.114 . S
O175 C170 1.166 . S
O176 Zn168 1.905 1_455 S
O176 C170 1.182 . S
O177 Zn168 1.898 . S
O177 C171 1.167 1_554 S
O178 Zn169 2.120 1_656 S
O178 C171 1.299 . S
O179 Zn167 1.898 . S
O179 C174 1.167 1_556 S
O180 Zn169 2.120 . S
O180 C174 1.299 . S
O181 Zn169 2.114 1_556 S
O181 C183 1.166 . S
O182 Zn167 1.905 . S
O182 C183 1.182 . S
C183 O181 1.166 . S
C183 O182 1.182 . S
O184 Zn169 2.080 . S
O184 C187 1.305 1_455 S
O185 Zn168 1.920 . S
O185 C187 1.234 . S
C186 O172 1.305 . S
C186 O173 1.234 . S
C187 O184 1.305 1_655 S
C187 O185 1.234 . S
C188 C189 1.363 . S
C188 C194 1.379 . S
C188 N196 1.356 . S
C189 C188 1.363 . S
C189 C195 1.363 . S
C190 C191 1.363 . S
C190 C195 1.379 . S
C190 N197 1.356 . S
C191 C190 1.363 . S
C191 C194 1.363 . S
N192 C194 1.356 . S
N192 H204 0.984 . S
N192 H205 0.985 . S
N193 C195 1.356 . S
N193 H198 0.984 . S
N193 H199 0.985 . S
C194 C188 1.379 . S
C194 C191 1.363 . S
C194 N192 1.356 . S
C195 C189 1.363 . S
C195 C190 1.379 . S
C195 N193 1.356 . S
N196 C188 1.356 . S
N196 H202 0.984 . S
N196 H203 0.984 . S
N197 C190 1.356 . S
N197 H200 0.984 . S
N197 H201 0.985 . S
H198 N193 0.984 . S
H199 N193 0.985 . S
H200 N197 0.984 . S
H201 N197 0.985 . S
H202 N196 0.984 . S
H203 N196 0.984 . S
H204 N192 0.984 . S
H205 N192 0.985 . S
C206 C207 1.363 . S
C206 C212 1.379 . S
C206 N214 1.356 . S
C207 C206 1.363 . S
C207 C213 1.363 . S
C208 C209 1.363 . S
C208 C213 1.379 . S
C208 N215 1.356 . S
C209 C208 1.363 . S
C209 C212 1.363 . S
N210 C212 1.356 1_545 S
N210 H222 0.984 . S
N210 H223 0.985 . S
N211 C213 1.356 . S
N211 H216 0.984 . S
N211 H217 0.985 . S
C212 C206 1.379 . S
C212 C209 1.363 . S
C212 N210 1.356 1_565 S
C213 C207 1.363 . S
C213 C208 1.379 . S
C213 N211 1.356 . S
N214 C206 1.356 . S
N214 H220 0.984 1_565 S
N214 H221 0.984 . S
N215 C208 1.356 . S
N215 H218 0.984 . S
N215 H219 0.985 . S
H216 N211 0.984 . S
H217 N211 0.985 . S
H218 N215 0.984 . S
H219 N215 0.985 . S
H220 N214 0.984 1_545 S
H221 N214 0.984 . S
H222 N210 0.984 . S
H223 N210 0.985 . S
C224 C225 1.363 . S
C224 C230 1.379 . S
C224 N232 1.356 . S
C225 C224 1.363 . S
C225 C231 1.363 . S
C226 C227 1.363 . S
C226 C231 1.379 . S
C226 N233 1.356 . S
C227 C226 1.363 . S
C227 C230 1.363 . S
N228 C230 1.356 . S
N228 H240 0.984 . S
N228 H241 0.985 . S
N229 C231 1.356 . S
N229 H234 0.984 . S
N229 H235 0.985 . S
C230 C224 1.379 . S
C230 C227 1.363 . S
C230 N228 1.356 . S
C231 C225 1.363 . S
C231 C226 1.379 . S
C231 N229 1.356 . S
N232 C224 1.356 . S
N232 H238 0.984 . S
N232 H239 0.984 . S
N233 C226 1.356 . S
N233 H236 0.984 . S
N233 H237 0.985 . S
H234 N229 0.984 . S
H235 N229 0.985 . S
H236 N233 0.984 . S
H237 N233 0.985 . S
H238 N232 0.984 . S
H239 N232 0.984 . S
H240 N228 0.984 . S
H241 N228 0.985 . S
C242 C243 1.363 . S
C242 C248 1.379 . S
C242 N250 1.356 . S
C243 C242 1.363 . S
C243 C249 1.363 . S
C244 C245 1.363 . S
C244 C249 1.379 . S
C244 N251 1.356 . S
C245 C244 1.363 . S
C245 C248 1.363 . S
N246 C248 1.356 . S
N246 H258 0.984 . S
N246 H259 0.985 . S
N247 C249 1.356 . S
N247 H252 0.984 . S
N247 H253 0.985 . S
C248 C242 1.379 . S
C248 C245 1.363 . S
C248 N246 1.356 . S
C249 C243 1.363 . S
C249 C244 1.379 . S
C249 N247 1.356 . S
N250 C242 1.356 . S
N250 H256 0.984 . S
N250 H257 0.984 . S
N251 C244 1.356 . S
N251 H254 0.984 1_655 S
N251 H255 0.985 . S
H252 N247 0.984 . S
H253 N247 0.985 . S
H254 N251 0.984 1_455 S
H255 N251 0.985 . S
H256 N250 0.984 . S
H257 N250 0.984 . S
H258 N246 0.984 . S
H259 N246 0.985 . S
C260 C261 1.363 . S
C260 C266 1.379 . S
C260 N268 1.356 . S
C261 C260 1.363 . S
C261 C267 1.363 . S
C262 C263 1.363 . S
C262 C267 1.379 . S
C262 N269 1.356 . S
C263 C262 1.363 . S
C263 C266 1.363 . S
N264 C266 1.356 . S
N264 H276 0.984 . S
N264 H277 0.985 . S
N265 C267 1.356 . S
N265 H270 0.984 . S
N265 H271 0.985 . S
C266 C260 1.379 . S
C266 C263 1.363 . S
C266 N264 1.356 . S
C267 C261 1.363 . S
C267 C262 1.379 . S
C267 N265 1.356 . S
N268 C260 1.356 . S
N268 H274 0.984 . S
N268 H275 0.984 . S
N269 C262 1.356 . S
N269 H272 0.984 . S
N269 H273 0.985 1_545 S
H270 N265 0.984 . S
H271 N265 0.985 . S
H272 N269 0.984 . S
H273 N269 0.985 1_565 S
H274 N268 0.984 . S
H275 N268 0.984 . S
H276 N264 0.984 . S
H277 N264 0.985 . S
C278 C279 1.363 . S
C278 C284 1.379 . S
C278 N286 1.356 . S
C279 C278 1.363 . S
C279 C285 1.363 . S
C280 C281 1.363 . S
C280 C285 1.379 . S
C280 N287 1.356 . S
C281 C280 1.363 . S
C281 C284 1.363 . S
N282 C284 1.356 . S
N282 H294 0.984 . S
N282 H295 0.985 . S
N283 C285 1.356 . S
N283 H288 0.984 . S
N283 H289 0.985 . S
C284 C278 1.379 . S
C284 C281 1.363 . S
C284 N282 1.356 . S
C285 C279 1.363 . S
C285 C280 1.379 . S
C285 N283 1.356 . S
N286 C278 1.356 . S
N286 H292 0.984 . S
N286 H293 0.984 . S
N287 C280 1.356 . S
N287 H290 0.984 . S
N287 H291 0.985 . S
H288 N283 0.984 . S
H289 N283 0.985 . S
H290 N287 0.984 . S
H291 N287 0.985 . S
H292 N286 0.984 . S
H293 N286 0.984 . S
H294 N282 0.984 . S
H295 N282 0.985 . S
C296 C297 1.363 . S
C296 C302 1.379 . S
C296 N304 1.356 . S
C297 C296 1.363 . S
C297 C303 1.363 . S
C298 C299 1.363 . S
C298 C303 1.379 . S
C298 N305 1.356 1_556 S
C299 C298 1.363 . S
C299 C302 1.363 . S
N300 C302 1.356 . S
N300 H312 0.984 . S
N300 H313 0.985 . S
N301 C303 1.356 . S
N301 H306 0.984 . S
N301 H307 0.986 1_556 S
C302 C296 1.379 . S
C302 C299 1.363 . S
C302 N300 1.356 . S
C303 C297 1.363 . S
C303 C298 1.379 . S
C303 N301 1.356 . S
N304 C296 1.356 . S
N304 H310 0.984 . S
N304 H311 0.984 . S
N305 C298 1.356 1_554 S
N305 H308 0.984 . S
N305 H309 0.985 . S
H306 N301 0.984 . S
H307 N301 0.986 1_554 S
H308 N305 0.984 . S
H309 N305 0.985 . S
H310 N304 0.984 . S
H311 N304 0.984 . S
H312 N300 0.984 . S
H313 N300 0.985 . S
C314 C315 1.363 . S
C314 C320 1.379 . S
C314 N322 1.356 . S
C315 C314 1.363 . S
C315 C321 1.363 . S
C316 C317 1.363 . S
C316 C321 1.379 . S
C316 N323 1.356 . S
C317 C316 1.363 . S
C317 C320 1.363 . S
N318 C320 1.356 . S
N318 H330 0.984 . S
N318 H331 0.985 . S
N319 C321 1.356 . S
N319 H324 0.984 . S
N319 H325 0.985 . S
C320 C314 1.379 . S
C320 C317 1.363 . S
C320 N318 1.356 . S
C321 C315 1.363 . S
C321 C316 1.379 . S
C321 N319 1.356 . S
N322 C314 1.356 . S
N322 H328 0.984 . S
N322 H329 0.984 . S
N323 C316 1.356 . S
N323 H326 0.984 . S
N323 H327 0.985 . S
H324 N319 0.984 . S
H325 N319 0.985 . S
H326 N323 0.984 . S
H327 N323 0.985 . S
H328 N322 0.984 . S
H329 N322 0.984 . S
H330 N318 0.984 . S
H331 N318 0.985 . S
C332 C333 1.363 . S
C332 C338 1.379 . S
C332 N340 1.356 . S
C333 C332 1.363 . S
C333 C339 1.363 . S
C334 C335 1.363 . S
C334 C339 1.379 . S
C334 N341 1.356 . S
C335 C334 1.363 . S
C335 C338 1.363 . S
N336 C338 1.356 . S
N336 H348 0.984 . S
N336 H349 0.985 . S
N337 C339 1.356 . S
N337 H342 0.984 . S
N337 H343 0.985 . S
C338 C332 1.379 . S
C338 C335 1.363 . S
C338 N336 1.356 . S
C339 C333 1.363 . S
C339 C334 1.379 . S
C339 N337 1.356 . S
N340 C332 1.356 . S
N340 H346 0.984 . S
N340 H347 0.984 . S
N341 C334 1.356 . S
N341 H344 0.984 . S
N341 H345 0.985 . S
H342 N337 0.984 . S
H343 N337 0.985 . S
H344 N341 0.984 . S
H345 N341 0.985 . S
H346 N340 0.984 . S
H347 N340 0.984 . S
H348 N336 0.984 . S
H349 N336 0.985 . S
C350 C351 1.363 . S
C350 C356 1.379 . S
C350 N358 1.356 . S
C351 C350 1.363 . S
C351 C357 1.363 . S
C352 C353 1.363 . S
C352 C357 1.379 . S
C352 N359 1.356 . S
C353 C352 1.363 . S
C353 C356 1.363 . S
N354 C356 1.356 . S
N354 H366 0.976 1_556 S
N354 H367 0.985 . S
N355 C357 1.356 . S
N355 H360 0.984 . S
N355 H361 0.985 . S
C356 C350 1.379 . S
C356 C353 1.363 . S
C356 N354 1.356 . S
C357 C351 1.363 . S
C357 C352 1.379 . S
C357 N355 1.356 . S
N358 C350 1.356 . S
N358 H364 0.984 . S
N358 H365 0.984 . S
N359 C352 1.356 . S
N359 H362 0.984 . S
N359 H363 0.985 . S
H360 N355 0.984 . S
H361 N355 0.985 . S
H362 N359 0.984 . S
H363 N359 0.985 . S
H364 N358 0.984 . S
H365 N358 0.984 . S
H366 N354 0.976 1_554 S
H367 N354 0.985 . S
C368 C369 1.363 . S
C368 C374 1.379 . S
C368 N376 1.356 . S
C369 C368 1.363 . S
C369 C375 1.363 . S
C370 C371 1.363 . S
C370 C375 1.379 . S
C370 N377 1.356 1_655 S
C371 C370 1.363 . S
C371 C374 1.363 . S
N372 C374 1.356 . S
N372 H384 0.984 . S
N372 H385 0.985 . S
N373 C375 1.356 . S
N373 H378 0.984 . S
N373 H379 0.985 . S
C374 C368 1.379 . S
C374 C371 1.363 . S
C374 N372 1.356 . S
C375 C369 1.363 . S
C375 C370 1.379 . S
C375 N373 1.356 . S
N376 C368 1.356 . S
N376 H382 0.984 . S
N376 H383 0.984 . S
N377 C370 1.356 1_455 S
N377 H380 0.984 . S
N377 H381 0.985 . S
H378 N373 0.984 . S
H379 N373 0.985 . S
H380 N377 0.984 . S
H381 N377 0.985 . S
H382 N376 0.984 . S
H383 N376 0.984 . S
H384 N372 0.984 . S
H385 N372 0.985 . S
C386 C387 1.363 . S
C386 C392 1.379 . S
C386 N394 1.356 . S
C387 C386 1.363 . S
C387 C393 1.363 . S
C388 C389 1.363 . S
C388 C393 1.379 . S
C388 N395 1.356 . S
C389 C388 1.363 . S
C389 C392 1.363 . S
N390 C392 1.356 . S
N390 H402 0.984 . S
N390 H403 0.985 . S
N391 C393 1.356 . S
N391 H396 0.984 . S
N391 H397 0.985 . S
C392 C386 1.379 . S
C392 C389 1.363 . S
C392 N390 1.356 . S
C393 C387 1.363 . S
C393 C388 1.379 . S
C393 N391 1.356 . S
N394 C386 1.356 . S
N394 H400 0.984 . S
N394 H401 0.984 . S
N395 C388 1.356 . S
N395 H398 0.984 . S
N395 H399 0.985 . S
H396 N391 0.984 . S
H397 N391 0.985 . S
H398 N395 0.984 . S
H399 N395 0.985 . S
H400 N394 0.984 . S
H401 N394 0.984 . S
H402 N390 0.984 . S
H403 N390 0.985 . S
C404 C405 1.363 1_545 S
C404 C410 1.379 . S
C404 N412 1.356 . S
C405 C404 1.363 1_565 S
C405 C411 1.363 1_655 S
C406 C407 1.363 1_465 S
C406 C411 1.379 . S
C406 N413 1.356 . S
C407 C406 1.363 1_645 S
C407 C410 1.363 . S
N408 C410 1.356 . S
N408 H420 0.984 . S
N408 H421 0.985 . S
N409 C411 1.356 . S
N409 H414 0.984 . S
N409 H415 0.985 . S
C410 C404 1.379 . S
C410 C407 1.363 . S
C410 N408 1.356 . S
C411 C405 1.363 1_455 S
C411 C406 1.379 . S
C411 N409 1.356 . S
N412 C404 1.356 . S
N412 H418 0.984 . S
N412 H419 0.984 . S
N413 C406 1.356 . S
N413 H416 0.984 . S
N413 H417 0.985 . S
H414 N409 0.984 . S
H415 N409 0.985 . S
H416 N413 0.984 . S
H417 N413 0.985 . S
H418 N412 0.984 . S
H419 N412 0.984 . S
H420 N408 0.984 . S
H421 N408 0.985 . S
C422 C423 1.363 . S
C422 C428 1.379 . S
C422 N430 1.356 1_545 S
C423 C422 1.363 . S
C423 C429 1.363 . S
C424 C425 1.363 . S
C424 C429 1.379 . S
C424 N431 1.356 . S
C425 C424 1.363 . S
C425 C428 1.363 . S
N426 C428 1.356 1_565 S
N426 H438 0.984 . S
N426 H439 0.985 . S
N427 C429 1.356 . S
N427 H432 0.984 . S
N427 H433 0.985 . S
C428 C422 1.379 . S
C428 C425 1.363 . S
C428 N426 1.356 1_545 S
C429 C423 1.363 . S
C429 C424 1.379 . S
C429 N427 1.356 . S
N430 C422 1.356 1_565 S
N430 H436 0.984 . S
N430 H437 0.984 1_565 S
N431 C424 1.356 . S
N431 H434 0.984 . S
N431 H435 0.985 . S
H432 N427 0.984 . S
H433 N427 0.985 . S
H434 N431 0.984 . S
H435 N431 0.985 . S
H436 N430 0.984 . S
H437 N430 0.984 1_545 S
H438 N426 0.984 . S
H439 N426 0.985 . S
C440 C441 1.363 . S
C440 C446 1.379 . S
C440 N448 1.356 . S
C441 C440 1.363 . S
C441 C447 1.363 . S
C442 C443 1.363 . S
C442 C447 1.379 . S
C442 N449 1.356 . S
C443 C442 1.363 . S
C443 C446 1.363 . S
N444 C446 1.356 . S
N444 H456 0.984 . S
N444 H457 0.985 . S
N445 C447 1.356 . S
N445 H450 0.984 . S
N445 H451 0.985 . S
C446 C440 1.379 . S
C446 C443 1.363 . S
C446 N444 1.356 . S
C447 C441 1.363 . S
C447 C442 1.379 . S
C447 N445 1.356 . S
N448 C440 1.356 . S
N448 H454 0.984 . S
N448 H455 0.984 . S
N449 C442 1.356 . S
N449 H452 0.984 . S
N449 H453 0.985 . S
H450 N445 0.984 . S
H451 N445 0.985 . S
H452 N449 0.984 . S
H453 N449 0.985 . S
H454 N448 0.984 . S
H455 N448 0.984 . S
H456 N444 0.984 . S
H457 N444 0.985 . S
C458 C459 1.363 . S
C458 C464 1.379 . S
C458 N466 1.356 . S
C459 C458 1.363 . S
C459 C465 1.363 . S
C460 C461 1.363 . S
C460 C465 1.379 . S
C460 N467 1.356 . S
C461 C460 1.363 . S
C461 C464 1.363 . S
N462 C464 1.356 . S
N462 H474 0.984 . S
N462 H475 0.985 . S
N463 C465 1.356 . S
N463 H468 0.984 . S
N463 H469 0.993 . S
C464 C458 1.379 . S
C464 C461 1.363 . S
C464 N462 1.356 . S
C465 C459 1.363 . S
C465 C460 1.379 . S
C465 N463 1.356 . S
N466 C458 1.356 . S
N466 H472 0.984 . S
N466 H473 0.984 . S
N467 C460 1.356 . S
N467 H470 0.984 . S
N467 H471 0.985 1_455 S
H468 N463 0.984 . S
H469 N463 0.993 . S
H470 N467 0.984 . S
H471 N467 0.985 1_655 S
H472 N466 0.984 . S
H473 N466 0.984 . S
H474 N462 0.984 . S
H475 N462 0.985 . S
C476 C477 1.363 . S
C476 C482 1.379 . S
C476 N484 1.356 . S
C477 C476 1.363 . S
C477 C483 1.363 1_556 S
C478 C479 1.363 1_544 S
C478 C483 1.379 1_545 S
C478 N485 1.356 . S
C479 C478 1.363 1_566 S
C479 C482 1.363 . S
N480 C482 1.356 . S
N480 H492 0.984 . S
N480 H493 0.985 . S
N481 C483 1.356 1_545 S
N481 H486 0.984 . S
N481 H487 0.985 . S
C482 C476 1.379 . S
C482 C479 1.363 . S
C482 N480 1.356 . S
C483 C477 1.363 1_554 S
C483 C478 1.379 1_565 S
C483 N481 1.356 1_565 S
N484 C476 1.356 . S
N484 H490 0.984 . S
N484 H491 0.984 . S
N485 C478 1.356 . S
N485 H488 0.984 . S
N485 H489 0.985 . S
H486 N481 0.984 . S
H487 N481 0.985 . S
H488 N485 0.984 . S
H489 N485 0.985 . S
H490 N484 0.984 . S
H491 N484 0.984 . S
H492 N480 0.984 . S
H493 N480 0.985 . S
C494 C495 1.363 . S
C494 C500 1.379 . S
C494 N502 1.356 . S
C495 C494 1.363 . S
C495 C501 1.363 . S
C496 C497 1.363 . S
C496 C501 1.379 . S
C496 N503 1.356 1_545 S
C497 C496 1.363 . S
C497 C500 1.363 . S
N498 C500 1.356 . S
N498 H510 0.984 . S
N498 H511 0.985 . S
N499 C501 1.356 1_565 S
N499 H504 0.984 . S
N499 H505 0.985 . S
C500 C494 1.379 . S
C500 C497 1.363 . S
C500 N498 1.356 . S
C501 C495 1.363 . S
C501 C496 1.379 . S
C501 N499 1.356 1_545 S
N502 C494 1.356 . S
N502 H508 0.984 . S
N502 H509 0.984 . S
N503 C496 1.356 1_565 S
N503 H506 0.984 . S
N503 H507 0.985 . S
H504 N499 0.984 . S
H505 N499 0.985 . S
H506 N503 0.984 . S
H507 N503 0.985 . S
H508 N502 0.984 . S
H509 N502 0.984 . S
H510 N498 0.984 . S
H511 N498 0.985 . S
C512 C513 1.363 . S
C512 C518 1.379 . S
C512 N520 1.356 1_554 S
C513 C512 1.363 . S
C513 C519 1.363 . S
C514 C515 1.363 . S
C514 C519 1.379 . S
C514 N521 1.356 . S
C515 C514 1.363 . S
C515 C518 1.363 . S
N516 C518 1.356 1_556 S
N516 H528 0.984 . S
N516 H529 0.985 . S
N517 C519 1.356 . S
N517 H522 0.984 . S
N517 H523 0.985 . S
C518 C512 1.379 . S
C518 C515 1.363 . S
C518 N516 1.356 1_554 S
C519 C513 1.363 . S
C519 C514 1.379 . S
C519 N517 1.356 . S
N520 C512 1.356 1_556 S
N520 H526 0.984 . S
N520 H527 0.984 . S
N521 C514 1.356 . S
N521 H524 0.984 . S
N521 H525 0.985 . S
H522 N517 0.984 . S
H523 N517 0.985 . S
H524 N521 0.984 . S
H525 N521 0.985 . S
H526 N520 0.984 . S
H527 N520 0.984 . S
H528 N516 0.984 . S
H529 N516 0.985 . S
C530 C531 1.363 . S
C530 C536 1.379 . S
C530 N538 1.356 . S
C531 C530 1.363 . S
C531 C537 1.363 . S
C532 C533 1.363 . S
C532 C537 1.379 . S
C532 N539 1.356 . S
C533 C532 1.363 . S
C533 C536 1.363 . S
N534 C536 1.356 . S
N534 H546 0.984 . S
N534 H547 0.985 . S
N535 C537 1.356 . S
N535 H540 0.984 . S
N535 H541 0.985 . S
C536 C530 1.379 . S
C536 C533 1.363 . S
C536 N534 1.356 . S
C537 C531 1.363 . S
C537 C532 1.379 . S
C537 N535 1.356 . S
N538 C530 1.356 . S
N538 H544 0.984 . S
N538 H545 0.984 . S
N539 C532 1.356 . S
N539 H542 0.984 . S
N539 H543 0.985 . S
H540 N535 0.984 . S
H541 N535 0.985 . S
H542 N539 0.984 . S
H543 N539 0.985 . S
H544 N538 0.984 . S
H545 N538 0.984 . S
H546 N534 0.984 . S
H547 N534 0.985 . S
C548 C549 1.363 1_655 S
C548 C554 1.379 1_655 S
C548 N556 1.356 . S
C549 C548 1.363 1_455 S
C549 C555 1.363 1_556 S
C550 C551 1.363 1_554 S
C550 C555 1.379 . S
C550 N557 1.356 . S
C551 C550 1.363 1_556 S
C551 C554 1.363 . S
N552 C554 1.356 1_655 S
N552 H564 0.984 . S
N552 H565 0.985 1_655 S
N553 C555 1.356 . S
N553 H558 0.984 . S
N553 H559 0.985 . S
C554 C548 1.379 1_455 S
C554 C551 1.363 . S
C554 N552 1.356 1_455 S
C555 C549 1.363 1_554 S
C555 C550 1.379 . S
C555 N553 1.356 . S
N556 C548 1.356 . S
N556 H562 0.984 . S
N556 H563 0.984 . S
N557 C550 1.356 . S
N557 H560 0.984 . S
N557 H561 0.985 . S
H558 N553 0.984 . S
H559 N553 0.985 . S
H560 N557 0.984 . S
H561 N557 0.985 . S
H562 N556 0.984 . S
H563 N556 0.984 . S
H564 N552 0.984 . S
H565 N552 0.985 1_455 S
C566 C567 1.363 . S
C566 C572 1.379 . S
C566 N574 1.356 . S
C567 C566 1.363 . S
C567 C573 1.363 1_554 S
C568 C569 1.373 . S
C568 C573 1.378 1_554 S
C568 N575 1.349 1_554 S
C569 C568 1.373 . S
C569 C572 1.363 . S
N570 C572 1.356 . S
N570 H582 0.984 . S
N570 H583 0.985 . S
N571 C573 1.356 . S
N571 H576 0.984 . S
N571 H577 0.985 . S
C572 C566 1.379 . S
C572 C569 1.363 . S
C572 N570 1.356 . S
C573 C567 1.363 1_556 S
C573 C568 1.378 1_556 S
C573 N571 1.356 . S
N574 C566 1.356 . S
N574 H580 0.984 . S
N574 H581 0.984 . S
N575 C568 1.349 1_556 S
N575 H578 0.984 . S
N575 H579 0.985 . S
H576 N571 0.984 . S
H577 N571 0.985 . S
H578 N575 0.984 . S
H579 N575 0.985 . S
H580 N574 0.984 . S
H581 N574 0.984 . S
H582 N570 0.984 . S
H583 N570 0.985 . S
C584 C585 1.363 . S
C584 C590 1.379 . S
C584 N592 1.356 . S
C585 C584 1.363 . S
C585 C591 1.363 . S
C586 C587 1.363 . S
C586 C591 1.379 . S
C586 N593 1.356 . S
C587 C586 1.363 . S
C587 C590 1.363 . S
N588 C590 1.356 . S
N588 H600 0.984 . S
N588 H601 0.985 . S
N589 C591 1.356 . S
N589 H594 0.984 . S
N589 H595 0.985 . S
C590 C584 1.379 . S
C590 C587 1.363 . S
C590 N588 1.356 . S
C591 C585 1.363 . S
C591 C586 1.379 . S
C591 N589 1.356 . S
N592 C584 1.356 . S
N592 H598 0.984 . S
N592 H599 0.984 . S
N593 C586 1.356 . S
N593 H596 0.984 . S
N593 H597 0.985 . S
H594 N589 0.984 . S
H595 N589 0.985 . S
H596 N593 0.984 . S
H597 N593 0.985 . S
H598 N592 0.984 . S
H599 N592 0.984 . S
H600 N588 0.984 . S
H601 N588 0.985 . S
C602 C603 1.363 . S
C602 C608 1.379 . S
C602 N610 1.356 . S
C603 C602 1.363 . S
C603 C609 1.363 . S
C604 C605 1.363 . S
C604 C609 1.379 . S
C604 N611 1.356 . S
C605 C604 1.363 . S
C605 C608 1.363 . S
N606 C608 1.356 . S
N606 H618 0.984 . S
N606 H619 0.985 . S
N607 C609 1.356 . S
N607 H612 0.984 . S
N607 H613 0.985 . S
C608 C602 1.379 . S
C608 C605 1.363 . S
C608 N606 1.356 . S
C609 C603 1.363 . S
C609 C604 1.379 . S
C609 N607 1.356 . S
N610 C602 1.356 . S
N610 H616 0.984 . S
N610 H617 0.984 . S
N611 C604 1.356 . S
N611 H614 0.984 . S
N611 H615 0.985 . S
H612 N607 0.984 . S
H613 N607 0.985 . S
H614 N611 0.984 . S
H615 N611 0.985 . S
H616 N610 0.984 . S
H617 N610 0.984 . S
H618 N606 0.984 . S
H619 N606 0.985 . S
C189 C9 1.868 . S
C191 C107 1.721 . S
C207 C21 1.568 . S
C209 C141 1.412 . S
C227 C153 1.306 . S
C225 C30 1.325 . S
C243 C43 1.307 . S
C245 C187 1.313 . S
C263 C144 1.416 . S
C261 C4 1.458 . S
C281 C124 1.768 . S
C279 C22 1.912 . S
C299 C171 1.202 . S
C297 C34 1.281 . S
C317 C162 1.336 . S
C315 C48 1.428 . S
C333 C8 1.629 . S
C335 C170 1.506 . S
C353 C132 1.410 . S
C351 C35 1.528 . S
C369 C47 1.579 . S
C371 C108 1.433 . S
C387 C17 1.453 . S
C389 C165 1.423 . S
C407 C123 1.538 . S
C405 C60 1.615 . S
C423 C74 1.789 . S
C425 C145 1.698 . S
C441 C82 1.303 . S
C443 C150 1.212 . S
C459 C100 1.814 . S
C461 C183 1.739 . S
C477 C61 1.805 . S
C479 C128 1.691 1_556 S
C497 C120 1.627 . S
C495 C73 1.672 . S
C515 C174 1.494 . S
C513 C87 1.671 . S
C533 C166 1.263 . S
C531 C95 1.226 . S
C549 C56 1.550 1_455 S
C551 C186 1.572 . S
C569 C129 1.648 . S
C567 C86 1.696 . S
C587 C111 1.433 . S
C585 C99 1.557 . S
C603 C69 1.544 . S
C605 C149 1.448 . S
