# Generated by pormake.
# Topology wbl, (4,4)-cn, num edge types: 1
# Building blocks:
#     Node 0, Type 0, BuildingBlock: MIFKUJ_clean_linker_1, # of connection points: 4
#     Node 1, Type 0, BuildingBlock: MIFKUJ_clean_linker_1, # of connection points: 4
#     Node 2, Type 0, BuildingBlock: MIFKUJ_clean_linker_1, # of connection points: 4
#     Node 3, Type 0, BuildingBlock: MIFKUJ_clean_linker_1, # of connection points: 4
#     Node 4, Type 0, BuildingBlock: MIFKUJ_clean_linker_1, # of connection points: 4
#     Node 5, Type 0, BuildingBlock: MIFKUJ_clean_linker_1, # of connection points: 4
#     Node 6, Type 0, BuildingBlock: MIFKUJ_clean_linker_1, # of connection points: 4
#     Node 7, Type 0, BuildingBlock: MIFKUJ_clean_linker_1, # of connection points: 4
#     Node 8, Type 1, BuildingBlock: NAHDIM_clean_sbu_0, # of connection points: 4
#     Node 9, Type 1, BuildingBlock: NAHDIM_clean_sbu_0, # of connection points: 4
#     Node 10, Type 1, BuildingBlock: NAHDIM_clean_sbu_0, # of connection points: 4
#     Node 11, Type 1, BuildingBlock: NAHDIM_clean_sbu_0, # of connection points: 4
#     Node 12, Type 1, BuildingBlock: NAHDIM_clean_sbu_0, # of connection points: 4
#     Node 13, Type 1, BuildingBlock: NAHDIM_clean_sbu_0, # of connection points: 4
#     Node 14, Type 1, BuildingBlock: NAHDIM_clean_sbu_0, # of connection points: 4
#     Node 15, Type 1, BuildingBlock: NAHDIM_clean_sbu_0, # of connection points: 4
#     Edge 16, Type (0, 1), None
#     Edge 17, Type (0, 1), None
#     Edge 18, Type (0, 1), None
#     Edge 19, Type (0, 1), None
#     Edge 20, Type (0, 1), None
#     Edge 21, Type (0, 1), None
#     Edge 22, Type (0, 1), None
#     Edge 23, Type (0, 1), None
#     Edge 24, Type (0, 1), None
#     Edge 25, Type (0, 1), None
#     Edge 26, Type (0, 1), None
#     Edge 27, Type (0, 1), None
#     Edge 28, Type (0, 1), None
#     Edge 29, Type (0, 1), None
#     Edge 30, Type (0, 1), None
#     Edge 31, Type (0, 1), None
#     Edge 32, Type (0, 1), None
#     Edge 33, Type (0, 1), None
#     Edge 34, Type (0, 1), None
#     Edge 35, Type (0, 1), None
#     Edge 36, Type (0, 1), None
#     Edge 37, Type (0, 1), None
#     Edge 38, Type (0, 1), None
#     Edge 39, Type (0, 1), None
#     Edge 40, Type (0, 1), None
#     Edge 41, Type (0, 1), None
#     Edge 42, Type (0, 1), None
#     Edge 43, Type (0, 1), None
#     Edge 44, Type (0, 1), None
#     Edge 45, Type (0, 1), None
#     Edge 46, Type (0, 1), None
#     Edge 47, Type (0, 1), None
# Relax obj value: 0.141
# Max RMSD: 0.134
# Mean RMSD: 0.128
data_MOF--net-wbl--node1-NAHDIM_clean_sbu_0--node2-MIFKUJ_clean_linker_1--edge1-none
_symmetry_space_group_name_H-M    P1
_symmetry_Int_Tables_number       1
_symmetry_cell_setting            triclinic
loop_
_symmetry_equiv_pos_as_xyz
'x, y, z'
_cell_length_a     25.883469
_cell_length_b     24.722143
_cell_length_c     39.596895
_cell_angle_alpha  90.341501
_cell_angle_beta   90.108927
_cell_angle_gamma 90.00937
loop_
_atom_site_label
_atom_site_type_symbol
_atom_site_fract_x
_atom_site_fract_y
_atom_site_fract_z
_atom_type_partial_charge
H0 H 0.94197 0.13613 0.34803 0.0
H1 H 0.8935 0.19636 0.38549 0.0
H2 H 0.84008 0.0581 0.44176 0.0
H3 H 0.88631 0.99786 0.4031 0.0
H4 H 0.98596 0.99266 0.39629 0.0
H5 H 0.94633 0.12445 0.28495 0.0
H6 H 0.86931 0.16859 0.26084 0.0
H7 H 0.77996 0.02487 0.28172 0.0
H8 H 0.85575 0.98261 0.30669 0.0
H9 H 0.03603 0.85915 0.29107 0.0
H10 H 0.11613 0.8212 0.2672 0.0
H11 H 0.18683 0.9795 0.2738 0.0
H12 H 0.10826 0.01585 0.29848 0.0
H13 H 0.98643 0.99549 0.27095 0.0
H14 H 0.02568 0.85056 0.35104 0.0
H15 H 0.07611 0.79283 0.38871 0.0
H16 H 0.14085 0.93521 0.43648 0.0
H17 H 0.09193 0.99251 0.39779 0.0
C18 C 0.91688 0.0623 0.37221 0.0
C19 C 0.91815 0.11859 0.36753 0.0
C20 C 0.89098 0.15307 0.38924 0.0
C21 C 0.86336 0.1319 0.41662 0.0
C22 C 0.86142 0.07556 0.42098 0.0
C23 C 0.88768 0.04109 0.39887 0.0
C24 C 0.95065 0.02625 0.35185 0.0
C25 C 0.98569 0.99297 0.36888 0.0
C26 C 0.9496 0.02553 0.31618 0.0
C27 C 0.90628 0.05056 0.29776 0.0
C28 C 0.91006 0.10262 0.28399 0.0
C29 C 0.86619 0.12775 0.27037 0.0
C30 C 0.81863 0.10026 0.2695 0.0
C31 C 0.816 0.04715 0.2819 0.0
C32 C 0.85925 0.02281 0.29617 0.0
C33 C 0.06679 0.94006 0.29696 0.0
C34 C 0.06896 0.88538 0.28722 0.0
C35 C 0.11457 0.86384 0.27352 0.0
C36 C 0.15801 0.89715 0.26886 0.0
C37 C 0.15431 0.95248 0.2771 0.0
C38 C 0.10933 0.97354 0.29116 0.0
C39 C 0.02242 0.96277 0.31562 0.0
C40 C 0.98615 0.99464 0.29834 0.0
C41 C 0.02096 0.9606 0.35123 0.0
C42 C 0.05604 0.92577 0.37107 0.0
C43 C 0.05223 0.86924 0.36874 0.0
C44 C 0.08057 0.83631 0.39057 0.0
C45 C 0.1121 0.85952 0.41567 0.0
C46 C 0.11656 0.91615 0.41754 0.0
C47 C 0.08888 0.94894 0.39537 0.0
H48 H 0.01498 0.37991 0.52236 0.0
H49 H 0.96973 0.30158 0.49911 0.0
H50 H 0.82365 0.37138 0.52913 0.0
H51 H 0.86938 0.45033 0.55193 0.0
H52 H 0.0201 0.48983 0.51867 0.0
H53 H 0.96322 0.35432 0.59733 0.0
H54 H 0.90912 0.29719 0.63299 0.0
H55 H 0.83311 0.43973 0.67246 0.0
H56 H 0.88586 0.49643 0.63584 0.0
H57 H 0.04119 0.64443 0.59659 0.0
H58 H 0.08552 0.7047 0.63661 0.0
H59 H 0.13147 0.56612 0.69559 0.0
H60 H 0.08807 0.50648 0.6554 0.0
H61 H 0.98697 0.50486 0.64176 0.0
H62 H 0.03059 0.59991 0.51335 0.0
H63 H 0.09186 0.66876 0.49511 0.0
H64 H 0.2063 0.60464 0.56374 0.0
H65 H 0.14518 0.53468 0.58101 0.0
C66 C 0.9457 0.42055 0.53939 0.0
C67 C 0.97313 0.37923 0.52298 0.0
C68 C 0.94712 0.3342 0.50992 0.0
C69 C 0.8931 0.3297 0.51291 0.0
C70 C 0.86527 0.37338 0.52665 0.0
C71 C 0.89138 0.41852 0.53971 0.0
C72 C 0.97409 0.46088 0.5603 0.0
C73 C 0.01264 0.49332 0.54554 0.0
C74 C 0.9651 0.46505 0.59548 0.0
C75 C 0.92832 0.42968 0.61371 0.0
C76 C 0.9338 0.37315 0.61286 0.0
C77 C 0.90302 0.34054 0.63337 0.0
C78 C 0.8672 0.3641 0.65567 0.0
C79 C 0.86065 0.4205 0.65568 0.0
C80 C 0.89075 0.45293 0.63478 0.0
C81 C 0.06144 0.57095 0.62301 0.0
C82 C 0.06144 0.62713 0.61792 0.0
C83 C 0.0866 0.66152 0.64087 0.0
C84 C 0.11167 0.64027 0.66942 0.0
C85 C 0.1123 0.58393 0.674 0.0
C86 C 0.08744 0.54971 0.65107 0.0
C87 C 0.03229 0.53395 0.6003 0.0
C88 C 0.99388 0.50186 0.61478 0.0
C89 C 0.04227 0.5295 0.56525 0.0
C90 C 0.08285 0.56299 0.54912 0.0
C91 C 0.06939 0.59959 0.52367 0.0
C92 C 0.10454 0.6391 0.51337 0.0
C93 C 0.15371 0.64292 0.52852 0.0
C94 C 0.16858 0.60326 0.55188 0.0
C95 C 0.1336 0.56333 0.56184 0.0
H96 H 0.45667 0.64837 0.8505 0.0
H97 H 0.40607 0.70386 0.88965 0.0
H98 H 0.3384 0.5591 0.93123 0.0
H99 H 0.38716 0.50406 0.89082 0.0
H100 H 0.49308 0.50081 0.88951 0.0
H101 H 0.44357 0.64577 0.79123 0.0
H102 H 0.36224 0.68592 0.77115 0.0
H103 H 0.29333 0.52651 0.76814 0.0
H104 H 0.37319 0.48777 0.78941 0.0
H105 H 0.5432 0.36715 0.79263 0.0
H106 H 0.62166 0.32595 0.7691 0.0
H107 H 0.68656 0.48551 0.75533 0.0
H108 H 0.60937 0.5257 0.77987 0.0
H109 H 0.49371 0.51088 0.76435 0.0
H110 H 0.51116 0.36285 0.84998 0.0
H111 H 0.55547 0.30066 0.88808 0.0
H112 H 0.65565 0.43083 0.92086 0.0
H113 H 0.61189 0.4923 0.88187 0.0
C114 C 0.42461 0.57219 0.86708 0.0
C115 C 0.42936 0.62875 0.86707 0.0
C116 C 0.40089 0.66038 0.88974 0.0
C117 C 0.36845 0.63577 0.91352 0.0
C118 C 0.36331 0.57916 0.91326 0.0
C119 C 0.39097 0.54769 0.89014 0.0
C120 C 0.4591 0.5384 0.84589 0.0
C121 C 0.49322 0.50318 0.86214 0.0
C122 C 0.458 0.53979 0.81023 0.0
C123 C 0.41368 0.56407 0.79248 0.0
C124 C 0.41081 0.61976 0.78608 0.0
C125 C 0.36451 0.64253 0.77447 0.0
C126 C 0.32112 0.60952 0.76853 0.0
C127 C 0.32577 0.55328 0.7727 0.0
C128 C 0.37147 0.53089 0.78477 0.0
C129 C 0.5712 0.44936 0.78873 0.0
C130 C 0.57443 0.39303 0.78448 0.0
C131 C 0.61907 0.3696 0.77079 0.0
C132 C 0.66067 0.40238 0.76082 0.0
C133 C 0.6555 0.45895 0.76302 0.0
C134 C 0.61129 0.48214 0.77693 0.0
C135 C 0.52896 0.4748 0.8082 0.0
C136 C 0.49384 0.50902 0.79171 0.0
C137 C 0.52712 0.47045 0.8437 0.0
C138 C 0.55918 0.43169 0.86261 0.0
C139 C 0.5439 0.37737 0.8645 0.0
C140 C 0.56898 0.34203 0.88649 0.0
C141 C 0.60883 0.36091 0.9076 0.0
C142 C 0.62494 0.41511 0.90497 0.0
C143 C 0.60025 0.45022 0.88263 0.0
H144 H 0.51265 0.87262 0.02908 0.0
H145 H 0.46966 0.79223 0.00711 0.0
H146 H 0.3212 0.8622 0.03148 0.0
H147 H 0.36476 0.9436 0.05289 0.0
H148 H 0.51567 0.97797 0.0162 0.0
H149 H 0.44823 0.86494 0.10919 0.0
H150 H 0.39515 0.82722 0.15472 0.0
H151 H 0.33265 0.9859 0.17505 0.0
H152 H 0.38322 0.02287 0.12865 0.0
H153 H 0.50954 0.14541 0.10326 0.0
H154 H 0.55202 0.20605 0.14389 0.0
H155 H 0.6614 0.07955 0.16772 0.0
H156 H 0.61788 0.01925 0.12776 0.0
H157 H 0.48431 0.02167 0.13683 0.0
H158 H 0.51834 0.10154 0.01114 0.0
H159 H 0.57697 0.17129 0.99075 0.0
H160 H 0.70302 0.09631 0.04493 0.0
H161 H 0.644 0.0258 0.06449 0.0
C162 C 0.44207 0.91386 0.04312 0.0
C163 C 0.47081 0.87125 0.02909 0.0
C164 C 0.44608 0.8251 0.01667 0.0
C165 C 0.39197 0.82048 0.01794 0.0
C166 C 0.36294 0.8644 0.03029 0.0
C167 C 0.38782 0.9108 0.0427 0.0
C168 C 0.46957 0.95913 0.0602 0.0
C169 C 0.50861 0.98719 0.0426 0.0
C170 C 0.45978 0.97292 0.0944 0.0
C171 C 0.41974 0.94679 0.11552 0.0
C172 C 0.42138 0.8911 0.12242 0.0
C173 C 0.39129 0.86966 0.14851 0.0
C174 C 0.36053 0.90401 0.16847 0.0
C175 C 0.35645 0.95881 0.16011 0.0
C176 C 0.38523 0.97985 0.13359 0.0
C177 C 0.56101 0.07824 0.11244 0.0
C178 C 0.54342 0.13144 0.11674 0.0
C179 C 0.56772 0.16592 0.13997 0.0
C180 C 0.60994 0.14755 0.15919 0.0
C181 C 0.62897 0.09502 0.15339 0.0
C182 C 0.60435 0.06052 0.13047 0.0
C183 C 0.5299 0.03868 0.09317 0.0
C184 C 0.49052 0.01214 0.11033 0.0
C185 C 0.5388 0.0269 0.05884 0.0
C186 C 0.57674 0.05909 0.03965 0.0
C187 C 0.55897 0.09906 0.01759 0.0
C188 C 0.59258 0.13915 0.00619 0.0
C189 C 0.64451 0.14009 0.01688 0.0
C190 C 0.66319 0.09713 0.03654 0.0
C191 C 0.62952 0.0568 0.04774 0.0
H192 H 0.97605 0.61494 0.88124 0.0
H193 H 0.01519 0.67608 0.84047 0.0
H194 H 0.16102 0.59264 0.85185 0.0
H195 H 0.1212 0.53156 0.89287 0.0
H196 H 0.98 0.49716 0.86623 0.0
H197 H 0.04833 0.63128 0.94955 0.0
H198 H 0.12641 0.67299 0.97343 0.0
H199 H 0.1775 0.51587 0.00728 0.0
H200 H 0.10087 0.47465 0.9827 0.0
H201 H 0.93818 0.34632 0.95858 0.0
H202 H 0.85784 0.30815 0.98114 0.0
H203 H 0.80359 0.46993 0.00339 0.0
H204 H 0.88209 0.50725 0.97938 0.0
H205 H -0.00259 0.48394 0.99063 0.0
H206 H 0.96127 0.34806 0.90161 0.0
H207 H 0.9118 0.2917 0.86214 0.0
H208 H 0.82409 0.4319 0.8318 0.0
H209 H 0.87171 0.48742 0.8728 0.0
C210 C 0.04584 0.56894 0.88997 0.0
C211 C 0.01672 0.61055 0.87536 0.0
C212 C 0.03913 0.64539 0.85204 0.0
C213 C 0.09104 0.63886 0.84263 0.0
C214 C 0.12082 0.59854 0.85846 0.0
C215 C 0.09831 0.56375 0.88197 0.0
C216 C 0.01907 0.52778 0.91034 0.0
C217 C 0.98396 0.49411 0.89346 0.0
C218 C 0.0265 0.52195 0.94551 0.0
C219 C 0.0693 0.5496 0.96366 0.0
C220 C 0.07638 0.60595 0.96219 0.0
C221 C 0.12079 0.62982 0.97608 0.0
C222 C 0.15847 0.59767 0.99188 0.0
C223 C 0.14955 0.54183 0.99503 0.0
C224 C 0.10552 0.51813 0.98108 0.0
C225 C 0.91517 0.42963 0.96631 0.0
C226 C 0.90882 0.37334 0.96828 0.0
C227 C 0.86317 0.3516 0.9815 0.0
C228 C 0.8239 0.38604 0.99345 0.0
C229 C 0.83267 0.44217 0.99404 0.0
C230 C 0.8777 0.46369 0.98044 0.0
C231 C 0.9571 0.45458 0.94651 0.0
C232 C 0.99438 0.48615 0.96335 0.0
C233 C 0.95382 0.45672 0.91095 0.0
C234 C 0.91895 0.42151 0.89096 0.0
C235 C 0.92969 0.36608 0.88768 0.0
C236 C 0.90186 0.33407 0.86482 0.0
C237 C 0.86427 0.35754 0.84394 0.0
C238 C 0.85299 0.41287 0.8476 0.0
C239 C 0.87991 0.44452 0.87108 0.0
H240 H 0.51128 0.62136 0.23515 0.0
H241 H 0.46709 0.7006 0.25789 0.0
H242 H 0.31998 0.63176 0.22875 0.0
H243 H 0.36464 0.55188 0.20646 0.0
H244 H 0.51578 0.51212 0.23975 0.0
H245 H 0.45863 0.6457 0.16003 0.0
H246 H 0.40536 0.70243 0.12354 0.0
H247 H 0.32786 0.55977 0.08529 0.0
H248 H 0.37986 0.50347 0.12275 0.0
H249 H 0.53542 0.3558 0.16214 0.0
H250 H 0.58128 0.29568 0.12284 0.0
H251 H 0.6296 0.43469 0.06513 0.0
H252 H 0.58435 0.49404 0.10444 0.0
H253 H 0.48113 0.4942 0.11687 0.0
H254 H 0.52692 0.39985 0.2447 0.0
H255 H 0.58907 0.33103 0.26183 0.0
H256 H 0.70232 0.39929 0.19419 0.0
H257 H 0.64029 0.46913 0.17803 0.0
C258 C 0.44139 0.58112 0.21859 0.0
C259 C 0.46943 0.62246 0.23462 0.0
C260 C 0.44404 0.66801 0.24738 0.0
C261 C 0.39005 0.673 0.24447 0.0
C262 C 0.3616 0.62937 0.23114 0.0
C263 C 0.3871 0.58371 0.21837 0.0
C264 C 0.46917 0.54007 0.19799 0.0
C265 C 0.5079 0.508 0.21295 0.0
C266 C 0.45966 0.53505 0.16286 0.0
C267 C 0.42298 0.5703 0.14434 0.0
C268 C 0.42902 0.62679 0.14463 0.0
C269 C 0.39869 0.65917 0.12363 0.0
C270 C 0.36274 0.63545 0.10138 0.0
C271 C 0.35548 0.57915 0.10202 0.0
C272 C 0.38517 0.54694 0.1234 0.0
C273 C 0.55647 0.42934 0.13612 0.0
C274 C 0.55639 0.37315 0.14118 0.0
C275 C 0.58251 0.33889 0.1187 0.0
C276 C 0.60878 0.36033 0.09073 0.0
C277 C 0.60959 0.41672 0.08628 0.0
C278 C 0.58361 0.45078 0.10868 0.0
C279 C 0.52692 0.46625 0.15851 0.0
C280 C 0.48822 0.49778 0.14382 0.0
C281 C 0.53738 0.47157 0.19345 0.0
C282 C 0.57856 0.43881 0.20955 0.0
C283 C 0.56568 0.40112 0.23444 0.0
C284 C 0.60132 0.36161 0.24408 0.0
C285 C 0.65037 0.35893 0.22878 0.0
C286 C 0.66471 0.39977 0.20612 0.0
C287 C 0.62924 0.43969 0.19684 0.0
H288 H 0.44325 0.86607 0.40792 0.0
H289 H 0.39366 0.80654 0.37052 0.0
H290 H 0.34086 0.94562 0.31468 0.0
H291 H 0.3882 0.00519 0.35332 0.0
H292 H 0.48821 0.00905 0.36001 0.0
H293 H 0.4483 0.87767 0.47104 0.0
H294 H 0.37106 0.83317 0.49439 0.0
H295 H 0.28189 0.97713 0.47368 0.0
H296 H 0.35793 0.01978 0.44946 0.0
H297 H 0.53753 0.14301 0.46541 0.0
H298 H 0.61727 0.18164 0.48965 0.0
H299 H 0.68925 0.02403 0.48312 0.0
H300 H 0.61109 0.98704 0.45805 0.0
H301 H 0.48855 0.007 0.48535 0.0
H302 H 0.5292 0.15114 0.40531 0.0
H303 H 0.57914 0.20833 0.36718 0.0
H304 H 0.64171 0.06535 0.31909 0.0
H305 H 0.59349 0.00853 0.35832 0.0
C306 C 0.41852 0.94027 0.38399 0.0
C307 C 0.41934 0.88395 0.38853 0.0
C308 C 0.39153 0.84987 0.36685 0.0
C309 C 0.36371 0.87146 0.33962 0.0
C310 C 0.36232 0.92784 0.33535 0.0
C311 C 0.38921 0.96192 0.35745 0.0
C312 C 0.45273 0.97591 0.40441 0.0
C313 C 0.48799 0.00886 0.38742 0.0
C314 C 0.45171 0.97676 0.44008 0.0
C315 C 0.40839 0.95174 0.4584 0.0
C316 C 0.41204 0.8995 0.47191 0.0
C317 C 0.36803 0.87415 0.48508 0.0
C318 C 0.32044 0.90157 0.48573 0.0
C319 C 0.31794 0.95488 0.47364 0.0
C320 C 0.36135 0.97946 0.45983 0.0
C321 C 0.56897 0.06241 0.45952 0.0
C322 C 0.57067 0.11708 0.46935 0.0
C323 C 0.61607 0.13901 0.48326 0.0
C324 C 0.65976 0.10609 0.48808 0.0
C325 C 0.65652 0.05076 0.47973 0.0
C326 C 0.61178 0.02933 0.46543 0.0
C327 C 0.52476 0.03933 0.44073 0.0
C328 C 0.48834 0.00766 0.45797 0.0
C329 C 0.52343 0.04113 0.40509 0.0
C330 C 0.55864 0.07562 0.38521 0.0
C331 C 0.55529 0.13219 0.38749 0.0
C332 C 0.58331 0.16482 0.36538 0.0
C333 C 0.61394 0.14126 0.34003 0.0
C334 C 0.61805 0.08462 0.33823 0.0
C335 C 0.59079 0.05212 0.36071 0.0
H336 H 0.01415 0.12736 0.72772 0.0
H337 H 0.96978 0.20683 0.74964 0.0
H338 H 0.82266 0.13537 0.72307 0.0
H339 H 0.86762 0.05483 0.70176 0.0
H340 H 0.01841 0.02174 0.73949 0.0
H341 H 0.9508 0.13659 0.64724 0.0
H342 H 0.89728 0.17496 0.60202 0.0
H343 H 0.83741 0.0159 0.57927 0.0
H344 H 0.88841 0.97822 0.62536 0.0
H345 H 0.0189 0.85517 0.65532 0.0
H346 H 0.06111 0.79421 0.61484 0.0
H347 H 0.16175 0.92472 0.5843 0.0
H348 H 0.11841 0.98525 0.62407 0.0
H349 H 0.98954 0.98122 0.6181 0.0
H350 H 0.0238 0.90295 0.74648 0.0
H351 H 0.08252 0.83382 0.76765 0.0
H352 H 0.20681 0.90306 0.70922 0.0
H353 H 0.14782 0.97311 0.68893 0.0
C354 C 0.94436 0.08545 0.71259 0.0
C355 C 0.9723 0.12816 0.72725 0.0
C356 C 0.94678 0.1738 0.73963 0.0
C357 C 0.89266 0.17778 0.73767 0.0
C358 C 0.86439 0.13366 0.72477 0.0
C359 C 0.89007 0.08775 0.71244 0.0
C360 C 0.97274 0.04111 0.69529 0.0
C361 C 0.01187 0.01312 0.71294 0.0
C362 C 0.96376 0.02835 0.66083 0.0
C363 C 0.92365 0.05447 0.63968 0.0
C364 C 0.92445 0.11041 0.63353 0.0
C365 C 0.89411 0.13224 0.60762 0.0
C366 C 0.86392 0.09805 0.58709 0.0
C367 C 0.86074 0.04289 0.59466 0.0
C368 C 0.88978 0.02143 0.62099 0.0
C369 C 0.06592 0.92436 0.64265 0.0
C370 C 0.05085 0.87003 0.64036 0.0
C371 C 0.07497 0.83536 0.61723 0.0
C372 C 0.11461 0.85466 0.59622 0.0
C373 C 0.13132 0.90851 0.60003 0.0
C374 C 0.10678 0.94317 0.62279 0.0
C375 C 0.03458 0.96346 0.662 0.0
C376 C 0.99526 0.99009 0.64474 0.0
C377 C 0.04285 0.97432 0.69654 0.0
C378 C 0.08126 0.94246 0.71572 0.0
C379 C 0.06411 0.90436 0.73919 0.0
C380 C 0.09778 0.86461 0.75107 0.0
C381 C 0.14915 0.86214 0.73947 0.0
C382 C 0.16738 0.90339 0.71832 0.0
C383 C 0.1337 0.94342 0.70668 0.0
C384 C 0.20896 0.62029 0.00249 0.0
O385 O 0.24651 0.58713 0.01078 0.0
O386 O 0.32029 0.64553 0.04858 0.0
Zn387 Zn 0.29539 0.68405 0.00677 0.0
O388 O 0.32982 0.64659 0.96748 0.0
C389 C 0.36715 0.76829 0.00905 0.0
O390 O 0.39608 0.72531 0.00405 0.0
O391 O 0.21904 0.67055 0.00028 0.0
C392 C 0.34226 0.66843 0.9397 0.0
O393 O 0.33385 0.72029 0.9352 0.0
C394 C 0.33664 0.66832 0.07543 0.0
O395 O 0.33576 0.7213 0.07797 0.0
O396 O 0.3183 0.76234 0.01003 0.0
C397 C 0.20832 0.87535 0.25738 0.0
O398 O 0.24685 0.90898 0.25289 0.0
O399 O 0.31839 0.83839 0.20284 0.0
Zn400 Zn 0.29396 0.81022 0.24813 0.0
O401 O 0.3299 0.85243 0.28507 0.0
C402 C 0.36511 0.72579 0.25153 0.0
O403 O 0.39407 0.76908 0.25526 0.0
O404 O 0.2172 0.82479 0.25496 0.0
C405 C 0.33803 0.83561 0.31485 0.0
O406 O 0.32462 0.78613 0.32299 0.0
C407 C 0.33831 0.88517 0.20044 0.0
O408 O 0.34251 0.91592 0.22744 0.0
O409 O 0.31633 0.73178 0.24941 0.0
C410 C 0.27253 0.87526 0.49745 0.0
O411 O 0.23205 0.9054 0.50439 0.0
O412 O 0.16928 0.84012 0.54881 0.0
Zn413 Zn 0.19201 0.80638 0.50488 0.0
O414 O 0.1541 0.84616 0.46834 0.0
C415 C 0.18595 0.69175 0.52338 0.0
O416 O 0.2239 0.70302 0.54436 0.0
O417 O 0.26729 0.82403 0.49744 0.0
C418 C 0.1386 0.8253 0.44075 0.0
O419 O 0.14539 0.77336 0.43516 0.0
C420 C 0.13514 0.82084 0.56839 0.0
O421 O 0.11388 0.77393 0.56115 0.0
O422 O 0.17024 0.7281 0.50331 0.0
C423 C 0.26983 0.63271 0.76082 0.0
O424 O 0.23022 0.60005 0.7567 0.0
O425 O 0.15342 0.6561 0.72215 0.0
Zn426 Zn 0.1846 0.69637 0.76169 0.0
O427 O 0.1575 0.66088 0.80352 0.0
C428 C 0.18077 0.81329 0.74587 0.0
O429 O 0.22559 0.80667 0.73089 0.0
O430 O 0.26141 0.68339 0.76233 0.0
C431 C 0.11268 0.67123 0.81474 0.0
O432 O 0.08408 0.70724 0.79915 0.0
C433 C 0.1356 0.67624 0.69505 0.0
O434 O 0.13681 0.72887 0.69074 0.0
O435 O 0.16013 0.77354 0.76086 0.0
C436 C 0.70986 0.12826 0.49987 0.0
O437 O 0.74834 0.0948 0.50498 0.0
O438 O 0.82067 0.16414 0.55355 0.0
Zn439 Zn 0.79567 0.19333 0.50857 0.0
O440 O 0.83069 0.15136 0.47129 0.0
C441 C 0.86754 0.2773 0.50548 0.0
O442 O 0.89605 0.23381 0.50127 0.0
O443 O 0.71873 0.17889 0.50184 0.0
C444 C 0.83851 0.16811 0.44148 0.0
O445 O 0.82549 0.21773 0.43338 0.0
C446 C 0.84136 0.11764 0.55536 0.0
O447 O 0.84586 0.08784 0.52797 0.0
O448 O 0.81873 0.2717 0.50775 0.0
C449 C 0.71103 0.37882 0.75101 0.0
O450 O 0.75034 0.41119 0.74544 0.0
O451 O 0.82399 0.35291 0.70797 0.0
Zn452 Zn 0.79568 0.31339 0.74831 0.0
O453 O 0.8269 0.34903 0.78947 0.0
C454 C 0.86713 0.2296 0.74638 0.0
O455 O 0.89556 0.27278 0.75204 0.0
O456 O 0.71926 0.32807 0.75189 0.0
C457 C 0.83975 0.32568 0.81672 0.0
O458 O 0.83427 0.27307 0.81947 0.0
C459 C 0.84013 0.33083 0.68089 0.0
O460 O 0.83738 0.27807 0.67725 0.0
O461 O 0.81828 0.23511 0.74474 0.0
C462 C 0.77202 0.36522 0.002 0.0
O463 O 0.73509 0.39969 0.00951 0.0
O464 O 0.65356 0.34531 0.03918 0.0
Zn465 Zn 0.68272 0.30644 -0.00136 0.0
O466 O 0.65569 0.34662 0.95839 0.0
C467 C 0.67651 0.18887 0.01116 0.0
O468 O 0.7226 0.19331 0.02486 0.0
O469 O 0.76003 0.3158 0.99739 0.0
C470 C 0.63079 0.32564 0.93397 0.0
O471 O 0.62124 0.27345 0.93393 0.0
C472 C 0.63324 0.32457 0.06527 0.0
O473 O 0.63109 0.27172 0.06817 0.0
O474 O 0.65563 0.2302 0.99804 0.0
C475 C 0.77084 0.12633 0.25726 0.0
O476 O 0.73054 0.09601 0.25004 0.0
O477 O 0.66671 0.16172 0.20578 0.0
Zn478 Zn 0.68999 0.19475 0.24992 0.0
O479 O 0.65289 0.15448 0.28646 0.0
C480 C 0.68299 0.31014 0.23294 0.0
O481 O 0.72089 0.3002 0.21176 0.0
O482 O 0.7654 0.17753 0.25729 0.0
C483 C 0.63978 0.17516 0.31459 0.0
O484 O 0.6485 0.22672 0.32047 0.0
C485 C 0.63091 0.18067 0.18729 0.0
O486 O 0.60853 0.22638 0.19592 0.0
O487 O 0.66773 0.27276 0.25236 0.0
loop_
_geom_bond_atom_site_label_1
_geom_bond_atom_site_label_2
_geom_bond_distance
_geom_bond_site_symmetry_2
_ccdc_geom_bond_type
H0 C19 0.949 . S
H1 C20 0.950 . S
H2 C22 0.950 . S
H3 C23 0.950 . S
H4 C25 0.950 . S
H5 C28 0.950 . S
H6 C29 0.950 . S
H7 C31 0.951 . S
H8 C32 0.949 1_565 S
H9 C34 0.949 . S
H10 C35 0.950 . S
H11 C37 0.950 . S
H12 C38 0.950 . S
H13 C40 0.950 . S
H14 C43 0.950 . S
H15 C44 0.950 . S
H16 C46 0.951 . S
H17 C47 0.949 1_545 S
C18 C19 1.376 . S
C18 C23 1.386 . S
C18 C24 1.483 . S
C19 H0 0.949 . S
C19 C18 1.376 . S
C19 C20 1.397 . S
C20 H1 0.950 . S
C20 C19 1.397 . S
C20 C21 1.391 . S
C21 C20 1.391 . S
C21 C22 1.405 . S
C22 H2 0.950 . S
C22 C21 1.405 . S
C22 C23 1.367 . S
C23 H3 0.950 . S
C23 C18 1.386 . S
C23 C22 1.367 . S
C24 C18 1.483 . S
C24 C25 1.382 1_655 S
C24 C26 1.403 . S
C25 H4 0.950 . S
C25 C24 1.382 1_455 S
C25 C41 1.411 1_545 S
C26 C24 1.403 . S
C26 C27 1.489 . S
C26 C40 1.411 1_545 S
C27 C26 1.489 . S
C27 C28 1.383 . S
C27 C32 1.382 . S
C28 H5 0.950 . S
C28 C27 1.383 . S
C28 C29 1.395 . S
C29 H6 0.950 . S
C29 C28 1.395 . S
C29 C30 1.288 . S
C30 C29 1.288 . S
C30 C31 1.392 . S
C31 H7 0.951 . S
C31 C30 1.392 . S
C31 C32 1.392 . S
C32 H8 0.949 1_545 S
C32 C27 1.382 . S
C32 C31 1.392 . S
C33 C34 1.376 . S
C33 C38 1.386 . S
C33 C39 1.483 . S
C34 H9 0.949 . S
C34 C33 1.376 . S
C34 C35 1.397 . S
C35 H10 0.950 . S
C35 C34 1.397 . S
C35 C36 1.391 . S
C36 C35 1.391 . S
C36 C37 1.405 . S
C37 H11 0.950 . S
C37 C36 1.405 . S
C37 C38 1.367 . S
C38 H12 0.950 . S
C38 C33 1.386 . S
C38 C37 1.367 . S
C39 C33 1.483 . S
C39 C40 1.382 1_455 S
C39 C41 1.403 . S
C40 H13 0.950 . S
C40 C26 1.411 1_565 S
C40 C39 1.382 1_655 S
C41 C25 1.411 1_565 S
C41 C39 1.403 . S
C41 C42 1.489 . S
C42 C41 1.489 . S
C42 C43 1.383 . S
C42 C47 1.382 . S
C43 H14 0.950 . S
C43 C42 1.383 . S
C43 C44 1.395 . S
C44 H15 0.950 . S
C44 C43 1.395 . S
C44 C45 1.288 . S
C45 C44 1.288 . S
C45 C46 1.392 . S
C46 H16 0.951 . S
C46 C45 1.392 . S
C46 C47 1.392 . S
C47 H17 0.949 1_565 S
C47 C42 1.382 . S
C47 C46 1.392 . S
H48 C67 0.949 1_455 S
H49 C68 0.950 . S
H50 C70 0.950 . S
H51 C71 0.950 . S
H52 C73 0.950 . S
H53 C76 0.950 . S
H54 C77 0.950 . S
H55 C79 0.951 . S
H56 C80 0.949 . S
H57 C82 0.949 1_655 S
H58 C83 0.950 . S
H59 C85 0.950 . S
H60 C86 0.950 . S
H61 C88 0.950 . S
H62 C91 0.950 . S
H63 C92 0.950 . S
H64 C94 0.951 . S
H65 C95 0.949 . S
C66 C67 1.376 . S
C66 C71 1.386 . S
C66 C72 1.483 . S
C67 H48 0.949 1_655 S
C67 C66 1.376 . S
C67 C68 1.397 . S
C68 H49 0.950 . S
C68 C67 1.397 . S
C68 C69 1.391 . S
C69 C68 1.391 . S
C69 C70 1.405 . S
C70 H50 0.950 . S
C70 C69 1.405 . S
C70 C71 1.367 . S
C71 H51 0.950 . S
C71 C66 1.386 . S
C71 C70 1.367 . S
C72 C66 1.483 . S
C72 C73 1.382 1_655 S
C72 C74 1.403 . S
C73 H52 0.950 . S
C73 C72 1.382 1_455 S
C73 C89 1.411 . S
C74 C72 1.403 . S
C74 C75 1.489 . S
C74 C88 1.411 . S
C75 C74 1.489 . S
C75 C76 1.383 . S
C75 C80 1.382 . S
C76 H53 0.950 . S
C76 C75 1.383 . S
C76 C77 1.395 . S
C77 H54 0.950 . S
C77 C76 1.395 . S
C77 C78 1.288 . S
C78 C77 1.288 . S
C78 C79 1.392 . S
C79 H55 0.951 . S
C79 C78 1.392 . S
C79 C80 1.392 . S
C80 H56 0.949 . S
C80 C75 1.382 . S
C80 C79 1.392 . S
C81 C82 1.376 . S
C81 C86 1.386 . S
C81 C87 1.483 . S
C82 H57 0.949 1_455 S
C82 C81 1.376 . S
C82 C83 1.397 . S
C83 H58 0.950 . S
C83 C82 1.397 . S
C83 C84 1.391 . S
C84 C83 1.391 . S
C84 C85 1.405 . S
C85 H59 0.950 . S
C85 C84 1.405 . S
C85 C86 1.367 . S
C86 H60 0.950 . S
C86 C81 1.386 . S
C86 C85 1.367 . S
C87 C81 1.483 . S
C87 C88 1.382 1_455 S
C87 C89 1.403 . S
C88 H61 0.950 . S
C88 C74 1.411 . S
C88 C87 1.382 1_655 S
C89 C73 1.411 . S
C89 C87 1.403 . S
C89 C90 1.489 . S
C90 C89 1.489 . S
C90 C91 1.383 . S
C90 C95 1.382 . S
C91 H62 0.950 . S
C91 C90 1.383 . S
C91 C92 1.395 . S
C92 H63 0.950 . S
C92 C91 1.395 . S
C92 C93 1.288 . S
C93 C92 1.288 . S
C93 C94 1.392 . S
C94 H64 0.951 . S
C94 C93 1.392 . S
C94 C95 1.392 . S
C95 H65 0.949 . S
C95 C90 1.382 . S
C95 C94 1.392 . S
H96 C115 0.949 . S
H97 C116 0.950 . S
H98 C118 0.950 . S
H99 C119 0.950 . S
H100 C121 0.950 . S
H101 C124 0.950 . S
H102 C125 0.950 . S
H103 C127 0.951 . S
H104 C128 0.949 . S
H105 C130 0.949 . S
H106 C131 0.950 . S
H107 C133 0.950 . S
H108 C134 0.950 . S
H109 C136 0.950 . S
H110 C139 0.950 . S
H111 C140 0.950 . S
H112 C142 0.951 . S
H113 C143 0.949 . S
C114 C115 1.376 . S
C114 C119 1.386 . S
C114 C120 1.483 . S
C115 H96 0.949 . S
C115 C114 1.376 . S
C115 C116 1.397 . S
C116 H97 0.950 . S
C116 C115 1.397 . S
C116 C117 1.391 . S
C117 C116 1.391 . S
C117 C118 1.405 . S
C118 H98 0.950 . S
C118 C117 1.405 . S
C118 C119 1.367 . S
C119 H99 0.950 . S
C119 C114 1.386 . S
C119 C118 1.367 . S
C120 C114 1.483 . S
C120 C121 1.382 . S
C120 C122 1.403 . S
C121 H100 0.950 . S
C121 C120 1.382 . S
C121 C137 1.411 . S
C122 C120 1.403 . S
C122 C123 1.489 . S
C122 C136 1.411 . S
C123 C122 1.489 . S
C123 C124 1.383 . S
C123 C128 1.382 . S
C124 H101 0.950 . S
C124 C123 1.383 . S
C124 C125 1.395 . S
C125 H102 0.950 . S
C125 C124 1.395 . S
C125 C126 1.288 . S
C126 C125 1.288 . S
C126 C127 1.392 . S
C127 H103 0.951 . S
C127 C126 1.392 . S
C127 C128 1.392 . S
C128 H104 0.949 . S
C128 C123 1.382 . S
C128 C127 1.392 . S
C129 C130 1.376 . S
C129 C134 1.386 . S
C129 C135 1.483 . S
C130 H105 0.949 . S
C130 C129 1.376 . S
C130 C131 1.397 . S
C131 H106 0.950 . S
C131 C130 1.397 . S
C131 C132 1.391 . S
C132 C131 1.391 . S
C132 C133 1.405 . S
C133 H107 0.950 . S
C133 C132 1.405 . S
C133 C134 1.367 . S
C134 H108 0.950 . S
C134 C129 1.386 . S
C134 C133 1.367 . S
C135 C129 1.483 . S
C135 C136 1.382 . S
C135 C137 1.403 . S
C136 H109 0.950 . S
C136 C122 1.411 . S
C136 C135 1.382 . S
C137 C121 1.411 . S
C137 C135 1.403 . S
C137 C138 1.489 . S
C138 C137 1.489 . S
C138 C139 1.383 . S
C138 C143 1.382 . S
C139 H110 0.950 . S
C139 C138 1.383 . S
C139 C140 1.395 . S
C140 H111 0.950 . S
C140 C139 1.395 . S
C140 C141 1.288 . S
C141 C140 1.288 . S
C141 C142 1.392 . S
C142 H112 0.951 . S
C142 C141 1.392 . S
C142 C143 1.392 . S
C143 H113 0.949 . S
C143 C138 1.382 . S
C143 C142 1.392 . S
H144 C163 0.949 . S
H145 C164 0.950 1_556 S
H146 C166 0.950 . S
H147 C167 0.950 . S
H148 C169 0.950 . S
H149 C172 0.950 . S
H150 C173 0.950 . S
H151 C175 0.951 . S
H152 C176 0.949 . S
H153 C178 0.949 . S
H154 C179 0.950 . S
H155 C181 0.950 . S
H156 C182 0.950 . S
H157 C184 0.950 . S
H158 C187 0.950 . S
H159 C188 0.950 . S
H160 C190 0.951 . S
H161 C191 0.949 . S
C162 C163 1.376 . S
C162 C167 1.386 . S
C162 C168 1.483 . S
C163 H144 0.949 . S
C163 C162 1.376 . S
C163 C164 1.397 . S
C164 H145 0.950 1_554 S
C164 C163 1.397 . S
C164 C165 1.391 . S
C165 C164 1.391 . S
C165 C166 1.405 . S
C166 H146 0.950 . S
C166 C165 1.405 . S
C166 C167 1.367 . S
C167 H147 0.950 . S
C167 C162 1.386 . S
C167 C166 1.367 . S
C168 C162 1.483 . S
C168 C169 1.382 . S
C168 C170 1.403 . S
C169 H148 0.950 . S
C169 C168 1.382 . S
C169 C185 1.411 1_565 S
C170 C168 1.403 . S
C170 C171 1.489 . S
C170 C184 1.411 1_565 S
C171 C170 1.489 . S
C171 C172 1.383 . S
C171 C176 1.382 . S
C172 H149 0.950 . S
C172 C171 1.383 . S
C172 C173 1.395 . S
C173 H150 0.950 . S
C173 C172 1.395 . S
C173 C174 1.288 . S
C174 C173 1.288 . S
C174 C175 1.392 . S
C175 H151 0.951 . S
C175 C174 1.392 . S
C175 C176 1.392 . S
C176 H152 0.949 . S
C176 C171 1.382 . S
C176 C175 1.392 . S
C177 C178 1.376 . S
C177 C182 1.386 . S
C177 C183 1.483 . S
C178 H153 0.949 . S
C178 C177 1.376 . S
C178 C179 1.397 . S
C179 H154 0.950 . S
C179 C178 1.397 . S
C179 C180 1.391 . S
C180 C179 1.391 . S
C180 C181 1.405 . S
C181 H155 0.950 . S
C181 C180 1.405 . S
C181 C182 1.367 . S
C182 H156 0.950 . S
C182 C177 1.386 . S
C182 C181 1.367 . S
C183 C177 1.483 . S
C183 C184 1.382 . S
C183 C185 1.403 . S
C184 H157 0.950 . S
C184 C170 1.411 1_545 S
C184 C183 1.382 . S
C185 C169 1.411 1_545 S
C185 C183 1.403 . S
C185 C186 1.489 . S
C186 C185 1.489 . S
C186 C187 1.383 . S
C186 C191 1.382 . S
C187 H158 0.950 . S
C187 C186 1.383 . S
C187 C188 1.395 . S
C188 H159 0.950 . S
C188 C187 1.395 . S
C188 C189 1.293 . S
C189 C188 1.293 . S
C189 C190 1.391 1_554 S
C190 H160 0.951 . S
C190 C189 1.391 1_556 S
C190 C191 1.392 1_556 S
C191 H161 0.949 . S
C191 C186 1.382 . S
C191 C190 1.392 1_554 S
H192 C211 0.949 . S
H193 C212 0.950 . S
H194 C214 0.950 . S
H195 C215 0.950 . S
H196 C217 0.950 . S
H197 C220 0.950 . S
H198 C221 0.950 . S
H199 C223 0.951 . S
H200 C224 0.949 . S
H201 C226 0.949 . S
H202 C227 0.950 . S
H203 C229 0.950 . S
H204 C230 0.950 . S
H205 C232 0.950 . S
H206 C235 0.950 . S
H207 C236 0.950 . S
H208 C238 0.951 . S
H209 C239 0.949 . S
C210 C211 1.376 . S
C210 C215 1.386 . S
C210 C216 1.483 . S
C211 H192 0.949 . S
C211 C210 1.376 . S
C211 C212 1.397 . S
C212 H193 0.950 . S
C212 C211 1.397 . S
C212 C213 1.391 . S
C213 C212 1.391 . S
C213 C214 1.405 . S
C214 H194 0.950 . S
C214 C213 1.405 . S
C214 C215 1.367 . S
C215 H195 0.950 . S
C215 C210 1.386 . S
C215 C214 1.367 . S
C216 C210 1.483 . S
C216 C217 1.382 1_455 S
C216 C218 1.403 . S
C217 H196 0.950 . S
C217 C216 1.382 1_655 S
C217 C233 1.411 . S
C218 C216 1.403 . S
C218 C219 1.489 . S
C218 C232 1.411 . S
C219 C218 1.489 . S
C219 C220 1.383 . S
C219 C224 1.382 . S
C220 H197 0.950 . S
C220 C219 1.383 . S
C220 C221 1.395 . S
C221 H198 0.950 . S
C221 C220 1.395 . S
C221 C222 1.288 1_556 S
C222 C221 1.288 1_554 S
C222 C223 1.392 . S
C223 H199 0.951 . S
C223 C222 1.392 . S
C223 C224 1.392 1_554 S
C224 H200 0.949 . S
C224 C219 1.382 . S
C224 C223 1.392 1_556 S
C225 C226 1.376 . S
C225 C230 1.386 . S
C225 C231 1.483 . S
C226 H201 0.949 . S
C226 C225 1.376 . S
C226 C227 1.397 1_556 S
C227 H202 0.950 . S
C227 C226 1.397 1_554 S
C227 C228 1.391 . S
C228 C227 1.391 . S
C228 C229 1.405 1_554 S
C229 H203 0.950 . S
C229 C228 1.405 1_556 S
C229 C230 1.367 . S
C230 H204 0.950 . S
C230 C225 1.386 . S
C230 C229 1.367 . S
C231 C225 1.483 . S
C231 C232 1.382 1_655 S
C231 C233 1.403 . S
C232 H205 0.950 . S
C232 C218 1.411 . S
C232 C231 1.382 1_455 S
C233 C217 1.411 . S
C233 C231 1.403 . S
C233 C234 1.489 . S
C234 C233 1.489 . S
C234 C235 1.383 . S
C234 C239 1.382 . S
C235 H206 0.950 . S
C235 C234 1.383 . S
C235 C236 1.395 . S
C236 H207 0.950 . S
C236 C235 1.395 . S
C236 C237 1.288 . S
C237 C236 1.288 . S
C237 C238 1.392 . S
C238 H208 0.951 . S
C238 C237 1.392 . S
C238 C239 1.392 . S
C239 H209 0.949 . S
C239 C234 1.382 . S
C239 C238 1.392 . S
H240 C259 0.949 . S
H241 C260 0.950 . S
H242 C262 0.950 . S
H243 C263 0.950 . S
H244 C265 0.950 . S
H245 C268 0.950 . S
H246 C269 0.950 . S
H247 C271 0.951 . S
H248 C272 0.949 . S
H249 C274 0.949 . S
H250 C275 0.950 . S
H251 C277 0.950 . S
H252 C278 0.950 . S
H253 C280 0.950 . S
H254 C283 0.950 . S
H255 C284 0.950 . S
H256 C286 0.951 . S
H257 C287 0.949 . S
C258 C259 1.376 . S
C258 C263 1.386 . S
C258 C264 1.483 . S
C259 H240 0.949 . S
C259 C258 1.376 . S
C259 C260 1.397 . S
C260 H241 0.950 . S
C260 C259 1.397 . S
C260 C261 1.391 . S
C261 C260 1.391 . S
C261 C262 1.405 . S
C262 H242 0.950 . S
C262 C261 1.405 . S
C262 C263 1.367 . S
C263 H243 0.950 . S
C263 C258 1.386 . S
C263 C262 1.367 . S
C264 C258 1.483 . S
C264 C265 1.382 . S
C264 C266 1.403 . S
C265 H244 0.950 . S
C265 C264 1.382 . S
C265 C281 1.411 . S
C266 C264 1.403 . S
C266 C267 1.489 . S
C266 C280 1.411 . S
C267 C266 1.489 . S
C267 C268 1.383 . S
C267 C272 1.382 . S
C268 H245 0.950 . S
C268 C267 1.383 . S
C268 C269 1.395 . S
C269 H246 0.950 . S
C269 C268 1.395 . S
C269 C270 1.288 . S
C270 C269 1.288 . S
C270 C271 1.392 . S
C271 H247 0.951 . S
C271 C270 1.392 . S
C271 C272 1.392 . S
C272 H248 0.949 . S
C272 C267 1.382 . S
C272 C271 1.392 . S
C273 C274 1.376 . S
C273 C278 1.386 . S
C273 C279 1.483 . S
C274 H249 0.949 . S
C274 C273 1.376 . S
C274 C275 1.397 . S
C275 H250 0.950 . S
C275 C274 1.397 . S
C275 C276 1.391 . S
C276 C275 1.391 . S
C276 C277 1.405 . S
C277 H251 0.950 . S
C277 C276 1.405 . S
C277 C278 1.367 . S
C278 H252 0.950 . S
C278 C273 1.386 . S
C278 C277 1.367 . S
C279 C273 1.483 . S
C279 C280 1.382 . S
C279 C281 1.403 . S
C280 H253 0.950 . S
C280 C266 1.411 . S
C280 C279 1.382 . S
C281 C265 1.411 . S
C281 C279 1.403 . S
C281 C282 1.489 . S
C282 C281 1.489 . S
C282 C283 1.383 . S
C282 C287 1.382 . S
C283 H254 0.950 . S
C283 C282 1.383 . S
C283 C284 1.395 . S
C284 H255 0.950 . S
C284 C283 1.395 . S
C284 C285 1.288 . S
C285 C284 1.288 . S
C285 C286 1.392 . S
C286 H256 0.951 . S
C286 C285 1.392 . S
C286 C287 1.392 . S
C287 H257 0.949 . S
C287 C282 1.382 . S
C287 C286 1.392 . S
H288 C307 0.949 . S
H289 C308 0.950 . S
H290 C310 0.950 . S
H291 C311 0.950 . S
H292 C313 0.950 . S
H293 C316 0.950 . S
H294 C317 0.950 . S
H295 C319 0.951 . S
H296 C320 0.949 1_545 S
H297 C322 0.949 . S
H298 C323 0.950 . S
H299 C325 0.950 . S
H300 C326 0.950 . S
H301 C328 0.950 . S
H302 C331 0.950 . S
H303 C332 0.950 . S
H304 C334 0.951 . S
H305 C335 0.949 1_565 S
C306 C307 1.376 . S
C306 C311 1.386 . S
C306 C312 1.483 . S
C307 H288 0.949 . S
C307 C306 1.376 . S
C307 C308 1.397 . S
C308 H289 0.950 . S
C308 C307 1.397 . S
C308 C309 1.391 . S
C309 C308 1.391 . S
C309 C310 1.405 . S
C310 H290 0.950 . S
C310 C309 1.405 . S
C310 C311 1.367 . S
C311 H291 0.950 . S
C311 C306 1.386 . S
C311 C310 1.367 . S
C312 C306 1.483 . S
C312 C313 1.382 . S
C312 C314 1.403 . S
C313 H292 0.950 . S
C313 C312 1.382 . S
C313 C329 1.411 1_565 S
C314 C312 1.403 . S
C314 C315 1.489 . S
C314 C328 1.411 1_565 S
C315 C314 1.489 . S
C315 C316 1.383 . S
C315 C320 1.382 . S
C316 H293 0.950 . S
C316 C315 1.383 . S
C316 C317 1.395 . S
C317 H294 0.950 . S
C317 C316 1.395 . S
C317 C318 1.288 . S
C318 C317 1.288 . S
C318 C319 1.392 . S
C319 H295 0.951 . S
C319 C318 1.392 . S
C319 C320 1.392 . S
C320 H296 0.949 1_565 S
C320 C315 1.382 . S
C320 C319 1.392 . S
C321 C322 1.376 . S
C321 C326 1.386 . S
C321 C327 1.483 . S
C322 H297 0.949 . S
C322 C321 1.376 . S
C322 C323 1.397 . S
C323 H298 0.950 . S
C323 C322 1.397 . S
C323 C324 1.391 . S
C324 C323 1.391 . S
C324 C325 1.405 . S
C325 H299 0.950 . S
C325 C324 1.405 . S
C325 C326 1.367 . S
C326 H300 0.950 . S
C326 C321 1.386 . S
C326 C325 1.367 . S
C327 C321 1.483 . S
C327 C328 1.382 . S
C327 C329 1.403 . S
C328 H301 0.950 . S
C328 C314 1.411 1_545 S
C328 C327 1.382 . S
C329 C313 1.411 1_545 S
C329 C327 1.403 . S
C329 C330 1.489 . S
C330 C329 1.489 . S
C330 C331 1.383 . S
C330 C335 1.382 . S
C331 H302 0.950 . S
C331 C330 1.383 . S
C331 C332 1.395 . S
C332 H303 0.950 . S
C332 C331 1.395 . S
C332 C333 1.288 . S
C333 C332 1.288 . S
C333 C334 1.392 . S
C334 H304 0.951 . S
C334 C333 1.392 . S
C334 C335 1.392 . S
C335 H305 0.949 1_545 S
C335 C330 1.382 . S
C335 C334 1.392 . S
H336 C355 0.949 1_455 S
H337 C356 0.950 . S
H338 C358 0.950 . S
H339 C359 0.950 . S
H340 C361 0.950 . S
H341 C364 0.950 . S
H342 C365 0.950 . S
H343 C367 0.951 . S
H344 C368 0.949 . S
H345 C370 0.949 1_655 S
H346 C371 0.950 . S
H347 C373 0.950 . S
H348 C374 0.950 . S
H349 C376 0.950 . S
H350 C379 0.950 . S
H351 C380 0.950 . S
H352 C382 0.951 . S
H353 C383 0.949 . S
C354 C355 1.376 . S
C354 C359 1.386 . S
C354 C360 1.483 . S
C355 H336 0.949 1_655 S
C355 C354 1.376 . S
C355 C356 1.397 . S
C356 H337 0.950 . S
C356 C355 1.397 . S
C356 C357 1.391 . S
C357 C356 1.391 . S
C357 C358 1.405 . S
C358 H338 0.950 . S
C358 C357 1.405 . S
C358 C359 1.367 . S
C359 H339 0.950 . S
C359 C354 1.386 . S
C359 C358 1.367 . S
C360 C354 1.483 . S
C360 C361 1.382 1_655 S
C360 C362 1.403 . S
C361 H340 0.950 . S
C361 C360 1.382 1_455 S
C361 C377 1.411 1_545 S
C362 C360 1.403 . S
C362 C363 1.489 . S
C362 C376 1.411 1_545 S
C363 C362 1.489 . S
C363 C364 1.383 . S
C363 C368 1.382 . S
C364 H341 0.950 . S
C364 C363 1.383 . S
C364 C365 1.395 . S
C365 H342 0.950 . S
C365 C364 1.395 . S
C365 C366 1.288 . S
C366 C365 1.288 . S
C366 C367 1.392 . S
C367 H343 0.951 . S
C367 C366 1.392 . S
C367 C368 1.392 . S
C368 H344 0.949 . S
C368 C363 1.382 . S
C368 C367 1.392 . S
C369 C370 1.376 . S
C369 C374 1.386 . S
C369 C375 1.483 . S
C370 H345 0.949 1_455 S
C370 C369 1.376 . S
C370 C371 1.397 . S
C371 H346 0.950 . S
C371 C370 1.397 . S
C371 C372 1.391 . S
C372 C371 1.391 . S
C372 C373 1.405 . S
C373 H347 0.950 . S
C373 C372 1.405 . S
C373 C374 1.367 . S
C374 H348 0.950 . S
C374 C369 1.386 . S
C374 C373 1.367 . S
C375 C369 1.483 . S
C375 C376 1.382 1_455 S
C375 C377 1.403 . S
C376 H349 0.950 . S
C376 C362 1.411 1_565 S
C376 C375 1.382 1_655 S
C377 C361 1.411 1_565 S
C377 C375 1.403 . S
C377 C378 1.489 . S
C378 C377 1.489 . S
C378 C379 1.383 . S
C378 C383 1.382 . S
C379 H350 0.950 . S
C379 C378 1.383 . S
C379 C380 1.395 . S
C380 H351 0.950 . S
C380 C379 1.395 . S
C380 C381 1.288 . S
C381 C380 1.288 . S
C381 C382 1.392 . S
C382 H352 0.951 . S
C382 C381 1.392 . S
C382 C383 1.392 . S
C383 H353 0.949 . S
C383 C378 1.382 . S
C383 C382 1.392 . S
C384 O385 1.160 1_556 S
C384 O391 1.185 . S
O385 C384 1.160 1_554 S
O386 Zn387 1.899 . S
O386 C394 1.284 . S
Zn387 O386 1.899 . S
Zn387 O388 2.032 1_554 S
Zn387 O391 2.086 1_554 S
Zn387 O396 1.977 . S
O388 Zn387 2.032 1_556 S
O388 C392 1.278 . S
C389 O390 1.203 . S
C389 O396 1.267 . S
O390 C389 1.203 . S
O391 C384 1.185 . S
O391 Zn387 2.086 1_556 S
C392 O388 1.278 . S
C392 O393 1.211 . S
O393 C392 1.211 . S
C394 O386 1.284 . S
C394 O395 1.273 . S
O395 C394 1.273 . S
O396 Zn387 1.977 . S
O396 C389 1.267 . S
C397 O398 1.160 . S
C397 O404 1.185 . S
O398 C397 1.160 . S
O399 Zn400 1.899 . S
O399 C407 1.284 . S
Zn400 O399 1.899 . S
Zn400 O401 2.032 . S
Zn400 O404 2.086 . S
Zn400 O409 1.977 . S
O401 Zn400 2.032 . S
O401 C405 1.278 . S
C402 O403 1.203 . S
C402 O409 1.267 . S
O403 C402 1.203 . S
O404 C397 1.185 . S
O404 Zn400 2.086 . S
C405 O401 1.278 . S
C405 O406 1.211 . S
O406 C405 1.211 . S
C407 O399 1.284 . S
C407 O408 1.273 . S
O408 C407 1.273 . S
O409 Zn400 1.977 . S
O409 C402 1.267 . S
C410 O411 1.160 . S
C410 O417 1.185 . S
O411 C410 1.160 . S
O412 Zn413 1.899 . S
O412 C420 1.284 . S
Zn413 O412 1.899 . S
Zn413 O414 2.032 . S
Zn413 O417 2.086 . S
Zn413 O422 1.977 . S
O414 Zn413 2.032 . S
O414 C418 1.278 . S
C415 O416 1.203 . S
C415 O422 1.267 . S
O416 C415 1.203 . S
O417 C410 1.185 . S
O417 Zn413 2.086 . S
C418 O414 1.278 . S
C418 O419 1.211 . S
O419 C418 1.211 . S
C420 O412 1.284 . S
C420 O421 1.273 . S
O421 C420 1.273 . S
O422 Zn413 1.977 . S
O422 C415 1.267 . S
C423 O424 1.160 . S
C423 O430 1.185 . S
O424 C423 1.160 . S
O425 Zn426 1.899 . S
O425 C433 1.284 . S
Zn426 O425 1.899 . S
Zn426 O427 2.032 . S
Zn426 O430 2.086 . S
Zn426 O435 1.977 . S
O427 Zn426 2.032 . S
O427 C431 1.278 . S
C428 O429 1.203 . S
C428 O435 1.267 . S
O429 C428 1.203 . S
O430 C423 1.185 . S
O430 Zn426 2.086 . S
C431 O427 1.278 . S
C431 O432 1.211 . S
O432 C431 1.211 . S
C433 O425 1.284 . S
C433 O434 1.273 . S
O434 C433 1.273 . S
O435 Zn426 1.977 . S
O435 C428 1.267 . S
C436 O437 1.160 . S
C436 O443 1.185 . S
O437 C436 1.160 . S
O438 Zn439 1.899 . S
O438 C446 1.284 . S
Zn439 O438 1.899 . S
Zn439 O440 2.032 . S
Zn439 O443 2.086 . S
Zn439 O448 1.977 . S
O440 Zn439 2.032 . S
O440 C444 1.278 . S
C441 O442 1.203 . S
C441 O448 1.267 . S
O442 C441 1.203 . S
O443 C436 1.185 . S
O443 Zn439 2.086 . S
C444 O440 1.278 . S
C444 O445 1.211 . S
O445 C444 1.211 . S
C446 O438 1.284 . S
C446 O447 1.273 . S
O447 C446 1.273 . S
O448 Zn439 1.977 . S
O448 C441 1.267 . S
C449 O450 1.160 . S
C449 O456 1.185 . S
O450 C449 1.160 . S
O451 Zn452 1.899 . S
O451 C459 1.284 . S
Zn452 O451 1.899 . S
Zn452 O453 2.032 . S
Zn452 O456 2.086 . S
Zn452 O461 1.977 . S
O453 Zn452 2.032 . S
O453 C457 1.278 . S
C454 O455 1.203 . S
C454 O461 1.267 . S
O455 C454 1.203 . S
O456 C449 1.185 . S
O456 Zn452 2.086 . S
C457 O453 1.278 . S
C457 O458 1.211 . S
O458 C457 1.211 . S
C459 O451 1.284 . S
C459 O460 1.273 . S
O460 C459 1.273 . S
O461 Zn452 1.977 . S
O461 C454 1.267 . S
C462 O463 1.160 1_556 S
C462 O469 1.185 . S
O463 C462 1.160 1_554 S
O464 Zn465 1.899 . S
O464 C472 1.284 . S
Zn465 O464 1.899 . S
Zn465 O466 2.032 1_554 S
Zn465 O469 2.086 1_554 S
Zn465 O474 1.977 . S
O466 Zn465 2.032 1_556 S
O466 C470 1.278 . S
C467 O468 1.203 . S
C467 O474 1.267 . S
O468 C467 1.203 . S
O469 C462 1.185 . S
O469 Zn465 2.086 1_556 S
C470 O466 1.278 . S
C470 O471 1.211 . S
O471 C470 1.211 . S
C472 O464 1.284 . S
C472 O473 1.273 . S
O473 C472 1.273 . S
O474 Zn465 1.977 . S
O474 C467 1.267 . S
C475 O476 1.160 . S
C475 O482 1.185 . S
O476 C475 1.160 . S
O477 Zn478 1.899 . S
O477 C485 1.284 . S
Zn478 O477 1.899 . S
Zn478 O479 2.032 . S
Zn478 O482 2.086 . S
Zn478 O487 1.977 . S
O479 Zn478 2.032 . S
O479 C483 1.278 . S
C480 O481 1.203 . S
C480 O487 1.267 . S
O481 C480 1.203 . S
O482 C475 1.185 . S
O482 Zn478 2.086 . S
C483 O479 1.278 . S
C483 O484 1.211 . S
O484 C483 1.211 . S
C485 O477 1.284 . S
C485 O486 1.273 . S
O486 C485 1.273 . S
O487 Zn478 1.977 . S
O487 C480 1.267 . S
C397 C36 1.593 . S
C415 C93 1.907 . S
C423 C126 1.650 . S
C165 C389 1.828 . S
C222 C384 1.652 1_554 S
C261 C402 1.830 . S
C410 C318 1.651 . S
C428 C381 1.907 . S
C132 C449 1.591 . S
C467 C189 1.912 . S
C30 C475 1.649 . S
C441 C69 1.829 . S
C324 C436 1.592 . S
C357 C454 1.830 . S
C462 C228 1.589 1_556 S
C285 C480 1.908 . S
C418 C45 2.092 . S
C433 C84 1.962 . S
C117 C392 2.030 . S
C174 C407 1.838 . S
C213 C431 2.034 . S
C394 C270 1.840 . S
C405 C309 2.036 . S
C420 C372 1.964 . S
C470 C141 2.097 . S
C485 C180 1.964 . S
C21 C444 2.034 . S
C459 C78 1.838 . S
C483 C333 2.090 . S
C366 C446 1.838 . S
C457 C237 2.093 . S
C472 C276 1.960 . S
