# Generated by pormake.
# Topology eea, (3,6)-cn, num edge types: 1
# Building blocks:
#     Node 0, Type 0, BuildingBlock: BETDAH_clean_linker_0, # of connection points: 3
#     Node 1, Type 0, BuildingBlock: BETDAH_clean_linker_0, # of connection points: 3
#     Node 2, Type 0, BuildingBlock: BETDAH_clean_linker_0, # of connection points: 3
#     Node 3, Type 0, BuildingBlock: BETDAH_clean_linker_0, # of connection points: 3
#     Node 4, Type 0, BuildingBlock: BETDAH_clean_linker_0, # of connection points: 3
#     Node 5, Type 0, BuildingBlock: BETDAH_clean_linker_0, # of connection points: 3
#     Node 6, Type 0, BuildingBlock: BETDAH_clean_linker_0, # of connection points: 3
#     Node 7, Type 0, BuildingBlock: BETDAH_clean_linker_0, # of connection points: 3
#     Node 8, Type 0, BuildingBlock: BETDAH_clean_linker_0, # of connection points: 3
#     Node 9, Type 0, BuildingBlock: BETDAH_clean_linker_0, # of connection points: 3
#     Node 10, Type 0, BuildingBlock: BETDAH_clean_linker_0, # of connection points: 3
#     Node 11, Type 0, BuildingBlock: BETDAH_clean_linker_0, # of connection points: 3
#     Node 12, Type 0, BuildingBlock: BETDAH_clean_linker_0, # of connection points: 3
#     Node 13, Type 0, BuildingBlock: BETDAH_clean_linker_0, # of connection points: 3
#     Node 14, Type 0, BuildingBlock: BETDAH_clean_linker_0, # of connection points: 3
#     Node 15, Type 0, BuildingBlock: BETDAH_clean_linker_0, # of connection points: 3
#     Node 16, Type 0, BuildingBlock: BETDAH_clean_linker_0, # of connection points: 3
#     Node 17, Type 0, BuildingBlock: BETDAH_clean_linker_0, # of connection points: 3
#     Node 18, Type 1, BuildingBlock: CUWYAW_clean_sbu_0, # of connection points: 6
#     Node 19, Type 1, BuildingBlock: CUWYAW_clean_sbu_0, # of connection points: 6
#     Node 20, Type 1, BuildingBlock: CUWYAW_clean_sbu_0, # of connection points: 6
#     Node 21, Type 1, BuildingBlock: CUWYAW_clean_sbu_0, # of connection points: 6
#     Node 22, Type 1, BuildingBlock: CUWYAW_clean_sbu_0, # of connection points: 6
#     Node 23, Type 1, BuildingBlock: CUWYAW_clean_sbu_0, # of connection points: 6
#     Node 24, Type 1, BuildingBlock: CUWYAW_clean_sbu_0, # of connection points: 6
#     Node 25, Type 1, BuildingBlock: CUWYAW_clean_sbu_0, # of connection points: 6
#     Node 26, Type 1, BuildingBlock: CUWYAW_clean_sbu_0, # of connection points: 6
#     Edge 27, Type (0, 1), BuildingBlock: OJICUG_clean_linker_0, # of connection points: 2
#     Edge 28, Type (0, 1), BuildingBlock: OJICUG_clean_linker_0, # of connection points: 2
#     Edge 29, Type (0, 1), BuildingBlock: OJICUG_clean_linker_0, # of connection points: 2
#     Edge 30, Type (0, 1), BuildingBlock: OJICUG_clean_linker_0, # of connection points: 2
#     Edge 31, Type (0, 1), BuildingBlock: OJICUG_clean_linker_0, # of connection points: 2
#     Edge 32, Type (0, 1), BuildingBlock: OJICUG_clean_linker_0, # of connection points: 2
#     Edge 33, Type (0, 1), BuildingBlock: OJICUG_clean_linker_0, # of connection points: 2
#     Edge 34, Type (0, 1), BuildingBlock: OJICUG_clean_linker_0, # of connection points: 2
#     Edge 35, Type (0, 1), BuildingBlock: OJICUG_clean_linker_0, # of connection points: 2
#     Edge 36, Type (0, 1), BuildingBlock: OJICUG_clean_linker_0, # of connection points: 2
#     Edge 37, Type (0, 1), BuildingBlock: OJICUG_clean_linker_0, # of connection points: 2
#     Edge 38, Type (0, 1), BuildingBlock: OJICUG_clean_linker_0, # of connection points: 2
#     Edge 39, Type (0, 1), BuildingBlock: OJICUG_clean_linker_0, # of connection points: 2
#     Edge 40, Type (0, 1), BuildingBlock: OJICUG_clean_linker_0, # of connection points: 2
#     Edge 41, Type (0, 1), BuildingBlock: OJICUG_clean_linker_0, # of connection points: 2
#     Edge 42, Type (0, 1), BuildingBlock: OJICUG_clean_linker_0, # of connection points: 2
#     Edge 43, Type (0, 1), BuildingBlock: OJICUG_clean_linker_0, # of connection points: 2
#     Edge 44, Type (0, 1), BuildingBlock: OJICUG_clean_linker_0, # of connection points: 2
#     Edge 45, Type (0, 1), BuildingBlock: OJICUG_clean_linker_0, # of connection points: 2
#     Edge 46, Type (0, 1), BuildingBlock: OJICUG_clean_linker_0, # of connection points: 2
#     Edge 47, Type (0, 1), BuildingBlock: OJICUG_clean_linker_0, # of connection points: 2
#     Edge 48, Type (0, 1), BuildingBlock: OJICUG_clean_linker_0, # of connection points: 2
#     Edge 49, Type (0, 1), BuildingBlock: OJICUG_clean_linker_0, # of connection points: 2
#     Edge 50, Type (0, 1), BuildingBlock: OJICUG_clean_linker_0, # of connection points: 2
#     Edge 51, Type (0, 1), BuildingBlock: OJICUG_clean_linker_0, # of connection points: 2
#     Edge 52, Type (0, 1), BuildingBlock: OJICUG_clean_linker_0, # of connection points: 2
#     Edge 53, Type (0, 1), BuildingBlock: OJICUG_clean_linker_0, # of connection points: 2
#     Edge 54, Type (0, 1), BuildingBlock: OJICUG_clean_linker_0, # of connection points: 2
#     Edge 55, Type (0, 1), BuildingBlock: OJICUG_clean_linker_0, # of connection points: 2
#     Edge 56, Type (0, 1), BuildingBlock: OJICUG_clean_linker_0, # of connection points: 2
#     Edge 57, Type (0, 1), BuildingBlock: OJICUG_clean_linker_0, # of connection points: 2
#     Edge 58, Type (0, 1), BuildingBlock: OJICUG_clean_linker_0, # of connection points: 2
#     Edge 59, Type (0, 1), BuildingBlock: OJICUG_clean_linker_0, # of connection points: 2
#     Edge 60, Type (0, 1), BuildingBlock: OJICUG_clean_linker_0, # of connection points: 2
#     Edge 61, Type (0, 1), BuildingBlock: OJICUG_clean_linker_0, # of connection points: 2
#     Edge 62, Type (0, 1), BuildingBlock: OJICUG_clean_linker_0, # of connection points: 2
#     Edge 63, Type (0, 1), BuildingBlock: OJICUG_clean_linker_0, # of connection points: 2
#     Edge 64, Type (0, 1), BuildingBlock: OJICUG_clean_linker_0, # of connection points: 2
#     Edge 65, Type (0, 1), BuildingBlock: OJICUG_clean_linker_0, # of connection points: 2
#     Edge 66, Type (0, 1), BuildingBlock: OJICUG_clean_linker_0, # of connection points: 2
#     Edge 67, Type (0, 1), BuildingBlock: OJICUG_clean_linker_0, # of connection points: 2
#     Edge 68, Type (0, 1), BuildingBlock: OJICUG_clean_linker_0, # of connection points: 2
#     Edge 69, Type (0, 1), BuildingBlock: OJICUG_clean_linker_0, # of connection points: 2
#     Edge 70, Type (0, 1), BuildingBlock: OJICUG_clean_linker_0, # of connection points: 2
#     Edge 71, Type (0, 1), BuildingBlock: OJICUG_clean_linker_0, # of connection points: 2
#     Edge 72, Type (0, 1), BuildingBlock: OJICUG_clean_linker_0, # of connection points: 2
#     Edge 73, Type (0, 1), BuildingBlock: OJICUG_clean_linker_0, # of connection points: 2
#     Edge 74, Type (0, 1), BuildingBlock: OJICUG_clean_linker_0, # of connection points: 2
#     Edge 75, Type (0, 1), BuildingBlock: OJICUG_clean_linker_0, # of connection points: 2
#     Edge 76, Type (0, 1), BuildingBlock: OJICUG_clean_linker_0, # of connection points: 2
#     Edge 77, Type (0, 1), BuildingBlock: OJICUG_clean_linker_0, # of connection points: 2
#     Edge 78, Type (0, 1), BuildingBlock: OJICUG_clean_linker_0, # of connection points: 2
#     Edge 79, Type (0, 1), BuildingBlock: OJICUG_clean_linker_0, # of connection points: 2
#     Edge 80, Type (0, 1), BuildingBlock: OJICUG_clean_linker_0, # of connection points: 2
# Relax obj value: 0.058
# Max RMSD: 0.225
# Mean RMSD: 0.160
data_MOF--net-eea--node1-CUWYAW_clean_sbu_0--node2-BETDAH_clean_linker_0--edge1-OJICUG_clean_linker_0
_symmetry_space_group_name_H-M    P1
_symmetry_Int_Tables_number       1
_symmetry_cell_setting            triclinic
loop_
_symmetry_equiv_pos_as_xyz
'x, y, z'
_cell_length_a     39.594878
_cell_length_b     39.126825
_cell_length_c     54.787306
_cell_angle_alpha  93.227399
_cell_angle_beta   93.372873
_cell_angle_gamma 120.01608
loop_
_atom_site_label
_atom_site_type_symbol
_atom_site_fract_x
_atom_site_fract_y
_atom_site_fract_z
_atom_type_partial_charge
H0 H 0.23705 0.05676 0.42815 0.0
H1 H 0.26908 0.18003 0.43116 0.0
H2 H 0.23336 0.10898 0.36187 0.0
C3 C 0.24018 0.08206 0.41919 0.0
C4 C 0.23217 0.07815 0.39355 0.0
C5 C 0.2534 0.11865 0.43314 0.0
C6 C 0.25826 0.1514 0.42093 0.0
C7 C 0.25095 0.14779 0.39526 0.0
C8 C 0.23792 0.11126 0.38174 0.0
N9 N 0.26173 0.18166 0.38249 0.0
C10 C 0.24343 0.20401 0.38399 0.0
H11 H 0.95811 0.21325 0.43731 0.0
H12 H 0.85614 0.0977 0.41644 0.0
H13 H 0.93839 0.15576 0.36438 0.0
C14 C 0.94086 0.18782 0.42393 0.0
C15 C 0.95308 0.18839 0.40026 0.0
C16 C 0.90562 0.15544 0.43002 0.0
C17 C 0.88308 0.12298 0.41211 0.0
C18 C 0.89489 0.12354 0.38838 0.0
C19 C 0.9295 0.15615 0.38268 0.0
N20 N 0.87224 0.09279 0.3693 0.0
C21 C 0.84468 0.05379 0.37239 0.0
H22 H 0.8228 0.76517 0.44533 0.0
H23 H 0.90882 0.72892 0.44586 0.0
H24 H 0.88388 0.77309 0.38136 0.0
C25 C 0.84479 0.76195 0.43626 0.0
C26 C 0.85082 0.77143 0.4119 0.0
C27 C 0.86573 0.74698 0.44882 0.0
C28 C 0.89339 0.7418 0.43679 0.0
C29 C 0.90051 0.75182 0.41274 0.0
C30 C 0.87922 0.76662 0.40024 0.0
N31 N 0.92542 0.74183 0.40054 0.0
C32 C 0.95828 0.76886 0.38992 0.0
H33 H 0.06784 0.27314 0.58212 0.0
H34 H 0.15529 0.23842 0.59093 0.0
H35 H 0.06943 0.2082 0.64243 0.0
C36 C 0.08075 0.25862 0.59207 0.0
C37 C 0.06507 0.24141 0.6135 0.0
C38 C 0.11345 0.25791 0.58371 0.0
C39 C 0.13061 0.23985 0.59732 0.0
C40 C 0.11448 0.22188 0.61851 0.0
C41 C 0.08196 0.22277 0.62631 0.0
N42 N 0.12847 0.20075 0.63198 0.0
C43 C 0.16523 0.20447 0.6318 0.0
H44 H 0.77998 0.81979 0.59705 0.0
H45 H 0.7626 0.92031 0.60584 0.0
H46 H 0.79975 0.88225 0.66841 0.0
C47 C 0.78067 0.84367 0.60851 0.0
C48 C 0.79258 0.84884 0.63385 0.0
C49 C 0.76936 0.86916 0.5981 0.0
C50 C 0.77075 0.90017 0.61343 0.0
C51 C 0.78143 0.90455 0.63875 0.0
C52 C 0.79191 0.87877 0.64875 0.0
N53 N 0.77981 0.9331 0.65496 0.0
C54 C 0.79068 0.97133 0.64959 0.0
H55 H 0.20288 0.96645 0.5884 0.0
H56 H 0.11174 0.84362 0.58003 0.0
H57 H 0.14177 0.91119 0.65027 0.0
C58 C 0.18005 0.94086 0.59594 0.0
C59 C 0.17476 0.94349 0.62102 0.0
C60 C 0.15723 0.90512 0.5808 0.0
C61 C 0.12893 0.87178 0.59116 0.0
C62 C 0.1227 0.87402 0.61594 0.0
C63 C 0.14531 0.91004 0.63083 0.0
N64 N 0.0986 0.83827 0.62632 0.0
C65 C 0.06442 0.82968 0.63682 0.0
H66 H 0.89899 0.38461 0.761 0.0
H67 H 0.93059 0.50792 0.7671 0.0
H68 H 0.89847 0.44156 0.69636 0.0
C69 C 0.90248 0.4106 0.75278 0.0
C70 C 0.89561 0.40848 0.72714 0.0
C71 C 0.91498 0.44629 0.76762 0.0
C72 C 0.92044 0.47993 0.75624 0.0
C73 C 0.91457 0.47815 0.73059 0.0
C74 C 0.90204 0.44247 0.7162 0.0
N75 N 0.92643 0.51312 0.71883 0.0
C76 C 0.90704 0.53441 0.71974 0.0
H77 H 0.62182 0.54451 0.77256 0.0
H78 H 0.52056 0.42844 0.75173 0.0
H79 H 0.60253 0.48714 0.69964 0.0
C80 C 0.60472 0.51902 0.75919 0.0
C81 C 0.61694 0.51972 0.73552 0.0
C82 C 0.56967 0.48642 0.76528 0.0
C83 C 0.54734 0.45389 0.74739 0.0
C84 C 0.5592 0.45459 0.72366 0.0
C85 C 0.5936 0.48742 0.71795 0.0
N86 N 0.5368 0.42373 0.7046 0.0
C87 C 0.50943 0.3847 0.70774 0.0
H88 H 0.48921 0.09537 0.77751 0.0
H89 H 0.57875 0.06393 0.77586 0.0
H90 H 0.54464 0.10081 0.71129 0.0
C91 C 0.5113 0.09312 0.76794 0.0
C92 C 0.51461 0.10086 0.74314 0.0
C93 C 0.53443 0.08014 0.78011 0.0
C94 C 0.56105 0.07458 0.76703 0.0
C95 C 0.56508 0.08246 0.74243 0.0
C96 C 0.54198 0.09569 0.73049 0.0
N97 N 0.58861 0.07184 0.72916 0.0
C98 C 0.623 0.09926 0.72008 0.0
H99 H 0.73294 0.60604 0.91582 0.0
H100 H 0.81927 0.56968 0.92393 0.0
H101 H 0.7333 0.53926 0.97535 0.0
C102 C 0.74557 0.59109 0.92558 0.0
C103 C 0.72971 0.57354 0.94689 0.0
C104 C 0.77807 0.59009 0.9171 0.0
C105 C 0.7948 0.57139 0.93044 0.0
C106 C 0.77836 0.553 0.95145 0.0
C107 C 0.74608 0.55418 0.95938 0.0
N108 N 0.79158 0.53091 0.9645 0.0
C109 C 0.82855 0.53506 0.96494 0.0
H110 H 0.4452 0.15071 0.92847 0.0
H111 H 0.4302 0.25264 0.93825 0.0
H112 H 0.4654 0.21199 1.00031 0.0
C113 C 0.44624 0.17457 0.94015 0.0
C114 C 0.45783 0.17899 0.9655 0.0
C115 C 0.43578 0.20087 0.93004 0.0
C116 C 0.43773 0.23193 0.94564 0.0
C117 C 0.44817 0.23563 0.97094 0.0
C118 C 0.45773 0.20903 0.98066 0.0
N119 N 0.44728 0.26434 0.98744 0.0
C120 C 0.45832 0.30274 0.98235 0.0
H121 H 0.8671 0.29962 0.92116 0.0
H122 H 0.77599 0.17686 0.91043 0.0
H123 H 0.8023 0.24183 0.98132 0.0
C124 C 0.84375 0.27368 0.92809 0.0
C125 C 0.83709 0.2753 0.95299 0.0
C126 C 0.82165 0.23846 0.91239 0.0
C127 C 0.79273 0.20463 0.92201 0.0
C128 C 0.78509 0.20585 0.94658 0.0
C129 C 0.80692 0.2414 0.96203 0.0
N130 N 0.75992 0.16951 0.95604 0.0
C131 C 0.72747 0.16194 0.96832 0.0
H132 H 0.56668 0.71787 0.09478 0.0
H133 H 0.6005 0.84174 0.1 0.0
H134 H 0.56513 0.77353 0.02972 0.0
C135 C 0.57033 0.74377 0.08637 0.0
C136 C 0.56273 0.74108 0.06076 0.0
C137 C 0.58379 0.77989 0.10095 0.0
C138 C 0.58954 0.81342 0.08933 0.0
C139 C 0.58281 0.81105 0.06371 0.0
C140 C 0.56928 0.77491 0.04956 0.0
N141 N 0.59485 0.84583 0.0517 0.0
C142 C 0.5751 0.8668 0.05196 0.0
H143 H 0.29135 0.868 0.10553 0.0
H144 H 0.18135 0.7601 0.0846 0.0
H145 H 0.25854 0.81676 0.03012 0.0
C146 C 0.27111 0.84491 0.09158 0.0
C147 C 0.28101 0.84567 0.06716 0.0
C148 C 0.23463 0.8149 0.09799 0.0
C149 C 0.20902 0.78399 0.07995 0.0
C150 C 0.21816 0.78475 0.0556 0.0
C151 C 0.25321 0.81603 0.04929 0.0
N152 N 0.19184 0.7558 0.03659 0.0
C153 C 0.16665 0.71608 0.03955 0.0
H154 H 0.16456 0.43935 0.1151 0.0
H155 H 0.25336 0.40752 0.10904 0.0
H156 H 0.19804 0.42152 0.04408 0.0
C157 C 0.18261 0.43289 0.10386 0.0
C158 C 0.17797 0.43251 0.0781 0.0
C159 C 0.20899 0.42308 0.11528 0.0
C160 C 0.23293 0.41533 0.10072 0.0
C161 C 0.22961 0.41597 0.0752 0.0
C162 C 0.20181 0.42379 0.06395 0.0
N163 N 0.24999 0.40292 0.06053 0.0
C164 C 0.2876 0.4284 0.05451 0.0
H165 H 0.40172 0.94005 0.25075 0.0
H166 H 0.48879 0.90458 0.25813 0.0
H167 H 0.40217 0.87174 0.30933 0.0
C168 C 0.41483 0.92549 0.26047 0.0
C169 C 0.39867 0.90694 0.28145 0.0
C170 C 0.44742 0.92491 0.2518 0.0
C171 C 0.46383 0.9054 0.26456 0.0
C172 C 0.44739 0.88635 0.2854 0.0
C173 C 0.41501 0.88719 0.29354 0.0
N174 N 0.461 0.86428 0.29815 0.0
C175 C 0.49824 0.86904 0.29851 0.0
H176 H 0.1204 0.49022 0.26306 0.0
H177 H 0.09587 0.58614 0.26982 0.0
H178 H 0.12902 0.54835 0.33414 0.0
C179 C 0.11805 0.51255 0.27423 0.0
C180 C 0.12697 0.51693 0.2999 0.0
C181 C 0.10723 0.53781 0.26299 0.0
C182 C 0.1052 0.56721 0.27792 0.0
C183 C 0.11281 0.57069 0.30353 0.0
C184 C 0.12341 0.54552 0.3143 0.0
N185 N 0.10759 0.5975 0.31909 0.0
C186 C 0.12043 0.63656 0.31472 0.0
H187 H 0.54243 0.63946 0.25802 0.0
H188 H 0.45045 0.51723 0.2454 0.0
H189 H 0.47705 0.57923 0.31736 0.0
C190 C 0.51932 0.613 0.26466 0.0
C191 C 0.51265 0.6136 0.28959 0.0
C192 C 0.49651 0.5787 0.24832 0.0
C193 C 0.46702 0.54461 0.25737 0.0
C194 C 0.45935 0.54483 0.28199 0.0
C195 C 0.48183 0.57957 0.29808 0.0
N196 N 0.4332 0.50818 0.29076 0.0
C197 C 0.4011 0.50111 0.30327 0.0
C198 C 0.54267 0.05032 0.09471 0.0
Eu199 Eu 0.52039 0.03787 0.04767 0.0
C200 C 0.5286 0.03143 0.1174 0.0
C201 C 0.54229 0.05471 0.14005 0.0
C202 C 0.52979 0.0375 0.16189 0.0
C203 C 0.50333 0.99653 0.16153 0.0
C204 C 0.48964 0.97323 0.13871 0.0
C205 C 0.50208 0.99055 0.11683 0.0
C206 C 0.50011 0.08174 0.02046 0.0
C207 C 0.4285 0.96669 0.03618 0.0
C208 C 0.4652 0.9895 0.94798 0.0
Eu209 Eu 0.4865 1.00232 0.99507 0.0
C210 C 0.4799 0.00746 0.92503 0.0
C211 C 0.51241 0.00789 0.91564 0.0
C212 C 0.52393 0.0222 0.89295 0.0
C213 C 0.50334 0.03654 0.87924 0.0
C214 C 0.47151 0.03706 0.88897 0.0
C215 C 0.45982 0.02252 0.91157 0.0
C216 C 0.50783 0.95887 0.02194 0.0
C217 C 0.57875 0.07266 1.0065 0.0
O218 O 0.55299 0.03178 0.07887 0.0
O219 O 0.52301 0.06513 0.08418 0.0
O220 O 0.53019 0.09688 0.03688 0.0
O221 O 0.48073 0.04448 0.02027 0.0
O222 O 0.4596 0.98652 0.05246 0.0
O223 O 0.43027 0.97078 0.01247 0.0
O224 O 0.45483 0.00867 0.9633 0.0
O225 O 0.48338 0.97367 0.95915 0.0
O226 O 0.4774 0.94358 1.00582 0.0
O227 O 0.52671 0.99613 0.02212 0.0
O228 O 0.5471 0.05411 0.9905 0.0
O229 O 0.57696 0.06754 0.03012 0.0
H230 H 0.56284 0.08629 0.14086 0.0
H231 H 0.54128 0.05625 0.17911 0.0
H232 H 0.46888 0.94171 0.13773 0.0
H233 H 0.49102 0.97204 0.0995 0.0
H234 H 0.52862 0.99661 0.92557 0.0
H235 H 0.54886 0.02185 0.88607 0.0
H236 H 0.45479 0.04752 0.87873 0.0
H237 H 0.43453 0.0223 0.9183 0.0
C238 C 0.9956 0.50994 0.08789 0.0
Eu239 Eu 0.99469 0.48953 0.04152 0.0
C240 C 0.01584 0.51376 0.11229 0.0
C241 C 0.02899 0.48768 0.11849 0.0
C242 C 0.04671 0.49139 0.14221 0.0
C243 C 0.05186 0.52142 0.16007 0.0
C244 C 0.03903 0.54765 0.15354 0.0
C245 C 0.02125 0.54383 0.12995 0.0
C246 C 0.94363 0.41923 0.01554 0.0
C247 C 0.05953 0.46201 0.03349 0.0
C248 C 0.01401 0.45886 0.94341 0.0
Eu249 Eu 0.01517 0.47867 0.98989 0.0
C250 C 0.9939 0.45657 0.91926 0.0
C251 C 0.99166 0.48905 0.91146 0.0
C252 C 0.97561 0.48726 0.88763 0.0
C253 C 0.96125 0.45288 0.8712 0.0
C254 C 0.96219 0.41992 0.87942 0.0
C255 C 0.97847 0.42183 0.90317 0.0
C256 C 0.06565 0.54948 0.01563 0.0
C257 C 0.95244 0.50881 0.99785 0.0
O258 O 0.0161 0.53518 0.07256 0.0
O259 O 0.97239 0.47411 0.07712 0.0
O260 O 0.93297 0.43842 0.03033 0.0
O261 O 0.98053 0.43693 0.01605 0.0
O262 O 0.04477 0.47755 0.04858 0.0
O263 O 0.04951 0.45525 0.00956 0.0
O264 O 0.99313 0.43344 0.95854 0.0
O265 O 0.03821 0.49418 0.95455 0.0
O266 O 0.07636 0.53029 1.00091 0.0
O267 O 0.02879 0.53144 0.01512 0.0
O268 O 0.96495 0.49074 0.98285 0.0
O269 O 0.96387 0.51639 0.02164 0.0
H270 H 0.02533 0.46435 0.10508 0.0
H271 H 0.05655 0.47091 0.14653 0.0
H272 H 0.04188 0.5707 0.16686 0.0
H273 H 0.01123 0.56417 0.12559 0.0
H274 H 1.00297 0.51611 0.92356 0.0
H275 H 0.97479 0.51294 0.88198 0.0
H276 H 0.95168 0.39312 0.86718 0.0
H277 H 0.97989 0.39642 0.90878 0.0
C278 C 0.47071 0.50499 0.92892 0.0
Eu279 Eu 0.49502 0.52471 0.97562 0.0
C280 C 0.48642 0.50214 0.90563 0.0
C281 C 0.47102 0.50872 0.8839 0.0
C282 C 0.48494 0.50574 0.86148 0.0
C283 C 0.51459 0.49597 0.86027 0.0
C284 C 0.53033 0.48984 0.88222 0.0
C285 C 0.51639 0.49292 0.9047 0.0
C286 C 0.516 0.59497 1.00108 0.0
C287 C 0.58871 0.55527 0.98424 0.0
C288 C 0.56042 0.55959 0.07394 0.0
Eu289 Eu 0.53408 0.53757 0.02758 0.0
C290 C 0.54764 0.56326 0.09827 0.0
C291 C 0.5152 0.53147 0.10712 0.0
C292 C 0.50573 0.5351 0.131 0.0
C293 C 0.52844 0.57059 0.14649 0.0
C294 C 0.56013 0.60269 0.13721 0.0
C295 C 0.56964 0.59899 0.11341 0.0
C296 C 0.51485 0.46776 1.00232 0.0
C297 C 0.43911 0.50288 0.01843 0.0
O298 O 0.46703 0.47945 0.94451 0.0
O299 O 0.48413 0.54071 0.93966 0.0
O300 O 0.48392 0.57494 0.98642 0.0
O301 O 0.53582 0.57794 1.00082 0.0
O302 O 0.55595 0.53658 0.96927 0.0
O303 O 0.5886 0.56398 0.00788 0.0
O304 O 0.56107 0.58388 0.05831 0.0
O305 O 0.54814 0.52389 0.06348 0.0
O306 O 0.54643 0.48854 0.01731 0.0
O307 O 0.49391 0.48372 1.00229 0.0
O308 O 0.47148 0.52155 0.03389 0.0
O309 O 0.44026 0.49647 0.99466 0.0
H310 H 0.44809 0.51615 0.88427 0.0
H311 H 0.47266 0.51147 0.8451 0.0
H312 H 0.55295 0.482 0.88201 0.0
H313 H 0.52881 0.48783 0.92129 0.0
H314 H 0.4976 0.50359 0.09579 0.0
H315 H 0.48132 0.50967 0.13756 0.0
H316 H 0.57779 0.6307 0.1484 0.0
H317 H 0.59466 0.62397 0.10693 0.0
C318 C 0.21519 0.38945 0.42948 0.0
Eu319 Eu 0.19363 0.37871 0.38237 0.0
C320 C 0.20059 0.36886 0.45156 0.0
C321 C 0.21716 0.3893 0.47488 0.0
C322 C 0.20359 0.37037 0.49608 0.0
C323 C 0.17299 0.33061 0.49436 0.0
C324 C 0.15651 0.31019 0.47086 0.0
C325 C 0.17029 0.32912 0.44966 0.0
C326 C 0.17273 0.42328 0.35619 0.0
C327 C 0.1012 0.30954 0.37049 0.0
C328 C 0.13898 0.33422 0.28246 0.0
Eu329 Eu 0.1594 0.34499 0.32961 0.0
C330 C 0.15551 0.3529 0.26002 0.0
C331 C 0.18861 0.35344 0.25155 0.0
C332 C 0.20204 0.36887 0.22939 0.0
C333 C 0.18282 0.38428 0.21533 0.0
C334 C 0.15045 0.38477 0.22423 0.0
C335 C 0.13687 0.36911 0.24628 0.0
C336 C 0.17969 0.29989 0.35554 0.0
C337 C 0.25209 0.41431 0.34147 0.0
O338 O 0.22645 0.37227 0.41334 0.0
O339 O 0.195 0.40393 0.41925 0.0
O340 O 0.20317 0.43827 0.37233 0.0
O341 O 0.15377 0.38606 0.35573 0.0
O342 O 0.13306 0.32615 0.38632 0.0
O343 O 0.10296 0.31657 0.34716 0.0
O344 O 0.12993 0.35431 0.29796 0.0
O345 O 0.15482 0.31604 0.29345 0.0
O346 O 0.14904 0.28546 0.33964 0.0
O347 O 0.19919 0.33721 0.35612 0.0
O348 O 0.22037 0.39664 0.3255 0.0
O349 O 0.25025 0.40849 0.36498 0.0
H350 H 0.24054 0.42002 0.47669 0.0
H351 H 0.21659 0.38713 0.51384 0.0
H352 H 0.13321 0.27945 0.46886 0.0
H353 H 0.15738 0.31273 0.43181 0.0
H354 H 0.20382 0.3414 0.26178 0.0
H355 H 0.22728 0.36843 0.22313 0.0
H356 H 0.13469 0.39595 0.2137 0.0
H357 H 0.11124 0.36894 0.25235 0.0
C358 C 0.67329 0.85368 0.4204 0.0
Eu359 Eu 0.6705 0.83145 0.37409 0.0
C360 C 0.68788 0.8508 0.44531 0.0
C361 C 0.66107 0.83394 0.46278 0.0
C362 C 0.67404 0.83385 0.48706 0.0
C363 C 0.71429 0.851 0.4946 0.0
C364 C 0.7411 0.86674 0.47687 0.0
C365 C 0.72805 0.86668 0.45248 0.0
C366 C 0.61984 0.75803 0.35133 0.0
C367 C 0.73592 0.80458 0.36629 0.0
C368 C 0.68324 0.79161 0.27659 0.0
Eu369 Eu 0.68742 0.8158 0.32266 0.0
C370 C 0.66416 0.79024 0.25229 0.0
C371 C 0.66371 0.82354 0.24433 0.0
C372 C 0.64791 0.82214 0.2205 0.0
C373 C 0.63203 0.78736 0.20424 0.0
C374 C 0.63143 0.75373 0.21259 0.0
C375 C 0.64742 0.75523 0.23635 0.0
C376 C 0.73835 0.88893 0.34544 0.0
C377 C 0.62568 0.84729 0.33042 0.0
O378 O 0.69903 0.87561 0.4058 0.0
O379 O 0.64407 0.82121 0.4088 0.0
O380 O 0.60926 0.77821 0.36524 0.0
O381 O 0.65657 0.77665 0.35088 0.0
O382 O 0.72258 0.82242 0.38079 0.0
O383 O 0.72227 0.79321 0.34292 0.0
O384 O 0.66053 0.76891 0.29222 0.0
O385 O 0.71046 0.82638 0.28701 0.0
O386 O 0.74855 0.86859 0.33131 0.0
O387 O 0.70164 0.87085 0.34588 0.0
O388 O 0.6364 0.8269 0.31592 0.0
O389 O 0.63998 0.85824 0.35373 0.0
H390 H 0.62997 0.82147 0.45777 0.0
H391 H 0.65244 0.82073 0.50002 0.0
H392 H 0.7723 0.88043 0.48199 0.0
H393 H 0.7495 0.87988 0.43943 0.0
H394 H 0.67608 0.85082 0.25636 0.0
H395 H 0.64833 0.84837 0.21473 0.0
H396 H 0.61977 0.72661 0.2005 0.0
H397 H 0.64743 0.72919 0.24212 0.0
C398 C 0.14114 0.84242 0.26212 0.0
Eu399 Eu 0.16426 0.86114 0.30898 0.0
C400 C 0.15707 0.83911 0.23899 0.0
C401 C 0.14432 0.84875 0.21745 0.0
C402 C 0.15798 0.84494 0.1951 0.0
C403 C 0.18461 0.83114 0.19372 0.0
C404 C 0.198 0.82224 0.21552 0.0
C405 C 0.18439 0.82623 0.23796 0.0
C406 C 0.18604 0.93151 0.33454 0.0
C407 C 0.25747 0.8899 0.31817 0.0
C408 C 0.22747 0.89232 0.40748 0.0
Eu409 Eu 0.20211 0.87262 0.36087 0.0
C410 C 0.21361 0.89209 0.43194 0.0
C411 C 0.22861 0.88 0.45129 0.0
C412 C 0.21768 0.88113 0.47498 0.0
C413 C 0.19155 0.89455 0.47987 0.0
C414 C 0.17625 0.9064 0.46038 0.0
C415 C 0.18708 0.90506 0.43659 0.0
C416 C 0.18115 0.80232 0.3355 0.0
C417 C 0.1076 0.8406 0.35127 0.0
O418 O 0.13595 0.81636 0.27764 0.0
O419 O 0.15534 0.87821 0.27295 0.0
O420 O 0.15417 0.91196 0.31966 0.0
O421 O 0.20553 0.91408 0.33442 0.0
O422 O 0.2248 0.87126 0.30312 0.0
O423 O 0.25714 0.89923 0.34168 0.0
O424 O 0.2259 0.91668 0.39268 0.0
O425 O 0.21788 0.85797 0.39607 0.0
O426 O 0.2129 0.82255 0.35039 0.0
O427 O 0.16104 0.81917 0.33549 0.0
O428 O 0.13987 0.85815 0.36684 0.0
O429 O 0.10882 0.83415 0.32751 0.0
H430 H 0.12355 0.85909 0.21789 0.0
H431 H 0.14769 0.85298 0.17887 0.0
H432 H 0.21832 0.81136 0.21518 0.0
H433 H 0.19486 0.81886 0.25442 0.0
H434 H 0.24929 0.87012 0.44815 0.0
H435 H 0.23043 0.8723 0.48959 0.0
H436 H 0.15576 0.91649 0.46349 0.0
H437 H 0.17495 0.91443 0.42193 0.0
C438 C 0.87959 0.7212 0.76275 0.0
Eu439 Eu 0.85707 0.70871 0.71572 0.0
C440 C 0.86536 0.70077 0.78491 0.0
C441 C 0.88204 0.72133 0.80819 0.0
C442 C 0.86857 0.70253 0.82945 0.0
C443 C 0.83794 0.66279 0.82782 0.0
C444 C 0.82141 0.64222 0.80437 0.0
C445 C 0.83512 0.661 0.78312 0.0
C446 C 0.8372 0.75307 0.68862 0.0
C447 C 0.76448 0.64042 0.70515 0.0
C448 C 0.7971 0.656 0.61676 0.0
Eu449 Eu 0.82169 0.67278 0.66348 0.0
C450 C 0.80931 0.67036 0.59283 0.0
C451 C 0.78874 0.64516 0.57149 0.0
C452 C 0.79893 0.6581 0.5484 0.0
C453 C 0.82998 0.69658 0.54622 0.0
C454 C 0.85104 0.72165 0.56775 0.0
C455 C 0.8407 0.70864 0.59092 0.0
C456 C 0.84173 0.62851 0.69062 0.0
C457 C 0.91449 0.74184 0.67392 0.0
O458 O 0.89124 0.70423 0.74672 0.0
O459 O 0.85869 0.73481 0.75236 0.0
O460 O 0.86758 0.76804 0.70478 0.0
O461 O 0.81746 0.71592 0.68868 0.0
O462 O 0.79661 0.65701 0.72071 0.0
O463 O 0.76591 0.64667 0.68172 0.0
O464 O 0.78954 0.67805 0.63168 0.0
O465 O 0.81634 0.64137 0.628 0.0
O466 O 0.81065 0.61371 0.67509 0.0
O467 O 0.86153 0.66562 0.69032 0.0
O468 O 0.88253 0.7237 0.65811 0.0
O469 O 0.91301 0.737 0.69759 0.0
H470 H 0.9054 0.75206 0.80993 0.0
H471 H 0.88162 0.71937 0.84718 0.0
H472 H 0.79811 0.61148 0.80244 0.0
H473 H 0.82214 0.6445 0.76531 0.0
H474 H 0.76457 0.61544 0.57267 0.0
H475 H 0.78256 0.63785 0.53222 0.0
H476 H 0.87491 0.75153 0.56667 0.0
H477 H 0.85687 0.72849 0.60728 0.0
C478 C 0.33349 0.1798 0.75303 0.0
Eu479 Eu 0.33366 0.16075 0.70657 0.0
C480 C 0.35319 0.18392 0.77768 0.0
C481 C 0.36549 0.15747 0.78457 0.0
C482 C 0.38059 0.16007 0.80889 0.0
C483 C 0.38355 0.18909 0.82671 0.0
C484 C 0.3726 0.21639 0.81935 0.0
C485 C 0.35754 0.21374 0.79516 0.0
C486 C 0.28258 0.08955 0.68138 0.0
C487 C 0.39911 0.13451 0.69869 0.0
C488 C 0.35238 0.12865 0.60878 0.0
Eu489 Eu 0.353 0.14866 0.65517 0.0
C490 C 0.33608 0.13008 0.58415 0.0
C491 C 0.3609 0.14273 0.56533 0.0
C492 C 0.34628 0.14286 0.54152 0.0
C493 C 0.30637 0.13017 0.53594 0.0
C494 C 0.28152 0.11784 0.55491 0.0
C495 C 0.29625 0.11792 0.57883 0.0
C496 C 0.40378 0.2201 0.68014 0.0
C497 C 0.29061 0.17938 0.66311 0.0
O498 O 0.35345 0.2058 0.73793 0.0
O499 O 0.31168 0.14393 0.74204 0.0
O500 O 0.27202 0.10938 0.69566 0.0
O501 O 0.31944 0.10728 0.68175 0.0
O502 O 0.38671 0.15334 0.71311 0.0
O503 O 0.38524 0.12323 0.67534 0.0
O504 O 0.32799 0.10469 0.62329 0.0
O505 O 0.37922 0.16247 0.62046 0.0
O506 O 0.41428 0.20038 0.66573 0.0
O507 O 0.36696 0.20228 0.67982 0.0
O508 O 0.30296 0.16114 0.64809 0.0
O509 O 0.30254 0.18739 0.68683 0.0
H510 H 0.36258 0.13427 0.77135 0.0
H511 H 0.38866 0.13853 0.8139 0.0
H512 H 0.37528 0.23968 0.83239 0.0
H513 H 0.34845 0.23458 0.79022 0.0
H514 H 0.39165 0.15203 0.56898 0.0
H515 H 0.36613 0.15197 0.52731 0.0
H516 H 0.25071 0.10823 0.55128 0.0
H517 H 0.27647 0.10817 0.59307 0.0
C518 C 0.80653 0.17451 0.59363 0.0
Eu519 Eu 0.83009 0.19421 0.64044 0.0
C520 C 0.82242 0.17173 0.57038 0.0
C521 C 0.80723 0.17851 0.54864 0.0
C522 C 0.82119 0.17549 0.52623 0.0
C523 C 0.85066 0.16548 0.52504 0.0
C524 C 0.86621 0.15917 0.547 0.0
C525 C 0.85223 0.16228 0.56947 0.0
C526 C 0.8516 0.26484 0.66557 0.0
C527 C 0.9236 0.22429 0.64973 0.0
C528 C 0.89378 0.22834 0.7391 0.0
Eu529 Eu 0.86832 0.20708 0.69255 0.0
C530 C 0.88005 0.22805 0.76363 0.0
C531 C 0.89479 0.21547 0.78285 0.0
C532 C 0.88408 0.21663 0.8066 0.0
C533 C 0.85844 0.23059 0.81173 0.0
C534 C 0.84349 0.24304 0.79239 0.0
C535 C 0.85409 0.24168 0.76854 0.0
C536 C 0.84822 0.13671 0.66772 0.0
C537 C 0.77342 0.17326 0.6828 0.0
O538 O 0.80278 0.149 0.60925 0.0
O539 O 0.81972 0.2102 0.60434 0.0
O540 O 0.8196 0.24494 0.65083 0.0
O541 O 0.87116 0.24751 0.66556 0.0
O542 O 0.89094 0.20517 0.63468 0.0
O543 O 0.92321 0.2339 0.67318 0.0
O544 O 0.89087 0.2517 0.72403 0.0
O545 O 0.88548 0.19418 0.72799 0.0
O546 O 0.87984 0.1574 0.68267 0.0
O547 O 0.82768 0.15311 0.66742 0.0
O548 O 0.80564 0.19129 0.69842 0.0
O549 O 0.77479 0.16679 0.65906 0.0
H550 H 0.78442 0.18612 0.54897 0.0
H551 H 0.80906 0.18138 0.50985 0.0
H552 H 0.8887 0.15113 0.54681 0.0
H553 H 0.86448 0.15702 0.58606 0.0
H554 H 0.9151 0.20517 0.77955 0.0
H555 H 0.89658 0.20734 0.82109 0.0
H556 H 0.82337 0.25357 0.79567 0.0
H557 H 0.84221 0.25153 0.75403 0.0
C558 C 0.34033 0.91566 0.07241 0.0
C559 C 0.3197 0.87714 0.0599 0.0
H560 H 0.39135 0.97405 0.07496 0.0
C561 C 0.33627 0.86888 0.03989 0.0
H562 H 0.32874 0.92379 0.08764 0.0
C563 C 0.37107 0.89831 0.03201 0.0
C564 C 0.39127 0.93643 0.04448 0.0
H565 H 0.32267 0.83949 0.03025 0.0
H566 H 0.38273 0.89095 0.01645 0.0
C567 C 0.37608 0.94476 0.06502 0.0
C568 C 0.15179 0.45614 0.04358 0.0
C569 C 0.147 0.43917 0.06609 0.0
H570 H 0.1274 0.4758 0.01537 0.0
C571 C 0.11209 0.42847 0.07702 0.0
H572 H 0.17829 0.46546 0.03465 0.0
C573 C 0.08378 0.43592 0.06637 0.0
C574 C 0.0888 0.45276 0.04403 0.0
H575 H 0.10617 0.41401 0.09379 0.0
H576 H 0.05764 0.42802 0.07549 0.0
C577 C 0.12272 0.4623 0.03251 0.0
C578 C 0.51487 0.6845 0.03038 0.0
C579 C 0.5505 0.70361 0.04548 0.0
H580 H 0.47561 0.63454 1.00471 0.0
C581 C 0.575 0.68731 0.04552 0.0
H582 H 0.49565 0.69675 0.03001 0.0
C583 C 0.56412 0.65249 0.03062 0.0
C584 C 0.52799 0.63265 0.016 0.0
H585 H 0.6029 0.70192 0.05675 0.0
H586 H 0.5841 0.64118 0.03052 0.0
C587 C 0.50351 0.64906 0.01592 0.0
C588 C 0.9048 0.32787 0.9702 0.0
C589 C 0.86401 0.31146 0.96976 0.0
H590 H 0.9618 0.37386 0.98564 0.0
C591 C 0.84951 0.33004 0.98514 0.0
H592 H 0.91679 0.31381 0.95883 0.0
C593 C 0.87539 0.36502 1.00012 0.0
C594 C 0.91621 0.38168 1.00027 0.0
H595 H 0.81822 0.31799 0.98516 0.0
H596 H 0.86345 0.37918 0.01144 0.0
C597 C 0.93058 0.36233 0.98548 0.0
C598 C 0.66162 0.56263 0.93983 0.0
C599 C 0.69515 0.57371 0.95593 0.0
H600 H 0.60167 0.54808 0.93613 0.0
C601 C 0.69436 0.58186 0.98116 0.0
H602 H 0.6613 0.55596 0.92033 0.0
C603 C 0.66027 0.57736 0.99026 0.0
C604 C 0.62608 0.56436 0.97434 0.0
H605 H 0.71995 0.59091 0.99396 0.0
H606 H 0.66041 0.58284 0.00987 0.0
C607 C 0.62739 0.55786 0.94895 0.0
C608 C 0.4455 0.11149 0.97477 0.0
C609 C 0.47023 0.1529 0.97687 0.0
H610 H 0.435 0.05634 0.98749 0.0
C611 C 0.50555 0.17009 0.99225 0.0
H612 H 0.41792 0.09755 0.96324 0.0
C613 C 0.51538 0.1467 1.00591 0.0
C614 C 0.49003 0.10552 1.00467 0.0
H615 H 0.52522 0.20193 0.99414 0.0
H616 H 0.54257 0.16107 0.01786 0.0
C617 C 0.45522 0.08799 0.9887 0.0
C618 C 0.65556 0.12922 0.96333 0.0
C619 C 0.69043 0.14489 0.97884 0.0
H620 H 0.59293 0.09424 0.95984 0.0
C621 C 0.68867 0.13877 1.00381 0.0
H622 H 0.65637 0.13318 0.9439 0.0
C623 C 0.65234 0.11629 0.01304 0.0
C624 C 0.61721 0.09924 0.99736 0.0
H625 H 0.71537 0.15016 0.016 0.0
H626 H 0.6519 0.11126 0.03229 0.0
C627 C 0.61928 0.10668 0.97247 0.0
C628 C 0.88436 0.55051 0.99435 0.0
C629 C 0.86404 0.53428 0.97103 0.0
H630 H 0.92842 0.55535 0.02114 0.0
C631 C 0.87472 0.51217 0.95567 0.0
H632 H 0.87609 0.56726 1.00656 0.0
C633 C 0.90468 0.50517 0.96397 0.0
C634 C 0.9239 0.51977 0.98789 0.0
H635 H 0.85887 0.49893 0.93772 0.0
H636 H 0.9116 0.48697 0.95204 0.0
C637 C 0.91404 0.54335 1.00273 0.0
C638 C 0.51299 0.37119 0.98905 0.0
C639 C 0.473 0.34472 0.98251 0.0
H640 H 0.55764 0.43129 1.00023 0.0
C641 C 0.44716 0.35928 0.97992 0.0
H642 H 0.53327 0.36036 0.99134 0.0
C643 C 0.46104 0.39993 0.98497 0.0
C644 C 0.5008 0.42622 0.993 0.0
H645 H 0.41607 0.33908 0.97512 0.0
H646 H 0.44039 0.41042 0.98383 0.0
C647 C 0.52681 0.41165 0.99425 0.0
C648 C 0.10169 0.65588 0.04021 0.0
C649 C 0.14188 0.6735 0.03768 0.0
H650 H 0.04567 0.6021 0.03546 0.0
C651 C 0.15728 0.64975 0.03011 0.0
H652 H 0.08929 0.67393 0.04583 0.0
C653 C 0.13253 0.60901 0.024 0.0
C654 C 0.09195 0.59138 0.02536 0.0
H655 H 0.18823 0.66296 0.02789 0.0
H656 H 0.14501 0.59154 0.01737 0.0
C657 C 0.07684 0.61495 0.03422 0.0
C658 C 0.35987 0.46919 0.06236 0.0
C659 C 0.32581 0.45067 0.04588 0.0
H660 H 0.42276 0.50067 0.06664 0.0
C661 C 0.32897 0.45116 0.02058 0.0
H662 H 0.35787 0.46885 0.082 0.0
C663 C 0.36582 0.46907 0.01174 0.0
C664 C 0.40026 0.48685 0.02808 0.0
H665 H 0.30291 0.43681 0.0076 0.0
H666 H 0.3672 0.46825 0.99204 0.0
C667 C 0.39689 0.4873 0.05353 0.0
C668 C 0.51766 0.87101 0.0371 0.0
C669 C 0.55623 0.88971 0.04818 0.0
H670 H 0.47187 0.87854 0.0203 0.0
C671 C 0.57784 0.93118 0.0526 0.0
H672 H 0.5007 0.83901 0.03337 0.0
C673 C 0.56151 0.95389 0.04509 0.0
C674 C 0.52347 0.93531 0.03287 0.0
H675 H 0.60785 0.94607 0.06096 0.0
H676 H 0.5792 0.98594 0.0479 0.0
C677 C 0.50133 0.89364 0.02955 0.0
C678 C 0.02482 0.2394 0.40993 0.0
C679 C 0.99045 0.22213 0.39361 0.0
H680 H 0.08662 0.28042 0.41553 0.0
C681 C 0.99253 0.23576 0.37019 0.0
H682 H 0.02439 0.22948 0.42803 0.0
C683 C 0.02826 0.26462 0.36291 0.0
C684 C 0.06288 0.2809 0.37889 0.0
H685 H 0.96652 0.22376 0.35731 0.0
H686 H 0.02874 0.27376 0.34457 0.0
C687 C 0.0606 0.26847 0.40267 0.0
C688 C 0.80701 0.76638 0.37485 0.0
C689 C 0.82513 0.78357 0.39868 0.0
H690 H 0.76433 0.75921 0.34588 0.0
C691 C 0.81531 0.80946 0.41094 0.0
H692 H 0.81364 0.74602 0.36499 0.0
C693 C 0.78675 0.81645 0.40025 0.0
C694 C 0.7674 0.79805 0.37685 0.0
H695 H 0.82917 0.82373 0.42914 0.0
H696 H 0.77958 0.83604 0.41053 0.0
C697 C 0.77847 0.77362 0.36401 0.0
C698 C 0.2437 0.02301 0.37993 0.0
C699 C 0.21994 0.04018 0.3788 0.0
H700 H 0.25245 0.97609 0.36594 0.0
C701 C 0.18518 0.02167 0.36285 0.0
H702 H 0.27094 0.03712 0.39182 0.0
C703 C 0.17405 0.9862 0.34854 0.0
C704 C 0.19789 0.96907 0.34958 0.0
H705 H 0.16649 0.0345 0.36163 0.0
H706 H 0.14687 0.97229 0.3366 0.0
C707 C 0.23305 0.98808 0.36519 0.0
C708 C 0.52546 0.66787 0.32218 0.0
C709 C 0.53974 0.64916 0.30674 0.0
H710 H 0.53974 0.71743 0.3482 0.0
C711 C 0.58051 0.66541 0.30707 0.0
H712 H 0.4942 0.65597 0.32227 0.0
C713 C 0.60648 0.70006 0.32214 0.0
C714 C 0.59231 0.71974 0.33681 0.0
H715 H 0.59232 0.65128 0.29559 0.0
H716 H 0.6377 0.7117 0.32205 0.0
C717 C 0.55153 0.70302 0.33695 0.0
C718 C 0.33066 0.89631 0.27425 0.0
C719 C 0.36384 0.90662 0.2905 0.0
H720 H 0.27105 0.88287 0.27022 0.0
C721 C 0.36264 0.91412 0.31575 0.0
H722 H 0.33062 0.8901 0.25472 0.0
C723 C 0.32858 0.91012 0.32467 0.0
C724 C 0.29482 0.89817 0.30855 0.0
H725 H 0.38793 0.92252 0.32868 0.0
H726 H 0.32841 0.91523 0.34429 0.0
C727 C 0.29646 0.89195 0.28319 0.0
C728 C 0.11657 0.45075 0.31026 0.0
C729 C 0.14017 0.49224 0.31228 0.0
H730 H 0.10757 0.39643 0.32338 0.0
C731 C 0.17501 0.51063 0.32821 0.0
H732 H 0.0893 0.43594 0.2984 0.0
C733 C 0.1858 0.4881 0.34213 0.0
C734 C 0.16172 0.44671 0.34069 0.0
H735 H 0.19367 0.54262 0.33013 0.0
H736 H 0.21273 0.50321 0.35433 0.0
C737 C 0.12705 0.42821 0.32456 0.0
C738 C 0.32936 0.47039 0.29846 0.0
C739 C 0.36416 0.48479 0.31387 0.0
H740 H 0.26665 0.43697 0.29504 0.0
C741 C 0.36225 0.47812 0.33875 0.0
H742 H 0.33027 0.47479 0.2791 0.0
C743 C 0.32582 0.45629 0.34799 0.0
C744 C 0.29071 0.44047 0.33239 0.0
H745 H 0.38887 0.48854 0.35085 0.0
H746 H 0.32525 0.45076 0.36715 0.0
C747 C 0.29297 0.44849 0.30761 0.0
C748 C 0.54441 0.84611 0.28919 0.0
C749 C 0.53431 0.86909 0.30423 0.0
H750 H 0.58171 0.8214 0.28558 0.0
C751 C 0.55612 0.88735 0.32694 0.0
H752 H 0.52746 0.83134 0.27173 0.0
C753 C 0.58677 0.88142 0.33506 0.0
C754 C 0.5961 0.85702 0.32057 0.0
H755 H 0.54836 0.90481 0.33892 0.0
H756 H 0.6023 0.89499 0.35303 0.0
C757 C 0.57527 0.84029 0.29723 0.0
C758 C 0.11146 0.69447 0.31251 0.0
C759 C 0.13631 0.67878 0.31531 0.0
H760 H 0.10643 0.74666 0.31641 0.0
C761 C 0.17636 0.70427 0.32227 0.0
H762 H 0.08033 0.67504 0.30737 0.0
C763 C 0.1912 0.74489 0.32764 0.0
C764 C 0.16614 0.7606 0.32614 0.0
H765 H 0.19588 0.69255 0.32471 0.0
H766 H 0.22203 0.76377 0.33391 0.0
C767 C 0.12635 0.73528 0.31774 0.0
C768 C 0.83216 0.98653 0.36223 0.0
C769 C 0.81812 0.01148 0.36983 0.0
H770 H 0.81767 0.92795 0.34862 0.0
C771 C 0.77783 0.99551 0.37139 0.0
H772 H 0.86316 0.99847 0.3607 0.0
C773 C 0.75165 0.95502 0.36451 0.0
C774 C 0.76557 0.93037 0.35566 0.0
H775 H 0.76649 0.01453 0.37698 0.0
H776 H 0.72051 0.94342 0.3651 0.0
C777 C 0.80612 0.94632 0.35518 0.0
C778 C 0.02977 0.81412 0.39563 0.0
C779 C 0.99521 0.79179 0.37984 0.0
H780 H 0.09255 0.84737 0.39902 0.0
C781 C 0.99742 0.78767 0.35453 0.0
H782 H 0.0286 0.8172 0.4153 0.0
C783 C 0.03393 0.80468 0.34513 0.0
C784 C 0.06889 0.82591 0.36095 0.0
H785 H 0.971 0.77009 0.3421 0.0
H786 H 0.0347 0.8001 0.32554 0.0
C787 C 0.06633 0.83114 0.38628 0.0
C788 C 0.18686 0.21025 0.36997 0.0
C789 C 0.22548 0.22794 0.38084 0.0
H790 H 0.1419 0.21943 0.35363 0.0
C791 C 0.24804 0.26936 0.38539 0.0
H792 H 0.16918 0.1783 0.36612 0.0
C793 C 0.23258 0.29299 0.3782 0.0
C794 C 0.19449 0.2754 0.36617 0.0
H795 H 0.27812 0.28349 0.39355 0.0
H796 H 0.25098 0.32497 0.38111 0.0
C797 C 0.17142 0.2338 0.36273 0.0
C798 C 0.65588 0.56733 0.70548 0.0
C799 C 0.6541 0.55367 0.72886 0.0
H800 H 0.69175 0.60524 0.67973 0.0
C801 C 0.68861 0.57095 0.74506 0.0
H802 H 0.62973 0.55531 0.69271 0.0
C803 C 0.72429 0.59997 0.73766 0.0
C804 C 0.72627 0.6123 0.71387 0.0
H805 H 0.68837 0.56099 0.76313 0.0
H806 H 0.75046 0.61185 0.75037 0.0
C807 C 0.69148 0.59614 0.69806 0.0
C808 C 0.47791 0.13778 0.74311 0.0
C809 C 0.48761 0.11203 0.73055 0.0
H810 H 0.4425 0.16471 0.74311 0.0
C811 C 0.46911 0.09496 0.70675 0.0
H812 H 0.49206 0.15203 0.76126 0.0
C813 C 0.44069 0.10254 0.69615 0.0
C814 C 0.43006 0.12717 0.70918 0.0
H815 H 0.47558 0.07468 0.69665 0.0
H816 H 0.42645 0.08841 0.67799 0.0
C817 C 0.44943 0.14508 0.73264 0.0
C818 C 0.84899 0.35288 0.69586 0.0
C819 C 0.88403 0.37149 0.71154 0.0
H820 H 0.8109 0.30399 0.66922 0.0
C821 C 0.90868 0.35535 0.71165 0.0
H822 H 0.82968 0.36503 0.69541 0.0
C823 C 0.89854 0.32121 0.69625 0.0
C824 C 0.863 0.30191 0.681 0.0
H825 H 0.93615 0.36961 0.72333 0.0
H826 H 0.91857 0.30996 0.69627 0.0
C827 C 0.83836 0.31813 0.68088 0.0
C828 C 0.18809 0.99891 0.65285 0.0
C829 C 0.20216 0.98032 0.63713 0.0
H830 H 0.20258 0.04847 0.67891 0.0
C831 C 0.2429 0.9973 0.63666 0.0
H832 H 0.15686 0.98646 0.65357 0.0
C833 C 0.26902 0.03229 0.65141 0.0
C834 C 0.25499 0.05155 0.66659 0.0
H835 H 0.2546 0.98328 0.62499 0.0
H836 H 0.30022 0.04434 0.65084 0.0
C837 C 0.21426 0.03438 0.66729 0.0
C838 C 0.02912 0.24968 0.64749 0.0
C839 C 0.03024 0.24135 0.62233 0.0
H840 H 0.99486 0.25129 0.67586 0.0
C841 C 0.99693 0.23034 0.60603 0.0
H842 H 0.05452 0.2587 0.66046 0.0
C843 C 0.96266 0.22597 0.61486 0.0
C844 C 0.96106 0.23284 0.64016 0.0
H845 H 0.99682 0.22351 0.58658 0.0
H846 H 0.93715 0.21631 0.60186 0.0
C847 C 0.99497 0.24561 0.6563 0.0
C848 C 0.84089 0.84108 0.66088 0.0
C849 C 0.80558 0.82337 0.64544 0.0
H850 H 0.87856 0.83271 0.68641 0.0
C851 C 0.78144 0.7819 0.6433 0.0
H852 H 0.86011 0.87299 0.66281 0.0
C853 C 0.79175 0.7588 0.65716 0.0
C854 C 0.82662 0.77675 0.67308 0.0
H855 H 0.75386 0.76758 0.63175 0.0
H856 H 0.77195 0.72706 0.65589 0.0
C857 C 0.85137 0.81804 0.67445 0.0
C858 C 0.9923 0.79556 0.63065 0.0
C859 C 0.02683 0.81253 0.64665 0.0
H860 H 0.92966 0.76001 0.62665 0.0
C861 C 0.02443 0.80805 0.67178 0.0
H862 H 0.99364 0.79828 0.6111 0.0
C863 C 0.98787 0.78596 0.68077 0.0
C864 C 0.95307 0.76773 0.6647 0.0
H865 H 0.05085 0.8205 0.68436 0.0
H866 H 0.98704 0.78233 0.70021 0.0
C867 C 0.95573 0.77344 0.63958 0.0
C868 C 0.22254 0.22113 0.66017 0.0
C869 C 0.20091 0.20374 0.63732 0.0
H870 H 0.26806 0.22727 0.68624 0.0
C871 C 0.21071 0.1808 0.62199 0.0
H872 H 0.21502 0.23855 0.67237 0.0
C873 C 0.24112 0.17419 0.62988 0.0
C874 C 0.26168 0.19001 0.65337 0.0
H875 H 0.19386 0.16668 0.6044 0.0
H876 H 0.24732 0.15532 0.61803 0.0
C877 C 0.25266 0.21436 0.66815 0.0
C878 C 0.84556 0.03965 0.6553 0.0
C879 C 0.80544 0.01323 0.64927 0.0
H880 H 0.8906 0.09986 0.66564 0.0
C881 C 0.77969 0.02789 0.64667 0.0
H882 H 0.86578 0.02873 0.65757 0.0
C883 C 0.79383 0.06867 0.65123 0.0
C884 C 0.83377 0.09495 0.65878 0.0
H885 H 0.7485 0.00773 0.64226 0.0
H886 H 0.77329 0.0793 0.65013 0.0
C887 C 0.85964 0.08022 0.66002 0.0
C888 C 0.4973 0.31751 0.69796 0.0
C889 C 0.48301 0.34238 0.70524 0.0
H890 H 0.48315 0.25901 0.68441 0.0
C891 C 0.44263 0.32634 0.70641 0.0
H892 H 0.52839 0.32952 0.69673 0.0
C893 C 0.41661 0.28587 0.69938 0.0
C894 C 0.43079 0.26133 0.69078 0.0
H895 H 0.43111 0.34531 0.71173 0.0
H896 H 0.3854 0.27425 0.6996 0.0
C897 C 0.47141 0.2773 0.69078 0.0
C898 C 0.69468 0.14379 0.72678 0.0
C899 C 0.66041 0.12252 0.71062 0.0
H900 H 0.7575 0.1769 0.7307 0.0
C901 C 0.66314 0.12004 0.6853 0.0
H902 H 0.69307 0.14562 0.74645 0.0
C903 C 0.69986 0.13764 0.67621 0.0
C904 C 0.73455 0.15789 0.69234 0.0
H905 H 0.63694 0.10335 0.67258 0.0
H906 H 0.701 0.13436 0.65656 0.0
C907 C 0.73149 0.16148 0.71773 0.0
C908 C 0.9108 0.59924 0.72074 0.0
C909 C 0.88859 0.5578 0.71637 0.0
H910 H 0.9131 0.65445 0.71614 0.0
C911 C 0.84988 0.53963 0.70557 0.0
H912 H 0.94092 0.61373 0.72886 0.0
C913 C 0.83402 0.56275 0.69821 0.0
C914 C 0.85678 0.60438 0.70143 0.0
H915 H 0.83248 0.50763 0.70187 0.0
H916 H 0.80445 0.54805 0.68914 0.0
C917 C 0.89494 0.62244 0.7134 0.0
C918 C 0.46739 0.98088 0.22507 0.0
C919 C 0.46335 0.94388 0.22909 0.0
H920 H 0.48266 0.02617 0.20069 0.0
C921 C 0.4732 0.92456 0.21084 0.0
H922 H 0.46039 0.99674 0.23882 0.0
C923 C 0.48615 0.94155 0.18895 0.0
C924 C 0.48985 0.97841 0.18486 0.0
H925 H 0.47008 0.89586 0.21324 0.0
H926 H 0.49349 0.9259 0.17527 0.0
C927 C 0.4805 0.99793 0.20328 0.0
C928 C 0.10843 0.56667 0.22295 0.0
C929 C 0.09666 0.53309 0.23591 0.0
H930 H 0.10434 0.58933 0.18894 0.0
C931 C 0.07262 0.49532 0.22309 0.0
H932 H 0.12761 0.59619 0.23208 0.0
C933 C 0.05917 0.49136 0.19824 0.0
C934 C 0.06947 0.5251 0.18564 0.0
H935 H 0.06277 0.46883 0.23252 0.0
H936 H 0.03934 0.46193 0.18922 0.0
C937 C 0.09504 0.56274 0.19819 0.0
C938 C 0.54335 0.59567 0.21583 0.0
C939 C 0.5046 0.57775 0.22212 0.0
H940 H 0.5812 0.60692 0.18733 0.0
C941 C 0.47367 0.55815 0.20324 0.0
H942 H 0.56789 0.61045 0.22991 0.0
C943 C 0.4813 0.55618 0.17872 0.0
C944 C 0.52007 0.57373 0.17247 0.0
H945 H 0.44348 0.54451 0.20739 0.0
H946 H 0.45678 0.54113 0.16465 0.0
C947 C 0.55097 0.59366 0.19135 0.0
C948 C 0.90286 0.41686 0.80827 0.0
C949 C 0.92493 0.44897 0.79465 0.0
H950 H 0.89668 0.393 0.8431 0.0
C951 C 0.95788 0.48302 0.80683 0.0
H952 H 0.87695 0.3904 0.79965 0.0
C953 C 0.9689 0.48461 0.83178 0.0
C954 C 0.94747 0.45212 0.84519 0.0
H955 H 0.9761 0.50804 0.79693 0.0
H956 H 0.99513 0.51083 0.84034 0.0
C957 C 0.91408 0.41836 0.83321 0.0
C958 C 0.51551 0.47273 0.79201 0.0
C959 C 0.55556 0.48725 0.78988 0.0
H960 H 0.47121 0.46337 0.81568 0.0
C961 C 0.58197 0.5037 0.8113 0.0
H962 H 0.49431 0.4603 0.77594 0.0
C963 C 0.56874 0.50614 0.83414 0.0
C964 C 0.52875 0.49215 0.83617 0.0
H965 H 0.61296 0.51479 0.81044 0.0
H966 H 0.59003 0.51976 0.85013 0.0
C967 C 0.50229 0.47504 0.81481 0.0
C968 C 0.52906 0.03668 0.8136 0.0
C969 C 0.52902 0.07042 0.80602 0.0
H970 H 0.52078 0.99948 0.84253 0.0
C971 C 0.52219 0.09393 0.82315 0.0
H972 H 0.53355 0.01751 0.80083 0.0
C973 C 0.51454 0.08337 0.84702 0.0
C974 C 0.51383 0.04922 0.85439 0.0
H975 H 0.52262 0.12049 0.81808 0.0
H976 H 0.50913 0.10193 0.85971 0.0
C977 C 0.52166 0.02628 0.83751 0.0
C978 C 0.10313 0.26933 0.53986 0.0
C979 C 0.12897 0.27546 0.56058 0.0
H980 H 0.09663 0.2819 0.5029 0.0
C981 C 0.16953 0.299 0.55911 0.0
H982 H 0.07174 0.25096 0.54025 0.0
C983 C 0.18383 0.31662 0.53761 0.0
C984 C 0.15793 0.31086 0.51699 0.0
H985 H 0.19021 0.30447 0.57476 0.0
H986 H 0.21522 0.33469 0.53711 0.0
C987 C 0.11742 0.28672 0.51834 0.0
C988 C 0.77305 0.85338 0.55322 0.0
C989 C 0.75489 0.86307 0.57152 0.0
H990 H 0.77451 0.84172 0.51465 0.0
C991 C 0.72284 0.86766 0.56427 0.0
H992 H 0.79793 0.8498 0.55813 0.0
C993 C 0.70974 0.86348 0.53946 0.0
C994 C 0.72808 0.85429 0.52107 0.0
H995 H 0.70768 0.87449 0.57781 0.0
H996 H 0.68556 0.86822 0.53471 0.0
C997 C 0.75988 0.84915 0.52827 0.0
C998 C 0.16542 0.86855 0.54452 0.0
C999 C 0.16459 0.90194 0.55462 0.0
H1000 H 0.17399 0.83982 0.51308 0.0
C1001 C 0.17158 0.93246 0.53967 0.0
H1002 H 0.16064 0.8447 0.55556 0.0
C1003 C 0.17954 0.92977 0.51528 0.0
C1004 C 0.18096 0.89662 0.50534 0.0
H1005 H 0.17085 0.95843 0.54681 0.0
H1006 H 0.18549 0.95409 0.50439 0.0
C1007 C 0.17351 0.86593 0.52022 0.0
C1008 C 0.62814 0.8167 0.13967 0.0
C1009 C 0.59435 0.78302 0.12791 0.0
H1010 H 0.66653 0.84436 0.17279 0.0
C1011 C 0.57194 0.75157 0.14189 0.0
H1012 H 0.64656 0.8412 0.12946 0.0
C1013 C 0.58363 0.75328 0.16675 0.0
C1014 C 0.61789 0.7866 0.17831 0.0
H1015 H 0.54541 0.72543 0.13358 0.0
H1016 H 0.5659 0.72842 0.17692 0.0
C1017 C 0.63968 0.81851 0.16455 0.0
C1018 C 0.18291 0.80714 0.1253 0.0
C1019 C 0.22193 0.81724 0.1229 0.0
H1020 H 0.14051 0.80265 0.14924 0.0
C1021 C 0.24854 0.83098 0.14423 0.0
H1022 H 0.16163 0.79705 0.10934 0.0
C1023 C 0.2365 0.83506 0.16726 0.0
C1024 C 0.19757 0.82551 0.16951 0.0
H1025 H 0.27872 0.83868 0.14317 0.0
H1026 H 0.25793 0.84651 0.18321 0.0
C1027 C 0.17089 0.81101 0.14824 0.0
C1028 C 0.20882 0.38352 0.14989 0.0
C1029 C 0.20806 0.41669 0.14187 0.0
H1030 H 0.20131 0.34727 0.17925 0.0
C1031 C 0.20245 0.44117 0.15897 0.0
H1032 H 0.21241 0.3636 0.13719 0.0
C1033 C 0.19565 0.4315 0.18308 0.0
C1034 C 0.19465 0.39733 0.19072 0.0
H1035 H 0.20238 0.46733 0.15356 0.0
H1036 H 0.19047 0.45039 0.19565 0.0
C1037 C 0.20231 0.37403 0.17403 0.0
C1038 C 0.83426 0.63112 0.89257 0.0
C1039 C 0.79369 0.60782 0.89403 0.0
H1040 H 0.88007 0.66664 0.87057 0.0
C1041 C 0.7679 0.60196 0.87335 0.0
H1042 H 0.85489 0.63636 0.9082 0.0
C1043 C 0.78227 0.61933 0.85184 0.0
C1044 C 0.82282 0.6432 0.85048 0.0
H1045 H 0.73649 0.58378 0.87375 0.0
H1046 H 0.76154 0.61468 0.83641 0.0
C1047 C 0.84865 0.64876 0.87108 0.0
C1048 C 0.44008 0.18676 0.88499 0.0
C1049 C 0.42166 0.1957 0.90347 0.0
H1050 H 0.44298 0.17816 0.84626 0.0
C1051 C 0.38979 0.2007 0.89643 0.0
H1052 H 0.46481 0.18289 0.88977 0.0
C1053 C 0.37736 0.19802 0.87165 0.0
C1054 C 0.39639 0.19027 0.85309 0.0
H1055 H 0.37424 0.2066 0.91013 0.0
H1056 H 0.35256 0.20186 0.86705 0.0
C1057 C 0.42758 0.18408 0.86006 0.0
C1058 C 0.83801 0.26745 0.87179 0.0
C1059 C 0.83021 0.2363 0.88637 0.0
H1060 H 0.85297 0.29013 0.83685 0.0
C1061 C 0.83108 0.20307 0.87599 0.0
H1062 H 0.83732 0.29335 0.87915 0.0
C1063 C 0.83972 0.20109 0.85177 0.0
C1064 C 0.84776 0.23229 0.83722 0.0
H1065 H 0.82574 0.17875 0.88674 0.0
H1066 H 0.84004 0.17499 0.8444 0.0
C1067 C 0.84655 0.26541 0.84747 0.0
C1068 C 0.2426 0.09304 0.47487 0.0
C1069 C 0.26493 0.12317 0.46004 0.0
H1070 H 0.23808 0.07156 0.51036 0.0
C1071 C 0.29973 0.1567 0.47084 0.0
H1072 H 0.21545 0.06698 0.46721 0.0
C1073 C 0.31253 0.15945 0.49559 0.0
C1074 C 0.29086 0.12877 0.51022 0.0
H1075 H 0.31789 0.1803 0.45996 0.0
H1076 H 0.33976 0.18544 0.50321 0.0
C1077 C 0.25536 0.09584 0.49968 0.0
C1078 C 0.85154 0.14221 0.45675 0.0
C1079 C 0.89154 0.15644 0.45462 0.0
H1080 H 0.80731 0.13318 0.4804 0.0
C1081 C 0.91794 0.1727 0.47606 0.0
H1082 H 0.83035 0.12994 0.44067 0.0
C1083 C 0.90474 0.17523 0.49891 0.0
C1084 C 0.86479 0.16155 0.50093 0.0
H1085 H 0.94889 0.18355 0.47521 0.0
H1086 H 0.92602 0.18869 0.51491 0.0
C1087 C 0.83836 0.14463 0.47955 0.0
C1088 C 0.88731 0.74393 0.49242 0.0
C1089 C 0.85698 0.7347 0.47395 0.0
H1090 H 0.90263 0.73921 0.52979 0.0
C1091 C 0.81794 0.71336 0.47957 0.0
H1092 H 0.91769 0.76056 0.48868 0.0
C1093 C 0.80937 0.70141 0.50304 0.0
C1094 C 0.8396 0.71043 0.5215 0.0
H1095 H 0.79387 0.70535 0.4657 0.0
H1096 H 0.77895 0.6852 0.50674 0.0
C1097 C 0.87871 0.73205 0.516 0.0
loop_
_geom_bond_atom_site_label_1
_geom_bond_atom_site_label_2
_geom_bond_distance
_geom_bond_site_symmetry_2
_ccdc_geom_bond_type
H0 C3 0.929 . S
H1 C6 0.929 . S
H2 C8 0.930 . S
C3 H0 0.929 . S
C3 C4 1.398 . S
C3 C5 1.396 . S
C4 C3 1.398 . S
C4 C8 1.407 . S
C5 C3 1.396 . S
C5 C6 1.394 . S
C6 H1 0.929 . S
C6 C5 1.394 . S
C6 C7 1.382 . S
C7 C6 1.382 . S
C7 C8 1.392 . S
C7 N9 1.420 . S
C8 H2 0.930 . S
C8 C4 1.407 . S
C8 C7 1.392 . S
N9 C7 1.420 . S
N9 C10 1.244 . S
C10 N9 1.244 . S
H11 C14 0.929 . S
H12 C17 0.929 . S
H13 C19 0.930 . S
C14 H11 0.929 . S
C14 C15 1.398 . S
C14 C16 1.396 . S
C15 C14 1.398 . S
C15 C19 1.407 . S
C16 C14 1.396 . S
C16 C17 1.394 . S
C17 H12 0.929 . S
C17 C16 1.394 . S
C17 C18 1.382 . S
C18 C17 1.382 . S
C18 C19 1.392 . S
C18 N20 1.420 . S
C19 H13 0.930 . S
C19 C15 1.407 . S
C19 C18 1.392 . S
N20 C18 1.420 . S
N20 C21 1.244 . S
C21 N20 1.244 . S
H22 C25 0.929 . S
H23 C28 0.929 . S
H24 C30 0.930 . S
C25 H22 0.929 . S
C25 C26 1.398 . S
C25 C27 1.396 . S
C26 C25 1.398 . S
C26 C30 1.407 . S
C27 C25 1.396 . S
C27 C28 1.394 . S
C28 H23 0.929 . S
C28 C27 1.394 . S
C28 C29 1.382 . S
C29 C28 1.382 . S
C29 C30 1.392 . S
C29 N31 1.420 . S
C30 H24 0.930 . S
C30 C26 1.407 . S
C30 C29 1.392 . S
N31 C29 1.420 . S
N31 C32 1.244 . S
C32 N31 1.244 . S
H33 C36 0.929 . S
H34 C39 0.929 . S
H35 C41 0.930 . S
C36 H33 0.929 . S
C36 C37 1.398 . S
C36 C38 1.396 . S
C37 C36 1.398 . S
C37 C41 1.407 . S
C38 C36 1.396 . S
C38 C39 1.394 . S
C39 H34 0.929 . S
C39 C38 1.394 . S
C39 C40 1.382 . S
C40 C39 1.382 . S
C40 C41 1.392 . S
C40 N42 1.420 . S
C41 H35 0.930 . S
C41 C37 1.407 . S
C41 C40 1.392 . S
N42 C40 1.420 . S
N42 C43 1.244 . S
C43 N42 1.244 . S
H44 C47 0.929 . S
H45 C50 0.929 . S
H46 C52 0.930 . S
C47 H44 0.929 . S
C47 C48 1.398 . S
C47 C49 1.396 . S
C48 C47 1.398 . S
C48 C52 1.407 . S
C49 C47 1.396 . S
C49 C50 1.394 . S
C50 H45 0.929 . S
C50 C49 1.394 . S
C50 C51 1.382 . S
C51 C50 1.382 . S
C51 C52 1.392 . S
C51 N53 1.420 . S
C52 H46 0.930 . S
C52 C48 1.407 . S
C52 C51 1.392 . S
N53 C51 1.420 . S
N53 C54 1.244 . S
C54 N53 1.244 . S
H55 C58 0.929 . S
H56 C61 0.929 . S
H57 C63 0.930 . S
C58 H55 0.929 . S
C58 C59 1.398 . S
C58 C60 1.396 . S
C59 C58 1.398 . S
C59 C63 1.407 . S
C60 C58 1.396 . S
C60 C61 1.394 . S
C61 H56 0.929 . S
C61 C60 1.394 . S
C61 C62 1.382 . S
C62 C61 1.382 . S
C62 C63 1.392 . S
C62 N64 1.420 . S
C63 H57 0.930 . S
C63 C59 1.407 . S
C63 C62 1.392 . S
N64 C62 1.420 . S
N64 C65 1.244 . S
C65 N64 1.244 . S
H66 C69 0.929 . S
H67 C72 0.929 . S
H68 C74 0.930 . S
C69 H66 0.929 . S
C69 C70 1.398 . S
C69 C71 1.396 . S
C70 C69 1.398 . S
C70 C74 1.407 . S
C71 C69 1.396 . S
C71 C72 1.394 . S
C72 H67 0.929 . S
C72 C71 1.394 . S
C72 C73 1.382 . S
C73 C72 1.382 . S
C73 C74 1.392 . S
C73 N75 1.420 . S
C74 H68 0.930 . S
C74 C70 1.407 . S
C74 C73 1.392 . S
N75 C73 1.420 . S
N75 C76 1.244 . S
C76 N75 1.244 . S
H77 C80 0.929 . S
H78 C83 0.929 . S
H79 C85 0.930 . S
C80 H77 0.929 . S
C80 C81 1.398 . S
C80 C82 1.396 . S
C81 C80 1.398 . S
C81 C85 1.407 . S
C82 C80 1.396 . S
C82 C83 1.394 . S
C83 H78 0.929 . S
C83 C82 1.394 . S
C83 C84 1.382 . S
C84 C83 1.382 . S
C84 C85 1.392 . S
C84 N86 1.420 . S
C85 H79 0.930 . S
C85 C81 1.407 . S
C85 C84 1.392 . S
N86 C84 1.420 . S
N86 C87 1.244 . S
C87 N86 1.244 . S
H88 C91 0.929 . S
H89 C94 0.929 . S
H90 C96 0.930 . S
C91 H88 0.929 . S
C91 C92 1.398 . S
C91 C93 1.396 . S
C92 C91 1.398 . S
C92 C96 1.407 . S
C93 C91 1.396 . S
C93 C94 1.394 . S
C94 H89 0.929 . S
C94 C93 1.394 . S
C94 C95 1.382 . S
C95 C94 1.382 . S
C95 C96 1.392 . S
C95 N97 1.420 . S
C96 H90 0.930 . S
C96 C92 1.407 . S
C96 C95 1.392 . S
N97 C95 1.420 . S
N97 C98 1.244 . S
C98 N97 1.244 . S
H99 C102 0.929 . S
H100 C105 0.929 . S
H101 C107 0.930 . S
C102 H99 0.929 . S
C102 C103 1.398 . S
C102 C104 1.396 . S
C103 C102 1.398 . S
C103 C107 1.407 . S
C104 C102 1.396 . S
C104 C105 1.394 . S
C105 H100 0.929 . S
C105 C104 1.394 . S
C105 C106 1.382 . S
C106 C105 1.382 . S
C106 C107 1.392 . S
C106 N108 1.420 . S
C107 H101 0.930 . S
C107 C103 1.407 . S
C107 C106 1.392 . S
N108 C106 1.420 . S
N108 C109 1.244 . S
C109 N108 1.244 . S
H110 C113 0.929 . S
H111 C116 0.929 . S
H112 C118 0.930 1_554 S
C113 H110 0.929 . S
C113 C114 1.398 . S
C113 C115 1.396 . S
C114 C113 1.398 . S
C114 C118 1.407 . S
C115 C113 1.396 . S
C115 C116 1.394 . S
C116 H111 0.929 . S
C116 C115 1.394 . S
C116 C117 1.382 . S
C117 C116 1.382 . S
C117 C118 1.392 . S
C117 N119 1.420 . S
C118 H112 0.930 1_556 S
C118 C114 1.407 . S
C118 C117 1.392 . S
N119 C117 1.420 . S
N119 C120 1.244 . S
C120 N119 1.244 . S
H121 C124 0.929 . S
H122 C127 0.929 . S
H123 C129 0.930 . S
C124 H121 0.929 . S
C124 C125 1.398 . S
C124 C126 1.396 . S
C125 C124 1.398 . S
C125 C129 1.407 . S
C126 C124 1.396 . S
C126 C127 1.394 . S
C127 H122 0.929 . S
C127 C126 1.394 . S
C127 C128 1.382 . S
C128 C127 1.382 . S
C128 C129 1.392 . S
C128 N130 1.420 . S
C129 H123 0.930 . S
C129 C125 1.407 . S
C129 C128 1.392 . S
N130 C128 1.420 . S
N130 C131 1.244 . S
C131 N130 1.244 . S
H132 C135 0.929 . S
H133 C138 0.929 . S
H134 C140 0.930 . S
C135 H132 0.929 . S
C135 C136 1.398 . S
C135 C137 1.396 . S
C136 C135 1.398 . S
C136 C140 1.407 . S
C137 C135 1.396 . S
C137 C138 1.394 . S
C138 H133 0.929 . S
C138 C137 1.394 . S
C138 C139 1.382 . S
C139 C138 1.382 . S
C139 C140 1.392 . S
C139 N141 1.420 . S
C140 H134 0.930 . S
C140 C136 1.407 . S
C140 C139 1.392 . S
N141 C139 1.420 . S
N141 C142 1.244 . S
C142 N141 1.244 . S
H143 C146 0.929 . S
H144 C149 0.929 . S
H145 C151 0.930 . S
C146 H143 0.929 . S
C146 C147 1.398 . S
C146 C148 1.396 . S
C147 C146 1.398 . S
C147 C151 1.407 . S
C148 C146 1.396 . S
C148 C149 1.394 . S
C149 H144 0.929 . S
C149 C148 1.394 . S
C149 C150 1.382 . S
C150 C149 1.382 . S
C150 C151 1.392 . S
C150 N152 1.420 . S
C151 H145 0.930 . S
C151 C147 1.407 . S
C151 C150 1.392 . S
N152 C150 1.420 . S
N152 C153 1.244 . S
C153 N152 1.244 . S
H154 C157 0.929 . S
H155 C160 0.929 . S
H156 C162 0.930 . S
C157 H154 0.929 . S
C157 C158 1.398 . S
C157 C159 1.396 . S
C158 C157 1.398 . S
C158 C162 1.407 . S
C159 C157 1.396 . S
C159 C160 1.394 . S
C160 H155 0.929 . S
C160 C159 1.394 . S
C160 C161 1.382 . S
C161 C160 1.382 . S
C161 C162 1.392 . S
C161 N163 1.420 . S
C162 H156 0.930 . S
C162 C158 1.407 . S
C162 C161 1.392 . S
N163 C161 1.420 . S
N163 C164 1.244 . S
C164 N163 1.244 . S
H165 C168 0.929 . S
H166 C171 0.929 . S
H167 C173 0.930 . S
C168 H165 0.929 . S
C168 C169 1.398 . S
C168 C170 1.396 . S
C169 C168 1.398 . S
C169 C173 1.407 . S
C170 C168 1.396 . S
C170 C171 1.394 . S
C171 H166 0.929 . S
C171 C170 1.394 . S
C171 C172 1.382 . S
C172 C171 1.382 . S
C172 C173 1.392 . S
C172 N174 1.420 . S
C173 H167 0.930 . S
C173 C169 1.407 . S
C173 C172 1.392 . S
N174 C172 1.420 . S
N174 C175 1.244 . S
C175 N174 1.244 . S
H176 C179 0.929 . S
H177 C182 0.929 . S
H178 C184 0.930 . S
C179 H176 0.929 . S
C179 C180 1.398 . S
C179 C181 1.396 . S
C180 C179 1.398 . S
C180 C184 1.407 . S
C181 C179 1.396 . S
C181 C182 1.394 . S
C182 H177 0.929 . S
C182 C181 1.394 . S
C182 C183 1.382 . S
C183 C182 1.382 . S
C183 C184 1.392 . S
C183 N185 1.420 . S
C184 H178 0.930 . S
C184 C180 1.407 . S
C184 C183 1.392 . S
N185 C183 1.420 . S
N185 C186 1.244 . S
C186 N185 1.244 . S
H187 C190 0.929 . S
H188 C193 0.929 . S
H189 C195 0.930 . S
C190 H187 0.929 . S
C190 C191 1.398 . S
C190 C192 1.396 . S
C191 C190 1.398 . S
C191 C195 1.407 . S
C192 C190 1.396 . S
C192 C193 1.394 . S
C193 H188 0.929 . S
C193 C192 1.394 . S
C193 C194 1.382 . S
C194 C193 1.382 . S
C194 C195 1.392 . S
C194 N196 1.420 . S
C195 H189 0.930 . S
C195 C191 1.407 . S
C195 C194 1.392 . S
N196 C194 1.420 . S
N196 C197 1.244 . S
C197 N196 1.244 . S
C198 Eu199 2.835 . S
C198 C200 1.500 1_545 S
C198 O218 1.257 1_545 S
C198 O219 1.260 . S
Eu199 C198 2.835 . S
Eu199 O218 2.473 1_545 S
Eu199 O219 2.480 . S
Eu199 O220 2.430 . S
Eu199 O221 2.670 1_554 S
Eu199 O222 2.394 1_545 S
Eu199 O227 2.355 1_545 S
Eu199 O229 2.374 . S
C200 C198 1.500 1_565 S
C200 C201 1.377 1_565 S
C200 C205 1.377 . S
C201 C200 1.377 1_545 S
C201 C202 1.395 . S
C201 H230 0.931 . S
C202 C201 1.395 . S
C202 C203 1.383 1_545 S
C202 H231 0.931 . S
C203 C202 1.383 1_565 S
C203 C204 1.394 . S
C204 C203 1.394 . S
C204 C205 1.378 . S
C204 H232 0.931 . S
C205 C200 1.377 . S
C205 C204 1.378 . S
C205 H233 0.931 . S
C206 O220 1.259 . S
C206 O221 1.270 1_554 S
C207 O222 1.251 . S
C207 O223 1.251 1_554 S
C208 Eu209 2.835 1_545 S
C208 C210 1.500 . S
C208 O224 1.257 . S
C208 O225 1.260 1_545 S
Eu209 C208 2.835 1_565 S
Eu209 O221 2.355 1_565 S
Eu209 O223 2.374 . S
Eu209 O224 2.473 1_565 S
Eu209 O225 2.480 . S
Eu209 O226 2.430 . S
Eu209 O227 2.670 1_556 S
Eu209 O228 2.394 1_565 S
C210 C208 1.500 . S
C210 C211 1.367 1_545 S
C210 C215 1.377 . S
C211 C210 1.367 1_565 S
C211 C212 1.393 1_565 S
C211 H234 0.943 . S
C212 C211 1.393 1_545 S
C212 C213 1.383 . S
C212 H235 0.931 1_545 S
C213 C212 1.383 . S
C213 C214 1.394 . S
C214 C213 1.394 . S
C214 C215 1.378 . S
C214 H236 0.931 . S
C215 C210 1.377 . S
C215 C214 1.378 . S
C215 H237 0.931 . S
C216 O226 1.259 1_554 S
C216 O227 1.270 . S
C217 O228 1.251 . S
C217 O229 1.251 1_556 S
O218 C198 1.257 1_565 S
O218 Eu199 2.473 1_565 S
O219 C198 1.260 . S
O219 Eu199 2.480 . S
O220 Eu199 2.430 . S
O220 C206 1.259 . S
O221 Eu199 2.670 1_556 S
O221 C206 1.270 1_556 S
O221 Eu209 2.355 1_545 S
O222 Eu199 2.394 1_565 S
O222 C207 1.251 . S
O223 C207 1.251 1_556 S
O223 Eu209 2.374 . S
O224 C208 1.257 . S
O224 Eu209 2.473 1_545 S
O225 C208 1.260 1_565 S
O225 Eu209 2.480 . S
O226 Eu209 2.430 . S
O226 C216 1.259 1_556 S
O227 Eu199 2.355 1_565 S
O227 Eu209 2.670 1_554 S
O227 C216 1.270 . S
O228 Eu209 2.394 1_545 S
O228 C217 1.251 . S
O229 Eu199 2.374 . S
O229 C217 1.251 1_554 S
H230 C201 0.931 . S
H231 C202 0.931 . S
H232 C204 0.931 . S
H233 C205 0.931 . S
H234 C211 0.943 . S
H235 C212 0.931 1_565 S
H236 C214 0.931 . S
H237 C215 0.931 . S
C238 Eu239 2.835 1_455 S
C238 C240 1.500 . S
C238 O258 1.257 . S
C238 O259 1.260 1_455 S
Eu239 C238 2.835 1_655 S
Eu239 O258 2.473 1_655 S
Eu239 O259 2.480 . S
Eu239 O260 2.430 . S
Eu239 O261 2.670 1_554 S
Eu239 O262 2.394 1_655 S
Eu239 O267 2.355 1_655 S
Eu239 O269 2.374 . S
C240 C238 1.500 . S
C240 C241 1.377 . S
C240 C245 1.377 . S
C241 C240 1.377 . S
C241 C242 1.395 . S
C241 H270 0.931 1_455 S
C242 C241 1.395 . S
C242 C243 1.383 . S
C242 H271 0.931 1_455 S
C243 C242 1.383 . S
C243 C244 1.394 . S
C244 C243 1.394 . S
C244 C245 1.378 . S
C244 H272 0.931 . S
C245 C240 1.377 . S
C245 C244 1.378 . S
C245 H273 0.931 . S
C246 O260 1.238 1_556 S
C246 O261 1.280 . S
C247 O262 1.251 . S
C247 O263 1.278 . S
C248 Eu249 2.835 1_655 S
C248 C250 1.500 . S
C248 O264 1.257 . S
C248 O265 1.260 1_655 S
Eu249 C248 2.835 1_455 S
Eu249 O261 2.355 1_455 S
Eu249 O263 2.356 1_556 S
Eu249 O264 2.473 1_455 S
Eu249 O265 2.480 . S
Eu249 O266 2.430 . S
Eu249 O267 2.670 1_556 S
Eu249 O268 2.394 1_455 S
C250 C248 1.500 . S
C250 C251 1.377 1_655 S
C250 C255 1.377 . S
C251 C250 1.377 1_455 S
C251 C252 1.395 1_455 S
C251 H274 0.931 . S
C252 C251 1.395 1_655 S
C252 C253 1.383 . S
C252 H275 0.931 1_655 S
C253 C252 1.383 . S
C253 C254 1.394 . S
C254 C253 1.394 . S
C254 C255 1.378 . S
C254 H276 0.931 . S
C255 C250 1.377 . S
C255 C254 1.378 . S
C255 H277 0.931 . S
C256 O266 1.259 1_554 S
C256 O267 1.270 . S
C257 O268 1.251 . S
C257 O269 1.251 1_556 S
O258 C238 1.257 . S
O258 Eu239 2.473 1_455 S
O259 C238 1.260 1_655 S
O259 Eu239 2.480 . S
O260 Eu239 2.430 . S
O260 C246 1.238 1_554 S
O261 Eu239 2.670 1_556 S
O261 C246 1.280 . S
O261 Eu249 2.355 1_655 S
O262 Eu239 2.394 1_455 S
O262 C247 1.251 . S
O263 C247 1.278 . S
O263 Eu249 2.356 1_554 S
O264 C248 1.257 . S
O264 Eu249 2.473 1_655 S
O265 C248 1.260 1_455 S
O265 Eu249 2.480 . S
O266 Eu249 2.430 . S
O266 C256 1.259 1_556 S
O267 Eu239 2.355 1_455 S
O267 Eu249 2.670 1_554 S
O267 C256 1.270 . S
O268 Eu249 2.394 1_655 S
O268 C257 1.251 . S
O269 Eu239 2.374 . S
O269 C257 1.251 1_554 S
H270 C241 0.931 1_655 S
H271 C242 0.931 1_655 S
H272 C244 0.931 . S
H273 C245 0.931 . S
H274 C251 0.931 . S
H275 C252 0.931 1_455 S
H276 C254 0.931 . S
H277 C255 0.931 . S
C278 Eu279 2.835 . S
C278 C280 1.500 . S
C278 O298 1.257 . S
C278 O299 1.260 . S
Eu279 C278 2.835 . S
Eu279 O298 2.473 . S
Eu279 O299 2.480 . S
Eu279 O300 2.430 . S
Eu279 O301 2.670 1_556 S
Eu279 O302 2.394 . S
Eu279 O307 2.355 . S
Eu279 O309 2.374 1_556 S
C280 C278 1.500 . S
C280 C281 1.377 . S
C280 C285 1.377 . S
C281 C280 1.377 . S
C281 C282 1.395 . S
C281 H310 0.931 . S
C282 C281 1.395 . S
C282 C283 1.383 . S
C282 H311 0.931 . S
C283 C282 1.383 . S
C283 C284 1.394 . S
C284 C283 1.394 . S
C284 C285 1.378 . S
C284 H312 0.931 . S
C285 C280 1.377 . S
C285 C284 1.378 . S
C285 H313 0.931 . S
C286 O300 1.259 1_554 S
C286 O301 1.270 . S
C287 O302 1.251 . S
C287 O303 1.251 1_556 S
C288 Eu289 2.835 . S
C288 C290 1.500 . S
C288 O304 1.257 . S
C288 O305 1.260 . S
Eu289 C288 2.835 . S
Eu289 O301 2.355 . S
Eu289 O303 2.374 . S
Eu289 O304 2.473 . S
Eu289 O305 2.480 . S
Eu289 O306 2.430 . S
Eu289 O307 2.670 1_554 S
Eu289 O308 2.394 . S
C290 C288 1.500 . S
C290 C291 1.377 . S
C290 C295 1.377 . S
C291 C290 1.377 . S
C291 C292 1.395 . S
C291 H314 0.931 . S
C292 C291 1.395 . S
C292 C293 1.383 . S
C292 H315 0.931 . S
C293 C292 1.383 . S
C293 C294 1.394 . S
C294 C293 1.394 . S
C294 C295 1.378 . S
C294 H316 0.931 . S
C295 C290 1.377 . S
C295 C294 1.378 . S
C295 H317 0.931 . S
C296 O306 1.259 . S
C296 O307 1.270 1_554 S
C297 O308 1.251 . S
C297 O309 1.251 . S
O298 C278 1.257 . S
O298 Eu279 2.473 . S
O299 C278 1.260 . S
O299 Eu279 2.480 . S
O300 Eu279 2.430 . S
O300 C286 1.259 1_556 S
O301 Eu279 2.670 1_554 S
O301 C286 1.270 . S
O301 Eu289 2.355 . S
O302 Eu279 2.394 . S
O302 C287 1.251 . S
O303 C287 1.251 1_554 S
O303 Eu289 2.374 . S
O304 C288 1.257 . S
O304 Eu289 2.473 . S
O305 C288 1.260 . S
O305 Eu289 2.480 . S
O306 Eu289 2.430 . S
O306 C296 1.259 . S
O307 Eu279 2.355 . S
O307 Eu289 2.670 1_556 S
O307 C296 1.270 1_556 S
O308 Eu289 2.394 . S
O308 C297 1.251 . S
O309 Eu279 2.374 1_554 S
O309 C297 1.251 . S
H310 C281 0.931 . S
H311 C282 0.931 . S
H312 C284 0.931 . S
H313 C285 0.931 . S
H314 C291 0.931 . S
H315 C292 0.931 . S
H316 C294 0.931 . S
H317 C295 0.931 . S
C318 Eu319 2.835 . S
C318 C320 1.500 . S
C318 O338 1.257 . S
C318 O339 1.260 . S
Eu319 C318 2.835 . S
Eu319 O338 2.473 . S
Eu319 O339 2.480 . S
Eu319 O340 2.430 . S
Eu319 O341 2.670 . S
Eu319 O342 2.394 . S
Eu319 O347 2.355 . S
Eu319 O349 2.374 . S
C320 C318 1.500 . S
C320 C321 1.377 . S
C320 C325 1.377 . S
C321 C320 1.377 . S
C321 C322 1.395 . S
C321 H350 0.931 . S
C322 C321 1.395 . S
C322 C323 1.383 . S
C322 H351 0.931 . S
C323 C322 1.383 . S
C323 C324 1.394 . S
C324 C323 1.394 . S
C324 C325 1.378 . S
C324 H352 0.931 . S
C325 C320 1.377 . S
C325 C324 1.378 . S
C325 H353 0.931 . S
C326 O340 1.259 . S
C326 O341 1.270 . S
C327 O342 1.251 . S
C327 O343 1.251 . S
C328 Eu329 2.835 . S
C328 C330 1.500 . S
C328 O344 1.257 . S
C328 O345 1.260 . S
Eu329 C328 2.835 . S
Eu329 O341 2.355 . S
Eu329 O343 2.374 . S
Eu329 O344 2.473 . S
Eu329 O345 2.480 . S
Eu329 O346 2.430 . S
Eu329 O347 2.670 . S
Eu329 O348 2.394 . S
C330 C328 1.500 . S
C330 C331 1.377 . S
C330 C335 1.377 . S
C331 C330 1.377 . S
C331 C332 1.395 . S
C331 H354 0.931 . S
C332 C331 1.395 . S
C332 C333 1.383 . S
C332 H355 0.931 . S
C333 C332 1.383 . S
C333 C334 1.394 . S
C334 C333 1.394 . S
C334 C335 1.378 . S
C334 H356 0.931 . S
C335 C330 1.377 . S
C335 C334 1.378 . S
C335 H357 0.931 . S
C336 O346 1.259 . S
C336 O347 1.270 . S
C337 O348 1.251 . S
C337 O349 1.251 . S
O338 C318 1.257 . S
O338 Eu319 2.473 . S
O339 C318 1.260 . S
O339 Eu319 2.480 . S
O340 Eu319 2.430 . S
O340 C326 1.259 . S
O341 Eu319 2.670 . S
O341 C326 1.270 . S
O341 Eu329 2.355 . S
O342 Eu319 2.394 . S
O342 C327 1.251 . S
O343 C327 1.251 . S
O343 Eu329 2.374 . S
O344 C328 1.257 . S
O344 Eu329 2.473 . S
O345 C328 1.260 . S
O345 Eu329 2.480 . S
O346 Eu329 2.430 . S
O346 C336 1.259 . S
O347 Eu319 2.355 . S
O347 Eu329 2.670 . S
O347 C336 1.270 . S
O348 Eu329 2.394 . S
O348 C337 1.251 . S
O349 Eu319 2.374 . S
O349 C337 1.251 . S
H350 C321 0.931 . S
H351 C322 0.931 . S
H352 C324 0.931 . S
H353 C325 0.931 . S
H354 C331 0.931 . S
H355 C332 0.931 . S
H356 C334 0.931 . S
H357 C335 0.931 . S
C358 Eu359 2.835 . S
C358 C360 1.500 . S
C358 O378 1.257 . S
C358 O379 1.260 . S
Eu359 C358 2.835 . S
Eu359 O378 2.473 . S
Eu359 O379 2.480 . S
Eu359 O380 2.430 . S
Eu359 O381 2.670 . S
Eu359 O382 2.394 . S
Eu359 O387 2.355 . S
Eu359 O389 2.374 . S
C360 C358 1.500 . S
C360 C361 1.377 . S
C360 C365 1.377 . S
C361 C360 1.377 . S
C361 C362 1.395 . S
C361 H390 0.931 . S
C362 C361 1.395 . S
C362 C363 1.383 . S
C362 H391 0.931 . S
C363 C362 1.383 . S
C363 C364 1.394 . S
C364 C363 1.394 . S
C364 C365 1.378 . S
C364 H392 0.931 . S
C365 C360 1.377 . S
C365 C364 1.378 . S
C365 H393 0.931 . S
C366 O380 1.259 . S
C366 O381 1.270 . S
C367 O382 1.251 . S
C367 O383 1.251 . S
C368 Eu369 2.835 . S
C368 C370 1.500 . S
C368 O384 1.257 . S
C368 O385 1.260 . S
Eu369 C368 2.835 . S
Eu369 O381 2.355 . S
Eu369 O383 2.374 . S
Eu369 O384 2.473 . S
Eu369 O385 2.480 . S
Eu369 O386 2.430 . S
Eu369 O387 2.670 . S
Eu369 O388 2.394 . S
C370 C368 1.500 . S
C370 C371 1.377 . S
C370 C375 1.377 . S
C371 C370 1.377 . S
C371 C372 1.395 . S
C371 H394 0.931 . S
C372 C371 1.395 . S
C372 C373 1.383 . S
C372 H395 0.931 . S
C373 C372 1.383 . S
C373 C374 1.394 . S
C374 C373 1.394 . S
C374 C375 1.378 . S
C374 H396 0.931 . S
C375 C370 1.377 . S
C375 C374 1.378 . S
C375 H397 0.931 . S
C376 O386 1.259 . S
C376 O387 1.270 . S
C377 O388 1.251 . S
C377 O389 1.251 . S
O378 C358 1.257 . S
O378 Eu359 2.473 . S
O379 C358 1.260 . S
O379 Eu359 2.480 . S
O380 Eu359 2.430 . S
O380 C366 1.259 . S
O381 Eu359 2.670 . S
O381 C366 1.270 . S
O381 Eu369 2.355 . S
O382 Eu359 2.394 . S
O382 C367 1.251 . S
O383 C367 1.251 . S
O383 Eu369 2.374 . S
O384 C368 1.257 . S
O384 Eu369 2.473 . S
O385 C368 1.260 . S
O385 Eu369 2.480 . S
O386 Eu369 2.430 . S
O386 C376 1.259 . S
O387 Eu359 2.355 . S
O387 Eu369 2.670 . S
O387 C376 1.270 . S
O388 Eu369 2.394 . S
O388 C377 1.251 . S
O389 Eu359 2.374 . S
O389 C377 1.251 . S
H390 C361 0.931 . S
H391 C362 0.931 . S
H392 C364 0.931 . S
H393 C365 0.931 . S
H394 C371 0.931 . S
H395 C372 0.931 . S
H396 C374 0.931 . S
H397 C375 0.931 . S
C398 Eu399 2.835 . S
C398 C400 1.500 . S
C398 O418 1.257 . S
C398 O419 1.260 . S
Eu399 C398 2.835 . S
Eu399 O418 2.473 . S
Eu399 O419 2.480 . S
Eu399 O420 2.430 . S
Eu399 O421 2.670 . S
Eu399 O422 2.394 . S
Eu399 O427 2.355 . S
Eu399 O429 2.374 . S
C400 C398 1.500 . S
C400 C401 1.377 . S
C400 C405 1.377 . S
C401 C400 1.377 . S
C401 C402 1.395 . S
C401 H430 0.931 . S
C402 C401 1.395 . S
C402 C403 1.383 . S
C402 H431 0.931 . S
C403 C402 1.383 . S
C403 C404 1.394 . S
C404 C403 1.394 . S
C404 C405 1.378 . S
C404 H432 0.931 . S
C405 C400 1.377 . S
C405 C404 1.378 . S
C405 H433 0.931 . S
C406 O420 1.259 . S
C406 O421 1.270 . S
C407 O422 1.251 . S
C407 O423 1.251 . S
C408 Eu409 2.835 . S
C408 C410 1.500 . S
C408 O424 1.257 . S
C408 O425 1.260 . S
Eu409 C408 2.835 . S
Eu409 O421 2.355 . S
Eu409 O423 2.374 . S
Eu409 O424 2.473 . S
Eu409 O425 2.480 . S
Eu409 O426 2.430 . S
Eu409 O427 2.670 . S
Eu409 O428 2.394 . S
C410 C408 1.500 . S
C410 C411 1.377 . S
C410 C415 1.377 . S
C411 C410 1.377 . S
C411 C412 1.395 . S
C411 H434 0.931 . S
C412 C411 1.395 . S
C412 C413 1.383 . S
C412 H435 0.931 . S
C413 C412 1.383 . S
C413 C414 1.394 . S
C414 C413 1.394 . S
C414 C415 1.378 . S
C414 H436 0.931 . S
C415 C410 1.377 . S
C415 C414 1.378 . S
C415 H437 0.931 . S
C416 O426 1.259 . S
C416 O427 1.270 . S
C417 O428 1.251 . S
C417 O429 1.251 . S
O418 C398 1.257 . S
O418 Eu399 2.473 . S
O419 C398 1.260 . S
O419 Eu399 2.480 . S
O420 Eu399 2.430 . S
O420 C406 1.259 . S
O421 Eu399 2.670 . S
O421 C406 1.270 . S
O421 Eu409 2.355 . S
O422 Eu399 2.394 . S
O422 C407 1.251 . S
O423 C407 1.251 . S
O423 Eu409 2.374 . S
O424 C408 1.257 . S
O424 Eu409 2.473 . S
O425 C408 1.260 . S
O425 Eu409 2.480 . S
O426 Eu409 2.430 . S
O426 C416 1.259 . S
O427 Eu399 2.355 . S
O427 Eu409 2.670 . S
O427 C416 1.270 . S
O428 Eu409 2.394 . S
O428 C417 1.251 . S
O429 Eu399 2.374 . S
O429 C417 1.251 . S
H430 C401 0.931 . S
H431 C402 0.931 . S
H432 C404 0.931 . S
H433 C405 0.931 . S
H434 C411 0.931 . S
H435 C412 0.931 . S
H436 C414 0.931 . S
H437 C415 0.931 . S
C438 Eu439 2.835 . S
C438 C440 1.500 . S
C438 O458 1.257 . S
C438 O459 1.260 . S
Eu439 C438 2.835 . S
Eu439 O458 2.473 . S
Eu439 O459 2.480 . S
Eu439 O460 2.430 . S
Eu439 O461 2.670 . S
Eu439 O462 2.394 . S
Eu439 O467 2.355 . S
Eu439 O469 2.374 . S
C440 C438 1.500 . S
C440 C441 1.377 . S
C440 C445 1.377 . S
C441 C440 1.377 . S
C441 C442 1.395 . S
C441 H470 0.931 . S
C442 C441 1.395 . S
C442 C443 1.383 . S
C442 H471 0.931 . S
C443 C442 1.383 . S
C443 C444 1.394 . S
C444 C443 1.394 . S
C444 C445 1.378 . S
C444 H472 0.931 . S
C445 C440 1.377 . S
C445 C444 1.378 . S
C445 H473 0.931 . S
C446 O460 1.259 . S
C446 O461 1.270 . S
C447 O462 1.251 . S
C447 O463 1.251 . S
C448 Eu449 2.835 . S
C448 C450 1.500 . S
C448 O464 1.257 . S
C448 O465 1.260 . S
Eu449 C448 2.835 . S
Eu449 O461 2.355 . S
Eu449 O463 2.374 . S
Eu449 O464 2.473 . S
Eu449 O465 2.480 . S
Eu449 O466 2.430 . S
Eu449 O467 2.670 . S
Eu449 O468 2.394 . S
C450 C448 1.500 . S
C450 C451 1.377 . S
C450 C455 1.377 . S
C451 C450 1.377 . S
C451 C452 1.395 . S
C451 H474 0.931 . S
C452 C451 1.395 . S
C452 C453 1.383 . S
C452 H475 0.931 . S
C453 C452 1.383 . S
C453 C454 1.394 . S
C454 C453 1.394 . S
C454 C455 1.378 . S
C454 H476 0.931 . S
C455 C450 1.377 . S
C455 C454 1.378 . S
C455 H477 0.931 . S
C456 O466 1.259 . S
C456 O467 1.270 . S
C457 O468 1.251 . S
C457 O469 1.251 . S
O458 C438 1.257 . S
O458 Eu439 2.473 . S
O459 C438 1.260 . S
O459 Eu439 2.480 . S
O460 Eu439 2.430 . S
O460 C446 1.259 . S
O461 Eu439 2.670 . S
O461 C446 1.270 . S
O461 Eu449 2.355 . S
O462 Eu439 2.394 . S
O462 C447 1.251 . S
O463 C447 1.251 . S
O463 Eu449 2.374 . S
O464 C448 1.257 . S
O464 Eu449 2.473 . S
O465 C448 1.260 . S
O465 Eu449 2.480 . S
O466 Eu449 2.430 . S
O466 C456 1.259 . S
O467 Eu439 2.355 . S
O467 Eu449 2.670 . S
O467 C456 1.270 . S
O468 Eu449 2.394 . S
O468 C457 1.251 . S
O469 Eu439 2.374 . S
O469 C457 1.251 . S
H470 C441 0.931 . S
H471 C442 0.931 . S
H472 C444 0.931 . S
H473 C445 0.931 . S
H474 C451 0.931 . S
H475 C452 0.931 . S
H476 C454 0.931 . S
H477 C455 0.931 . S
C478 Eu479 2.835 . S
C478 C480 1.500 . S
C478 O498 1.257 . S
C478 O499 1.260 . S
Eu479 C478 2.835 . S
Eu479 O498 2.473 . S
Eu479 O499 2.480 . S
Eu479 O500 2.430 . S
Eu479 O501 2.670 . S
Eu479 O502 2.394 . S
Eu479 O507 2.355 . S
Eu479 O509 2.374 . S
C480 C478 1.500 . S
C480 C481 1.377 . S
C480 C485 1.377 . S
C481 C480 1.377 . S
C481 C482 1.395 . S
C481 H510 0.931 . S
C482 C481 1.395 . S
C482 C483 1.383 . S
C482 H511 0.931 . S
C483 C482 1.383 . S
C483 C484 1.394 . S
C484 C483 1.394 . S
C484 C485 1.378 . S
C484 H512 0.931 . S
C485 C480 1.377 . S
C485 C484 1.378 . S
C485 H513 0.931 . S
C486 O500 1.259 . S
C486 O501 1.270 . S
C487 O502 1.251 . S
C487 O503 1.251 . S
C488 Eu489 2.835 . S
C488 C490 1.500 . S
C488 O504 1.257 . S
C488 O505 1.260 . S
Eu489 C488 2.835 . S
Eu489 O501 2.355 . S
Eu489 O503 2.374 . S
Eu489 O504 2.473 . S
Eu489 O505 2.480 . S
Eu489 O506 2.430 . S
Eu489 O507 2.670 . S
Eu489 O508 2.394 . S
C490 C488 1.500 . S
C490 C491 1.377 . S
C490 C495 1.377 . S
C491 C490 1.377 . S
C491 C492 1.395 . S
C491 H514 0.931 . S
C492 C491 1.395 . S
C492 C493 1.383 . S
C492 H515 0.931 . S
C493 C492 1.383 . S
C493 C494 1.394 . S
C494 C493 1.394 . S
C494 C495 1.378 . S
C494 H516 0.931 . S
C495 C490 1.377 . S
C495 C494 1.378 . S
C495 H517 0.931 . S
C496 O506 1.259 . S
C496 O507 1.270 . S
C497 O508 1.251 . S
C497 O509 1.251 . S
O498 C478 1.257 . S
O498 Eu479 2.473 . S
O499 C478 1.260 . S
O499 Eu479 2.480 . S
O500 Eu479 2.430 . S
O500 C486 1.259 . S
O501 Eu479 2.670 . S
O501 C486 1.270 . S
O501 Eu489 2.355 . S
O502 Eu479 2.394 . S
O502 C487 1.251 . S
O503 C487 1.251 . S
O503 Eu489 2.374 . S
O504 C488 1.257 . S
O504 Eu489 2.473 . S
O505 C488 1.260 . S
O505 Eu489 2.480 . S
O506 Eu489 2.430 . S
O506 C496 1.259 . S
O507 Eu479 2.355 . S
O507 Eu489 2.670 . S
O507 C496 1.270 . S
O508 Eu489 2.394 . S
O508 C497 1.251 . S
O509 Eu479 2.374 . S
O509 C497 1.251 . S
H510 C481 0.931 . S
H511 C482 0.931 . S
H512 C484 0.931 . S
H513 C485 0.931 . S
H514 C491 0.931 . S
H515 C492 0.931 . S
H516 C494 0.931 . S
H517 C495 0.931 . S
C518 Eu519 2.835 . S
C518 C520 1.500 . S
C518 O538 1.257 . S
C518 O539 1.260 . S
Eu519 C518 2.835 . S
Eu519 O538 2.473 . S
Eu519 O539 2.480 . S
Eu519 O540 2.430 . S
Eu519 O541 2.670 . S
Eu519 O542 2.394 . S
Eu519 O547 2.355 . S
Eu519 O549 2.374 . S
C520 C518 1.500 . S
C520 C521 1.377 . S
C520 C525 1.377 . S
C521 C520 1.377 . S
C521 C522 1.395 . S
C521 H550 0.931 . S
C522 C521 1.395 . S
C522 C523 1.383 . S
C522 H551 0.931 . S
C523 C522 1.383 . S
C523 C524 1.394 . S
C524 C523 1.394 . S
C524 C525 1.378 . S
C524 H552 0.931 . S
C525 C520 1.377 . S
C525 C524 1.378 . S
C525 H553 0.931 . S
C526 O540 1.259 . S
C526 O541 1.270 . S
C527 O542 1.251 . S
C527 O543 1.251 . S
C528 Eu529 2.835 . S
C528 C530 1.500 . S
C528 O544 1.257 . S
C528 O545 1.260 . S
Eu529 C528 2.835 . S
Eu529 O541 2.355 . S
Eu529 O543 2.374 . S
Eu529 O544 2.473 . S
Eu529 O545 2.480 . S
Eu529 O546 2.430 . S
Eu529 O547 2.670 . S
Eu529 O548 2.394 . S
C530 C528 1.500 . S
C530 C531 1.377 . S
C530 C535 1.377 . S
C531 C530 1.377 . S
C531 C532 1.395 . S
C531 H554 0.931 . S
C532 C531 1.395 . S
C532 C533 1.383 . S
C532 H555 0.931 . S
C533 C532 1.383 . S
C533 C534 1.394 . S
C534 C533 1.394 . S
C534 C535 1.378 . S
C534 H556 0.931 . S
C535 C530 1.377 . S
C535 C534 1.378 . S
C535 H557 0.931 . S
C536 O546 1.259 . S
C536 O547 1.270 . S
C537 O548 1.251 . S
C537 O549 1.251 . S
O538 C518 1.257 . S
O538 Eu519 2.473 . S
O539 C518 1.260 . S
O539 Eu519 2.480 . S
O540 Eu519 2.430 . S
O540 C526 1.259 . S
O541 Eu519 2.670 . S
O541 C526 1.270 . S
O541 Eu529 2.355 . S
O542 Eu519 2.394 . S
O542 C527 1.251 . S
O543 C527 1.251 . S
O543 Eu529 2.374 . S
O544 C528 1.257 . S
O544 Eu529 2.473 . S
O545 C528 1.260 . S
O545 Eu529 2.480 . S
O546 Eu529 2.430 . S
O546 C536 1.259 . S
O547 Eu519 2.355 . S
O547 Eu529 2.670 . S
O547 C536 1.270 . S
O548 Eu529 2.394 . S
O548 C537 1.251 . S
O549 Eu519 2.374 . S
O549 C537 1.251 . S
H550 C521 0.931 . S
H551 C522 0.931 . S
H552 C524 0.931 . S
H553 C525 0.931 . S
H554 C531 0.931 . S
H555 C532 0.931 . S
H556 C534 0.931 . S
H557 C535 0.931 . S
C558 C559 1.387 . S
C558 H562 0.950 . S
C558 C567 1.390 . S
C559 C558 1.387 . S
C559 C561 1.387 . S
H560 C567 0.950 . S
C561 C559 1.387 . S
C561 C563 1.390 . S
C561 H565 0.950 . S
H562 C558 0.950 . S
C563 C561 1.390 . S
C563 C564 1.387 . S
C563 H566 0.950 1_554 S
C564 C563 1.387 . S
C564 C567 1.387 . S
H565 C561 0.950 . S
H566 C563 0.950 1_556 S
C567 C558 1.390 . S
C567 H560 0.950 . S
C567 C564 1.387 . S
C568 C569 1.387 . S
C568 H572 0.950 . S
C568 C577 1.390 . S
C569 C568 1.387 . S
C569 C571 1.387 . S
H570 C577 0.950 . S
C571 C569 1.387 . S
C571 C573 1.390 . S
C571 H575 0.950 . S
H572 C568 0.950 . S
C573 C571 1.390 . S
C573 C574 1.387 . S
C573 H576 0.950 . S
C574 C573 1.387 . S
C574 C577 1.387 . S
H575 C571 0.950 . S
H576 C573 0.950 . S
C577 C568 1.390 . S
C577 H570 0.950 . S
C577 C574 1.387 . S
C578 C579 1.387 . S
C578 H582 0.950 . S
C578 C587 1.390 . S
C579 C578 1.387 . S
C579 C581 1.387 . S
H580 C587 0.950 . S
C581 C579 1.387 . S
C581 C583 1.391 . S
C581 H585 0.950 1_554 S
H582 C578 0.950 . S
C583 C581 1.391 . S
C583 C584 1.396 . S
C583 H586 0.940 1_554 S
C584 C583 1.396 . S
C584 C587 1.387 . S
H585 C581 0.950 1_556 S
H586 C583 0.940 1_556 S
C587 C578 1.390 . S
C587 H580 0.950 . S
C587 C584 1.387 . S
C588 C589 1.387 . S
C588 H592 0.950 1_556 S
C588 C597 1.386 1_556 S
C589 C588 1.387 . S
C589 C591 1.387 . S
H590 C597 0.973 . S
C591 C589 1.387 . S
C591 C593 1.390 . S
C591 H595 0.950 . S
H592 C588 0.950 1_554 S
C593 C591 1.390 . S
C593 C594 1.387 . S
C593 H596 0.950 . S
C594 C593 1.387 . S
C594 C597 1.369 1_556 S
H595 C591 0.950 . S
H596 C593 0.950 . S
C597 C588 1.386 1_554 S
C597 H590 0.973 . S
C597 C594 1.369 1_554 S
C598 C599 1.387 . S
C598 H602 0.950 . S
C598 C607 1.390 . S
C599 C598 1.387 . S
C599 C601 1.387 . S
H600 C607 0.950 . S
C601 C599 1.387 . S
C601 C603 1.390 . S
C601 H605 0.950 . S
H602 C598 0.950 . S
C603 C601 1.390 . S
C603 C604 1.387 . S
C603 H606 0.950 . S
C604 C603 1.387 . S
C604 C607 1.387 . S
H605 C601 0.950 . S
H606 C603 0.950 . S
C607 C598 1.390 . S
C607 H600 0.950 . S
C607 C604 1.387 . S
C608 C609 1.387 1_554 S
C608 H612 0.950 . S
C608 C617 1.390 . S
C609 C608 1.387 1_556 S
C609 C611 1.387 . S
H610 C617 0.950 . S
C611 C609 1.387 . S
C611 C613 1.390 . S
C611 H615 0.950 . S
H612 C608 0.950 . S
C613 C611 1.390 . S
C613 C614 1.387 . S
C613 H616 0.950 . S
C614 C613 1.387 . S
C614 C617 1.387 1_556 S
H615 C611 0.950 . S
H616 C613 0.950 . S
C617 C608 1.390 . S
C617 H610 0.950 . S
C617 C614 1.387 1_554 S
C618 C619 1.387 . S
C618 H622 0.950 . S
C618 C627 1.390 . S
C619 C618 1.387 . S
C619 C621 1.387 . S
H620 C627 0.950 . S
C621 C619 1.387 . S
C621 C623 1.390 1_556 S
C621 H625 0.950 1_556 S
H622 C618 0.950 . S
C623 C621 1.390 1_554 S
C623 C624 1.387 1_554 S
C623 H626 0.950 . S
C624 C623 1.387 1_556 S
C624 C627 1.387 . S
H625 C621 0.950 1_554 S
H626 C623 0.950 . S
C627 C618 1.390 . S
C627 H620 0.950 . S
C627 C624 1.387 . S
C628 C629 1.387 . S
C628 H632 0.950 1_556 S
C628 C637 1.390 . S
C629 C628 1.387 . S
C629 C631 1.387 . S
H630 C637 0.950 1_554 S
C631 C629 1.387 . S
C631 C633 1.390 . S
C631 H635 0.950 . S
H632 C628 0.950 1_554 S
C633 C631 1.390 . S
C633 C634 1.387 . S
C633 H636 0.950 . S
C634 C633 1.387 . S
C634 C637 1.387 . S
H635 C631 0.950 . S
H636 C633 0.950 . S
C637 C628 1.390 . S
C637 H630 0.950 1_556 S
C637 C634 1.387 . S
C638 C639 1.387 1_554 S
C638 H642 0.950 . S
C638 C647 1.390 . S
C639 C638 1.387 1_556 S
C639 C641 1.387 . S
H640 C647 0.950 . S
C641 C639 1.387 . S
C641 C643 1.390 . S
C641 H645 0.950 . S
H642 C638 0.950 . S
C643 C641 1.390 . S
C643 C644 1.387 . S
C643 H646 0.950 . S
C644 C643 1.387 . S
C644 C647 1.387 1_556 S
H645 C641 0.950 . S
H646 C643 0.950 . S
C647 C638 1.390 . S
C647 H640 0.950 . S
C647 C644 1.387 1_554 S
C648 C649 1.387 . S
C648 H652 0.950 . S
C648 C657 1.390 . S
C649 C648 1.387 . S
C649 C651 1.387 . S
H650 C657 0.950 . S
C651 C649 1.387 . S
C651 C653 1.390 1_554 S
C651 H655 0.950 1_554 S
H652 C648 0.950 . S
C653 C651 1.390 1_556 S
C653 C654 1.387 1_556 S
C653 H656 0.950 . S
C654 C653 1.387 1_554 S
C654 C657 1.387 . S
H655 C651 0.950 1_556 S
H656 C653 0.950 . S
C657 C648 1.390 . S
C657 H650 0.950 . S
C657 C654 1.387 . S
C658 C659 1.387 . S
C658 H662 0.950 . S
C658 C667 1.390 . S
C659 C658 1.387 . S
C659 C661 1.387 . S
H660 C667 0.950 . S
C661 C659 1.387 . S
C661 C663 1.390 . S
C661 H665 0.950 . S
H662 C658 0.950 . S
C663 C661 1.390 . S
C663 C664 1.387 . S
C663 H666 0.991 . S
C664 C663 1.387 . S
C664 C667 1.387 . S
H665 C661 0.950 . S
H666 C663 0.991 . S
C667 C658 1.390 . S
C667 H660 0.950 . S
C667 C664 1.387 . S
C668 C669 1.387 1_556 S
C668 H672 0.950 . S
C668 C677 1.390 . S
C669 C668 1.387 1_554 S
C669 C671 1.387 . S
H670 C677 0.950 . S
C671 C669 1.387 . S
C671 C673 1.390 . S
C671 H675 0.950 . S
H672 C668 0.950 . S
C673 C671 1.390 . S
C673 C674 1.387 . S
C673 H676 0.950 . S
C674 C673 1.387 . S
C674 C677 1.387 1_554 S
H675 C671 0.950 . S
H676 C673 0.950 . S
C677 C668 1.390 . S
C677 H670 0.950 . S
C677 C674 1.387 1_556 S
C678 C679 1.387 . S
C678 H682 0.950 . S
C678 C687 1.390 1_655 S
C679 C678 1.387 . S
C679 C681 1.387 . S
H680 C687 0.950 . S
C681 C679 1.387 . S
C681 C683 1.390 . S
C681 H685 0.950 . S
H682 C678 0.950 . S
C683 C681 1.390 . S
C683 C684 1.387 1_655 S
C683 H686 0.950 . S
C684 C683 1.387 1_455 S
C684 C687 1.387 . S
H685 C681 0.950 . S
H686 C683 0.950 . S
C687 C678 1.390 1_455 S
C687 H680 0.950 . S
C687 C684 1.387 . S
C688 C689 1.387 . S
C688 H692 0.950 . S
C688 C697 1.390 . S
C689 C688 1.387 . S
C689 C691 1.387 . S
H690 C697 0.950 . S
C691 C689 1.387 . S
C691 C693 1.390 . S
C691 H695 0.950 . S
H692 C688 0.950 . S
C693 C691 1.390 . S
C693 C694 1.387 . S
C693 H696 0.950 . S
C694 C693 1.387 . S
C694 C697 1.387 . S
H695 C691 0.950 . S
H696 C693 0.950 . S
C697 C688 1.390 . S
C697 H690 0.950 . S
C697 C694 1.387 . S
C698 C699 1.387 . S
C698 H702 0.950 . S
C698 C707 1.390 . S
C699 C698 1.387 . S
C699 C701 1.387 . S
H700 C707 0.950 1_565 S
C701 C699 1.387 . S
C701 C703 1.390 . S
C701 H705 0.950 . S
H702 C698 0.950 . S
C703 C701 1.390 . S
C703 C704 1.387 1_545 S
C703 H706 0.950 1_545 S
C704 C703 1.387 1_565 S
C704 C707 1.387 1_565 S
H705 C701 0.950 . S
H706 C703 0.950 1_565 S
C707 C698 1.390 . S
C707 H700 0.950 1_545 S
C707 C704 1.387 1_545 S
C708 C709 1.387 . S
C708 H712 0.950 . S
C708 C717 1.390 . S
C709 C708 1.387 . S
C709 C711 1.387 . S
H710 C717 0.950 . S
C711 C709 1.387 . S
C711 C713 1.390 . S
C711 H715 0.950 . S
H712 C708 0.950 . S
C713 C711 1.390 . S
C713 C714 1.387 . S
C713 H716 0.950 . S
C714 C713 1.387 . S
C714 C717 1.387 . S
H715 C711 0.950 . S
H716 C713 0.950 . S
C717 C708 1.390 . S
C717 H710 0.950 . S
C717 C714 1.387 . S
C718 C719 1.387 . S
C718 H722 0.950 . S
C718 C727 1.390 . S
C719 C718 1.387 . S
C719 C721 1.387 . S
H720 C727 0.950 . S
C721 C719 1.387 . S
C721 C723 1.390 . S
C721 H725 0.950 . S
H722 C718 0.950 . S
C723 C721 1.390 . S
C723 C724 1.387 . S
C723 H726 0.950 . S
C724 C723 1.387 . S
C724 C727 1.387 . S
H725 C721 0.950 . S
H726 C723 0.950 . S
C727 C718 1.390 . S
C727 H720 0.950 . S
C727 C724 1.387 . S
C728 C729 1.387 . S
C728 H732 0.950 . S
C728 C737 1.390 . S
C729 C728 1.387 . S
C729 C731 1.387 . S
H730 C737 0.950 . S
C731 C729 1.387 . S
C731 C733 1.390 . S
C731 H735 0.950 . S
H732 C728 0.950 . S
C733 C731 1.390 . S
C733 C734 1.387 . S
C733 H736 0.950 . S
C734 C733 1.387 . S
C734 C737 1.387 . S
H735 C731 0.950 . S
H736 C733 0.950 . S
C737 C728 1.390 . S
C737 H730 0.950 . S
C737 C734 1.387 . S
C738 C739 1.387 . S
C738 H742 0.950 . S
C738 C747 1.390 . S
C739 C738 1.387 . S
C739 C741 1.387 . S
H740 C747 0.950 . S
C741 C739 1.387 . S
C741 C743 1.390 . S
C741 H745 0.950 . S
H742 C738 0.950 . S
C743 C741 1.390 . S
C743 C744 1.387 . S
C743 H746 0.950 . S
C744 C743 1.387 . S
C744 C747 1.387 . S
H745 C741 0.950 . S
H746 C743 0.950 . S
C747 C738 1.390 . S
C747 H740 0.950 . S
C747 C744 1.387 . S
C748 C749 1.387 . S
C748 H752 0.950 . S
C748 C757 1.390 . S
C749 C748 1.387 . S
C749 C751 1.387 . S
H750 C757 0.950 . S
C751 C749 1.387 . S
C751 C753 1.390 . S
C751 H755 0.950 . S
H752 C748 0.950 . S
C753 C751 1.390 . S
C753 C754 1.387 . S
C753 H756 0.950 . S
C754 C753 1.387 . S
C754 C757 1.387 . S
H755 C751 0.950 . S
H756 C753 0.950 . S
C757 C748 1.390 . S
C757 H750 0.950 . S
C757 C754 1.387 . S
C758 C759 1.387 . S
C758 H762 0.950 . S
C758 C767 1.390 . S
C759 C758 1.387 . S
C759 C761 1.387 . S
H760 C767 0.950 . S
C761 C759 1.387 . S
C761 C763 1.390 . S
C761 H765 0.950 . S
H762 C758 0.950 . S
C763 C761 1.390 . S
C763 C764 1.387 . S
C763 H766 0.950 . S
C764 C763 1.387 . S
C764 C767 1.387 . S
H765 C761 0.950 . S
H766 C763 0.950 . S
C767 C758 1.390 . S
C767 H760 0.950 . S
C767 C764 1.387 . S
C768 C769 1.387 1_565 S
C768 H772 0.950 . S
C768 C777 1.390 . S
C769 C768 1.387 1_545 S
C769 C771 1.387 1_545 S
H770 C777 0.950 . S
C771 C769 1.387 1_565 S
C771 C773 1.390 . S
C771 H775 0.950 . S
H772 C768 0.950 . S
C773 C771 1.390 . S
C773 C774 1.387 . S
C773 H776 0.950 . S
C774 C773 1.387 . S
C774 C777 1.387 . S
H775 C771 0.950 . S
H776 C773 0.950 . S
C777 C768 1.390 . S
C777 H770 0.950 . S
C777 C774 1.387 . S
C778 C779 1.387 . S
C778 H782 0.950 . S
C778 C787 1.390 . S
C779 C778 1.387 . S
C779 C781 1.387 . S
H780 C787 0.950 . S
C781 C779 1.387 . S
C781 C783 1.390 . S
C781 H785 0.950 . S
H782 C778 0.950 . S
C783 C781 1.390 . S
C783 C784 1.387 . S
C783 H786 0.950 . S
C784 C783 1.387 . S
C784 C787 1.387 . S
H785 C781 0.950 . S
H786 C783 0.950 . S
C787 C778 1.390 . S
C787 H780 0.950 . S
C787 C784 1.387 . S
C788 C789 1.387 . S
C788 H792 0.950 . S
C788 C797 1.390 . S
C789 C788 1.387 . S
C789 C791 1.387 . S
H790 C797 0.950 . S
C791 C789 1.387 . S
C791 C793 1.390 . S
C791 H795 0.950 . S
H792 C788 0.950 . S
C793 C791 1.390 . S
C793 C794 1.387 . S
C793 H796 0.950 . S
C794 C793 1.387 . S
C794 C797 1.387 . S
H795 C791 0.950 . S
H796 C793 0.950 . S
C797 C788 1.390 . S
C797 H790 0.950 . S
C797 C794 1.387 . S
C798 C799 1.387 . S
C798 H802 0.950 . S
C798 C807 1.390 . S
C799 C798 1.387 . S
C799 C801 1.387 . S
H800 C807 0.950 . S
C801 C799 1.387 . S
C801 C803 1.390 . S
C801 H805 0.950 . S
H802 C798 0.950 . S
C803 C801 1.390 . S
C803 C804 1.387 . S
C803 H806 0.950 . S
C804 C803 1.387 . S
C804 C807 1.387 . S
H805 C801 0.950 . S
H806 C803 0.950 . S
C807 C798 1.390 . S
C807 H800 0.950 . S
C807 C804 1.387 . S
C808 C809 1.387 . S
C808 H812 0.950 . S
C808 C817 1.390 . S
C809 C808 1.387 . S
C809 C811 1.387 . S
H810 C817 0.950 . S
C811 C809 1.387 . S
C811 C813 1.390 . S
C811 H815 0.950 . S
H812 C808 0.950 . S
C813 C811 1.390 . S
C813 C814 1.387 . S
C813 H816 0.950 . S
C814 C813 1.387 . S
C814 C817 1.387 . S
H815 C811 0.950 . S
H816 C813 0.950 . S
C817 C808 1.390 . S
C817 H810 0.950 . S
C817 C814 1.387 . S
C818 C819 1.387 . S
C818 H822 0.950 . S
C818 C827 1.390 . S
C819 C818 1.387 . S
C819 C821 1.387 . S
H820 C827 0.950 . S
C821 C819 1.387 . S
C821 C823 1.390 . S
C821 H825 0.950 . S
H822 C818 0.950 . S
C823 C821 1.390 . S
C823 C824 1.387 . S
C823 H826 0.950 . S
C824 C823 1.387 . S
C824 C827 1.387 . S
H825 C821 0.950 . S
H826 C823 0.950 . S
C827 C818 1.390 . S
C827 H820 0.950 . S
C827 C824 1.387 . S
C828 C829 1.387 . S
C828 H832 0.950 . S
C828 C837 1.390 1_565 S
C829 C828 1.387 . S
C829 C831 1.387 . S
H830 C837 0.950 . S
C831 C829 1.387 . S
C831 C833 1.390 1_565 S
C831 H835 0.950 . S
H832 C828 0.950 . S
C833 C831 1.390 1_545 S
C833 C834 1.387 . S
C833 H836 0.950 . S
C834 C833 1.387 . S
C834 C837 1.387 . S
H835 C831 0.950 . S
H836 C833 0.950 . S
C837 C828 1.390 1_545 S
C837 H830 0.950 . S
C837 C834 1.387 . S
C838 C839 1.387 . S
C838 H842 0.950 . S
C838 C847 1.390 . S
C839 C838 1.387 . S
C839 C841 1.387 . S
H840 C847 0.950 . S
C841 C839 1.387 . S
C841 C843 1.390 1_455 S
C841 H845 0.950 . S
H842 C838 0.950 . S
C843 C841 1.390 1_655 S
C843 C844 1.387 . S
C843 H846 0.950 . S
C844 C843 1.387 . S
C844 C847 1.387 1_655 S
H845 C841 0.950 . S
H846 C843 0.950 . S
C847 C838 1.390 . S
C847 H840 0.950 . S
C847 C844 1.387 1_455 S
C848 C849 1.387 . S
C848 H852 0.950 . S
C848 C857 1.390 . S
C849 C848 1.387 . S
C849 C851 1.387 . S
H850 C857 0.950 . S
C851 C849 1.387 . S
C851 C853 1.390 . S
C851 H855 0.950 . S
H852 C848 0.950 . S
C853 C851 1.390 . S
C853 C854 1.387 . S
C853 H856 0.950 . S
C854 C853 1.387 . S
C854 C857 1.387 . S
H855 C851 0.950 . S
H856 C853 0.950 . S
C857 C848 1.390 . S
C857 H850 0.950 . S
C857 C854 1.387 . S
C858 C859 1.398 . S
C858 H862 0.950 . S
C858 C867 1.390 . S
C859 C858 1.398 . S
C859 C861 1.406 . S
H860 C867 0.950 . S
C861 C859 1.406 . S
C861 C863 1.390 . S
C861 H865 0.950 1_655 S
H862 C858 0.950 . S
C863 C861 1.390 . S
C863 C864 1.387 . S
C863 H866 0.950 . S
C864 C863 1.387 . S
C864 C867 1.387 . S
H865 C861 0.950 1_455 S
H866 C863 0.950 . S
C867 C858 1.390 . S
C867 H860 0.950 . S
C867 C864 1.387 . S
C868 C869 1.387 . S
C868 H872 0.950 . S
C868 C877 1.390 . S
C869 C868 1.387 . S
C869 C871 1.387 . S
H870 C877 0.950 . S
C871 C869 1.387 . S
C871 C873 1.390 . S
C871 H875 0.950 . S
H872 C868 0.950 . S
C873 C871 1.390 . S
C873 C874 1.387 . S
C873 H876 0.950 . S
C874 C873 1.387 . S
C874 C877 1.387 . S
H875 C871 0.950 . S
H876 C873 0.950 . S
C877 C868 1.390 . S
C877 H870 0.950 . S
C877 C874 1.387 . S
C878 C879 1.387 . S
C878 H882 0.950 . S
C878 C887 1.390 . S
C879 C878 1.387 . S
C879 C881 1.387 . S
H880 C887 0.950 . S
C881 C879 1.387 . S
C881 C883 1.390 . S
C881 H885 0.950 . S
H882 C878 0.950 . S
C883 C881 1.390 . S
C883 C884 1.387 . S
C883 H886 0.950 . S
C884 C883 1.387 . S
C884 C887 1.387 . S
H885 C881 0.950 . S
H886 C883 0.950 . S
C887 C878 1.390 . S
C887 H880 0.950 . S
C887 C884 1.387 . S
C888 C889 1.387 . S
C888 H892 0.950 . S
C888 C897 1.390 . S
C889 C888 1.387 . S
C889 C891 1.387 . S
H890 C897 0.950 . S
C891 C889 1.387 . S
C891 C893 1.390 . S
C891 H895 0.950 . S
H892 C888 0.950 . S
C893 C891 1.390 . S
C893 C894 1.387 . S
C893 H896 0.950 . S
C894 C893 1.387 . S
C894 C897 1.387 . S
H895 C891 0.950 . S
H896 C893 0.950 . S
C897 C888 1.390 . S
C897 H890 0.950 . S
C897 C894 1.387 . S
C898 C899 1.387 . S
C898 H902 0.950 . S
C898 C907 1.390 . S
C899 C898 1.387 . S
C899 C901 1.387 . S
H900 C907 0.950 . S
C901 C899 1.387 . S
C901 C903 1.390 . S
C901 H905 0.950 . S
H902 C898 0.950 . S
C903 C901 1.390 . S
C903 C904 1.387 . S
C903 H906 0.950 . S
C904 C903 1.387 . S
C904 C907 1.387 . S
H905 C901 0.950 . S
H906 C903 0.950 . S
C907 C898 1.390 . S
C907 H900 0.950 . S
C907 C904 1.387 . S
C908 C909 1.387 . S
C908 H912 0.950 . S
C908 C917 1.390 . S
C909 C908 1.387 . S
C909 C911 1.387 . S
H910 C917 0.950 . S
C911 C909 1.387 . S
C911 C913 1.390 . S
C911 H915 0.950 . S
H912 C908 0.950 . S
C913 C911 1.390 . S
C913 C914 1.387 . S
C913 H916 0.950 . S
C914 C913 1.387 . S
C914 C917 1.387 . S
H915 C911 0.950 . S
H916 C913 0.950 . S
C917 C908 1.390 . S
C917 H910 0.950 . S
C917 C914 1.387 . S
C918 C919 1.387 . S
C918 H922 0.950 . S
C918 C927 1.390 . S
C919 C918 1.387 . S
C919 C921 1.387 . S
H920 C927 0.950 . S
C921 C919 1.387 . S
C921 C923 1.390 . S
C921 H925 0.950 . S
H922 C918 0.950 . S
C923 C921 1.390 . S
C923 C924 1.387 . S
C923 H926 0.950 . S
C924 C923 1.387 . S
C924 C927 1.387 . S
H925 C921 0.950 . S
H926 C923 0.950 . S
C927 C918 1.390 . S
C927 H920 0.950 . S
C927 C924 1.387 . S
C928 C929 1.387 . S
C928 H932 0.950 . S
C928 C937 1.390 . S
C929 C928 1.387 . S
C929 C931 1.387 . S
H930 C937 0.950 . S
C931 C929 1.387 . S
C931 C933 1.390 . S
C931 H935 0.950 1_455 S
H932 C928 0.950 . S
C933 C931 1.390 . S
C933 C934 1.387 . S
C933 H936 0.950 1_455 S
C934 C933 1.387 . S
C934 C937 1.387 . S
H935 C931 0.950 1_655 S
H936 C933 0.950 1_655 S
C937 C928 1.390 . S
C937 H930 0.950 . S
C937 C934 1.387 . S
C938 C939 1.387 . S
C938 H942 0.950 . S
C938 C947 1.390 . S
C939 C938 1.387 . S
C939 C941 1.387 . S
H940 C947 0.950 . S
C941 C939 1.387 . S
C941 C943 1.390 . S
C941 H945 0.950 . S
H942 C938 0.950 . S
C943 C941 1.390 . S
C943 C944 1.387 . S
C943 H946 0.950 . S
C944 C943 1.387 . S
C944 C947 1.387 . S
H945 C941 0.950 . S
H946 C943 0.950 . S
C947 C938 1.390 . S
C947 H940 0.950 . S
C947 C944 1.387 . S
C948 C949 1.387 . S
C948 H952 0.950 . S
C948 C957 1.390 . S
C949 C948 1.387 . S
C949 C951 1.387 . S
H950 C957 0.950 . S
C951 C949 1.387 . S
C951 C953 1.390 . S
C951 H955 0.950 1_655 S
H952 C948 0.950 . S
C953 C951 1.390 . S
C953 C954 1.387 . S
C953 H956 0.950 1_655 S
C954 C953 1.387 . S
C954 C957 1.387 . S
H955 C951 0.950 1_455 S
H956 C953 0.950 1_455 S
C957 C948 1.390 . S
C957 H950 0.950 . S
C957 C954 1.387 . S
C958 C959 1.387 . S
C958 H962 0.950 . S
C958 C967 1.390 . S
C959 C958 1.387 . S
C959 C961 1.387 . S
H960 C967 0.950 . S
C961 C959 1.387 . S
C961 C963 1.390 . S
C961 H965 0.950 . S
H962 C958 0.950 . S
C963 C961 1.390 . S
C963 C964 1.387 . S
C963 H966 0.950 . S
C964 C963 1.387 . S
C964 C967 1.387 . S
H965 C961 0.950 . S
H966 C963 0.950 . S
C967 C958 1.390 . S
C967 H960 0.950 . S
C967 C964 1.387 . S
C968 C969 1.387 . S
C968 H972 0.950 . S
C968 C977 1.390 . S
C969 C968 1.387 . S
C969 C971 1.387 . S
H970 C977 0.954 . S
C971 C969 1.387 . S
C971 C973 1.390 . S
C971 H975 0.950 . S
H972 C968 0.950 . S
C973 C971 1.390 . S
C973 C974 1.387 . S
C973 H976 0.950 . S
C974 C973 1.387 . S
C974 C977 1.387 . S
H975 C971 0.950 . S
H976 C973 0.950 . S
C977 C968 1.390 . S
C977 H970 0.954 . S
C977 C974 1.387 . S
C978 C979 1.387 . S
C978 H982 0.950 . S
C978 C987 1.390 . S
C979 C978 1.387 . S
C979 C981 1.387 . S
H980 C987 0.950 . S
C981 C979 1.387 . S
C981 C983 1.390 . S
C981 H985 0.950 . S
H982 C978 0.950 . S
C983 C981 1.390 . S
C983 C984 1.387 . S
C983 H986 0.950 . S
C984 C983 1.387 . S
C984 C987 1.387 . S
H985 C981 0.950 . S
H986 C983 0.950 . S
C987 C978 1.390 . S
C987 H980 0.950 . S
C987 C984 1.387 . S
C988 C989 1.387 . S
C988 H992 0.950 . S
C988 C997 1.390 . S
C989 C988 1.387 . S
C989 C991 1.387 . S
H990 C997 0.950 . S
C991 C989 1.387 . S
C991 C993 1.390 . S
C991 H995 0.950 . S
H992 C988 0.950 . S
C993 C991 1.390 . S
C993 C994 1.387 . S
C993 H996 0.950 . S
C994 C993 1.387 . S
C994 C997 1.387 . S
H995 C991 0.950 . S
H996 C993 0.950 . S
C997 C988 1.390 . S
C997 H990 0.950 . S
C997 C994 1.387 . S
C998 C999 1.387 . S
C998 H1002 0.950 . S
C998 C1007 1.390 . S
C999 C998 1.387 . S
C999 C1001 1.387 . S
H1000 C1007 0.950 . S
C1001 C999 1.387 . S
C1001 C1003 1.390 . S
C1001 H1005 0.950 . S
H1002 C998 0.950 . S
C1003 C1001 1.390 . S
C1003 C1004 1.387 . S
C1003 H1006 0.950 . S
C1004 C1003 1.387 . S
C1004 C1007 1.387 . S
H1005 C1001 0.950 . S
H1006 C1003 0.950 . S
C1007 C998 1.390 . S
C1007 H1000 0.950 . S
C1007 C1004 1.387 . S
C1008 C1009 1.387 . S
C1008 H1012 0.950 . S
C1008 C1017 1.390 . S
C1009 C1008 1.387 . S
C1009 C1011 1.387 . S
H1010 C1017 0.950 . S
C1011 C1009 1.387 . S
C1011 C1013 1.390 . S
C1011 H1015 0.950 . S
H1012 C1008 0.950 . S
C1013 C1011 1.390 . S
C1013 C1014 1.387 . S
C1013 H1016 0.950 . S
C1014 C1013 1.387 . S
C1014 C1017 1.387 . S
H1015 C1011 0.950 . S
H1016 C1013 0.950 . S
C1017 C1008 1.390 . S
C1017 H1010 0.950 . S
C1017 C1014 1.387 . S
C1018 C1019 1.387 . S
C1018 H1022 0.950 . S
C1018 C1027 1.390 . S
C1019 C1018 1.387 . S
C1019 C1021 1.387 . S
H1020 C1027 0.950 . S
C1021 C1019 1.387 . S
C1021 C1023 1.390 . S
C1021 H1025 0.950 . S
H1022 C1018 0.950 . S
C1023 C1021 1.390 . S
C1023 C1024 1.387 . S
C1023 H1026 0.950 . S
C1024 C1023 1.387 . S
C1024 C1027 1.387 . S
H1025 C1021 0.950 . S
H1026 C1023 0.950 . S
C1027 C1018 1.390 . S
C1027 H1020 0.950 . S
C1027 C1024 1.387 . S
C1028 C1029 1.387 . S
C1028 H1032 0.950 . S
C1028 C1037 1.390 . S
C1029 C1028 1.387 . S
C1029 C1031 1.387 . S
H1030 C1037 0.950 . S
C1031 C1029 1.387 . S
C1031 C1033 1.390 . S
C1031 H1035 0.950 . S
H1032 C1028 0.950 . S
C1033 C1031 1.390 . S
C1033 C1034 1.387 . S
C1033 H1036 0.950 . S
C1034 C1033 1.387 . S
C1034 C1037 1.387 . S
H1035 C1031 0.950 . S
H1036 C1033 0.950 . S
C1037 C1028 1.390 . S
C1037 H1030 0.950 . S
C1037 C1034 1.387 . S
C1038 C1039 1.387 . S
C1038 H1042 0.950 . S
C1038 C1047 1.390 . S
C1039 C1038 1.387 . S
C1039 C1041 1.387 . S
H1040 C1047 0.950 . S
C1041 C1039 1.387 . S
C1041 C1043 1.390 . S
C1041 H1045 0.950 . S
H1042 C1038 0.950 . S
C1043 C1041 1.390 . S
C1043 C1044 1.387 . S
C1043 H1046 0.950 . S
C1044 C1043 1.387 . S
C1044 C1047 1.387 . S
H1045 C1041 0.950 . S
H1046 C1043 0.950 . S
C1047 C1038 1.390 . S
C1047 H1040 0.950 . S
C1047 C1044 1.387 . S
C1048 C1049 1.387 . S
C1048 H1052 0.950 . S
C1048 C1057 1.390 . S
C1049 C1048 1.387 . S
C1049 C1051 1.387 . S
H1050 C1057 0.950 . S
C1051 C1049 1.387 . S
C1051 C1053 1.390 . S
C1051 H1055 0.950 . S
H1052 C1048 0.950 . S
C1053 C1051 1.390 . S
C1053 C1054 1.387 . S
C1053 H1056 0.950 . S
C1054 C1053 1.387 . S
C1054 C1057 1.387 . S
H1055 C1051 0.950 . S
H1056 C1053 0.950 . S
C1057 C1048 1.390 . S
C1057 H1050 0.950 . S
C1057 C1054 1.387 . S
C1058 C1059 1.387 . S
C1058 H1062 0.950 . S
C1058 C1067 1.390 . S
C1059 C1058 1.387 . S
C1059 C1061 1.387 . S
H1060 C1067 0.950 . S
C1061 C1059 1.387 . S
C1061 C1063 1.390 . S
C1061 H1065 0.950 . S
H1062 C1058 0.950 . S
C1063 C1061 1.390 . S
C1063 C1064 1.387 . S
C1063 H1066 0.950 . S
C1064 C1063 1.387 . S
C1064 C1067 1.387 . S
H1065 C1061 0.950 . S
H1066 C1063 0.950 . S
C1067 C1058 1.390 . S
C1067 H1060 0.950 . S
C1067 C1064 1.387 . S
C1068 C1069 1.387 . S
C1068 H1072 0.950 . S
C1068 C1077 1.390 . S
C1069 C1068 1.387 . S
C1069 C1071 1.387 . S
H1070 C1077 0.950 . S
C1071 C1069 1.387 . S
C1071 C1073 1.390 . S
C1071 H1075 0.950 . S
H1072 C1068 0.950 . S
C1073 C1071 1.390 . S
C1073 C1074 1.387 . S
C1073 H1076 0.950 . S
C1074 C1073 1.387 . S
C1074 C1077 1.387 . S
H1075 C1071 0.950 . S
H1076 C1073 0.950 . S
C1077 C1068 1.390 . S
C1077 H1070 0.950 . S
C1077 C1074 1.387 . S
C1078 C1079 1.387 . S
C1078 H1082 0.950 . S
C1078 C1087 1.390 . S
C1079 C1078 1.387 . S
C1079 C1081 1.387 . S
H1080 C1087 0.950 . S
C1081 C1079 1.387 . S
C1081 C1083 1.390 . S
C1081 H1085 0.950 . S
H1082 C1078 0.950 . S
C1083 C1081 1.390 . S
C1083 C1084 1.387 . S
C1083 H1086 0.950 . S
C1084 C1083 1.387 . S
C1084 C1087 1.387 . S
H1085 C1081 0.950 . S
H1086 C1083 0.950 . S
C1087 C1078 1.390 . S
C1087 H1080 0.950 . S
C1087 C1084 1.387 . S
C1088 C1089 1.387 . S
C1088 H1092 0.950 . S
C1088 C1097 1.390 . S
C1089 C1088 1.387 . S
C1089 C1091 1.387 . S
H1090 C1097 0.950 . S
C1091 C1089 1.387 . S
C1091 C1093 1.390 . S
C1091 H1095 0.950 . S
H1092 C1088 0.950 . S
C1093 C1091 1.390 . S
C1093 C1094 1.387 . S
C1093 H1096 0.950 . S
C1094 C1093 1.387 . S
C1094 C1097 1.387 . S
H1095 C1091 0.950 . S
H1096 C1093 0.950 . S
C1097 C1088 1.390 . S
C1097 H1090 0.950 . S
C1097 C1094 1.387 . S
C559 C147 1.644 . S
C564 C207 1.640 . S
C569 C158 1.732 . S
C574 C247 1.726 . S
C579 C136 1.585 . S
C584 C286 1.556 . S
C589 C125 1.494 . S
C594 C246 1.463 . S
C604 C287 1.513 . S
C599 C103 1.516 . S
C609 C114 1.406 . S
C614 C206 1.393 1_556 S
C624 C217 1.616 . S
C619 C131 1.643 . S
C634 C257 1.607 . S
C629 C109 1.627 . S
C639 C120 1.637 . S
C644 C296 1.663 1_556 S
C649 C153 1.519 . S
C654 C256 1.529 . S
C659 C164 1.486 . S
C664 C297 1.456 . S
C674 C216 1.534 . S
C669 C142 1.503 . S
C684 C327 1.640 . S
C679 C15 1.644 . S
C689 C26 1.732 . S
C694 C367 1.727 . S
C699 C4 1.584 . S
C704 C406 1.558 . S
C709 C191 1.493 . S
C714 C366 1.452 . S
C719 C169 1.516 . S
C724 C407 1.514 . S
C729 C180 1.406 . S
C734 C326 1.394 . S
C739 C197 1.643 . S
C744 C337 1.616 . S
C749 C175 1.627 . S
C754 C377 1.605 . S
C764 C416 1.662 . S
C759 C186 1.636 . S
C769 C21 1.520 . S
C774 C376 1.529 . S
C784 C417 1.456 . S
C779 C32 1.486 1_455 S
C789 C10 1.503 . S
C794 C336 1.535 . S
C804 C447 1.639 . S
C799 C81 1.643 . S
C809 C92 1.732 . S
C814 C487 1.727 . S
C824 C526 1.558 . S
C819 C70 1.584 . S
C834 C486 1.452 . S
C829 C59 1.494 . S
C844 C527 1.514 . S
C839 C37 1.516 . S
C849 C48 1.407 . S
C854 C446 1.391 . S
C859 C65 1.619 1_655 S
C864 C457 1.616 . S
C869 C43 1.627 . S
C874 C497 1.607 . S
C884 C536 1.663 . S
C879 C54 1.637 1_545 S
C889 C87 1.519 . S
C894 C496 1.529 . S
C899 C98 1.487 . S
C904 C537 1.456 . S
C909 C76 1.500 . S
C914 C456 1.534 . S
C919 C170 1.594 . S
C924 C203 1.581 . S
C934 C243 1.887 . S
C929 C181 1.891 . S
C939 C192 1.550 . S
C944 C293 1.569 . S
C949 C71 1.716 . S
C954 C253 1.728 . S
C959 C82 1.670 . S
C964 C283 1.672 . S
C974 C213 1.382 . S
C969 C93 1.373 . S
C979 C38 1.595 . S
C984 C323 1.582 . S
C989 C49 1.891 . S
C994 C363 1.886 . S
C999 C60 1.551 . S
C1004 C413 1.570 . S
C1009 C137 1.714 . S
C1014 C373 1.728 . S
C1024 C403 1.672 . S
C1019 C148 1.670 . S
C1029 C159 1.373 . S
C1034 C333 1.382 . S
C1039 C104 1.593 . S
C1044 C443 1.580 . S
C1049 C115 1.890 . S
C1054 C483 1.885 . S
C1064 C533 1.570 . S
C1059 C126 1.551 . S
C1069 C5 1.715 . S
C1074 C493 1.728 . S
C1079 C16 1.670 . S
C1084 C523 1.672 . S
C1089 C27 1.374 . S
C1094 C453 1.382 . S
