# Generated by pormake.
# Topology pto, (3,4)-cn, num edge types: 1
# Building blocks:
#     Node 0, Type 0, BuildingBlock: KAKCAD_clean_linker_0, # of connection points: 3
#     Node 1, Type 0, BuildingBlock: KAKCAD_clean_linker_0, # of connection points: 3
#     Node 2, Type 0, BuildingBlock: KAKCAD_clean_linker_0, # of connection points: 3
#     Node 3, Type 0, BuildingBlock: KAKCAD_clean_linker_0, # of connection points: 3
#     Node 4, Type 0, BuildingBlock: KAKCAD_clean_linker_0, # of connection points: 3
#     Node 5, Type 0, BuildingBlock: KAKCAD_clean_linker_0, # of connection points: 3
#     Node 6, Type 0, BuildingBlock: KAKCAD_clean_linker_0, # of connection points: 3
#     Node 7, Type 0, BuildingBlock: KAKCAD_clean_linker_0, # of connection points: 3
#     Node 8, Type 1, BuildingBlock: NAWXER_clean_sbu_0, # of connection points: 4
#     Node 9, Type 1, BuildingBlock: NAWXER_clean_sbu_0, # of connection points: 4
#     Node 10, Type 1, BuildingBlock: NAWXER_clean_sbu_0, # of connection points: 4
#     Node 11, Type 1, BuildingBlock: NAWXER_clean_sbu_0, # of connection points: 4
#     Node 12, Type 1, BuildingBlock: NAWXER_clean_sbu_0, # of connection points: 4
#     Node 13, Type 1, BuildingBlock: NAWXER_clean_sbu_0, # of connection points: 4
#     Edge 14, Type (0, 1), BuildingBlock: XIVTED_clean_linker_0, # of connection points: 2
#     Edge 15, Type (0, 1), BuildingBlock: XIVTED_clean_linker_0, # of connection points: 2
#     Edge 16, Type (0, 1), BuildingBlock: XIVTED_clean_linker_0, # of connection points: 2
#     Edge 17, Type (0, 1), BuildingBlock: XIVTED_clean_linker_0, # of connection points: 2
#     Edge 18, Type (0, 1), BuildingBlock: XIVTED_clean_linker_0, # of connection points: 2
#     Edge 19, Type (0, 1), BuildingBlock: XIVTED_clean_linker_0, # of connection points: 2
#     Edge 20, Type (0, 1), BuildingBlock: XIVTED_clean_linker_0, # of connection points: 2
#     Edge 21, Type (0, 1), BuildingBlock: XIVTED_clean_linker_0, # of connection points: 2
#     Edge 22, Type (0, 1), BuildingBlock: XIVTED_clean_linker_0, # of connection points: 2
#     Edge 23, Type (0, 1), BuildingBlock: XIVTED_clean_linker_0, # of connection points: 2
#     Edge 24, Type (0, 1), BuildingBlock: XIVTED_clean_linker_0, # of connection points: 2
#     Edge 25, Type (0, 1), BuildingBlock: XIVTED_clean_linker_0, # of connection points: 2
#     Edge 26, Type (0, 1), BuildingBlock: XIVTED_clean_linker_0, # of connection points: 2
#     Edge 27, Type (0, 1), BuildingBlock: XIVTED_clean_linker_0, # of connection points: 2
#     Edge 28, Type (0, 1), BuildingBlock: XIVTED_clean_linker_0, # of connection points: 2
#     Edge 29, Type (0, 1), BuildingBlock: XIVTED_clean_linker_0, # of connection points: 2
#     Edge 30, Type (0, 1), BuildingBlock: XIVTED_clean_linker_0, # of connection points: 2
#     Edge 31, Type (0, 1), BuildingBlock: XIVTED_clean_linker_0, # of connection points: 2
#     Edge 32, Type (0, 1), BuildingBlock: XIVTED_clean_linker_0, # of connection points: 2
#     Edge 33, Type (0, 1), BuildingBlock: XIVTED_clean_linker_0, # of connection points: 2
#     Edge 34, Type (0, 1), BuildingBlock: XIVTED_clean_linker_0, # of connection points: 2
#     Edge 35, Type (0, 1), BuildingBlock: XIVTED_clean_linker_0, # of connection points: 2
#     Edge 36, Type (0, 1), BuildingBlock: XIVTED_clean_linker_0, # of connection points: 2
#     Edge 37, Type (0, 1), BuildingBlock: XIVTED_clean_linker_0, # of connection points: 2
# Relax obj value: 0.000
# Max RMSD: 0.003
# Mean RMSD: 0.002
data_MOF--net-pto--node1-NAWXER_clean_sbu_0--node2-KAKCAD_clean_linker_0--edge1-XIVTED_clean_linker_0
_symmetry_space_group_name_H-M    P1
_symmetry_Int_Tables_number       1
_symmetry_cell_setting            triclinic
loop_
_symmetry_equiv_pos_as_xyz
'x, y, z'
_cell_length_a     54.341414
_cell_length_b     50.991934
_cell_length_c     47.635379
_cell_angle_alpha  90.423997
_cell_angle_beta   90.642485
_cell_angle_gamma 90.341167
loop_
_atom_site_label
_atom_site_type_symbol
_atom_site_fract_x
_atom_site_fract_y
_atom_site_fract_z
_atom_type_partial_charge
C0 C 0.24548 0.17439 0.29696 0.0
C1 C 0.22362 0.16027 0.30165 0.0
C2 C 0.2467 0.19304 0.27572 0.0
C3 C 0.22607 0.19815 0.25863 0.0
C4 C 0.20401 0.18448 0.26362 0.0
C5 C 0.2028 0.1657 0.28489 0.0
C6 C 0.22778 0.21765 0.23566 0.0
C7 C 0.24872 0.21844 0.21862 0.0
C8 C 0.25111 0.23738 0.19758 0.0
C9 C 0.2323 0.25581 0.19367 0.0
C10 C 0.2113 0.25545 0.21062 0.0
C11 C 0.20902 0.23609 0.23131 0.0
C12 C 0.19251 0.27632 0.20802 0.0
C13 C 0.19975 0.30281 0.2075 0.0
C14 C 0.16728 0.27006 0.20723 0.0
C15 C 0.14965 0.28995 0.20627 0.0
C16 C 0.15692 0.31644 0.20656 0.0
C17 C 0.27364 0.23837 0.18031 0.0
C18 C 0.297 0.23785 0.19323 0.0
C19 C 0.27198 0.23991 0.15092 0.0
C20 C 0.2933 0.24077 0.13474 0.0
C21 C 0.31666 0.24058 0.14771 0.0
C22 C 0.31829 0.23914 0.17711 0.0
C23 C 0.18215 0.32266 0.20696 0.0
H24 H 0.2617 0.17119 0.30988 0.0
H25 H 0.2638 0.20365 0.27283 0.0
H26 H 0.18784 0.18788 0.25069 0.0
H27 H 0.18574 0.15504 0.28779 0.0
H28 H 0.26315 0.20408 0.22151 0.0
H29 H 0.19316 0.23615 0.24491 0.0
H30 H 0.23424 0.27076 0.17776 0.0
H31 H 0.21906 0.30821 0.20833 0.0
H32 H 0.16121 0.24979 0.2075 0.0
H33 H 0.13032 0.28463 0.20615 0.0
H34 H 0.29879 0.23684 0.21588 0.0
H35 H 0.25418 0.2402 0.14045 0.0
H36 H 0.18826 0.34292 0.20703 0.0
H37 H 0.33607 0.23883 0.18763 0.0
H38 H 0.29154 0.24206 0.11212 0.0
C39 C 0.30261 0.79451 0.84889 0.0
C40 C 0.31307 0.77033 0.85636 0.0
C41 C 0.28052 0.79541 0.83356 0.0
C42 C 0.26838 0.77217 0.82509 0.0
C43 C 0.27878 0.74801 0.83268 0.0
C44 C 0.30072 0.74711 0.84821 0.0
C45 C 0.24526 0.77306 0.80793 0.0
C46 C 0.24233 0.79197 0.78684 0.0
C47 C 0.2209 0.79266 0.77006 0.0
C48 C 0.20237 0.77379 0.77426 0.0
C49 C 0.2049 0.75459 0.79515 0.0
C50 C 0.22629 0.75463 0.81207 0.0
C51 C 0.18552 0.7341 0.79874 0.0
C52 C 0.16043 0.74027 0.79568 0.0
C53 C 0.19201 0.70795 0.80435 0.0
C54 C 0.17394 0.68844 0.80632 0.0
C55 C 0.14896 0.69454 0.80248 0.0
C56 C 0.21818 0.81285 0.74783 0.0
C57 C 0.22583 0.83886 0.75295 0.0
C58 C 0.2084 0.80626 0.7212 0.0
C59 C 0.2068 0.8251 0.70006 0.0
C60 C 0.21502 0.85093 0.70503 0.0
C61 C 0.2243 0.85764 0.73181 0.0
C62 C 0.14239 0.72071 0.79739 0.0
H63 H 0.31165 0.81282 0.85449 0.0
H64 H 0.27294 0.8144 0.82844 0.0
H65 H 0.27018 0.72968 0.82626 0.0
H66 H 0.30792 0.72811 0.85395 0.0
H67 H 0.25712 0.80573 0.78283 0.0
H68 H 0.22804 0.74044 0.82878 0.0
H69 H 0.18602 0.77396 0.76106 0.0
H70 H 0.15469 0.76025 0.79191 0.0
H71 H 0.21114 0.70236 0.8064 0.0
H72 H 0.1796 0.6684 0.8099 0.0
H73 H 0.233 0.84473 0.77337 0.0
H74 H 0.20262 0.78634 0.71643 0.0
H75 H 0.12325 0.72605 0.79471 0.0
H76 H 0.23041 0.87747 0.73646 0.0
H77 H 0.19984 0.81922 0.67955 0.0
C78 C 0.7083 0.74086 0.15499 0.0
C79 C 0.69658 0.76443 0.1477 0.0
C80 C 0.7302 0.74111 0.17065 0.0
C81 C 0.74117 0.76494 0.17924 0.0
C82 C 0.72976 0.78853 0.17144 0.0
C83 C 0.70771 0.78828 0.15597 0.0
C84 C 0.7639 0.76507 0.19712 0.0
C85 C 0.78238 0.74619 0.19308 0.0
C86 C 0.80311 0.74519 0.21101 0.0
C87 C 0.80531 0.76358 0.23306 0.0
C88 C 0.78736 0.78285 0.23707 0.0
C89 C 0.76676 0.7835 0.21907 0.0
C90 C 0.78971 0.80184 0.26069 0.0
C91 C 0.79447 0.79302 0.28807 0.0
C92 C 0.78683 0.82883 0.25607 0.0
C93 C 0.78857 0.84667 0.27846 0.0
C94 C 0.7928 0.83779 0.30593 0.0
C95 C 0.82216 0.72459 0.20734 0.0
C96 C 0.81542 0.69858 0.20063 0.0
C97 C 0.84723 0.73057 0.21167 0.0
C98 C 0.86499 0.71091 0.21033 0.0
C99 C 0.85816 0.6848 0.20444 0.0
C100 C 0.83323 0.67892 0.19911 0.0
C101 C 0.79581 0.81081 0.31052 0.0
H102 H 0.70059 0.7221 0.14859 0.0
H103 H 0.73822 0.72252 0.17652 0.0
H104 H 0.73781 0.80728 0.17732 0.0
H105 H 0.69917 0.80683 0.151 0.0
H106 H 0.78077 0.7324 0.17574 0.0
H107 H 0.75248 0.79777 0.22296 0.0
H108 H 0.82094 0.76281 0.24736 0.0
H109 H 0.79663 0.77229 0.29221 0.0
H110 H 0.78326 0.83612 0.23511 0.0
H111 H 0.78597 0.86735 0.27439 0.0
H112 H 0.79627 0.6932 0.19748 0.0
H113 H 0.85316 0.75047 0.21628 0.0
H114 H 0.79917 0.80347 0.33149 0.0
H115 H 0.82737 0.65895 0.19479 0.0
H116 H 0.8841 0.71613 0.21407 0.0
C117 C 0.80486 0.16949 0.71472 0.0
C118 C 0.7838 0.16365 0.69836 0.0
C119 C 0.80396 0.18832 0.73623 0.0
C120 C 0.78195 0.20161 0.7419 0.0
C121 C 0.76101 0.19603 0.72531 0.0
C122 C 0.76194 0.17735 0.70378 0.0
C123 C 0.78066 0.22124 0.76506 0.0
C124 C 0.79936 0.24009 0.76883 0.0
C125 C 0.79791 0.25922 0.79018 0.0
C126 C 0.7773 0.25925 0.80784 0.0
C127 C 0.75834 0.24053 0.80438 0.0
C128 C 0.76036 0.2215 0.78304 0.0
C129 C 0.73622 0.24109 0.82264 0.0
C130 C 0.73834 0.24743 0.85137 0.0
C131 C 0.7127 0.23548 0.81135 0.0
C132 C 0.69189 0.23616 0.82831 0.0
C133 C 0.69403 0.24276 0.85691 0.0
C134 C 0.81758 0.27956 0.79341 0.0
C135 C 0.84244 0.27308 0.78946 0.0
C136 C 0.81164 0.30576 0.79976 0.0
C137 C 0.83003 0.32501 0.80167 0.0
C138 C 0.85477 0.31858 0.79703 0.0
C139 C 0.86079 0.29237 0.79111 0.0
C140 C 0.71747 0.24839 0.86827 0.0
H141 H 0.82192 0.15914 0.71133 0.0
H142 H 0.82035 0.19208 0.74881 0.0
H143 H 0.74392 0.20631 0.72879 0.0
H144 H 0.74551 0.17382 0.6912 0.0
H145 H 0.81466 0.24039 0.75444 0.0
H146 H 0.74623 0.20655 0.78061 0.0
H147 H 0.77592 0.27403 0.82417 0.0
H148 H 0.75615 0.25143 0.86093 0.0
H149 H 0.71025 0.23102 0.78923 0.0
H150 H 0.67403 0.23211 0.81888 0.0
H151 H 0.84777 0.25304 0.78508 0.0
H152 H 0.79269 0.3116 0.80249 0.0
H153 H 0.7197 0.25326 0.89033 0.0
H154 H 0.87974 0.28677 0.7878 0.0
H155 H 0.82479 0.3451 0.80591 0.0
C156 C 0.7362 0.78137 0.64827 0.0
C157 C 0.73414 0.80657 0.66014 0.0
C158 C 0.73662 0.75919 0.66542 0.0
C159 C 0.73451 0.76183 0.69467 0.0
C160 C 0.73221 0.78702 0.70647 0.0
C161 C 0.73221 0.80917 0.68941 0.0
C162 C 0.7346 0.73847 0.71301 0.0
C163 C 0.75328 0.71966 0.71092 0.0
C164 C 0.75423 0.69841 0.72955 0.0
C165 C 0.73575 0.6957 0.74983 0.0
C166 C 0.71681 0.71423 0.75198 0.0
C167 C 0.71646 0.73557 0.7335 0.0
C168 C 0.69763 0.7118 0.77382 0.0
C169 C 0.68606 0.68761 0.77905 0.0
C170 C 0.69037 0.73399 0.78922 0.0
C171 C 0.6716 0.73222 0.80888 0.0
C172 C 0.6595 0.70822 0.81361 0.0
C173 C 0.77525 0.6799 0.72891 0.0
C174 C 0.78393 0.66976 0.70337 0.0
C175 C 0.78719 0.67279 0.75399 0.0
C176 C 0.80736 0.65595 0.7536 0.0
C177 C 0.81602 0.64558 0.72812 0.0
C178 C 0.80404 0.65271 0.70298 0.0
C179 C 0.66717 0.68583 0.79873 0.0
H180 H 0.73789 0.77886 0.62577 0.0
H181 H 0.73831 0.73997 0.65582 0.0
H182 H 0.73072 0.78959 0.72899 0.0
H183 H 0.73048 0.82836 0.69908 0.0
H184 H 0.76771 0.72226 0.69563 0.0
H185 H 0.70183 0.74988 0.73482 0.0
H186 H 0.73635 0.6794 0.76429 0.0
H187 H 0.69116 0.67019 0.76738 0.0
H188 H 0.69927 0.7528 0.78611 0.0
H189 H 0.66662 0.74972 0.82045 0.0
H190 H 0.77498 0.67478 0.68372 0.0
H191 H 0.78126 0.68069 0.77396 0.0
H192 H 0.65813 0.66709 0.80172 0.0
H193 H 0.80998 0.64489 0.683 0.0
H194 H 0.81642 0.65146 0.77333 0.0
C195 C 0.64889 0.29798 0.2311 0.0
C196 C 0.65401 0.30622 0.20367 0.0
C197 C 0.66783 0.29538 0.25096 0.0
C198 C 0.69238 0.3008 0.24384 0.0
C199 C 0.6974 0.30974 0.21661 0.0
C200 C 0.67842 0.31248 0.19678 0.0
C201 C 0.71274 0.29608 0.26436 0.0
C202 C 0.71236 0.27369 0.28139 0.0
C203 C 0.73172 0.26842 0.30031 0.0
C204 C 0.75187 0.28588 0.30179 0.0
C205 C 0.75286 0.3082 0.28463 0.0
C206 C 0.73301 0.31328 0.26627 0.0
C207 C 0.77508 0.32552 0.28489 0.0
C208 C 0.78775 0.33152 0.31009 0.0
C209 C 0.78424 0.33557 0.25964 0.0
C210 C 0.80558 0.35095 0.2595 0.0
C211 C 0.81855 0.35657 0.28458 0.0
C212 C 0.7312 0.24418 0.31768 0.0
C213 C 0.70897 0.23481 0.32884 0.0
C214 C 0.75282 0.22987 0.32274 0.0
C215 C 0.75222 0.20681 0.33841 0.0
C216 C 0.72993 0.19718 0.34917 0.0
C217 C 0.70832 0.21157 0.34423 0.0
C218 C 0.80924 0.34684 0.30993 0.0
H219 H 0.63021 0.2934 0.23718 0.0
H220 H 0.66323 0.28895 0.27189 0.0
H221 H 0.71611 0.31377 0.21027 0.0
H222 H 0.683 0.31857 0.17573 0.0
H223 H 0.69732 0.25977 0.27912 0.0
H224 H 0.73325 0.33079 0.25354 0.0
H225 H 0.76704 0.28186 0.31602 0.0
H226 H 0.78109 0.32439 0.32998 0.0
H227 H 0.7752 0.33112 0.23978 0.0
H228 H 0.8119 0.35846 0.23962 0.0
H229 H 0.69199 0.24545 0.32573 0.0
H230 H 0.77025 0.23619 0.31421 0.0
H231 H 0.81879 0.35061 0.32963 0.0
H232 H 0.69075 0.20472 0.35189 0.0
H233 H 0.76935 0.19662 0.34215 0.0
C234 C 0.33112 0.32011 0.81069 0.0
C235 C 0.35539 0.31398 0.8033 0.0
C236 C 0.31188 0.31729 0.79114 0.0
C237 C 0.31646 0.30841 0.76366 0.0
C238 C 0.34087 0.30307 0.75604 0.0
C239 C 0.36008 0.30576 0.77564 0.0
C240 C 0.29573 0.30365 0.74348 0.0
C241 C 0.27554 0.32078 0.74248 0.0
C242 C 0.25512 0.31551 0.72484 0.0
C243 C 0.25532 0.29293 0.70771 0.0
C244 C 0.27546 0.27577 0.70808 0.0
C245 C 0.29557 0.2813 0.72599 0.0
C246 C 0.27517 0.25164 0.69035 0.0
C247 C 0.25395 0.23581 0.68862 0.0
C248 C 0.29602 0.24426 0.67505 0.0
C249 C 0.29552 0.22176 0.65803 0.0
C250 C 0.27419 0.20606 0.65604 0.0
C251 C 0.23326 0.33306 0.72502 0.0
C252 C 0.2249 0.34399 0.75034 0.0
C253 C 0.22021 0.33854 0.70008 0.0
C254 C 0.19913 0.35418 0.70054 0.0
C255 C 0.19063 0.36485 0.72594 0.0
C256 C 0.20396 0.35974 0.75078 0.0
C257 C 0.25349 0.21328 0.67176 0.0
H258 H 0.32683 0.32614 0.83192 0.0
H259 H 0.29329 0.32123 0.79789 0.0
H260 H 0.34513 0.29665 0.73493 0.0
H261 H 0.37864 0.30126 0.76917 0.0
H262 H 0.27582 0.33839 0.75534 0.0
H263 H 0.31068 0.26756 0.7271 0.0
H264 H 0.23963 0.28849 0.69424 0.0
H265 H 0.23775 0.24069 0.70057 0.0
H266 H 0.31258 0.25619 0.67581 0.0
H267 H 0.3117 0.217 0.64599 0.0
H268 H 0.23427 0.33999 0.77002 0.0
H269 H 0.22626 0.33076 0.68012 0.0
H270 H 0.23692 0.20138 0.67126 0.0
H271 H 0.19827 0.36795 0.77068 0.0
H272 H 0.18926 0.35749 0.68103 0.0
C273 C 0.27487 0.81113 0.31758 0.0
C274 C 0.27259 0.80865 0.34678 0.0
C275 C 0.27476 0.78893 0.30024 0.0
C276 C 0.27202 0.76377 0.31169 0.0
C277 C 0.26964 0.76124 0.34089 0.0
C278 C 0.27015 0.78348 0.35832 0.0
C279 C 0.27167 0.74037 0.29301 0.0
C280 C 0.28979 0.73744 0.27249 0.0
C281 C 0.28916 0.71614 0.25362 0.0
C282 C 0.26994 0.69769 0.25539 0.0
C283 C 0.25149 0.7004 0.2757 0.0
C284 C 0.25272 0.72161 0.29473 0.0
C285 C 0.23026 0.6819 0.27601 0.0
C286 C 0.21813 0.67494 0.25082 0.0
C287 C 0.22162 0.67151 0.30134 0.0
C288 C 0.20142 0.65433 0.30142 0.0
C289 C 0.18926 0.64732 0.27618 0.0
C290 C 0.30834 0.71367 0.23176 0.0
C291 C 0.31596 0.73585 0.21677 0.0
C292 C 0.31951 0.68943 0.22608 0.0
C293 C 0.33836 0.68759 0.20635 0.0
C294 C 0.34638 0.70995 0.19186 0.0
C295 C 0.33468 0.73401 0.19706 0.0
C296 C 0.19785 0.65799 0.25091 0.0
H297 H 0.27689 0.83029 0.30815 0.0
H298 H 0.27647 0.79144 0.27778 0.0
H299 H 0.2676 0.74205 0.35022 0.0
H300 H 0.26819 0.78106 0.38075 0.0
H301 H 0.30463 0.7517 0.27145 0.0
H302 H 0.23832 0.7242 0.31005 0.0
H303 H 0.26911 0.68141 0.24063 0.0
H304 H 0.22404 0.68303 0.23103 0.0
H305 H 0.23071 0.67641 0.32106 0.0
H306 H 0.19556 0.64627 0.32124 0.0
H307 H 0.30736 0.7547 0.22023 0.0
H308 H 0.31413 0.67202 0.23742 0.0
H309 H 0.18867 0.6536 0.23113 0.0
H310 H 0.33994 0.75151 0.1858 0.0
H311 H 0.34708 0.6688 0.20301 0.0
C312 C 0.96983 0.4693 0.26658 0.0
C313 C 0.04063 0.529 0.26368 0.0
O314 O 0.98093 0.48015 0.28727 0.0
Zn315 Zn 0.00501 0.4997 0.26577 0.0
O316 O 0.97691 0.47417 0.24157 0.0
Zn317 Zn 0.00426 0.49733 0.22116 0.0
O318 O 0.02282 0.47086 0.20149 0.0
O319 O 0.02761 0.46951 0.24756 0.0
O320 O 0.03309 0.5216 0.23922 0.0
O321 O 0.02932 0.52115 0.28533 0.0
O322 O 0.98299 0.52878 0.24536 0.0
O323 O 0.98467 0.52194 0.19967 0.0
C324 C 0.03276 0.46062 0.22305 0.0
C325 C 0.97667 0.53516 0.22033 0.0
C326 C 0.97702 0.46613 0.78459 0.0
C327 C 0.02975 0.54411 0.78601 0.0
O328 O 0.98527 0.47851 0.80601 0.0
Zn329 Zn 0.00348 0.50489 0.78588 0.0
O330 O 0.98255 0.47405 0.75991 0.0
Zn331 Zn 0.00346 0.50536 0.7412 0.0
O332 O 0.02862 0.48659 0.7207 0.0
O333 O 0.03199 0.48231 0.76663 0.0
O334 O 0.02408 0.53641 0.76107 0.0
O335 O 0.02186 0.53135 0.80691 0.0
O336 O 0.97414 0.52663 0.76665 0.0
O337 O 0.97835 0.52449 0.72067 0.0
C338 C 0.03967 0.47697 0.74189 0.0
C339 C 0.96654 0.53256 0.74192 0.0
C340 C 0.22615 0.97677 0.54435 0.0
C341 C 0.22704 0.03339 0.46181 0.0
O342 O 0.20762 0.9852 0.5307 0.0
Zn343 Zn 0.22578 0.00513 0.50294 0.0
O344 O 0.24787 0.98297 0.53644 0.0
Zn345 Zn 0.26509 0.00506 0.50416 0.0
O346 O 0.28293 0.03177 0.52548 0.0
O347 O 0.2426 0.03609 0.52733 0.0
O348 O 0.2486 0.02733 0.47081 0.0
O349 O 0.20818 0.02481 0.47448 0.0
O350 O 0.24276 0.97494 0.47839 0.0
O351 O 0.28305 0.97819 0.48402 0.0
C352 C 0.26425 0.04418 0.53424 0.0
C353 C 0.26446 0.96667 0.47301 0.0
C354 C 0.53952 0.75174 0.03483 0.0
C355 C 0.46811 0.75281 0.97154 0.0
O356 O 0.53161 0.72867 0.02847 0.0
Zn357 Zn 0.50308 0.71105 0.0028 0.0
O358 O 0.52876 0.77166 0.02466 0.0
Zn359 Zn 0.50376 0.75281 0.00328 0.0
O360 O 0.48187 0.73505 0.0352 0.0
O361 O 0.48346 0.69208 0.02988 0.0
O362 O 0.47945 0.77239 0.98228 0.0
O363 O 0.47523 0.72952 0.9774 0.0
O364 O 0.52205 0.69172 0.97529 0.0
O365 O 0.52501 0.73468 0.97094 0.0
C366 C 0.47547 0.71202 0.04303 0.0
C367 C 0.53065 0.71154 0.96257 0.0
C368 C 0.74056 0.96285 0.5338 0.0
C369 C 0.73952 0.03537 0.46727 0.0
O370 O 0.72177 0.97341 0.52254 0.0
Zn371 Zn 0.7394 0.99899 0.50065 0.0
O372 O 0.76217 0.97122 0.52776 0.0
Zn373 Zn 0.77863 1.00058 0.50139 0.0
O374 O 0.79577 0.02296 0.52848 0.0
O375 O 0.75537 0.02387 0.53248 0.0
O376 O 0.76133 0.02844 0.47438 0.0
O377 O 0.7211 0.02361 0.47768 0.0
O378 O 0.75715 0.97407 0.47072 0.0
O379 O 0.79734 0.97968 0.47504 0.0
C380 C 0.77678 0.03143 0.5409 0.0
C381 C 0.77905 0.96843 0.46309 0.0
C382 C 0.53145 0.30087 0.04466 0.0
C383 C 0.47882 0.30216 0.9607 0.0
O384 O 0.52569 0.27784 0.03559 0.0
Zn385 Zn 0.50471 0.26044 0.0015 0.0
O386 O 0.52345 0.32091 0.03178 0.0
Zn387 Zn 0.5051 0.30211 0.0029 0.0
O388 O 0.47631 0.28372 0.02651 0.0
O389 O 0.4794 0.24089 0.02065 0.0
O390 O 0.48687 0.32174 0.97477 0.0
O391 O 0.48433 0.27892 0.96856 0.0
O392 O 0.52953 0.24148 0.98097 0.0
O393 O 0.53438 0.28445 0.97942 0.0
C394 C 0.46846 0.26043 0.03141 0.0
C395 C 0.54164 0.26135 0.97275 0.0
H396 H 0.11532 0.32227 0.17399 0.0
H397 H 0.06566 0.44376 0.26244 0.0
H398 H 0.15622 0.35854 0.24214 0.0
H399 H 0.04094 0.4285 0.17741 0.0
H400 H 0.09571 0.4087 0.25785 0.0
H401 H 0.08466 0.35741 0.17725 0.0
C402 C 0.1178 0.33761 0.18963 0.0
C403 C 0.13834 0.3376 0.20777 0.0
C404 C 0.08374 0.41303 0.24017 0.0
C405 C 0.10341 0.37751 0.21177 0.0
C406 C 0.06647 0.43297 0.24281 0.0
C407 C 0.05075 0.4391 0.22025 0.0
C408 C 0.08513 0.39877 0.21494 0.0
C409 C 0.05278 0.42448 0.19528 0.0
C410 C 0.10042 0.35767 0.19138 0.0
C411 C 0.14079 0.35798 0.22757 0.0
N412 N 0.06958 0.40486 0.19332 0.0
N413 N 0.12346 0.37699 0.22916 0.0
H414 H 0.14395 0.65365 0.83928 0.0
H415 H 0.03989 0.58182 0.74756 0.0
H416 H 0.11094 0.6873 0.76517 0.0
H417 H 0.05597 0.55976 0.83309 0.0
H418 H 0.06755 0.61935 0.75298 0.0
H419 H 0.11361 0.61784 0.83684 0.0
C420 C 0.13028 0.65352 0.82256 0.0
C421 C 0.12996 0.67347 0.80238 0.0
C422 C 0.06495 0.60642 0.77064 0.0
C423 C 0.09536 0.6326 0.7994 0.0
C424 C 0.04921 0.5849 0.76754 0.0
C425 C 0.04565 0.56756 0.78989 0.0
C426 C 0.07758 0.61054 0.79617 0.0
C427 C 0.05814 0.57267 0.81534 0.0
C428 C 0.11291 0.63319 0.82127 0.0
C429 C 0.11172 0.67248 0.78131 0.0
N430 N 0.07374 0.5936 0.81773 0.0
N431 N 0.0953 0.6523 0.78024 0.0
H432 H 0.89459 0.67789 0.24354 0.0
H433 H 0.95079 0.54896 0.17264 0.0
H434 H 0.86404 0.64337 0.16777 0.0
H435 H 0.96483 0.57297 0.25845 0.0
H436 H 0.92252 0.5861 0.16739 0.0
H437 H 0.92437 0.64236 0.24604 0.0
C438 C 0.89431 0.66295 0.22725 0.0
C439 C 0.87681 0.66363 0.20539 0.0
C440 C 0.93185 0.58318 0.18732 0.0
C441 C 0.91081 0.62265 0.20825 0.0
C442 C 0.94803 0.56208 0.1903 0.0
C443 C 0.96012 0.55779 0.21606 0.0
C444 C 0.92804 0.60025 0.21014 0.0
C445 C 0.95582 0.57538 0.23826 0.0
C446 C 0.9112 0.64254 0.2288 0.0
C447 C 0.87708 0.64347 0.18511 0.0
N448 N 0.94022 0.5958 0.23476 0.0
N449 N 0.89385 0.6238 0.18699 0.0
H450 H 0.86173 0.3588 0.83502 0.0
H451 H 0.96515 0.42935 0.74479 0.0
H452 H 0.89156 0.3257 0.75915 0.0
H453 H 0.95149 0.45038 0.83114 0.0
H454 H 0.93662 0.39253 0.749 0.0
H455 H 0.89277 0.39387 0.83336 0.0
C456 C 0.87484 0.3589 0.81806 0.0
C457 C 0.87407 0.33932 0.79718 0.0
C458 C 0.93995 0.40508 0.7671 0.0
C459 C 0.9095 0.37934 0.79511 0.0
C460 C 0.95619 0.42618 0.7647 0.0
C461 C 0.96068 0.44303 0.78764 0.0
C462 C 0.92777 0.40091 0.79252 0.0
C463 C 0.94861 0.43785 0.81294 0.0
C464 C 0.89261 0.37881 0.81721 0.0
C465 C 0.89162 0.34025 0.77582 0.0
N466 N 0.93253 0.41736 0.81465 0.0
N467 N 0.90847 0.36002 0.77522 0.0
H468 H 0.25917 0.12454 0.31492 0.0
H469 H 0.18578 0.05849 0.44137 0.0
H470 H 0.18631 0.14898 0.33856 0.0
H471 H 0.26309 0.04735 0.42552 0.0
H472 H 0.18361 0.08818 0.40102 0.0
H473 H 0.25888 0.09259 0.3526 0.0
C474 C 0.24312 0.12329 0.32812 0.0
C475 C 0.22287 0.13978 0.32373 0.0
C476 C 0.20099 0.07914 0.40641 0.0
C477 C 0.22227 0.10277 0.36691 0.0
C478 C 0.20223 0.06215 0.42936 0.0
C479 C 0.22468 0.0505 0.43694 0.0
C480 C 0.2223 0.08427 0.39085 0.0
C481 C 0.24542 0.05598 0.42063 0.0
C482 C 0.24292 0.1049 0.34959 0.0
C483 C 0.20231 0.13664 0.34109 0.0
N484 N 0.24371 0.07242 0.39845 0.0
N485 N 0.20257 0.11858 0.36202 0.0
H486 H 0.3299 0.80349 0.89849 0.0
H487 H 0.44692 0.71679 0.9361 0.0
H488 H 0.35058 0.73474 0.85096 0.0
H489 H 0.43982 0.7969 0.96459 0.0
H490 H 0.41005 0.72199 0.90705 0.0
H491 H 0.3686 0.80065 0.92494 0.0
C492 C 0.34259 0.78792 0.8934 0.0
C493 C 0.33676 0.76925 0.87244 0.0
C494 C 0.41661 0.7385 0.91952 0.0
C495 C 0.38096 0.76566 0.90314 0.0
C496 C 0.43764 0.73553 0.93619 0.0
C497 C 0.44646 0.75644 0.95286 0.0
C498 C 0.40401 0.76245 0.91974 0.0
C499 C 0.4337 0.7803 0.95201 0.0
C500 C 0.36466 0.78627 0.90863 0.0
C501 C 0.35389 0.74928 0.86726 0.0
N502 N 0.41298 0.7826 0.9359 0.0
N503 N 0.37508 0.74794 0.88258 0.0
H504 H 0.81812 0.88432 0.31128 0.0
H505 H 0.74724 0.9295 0.44769 0.0
H506 H 0.76758 0.83385 0.35488 0.0
H507 H 0.81852 0.96178 0.42799 0.0
H508 H 0.75206 0.89701 0.41036 0.0
H509 H 0.81645 0.91572 0.35063 0.0
C510 C 0.80674 0.87986 0.32917 0.0
C511 C 0.79296 0.8565 0.3299 0.0
C512 C 0.76671 0.91111 0.41426 0.0
C513 C 0.79078 0.89226 0.37459 0.0
C514 C 0.76393 0.92976 0.43547 0.0
C515 C 0.7825 0.94841 0.4409 0.0
C516 C 0.78802 0.91134 0.39793 0.0
C517 C 0.80381 0.94768 0.42452 0.0
C518 C 0.8059 0.89766 0.35161 0.0
C519 C 0.77862 0.85155 0.35359 0.0
N520 N 0.80591 0.92958 0.40351 0.0
N521 N 0.77771 0.86939 0.37486 0.0
H522 H 0.65542 0.20798 0.85954 0.0
H523 H 0.57609 0.29871 0.96099 0.0
H524 H 0.68194 0.28129 0.89447 0.0
H525 H 0.55877 0.21698 0.94633 0.0
H526 H 0.61333 0.29367 0.93345 0.0
H527 H 0.61831 0.21185 0.88806 0.0
C528 C 0.65341 0.22489 0.8732 0.0
C529 C 0.67178 0.24435 0.87465 0.0
C530 C 0.60144 0.2768 0.93629 0.0
C531 C 0.62942 0.24893 0.90721 0.0
C532 C 0.58008 0.27968 0.95193 0.0
C533 C 0.56424 0.25822 0.95598 0.0
C534 C 0.60696 0.25236 0.92426 0.0
C535 C 0.57048 0.23403 0.9438 0.0
C536 C 0.63231 0.22701 0.88956 0.0
C537 C 0.66835 0.26572 0.89289 0.0
N538 N 0.59131 0.23177 0.92836 0.0
N539 N 0.64753 0.26752 0.90831 0.0
H540 H 0.17897 0.86025 0.66526 0.0
H541 H 0.26135 0.96396 0.58281 0.0
H542 H 0.25127 0.88606 0.69226 0.0
H543 H 0.18471 0.95046 0.56234 0.0
H544 H 0.2577 0.93445 0.62235 0.0
H545 H 0.18046 0.89192 0.62674 0.0
C546 C 0.19514 0.87257 0.6631 0.0
C547 C 0.21502 0.87052 0.68206 0.0
C548 C 0.2416 0.93796 0.60935 0.0
C549 C 0.21681 0.90674 0.63815 0.0
C550 C 0.24368 0.95481 0.58665 0.0
C551 C 0.22331 0.95967 0.56912 0.0
C552 C 0.21902 0.92553 0.61461 0.0
C553 C 0.20087 0.94731 0.57533 0.0
C554 C 0.1959 0.89072 0.64123 0.0
C555 C 0.23539 0.88716 0.67842 0.0
N556 N 0.19935 0.93064 0.5975 0.0
N557 N 0.23578 0.90441 0.65687 0.0
H558 H 0.68024 0.79849 0.10687 0.0
H559 H 0.5599 0.71496 0.06907 0.0
H560 H 0.65815 0.72951 0.15251 0.0
H561 H 0.56933 0.79507 0.04243 0.0
H562 H 0.59734 0.71897 0.09752 0.0
H563 H 0.6411 0.79685 0.08103 0.0
C564 C 0.66717 0.78311 0.11166 0.0
C565 C 0.67271 0.76401 0.13189 0.0
C566 C 0.59118 0.73575 0.0856 0.0
C567 C 0.62799 0.76182 0.10194 0.0
C568 C 0.56981 0.73345 0.06927 0.0
C569 C 0.56148 0.75471 0.05329 0.0
C570 C 0.60459 0.75936 0.08572 0.0
C571 C 0.57505 0.77822 0.05449 0.0
C572 C 0.64485 0.78215 0.09679 0.0
C573 C 0.65506 0.74434 0.13674 0.0
N574 N 0.59608 0.77986 0.07025 0.0
N575 N 0.63363 0.74369 0.12179 0.0
H576 H 0.82081 0.15275 0.66092 0.0
H577 H 0.74039 0.04625 0.57636 0.0
H578 H 0.74804 0.12753 0.68475 0.0
H579 H 0.8176 0.05876 0.56037 0.0
H580 H 0.74301 0.07734 0.61518 0.0
H581 H 0.82033 0.11954 0.62345 0.0
C582 C 0.80481 0.14015 0.65844 0.0
C583 C 0.78433 0.14315 0.67594 0.0
C584 C 0.75945 0.07329 0.60331 0.0
C585 C 0.7836 0.10535 0.63289 0.0
C586 C 0.75796 0.05554 0.58101 0.0
C587 C 0.77881 0.0499 0.56498 0.0
C588 C 0.78192 0.0858 0.60967 0.0
C589 C 0.80108 0.06251 0.57219 0.0
C590 C 0.80453 0.12128 0.63696 0.0
C591 C 0.76403 0.12641 0.67148 0.0
N592 N 0.80203 0.08 0.59395 0.0
N593 N 0.76416 0.10837 0.65039 0.0
H594 H 0.32853 0.21221 0.1007 0.0
H595 H 0.44931 0.29532 0.06876 0.0
H596 H 0.35618 0.27315 0.15605 0.0
H597 H 0.43801 0.21736 0.03496 0.0
H598 H 0.41273 0.28981 0.0975 0.0
H599 H 0.36608 0.21605 0.07277 0.0
C600 C 0.34249 0.22642 0.10691 0.0
C601 C 0.3393 0.24239 0.1307 0.0
C602 C 0.4183 0.27386 0.08389 0.0
C603 C 0.38206 0.24697 0.09888 0.0
C604 C 0.43913 0.27701 0.06739 0.0
C605 C 0.44672 0.25675 0.04942 0.0
C606 C 0.40466 0.25044 0.08212 0.0
C607 C 0.43285 0.23343 0.04861 0.0
C608 C 0.36393 0.22848 0.0911 0.0
C609 C 0.35802 0.26033 0.13798 0.0
N610 N 0.41234 0.23097 0.06457 0.0
N611 N 0.3785 0.26228 0.12202 0.0
H612 H 0.85361 0.64253 0.68972 0.0
H613 H 0.93238 0.54299 0.78177 0.0
H614 H 0.82768 0.60736 0.7662 0.0
H615 H 0.94899 0.55803 0.69494 0.0
H616 H 0.89535 0.56926 0.77712 0.0
H617 H 0.88966 0.61394 0.69151 0.0
C618 C 0.85531 0.62868 0.70675 0.0
C619 C 0.83756 0.62759 0.72799 0.0
C620 C 0.907 0.56678 0.75901 0.0
C621 C 0.87905 0.59517 0.73035 0.0
C622 C 0.92826 0.55185 0.76167 0.0
C623 C 0.94389 0.54832 0.73871 0.0
C624 C 0.90132 0.57863 0.73327 0.0
C625 C 0.93744 0.5602 0.71316 0.0
C626 C 0.87598 0.61246 0.70779 0.0
C627 C 0.84106 0.60943 0.74969 0.0
N628 N 0.9167 0.575 0.71116 0.0
N629 N 0.86141 0.59413 0.75039 0.0
H630 H 0.83546 0.39381 0.32262 0.0
H631 H 0.94936 0.43559 0.22827 0.0
H632 H 0.85505 0.35479 0.24535 0.0
H633 H 0.94207 0.46197 0.31407 0.0
H634 H 0.91362 0.40726 0.23396 0.0
H635 H 0.87334 0.41997 0.31999 0.0
C636 C 0.84775 0.39057 0.30522 0.0
C637 C 0.84184 0.37217 0.28402 0.0
C638 C 0.91984 0.41912 0.25164 0.0
C639 C 0.88505 0.40234 0.28075 0.0
C640 C 0.94025 0.4354 0.24838 0.0
C641 C 0.94871 0.45128 0.27071 0.0
C642 C 0.90747 0.41879 0.27735 0.0
C643 C 0.93619 0.45003 0.29632 0.0
C644 C 0.86933 0.4056 0.3037 0.0
C645 C 0.85843 0.36911 0.26185 0.0
N646 N 0.91605 0.4342 0.29889 0.0
N647 N 0.87912 0.3841 0.26074 0.0
H648 H 0.1738 0.40085 0.68732 0.0
H649 H 0.0612 0.44642 0.78176 0.0
H650 H 0.15502 0.36535 0.76635 0.0
H651 H 0.0674 0.46803 0.69467 0.0
H652 H 0.09722 0.41867 0.777 0.0
H653 H 0.13638 0.42725 0.68988 0.0
C654 C 0.16179 0.39843 0.70512 0.0
C655 C 0.16777 0.38088 0.72675 0.0
C656 C 0.09071 0.42938 0.75886 0.0
C657 C 0.12509 0.4114 0.72995 0.0
C658 C 0.07014 0.44534 0.76157 0.0
C659 C 0.06125 0.45965 0.73858 0.0
C660 C 0.10277 0.42781 0.73301 0.0
C661 C 0.0736 0.45731 0.71293 0.0
C662 C 0.14048 0.41362 0.70659 0.0
C663 C 0.15158 0.37895 0.74945 0.0
N664 N 0.09384 0.4418 0.71086 0.0
N665 N 0.13112 0.39407 0.75048 0.0
H666 H 0.15206 0.64328 0.31495 0.0
H667 H 0.07346 0.54106 0.22283 0.0
H668 H 0.17711 0.60949 0.237 0.0
H669 H 0.05817 0.55593 0.31023 0.0
H670 H 0.1098 0.56908 0.22677 0.0
H671 H 0.11626 0.6139 0.31308 0.0
C672 C 0.15021 0.6296 0.29756 0.0
C673 C 0.16769 0.62907 0.276 0.0
C674 C 0.09856 0.5662 0.24513 0.0
C675 C 0.12643 0.59574 0.27354 0.0
C676 C 0.07771 0.55026 0.24288 0.0
C677 C 0.06269 0.54612 0.26624 0.0
C678 C 0.10444 0.57842 0.27086 0.0
C679 C 0.06925 0.55853 0.2917 0.0
C680 C 0.12967 0.61292 0.29647 0.0
C681 C 0.16397 0.61111 0.25381 0.0
N682 N 0.0896 0.57424 0.29331 0.0
N683 N 0.14375 0.59532 0.25311 0.0
H684 H 0.76186 0.85096 0.66724 0.0
H685 H 0.70137 0.92904 0.5395 0.0
H686 H 0.70701 0.81587 0.61241 0.0
H687 H 0.77396 0.94619 0.57271 0.0
H688 H 0.69891 0.89108 0.57085 0.0
H689 H 0.76231 0.88984 0.6374 0.0
C690 C 0.74983 0.85153 0.64897 0.0
C691 C 0.73442 0.8302 0.64219 0.0
C692 C 0.71532 0.90324 0.57124 0.0
C693 C 0.73473 0.8746 0.60811 0.0
C694 C 0.71668 0.92495 0.55352 0.0
C695 C 0.73794 0.94071 0.55344 0.0
C696 C 0.73516 0.89763 0.58933 0.0
C697 C 0.75729 0.93446 0.57194 0.0
C698 C 0.75017 0.87364 0.6319 0.0
C699 C 0.71931 0.83185 0.61818 0.0
N700 N 0.7554 0.91348 0.58919 0.0
N701 N 0.71974 0.85375 0.60203 0.0
H702 H 0.61774 0.26984 0.19392 0.0
H703 H 0.55662 0.34468 0.06359 0.0
H704 H 0.64527 0.34388 0.16373 0.0
H705 H 0.54359 0.26315 0.08254 0.0
H706 H 0.58532 0.34741 0.10372 0.0
H707 H 0.58637 0.26993 0.15687 0.0
C708 C 0.61701 0.28628 0.17967 0.0
C709 C 0.63417 0.30688 0.18194 0.0
C710 C 0.57608 0.32898 0.09908 0.0
C711 C 0.59838 0.30699 0.13919 0.0
C712 C 0.55964 0.32744 0.07628 0.0
C713 C 0.54778 0.30362 0.06961 0.0
C714 C 0.58042 0.30664 0.11547 0.0
C715 C 0.55243 0.28188 0.08675 0.0
C716 C 0.5992 0.28623 0.15838 0.0
C717 C 0.63255 0.32747 0.16257 0.0
N718 N 0.56835 0.28392 0.10883 0.0
N719 N 0.61496 0.32702 0.14199 0.0
H720 H 0.23565 0.18856 0.6232 0.0
H721 H 0.30642 0.06516 0.55843 0.0
H722 H 0.31062 0.16981 0.64593 0.0
H723 H 0.22815 0.07774 0.55046 0.0
H724 H 0.30961 0.10489 0.58776 0.0
H725 H 0.23384 0.14945 0.59365 0.0
C726 C 0.25171 0.17614 0.62217 0.0
C727 C 0.27325 0.18247 0.63737 0.0
C728 C 0.29177 0.09887 0.57957 0.0
C729 C 0.27141 0.13762 0.60298 0.0
C730 C 0.28994 0.07624 0.5628 0.0
C731 C 0.26698 0.06804 0.55199 0.0
C732 C 0.27052 0.11347 0.58533 0.0
C733 C 0.24624 0.08318 0.55837 0.0
C734 C 0.2507 0.15382 0.60511 0.0
C735 C 0.29367 0.16587 0.63447 0.0
N736 N 0.24853 0.10511 0.57451 0.0
N737 N 0.29225 0.14419 0.61765 0.0
H738 H 0.38363 0.74555 0.18496 0.0
H739 H 0.44861 0.66861 0.05888 0.0
H740 H 0.35675 0.6711 0.15317 0.0
H741 H 0.46322 0.74942 0.08134 0.0
H742 H 0.41833 0.66638 0.09677 0.0
H743 H 0.41632 0.74449 0.15048 0.0
C744 C 0.38451 0.729 0.17063 0.0
C745 C 0.36713 0.70857 0.17176 0.0
C746 C 0.42829 0.68452 0.09341 0.0
C747 C 0.40495 0.70705 0.13228 0.0
C748 C 0.44562 0.68578 0.07189 0.0
C749 C 0.45836 0.70928 0.06683 0.0
C750 C 0.42392 0.70685 0.11007 0.0
C751 C 0.45372 0.73095 0.08429 0.0
C752 C 0.40331 0.72834 0.15101 0.0
C753 C 0.36974 0.68727 0.15313 0.0
N754 N 0.4369 0.7292 0.10503 0.0
N755 N 0.38822 0.68711 0.13404 0.0
H756 H 0.70105 0.18443 0.39448 0.0
H757 H 0.77244 0.05326 0.42922 0.0
H758 H 0.75728 0.15263 0.34083 0.0
H759 H 0.69961 0.06782 0.46073 0.0
H760 H 0.76861 0.0915 0.39903 0.0
H761 H 0.7013 0.14365 0.42117 0.0
C762 C 0.7133 0.16888 0.38808 0.0
C763 C 0.72931 0.17222 0.36535 0.0
C764 C 0.75338 0.08624 0.41237 0.0
C765 C 0.72997 0.12566 0.39633 0.0
C766 C 0.75557 0.06446 0.42969 0.0
C767 C 0.73633 0.05739 0.44756 0.0
C768 C 0.73196 0.10145 0.41325 0.0
C769 C 0.71485 0.07256 0.44719 0.0
C770 C 0.71346 0.14563 0.40344 0.0
C771 C 0.74502 0.15137 0.35851 0.0
N772 N 0.71333 0.0941 0.43052 0.0
N773 N 0.74508 0.12914 0.37404 0.0
H774 H 0.36459 0.35133 0.84417 0.0
H775 H 0.46769 0.26581 0.92032 0.0
H776 H 0.39168 0.27788 0.81169 0.0
H777 H 0.45323 0.34605 0.94411 0.0
H778 H 0.4394 0.27018 0.88071 0.0
H779 H 0.39626 0.35011 0.88123 0.0
C780 C 0.37724 0.33501 0.84477 0.0
C781 C 0.37545 0.31465 0.8248 0.0
C782 C 0.44248 0.28693 0.89443 0.0
C783 C 0.41165 0.31313 0.86711 0.0
C784 C 0.45861 0.28443 0.91716 0.0
C785 C 0.46277 0.30557 0.93567 0.0
C786 C 0.43007 0.31067 0.89022 0.0
C787 C 0.45058 0.32926 0.93035 0.0
C788 C 0.39538 0.3344 0.86583 0.0
C789 C 0.3925 0.29414 0.82641 0.0
N790 N 0.43458 0.33111 0.90822 0.0
N791 N 0.40972 0.29382 0.84729 0.0
H792 H 0.24511 0.85268 0.33955 0.0
H793 H 0.3038 0.93316 0.46842 0.0
H794 H 0.29905 0.81853 0.39517 0.0
H795 H 0.2315 0.94839 0.43408 0.0
H796 H 0.30671 0.89457 0.43732 0.0
H797 H 0.24429 0.89175 0.36966 0.0
C798 C 0.25688 0.8535 0.35806 0.0
C799 C 0.27214 0.83237 0.36495 0.0
C800 C 0.29027 0.90645 0.43667 0.0
C801 C 0.27139 0.87701 0.39939 0.0
C802 C 0.28864 0.92849 0.45425 0.0
C803 C 0.26734 0.94392 0.4539 0.0
C804 C 0.27065 0.9002 0.41829 0.0
C805 C 0.24819 0.93695 0.43521 0.0
C806 C 0.25632 0.87571 0.37528 0.0
C807 C 0.28688 0.83434 0.38929 0.0
N808 N 0.25035 0.91571 0.4181 0.0
N809 N 0.28625 0.85636 0.40561 0.0
H810 H 0.62279 0.74398 0.8209 0.0
H811 H 0.55648 0.66778 0.94593 0.0
H812 H 0.64844 0.66945 0.85167 0.0
H813 H 0.54357 0.74875 0.92477 0.0
H814 H 0.58662 0.66518 0.9079 0.0
H815 H 0.59005 0.74317 0.85532 0.0
C816 C 0.62162 0.72746 0.83499 0.0
C817 C 0.63868 0.70695 0.83362 0.0
C818 C 0.57706 0.68344 0.91158 0.0
C819 C 0.60081 0.7057 0.87302 0.0
C820 C 0.55981 0.6849 0.93317 0.0
C821 C 0.5476 0.70856 0.93865 0.0
C822 C 0.58187 0.70571 0.89525 0.0
C823 C 0.55266 0.73016 0.9215 0.0
C824 C 0.6028 0.72694 0.85458 0.0
C825 C 0.6357 0.68568 0.85193 0.0
N826 N 0.56938 0.7282 0.90067 0.0
N827 N 0.61721 0.68567 0.871 0.0
loop_
_geom_bond_atom_site_label_1
_geom_bond_atom_site_label_2
_geom_bond_distance
_geom_bond_site_symmetry_2
_ccdc_geom_bond_type
C0 C1 1.386 . S
C0 C2 1.397 . S
C0 H24 0.931 . S
C1 C0 1.386 . S
C1 C5 1.397 . S
C2 C0 1.397 . S
C2 C3 1.384 . S
C2 H25 0.930 . S
C3 C2 1.384 . S
C3 C4 1.377 . S
C3 C6 1.481 . S
C4 C3 1.377 . S
C4 C5 1.389 . S
C4 H26 0.929 . S
C5 C1 1.397 . S
C5 C4 1.389 . S
C5 H27 0.931 . S
C6 C3 1.481 . S
C6 C7 1.387 . S
C6 C11 1.390 . S
C7 C6 1.387 . S
C7 C8 1.401 . S
C7 H28 0.930 . S
C8 C7 1.401 . S
C8 C9 1.376 . S
C8 C17 1.511 . S
C9 C8 1.376 . S
C9 C10 1.392 . S
C9 H30 0.931 . S
C10 C9 1.392 . S
C10 C11 1.361 . S
C10 C12 1.500 . S
C11 C6 1.390 . S
C11 C10 1.361 . S
C11 H29 0.931 . S
C12 C10 1.500 . S
C12 C13 1.371 . S
C12 C14 1.365 . S
C13 C12 1.371 . S
C13 C23 1.386 . S
C13 H31 0.931 . S
C14 C12 1.365 . S
C14 C15 1.409 . S
C14 H32 0.929 . S
C15 C14 1.409 . S
C15 C16 1.380 . S
C15 H33 0.930 . S
C16 C15 1.380 . S
C16 C23 1.357 . S
C17 C8 1.511 . S
C17 C18 1.341 . S
C17 C19 1.371 . S
C18 C17 1.341 . S
C18 C22 1.394 . S
C18 H34 0.930 . S
C19 C17 1.371 . S
C19 C20 1.392 . S
C19 H35 0.931 . S
C20 C19 1.392 . S
C20 C21 1.331 . S
C20 H38 0.932 . S
C21 C20 1.331 . S
C21 C22 1.336 . S
C22 C18 1.394 . S
C22 C21 1.336 . S
C22 H37 0.929 . S
C23 C13 1.386 . S
C23 C16 1.357 . S
C23 H36 0.928 . S
H24 C0 0.931 . S
H25 C2 0.930 . S
H26 C4 0.929 . S
H27 C5 0.931 . S
H28 C7 0.930 . S
H29 C11 0.931 . S
H30 C9 0.931 . S
H31 C13 0.931 . S
H32 C14 0.929 . S
H33 C15 0.930 . S
H34 C18 0.930 . S
H35 C19 0.931 . S
H36 C23 0.928 . S
H37 C22 0.929 . S
H38 C20 0.932 . S
C39 C40 1.386 . S
C39 C41 1.397 . S
C39 H63 0.931 . S
C40 C39 1.386 . S
C40 C44 1.397 . S
C41 C39 1.397 . S
C41 C42 1.384 . S
C41 H64 0.930 . S
C42 C41 1.384 . S
C42 C43 1.377 . S
C42 C45 1.481 . S
C43 C42 1.377 . S
C43 C44 1.389 . S
C43 H65 0.929 . S
C44 C40 1.397 . S
C44 C43 1.389 . S
C44 H66 0.931 . S
C45 C42 1.481 . S
C45 C46 1.387 . S
C45 C50 1.390 . S
C46 C45 1.387 . S
C46 C47 1.401 . S
C46 H67 0.930 . S
C47 C46 1.401 . S
C47 C48 1.376 . S
C47 C56 1.511 . S
C48 C47 1.376 . S
C48 C49 1.392 . S
C48 H69 0.931 . S
C49 C48 1.392 . S
C49 C50 1.361 . S
C49 C51 1.500 . S
C50 C45 1.390 . S
C50 C49 1.361 . S
C50 H68 0.931 . S
C51 C49 1.500 . S
C51 C52 1.371 . S
C51 C53 1.365 . S
C52 C51 1.371 . S
C52 C62 1.386 . S
C52 H70 0.931 . S
C53 C51 1.365 . S
C53 C54 1.409 . S
C53 H71 0.929 . S
C54 C53 1.409 . S
C54 C55 1.380 . S
C54 H72 0.930 . S
C55 C54 1.380 . S
C55 C62 1.357 . S
C56 C47 1.511 . S
C56 C57 1.341 . S
C56 C58 1.371 . S
C57 C56 1.341 . S
C57 C61 1.394 . S
C57 H73 0.930 . S
C58 C56 1.371 . S
C58 C59 1.392 . S
C58 H74 0.931 . S
C59 C58 1.392 . S
C59 C60 1.331 . S
C59 H77 0.932 . S
C60 C59 1.331 . S
C60 C61 1.336 . S
C61 C57 1.394 . S
C61 C60 1.336 . S
C61 H76 0.929 . S
C62 C52 1.386 . S
C62 C55 1.357 . S
C62 H75 0.928 . S
H63 C39 0.931 . S
H64 C41 0.930 . S
H65 C43 0.929 . S
H66 C44 0.931 . S
H67 C46 0.930 . S
H68 C50 0.931 . S
H69 C48 0.931 . S
H70 C52 0.931 . S
H71 C53 0.929 . S
H72 C54 0.930 . S
H73 C57 0.930 . S
H74 C58 0.931 . S
H75 C62 0.928 . S
H76 C61 0.929 . S
H77 C59 0.932 . S
C78 C79 1.386 . S
C78 C80 1.397 . S
C78 H102 0.931 . S
C79 C78 1.386 . S
C79 C83 1.397 . S
C80 C78 1.397 . S
C80 C81 1.384 . S
C80 H103 0.930 . S
C81 C80 1.384 . S
C81 C82 1.377 . S
C81 C84 1.481 . S
C82 C81 1.377 . S
C82 C83 1.389 . S
C82 H104 0.929 . S
C83 C79 1.397 . S
C83 C82 1.389 . S
C83 H105 0.931 . S
C84 C81 1.481 . S
C84 C85 1.387 . S
C84 C89 1.390 . S
C85 C84 1.387 . S
C85 C86 1.401 . S
C85 H106 0.930 . S
C86 C85 1.401 . S
C86 C87 1.376 . S
C86 C95 1.511 . S
C87 C86 1.376 . S
C87 C88 1.392 . S
C87 H108 0.931 . S
C88 C87 1.392 . S
C88 C89 1.361 . S
C88 C90 1.500 . S
C89 C84 1.390 . S
C89 C88 1.361 . S
C89 H107 0.931 . S
C90 C88 1.500 . S
C90 C91 1.371 . S
C90 C92 1.365 . S
C91 C90 1.371 . S
C91 C101 1.386 . S
C91 H109 0.931 . S
C92 C90 1.365 . S
C92 C93 1.409 . S
C92 H110 0.929 . S
C93 C92 1.409 . S
C93 C94 1.380 . S
C93 H111 0.930 . S
C94 C93 1.380 . S
C94 C101 1.357 . S
C95 C86 1.511 . S
C95 C96 1.341 . S
C95 C97 1.371 . S
C96 C95 1.341 . S
C96 C100 1.394 . S
C96 H112 0.930 . S
C97 C95 1.371 . S
C97 C98 1.392 . S
C97 H113 0.931 . S
C98 C97 1.392 . S
C98 C99 1.331 . S
C98 H116 0.932 . S
C99 C98 1.331 . S
C99 C100 1.336 . S
C100 C96 1.394 . S
C100 C99 1.336 . S
C100 H115 0.929 . S
C101 C91 1.386 . S
C101 C94 1.357 . S
C101 H114 0.928 . S
H102 C78 0.931 . S
H103 C80 0.930 . S
H104 C82 0.929 . S
H105 C83 0.931 . S
H106 C85 0.930 . S
H107 C89 0.931 . S
H108 C87 0.931 . S
H109 C91 0.931 . S
H110 C92 0.929 . S
H111 C93 0.930 . S
H112 C96 0.930 . S
H113 C97 0.931 . S
H114 C101 0.928 . S
H115 C100 0.929 . S
H116 C98 0.932 . S
C117 C118 1.386 . S
C117 C119 1.397 . S
C117 H141 0.931 . S
C118 C117 1.386 . S
C118 C122 1.397 . S
C119 C117 1.397 . S
C119 C120 1.384 . S
C119 H142 0.930 . S
C120 C119 1.384 . S
C120 C121 1.377 . S
C120 C123 1.481 . S
C121 C120 1.377 . S
C121 C122 1.389 . S
C121 H143 0.929 . S
C122 C118 1.397 . S
C122 C121 1.389 . S
C122 H144 0.931 . S
C123 C120 1.481 . S
C123 C124 1.387 . S
C123 C128 1.390 . S
C124 C123 1.387 . S
C124 C125 1.401 . S
C124 H145 0.930 . S
C125 C124 1.401 . S
C125 C126 1.376 . S
C125 C134 1.511 . S
C126 C125 1.376 . S
C126 C127 1.392 . S
C126 H147 0.931 . S
C127 C126 1.392 . S
C127 C128 1.361 . S
C127 C129 1.500 . S
C128 C123 1.390 . S
C128 C127 1.361 . S
C128 H146 0.931 . S
C129 C127 1.500 . S
C129 C130 1.371 . S
C129 C131 1.365 . S
C130 C129 1.371 . S
C130 C140 1.386 . S
C130 H148 0.931 . S
C131 C129 1.365 . S
C131 C132 1.409 . S
C131 H149 0.929 . S
C132 C131 1.409 . S
C132 C133 1.380 . S
C132 H150 0.930 . S
C133 C132 1.380 . S
C133 C140 1.357 . S
C134 C125 1.511 . S
C134 C135 1.341 . S
C134 C136 1.371 . S
C135 C134 1.341 . S
C135 C139 1.394 . S
C135 H151 0.930 . S
C136 C134 1.371 . S
C136 C137 1.392 . S
C136 H152 0.931 . S
C137 C136 1.392 . S
C137 C138 1.331 . S
C137 H155 0.932 . S
C138 C137 1.331 . S
C138 C139 1.336 . S
C139 C135 1.394 . S
C139 C138 1.336 . S
C139 H154 0.929 . S
C140 C130 1.386 . S
C140 C133 1.357 . S
C140 H153 0.928 . S
H141 C117 0.931 . S
H142 C119 0.930 . S
H143 C121 0.929 . S
H144 C122 0.931 . S
H145 C124 0.930 . S
H146 C128 0.931 . S
H147 C126 0.931 . S
H148 C130 0.931 . S
H149 C131 0.929 . S
H150 C132 0.930 . S
H151 C135 0.930 . S
H152 C136 0.931 . S
H153 C140 0.928 . S
H154 C139 0.929 . S
H155 C137 0.932 . S
C156 C157 1.386 . S
C156 C158 1.397 . S
C156 H180 0.931 . S
C157 C156 1.386 . S
C157 C161 1.397 . S
C158 C156 1.397 . S
C158 C159 1.384 . S
C158 H181 0.930 . S
C159 C158 1.384 . S
C159 C160 1.377 . S
C159 C162 1.481 . S
C160 C159 1.377 . S
C160 C161 1.389 . S
C160 H182 0.929 . S
C161 C157 1.397 . S
C161 C160 1.389 . S
C161 H183 0.931 . S
C162 C159 1.481 . S
C162 C163 1.387 . S
C162 C167 1.390 . S
C163 C162 1.387 . S
C163 C164 1.401 . S
C163 H184 0.930 . S
C164 C163 1.401 . S
C164 C165 1.376 . S
C164 C173 1.511 . S
C165 C164 1.376 . S
C165 C166 1.392 . S
C165 H186 0.931 . S
C166 C165 1.392 . S
C166 C167 1.361 . S
C166 C168 1.500 . S
C167 C162 1.390 . S
C167 C166 1.361 . S
C167 H185 0.931 . S
C168 C166 1.500 . S
C168 C169 1.371 . S
C168 C170 1.365 . S
C169 C168 1.371 . S
C169 C179 1.386 . S
C169 H187 0.931 . S
C170 C168 1.365 . S
C170 C171 1.409 . S
C170 H188 0.929 . S
C171 C170 1.409 . S
C171 C172 1.380 . S
C171 H189 0.930 . S
C172 C171 1.380 . S
C172 C179 1.357 . S
C173 C164 1.511 . S
C173 C174 1.341 . S
C173 C175 1.371 . S
C174 C173 1.341 . S
C174 C178 1.394 . S
C174 H190 0.930 . S
C175 C173 1.371 . S
C175 C176 1.392 . S
C175 H191 0.931 . S
C176 C175 1.392 . S
C176 C177 1.331 . S
C176 H194 0.932 . S
C177 C176 1.331 . S
C177 C178 1.336 . S
C178 C174 1.394 . S
C178 C177 1.336 . S
C178 H193 0.929 . S
C179 C169 1.386 . S
C179 C172 1.357 . S
C179 H192 0.928 . S
H180 C156 0.931 . S
H181 C158 0.930 . S
H182 C160 0.929 . S
H183 C161 0.931 . S
H184 C163 0.930 . S
H185 C167 0.931 . S
H186 C165 0.931 . S
H187 C169 0.931 . S
H188 C170 0.929 . S
H189 C171 0.930 . S
H190 C174 0.930 . S
H191 C175 0.931 . S
H192 C179 0.928 . S
H193 C178 0.929 . S
H194 C176 0.932 . S
C195 C196 1.386 . S
C195 C197 1.397 . S
C195 H219 0.931 . S
C196 C195 1.386 . S
C196 C200 1.397 . S
C197 C195 1.397 . S
C197 C198 1.384 . S
C197 H220 0.930 . S
C198 C197 1.384 . S
C198 C199 1.377 . S
C198 C201 1.481 . S
C199 C198 1.377 . S
C199 C200 1.389 . S
C199 H221 0.929 . S
C200 C196 1.397 . S
C200 C199 1.389 . S
C200 H222 0.931 . S
C201 C198 1.481 . S
C201 C202 1.387 . S
C201 C206 1.390 . S
C202 C201 1.387 . S
C202 C203 1.401 . S
C202 H223 0.930 . S
C203 C202 1.401 . S
C203 C204 1.376 . S
C203 C212 1.511 . S
C204 C203 1.376 . S
C204 C205 1.392 . S
C204 H225 0.931 . S
C205 C204 1.392 . S
C205 C206 1.361 . S
C205 C207 1.500 . S
C206 C201 1.390 . S
C206 C205 1.361 . S
C206 H224 0.931 . S
C207 C205 1.500 . S
C207 C208 1.371 . S
C207 C209 1.365 . S
C208 C207 1.371 . S
C208 C218 1.386 . S
C208 H226 0.931 . S
C209 C207 1.365 . S
C209 C210 1.409 . S
C209 H227 0.929 . S
C210 C209 1.409 . S
C210 C211 1.380 . S
C210 H228 0.930 . S
C211 C210 1.380 . S
C211 C218 1.357 . S
C212 C203 1.511 . S
C212 C213 1.341 . S
C212 C214 1.371 . S
C213 C212 1.341 . S
C213 C217 1.394 . S
C213 H229 0.930 . S
C214 C212 1.371 . S
C214 C215 1.392 . S
C214 H230 0.931 . S
C215 C214 1.392 . S
C215 C216 1.331 . S
C215 H233 0.932 . S
C216 C215 1.331 . S
C216 C217 1.336 . S
C217 C213 1.394 . S
C217 C216 1.336 . S
C217 H232 0.929 . S
C218 C208 1.386 . S
C218 C211 1.357 . S
C218 H231 0.928 . S
H219 C195 0.931 . S
H220 C197 0.930 . S
H221 C199 0.929 . S
H222 C200 0.931 . S
H223 C202 0.930 . S
H224 C206 0.931 . S
H225 C204 0.931 . S
H226 C208 0.931 . S
H227 C209 0.929 . S
H228 C210 0.930 . S
H229 C213 0.930 . S
H230 C214 0.931 . S
H231 C218 0.928 . S
H232 C217 0.929 . S
H233 C215 0.932 . S
C234 C235 1.386 . S
C234 C236 1.397 . S
C234 H258 0.931 . S
C235 C234 1.386 . S
C235 C239 1.397 . S
C236 C234 1.397 . S
C236 C237 1.384 . S
C236 H259 0.930 . S
C237 C236 1.384 . S
C237 C238 1.377 . S
C237 C240 1.481 . S
C238 C237 1.377 . S
C238 C239 1.389 . S
C238 H260 0.929 . S
C239 C235 1.397 . S
C239 C238 1.389 . S
C239 H261 0.931 . S
C240 C237 1.481 . S
C240 C241 1.387 . S
C240 C245 1.390 . S
C241 C240 1.387 . S
C241 C242 1.401 . S
C241 H262 0.930 . S
C242 C241 1.401 . S
C242 C243 1.376 . S
C242 C251 1.511 . S
C243 C242 1.376 . S
C243 C244 1.392 . S
C243 H264 0.931 . S
C244 C243 1.392 . S
C244 C245 1.361 . S
C244 C246 1.500 . S
C245 C240 1.390 . S
C245 C244 1.361 . S
C245 H263 0.931 . S
C246 C244 1.500 . S
C246 C247 1.371 . S
C246 C248 1.365 . S
C247 C246 1.371 . S
C247 C257 1.386 . S
C247 H265 0.931 . S
C248 C246 1.365 . S
C248 C249 1.409 . S
C248 H266 0.929 . S
C249 C248 1.409 . S
C249 C250 1.380 . S
C249 H267 0.930 . S
C250 C249 1.380 . S
C250 C257 1.357 . S
C251 C242 1.511 . S
C251 C252 1.341 . S
C251 C253 1.371 . S
C252 C251 1.341 . S
C252 C256 1.394 . S
C252 H268 0.930 . S
C253 C251 1.371 . S
C253 C254 1.392 . S
C253 H269 0.931 . S
C254 C253 1.392 . S
C254 C255 1.331 . S
C254 H272 0.932 . S
C255 C254 1.331 . S
C255 C256 1.336 . S
C256 C252 1.394 . S
C256 C255 1.336 . S
C256 H271 0.929 . S
C257 C247 1.386 . S
C257 C250 1.357 . S
C257 H270 0.928 . S
H258 C234 0.931 . S
H259 C236 0.930 . S
H260 C238 0.929 . S
H261 C239 0.931 . S
H262 C241 0.930 . S
H263 C245 0.931 . S
H264 C243 0.931 . S
H265 C247 0.931 . S
H266 C248 0.929 . S
H267 C249 0.930 . S
H268 C252 0.930 . S
H269 C253 0.931 . S
H270 C257 0.928 . S
H271 C256 0.929 . S
H272 C254 0.932 . S
C273 C274 1.386 . S
C273 C275 1.397 . S
C273 H297 0.931 . S
C274 C273 1.386 . S
C274 C278 1.397 . S
C275 C273 1.397 . S
C275 C276 1.384 . S
C275 H298 0.930 . S
C276 C275 1.384 . S
C276 C277 1.377 . S
C276 C279 1.481 . S
C277 C276 1.377 . S
C277 C278 1.389 . S
C277 H299 0.929 . S
C278 C274 1.397 . S
C278 C277 1.389 . S
C278 H300 0.931 . S
C279 C276 1.481 . S
C279 C280 1.387 . S
C279 C284 1.390 . S
C280 C279 1.387 . S
C280 C281 1.401 . S
C280 H301 0.930 . S
C281 C280 1.401 . S
C281 C282 1.376 . S
C281 C290 1.511 . S
C282 C281 1.376 . S
C282 C283 1.392 . S
C282 H303 0.931 . S
C283 C282 1.392 . S
C283 C284 1.361 . S
C283 C285 1.500 . S
C284 C279 1.390 . S
C284 C283 1.361 . S
C284 H302 0.931 . S
C285 C283 1.500 . S
C285 C286 1.371 . S
C285 C287 1.365 . S
C286 C285 1.371 . S
C286 C296 1.386 . S
C286 H304 0.931 . S
C287 C285 1.365 . S
C287 C288 1.409 . S
C287 H305 0.929 . S
C288 C287 1.409 . S
C288 C289 1.380 . S
C288 H306 0.930 . S
C289 C288 1.380 . S
C289 C296 1.357 . S
C290 C281 1.511 . S
C290 C291 1.341 . S
C290 C292 1.371 . S
C291 C290 1.341 . S
C291 C295 1.394 . S
C291 H307 0.930 . S
C292 C290 1.371 . S
C292 C293 1.392 . S
C292 H308 0.931 . S
C293 C292 1.392 . S
C293 C294 1.331 . S
C293 H311 0.932 . S
C294 C293 1.331 . S
C294 C295 1.336 . S
C295 C291 1.394 . S
C295 C294 1.336 . S
C295 H310 0.929 . S
C296 C286 1.386 . S
C296 C289 1.357 . S
C296 H309 0.928 . S
H297 C273 0.931 . S
H298 C275 0.930 . S
H299 C277 0.929 . S
H300 C278 0.931 . S
H301 C280 0.930 . S
H302 C284 0.931 . S
H303 C282 0.931 . S
H304 C286 0.931 . S
H305 C287 0.929 . S
H306 C288 0.930 . S
H307 C291 0.930 . S
H308 C292 0.931 . S
H309 C296 0.928 . S
H310 C295 0.929 . S
H311 C293 0.932 . S
C312 O314 1.247 . S
C312 O316 1.258 . S
C313 O320 1.247 . S
C313 O321 1.258 . S
O314 C312 1.247 . S
O314 Zn315 2.028 1_655 S
Zn315 O314 2.028 1_455 S
Zn315 O319 2.035 . S
Zn315 O321 2.035 . S
Zn315 O322 2.028 1_455 S
O316 C312 1.258 . S
O316 Zn317 2.035 1_655 S
Zn317 O316 2.035 1_455 S
Zn317 O318 2.028 . S
Zn317 O320 2.028 . S
Zn317 O323 2.035 1_455 S
O318 Zn317 2.028 . S
O318 C324 1.247 . S
O319 Zn315 2.035 . S
O319 C324 1.258 . S
O320 C313 1.247 . S
O320 Zn317 2.028 . S
O321 C313 1.258 . S
O321 Zn315 2.035 . S
O322 Zn315 2.028 1_655 S
O322 C325 1.247 . S
O323 Zn317 2.035 1_655 S
O323 C325 1.258 . S
C324 O318 1.247 . S
C324 O319 1.258 . S
C325 O322 1.247 . S
C325 O323 1.258 . S
C326 O328 1.247 . S
C326 O330 1.258 . S
C327 O334 1.247 . S
C327 O335 1.258 . S
O328 C326 1.247 . S
O328 Zn329 2.028 1_655 S
Zn329 O328 2.028 1_455 S
Zn329 O333 2.035 . S
Zn329 O335 2.035 . S
Zn329 O336 2.028 1_455 S
O330 C326 1.258 . S
O330 Zn331 2.035 1_655 S
Zn331 O330 2.035 1_455 S
Zn331 O332 2.028 . S
Zn331 O334 2.028 . S
Zn331 O337 2.035 1_455 S
O332 Zn331 2.028 . S
O332 C338 1.247 . S
O333 Zn329 2.035 . S
O333 C338 1.258 . S
O334 C327 1.247 . S
O334 Zn331 2.028 . S
O335 C327 1.258 . S
O335 Zn329 2.035 . S
O336 Zn329 2.028 1_655 S
O336 C339 1.247 . S
O337 Zn331 2.035 1_655 S
O337 C339 1.258 . S
C338 O332 1.247 . S
C338 O333 1.258 . S
C339 O336 1.247 . S
C339 O337 1.258 . S
C340 O342 1.247 . S
C340 O344 1.258 . S
C341 O348 1.247 . S
C341 O349 1.258 . S
O342 C340 1.247 . S
O342 Zn343 2.028 1_565 S
Zn343 O342 2.028 1_545 S
Zn343 O347 2.035 . S
Zn343 O349 2.035 . S
Zn343 O350 2.028 1_545 S
O344 C340 1.258 . S
O344 Zn345 2.035 1_565 S
Zn345 O344 2.035 1_545 S
Zn345 O346 2.028 . S
Zn345 O348 2.028 . S
Zn345 O351 2.035 1_545 S
O346 Zn345 2.028 . S
O346 C352 1.247 . S
O347 Zn343 2.035 . S
O347 C352 1.258 . S
O348 C341 1.247 . S
O348 Zn345 2.028 . S
O349 C341 1.258 . S
O349 Zn343 2.035 . S
O350 Zn343 2.028 1_565 S
O350 C353 1.247 . S
O351 Zn345 2.035 1_565 S
O351 C353 1.258 . S
C352 O346 1.247 . S
C352 O347 1.258 . S
C353 O350 1.247 . S
C353 O351 1.258 . S
C354 O356 1.247 . S
C354 O358 1.258 . S
C355 O362 1.247 . S
C355 O363 1.258 . S
O356 C354 1.247 . S
O356 Zn357 2.046 . S
Zn357 O356 2.046 . S
Zn357 O361 2.053 . S
Zn357 O363 2.018 1_554 S
Zn357 O364 2.010 1_554 S
O358 C354 1.258 . S
O358 Zn359 2.035 . S
Zn359 O358 2.035 . S
Zn359 O360 2.028 . S
Zn359 O362 2.028 1_554 S
Zn359 O365 2.035 1_554 S
O360 Zn359 2.028 . S
O360 C366 1.247 . S
O361 Zn357 2.053 . S
O361 C366 1.258 . S
O362 C355 1.247 . S
O362 Zn359 2.028 1_556 S
O363 C355 1.258 . S
O363 Zn357 2.018 1_556 S
O364 Zn357 2.010 1_556 S
O364 C367 1.247 . S
O365 Zn359 2.035 1_556 S
O365 C367 1.258 . S
C366 O360 1.247 . S
C366 O361 1.258 . S
C367 O364 1.247 . S
C367 O365 1.258 . S
C368 O370 1.247 . S
C368 O372 1.258 . S
C369 O376 1.247 . S
C369 O377 1.258 . S
O370 C368 1.247 . S
O370 Zn371 2.005 1_565 S
Zn371 O370 2.005 1_545 S
Zn371 O375 2.059 . S
Zn371 O377 2.059 . S
Zn371 O378 2.005 1_545 S
O372 C368 1.258 . S
O372 Zn373 2.035 1_565 S
Zn373 O372 2.035 1_545 S
Zn373 O374 2.028 . S
Zn373 O376 2.028 . S
Zn373 O379 2.035 1_545 S
O374 Zn373 2.028 . S
O374 C380 1.247 . S
O375 Zn371 2.059 . S
O375 C380 1.258 . S
O376 C369 1.247 . S
O376 Zn373 2.028 . S
O377 C369 1.258 . S
O377 Zn371 2.059 . S
O378 Zn371 2.005 1_565 S
O378 C381 1.247 . S
O379 Zn373 2.035 1_565 S
O379 C381 1.258 . S
C380 O374 1.247 . S
C380 O375 1.258 . S
C381 O378 1.247 . S
C381 O379 1.258 . S
C382 O384 1.247 . S
C382 O386 1.258 . S
C383 O390 1.247 . S
C383 O391 1.258 . S
O384 C382 1.247 . S
O384 Zn385 2.028 . S
Zn385 O384 2.028 . S
Zn385 O389 2.035 . S
Zn385 O391 2.035 1_554 S
Zn385 O392 2.028 1_554 S
O386 C382 1.258 . S
O386 Zn387 2.035 . S
Zn387 O386 2.035 . S
Zn387 O388 2.028 . S
Zn387 O390 2.028 1_554 S
Zn387 O393 2.035 1_554 S
O388 Zn387 2.028 . S
O388 C394 1.247 . S
O389 Zn385 2.035 . S
O389 C394 1.258 . S
O390 C383 1.247 . S
O390 Zn387 2.028 1_556 S
O391 C383 1.258 . S
O391 Zn385 2.035 1_556 S
O392 Zn385 2.028 1_556 S
O392 C395 1.247 . S
O393 Zn387 2.035 1_556 S
O393 C395 1.258 . S
C394 O388 1.247 . S
C394 O389 1.258 . S
C395 O392 1.247 . S
C395 O393 1.258 . S
H396 C402 0.930 . S
H397 C406 0.930 . S
H398 C411 0.929 . S
H399 C409 0.929 . S
H400 C404 0.929 . S
H401 C410 0.929 . S
C402 H396 0.930 . S
C402 C403 1.367 . S
C402 C410 1.378 . S
C403 C402 1.367 . S
C403 C411 1.433 . S
C404 H400 0.929 . S
C404 C406 1.378 . S
C404 C408 1.350 . S
C405 C408 1.463 . S
C405 C410 1.350 . S
C405 N413 1.427 . S
C406 H397 0.930 . S
C406 C404 1.378 . S
C406 C407 1.367 . S
C407 C406 1.367 . S
C407 C409 1.433 . S
C408 C404 1.350 . S
C408 C405 1.463 . S
C408 N412 1.427 . S
C409 H399 0.929 . S
C409 C407 1.433 . S
C409 N412 1.384 . S
C410 H401 0.929 . S
C410 C402 1.378 . S
C410 C405 1.350 . S
C411 H398 0.929 . S
C411 C403 1.433 . S
C411 N413 1.384 . S
N412 C408 1.427 . S
N412 C409 1.384 . S
N413 C405 1.427 . S
N413 C411 1.384 . S
H414 C420 0.930 . S
H415 C424 0.930 . S
H416 C429 0.929 . S
H417 C427 0.929 . S
H418 C422 0.929 . S
H419 C428 0.929 . S
C420 H414 0.930 . S
C420 C421 1.367 . S
C420 C428 1.378 . S
C421 C420 1.367 . S
C421 C429 1.433 . S
C422 H418 0.929 . S
C422 C424 1.378 . S
C422 C426 1.350 . S
C423 C426 1.463 . S
C423 C428 1.350 . S
C423 N431 1.427 . S
C424 H415 0.930 . S
C424 C422 1.378 . S
C424 C425 1.367 . S
C425 C424 1.367 . S
C425 C427 1.433 . S
C426 C422 1.350 . S
C426 C423 1.463 . S
C426 N430 1.427 . S
C427 H417 0.929 . S
C427 C425 1.433 . S
C427 N430 1.384 . S
C428 H419 0.929 . S
C428 C420 1.378 . S
C428 C423 1.350 . S
C429 H416 0.929 . S
C429 C421 1.433 . S
C429 N431 1.384 . S
N430 C426 1.427 . S
N430 C427 1.384 . S
N431 C423 1.427 . S
N431 C429 1.384 . S
H432 C438 0.930 . S
H433 C442 0.930 . S
H434 C447 0.929 . S
H435 C445 0.929 . S
H436 C440 0.929 . S
H437 C446 0.929 . S
C438 H432 0.930 . S
C438 C439 1.367 . S
C438 C446 1.378 . S
C439 C438 1.367 . S
C439 C447 1.433 . S
C440 H436 0.929 . S
C440 C442 1.378 . S
C440 C444 1.350 . S
C441 C444 1.463 . S
C441 C446 1.350 . S
C441 N449 1.427 . S
C442 H433 0.930 . S
C442 C440 1.378 . S
C442 C443 1.367 . S
C443 C442 1.367 . S
C443 C445 1.433 . S
C444 C440 1.350 . S
C444 C441 1.463 . S
C444 N448 1.427 . S
C445 H435 0.929 . S
C445 C443 1.433 . S
C445 N448 1.384 . S
C446 H437 0.929 . S
C446 C438 1.378 . S
C446 C441 1.350 . S
C447 H434 0.929 . S
C447 C439 1.433 . S
C447 N449 1.384 . S
N448 C444 1.427 . S
N448 C445 1.384 . S
N449 C441 1.427 . S
N449 C447 1.384 . S
H450 C456 0.930 . S
H451 C460 0.930 . S
H452 C465 0.929 . S
H453 C463 0.929 . S
H454 C458 0.929 . S
H455 C464 0.929 . S
C456 H450 0.930 . S
C456 C457 1.367 . S
C456 C464 1.378 . S
C457 C456 1.367 . S
C457 C465 1.433 . S
C458 H454 0.929 . S
C458 C460 1.378 . S
C458 C462 1.350 . S
C459 C462 1.463 . S
C459 C464 1.350 . S
C459 N467 1.427 . S
C460 H451 0.930 . S
C460 C458 1.378 . S
C460 C461 1.367 . S
C461 C460 1.367 . S
C461 C463 1.433 . S
C462 C458 1.350 . S
C462 C459 1.463 . S
C462 N466 1.427 . S
C463 H453 0.929 . S
C463 C461 1.433 . S
C463 N466 1.384 . S
C464 H455 0.929 . S
C464 C456 1.378 . S
C464 C459 1.350 . S
C465 H452 0.929 . S
C465 C457 1.433 . S
C465 N467 1.384 . S
N466 C462 1.427 . S
N466 C463 1.384 . S
N467 C459 1.427 . S
N467 C465 1.384 . S
H468 C474 0.930 . S
H469 C478 0.930 . S
H470 C483 0.929 . S
H471 C481 0.929 . S
H472 C476 0.929 . S
H473 C482 0.929 . S
C474 H468 0.930 . S
C474 C475 1.367 . S
C474 C482 1.378 . S
C475 C474 1.367 . S
C475 C483 1.433 . S
C476 H472 0.929 . S
C476 C478 1.378 . S
C476 C480 1.350 . S
C477 C480 1.463 . S
C477 C482 1.350 . S
C477 N485 1.427 . S
C478 H469 0.930 . S
C478 C476 1.378 . S
C478 C479 1.367 . S
C479 C478 1.367 . S
C479 C481 1.433 . S
C480 C476 1.350 . S
C480 C477 1.463 . S
C480 N484 1.427 . S
C481 H471 0.929 . S
C481 C479 1.433 . S
C481 N484 1.384 . S
C482 H473 0.929 . S
C482 C474 1.378 . S
C482 C477 1.350 . S
C483 H470 0.929 . S
C483 C475 1.433 . S
C483 N485 1.384 . S
N484 C480 1.427 . S
N484 C481 1.384 . S
N485 C477 1.427 . S
N485 C483 1.384 . S
H486 C492 0.930 . S
H487 C496 0.930 . S
H488 C501 0.929 . S
H489 C499 0.929 . S
H490 C494 0.929 . S
H491 C500 0.929 . S
C492 H486 0.930 . S
C492 C493 1.367 . S
C492 C500 1.378 . S
C493 C492 1.367 . S
C493 C501 1.433 . S
C494 H490 0.929 . S
C494 C496 1.378 . S
C494 C498 1.350 . S
C495 C498 1.463 . S
C495 C500 1.350 . S
C495 N503 1.427 . S
C496 H487 0.930 . S
C496 C494 1.378 . S
C496 C497 1.367 . S
C497 C496 1.367 . S
C497 C499 1.433 . S
C498 C494 1.350 . S
C498 C495 1.463 . S
C498 N502 1.427 . S
C499 H489 0.929 . S
C499 C497 1.433 . S
C499 N502 1.384 . S
C500 H491 0.929 . S
C500 C492 1.378 . S
C500 C495 1.350 . S
C501 H488 0.929 . S
C501 C493 1.433 . S
C501 N503 1.384 . S
N502 C498 1.427 . S
N502 C499 1.384 . S
N503 C495 1.427 . S
N503 C501 1.384 . S
H504 C510 0.930 . S
H505 C514 0.930 . S
H506 C519 0.929 . S
H507 C517 0.929 . S
H508 C512 0.929 . S
H509 C518 0.929 . S
C510 H504 0.930 . S
C510 C511 1.367 . S
C510 C518 1.378 . S
C511 C510 1.367 . S
C511 C519 1.433 . S
C512 H508 0.929 . S
C512 C514 1.378 . S
C512 C516 1.350 . S
C513 C516 1.463 . S
C513 C518 1.350 . S
C513 N521 1.427 . S
C514 H505 0.930 . S
C514 C512 1.378 . S
C514 C515 1.367 . S
C515 C514 1.367 . S
C515 C517 1.433 . S
C516 C512 1.350 . S
C516 C513 1.463 . S
C516 N520 1.427 . S
C517 H507 0.929 . S
C517 C515 1.433 . S
C517 N520 1.384 . S
C518 H509 0.929 . S
C518 C510 1.378 . S
C518 C513 1.350 . S
C519 H506 0.929 . S
C519 C511 1.433 . S
C519 N521 1.384 . S
N520 C516 1.427 . S
N520 C517 1.384 . S
N521 C513 1.427 . S
N521 C519 1.384 . S
H522 C528 0.930 . S
H523 C532 0.930 . S
H524 C537 0.929 . S
H525 C535 0.929 . S
H526 C530 0.929 . S
H527 C536 0.929 . S
C528 H522 0.930 . S
C528 C529 1.367 . S
C528 C536 1.378 . S
C529 C528 1.367 . S
C529 C537 1.433 . S
C530 H526 0.929 . S
C530 C532 1.378 . S
C530 C534 1.350 . S
C531 C534 1.463 . S
C531 C536 1.350 . S
C531 N539 1.427 . S
C532 H523 0.930 . S
C532 C530 1.378 . S
C532 C533 1.367 . S
C533 C532 1.367 . S
C533 C535 1.433 . S
C534 C530 1.350 . S
C534 C531 1.463 . S
C534 N538 1.427 . S
C535 H525 0.929 . S
C535 C533 1.433 . S
C535 N538 1.384 . S
C536 H527 0.929 . S
C536 C528 1.378 . S
C536 C531 1.350 . S
C537 H524 0.929 . S
C537 C529 1.433 . S
C537 N539 1.384 . S
N538 C534 1.427 . S
N538 C535 1.384 . S
N539 C531 1.427 . S
N539 C537 1.384 . S
H540 C546 0.930 . S
H541 C550 0.930 . S
H542 C555 0.929 . S
H543 C553 0.929 . S
H544 C548 0.929 . S
H545 C554 0.929 . S
C546 H540 0.930 . S
C546 C547 1.367 . S
C546 C554 1.378 . S
C547 C546 1.367 . S
C547 C555 1.433 . S
C548 H544 0.929 . S
C548 C550 1.378 . S
C548 C552 1.350 . S
C549 C552 1.463 . S
C549 C554 1.350 . S
C549 N557 1.427 . S
C550 H541 0.930 . S
C550 C548 1.378 . S
C550 C551 1.367 . S
C551 C550 1.367 . S
C551 C553 1.433 . S
C552 C548 1.350 . S
C552 C549 1.463 . S
C552 N556 1.427 . S
C553 H543 0.929 . S
C553 C551 1.433 . S
C553 N556 1.384 . S
C554 H545 0.929 . S
C554 C546 1.378 . S
C554 C549 1.350 . S
C555 H542 0.929 . S
C555 C547 1.433 . S
C555 N557 1.384 . S
N556 C552 1.427 . S
N556 C553 1.384 . S
N557 C549 1.427 . S
N557 C555 1.384 . S
H558 C564 0.930 . S
H559 C568 0.930 . S
H560 C573 0.929 . S
H561 C571 0.929 . S
H562 C566 0.929 . S
H563 C572 0.929 . S
C564 H558 0.930 . S
C564 C565 1.367 . S
C564 C572 1.378 . S
C565 C564 1.367 . S
C565 C573 1.433 . S
C566 H562 0.929 . S
C566 C568 1.378 . S
C566 C570 1.350 . S
C567 C570 1.463 . S
C567 C572 1.350 . S
C567 N575 1.427 . S
C568 H559 0.930 . S
C568 C566 1.378 . S
C568 C569 1.367 . S
C569 C568 1.367 . S
C569 C571 1.433 . S
C570 C566 1.350 . S
C570 C567 1.463 . S
C570 N574 1.427 . S
C571 H561 0.929 . S
C571 C569 1.433 . S
C571 N574 1.384 . S
C572 H563 0.929 . S
C572 C564 1.378 . S
C572 C567 1.350 . S
C573 H560 0.929 . S
C573 C565 1.433 . S
C573 N575 1.384 . S
N574 C570 1.427 . S
N574 C571 1.384 . S
N575 C567 1.427 . S
N575 C573 1.384 . S
H576 C582 0.930 . S
H577 C586 0.930 . S
H578 C591 0.929 . S
H579 C589 0.929 . S
H580 C584 0.929 . S
H581 C590 0.929 . S
C582 H576 0.930 . S
C582 C583 1.367 . S
C582 C590 1.378 . S
C583 C582 1.367 . S
C583 C591 1.433 . S
C584 H580 0.929 . S
C584 C586 1.378 . S
C584 C588 1.350 . S
C585 C588 1.463 . S
C585 C590 1.350 . S
C585 N593 1.427 . S
C586 H577 0.930 . S
C586 C584 1.378 . S
C586 C587 1.367 . S
C587 C586 1.367 . S
C587 C589 1.433 . S
C588 C584 1.350 . S
C588 C585 1.463 . S
C588 N592 1.427 . S
C589 H579 0.929 . S
C589 C587 1.433 . S
C589 N592 1.384 . S
C590 H581 0.929 . S
C590 C582 1.378 . S
C590 C585 1.350 . S
C591 H578 0.929 . S
C591 C583 1.433 . S
C591 N593 1.384 . S
N592 C588 1.427 . S
N592 C589 1.384 . S
N593 C585 1.427 . S
N593 C591 1.384 . S
H594 C600 0.930 . S
H595 C604 0.930 . S
H596 C609 0.929 . S
H597 C607 0.929 . S
H598 C602 0.929 . S
H599 C608 0.929 . S
C600 H594 0.930 . S
C600 C601 1.367 . S
C600 C608 1.378 . S
C601 C600 1.367 . S
C601 C609 1.433 . S
C602 H598 0.929 . S
C602 C604 1.378 . S
C602 C606 1.350 . S
C603 C606 1.463 . S
C603 C608 1.350 . S
C603 N611 1.427 . S
C604 H595 0.930 . S
C604 C602 1.378 . S
C604 C605 1.367 . S
C605 C604 1.367 . S
C605 C607 1.433 . S
C606 C602 1.350 . S
C606 C603 1.463 . S
C606 N610 1.427 . S
C607 H597 0.929 . S
C607 C605 1.433 . S
C607 N610 1.384 . S
C608 H599 0.929 . S
C608 C600 1.378 . S
C608 C603 1.350 . S
C609 H596 0.929 . S
C609 C601 1.433 . S
C609 N611 1.384 . S
N610 C606 1.427 . S
N610 C607 1.384 . S
N611 C603 1.427 . S
N611 C609 1.384 . S
H612 C618 0.930 . S
H613 C622 0.930 . S
H614 C627 0.929 . S
H615 C625 0.929 . S
H616 C620 0.929 . S
H617 C626 0.929 . S
C618 H612 0.930 . S
C618 C619 1.367 . S
C618 C626 1.378 . S
C619 C618 1.367 . S
C619 C627 1.433 . S
C620 H616 0.929 . S
C620 C622 1.378 . S
C620 C624 1.350 . S
C621 C624 1.463 . S
C621 C626 1.350 . S
C621 N629 1.427 . S
C622 H613 0.930 . S
C622 C620 1.378 . S
C622 C623 1.367 . S
C623 C622 1.367 . S
C623 C625 1.433 . S
C624 C620 1.350 . S
C624 C621 1.463 . S
C624 N628 1.427 . S
C625 H615 0.929 . S
C625 C623 1.433 . S
C625 N628 1.384 . S
C626 H617 0.929 . S
C626 C618 1.378 . S
C626 C621 1.350 . S
C627 H614 0.929 . S
C627 C619 1.433 . S
C627 N629 1.384 . S
N628 C624 1.427 . S
N628 C625 1.384 . S
N629 C621 1.427 . S
N629 C627 1.384 . S
H630 C636 0.930 . S
H631 C640 0.930 . S
H632 C645 0.929 . S
H633 C643 0.929 . S
H634 C638 0.929 . S
H635 C644 0.929 . S
C636 H630 0.930 . S
C636 C637 1.367 . S
C636 C644 1.378 . S
C637 C636 1.367 . S
C637 C645 1.433 . S
C638 H634 0.929 . S
C638 C640 1.378 . S
C638 C642 1.350 . S
C639 C642 1.463 . S
C639 C644 1.350 . S
C639 N647 1.427 . S
C640 H631 0.930 . S
C640 C638 1.378 . S
C640 C641 1.367 . S
C641 C640 1.367 . S
C641 C643 1.433 . S
C642 C638 1.350 . S
C642 C639 1.463 . S
C642 N646 1.427 . S
C643 H633 0.929 . S
C643 C641 1.433 . S
C643 N646 1.384 . S
C644 H635 0.929 . S
C644 C636 1.378 . S
C644 C639 1.350 . S
C645 H632 0.929 . S
C645 C637 1.433 . S
C645 N647 1.384 . S
N646 C642 1.427 . S
N646 C643 1.384 . S
N647 C639 1.427 . S
N647 C645 1.384 . S
H648 C654 0.930 . S
H649 C658 0.930 . S
H650 C663 0.929 . S
H651 C661 0.929 . S
H652 C656 0.929 . S
H653 C662 0.929 . S
C654 H648 0.930 . S
C654 C655 1.367 . S
C654 C662 1.378 . S
C655 C654 1.367 . S
C655 C663 1.433 . S
C656 H652 0.929 . S
C656 C658 1.378 . S
C656 C660 1.350 . S
C657 C660 1.463 . S
C657 C662 1.350 . S
C657 N665 1.427 . S
C658 H649 0.930 . S
C658 C656 1.378 . S
C658 C659 1.367 . S
C659 C658 1.367 . S
C659 C661 1.433 . S
C660 C656 1.350 . S
C660 C657 1.463 . S
C660 N664 1.427 . S
C661 H651 0.929 . S
C661 C659 1.433 . S
C661 N664 1.384 . S
C662 H653 0.929 . S
C662 C654 1.378 . S
C662 C657 1.350 . S
C663 H650 0.929 . S
C663 C655 1.433 . S
C663 N665 1.384 . S
N664 C660 1.427 . S
N664 C661 1.384 . S
N665 C657 1.427 . S
N665 C663 1.384 . S
H666 C672 0.930 . S
H667 C676 0.930 . S
H668 C681 0.929 . S
H669 C679 0.929 . S
H670 C674 0.929 . S
H671 C680 0.929 . S
C672 H666 0.930 . S
C672 C673 1.367 . S
C672 C680 1.378 . S
C673 C672 1.367 . S
C673 C681 1.433 . S
C674 H670 0.929 . S
C674 C676 1.378 . S
C674 C678 1.350 . S
C675 C678 1.463 . S
C675 C680 1.350 . S
C675 N683 1.427 . S
C676 H667 0.930 . S
C676 C674 1.378 . S
C676 C677 1.367 . S
C677 C676 1.367 . S
C677 C679 1.433 . S
C678 C674 1.350 . S
C678 C675 1.463 . S
C678 N682 1.427 . S
C679 H669 0.929 . S
C679 C677 1.433 . S
C679 N682 1.384 . S
C680 H671 0.929 . S
C680 C672 1.378 . S
C680 C675 1.350 . S
C681 H668 0.929 . S
C681 C673 1.433 . S
C681 N683 1.384 . S
N682 C678 1.427 . S
N682 C679 1.384 . S
N683 C675 1.427 . S
N683 C681 1.384 . S
H684 C690 0.930 . S
H685 C694 0.930 . S
H686 C699 0.929 . S
H687 C697 0.929 . S
H688 C692 0.929 . S
H689 C698 0.929 . S
C690 H684 0.930 . S
C690 C691 1.367 . S
C690 C698 1.378 . S
C691 C690 1.367 . S
C691 C699 1.433 . S
C692 H688 0.929 . S
C692 C694 1.378 . S
C692 C696 1.350 . S
C693 C696 1.463 . S
C693 C698 1.350 . S
C693 N701 1.427 . S
C694 H685 0.930 . S
C694 C692 1.378 . S
C694 C695 1.367 . S
C695 C694 1.367 . S
C695 C697 1.433 . S
C696 C692 1.350 . S
C696 C693 1.463 . S
C696 N700 1.427 . S
C697 H687 0.929 . S
C697 C695 1.433 . S
C697 N700 1.384 . S
C698 H689 0.929 . S
C698 C690 1.378 . S
C698 C693 1.350 . S
C699 H686 0.929 . S
C699 C691 1.433 . S
C699 N701 1.384 . S
N700 C696 1.427 . S
N700 C697 1.384 . S
N701 C693 1.427 . S
N701 C699 1.384 . S
H702 C708 0.930 . S
H703 C712 0.930 . S
H704 C717 0.929 . S
H705 C715 0.929 . S
H706 C710 0.929 . S
H707 C716 0.929 . S
C708 H702 0.930 . S
C708 C709 1.367 . S
C708 C716 1.378 . S
C709 C708 1.367 . S
C709 C717 1.433 . S
C710 H706 0.929 . S
C710 C712 1.378 . S
C710 C714 1.350 . S
C711 C714 1.463 . S
C711 C716 1.350 . S
C711 N719 1.427 . S
C712 H703 0.930 . S
C712 C710 1.378 . S
C712 C713 1.367 . S
C713 C712 1.367 . S
C713 C715 1.433 . S
C714 C710 1.350 . S
C714 C711 1.463 . S
C714 N718 1.427 . S
C715 H705 0.929 . S
C715 C713 1.433 . S
C715 N718 1.384 . S
C716 H707 0.929 . S
C716 C708 1.378 . S
C716 C711 1.350 . S
C717 H704 0.929 . S
C717 C709 1.433 . S
C717 N719 1.384 . S
N718 C714 1.427 . S
N718 C715 1.384 . S
N719 C711 1.427 . S
N719 C717 1.384 . S
H720 C726 0.930 . S
H721 C730 0.930 . S
H722 C735 0.929 . S
H723 C733 0.929 . S
H724 C728 0.929 . S
H725 C734 0.929 . S
C726 H720 0.930 . S
C726 C727 1.367 . S
C726 C734 1.378 . S
C727 C726 1.367 . S
C727 C735 1.433 . S
C728 H724 0.929 . S
C728 C730 1.378 . S
C728 C732 1.350 . S
C729 C732 1.463 . S
C729 C734 1.350 . S
C729 N737 1.427 . S
C730 H721 0.930 . S
C730 C728 1.378 . S
C730 C731 1.367 . S
C731 C730 1.367 . S
C731 C733 1.433 . S
C732 C728 1.350 . S
C732 C729 1.463 . S
C732 N736 1.427 . S
C733 H723 0.929 . S
C733 C731 1.433 . S
C733 N736 1.384 . S
C734 H725 0.929 . S
C734 C726 1.378 . S
C734 C729 1.350 . S
C735 H722 0.929 . S
C735 C727 1.433 . S
C735 N737 1.384 . S
N736 C732 1.427 . S
N736 C733 1.384 . S
N737 C729 1.427 . S
N737 C735 1.384 . S
H738 C744 0.930 . S
H739 C748 0.930 . S
H740 C753 0.929 . S
H741 C751 0.929 . S
H742 C746 0.929 . S
H743 C752 0.929 . S
C744 H738 0.930 . S
C744 C745 1.367 . S
C744 C752 1.378 . S
C745 C744 1.367 . S
C745 C753 1.433 . S
C746 H742 0.929 . S
C746 C748 1.378 . S
C746 C750 1.350 . S
C747 C750 1.463 . S
C747 C752 1.350 . S
C747 N755 1.427 . S
C748 H739 0.930 . S
C748 C746 1.378 . S
C748 C749 1.367 . S
C749 C748 1.367 . S
C749 C751 1.433 . S
C750 C746 1.350 . S
C750 C747 1.463 . S
C750 N754 1.427 . S
C751 H741 0.929 . S
C751 C749 1.433 . S
C751 N754 1.384 . S
C752 H743 0.929 . S
C752 C744 1.378 . S
C752 C747 1.350 . S
C753 H740 0.929 . S
C753 C745 1.433 . S
C753 N755 1.384 . S
N754 C750 1.427 . S
N754 C751 1.384 . S
N755 C747 1.427 . S
N755 C753 1.384 . S
H756 C762 0.930 . S
H757 C766 0.930 . S
H758 C771 0.929 . S
H759 C769 0.929 . S
H760 C764 0.929 . S
H761 C770 0.929 . S
C762 H756 0.930 . S
C762 C763 1.367 . S
C762 C770 1.378 . S
C763 C762 1.367 . S
C763 C771 1.433 . S
C764 H760 0.929 . S
C764 C766 1.378 . S
C764 C768 1.350 . S
C765 C768 1.463 . S
C765 C770 1.350 . S
C765 N773 1.427 . S
C766 H757 0.930 . S
C766 C764 1.378 . S
C766 C767 1.367 . S
C767 C766 1.367 . S
C767 C769 1.433 . S
C768 C764 1.350 . S
C768 C765 1.463 . S
C768 N772 1.427 . S
C769 H759 0.929 . S
C769 C767 1.433 . S
C769 N772 1.384 . S
C770 H761 0.929 . S
C770 C762 1.378 . S
C770 C765 1.350 . S
C771 H758 0.929 . S
C771 C763 1.433 . S
C771 N773 1.384 . S
N772 C768 1.427 . S
N772 C769 1.384 . S
N773 C765 1.427 . S
N773 C771 1.384 . S
H774 C780 0.930 . S
H775 C784 0.930 . S
H776 C789 0.929 . S
H777 C787 0.929 . S
H778 C782 0.929 . S
H779 C788 0.929 . S
C780 H774 0.930 . S
C780 C781 1.367 . S
C780 C788 1.378 . S
C781 C780 1.367 . S
C781 C789 1.433 . S
C782 H778 0.929 . S
C782 C784 1.378 . S
C782 C786 1.350 . S
C783 C786 1.463 . S
C783 C788 1.350 . S
C783 N791 1.427 . S
C784 H775 0.930 . S
C784 C782 1.378 . S
C784 C785 1.367 . S
C785 C784 1.367 . S
C785 C787 1.433 . S
C786 C782 1.350 . S
C786 C783 1.463 . S
C786 N790 1.427 . S
C787 H777 0.929 . S
C787 C785 1.433 . S
C787 N790 1.384 . S
C788 H779 0.929 . S
C788 C780 1.378 . S
C788 C783 1.350 . S
C789 H776 0.929 . S
C789 C781 1.433 . S
C789 N791 1.384 . S
N790 C786 1.427 . S
N790 C787 1.384 . S
N791 C783 1.427 . S
N791 C789 1.384 . S
H792 C798 0.930 . S
H793 C802 0.930 . S
H794 C807 0.929 . S
H795 C805 0.929 . S
H796 C800 0.929 . S
H797 C806 0.929 . S
C798 H792 0.930 . S
C798 C799 1.367 . S
C798 C806 1.378 . S
C799 C798 1.367 . S
C799 C807 1.433 . S
C800 H796 0.929 . S
C800 C802 1.378 . S
C800 C804 1.350 . S
C801 C804 1.463 . S
C801 C806 1.350 . S
C801 N809 1.427 . S
C802 H793 0.930 . S
C802 C800 1.378 . S
C802 C803 1.367 . S
C803 C802 1.367 . S
C803 C805 1.433 . S
C804 C800 1.350 . S
C804 C801 1.463 . S
C804 N808 1.427 . S
C805 H795 0.929 . S
C805 C803 1.433 . S
C805 N808 1.384 . S
C806 H797 0.929 . S
C806 C798 1.378 . S
C806 C801 1.350 . S
C807 H794 0.929 . S
C807 C799 1.433 . S
C807 N809 1.384 . S
N808 C804 1.427 . S
N808 C805 1.384 . S
N809 C801 1.427 . S
N809 C807 1.384 . S
H810 C816 0.930 . S
H811 C820 0.930 . S
H812 C825 0.929 . S
H813 C823 0.929 . S
H814 C818 0.929 . S
H815 C824 0.929 . S
C816 H810 0.930 . S
C816 C817 1.367 . S
C816 C824 1.378 . S
C817 C816 1.367 . S
C817 C825 1.433 . S
C818 H814 0.929 . S
C818 C820 1.378 . S
C818 C822 1.350 . S
C819 C822 1.463 . S
C819 C824 1.350 . S
C819 N827 1.427 . S
C820 H811 0.930 . S
C820 C818 1.378 . S
C820 C821 1.367 . S
C821 C820 1.367 . S
C821 C823 1.433 . S
C822 C818 1.350 . S
C822 C819 1.463 . S
C822 N826 1.427 . S
C823 H813 0.929 . S
C823 C821 1.433 . S
C823 N826 1.384 . S
C824 H815 0.929 . S
C824 C816 1.378 . S
C824 C819 1.350 . S
C825 H812 0.929 . S
C825 C817 1.433 . S
C825 N827 1.384 . S
N826 C822 1.427 . S
N826 C823 1.384 . S
N827 C819 1.427 . S
N827 C825 1.384 . S
C407 C324 1.517 . S
C403 C16 1.517 . S
C425 C327 1.500 . S
C421 C55 1.503 . S
C443 C325 1.510 . S
C439 C99 1.511 . S
C461 C326 1.498 . S
C457 C138 1.499 . S
C479 C341 1.511 . S
C475 C1 1.511 . S
C497 C355 1.502 . S
C493 C40 1.504 . S
C511 C94 1.505 . S
C515 C381 1.506 . S
C533 C395 1.503 . S
C529 C133 1.505 . S
C551 C340 1.499 . S
C547 C60 1.499 . S
C565 C79 1.512 . S
C569 C354 1.509 . S
C587 C380 1.498 . S
C583 C118 1.500 . S
C605 C394 1.509 . S
C601 C21 1.512 . S
C619 C177 1.504 . S
C623 C339 1.503 . S
C641 C312 1.509 . S
C637 C211 1.512 . S
C655 C255 1.502 . S
C659 C338 1.501 . S
C673 C289 1.516 . S
C677 C313 1.515 . S
C695 C368 1.500 . S
C691 C157 1.501 . S
C713 C382 1.509 . S
C709 C196 1.511 . S
C731 C352 1.502 . S
C727 C250 1.505 . S
C745 C294 1.508 . S
C749 C366 1.507 . S
C767 C369 1.502 . S
C763 C216 1.504 . S
C785 C383 1.502 . S
C781 C235 1.505 . S
C803 C353 1.510 . S
C799 C274 1.509 . S
C817 C172 1.508 . S
C821 C367 1.507 . S
